# Generated by pormake.
# Topology zzz, (3,6)-cn, num edge types: 1
# Building blocks:
#     Node 0, Type 0, BuildingBlock: BETDAH_clean_linker_0, # of connection points: 3
#     Node 1, Type 0, BuildingBlock: BETDAH_clean_linker_0, # of connection points: 3
#     Node 2, Type 0, BuildingBlock: BETDAH_clean_linker_0, # of connection points: 3
#     Node 3, Type 0, BuildingBlock: BETDAH_clean_linker_0, # of connection points: 3
#     Node 4, Type 0, BuildingBlock: BETDAH_clean_linker_0, # of connection points: 3
#     Node 5, Type 0, BuildingBlock: BETDAH_clean_linker_0, # of connection points: 3
#     Node 6, Type 0, BuildingBlock: BETDAH_clean_linker_0, # of connection points: 3
#     Node 7, Type 0, BuildingBlock: BETDAH_clean_linker_0, # of connection points: 3
#     Node 8, Type 1, BuildingBlock: KUMJIN_clean_sbu_0, # of connection points: 6
#     Node 9, Type 1, BuildingBlock: KUMJIN_clean_sbu_0, # of connection points: 6
#     Node 10, Type 1, BuildingBlock: KUMJIN_clean_sbu_0, # of connection points: 6
#     Node 11, Type 1, BuildingBlock: KUMJIN_clean_sbu_0, # of connection points: 6
#     Edge 12, Type (0, 1), BuildingBlock: KIFKEQ_clean_linker_1, # of connection points: 2
#     Edge 13, Type (0, 1), BuildingBlock: KIFKEQ_clean_linker_1, # of connection points: 2
#     Edge 14, Type (0, 1), BuildingBlock: KIFKEQ_clean_linker_1, # of connection points: 2
#     Edge 15, Type (0, 1), BuildingBlock: KIFKEQ_clean_linker_1, # of connection points: 2
#     Edge 16, Type (0, 1), BuildingBlock: KIFKEQ_clean_linker_1, # of connection points: 2
#     Edge 17, Type (0, 1), BuildingBlock: KIFKEQ_clean_linker_1, # of connection points: 2
#     Edge 18, Type (0, 1), BuildingBlock: KIFKEQ_clean_linker_1, # of connection points: 2
#     Edge 19, Type (0, 1), BuildingBlock: KIFKEQ_clean_linker_1, # of connection points: 2
#     Edge 20, Type (0, 1), BuildingBlock: KIFKEQ_clean_linker_1, # of connection points: 2
#     Edge 21, Type (0, 1), BuildingBlock: KIFKEQ_clean_linker_1, # of connection points: 2
#     Edge 22, Type (0, 1), BuildingBlock: KIFKEQ_clean_linker_1, # of connection points: 2
#     Edge 23, Type (0, 1), BuildingBlock: KIFKEQ_clean_linker_1, # of connection points: 2
#     Edge 24, Type (0, 1), BuildingBlock: KIFKEQ_clean_linker_1, # of connection points: 2
#     Edge 25, Type (0, 1), BuildingBlock: KIFKEQ_clean_linker_1, # of connection points: 2
#     Edge 26, Type (0, 1), BuildingBlock: KIFKEQ_clean_linker_1, # of connection points: 2
#     Edge 27, Type (0, 1), BuildingBlock: KIFKEQ_clean_linker_1, # of connection points: 2
#     Edge 28, Type (0, 1), BuildingBlock: KIFKEQ_clean_linker_1, # of connection points: 2
#     Edge 29, Type (0, 1), BuildingBlock: KIFKEQ_clean_linker_1, # of connection points: 2
#     Edge 30, Type (0, 1), BuildingBlock: KIFKEQ_clean_linker_1, # of connection points: 2
#     Edge 31, Type (0, 1), BuildingBlock: KIFKEQ_clean_linker_1, # of connection points: 2
#     Edge 32, Type (0, 1), BuildingBlock: KIFKEQ_clean_linker_1, # of connection points: 2
#     Edge 33, Type (0, 1), BuildingBlock: KIFKEQ_clean_linker_1, # of connection points: 2
#     Edge 34, Type (0, 1), BuildingBlock: KIFKEQ_clean_linker_1, # of connection points: 2
#     Edge 35, Type (0, 1), BuildingBlock: KIFKEQ_clean_linker_1, # of connection points: 2
# Relax obj value: 0.175
# Max RMSD: 0.164
# Mean RMSD: 0.117
data_MOF--net-zzz--node1-KUMJIN_clean_sbu_0--node2-BETDAH_clean_linker_0--edge1-KIFKEQ_clean_linker_1
_symmetry_space_group_name_H-M    P1
_symmetry_Int_Tables_number       1
_symmetry_cell_setting            triclinic
loop_
_symmetry_equiv_pos_as_xyz
'x, y, z'
_cell_length_a     51.387498
_cell_length_b     51.31733
_cell_length_c     14.949069
_cell_angle_alpha  91.564893
_cell_angle_beta   89.91674
_cell_angle_gamma 89.859929
loop_
_atom_site_label
_atom_site_type_symbol
_atom_site_fract_x
_atom_site_fract_y
_atom_site_fract_z
_atom_type_partial_charge
H0 H 0.81971 0.57296 0.23255 0.0
H1 H 0.74359 0.55915 0.12276 0.0
H2 H 0.76576 0.52487 0.37211 0.0
C3 C 0.80036 0.56479 0.23853 0.0
C4 C 0.79493 0.54929 0.31192 0.0
C5 C 0.78214 0.56815 0.16958 0.0
C6 C 0.75757 0.55651 0.17589 0.0
C7 C 0.75131 0.54097 0.24882 0.0
C8 C 0.77025 0.53717 0.31644 0.0
N9 N 0.72647 0.52857 0.25443 0.0
C10 C 0.70692 0.52948 0.18894 0.0
H11 H 0.97061 0.8348 0.19404 0.0
H12 H 0.9816 0.75622 0.09659 0.0
H13 H 0.01611 0.78145 0.3471 0.0
C14 C 0.97779 0.81528 0.20507 0.0
C15 C 0.99289 0.81072 0.28146 0.0
C16 C 0.97374 0.79585 0.1384 0.0
C17 C 0.98458 0.77103 0.14855 0.0
C18 C 0.99996 0.76557 0.22328 0.0
C19 C 1.00409 0.78554 0.28969 0.0
N20 N 1.01196 0.74052 0.23167 0.0
C21 C 1.01146 0.72017 0.16649 0.0
H22 H 0.70757 0.97962 0.21418 0.0
H23 H 0.78676 0.98614 0.12675 0.0
H24 H 0.7656 1.0096 0.39666 0.0
C25 C 0.72776 0.98386 0.22969 0.0
C26 C 0.73407 0.9941 0.31499 0.0
C27 C 0.74656 0.98136 0.16157 0.0
C28 C 0.77246 0.98803 0.17984 0.0
C29 C 0.77971 0.99802 0.26452 0.0
C30 C 0.76029 1.00135 0.33178 0.0
N31 N 0.80608 1.00554 0.28227 0.0
C32 C 0.82649 1.00423 0.21942 0.0
H33 H 0.56711 0.72433 0.23192 0.0
H34 H 0.56101 0.8038 0.15374 0.0
H35 H 0.52541 0.77943 0.40004 0.0
C36 C 0.56074 0.74416 0.24674 0.0
C37 C 0.54564 0.74919 0.32343 0.0
C38 C 0.56627 0.76365 0.18557 0.0
C39 C 0.55715 0.78901 0.20235 0.0
C40 C 0.54274 0.7951 0.28044 0.0
C41 C 0.53717 0.77507 0.34131 0.0
N42 N 0.53291 0.82085 0.29719 0.0
C43 C 0.53429 0.841 0.23589 0.0
H44 H 0.22333 0.47526 0.1119 0.0
H45 H 0.29947 0.48958 0.2209 0.0
H46 H 0.27662 0.52414 0.97274 0.0
C47 C 0.2426 0.48361 0.10579 0.0
C48 C 0.24777 0.49931 0.03269 0.0
C49 C 0.26094 0.48029 0.17441 0.0
C50 C 0.28541 0.49214 0.16795 0.0
C51 C 0.29142 0.50786 0.09526 0.0
C52 C 0.27232 0.51168 0.02816 0.0
N53 N 0.31613 0.5205 0.08942 0.0
C54 C 0.33648 0.51845 0.15157 0.0
H55 H 0.07017 0.21298 0.14576 0.0
H56 H 0.05982 0.29165 0.24335 0.0
H57 H 0.02494 0.26668 0.99323 0.0
C58 C 0.06313 0.23256 0.13481 0.0
C59 C 0.04802 0.23723 0.05855 0.0
C60 C 0.06736 0.25195 0.20149 0.0
C61 C 0.05673 0.27687 0.19138 0.0
C62 C 0.04134 0.28244 0.11679 0.0
C63 C 0.03698 0.26249 0.0505 0.0
N64 N 0.02947 0.30755 0.10846 0.0
C65 C 0.03103 0.32837 0.17162 0.0
H66 H 0.33067 0.07045 0.11642 0.0
H67 H 0.2517 0.06353 0.20581 0.0
H68 H 0.27253 0.03953 0.93619 0.0
C69 C 0.31048 0.06604 0.1015 0.0
C70 C 0.30408 0.05553 0.01663 0.0
C71 C 0.2918 0.06855 0.17001 0.0
C72 C 0.26592 0.06163 0.15247 0.0
C73 C 0.25859 0.05132 0.06831 0.0
C74 C 0.2779 0.04801 1.00068 0.0
N75 N 0.23229 0.04344 0.05148 0.0
C76 C 0.21207 0.04434 0.11508 0.0
H77 H 0.46196 0.32408 0.0653 0.0
H78 H 0.474 0.24853 0.17434 0.0
H79 H 0.50143 0.26471 0.90829 0.0
C80 C 0.46843 0.30402 0.05639 0.0
C81 C 0.48148 0.29653 0.97754 0.0
C82 C 0.46599 0.28691 0.12753 0.0
C83 C 0.47554 0.26139 0.11831 0.0
C84 C 0.48778 0.25289 0.03837 0.0
C85 C 0.49115 0.27078 0.96868 0.0
N86 N 0.49757 0.22691 0.02752 0.0
C87 C 0.49673 0.20798 0.09333 0.0
Eu88 Eu 0.04421 0.01746 0.75364 0.0
C89 C 0.94597 0.99733 0.51287 0.0
C90 C 0.9609 0.96742 0.39573 0.0
C91 C 0.91547 0.96731 0.44041 0.0
C92 C 0.96597 0.98748 0.46009 0.0
C93 C 0.92037 0.98776 0.50226 0.0
C94 C 0.93571 0.9571 0.38744 0.0
C95 C 0.90586 0.02064 0.60976 0.0
N96 N 0.95123 0.01716 0.57165 0.0
C97 C 0.93148 0.02942 0.61796 0.0
C98 C 0.90031 0.99949 0.55246 0.0
Eu99 Eu 0.99515 0.03106 0.58486 0.0
N100 N 0.99009 0.9981 0.46911 0.0
C101 C 1.00953 0.99027 0.41144 0.0
C102 C 0.98112 0.95866 0.34008 0.0
C103 C 1.00544 0.97036 0.34735 0.0
H104 H 0.9357 0.04572 0.66295 0.0
H105 H 0.0212 0.96393 0.30391 0.0
H106 H 0.93157 0.94162 0.33883 0.0
H107 H 0.89044 0.03012 0.64791 0.0
H108 H 0.02872 0.99828 0.41542 0.0
H109 H 0.01883 0.08509 0.0339 0.0
H110 H 0.97805 0.94323 0.29033 0.0
H111 H 0.10363 1.00193 0.67703 0.0
H112 H 1.01113 0.05036 0.9239 0.0
H113 H 0.14897 0.01736 0.69111 0.0
H114 H 0.89599 0.9596 0.43179 0.0
H115 H 0.06193 0.10603 0.04506 0.0
H116 H 0.10827 0.10762 0.99485 0.0
H117 H 0.88043 0.99271 0.54606 0.0
H118 H 0.14371 0.0892 0.9022 0.0
N119 N 0.04957 0.05055 0.86877 0.0
C120 C 0.03029 0.05847 0.9269 0.0
C121 C 0.05878 0.09041 0.99605 0.0
C122 C 0.07888 0.08151 0.94012 0.0
C123 C 0.03449 0.07859 0.99014 0.0
C124 C 0.0737 0.06122 0.87677 0.0
H125 H 0.15915 0.05533 0.79026 0.0
N126 N 0.08824 0.03104 0.76658 0.0
C127 C 0.1336 0.02713 0.72866 0.0
C128 C 0.09361 0.05112 0.82416 0.0
C129 C 0.10793 0.01842 0.72104 0.0
C130 C 0.13923 0.0486 0.78442 0.0
C131 C 0.11923 0.06067 0.83393 0.0
O132 O 0.07026 0.98841 0.80918 0.0
O133 O 0.01756 0.99965 0.64998 0.0
O134 O 0.97462 1.01145 0.70084 0.0
O135 O 1.00355 0.01833 0.81875 0.0
O136 O 0.05544 0.9865 0.64817 0.0
O137 O 0.03013 0.98949 0.85035 0.0
O138 O 0.96886 0.06021 0.53135 0.0
O139 O 0.02188 0.04884 0.68818 0.0
O140 O 0.06496 0.03672 0.6373 0.0
O141 O 0.03574 0.03064 0.51969 0.0
O142 O 0.98406 0.06211 0.69034 0.0
O143 O 1.00871 0.0589 0.48686 0.0
C144 C 0.03277 0.98312 0.61327 0.0
C145 C 0.04832 0.94816 0.81117 0.0
C146 C 0.02053 0.9106 0.77511 0.0
C147 C 0.02378 0.9361 0.81067 0.0
C148 C 0.04214 0.89789 0.73534 0.0
C149 C 0.06962 0.93475 0.77264 0.0
C150 C 0.0664 0.90998 0.73384 0.0
C151 C 0.97999 1.01245 0.78758 0.0
C152 C 0.05126 0.97548 0.84407 0.0
C153 C 0.12423 0.08145 0.89439 0.0
C154 C 0.10406 0.09191 0.94719 0.0
C155 C 1.00678 0.06546 0.72493 0.0
C156 C 0.99087 0.10035 0.52704 0.0
C157 C 0.01555 0.11213 0.52811 0.0
C158 C 0.01899 0.13764 0.56336 0.0
C159 C 0.99741 0.15066 0.60219 0.0
C160 C 0.96961 0.11406 0.56459 0.0
C161 C 0.97302 0.13885 0.60306 0.0
C162 C 0.0594 0.03616 0.55067 0.0
C163 C 0.98766 0.07301 0.4947 0.0
H164 H 1.00719 0.94658 0.83837 0.0
H165 H 0.04077 0.87812 0.70869 0.0
H166 H 0.08873 0.9436 0.77093 0.0
H167 H 0.08289 0.89989 0.70385 0.0
H168 H 0.03211 0.10143 0.50114 0.0
H169 H 0.99895 0.17044 0.62854 0.0
H170 H 0.9504 0.10543 0.56579 0.0
H171 H 0.95655 0.14917 0.63231 0.0
Eu172 Eu 0.52525 0.04914 0.75198 0.0
C173 C 0.56152 0.96611 0.50026 0.0
C174 C 0.58275 0.99052 0.38476 0.0
C175 C 0.60048 0.94876 0.4264 0.0
C176 C 0.56276 0.98808 0.44931 0.0
C177 C 0.58004 0.94588 0.48758 0.0
C178 C 0.60181 0.97104 0.37498 0.0
C179 C 0.55501 0.9198 0.58753 0.0
N180 N 0.5414 0.96374 0.55826 0.0
C181 C 0.53706 0.94018 0.59676 0.0
C182 C 0.57694 0.92287 0.53419 0.0
Eu183 Eu 0.51234 1.00015 0.57664 0.0
N184 N 0.54406 1.00668 0.46056 0.0
C185 C 0.54317 0.02691 0.40253 0.0
C186 C 0.58277 1.01221 0.33055 0.0
C187 C 0.56263 0.03025 0.33854 0.0
H188 H 0.51948 0.9367 0.6341 0.0
H189 H 0.56183 0.04661 0.29442 0.0
H190 H 0.61739 0.97279 0.32657 0.0
H191 H 0.55165 0.90157 0.62038 0.0
H192 H 0.52735 0.04045 0.4019 0.0
H193 H 0.47541 1.00361 0.03551 0.0
H194 H 0.59778 1.0148 0.28058 0.0
H195 H 0.51885 0.11265 0.69475 0.0
H196 H 0.51001 1.00939 0.92829 0.0
H197 H 0.48695 0.14808 0.70767 0.0
H198 H 0.61498 0.93358 0.41667 0.0
H199 H 0.43959 0.0356 0.04817 0.0
H200 H 0.42027 0.07763 1.00115 0.0
H201 H 0.59071 0.90694 0.52625 0.0
H202 H 0.42302 0.1167 0.91041 0.0
N203 N 0.49347 0.04306 0.86833 0.0
C204 C 0.49423 0.02298 0.92701 0.0
C205 C 0.45464 0.038 0.99825 0.0
C206 C 0.45482 0.05958 0.94352 0.0
C207 C 0.47471 0.01987 0.99092 0.0
C208 C 0.47486 0.06178 0.87904 0.0
H209 H 0.44767 0.14307 0.80099 0.0
N210 N 0.49654 0.08585 0.77021 0.0
C211 C 0.48337 0.1299 0.74053 0.0
C212 C 0.47631 0.08367 0.82782 0.0
C213 C 0.50117 0.10937 0.73178 0.0
C214 C 0.46131 0.12702 0.79339 0.0
C215 C 0.45794 0.10406 0.84007 0.0
O216 O 0.54718 0.08308 0.80048 0.0
O217 O 0.54416 0.02028 0.6545 0.0
O218 O 0.51786 0.97833 0.70466 0.0
O219 O 0.53587 1.00877 0.8044 0.0
O220 O 0.55827 0.05819 0.65739 0.0
O221 O 0.55155 0.04638 0.86584 0.0
O222 O 0.4905 0.96607 0.52899 0.0
O223 O 0.49349 0.02896 0.67418 0.0
O224 O 0.51942 0.0709 0.6238 0.0
O225 O 0.50101 0.04043 0.52508 0.0
O226 O 0.47916 0.99118 0.67087 0.0
O227 O 0.4865 1.00246 0.46138 0.0
C228 C 0.56166 0.03506 0.62356 0.0
C229 C 0.58965 0.07071 0.83716 0.0
C230 C 0.63104 0.04894 0.80362 0.0
C231 C 0.60422 0.04782 0.82152 0.0
C232 C 0.6428 0.07352 0.79564 0.0
C233 C 0.60184 0.09499 0.83003 0.0
C234 C 0.62821 0.09633 0.8082 0.0
C235 C 0.52874 0.98462 0.782 0.0
C236 C 0.56139 0.06941 0.85359 0.0
C237 C 0.43741 0.10139 0.90102 0.0
C238 C 0.43588 0.0792 0.9528 0.0
C239 C 0.47594 1.01429 0.70514 0.0
C240 C 0.44823 0.97845 0.49013 0.0
C241 C 0.4339 1.00145 0.5067 0.0
C242 C 0.40708 1.00056 0.52441 0.0
C243 C 0.39503 0.97607 0.5311 0.0
C244 C 0.43578 0.95428 0.49602 0.0
C245 C 0.40937 0.95314 0.51752 0.0
C246 C 0.50812 0.0646 0.54714 0.0
C247 C 0.47652 0.97953 0.47453 0.0
H248 H 0.59478 0.02901 0.82439 0.0
H249 H 0.6635 0.07524 0.78365 0.0
H250 H 0.59088 0.11289 0.84021 0.0
H251 H 0.63751 0.11512 0.80281 0.0
H252 H 0.44355 0.02018 0.5048 0.0
H253 H 0.3743 0.97454 0.54289 0.0
H254 H 0.44657 0.9363 0.48519 0.0
H255 H 0.39986 0.93442 0.52196 0.0
Eu256 Eu 0.55023 0.5117 0.58326 0.0
C257 C 0.43918 0.51104 0.76971 0.0
C258 C 0.41053 0.53349 0.66909 0.0
C259 C 0.39299 0.50071 0.7665 0.0
C260 C 0.43565 0.52902 0.70384 0.0
C261 C 0.4178 0.49712 0.80345 0.0
C262 C 0.38938 0.51882 0.69923 0.0
C263 C 0.44665 0.47865 0.91239 0.0
N264 N 0.46332 0.5081 0.80411 0.0
C265 C 0.46722 0.49276 0.87636 0.0
C266 C 0.42188 0.48056 0.87497 0.0
Eu267 Eu 0.49774 0.53178 0.7389 0.0
N268 N 0.4565 0.54302 0.67688 0.0
C269 C 0.45297 0.56322 0.6201 0.0
C270 C 0.40726 0.55307 0.6069 0.0
C271 C 0.42851 0.56824 0.58339 0.0
H272 H 0.48641 0.4909 0.90493 0.0
H273 H 0.42611 0.58379 0.53657 0.0
H274 H 0.37003 0.52182 0.67263 0.0
H275 H 0.44997 0.46619 0.96853 0.0
H276 H 0.4689 0.57526 0.5999 0.0
H277 H 0.61245 0.45286 0.79923 0.0
H278 H 0.38833 0.55701 0.57831 0.0
H279 H 0.57143 0.55088 0.42342 0.0
H280 H 0.57298 0.46383 0.71801 0.0
H281 H 0.61012 0.57724 0.38788 0.0
H282 H 0.37639 0.49001 0.79088 0.0
H283 H 0.65148 0.48063 0.78891 0.0
H284 H 0.67365 0.51854 0.7192 0.0
H285 H 0.40596 0.4696 0.9029 0.0
H286 H 0.67292 0.55296 0.6078 0.0
N287 N 0.58848 0.49832 0.66149 0.0
C288 C 0.58953 0.47634 0.71131 0.0
C289 C 0.63407 0.48561 0.75227 0.0
C290 C 0.63357 0.50704 0.69666 0.0
C291 C 0.61211 0.46988 0.75806 0.0
C292 C 0.61031 0.51275 0.65073 0.0
H293 H 0.64947 0.57469 0.48255 0.0
N294 N 0.58791 0.53534 0.54087 0.0
C295 C 0.61027 0.56491 0.44547 0.0
C296 C 0.60991 0.5321 0.58891 0.0
C297 C 0.58835 0.55013 0.46614 0.0
C298 C 0.63239 0.56345 0.49911 0.0
C299 C 0.63269 0.54631 0.57029 0.0
O300 O 0.55839 0.50276 0.44267 0.0
O301 O 0.50728 0.51643 0.60201 0.0
O302 O 0.49261 0.48821 0.71295 0.0
O303 O 0.53369 0.47668 0.65825 0.0
O304 O 0.5221 0.52749 0.4804 0.0
O305 O 0.55279 0.47134 0.53374 0.0
O306 O 0.4964 0.54222 0.88125 0.0
O307 O 0.54109 0.52756 0.72002 0.0
O308 O 0.54945 0.55636 0.5864 0.0
O309 O 0.50981 0.56662 0.65589 0.0
O310 O 0.52548 0.51264 0.8352 0.0
O311 O 0.49548 0.5726 0.78413 0.0
C312 C 0.50105 0.52496 0.52629 0.0
C313 C 0.5354 0.46636 0.38704 0.0
C314 C 0.49855 0.43764 0.35376 0.0
C315 C 0.51628 0.44878 0.41536 0.0
C316 C 0.49969 0.44527 0.26383 0.0
C317 C 0.53615 0.47346 0.29709 0.0
C318 C 0.51819 0.46317 0.23622 0.0
C319 C 0.51077 0.47055 0.6933 0.0
C320 C 0.55435 0.47795 0.45034 0.0
C321 C 0.65535 0.54198 0.62015 0.0
C322 C 0.65578 0.52235 0.68336 0.0
C323 C 0.5468 0.51712 0.79323 0.0
C324 C 0.52307 0.57899 0.9096 0.0
C325 C 0.53152 0.60363 0.88316 0.0
C326 C 0.55485 0.61438 0.9164 0.0
C327 C 0.56986 0.59995 0.97632 0.0
C328 C 0.53812 0.56526 0.9714 0.0
C329 C 0.56143 0.57564 1.0038 0.0
C330 C 0.53079 0.57317 0.60991 0.0
C331 C 0.49985 0.5669 0.86735 0.0
H332 H 0.51537 0.44357 0.48501 0.0
H333 H 0.48701 0.4367 0.21341 0.0
H334 H 0.55063 0.48703 0.27388 0.0
H335 H 0.51897 0.46866 0.16685 0.0
H336 H 0.51994 0.61442 0.83636 0.0
H337 H 0.58765 0.60783 1.00464 0.0
H338 H 0.53222 0.54623 0.99347 0.0
H339 H 0.57299 0.56479 0.05056 0.0
Eu340 Eu 0.03097 0.54736 0.58845 0.0
C341 C 0.03348 0.44315 0.79963 0.0
C342 C 1.01191 0.41169 0.70206 0.0
C343 C 0.04492 0.3972 0.80586 0.0
C344 C 0.01577 0.43767 0.73263 0.0
C345 C 0.04781 0.42293 0.83873 0.0
C346 C 0.02703 0.3916 0.73744 0.0
C347 C 0.06516 0.45471 0.94465 0.0
N348 N 0.03565 0.46812 0.8301 0.0
C349 C 0.0506 0.47407 0.90348 0.0
C350 C 0.06405 0.42907 0.91135 0.0
Eu351 Eu 1.0116 0.50046 0.75517 0.0
N352 N 1.00131 0.45755 0.70084 0.0
C353 C 0.98119 0.45231 0.64333 0.0
C354 C 0.99244 0.40657 0.63884 0.0
C355 C 0.97675 0.42692 0.61048 0.0
H356 H 0.05184 0.49394 0.92883 0.0
H357 H 0.96127 0.42312 0.56291 0.0
H358 H 0.02451 0.37159 0.71413 0.0
H359 H 0.07734 0.45963 1.00161 0.0
H360 H 0.96887 0.46758 0.61958 0.0
H361 H 0.08188 0.62477 0.77855 0.0
H362 H 0.98894 0.38692 0.61334 0.0
H363 H 0.99042 0.55392 0.41559 0.0
H364 H 0.07418 0.58031 0.72209 0.0
H365 H 0.96454 0.58819 0.34412 0.0
H366 H 0.05594 0.38144 0.83437 0.0
H367 H 0.0539 0.66091 0.7296 0.0
H368 H 0.01787 0.67619 0.63059 0.0
H369 H 0.07533 0.41409 0.94333 0.0
H370 H 0.98606 0.66631 0.51161 0.0
N371 N 0.04139 0.59028 0.6424 0.0
C372 C 0.06172 0.59556 0.69898 0.0
C373 C 0.05035 0.64127 0.70418 0.0
C374 C 0.03065 0.63611 0.64186 0.0
C375 C 0.06623 0.62094 0.73169 0.0
C376 C 0.02675 0.61013 0.61132 0.0
H377 H 0.96647 0.63367 0.40302 0.0
N378 N 1.00672 0.57969 0.51423 0.0
C379 C 0.97686 0.5931 0.40075 0.0
C380 C 1.00886 0.60465 0.54492 0.0
C381 C 0.99163 0.57377 0.44117 0.0
C382 C 0.97792 0.61871 0.43441 0.0
C383 C 0.99433 0.62485 0.50654 0.0
O384 O 0.042 0.54541 0.4475 0.0
O385 O 0.02702 0.50479 0.61722 0.0
O386 O 0.05569 0.49688 0.73938 0.0
O387 O 0.06555 0.53708 0.67947 0.0
O388 O 1.01289 0.51666 0.49586 0.0
O389 O 0.07188 0.54869 0.54868 0.0
O390 O 1.00039 0.50243 0.89595 0.0
O391 O 0.01563 0.54289 0.72609 0.0
O392 O 0.98692 0.55108 0.60533 0.0
O393 O 0.97704 0.51076 0.66418 0.0
O394 O 0.02949 0.53135 0.84805 0.0
O395 O 0.97064 0.49914 0.79433 0.0
C396 C 0.01703 0.4967 0.54416 0.0
C397 C 0.07841 0.51745 0.43121 0.0
C398 C 0.11318 0.48487 0.43705 0.0
C399 C 0.10228 0.50889 0.46566 0.0
C400 C 0.09919 0.46896 0.37587 0.0
C401 C 0.06513 0.50139 0.36867 0.0
C402 C 0.07533 0.47719 0.34234 0.0
C403 C 0.07256 0.5155 0.72061 0.0
C404 C 0.06651 0.54202 0.46589 0.0
C405 C 0.99723 0.65056 0.53955 0.0
C406 C 0.01534 0.65618 0.60726 0.0
C407 C 0.02547 0.55118 0.79906 0.0
C408 C 0.96406 0.53053 0.91131 0.0
C409 C 0.9403 0.53918 0.87625 0.0
C410 C 0.92947 0.56328 0.90432 0.0
C411 C 0.94347 0.5792 0.96549 0.0
C412 C 0.97732 0.5466 0.97387 0.0
C413 C 0.96722 0.57089 0.99959 0.0
C414 C 0.97003 0.53244 0.6237 0.0
C415 C 0.97591 0.50588 0.87713 0.0
H416 H 0.11242 0.52104 0.51464 0.0
H417 H 0.10709 0.45061 0.35072 0.0
H418 H 0.0466 0.50725 0.34115 0.0
H419 H 0.06485 0.46488 0.29479 0.0
H420 H 0.93018 0.52702 0.82723 0.0
H421 H 0.93563 0.59762 0.99024 0.0
H422 H 0.99577 0.54068 1.00185 0.0
H423 H 0.9777 0.58321 0.04711 0.0
H424 H 0.17108 1.01132 0.11297 0.0
H425 H 0.20327 0.0773 0.25799 0.0
H426 H 0.13419 1.01071 0.21653 0.0
H427 H 0.16608 0.07735 0.361 0.0
H428 H 0.10924 0.05392 0.58333 0.0
H429 H 0.1458 0.05583 0.47998 0.0
H430 H 0.09532 0.03177 0.26247 0.0
H431 H 0.05912 0.02876 0.36677 0.0
C432 C 0.17015 0.02579 0.16705 0.0
C433 C 0.19007 0.04429 0.17755 0.0
C434 C 0.14885 0.02563 0.2263 0.0
C435 C 0.14677 0.04404 0.29796 0.0
C436 C 0.16691 0.0626 0.30792 0.0
C437 C 0.18824 0.06271 0.24852 0.0
C438 C 0.10595 0.04859 0.51384 0.0
C439 C 0.08118 0.04019 0.48494 0.0
C440 C 0.12698 0.0501 0.45374 0.0
C441 C 0.12395 0.04358 0.36205 0.0
C442 C 0.09887 0.03626 0.33256 0.0
C443 C 0.07788 0.03467 0.3928 0.0
H444 H 0.45628 0.17885 0.15173 0.0
H445 H 0.5388 0.19062 0.18144 0.0
H446 H 0.45786 0.14398 0.26105 0.0
H447 H 0.54076 0.15561 0.28886 0.0
H448 H 0.53299 0.11158 0.54438 0.0
H449 H 0.52886 0.14598 0.43753 0.0
H450 H 0.47295 0.09986 0.28746 0.0
H451 H 0.47635 0.0655 0.39782 0.0
C452 C 0.47475 0.17391 0.18181 0.0
C453 C 0.49739 0.18749 0.15894 0.0
C454 C 0.47574 0.1538 0.24394 0.0
C455 C 0.49942 0.14688 0.28472 0.0
C456 C 0.52206 0.16056 0.26062 0.0
C457 C 0.52102 0.18059 0.19865 0.0
C458 C 0.51936 0.10883 0.48987 0.0
C459 C 0.5047 0.08576 0.48107 0.0
C460 C 0.51732 0.12853 0.42726 0.0
C461 C 0.50069 0.12586 0.35288 0.0
C462 C 0.4858 0.10284 0.34413 0.0
C463 C 0.48785 0.08303 0.40722 0.0
H464 H 0.33808 0.51254 0.33281 0.0
H465 H 0.38655 0.52334 0.10151 0.0
H466 H 0.37688 0.51389 0.42948 0.0
H467 H 0.4252 0.52435 0.1966 0.0
H468 H 0.48541 0.55527 0.39215 0.0
H469 H 0.44528 0.55311 0.30583 0.0
H470 H 0.41791 0.49073 0.46941 0.0
H471 H 0.45851 0.49311 0.55656 0.0
C472 C 0.35708 0.51501 0.3027 0.0
C473 C 0.35935 0.51792 0.20974 0.0
C474 C 0.37933 0.51568 0.35794 0.0
C475 C 0.40434 0.51946 0.3214 0.0
C476 C 0.40637 0.5219 0.22784 0.0
C477 C 0.38421 0.52115 0.17297 0.0
C478 C 0.47073 0.54124 0.41033 0.0
C479 C 0.47501 0.5247 0.48226 0.0
C480 C 0.44773 0.53983 0.36025 0.0
C481 C 0.42824 0.52157 0.37954 0.0
C482 C 0.43232 0.50518 0.45267 0.0
C483 C 0.45554 0.50657 0.50296 0.0
H484 H 0.02413 0.37796 0.12157 0.0
H485 H 0.03722 0.33183 0.35372 0.0
H486 H 0.02162 0.4174 0.21662 0.0
H487 H 0.03437 0.37145 0.45034 0.0
H488 H 0.0508 0.45563 0.57958 0.0
H489 H 0.05525 0.41418 0.49345 0.0
H490 H 0.99192 0.43708 0.32299 0.0
H491 H 0.98767 0.47793 0.40816 0.0
C492 C 0.02651 0.3763 0.19321 0.0
C493 C 0.03079 0.35181 0.23009 0.0
C494 C 0.02491 0.39892 0.2481 0.0
C495 C 0.02749 0.39782 0.34194 0.0
C496 C 0.03241 0.37323 0.37865 0.0
C497 C 0.03393 0.35048 0.32337 0.0
C498 C 0.03757 0.45148 0.52474 0.0
C499 C 0.01863 0.47 0.50156 0.0
C500 C 0.04015 0.42775 0.47499 0.0
C501 C 0.02415 0.42219 0.4 0.0
C502 C 1.00499 0.44066 0.3787 0.0
C503 C 1.00237 0.4641 0.42823 0.0
H504 H 0.87674 0.99207 0.25576 0.0
H505 H 0.82613 0.01525 0.04264 0.0
H506 H 0.91395 0.99195 0.15311 0.0
H507 H 0.86328 0.01578 0.93967 0.0
H508 H 0.93089 0.99286 0.75458 0.0
H509 H 0.89418 0.99001 0.85715 0.0
H510 H 0.94257 0.01917 0.07328 0.0
H511 H 0.97923 0.02183 0.9707 0.0
C512 C 0.87362 0.99715 0.18671 0.0
C513 C 0.84854 1.00362 0.15713 0.0
C514 C 0.89501 0.99729 0.1277 0.0
C515 C 0.89194 1.00392 0.03722 0.0
C516 C 0.8666 1.0102 1.00803 0.0
C517 C 0.84524 1.01006 0.06717 0.0
C518 C 0.93371 0.999 0.82364 0.0
C519 C 0.95809 1.00841 0.85284 0.0
C520 C 0.91252 0.99732 0.88298 0.0
C521 C 0.91498 1.00471 0.97415 0.0
C522 C 0.93966 1.01317 1.00404 0.0
C523 C 0.96083 1.0149 0.94456 0.0
H524 H 0.57566 0.86969 0.18236 0.0
H525 H 0.49308 0.85982 0.14667 0.0
H526 H 0.57554 0.90476 0.0736 0.0
H527 H 0.4926 0.89499 0.03965 0.0
H528 H 0.50336 0.93793 0.78305 0.0
H529 H 0.50603 0.90375 0.89122 0.0
H530 H 0.56137 0.94935 0.04561 0.0
H531 H 0.5594 0.98354 0.93415 0.0
C532 C 0.55747 0.87515 0.15131 0.0
C533 C 0.53439 0.86204 0.17229 0.0
C534 C 0.55733 0.89534 0.08942 0.0
C535 C 0.53408 0.90278 0.04688 0.0
C536 C 0.51099 0.88963 0.06934 0.0
C537 C 0.51117 0.86953 0.13112 0.0
C538 C 0.51656 0.94062 0.83886 0.0
C539 C 0.53146 0.96351 0.84862 0.0
C540 C 0.51775 0.92105 0.90217 0.0
C541 C 0.53376 0.92366 0.97814 0.0
C542 C 0.54896 0.94645 0.98776 0.0
C543 C 0.54774 0.96616 0.92401 0.0
H544 H 0.68606 0.48661 0.10908 0.0
H545 H 0.67932 0.57029 0.1239 0.0
H546 H 0.64875 0.48425 1.0076 0.0
H547 H 0.64153 0.56811 0.0231 0.0
H548 H 0.58606 0.55376 0.77858 0.0
H549 H 0.62585 0.55758 0.86948 0.0
H550 H 0.60221 0.49055 0.0177 0.0
H551 H 0.56305 0.48673 0.9267 0.0
C552 C 0.67659 0.50453 0.0902 0.0
C553 C 0.68553 0.5286 0.12443 0.0
C554 C 0.65507 0.50321 0.03242 0.0
C555 C 0.64179 0.52597 1.00729 0.0
C556 C 0.65127 0.55018 0.04011 0.0
C557 C 0.67285 0.55145 0.09824 0.0
C558 C 0.58969 0.53965 0.82969 0.0
C559 C 0.57183 0.51939 0.84344 0.0
C560 C 0.61234 0.54199 0.8826 0.0
C561 C 0.61762 0.52413 0.95056 0.0
C562 C 0.59932 0.5043 0.96494 0.0
C563 C 0.57673 0.50215 0.9129 0.0
H564 H 0.97146 0.69199 0.09246 0.0
H565 H 0.05503 0.69758 0.09862 0.0
H566 H 0.97469 0.65264 0.99522 0.0
H567 H 0.05847 0.65872 1.00074 0.0
H568 H 0.05584 0.57112 0.93073 0.0
H569 H 0.05205 0.61264 1.01234 0.0
H570 H 0.98686 0.63354 0.84684 0.0
H571 H 0.99067 0.59133 0.76521 0.0
C572 C 0.99052 0.68495 0.0721 0.0
C573 C 1.01301 0.69782 0.10334 0.0
C574 C 0.9924 0.66245 0.0159 0.0
C575 C 0.01687 0.65215 0.98998 0.0
C576 C 0.03928 0.66562 0.02001 0.0
C577 C 0.03736 0.68806 0.07582 0.0
C578 C 0.04089 0.58471 0.91082 0.0
C579 C 0.02395 0.57806 0.84012 0.0
C580 C 0.03875 0.60868 0.95756 0.0
C581 C 0.01927 0.62684 0.93637 0.0
C582 C 1.0021 0.62015 0.86558 0.0
C583 C 1.00444 0.59608 0.81791 0.0
H584 H 0.04911 0.26383 0.36872 0.0
H585 H 0.11105 0.22241 0.23039 0.0
H586 H 0.0551 0.23706 0.49708 0.0
H587 H 0.1173 0.19538 0.36049 0.0
H588 H 0.05276 0.13178 0.42212 0.0
H589 H 0.08282 0.16353 0.37129 0.0
H590 H 0.07168 0.20938 0.61512 0.0
H591 H 0.04193 0.17633 0.66946 0.0
C592 C 0.06503 0.24996 0.3675 0.0
C593 C 0.07879 0.24434 0.28805 0.0
C594 C 0.06863 0.23455 0.44188 0.0
C595 C 0.08585 0.21319 0.43731 0.0
C596 C 0.10325 0.21115 0.36469 0.0
C597 C 0.09958 0.22651 0.28999 0.0
C598 C 0.05754 0.14773 0.46793 0.0
C599 C 0.04373 0.15201 0.5483 0.0
C600 C 0.07513 0.16618 0.43842 0.0
C601 C 0.07892 0.18961 0.48759 0.0
C602 C 0.06854 0.19186 0.57455 0.0
C603 C 0.05118 0.17308 0.60497 0.0
H604 H 0.27951 0.04112 0.31669 0.0
H605 H 0.32427 0.10725 0.23327 0.0
H606 H 0.30555 0.03839 0.44995 0.0
H607 H 0.3501 0.10527 0.3699 0.0
H608 H 0.4144 0.04211 0.41746 0.0
H609 H 0.38225 0.0731 0.37541 0.0
H610 H 0.3305 0.0457 0.58084 0.0
H611 H 0.36351 1.01412 0.62421 0.0
C612 C 0.29408 0.056 0.32924 0.0
C613 C 0.30056 0.07377 0.26312 0.0
C614 C 0.30907 0.05456 0.40658 0.0
C615 C 0.33081 0.0709 0.419 0.0
C616 C 0.33415 0.09171 0.36058 0.0
C617 C 0.31939 0.09288 0.28232 0.0
C618 C 0.39676 0.04329 0.45702 0.0
C619 C 0.39112 0.02472 0.52161 0.0
C620 C 0.37807 0.06141 0.43286 0.0
C621 C 0.35317 0.06125 0.47207 0.0
C622 C 0.34913 0.04565 0.54689 0.0
C623 C 0.36795 0.02742 0.57129 0.0
H624 H 0.41957 0.3093 0.1771 0.0
H625 H 0.49602 0.29065 0.27454 0.0
H626 H 0.41504 0.34311 0.29373 0.0
H627 H 0.49296 0.32539 0.385 0.0
H628 H 0.50683 0.39992 0.4795 0.0
H629 H 0.4857 0.35799 0.48335 0.0
H630 H 0.43071 0.38333 0.28427 0.0
H631 H 0.44971 0.42599 0.2896 0.0
C632 C 0.435 0.31188 0.22581 0.0
C633 C 0.45843 0.29804 0.21577 0.0
C634 C 0.43269 0.33157 0.29187 0.0
C635 C 0.45433 0.33859 0.34521 0.0
C636 C 0.4759 0.32146 0.3447 0.0
C637 C 0.47782 0.30127 0.28071 0.0
C638 C 0.48949 0.39702 0.43953 0.0
C639 C 0.48107 0.41589 0.37927 0.0
C640 C 0.47752 0.3726 0.44066 0.0
C641 C 0.45779 0.36618 0.37858 0.0
C642 C 0.44646 0.38667 0.33097 0.0
C643 C 0.4578 0.41133 0.33236 0.0
H644 H 0.23251 0.43569 0.19276 0.0
H645 H 0.26999 0.49723 0.34688 0.0
H646 H 0.20276 0.42869 0.31512 0.0
H647 H 0.24126 0.4891 0.47217 0.0
H648 H 0.1542 0.51804 0.46195 0.0
H649 H 0.19935 0.50709 0.45216 0.0
H650 H 0.18045 0.42504 0.45408 0.0
H651 H 0.13435 0.43625 0.46616 0.0
C652 C 0.23521 0.44685 0.2546 0.0
C653 C 0.25248 0.46802 0.25835 0.0
C654 C 0.21831 0.44262 0.32578 0.0
C655 C 0.21864 0.45944 0.40177 0.0
C656 C 0.23978 0.4766 0.41281 0.0
C657 C 0.25641 0.48117 0.34092 0.0
C658 C 0.15943 0.49764 0.46479 0.0
C659 C 0.14042 0.47802 0.4609 0.0
C660 C 0.18571 0.49124 0.4595 0.0
C661 C 0.19364 0.46506 0.44887 0.0
C662 C 0.17493 0.44541 0.45925 0.0
C663 C 0.14849 0.45185 0.46523 0.0
H664 H 0.99208 0.78418 0.97115 0.0
H665 H 0.92973 0.82491 0.10966 0.0
H666 H 0.98568 0.81083 0.84265 0.0
H667 H 0.92308 0.85181 0.97946 0.0
H668 H 0.98699 0.91603 0.91723 0.0
H669 H 0.95734 0.88399 0.96853 0.0
H670 H 0.96853 0.83828 0.72445 0.0
H671 H 0.9978 0.87165 0.66947 0.0
C672 C 0.97599 0.79786 0.97239 0.0
C673 C 0.96221 0.80334 0.05188 0.0
C674 C 0.97215 0.81318 0.89793 0.0
C675 C 0.95467 0.83433 0.9025 0.0
C676 C 0.93731 0.83621 0.97523 0.0
C677 C 0.94121 0.82092 0.04999 0.0
C678 C 0.98229 0.90005 0.87144 0.0
C679 C 0.99599 0.89594 0.79075 0.0
C680 C 0.96494 0.88143 0.90125 0.0
C681 C 0.9613 0.85797 0.85211 0.0
C682 C 0.97156 0.85583 0.76496 0.0
C683 C 0.98866 0.87479 0.7342 0.0
H684 H 0.71435 0.94266 0.09699 0.0
H685 H 0.75889 1.00919 0.01585 0.0
H686 H 0.68867 0.94478 0.96009 0.0
H687 H 0.73292 1.01208 0.88223 0.0
H688 H 0.62406 1.00761 0.91196 0.0
H689 H 0.65642 0.97701 0.95525 0.0
H690 H 0.70824 1.00451 0.7502 0.0
H691 H 0.67496 0.03561 0.7052 0.0
C692 C 0.71922 0.95715 0.04835 0.0
C693 C 0.73794 0.97632 0.06824 0.0
C694 C 0.70454 0.9584 0.96994 0.0
C695 C 0.70785 0.97935 0.91207 0.0
C696 C 0.72947 0.9958 0.92521 0.0
C697 C 0.74439 0.99428 1.00269 0.0
C698 C 0.64176 1.00652 0.87267 0.0
C699 C 0.64729 0.02497 0.80758 0.0
C700 C 0.66057 0.98863 0.8976 0.0
C701 C 0.68551 0.98891 0.85873 0.0
C702 C 0.68955 1.00444 0.78375 0.0
C703 C 0.67057 0.02241 0.75845 0.0
H704 H 0.54735 0.77301 0.01911 0.0
H705 H 0.61047 0.73535 0.15507 0.0
H706 H 0.55263 0.7427 0.89216 0.0
H707 H 0.61496 0.70432 0.03161 0.0
H708 H 0.60358 0.63434 0.8842 0.0
H709 H 0.61586 0.68026 0.89529 0.0
H710 H 0.53449 0.70142 0.91578 0.0
H711 H 0.52253 0.65628 0.90449 0.0
C712 C 0.56325 0.75911 0.01994 0.0
C713 C 0.57774 0.75562 0.09824 0.0
C714 C 0.56613 0.74153 0.94748 0.0
C715 C 0.58304 0.72002 0.95405 0.0
C716 C 0.60121 0.72013 0.02448 0.0
C717 C 0.59859 0.73791 0.0961 0.0
C718 C 0.58837 0.64897 0.8888 0.0
C719 C 0.56214 0.64162 0.89681 0.0
C720 C 0.59539 0.67528 0.89451 0.0
C721 C 0.5763 0.69463 0.90936 0.0
C722 C 0.54992 0.68732 0.90449 0.0
C723 C 0.54294 0.66114 0.89857 0.0
H724 H 0.7729 0.55129 0.99712 0.0
H725 H 0.81103 0.61246 0.15112 0.0
H726 H 0.80137 0.55944 0.8712 0.0
H727 H 0.84054 0.61945 0.02802 0.0
H728 H 0.90843 0.61196 0.87507 0.0
H729 H 0.86239 0.62327 0.88809 0.0
H730 H 0.84328 0.54127 0.88936 0.0
H731 H 0.88838 0.53021 0.87879 0.0
C732 C 0.78658 0.56726 1.00299 0.0
C733 C 0.79074 0.58032 0.08561 0.0
C734 C 0.80305 0.57184 0.9307 0.0
C735 C 0.82428 0.58891 0.94135 0.0
C736 C 0.8249 0.6056 0.01764 0.0
C737 C 0.80816 0.60136 0.08923 0.0
C738 C 0.89426 0.59639 0.87605 0.0
C739 C 0.90227 0.5702 0.88019 0.0
C740 C 0.86785 0.60289 0.88256 0.0
C741 C 0.84911 0.58327 0.89321 0.0
C742 C 0.85695 0.55709 0.88198 0.0
C743 C 0.88321 0.55063 0.8762 0.0
H744 H 0.08204 0.19881 0.99991 0.0
H745 H 1.00243 0.2238 0.96884 0.0
H746 H 0.07263 0.1585 0.91766 0.0
H747 H 0.99328 0.18397 0.88107 0.0
H748 H 0.97606 0.09722 0.82772 0.0
H749 H 0.98609 0.1395 0.897 0.0
H750 H 0.06365 0.13512 0.78537 0.0
H751 H 0.05352 0.09224 0.71818 0.0
C752 C 0.0625 0.19593 0.97454 0.0
C753 C 0.04293 0.21472 0.99312 0.0
C754 C 0.05714 0.1727 0.92596 0.0
C755 C 0.03202 0.16734 0.89276 0.0
C756 C 1.01275 0.18679 0.90699 0.0
C757 C 0.0181 0.21003 0.95636 0.0
C758 C 0.99533 0.10523 0.81847 0.0
C759 C 1.01415 0.09096 0.7692 0.0
C760 C 1.00106 0.12977 0.8575 0.0
C761 C 0.02578 0.14125 0.8476 0.0
C762 C 0.04453 0.12704 0.79659 0.0
C763 C 0.03878 0.10232 0.75786 0.0
H764 H 0.31696 1.0103 0.92252 0.0
H765 H 0.3413 0.09004 0.96311 0.0
H766 H 0.35701 1.00101 0.83784 0.0
H767 H 0.38116 0.08091 0.87864 0.0
H768 H 0.44636 0.0586 0.67592 0.0
H769 H 0.40279 0.06897 0.7359 0.0
H770 H 0.40282 0.99647 0.87565 0.0
H771 H 0.446 0.98637 0.81595 0.0
C772 C 0.33053 0.02602 0.91159 0.0
C773 C 0.32578 0.05092 0.94998 0.0
C774 C 0.35374 0.02064 0.86391 0.0
C775 C 0.3728 0.04007 0.85222 0.0
C776 C 0.3672 0.06536 0.88595 0.0
C777 C 0.34423 0.07062 0.93461 0.0
C778 C 0.43714 0.04513 0.72054 0.0
C779 C 0.45009 0.0221 0.74387 0.0
C780 C 0.41206 0.05095 0.75454 0.0
C781 C 0.39903 0.03362 0.81122 0.0
C782 C 0.41185 1.01025 0.83177 0.0
C783 C 0.43683 1.00456 0.79828 0.0
H784 H 0.44603 0.32235 0.87702 0.0
H785 H 0.52804 0.31841 0.93331 0.0
H786 H 0.45273 0.36193 0.7932 0.0
H787 H 0.53491 0.35884 0.85403 0.0
H788 H 0.54391 0.42818 0.67686 0.0
H789 H 0.53708 0.38403 0.72765 0.0
H790 H 0.45968 0.40564 0.81618 0.0
H791 H 0.46599 0.44898 0.7598 0.0
C792 C 0.46563 0.32975 0.86977 0.0
C793 C 0.48655 0.31702 0.91055 0.0
C794 C 0.46949 0.3528 0.823 0.0
C795 C 0.49436 0.36428 0.81741 0.0
C796 C 0.51548 0.35076 0.85523 0.0
C797 C 0.51163 0.32743 0.90078 0.0
C798 C 0.52536 0.42352 0.70671 0.0
C799 C 0.50583 0.44271 0.71674 0.0
C800 C 0.52146 0.39805 0.73662 0.0
C801 C 0.49793 0.39088 0.77796 0.0
C802 C 0.47807 0.4099 0.7845 0.0
C803 C 0.48186 0.43519 0.75348 0.0
H804 H 0.22215 0.54456 0.99055 0.0
H805 H 0.2236 0.46213 0.92916 0.0
H806 H 0.18122 0.54857 0.90823 0.0
H807 H 0.18352 0.46599 0.84351 0.0
H808 H 0.09626 0.47325 0.79646 0.0
H809 H 0.13928 0.47043 0.86219 0.0
H810 H 0.15617 0.54842 0.77745 0.0
H811 H 0.11236 0.55166 0.71617 0.0
C812 C 0.21418 0.52744 0.95678 0.0
C813 C 0.22633 0.50307 0.96595 0.0
C814 C 0.19053 0.52965 0.90951 0.0
C815 C 0.17838 0.50754 0.86943 0.0
C816 C 0.1915 0.48344 0.87494 0.0
C817 C 0.21486 0.48123 0.92299 0.0
C818 C 0.10893 0.48998 0.79269 0.0
C819 C 0.1002 0.51295 0.75285 0.0
C820 C 0.13405 0.48822 0.82938 0.0
C821 C 0.15172 0.50924 0.82631 0.0
C822 C 0.14326 0.53192 0.78346 0.0
C823 C 0.11799 0.53374 0.74742 0.0
H824 H 0.03834 0.82462 0.37119 0.0
H825 H 0.95851 0.84885 0.33984 0.0
H826 H 0.04714 0.86464 0.45836 0.0
H827 H 0.96757 0.88934 0.42136 0.0
H828 H 0.9861 0.95617 0.61921 0.0
H829 H 0.97629 0.91316 0.5526 0.0
H830 H 0.05401 0.90908 0.4421 0.0
H831 H 0.06372 0.95148 0.51095 0.0
C832 C 0.02255 0.83826 0.38349 0.0
C833 C 0.99776 0.83331 0.3468 0.0
C834 C 0.02769 0.86162 0.4325 0.0
C835 C 1.00826 0.88092 0.44637 0.0
C836 C 0.98318 0.87528 0.41332 0.0
C837 C 0.97803 0.85194 0.36515 0.0
C838 C 1.00094 0.94613 0.57989 0.0
C839 C 0.02553 0.9576 0.56887 0.0
C840 C 0.99538 0.92133 0.54147 0.0
C841 C 1.01428 0.90715 0.49103 0.0
C842 C 0.03893 0.91876 0.48123 0.0
C843 C 0.04447 0.94338 0.51999 0.0
H844 H 0.69665 0.9596 0.3669 0.0
H845 H 0.72113 0.03921 0.40976 0.0
H846 H 0.65664 0.96868 0.45061 0.0
H847 H 0.68093 0.04846 0.49368 0.0
H848 H 0.59183 0.06314 0.51383 0.0
H849 H 0.63511 0.05312 0.45485 0.0
H850 H 0.6349 0.98044 0.59356 0.0
H851 H 0.59124 0.99075 0.6529 0.0
C852 C 0.69372 0.97898 0.39578 0.0
C853 C 0.71227 0.99865 0.38128 0.0
C854 C 0.67067 0.98421 0.444 0.0
C855 C 0.66507 1.00946 0.47817 0.0
C856 C 0.68421 0.02887 0.46729 0.0
C857 C 0.7075 0.02351 0.42006 0.0
C858 C 0.60096 0.04494 0.53146 0.0
C859 C 0.58761 0.02733 0.58539 0.0
C860 C 0.626 0.03928 0.49837 0.0
C861 C 0.63879 0.01588 0.5188 0.0
C862 C 0.62567 0.99849 0.57501 0.0
C863 C 0.60054 1.00427 0.60866 0.0
H864 H 0.52358 0.70414 0.26246 0.0
H865 H 0.55057 0.74187 0.50634 0.0
H866 H 0.51931 0.66314 0.33914 0.0
H867 H 0.54565 0.70037 0.58461 0.0
H868 H 0.50847 0.618 0.68296 0.0
H869 H 0.50981 0.66238 0.62505 0.0
H870 H 0.55642 0.6344 0.40239 0.0
H871 H 0.55536 0.59076 0.46023 0.0
C872 C 0.52818 0.7038 0.33315 0.0
C873 C 0.53778 0.72631 0.3778 0.0
C874 C 0.5258 0.6802 0.37703 0.0
C875 C 0.53257 0.67829 0.4676 0.0
C876 C 0.54034 0.70118 0.51465 0.0
C877 C 0.54303 0.72498 0.47003 0.0
C878 C 0.51942 0.62141 0.62258 0.0
C879 C 0.5324 0.60058 0.57767 0.0
C880 C 0.52016 0.64689 0.58942 0.0
C881 C 0.53322 0.652 0.50898 0.0
C882 C 0.54616 0.63122 0.46449 0.0
C883 C 0.54584 0.60606 0.49846 0.0
H884 H 0.82055 0.50398 0.35297 0.0
H885 H 0.81891 0.58626 0.41687 0.0
H886 H 0.86144 0.49983 0.43536 0.0
H887 H 0.85894 0.58225 0.50274 0.0
H888 H 0.94622 0.57499 0.55014 0.0
H889 H 0.90318 0.57799 0.48462 0.0
H890 H 0.88648 0.4996 0.56578 0.0
H891 H 0.93031 0.49619 0.62663 0.0
C892 C 0.82847 0.52103 0.38737 0.0
C893 C 0.81627 0.5454 0.37891 0.0
C894 C 0.85209 0.51874 0.43469 0.0
C895 C 0.86418 0.54076 0.47554 0.0
C896 C 0.85101 0.56486 0.47073 0.0
C897 C 0.82767 0.56716 0.42258 0.0
C898 C 0.93358 0.55822 0.55311 0.0
C899 C 0.94237 0.53509 0.59177 0.0
C900 C 0.90845 0.56007 0.51659 0.0
C901 C 0.89083 0.53899 0.51869 0.0
C902 C 0.89934 0.51615 0.56048 0.0
C903 C 0.92462 0.51424 0.5963 0.0
loop_
_geom_bond_atom_site_label_1
_geom_bond_atom_site_label_2
_geom_bond_distance
_geom_bond_site_symmetry_2
_ccdc_geom_bond_type
H0 C3 0.929 . S
H1 C6 0.929 . S
H2 C8 0.930 . S
C3 H0 0.929 . S
C3 C4 1.398 . S
C3 C5 1.396 . S
C4 C3 1.398 . S
C4 C8 1.407 . S
C5 C3 1.396 . S
C5 C6 1.394 . S
C6 H1 0.929 . S
C6 C5 1.394 . S
C6 C7 1.382 . S
C7 C6 1.382 . S
C7 C8 1.392 . S
C7 N9 1.420 . S
C8 H2 0.930 . S
C8 C4 1.407 . S
C8 C7 1.392 . S
N9 C7 1.420 . S
N9 C10 1.244 . S
C10 N9 1.244 . S
H11 C14 0.929 . S
H12 C17 0.929 . S
H13 C19 0.930 . S
C14 H11 0.929 . S
C14 C15 1.398 . S
C14 C16 1.396 . S
C15 C14 1.398 . S
C15 C19 1.407 . S
C16 C14 1.396 . S
C16 C17 1.394 . S
C17 H12 0.929 . S
C17 C16 1.394 . S
C17 C18 1.382 . S
C18 C17 1.382 . S
C18 C19 1.392 . S
C18 N20 1.420 . S
C19 H13 0.930 . S
C19 C15 1.407 . S
C19 C18 1.392 . S
N20 C18 1.420 . S
N20 C21 1.244 . S
C21 N20 1.244 . S
H22 C25 0.929 . S
H23 C28 0.929 . S
H24 C30 0.930 . S
C25 H22 0.929 . S
C25 C26 1.398 . S
C25 C27 1.396 . S
C26 C25 1.398 . S
C26 C30 1.407 . S
C27 C25 1.396 . S
C27 C28 1.394 . S
C28 H23 0.929 . S
C28 C27 1.394 . S
C28 C29 1.382 . S
C29 C28 1.382 . S
C29 C30 1.392 . S
C29 N31 1.420 . S
C30 H24 0.930 . S
C30 C26 1.407 . S
C30 C29 1.392 . S
N31 C29 1.420 . S
N31 C32 1.244 . S
C32 N31 1.244 . S
H33 C36 0.929 . S
H34 C39 0.929 . S
H35 C41 0.930 . S
C36 H33 0.929 . S
C36 C37 1.398 . S
C36 C38 1.396 . S
C37 C36 1.398 . S
C37 C41 1.407 . S
C38 C36 1.396 . S
C38 C39 1.394 . S
C39 H34 0.929 . S
C39 C38 1.394 . S
C39 C40 1.382 . S
C40 C39 1.382 . S
C40 C41 1.392 . S
C40 N42 1.420 . S
C41 H35 0.930 . S
C41 C37 1.407 . S
C41 C40 1.392 . S
N42 C40 1.420 . S
N42 C43 1.244 . S
C43 N42 1.244 . S
H44 C47 0.929 . S
H45 C50 0.929 . S
H46 C52 0.930 . S
C47 H44 0.929 . S
C47 C48 1.398 . S
C47 C49 1.396 1_556 S
C48 C47 1.398 . S
C48 C52 1.407 . S
C49 C47 1.396 1_554 S
C49 C50 1.394 . S
C50 H45 0.929 . S
C50 C49 1.394 . S
C50 C51 1.382 . S
C51 C50 1.382 . S
C51 C52 1.392 1_554 S
C51 N53 1.420 . S
C52 H46 0.930 . S
C52 C48 1.407 . S
C52 C51 1.392 1_556 S
N53 C51 1.420 . S
N53 C54 1.244 . S
C54 N53 1.244 . S
H55 C58 0.929 . S
H56 C61 0.929 . S
H57 C63 0.930 . S
C58 H55 0.929 . S
C58 C59 1.398 . S
C58 C60 1.396 1_556 S
C59 C58 1.398 . S
C59 C63 1.407 . S
C60 C58 1.396 1_554 S
C60 C61 1.394 . S
C61 H56 0.929 . S
C61 C60 1.394 . S
C61 C62 1.382 . S
C62 C61 1.382 . S
C62 C63 1.392 1_554 S
C62 N64 1.420 . S
C63 H57 0.930 . S
C63 C59 1.407 . S
C63 C62 1.392 1_556 S
N64 C62 1.420 . S
N64 C65 1.244 . S
C65 N64 1.244 . S
H66 C69 0.929 . S
H67 C72 0.929 . S
H68 C74 0.930 . S
C69 H66 0.929 . S
C69 C70 1.398 . S
C69 C71 1.396 1_556 S
C70 C69 1.398 . S
C70 C74 1.407 . S
C71 C69 1.396 1_554 S
C71 C72 1.394 . S
C72 H67 0.929 . S
C72 C71 1.394 . S
C72 C73 1.378 1_554 S
C73 C72 1.378 1_556 S
C73 C74 1.396 . S
C73 N75 1.420 1_556 S
C74 H68 0.930 . S
C74 C70 1.407 . S
C74 C73 1.396 . S
N75 C73 1.420 1_554 S
N75 C76 1.244 . S
C76 N75 1.244 . S
H77 C80 0.929 . S
H78 C83 0.929 . S
H79 C85 0.930 . S
C80 H77 0.929 . S
C80 C81 1.398 . S
C80 C82 1.396 1_556 S
C81 C80 1.398 . S
C81 C85 1.407 . S
C82 C80 1.396 1_554 S
C82 C83 1.394 . S
C83 H78 0.929 . S
C83 C82 1.394 . S
C83 C84 1.382 . S
C84 C83 1.382 . S
C84 C85 1.392 1_554 S
C84 N86 1.420 . S
C85 H79 0.930 . S
C85 C81 1.407 . S
C85 C84 1.392 1_556 S
N86 C84 1.420 . S
N86 C87 1.244 . S
C87 N86 1.244 . S
Eu88 N119 2.657 1_565 S
Eu88 N126 2.599 1_565 S
Eu88 O132 2.558 . S
Eu88 O133 2.612 1_455 S
Eu88 O135 2.339 1_455 S
Eu88 O136 2.563 . S
Eu88 O137 2.419 . S
Eu88 O139 2.380 1_565 S
Eu88 O140 2.432 . S
Eu88 C152 2.848 . S
C89 C92 1.429 1_545 S
C89 C93 1.409 1_545 S
C89 N96 1.377 . S
C90 C92 1.420 . S
C90 C94 1.423 . S
C90 C102 1.392 . S
C91 C93 1.427 . S
C91 C94 1.351 . S
C91 H114 0.931 . S
C92 C89 1.429 1_565 S
C92 C90 1.420 . S
C92 N100 1.369 . S
C93 C89 1.409 1_565 S
C93 C91 1.427 . S
C93 C98 1.390 1_565 S
C94 C90 1.423 . S
C94 C91 1.351 . S
C94 H106 0.930 . S
C95 C97 1.400 . S
C95 C98 1.386 . S
C95 H107 0.930 . S
N96 C89 1.377 . S
N96 C97 1.321 . S
N96 Eu99 2.609 . S
C97 C95 1.400 . S
C97 N96 1.321 . S
C97 H104 0.930 . S
C98 C93 1.390 1_545 S
C98 C95 1.386 . S
C98 H117 0.930 . S
Eu99 N96 2.609 . S
Eu99 N100 2.638 1_545 S
Eu99 O133 2.380 1_545 S
Eu99 O134 2.432 . S
Eu99 O138 2.558 . S
Eu99 O139 2.612 1_655 S
Eu99 O141 2.339 1_655 S
Eu99 O142 2.563 1_655 S
Eu99 O143 2.419 . S
Eu99 C163 2.848 . S
N100 C92 1.369 . S
N100 Eu99 2.638 1_565 S
N100 C101 1.347 1_655 S
C101 N100 1.347 1_455 S
C101 C103 1.413 . S
C101 H108 0.929 . S
C102 C90 1.392 . S
C102 C103 1.367 1_655 S
C102 H110 0.930 . S
C103 C101 1.413 . S
C103 C102 1.367 1_455 S
C103 H105 0.930 . S
H104 C97 0.930 . S
H105 C103 0.930 . S
H106 C94 0.930 . S
H107 C95 0.930 . S
H108 C101 0.929 . S
H109 C123 0.930 1_654 S
H110 C102 0.930 . S
H111 C129 0.930 . S
H112 C120 0.929 1_655 S
H113 C127 0.930 . S
H114 C91 0.931 . S
H115 C121 0.930 . S
H116 C154 0.930 . S
H117 C98 0.930 . S
H118 C153 0.931 . S
N119 Eu88 2.657 1_545 S
N119 C120 1.334 . S
N119 C124 1.362 . S
C120 H112 0.929 1_455 S
C120 N119 1.334 . S
C120 C123 1.413 . S
C121 H115 0.930 . S
C121 C122 1.392 1_554 S
C121 C123 1.367 1_554 S
C122 C121 1.392 1_556 S
C122 C124 1.419 . S
C122 C154 1.423 1_556 S
C123 H109 0.930 1_456 S
C123 C120 1.413 . S
C123 C121 1.367 1_556 S
C124 N119 1.362 . S
C124 C122 1.419 . S
C124 C128 1.429 . S
H125 C130 0.930 . S
N126 Eu88 2.599 1_545 S
N126 C128 1.399 . S
N126 C129 1.305 1_545 S
C127 H113 0.930 . S
C127 C129 1.400 . S
C127 C130 1.386 1_565 S
C128 C124 1.429 . S
C128 N126 1.399 . S
C128 C131 1.411 . S
C129 H111 0.930 . S
C129 N126 1.305 1_565 S
C129 C127 1.400 . S
C130 H125 0.930 . S
C130 C127 1.386 1_545 S
C130 C131 1.395 . S
C131 C128 1.411 . S
C131 C130 1.395 . S
C131 C153 1.420 1_556 S
O132 Eu88 2.558 . S
O132 C152 1.257 . S
O133 Eu88 2.612 1_655 S
O133 Eu99 2.380 1_565 S
O133 C144 1.276 . S
O134 Eu99 2.432 . S
O134 C151 1.264 . S
O135 Eu88 2.339 1_655 S
O135 C151 1.254 1_565 S
O136 Eu88 2.563 . S
O136 C144 1.235 1_455 S
O137 Eu88 2.419 . S
O137 C152 1.249 . S
O138 Eu99 2.558 . S
O138 C163 1.257 . S
O139 Eu88 2.380 1_545 S
O139 Eu99 2.612 1_455 S
O139 C155 1.276 . S
O140 Eu88 2.432 . S
O140 C162 1.264 1_565 S
O141 Eu99 2.339 1_455 S
O141 C162 1.254 . S
O142 Eu99 2.563 1_455 S
O142 C155 1.235 . S
O143 Eu99 2.419 . S
O143 C163 1.249 . S
C144 O133 1.276 . S
C144 O136 1.235 1_655 S
C145 C147 1.393 . S
C145 C149 1.395 . S
C145 C152 1.492 . S
C146 C147 1.392 . S
C146 C148 1.386 . S
C147 C145 1.393 . S
C147 C146 1.392 . S
C147 H164 0.957 . S
C148 C146 1.386 . S
C148 C150 1.395 . S
C148 H165 0.930 1_556 S
C149 C145 1.395 . S
C149 C150 1.379 . S
C149 H166 0.930 . S
C150 C148 1.395 . S
C150 C149 1.379 . S
C150 H167 0.930 . S
C151 O134 1.264 . S
C151 O135 1.254 1_545 S
C152 Eu88 2.848 . S
C152 O132 1.257 . S
C152 O137 1.249 . S
C152 C145 1.492 . S
C153 H118 0.931 . S
C153 C131 1.420 1_554 S
C153 C154 1.351 . S
C154 H116 0.930 . S
C154 C122 1.423 1_554 S
C154 C153 1.351 . S
C155 O139 1.276 . S
C155 O142 1.235 . S
C156 C157 1.393 . S
C156 C160 1.395 . S
C156 C163 1.492 . S
C157 C156 1.393 . S
C157 C158 1.392 . S
C157 H168 0.930 1_655 S
C158 C157 1.392 . S
C158 C159 1.386 . S
C159 C158 1.386 . S
C159 C161 1.395 . S
C159 H169 0.930 . S
C160 C156 1.395 . S
C160 C161 1.379 . S
C160 H170 0.930 . S
C161 C159 1.395 . S
C161 C160 1.379 . S
C161 H171 0.930 . S
C162 O140 1.264 1_545 S
C162 O141 1.254 . S
C163 Eu99 2.848 . S
C163 O138 1.257 . S
C163 O143 1.249 . S
C163 C156 1.492 . S
H164 C147 0.957 . S
H165 C148 0.930 1_554 S
H166 C149 0.930 . S
H167 C150 0.930 . S
H168 C157 0.930 1_455 S
H169 C159 0.930 . S
H170 C160 0.930 . S
H171 C161 0.930 . S
Eu172 N203 2.657 . S
Eu172 N210 2.609 . S
Eu172 O216 2.558 . S
Eu172 O217 2.612 1_545 S
Eu172 O219 2.339 1_545 S
Eu172 O220 2.563 . S
Eu172 O221 2.419 . S
Eu172 O223 2.380 . S
Eu172 O224 2.432 . S
Eu172 C236 2.848 . S
C173 C176 1.429 . S
C173 C177 1.411 . S
C173 N180 1.377 . S
C174 C176 1.420 . S
C174 C178 1.423 . S
C174 C186 1.392 . S
C175 C177 1.420 . S
C175 C178 1.351 . S
C175 H198 0.931 . S
C176 C173 1.429 . S
C176 C174 1.420 . S
C176 N184 1.362 . S
C177 C173 1.411 . S
C177 C175 1.420 . S
C177 C182 1.395 . S
C178 C174 1.423 . S
C178 C175 1.351 . S
C178 H190 0.930 . S
C179 C181 1.400 . S
C179 C182 1.386 . S
C179 H191 0.930 . S
N180 C173 1.377 . S
N180 C181 1.321 . S
N180 Eu183 2.609 . S
C181 C179 1.400 . S
C181 N180 1.321 . S
C181 H188 0.930 . S
C182 C177 1.395 . S
C182 C179 1.386 . S
C182 H201 0.930 . S
Eu183 N180 2.609 . S
Eu183 N184 2.657 . S
Eu183 O217 2.380 . S
Eu183 O218 2.432 . S
Eu183 O222 2.558 . S
Eu183 O223 2.612 1_565 S
Eu183 O225 2.339 1_565 S
Eu183 O226 2.563 1_565 S
Eu183 O227 2.419 . S
Eu183 C247 2.848 . S
N184 C176 1.362 . S
N184 Eu183 2.657 . S
N184 C185 1.334 1_565 S
C185 N184 1.334 1_545 S
C185 C187 1.413 . S
C185 H192 0.929 . S
C186 C174 1.392 . S
C186 C187 1.367 1_565 S
C186 H194 0.930 . S
C187 C185 1.413 . S
C187 C186 1.367 1_545 S
C187 H189 0.930 . S
H188 C181 0.930 . S
H189 C187 0.930 . S
H190 C178 0.930 . S
H191 C179 0.930 . S
H192 C185 0.929 . S
H193 C207 0.930 1_564 S
H194 C186 0.930 . S
H195 C213 0.930 . S
H196 C204 0.929 1_565 S
H197 C211 0.930 . S
H198 C175 0.931 . S
H199 C205 0.930 . S
H200 C238 0.930 . S
H201 C182 0.930 . S
H202 C237 0.931 . S
N203 Eu172 2.657 . S
N203 C204 1.334 . S
N203 C208 1.362 . S
C204 H196 0.929 1_545 S
C204 N203 1.334 . S
C204 C207 1.413 . S
C205 H199 0.930 . S
C205 C206 1.396 . S
C205 C207 1.367 1_554 S
C206 C205 1.396 . S
C206 C208 1.411 1_554 S
C206 C238 1.428 . S
C207 H193 0.930 1_546 S
C207 C204 1.413 . S
C207 C205 1.367 1_556 S
C208 N203 1.362 . S
C208 C206 1.411 1_556 S
C208 C212 1.429 . S
H209 C214 0.930 . S
N210 Eu172 2.609 . S
N210 C212 1.377 . S
N210 C213 1.321 . S
C211 H197 0.930 . S
C211 C213 1.400 . S
C211 C214 1.386 . S
C212 C208 1.429 . S
C212 N210 1.377 . S
C212 C215 1.411 . S
C213 H195 0.930 . S
C213 N210 1.321 . S
C213 C211 1.400 . S
C214 H209 0.930 . S
C214 C211 1.386 . S
C214 C215 1.395 . S
C215 C212 1.411 . S
C215 C214 1.395 . S
C215 C237 1.420 1_556 S
O216 Eu172 2.558 . S
O216 C236 1.257 . S
O217 Eu172 2.612 1_565 S
O217 Eu183 2.380 . S
O217 C228 1.276 . S
O218 Eu183 2.432 . S
O218 C235 1.264 . S
O219 Eu172 2.339 1_565 S
O219 C235 1.254 . S
O220 Eu172 2.563 . S
O220 C228 1.235 1_545 S
O221 Eu172 2.419 . S
O221 C236 1.249 . S
O222 Eu183 2.558 . S
O222 C247 1.257 . S
O223 Eu172 2.380 . S
O223 Eu183 2.612 1_545 S
O223 C239 1.276 . S
O224 Eu172 2.432 . S
O224 C246 1.264 . S
O225 Eu183 2.339 1_545 S
O225 C246 1.254 . S
O226 Eu183 2.563 1_545 S
O226 C239 1.235 . S
O227 Eu183 2.419 . S
O227 C247 1.249 . S
C228 O217 1.276 . S
C228 O220 1.235 1_565 S
C229 C231 1.393 . S
C229 C233 1.395 . S
C229 C236 1.492 . S
C230 C231 1.392 . S
C230 C232 1.386 . S
C231 C229 1.393 . S
C231 C230 1.392 . S
C231 H248 0.930 . S
C232 C230 1.386 . S
C232 C234 1.395 . S
C232 H249 0.930 1_556 S
C233 C229 1.395 . S
C233 C234 1.379 . S
C233 H250 0.930 . S
C234 C232 1.395 . S
C234 C233 1.379 . S
C234 H251 0.930 . S
C235 O218 1.264 . S
C235 O219 1.254 . S
C236 Eu172 2.848 . S
C236 O216 1.257 . S
C236 O221 1.249 . S
C236 C229 1.492 . S
C237 H202 0.931 . S
C237 C215 1.420 1_554 S
C237 C238 1.351 . S
C238 H200 0.930 . S
C238 C206 1.428 . S
C238 C237 1.351 . S
C239 O223 1.276 . S
C239 O226 1.235 . S
C240 C241 1.393 . S
C240 C244 1.395 . S
C240 C247 1.492 . S
C241 C240 1.393 . S
C241 C242 1.392 . S
C241 H252 0.930 1_565 S
C242 C241 1.392 . S
C242 C243 1.386 . S
C243 C242 1.386 . S
C243 C245 1.395 . S
C243 H253 0.930 . S
C244 C240 1.395 . S
C244 C245 1.379 . S
C244 H254 0.930 . S
C245 C243 1.395 . S
C245 C244 1.379 . S
C245 H255 0.930 . S
C246 O224 1.264 . S
C246 O225 1.254 . S
C247 Eu183 2.848 . S
C247 O222 1.257 . S
C247 O227 1.249 . S
C247 C240 1.492 . S
H248 C231 0.930 . S
H249 C232 0.930 1_554 S
H250 C233 0.930 . S
H251 C234 0.930 . S
H252 C241 0.930 1_545 S
H253 C243 0.930 . S
H254 C244 0.930 . S
H255 C245 0.930 . S
Eu256 N287 2.657 . S
Eu256 N294 2.609 . S
Eu256 O300 2.558 . S
Eu256 O301 2.612 . S
Eu256 O303 2.339 . S
Eu256 O304 2.563 . S
Eu256 O305 2.419 . S
Eu256 O307 2.380 . S
Eu256 O308 2.432 . S
Eu256 C320 2.848 . S
C257 C260 1.429 . S
C257 C261 1.411 . S
C257 N264 1.377 . S
C258 C260 1.420 . S
C258 C262 1.423 . S
C258 C270 1.392 . S
C259 C261 1.420 . S
C259 C262 1.351 . S
C259 H282 0.931 . S
C260 C257 1.429 . S
C260 C258 1.420 . S
C260 N268 1.362 . S
C261 C257 1.411 . S
C261 C259 1.420 . S
C261 C266 1.395 . S
C262 C258 1.423 . S
C262 C259 1.351 . S
C262 H274 0.930 . S
C263 C265 1.400 . S
C263 C266 1.386 . S
C263 H275 0.930 . S
N264 C257 1.377 . S
N264 C265 1.321 . S
N264 Eu267 2.609 . S
C265 C263 1.400 . S
C265 N264 1.321 . S
C265 H272 0.930 . S
C266 C261 1.395 . S
C266 C263 1.386 . S
C266 H285 0.930 . S
Eu267 N264 2.609 . S
Eu267 N268 2.657 . S
Eu267 O301 2.380 . S
Eu267 O302 2.432 . S
Eu267 O306 2.558 . S
Eu267 O307 2.612 . S
Eu267 O309 2.339 . S
Eu267 O310 2.563 . S
Eu267 O311 2.419 . S
Eu267 C331 2.848 . S
N268 C260 1.362 . S
N268 Eu267 2.657 . S
N268 C269 1.334 . S
C269 N268 1.334 . S
C269 C271 1.413 . S
C269 H276 0.929 . S
C270 C258 1.392 . S
C270 C271 1.367 . S
C270 H278 0.930 . S
C271 C269 1.413 . S
C271 C270 1.367 . S
C271 H273 0.930 . S
H272 C265 0.930 . S
H273 C271 0.930 . S
H274 C262 0.930 . S
H275 C263 0.930 . S
H276 C269 0.929 . S
H277 C291 0.930 . S
H278 C270 0.930 . S
H279 C297 0.930 . S
H280 C288 0.929 . S
H281 C295 0.930 . S
H282 C259 0.931 . S
H283 C289 0.930 . S
H284 C322 0.930 . S
H285 C266 0.930 . S
H286 C321 0.931 . S
N287 Eu256 2.657 . S
N287 C288 1.334 . S
N287 C292 1.362 . S
C288 H280 0.929 . S
C288 N287 1.334 . S
C288 C291 1.413 . S
C289 H283 0.930 . S
C289 C290 1.392 . S
C289 C291 1.367 . S
C290 C289 1.392 . S
C290 C292 1.420 . S
C290 C322 1.423 . S
C291 H277 0.930 . S
C291 C288 1.413 . S
C291 C289 1.367 . S
C292 N287 1.362 . S
C292 C290 1.420 . S
C292 C296 1.429 . S
H293 C298 0.930 . S
N294 Eu256 2.609 . S
N294 C296 1.377 . S
N294 C297 1.321 . S
C295 H281 0.930 . S
C295 C297 1.400 . S
C295 C298 1.386 . S
C296 C292 1.429 . S
C296 N294 1.377 . S
C296 C299 1.411 . S
C297 H279 0.930 . S
C297 N294 1.321 . S
C297 C295 1.400 . S
C298 H293 0.930 . S
C298 C295 1.386 . S
C298 C299 1.395 . S
C299 C296 1.411 . S
C299 C298 1.395 . S
C299 C321 1.420 . S
O300 Eu256 2.558 . S
O300 C320 1.257 . S
O301 Eu256 2.612 . S
O301 Eu267 2.380 . S
O301 C312 1.276 . S
O302 Eu267 2.432 . S
O302 C319 1.264 . S
O303 Eu256 2.339 . S
O303 C319 1.254 . S
O304 Eu256 2.563 . S
O304 C312 1.235 . S
O305 Eu256 2.419 . S
O305 C320 1.249 . S
O306 Eu267 2.558 . S
O306 C331 1.257 . S
O307 Eu256 2.380 . S
O307 Eu267 2.612 . S
O307 C323 1.276 . S
O308 Eu256 2.432 . S
O308 C330 1.264 . S
O309 Eu267 2.339 . S
O309 C330 1.254 . S
O310 Eu267 2.563 . S
O310 C323 1.235 . S
O311 Eu267 2.419 . S
O311 C331 1.249 . S
C312 O301 1.276 . S
C312 O304 1.235 . S
C313 C315 1.393 . S
C313 C317 1.395 . S
C313 C320 1.492 . S
C314 C315 1.392 . S
C314 C316 1.386 . S
C315 C313 1.393 . S
C315 C314 1.392 . S
C315 H332 0.930 . S
C316 C314 1.386 . S
C316 C318 1.395 . S
C316 H333 0.930 . S
C317 C313 1.395 . S
C317 C318 1.379 . S
C317 H334 0.930 . S
C318 C316 1.395 . S
C318 C317 1.379 . S
C318 H335 0.930 . S
C319 O302 1.264 . S
C319 O303 1.254 . S
C320 Eu256 2.848 . S
C320 O300 1.257 . S
C320 O305 1.249 . S
C320 C313 1.492 . S
C321 H286 0.931 . S
C321 C299 1.420 . S
C321 C322 1.351 . S
C322 H284 0.930 . S
C322 C290 1.423 . S
C322 C321 1.351 . S
C323 O307 1.276 . S
C323 O310 1.235 . S
C324 C325 1.393 . S
C324 C328 1.395 1_556 S
C324 C331 1.492 . S
C325 C324 1.393 . S
C325 C326 1.392 1_556 S
C325 H336 0.930 . S
C326 C325 1.392 1_554 S
C326 C327 1.386 . S
C327 C326 1.386 . S
C327 C329 1.395 . S
C327 H337 0.930 . S
C328 C324 1.395 1_554 S
C328 C329 1.379 . S
C328 H338 0.930 . S
C329 C327 1.395 . S
C329 C328 1.379 . S
C329 H339 0.930 . S
C330 O308 1.264 . S
C330 O309 1.254 . S
C331 Eu267 2.848 . S
C331 O306 1.257 . S
C331 O311 1.249 . S
C331 C324 1.492 . S
H332 C315 0.930 . S
H333 C316 0.930 . S
H334 C317 0.930 . S
H335 C318 0.930 . S
H336 C325 0.930 . S
H337 C327 0.930 . S
H338 C328 0.930 . S
H339 C329 0.930 . S
Eu340 N371 2.657 . S
Eu340 N378 2.609 . S
Eu340 O384 2.558 . S
Eu340 O385 2.612 . S
Eu340 O387 2.339 . S
Eu340 O388 2.563 . S
Eu340 O389 2.419 . S
Eu340 O391 2.380 . S
Eu340 O392 2.432 1_455 S
Eu340 C404 2.848 . S
C341 C344 1.429 . S
C341 C345 1.411 . S
C341 N348 1.377 . S
C342 C344 1.420 . S
C342 C346 1.423 . S
C342 C354 1.392 . S
C343 C345 1.420 . S
C343 C346 1.351 . S
C343 H366 0.931 . S
C344 C341 1.429 . S
C344 C342 1.420 . S
C344 N352 1.362 . S
C345 C341 1.411 . S
C345 C343 1.420 . S
C345 C350 1.395 1_655 S
C346 C342 1.423 . S
C346 C343 1.351 . S
C346 H358 0.930 . S
C347 C349 1.400 . S
C347 C350 1.386 . S
C347 H359 0.930 . S
N348 C341 1.377 . S
N348 C349 1.321 1_655 S
N348 Eu351 2.609 . S
C349 C347 1.400 . S
C349 N348 1.321 1_455 S
C349 H356 0.930 . S
C350 C345 1.395 1_455 S
C350 C347 1.386 . S
C350 H369 0.930 . S
Eu351 N348 2.609 . S
Eu351 N352 2.657 . S
Eu351 O385 2.380 1_655 S
Eu351 O386 2.432 1_655 S
Eu351 O390 2.558 . S
Eu351 O391 2.612 1_655 S
Eu351 O393 2.339 . S
Eu351 O394 2.563 . S
Eu351 O395 2.419 . S
Eu351 C415 2.848 . S
N352 C344 1.362 . S
N352 Eu351 2.657 . S
N352 C353 1.334 . S
C353 N352 1.334 . S
C353 C355 1.413 . S
C353 H360 0.929 . S
C354 C342 1.392 . S
C354 C355 1.367 . S
C354 H362 0.930 . S
C355 C353 1.413 . S
C355 C354 1.367 . S
C355 H357 0.930 . S
H356 C349 0.930 . S
H357 C355 0.930 . S
H358 C346 0.930 . S
H359 C347 0.930 . S
H360 C353 0.929 . S
H361 C375 0.930 . S
H362 C354 0.930 . S
H363 C381 0.920 1_655 S
H364 C372 0.929 . S
H365 C379 0.930 . S
H366 C343 0.931 . S
H367 C373 0.930 . S
H368 C406 0.930 . S
H369 C350 0.930 . S
H370 C405 0.931 . S
N371 Eu340 2.657 . S
N371 C372 1.334 . S
N371 C376 1.362 . S
C372 H364 0.929 . S
C372 N371 1.334 . S
C372 C375 1.413 . S
C373 H367 0.930 . S
C373 C374 1.392 . S
C373 C375 1.367 . S
C374 C373 1.392 . S
C374 C376 1.420 . S
C374 C406 1.423 . S
C375 H361 0.930 . S
C375 C372 1.413 . S
C375 C373 1.367 . S
C376 N371 1.362 . S
C376 C374 1.420 . S
C376 C380 1.429 . S
H377 C382 0.930 . S
N378 Eu340 2.609 . S
N378 C380 1.377 . S
N378 C381 1.334 . S
C379 H365 0.930 . S
C379 C381 1.396 1_655 S
C379 C382 1.386 1_655 S
C380 C376 1.429 . S
C380 N378 1.377 . S
C380 C383 1.411 . S
C381 H363 0.920 1_455 S
C381 N378 1.334 . S
C381 C379 1.396 1_455 S
C382 H377 0.930 . S
C382 C379 1.386 1_455 S
C382 C383 1.395 . S
C383 C380 1.411 . S
C383 C382 1.395 . S
C383 C405 1.420 . S
O384 Eu340 2.558 . S
O384 C404 1.257 . S
O385 Eu340 2.612 . S
O385 Eu351 2.380 1_455 S
O385 C396 1.276 . S
O386 Eu351 2.432 1_455 S
O386 C403 1.264 . S
O387 Eu340 2.339 . S
O387 C403 1.254 . S
O388 Eu340 2.563 . S
O388 C396 1.235 . S
O389 Eu340 2.419 . S
O389 C404 1.249 . S
O390 Eu351 2.558 . S
O390 C415 1.257 . S
O391 Eu340 2.380 . S
O391 Eu351 2.612 1_455 S
O391 C407 1.276 1_455 S
O392 Eu340 2.432 1_655 S
O392 C414 1.264 . S
O393 Eu351 2.339 . S
O393 C414 1.254 . S
O394 Eu351 2.563 . S
O394 C407 1.235 . S
O395 Eu351 2.419 . S
O395 C415 1.249 . S
C396 O385 1.276 . S
C396 O388 1.235 . S
C397 C399 1.393 . S
C397 C401 1.395 . S
C397 C404 1.492 . S
C398 C399 1.392 . S
C398 C400 1.386 . S
C399 C397 1.393 . S
C399 C398 1.392 . S
C399 H416 0.930 . S
C400 C398 1.386 . S
C400 C402 1.395 . S
C400 H417 0.930 . S
C401 C397 1.395 . S
C401 C402 1.379 . S
C401 H418 0.930 . S
C402 C400 1.395 . S
C402 C401 1.379 . S
C402 H419 0.930 . S
C403 O386 1.264 . S
C403 O387 1.254 . S
C404 Eu340 2.848 . S
C404 O384 1.257 . S
C404 O389 1.249 . S
C404 C397 1.492 . S
C405 H370 0.931 . S
C405 C383 1.420 . S
C405 C406 1.351 . S
C406 H368 0.930 . S
C406 C374 1.423 . S
C406 C405 1.351 . S
C407 O391 1.276 1_655 S
C407 O394 1.235 . S
C408 C409 1.393 . S
C408 C412 1.395 1_556 S
C408 C415 1.492 . S
C409 C408 1.393 . S
C409 C410 1.392 1_556 S
C409 H420 0.930 . S
C410 C409 1.392 1_554 S
C410 C411 1.386 . S
C411 C410 1.386 . S
C411 C413 1.395 . S
C411 H421 0.930 . S
C412 C408 1.395 1_554 S
C412 C413 1.379 . S
C412 H422 0.930 . S
C413 C411 1.395 . S
C413 C412 1.379 . S
C413 H423 0.930 . S
C414 O392 1.264 . S
C414 O393 1.254 . S
C415 Eu351 2.848 . S
C415 O390 1.257 . S
C415 O395 1.249 . S
C415 C408 1.492 . S
H416 C399 0.930 . S
H417 C400 0.930 . S
H418 C401 0.930 . S
H419 C402 0.930 . S
H420 C409 0.930 . S
H421 C411 0.930 . S
H422 C412 0.930 . S
H423 C413 0.930 . S
H424 C432 0.950 . S
H425 C437 0.950 . S
H426 C434 0.950 . S
H427 C436 0.950 . S
H428 C438 0.950 . S
H429 C440 0.950 . S
H430 C442 0.950 . S
H431 C443 0.950 . S
C432 H424 0.950 . S
C432 C433 1.386 . S
C432 C434 1.391 . S
C433 C432 1.386 . S
C433 C437 1.393 . S
C434 H426 0.950 . S
C434 C432 1.391 . S
C434 C435 1.400 . S
C435 C434 1.400 . S
C435 C436 1.398 . S
C435 C441 1.491 . S
C436 H427 0.950 . S
C436 C435 1.398 . S
C436 C437 1.391 . S
C437 H425 0.950 . S
C437 C433 1.393 . S
C437 C436 1.391 . S
C438 H428 0.950 . S
C438 C439 1.386 . S
C438 C440 1.391 . S
C439 C438 1.386 . S
C439 C443 1.393 . S
C440 H429 0.950 . S
C440 C438 1.391 . S
C440 C441 1.400 . S
C441 C435 1.491 . S
C441 C440 1.400 . S
C441 C442 1.398 . S
C442 H430 0.950 . S
C442 C441 1.398 . S
C442 C443 1.391 . S
C443 H431 0.950 . S
C443 C439 1.393 . S
C443 C442 1.391 . S
H444 C452 0.950 . S
H445 C457 0.950 . S
H446 C454 0.950 . S
H447 C456 0.950 . S
H448 C458 0.950 . S
H449 C460 0.950 . S
H450 C462 0.950 . S
H451 C463 0.950 . S
C452 H444 0.950 . S
C452 C453 1.386 . S
C452 C454 1.391 . S
C453 C452 1.386 . S
C453 C457 1.393 . S
C454 H446 0.950 . S
C454 C452 1.391 . S
C454 C455 1.400 . S
C455 C454 1.400 . S
C455 C456 1.398 . S
C455 C461 1.491 . S
C456 H447 0.950 . S
C456 C455 1.398 . S
C456 C457 1.391 . S
C457 H445 0.950 . S
C457 C453 1.393 . S
C457 C456 1.391 . S
C458 H448 0.950 . S
C458 C459 1.386 . S
C458 C460 1.391 . S
C459 C458 1.386 . S
C459 C463 1.393 . S
C460 H449 0.950 . S
C460 C458 1.391 . S
C460 C461 1.400 . S
C461 C455 1.491 . S
C461 C460 1.400 . S
C461 C462 1.398 . S
C462 H450 0.950 . S
C462 C461 1.398 . S
C462 C463 1.391 . S
C463 H451 0.950 . S
C463 C459 1.393 . S
C463 C462 1.391 . S
H464 C472 0.950 . S
H465 C477 0.950 . S
H466 C474 0.950 . S
H467 C476 0.950 . S
H468 C478 0.950 . S
H469 C480 0.950 . S
H470 C482 0.950 . S
H471 C483 0.950 . S
C472 H464 0.950 . S
C472 C473 1.386 . S
C472 C474 1.391 . S
C473 C472 1.386 . S
C473 C477 1.393 . S
C474 H466 0.950 . S
C474 C472 1.391 . S
C474 C475 1.400 . S
C475 C474 1.400 . S
C475 C476 1.398 . S
C475 C481 1.491 . S
C476 H467 0.950 . S
C476 C475 1.398 . S
C476 C477 1.391 . S
C477 H465 0.950 . S
C477 C473 1.393 . S
C477 C476 1.391 . S
C478 H468 0.950 . S
C478 C479 1.386 . S
C478 C480 1.391 . S
C479 C478 1.386 . S
C479 C483 1.393 . S
C480 H469 0.950 . S
C480 C478 1.391 . S
C480 C481 1.400 . S
C481 C475 1.491 . S
C481 C480 1.400 . S
C481 C482 1.398 . S
C482 H470 0.950 . S
C482 C481 1.398 . S
C482 C483 1.391 . S
C483 H471 0.950 . S
C483 C479 1.393 . S
C483 C482 1.391 . S
H484 C492 0.950 . S
H485 C497 0.950 . S
H486 C494 0.950 . S
H487 C496 0.950 . S
H488 C498 0.950 . S
H489 C500 0.950 . S
H490 C502 0.950 . S
H491 C503 0.950 . S
C492 H484 0.950 . S
C492 C493 1.386 . S
C492 C494 1.391 . S
C493 C492 1.386 . S
C493 C497 1.393 . S
C494 H486 0.950 . S
C494 C492 1.391 . S
C494 C495 1.400 . S
C495 C494 1.400 . S
C495 C496 1.398 . S
C495 C501 1.491 . S
C496 H487 0.950 . S
C496 C495 1.398 . S
C496 C497 1.391 . S
C497 H485 0.950 . S
C497 C493 1.393 . S
C497 C496 1.391 . S
C498 H488 0.950 . S
C498 C499 1.386 . S
C498 C500 1.391 . S
C499 C498 1.386 . S
C499 C503 1.393 . S
C500 H489 0.950 . S
C500 C498 1.391 . S
C500 C501 1.400 . S
C501 C495 1.491 . S
C501 C500 1.400 . S
C501 C502 1.398 . S
C502 H490 0.950 . S
C502 C501 1.398 . S
C502 C503 1.391 . S
C503 H491 0.950 . S
C503 C499 1.393 . S
C503 C502 1.391 . S
H504 C512 0.950 . S
H505 C517 0.950 . S
H506 C514 0.950 . S
H507 C516 0.950 1_556 S
H508 C518 0.950 1_545 S
H509 C520 0.950 . S
H510 C522 0.950 1_554 S
H511 C523 0.950 . S
C512 H504 0.950 . S
C512 C513 1.386 . S
C512 C514 1.391 . S
C513 C512 1.386 . S
C513 C517 1.393 . S
C514 H506 0.950 . S
C514 C512 1.391 . S
C514 C515 1.400 . S
C515 C514 1.400 . S
C515 C516 1.398 . S
C515 C521 1.491 1_554 S
C516 H507 0.950 1_554 S
C516 C515 1.398 . S
C516 C517 1.391 . S
C517 H505 0.950 . S
C517 C513 1.393 . S
C517 C516 1.391 . S
C518 H508 0.950 1_565 S
C518 C519 1.386 . S
C518 C520 1.391 . S
C519 C518 1.386 . S
C519 C523 1.393 . S
C520 H509 0.950 . S
C520 C518 1.391 . S
C520 C521 1.400 . S
C521 C515 1.491 1_556 S
C521 C520 1.400 . S
C521 C522 1.398 . S
C522 H510 0.950 1_556 S
C522 C521 1.398 . S
C522 C523 1.391 . S
C523 H511 0.950 . S
C523 C519 1.393 . S
C523 C522 1.391 . S
H524 C532 0.950 . S
H525 C537 0.950 . S
H526 C534 0.950 . S
H527 C536 0.950 . S
H528 C538 0.950 . S
H529 C540 0.950 . S
H530 C542 0.950 . S
H531 C543 0.950 . S
C532 H524 0.950 . S
C532 C533 1.386 . S
C532 C534 1.391 . S
C533 C532 1.386 . S
C533 C537 1.393 . S
C534 H526 0.950 . S
C534 C532 1.391 . S
C534 C535 1.400 . S
C535 C534 1.400 . S
C535 C536 1.398 . S
C535 C541 1.491 1_554 S
C536 H527 0.950 . S
C536 C535 1.398 . S
C536 C537 1.391 . S
C537 H525 0.950 . S
C537 C533 1.393 . S
C537 C536 1.391 . S
C538 H528 0.950 . S
C538 C539 1.386 . S
C538 C540 1.391 . S
C539 C538 1.386 . S
C539 C543 1.393 . S
C540 H529 0.950 . S
C540 C538 1.391 . S
C540 C541 1.400 . S
C541 C535 1.491 1_556 S
C541 C540 1.400 . S
C541 C542 1.398 . S
C542 H530 0.950 . S
C542 C541 1.398 . S
C542 C543 1.391 . S
C543 H531 0.950 . S
C543 C539 1.393 . S
C543 C542 1.391 . S
H544 C552 0.950 . S
H545 C557 0.950 . S
H546 C554 0.950 . S
H547 C556 0.950 . S
H548 C558 0.950 . S
H549 C560 0.950 . S
H550 C562 0.950 . S
H551 C563 0.950 . S
C552 H544 0.950 . S
C552 C553 1.386 . S
C552 C554 1.391 . S
C553 C552 1.386 . S
C553 C557 1.393 . S
C554 H546 0.950 . S
C554 C552 1.391 . S
C554 C555 1.400 . S
C555 C554 1.400 . S
C555 C556 1.398 . S
C555 C561 1.491 1_554 S
C556 H547 0.950 . S
C556 C555 1.398 . S
C556 C557 1.391 . S
C557 H545 0.950 . S
C557 C553 1.393 . S
C557 C556 1.391 . S
C558 H548 0.950 . S
C558 C559 1.386 . S
C558 C560 1.391 . S
C559 C558 1.386 . S
C559 C563 1.393 . S
C560 H549 0.950 . S
C560 C558 1.391 . S
C560 C561 1.400 . S
C561 C555 1.491 1_556 S
C561 C560 1.400 . S
C561 C562 1.398 . S
C562 H550 0.950 . S
C562 C561 1.398 . S
C562 C563 1.391 . S
C563 H551 0.950 . S
C563 C559 1.393 . S
C563 C562 1.391 . S
H564 C572 0.950 . S
H565 C577 0.950 . S
H566 C574 0.950 1_556 S
H567 C576 0.950 1_455 S
H568 C578 0.950 . S
H569 C580 0.950 1_454 S
H570 C582 0.950 . S
H571 C583 0.950 . S
C572 H564 0.950 . S
C572 C573 1.386 . S
C572 C574 1.391 . S
C573 C572 1.386 . S
C573 C577 1.393 . S
C574 H566 0.950 1_554 S
C574 C572 1.391 . S
C574 C575 1.400 . S
C575 C574 1.400 . S
C575 C576 1.398 . S
C575 C581 1.491 1_554 S
C576 H567 0.950 1_655 S
C576 C575 1.398 . S
C576 C577 1.391 . S
C577 H565 0.950 . S
C577 C573 1.393 . S
C577 C576 1.391 . S
C578 H568 0.950 . S
C578 C579 1.386 1_455 S
C578 C580 1.391 1_455 S
C579 C578 1.386 1_655 S
C579 C583 1.393 . S
C580 H569 0.950 1_656 S
C580 C578 1.391 1_655 S
C580 C581 1.400 . S
C581 C575 1.491 1_556 S
C581 C580 1.400 . S
C581 C582 1.398 . S
C582 H570 0.950 . S
C582 C581 1.398 . S
C582 C583 1.391 . S
C583 H571 0.950 . S
C583 C579 1.393 . S
C583 C582 1.391 . S
H584 C592 0.950 . S
H585 C597 0.950 . S
H586 C594 0.950 . S
H587 C596 0.950 . S
H588 C598 0.950 . S
H589 C600 0.950 . S
H590 C602 0.950 . S
H591 C603 0.950 1_655 S
C592 H584 0.950 . S
C592 C593 1.386 . S
C592 C594 1.391 . S
C593 C592 1.386 . S
C593 C597 1.393 . S
C594 H586 0.950 . S
C594 C592 1.391 . S
C594 C595 1.400 . S
C595 C594 1.400 . S
C595 C596 1.398 . S
C595 C601 1.491 . S
C596 H587 0.950 . S
C596 C595 1.398 . S
C596 C597 1.391 . S
C597 H585 0.950 . S
C597 C593 1.393 . S
C597 C596 1.391 . S
C598 H588 0.950 . S
C598 C599 1.386 . S
C598 C600 1.391 . S
C599 C598 1.386 . S
C599 C603 1.393 . S
C600 H589 0.950 . S
C600 C598 1.391 . S
C600 C601 1.400 . S
C601 C595 1.491 . S
C601 C600 1.400 . S
C601 C602 1.398 . S
C602 H590 0.950 . S
C602 C601 1.398 . S
C602 C603 1.391 . S
C603 H591 0.950 1_455 S
C603 C599 1.393 . S
C603 C602 1.391 . S
H604 C612 0.950 . S
H605 C617 0.950 . S
H606 C614 0.950 . S
H607 C616 0.950 . S
H608 C618 0.950 . S
H609 C620 0.950 . S
H610 C622 0.950 1_565 S
H611 C623 0.950 . S
C612 H604 0.950 . S
C612 C613 1.386 . S
C612 C614 1.391 . S
C613 C612 1.386 . S
C613 C617 1.393 . S
C614 H606 0.950 . S
C614 C612 1.391 . S
C614 C615 1.400 . S
C615 C614 1.400 . S
C615 C616 1.398 . S
C615 C621 1.491 . S
C616 H607 0.950 . S
C616 C615 1.398 . S
C616 C617 1.391 . S
C617 H605 0.950 . S
C617 C613 1.393 . S
C617 C616 1.391 . S
C618 H608 0.950 . S
C618 C619 1.386 . S
C618 C620 1.391 . S
C619 C618 1.386 . S
C619 C623 1.393 1_545 S
C620 H609 0.950 . S
C620 C618 1.391 . S
C620 C621 1.400 . S
C621 C615 1.491 . S
C621 C620 1.400 . S
C621 C622 1.398 . S
C622 H610 0.950 1_545 S
C622 C621 1.398 . S
C622 C623 1.391 1_545 S
C623 H611 0.950 . S
C623 C619 1.393 1_565 S
C623 C622 1.391 1_565 S
H624 C632 0.950 . S
H625 C637 0.950 . S
H626 C634 0.950 . S
H627 C636 0.950 . S
H628 C638 0.950 . S
H629 C640 0.950 . S
H630 C642 0.950 . S
H631 C643 0.950 . S
C632 H624 0.950 . S
C632 C633 1.386 . S
C632 C634 1.391 . S
C633 C632 1.386 . S
C633 C637 1.393 . S
C634 H626 0.950 . S
C634 C632 1.391 . S
C634 C635 1.400 . S
C635 C634 1.400 . S
C635 C636 1.398 . S
C635 C641 1.491 . S
C636 H627 0.950 . S
C636 C635 1.398 . S
C636 C637 1.391 . S
C637 H625 0.950 . S
C637 C633 1.393 . S
C637 C636 1.391 . S
C638 H628 0.950 . S
C638 C639 1.386 . S
C638 C640 1.391 . S
C639 C638 1.386 . S
C639 C643 1.393 . S
C640 H629 0.950 . S
C640 C638 1.391 . S
C640 C641 1.400 . S
C641 C635 1.491 . S
C641 C640 1.400 . S
C641 C642 1.398 . S
C642 H630 0.950 . S
C642 C641 1.398 . S
C642 C643 1.391 . S
C643 H631 0.950 . S
C643 C639 1.393 . S
C643 C642 1.391 . S
H644 C652 0.950 . S
H645 C657 0.950 . S
H646 C654 0.950 . S
H647 C656 0.950 . S
H648 C658 0.950 . S
H649 C660 0.950 . S
H650 C662 0.950 . S
H651 C663 0.950 . S
C652 H644 0.950 . S
C652 C653 1.386 . S
C652 C654 1.391 . S
C653 C652 1.386 . S
C653 C657 1.393 . S
C654 H646 0.950 . S
C654 C652 1.391 . S
C654 C655 1.400 . S
C655 C654 1.400 . S
C655 C656 1.398 . S
C655 C661 1.491 . S
C656 H647 0.950 . S
C656 C655 1.398 . S
C656 C657 1.391 . S
C657 H645 0.950 . S
C657 C653 1.393 . S
C657 C656 1.391 . S
C658 H648 0.950 . S
C658 C659 1.386 . S
C658 C660 1.391 . S
C659 C658 1.386 . S
C659 C663 1.393 . S
C660 H649 0.950 . S
C660 C658 1.391 . S
C660 C661 1.400 . S
C661 C655 1.491 . S
C661 C660 1.400 . S
C661 C662 1.398 . S
C662 H650 0.950 . S
C662 C661 1.398 . S
C662 C663 1.391 . S
C663 H651 0.950 . S
C663 C659 1.393 . S
C663 C662 1.391 . S
H664 C672 0.950 . S
H665 C677 0.950 . S
H666 C674 0.950 . S
H667 C676 0.950 . S
H668 C678 0.950 . S
H669 C680 0.950 . S
H670 C682 0.950 . S
H671 C683 0.950 . S
C672 H664 0.950 . S
C672 C673 1.386 . S
C672 C674 1.391 . S
C673 C672 1.386 . S
C673 C677 1.393 . S
C674 H666 0.950 . S
C674 C672 1.391 . S
C674 C675 1.400 . S
C675 C674 1.400 . S
C675 C676 1.398 . S
C675 C681 1.491 . S
C676 H667 0.950 . S
C676 C675 1.398 . S
C676 C677 1.391 . S
C677 H665 0.950 . S
C677 C673 1.393 . S
C677 C676 1.391 . S
C678 H668 0.950 . S
C678 C679 1.386 1_654 S
C678 C680 1.391 . S
C679 C678 1.386 1_456 S
C679 C683 1.393 . S
C680 H669 0.950 . S
C680 C678 1.391 . S
C680 C681 1.400 . S
C681 C675 1.491 . S
C681 C680 1.400 . S
C681 C682 1.398 1_655 S
C682 H670 0.950 . S
C682 C681 1.398 1_455 S
C682 C683 1.391 1_554 S
C683 H671 0.950 . S
C683 C679 1.393 . S
C683 C682 1.391 1_556 S
H684 C692 0.950 . S
H685 C697 0.950 . S
H686 C694 0.950 . S
H687 C696 0.950 1_545 S
H688 C698 0.950 . S
H689 C700 0.950 . S
H690 C702 0.950 . S
H691 C703 0.950 . S
C692 H684 0.950 . S
C692 C693 1.386 . S
C692 C694 1.391 . S
C693 C692 1.386 . S
C693 C697 1.393 . S
C694 H686 0.950 . S
C694 C692 1.391 . S
C694 C695 1.400 . S
C695 C694 1.400 . S
C695 C696 1.398 . S
C695 C701 1.491 . S
C696 H687 0.950 1_565 S
C696 C695 1.398 . S
C696 C697 1.391 . S
C697 H685 0.950 . S
C697 C693 1.393 . S
C697 C696 1.391 . S
C698 H688 0.950 . S
C698 C699 1.386 1_554 S
C698 C700 1.391 . S
C699 C698 1.386 1_556 S
C699 C703 1.393 1_545 S
C700 H689 0.950 . S
C700 C698 1.391 . S
C700 C701 1.400 1_545 S
C701 C695 1.491 . S
C701 C700 1.400 1_565 S
C701 C702 1.398 1_554 S
C702 H690 0.950 . S
C702 C701 1.398 1_556 S
C702 C703 1.391 . S
C703 H691 0.950 . S
C703 C699 1.393 1_565 S
C703 C702 1.391 . S
H704 C712 0.950 . S
H705 C717 0.950 . S
H706 C714 0.950 . S
H707 C716 0.950 . S
H708 C718 0.950 . S
H709 C720 0.950 1_556 S
H710 C722 0.950 . S
H711 C723 0.950 . S
C712 H704 0.950 . S
C712 C713 1.386 . S
C712 C714 1.391 . S
C713 C712 1.386 . S
C713 C717 1.393 . S
C714 H706 0.950 . S
C714 C712 1.391 . S
C714 C715 1.400 . S
C715 C714 1.400 . S
C715 C716 1.398 . S
C715 C721 1.491 . S
C716 H707 0.950 . S
C716 C715 1.398 . S
C716 C717 1.391 . S
C717 H705 0.950 . S
C717 C713 1.393 . S
C717 C716 1.391 . S
C718 H708 0.950 . S
C718 C719 1.386 1_556 S
C718 C720 1.391 1_556 S
C719 C718 1.386 1_554 S
C719 C723 1.393 . S
C720 H709 0.950 1_554 S
C720 C718 1.391 1_554 S
C720 C721 1.400 . S
C721 C715 1.491 . S
C721 C720 1.400 . S
C721 C722 1.398 . S
C722 H710 0.950 . S
C722 C721 1.398 . S
C722 C723 1.391 . S
C723 H711 0.950 . S
C723 C719 1.393 . S
C723 C722 1.391 . S
H724 C732 0.950 . S
H725 C737 0.950 . S
H726 C734 0.950 . S
H727 C736 0.950 . S
H728 C738 0.950 . S
H729 C740 0.950 . S
H730 C742 0.950 . S
H731 C743 0.950 . S
C732 H724 0.950 . S
C732 C733 1.386 . S
C732 C734 1.391 . S
C733 C732 1.386 . S
C733 C737 1.393 . S
C734 H726 0.950 . S
C734 C732 1.391 . S
C734 C735 1.400 . S
C735 C734 1.400 . S
C735 C736 1.398 . S
C735 C741 1.491 . S
C736 H727 0.950 . S
C736 C735 1.398 . S
C736 C737 1.391 . S
C737 H725 0.950 . S
C737 C733 1.393 . S
C737 C736 1.391 . S
C738 H728 0.950 . S
C738 C739 1.386 . S
C738 C740 1.391 . S
C739 C738 1.386 . S
C739 C743 1.393 1_554 S
C740 H729 0.950 . S
C740 C738 1.391 . S
C740 C741 1.400 . S
C741 C735 1.491 . S
C741 C740 1.400 . S
C741 C742 1.398 1_554 S
C742 H730 0.950 . S
C742 C741 1.398 1_556 S
C742 C743 1.391 . S
C743 H731 0.950 . S
C743 C739 1.393 1_556 S
C743 C742 1.391 . S
H744 C752 0.950 . S
H745 C757 0.950 . S
H746 C754 0.950 . S
H747 C756 0.950 . S
H748 C758 0.950 . S
H749 C760 0.950 . S
H750 C762 0.950 . S
H751 C763 0.950 . S
C752 H744 0.950 . S
C752 C753 1.386 . S
C752 C754 1.391 . S
C753 C752 1.386 . S
C753 C757 1.393 . S
C754 H746 0.950 . S
C754 C752 1.391 . S
C754 C755 1.400 . S
C755 C754 1.400 . S
C755 C756 1.398 . S
C755 C761 1.491 . S
C756 H747 0.950 . S
C756 C755 1.398 . S
C756 C757 1.391 . S
C757 H745 0.950 . S
C757 C753 1.393 . S
C757 C756 1.391 . S
C758 H748 0.950 . S
C758 C759 1.386 . S
C758 C760 1.391 . S
C759 C758 1.386 . S
C759 C763 1.393 . S
C760 H749 0.950 . S
C760 C758 1.391 . S
C760 C761 1.400 . S
C761 C755 1.491 . S
C761 C760 1.400 . S
C761 C762 1.398 . S
C762 H750 0.950 . S
C762 C761 1.398 . S
C762 C763 1.391 . S
C763 H751 0.950 . S
C763 C759 1.393 . S
C763 C762 1.391 . S
H764 C772 0.950 . S
H765 C777 0.950 . S
H766 C774 0.950 . S
H767 C776 0.950 . S
H768 C778 0.950 . S
H769 C780 0.950 . S
H770 C782 0.950 . S
H771 C783 0.950 . S
C772 H764 0.950 . S
C772 C773 1.386 . S
C772 C774 1.391 . S
C773 C772 1.386 . S
C773 C777 1.393 . S
C774 H766 0.950 . S
C774 C772 1.391 . S
C774 C775 1.400 . S
C775 C774 1.400 . S
C775 C776 1.398 . S
C775 C781 1.491 . S
C776 H767 0.950 . S
C776 C775 1.398 . S
C776 C777 1.391 . S
C777 H765 0.950 . S
C777 C773 1.393 . S
C777 C776 1.391 . S
C778 H768 0.950 . S
C778 C779 1.386 . S
C778 C780 1.391 . S
C779 C778 1.386 . S
C779 C783 1.393 . S
C780 H769 0.950 . S
C780 C778 1.391 . S
C780 C781 1.400 . S
C781 C775 1.491 . S
C781 C780 1.400 . S
C781 C782 1.398 . S
C782 H770 0.950 . S
C782 C781 1.398 . S
C782 C783 1.391 . S
C783 H771 0.950 . S
C783 C779 1.393 . S
C783 C782 1.391 . S
H784 C792 0.950 . S
H785 C797 0.950 . S
H786 C794 0.950 . S
H787 C796 0.950 . S
H788 C798 0.950 . S
H789 C800 0.950 . S
H790 C802 0.950 . S
H791 C803 0.950 . S
C792 H784 0.950 . S
C792 C793 1.386 . S
C792 C794 1.391 . S
C793 C792 1.386 . S
C793 C797 1.393 . S
C794 H786 0.950 . S
C794 C792 1.391 . S
C794 C795 1.400 . S
C795 C794 1.400 . S
C795 C796 1.398 . S
C795 C801 1.491 . S
C796 H787 0.950 . S
C796 C795 1.398 . S
C796 C797 1.391 . S
C797 H785 0.950 . S
C797 C793 1.393 . S
C797 C796 1.391 . S
C798 H788 0.950 . S
C798 C799 1.386 . S
C798 C800 1.391 . S
C799 C798 1.386 . S
C799 C803 1.393 . S
C800 H789 0.950 . S
C800 C798 1.391 . S
C800 C801 1.400 . S
C801 C795 1.491 . S
C801 C800 1.400 . S
C801 C802 1.398 . S
C802 H790 0.950 . S
C802 C801 1.398 . S
C802 C803 1.391 . S
C803 H791 0.950 . S
C803 C799 1.393 . S
C803 C802 1.391 . S
H804 C812 0.950 . S
H805 C817 0.950 . S
H806 C814 0.950 . S
H807 C816 0.950 . S
H808 C818 0.950 . S
H809 C820 0.950 . S
H810 C822 0.950 . S
H811 C823 0.950 . S
C812 H804 0.950 . S
C812 C813 1.386 . S
C812 C814 1.391 . S
C813 C812 1.386 . S
C813 C817 1.393 . S
C814 H806 0.950 . S
C814 C812 1.391 . S
C814 C815 1.400 . S
C815 C814 1.400 . S
C815 C816 1.398 . S
C815 C821 1.491 . S
C816 H807 0.950 . S
C816 C815 1.398 . S
C816 C817 1.391 . S
C817 H805 0.950 . S
C817 C813 1.393 . S
C817 C816 1.391 . S
C818 H808 0.950 . S
C818 C819 1.386 . S
C818 C820 1.391 . S
C819 C818 1.386 . S
C819 C823 1.393 . S
C820 H809 0.950 . S
C820 C818 1.391 . S
C820 C821 1.400 . S
C821 C815 1.491 . S
C821 C820 1.400 . S
C821 C822 1.398 . S
C822 H810 0.950 . S
C822 C821 1.398 . S
C822 C823 1.391 . S
C823 H811 0.950 . S
C823 C819 1.393 . S
C823 C822 1.391 . S
H824 C832 0.950 . S
H825 C837 0.950 . S
H826 C834 0.950 . S
H827 C836 0.950 . S
H828 C838 0.950 . S
H829 C840 0.950 . S
H830 C842 0.950 1_455 S
H831 C843 0.950 1_455 S
C832 H824 0.950 . S
C832 C833 1.386 . S
C832 C834 1.391 . S
C833 C832 1.386 . S
C833 C837 1.393 . S
C834 H826 0.950 . S
C834 C832 1.391 . S
C834 C835 1.400 . S
C835 C834 1.400 . S
C835 C836 1.398 . S
C835 C841 1.491 . S
C836 H827 0.950 . S
C836 C835 1.398 . S
C836 C837 1.391 . S
C837 H825 0.950 . S
C837 C833 1.393 . S
C837 C836 1.391 . S
C838 H828 0.950 . S
C838 C839 1.386 . S
C838 C840 1.391 . S
C839 C838 1.386 . S
C839 C843 1.393 . S
C840 H829 0.950 . S
C840 C838 1.391 . S
C840 C841 1.400 . S
C841 C835 1.491 . S
C841 C840 1.400 . S
C841 C842 1.398 . S
C842 H830 0.950 1_655 S
C842 C841 1.398 . S
C842 C843 1.391 . S
C843 H831 0.950 1_655 S
C843 C839 1.393 . S
C843 C842 1.391 . S
H844 C852 0.950 . S
H845 C857 0.950 . S
H846 C854 0.950 . S
H847 C856 0.960 . S
H848 C858 0.950 . S
H849 C860 0.950 1_545 S
H850 C862 0.950 . S
H851 C863 0.950 . S
C852 H844 0.950 . S
C852 C853 1.386 . S
C852 C854 1.391 . S
C853 C852 1.386 . S
C853 C857 1.393 . S
C854 H846 0.950 . S
C854 C852 1.391 . S
C854 C855 1.400 . S
C855 C854 1.400 . S
C855 C856 1.398 . S
C855 C861 1.491 . S
C856 H847 0.960 . S
C856 C855 1.398 . S
C856 C857 1.391 . S
C857 H845 0.950 . S
C857 C853 1.393 . S
C857 C856 1.391 . S
C858 H848 0.950 . S
C858 C859 1.386 1_545 S
C858 C860 1.391 1_545 S
C859 C858 1.386 1_565 S
C859 C863 1.393 . S
C860 H849 0.950 1_565 S
C860 C858 1.391 1_565 S
C860 C861 1.400 . S
C861 C855 1.491 . S
C861 C860 1.400 . S
C861 C862 1.398 . S
C862 H850 0.950 . S
C862 C861 1.398 . S
C862 C863 1.391 . S
C863 H851 0.950 . S
C863 C859 1.393 . S
C863 C862 1.391 . S
H864 C872 0.950 . S
H865 C877 0.950 . S
H866 C874 0.950 . S
H867 C876 0.950 . S
H868 C878 0.950 . S
H869 C880 0.950 . S
H870 C882 0.950 . S
H871 C883 0.950 . S
C872 H864 0.950 . S
C872 C873 1.386 . S
C872 C874 1.391 . S
C873 C872 1.386 . S
C873 C877 1.393 . S
C874 H866 0.950 . S
C874 C872 1.391 . S
C874 C875 1.400 . S
C875 C874 1.400 . S
C875 C876 1.398 . S
C875 C881 1.491 . S
C876 H867 0.950 . S
C876 C875 1.398 . S
C876 C877 1.391 . S
C877 H865 0.950 . S
C877 C873 1.393 . S
C877 C876 1.391 . S
C878 H868 0.950 . S
C878 C879 1.386 . S
C878 C880 1.391 . S
C879 C878 1.386 . S
C879 C883 1.393 . S
C880 H869 0.950 . S
C880 C878 1.391 . S
C880 C881 1.400 . S
C881 C875 1.491 . S
C881 C880 1.400 . S
C881 C882 1.398 . S
C882 H870 0.950 . S
C882 C881 1.398 . S
C882 C883 1.391 . S
C883 H871 0.950 . S
C883 C879 1.393 . S
C883 C882 1.391 . S
H884 C892 0.950 . S
H885 C897 0.950 . S
H886 C894 0.950 . S
H887 C896 0.950 . S
H888 C898 0.950 . S
H889 C900 0.950 . S
H890 C902 0.950 . S
H891 C903 0.950 . S
C892 H884 0.950 . S
C892 C893 1.386 . S
C892 C894 1.391 . S
C893 C892 1.386 . S
C893 C897 1.393 . S
C894 H886 0.950 . S
C894 C892 1.391 . S
C894 C895 1.400 . S
C895 C894 1.400 . S
C895 C896 1.398 . S
C895 C901 1.491 . S
C896 H887 0.950 . S
C896 C895 1.398 . S
C896 C897 1.391 . S
C897 H885 0.950 . S
C897 C893 1.393 . S
C897 C896 1.391 . S
C898 H888 0.950 . S
C898 C899 1.386 . S
C898 C900 1.391 . S
C899 C898 1.386 . S
C899 C903 1.393 . S
C900 H889 0.950 . S
C900 C898 1.391 . S
C900 C901 1.400 . S
C901 C895 1.491 . S
C901 C900 1.400 . S
C901 C902 1.398 . S
C902 H890 0.950 . S
C902 C901 1.398 . S
C902 C903 1.391 . S
C903 H891 0.950 . S
C903 C899 1.393 . S
C903 C902 1.391 . S
C433 C76 1.849 . S
C439 C162 1.932 . S
C459 C246 1.957 . S
C453 C87 1.890 . S
C479 C312 1.924 . S
C473 C54 1.966 . S
C499 C396 1.909 . S
C493 C65 1.948 . S
C519 C151 1.920 1_565 S
C513 C32 1.862 . S
C533 C43 1.871 . S
C539 C235 1.940 . S
C553 C10 1.993 . S
C559 C323 1.946 . S
C573 C21 1.950 . S
C579 C407 1.900 . S
C599 C158 0.665 1_455 S
C593 C60 0.611 . S
C619 C242 0.628 1_545 S
C613 C71 0.579 . S
C639 C314 0.550 . S
C633 C82 0.620 . S
C653 C49 0.632 . S
C659 C398 0.589 . S
C673 C16 0.676 . S
C679 C146 0.612 . S
C699 C230 0.597 . S
C693 C27 0.608 . S
C719 C326 0.565 . S
C713 C38 0.608 . S
C733 C5 0.642 . S
C739 C410 0.597 . S
C753 C59 2.001 . S
C759 C155 2.063 . S
C773 C70 1.982 . S
C779 C239 2.057 . S
C799 C319 2.069 . S
C793 C81 1.881 . S
C819 C403 2.084 . S
C813 C48 1.924 . S
C833 C15 1.989 . S
C839 C144 2.062 . S
C859 C228 2.047 . S
C853 C26 1.981 . S
C879 C330 2.054 . S
C873 C37 1.877 . S
C893 C4 1.890 . S
C899 C414 2.087 . S
