# Generated by pormake.
# Topology rtl, (3,6)-cn, num edge types: 1
# Building blocks:
#     Node 0, Type 0, BuildingBlock: BELTOD_clean_linker_0, # of connection points: 3
#     Node 1, Type 0, BuildingBlock: BELTOD_clean_linker_0, # of connection points: 3
#     Node 2, Type 0, BuildingBlock: BELTOD_clean_linker_0, # of connection points: 3
#     Node 3, Type 0, BuildingBlock: BELTOD_clean_linker_0, # of connection points: 3
#     Node 4, Type 1, BuildingBlock: KUMBUR_clean_sbu_1, # of connection points: 6
#     Node 5, Type 1, BuildingBlock: KUMBUR_clean_sbu_1, # of connection points: 6
#     Edge 6, Type (0, 1), BuildingBlock: UVAHIK_clean_linker_0, # of connection points: 2
#     Edge 7, Type (0, 1), BuildingBlock: UVAHIK_clean_linker_0, # of connection points: 2
#     Edge 8, Type (0, 1), BuildingBlock: UVAHIK_clean_linker_0, # of connection points: 2
#     Edge 9, Type (0, 1), BuildingBlock: UVAHIK_clean_linker_0, # of connection points: 2
#     Edge 10, Type (0, 1), BuildingBlock: UVAHIK_clean_linker_0, # of connection points: 2
#     Edge 11, Type (0, 1), BuildingBlock: UVAHIK_clean_linker_0, # of connection points: 2
#     Edge 12, Type (0, 1), BuildingBlock: UVAHIK_clean_linker_0, # of connection points: 2
#     Edge 13, Type (0, 1), BuildingBlock: UVAHIK_clean_linker_0, # of connection points: 2
#     Edge 14, Type (0, 1), BuildingBlock: UVAHIK_clean_linker_0, # of connection points: 2
#     Edge 15, Type (0, 1), BuildingBlock: UVAHIK_clean_linker_0, # of connection points: 2
#     Edge 16, Type (0, 1), BuildingBlock: UVAHIK_clean_linker_0, # of connection points: 2
#     Edge 17, Type (0, 1), BuildingBlock: UVAHIK_clean_linker_0, # of connection points: 2
# Relax obj value: 0.018
# Max RMSD: 0.085
# Mean RMSD: 0.057
data_MOF--net-rtl--node1-KUMBUR_clean_sbu_1--node2-BELTOD_clean_linker_0--edge1-UVAHIK_clean_linker_0
_symmetry_space_group_name_H-M    P1
_symmetry_Int_Tables_number       1
_symmetry_cell_setting            triclinic
loop_
_symmetry_equiv_pos_as_xyz
'x, y, z'
_cell_length_a     46.712236
_cell_length_b     47.115691
_cell_length_c     40.194653
_cell_angle_alpha  80.833738
_cell_angle_beta   99.791361
_cell_angle_gamma 90.224588
loop_
_atom_site_label
_atom_site_type_symbol
_atom_site_fract_x
_atom_site_fract_y
_atom_site_fract_z
_atom_type_partial_charge
P0 P 0.2668 0.89498 0.02461 0.0
H1 H 0.28034 0.92842 0.08041 0.0
H2 H 0.25533 0.9355 0.12729 0.0
H3 H 0.18941 0.87663 0.09456 0.0
H4 H 0.21401 0.87032 0.04674 0.0
H5 H 0.31843 0.87826 1.00064 0.0
H6 H 0.34327 0.8322 0.00405 0.0
H7 H 0.28076 0.79001 0.06188 0.0
H8 H 0.2563 0.83635 0.05888 0.0
H9 H 0.2269 0.94254 0.99306 0.0
H10 H 0.24982 0.86022 0.96968 0.0
O11 O 0.29113 0.92085 0.02116 0.0
H12 H 0.19427 0.95287 0.93795 0.0
H13 H 0.21791 0.87064 0.91438 0.0
C14 C 0.24906 0.89877 0.06014 0.0
C15 C 0.26051 0.91702 0.0832 0.0
C16 C 0.24621 0.92112 0.10995 0.0
C17 C 0.22051 0.9066 0.11445 0.0
C18 C 0.20932 0.88791 0.0917 0.0
C19 C 0.22335 0.88427 0.0645 0.0
C20 C 0.28586 0.86091 0.03008 0.0
C21 C 0.31029 0.85918 0.01448 0.0
C22 C 0.32429 0.83276 0.01613 0.0
C23 C 0.31397 0.8074 0.0332 0.0
C24 C 0.28948 0.8092 0.04893 0.0
C25 C 0.27543 0.83573 0.04719 0.0
C26 C 0.24076 0.90066 0.98552 0.0
C27 C 0.22475 0.92662 0.97615 0.0
C28 C 0.2063 0.93258 0.94453 0.0
C29 C 0.20361 0.91266 0.92161 0.0
C30 C 0.21921 0.88633 0.93152 0.0
C31 C 0.23764 0.8804 0.96318 0.0
P32 P 0.67753 0.70013 0.59018 0.0
H33 H 0.69485 0.69454 0.52572 0.0
H34 H 0.668 0.68601 0.47081 0.0
H35 H 0.58723 0.69159 0.50856 0.0
H36 H 0.61446 0.6998 0.5638 0.0
H37 H 0.72415 0.72018 0.63749 0.0
H38 H 0.75334 0.76327 0.63358 0.0
H39 H 0.6969 0.7991 0.5396 0.0
H40 H 0.66805 0.75564 0.54349 0.0
H41 H 0.65118 0.64689 0.61347 0.0
H42 H 0.65825 0.7318 0.64091 0.0
O43 O 0.70461 0.67576 0.59731 0.0
H44 H 0.62805 0.63039 0.66297 0.0
H45 H 0.63505 0.71527 0.69084 0.0
C46 C 0.65669 0.69724 0.54894 0.0
C47 C 0.67135 0.69416 0.52207 0.0
C48 C 0.65592 0.6895 0.49059 0.0
C49 C 0.62543 0.68798 0.48531 0.0
C50 C 0.61071 0.69223 0.51198 0.0
C51 C 0.62624 0.69699 0.54353 0.0
C52 C 0.69427 0.73455 0.59056 0.0
C53 C 0.71775 0.73757 0.61641 0.0
C54 C 0.73433 0.76231 0.6142 0.0
C55 C 0.72767 0.78452 0.58603 0.0
C56 C 0.70291 0.78215 0.56128 0.0
C57 C 0.68631 0.75735 0.56356 0.0
C58 C 0.6567 0.6904 0.62381 0.0
C59 C 0.64744 0.66206 0.62999 0.0
C60 C 0.63434 0.65264 0.65831 0.0
C61 C 0.63016 0.67147 0.68094 0.0
C62 C 0.63805 0.70035 0.67375 0.0
C63 C 0.65138 0.70976 0.64534 0.0
P64 P 0.79237 0.16017 0.02065 0.0
H65 H 0.78453 0.17811 0.94706 0.0
H66 H 0.79281 0.15278 0.90084 0.0
H67 H 0.80351 0.0727 0.97143 0.0
H68 H 0.79504 0.09806 0.0174 0.0
H69 H 0.78437 0.20573 0.05828 0.0
H70 H 0.74335 0.2371 0.05937 0.0
H71 H 0.69017 0.19534 0.98337 0.0
H72 H 0.73174 0.16367 0.9825 0.0
H73 H 0.84437 0.12596 0.05213 0.0
H74 H 0.7618 0.1445 0.07947 0.0
O75 O 0.81996 0.18232 0.01656 0.0
H76 H 0.86068 0.09969 0.1099 0.0
H77 H 0.77835 0.11893 0.13748 0.0
C78 C 0.7895 0.14009 0.98572 0.0
C79 C 0.78776 0.15496 0.95233 0.0
C80 C 0.79248 0.14044 0.92592 0.0
C81 C 0.79923 0.11079 0.93264 0.0
C82 C 0.79882 0.09563 0.96564 0.0
C83 C 0.79389 0.11015 0.99195 0.0
C84 C 0.76115 0.1826 0.02015 0.0
C85 C 0.76389 0.20328 0.04185 0.0
C86 C 0.74033 0.22104 0.04265 0.0
C87 C 0.71345 0.21858 0.02161 0.0
C88 C 0.71067 0.19778 0.99975 0.0
C89 C 0.73436 0.17971 0.99923 0.0
C90 C 0.80208 0.13752 0.06163 0.0
C91 C 0.82965 0.1241 0.07044 0.0
C92 C 0.83889 0.10902 0.10336 0.0
C93 C 0.82082 0.10749 0.12815 0.0
C94 C 0.79277 0.12004 0.11889 0.0
C95 C 0.78335 0.1347 0.08574 0.0
P96 P 0.38404 0.25488 0.47493 0.0
H97 H 0.40919 0.23817 0.54687 0.0
H98 H 0.4197 0.26497 0.59462 0.0
H99 H 0.38275 0.34207 0.52832 0.0
H100 H 0.37201 0.31493 0.48066 0.0
H101 H 0.36295 0.20237 0.45064 0.0
H102 H 0.31664 0.178 0.44898 0.0
H103 H 0.28106 0.24775 0.4885 0.0
H104 H 0.3278 0.2717 0.49073 0.0
H105 H 0.43529 0.28052 0.45248 0.0
H106 H 0.34365 0.28007 0.41238 0.0
O107 O 0.40928 0.22859 0.48251 0.0
H108 H 0.44358 0.3105 0.3998 0.0
H109 H 0.35158 0.31073 0.35975 0.0
C110 C 0.39035 0.2747 0.51014 0.0
C111 C 0.4034 0.26085 0.54259 0.0
C112 C 0.40952 0.27623 0.56983 0.0
C113 C 0.40241 0.30574 0.56516 0.0
C114 C 0.38846 0.31936 0.53276 0.0
C115 C 0.38246 0.30393 0.50546 0.0
C116 C 0.34899 0.23848 0.47155 0.0
C117 C 0.34516 0.21242 0.45892 0.0
C118 C 0.31856 0.19863 0.45772 0.0
C119 C 0.29514 0.21078 0.46887 0.0
C120 C 0.2988 0.23751 0.48034 0.0
C121 C 0.32548 0.25129 0.48154 0.0
C122 C 0.38897 0.27779 0.43612 0.0
C123 C 0.41692 0.287 0.4323 0.0
C124 C 0.42157 0.30435 0.40224 0.0
C125 C 0.39825 0.31305 0.37542 0.0
C126 C 0.3701 0.30408 0.37963 0.0
C127 C 0.36549 0.28664 0.4098 0.0
Tb128 Tb 0.02639 0.96985 0.50911 0.0
C129 C 0.95892 0.08785 0.49236 0.0
N130 N 0.98545 0.07935 0.51084 0.0
C131 C 0.00469 0.12519 0.49164 0.0
C132 C 0.95434 0.11534 0.47222 0.0
C133 C 0.00817 0.09769 0.51113 0.0
C134 C 0.97768 0.13404 0.47198 0.0
C135 C 0.90858 0.07657 0.47427 0.0
C136 C 0.93642 0.06862 0.49323 0.0
C137 C 0.90392 0.10386 0.45397 0.0
C138 C 0.92674 0.1232 0.45296 0.0
Tb139 Tb 0.98839 0.03424 0.54218 0.0
N140 N 0.94186 0.04222 0.51282 0.0
C141 C 0.88614 0.05703 0.47675 0.0
C142 C 0.91947 0.02411 0.51733 0.0
C143 C 0.89153 0.03086 0.49879 0.0
H144 H 0.02875 0.09153 0.52724 0.0
H145 H 0.87402 0.01614 0.50212 0.0
H146 H 0.98363 0.91328 0.51541 0.0
H147 H 0.13636 0.98685 0.56982 0.0
H148 H 0.9225 0.00503 0.53612 0.0
H149 H 0.86443 0.0623 0.46264 0.0
H150 H 0.09081 0.99981 0.52989 0.0
H151 H 0.02277 0.13964 0.49205 0.0
H152 H 0.88268 0.1103 0.43917 0.0
H153 H 0.92279 0.14421 0.4373 0.0
H154 H 0.98626 0.86437 0.54869 0.0
H155 H 0.97504 0.15537 0.45691 0.0
H156 H 0.14278 0.93877 0.60568 0.0
N157 N 0.02615 0.92399 0.53765 0.0
C158 C 0.05117 0.91462 0.55919 0.0
C159 C 0.00461 0.87836 0.55203 0.0
C160 C 0.05372 0.88675 0.57848 0.0
C161 C 0.00306 0.90624 0.53354 0.0
C162 C 0.03001 0.86858 0.57467 0.0
N163 N 0.07017 0.9607 0.54479 0.0
C164 C 0.09258 0.97936 0.54623 0.0
C165 C 0.1 0.92489 0.58551 0.0
C166 C 0.07399 0.93352 0.56275 0.0
C167 C 0.12245 0.94454 0.58846 0.0
C168 C 0.11882 0.97178 0.56845 0.0
H169 H 0.0311 0.84698 0.58903 0.0
H170 H 0.08199 0.85672 0.61624 0.0
H171 H 0.12251 0.89009 0.62236 0.0
O172 O 0.05411 0.97355 0.47251 0.0
O173 O 0.02748 0.9678 0.5645 0.0
O174 O 0.02888 0.01495 0.57223 0.0
O175 O 0.02608 0.93759 0.47844 0.0
O176 O 0.04075 0.0141 0.49491 0.0
O177 O 0.03454 0.038 0.53919 0.0
O178 O 0.96627 0.03057 0.58501 0.0
O179 O 0.98535 0.03633 0.48655 0.0
O180 O 0.98676 0.98937 0.4764 0.0
O181 O 0.99274 0.06736 0.57133 0.0
O182 O 0.97349 0.98988 0.55445 0.0
O183 O 0.97988 0.96616 0.50977 0.0
C184 C 0.03397 0.98756 0.58398 0.0
C185 C 0.03647 0.95352 0.42323 0.0
C186 C 0.05062 0.95397 0.36743 0.0
C187 C 0.02169 0.96079 0.35175 0.0
C188 C 0.00767 0.95995 0.40709 0.0
C189 C 1.00035 0.96362 0.37153 0.0
C190 C 0.05789 0.95028 0.40333 0.0
C191 C 0.04683 0.0352 0.51271 0.0
C192 C 0.04446 0.95055 0.46065 0.0
C193 C 0.07963 0.87806 0.60116 0.0
C194 C 0.1027 0.89707 0.60467 0.0
C195 C 0.97837 0.01658 0.46707 0.0
C196 C 0.97037 0.06884 0.62091 0.0
C197 C 0.94787 0.06967 0.67124 0.0
C198 C 0.96181 0.09547 0.67621 0.0
C199 C 0.98393 0.09482 0.62636 0.0
C200 C 0.95203 0.05631 0.64343 0.0
C201 C 0.97963 0.10799 0.65381 0.0
C202 C 0.96657 0.96976 0.53525 0.0
C203 C 0.9763 0.05517 0.59209 0.0
H204 H 0.01551 0.96346 0.32419 0.0
H205 H 0.9909 0.96199 0.42206 0.0
H206 H 0.97807 0.96859 0.35927 0.0
H207 H 0.08018 0.94525 0.41572 0.0
H208 H 0.95873 0.10602 0.69746 0.0
H209 H 0.9981 0.105 0.6095 0.0
H210 H 0.94136 0.03632 0.63964 0.0
H211 H 0.99023 0.12794 0.65778 0.0
Tb212 Tb 0.46934 0.49329 0.98792 0.0
C213 C 0.58933 0.54313 0.03012 0.0
N214 N 0.57938 0.5173 0.04322 0.0
C215 C 0.62402 0.49404 0.03967 0.0
C216 C 0.61696 0.54526 0.02045 0.0
C217 C 0.59633 0.49293 0.04858 0.0
C218 C 0.63436 0.52029 0.02545 0.0
C219 C 0.58029 0.5942 0.0103 0.0
C220 C 0.57107 0.56729 0.025 0.0
C221 C 0.60786 0.59644 1.00066 0.0
C222 C 0.62615 0.57205 0.00577 0.0
Tb223 Tb 0.53467 0.51864 0.05805 0.0
N224 N 0.54422 0.56427 0.03403 0.0
C225 C 0.5616 0.61813 0.0059 0.0
C226 C 0.52673 0.58789 0.03169 0.0
C227 C 0.53486 0.61499 0.017 0.0
H228 H 0.58873 0.4727 0.06018 0.0
H229 H 0.5207 0.63357 0.01483 0.0
H230 H 0.41783 0.54448 0.97503 0.0
H231 H 0.46505 0.37776 0.01515 0.0
H232 H 0.50704 0.5864 0.04213 0.0
H233 H 0.56787 0.63919 0.99469 0.0
H234 H 0.48789 0.42425 1.00076 0.0
H235 H 0.63741 0.47468 0.04388 0.0
H236 H 0.61527 0.61696 0.98929 0.0
H237 H 0.64731 0.57413 0.99813 0.0
H238 H 0.36642 0.54796 0.98089 0.0
H239 H 0.65577 0.52104 0.01844 0.0
H240 H 0.41345 0.37644 0.02231 0.0
N241 N 0.42169 0.49942 0.99257 0.0
C242 C 0.40717 0.47491 1.00063 0.0
C243 C 0.37774 0.52729 0.98702 0.0
C244 C 0.37743 0.47567 0.00292 0.0
C245 C 0.40716 0.52535 0.98455 0.0
C246 C 0.36285 0.50237 0.99655 0.0
N247 N 0.45059 0.44918 0.00257 0.0
C248 C 0.46583 0.42406 0.00511 0.0
C249 C 0.40768 0.42278 0.01231 0.0
C250 C 0.42194 0.44885 0.00496 0.0
C251 C 0.42356 0.39695 0.01653 0.0
C252 C 0.45273 0.39761 0.01269 0.0
H253 H 0.33997 0.5039 0.998 0.0
H254 H 0.34024 0.44993 0.01258 0.0
H255 H 0.36683 0.4036 0.02106 0.0
O256 O 0.47808 0.47464 0.94603 0.0
O257 O 0.46686 0.47416 0.04107 0.0
O258 O 0.50202 0.4928 0.08015 0.0
O259 O 0.44343 0.5058 0.93991 0.0
O260 O 0.51255 0.47227 0.99785 0.0
O261 O 0.53387 0.47274 0.05446 0.0
O262 O 0.54292 0.54376 0.09763 0.0
O263 O 0.5392 0.51927 0.00437 0.0
O264 O 0.49346 0.53244 0.97702 0.0
O265 O 0.56406 0.50169 0.10265 0.0
O266 O 0.49105 0.53699 0.05569 0.0
O267 O 0.46926 0.537 0.99979 0.0
C268 C 0.4793 0.477 0.07239 0.0
C269 C 0.4353 0.46887 0.90647 0.0
C270 C 0.42429 0.43929 0.86144 0.0
C271 C 0.39654 0.4345 0.87001 0.0
C272 C 0.40716 0.46418 0.91399 0.0
C273 C 0.38806 0.44696 0.89604 0.0
C274 C 0.44368 0.45661 0.87975 0.0
C275 C 0.52888 0.46038 0.02683 0.0
C276 C 0.45545 0.48723 0.92561 0.0
C277 C 0.36308 0.44979 0.01062 0.0
C278 C 0.37818 0.42339 0.01532 0.0
C279 C 0.52151 0.53247 0.97766 0.0
C280 C 0.57597 0.52737 0.15113 0.0
C281 C 0.58029 0.54931 0.20272 0.0
C282 C 0.60441 0.53125 0.21754 0.0
C283 C 0.60016 0.50945 0.16646 0.0
C284 C 0.56611 0.54748 0.16939 0.0
C285 C 0.6143 0.51149 0.19944 0.0
C286 C 0.46983 0.54492 0.02982 0.0
C287 C 0.56067 0.52418 0.11672 0.0
H288 H 0.38114 0.42154 0.85604 0.0
H289 H 0.39961 0.47413 0.93337 0.0
H290 H 0.36648 0.44351 0.90211 0.0
H291 H 0.46514 0.46041 0.87336 0.0
H292 H 0.61557 0.53246 0.24321 0.0
H293 H 0.60814 0.49383 0.15296 0.0
H294 H 0.54735 0.56132 0.15804 0.0
H295 H 0.63292 0.49761 0.21108 0.0
C296 C 0.25299 0.19427 0.49783 0.0
C297 C 0.26749 0.19505 0.46979 0.0
C298 C 0.22788 0.17829 0.4997 0.0
C299 C 0.18872 0.1175 0.46636 0.0
H300 H 0.12587 0.14557 0.50509 0.0
C301 C 0.08121 0.05628 0.47407 0.0
C302 C 0.07092 0.05447 0.50522 0.0
C303 C 0.10425 0.07422 0.46744 0.0
C304 C 0.14332 0.13735 0.49441 0.0
H305 H 0.26634 0.18021 0.4212 0.0
H306 H 0.22243 0.15241 0.4244 0.0
H307 H 0.16739 0.17586 0.4973 0.0
H308 H 0.07743 0.06941 0.55427 0.0
H309 H 0.11722 0.10078 0.54257 0.0
H310 H 0.16456 0.07892 0.46362 0.0
C311 C 0.23079 0.16379 0.44525 0.0
C312 C 0.16716 0.15469 0.48999 0.0
C313 C 0.25596 0.17977 0.4434 0.0
C314 C 0.08436 0.07075 0.52969 0.0
C315 C 0.10719 0.08877 0.52299 0.0
C316 C 0.16479 0.10018 0.47067 0.0
C317 C 0.21654 0.16269 0.47355 0.0
C318 C 0.19036 0.14486 0.47632 0.0
C319 C 0.11741 0.09076 0.4918 0.0
C320 C 0.14199 0.10977 0.48517 0.0
H321 H 0.26152 0.20535 0.5189 0.0
H322 H 0.2178 0.17756 0.52216 0.0
H323 H 0.20634 0.10907 0.45616 0.0
H324 H 0.0714 0.04394 0.45473 0.0
H325 H 0.11154 0.07539 0.44309 0.0
C326 C 0.33798 0.7728 0.00458 0.0
C327 C 0.32854 0.77924 0.03398 0.0
C328 C 0.35254 0.74682 0.00537 0.0
C329 C 0.36676 0.6732 0.05431 0.0
H330 H 0.43171 0.67506 0.00547 0.0
C331 C 0.44471 0.5752 0.06261 0.0
C332 C 0.45186 0.57027 0.03143 0.0
C333 C 0.42911 0.60014 0.06421 0.0
C334 C 0.41348 0.67413 0.01901 0.0
H335 H 0.32677 0.76323 0.08721 0.0
H336 H 0.35242 0.71784 0.08868 0.0
H337 H 0.40553 0.71949 0.00591 0.0
H338 H 0.44885 0.58784 0.97762 0.0
H339 H 0.42145 0.63094 0.98032 0.0
H340 H 0.37503 0.62769 0.06753 0.0
C341 C 0.34823 0.73279 0.06488 0.0
C342 C 0.39841 0.6996 0.0192 0.0
C343 C 0.33355 0.75881 0.06406 0.0
C344 C 0.4432 0.59073 0.00193 0.0
C345 C 0.42781 0.61563 0.00354 0.0
C346 C 0.38197 0.64767 0.05424 0.0
C347 C 0.35815 0.72661 0.03561 0.0
C348 C 0.37465 0.69945 0.03652 0.0
C349 C 0.42077 0.62074 0.03471 0.0
C350 C 0.40529 0.64784 0.03625 0.0
H351 H 0.33392 0.78779 0.9808 0.0
H352 H 0.35926 0.74252 0.98213 0.0
H353 H 0.34841 0.67226 0.06765 0.0
H354 H 0.45135 0.55987 0.08577 0.0
H355 H 0.4242 0.60362 0.08864 0.0
C356 C 0.76212 0.8209 0.60876 0.0
C357 C 0.74808 0.8085 0.58095 0.0
C358 C 0.78388 0.84097 0.60448 0.0
C359 C 0.81665 0.88862 0.5385 0.0
H360 H 0.88605 0.87842 0.60797 0.0
C361 C 0.92605 0.93825 0.51537 0.0
C362 C 0.94183 0.95121 0.5417 0.0
C363 C 0.9016 0.92218 0.52084 0.0
C364 C 0.8667 0.88176 0.58853 0.0
H365 H 0.74556 0.80799 0.52666 0.0
H366 H 0.78338 0.8428 0.51922 0.0
H367 H 0.84383 0.84929 0.61625 0.0
H368 H 0.94463 0.95722 0.59451 0.0
H369 H 0.90198 0.92896 0.60413 0.0
H370 H 0.83987 0.92068 0.51048 0.0
C371 C 0.77734 0.83742 0.54427 0.0
C372 C 0.84244 0.86515 0.59332 0.0
C373 C 0.75557 0.81744 0.54853 0.0
C374 C 0.93291 0.94743 0.57375 0.0
C375 C 0.90857 0.93118 0.5793 0.0
C376 C 0.84097 0.90512 0.53365 0.0
C377 C 0.79216 0.84903 0.5723 0.0
C378 C 0.81719 0.86818 0.56822 0.0
C379 C 0.89251 0.91857 0.55281 0.0
C380 C 0.86636 0.90169 0.55847 0.0
H381 H 0.75658 0.81477 0.63398 0.0
H382 H 0.79447 0.8499 0.62649 0.0
H383 H 0.79742 0.89185 0.51891 0.0
H384 H 0.93226 0.94098 0.4903 0.0
H385 H 0.88987 0.91244 0.50005 0.0
C386 C 0.67269 0.25302 0.99169 0.0
C387 C 0.68899 0.23845 0.02222 0.0
C388 C 0.65251 0.27472 0.99248 0.0
C389 C 0.63875 0.32652 0.04794 0.0
H390 H 0.56549 0.34133 0.98561 0.0
C391 C 0.55934 0.41721 0.0576 0.0
C392 C 0.54566 0.4337 0.02679 0.0
C393 C 0.57521 0.39213 0.05738 0.0
C394 C 0.58601 0.33762 0.003 0.0
H395 H 0.69527 0.23355 0.07754 0.0
H396 H 0.65999 0.27109 0.07897 0.0
H397 H 0.59508 0.29893 0.98449 0.0
H398 H 0.53803 0.43672 0.97151 0.0
H399 H 0.56589 0.39328 0.97116 0.0
H400 H 0.63005 0.36528 0.06616 0.0
C401 C 0.66331 0.2664 0.05436 0.0
C402 C 0.60294 0.3133 0.00237 0.0
C403 C 0.68347 0.24483 0.05356 0.0
C404 C 0.54814 0.42447 0.99577 0.0
C405 C 0.564 0.39943 0.99555 0.0
C406 C 0.6219 0.35078 0.04854 0.0
C407 C 0.6482 0.28219 0.02384 0.0
C408 C 0.62953 0.30747 0.02485 0.0
C409 C 0.5778 0.38297 0.02634 0.0
C410 C 0.59534 0.3567 0.02605 0.0
H411 H 0.67657 0.24866 0.96715 0.0
H412 H 0.64132 0.28654 0.96849 0.0
H413 H 0.65941 0.32305 0.06511 0.0
H414 H 0.55769 0.42357 0.08195 0.0
H415 H 0.58523 0.37977 0.0816 0.0
C416 C 0.19803 0.88789 0.16566 0.0
C417 C 0.20527 0.91128 0.1426 0.0
C418 C 0.18399 0.8924 0.19251 0.0
C419 C 0.1647 0.95027 0.23968 0.0
H420 H 0.10965 0.89414 0.26958 0.0
C421 C 0.07548 0.9712 0.31773 0.0
C422 C 0.07284 0.95028 0.34607 0.0
C423 C 0.0946 0.96672 0.29574 0.0
C424 C 0.1252 0.90983 0.26171 0.0
H425 H 0.20316 0.95763 0.12892 0.0
H426 H 0.17738 0.96561 0.17455 0.0
H427 H 0.13607 0.88581 0.2247 0.0
H428 H 0.08849 0.90858 0.37414 0.0
H429 H 0.12155 0.90041 0.33505 0.0
H430 H 0.15231 0.97492 0.27571 0.0
C431 C 0.18344 0.94377 0.17302 0.0
C432 C 0.14052 0.90505 0.23605 0.0
C433 C 0.19802 0.93925 0.14663 0.0
C434 C 0.09022 0.92508 0.35253 0.0
C435 C 0.10896 0.92035 0.33014 0.0
C436 C 0.1489 0.9553 0.26486 0.0
C437 C 0.17628 0.92041 0.19649 0.0
C438 C 0.16047 0.92523 0.22454 0.0
C439 C 0.11106 0.94101 0.30135 0.0
C440 C 0.12899 0.93514 0.27605 0.0
H441 H 0.2037 0.86612 0.16325 0.0
H442 H 0.17951 0.87385 0.21034 0.0
H443 H 0.18027 0.96605 0.23223 0.0
H444 H 0.06241 0.99087 0.31232 0.0
H445 H 0.09572 0.9829 0.27363 0.0
C446 C 0.63216 0.63491 0.73341 0.0
C447 C 0.61946 0.66016 0.71301 0.0
C448 C 0.62179 0.62315 0.763 0.0
C449 C 0.57602 0.63872 0.82542 0.0
H450 H 0.57546 0.55542 0.84558 0.0
C451 C 0.517 0.57218 0.92762 0.0
C452 C 0.53342 0.54943 0.94923 0.0
C453 C 0.52795 0.58775 0.9001 0.0
C454 C 0.57572 0.57869 0.84042 0.0
H455 H 0.58639 0.69337 0.70789 0.0
H456 H 0.5675 0.67233 0.7594 0.0
H457 H 0.59249 0.5786 0.79432 0.0
H458 H 0.57432 0.52543 0.95949 0.0
H459 H 0.59325 0.55235 0.91101 0.0
H460 H 0.55818 0.6384 0.87135 0.0
C461 C 0.58584 0.66185 0.75278 0.0
C462 C 0.58559 0.59205 0.8111 0.0
C463 C 0.59654 0.67386 0.72324 0.0
C464 C 0.56119 0.54285 0.94323 0.0
C465 C 0.57197 0.55816 0.91547 0.0
C466 C 0.56571 0.62527 0.85461 0.0
C467 C 0.59814 0.6361 0.7728 0.0
C468 C 0.58629 0.62223 0.80341 0.0
C469 C 0.55531 0.58053 0.89345 0.0
C470 C 0.56583 0.59513 0.86253 0.0
H471 H 0.65027 0.62423 0.72649 0.0
H472 H 0.63244 0.60384 0.77823 0.0
H473 H 0.57646 0.66197 0.82051 0.0
H474 H 0.49563 0.5779 0.9319 0.0
H475 H 0.51466 0.60483 0.88341 0.0
C476 C 0.8303 0.11077 0.19043 0.0
C477 C 0.8322 0.09491 0.16412 0.0
C478 C 0.84374 0.10055 0.22397 0.0
C479 C 0.90172 0.04859 0.27274 0.0
H480 H 0.87264 0.06918 0.35078 0.0
C481 C 0.94503 0.0038 0.4162 0.0
C482 C 0.9595 0.02494 0.43337 0.0
C483 C 0.92815 0.01134 0.38381 0.0
C484 C 0.88089 0.06335 0.32911 0.0
H485 H 0.84835 0.05535 0.15233 0.0
H486 H 0.8707 0.0367 0.21113 0.0
H487 H 0.84417 0.08232 0.29344 0.0
H488 H 0.96681 0.07072 0.43018 0.0
H489 H 0.93561 0.08401 0.3744 0.0
H490 H 0.93796 0.02873 0.30905 0.0
C491 C 0.85981 0.05757 0.20584 0.0
C492 C 0.86477 0.071 0.29623 0.0
C493 C 0.84681 0.06809 0.17216 0.0
C494 C 0.95575 0.05394 0.41791 0.0
C495 C 0.9381 0.06156 0.38593 0.0
C496 C 0.91747 0.04043 0.30569 0.0
C497 C 0.85902 0.07395 0.23213 0.0
C498 C 0.87514 0.06408 0.26748 0.0
C499 C 0.92456 0.04025 0.36851 0.0
C500 C 0.90733 0.04807 0.33398 0.0
H501 H 0.81949 0.13171 0.18482 0.0
H502 H 0.84299 0.11411 0.24316 0.0
H503 H 0.91083 0.04333 0.2514 0.0
H504 H 0.94665 0.98137 0.42779 0.0
H505 H 0.91768 0.99464 0.37079 0.0
C506 C 0.38976 0.34211 0.60015 0.0
C507 C 0.40973 0.32214 0.59403 0.0
C508 C 0.39636 0.35674 0.62806 0.0
C509 C 0.44336 0.35055 0.7127 0.0
H510 H 0.41622 0.42894 0.70834 0.0
C511 C 0.42696 0.39723 0.83147 0.0
C512 C 0.43211 0.42642 0.83282 0.0
C513 C 0.42983 0.38569 0.80233 0.0
C514 C 0.42438 0.4072 0.70989 0.0
H515 H 0.45277 0.30275 0.61164 0.0
H516 H 0.46436 0.32835 0.66016 0.0
H517 H 0.4101 0.40741 0.65632 0.0
H518 H 0.44549 0.46624 0.80543 0.0
H519 H 0.45071 0.44595 0.75415 0.0
H520 H 0.45756 0.35029 0.76623 0.0
C521 C 0.44334 0.3323 0.64383 0.0
C522 C 0.4205 0.39471 0.68015 0.0
C523 C 0.43669 0.31761 0.61602 0.0
C524 C 0.44156 0.44361 0.80505 0.0
C525 C 0.44424 0.43207 0.77565 0.0
C526 C 0.44726 0.36302 0.74238 0.0
C527 C 0.42315 0.35183 0.65043 0.0
C528 C 0.42944 0.36604 0.68133 0.0
C529 C 0.43782 0.40309 0.77374 0.0
C530 C 0.43726 0.39128 0.74148 0.0
H531 H 0.36868 0.34586 0.58389 0.0
H532 H 0.38009 0.37127 0.63266 0.0
H533 H 0.45034 0.32836 0.71468 0.0
H534 H 0.41974 0.38353 0.85261 0.0
H535 H 0.42441 0.36339 0.80165 0.0
C536 C 0.61794 0.69112 0.42143 0.0
C537 C 0.60952 0.68017 0.45285 0.0
C538 C 0.60564 0.68092 0.39154 0.0
C539 C 0.57256 0.61569 0.36507 0.0
H540 H 0.56174 0.66158 0.27459 0.0
C541 C 0.55227 0.56058 0.2466 0.0
C542 C 0.57049 0.56978 0.22285 0.0
C543 C 0.54843 0.57732 0.27136 0.0
C544 C 0.56463 0.64847 0.29968 0.0
H545 H 0.5805 0.65085 0.47715 0.0
H546 H 0.55863 0.63343 0.42485 0.0
H547 H 0.57107 0.68527 0.32508 0.0
H548 H 0.59788 0.60389 0.20491 0.0
H549 H 0.59148 0.63317 0.24819 0.0
H550 H 0.56737 0.57888 0.34 0.0
C551 C 0.57507 0.64965 0.42344 0.0
C552 C 0.56999 0.66204 0.3286 0.0
C553 C 0.58739 0.65987 0.45335 0.0
C554 C 0.58342 0.59666 0.2228 0.0
C555 C 0.57967 0.61339 0.24758 0.0
C556 C 0.56724 0.60215 0.33623 0.0
C557 C 0.58458 0.65952 0.39233 0.0
C558 C 0.57475 0.64574 0.36164 0.0
C559 C 0.56301 0.60341 0.27297 0.0
C560 C 0.56394 0.6183 0.30316 0.0
H561 H 0.63465 0.70706 0.42008 0.0
H562 H 0.61367 0.68885 0.36813 0.0
H563 H 0.57653 0.60241 0.39008 0.0
H564 H 0.54231 0.53974 0.24715 0.0
H565 H 0.53508 0.56921 0.29017 0.0
C566 C 0.79676 0.10213 0.87199 0.0
C567 C 0.81005 0.09661 0.90657 0.0
C568 C 0.80926 0.09138 0.8471 0.0
C569 C 0.88081 0.07175 0.83188 0.0
H570 H 0.8386 0.04134 0.75404 0.0
C571 C 0.94188 0.04603 0.72922 0.0
C572 C 0.92909 0.05766 0.69572 0.0
C573 C 0.92544 0.04284 0.75548 0.0
C574 C 0.85067 0.04984 0.7756 0.0
H575 H 0.84649 0.07499 0.94219 0.0
H576 H 0.86814 0.05623 0.89889 0.0
H577 H 0.81293 0.05186 0.79918 0.0
H578 H 0.88903 0.07339 0.66264 0.0
H579 H 0.86014 0.06819 0.70851 0.0
H580 H 0.91819 0.07104 0.80812 0.0
C581 C 0.84808 0.06882 0.891 0.0
C582 C 0.83597 0.05587 0.8014 0.0
C583 C 0.8355 0.07934 0.91585 0.0
C584 C 0.89916 0.06397 0.68829 0.0
C585 C 0.88269 0.06102 0.71463 0.0
C586 C 0.89541 0.06593 0.80613 0.0
C587 C 0.83545 0.07521 0.85628 0.0
C588 C 0.85089 0.06708 0.82969 0.0
C589 C 0.896 0.05175 0.74879 0.0
C590 C 0.88055 0.05508 0.77751 0.0
H591 H 0.77707 0.11529 0.86413 0.0
H592 H 0.79912 0.0968 0.82051 0.0
H593 H 0.89282 0.08093 0.85297 0.0
H594 H 0.96503 0.04128 0.73548 0.0
H595 H 0.93623 0.03498 0.78135 0.0
C596 C 0.42388 0.35312 0.3441 0.0
C597 C 0.40347 0.33112 0.34318 0.0
C598 C 0.4297 0.36937 0.31386 0.0
C599 C 0.42303 0.36813 0.22078 0.0
H600 H 0.44077 0.44886 0.21799 0.0
C601 C 0.44327 0.44354 0.09785 0.0
C602 C 0.46803 0.46054 0.1021 0.0
C603 C 0.43338 0.42796 0.12621 0.0
C604 C 0.43595 0.4263 0.21844 0.0
H605 H 0.37306 0.30913 0.3095 0.0
H606 H 0.3825 0.3381 0.25678 0.0
H607 H 0.42677 0.42166 0.26929 0.0
H608 H 0.50172 0.47434 0.14029 0.0
H609 H 0.48432 0.44759 0.18923 0.0
H610 H 0.4321 0.37306 0.16965 0.0
C611 C 0.39441 0.34246 0.28092 0.0
C612 C 0.42804 0.41065 0.24789 0.0
C613 C 0.38869 0.32609 0.31121 0.0
C614 C 0.48247 0.46168 0.13562 0.0
C615 C 0.47247 0.44639 0.16388 0.0
C616 C 0.4307 0.3839 0.19116 0.0
C617 C 0.41511 0.36423 0.28184 0.0
C618 C 0.42188 0.38125 0.24967 0.0
C619 C 0.44785 0.42935 0.15953 0.0
C620 C 0.43764 0.41304 0.18989 0.0
H621 H 0.43541 0.35786 0.36825 0.0
H622 H 0.44606 0.38565 0.31566 0.0
H623 H 0.41883 0.34546 0.22134 0.0
H624 H 0.43138 0.44231 0.07278 0.0
H625 H 0.41417 0.41516 0.12211 0.0
C626 C 0.18545 0.94751 0.86809 0.0
C627 C 0.18543 0.91973 0.88707 0.0
C628 C 0.16904 0.95406 0.83528 0.0
C629 C 0.10715 0.92907 0.77737 0.0
H630 H 0.13982 0.97861 0.70734 0.0
C631 C 0.05196 0.95027 0.63505 0.0
C632 C 0.05106 0.97899 0.61862 0.0
C633 C 0.06859 0.94219 0.66755 0.0
C634 C 0.13032 0.96492 0.7267 0.0
H635 H 0.16773 0.87715 0.88648 0.0
H636 H 0.13959 0.88839 0.82889 0.0
H637 H 0.16829 0.96607 0.76455 0.0
H638 H 0.06682 0.02178 0.62343 0.0
H639 H 0.09557 0.00773 0.68021 0.0
H640 H 0.06922 0.92787 0.73929 0.0
C641 C 0.15207 0.90523 0.83957 0.0
C642 C 0.1466 0.95778 0.75952 0.0
C643 C 0.16846 0.89869 0.87245 0.0
C644 C 0.06699 0.99948 0.63542 0.0
C645 C 0.08369 0.99139 0.66783 0.0
C646 C 0.09092 0.93611 0.74446 0.0
C647 C 0.15225 0.93297 0.82052 0.0
C648 C 0.13514 0.93994 0.78535 0.0
C649 C 0.08467 0.96267 0.68426 0.0
C650 C 0.10226 0.9543 0.71886 0.0
H651 H 0.19855 0.96415 0.87836 0.0
H652 H 0.1694 0.97575 0.82155 0.0
H653 H 0.0975 0.91559 0.79674 0.0
H654 H 0.03974 0.93403 0.62286 0.0
H655 H 0.06911 0.91985 0.67946 0.0
loop_
_geom_bond_atom_site_label_1
_geom_bond_atom_site_label_2
_geom_bond_distance
_geom_bond_site_symmetry_2
_ccdc_geom_bond_type
P0 O11 1.490 . S
P0 C14 1.812 . S
P0 C20 1.803 . S
P0 C26 1.819 1_554 S
H1 C15 0.941 . S
H2 C16 0.939 . S
H3 C18 0.940 . S
H4 C19 0.940 . S
H5 C21 0.939 . S
H6 C22 0.942 . S
H7 C24 0.940 . S
H8 C25 0.939 . S
H9 C27 0.941 . S
H10 C31 0.939 . S
O11 P0 1.490 . S
H12 C28 0.939 . S
H13 C30 0.940 . S
C14 P0 1.812 . S
C14 C15 1.389 . S
C14 C19 1.391 . S
C15 H1 0.941 . S
C15 C14 1.389 . S
C15 C16 1.397 . S
C16 H2 0.939 . S
C16 C15 1.397 . S
C16 C17 1.378 . S
C17 C16 1.378 . S
C17 C18 1.378 . S
C18 H3 0.940 . S
C18 C17 1.378 . S
C18 C19 1.396 . S
C19 H4 0.940 . S
C19 C14 1.391 . S
C19 C18 1.396 . S
C20 P0 1.803 . S
C20 C21 1.378 . S
C20 C25 1.400 . S
C21 H5 0.939 . S
C21 C20 1.378 . S
C21 C22 1.361 . S
C22 H6 0.942 . S
C22 C21 1.361 . S
C22 C23 1.369 . S
C23 C22 1.369 . S
C23 C24 1.404 . S
C24 H7 0.940 . S
C24 C23 1.404 . S
C24 C25 1.389 . S
C25 H8 0.939 . S
C25 C20 1.400 . S
C25 C24 1.389 . S
C26 P0 1.819 1_556 S
C26 C27 1.391 . S
C26 C31 1.391 . S
C27 H9 0.941 . S
C27 C26 1.391 . S
C27 C28 1.396 . S
C28 H12 0.939 . S
C28 C27 1.396 . S
C28 C29 1.397 . S
C29 C28 1.397 . S
C29 C30 1.385 . S
C30 H13 0.940 . S
C30 C29 1.385 . S
C30 C31 1.388 . S
C31 H10 0.939 . S
C31 C26 1.391 . S
C31 C30 1.388 . S
P32 O43 1.490 . S
P32 C46 1.812 . S
P32 C52 1.803 . S
P32 C58 1.819 . S
H33 C47 0.941 . S
H34 C48 0.939 . S
H35 C50 0.940 . S
H36 C51 0.940 . S
H37 C53 0.939 . S
H38 C54 0.942 . S
H39 C56 0.940 . S
H40 C57 0.939 . S
H41 C59 0.941 . S
H42 C63 0.939 . S
O43 P32 1.490 . S
H44 C60 0.939 . S
H45 C62 0.940 . S
C46 P32 1.812 . S
C46 C47 1.389 . S
C46 C51 1.391 . S
C47 H33 0.941 . S
C47 C46 1.389 . S
C47 C48 1.397 . S
C48 H34 0.939 . S
C48 C47 1.397 . S
C48 C49 1.378 . S
C49 C48 1.378 . S
C49 C50 1.378 . S
C50 H35 0.940 . S
C50 C49 1.378 . S
C50 C51 1.396 . S
C51 H36 0.940 . S
C51 C46 1.391 . S
C51 C50 1.396 . S
C52 P32 1.803 . S
C52 C53 1.378 . S
C52 C57 1.400 . S
C53 H37 0.939 . S
C53 C52 1.378 . S
C53 C54 1.361 . S
C54 H38 0.942 . S
C54 C53 1.361 . S
C54 C55 1.369 . S
C55 C54 1.369 . S
C55 C56 1.404 . S
C56 H39 0.940 . S
C56 C55 1.404 . S
C56 C57 1.389 . S
C57 H40 0.939 . S
C57 C52 1.400 . S
C57 C56 1.389 . S
C58 P32 1.819 . S
C58 C59 1.391 . S
C58 C63 1.391 . S
C59 H41 0.941 . S
C59 C58 1.391 . S
C59 C60 1.396 . S
C60 H44 0.939 . S
C60 C59 1.396 . S
C60 C61 1.397 . S
C61 C60 1.397 . S
C61 C62 1.385 . S
C62 H45 0.940 . S
C62 C61 1.385 . S
C62 C63 1.388 . S
C63 H42 0.939 . S
C63 C58 1.391 . S
C63 C62 1.388 . S
P64 O75 1.490 . S
P64 C78 1.812 1_554 S
P64 C84 1.803 . S
P64 C90 1.819 . S
H65 C79 0.941 . S
H66 C80 0.939 . S
H67 C82 0.940 . S
H68 C83 0.940 1_554 S
H69 C85 0.939 . S
H70 C86 0.942 . S
H71 C88 0.940 1_556 S
H72 C89 0.954 . S
H73 C91 0.941 . S
H74 C95 0.939 . S
O75 P64 1.490 . S
H76 C92 0.939 . S
H77 C94 0.940 . S
C78 P64 1.812 1_556 S
C78 C79 1.389 . S
C78 C83 1.391 . S
C79 H65 0.941 . S
C79 C78 1.389 . S
C79 C80 1.397 . S
C80 H66 0.939 . S
C80 C79 1.397 . S
C80 C81 1.378 . S
C81 C80 1.378 . S
C81 C82 1.378 . S
C82 H67 0.940 . S
C82 C81 1.378 . S
C82 C83 1.396 . S
C83 H68 0.940 1_556 S
C83 C78 1.391 . S
C83 C82 1.396 . S
C84 P64 1.803 . S
C84 C85 1.378 . S
C84 C89 1.400 . S
C85 H69 0.939 . S
C85 C84 1.378 . S
C85 C86 1.361 . S
C86 H70 0.942 . S
C86 C85 1.361 . S
C86 C87 1.369 . S
C87 C86 1.369 . S
C87 C88 1.404 . S
C88 H71 0.940 1_554 S
C88 C87 1.404 . S
C88 C89 1.389 . S
C89 H72 0.954 . S
C89 C84 1.400 . S
C89 C88 1.389 . S
C90 P64 1.819 . S
C90 C91 1.391 . S
C90 C95 1.391 . S
C91 H73 0.941 . S
C91 C90 1.391 . S
C91 C92 1.396 . S
C92 H76 0.939 . S
C92 C91 1.396 . S
C92 C93 1.397 . S
C93 C92 1.397 . S
C93 C94 1.385 . S
C94 H77 0.940 . S
C94 C93 1.385 . S
C94 C95 1.388 . S
C95 H74 0.939 . S
C95 C90 1.391 . S
C95 C94 1.388 . S
P96 O107 1.490 . S
P96 C110 1.812 . S
P96 C116 1.803 . S
P96 C122 1.819 . S
H97 C111 0.941 . S
H98 C112 0.939 . S
H99 C114 0.940 . S
H100 C115 0.940 . S
H101 C117 0.939 . S
H102 C118 0.942 . S
H103 C120 0.940 . S
H104 C121 0.939 . S
H105 C123 0.941 . S
H106 C127 0.939 . S
O107 P96 1.490 . S
H108 C124 0.939 . S
H109 C126 0.940 . S
C110 P96 1.812 . S
C110 C111 1.389 . S
C110 C115 1.391 . S
C111 H97 0.941 . S
C111 C110 1.389 . S
C111 C112 1.397 . S
C112 H98 0.939 . S
C112 C111 1.397 . S
C112 C113 1.378 . S
C113 C112 1.378 . S
C113 C114 1.378 . S
C114 H99 0.940 . S
C114 C113 1.378 . S
C114 C115 1.396 . S
C115 H100 0.940 . S
C115 C110 1.391 . S
C115 C114 1.396 . S
C116 P96 1.803 . S
C116 C117 1.378 . S
C116 C121 1.400 . S
C117 H101 0.939 . S
C117 C116 1.378 . S
C117 C118 1.361 . S
C118 H102 0.942 . S
C118 C117 1.361 . S
C118 C119 1.369 . S
C119 C118 1.369 . S
C119 C120 1.404 . S
C120 H103 0.940 . S
C120 C119 1.404 . S
C120 C121 1.389 . S
C121 H104 0.939 . S
C121 C116 1.400 . S
C121 C120 1.389 . S
C122 P96 1.819 . S
C122 C123 1.391 . S
C122 C127 1.391 . S
C123 H105 0.941 . S
C123 C122 1.391 . S
C123 C124 1.396 . S
C124 H108 0.939 . S
C124 C123 1.396 . S
C124 C125 1.397 . S
C125 C124 1.397 . S
C125 C126 1.385 . S
C126 H109 0.940 . S
C126 C125 1.385 . S
C126 C127 1.388 . S
C127 H106 0.939 . S
C127 C122 1.391 . S
C127 C126 1.388 . S
Tb128 N157 2.617 . S
Tb128 N163 2.572 . S
Tb128 O172 2.465 . S
Tb128 O173 2.387 . S
Tb128 O175 2.428 . S
Tb128 O176 2.308 1_565 S
Tb128 O180 2.348 1_455 S
Tb128 O183 2.393 1_455 S
Tb128 C192 2.802 . S
C129 N130 1.379 . S
C129 C132 1.416 . S
C129 C136 1.424 . S
N130 C129 1.379 . S
N130 C133 1.334 1_655 S
N130 Tb139 2.617 . S
C131 C133 1.390 1_655 S
C131 C134 1.351 . S
C131 H151 0.918 1_655 S
C132 C129 1.416 . S
C132 C134 1.416 . S
C132 C138 1.448 . S
C133 N130 1.334 1_455 S
C133 C131 1.390 1_455 S
C133 H144 0.930 . S
C134 C131 1.351 . S
C134 C132 1.416 . S
C134 H155 0.930 . S
C135 C136 1.413 . S
C135 C137 1.427 . S
C135 C141 1.416 . S
C136 C129 1.424 . S
C136 C135 1.413 . S
C136 N140 1.361 . S
C137 C135 1.427 . S
C137 C138 1.328 . S
C137 H152 0.929 . S
C138 C132 1.448 . S
C138 C137 1.328 . S
C138 H153 0.930 . S
Tb139 N130 2.617 . S
Tb139 N140 2.572 . S
Tb139 O174 2.349 1_655 S
Tb139 O177 2.393 1_655 S
Tb139 O178 2.465 . S
Tb139 O179 2.387 . S
Tb139 O181 2.428 . S
Tb139 O182 2.308 1_545 S
Tb139 C203 2.802 . S
N140 C136 1.361 . S
N140 Tb139 2.572 . S
N140 C142 1.340 . S
C141 C135 1.416 . S
C141 C143 1.332 . S
C141 H149 0.931 . S
C142 N140 1.340 . S
C142 C143 1.407 . S
C142 H148 0.930 . S
C143 C141 1.332 . S
C143 C142 1.407 . S
C143 H145 0.929 . S
H144 C133 0.930 . S
H145 C143 0.929 . S
H146 C161 0.930 1_655 S
H147 C168 0.929 . S
H148 C142 0.930 . S
H149 C141 0.931 . S
H150 C164 0.930 . S
H151 C131 0.918 1_455 S
H152 C137 0.929 . S
H153 C138 0.930 . S
H154 C159 0.930 1_655 S
H155 C134 0.930 . S
H156 C167 0.931 . S
N157 Tb128 2.617 . S
N157 C158 1.379 . S
N157 C161 1.334 . S
C158 N157 1.379 . S
C158 C160 1.416 . S
C158 C166 1.424 . S
C159 H154 0.930 1_455 S
C159 C161 1.390 . S
C159 C162 1.339 . S
C160 C158 1.416 . S
C160 C162 1.416 . S
C160 C193 1.448 . S
C161 H146 0.930 1_455 S
C161 N157 1.334 . S
C161 C159 1.390 . S
C162 C159 1.339 . S
C162 C160 1.416 . S
C162 H169 0.930 . S
N163 Tb128 2.572 . S
N163 C164 1.340 . S
N163 C166 1.361 . S
C164 H150 0.930 . S
C164 N163 1.340 . S
C164 C168 1.407 . S
C165 C166 1.413 . S
C165 C167 1.416 . S
C165 C194 1.427 . S
C166 C158 1.424 . S
C166 N163 1.361 . S
C166 C165 1.413 . S
C167 H156 0.931 . S
C167 C165 1.416 . S
C167 C168 1.332 . S
C168 H147 0.929 . S
C168 C164 1.407 . S
C168 C167 1.332 . S
H169 C162 0.930 . S
H170 C193 0.930 . S
H171 C194 0.929 . S
O172 Tb128 2.465 . S
O172 C192 1.264 . S
O173 Tb128 2.387 . S
O173 C184 1.264 . S
O174 Tb139 2.349 1_455 S
O174 C184 1.243 1_545 S
O175 Tb128 2.428 . S
O175 C192 1.256 . S
O176 Tb128 2.308 1_545 S
O176 C191 1.266 . S
O177 Tb139 2.393 1_455 S
O177 C191 1.248 . S
O178 Tb139 2.465 . S
O178 C203 1.264 . S
O179 Tb139 2.387 . S
O179 C195 1.264 . S
O180 Tb128 2.348 1_655 S
O180 C195 1.246 1_565 S
O181 Tb139 2.428 . S
O181 C203 1.256 . S
O182 Tb139 2.308 1_565 S
O182 C202 1.266 . S
O183 Tb128 2.393 1_655 S
O183 C202 1.248 . S
C184 O173 1.264 . S
C184 O174 1.243 1_565 S
C185 C188 1.399 . S
C185 C190 1.383 . S
C185 C192 1.496 . S
C186 C187 1.399 . S
C186 C190 1.389 . S
C187 C186 1.399 . S
C187 C189 1.380 . S
C187 H204 0.929 . S
C188 C185 1.399 . S
C188 C189 1.392 . S
C188 H205 0.929 . S
C189 C187 1.380 . S
C189 C188 1.392 . S
C189 H206 0.929 . S
C190 C185 1.383 . S
C190 C186 1.389 . S
C190 H207 0.931 . S
C191 O176 1.266 . S
C191 O177 1.248 . S
C192 Tb128 2.802 . S
C192 O172 1.264 . S
C192 O175 1.256 . S
C192 C185 1.496 . S
C193 C160 1.448 . S
C193 H170 0.930 . S
C193 C194 1.328 . S
C194 C165 1.427 . S
C194 H171 0.929 . S
C194 C193 1.328 . S
C195 O179 1.264 . S
C195 O180 1.246 1_545 S
C196 C199 1.399 . S
C196 C200 1.383 . S
C196 C203 1.496 . S
C197 C198 1.399 . S
C197 C200 1.389 . S
C198 C197 1.399 . S
C198 C201 1.380 . S
C198 H208 0.929 . S
C199 C196 1.399 . S
C199 C201 1.392 . S
C199 H209 0.929 . S
C200 C196 1.383 . S
C200 C197 1.389 . S
C200 H210 0.931 . S
C201 C198 1.380 . S
C201 C199 1.392 . S
C201 H211 0.929 . S
C202 O182 1.266 . S
C202 O183 1.248 . S
C203 Tb139 2.802 . S
C203 O178 1.264 . S
C203 O181 1.256 . S
C203 C196 1.496 . S
H204 C187 0.929 . S
H205 C188 0.929 . S
H206 C189 0.929 . S
H207 C190 0.931 . S
H208 C198 0.929 . S
H209 C199 0.929 . S
H210 C200 0.931 . S
H211 C201 0.929 . S
Tb212 N241 2.617 . S
Tb212 N247 2.572 1_556 S
Tb212 O256 2.465 . S
Tb212 O257 2.387 1_556 S
Tb212 O259 2.428 . S
Tb212 O260 2.308 1_556 S
Tb212 O264 2.349 . S
Tb212 O267 2.393 . S
Tb212 C276 2.802 . S
C213 N214 1.379 . S
C213 C216 1.416 . S
C213 C220 1.424 . S
N214 C213 1.379 . S
N214 C217 1.334 . S
N214 Tb223 2.617 . S
C215 C217 1.390 . S
C215 C218 1.339 . S
C215 H235 0.930 . S
C216 C213 1.416 . S
C216 C218 1.416 . S
C216 C222 1.448 . S
C217 N214 1.334 . S
C217 C215 1.390 . S
C217 H228 0.930 . S
C218 C215 1.339 . S
C218 C216 1.416 . S
C218 H239 0.930 . S
C219 C220 1.413 . S
C219 C221 1.427 . S
C219 C225 1.416 . S
C220 C213 1.424 . S
C220 C219 1.413 . S
C220 N224 1.361 . S
C221 C219 1.427 . S
C221 C222 1.328 . S
C221 H236 0.929 . S
C222 C216 1.448 . S
C222 C221 1.328 . S
C222 H237 0.930 . S
Tb223 N214 2.617 . S
Tb223 N224 2.572 . S
Tb223 O258 2.349 . S
Tb223 O261 2.393 . S
Tb223 O262 2.465 . S
Tb223 O263 2.387 1_554 S
Tb223 O265 2.428 . S
Tb223 O266 2.308 . S
Tb223 C287 2.802 . S
N224 C220 1.361 . S
N224 Tb223 2.572 . S
N224 C226 1.340 . S
C225 C219 1.416 . S
C225 C227 1.332 . S
C225 H233 0.931 . S
C226 N224 1.340 . S
C226 C227 1.407 . S
C226 H232 0.930 . S
C227 C225 1.332 . S
C227 C226 1.407 . S
C227 H229 0.929 . S
H228 C217 0.930 . S
H229 C227 0.929 . S
H230 C245 0.930 . S
H231 C252 0.929 . S
H232 C226 0.930 . S
H233 C225 0.931 . S
H234 C248 0.930 . S
H235 C215 0.930 . S
H236 C221 0.929 . S
H237 C222 0.930 . S
H238 C243 0.930 . S
H239 C218 0.930 . S
H240 C251 0.931 . S
N241 Tb212 2.617 . S
N241 C242 1.379 1_556 S
N241 C245 1.334 . S
C242 N241 1.379 1_554 S
C242 C244 1.416 . S
C242 C250 1.424 . S
C243 H238 0.930 . S
C243 C245 1.390 . S
C243 C246 1.339 1_556 S
C244 C242 1.416 . S
C244 C246 1.416 . S
C244 C277 1.448 . S
C245 H230 0.930 . S
C245 N241 1.334 . S
C245 C243 1.390 . S
C246 C243 1.339 1_554 S
C246 C244 1.416 . S
C246 H253 0.930 . S
N247 Tb212 2.572 1_554 S
N247 C248 1.340 . S
N247 C250 1.361 . S
C248 H234 0.930 . S
C248 N247 1.340 . S
C248 C252 1.407 . S
C249 C250 1.413 . S
C249 C251 1.416 . S
C249 C278 1.427 . S
C250 C242 1.424 . S
C250 N247 1.361 . S
C250 C249 1.413 . S
C251 H240 0.931 . S
C251 C249 1.416 . S
C251 C252 1.332 . S
C252 H231 0.929 . S
C252 C248 1.407 . S
C252 C251 1.332 . S
H253 C246 0.930 . S
H254 C277 0.930 . S
H255 C278 0.929 . S
O256 Tb212 2.465 . S
O256 C276 1.264 . S
O257 Tb212 2.387 1_554 S
O257 C268 1.264 . S
O258 Tb223 2.349 . S
O258 C268 1.243 . S
O259 Tb212 2.428 . S
O259 C276 1.256 . S
O260 Tb212 2.308 1_554 S
O260 C275 1.266 . S
O261 Tb223 2.393 . S
O261 C275 1.248 . S
O262 Tb223 2.465 . S
O262 C287 1.264 . S
O263 Tb223 2.387 1_556 S
O263 C279 1.264 . S
O264 Tb212 2.349 . S
O264 C279 1.243 . S
O265 Tb223 2.428 . S
O265 C287 1.256 . S
O266 Tb223 2.308 . S
O266 C286 1.266 . S
O267 Tb212 2.393 . S
O267 C286 1.248 1_556 S
C268 O257 1.264 . S
C268 O258 1.243 . S
C269 C272 1.399 . S
C269 C274 1.383 . S
C269 C276 1.496 . S
C270 C271 1.399 . S
C270 C274 1.389 . S
C271 C270 1.399 . S
C271 C273 1.380 . S
C271 H288 0.929 . S
C272 C269 1.399 . S
C272 C273 1.392 . S
C272 H289 0.929 . S
C273 C271 1.380 . S
C273 C272 1.392 . S
C273 H290 0.929 . S
C274 C269 1.383 . S
C274 C270 1.389 . S
C274 H291 0.931 . S
C275 O260 1.266 . S
C275 O261 1.248 . S
C276 Tb212 2.802 . S
C276 O256 1.264 . S
C276 O259 1.256 . S
C276 C269 1.496 . S
C277 C244 1.448 . S
C277 H254 0.930 . S
C277 C278 1.328 . S
C278 C249 1.427 . S
C278 H255 0.929 . S
C278 C277 1.328 . S
C279 O263 1.264 . S
C279 O264 1.243 . S
C280 C283 1.399 . S
C280 C284 1.383 . S
C280 C287 1.496 . S
C281 C282 1.399 . S
C281 C284 1.389 . S
C282 C281 1.399 . S
C282 C285 1.380 . S
C282 H292 0.929 . S
C283 C280 1.399 . S
C283 C285 1.392 . S
C283 H293 0.929 . S
C284 C280 1.383 . S
C284 C281 1.389 . S
C284 H294 0.931 . S
C285 C282 1.380 . S
C285 C283 1.392 . S
C285 H295 0.929 . S
C286 O266 1.266 . S
C286 O267 1.248 1_554 S
C287 Tb223 2.802 . S
C287 O262 1.264 . S
C287 O265 1.256 . S
C287 C280 1.496 . S
H288 C271 0.929 . S
H289 C272 0.929 . S
H290 C273 0.929 . S
H291 C274 0.931 . S
H292 C282 0.929 . S
H293 C283 0.929 . S
H294 C284 0.931 . S
H295 C285 0.929 . S
C296 C297 1.349 . S
C296 C298 1.327 . S
C296 H321 0.950 . S
C297 C296 1.349 . S
C297 C313 1.349 . S
C298 C296 1.327 . S
C298 C317 1.429 . S
C298 H322 0.950 . S
C299 C316 1.574 . S
C299 C318 1.368 . S
C299 H323 0.949 . S
H300 C304 0.949 . S
C301 C302 1.349 . S
C301 C303 1.327 . S
C301 H324 0.950 . S
C302 C301 1.349 . S
C302 C314 1.349 . S
C303 C301 1.327 . S
C303 C319 1.429 . S
C303 H325 0.950 . S
C304 H300 0.949 . S
C304 C312 1.574 . S
C304 C320 1.368 . S
H305 C313 0.950 . S
H306 C311 0.950 . S
H307 C312 0.949 . S
H308 C314 0.950 . S
H309 C315 0.950 . S
H310 C316 0.949 . S
C311 H306 0.950 . S
C311 C313 1.327 . S
C311 C317 1.429 . S
C312 C304 1.574 . S
C312 H307 0.949 . S
C312 C318 1.368 . S
C313 C297 1.349 . S
C313 H305 0.950 . S
C313 C311 1.327 . S
C314 C302 1.349 . S
C314 H308 0.950 . S
C314 C315 1.327 . S
C315 H309 0.950 . S
C315 C314 1.327 . S
C315 C319 1.429 . S
C316 C299 1.574 . S
C316 H310 0.949 . S
C316 C320 1.368 . S
C317 C298 1.429 . S
C317 C311 1.429 . S
C317 C318 1.523 . S
C318 C299 1.368 . S
C318 C312 1.368 . S
C318 C317 1.523 . S
C319 C303 1.429 . S
C319 C315 1.429 . S
C319 C320 1.523 . S
C320 C304 1.368 . S
C320 C316 1.368 . S
C320 C319 1.523 . S
H321 C296 0.950 . S
H322 C298 0.950 . S
H323 C299 0.949 . S
H324 C301 0.950 . S
H325 C303 0.950 . S
C326 C327 1.349 . S
C326 C328 1.327 . S
C326 H351 0.950 1_554 S
C327 C326 1.349 . S
C327 C343 1.349 . S
C328 C326 1.327 . S
C328 C347 1.429 . S
C328 H352 0.950 1_554 S
C329 C346 1.574 . S
C329 C348 1.368 . S
C329 H353 0.949 . S
H330 C334 0.949 1_556 S
C331 C332 1.349 . S
C331 C333 1.327 . S
C331 H354 0.950 . S
C332 C331 1.349 . S
C332 C344 1.349 . S
C333 C331 1.327 . S
C333 C349 1.429 . S
C333 H355 0.950 . S
C334 H330 0.949 1_554 S
C334 C342 1.574 . S
C334 C350 1.368 . S
H335 C343 0.950 . S
H336 C341 0.950 . S
H337 C342 0.949 1_556 S
H338 C344 0.950 1_556 S
H339 C345 0.950 1_556 S
H340 C346 0.949 . S
C341 H336 0.950 . S
C341 C343 1.327 . S
C341 C347 1.429 . S
C342 C334 1.574 . S
C342 H337 0.949 1_554 S
C342 C348 1.368 . S
C343 C327 1.349 . S
C343 H335 0.950 . S
C343 C341 1.327 . S
C344 C332 1.349 . S
C344 H338 0.950 1_554 S
C344 C345 1.327 . S
C345 H339 0.950 1_554 S
C345 C344 1.327 . S
C345 C349 1.429 . S
C346 C329 1.574 . S
C346 H340 0.949 . S
C346 C350 1.368 . S
C347 C328 1.429 . S
C347 C341 1.429 . S
C347 C348 1.523 . S
C348 C329 1.368 . S
C348 C342 1.368 . S
C348 C347 1.523 . S
C349 C333 1.429 . S
C349 C345 1.429 . S
C349 C350 1.523 . S
C350 C334 1.368 . S
C350 C346 1.368 . S
C350 C349 1.523 . S
H351 C326 0.950 1_556 S
H352 C328 0.950 1_556 S
H353 C329 0.949 . S
H354 C331 0.950 . S
H355 C333 0.950 . S
C356 C357 1.349 . S
C356 C358 1.327 . S
C356 H381 0.950 . S
C357 C356 1.349 . S
C357 C373 1.349 . S
C358 C356 1.327 . S
C358 C377 1.429 . S
C358 H382 0.950 . S
C359 C376 1.574 . S
C359 C378 1.368 . S
C359 H383 0.949 . S
H360 C364 0.949 . S
C361 C362 1.349 . S
C361 C363 1.327 . S
C361 H384 0.950 . S
C362 C361 1.349 . S
C362 C374 1.349 . S
C363 C361 1.327 . S
C363 C379 1.429 . S
C363 H385 0.950 . S
C364 H360 0.949 . S
C364 C372 1.574 . S
C364 C380 1.368 . S
H365 C373 0.950 . S
H366 C371 0.950 . S
H367 C372 0.949 . S
H368 C374 0.950 . S
H369 C375 0.950 . S
H370 C376 0.949 . S
C371 H366 0.950 . S
C371 C373 1.327 . S
C371 C377 1.429 . S
C372 C364 1.574 . S
C372 H367 0.949 . S
C372 C378 1.368 . S
C373 C357 1.349 . S
C373 H365 0.950 . S
C373 C371 1.327 . S
C374 C362 1.349 . S
C374 H368 0.950 . S
C374 C375 1.327 . S
C375 H369 0.950 . S
C375 C374 1.327 . S
C375 C379 1.429 . S
C376 C359 1.574 . S
C376 H370 0.949 . S
C376 C380 1.368 . S
C377 C358 1.429 . S
C377 C371 1.429 . S
C377 C378 1.523 . S
C378 C359 1.368 . S
C378 C372 1.368 . S
C378 C377 1.523 . S
C379 C363 1.429 . S
C379 C375 1.429 . S
C379 C380 1.523 . S
C380 C364 1.368 . S
C380 C376 1.368 . S
C380 C379 1.523 . S
H381 C356 0.950 . S
H382 C358 0.950 . S
H383 C359 0.949 . S
H384 C361 0.950 . S
H385 C363 0.950 . S
C386 C387 1.349 1_556 S
C386 C388 1.327 . S
C386 H411 0.950 . S
C387 C386 1.349 1_554 S
C387 C403 1.349 . S
C388 C386 1.327 . S
C388 C407 1.429 1_556 S
C388 H412 0.950 . S
C389 C406 1.574 . S
C389 C408 1.368 . S
C389 H413 0.949 . S
H390 C394 0.949 . S
C391 C392 1.349 . S
C391 C393 1.327 . S
C391 H414 0.950 . S
C392 C391 1.349 . S
C392 C404 1.349 1_554 S
C393 C391 1.327 . S
C393 C409 1.429 . S
C393 H415 0.950 . S
C394 H390 0.949 . S
C394 C402 1.574 . S
C394 C410 1.368 1_556 S
H395 C403 0.950 . S
H396 C401 0.950 . S
H397 C402 0.949 . S
H398 C404 0.950 . S
H399 C405 0.950 . S
H400 C406 0.949 . S
C401 H396 0.950 . S
C401 C403 1.327 . S
C401 C407 1.429 . S
C402 C394 1.574 . S
C402 H397 0.949 . S
C402 C408 1.368 1_556 S
C403 C387 1.349 . S
C403 H395 0.950 . S
C403 C401 1.327 . S
C404 C392 1.349 1_556 S
C404 H398 0.950 . S
C404 C405 1.327 . S
C405 H399 0.950 . S
C405 C404 1.327 . S
C405 C409 1.429 1_556 S
C406 C389 1.574 . S
C406 H400 0.949 . S
C406 C410 1.368 . S
C407 C388 1.429 1_554 S
C407 C401 1.429 . S
C407 C408 1.523 . S
C408 C389 1.368 . S
C408 C402 1.368 1_554 S
C408 C407 1.523 . S
C409 C393 1.429 . S
C409 C405 1.429 1_554 S
C409 C410 1.523 . S
C410 C394 1.368 1_554 S
C410 C406 1.368 . S
C410 C409 1.523 . S
H411 C386 0.950 . S
H412 C388 0.950 . S
H413 C389 0.949 . S
H414 C391 0.950 . S
H415 C393 0.950 . S
C416 C417 1.349 . S
C416 C418 1.327 . S
C416 H441 0.950 . S
C417 C416 1.349 . S
C417 C433 1.349 . S
C418 C416 1.327 . S
C418 C437 1.429 . S
C418 H442 0.950 . S
C419 C436 1.574 . S
C419 C438 1.368 . S
C419 H443 0.949 . S
H420 C424 0.949 . S
C421 C422 1.349 . S
C421 C423 1.327 . S
C421 H444 0.950 1_565 S
C422 C421 1.349 . S
C422 C434 1.349 . S
C423 C421 1.327 . S
C423 C439 1.429 . S
C423 H445 0.950 . S
C424 H420 0.949 . S
C424 C432 1.574 . S
C424 C440 1.368 . S
H425 C433 0.950 . S
H426 C431 0.950 . S
H427 C432 0.949 . S
H428 C434 0.950 . S
H429 C435 0.950 . S
H430 C436 0.949 . S
C431 H426 0.950 . S
C431 C433 1.327 . S
C431 C437 1.429 . S
C432 C424 1.574 . S
C432 H427 0.949 . S
C432 C438 1.368 . S
C433 C417 1.349 . S
C433 H425 0.950 . S
C433 C431 1.327 . S
C434 C422 1.349 . S
C434 H428 0.950 . S
C434 C435 1.327 . S
C435 H429 0.950 . S
C435 C434 1.327 . S
C435 C439 1.429 . S
C436 C419 1.574 . S
C436 H430 0.949 . S
C436 C440 1.368 . S
C437 C418 1.429 . S
C437 C431 1.429 . S
C437 C438 1.523 . S
C438 C419 1.368 . S
C438 C432 1.368 . S
C438 C437 1.523 . S
C439 C423 1.429 . S
C439 C435 1.429 . S
C439 C440 1.523 . S
C440 C424 1.368 . S
C440 C436 1.368 . S
C440 C439 1.523 . S
H441 C416 0.950 . S
H442 C418 0.950 . S
H443 C419 0.949 . S
H444 C421 0.950 1_545 S
H445 C423 0.950 . S
C446 C447 1.349 . S
C446 C448 1.327 . S
C446 H471 0.950 . S
C447 C446 1.349 . S
C447 C463 1.349 . S
C448 C446 1.327 . S
C448 C467 1.429 . S
C448 H472 0.950 . S
C449 C466 1.574 . S
C449 C468 1.368 . S
C449 H473 0.949 . S
H450 C454 0.949 . S
C451 C452 1.349 . S
C451 C453 1.327 . S
C451 H474 0.950 . S
C452 C451 1.349 . S
C452 C464 1.349 . S
C453 C451 1.327 . S
C453 C469 1.429 . S
C453 H475 0.950 . S
C454 H450 0.949 . S
C454 C462 1.574 . S
C454 C470 1.368 . S
H455 C463 0.950 . S
H456 C461 0.950 . S
H457 C462 0.949 . S
H458 C464 0.950 . S
H459 C465 0.950 . S
H460 C466 0.949 . S
C461 H456 0.950 . S
C461 C463 1.327 . S
C461 C467 1.429 . S
C462 C454 1.574 . S
C462 H457 0.949 . S
C462 C468 1.368 . S
C463 C447 1.349 . S
C463 H455 0.950 . S
C463 C461 1.327 . S
C464 C452 1.349 . S
C464 H458 0.950 . S
C464 C465 1.327 . S
C465 H459 0.950 . S
C465 C464 1.327 . S
C465 C469 1.429 . S
C466 C449 1.574 . S
C466 H460 0.949 . S
C466 C470 1.368 . S
C467 C448 1.429 . S
C467 C461 1.429 . S
C467 C468 1.523 . S
C468 C449 1.368 . S
C468 C462 1.368 . S
C468 C467 1.523 . S
C469 C453 1.429 . S
C469 C465 1.429 . S
C469 C470 1.523 . S
C470 C454 1.368 . S
C470 C466 1.368 . S
C470 C469 1.523 . S
H471 C446 0.950 . S
H472 C448 0.950 . S
H473 C449 0.949 . S
H474 C451 0.950 . S
H475 C453 0.950 . S
C476 C477 1.349 . S
C476 C478 1.327 . S
C476 H501 0.950 . S
C477 C476 1.349 . S
C477 C493 1.349 . S
C478 C476 1.327 . S
C478 C497 1.429 . S
C478 H502 0.950 . S
C479 C496 1.574 . S
C479 C498 1.368 . S
C479 H503 0.949 . S
H480 C484 0.949 . S
C481 C482 1.349 . S
C481 C483 1.327 . S
C481 H504 0.950 . S
C482 C481 1.349 . S
C482 C494 1.349 . S
C483 C481 1.327 . S
C483 C499 1.429 . S
C483 H505 0.950 . S
C484 H480 0.949 . S
C484 C492 1.574 . S
C484 C500 1.368 . S
H485 C493 0.950 . S
H486 C491 0.950 . S
H487 C492 0.949 . S
H488 C494 0.950 . S
H489 C495 0.950 . S
H490 C496 0.949 . S
C491 H486 0.950 . S
C491 C493 1.327 . S
C491 C497 1.429 . S
C492 C484 1.574 . S
C492 H487 0.949 . S
C492 C498 1.368 . S
C493 C477 1.349 . S
C493 H485 0.950 . S
C493 C491 1.327 . S
C494 C482 1.349 . S
C494 H488 0.950 . S
C494 C495 1.327 . S
C495 H489 0.950 . S
C495 C494 1.327 . S
C495 C499 1.429 . S
C496 C479 1.574 . S
C496 H490 0.949 . S
C496 C500 1.368 . S
C497 C478 1.429 . S
C497 C491 1.429 . S
C497 C498 1.523 . S
C498 C479 1.368 . S
C498 C492 1.368 . S
C498 C497 1.523 . S
C499 C483 1.429 . S
C499 C495 1.429 . S
C499 C500 1.523 . S
C500 C484 1.368 . S
C500 C496 1.368 . S
C500 C499 1.523 . S
H501 C476 0.950 . S
H502 C478 0.950 . S
H503 C479 0.949 . S
H504 C481 0.950 . S
H505 C483 0.950 . S
C506 C507 1.349 . S
C506 C508 1.327 . S
C506 H531 0.950 . S
C507 C506 1.349 . S
C507 C523 1.349 . S
C508 C506 1.327 . S
C508 C527 1.429 . S
C508 H532 0.950 . S
C509 C526 1.574 . S
C509 C528 1.368 . S
C509 H533 0.949 . S
H510 C514 0.949 . S
C511 C512 1.349 . S
C511 C513 1.327 . S
C511 H534 0.950 . S
C512 C511 1.349 . S
C512 C524 1.349 . S
C513 C511 1.327 . S
C513 C529 1.429 . S
C513 H535 0.950 . S
C514 H510 0.949 . S
C514 C522 1.574 . S
C514 C530 1.368 . S
H515 C523 0.950 . S
H516 C521 0.950 . S
H517 C522 0.949 . S
H518 C524 0.950 . S
H519 C525 0.950 . S
H520 C526 0.949 . S
C521 H516 0.950 . S
C521 C523 1.327 . S
C521 C527 1.429 . S
C522 C514 1.574 . S
C522 H517 0.949 . S
C522 C528 1.368 . S
C523 C507 1.349 . S
C523 H515 0.950 . S
C523 C521 1.327 . S
C524 C512 1.349 . S
C524 H518 0.950 . S
C524 C525 1.327 . S
C525 H519 0.950 . S
C525 C524 1.327 . S
C525 C529 1.429 . S
C526 C509 1.574 . S
C526 H520 0.949 . S
C526 C530 1.368 . S
C527 C508 1.429 . S
C527 C521 1.429 . S
C527 C528 1.523 . S
C528 C509 1.368 . S
C528 C522 1.368 . S
C528 C527 1.523 . S
C529 C513 1.429 . S
C529 C525 1.429 . S
C529 C530 1.523 . S
C530 C514 1.368 . S
C530 C526 1.368 . S
C530 C529 1.523 . S
H531 C506 0.950 . S
H532 C508 0.950 . S
H533 C509 0.949 . S
H534 C511 0.950 . S
H535 C513 0.950 . S
C536 C537 1.349 . S
C536 C538 1.327 . S
C536 H561 0.950 . S
C537 C536 1.349 . S
C537 C553 1.349 . S
C538 C536 1.327 . S
C538 C557 1.429 . S
C538 H562 0.950 . S
C539 C556 1.574 . S
C539 C558 1.368 . S
C539 H563 0.949 . S
H540 C544 0.949 . S
C541 C542 1.349 . S
C541 C543 1.327 . S
C541 H564 0.950 . S
C542 C541 1.349 . S
C542 C554 1.349 . S
C543 C541 1.327 . S
C543 C559 1.429 . S
C543 H565 0.950 . S
C544 H540 0.949 . S
C544 C552 1.574 . S
C544 C560 1.368 . S
H545 C553 0.950 . S
H546 C551 0.950 . S
H547 C552 0.949 . S
H548 C554 0.950 . S
H549 C555 0.950 . S
H550 C556 0.949 . S
C551 H546 0.950 . S
C551 C553 1.327 . S
C551 C557 1.429 . S
C552 C544 1.574 . S
C552 H547 0.949 . S
C552 C558 1.368 . S
C553 C537 1.349 . S
C553 H545 0.950 . S
C553 C551 1.327 . S
C554 C542 1.349 . S
C554 H548 0.950 . S
C554 C555 1.327 . S
C555 H549 0.950 . S
C555 C554 1.327 . S
C555 C559 1.429 . S
C556 C539 1.574 . S
C556 H550 0.949 . S
C556 C560 1.368 . S
C557 C538 1.429 . S
C557 C551 1.429 . S
C557 C558 1.523 . S
C558 C539 1.368 . S
C558 C552 1.368 . S
C558 C557 1.523 . S
C559 C543 1.429 . S
C559 C555 1.429 . S
C559 C560 1.523 . S
C560 C544 1.368 . S
C560 C556 1.368 . S
C560 C559 1.523 . S
H561 C536 0.950 . S
H562 C538 0.950 . S
H563 C539 0.949 . S
H564 C541 0.950 . S
H565 C543 0.950 . S
C566 C567 1.349 . S
C566 C568 1.327 . S
C566 H591 0.950 . S
C567 C566 1.349 . S
C567 C583 1.349 . S
C568 C566 1.327 . S
C568 C587 1.429 . S
C568 H592 0.950 . S
C569 C586 1.574 . S
C569 C588 1.368 . S
C569 H593 0.949 . S
H570 C574 0.949 . S
C571 C572 1.349 . S
C571 C573 1.327 . S
C571 H594 0.950 . S
C572 C571 1.349 . S
C572 C584 1.349 . S
C573 C571 1.327 . S
C573 C589 1.429 . S
C573 H595 0.950 . S
C574 H570 0.949 . S
C574 C582 1.574 . S
C574 C590 1.368 . S
H575 C583 0.950 . S
H576 C581 0.950 . S
H577 C582 0.949 . S
H578 C584 0.950 . S
H579 C585 0.950 . S
H580 C586 0.949 . S
C581 H576 0.950 . S
C581 C583 1.327 . S
C581 C587 1.429 . S
C582 C574 1.574 . S
C582 H577 0.949 . S
C582 C588 1.368 . S
C583 C567 1.349 . S
C583 H575 0.950 . S
C583 C581 1.327 . S
C584 C572 1.349 . S
C584 H578 0.950 . S
C584 C585 1.327 . S
C585 H579 0.950 . S
C585 C584 1.327 . S
C585 C589 1.429 . S
C586 C569 1.574 . S
C586 H580 0.949 . S
C586 C590 1.368 . S
C587 C568 1.429 . S
C587 C581 1.429 . S
C587 C588 1.523 . S
C588 C569 1.368 . S
C588 C582 1.368 . S
C588 C587 1.523 . S
C589 C573 1.429 . S
C589 C585 1.429 . S
C589 C590 1.523 . S
C590 C574 1.368 . S
C590 C586 1.368 . S
C590 C589 1.523 . S
H591 C566 0.950 . S
H592 C568 0.950 . S
H593 C569 0.949 . S
H594 C571 0.950 . S
H595 C573 0.950 . S
C596 C597 1.349 . S
C596 C598 1.327 . S
C596 H621 0.950 . S
C597 C596 1.349 . S
C597 C613 1.349 . S
C598 C596 1.327 . S
C598 C617 1.429 . S
C598 H622 0.950 . S
C599 C616 1.574 . S
C599 C618 1.368 . S
C599 H623 0.949 . S
H600 C604 0.949 . S
C601 C602 1.349 . S
C601 C603 1.327 . S
C601 H624 0.950 . S
C602 C601 1.349 . S
C602 C614 1.349 . S
C603 C601 1.327 . S
C603 C619 1.429 . S
C603 H625 0.950 . S
C604 H600 0.949 . S
C604 C612 1.574 . S
C604 C620 1.368 . S
H605 C613 0.950 . S
H606 C611 0.950 . S
H607 C612 0.949 . S
H608 C614 0.950 . S
H609 C615 0.950 . S
H610 C616 0.949 . S
C611 H606 0.950 . S
C611 C613 1.327 . S
C611 C617 1.429 . S
C612 C604 1.574 . S
C612 H607 0.949 . S
C612 C618 1.368 . S
C613 C597 1.349 . S
C613 H605 0.950 . S
C613 C611 1.327 . S
C614 C602 1.349 . S
C614 H608 0.950 . S
C614 C615 1.327 . S
C615 H609 0.950 . S
C615 C614 1.327 . S
C615 C619 1.429 . S
C616 C599 1.574 . S
C616 H610 0.949 . S
C616 C620 1.368 . S
C617 C598 1.429 . S
C617 C611 1.429 . S
C617 C618 1.523 . S
C618 C599 1.368 . S
C618 C612 1.368 . S
C618 C617 1.523 . S
C619 C603 1.429 . S
C619 C615 1.429 . S
C619 C620 1.523 . S
C620 C604 1.368 . S
C620 C616 1.368 . S
C620 C619 1.523 . S
H621 C596 0.950 . S
H622 C598 0.950 . S
H623 C599 0.949 . S
H624 C601 0.950 . S
H625 C603 0.950 . S
C626 C627 1.349 . S
C626 C628 1.327 . S
C626 H651 0.950 . S
C627 C626 1.349 . S
C627 C643 1.349 . S
C628 C626 1.327 . S
C628 C647 1.429 . S
C628 H652 0.950 . S
C629 C646 1.574 . S
C629 C648 1.368 . S
C629 H653 0.949 . S
H630 C634 0.949 . S
C631 C632 1.349 . S
C631 C633 1.327 . S
C631 H654 0.950 . S
C632 C631 1.349 . S
C632 C644 1.349 . S
C633 C631 1.327 . S
C633 C649 1.429 . S
C633 H655 0.950 . S
C634 H630 0.949 . S
C634 C642 1.574 . S
C634 C650 1.368 . S
H635 C643 0.950 . S
H636 C641 0.950 . S
H637 C642 0.949 . S
H638 C644 0.950 1_545 S
H639 C645 0.950 . S
H640 C646 0.949 . S
C641 H636 0.950 . S
C641 C643 1.327 . S
C641 C647 1.429 . S
C642 C634 1.574 . S
C642 H637 0.949 . S
C642 C648 1.368 . S
C643 C627 1.349 . S
C643 H635 0.950 . S
C643 C641 1.327 . S
C644 C632 1.349 . S
C644 H638 0.950 1_565 S
C644 C645 1.327 . S
C645 H639 0.950 . S
C645 C644 1.327 . S
C645 C649 1.429 . S
C646 C629 1.574 . S
C646 H640 0.949 . S
C646 C650 1.368 . S
C647 C628 1.429 . S
C647 C641 1.429 . S
C647 C648 1.523 . S
C648 C629 1.368 . S
C648 C642 1.368 . S
C648 C647 1.523 . S
C649 C633 1.429 . S
C649 C645 1.429 . S
C649 C650 1.523 . S
C650 C634 1.368 . S
C650 C646 1.368 . S
C650 C649 1.523 . S
H651 C626 0.950 . S
H652 C628 0.950 . S
H653 C629 0.949 . S
H654 C631 0.950 . S
H655 C633 0.950 . S
C302 C191 1.613 . S
C297 C119 1.615 . S
C327 C23 1.605 . S
C332 C286 1.587 . S
C357 C55 1.567 . S
C362 C202 1.613 . S
C387 C87 1.539 . S
C392 C275 1.588 . S
C422 C186 1.400 . S
C417 C17 1.549 . S
C452 C279 1.605 . S
C447 C61 1.542 . S
C477 C93 1.502 . S
C482 C195 1.587 . S
C507 C113 1.530 . S
C512 C270 1.399 . S
C542 C281 1.399 . S
C537 C49 1.500 . S
C572 C197 1.400 . S
C567 C81 1.508 . S
C602 C268 1.605 . S
C597 C125 1.594 . S
C627 C29 1.578 . S
C632 C184 1.587 . S
