# Generated by pormake.
# Topology sit, (3,6)-cn, num edge types: 1
# Building blocks:
#     Node 0, Type 0, BuildingBlock: QEWDON_clean_linker_0, # of connection points: 3
#     Node 1, Type 0, BuildingBlock: QEWDON_clean_linker_0, # of connection points: 3
#     Node 2, Type 0, BuildingBlock: QEWDON_clean_linker_0, # of connection points: 3
#     Node 3, Type 0, BuildingBlock: QEWDON_clean_linker_0, # of connection points: 3
#     Node 4, Type 1, BuildingBlock: MIDCAF_clean_sbu_0, # of connection points: 6
#     Node 5, Type 1, BuildingBlock: MIDCAF_clean_sbu_0, # of connection points: 6
#     Edge 6, Type (0, 1), BuildingBlock: XUDNAN_clean_linker_2, # of connection points: 2
#     Edge 7, Type (0, 1), BuildingBlock: XUDNAN_clean_linker_2, # of connection points: 2
#     Edge 8, Type (0, 1), BuildingBlock: XUDNAN_clean_linker_2, # of connection points: 2
#     Edge 9, Type (0, 1), BuildingBlock: XUDNAN_clean_linker_2, # of connection points: 2
#     Edge 10, Type (0, 1), BuildingBlock: XUDNAN_clean_linker_2, # of connection points: 2
#     Edge 11, Type (0, 1), BuildingBlock: XUDNAN_clean_linker_2, # of connection points: 2
#     Edge 12, Type (0, 1), BuildingBlock: XUDNAN_clean_linker_2, # of connection points: 2
#     Edge 13, Type (0, 1), BuildingBlock: XUDNAN_clean_linker_2, # of connection points: 2
#     Edge 14, Type (0, 1), BuildingBlock: XUDNAN_clean_linker_2, # of connection points: 2
#     Edge 15, Type (0, 1), BuildingBlock: XUDNAN_clean_linker_2, # of connection points: 2
#     Edge 16, Type (0, 1), BuildingBlock: XUDNAN_clean_linker_2, # of connection points: 2
#     Edge 17, Type (0, 1), BuildingBlock: XUDNAN_clean_linker_2, # of connection points: 2
# Relax obj value: 0.077
# Max RMSD: 0.184
# Mean RMSD: 0.150
data_MOF--net-sit--node1-MIDCAF_clean_sbu_0--node2-QEWDON_clean_linker_0--edge1-XUDNAN_clean_linker_2
_symmetry_space_group_name_H-M    P1
_symmetry_Int_Tables_number       1
_symmetry_cell_setting            triclinic
loop_
_symmetry_equiv_pos_as_xyz
'x, y, z'
_cell_length_a     21.731073
_cell_length_b     33.286292
_cell_length_c     39.30766
_cell_angle_alpha  89.078253
_cell_angle_beta   84.573705
_cell_angle_gamma 82.931318
loop_
_atom_site_label
_atom_site_type_symbol
_atom_site_fract_x
_atom_site_fract_y
_atom_site_fract_z
_atom_type_partial_charge
H0 H 0.16149 0.32495 0.0299 0.0
C1 C 0.12093 0.34662 0.02663 0.0
C2 C 0.12742 0.38795 0.02307 0.0
C3 C 0.06322 0.33297 0.02303 0.0
H4 H 0.08159 0.44737 0.01386 0.0
C5 C 0.07569 0.4156 0.0171 0.0
C6 C 0.01921 0.40228 0.01071 0.0
C7 C 0.01283 0.36081 0.01449 0.0
C8 C 0.05826 0.28907 0.02286 0.0
H9 H -0.02991 0.34969 0.00888 0.0
C10 C 0.06214 0.26572 0.05291 0.0
C11 C 0.05817 0.22376 0.05222 0.0
C12 C 0.05035 0.27029 0.99214 0.0
H13 H 0.04733 0.2878 0.96874 0.0
C14 C 0.04719 0.22871 0.99126 0.0
H15 H 0.06809 0.28017 0.0767 0.0
C16 C 0.05124 0.2055 0.02104 0.0
H17 H 0.04769 0.17338 0.01984 0.0
H18 H 0.04136 0.21443 0.96742 0.0
H19 H 0.06211 0.74313 0.08137 0.0
C20 C 0.03171 0.73265 0.06399 0.0
C21 C 0.05755 0.71137 0.03437 0.0
C22 C -0.03363 0.74091 0.07067 0.0
H23 H 0.03759 0.68099 0.98937 0.0
C24 C 0.01798 0.69793 0.01204 0.0
C25 C 0.95355 0.7067 0.01785 0.0
C26 C 0.92769 0.72765 0.04738 0.0
C27 C 0.93744 0.76472 0.10096 0.0
H28 H 0.87757 0.73516 0.05139 0.0
C29 C -0.04086 0.80106 0.10974 0.0
C30 C 0.92676 0.82549 0.13616 0.0
C31 C 0.88468 0.75243 0.11988 0.0
H32 H 0.86743 0.72441 0.11399 0.0
C33 C 0.85325 0.77629 0.1464 0.0
H34 H -0.00059 0.81116 0.09526 0.0
C35 C 0.87373 0.81277 0.15433 0.0
H36 H 0.8486 0.83086 0.17504 0.0
H37 H 0.8126 0.76659 0.16072 0.0
H38 H 0.65272 0.82606 0.53188 0.0
C39 C 0.61311 0.84821 0.52782 0.0
C40 C 0.62134 0.88925 0.52381 0.0
C41 C 0.55506 0.83538 0.52365 0.0
H42 H 0.57811 0.94903 0.51332 0.0
C43 C 0.57089 0.91752 0.51684 0.0
C44 C 0.51399 0.90501 0.51014 0.0
C45 C 0.50602 0.86379 0.51429 0.0
C46 C 0.54838 0.79166 0.52385 0.0
H47 H 0.46303 0.85323 0.50841 0.0
C48 C 0.55383 0.76816 0.55375 0.0
C49 C 0.54807 0.72641 0.55334 0.0
C50 C 0.53709 0.77319 0.49357 0.0
H51 H 0.53286 0.79075 0.47027 0.0
C52 C 0.53213 0.73182 0.49296 0.0
H53 H 0.56235 0.78233 0.57722 0.0
C54 C 0.53772 0.7085 0.52258 0.0
H55 H 0.53275 0.67656 0.52162 0.0
H56 H 0.5237 0.71779 0.46946 0.0
H57 H 0.55881 0.23546 0.5806 0.0
C58 C 0.52382 0.22776 0.56476 0.0
C59 C 0.54211 0.20555 0.53456 0.0
C60 C 0.46016 0.24052 0.5742 0.0
H61 H 0.50937 0.17823 0.49126 0.0
C62 C 0.49627 0.19581 0.51439 0.0
C63 C 0.43354 0.20928 0.52288 0.0
C64 C 0.41522 0.23111 0.55297 0.0
C65 C 0.44001 0.26445 0.60569 0.0
H66 H 0.36642 0.24207 0.55912 0.0
C67 C 0.46934 0.29825 0.61331 0.0
C68 C 0.44859 0.32161 0.64276 0.0
C69 C 0.38977 0.25407 0.62785 0.0
H70 H 0.36663 0.2281 0.62267 0.0
C71 C 0.36932 0.2768 0.65711 0.0
H72 H 0.50721 0.30687 0.59589 0.0
C73 C 0.39843 0.31023 0.66461 0.0
H74 H 0.38229 0.32665 0.68796 0.0
H75 H 0.33095 0.26832 0.67419 0.0
Zn76 Zn 0.02037 0.14047 0.34989 0.0
Zn77 Zn 0.07487 0.98632 0.35531 0.0
Zn78 Zn 0.04718 0.06262 0.35549 0.0
C79 C 0.06307 1.00282 0.2889 0.0
C80 C -0.03747 1.00107 0.3951 0.0
O81 O 0.12513 0.08992 0.37389 0.0
O82 O 0.09934 0.15529 0.36433 0.0
C83 C 0.02377 0.11438 0.28458 0.0
O84 O 0.04402 1.03746 0.3031 0.0
O85 O 0.08794 0.97419 0.30629 0.0
O86 O -0.00328 0.97237 0.3797 0.0
O87 O -0.02529 1.03784 0.39048 0.0
O88 O 0.00858 0.14657 0.30139 0.0
O89 O 0.03915 0.08074 0.30032 0.0
O90 O -0.03684 0.08105 0.39121 0.0
O91 O 0.94663 0.14741 0.38316 0.0
C92 C 0.93208 0.11588 0.39847 0.0
O93 O 0.13791 0.04817 0.37739 0.0
O94 O 0.14654 0.98151 0.3825 0.0
C95 C 0.13691 0.12685 0.37475 0.0
C96 C 0.16648 1.01464 0.38772 0.0
Zn97 Zn 0.53554 0.64248 0.84978 0.0
Zn98 Zn 0.5758 0.49069 0.85861 0.0
Zn99 Zn 0.55396 0.56465 0.8561 0.0
C100 C 0.57977 0.50436 0.7913 0.0
C101 C 0.46078 0.50661 0.89267 0.0
O102 O 0.6346 0.58955 0.87379 0.0
O103 O 0.61821 0.65475 0.86089 0.0
C104 C 0.52915 0.6157 0.78527 0.0
O105 O 0.5543 0.53875 0.80378 0.0
O106 O 0.60368 0.47749 0.81064 0.0
O107 O 0.49241 0.4779 0.87597 0.0
O108 O 0.478 0.54238 0.89058 0.0
O109 O 0.51756 0.64813 0.80205 0.0
O110 O 0.54453 0.58192 0.8008 0.0
O111 O 0.47137 0.58574 0.89193 0.0
O112 O 0.46566 0.65231 0.88535 0.0
C113 C 0.44619 0.62182 0.90019 0.0
O114 O 0.64355 0.54787 0.87886 0.0
O115 O 0.63844 0.48352 0.89177 0.0
C116 C 0.65189 0.62521 0.87269 0.0
C117 C 0.66501 0.51487 0.89354 0.0
H118 H -0.01035 0.24028 0.11342 0.0
H119 H 0.12868 0.15121 0.06235 0.0
H120 H 0.12885 0.10934 0.11505 0.0
H121 H 0.04846 0.23434 0.19461 0.0
H122 H -0.02732 0.24013 0.21822 0.0
H123 H -0.01723 0.26169 0.17611 0.0
H124 H 0.89617 0.22229 0.15708 0.0
H125 H 0.88638 0.20021 0.1991 0.0
H126 H 0.90314 0.16803 0.16211 0.0
H127 H 0.11885 0.07988 0.17536 0.0
H128 H 0.10017 0.06643 0.23738 0.0
H129 H -0.03779 0.17239 0.24684 0.0
C130 C 0.02026 0.21202 0.1134 0.0
C131 C 0.05941 0.19903 0.08396 0.0
C132 C 0.09821 0.1616 0.0847 0.0
C133 C 0.09853 0.13763 0.11445 0.0
C134 C 0.05905 0.15123 0.14307 0.0
C135 C 0.02044 0.1875 0.14265 0.0
C136 C -0.01683 0.19576 0.1768 0.0
C137 C -0.00233 0.23531 0.19235 0.0
C138 C 0.91306 0.19661 0.17356 0.0
C139 C 0.00799 0.15907 0.19683 0.0
C140 C 0.05148 0.13352 0.17701 0.0
C141 C 0.08383 0.09921 0.19091 0.0
C142 C 0.07237 0.09145 0.2261 0.0
C143 C 0.02844 0.1176 0.24681 0.0
C144 C -0.00476 0.15133 0.23161 0.0
H145 H 0.03993 0.83625 0.15645 0.0
H146 H 0.8595 0.90025 0.1398 0.0
H147 H 0.88754 0.96142 0.16643 0.0
H148 H 0.04152 0.86746 0.23625 0.0
H149 H 0.12341 0.87231 0.23511 0.0
H150 H 0.09693 0.83829 0.20638 0.0
H151 H 0.14979 0.87461 0.15476 0.0
H152 H 0.17657 0.90893 0.18354 0.0
H153 H 0.13125 0.92851 0.1495 0.0
H154 H 0.92536 1.00968 0.20497 0.0
H155 H -0.03352 1.03838 0.25445 0.0
H156 H 0.12267 0.94354 0.24677 0.0
C157 C 0.00772 0.86383 0.15703 0.0
C158 C 0.94808 0.86396 0.14571 0.0
C159 C 0.90572 0.89988 0.14808 0.0
C160 C 0.92143 0.93479 0.16296 0.0
C161 C -0.02022 0.93333 0.17528 0.0
C162 C 0.02251 0.89877 0.17226 0.0
C163 C 0.07736 0.90253 0.19256 0.0
C164 C 0.08517 0.86814 0.21914 0.0
C165 C 0.13729 0.90373 0.16866 0.0
C166 C 0.05672 0.9432 0.20938 0.0
C167 C 0.00139 0.96119 0.19822 0.0
C168 C -0.03044 0.99648 0.21321 0.0
C169 C -0.00662 1.01275 0.24126 0.0
C170 C 0.04813 0.99345 0.25417 0.0
C171 C 0.08131 0.95932 0.23702 0.0
H172 H 0.48443 0.74326 0.61588 0.0
H173 H 0.61751 0.65313 0.56181 0.0
H174 H 0.62015 0.61071 0.61415 0.0
H175 H 0.54929 0.73538 0.69547 0.0
H176 H 0.47502 0.74192 0.72063 0.0
H177 H 0.48281 0.76383 0.67854 0.0
H178 H 0.393 0.72602 0.66141 0.0
H179 H 0.38557 0.70356 0.70339 0.0
H180 H 0.39859 0.67176 0.66608 0.0
H181 H 0.61406 0.58092 0.67429 0.0
H182 H 0.60061 0.56754 0.73644 0.0
H183 H 0.46493 0.67425 0.74925 0.0
C184 C 0.51426 0.71465 0.61514 0.0
C185 C 0.55103 0.70151 0.58494 0.0
C186 C 0.58887 0.66364 0.58475 0.0
C187 C 0.59056 0.63935 0.61429 0.0
C188 C 0.55336 0.65308 0.64365 0.0
C189 C 0.51573 0.6898 0.64419 0.0
C190 C 0.48106 0.69808 0.67904 0.0
C191 C 0.4981 0.7371 0.69431 0.0
C192 C 0.41036 0.69995 0.67736 0.0
C193 C 0.50628 0.66086 0.69833 0.0
C194 C 0.54768 0.63506 0.67755 0.0
C195 C 0.58044 0.60036 0.69058 0.0
C196 C 0.57171 0.59247 0.72588 0.0
C197 C 0.53003 0.61885 0.74758 0.0
C198 C 0.49616 0.65296 0.73326 0.0
H199 H 0.39539 0.39377 0.67193 0.0
H200 H 0.57386 0.32829 0.63527 0.0
H201 H 0.62727 0.38163 0.65802 0.0
H202 H 0.4442 0.50031 0.66354 0.0
H203 H 0.39795 0.51564 0.70272 0.0
H204 H 0.37291 0.47891 0.67546 0.0
H205 H 0.36755 0.42835 0.72624 0.0
H206 H 0.39193 0.46491 0.75347 0.0
H207 H 0.43548 0.41525 0.74904 0.0
H208 H 0.66159 0.43139 0.69552 0.0
H209 H 0.6734 0.47164 0.74612 0.0
H210 H 0.47425 0.50649 0.75928 0.0
C211 C 0.4457 0.3911 0.66796 0.0
C212 C 0.4803 0.35674 0.65169 0.0
C213 C 0.54606 0.35454 0.64703 0.0
C214 C 0.57691 0.38482 0.65989 0.0
C215 C 0.54147 0.41742 0.67707 0.0
C216 C 0.47716 0.42095 0.68088 0.0
C217 C 0.45027 0.45529 0.70484 0.0
C218 C 0.4142 0.48957 0.68547 0.0
C219 C 0.40895 0.44001 0.73518 0.0
C220 C 0.50954 0.4684 0.71607 0.0
C221 C 0.56167 0.44702 0.69887 0.0
C222 C 0.62137 0.44931 0.70832 0.0
C223 C 0.62774 0.47228 0.73703 0.0
C224 C 0.57483 0.4928 0.75583 0.0
C225 C 0.51543 0.4924 0.74432 0.0
H226 H 0.20699 0.36894 0.96779 0.0
H227 H 0.18011 0.44252 0.05897 0.0
H228 H 0.2656 0.48115 0.03591 0.0
H229 H 0.37838 0.3695 0.94885 0.0
H230 H 0.37106 0.37355 0.90358 0.0
H231 H 0.31737 0.3473 0.93068 0.0
H232 H 0.22566 0.39398 0.90793 0.0
H233 H 0.27891 0.4214 0.88174 0.0
H234 H 0.22203 0.44807 0.91237 0.0
H235 H 0.34863 0.51504 1.00005 0.0
H236 H 0.42545 0.53835 0.9559 0.0
H237 H 0.38628 0.44785 0.88615 0.0
C238 C 0.22153 0.39174 0.98362 0.0
C239 C 0.18901 0.40192 0.01563 0.0
C240 C 0.20631 0.43354 0.03491 0.0
C241 C 0.25418 0.45583 0.02182 0.0
C242 C 0.28325 0.44636 0.98926 0.0
C243 C 0.26789 0.41478 0.97057 0.0
C244 C 0.30084 0.41335 0.93489 0.0
C245 C 0.34453 0.37357 0.92918 0.0
C246 C 0.25405 0.41958 0.90765 0.0
C247 C 0.33693 0.44918 0.93624 0.0
C248 C 0.32665 0.46774 0.96781 0.0
C249 C 0.35616 0.50108 0.97508 0.0
C250 C 0.39832 0.51504 0.94963 0.0
C251 C 0.40925 0.49651 0.9172 0.0
C252 C 0.37771 0.4633 0.9105 0.0
H253 H 0.85432 0.66228 0.02454 0.0
H254 H -0.03343 0.72784 0.95112 0.0
H255 H 0.90727 0.70824 0.90485 0.0
H256 H 0.84243 0.57927 0.96879 0.0
H257 H 0.76252 0.57335 0.9828 0.0
H258 H 0.81163 0.59204 0.01187 0.0
H259 H 0.73591 0.65711 0.02352 0.0
H260 H 0.68365 0.63839 0.9964 0.0
H261 H 0.7093 0.68741 0.98813 0.0
H262 H 0.83299 0.68601 0.86761 0.0
H263 H 0.74498 0.66272 0.8411 0.0
H264 H 0.68361 0.60791 0.93711 0.0
C265 C 0.86591 0.67256 0.99871 0.0
C266 C 0.91477 0.69649 0.99117 0.0
C267 C 0.92934 0.70929 0.95717 0.0
C268 C 0.89616 0.69823 0.93078 0.0
C269 C 0.84895 0.67406 0.93882 0.0
C270 C 0.83359 0.66137 0.97187 0.0
C271 C 0.77985 0.63618 0.97339 0.0
C272 C 0.8003 0.59261 0.98488 0.0
C273 C 0.72387 0.65597 0.99673 0.0
C274 C 0.76647 0.63776 0.93619 0.0
C275 C 0.80725 0.65961 0.91674 0.0
C276 C 0.80141 0.66819 0.88232 0.0
C277 C 0.75155 0.65491 0.86749 0.0
C278 C 0.70901 0.63294 0.887 0.0
C279 C 0.71701 0.62364 0.92156 0.0
H280 H 0.89122 0.40632 0.02115 0.0
H281 H 0.03939 0.46095 0.96264 0.0
H282 H -0.03794 0.50422 0.93268 0.0
H283 H 0.80534 0.39693 0.95327 0.0
H284 H 0.72983 0.40781 0.97669 0.0
H285 H 0.79549 0.38678 0.99853 0.0
H286 H 0.77608 0.44696 0.04094 0.0
H287 H 0.71012 0.46816 0.01914 0.0
H288 H 0.77215 0.49808 0.02465 0.0
H289 H 0.87065 0.53538 0.90349 0.0
H290 H 0.77189 0.54915 0.87626 0.0
H291 H 0.684 0.47292 0.95179 0.0
C292 C 0.90733 0.42789 1.0025 0.0
C293 C -0.02853 0.43067 0.99496 0.0
C294 C -0.00946 0.45904 0.96994 0.0
C295 C 0.94692 0.48375 0.95253 0.0
C296 C 0.88423 0.47978 0.9602 0.0
C297 C 0.86436 0.45262 0.98463 0.0
C298 C 0.795 0.45114 0.98537 0.0
C299 C 0.78061 0.40812 0.97801 0.0
C300 C 0.76136 0.46704 0.01956 0.0
C301 C 0.77975 0.48008 0.95644 0.0
C302 C 0.83149 0.49704 0.94272 0.0
C303 C 0.82952 0.52277 0.91432 0.0
C304 C 0.77334 0.53066 0.89915 0.0
C305 C 0.72064 0.51245 0.91228 0.0
C306 C 0.72372 0.48753 0.94158 0.0
H307 H 0.11695 0.72787 0.97337 0.0
H308 H 0.14944 0.67511 0.0725 0.0
H309 H 0.25679 0.64761 0.04975 0.0
H310 H 0.18305 0.6445 0.92742 0.0
H311 H 0.21519 0.67198 0.89148 0.0
H312 H 0.14703 0.69437 0.91711 0.0
H313 H 0.20197 0.75691 0.929 0.0
H314 H 0.26981 0.73532 0.90255 0.0
H315 H 0.27686 0.74969 0.94589 0.0
H316 H 0.35884 0.62186 0.0134 0.0
H317 H 0.44432 0.60193 0.96807 0.0
H318 H 0.33482 0.66415 0.8925 0.0
C319 C 0.14733 0.71152 0.99059 0.0
C320 C 0.12538 0.70366 0.02466 0.0
C321 C 0.16598 0.68191 0.04644 0.0
C322 C 0.22665 0.66594 0.03361 0.0
C323 C 0.24532 0.67208 0.99909 0.0
C324 C 0.20673 0.69472 0.97806 0.0
C325 C 0.23414 0.69385 0.9413 0.0
C326 C 0.19236 0.67505 0.91798 0.0
C327 C 0.24645 0.73647 0.92897 0.0
C328 C 0.29405 0.66663 0.94457 0.0
C329 C 0.30049 0.65475 0.97807 0.0
C330 C 0.35352 0.63039 0.98706 0.0
C331 C 0.40112 0.61838 0.96115 0.0
C332 C 0.39398 0.62935 0.92672 0.0
C333 C 0.34009 0.65405 0.91853 0.0
H334 H 0.70442 0.86681 0.47067 0.0
H335 H 0.6732 0.94456 0.55936 0.0
H336 H 0.76196 0.98076 0.53713 0.0
H337 H 0.87744 0.86447 0.45529 0.0
H338 H 0.87357 0.8667 0.40968 0.0
H339 H 0.81728 0.84214 0.43645 0.0
H340 H 0.7287 0.8886 0.4106 0.0
H341 H 0.78448 0.91429 0.38465 0.0
H342 H 0.72634 0.94278 0.41348 0.0
H343 H 0.84819 1.01229 0.50189 0.0
H344 H 0.92684 1.03404 0.45786 0.0
H345 H 0.8905 0.94074 0.38998 0.0
C346 C 0.71861 0.88999 0.48625 0.0
C347 C 0.68389 0.90208 0.51725 0.0
C348 C 0.70094 0.93415 0.53611 0.0
C349 C 0.75075 0.95503 0.52349 0.0
C350 C 0.78212 0.94369 0.49183 0.0
C351 C 0.76698 0.91163 0.47362 0.0
C352 C 0.80236 0.90836 0.43856 0.0
C353 C 0.84522 0.86803 0.43479 0.0
C354 C 0.75779 0.91384 0.41017 0.0
C355 C 0.83932 0.9438 0.43963 0.0
C356 C 0.82759 0.96366 0.47061 0.0
C357 C 0.85696 0.99725 0.47739 0.0
C358 C 0.90011 1.01029 0.452 0.0
C359 C 0.91199 0.99064 0.42008 0.0
C360 C 0.88119 0.95693 0.41396 0.0
H361 H 0.34171 0.15916 0.52746 0.0
H362 H 0.4297 0.24515 0.46127 0.0
H363 H 0.36799 0.22942 0.41464 0.0
H364 H 0.33822 0.08508 0.46409 0.0
H365 H 0.26259 0.07091 0.47886 0.0
H366 H 0.31011 0.08987 0.50858 0.0
H367 H 0.22258 0.14675 0.52771 0.0
H368 H 0.17337 0.12715 0.49925 0.0
H369 H 0.18729 0.17942 0.49606 0.0
H370 H 0.29822 0.2052 0.37579 0.0
H371 H 0.2173 0.17656 0.34709 0.0
H372 H 0.17669 0.1034 0.43675 0.0
C373 C 0.34669 0.17512 0.50331 0.0
C374 C 0.38945 0.20368 0.49774 0.0
C375 C 0.39635 0.22354 0.4658 0.0
C376 C 0.36198 0.21458 0.43922 0.0
C377 C 0.32131 0.18551 0.44506 0.0
C378 C 0.31283 0.16633 0.47632 0.0
C379 C 0.26597 0.13625 0.47549 0.0
C380 C 0.29604 0.09294 0.48212 0.0
C381 C 0.20891 0.14812 0.50114 0.0
C382 C 0.24956 0.14166 0.43889 0.0
C383 C 0.28223 0.17025 0.42191 0.0
C384 C 0.27273 0.18246 0.38859 0.0
C385 C 0.22703 0.16599 0.37248 0.0
C386 C 0.19214 0.13736 0.38957 0.0
C387 C 0.20431 0.12438 0.4229 0.0
H388 H 0.38595 0.90974 0.51936 0.0
H389 H 0.53621 0.96407 0.46251 0.0
H390 H 0.4602 1.0073 0.43157 0.0
H391 H 0.30457 0.89922 0.45027 0.0
H392 H 0.22798 0.90983 0.47252 0.0
H393 H 0.29248 0.88947 0.49552 0.0
H394 H 0.26991 0.95005 0.53746 0.0
H395 H 0.20512 0.97063 0.51448 0.0
H396 H 0.26615 1.00103 0.52089 0.0
H397 H 0.36935 1.0387 0.40127 0.0
H398 H 0.27172 0.05169 0.37259 0.0
H399 H 0.18303 0.97386 0.44632 0.0
C400 C 0.40286 0.93122 0.50087 0.0
C401 C 0.46717 0.93384 0.49404 0.0
C402 C 0.48719 0.96223 0.46928 0.0
C403 C 0.4443 0.98692 0.45131 0.0
C404 C 0.38143 0.98291 0.45816 0.0
C405 C 0.36073 0.95579 0.48239 0.0
C406 C 0.2917 0.95379 0.48205 0.0
C407 C 0.27846 0.91053 0.47463 0.0
C408 C 0.25613 0.96984 0.51573 0.0
C409 C 0.27764 0.98234 0.45272 0.0
C410 C 0.32949 0.99974 0.43978 0.0
C411 C 0.32824 1.02557 0.41139 0.0
C412 C 0.27281 1.03295 0.39536 0.0
C413 C 0.22051 1.01378 0.40748 0.0
C414 C 0.22264 0.98901 0.43685 0.0
H415 H 0.59546 0.21034 0.46952 0.0
H416 H 0.63816 0.17246 0.57164 0.0
H417 H 0.74435 0.14368 0.54818 0.0
H418 H 0.66726 0.12094 0.42862 0.0
H419 H 0.69384 0.14642 0.39019 0.0
H420 H 0.62466 0.16772 0.41565 0.0
H421 H 0.67164 0.23508 0.42101 0.0
H422 H 0.74048 0.21426 0.39502 0.0
H423 H 0.7471 0.23413 0.43673 0.0
H424 H 0.84658 0.11873 0.51185 0.0
H425 H 0.93352 0.10105 0.4669 0.0
H426 H 0.815 0.14774 0.38932 0.0
C427 C 0.62702 0.19606 0.48711 0.0
C428 C 0.60841 0.19327 0.52238 0.0
C429 C 0.65167 0.17515 0.54455 0.0
C430 C 0.71176 0.15845 0.53139 0.0
C431 C 0.72729 0.16005 0.49612 0.0
C432 C 0.68594 0.17858 0.47442 0.0
C433 C 0.71183 0.17507 0.43745 0.0
C434 C 0.67202 0.15111 0.41677 0.0
C435 C 0.71816 0.21713 0.42164 0.0
C436 C 0.77458 0.15156 0.44146 0.0
C437 C 0.78322 0.14338 0.47543 0.0
C438 C 0.83955 0.12404 0.48519 0.0
C439 C 0.88819 0.11335 0.45955 0.0
C440 C 0.8792 0.1207 0.42474 0.0
C441 C 0.82186 0.14018 0.41573 0.0
loop_
_geom_bond_atom_site_label_1
_geom_bond_atom_site_label_2
_geom_bond_distance
_geom_bond_site_symmetry_2
_ccdc_geom_bond_type
H0 C1 0.949 . S
C1 H0 0.949 . S
C1 C2 1.395 1_554 S
C1 C3 1.391 . S
C2 C1 1.395 1_556 S
C2 C5 1.390 . S
C3 C1 1.391 . S
C3 C7 1.387 . S
C3 C8 1.491 . S
H4 C5 0.950 . S
C5 C2 1.390 . S
C5 H4 0.950 . S
C5 C6 1.378 . S
C6 C5 1.378 . S
C6 C7 1.409 1_556 S
C7 C3 1.387 . S
C7 C6 1.409 1_554 S
C7 H9 0.951 . S
C8 C3 1.491 . S
C8 C10 1.382 . S
C8 C12 1.404 . S
H9 C7 0.951 . S
C10 C8 1.382 . S
C10 C11 1.390 . S
C10 H15 0.949 . S
C11 C10 1.390 . S
C11 C16 1.399 . S
C12 C8 1.404 . S
C12 H13 0.950 . S
C12 C14 1.375 . S
H13 C12 0.950 . S
C14 C12 1.375 . S
C14 C16 1.382 . S
C14 H18 0.950 . S
H15 C10 0.949 . S
C16 C11 1.399 . S
C16 C14 1.382 . S
C16 H17 0.952 . S
H17 C16 0.952 . S
H18 C14 0.950 . S
H19 C20 0.949 . S
C20 H19 0.949 . S
C20 C21 1.395 1_554 S
C20 C22 1.391 1_455 S
C21 C20 1.395 1_556 S
C21 C24 1.390 . S
C22 C20 1.391 1_655 S
C22 C26 1.387 . S
C22 C27 1.491 . S
H23 C24 0.950 . S
C24 C21 1.390 . S
C24 H23 0.950 . S
C24 C25 1.378 1_455 S
C25 C24 1.378 1_655 S
C25 C26 1.409 1_556 S
C26 C22 1.387 . S
C26 C25 1.409 1_554 S
C26 H28 0.951 . S
C27 C22 1.491 . S
C27 C29 1.382 1_655 S
C27 C31 1.404 . S
H28 C26 0.951 . S
C29 C27 1.382 1_455 S
C29 C30 1.390 1_455 S
C29 H34 0.949 . S
C30 C29 1.390 1_655 S
C30 C35 1.399 . S
C31 C27 1.404 . S
C31 H32 0.950 . S
C31 C33 1.375 . S
H32 C31 0.950 . S
C33 C31 1.375 . S
C33 C35 1.382 . S
C33 H37 0.950 . S
H34 C29 0.949 . S
C35 C30 1.399 . S
C35 C33 1.382 . S
C35 H36 0.952 . S
H36 C35 0.952 . S
H37 C33 0.950 . S
H38 C39 0.949 . S
C39 H38 0.949 . S
C39 C40 1.395 . S
C39 C41 1.391 . S
C40 C39 1.395 . S
C40 C43 1.390 . S
C41 C39 1.391 . S
C41 C45 1.387 . S
C41 C46 1.491 . S
H42 C43 0.950 . S
C43 C40 1.390 . S
C43 H42 0.950 . S
C43 C44 1.378 . S
C44 C43 1.378 . S
C44 C45 1.409 . S
C45 C41 1.387 . S
C45 C44 1.409 . S
C45 H47 0.951 . S
C46 C41 1.491 . S
C46 C48 1.382 . S
C46 C50 1.404 . S
H47 C45 0.951 . S
C48 C46 1.382 . S
C48 C49 1.390 . S
C48 H53 0.949 . S
C49 C48 1.390 . S
C49 C54 1.399 . S
C50 C46 1.404 . S
C50 H51 0.950 . S
C50 C52 1.375 . S
H51 C50 0.950 . S
C52 C50 1.375 . S
C52 C54 1.382 . S
C52 H56 0.950 . S
H53 C48 0.949 . S
C54 C49 1.399 . S
C54 C52 1.382 . S
C54 H55 0.952 . S
H55 C54 0.952 . S
H56 C52 0.950 . S
H57 C58 0.949 . S
C58 H57 0.949 . S
C58 C59 1.395 . S
C58 C60 1.391 . S
C59 C58 1.395 . S
C59 C62 1.390 . S
C60 C58 1.391 . S
C60 C64 1.387 . S
C60 C65 1.491 . S
H61 C62 0.950 . S
C62 C59 1.390 . S
C62 H61 0.950 . S
C62 C63 1.378 . S
C63 C62 1.378 . S
C63 C64 1.409 . S
C64 C60 1.387 . S
C64 C63 1.409 . S
C64 H66 0.951 . S
C65 C60 1.491 . S
C65 C67 1.382 . S
C65 C69 1.404 . S
H66 C64 0.951 . S
C67 C65 1.382 . S
C67 C68 1.390 . S
C67 H72 0.949 . S
C68 C67 1.390 . S
C68 C73 1.399 . S
C69 C65 1.404 . S
C69 H70 0.950 . S
C69 C71 1.375 . S
H70 C69 0.950 . S
C71 C69 1.375 . S
C71 C73 1.382 . S
C71 H75 0.950 . S
H72 C67 0.949 . S
C73 C68 1.399 . S
C73 C71 1.382 . S
C73 H74 0.952 . S
H74 C73 0.952 . S
H75 C71 0.950 . S
Zn76 O82 1.920 . S
Zn76 O88 1.898 . S
Zn76 O91 1.905 1_455 S
Zn77 O85 1.905 . S
Zn77 O86 1.898 . S
Zn77 O94 1.920 . S
Zn78 O81 2.080 . S
Zn78 O84 2.114 1_545 S
Zn78 O87 2.120 1_545 S
Zn78 O89 2.120 . S
Zn78 O90 2.114 1_455 S
Zn78 O93 2.080 1_545 S
C79 O84 1.166 . S
C79 O85 1.182 . S
C80 O86 1.167 . S
C80 O87 1.299 . S
O81 Zn78 2.080 . S
O81 C95 1.305 . S
O82 Zn76 1.920 . S
O82 C95 1.234 . S
C83 O88 1.167 . S
C83 O89 1.299 . S
O84 Zn78 2.114 1_565 S
O84 C79 1.166 . S
O85 Zn77 1.905 . S
O85 C79 1.182 . S
O86 Zn77 1.898 . S
O86 C80 1.167 . S
O87 Zn78 2.120 1_565 S
O87 C80 1.299 . S
O88 Zn76 1.898 . S
O88 C83 1.167 . S
O89 Zn78 2.120 . S
O89 C83 1.299 . S
O90 Zn78 2.114 1_655 S
O90 C92 1.166 . S
O91 Zn76 1.905 1_655 S
O91 C92 1.182 . S
C92 O90 1.166 . S
C92 O91 1.182 . S
O93 Zn78 2.080 1_565 S
O93 C96 1.305 . S
O94 Zn77 1.920 . S
O94 C96 1.234 . S
C95 O81 1.305 . S
C95 O82 1.234 . S
C96 O93 1.305 . S
C96 O94 1.234 . S
Zn97 O103 1.920 . S
Zn97 O109 1.898 . S
Zn97 O112 1.905 . S
Zn98 O106 1.905 . S
Zn98 O107 1.898 . S
Zn98 O115 1.920 . S
Zn99 O102 2.080 . S
Zn99 O105 2.114 . S
Zn99 O108 2.120 . S
Zn99 O110 2.120 . S
Zn99 O111 2.114 . S
Zn99 O114 2.080 . S
C100 O105 1.166 . S
C100 O106 1.182 . S
C101 O107 1.167 . S
C101 O108 1.299 . S
O102 Zn99 2.080 . S
O102 C116 1.305 . S
O103 Zn97 1.920 . S
O103 C116 1.234 . S
C104 O109 1.167 . S
C104 O110 1.299 . S
O105 Zn99 2.114 . S
O105 C100 1.166 . S
O106 Zn98 1.905 . S
O106 C100 1.182 . S
O107 Zn98 1.898 . S
O107 C101 1.167 . S
O108 Zn99 2.120 . S
O108 C101 1.299 . S
O109 Zn97 1.898 . S
O109 C104 1.167 . S
O110 Zn99 2.120 . S
O110 C104 1.299 . S
O111 Zn99 2.114 . S
O111 C113 1.166 . S
O112 Zn97 1.905 . S
O112 C113 1.182 . S
C113 O111 1.166 . S
C113 O112 1.182 . S
O114 Zn99 2.080 . S
O114 C117 1.305 . S
O115 Zn98 1.920 . S
O115 C117 1.234 . S
C116 O102 1.305 . S
C116 O103 1.234 . S
C117 O114 1.305 . S
C117 O115 1.234 . S
H118 C130 0.930 . S
H119 C132 0.930 . S
H120 C133 0.930 . S
H121 C137 0.959 . S
H122 C137 0.959 1_655 S
H123 C137 0.961 1_655 S
H124 C138 0.960 . S
H125 C138 0.961 . S
H126 C138 0.959 . S
H127 C141 0.929 . S
H128 C142 0.931 . S
H129 C144 0.930 . S
C130 H118 0.930 . S
C130 C131 1.399 . S
C130 C135 1.399 . S
C131 C130 1.399 . S
C131 C132 1.376 . S
C132 H119 0.930 . S
C132 C131 1.376 . S
C132 C133 1.388 . S
C133 H120 0.930 . S
C133 C132 1.388 . S
C133 C134 1.390 . S
C134 C133 1.390 . S
C134 C135 1.394 . S
C134 C140 1.465 . S
C135 C130 1.399 . S
C135 C134 1.394 . S
C135 C136 1.516 . S
C136 C135 1.516 . S
C136 C137 1.502 . S
C136 C138 1.561 . S
C136 C139 1.526 . S
C137 H121 0.959 . S
C137 H122 0.959 1_455 S
C137 H123 0.961 1_455 S
C137 C136 1.502 . S
C138 H124 0.960 . S
C138 H125 0.961 . S
C138 H126 0.959 . S
C138 C136 1.561 . S
C139 C136 1.526 . S
C139 C140 1.396 . S
C139 C144 1.390 . S
C140 C134 1.465 . S
C140 C139 1.396 . S
C140 C141 1.399 . S
C141 H127 0.929 . S
C141 C140 1.399 . S
C141 C142 1.385 . S
C142 H128 0.931 . S
C142 C141 1.385 . S
C142 C143 1.389 . S
C143 C142 1.389 . S
C143 C144 1.387 . S
C144 H129 0.930 . S
C144 C139 1.390 . S
C144 C143 1.387 . S
H145 C157 0.927 1_655 S
H146 C159 0.930 . S
H147 C160 0.930 . S
H148 C164 0.959 . S
H149 C164 0.959 . S
H150 C164 0.961 . S
H151 C165 0.960 . S
H152 C165 0.961 . S
H153 C165 0.959 . S
H154 C168 0.929 . S
H155 C169 0.931 . S
H156 C171 0.930 . S
C157 H145 0.927 1_455 S
C157 C158 1.399 . S
C157 C162 1.399 . S
C158 C157 1.399 . S
C158 C159 1.376 . S
C159 H146 0.930 . S
C159 C158 1.376 . S
C159 C160 1.388 . S
C160 H147 0.930 . S
C160 C159 1.388 . S
C160 C161 1.390 . S
C161 C160 1.390 . S
C161 C162 1.394 . S
C161 C167 1.465 . S
C162 C157 1.399 . S
C162 C161 1.394 . S
C162 C163 1.516 . S
C163 C162 1.516 . S
C163 C164 1.502 1_455 S
C163 C165 1.561 . S
C163 C166 1.526 . S
C164 H148 0.959 . S
C164 H149 0.959 . S
C164 H150 0.961 . S
C164 C163 1.502 1_655 S
C165 H151 0.960 . S
C165 H152 0.961 . S
C165 H153 0.959 . S
C165 C163 1.561 . S
C166 C163 1.526 . S
C166 C167 1.396 . S
C166 C171 1.390 . S
C167 C161 1.465 . S
C167 C166 1.396 . S
C167 C168 1.399 . S
C168 H154 0.929 . S
C168 C167 1.399 . S
C168 C169 1.385 . S
C169 H155 0.931 . S
C169 C168 1.385 . S
C169 C170 1.389 . S
C170 C169 1.389 . S
C170 C171 1.387 . S
C171 H156 0.930 . S
C171 C166 1.390 . S
C171 C170 1.387 . S
H172 C184 0.930 . S
H173 C186 0.930 . S
H174 C187 0.930 . S
H175 C191 0.959 . S
H176 C191 0.959 . S
H177 C191 0.961 . S
H178 C192 0.960 . S
H179 C192 0.961 . S
H180 C192 0.959 . S
H181 C195 0.929 . S
H182 C196 0.931 . S
H183 C198 0.930 . S
C184 H172 0.930 . S
C184 C185 1.399 . S
C184 C189 1.399 . S
C185 C184 1.399 . S
C185 C186 1.376 . S
C186 H173 0.930 . S
C186 C185 1.376 . S
C186 C187 1.388 . S
C187 H174 0.930 . S
C187 C186 1.388 . S
C187 C188 1.390 . S
C188 C187 1.390 . S
C188 C189 1.394 . S
C188 C194 1.465 . S
C189 C184 1.399 . S
C189 C188 1.394 . S
C189 C190 1.516 . S
C190 C189 1.516 . S
C190 C191 1.502 . S
C190 C192 1.561 . S
C190 C193 1.526 . S
C191 H175 0.959 . S
C191 H176 0.959 . S
C191 H177 0.961 . S
C191 C190 1.502 . S
C192 H178 0.960 . S
C192 H179 0.961 . S
C192 H180 0.959 . S
C192 C190 1.561 . S
C193 C190 1.526 . S
C193 C194 1.396 . S
C193 C198 1.390 . S
C194 C188 1.465 . S
C194 C193 1.396 . S
C194 C195 1.399 . S
C195 H181 0.929 . S
C195 C194 1.399 . S
C195 C196 1.385 . S
C196 H182 0.931 . S
C196 C195 1.385 . S
C196 C197 1.389 . S
C197 C196 1.389 . S
C197 C198 1.387 . S
C198 H183 0.930 . S
C198 C193 1.390 . S
C198 C197 1.387 . S
H199 C211 0.930 . S
H200 C213 0.930 . S
H201 C214 0.930 . S
H202 C218 0.959 . S
H203 C218 0.959 . S
H204 C218 0.961 . S
H205 C219 0.960 . S
H206 C219 0.961 . S
H207 C219 0.959 . S
H208 C222 0.929 . S
H209 C223 0.931 . S
H210 C225 0.930 . S
C211 H199 0.930 . S
C211 C212 1.399 . S
C211 C216 1.399 . S
C212 C211 1.399 . S
C212 C213 1.376 . S
C213 H200 0.930 . S
C213 C212 1.376 . S
C213 C214 1.388 . S
C214 H201 0.930 . S
C214 C213 1.388 . S
C214 C215 1.390 . S
C215 C214 1.390 . S
C215 C216 1.394 . S
C215 C221 1.465 . S
C216 C211 1.399 . S
C216 C215 1.394 . S
C216 C217 1.516 . S
C217 C216 1.516 . S
C217 C218 1.502 . S
C217 C219 1.561 . S
C217 C220 1.526 . S
C218 H202 0.959 . S
C218 H203 0.959 . S
C218 H204 0.961 . S
C218 C217 1.502 . S
C219 H205 0.960 . S
C219 H206 0.961 . S
C219 H207 0.959 . S
C219 C217 1.561 . S
C220 C217 1.526 . S
C220 C221 1.396 . S
C220 C225 1.390 . S
C221 C215 1.465 . S
C221 C220 1.396 . S
C221 C222 1.399 . S
C222 H208 0.929 . S
C222 C221 1.399 . S
C222 C223 1.385 . S
C223 H209 0.931 . S
C223 C222 1.385 . S
C223 C224 1.389 . S
C224 C223 1.389 . S
C224 C225 1.387 . S
C225 H210 0.930 . S
C225 C220 1.390 . S
C225 C224 1.387 . S
H226 C238 0.930 . S
H227 C240 0.930 . S
H228 C241 0.930 . S
H229 C245 0.959 . S
H230 C245 0.959 . S
H231 C245 0.961 . S
H232 C246 0.960 . S
H233 C246 0.961 . S
H234 C246 0.959 . S
H235 C249 0.929 . S
H236 C250 0.931 . S
H237 C252 0.930 . S
C238 H226 0.930 . S
C238 C239 1.399 . S
C238 C243 1.399 . S
C239 C238 1.399 . S
C239 C240 1.376 . S
C240 H227 0.930 . S
C240 C239 1.376 . S
C240 C241 1.388 . S
C241 H228 0.930 . S
C241 C240 1.388 . S
C241 C242 1.390 . S
C242 C241 1.390 . S
C242 C243 1.394 . S
C242 C248 1.465 . S
C243 C238 1.399 . S
C243 C242 1.394 . S
C243 C244 1.516 . S
C244 C243 1.516 . S
C244 C245 1.502 . S
C244 C246 1.561 . S
C244 C247 1.526 . S
C245 H229 0.959 . S
C245 H230 0.959 . S
C245 H231 0.961 . S
C245 C244 1.502 . S
C246 H232 0.960 . S
C246 H233 0.961 . S
C246 H234 0.959 . S
C246 C244 1.561 . S
C247 C244 1.526 . S
C247 C248 1.396 . S
C247 C252 1.390 . S
C248 C242 1.465 . S
C248 C247 1.396 . S
C248 C249 1.399 . S
C249 H235 0.929 . S
C249 C248 1.399 . S
C249 C250 1.385 . S
C250 H236 0.931 . S
C250 C249 1.385 . S
C250 C251 1.389 . S
C251 C250 1.389 . S
C251 C252 1.387 . S
C252 H237 0.930 . S
C252 C247 1.390 . S
C252 C251 1.387 . S
H253 C265 0.930 1_554 S
H254 C267 0.930 . S
H255 C268 0.930 . S
H256 C272 0.959 . S
H257 C272 0.959 1_554 S
H258 C272 0.961 1_554 S
H259 C273 0.960 . S
H260 C273 0.961 . S
H261 C273 0.959 . S
H262 C276 0.929 . S
H263 C277 0.931 . S
H264 C279 0.930 . S
C265 H253 0.930 1_556 S
C265 C266 1.399 . S
C265 C270 1.399 . S
C266 C265 1.399 . S
C266 C267 1.376 . S
C267 H254 0.930 . S
C267 C266 1.376 . S
C267 C268 1.388 . S
C268 H255 0.930 . S
C268 C267 1.388 . S
C268 C269 1.390 . S
C269 C268 1.390 . S
C269 C270 1.394 . S
C269 C275 1.465 . S
C270 C265 1.399 . S
C270 C269 1.394 . S
C270 C271 1.516 . S
C271 C270 1.516 . S
C271 C272 1.502 . S
C271 C273 1.561 1_556 S
C271 C274 1.526 . S
C272 H256 0.959 . S
C272 H257 0.959 1_556 S
C272 H258 0.961 1_556 S
C272 C271 1.502 . S
C273 H259 0.960 . S
C273 H260 0.961 . S
C273 H261 0.959 . S
C273 C271 1.561 1_554 S
C274 C271 1.526 . S
C274 C275 1.396 . S
C274 C279 1.390 . S
C275 C269 1.465 . S
C275 C274 1.396 . S
C275 C276 1.399 . S
C276 H262 0.929 . S
C276 C275 1.399 . S
C276 C277 1.385 . S
C277 H263 0.931 . S
C277 C276 1.385 . S
C277 C278 1.389 . S
C278 C277 1.389 . S
C278 C279 1.387 . S
C279 H264 0.930 . S
C279 C274 1.390 . S
C279 C278 1.387 . S
H280 C292 0.930 . S
H281 C294 0.930 . S
H282 C295 0.930 . S
H283 C299 0.959 . S
H284 C299 0.959 . S
H285 C299 0.961 . S
H286 C300 0.960 1_554 S
H287 C300 0.961 . S
H288 C300 0.959 . S
H289 C303 0.929 . S
H290 C304 0.931 . S
H291 C306 0.930 . S
C292 H280 0.930 . S
C292 C293 1.399 1_655 S
C292 C297 1.399 . S
C293 C292 1.399 1_455 S
C293 C294 1.376 . S
C294 H281 0.930 . S
C294 C293 1.376 . S
C294 C295 1.388 . S
C295 H282 0.930 . S
C295 C294 1.388 . S
C295 C296 1.390 1_455 S
C296 C295 1.390 1_655 S
C296 C297 1.394 . S
C296 C302 1.465 . S
C297 C292 1.399 . S
C297 C296 1.394 . S
C297 C298 1.516 . S
C298 C297 1.516 . S
C298 C299 1.502 . S
C298 C300 1.561 . S
C298 C301 1.526 . S
C299 H283 0.959 . S
C299 H284 0.959 . S
C299 H285 0.961 . S
C299 C298 1.502 . S
C300 H286 0.960 1_556 S
C300 H287 0.961 . S
C300 H288 0.959 . S
C300 C298 1.561 . S
C301 C298 1.526 . S
C301 C302 1.396 . S
C301 C306 1.390 . S
C302 C296 1.465 . S
C302 C301 1.396 . S
C302 C303 1.399 . S
C303 H289 0.929 . S
C303 C302 1.399 . S
C303 C304 1.385 . S
C304 H290 0.931 . S
C304 C303 1.385 . S
C304 C305 1.389 . S
C305 C304 1.389 . S
C305 C306 1.387 . S
C306 H291 0.930 . S
C306 C301 1.390 . S
C306 C305 1.387 . S
H307 C319 0.930 . S
H308 C321 0.930 . S
H309 C322 0.930 1_554 S
H310 C326 0.959 . S
H311 C326 0.959 . S
H312 C326 0.961 . S
H313 C327 0.960 . S
H314 C327 0.961 . S
H315 C327 0.959 . S
H316 C330 0.929 . S
H317 C331 0.931 . S
H318 C333 0.930 . S
C319 H307 0.930 . S
C319 C320 1.399 . S
C319 C324 1.399 . S
C320 C319 1.399 . S
C320 C321 1.376 1_556 S
C321 H308 0.930 . S
C321 C320 1.376 1_554 S
C321 C322 1.388 1_554 S
C322 H309 0.930 1_556 S
C322 C321 1.388 1_556 S
C322 C323 1.390 . S
C323 C322 1.390 . S
C323 C324 1.394 . S
C323 C329 1.465 . S
C324 C319 1.399 . S
C324 C323 1.394 . S
C324 C325 1.516 . S
C325 C324 1.516 . S
C325 C326 1.502 . S
C325 C327 1.561 . S
C325 C328 1.526 . S
C326 H310 0.959 . S
C326 H311 0.959 . S
C326 H312 0.961 . S
C326 C325 1.502 . S
C327 H313 0.960 . S
C327 H314 0.961 . S
C327 H315 0.959 . S
C327 C325 1.561 . S
C328 C325 1.526 . S
C328 C329 1.396 . S
C328 C333 1.390 . S
C329 C323 1.465 . S
C329 C328 1.396 . S
C329 C330 1.399 . S
C330 H316 0.929 . S
C330 C329 1.399 . S
C330 C331 1.385 . S
C331 H317 0.931 . S
C331 C330 1.385 . S
C331 C332 1.389 . S
C332 C331 1.389 . S
C332 C333 1.387 . S
C333 H318 0.930 . S
C333 C328 1.390 . S
C333 C332 1.387 . S
H334 C346 0.930 . S
H335 C348 0.930 . S
H336 C349 0.930 . S
H337 C353 0.959 . S
H338 C353 0.959 . S
H339 C353 0.961 . S
H340 C354 0.960 . S
H341 C354 0.961 . S
H342 C354 0.959 . S
H343 C357 0.929 . S
H344 C358 0.931 1_455 S
H345 C360 0.930 . S
C346 H334 0.930 . S
C346 C347 1.399 . S
C346 C351 1.399 . S
C347 C346 1.399 . S
C347 C348 1.376 . S
C348 H335 0.930 . S
C348 C347 1.376 . S
C348 C349 1.388 . S
C349 H336 0.930 . S
C349 C348 1.388 . S
C349 C350 1.390 . S
C350 C349 1.390 . S
C350 C351 1.394 . S
C350 C356 1.465 . S
C351 C346 1.399 . S
C351 C350 1.394 . S
C351 C352 1.516 . S
C352 C351 1.516 . S
C352 C353 1.502 . S
C352 C354 1.561 . S
C352 C355 1.526 . S
C353 H337 0.959 . S
C353 H338 0.959 . S
C353 H339 0.961 . S
C353 C352 1.502 . S
C354 H340 0.960 . S
C354 H341 0.961 . S
C354 H342 0.959 . S
C354 C352 1.561 . S
C355 C352 1.526 . S
C355 C356 1.396 . S
C355 C360 1.390 . S
C356 C350 1.465 . S
C356 C355 1.396 . S
C356 C357 1.399 . S
C357 H343 0.929 . S
C357 C356 1.399 . S
C357 C358 1.385 . S
C358 H344 0.931 1_655 S
C358 C357 1.385 . S
C358 C359 1.389 . S
C359 C358 1.389 . S
C359 C360 1.387 . S
C360 H345 0.930 . S
C360 C355 1.390 . S
C360 C359 1.387 . S
H361 C373 0.930 . S
H362 C375 0.930 . S
H363 C376 0.930 . S
H364 C380 0.959 . S
H365 C380 0.959 . S
H366 C380 0.961 . S
H367 C381 0.960 . S
H368 C381 0.961 . S
H369 C381 0.959 . S
H370 C384 0.929 . S
H371 C385 0.931 . S
H372 C387 0.930 . S
C373 H361 0.930 . S
C373 C374 1.399 . S
C373 C378 1.399 . S
C374 C373 1.399 . S
C374 C375 1.376 . S
C375 H362 0.930 . S
C375 C374 1.376 . S
C375 C376 1.388 . S
C376 H363 0.930 . S
C376 C375 1.388 . S
C376 C377 1.390 . S
C377 C376 1.390 . S
C377 C378 1.394 . S
C377 C383 1.465 . S
C378 C373 1.399 . S
C378 C377 1.394 . S
C378 C379 1.516 . S
C379 C378 1.516 . S
C379 C380 1.502 . S
C379 C381 1.561 . S
C379 C382 1.526 . S
C380 H364 0.959 . S
C380 H365 0.959 . S
C380 H366 0.961 . S
C380 C379 1.502 . S
C381 H367 0.960 . S
C381 H368 0.961 . S
C381 H369 0.959 . S
C381 C379 1.561 . S
C382 C379 1.526 . S
C382 C383 1.396 . S
C382 C387 1.390 . S
C383 C377 1.465 . S
C383 C382 1.396 . S
C383 C384 1.399 . S
C384 H370 0.929 . S
C384 C383 1.399 . S
C384 C385 1.385 . S
C385 H371 0.931 . S
C385 C384 1.385 . S
C385 C386 1.389 . S
C386 C385 1.389 . S
C386 C387 1.387 . S
C387 H372 0.930 . S
C387 C382 1.390 . S
C387 C386 1.387 . S
H388 C400 0.930 . S
H389 C402 0.930 . S
H390 C403 0.930 . S
H391 C407 0.959 . S
H392 C407 0.959 . S
H393 C407 0.961 . S
H394 C408 0.960 . S
H395 C408 0.961 . S
H396 C408 0.959 . S
H397 C411 0.929 . S
H398 C412 0.931 . S
H399 C414 0.930 . S
C400 H388 0.930 . S
C400 C401 1.399 . S
C400 C405 1.399 . S
C401 C400 1.399 . S
C401 C402 1.376 . S
C402 H389 0.930 . S
C402 C401 1.376 . S
C402 C403 1.388 . S
C403 H390 0.930 . S
C403 C402 1.388 . S
C403 C404 1.390 . S
C404 C403 1.390 . S
C404 C405 1.394 . S
C404 C410 1.465 . S
C405 C400 1.399 . S
C405 C404 1.394 . S
C405 C406 1.516 . S
C406 C405 1.516 . S
C406 C407 1.502 . S
C406 C408 1.561 . S
C406 C409 1.526 . S
C407 H391 0.959 . S
C407 H392 0.959 . S
C407 H393 0.961 . S
C407 C406 1.502 . S
C408 H394 0.960 . S
C408 H395 0.961 . S
C408 H396 0.959 . S
C408 C406 1.561 . S
C409 C406 1.526 . S
C409 C410 1.396 . S
C409 C414 1.390 . S
C410 C404 1.465 . S
C410 C409 1.396 . S
C410 C411 1.399 . S
C411 H397 0.929 . S
C411 C410 1.399 . S
C411 C412 1.385 . S
C412 H398 0.931 . S
C412 C411 1.385 . S
C412 C413 1.389 . S
C413 C412 1.389 . S
C413 C414 1.387 . S
C414 H399 0.930 . S
C414 C409 1.390 . S
C414 C413 1.387 . S
H415 C427 0.930 . S
H416 C429 0.930 . S
H417 C430 0.930 . S
H418 C434 0.959 . S
H419 C434 0.959 . S
H420 C434 0.961 . S
H421 C435 0.960 . S
H422 C435 0.961 . S
H423 C435 0.959 . S
H424 C438 0.929 . S
H425 C439 0.931 . S
H426 C441 0.930 . S
C427 H415 0.930 . S
C427 C428 1.399 . S
C427 C432 1.399 . S
C428 C427 1.399 . S
C428 C429 1.376 . S
C429 H416 0.930 . S
C429 C428 1.376 . S
C429 C430 1.388 . S
C430 H417 0.930 . S
C430 C429 1.388 . S
C430 C431 1.390 . S
C431 C430 1.390 . S
C431 C432 1.394 . S
C431 C437 1.465 . S
C432 C427 1.399 . S
C432 C431 1.394 . S
C432 C433 1.516 . S
C433 C432 1.516 . S
C433 C434 1.502 . S
C433 C435 1.561 . S
C433 C436 1.526 . S
C434 H418 0.959 . S
C434 H419 0.959 . S
C434 H420 0.961 . S
C434 C433 1.502 . S
C435 H421 0.960 . S
C435 H422 0.961 . S
C435 H423 0.959 . S
C435 C433 1.561 . S
C436 C433 1.526 . S
C436 C437 1.396 . S
C436 C441 1.390 . S
C437 C431 1.465 . S
C437 C436 1.396 . S
C437 C438 1.399 . S
C438 H424 0.929 . S
C438 C437 1.399 . S
C438 C439 1.385 . S
C439 H425 0.931 . S
C439 C438 1.385 . S
C439 C440 1.389 . S
C440 C439 1.389 . S
C440 C441 1.387 . S
C441 H426 0.930 . S
C441 C436 1.390 . S
C441 C440 1.387 . S
C143 C83 1.426 . S
C131 C11 1.471 . S
C170 C79 1.456 . S
C158 C30 1.457 1_455 S
C197 C104 1.465 . S
C185 C49 1.369 . S
C212 C68 1.348 . S
C224 C100 1.353 . S
C239 C2 1.225 . S
C251 C101 1.216 . S
C278 C116 1.067 . S
C266 C25 1.304 . S
C293 C6 1.781 . S
C305 C117 1.674 . S
C332 C113 1.663 . S
C320 C21 1.814 . S
C359 C80 1.182 1_655 S
C347 C40 1.270 . S
C374 C63 1.289 . S
C386 C95 1.117 . S
C413 C96 1.666 . S
C401 C44 1.782 . S
C440 C92 1.669 . S
C428 C59 1.811 . S
