# Generated by pormake.
# Topology ssa, (4,4)-cn, num edge types: 1
# Building blocks:
#     Node 0, Type 0, BuildingBlock: NAWXER_clean_sbu_0, # of connection points: 4
#     Node 1, Type 0, BuildingBlock: NAWXER_clean_sbu_0, # of connection points: 4
#     Node 2, Type 0, BuildingBlock: NAWXER_clean_sbu_0, # of connection points: 4
#     Node 3, Type 0, BuildingBlock: NAWXER_clean_sbu_0, # of connection points: 4
#     Node 4, Type 0, BuildingBlock: NAWXER_clean_sbu_0, # of connection points: 4
#     Node 5, Type 0, BuildingBlock: NAWXER_clean_sbu_0, # of connection points: 4
#     Node 6, Type 1, BuildingBlock: KUFVIS_clean_linker_0, # of connection points: 4
#     Node 7, Type 1, BuildingBlock: KUFVIS_clean_linker_0, # of connection points: 4
#     Node 8, Type 1, BuildingBlock: KUFVIS_clean_linker_0, # of connection points: 4
#     Node 9, Type 1, BuildingBlock: KUFVIS_clean_linker_0, # of connection points: 4
#     Node 10, Type 1, BuildingBlock: KUFVIS_clean_linker_0, # of connection points: 4
#     Node 11, Type 1, BuildingBlock: KUFVIS_clean_linker_0, # of connection points: 4
#     Edge 12, Type (0, 1), BuildingBlock: MIFKUJ_clean_linker_0, # of connection points: 2
#     Edge 13, Type (0, 1), BuildingBlock: MIFKUJ_clean_linker_0, # of connection points: 2
#     Edge 14, Type (0, 1), BuildingBlock: MIFKUJ_clean_linker_0, # of connection points: 2
#     Edge 15, Type (0, 1), BuildingBlock: MIFKUJ_clean_linker_0, # of connection points: 2
#     Edge 16, Type (0, 1), BuildingBlock: MIFKUJ_clean_linker_0, # of connection points: 2
#     Edge 17, Type (0, 1), BuildingBlock: MIFKUJ_clean_linker_0, # of connection points: 2
#     Edge 18, Type (0, 1), BuildingBlock: MIFKUJ_clean_linker_0, # of connection points: 2
#     Edge 19, Type (0, 1), BuildingBlock: MIFKUJ_clean_linker_0, # of connection points: 2
#     Edge 20, Type (0, 1), BuildingBlock: MIFKUJ_clean_linker_0, # of connection points: 2
#     Edge 21, Type (0, 1), BuildingBlock: MIFKUJ_clean_linker_0, # of connection points: 2
#     Edge 22, Type (0, 1), BuildingBlock: MIFKUJ_clean_linker_0, # of connection points: 2
#     Edge 23, Type (0, 1), BuildingBlock: MIFKUJ_clean_linker_0, # of connection points: 2
#     Edge 24, Type (0, 1), BuildingBlock: MIFKUJ_clean_linker_0, # of connection points: 2
#     Edge 25, Type (0, 1), BuildingBlock: MIFKUJ_clean_linker_0, # of connection points: 2
#     Edge 26, Type (0, 1), BuildingBlock: MIFKUJ_clean_linker_0, # of connection points: 2
#     Edge 27, Type (0, 1), BuildingBlock: MIFKUJ_clean_linker_0, # of connection points: 2
#     Edge 28, Type (0, 1), BuildingBlock: MIFKUJ_clean_linker_0, # of connection points: 2
#     Edge 29, Type (0, 1), BuildingBlock: MIFKUJ_clean_linker_0, # of connection points: 2
#     Edge 30, Type (0, 1), BuildingBlock: MIFKUJ_clean_linker_0, # of connection points: 2
#     Edge 31, Type (0, 1), BuildingBlock: MIFKUJ_clean_linker_0, # of connection points: 2
#     Edge 32, Type (0, 1), BuildingBlock: MIFKUJ_clean_linker_0, # of connection points: 2
#     Edge 33, Type (0, 1), BuildingBlock: MIFKUJ_clean_linker_0, # of connection points: 2
#     Edge 34, Type (0, 1), BuildingBlock: MIFKUJ_clean_linker_0, # of connection points: 2
#     Edge 35, Type (0, 1), BuildingBlock: MIFKUJ_clean_linker_0, # of connection points: 2
# Relax obj value: 0.007
# Max RMSD: 0.057
# Mean RMSD: 0.038
data_MOF--net-ssa--node1-NAWXER_clean_sbu_0--node2-KUFVIS_clean_linker_0--edge1-MIFKUJ_clean_linker_0
_symmetry_space_group_name_H-M    P1
_symmetry_Int_Tables_number       1
_symmetry_cell_setting            triclinic
loop_
_symmetry_equiv_pos_as_xyz
'x, y, z'
_cell_length_a     67.651373
_cell_length_b     67.786142
_cell_length_c     36.733614
_cell_angle_alpha  89.892007
_cell_angle_beta   90.068525
_cell_angle_gamma 119.98047
loop_
_atom_site_label
_atom_site_type_symbol
_atom_site_fract_x
_atom_site_fract_y
_atom_site_fract_z
_atom_type_partial_charge
C0 C 0.03274 0.52859 0.0463 0.0
C1 C 0.9751 0.45643 0.99224 0.0
O2 O 0.01582 0.51254 0.06295 0.0
Zn3 Zn 1.00406 0.4917 0.02154 0.0
O4 O 0.03575 0.52651 0.01245 0.0
Zn5 Zn 0.02066 0.50271 0.96936 0.0
O6 O 0.01157 0.51931 0.93621 0.0
O7 O 0.99178 0.50875 0.98731 0.0
O8 O 0.99028 0.47002 0.96967 0.0
O9 O 0.97697 0.46164 0.02583 0.0
O10 O 0.03094 0.48453 0.01212 0.0
O11 O 0.0455 0.49698 0.95753 0.0
C12 C 0.99566 0.51835 0.95601 0.0
C13 C 0.04557 0.48752 0.98745 0.0
C14 C 0.49382 0.02364 0.54949 0.0
C15 C 0.51851 0.97288 0.49914 0.0
O16 O 0.49506 0.00771 0.5657 0.0
Zn17 Zn 0.50482 0.99713 0.52434 0.0
O18 O 0.49844 0.02709 0.51543 0.0
Zn19 Zn 0.51024 0.01363 0.47306 0.0
O20 O 0.48591 1.00174 0.43746 0.0
O21 O 0.47584 0.98217 0.48872 0.0
O22 O 0.51926 0.98735 0.47581 0.0
O23 O 0.5109 0.97231 0.53096 0.0
O24 O 0.53823 0.02598 0.51559 0.0
O25 O 0.5392 0.0404 0.4612 0.0
C26 C 0.47095 0.98531 0.45627 0.0
C27 C 0.54908 0.04106 0.49104 0.0
C28 C 0.49975 0.47967 0.95908 0.0
C29 C 0.53442 0.55731 0.00701 0.0
O30 O 0.50243 0.49704 0.94145 0.0
Zn31 Zn 0.51746 0.51883 0.98084 0.0
O32 O 0.50688 0.48189 0.99193 0.0
Zn33 Zn 0.52371 0.50747 0.0322 0.0
O34 O 0.50018 0.49632 0.0698 0.0
O35 O 0.49062 0.50768 0.01978 0.0
O36 O 0.53456 0.54297 0.02969 0.0
O37 O 0.52636 0.55074 0.97521 0.0
O38 O 0.54877 0.5184 0.98402 0.0
O39 O 0.55192 0.50645 0.03844 0.0
C40 C 0.48581 0.4995 0.0521 0.0
C41 C 0.55983 0.51304 0.00652 0.0
C42 C 0.03647 0.5326 0.46133 0.0
C43 C 0.98085 0.45308 0.48898 0.0
O44 O 0.03874 0.52663 0.4935 0.0
Zn45 Zn 0.02222 0.49707 0.52757 0.0
O46 O 0.02032 0.5185 0.4411 0.0
Zn47 Zn 0.0078 0.4928 0.4743 0.0
O48 O 0.99191 0.50249 0.51487 0.0
O49 O 0.00902 0.50561 0.56742 0.0
O50 O 0.98221 0.4636 0.45951 0.0
O51 O 0.99472 0.46364 0.51511 0.0
O52 O 0.04713 0.49133 0.53665 0.0
O53 O 0.03497 0.48517 0.47965 0.0
C54 C 0.99353 0.5065 0.54909 0.0
C55 C 0.04847 0.48531 0.50437 0.0
C56 C 0.52379 0.9874 0.05215 0.0
C57 C 0.49722 0.0388 0.01153 0.0
O58 O 0.52293 1.00281 0.07059 0.0
Zn59 Zn 0.51171 0.01424 0.03218 0.0
O60 O 0.51809 0.98478 0.01846 0.0
Zn61 Zn 0.50498 0.99898 0.97955 0.0
O62 O 0.5285 0.01212 0.94241 0.0
O63 O 0.5396 0.0304 0.99465 0.0
O64 O 0.49605 0.02497 0.98673 0.0
O65 O 0.50562 0.03875 0.04249 0.0
O66 O 0.47811 0.98557 0.02427 0.0
O67 O 0.47555 0.97249 0.96843 0.0
C68 C 0.54378 0.02823 0.96131 0.0
C69 C 0.4665 0.97112 -0.00062 0.0
C70 C 0.56379 0.51923 0.49569 0.0
C71 C 0.48664 0.49578 0.45186 0.0
O72 O 0.55057 0.51977 0.52019 0.0
Zn73 Zn 0.5158 0.51197 0.52556 0.0
O74 O 0.55628 0.51286 0.46355 0.0
Zn75 Zn 0.52554 0.50719 0.47228 0.0
O76 O 0.53091 0.54054 0.48314 0.0
O77 O 0.51845 0.54092 0.53862 0.0
O78 O 0.50313 0.49738 0.43296 0.0
O79 O 0.48951 0.50043 0.48586 0.0
O80 O 0.50353 0.48699 0.55999 0.0
O81 O 0.51253 0.47803 0.50726 0.0
C82 C 0.52725 0.55109 0.50881 0.0
C83 C 0.50489 0.47248 0.5398 0.0
H84 H 0.30979 0.46019 0.2486 0.0
H85 H 0.26372 0.47576 0.30325 0.0
H86 H 0.25276 0.45487 0.18965 0.0
H87 H 0.23175 0.47131 0.18866 0.0
H88 H 0.17497 0.46547 0.24895 0.0
H89 H 0.22647 0.45844 0.30494 0.0
C90 C 0.2943 0.46124 0.24802 0.0
C91 C 0.28217 0.4572 0.21557 0.0
C92 C 0.28749 0.46757 0.27946 0.0
C93 C 0.26809 0.46997 0.27874 0.0
C94 C 0.25464 0.46492 0.24665 0.0
C95 C 0.26227 0.45883 0.21483 0.0
C96 C 0.23259 0.46538 0.24688 0.0
C97 C 0.22303 0.46847 0.21442 0.0
C98 C 0.20175 0.46752 0.21489 0.0
C99 C 0.19073 0.46495 0.24827 0.0
C100 C 0.19978 0.46209 0.28077 0.0
C101 C 0.22042 0.46192 0.27983 0.0
H102 H 0.7073 0.1709 0.72911 0.0
H103 H 0.76039 0.22439 0.79149 0.0
H104 H 0.7555 0.23204 0.67495 0.0
H105 H 0.79256 0.25258 0.67786 0.0
H106 H 0.83995 0.31257 0.73494 0.0
H107 H 0.78017 0.26209 0.7905 0.0
C108 C 0.72253 0.18759 0.73017 0.0
C109 C 0.73095 0.2002 0.69815 0.0
C110 C 0.7327 0.19651 0.76379 0.0
C111 C 0.75228 0.21823 0.76535 0.0
C112 C 0.76144 0.23136 0.73324 0.0
C113 C 0.74988 0.22226 0.69989 0.0
C114 C 0.78315 0.25412 0.73408 0.0
C115 C 0.79697 0.26254 0.70257 0.0
C116 C 0.81716 0.28369 0.70268 0.0
C117 C 0.82413 0.29638 0.73482 0.0
C118 C 0.81104 0.28858 0.76667 0.0
C119 C 0.79049 0.26755 0.76611 0.0
H120 H 0.55772 0.70935 0.26033 0.0
H121 H 0.56068 0.76617 0.20451 0.0
H122 H 0.54392 0.75529 0.31958 0.0
H123 H 0.55889 0.79199 0.32217 0.0
H124 H 0.55346 0.84446 0.26661 0.0
H125 H 0.54431 0.78683 0.20605 0.0
C126 C 0.55649 0.72471 0.26088 0.0
C127 C 0.55145 0.73165 0.29366 0.0
C128 C 0.55913 0.73676 0.22862 0.0
C129 C 0.55742 0.75658 0.22948 0.0
C130 C 0.55236 0.76412 0.26236 0.0
C131 C 0.54867 0.75082 0.29413 0.0
C132 C 0.55175 0.78605 0.26383 0.0
C133 C 0.55557 0.79816 0.29708 0.0
C134 C 0.55598 0.81906 0.2981 0.0
C135 C 0.55314 0.82829 0.26594 0.0
C136 C 0.54937 0.81688 0.23296 0.0
C137 C 0.54807 0.7956 0.23187 0.0
H138 H 0.84511 0.52673 0.75147 0.0
H139 H 0.7981 0.54254 0.80362 0.0
H140 H 0.78148 0.50802 0.69927 0.0
H141 H 0.76534 0.53203 0.6933 0.0
H142 H 0.70655 0.52397 0.7506 0.0
H143 H 0.75812 0.51755 0.80875 0.0
C144 C 0.82891 0.52645 0.75138 0.0
C145 C 0.81391 0.51624 0.72236 0.0
C146 C 0.82339 0.5359 0.78059 0.0
C147 C 0.80227 0.53516 0.78085 0.0
C148 C 0.78694 0.52543 0.75125 0.0
C149 C 0.79306 0.51603 0.72188 0.0
C150 C 0.76461 0.52496 0.7511 0.0
C151 C 0.75577 0.52851 0.71842 0.0
C152 C 0.73491 0.52834 0.7182 0.0
C153 C 0.7227 0.52421 0.75077 0.0
C154 C 0.73086 0.52027 0.78348 0.0
C155 C 0.75195 0.5209 0.78358 0.0
H156 H 0.16862 0.70533 0.24741 0.0
H157 H 0.21528 0.76276 0.18364 0.0
H158 H 0.23171 0.755 0.29522 0.0
H159 H 0.25099 0.79367 0.2925 0.0
H160 H 0.30526 0.84212 0.22491 0.0
H161 H 0.25353 0.77984 0.17787 0.0
C162 C 0.18455 0.72138 0.24517 0.0
C163 C 0.19924 0.72917 0.27494 0.0
C164 C 0.19031 0.73327 0.21229 0.0
C165 C 0.21125 0.75359 0.2092 0.0
C166 C 0.22655 0.76208 0.23907 0.0
C167 C 0.22025 0.74949 0.27211 0.0
C168 C 0.24886 0.78393 0.23553 0.0
C169 C 0.25897 0.79833 0.26595 0.0
C170 C 0.2793 0.81926 0.26214 0.0
C171 C 0.28943 0.82605 0.22785 0.0
C172 C 0.28012 0.81194 0.1976 0.0
C173 C 0.26012 0.7908 0.20146 0.0
H174 H 0.48571 0.31282 0.76016 0.0
H175 H 0.49223 0.26359 0.82395 0.0
H176 H 0.47386 0.25094 0.70957 0.0
H177 H 0.49267 0.23101 0.71435 0.0
H178 H 0.47932 0.17294 0.77879 0.0
H179 H 0.47072 0.22558 0.82679 0.0
C180 C 0.48503 0.2965 0.762 0.0
C181 C 0.4795 0.28272 0.73119 0.0
C182 C 0.48932 0.28952 0.79532 0.0
C183 C 0.48842 0.26845 0.79795 0.0
C184 C 0.48304 0.25413 0.76708 0.0
C185 C 0.47861 0.26161 0.73355 0.0
C186 C 0.48178 0.23145 0.77007 0.0
C187 C 0.48716 0.22193 0.73995 0.0
C188 C 0.48628 0.20085 0.74321 0.0
C189 C 0.47987 0.18917 0.77629 0.0
C190 C 0.47449 0.19812 0.80636 0.0
C191 C 0.4754 0.21917 0.80333 0.0
H192 H 0.04279 0.45533 0.03427 0.0
H193 H 0.07442 0.4531 0.06177 0.0
H194 H 0.12183 0.50695 0.99132 0.0
H195 H 0.08992 0.50903 0.96303 0.0
H196 H 0.13496 0.47325 0.00846 0.0
H197 H 0.11536 0.52305 0.06871 0.0
H198 H 0.08933 0.53484 0.09491 0.0
H199 H 0.06608 0.48091 0.17369 0.0
H200 H 0.09169 0.46853 0.14754 0.0
H201 H 0.21949 0.49788 0.15744 0.0
H202 H 0.19776 0.50252 0.10741 0.0
H203 H 0.13608 0.44465 0.14731 0.0
H204 H 0.15751 0.4396 0.19623 0.0
H205 H 0.13627 0.48811 0.14097 0.0
H206 H 0.15513 0.43735 0.07438 0.0
H207 H 0.18213 0.42728 0.04683 0.0
H208 H 0.20967 0.4872 0.97981 0.0
H209 H 0.18302 0.49779 0.00739 0.0
C210 C 0.05986 0.46626 0.02384 0.0
C211 C 0.0639 0.4825 0.99674 0.0
C212 C 0.07794 0.465 0.03963 0.0
C213 C 0.10052 0.48018 0.02912 0.0
C214 C 0.10453 0.49512 -0.00011 0.0
C215 C 0.08629 0.49625 0.98371 0.0
C216 C 0.11953 0.48208 0.05201 0.0
C217 C 0.13555 0.4769 0.0373 0.0
C218 C 0.12047 0.48713 0.08959 0.0
C219 C 0.10535 0.49477 0.10598 0.0
C220 C 0.1046 0.51361 0.09148 0.0
C221 C 0.08992 0.5204 0.10632 0.0
C222 C 0.07602 0.5086 0.1359 0.0
C223 C 0.07684 0.49002 0.15076 0.0
C224 C 0.09146 0.48313 0.13596 0.0
C225 C 0.20141 0.48584 0.15488 0.0
C226 C 0.19013 0.4686 0.18109 0.0
C227 C 0.18903 0.48856 0.12644 0.0
C228 C 0.16528 0.47406 0.12397 0.0
C229 C 0.15434 0.45614 0.14892 0.0
C230 C 0.16662 0.45332 0.17691 0.0
C231 C 0.15111 0.47834 0.0978 0.0
C232 C 0.13599 0.48485 0.11201 0.0
C233 C 0.15137 0.47495 0.05985 0.0
C234 C 0.1673 0.46852 0.04329 0.0
C235 C 0.16711 0.44851 0.05406 0.0
C236 C 0.18231 0.44267 0.03837 0.0
C237 C 0.19767 0.45664 0.01168 0.0
C238 C 0.1978 0.47643 0.00055 0.0
C239 C 0.18265 0.48235 0.01618 0.0
H240 H 0.20941 0.45209 -0.00044 0.0
H241 H 0.06466 0.51387 0.14733 0.0
H242 H 0.57807 0.0413 0.54222 0.0
H243 H 0.6128 0.07403 0.56483 0.0
H244 H 0.60707 0.11674 0.48326 0.0
H245 H 0.57209 0.0837 0.45996 0.0
H246 H 0.65346 0.12779 0.49849 0.0
H247 H 0.58738 0.11777 0.56172 0.0
H248 H 0.55069 0.09637 0.59409 0.0
H249 H 0.5832 0.07852 0.67804 0.0
H250 H 0.62 0.09948 0.64586 0.0
H251 H 0.7143 0.21782 0.64715 0.0
H252 H 0.6876 0.19663 0.59742 0.0
H253 H 0.69367 0.13779 0.62282 0.0
H254 H 0.72041 0.15879 0.67179 0.0
H255 H 0.64625 0.14211 0.62897 0.0
H256 H 0.70991 0.14559 0.55627 0.0
H257 H 0.74647 0.16747 0.52368 0.0
H258 H 0.71785 0.19964 0.45841 0.0
H259 H 0.68119 0.17814 0.49106 0.0
C260 C 0.58437 0.05754 0.52858 0.0
C261 C 0.57218 0.06 0.49963 0.0
C262 C 0.60423 0.07624 0.54156 0.0
C263 C 0.61221 0.09787 0.52619 0.0
C264 C 0.60108 0.10017 0.49557 0.0
C265 C 0.58114 0.08131 0.48231 0.0
C266 C 0.63083 0.118 0.54468 0.0
C267 C 0.65178 0.13121 0.52682 0.0
C268 C 0.62857 0.12259 0.58157 0.0
C269 C 0.60645 0.11012 0.60123 0.0
C270 C 0.58668 0.10915 0.58695 0.0
C271 C 0.56586 0.0971 0.60528 0.0
C272 C 0.56462 0.08606 0.63808 0.0
C273 C 0.58419 0.08708 0.65263 0.0
C274 C 0.60504 0.09907 0.63437 0.0
C275 C 0.71056 0.20066 0.64113 0.0
C276 C 0.71921 0.18983 0.66341 0.0
C277 C 0.69534 0.18861 0.61283 0.0
C278 C 0.68887 0.16575 0.60643 0.0
C279 C 0.6987 0.1555 0.62711 0.0
C280 C 0.71385 0.16746 0.65516 0.0
C281 C 0.66903 0.15114 0.58328 0.0
C282 C 0.64775 0.13902 0.6004 0.0
C283 C 0.67101 0.14768 0.54589 0.0
C284 C 0.69299 0.16057 0.52646 0.0
C285 C 0.71152 0.15756 0.53531 0.0
C286 C 0.73222 0.16982 0.51674 0.0
C287 C 0.73451 0.18502 0.4891 0.0
C288 C 0.71607 0.18792 0.47989 0.0
C289 C 0.69534 0.1757 0.49841 0.0
H290 H 0.75055 0.19448 0.47473 0.0
H291 H 0.54852 0.07675 0.65228 0.0
H292 H 0.51964 0.5862 0.98356 0.0
H293 H 0.52696 0.62177 0.01254 0.0
H294 H 0.57325 0.61672 0.08791 0.0
H295 H 0.56523 0.58083 0.06007 0.0
H296 H 0.54508 0.62364 0.12402 0.0
H297 H 0.59042 0.65845 0.01685 0.0
H298 H 0.59774 0.6647 0.9509 0.0
H299 H 0.54606 0.68356 0.94148 0.0
H300 H 0.53823 0.67714 0.00733 0.0
H301 H 0.59181 0.72566 0.21465 0.0
H302 H 0.59119 0.70075 0.16609 0.0
H303 H 0.53325 0.70092 0.11741 0.0
H304 H 0.53389 0.72606 0.16612 0.0
H305 H 0.56547 0.69746 0.06551 0.0
H306 H 0.52037 0.66206 0.17312 0.0
H307 H 0.51502 0.65786 0.23965 0.0
H308 H 0.56785 0.64053 0.24778 0.0
H309 H 0.57386 0.64513 0.18132 0.0
C310 C 0.53175 0.59298 0.00581 0.0
C311 C 0.54181 0.58071 0.01965 0.0
C312 C 0.53596 0.61335 0.02236 0.0
C313 C 0.5507 0.62205 0.0525 0.0
C314 C 0.56166 0.61035 0.06494 0.0
C315 C 0.55715 0.58986 0.0489 0.0
C316 C 0.55337 0.64214 0.07324 0.0
C317 C 0.54986 0.63981 0.11107 0.0
C318 C 0.55884 0.66315 0.05649 0.0
C319 C 0.56358 0.66709 0.01695 0.0
C320 C 0.5805 0.66376 0.00067 0.0
C321 C 0.58476 0.66737 0.96332 0.0
C322 C 0.57233 0.67446 0.942 0.0
C323 C 0.55565 0.67803 0.95802 0.0
C324 C 0.55131 0.67444 0.99535 0.0
C325 C 0.57944 0.72102 0.19289 0.0
C326 C 0.56274 0.72754 0.19427 0.0
C327 C 0.57912 0.70683 0.16516 0.0
C328 C 0.56196 0.69873 0.13851 0.0
C329 C 0.54664 0.70702 0.13772 0.0
C330 C 0.54703 0.72137 0.16551 0.0
C331 C 0.55783 0.67889 0.11594 0.0
C332 C 0.56078 0.68121 0.07807 0.0
C333 C 0.5519 0.6578 0.13251 0.0
C334 C 0.54769 0.65413 0.17229 0.0
C335 C 0.53093 0.65747 0.18912 0.0
C336 C 0.52778 0.65503 0.22681 0.0
C337 C 0.54112 0.64898 0.24794 0.0
C338 C 0.55755 0.64525 0.23138 0.0
C339 C 0.56083 0.64776 0.1937 0.0
H340 H 0.5387 0.64714 0.27714 0.0
H341 H 0.57565 0.67724 0.91309 0.0
H342 H 0.97692 0.49487 0.61852 0.0
H343 H 0.94267 0.49388 0.64315 0.0
H344 H 0.93539 0.52361 0.54377 0.0
H345 H 0.96923 0.52429 0.51884 0.0
H346 H 0.92894 0.5423 0.61192 0.0
H347 H 0.90553 0.46939 0.55174 0.0
H348 H 0.90761 0.43429 0.54423 0.0
H349 H 0.88675 0.41578 0.65527 0.0
H350 H 0.88493 0.45091 0.66365 0.0
H351 H 0.8237 0.53007 0.6516 0.0
H352 H 0.85024 0.52456 0.6133 0.0
H353 H 0.84981 0.47695 0.69196 0.0
H354 H 0.82256 0.48159 0.72893 0.0
H355 H 0.85978 0.46677 0.63084 0.0
H356 H 0.88721 0.53538 0.69852 0.0
H357 H 0.889 0.57088 0.71878 0.0
H358 H 0.9062 0.59787 0.61026 0.0
H359 H 0.90418 0.56233 0.58924 0.0
C360 C 0.96829 0.50164 0.6023 0.0
C361 C 0.97571 0.50966 0.56679 0.0
C362 C 0.94864 0.50088 0.61623 0.0
C363 C 0.93639 0.50841 0.59503 0.0
C364 C 0.94455 0.51762 0.56044 0.0
C365 C 0.96389 0.51802 0.54629 0.0
C366 C 0.91461 0.50602 0.60815 0.0
C367 C 0.91369 0.52582 0.61551 0.0
C368 C 0.89502 0.48446 0.61409 0.0
C369 C 0.89534 0.46293 0.60843 0.0
C370 C 0.90151 0.4579 0.57461 0.0
C371 C 0.90262 0.43798 0.57019 0.0
C372 C 0.89742 0.42289 0.59933 0.0
C373 C 0.89082 0.42752 0.63278 0.0
C374 C 0.88974 0.44742 0.63736 0.0
C375 C 0.82831 0.51749 0.65951 0.0
C376 C 0.8213 0.50637 0.69322 0.0
C377 C 0.84376 0.5146 0.63799 0.0
C378 C 0.85275 0.50101 0.65046 0.0
C379 C 0.84341 0.48771 0.68183 0.0
C380 C 0.82773 0.49029 0.70293 0.0
C381 C 0.87394 0.50312 0.63444 0.0
C382 C 0.87486 0.4833 0.62669 0.0
C383 C 0.8939 0.52466 0.62972 0.0
C384 C 0.89527 0.5461 0.64221 0.0
C385 C 0.89122 0.54883 0.67893 0.0
C386 C 0.89228 0.56896 0.69055 0.0
C387 C 0.89764 0.5866 0.6658 0.0
C388 C 0.902 0.58416 0.62938 0.0
C389 C 0.9009 0.56403 0.61759 0.0
H390 H 0.89846 0.60218 0.67484 0.0
H391 H 0.89857 0.40765 0.5961 0.0
H392 H 0.44024 0.96878 0.0569 0.0
H393 H 0.40496 0.93595 0.07777 0.0
H394 H 0.40491 0.89765 0.98415 0.0
H395 H 0.44047 0.93077 0.96269 0.0
H396 H 0.36017 0.88931 0.00605 0.0
H397 H 0.42686 0.89233 0.05646 0.0
H398 H 0.46436 0.91239 0.0865 0.0
H399 H 0.43336 0.91993 0.18332 0.0
H400 H 0.39581 0.90127 0.15309 0.0
H401 H 0.30718 0.79791 0.16571 0.0
H402 H 0.33555 0.81814 0.11769 0.0
H403 H 0.3102 0.8649 0.10528 0.0
H404 H 0.28207 0.84478 0.15326 0.0
H405 H 0.36853 0.86188 0.12732 0.0
H406 H 0.32213 0.88778 0.02009 0.0
H407 H 0.28474 0.87074 0.98941 0.0
H408 H 0.27512 0.80386 0.00705 0.0
H409 H 0.31258 0.82049 0.03736 0.0
C410 C 0.43262 0.95352 0.04035 0.0
C411 C 0.44335 0.95228 0.00837 0.0
C412 C 0.4124 0.93478 0.05233 0.0
C413 C 0.40256 0.91428 0.03284 0.0
C414 C 0.41232 0.91333 -0.00038 0.0
C415 C 0.43263 0.93223 0.98745 0.0
C416 C 0.38342 0.89352 0.0493 0.0
C417 C 0.36195 0.88314 0.03242 0.0
C418 C 0.38599 0.88524 0.0834 0.0
C419 C 0.40844 0.89547 0.10233 0.0
C420 C 0.428 0.89839 0.08406 0.0
C421 C 0.44931 0.90954 0.10113 0.0
C422 C 0.45124 0.91724 0.1369 0.0
C423 C 0.43185 0.91392 0.15562 0.0
C424 C 0.41054 0.90317 0.13844 0.0
C425 C 0.30715 0.81194 0.15158 0.0
C426 C 0.29237 0.8197 0.16263 0.0
C427 C 0.32341 0.82357 0.12441 0.0
C428 C 0.32495 0.84298 0.10776 0.0
C429 C 0.30912 0.84977 0.11724 0.0
C430 C 0.29304 0.83828 0.14459 0.0
C431 C 0.34496 0.85815 0.08479 0.0
C432 C 0.36672 0.86762 0.10058 0.0
C433 C 0.34261 0.86556 0.04982 0.0
C434 C 0.32014 0.85541 0.03122 0.0
C435 C 0.31211 0.86945 0.01725 0.0
C436 C 0.29088 0.85985 -5e-05 0.0
C437 C 0.27754 0.83623 0.99635 0.0
C438 C 0.28543 0.82215 0.00996 0.0
C439 C 0.30665 0.83166 0.02726 0.0
H440 H 0.26111 0.82884 0.98297 0.0
H441 H 0.46777 0.92583 0.15005 0.0
H442 H 0.51344 0.44116 0.508 0.0
H443 H 0.50554 0.40444 0.53232 0.0
H444 H 0.47428 0.41494 0.62705 0.0
H445 H 0.48275 0.45212 0.60331 0.0
H446 H 0.50271 0.40176 0.64676 0.0
H447 H 0.44278 0.37561 0.55824 0.0
H448 H 0.4261 0.37238 0.49731 0.0
H449 H 0.46582 0.34409 0.45543 0.0
H450 H 0.48298 0.34743 0.51604 0.0
H451 H 0.44518 0.29133 0.71899 0.0
H452 H 0.4469 0.31993 0.67636 0.0
H453 H 0.5055 0.32307 0.62441 0.0
H454 H 0.50457 0.29528 0.66857 0.0
H455 H 0.46406 0.32825 0.5803 0.0
H456 H 0.52474 0.35641 0.67191 0.0
H457 H 0.54047 0.36088 0.7338 0.0
H458 H 0.49843 0.38782 0.77027 0.0
H459 H 0.48128 0.38201 0.70919 0.0
C460 C 0.50467 0.43559 0.53388 0.0
C461 C 0.49872 0.44959 0.55377 0.0
C462 C 0.50005 0.41448 0.54763 0.0
C463 C 0.48905 0.40674 0.5813 0.0
C464 C 0.48276 0.42053 0.60095 0.0
C465 C 0.48759 0.44178 0.58737 0.0
C466 C 0.48549 0.38502 0.59723 0.0
C467 C 0.49402 0.38568 0.63228 0.0
C468 C 0.47468 0.36408 0.57803 0.0
C469 C 0.46433 0.36198 0.54161 0.0
C470 C 0.44809 0.36887 0.53598 0.0
C471 C 0.43852 0.36698 0.50151 0.0
C472 C 0.44494 0.35809 0.4725 0.0
C473 C 0.46089 0.351 0.47792 0.0
C474 C 0.47052 0.35287 0.51233 0.0
C475 C 0.45789 0.29752 0.69759 0.0
C476 C 0.47493 0.29144 0.69722 0.0
C477 C 0.45888 0.31384 0.67334 0.0
C478 C 0.47657 0.32384 0.64781 0.0
C479 C 0.49179 0.31554 0.64414 0.0
C480 C 0.49113 0.29955 0.66909 0.0
C481 C 0.48117 0.34521 0.62968 0.0
C482 C 0.47281 0.34443 0.59447 0.0
C483 C 0.49199 0.36612 0.64877 0.0
C484 C 0.50127 0.36819 0.68611 0.0
C485 C 0.51825 0.36253 0.69337 0.0
C486 C 0.5275 0.36539 0.72832 0.0
C487 C 0.52036 0.37451 0.75599 0.0
C488 C 0.50385 0.38063 0.74885 0.0
C489 C 0.49417 0.37731 0.71419 0.0
H490 H 0.52774 0.37699 0.7829 0.0
H491 H 0.43751 0.35665 0.44583 0.0
H492 H 0.55297 0.98079 0.45307 0.0
H493 H 0.56266 0.95316 0.42889 0.0
H494 H 0.5093 0.90028 0.4939 0.0
H495 H 0.5005 0.92837 0.51986 0.0
H496 H 0.54292 0.89212 0.48942 0.0
H497 H 0.50245 0.91131 0.40348 0.0
H498 H 0.49445 0.93645 0.36533 0.0
H499 H 0.55628 0.95748 0.30542 0.0
H500 H 0.5653 0.93338 0.34434 0.0
H501 H 0.52811 0.80452 0.35757 0.0
H502 H 0.52493 0.82932 0.4031 0.0
H503 H 0.58521 0.88704 0.35905 0.0
H504 H 0.58838 0.86241 0.31378 0.0
H505 H 0.5458 0.89025 0.35466 0.0
H506 H 0.58587 0.87074 0.44386 0.0
H507 H 0.59191 0.84412 0.48168 0.0
H508 H 0.52648 0.81989 0.5319 0.0
H509 H 0.5199 0.84615 0.49399 0.0
C510 C 0.54355 0.96333 0.4626 0.0
C511 C 0.52584 0.95662 0.488 0.0
C512 C 0.54901 0.94752 0.44866 0.0
C513 C 0.53625 0.92445 0.45868 0.0
C514 C 0.51929 0.91793 0.48552 0.0
C515 C 0.51424 0.93395 0.50029 0.0
C516 C 0.53976 0.9071 0.43947 0.0
C517 C 0.54332 0.89158 0.45993 0.0
C518 C 0.54024 0.90627 0.4009 0.0
C519 C 0.5347 0.92069 0.37722 0.0
C520 C 0.51449 0.92147 0.38246 0.0
C521 C 0.50977 0.93556 0.36069 0.0
C522 C 0.5248 0.94849 0.33292 0.0
C523 C 0.54466 0.94748 0.32698 0.0
C524 C 0.54965 0.93369 0.34902 0.0
C525 C 0.54124 0.8223 0.35883 0.0
C526 C 0.55847 0.83162 0.33227 0.0
C527 C 0.53935 0.83647 0.38466 0.0
C528 C 0.55473 0.86005 0.38418 0.0
C529 C 0.57314 0.86891 0.3598 0.0
C530 C 0.57503 0.85483 0.33413 0.0
C531 C 0.54978 0.87595 0.40456 0.0
C532 C 0.54555 0.89096 0.38415 0.0
C533 C 0.54829 0.87596 0.44292 0.0
C534 C 0.55229 0.86025 0.46581 0.0
C535 C 0.57267 0.85959 0.46272 0.0
C536 C 0.57622 0.8446 0.48423 0.0
C537 C 0.55957 0.83028 0.5091 0.0
C538 C 0.53936 0.83097 0.51259 0.0
C539 C 0.53572 0.84592 0.49113 0.0
H540 H 0.56234 0.81868 0.52573 0.0
H541 H 0.52104 0.9593 0.316 0.0
H542 H 0.57803 0.52328 0.93852 0.0
H543 H 0.61065 0.52153 0.91502 0.0
H544 H 0.62195 0.50118 0.02066 0.0
H545 H 0.58855 0.50229 0.04461 0.0
H546 H 0.65746 0.54737 0.94602 0.0
H547 H 0.62857 0.4698 0.00673 0.0
H548 H 0.59832 0.43061 0.02141 0.0
H549 H 0.57557 0.42038 0.9103 0.0
H550 H 0.60544 0.45968 0.89523 0.0
H551 H 0.74485 0.53888 0.85165 0.0
H552 H 0.72038 0.53524 0.9036 0.0
H553 H 0.66099 0.48825 0.84199 0.0
H554 H 0.68527 0.49116 0.79102 0.0
H555 H 0.65454 0.47557 0.90966 0.0
H556 H 0.68095 0.54699 0.84526 0.0
H557 H 0.71009 0.58447 0.82164 0.0
H558 H 0.73484 0.60653 0.93019 0.0
H559 H 0.70599 0.56903 0.95438 0.0
C560 C 0.58734 0.51842 0.95699 0.0
C561 C 0.58063 0.513 0.99359 0.0
C562 C 0.60599 0.51734 0.94338 0.0
C563 C 0.61853 0.5109 0.96589 0.0
C564 C 0.6122 0.50571 0.0026 0.0
C565 C 0.59328 0.50663 0.01632 0.0
C566 C 0.63872 0.51081 0.95033 0.0
C567 C 0.65721 0.5317 0.93902 0.0
C568 C 0.63812 0.4904 0.9403 0.0
C569 C 0.61889 0.46774 0.95008 0.0
C570 C 0.61679 0.45934 0.98567 0.0
C571 C 0.59986 0.43706 0.99397 0.0
C572 C 0.58513 0.42298 0.96675 0.0
C573 C 0.58707 0.43126 0.9313 0.0
C574 C 0.60389 0.45356 0.92293 0.0
C575 C 0.72662 0.52735 0.84966 0.0
C576 C 0.71693 0.51559 0.81707 0.0
C577 C 0.71264 0.52542 0.87921 0.0
C578 C 0.68876 0.5118 0.87652 0.0
C579 C 0.67931 0.49894 0.84482 0.0
C580 C 0.69321 0.50077 0.81552 0.0
C581 C 0.67321 0.51215 0.9049 0.0
C582 C 0.65544 0.49133 0.91805 0.0
C583 C 0.67425 0.53264 0.91605 0.0
C584 C 0.69156 0.55514 0.90155 0.0
C585 C 0.69273 0.55978 0.86404 0.0
C586 C 0.70917 0.58103 0.85056 0.0
C587 C 0.72436 0.59785 0.87439 0.0
C588 C 0.7231 0.59347 0.91176 0.0
C589 C 0.70672 0.57223 0.92537 0.0
H590 H 0.73707 0.61429 0.8639 0.0
H591 H 0.57211 0.4057 0.97318 0.0
H592 H 0.08114 0.55733 0.48029 0.0
H593 H 0.11016 0.59381 0.45555 0.0
H594 H 0.05918 0.59637 0.38797 0.0
H595 H 0.0304 0.55894 0.41098 0.0
H596 H 0.09278 0.6091 0.34959 0.0
H597 H 0.08567 0.63198 0.46795 0.0
H598 H 0.08377 0.63136 0.535 0.0
H599 H 0.15262 0.64428 0.54108 0.0
H600 H 0.15485 0.64467 0.47404 0.0
H601 H 0.18042 0.73539 0.33611 0.0
H602 H 0.15374 0.70449 0.3763 0.0
H603 H 0.17155 0.65848 0.32439 0.0
H604 H 0.19838 0.68935 0.28484 0.0
H605 H 0.15252 0.67114 0.42448 0.0
H606 H 0.11911 0.61255 0.29525 0.0
H607 H 0.11229 0.6151 0.22983 0.0
H608 H 0.11528 0.67911 0.24757 0.0
H609 H 0.12174 0.6768 0.31305 0.0
C610 C 0.0761 0.56577 0.46032 0.0
C611 C 0.05351 0.55534 0.44756 0.0
C612 C 0.0927 0.58678 0.44639 0.0
C613 C 0.08694 0.59827 0.42031 0.0
C614 C 0.0642 0.58796 0.40801 0.0
C615 C 0.04771 0.56659 0.42119 0.0
C616 C 0.10489 0.62022 0.40418 0.0
C617 C 0.10576 0.62259 0.36615 0.0
C618 C 0.12157 0.63835 0.42559 0.0
C619 C 0.12035 0.63817 0.46594 0.0
C620 C 0.10036 0.63453 0.48358 0.0
C621 C 0.09923 0.63425 0.52158 0.0
C622 C 0.11805 0.63773 0.54228 0.0
C623 C 0.13805 0.64157 0.52501 0.0
C624 C 0.13927 0.64185 0.487 0.0
C625 C 0.17956 0.71901 0.33485 0.0
C626 C 0.19163 0.71475 0.30785 0.0
C627 C 0.16412 0.7013 0.35744 0.0
C628 C 0.16038 0.67912 0.35278 0.0
C629 C 0.17404 0.67543 0.32818 0.0
C630 C 0.1896 0.69312 0.30597 0.0
C631 C 0.14058 0.65938 0.3702 0.0
C632 C 0.13944 0.6575 0.40825 0.0
C633 C 0.12298 0.64213 0.34897 0.0
C634 C 0.12115 0.64458 0.30909 0.0
C635 C 0.11844 0.62723 0.28516 0.0
C636 C 0.11449 0.62856 0.2481 0.0
C637 C 0.1131 0.64713 0.23466 0.0
C638 C 0.11624 0.66468 0.25806 0.0
C639 C 0.12015 0.66341 0.29513 0.0
H640 H 0.10974 0.64796 0.20605 0.0
H641 H 0.11714 0.63751 0.57171 0.0
H642 H 0.4616 0.03154 0.96886 0.0
H643 H 0.45282 0.05998 0.94524 0.0
H644 H 0.5081 0.11199 0.00839 0.0
H645 H 0.51621 0.08316 0.03356 0.0
H646 H 0.4742 0.12139 0.00287 0.0
H647 H 0.51509 0.10008 0.92115 0.0
H648 H 0.52258 0.07387 0.88511 0.0
H649 H 0.46218 0.05435 0.82193 0.0
H650 H 0.45368 0.0796 0.85869 0.0
H651 H 0.49903 0.21087 0.86932 0.0
H652 H 0.49783 0.18471 0.91676 0.0
H653 H 0.43785 0.12979 0.86675 0.0
H654 H 0.43913 0.15583 0.81944 0.0
H655 H 0.47509 0.12341 0.86788 0.0
H656 H 0.4347 0.14543 0.95123 0.0
H657 H 0.42866 0.17264 0.9872 0.0
H658 H 0.49151 0.19378 0.04432 0.0
H659 H 0.4981 0.16692 0.00832 0.0
C660 C 0.47154 0.04895 0.97832 0.0
C661 C 0.48974 0.05527 0.00265 0.0
C662 C 0.46657 0.0652 0.96474 0.0
C663 C 0.48023 0.08824 0.97421 0.0
C664 C 0.49743 0.09434 0.00051 0.0
C665 C 0.50207 0.0779 0.01484 0.0
C666 C 0.47789 0.10597 0.95399 0.0
C667 C 0.47459 0.12197 0.97336 0.0
C668 C 0.47839 0.10673 0.9154 0.0
C669 C 0.4836 0.09159 0.89305 0.0
C670 C 0.50324 0.09002 0.89987 0.0
C671 C 0.50766 0.0753 0.87932 0.0
C672 C 0.4929 0.0625 0.85122 0.0
C673 C 0.47359 0.06426 0.84374 0.0
C674 C 0.4689 0.07869 0.86455 0.0
C675 C 0.48499 0.19348 0.86961 0.0
C676 C 0.46917 0.18527 0.8409 0.0
C677 C 0.48436 0.17852 0.89657 0.0
C678 C 0.46786 0.15527 0.89504 0.0
C679 C 0.45075 0.14765 0.86835 0.0
C680 C 0.45139 0.16253 0.84151 0.0
C681 C 0.47065 0.13832 0.91664 0.0
C682 C 0.47446 0.12268 0.8974 0.0
C683 C 0.47095 0.13817 0.95512 0.0
C684 C 0.467 0.15431 0.9768 0.0
C685 C 0.44734 0.15603 0.97121 0.0
C686 C 0.44379 0.17136 0.99167 0.0
C687 C 0.45972 0.18497 0.01796 0.0
C688 C 0.4792 0.18324 0.02392 0.0
C689 C 0.48284 0.16795 0.00352 0.0
H690 H 0.45694 0.19682 0.03378 0.0
H691 H 0.49644 0.05123 0.83521 0.0
H692 H 0.47798 0.50246 0.38126 0.0
H693 H 0.44223 0.4983 0.35722 0.0
H694 H 0.40979 0.47242 0.46117 0.0
H695 H 0.44549 0.47717 0.48549 0.0
H696 H 0.40062 0.46432 0.34742 0.0
H697 H 0.37098 0.49057 0.47825 0.0
H698 H 0.38791 0.51403 0.53311 0.0
H699 H 0.45117 0.55417 0.47621 0.0
H700 H 0.43442 0.53104 0.42105 0.0
H701 H 0.28776 0.43574 0.32318 0.0
H702 H 0.32028 0.44097 0.35983 0.0
H703 H 0.3532 0.51353 0.34261 0.0
H704 H 0.32057 0.50824 0.30577 0.0
H705 H 0.36268 0.50048 0.41265 0.0
H706 H 0.365 0.48639 0.28399 0.0
H707 H 0.3503 0.46544 0.2263 0.0
H708 H 0.34474 0.40536 0.27549 0.0
H709 H 0.35931 0.42592 0.3335 0.0
C710 C 0.46311 0.49557 0.39875 0.0
C711 C 0.46454 0.49024 0.43526 0.0
C712 C 0.44272 0.49328 0.38507 0.0
C713 C 0.42342 0.48549 0.40763 0.0
C714 C 0.42456 0.47901 0.44351 0.0
C715 C 0.44495 0.48159 0.45729 0.0
C716 C 0.40222 0.48441 0.39386 0.0
C717 C 0.39238 0.47223 0.36179 0.0
C718 C 0.39147 0.4949 0.4124 0.0
C719 C 0.40153 0.509 0.44551 0.0
C720 C 0.38846 0.50447 0.47739 0.0
C721 C 0.39802 0.51768 0.50859 0.0
C722 C 0.42061 0.53555 0.50819 0.0
C723 C 0.43368 0.54029 0.47656 0.0
C724 C 0.42416 0.52714 0.44534 0.0
C725 C 0.30141 0.45287 0.32889 0.0
C726 C 0.30163 0.47163 0.3122 0.0
C727 C 0.32007 0.45584 0.34942 0.0
C728 C 0.33927 0.4776 0.35338 0.0
C729 C 0.33852 0.49661 0.33987 0.0
C730 C 0.31983 0.49362 0.31916 0.0
C731 C 0.36105 0.48004 0.36681 0.0
C732 C 0.37096 0.49249 0.39862 0.0
C733 C 0.37208 0.47006 0.34789 0.0
C734 C 0.36305 0.45763 0.31315 0.0
C735 C 0.36046 0.46866 0.28257 0.0
C736 C 0.35222 0.45687 0.24979 0.0
C737 C 0.34654 0.43407 0.24729 0.0
C738 C 0.34912 0.42301 0.27751 0.0
C739 C 0.35742 0.43473 0.3103 0.0
H740 H 0.34024 0.42496 0.22194 0.0
H741 H 0.42799 0.54573 0.53237 0.0
H742 H 0.94577 0.41623 0.02745 0.0
H743 H 0.91136 0.38336 0.00176 0.0
H744 H 0.92321 0.41905 0.89969 0.0
H745 H 0.95751 0.45133 0.9245 0.0
H746 H 0.87633 0.39783 0.92928 0.0
H747 H 0.93865 0.38254 0.90284 0.0
H748 H 0.96961 0.37552 0.92169 0.0
H749 H 0.92224 0.31839 0.98609 0.0
H750 H 0.89105 0.3253 0.96796 0.0
H751 H 0.82887 0.33446 0.77272 0.0
H752 H 0.84987 0.35862 0.82375 0.0
H753 H 0.83334 0.29912 0.88849 0.0
H754 H 0.81315 0.27471 0.83624 0.0
H755 H 0.87629 0.32716 0.89441 0.0
H756 H 0.81227 0.33679 0.90909 0.0
H757 H 0.78092 0.34357 0.89195 0.0
H758 H 0.82942 0.4105 0.85362 0.0
H759 H 0.86104 0.40397 0.86983 0.0
C760 C 0.941 0.41694 -0.00047 0.0
C761 C 0.95447 0.43622 0.97787 0.0
C762 C 0.92139 0.39824 0.98495 0.0
C763 C 0.91477 0.39887 0.94888 0.0
C764 C 0.928 0.41826 0.9276 0.0
C765 C 0.94772 0.43662 0.94177 0.0
C766 C 0.89445 0.37935 0.93225 0.0
C767 C 0.8762 0.38233 0.9216 0.0
C768 C 0.8939 0.35877 0.92375 0.0
C769 C 0.91262 0.35463 0.93449 0.0
C770 C 0.9349 0.36863 0.92131 0.0
C771 C 0.95247 0.36464 0.93179 0.0
C772 C 0.94792 0.34657 0.95519 0.0
C773 C 0.92576 0.33241 0.96805 0.0
C774 C 0.90813 0.33636 0.95768 0.0
C775 C 0.82945 0.32645 0.79794 0.0
C776 C 0.81957 0.30266 0.80026 0.0
C777 C 0.84126 0.34032 0.8274 0.0
C778 C 0.84308 0.33079 0.86035 0.0
C779 C 0.83217 0.30693 0.86344 0.0
C780 C 0.82045 0.29297 0.83368 0.0
C781 C 0.85841 0.34598 0.88963 0.0
C782 C 0.87583 0.34227 0.90275 0.0
C783 C 0.85805 0.36584 0.90071 0.0
C784 C 0.83906 0.36985 0.89068 0.0
C785 C 0.81626 0.3529 0.89678 0.0
C786 C 0.79843 0.3567 0.88723 0.0
C787 C 0.80317 0.37745 0.8717 0.0
C788 C 0.82576 0.39444 0.86569 0.0
C789 C 0.84365 0.39071 0.87513 0.0
H790 H 0.78934 0.38036 0.86434 0.0
H791 H 0.96154 0.3435 0.96326 0.0
H792 H 0.95758 0.5132 0.9896 0.0
H793 H 0.92979 0.52285 0.9664 0.0
H794 H 0.97051 0.55184 0.87001 0.0
H795 H 0.99862 0.54186 0.89286 0.0
H796 H 0.94861 0.57737 0.90635 0.0
H797 H 0.93218 0.5044 0.85768 0.0
H798 H 0.92625 0.46556 0.86337 0.0
H799 H 0.86931 0.44709 0.9345 0.0
H800 H 0.87526 0.48605 0.92999 0.0
H801 H 0.86722 0.57016 0.77771 0.0
H802 H 0.89771 0.57378 0.81734 0.0
H803 H 0.84769 0.52465 0.89128 0.0
H804 H 0.81709 0.52034 0.85041 0.0
H805 H 0.87464 0.51049 0.87095 0.0
H806 H 0.88814 0.58171 0.91666 0.0
H807 H 0.89437 0.62076 0.9146 0.0
H808 H 0.95568 0.64278 0.85264 0.0
H809 H 0.94967 0.60378 0.85388 0.0
C810 C 0.96092 0.52189 0.96361 0.0
C811 C 0.98031 0.52659 0.94291 0.0
C812 C 0.94497 0.52742 0.9505 0.0
C813 C 0.94809 0.53796 0.91654 0.0
C814 C 0.96791 0.54375 0.89641 0.0
C815 C 0.98386 0.53795 0.90938 0.0
C816 C 0.92953 0.54092 0.90107 0.0
C817 C 0.93249 0.56286 0.89811 0.0
C818 C 0.90829 0.52183 0.89173 0.0
C819 C 0.90437 0.49825 0.89389 0.0
C820 C 0.91855 0.49215 0.87485 0.0
C821 C 0.91517 0.4701 0.87783 0.0
C822 C 0.89749 0.45392 0.89942 0.0
C823 C 0.88306 0.45969 0.91791 0.0
C824 C 0.88643 0.48176 0.91516 0.0
C825 C 0.86274 0.56096 0.80331 0.0
C826 C 0.83987 0.54493 0.81104 0.0
C827 C 0.88021 0.56301 0.82603 0.0
C828 C 0.87511 0.54939 0.85734 0.0
C829 C 0.85208 0.53525 0.86717 0.0
C830 C 0.83456 0.53301 0.84413 0.0
C831 C 0.89348 0.54713 0.87588 0.0
C832 C 0.89057 0.52517 0.8794 0.0
C833 C 0.91465 0.56623 0.88597 0.0
C834 C 0.91835 0.58974 0.88515 0.0
C835 C 0.90286 0.59483 0.90235 0.0
C836 C 0.90637 0.61697 0.90137 0.0
C837 C 0.92538 0.63423 0.88344 0.0
C838 C 0.94096 0.62939 0.86651 0.0
C839 C 0.93752 0.60727 0.86739 0.0
H840 H 0.92807 0.65136 0.88272 0.0
H841 H 0.89496 0.4369 0.90174 0.0
H842 H 0.43295 0.95366 0.49233 0.0
H843 H 0.39699 0.92425 0.46605 0.0
H844 H 0.42214 0.94991 0.3584 0.0
H845 H 0.4582 0.97953 0.38448 0.0
H846 H 0.36435 0.92622 0.42193 0.0
H847 H 0.40379 0.90196 0.30295 0.0
H848 H 0.43899 0.90148 0.28726 0.0
H849 H 0.4524 0.89793 0.40065 0.0
H850 H 0.41707 0.898 0.41701 0.0
H851 H 0.29075 0.86337 0.27309 0.0
H852 H 0.3193 0.89006 0.31605 0.0
H853 H 0.3254 0.83502 0.36319 0.0
H854 H 0.29656 0.80821 0.32046 0.0
H855 H 0.36633 0.87069 0.33638 0.0
H856 H 0.30574 0.86039 0.41493 0.0
H857 H 0.26953 0.85859 0.4312 0.0
H858 H 0.29756 0.92881 0.40116 0.0
H859 H 0.33385 0.93096 0.38419 0.0
C860 C 0.43078 0.9532 0.46306 0.0
C861 C 0.44848 0.9689 0.44047 0.0
C862 C 0.41018 0.93641 0.44813 0.0
C863 C 0.407 0.93477 0.4103 0.0
C864 C 0.42436 0.95078 0.38768 0.0
C865 C 0.4449 0.96776 0.40262 0.0
C866 C 0.3858 0.91586 0.39449 0.0
C867 C 0.36476 0.91407 0.4032 0.0
C868 C 0.38633 0.89979 0.37055 0.0
C869 C 0.40787 0.9002 0.36119 0.0
C870 C 0.41423 0.90105 0.32454 0.0
C871 C 0.43419 0.90082 0.31553 0.0
C872 C 0.44789 0.89965 0.34294 0.0
C873 C 0.44175 0.89885 0.37945 0.0
C874 C 0.42178 0.89903 0.38861 0.0
C875 C 0.29759 0.85689 0.29356 0.0
C876 C 0.29144 0.83379 0.29374 0.0
C877 C 0.3139 0.87212 0.31801 0.0
C878 C 0.3245 0.86452 0.34271 0.0
C879 C 0.31737 0.84119 0.34436 0.0
C880 C 0.30079 0.82588 0.32023 0.0
C881 C 0.34491 0.88129 0.36323 0.0
C882 C 0.36588 0.88276 0.35524 0.0
C883 C 0.34427 0.89698 0.38782 0.0
C884 C 0.32247 0.89578 0.39801 0.0
C885 C 0.30413 0.8754 0.41149 0.0
C886 C 0.2836 0.87433 0.4209 0.0
C887 C 0.28123 0.89356 0.41715 0.0
C888 C 0.29941 0.91392 0.40403 0.0
C889 C 0.31998 0.91508 0.39456 0.0
H890 H 0.26532 0.89269 0.42446 0.0
H891 H 0.46322 0.89927 0.33586 0.0
H892 H 0.47979 0.43888 0.9933 0.0
H893 H 0.47427 0.40304 0.9691 0.0
H894 H 0.4942 0.43327 0.86246 0.0
H895 H 0.49993 0.46957 0.88667 0.0
H896 H 0.45698 0.38278 0.86785 0.0
H897 H 0.53512 0.43784 0.90351 0.0
H898 H 0.56081 0.46629 0.94815 0.0
H899 H 0.53788 0.41454 0.03066 0.0
H900 H 0.51183 0.38581 0.98653 0.0
H901 H 0.52614 0.33095 0.80852 0.0
H902 H 0.52599 0.36074 0.84582 0.0
H903 H 0.45968 0.31198 0.88778 0.0
H904 H 0.45999 0.28206 0.85073 0.0
H905 H 0.51938 0.37158 0.91604 0.0
H906 H 0.42542 0.33838 0.87312 0.0
H907 H 0.39743 0.31312 0.82747 0.0
H908 H 0.452 0.32381 0.75576 0.0
H909 H 0.4801 0.34855 0.80119 0.0
C910 C 0.48239 0.43777 0.96444 0.0
C911 C 0.49065 0.45711 0.94193 0.0
C912 C 0.47914 0.41725 0.95069 0.0
C913 C 0.48413 0.41569 0.91421 0.0
C914 C 0.49024 0.43424 0.89074 0.0
C915 C 0.4935 0.45493 0.90455 0.0
C916 C 0.48645 0.39611 0.90251 0.0
C917 C 0.47047 0.38016 0.87845 0.0
C918 C 0.50426 0.39302 0.91626 0.0
C919 C 0.52147 0.40972 0.9418 0.0
C920 C 0.53558 0.43254 0.93118 0.0
C921 C 0.5501 0.44874 0.95643 0.0
C922 C 0.55081 0.44228 0.99232 0.0
C923 C 0.5372 0.41954 0.0029 0.0
C924 C 0.52263 0.40327 0.97774 0.0
C925 C 0.51213 0.32639 0.82723 0.0
C926 C 0.49313 0.30429 0.82705 0.0
C927 C 0.51197 0.34342 0.84835 0.0
C928 C 0.4926 0.33866 0.86888 0.0
C929 C 0.4747 0.31602 0.87183 0.0
C930 C 0.47496 0.29891 0.85095 0.0
C931 C 0.48961 0.35778 0.88149 0.0
C932 C 0.50562 0.37385 0.9057 0.0
C933 C 0.47182 0.36102 0.8676 0.0
C934 C 0.45493 0.34534 0.84061 0.0
C935 C 0.43142 0.33525 0.84764 0.0
C936 C 0.4155 0.32091 0.82185 0.0
C937 C 0.4229 0.31672 0.78876 0.0
C938 C 0.44621 0.32681 0.78146 0.0
C939 C 0.46215 0.34098 0.80726 0.0
H940 H 0.41057 0.30571 0.76875 0.0
H941 H 0.56207 0.45483 0.01183 0.0
H942 H 0.04612 0.45801 0.4488 0.0
H943 H 0.07592 0.45072 0.42717 0.0
H944 H 0.12013 0.4917 0.51426 0.0
H945 H 0.08999 0.49888 0.53654 0.0
H946 H 0.13955 0.50403 0.44364 0.0
H947 H 0.10311 0.43758 0.51721 0.0
H948 H 0.07063 0.40288 0.54283 0.0
H949 H 0.05353 0.37286 0.43639 0.0
H950 H 0.0857 0.40751 0.41 0.0
H951 H 0.21756 0.48293 0.34626 0.0
H952 H 0.19627 0.48335 0.39998 0.0
H953 H 0.133 0.43695 0.34648 0.0
H954 H 0.15413 0.43575 0.2937 0.0
H955 H 0.12925 0.42777 0.41649 0.0
H956 H 0.15713 0.49615 0.3423 0.0
H957 H 0.187 0.53119 0.31294 0.0
H958 H 0.21766 0.55757 0.41711 0.0
H959 H 0.18809 0.52252 0.44703 0.0
C960 C 0.06205 0.46521 0.46373 0.0
C961 C 0.06577 0.47907 0.49429 0.0
C962 C 0.07902 0.46091 0.45145 0.0
C963 C 0.10017 0.47053 0.46927 0.0
C964 C 0.10384 0.484 0.50032 0.0
C965 C 0.08663 0.48803 0.51304 0.0
C966 C 0.11879 0.46796 0.45296 0.0
C967 C 0.13771 0.48742 0.43865 0.0
C968 C 0.11607 0.44624 0.44585 0.0
C969 C 0.09682 0.42521 0.46161 0.0
C970 C 0.09235 0.42364 0.49921 0.0
C971 C 0.074 0.40396 0.51388 0.0
C972 C 0.06002 0.38569 0.49125 0.0
C973 C 0.06439 0.38703 0.45389 0.0
C974 C 0.08272 0.40667 0.43908 0.0
C975 C 0.19915 0.47236 0.34643 0.0
C976 C 0.18748 0.45963 0.31551 0.0
C977 C 0.18699 0.47275 0.37701 0.0
C978 C 0.16299 0.46056 0.377 0.0
C979 C 0.15148 0.4466 0.34715 0.0
C980 C 0.16358 0.4461 0.3168 0.0
C981 C 0.14956 0.46378 0.40602 0.0
C982 C 0.13156 0.44445 0.42258 0.0
C983 C 0.15288 0.4856 0.41474 0.0
C984 C 0.17062 0.50663 0.39681 0.0
C985 C 0.17035 0.50936 0.35889 0.0
C986 C 0.1872 0.52922 0.34216 0.0
C987 C 0.20427 0.54656 0.36313 0.0
C988 C 0.20447 0.54409 0.4009 0.0
C989 C 0.18768 0.52424 0.41775 0.0
H990 H 0.2173 0.56193 0.35014 0.0
H991 H 0.0458 0.37048 0.50265 0.0
H992 H 0.58173 0.06058 0.99658 0.0
H993 H 0.61695 0.09083 0.96976 0.0
H994 H 0.59113 0.0653 0.86237 0.0
H995 H 0.55571 0.03492 0.88902 0.0
H996 H 0.64978 0.09088 0.92679 0.0
H997 H 0.60824 0.11106 0.80578 0.0
H998 H 0.57216 0.10977 0.78979 0.0
H999 H 0.55978 0.11587 0.90271 0.0
H1000 H 0.59581 0.11732 0.91933 0.0
H1001 H 0.72481 0.15416 0.78072 0.0
H1002 H 0.6964 0.1276 0.82389 0.0
H1003 H 0.68476 0.18108 0.86212 0.0
H1004 H 0.71332 0.20773 0.81883 0.0
H1005 H 0.6458 0.14426 0.8385 0.0
H1006 H 0.70656 0.1579 0.9192 0.0
H1007 H 0.74335 0.16162 0.93744 0.0
H1008 H 0.71843 0.09152 0.91015 0.0
H1009 H 0.68158 0.08746 0.89125 0.0
C1010 C 0.58356 0.06126 0.96723 0.0
C1011 C 0.56584 0.04534 0.94492 0.0
C1012 C 0.60377 0.07856 0.95198 0.0
C1013 C 0.6066 0.08049 0.91408 0.0
C1014 C 0.5892 0.06429 0.89171 0.0
C1015 C 0.56902 0.04685 0.90697 0.0
C1016 C 0.62755 0.09977 0.89804 0.0
C1017 C 0.64893 0.10255 0.90746 0.0
C1018 C 0.6265 0.1153 0.87341 0.0
C1019 C 0.60462 0.1141 0.86379 0.0
C1020 C 0.59781 0.11213 0.82718 0.0
C1021 C 0.57737 0.11136 0.81801 0.0
C1022 C 0.56368 0.11271 0.84522 0.0
C1023 C 0.57036 0.11476 0.88167 0.0
C1024 C 0.59075 0.11548 0.89099 0.0
C1025 C 0.71684 0.16043 0.79942 0.0
C1026 C 0.72132 0.18298 0.79674 0.0
C1027 C 0.70055 0.14524 0.82397 0.0
C1028 C 0.68837 0.15231 0.84616 0.0
C1029 C 0.69396 0.17526 0.84524 0.0
C1030 C 0.71043 0.19054 0.82085 0.0
C1031 C 0.66806 0.13516 0.86669 0.0
C1032 C 0.64672 0.13268 0.85796 0.0
C1033 C 0.66922 0.12008 0.89216 0.0
C1034 C 0.69135 0.12243 0.90354 0.0
C1035 C 0.70898 0.14333 0.9168 0.0
C1036 C 0.72984 0.14548 0.92732 0.0
C1037 C 0.73324 0.12683 0.92489 0.0
C1038 C 0.71578 0.10596 0.912 0.0
C1039 C 0.69489 0.10371 0.90143 0.0
H1040 H 0.7494 0.12853 0.93305 0.0
H1041 H 0.54792 0.11222 0.83803 0.0
H1042 H 0.49868 0.56764 0.52235 0.0
H1043 H 0.50191 0.60279 0.49722 0.0
H1044 H 0.56789 0.62117 0.45268 0.0
H1045 H 0.56431 0.58574 0.47649 0.0
H1046 H 0.5642 0.65892 0.48356 0.0
H1047 H 0.52964 0.59726 0.39918 0.0
H1048 H 0.5023 0.55927 0.37524 0.0
H1049 H 0.44724 0.57252 0.39249 0.0
H1050 H 0.47423 0.61041 0.41756 0.0
H1051 H 0.58246 0.72128 0.32051 0.0
H1052 H 0.57739 0.69526 0.37039 0.0
H1053 H 0.51046 0.68575 0.39152 0.0
H1054 H 0.51557 0.71201 0.34134 0.0
H1055 H 0.51111 0.64529 0.38093 0.0
H1056 H 0.55106 0.71231 0.45393 0.0
H1057 H 0.58207 0.75106 0.4684 0.0
H1058 H 0.63085 0.72818 0.46416 0.0
H1059 H 0.60019 0.68935 0.44914 0.0
C1060 C 0.51414 0.57956 0.50815 0.0
C1061 C 0.53133 0.57417 0.50145 0.0
C1062 C 0.51591 0.59951 0.49366 0.0
C1063 C 0.53513 0.6145 0.47308 0.0
C1064 C 0.553 0.60987 0.46866 0.0
C1065 C 0.55095 0.58968 0.48222 0.0
C1066 C 0.53567 0.63366 0.45283 0.0
C1067 C 0.55256 0.65602 0.46122 0.0
C1068 C 0.52039 0.62978 0.42381 0.0
C1069 C 0.5039 0.60651 0.4109 0.0
C1070 C 0.51165 0.5919 0.39864 0.0
C1071 C 0.49624 0.57043 0.38467 0.0
C1072 C 0.47307 0.56351 0.3823 0.0
C1073 C 0.46521 0.57792 0.39434 0.0
C1074 C 0.48054 0.59936 0.40857 0.0
C1075 C 0.56685 0.71396 0.33628 0.0
C1076 C 0.54937 0.71856 0.32716 0.0
C1077 C 0.56401 0.69922 0.36487 0.0
C1078 C 0.54362 0.68871 0.38485 0.0
C1079 C 0.52638 0.69383 0.37657 0.0
C1080 C 0.52933 0.70885 0.34809 0.0
C1081 C 0.53964 0.67066 0.41157 0.0
C1082 C 0.52224 0.64837 0.40412 0.0
C1083 C 0.55481 0.67461 0.44084 0.0
C1084 C 0.5733 0.69791 0.45024 0.0
C1085 C 0.56841 0.71556 0.45585 0.0
C1086 C 0.58594 0.73754 0.46419 0.0
C1087 C 0.60842 0.74208 0.46716 0.0
C1088 C 0.61342 0.72463 0.46187 0.0
C1089 C 0.59597 0.70262 0.45351 0.0
H1090 H 0.62196 0.75911 0.4736 0.0
H1091 H 0.46124 0.547 0.37097 0.0
H1092 H 0.51128 0.04207 0.6155 0.0
H1093 H 0.51039 0.0739 0.64474 0.0
H1094 H 0.4664 0.07387 0.55938 0.0
H1095 H 0.4689 0.04318 0.52864 0.0
H1096 H 0.49466 0.11403 0.57006 0.0
H1097 H 0.44955 0.05482 0.65562 0.0
H1098 H 0.43976 0.02321 0.69853 0.0
H1099 H 0.49804 0.06671 0.76416 0.0
H1100 H 0.50835 0.09849 0.72144 0.0
H1101 H 0.46306 0.18392 0.67956 0.0
H1102 H 0.46526 0.15557 0.6407 0.0
H1103 H 0.52323 0.16388 0.70237 0.0
H1104 H 0.52105 0.1921 0.74094 0.0
H1105 H 0.48628 0.11973 0.70301 0.0
H1106 H 0.53002 0.17903 0.61557 0.0
H1107 H 0.53703 0.2104 0.57383 0.0
H1108 H 0.47701 0.16542 0.51283 0.0
H1109 H 0.46945 0.13384 0.55453 0.0
C1110 C 0.50104 0.04858 0.60345 0.0
C1111 C 0.48992 0.04003 0.57009 0.0
C1112 C 0.50046 0.06678 0.62025 0.0
C1113 C 0.48799 0.07623 0.6048 0.0
C1114 C 0.47622 0.06706 0.57197 0.0
C1115 C 0.47745 0.04937 0.55454 0.0
C1116 C 0.48834 0.09647 0.62161 0.0
C1117 C 0.49238 0.11498 0.59909 0.0
C1118 C 0.48586 0.09821 0.65963 0.0
C1119 C 0.47982 0.07899 0.68512 0.0
C1120 C 0.46038 0.05759 0.67904 0.0
C1121 C 0.45472 0.03965 0.70338 0.0
C1122 C 0.46828 0.04294 0.73403 0.0
C1123 C 0.48755 0.06418 0.74042 0.0
C1124 C 0.49329 0.08216 0.71617 0.0
C1125 C 0.47686 0.1804 0.68362 0.0
C1126 C 0.49196 0.19019 0.713 0.0
C1127 C 0.47802 0.16411 0.66164 0.0
C1128 C 0.49429 0.15748 0.66892 0.0
C1129 C 0.5105 0.16868 0.69641 0.0
C1130 C 0.50938 0.18492 0.71819 0.0
C1131 C 0.49269 0.137 0.65149 0.0
C1132 C 0.48838 0.11852 0.67396 0.0
C1133 C 0.49447 0.13515 0.61351 0.0
C1134 C 0.49904 0.15413 0.58841 0.0
C1135 C 0.51819 0.17587 0.59346 0.0
C1136 C 0.52229 0.19368 0.56976 0.0
C1137 C 0.50744 0.18992 0.54076 0.0
C1138 C 0.48848 0.16832 0.53534 0.0
C1139 C 0.4843 0.15045 0.55897 0.0
H1140 H 0.51065 0.20373 0.52243 0.0
H1141 H 0.46385 0.02904 0.75286 0.0
H1142 H 0.45862 0.5162 0.03093 0.0
H1143 H 0.42049 0.50535 0.05261 0.0
H1144 H 0.42332 0.45835 0.12878 0.0
H1145 H 0.46197 0.46936 0.1073 0.0
H1146 H 0.38113 0.4406 0.08462 0.0
H1147 H 0.42931 0.50337 0.16332 0.0
H1148 H 0.46047 0.54227 0.17662 0.0
H1149 H 0.42683 0.57015 0.11322 0.0
H1150 H 0.39562 0.53138 0.09913 0.0
H1151 H 0.29194 0.42344 0.20454 0.0
H1152 H 0.3227 0.42678 0.1661 0.0
H1153 H 0.3278 0.48664 0.11536 0.0
H1154 H 0.29724 0.48356 0.15483 0.0
H1155 H 0.36606 0.49747 0.14383 0.0
H1156 H 0.31664 0.43553 0.0671 0.0
H1157 H 0.28553 0.39697 0.05186 0.0
H1158 H 0.32051 0.36768 0.10782 0.0
H1159 H 0.3517 0.40606 0.12384 0.0
C1160 C 0.45124 0.5036 0.05241 0.0
C1161 C 0.46332 0.49364 0.06747 0.0
C1162 C 0.42942 0.49743 0.06473 0.0
C1163 C 0.41911 0.48104 0.09219 0.0
C1164 C 0.43103 0.47099 0.10744 0.0
C1165 C 0.45312 0.47742 0.0954 0.0
C1166 C 0.39595 0.47482 0.10498 0.0
C1167 C 0.37774 0.45286 0.09801 0.0
C1168 C 0.39158 0.49114 0.12118 0.0
C1169 C 0.41024 0.51447 0.12988 0.0
C1170 C 0.42865 0.51779 0.15197 0.0
C1171 C 0.4463 0.53982 0.1597 0.0
C1172 C 0.44566 0.55867 0.14569 0.0
C1173 C 0.42732 0.55553 0.12402 0.0
C1174 C 0.40963 0.53354 0.11618 0.0
C1175 C 0.29884 0.43661 0.18385 0.0
C1176 C 0.29235 0.45332 0.18271 0.0
C1177 C 0.31657 0.4386 0.16191 0.0
C1178 C 0.32796 0.45721 0.13816 0.0
C1179 C 0.31949 0.47228 0.1338 0.0
C1180 C 0.30178 0.47035 0.15595 0.0
C1181 C 0.35076 0.4631 0.1233 0.0
C1182 C 0.36911 0.48509 0.13008 0.0
C1183 C 0.35514 0.44682 0.10661 0.0
C1184 C 0.33646 0.42369 0.09686 0.0
C1185 C 0.31764 0.42087 0.07637 0.0
C1186 C 0.29999 0.39904 0.06756 0.0
C1187 C 0.30102 0.37989 0.07892 0.0
C1188 C 0.31973 0.38253 0.09904 0.0
C1189 C 0.33742 0.40432 0.10794 0.0
H1190 H 0.28734 0.36301 0.07208 0.0
H1191 H 0.45935 0.57571 0.15169 0.0
H1192 H 0.98124 0.4231 0.53737 0.0
H1193 H 0.94931 0.38668 0.55612 0.0
H1194 H 0.90673 0.39273 0.47447 0.0
H1195 H 0.93894 0.42969 0.4556 0.0
H1196 H 0.8876 0.38486 0.54035 0.0
H1197 H 0.91883 0.34925 0.46922 0.0
H1198 H 0.94878 0.34268 0.44391 0.0
H1199 H 0.96277 0.32664 0.55057 0.0
H1200 H 0.93315 0.33343 0.57666 0.0
H1201 H 0.80237 0.28797 0.63541 0.0
H1202 H 0.82605 0.30938 0.58312 0.0
H1203 H 0.88655 0.32286 0.64263 0.0
H1204 H 0.86301 0.30144 0.69462 0.0
H1205 H 0.89008 0.31483 0.57095 0.0
H1206 H 0.86841 0.36029 0.64327 0.0
H1207 H 0.84233 0.371 0.67239 0.0
H1208 H 0.8144 0.37235 0.56799 0.0
H1209 H 0.8401 0.36124 0.53829 0.0
C1210 C 0.96523 0.41649 0.52279 0.0
C1211 C 0.96256 0.4293 0.49511 0.0
C1212 C 0.947 0.39551 0.53335 0.0
C1213 C 0.92564 0.38678 0.51646 0.0
C1214 C 0.92312 0.39906 0.48767 0.0
C1215 C 0.94153 0.4201 0.47683 0.0
C1216 C 0.90562 0.36653 0.53253 0.0
C1217 C 0.8878 0.36927 0.5462 0.0
C1218 C 0.90604 0.34629 0.54049 0.0
C1219 C 0.92375 0.3419 0.52492 0.0
C1220 C 0.92836 0.34444 0.48734 0.0
C1221 C 0.94529 0.34066 0.47284 0.0
C1222 C 0.95768 0.33426 0.49562 0.0
C1223 C 0.95314 0.33157 0.53294 0.0
C1224 C 0.93624 0.33533 0.54759 0.0
C1225 C 0.82068 0.29506 0.6369 0.0
C1226 C 0.83091 0.29324 0.66911 0.0
C1227 C 0.83418 0.30737 0.60714 0.0
C1228 C 0.85808 0.31793 0.60914 0.0
C1229 C 0.86816 0.31488 0.64047 0.0
C1230 C 0.85472 0.30275 0.67022 0.0
C1231 C 0.87288 0.33383 0.58031 0.0
C1232 C 0.88959 0.33017 0.56423 0.0
C1233 C 0.87179 0.35352 0.57074 0.0
C1234 C 0.85582 0.35945 0.58864 0.0
C1235 C 0.85644 0.36248 0.62659 0.0
C1236 C 0.84179 0.36872 0.64318 0.0
C1237 C 0.82663 0.37223 0.62208 0.0
C1238 C 0.82609 0.36953 0.58432 0.0
C1239 C 0.84067 0.36323 0.5676 0.0
H1240 H 0.81536 0.37715 0.63496 0.0
H1241 H 0.97079 0.33137 0.48434 0.0
H1242 H 0.54373 0.96534 0.02101 0.0
H1243 H 0.54875 0.93505 0.04756 0.0
H1244 H 0.51912 0.94075 0.14824 0.0
H1245 H 0.51526 0.97195 0.12228 0.0
H1246 H 0.55093 0.93299 0.16453 0.0
H1247 H 0.48758 0.89595 0.0839 0.0
H1248 H 0.46664 0.88967 0.02597 0.0
H1249 H 0.5152 0.87655 0.97203 0.0
H1250 H 0.53652 0.88313 0.02957 0.0
H1251 H 0.51039 0.80816 0.19793 0.0
H1252 H 0.50599 0.83578 0.16042 0.0
H1253 H 0.579 0.8803 0.1608 0.0
H1254 H 0.58335 0.85274 0.19804 0.0
H1255 H 0.52287 0.86105 0.09513 0.0
H1256 H 0.58759 0.93239 0.19115 0.0
H1257 H 0.602 0.93632 0.25403 0.0
H1258 H 0.54022 0.87607 0.28566 0.0
H1259 H 0.52528 0.87203 0.22321 0.0
C1260 C 0.53861 0.96033 0.04899 0.0
C1261 C 0.52917 0.97101 0.06964 0.0
C1262 C 0.54125 0.94284 0.06404 0.0
C1263 C 0.5338 0.93514 0.09966 0.0
C1264 C 0.52499 0.9463 0.1207 0.0
C1265 C 0.52285 0.96419 0.1059 0.0
C1266 C 0.53498 0.91533 0.11477 0.0
C1267 C 0.54483 0.91733 0.14923 0.0
C1268 C 0.52649 0.89454 0.09542 0.0
C1269 C 0.51373 0.89035 0.06082 0.0
C1270 C 0.49384 0.89196 0.05953 0.0
C1271 C 0.48191 0.8883 0.02683 0.0
C1272 C 0.48964 0.8828 0.9953 0.0
C1273 C 0.50926 0.88086 0.99646 0.0
C1274 C 0.52125 0.88454 0.02911 0.0
C1275 C 0.52549 0.82331 0.18833 0.0
C1276 C 0.54721 0.82833 0.20035 0.0
C1277 C 0.52299 0.83915 0.16722 0.0
C1278 C 0.54216 0.86021 0.15846 0.0
C1279 C 0.564 0.86422 0.16758 0.0
C1280 C 0.5665 0.8484 0.18846 0.0
C1281 C 0.53931 0.87909 0.14421 0.0
C1282 C 0.52911 0.87685 0.11012 0.0
C1283 C 0.54665 0.89933 0.16452 0.0
C1284 C 0.55546 0.90175 0.20231 0.0
C1285 C 0.57706 0.92002 0.21154 0.0
C1286 C 0.58531 0.92227 0.24713 0.0
C1287 C 0.57207 0.9064 0.27378 0.0
C1288 C 0.5505 0.88831 0.26496 0.0
C1289 C 0.54215 0.88601 0.22945 0.0
H1290 H 0.57849 0.90817 0.30129 0.0
H1291 H 0.4804 0.87997 0.96999 0.0
H1292 H 0.59051 0.50379 0.46488 0.0
H1293 H 0.6264 0.50831 0.48931 0.0
H1294 H 0.62514 0.55107 0.57499 0.0
H1295 H 0.58937 0.54643 0.55114 0.0
H1296 H 0.66917 0.56655 0.54661 0.0
H1297 H 0.60362 0.49691 0.59128 0.0
H1298 H 0.56901 0.4594 0.58326 0.0
H1299 H 0.60812 0.43502 0.52676 0.0
H1300 H 0.64293 0.47255 0.53394 0.0
H1301 H 0.7181 0.55699 0.70844 0.0
H1302 H 0.696 0.55832 0.65705 0.0
H1303 H 0.7072 0.50924 0.59977 0.0
H1304 H 0.72907 0.50749 0.65196 0.0
H1305 H 0.66306 0.49645 0.60016 0.0
H1306 H 0.73053 0.5645 0.56817 0.0
H1307 H 0.76477 0.60209 0.57739 0.0
H1308 H 0.72272 0.62983 0.61009 0.0
H1309 H 0.68822 0.59233 0.6016 0.0
C1310 C 0.59818 0.51453 0.48845 0.0
C1311 C 0.58708 0.52464 0.50626 0.0
C1312 C 0.61861 0.51703 0.50243 0.0
C1313 C 0.62834 0.52991 0.5341 0.0
C1314 C 0.61796 0.5411 0.55052 0.0
C1315 C 0.59746 0.53834 0.53694 0.0
C1316 C 0.64807 0.53025 0.55243 0.0
C1317 C 0.66794 0.55125 0.55826 0.0
C1318 C 0.64665 0.51018 0.56675 0.0
C1319 C 0.62579 0.4876 0.56269 0.0
C1320 C 0.6048 0.48361 0.57686 0.0
C1321 C 0.58515 0.46235 0.57252 0.0
C1322 C 0.58635 0.44487 0.5544 0.0
C1323 C 0.60721 0.4486 0.5407 0.0
C1324 C 0.6269 0.46986 0.54488 0.0
C1325 C 0.71618 0.54675 0.68465 0.0
C1326 C 0.72519 0.53203 0.68428 0.0
C1327 C 0.70368 0.54766 0.65511 0.0
C1328 C 0.70003 0.53401 0.6243 0.0
C1329 C 0.70985 0.51998 0.62317 0.0
C1330 C 0.72247 0.51911 0.65284 0.0
C1331 C 0.6841 0.53292 0.59533 0.0
C1332 C 0.66478 0.51174 0.58762 0.0
C1333 C 0.68606 0.55286 0.57932 0.0
C1334 C 0.70676 0.57553 0.58437 0.0
C1335 C 0.72857 0.57857 0.57755 0.0
C1336 C 0.74804 0.59988 0.58262 0.0
C1337 C 0.74592 0.61833 0.59435 0.0
C1338 C 0.72433 0.61552 0.60098 0.0
C1339 C 0.70481 0.59425 0.59598 0.0
H1340 H 0.76102 0.63481 0.59826 0.0
H1341 H 0.57113 0.42841 0.55108 0.0
H1342 H 0.02579 0.54947 0.10518 0.0
H1343 H 0.0528 0.58746 0.12947 0.0
H1344 H 0.10368 0.5934 0.05266 0.0
H1345 H 0.07702 0.55588 0.02842 0.0
H1346 H 0.12148 0.60871 0.12089 0.0
H1347 H 0.07305 0.61775 0.03357 0.0
H1348 H 0.03605 0.61014 0.00855 0.0
H1349 H 0.02173 0.63441 0.10734 0.0
H1350 H 0.05853 0.64185 0.13316 0.0
H1351 H 0.20054 0.72219 0.14635 0.0
H1352 H 0.17311 0.69064 0.10836 0.0
H1353 H 0.11777 0.68645 0.17267 0.0
H1354 H 0.14496 0.71858 0.20914 0.0
H1355 H 0.10216 0.67006 0.10925 0.0
H1356 H 0.15199 0.66292 0.19586 0.0
H1357 H 0.18796 0.66877 0.22187 0.0
H1358 H 0.20007 0.64026 0.12596 0.0
H1359 H 0.16405 0.6343 0.09919 0.0
C1360 C 0.04285 0.5588 0.09396 0.0
C1361 C 0.04925 0.54988 0.06472 0.0
C1362 C 0.05818 0.58049 0.10764 0.0
C1363 C 0.08013 0.59332 0.09248 0.0
C1364 C 0.08683 0.58385 0.06461 0.0
C1365 C 0.07152 0.56244 0.05071 0.0
C1366 C 0.09601 0.617 0.10431 0.0
C1367 C 0.11742 0.62222 0.11806 0.0
C1368 C 0.09046 0.63446 0.10101 0.0
C1369 C 0.06842 0.63013 0.08543 0.0
C1370 C 0.06193 0.62129 0.05007 0.0
C1371 C 0.04101 0.61703 0.03572 0.0
C1372 C 0.02652 0.62173 0.05638 0.0
C1373 C 0.03295 0.63075 0.09139 0.0
C1374 C 0.05384 0.635 0.10589 0.0
C1375 C 0.18245 0.71537 0.15093 0.0
C1376 C 0.17481 0.72239 0.18109 0.0
C1377 C 0.16679 0.69712 0.12959 0.0
C1378 C 0.14349 0.68547 0.13889 0.0
C1379 C 0.13568 0.69481 0.16542 0.0
C1380 C 0.15124 0.71325 0.18623 0.0
C1381 C 0.12788 0.66197 0.12572 0.0
C1382 C 0.10641 0.65667 0.11194 0.0
C1383 C 0.13337 0.64438 0.12924 0.0
C1384 C 0.15519 0.64817 0.14542 0.0
C1385 C 0.16217 0.65778 0.18029 0.0
C1386 C 0.18266 0.6612 0.19516 0.0
C1387 C 0.19631 0.65489 0.17559 0.0
C1388 C 0.18948 0.64515 0.14109 0.0
C1389 C 0.16901 0.64175 0.12606 0.0
H1390 H 0.21218 0.65755 0.18715 0.0
H1391 H 0.01033 0.61843 0.04523 0.0
loop_
_geom_bond_atom_site_label_1
_geom_bond_atom_site_label_2
_geom_bond_distance
_geom_bond_site_symmetry_2
_ccdc_geom_bond_type
C0 O2 1.247 . S
C0 O4 1.260 . S
C1 O8 1.247 . S
C1 O9 1.258 1_556 S
O2 C0 1.247 . S
O2 Zn3 2.028 1_455 S
Zn3 O2 2.028 1_655 S
Zn3 O7 2.035 . S
Zn3 O9 2.035 . S
Zn3 O10 2.028 1_655 S
O4 C0 1.260 . S
O4 Zn5 2.034 1_554 S
Zn5 O4 2.034 1_556 S
Zn5 O6 2.028 1_455 S
Zn5 O8 2.028 1_455 S
Zn5 O11 2.034 1_556 S
O6 Zn5 2.028 1_655 S
O6 C12 1.247 . S
O7 Zn3 2.035 . S
O7 C12 1.258 1_554 S
O8 C1 1.247 . S
O8 Zn5 2.028 1_655 S
O9 C1 1.258 1_554 S
O9 Zn3 2.035 . S
O10 Zn3 2.028 1_455 S
O10 C13 1.247 . S
O11 Zn5 2.034 1_554 S
O11 C13 1.260 . S
C12 O6 1.247 . S
C12 O7 1.258 1_556 S
C13 O10 1.247 . S
C13 O11 1.260 . S
C14 O16 1.247 . S
C14 O18 1.258 . S
C15 O22 1.247 . S
C15 O23 1.258 . S
O16 C14 1.247 . S
O16 Zn17 2.028 1_545 S
Zn17 O16 2.028 1_565 S
Zn17 O21 2.035 . S
Zn17 O23 2.035 . S
Zn17 O24 2.028 1_565 S
O18 C14 1.258 . S
O18 Zn19 2.035 . S
Zn19 O18 2.035 . S
Zn19 O20 2.028 1_545 S
Zn19 O22 2.028 1_545 S
Zn19 O25 2.035 . S
O20 Zn19 2.028 1_565 S
O20 C26 1.247 . S
O21 Zn17 2.035 . S
O21 C26 1.258 . S
O22 C15 1.247 . S
O22 Zn19 2.028 1_565 S
O23 C15 1.258 . S
O23 Zn17 2.035 . S
O24 Zn17 2.028 1_545 S
O24 C27 1.247 . S
O25 Zn19 2.035 . S
O25 C27 1.258 . S
C26 O20 1.247 . S
C26 O21 1.258 . S
C27 O24 1.247 . S
C27 O25 1.258 . S
C28 O30 1.247 . S
C28 O32 1.258 1_556 S
C29 O36 1.247 . S
C29 O37 1.260 . S
O30 C28 1.247 . S
O30 Zn31 2.028 . S
Zn31 O30 2.028 . S
Zn31 O35 2.034 1_556 S
Zn31 O37 2.034 1_556 S
Zn31 O38 2.028 . S
O32 C28 1.258 1_554 S
O32 Zn33 2.035 . S
Zn33 O32 2.035 . S
Zn33 O34 2.028 . S
Zn33 O36 2.028 . S
Zn33 O39 2.035 . S
O34 Zn33 2.028 . S
O34 C40 1.247 . S
O35 Zn31 2.034 1_554 S
O35 C40 1.260 . S
O36 C29 1.247 . S
O36 Zn33 2.028 . S
O37 C29 1.260 . S
O37 Zn31 2.034 1_554 S
O38 Zn31 2.028 . S
O38 C41 1.247 . S
O39 Zn33 2.035 . S
O39 C41 1.258 1_554 S
C40 O34 1.247 . S
C40 O35 1.260 . S
C41 O38 1.247 . S
C41 O39 1.258 1_556 S
C42 O44 1.247 . S
C42 O46 1.258 . S
C43 O50 1.247 . S
C43 O51 1.258 . S
O44 C42 1.247 . S
O44 Zn45 2.028 . S
Zn45 O44 2.028 . S
Zn45 O49 2.035 1_455 S
Zn45 O51 2.035 1_455 S
Zn45 O52 2.028 . S
O46 C42 1.258 . S
O46 Zn47 2.035 1_455 S
Zn47 O46 2.035 1_655 S
Zn47 O48 2.028 . S
Zn47 O50 2.028 . S
Zn47 O53 2.035 1_655 S
O48 Zn47 2.028 . S
O48 C54 1.247 . S
O49 Zn45 2.035 1_655 S
O49 C54 1.258 . S
O50 C43 1.247 . S
O50 Zn47 2.028 . S
O51 C43 1.258 . S
O51 Zn45 2.035 1_655 S
O52 Zn45 2.028 . S
O52 C55 1.247 . S
O53 Zn47 2.035 1_455 S
O53 C55 1.258 . S
C54 O48 1.247 . S
C54 O49 1.258 . S
C55 O52 1.247 . S
C55 O53 1.258 . S
C56 O58 1.247 . S
C56 O60 1.258 . S
C57 O64 1.247 . S
C57 O65 1.258 1_556 S
O58 C56 1.247 . S
O58 Zn59 2.028 1_565 S
Zn59 O58 2.028 1_545 S
Zn59 O63 2.035 . S
Zn59 O65 2.035 . S
Zn59 O66 2.028 1_545 S
O60 C56 1.258 . S
O60 Zn61 2.035 1_554 S
Zn61 O60 2.035 1_556 S
Zn61 O62 2.028 1_565 S
Zn61 O64 2.028 1_565 S
Zn61 O67 2.035 1_556 S
O62 Zn61 2.028 1_545 S
O62 C68 1.247 . S
O63 Zn59 2.035 . S
O63 C68 1.258 1_554 S
O64 C57 1.247 . S
O64 Zn61 2.028 1_545 S
O65 C57 1.258 1_554 S
O65 Zn59 2.035 . S
O66 Zn59 2.028 1_565 S
O66 C69 1.247 . S
O67 Zn61 2.035 1_554 S
O67 C69 1.258 . S
C68 O62 1.247 . S
C68 O63 1.258 1_556 S
C69 O66 1.247 . S
C69 O67 1.258 . S
C70 O72 1.247 . S
C70 O74 1.258 . S
C71 O78 1.247 . S
C71 O79 1.258 . S
O72 C70 1.247 . S
O72 Zn73 2.028 . S
Zn73 O72 2.028 . S
Zn73 O77 2.035 . S
Zn73 O79 2.035 . S
Zn73 O80 2.028 . S
O74 C70 1.258 . S
O74 Zn75 2.035 . S
Zn75 O74 2.035 . S
Zn75 O76 2.028 . S
Zn75 O78 2.028 . S
Zn75 O81 2.035 . S
O76 Zn75 2.028 . S
O76 C82 1.247 . S
O77 Zn73 2.035 . S
O77 C82 1.258 . S
O78 C71 1.247 . S
O78 Zn75 2.028 . S
O79 C71 1.258 . S
O79 Zn73 2.035 . S
O80 Zn73 2.028 . S
O80 C83 1.247 . S
O81 Zn75 2.035 . S
O81 C83 1.258 . S
C82 O76 1.247 . S
C82 O77 1.258 . S
C83 O80 1.247 . S
C83 O81 1.258 . S
H84 C90 0.930 . S
H85 C93 0.931 . S
H86 C95 0.931 . S
H87 C97 0.930 . S
H88 C99 0.930 . S
H89 C101 0.931 . S
C90 H84 0.930 . S
C90 C91 1.380 . S
C90 C92 1.394 . S
C91 C90 1.380 . S
C91 C95 1.382 . S
C92 C90 1.394 . S
C92 C93 1.400 . S
C93 H85 0.931 . S
C93 C92 1.400 . S
C93 C94 1.375 . S
C94 C93 1.375 . S
C94 C95 1.415 . S
C94 C96 1.501 . S
C95 H86 0.931 . S
C95 C91 1.382 . S
C95 C94 1.415 . S
C96 C94 1.501 . S
C96 C97 1.384 . S
C96 C101 1.408 . S
C97 H87 0.930 . S
C97 C96 1.384 . S
C97 C98 1.389 . S
C98 C97 1.389 . S
C98 C99 1.405 . S
C99 H88 0.930 . S
C99 C98 1.405 . S
C99 C100 1.364 . S
C100 C99 1.364 . S
C100 C101 1.400 . S
C101 H89 0.931 . S
C101 C96 1.408 . S
C101 C100 1.400 . S
H102 C108 0.930 . S
H103 C111 0.931 . S
H104 C113 0.931 . S
H105 C115 0.930 . S
H106 C117 0.930 . S
H107 C119 0.931 . S
C108 H102 0.930 . S
C108 C109 1.380 . S
C108 C110 1.394 . S
C109 C108 1.380 . S
C109 C113 1.382 . S
C110 C108 1.394 . S
C110 C111 1.400 . S
C111 H103 0.931 . S
C111 C110 1.400 . S
C111 C112 1.375 . S
C112 C111 1.375 . S
C112 C113 1.415 . S
C112 C114 1.501 . S
C113 H104 0.931 . S
C113 C109 1.382 . S
C113 C112 1.415 . S
C114 C112 1.501 . S
C114 C115 1.384 . S
C114 C119 1.408 . S
C115 H105 0.930 . S
C115 C114 1.384 . S
C115 C116 1.389 . S
C116 C115 1.389 . S
C116 C117 1.405 . S
C117 H106 0.930 . S
C117 C116 1.405 . S
C117 C118 1.364 . S
C118 C117 1.364 . S
C118 C119 1.400 . S
C119 H107 0.931 . S
C119 C114 1.408 . S
C119 C118 1.400 . S
H120 C126 0.930 . S
H121 C129 0.931 . S
H122 C131 0.931 . S
H123 C133 0.930 . S
H124 C135 0.930 . S
H125 C137 0.931 . S
C126 H120 0.930 . S
C126 C127 1.380 . S
C126 C128 1.394 . S
C127 C126 1.380 . S
C127 C131 1.382 . S
C128 C126 1.394 . S
C128 C129 1.400 . S
C129 H121 0.931 . S
C129 C128 1.400 . S
C129 C130 1.375 . S
C130 C129 1.375 . S
C130 C131 1.415 . S
C130 C132 1.501 . S
C131 H122 0.931 . S
C131 C127 1.382 . S
C131 C130 1.415 . S
C132 C130 1.501 . S
C132 C133 1.384 . S
C132 C137 1.408 . S
C133 H123 0.930 . S
C133 C132 1.384 . S
C133 C134 1.389 . S
C134 C133 1.389 . S
C134 C135 1.405 . S
C135 H124 0.930 . S
C135 C134 1.405 . S
C135 C136 1.364 . S
C136 C135 1.364 . S
C136 C137 1.400 . S
C137 H125 0.931 . S
C137 C132 1.408 . S
C137 C136 1.400 . S
H138 C144 0.930 . S
H139 C147 0.931 . S
H140 C149 0.931 . S
H141 C151 0.930 . S
H142 C153 0.930 . S
H143 C155 0.931 . S
C144 H138 0.930 . S
C144 C145 1.380 . S
C144 C146 1.394 . S
C145 C144 1.380 . S
C145 C149 1.382 . S
C146 C144 1.394 . S
C146 C147 1.400 . S
C147 H139 0.931 . S
C147 C146 1.400 . S
C147 C148 1.375 . S
C148 C147 1.375 . S
C148 C149 1.415 . S
C148 C150 1.501 . S
C149 H140 0.931 . S
C149 C145 1.382 . S
C149 C148 1.415 . S
C150 C148 1.501 . S
C150 C151 1.384 . S
C150 C155 1.408 . S
C151 H141 0.930 . S
C151 C150 1.384 . S
C151 C152 1.389 . S
C152 C151 1.389 . S
C152 C153 1.405 . S
C153 H142 0.930 . S
C153 C152 1.405 . S
C153 C154 1.364 . S
C154 C153 1.364 . S
C154 C155 1.400 . S
C155 H143 0.931 . S
C155 C150 1.408 . S
C155 C154 1.400 . S
H156 C162 0.930 . S
H157 C165 0.931 . S
H158 C167 0.931 . S
H159 C169 0.930 . S
H160 C171 0.930 . S
H161 C173 0.931 . S
C162 H156 0.930 . S
C162 C163 1.380 . S
C162 C164 1.394 . S
C163 C162 1.380 . S
C163 C167 1.382 . S
C164 C162 1.394 . S
C164 C165 1.400 . S
C165 H157 0.931 . S
C165 C164 1.400 . S
C165 C166 1.375 . S
C166 C165 1.375 . S
C166 C167 1.415 . S
C166 C168 1.501 . S
C167 H158 0.931 . S
C167 C163 1.382 . S
C167 C166 1.415 . S
C168 C166 1.501 . S
C168 C169 1.384 . S
C168 C173 1.408 . S
C169 H159 0.930 . S
C169 C168 1.384 . S
C169 C170 1.389 . S
C170 C169 1.389 . S
C170 C171 1.405 . S
C171 H160 0.930 . S
C171 C170 1.405 . S
C171 C172 1.364 . S
C172 C171 1.364 . S
C172 C173 1.400 . S
C173 H161 0.931 . S
C173 C168 1.408 . S
C173 C172 1.400 . S
H174 C180 0.930 . S
H175 C183 0.931 . S
H176 C185 0.931 . S
H177 C187 0.930 . S
H178 C189 0.930 . S
H179 C191 0.931 . S
C180 H174 0.930 . S
C180 C181 1.380 . S
C180 C182 1.394 . S
C181 C180 1.380 . S
C181 C185 1.382 . S
C182 C180 1.394 . S
C182 C183 1.400 . S
C183 H175 0.931 . S
C183 C182 1.400 . S
C183 C184 1.375 . S
C184 C183 1.375 . S
C184 C185 1.415 . S
C184 C186 1.501 . S
C185 H176 0.931 . S
C185 C181 1.382 . S
C185 C184 1.415 . S
C186 C184 1.501 . S
C186 C187 1.384 . S
C186 C191 1.408 . S
C187 H177 0.930 . S
C187 C186 1.384 . S
C187 C188 1.389 . S
C188 C187 1.389 . S
C188 C189 1.405 . S
C189 H178 0.930 . S
C189 C188 1.405 . S
C189 C190 1.364 . S
C190 C189 1.364 . S
C190 C191 1.400 . S
C191 H179 0.931 . S
C191 C186 1.408 . S
C191 C190 1.400 . S
H192 C210 0.951 . S
H193 C212 0.951 . S
H194 C214 0.950 . S
H195 C215 0.950 . S
H196 C217 0.950 . S
H197 C220 0.950 . S
H198 C221 0.950 . S
H199 C223 0.950 . S
H200 C224 0.950 . S
H201 C225 0.951 . S
H202 C227 0.951 . S
H203 C229 0.950 . S
H204 C230 0.950 . S
H205 C232 0.950 . S
H206 C235 0.950 . S
H207 C236 0.950 . S
H208 C238 0.950 . S
H209 C239 0.950 . S
C210 H192 0.951 . S
C210 C211 1.366 . S
C210 C212 1.388 . S
C211 C210 1.366 . S
C211 C215 1.385 . S
C212 H193 0.951 . S
C212 C210 1.388 . S
C212 C213 1.366 . S
C213 C212 1.366 . S
C213 C214 1.414 . S
C213 C216 1.499 . S
C214 H194 0.950 . S
C214 C213 1.414 . S
C214 C215 1.374 . S
C215 H195 0.950 . S
C215 C211 1.385 . S
C215 C214 1.374 . S
C216 C213 1.499 . S
C216 C217 1.373 . S
C216 C218 1.389 . S
C217 H196 0.950 . S
C217 C216 1.373 . S
C217 C233 1.377 . S
C218 C216 1.389 . S
C218 C219 1.524 . S
C218 C232 1.377 . S
C219 C218 1.524 . S
C219 C220 1.397 . S
C219 C224 1.363 . S
C220 H197 0.950 . S
C220 C219 1.397 . S
C220 C221 1.334 . S
C221 H198 0.950 . S
C221 C220 1.334 . S
C221 C222 1.287 . S
C222 C221 1.287 . S
C222 C223 1.524 . S
C222 H241 0.913 . S
C223 H199 0.950 . S
C223 C222 1.524 . S
C223 C224 1.415 . S
C224 H200 0.950 . S
C224 C219 1.363 . S
C224 C223 1.415 . S
C225 H201 0.951 . S
C225 C226 1.366 . S
C225 C227 1.388 . S
C226 C225 1.366 . S
C226 C230 1.385 . S
C227 H202 0.951 . S
C227 C225 1.388 . S
C227 C228 1.366 . S
C228 C227 1.366 . S
C228 C229 1.414 . S
C228 C231 1.499 . S
C229 H203 0.950 . S
C229 C228 1.414 . S
C229 C230 1.374 . S
C230 H204 0.950 . S
C230 C226 1.385 . S
C230 C229 1.374 . S
C231 C228 1.499 . S
C231 C232 1.373 . S
C231 C233 1.389 . S
C232 H205 0.950 . S
C232 C218 1.377 . S
C232 C231 1.373 . S
C233 C217 1.377 . S
C233 C231 1.389 . S
C233 C234 1.524 . S
C234 C233 1.524 . S
C234 C235 1.397 . S
C234 C239 1.363 . S
C235 H206 0.950 . S
C235 C234 1.397 . S
C235 C236 1.334 . S
C236 H207 0.950 . S
C236 C235 1.334 . S
C236 C237 1.287 . S
C237 C236 1.287 . S
C237 C238 1.524 . S
C237 H240 0.999 . S
C238 H208 0.950 . S
C238 C237 1.524 . S
C238 C239 1.415 . S
C239 H209 0.950 . S
C239 C234 1.363 . S
C239 C238 1.415 . S
H240 C237 0.999 . S
H241 C222 0.913 . S
H242 C260 0.951 . S
H243 C262 0.951 . S
H244 C264 0.950 . S
H245 C265 0.950 . S
H246 C267 0.950 . S
H247 C270 0.950 . S
H248 C271 0.950 . S
H249 C273 0.950 . S
H250 C274 0.950 . S
H251 C275 0.951 . S
H252 C277 0.951 . S
H253 C279 0.950 . S
H254 C280 0.950 . S
H255 C282 0.950 . S
H256 C285 0.950 . S
H257 C286 0.950 . S
H258 C288 0.950 . S
H259 C289 0.950 . S
C260 H242 0.951 . S
C260 C261 1.366 . S
C260 C262 1.388 . S
C261 C260 1.366 . S
C261 C265 1.385 . S
C262 H243 0.951 . S
C262 C260 1.388 . S
C262 C263 1.366 . S
C263 C262 1.366 . S
C263 C264 1.414 . S
C263 C266 1.499 . S
C264 H244 0.950 . S
C264 C263 1.414 . S
C264 C265 1.374 . S
C265 H245 0.950 . S
C265 C261 1.385 . S
C265 C264 1.374 . S
C266 C263 1.499 . S
C266 C267 1.373 . S
C266 C268 1.389 . S
C267 H246 0.950 . S
C267 C266 1.373 . S
C267 C283 1.377 . S
C268 C266 1.389 . S
C268 C269 1.524 . S
C268 C282 1.377 . S
C269 C268 1.524 . S
C269 C270 1.397 . S
C269 C274 1.363 . S
C270 H247 0.950 . S
C270 C269 1.397 . S
C270 C271 1.334 . S
C271 H248 0.950 . S
C271 C270 1.334 . S
C271 C272 1.287 . S
C272 C271 1.287 . S
C272 C273 1.524 . S
C272 H291 0.913 . S
C273 H249 0.950 . S
C273 C272 1.524 . S
C273 C274 1.415 . S
C274 H250 0.950 . S
C274 C269 1.363 . S
C274 C273 1.415 . S
C275 H251 0.951 . S
C275 C276 1.366 . S
C275 C277 1.388 . S
C276 C275 1.366 . S
C276 C280 1.385 . S
C277 H252 0.951 . S
C277 C275 1.388 . S
C277 C278 1.366 . S
C278 C277 1.366 . S
C278 C279 1.414 . S
C278 C281 1.499 . S
C279 H253 0.950 . S
C279 C278 1.414 . S
C279 C280 1.374 . S
C280 H254 0.950 . S
C280 C276 1.385 . S
C280 C279 1.374 . S
C281 C278 1.499 . S
C281 C282 1.373 . S
C281 C283 1.389 . S
C282 H255 0.950 . S
C282 C268 1.377 . S
C282 C281 1.373 . S
C283 C267 1.377 . S
C283 C281 1.389 . S
C283 C284 1.524 . S
C284 C283 1.524 . S
C284 C285 1.397 . S
C284 C289 1.363 . S
C285 H256 0.950 . S
C285 C284 1.397 . S
C285 C286 1.334 . S
C286 H257 0.950 . S
C286 C285 1.334 . S
C286 C287 1.287 . S
C287 C286 1.287 . S
C287 C288 1.524 . S
C287 H290 0.999 . S
C288 H258 0.950 . S
C288 C287 1.524 . S
C288 C289 1.415 . S
C289 H259 0.950 . S
C289 C284 1.363 . S
C289 C288 1.415 . S
H290 C287 0.999 . S
H291 C272 0.913 . S
H292 C310 0.951 . S
H293 C312 0.951 . S
H294 C314 0.950 . S
H295 C315 0.950 . S
H296 C317 0.950 . S
H297 C320 0.950 . S
H298 C321 0.950 . S
H299 C323 0.950 . S
H300 C324 0.950 . S
H301 C325 0.951 . S
H302 C327 0.951 . S
H303 C329 0.950 . S
H304 C330 0.950 . S
H305 C332 0.950 . S
H306 C335 0.950 . S
H307 C336 0.950 . S
H308 C338 0.950 . S
H309 C339 0.950 . S
C310 H292 0.951 . S
C310 C311 1.366 . S
C310 C312 1.388 . S
C311 C310 1.366 . S
C311 C315 1.385 . S
C312 H293 0.951 . S
C312 C310 1.388 . S
C312 C313 1.366 . S
C313 C312 1.366 . S
C313 C314 1.414 . S
C313 C316 1.499 . S
C314 H294 0.950 . S
C314 C313 1.414 . S
C314 C315 1.374 . S
C315 H295 0.950 . S
C315 C311 1.385 . S
C315 C314 1.374 . S
C316 C313 1.499 . S
C316 C317 1.373 . S
C316 C318 1.389 . S
C317 H296 0.950 . S
C317 C316 1.373 . S
C317 C333 1.377 . S
C318 C316 1.389 . S
C318 C319 1.524 . S
C318 C332 1.377 . S
C319 C318 1.524 . S
C319 C320 1.397 . S
C319 C324 1.363 . S
C320 H297 0.950 . S
C320 C319 1.397 . S
C320 C321 1.334 1_554 S
C321 H298 0.950 . S
C321 C320 1.334 1_556 S
C321 C322 1.287 . S
C322 C321 1.287 . S
C322 C323 1.524 . S
C322 H341 0.913 . S
C323 H299 0.950 . S
C323 C322 1.524 . S
C323 C324 1.415 1_556 S
C324 H300 0.950 . S
C324 C319 1.363 . S
C324 C323 1.415 1_554 S
C325 H301 0.951 . S
C325 C326 1.366 . S
C325 C327 1.388 . S
C326 C325 1.366 . S
C326 C330 1.385 . S
C327 H302 0.951 . S
C327 C325 1.388 . S
C327 C328 1.366 . S
C328 C327 1.366 . S
C328 C329 1.414 . S
C328 C331 1.499 . S
C329 H303 0.950 . S
C329 C328 1.414 . S
C329 C330 1.374 . S
C330 H304 0.950 . S
C330 C326 1.385 . S
C330 C329 1.374 . S
C331 C328 1.499 . S
C331 C332 1.373 . S
C331 C333 1.389 . S
C332 H305 0.950 . S
C332 C318 1.377 . S
C332 C331 1.373 . S
C333 C317 1.377 . S
C333 C331 1.389 . S
C333 C334 1.524 . S
C334 C333 1.524 . S
C334 C335 1.397 . S
C334 C339 1.363 . S
C335 H306 0.950 . S
C335 C334 1.397 . S
C335 C336 1.334 . S
C336 H307 0.950 . S
C336 C335 1.334 . S
C336 C337 1.287 . S
C337 C336 1.287 . S
C337 C338 1.524 . S
C337 H340 0.999 . S
C338 H308 0.950 . S
C338 C337 1.524 . S
C338 C339 1.415 . S
C339 H309 0.950 . S
C339 C334 1.363 . S
C339 C338 1.415 . S
H340 C337 0.999 . S
H341 C322 0.913 . S
H342 C360 0.951 . S
H343 C362 0.951 . S
H344 C364 0.950 . S
H345 C365 0.950 . S
H346 C367 0.950 . S
H347 C370 0.950 . S
H348 C371 0.950 . S
H349 C373 0.950 . S
H350 C374 0.950 . S
H351 C375 0.951 . S
H352 C377 0.951 . S
H353 C379 0.950 . S
H354 C380 0.950 . S
H355 C382 0.950 . S
H356 C385 0.950 . S
H357 C386 0.950 . S
H358 C388 0.950 . S
H359 C389 0.950 . S
C360 H342 0.951 . S
C360 C361 1.366 . S
C360 C362 1.388 . S
C361 C360 1.366 . S
C361 C365 1.385 . S
C362 H343 0.951 . S
C362 C360 1.388 . S
C362 C363 1.366 . S
C363 C362 1.366 . S
C363 C364 1.414 . S
C363 C366 1.499 . S
C364 H344 0.950 . S
C364 C363 1.414 . S
C364 C365 1.374 . S
C365 H345 0.950 . S
C365 C361 1.385 . S
C365 C364 1.374 . S
C366 C363 1.499 . S
C366 C367 1.373 . S
C366 C368 1.389 . S
C367 H346 0.950 . S
C367 C366 1.373 . S
C367 C383 1.377 . S
C368 C366 1.389 . S
C368 C369 1.524 . S
C368 C382 1.377 . S
C369 C368 1.524 . S
C369 C370 1.397 . S
C369 C374 1.363 . S
C370 H347 0.950 . S
C370 C369 1.397 . S
C370 C371 1.334 . S
C371 H348 0.950 . S
C371 C370 1.334 . S
C371 C372 1.287 . S
C372 C371 1.287 . S
C372 C373 1.524 . S
C372 H391 0.913 . S
C373 H349 0.950 . S
C373 C372 1.524 . S
C373 C374 1.415 . S
C374 H350 0.950 . S
C374 C369 1.363 . S
C374 C373 1.415 . S
C375 H351 0.951 . S
C375 C376 1.366 . S
C375 C377 1.388 . S
C376 C375 1.366 . S
C376 C380 1.385 . S
C377 H352 0.951 . S
C377 C375 1.388 . S
C377 C378 1.366 . S
C378 C377 1.366 . S
C378 C379 1.414 . S
C378 C381 1.499 . S
C379 H353 0.950 . S
C379 C378 1.414 . S
C379 C380 1.374 . S
C380 H354 0.950 . S
C380 C376 1.385 . S
C380 C379 1.374 . S
C381 C378 1.499 . S
C381 C382 1.373 . S
C381 C383 1.389 . S
C382 H355 0.950 . S
C382 C368 1.377 . S
C382 C381 1.373 . S
C383 C367 1.377 . S
C383 C381 1.389 . S
C383 C384 1.524 . S
C384 C383 1.524 . S
C384 C385 1.397 . S
C384 C389 1.363 . S
C385 H356 0.950 . S
C385 C384 1.397 . S
C385 C386 1.334 . S
C386 H357 0.950 . S
C386 C385 1.334 . S
C386 C387 1.287 . S
C387 C386 1.287 . S
C387 C388 1.524 . S
C387 H390 0.999 . S
C388 H358 0.950 . S
C388 C387 1.524 . S
C388 C389 1.415 . S
C389 H359 0.950 . S
C389 C384 1.363 . S
C389 C388 1.415 . S
H390 C387 0.999 . S
H391 C372 0.913 . S
H392 C410 0.951 . S
H393 C412 0.951 . S
H394 C414 0.950 . S
H395 C415 0.950 . S
H396 C417 0.950 . S
H397 C420 0.950 . S
H398 C421 0.950 . S
H399 C423 0.950 . S
H400 C424 0.950 . S
H401 C425 0.951 . S
H402 C427 0.951 . S
H403 C429 0.950 . S
H404 C430 0.950 . S
H405 C432 0.950 . S
H406 C435 0.950 . S
H407 C436 0.950 . S
H408 C438 0.950 . S
H409 C439 0.950 . S
C410 H392 0.951 . S
C410 C411 1.366 . S
C410 C412 1.388 . S
C411 C410 1.366 . S
C411 C415 1.385 . S
C412 H393 0.951 . S
C412 C410 1.388 . S
C412 C413 1.366 . S
C413 C412 1.366 . S
C413 C414 1.414 . S
C413 C416 1.499 . S
C414 H394 0.950 . S
C414 C413 1.414 . S
C414 C415 1.374 . S
C415 H395 0.950 . S
C415 C411 1.385 . S
C415 C414 1.374 . S
C416 C413 1.499 . S
C416 C417 1.373 . S
C416 C418 1.389 . S
C417 H396 0.950 . S
C417 C416 1.373 . S
C417 C433 1.377 . S
C418 C416 1.389 . S
C418 C419 1.524 . S
C418 C432 1.377 . S
C419 C418 1.524 . S
C419 C420 1.397 . S
C419 C424 1.363 . S
C420 H397 0.950 . S
C420 C419 1.397 . S
C420 C421 1.334 . S
C421 H398 0.950 . S
C421 C420 1.334 . S
C421 C422 1.287 . S
C422 C421 1.287 . S
C422 C423 1.524 . S
C422 H441 0.913 . S
C423 H399 0.950 . S
C423 C422 1.524 . S
C423 C424 1.415 . S
C424 H400 0.950 . S
C424 C419 1.363 . S
C424 C423 1.415 . S
C425 H401 0.951 . S
C425 C426 1.366 . S
C425 C427 1.388 . S
C426 C425 1.366 . S
C426 C430 1.385 . S
C427 H402 0.951 . S
C427 C425 1.388 . S
C427 C428 1.366 . S
C428 C427 1.366 . S
C428 C429 1.414 . S
C428 C431 1.499 . S
C429 H403 0.950 . S
C429 C428 1.414 . S
C429 C430 1.374 . S
C430 H404 0.950 . S
C430 C426 1.385 . S
C430 C429 1.374 . S
C431 C428 1.499 . S
C431 C432 1.373 . S
C431 C433 1.389 . S
C432 H405 0.950 . S
C432 C418 1.377 . S
C432 C431 1.373 . S
C433 C417 1.377 . S
C433 C431 1.389 . S
C433 C434 1.524 . S
C434 C433 1.524 . S
C434 C435 1.397 . S
C434 C439 1.363 . S
C435 H406 0.950 . S
C435 C434 1.397 . S
C435 C436 1.334 . S
C436 H407 0.950 . S
C436 C435 1.334 . S
C436 C437 1.287 . S
C437 C436 1.287 . S
C437 C438 1.524 . S
C437 H440 0.999 . S
C438 H408 0.950 . S
C438 C437 1.524 . S
C438 C439 1.415 . S
C439 H409 0.950 . S
C439 C434 1.363 . S
C439 C438 1.415 . S
H440 C437 0.999 . S
H441 C422 0.913 . S
H442 C460 0.951 . S
H443 C462 0.951 . S
H444 C464 0.950 . S
H445 C465 0.950 . S
H446 C467 0.950 . S
H447 C470 0.950 . S
H448 C471 0.950 . S
H449 C473 0.950 . S
H450 C474 0.950 . S
H451 C475 0.951 . S
H452 C477 0.951 . S
H453 C479 0.950 . S
H454 C480 0.950 . S
H455 C482 0.950 . S
H456 C485 0.950 . S
H457 C486 0.950 . S
H458 C488 0.950 . S
H459 C489 0.950 . S
C460 H442 0.951 . S
C460 C461 1.366 . S
C460 C462 1.388 . S
C461 C460 1.366 . S
C461 C465 1.385 . S
C462 H443 0.951 . S
C462 C460 1.388 . S
C462 C463 1.366 . S
C463 C462 1.366 . S
C463 C464 1.414 . S
C463 C466 1.499 . S
C464 H444 0.950 . S
C464 C463 1.414 . S
C464 C465 1.374 . S
C465 H445 0.950 . S
C465 C461 1.385 . S
C465 C464 1.374 . S
C466 C463 1.499 . S
C466 C467 1.373 . S
C466 C468 1.389 . S
C467 H446 0.950 . S
C467 C466 1.373 . S
C467 C483 1.377 . S
C468 C466 1.389 . S
C468 C469 1.524 . S
C468 C482 1.377 . S
C469 C468 1.524 . S
C469 C470 1.397 . S
C469 C474 1.363 . S
C470 H447 0.950 . S
C470 C469 1.397 . S
C470 C471 1.334 . S
C471 H448 0.950 . S
C471 C470 1.334 . S
C471 C472 1.287 . S
C472 C471 1.287 . S
C472 C473 1.524 . S
C472 H491 0.913 . S
C473 H449 0.950 . S
C473 C472 1.524 . S
C473 C474 1.415 . S
C474 H450 0.950 . S
C474 C469 1.363 . S
C474 C473 1.415 . S
C475 H451 0.951 . S
C475 C476 1.366 . S
C475 C477 1.388 . S
C476 C475 1.366 . S
C476 C480 1.385 . S
C477 H452 0.951 . S
C477 C475 1.388 . S
C477 C478 1.366 . S
C478 C477 1.366 . S
C478 C479 1.414 . S
C478 C481 1.499 . S
C479 H453 0.950 . S
C479 C478 1.414 . S
C479 C480 1.374 . S
C480 H454 0.950 . S
C480 C476 1.385 . S
C480 C479 1.374 . S
C481 C478 1.499 . S
C481 C482 1.373 . S
C481 C483 1.389 . S
C482 H455 0.950 . S
C482 C468 1.377 . S
C482 C481 1.373 . S
C483 C467 1.377 . S
C483 C481 1.389 . S
C483 C484 1.524 . S
C484 C483 1.524 . S
C484 C485 1.397 . S
C484 C489 1.363 . S
C485 H456 0.950 . S
C485 C484 1.397 . S
C485 C486 1.334 . S
C486 H457 0.950 . S
C486 C485 1.334 . S
C486 C487 1.287 . S
C487 C486 1.287 . S
C487 C488 1.524 . S
C487 H490 0.999 . S
C488 H458 0.950 . S
C488 C487 1.524 . S
C488 C489 1.415 . S
C489 H459 0.950 . S
C489 C484 1.363 . S
C489 C488 1.415 . S
H490 C487 0.999 . S
H491 C472 0.913 . S
H492 C510 0.951 . S
H493 C512 0.951 . S
H494 C514 0.950 . S
H495 C515 0.950 . S
H496 C517 0.950 . S
H497 C520 0.950 . S
H498 C521 0.950 . S
H499 C523 0.950 . S
H500 C524 0.950 . S
H501 C525 0.951 . S
H502 C527 0.951 . S
H503 C529 0.950 . S
H504 C530 0.950 . S
H505 C532 0.950 . S
H506 C535 0.950 . S
H507 C536 0.950 . S
H508 C538 0.950 . S
H509 C539 0.950 . S
C510 H492 0.951 . S
C510 C511 1.366 . S
C510 C512 1.388 . S
C511 C510 1.366 . S
C511 C515 1.385 . S
C512 H493 0.951 . S
C512 C510 1.388 . S
C512 C513 1.366 . S
C513 C512 1.366 . S
C513 C514 1.414 . S
C513 C516 1.499 . S
C514 H494 0.950 . S
C514 C513 1.414 . S
C514 C515 1.374 . S
C515 H495 0.950 . S
C515 C511 1.385 . S
C515 C514 1.374 . S
C516 C513 1.499 . S
C516 C517 1.373 . S
C516 C518 1.389 . S
C517 H496 0.950 . S
C517 C516 1.373 . S
C517 C533 1.377 . S
C518 C516 1.389 . S
C518 C519 1.524 . S
C518 C532 1.377 . S
C519 C518 1.524 . S
C519 C520 1.397 . S
C519 C524 1.363 . S
C520 H497 0.950 . S
C520 C519 1.397 . S
C520 C521 1.334 . S
C521 H498 0.950 . S
C521 C520 1.334 . S
C521 C522 1.287 . S
C522 C521 1.287 . S
C522 C523 1.524 . S
C522 H541 0.913 . S
C523 H499 0.950 . S
C523 C522 1.524 . S
C523 C524 1.415 . S
C524 H500 0.950 . S
C524 C519 1.363 . S
C524 C523 1.415 . S
C525 H501 0.951 . S
C525 C526 1.366 . S
C525 C527 1.388 . S
C526 C525 1.366 . S
C526 C530 1.385 . S
C527 H502 0.951 . S
C527 C525 1.388 . S
C527 C528 1.366 . S
C528 C527 1.366 . S
C528 C529 1.414 . S
C528 C531 1.499 . S
C529 H503 0.950 . S
C529 C528 1.414 . S
C529 C530 1.374 . S
C530 H504 0.950 . S
C530 C526 1.385 . S
C530 C529 1.374 . S
C531 C528 1.499 . S
C531 C532 1.373 . S
C531 C533 1.389 . S
C532 H505 0.950 . S
C532 C518 1.377 . S
C532 C531 1.373 . S
C533 C517 1.377 . S
C533 C531 1.389 . S
C533 C534 1.524 . S
C534 C533 1.524 . S
C534 C535 1.397 . S
C534 C539 1.363 . S
C535 H506 0.950 . S
C535 C534 1.397 . S
C535 C536 1.334 . S
C536 H507 0.950 . S
C536 C535 1.334 . S
C536 C537 1.287 . S
C537 C536 1.287 . S
C537 C538 1.524 . S
C537 H540 0.999 . S
C538 H508 0.950 . S
C538 C537 1.524 . S
C538 C539 1.415 . S
C539 H509 0.950 . S
C539 C534 1.363 . S
C539 C538 1.415 . S
H540 C537 0.999 . S
H541 C522 0.913 . S
H542 C560 0.951 . S
H543 C562 0.951 . S
H544 C564 0.950 . S
H545 C565 0.950 . S
H546 C567 0.950 . S
H547 C570 0.950 . S
H548 C571 0.950 . S
H549 C573 0.950 . S
H550 C574 0.950 . S
H551 C575 0.951 . S
H552 C577 0.951 . S
H553 C579 0.950 . S
H554 C580 0.950 . S
H555 C582 0.950 . S
H556 C585 0.950 . S
H557 C586 0.950 . S
H558 C588 0.950 . S
H559 C589 0.950 . S
C560 H542 0.951 . S
C560 C561 1.366 . S
C560 C562 1.388 . S
C561 C560 1.366 . S
C561 C565 1.385 . S
C562 H543 0.951 . S
C562 C560 1.388 . S
C562 C563 1.366 . S
C563 C562 1.366 . S
C563 C564 1.414 . S
C563 C566 1.499 . S
C564 H544 0.950 . S
C564 C563 1.414 . S
C564 C565 1.374 . S
C565 H545 0.950 . S
C565 C561 1.385 . S
C565 C564 1.374 . S
C566 C563 1.499 . S
C566 C567 1.373 . S
C566 C568 1.389 . S
C567 H546 0.950 . S
C567 C566 1.373 . S
C567 C583 1.377 . S
C568 C566 1.389 . S
C568 C569 1.524 . S
C568 C582 1.377 . S
C569 C568 1.524 . S
C569 C570 1.397 . S
C569 C574 1.363 . S
C570 H547 0.950 . S
C570 C569 1.397 . S
C570 C571 1.334 . S
C571 H548 0.950 . S
C571 C570 1.334 . S
C571 C572 1.287 . S
C572 C571 1.287 . S
C572 C573 1.524 . S
C572 H591 0.913 . S
C573 H549 0.950 . S
C573 C572 1.524 . S
C573 C574 1.415 . S
C574 H550 0.950 . S
C574 C569 1.363 . S
C574 C573 1.415 . S
C575 H551 0.951 . S
C575 C576 1.366 . S
C575 C577 1.388 . S
C576 C575 1.366 . S
C576 C580 1.385 . S
C577 H552 0.951 . S
C577 C575 1.388 . S
C577 C578 1.366 . S
C578 C577 1.366 . S
C578 C579 1.414 . S
C578 C581 1.499 . S
C579 H553 0.950 . S
C579 C578 1.414 . S
C579 C580 1.374 . S
C580 H554 0.950 . S
C580 C576 1.385 . S
C580 C579 1.374 . S
C581 C578 1.499 . S
C581 C582 1.373 . S
C581 C583 1.389 . S
C582 H555 0.950 . S
C582 C568 1.377 . S
C582 C581 1.373 . S
C583 C567 1.377 . S
C583 C581 1.389 . S
C583 C584 1.524 . S
C584 C583 1.524 . S
C584 C585 1.397 . S
C584 C589 1.363 . S
C585 H556 0.950 . S
C585 C584 1.397 . S
C585 C586 1.334 . S
C586 H557 0.950 . S
C586 C585 1.334 . S
C586 C587 1.287 . S
C587 C586 1.287 . S
C587 C588 1.524 . S
C587 H590 0.999 . S
C588 H558 0.950 . S
C588 C587 1.524 . S
C588 C589 1.415 . S
C589 H559 0.950 . S
C589 C584 1.363 . S
C589 C588 1.415 . S
H590 C587 0.999 . S
H591 C572 0.913 . S
H592 C610 0.951 . S
H593 C612 0.951 . S
H594 C614 0.950 . S
H595 C615 0.950 . S
H596 C617 0.950 . S
H597 C620 0.950 . S
H598 C621 0.950 . S
H599 C623 0.950 . S
H600 C624 0.950 . S
H601 C625 0.951 . S
H602 C627 0.951 . S
H603 C629 0.950 . S
H604 C630 0.950 . S
H605 C632 0.950 . S
H606 C635 0.950 . S
H607 C636 0.950 . S
H608 C638 0.950 . S
H609 C639 0.950 . S
C610 H592 0.951 . S
C610 C611 1.366 . S
C610 C612 1.388 . S
C611 C610 1.366 . S
C611 C615 1.385 . S
C612 H593 0.951 . S
C612 C610 1.388 . S
C612 C613 1.366 . S
C613 C612 1.366 . S
C613 C614 1.414 . S
C613 C616 1.499 . S
C614 H594 0.950 . S
C614 C613 1.414 . S
C614 C615 1.374 . S
C615 H595 0.950 . S
C615 C611 1.385 . S
C615 C614 1.374 . S
C616 C613 1.499 . S
C616 C617 1.373 . S
C616 C618 1.389 . S
C617 H596 0.950 . S
C617 C616 1.373 . S
C617 C633 1.377 . S
C618 C616 1.389 . S
C618 C619 1.524 . S
C618 C632 1.377 . S
C619 C618 1.524 . S
C619 C620 1.397 . S
C619 C624 1.363 . S
C620 H597 0.950 . S
C620 C619 1.397 . S
C620 C621 1.334 . S
C621 H598 0.950 . S
C621 C620 1.334 . S
C621 C622 1.287 . S
C622 C621 1.287 . S
C622 C623 1.524 . S
C622 H641 0.913 . S
C623 H599 0.950 . S
C623 C622 1.524 . S
C623 C624 1.415 . S
C624 H600 0.950 . S
C624 C619 1.363 . S
C624 C623 1.415 . S
C625 H601 0.951 . S
C625 C626 1.366 . S
C625 C627 1.388 . S
C626 C625 1.366 . S
C626 C630 1.385 . S
C627 H602 0.951 . S
C627 C625 1.388 . S
C627 C628 1.366 . S
C628 C627 1.366 . S
C628 C629 1.414 . S
C628 C631 1.499 . S
C629 H603 0.950 . S
C629 C628 1.414 . S
C629 C630 1.374 . S
C630 H604 0.950 . S
C630 C626 1.385 . S
C630 C629 1.374 . S
C631 C628 1.499 . S
C631 C632 1.373 . S
C631 C633 1.389 . S
C632 H605 0.950 . S
C632 C618 1.377 . S
C632 C631 1.373 . S
C633 C617 1.377 . S
C633 C631 1.389 . S
C633 C634 1.524 . S
C634 C633 1.524 . S
C634 C635 1.397 . S
C634 C639 1.363 . S
C635 H606 0.950 . S
C635 C634 1.397 . S
C635 C636 1.334 . S
C636 H607 0.950 . S
C636 C635 1.334 . S
C636 C637 1.287 . S
C637 C636 1.287 . S
C637 C638 1.524 . S
C637 H640 0.999 . S
C638 H608 0.950 . S
C638 C637 1.524 . S
C638 C639 1.415 . S
C639 H609 0.950 . S
C639 C634 1.363 . S
C639 C638 1.415 . S
H640 C637 0.999 . S
H641 C622 0.913 . S
H642 C660 0.951 . S
H643 C662 0.951 . S
H644 C664 0.950 . S
H645 C665 0.950 . S
H646 C667 0.950 . S
H647 C670 0.950 . S
H648 C671 0.950 . S
H649 C673 0.950 . S
H650 C674 0.950 . S
H651 C675 0.951 . S
H652 C677 0.951 . S
H653 C679 0.950 . S
H654 C680 0.950 . S
H655 C682 0.950 . S
H656 C685 0.950 . S
H657 C686 0.950 . S
H658 C688 0.950 . S
H659 C689 0.950 . S
C660 H642 0.951 . S
C660 C661 1.366 . S
C660 C662 1.388 . S
C661 C660 1.366 . S
C661 C665 1.385 . S
C662 H643 0.951 . S
C662 C660 1.388 . S
C662 C663 1.366 . S
C663 C662 1.366 . S
C663 C664 1.414 . S
C663 C666 1.499 . S
C664 H644 0.950 . S
C664 C663 1.414 . S
C664 C665 1.374 . S
C665 H645 0.950 . S
C665 C661 1.385 . S
C665 C664 1.374 . S
C666 C663 1.499 . S
C666 C667 1.373 . S
C666 C668 1.389 . S
C667 H646 0.950 . S
C667 C666 1.373 . S
C667 C683 1.377 . S
C668 C666 1.389 . S
C668 C669 1.524 . S
C668 C682 1.377 . S
C669 C668 1.524 . S
C669 C670 1.397 . S
C669 C674 1.363 . S
C670 H647 0.950 . S
C670 C669 1.397 . S
C670 C671 1.334 . S
C671 H648 0.950 . S
C671 C670 1.334 . S
C671 C672 1.287 . S
C672 C671 1.287 . S
C672 C673 1.524 . S
C672 H691 0.913 1_545 S
C673 H649 0.950 . S
C673 C672 1.524 . S
C673 C674 1.415 . S
C674 H650 0.950 . S
C674 C669 1.363 . S
C674 C673 1.415 . S
C675 H651 0.951 . S
C675 C676 1.366 . S
C675 C677 1.388 . S
C676 C675 1.366 . S
C676 C680 1.385 . S
C677 H652 0.951 . S
C677 C675 1.388 . S
C677 C678 1.366 . S
C678 C677 1.366 . S
C678 C679 1.414 . S
C678 C681 1.499 . S
C679 H653 0.950 . S
C679 C678 1.414 . S
C679 C680 1.374 . S
C680 H654 0.950 . S
C680 C676 1.385 . S
C680 C679 1.374 . S
C681 C678 1.499 . S
C681 C682 1.373 . S
C681 C683 1.389 . S
C682 H655 0.950 . S
C682 C668 1.377 . S
C682 C681 1.373 . S
C683 C667 1.377 . S
C683 C681 1.389 . S
C683 C684 1.524 . S
C684 C683 1.524 . S
C684 C685 1.397 . S
C684 C689 1.363 . S
C685 H656 0.950 . S
C685 C684 1.397 . S
C685 C686 1.334 . S
C686 H657 0.950 . S
C686 C685 1.334 . S
C686 C687 1.287 . S
C687 C686 1.287 . S
C687 C688 1.524 . S
C687 H690 0.999 . S
C688 H658 0.950 . S
C688 C687 1.524 . S
C688 C689 1.415 . S
C689 H659 0.950 . S
C689 C684 1.363 . S
C689 C688 1.415 . S
H690 C687 0.999 . S
H691 C672 0.913 1_565 S
H692 C710 0.951 . S
H693 C712 0.951 . S
H694 C714 0.950 . S
H695 C715 0.950 . S
H696 C717 0.950 . S
H697 C720 0.950 . S
H698 C721 0.950 . S
H699 C723 0.950 . S
H700 C724 0.950 . S
H701 C725 0.951 . S
H702 C727 0.951 . S
H703 C729 0.950 . S
H704 C730 0.950 . S
H705 C732 0.950 . S
H706 C735 0.950 . S
H707 C736 0.950 . S
H708 C738 0.950 . S
H709 C739 0.950 . S
C710 H692 0.951 . S
C710 C711 1.366 . S
C710 C712 1.388 . S
C711 C710 1.366 . S
C711 C715 1.385 . S
C712 H693 0.951 . S
C712 C710 1.388 . S
C712 C713 1.366 . S
C713 C712 1.366 . S
C713 C714 1.414 . S
C713 C716 1.499 . S
C714 H694 0.950 . S
C714 C713 1.414 . S
C714 C715 1.374 . S
C715 H695 0.950 . S
C715 C711 1.385 . S
C715 C714 1.374 . S
C716 C713 1.499 . S
C716 C717 1.373 . S
C716 C718 1.389 . S
C717 H696 0.950 . S
C717 C716 1.373 . S
C717 C733 1.377 . S
C718 C716 1.389 . S
C718 C719 1.524 . S
C718 C732 1.377 . S
C719 C718 1.524 . S
C719 C720 1.397 . S
C719 C724 1.363 . S
C720 H697 0.950 . S
C720 C719 1.397 . S
C720 C721 1.334 . S
C721 H698 0.950 . S
C721 C720 1.334 . S
C721 C722 1.287 . S
C722 C721 1.287 . S
C722 C723 1.524 . S
C722 H741 0.913 . S
C723 H699 0.950 . S
C723 C722 1.524 . S
C723 C724 1.415 . S
C724 H700 0.950 . S
C724 C719 1.363 . S
C724 C723 1.415 . S
C725 H701 0.951 . S
C725 C726 1.366 . S
C725 C727 1.388 . S
C726 C725 1.366 . S
C726 C730 1.385 . S
C727 H702 0.951 . S
C727 C725 1.388 . S
C727 C728 1.366 . S
C728 C727 1.366 . S
C728 C729 1.414 . S
C728 C731 1.499 . S
C729 H703 0.950 . S
C729 C728 1.414 . S
C729 C730 1.374 . S
C730 H704 0.950 . S
C730 C726 1.385 . S
C730 C729 1.374 . S
C731 C728 1.499 . S
C731 C732 1.373 . S
C731 C733 1.389 . S
C732 H705 0.950 . S
C732 C718 1.377 . S
C732 C731 1.373 . S
C733 C717 1.377 . S
C733 C731 1.389 . S
C733 C734 1.524 . S
C734 C733 1.524 . S
C734 C735 1.397 . S
C734 C739 1.363 . S
C735 H706 0.950 . S
C735 C734 1.397 . S
C735 C736 1.334 . S
C736 H707 0.950 . S
C736 C735 1.334 . S
C736 C737 1.287 . S
C737 C736 1.287 . S
C737 C738 1.524 . S
C737 H740 0.999 . S
C738 H708 0.950 . S
C738 C737 1.524 . S
C738 C739 1.415 . S
C739 H709 0.950 . S
C739 C734 1.363 . S
C739 C738 1.415 . S
H740 C737 0.999 . S
H741 C722 0.913 . S
H742 C760 0.951 . S
H743 C762 0.951 . S
H744 C764 0.950 . S
H745 C765 0.950 . S
H746 C767 0.950 . S
H747 C770 0.950 . S
H748 C771 0.950 . S
H749 C773 0.950 . S
H750 C774 0.950 . S
H751 C775 0.951 . S
H752 C777 0.951 . S
H753 C779 0.950 . S
H754 C780 0.950 . S
H755 C782 0.950 . S
H756 C785 0.950 . S
H757 C786 0.950 . S
H758 C788 0.950 . S
H759 C789 0.950 . S
C760 H742 0.951 . S
C760 C761 1.366 . S
C760 C762 1.388 . S
C761 C760 1.366 . S
C761 C765 1.385 . S
C762 H743 0.951 . S
C762 C760 1.388 . S
C762 C763 1.366 . S
C763 C762 1.366 . S
C763 C764 1.414 . S
C763 C766 1.499 . S
C764 H744 0.950 . S
C764 C763 1.414 . S
C764 C765 1.374 . S
C765 H745 0.950 . S
C765 C761 1.385 . S
C765 C764 1.374 . S
C766 C763 1.499 . S
C766 C767 1.373 . S
C766 C768 1.389 . S
C767 H746 0.950 . S
C767 C766 1.373 . S
C767 C783 1.377 . S
C768 C766 1.389 . S
C768 C769 1.524 . S
C768 C782 1.377 . S
C769 C768 1.524 . S
C769 C770 1.397 . S
C769 C774 1.363 . S
C770 H747 0.950 . S
C770 C769 1.397 . S
C770 C771 1.334 . S
C771 H748 0.950 . S
C771 C770 1.334 . S
C771 C772 1.287 . S
C772 C771 1.287 . S
C772 C773 1.524 1_556 S
C772 H791 0.913 1_556 S
C773 H749 0.950 . S
C773 C772 1.524 1_554 S
C773 C774 1.415 1_554 S
C774 H750 0.950 . S
C774 C769 1.363 . S
C774 C773 1.415 1_556 S
C775 H751 0.951 . S
C775 C776 1.366 . S
C775 C777 1.388 . S
C776 C775 1.366 . S
C776 C780 1.385 . S
C777 H752 0.951 . S
C777 C775 1.388 . S
C777 C778 1.366 . S
C778 C777 1.366 . S
C778 C779 1.414 . S
C778 C781 1.499 . S
C779 H753 0.950 . S
C779 C778 1.414 . S
C779 C780 1.374 . S
C780 H754 0.950 . S
C780 C776 1.385 . S
C780 C779 1.374 . S
C781 C778 1.499 . S
C781 C782 1.373 . S
C781 C783 1.389 . S
C782 H755 0.950 . S
C782 C768 1.377 . S
C782 C781 1.373 . S
C783 C767 1.377 . S
C783 C781 1.389 . S
C783 C784 1.524 . S
C784 C783 1.524 . S
C784 C785 1.397 . S
C784 C789 1.363 . S
C785 H756 0.950 . S
C785 C784 1.397 . S
C785 C786 1.334 . S
C786 H757 0.950 . S
C786 C785 1.334 . S
C786 C787 1.287 . S
C787 C786 1.287 . S
C787 C788 1.524 . S
C787 H790 0.999 . S
C788 H758 0.950 . S
C788 C787 1.524 . S
C788 C789 1.415 . S
C789 H759 0.950 . S
C789 C784 1.363 . S
C789 C788 1.415 . S
H790 C787 0.999 . S
H791 C772 0.913 1_554 S
H792 C810 0.951 . S
H793 C812 0.951 . S
H794 C814 0.950 . S
H795 C815 0.950 . S
H796 C817 0.950 . S
H797 C820 0.950 . S
H798 C821 0.950 . S
H799 C823 0.950 . S
H800 C824 0.950 . S
H801 C825 0.951 . S
H802 C827 0.951 . S
H803 C829 0.950 . S
H804 C830 0.950 . S
H805 C832 0.950 . S
H806 C835 0.950 . S
H807 C836 0.950 . S
H808 C838 0.950 . S
H809 C839 0.950 . S
C810 H792 0.951 . S
C810 C811 1.366 . S
C810 C812 1.388 . S
C811 C810 1.366 . S
C811 C815 1.385 . S
C812 H793 0.951 . S
C812 C810 1.388 . S
C812 C813 1.366 . S
C813 C812 1.366 . S
C813 C814 1.414 . S
C813 C816 1.499 . S
C814 H794 0.950 . S
C814 C813 1.414 . S
C814 C815 1.374 . S
C815 H795 0.950 . S
C815 C811 1.385 . S
C815 C814 1.374 . S
C816 C813 1.499 . S
C816 C817 1.373 . S
C816 C818 1.389 . S
C817 H796 0.950 . S
C817 C816 1.373 . S
C817 C833 1.377 . S
C818 C816 1.389 . S
C818 C819 1.524 . S
C818 C832 1.377 . S
C819 C818 1.524 . S
C819 C820 1.397 . S
C819 C824 1.363 . S
C820 H797 0.950 . S
C820 C819 1.397 . S
C820 C821 1.334 . S
C821 H798 0.950 . S
C821 C820 1.334 . S
C821 C822 1.287 . S
C822 C821 1.287 . S
C822 C823 1.524 . S
C822 H841 0.913 . S
C823 H799 0.950 . S
C823 C822 1.524 . S
C823 C824 1.415 . S
C824 H800 0.950 . S
C824 C819 1.363 . S
C824 C823 1.415 . S
C825 H801 0.951 . S
C825 C826 1.366 . S
C825 C827 1.388 . S
C826 C825 1.366 . S
C826 C830 1.385 . S
C827 H802 0.951 . S
C827 C825 1.388 . S
C827 C828 1.366 . S
C828 C827 1.366 . S
C828 C829 1.414 . S
C828 C831 1.499 . S
C829 H803 0.950 . S
C829 C828 1.414 . S
C829 C830 1.374 . S
C830 H804 0.950 . S
C830 C826 1.385 . S
C830 C829 1.374 . S
C831 C828 1.499 . S
C831 C832 1.373 . S
C831 C833 1.389 . S
C832 H805 0.950 . S
C832 C818 1.377 . S
C832 C831 1.373 . S
C833 C817 1.377 . S
C833 C831 1.389 . S
C833 C834 1.524 . S
C834 C833 1.524 . S
C834 C835 1.397 . S
C834 C839 1.363 . S
C835 H806 0.950 . S
C835 C834 1.397 . S
C835 C836 1.334 . S
C836 H807 0.950 . S
C836 C835 1.334 . S
C836 C837 1.287 . S
C837 C836 1.287 . S
C837 C838 1.524 . S
C837 H840 0.999 . S
C838 H808 0.950 . S
C838 C837 1.524 . S
C838 C839 1.415 . S
C839 H809 0.950 . S
C839 C834 1.363 . S
C839 C838 1.415 . S
H840 C837 0.999 . S
H841 C822 0.913 . S
H842 C860 0.951 . S
H843 C862 0.951 . S
H844 C864 0.950 . S
H845 C865 0.950 . S
H846 C867 0.950 . S
H847 C870 0.950 . S
H848 C871 0.950 . S
H849 C873 0.950 . S
H850 C874 0.950 . S
H851 C875 0.951 . S
H852 C877 0.951 . S
H853 C879 0.950 . S
H854 C880 0.950 . S
H855 C882 0.950 . S
H856 C885 0.950 . S
H857 C886 0.950 . S
H858 C888 0.950 . S
H859 C889 0.950 . S
C860 H842 0.951 . S
C860 C861 1.366 . S
C860 C862 1.388 . S
C861 C860 1.366 . S
C861 C865 1.385 . S
C862 H843 0.951 . S
C862 C860 1.388 . S
C862 C863 1.366 . S
C863 C862 1.366 . S
C863 C864 1.414 . S
C863 C866 1.499 . S
C864 H844 0.950 . S
C864 C863 1.414 . S
C864 C865 1.374 . S
C865 H845 0.950 . S
C865 C861 1.385 . S
C865 C864 1.374 . S
C866 C863 1.499 . S
C866 C867 1.373 . S
C866 C868 1.389 . S
C867 H846 0.950 . S
C867 C866 1.373 . S
C867 C883 1.377 . S
C868 C866 1.389 . S
C868 C869 1.524 . S
C868 C882 1.377 . S
C869 C868 1.524 . S
C869 C870 1.397 . S
C869 C874 1.363 . S
C870 H847 0.950 . S
C870 C869 1.397 . S
C870 C871 1.334 . S
C871 H848 0.950 . S
C871 C870 1.334 . S
C871 C872 1.287 . S
C872 C871 1.287 . S
C872 C873 1.524 . S
C872 H891 0.913 . S
C873 H849 0.950 . S
C873 C872 1.524 . S
C873 C874 1.415 . S
C874 H850 0.950 . S
C874 C869 1.363 . S
C874 C873 1.415 . S
C875 H851 0.951 . S
C875 C876 1.366 . S
C875 C877 1.388 . S
C876 C875 1.366 . S
C876 C880 1.385 . S
C877 H852 0.951 . S
C877 C875 1.388 . S
C877 C878 1.366 . S
C878 C877 1.366 . S
C878 C879 1.414 . S
C878 C881 1.499 . S
C879 H853 0.950 . S
C879 C878 1.414 . S
C879 C880 1.374 . S
C880 H854 0.950 . S
C880 C876 1.385 . S
C880 C879 1.374 . S
C881 C878 1.499 . S
C881 C882 1.373 . S
C881 C883 1.389 . S
C882 H855 0.950 . S
C882 C868 1.377 . S
C882 C881 1.373 . S
C883 C867 1.377 . S
C883 C881 1.389 . S
C883 C884 1.524 . S
C884 C883 1.524 . S
C884 C885 1.397 . S
C884 C889 1.363 . S
C885 H856 0.950 . S
C885 C884 1.397 . S
C885 C886 1.334 . S
C886 H857 0.950 . S
C886 C885 1.334 . S
C886 C887 1.287 . S
C887 C886 1.287 . S
C887 C888 1.524 . S
C887 H890 0.999 . S
C888 H858 0.950 . S
C888 C887 1.524 . S
C888 C889 1.415 . S
C889 H859 0.950 . S
C889 C884 1.363 . S
C889 C888 1.415 . S
H890 C887 0.999 . S
H891 C872 0.913 . S
H892 C910 0.951 . S
H893 C912 0.951 . S
H894 C914 0.950 . S
H895 C915 0.950 . S
H896 C917 0.950 . S
H897 C920 0.950 . S
H898 C921 0.950 . S
H899 C923 0.974 . S
H900 C924 0.950 . S
H901 C925 0.951 . S
H902 C927 0.951 . S
H903 C929 0.950 . S
H904 C930 0.950 . S
H905 C932 0.950 . S
H906 C935 0.950 . S
H907 C936 0.950 . S
H908 C938 0.950 . S
H909 C939 0.950 . S
C910 H892 0.951 . S
C910 C911 1.366 . S
C910 C912 1.388 . S
C911 C910 1.366 . S
C911 C915 1.385 . S
C912 H893 0.951 . S
C912 C910 1.388 . S
C912 C913 1.366 . S
C913 C912 1.366 . S
C913 C914 1.414 . S
C913 C916 1.499 . S
C914 H894 0.950 . S
C914 C913 1.414 . S
C914 C915 1.374 . S
C915 H895 0.950 . S
C915 C911 1.385 . S
C915 C914 1.374 . S
C916 C913 1.499 . S
C916 C917 1.373 . S
C916 C918 1.389 . S
C917 H896 0.950 . S
C917 C916 1.373 . S
C917 C933 1.377 . S
C918 C916 1.389 . S
C918 C919 1.524 . S
C918 C932 1.377 . S
C919 C918 1.524 . S
C919 C920 1.397 . S
C919 C924 1.363 . S
C920 H897 0.950 . S
C920 C919 1.397 . S
C920 C921 1.334 . S
C921 H898 0.950 . S
C921 C920 1.334 . S
C921 C922 1.287 . S
C922 C921 1.287 . S
C922 C923 1.524 . S
C922 H941 0.913 . S
C923 H899 0.974 . S
C923 C922 1.524 . S
C923 C924 1.415 . S
C924 H900 0.950 . S
C924 C919 1.363 . S
C924 C923 1.415 . S
C925 H901 0.951 . S
C925 C926 1.366 . S
C925 C927 1.388 . S
C926 C925 1.366 . S
C926 C930 1.385 . S
C927 H902 0.951 . S
C927 C925 1.388 . S
C927 C928 1.366 . S
C928 C927 1.366 . S
C928 C929 1.414 . S
C928 C931 1.499 . S
C929 H903 0.950 . S
C929 C928 1.414 . S
C929 C930 1.374 . S
C930 H904 0.950 . S
C930 C926 1.385 . S
C930 C929 1.374 . S
C931 C928 1.499 . S
C931 C932 1.373 . S
C931 C933 1.389 . S
C932 H905 0.950 . S
C932 C918 1.377 . S
C932 C931 1.373 . S
C933 C917 1.377 . S
C933 C931 1.389 . S
C933 C934 1.524 . S
C934 C933 1.524 . S
C934 C935 1.397 . S
C934 C939 1.363 . S
C935 H906 0.950 . S
C935 C934 1.397 . S
C935 C936 1.334 . S
C936 H907 0.950 . S
C936 C935 1.334 . S
C936 C937 1.287 . S
C937 C936 1.287 . S
C937 C938 1.524 . S
C937 H940 0.999 . S
C938 H908 0.950 . S
C938 C937 1.524 . S
C938 C939 1.415 . S
C939 H909 0.950 . S
C939 C934 1.363 . S
C939 C938 1.415 . S
H940 C937 0.999 . S
H941 C922 0.913 . S
H942 C960 0.951 . S
H943 C962 0.951 . S
H944 C964 0.950 . S
H945 C965 0.950 . S
H946 C967 0.950 . S
H947 C970 0.950 . S
H948 C971 0.950 . S
H949 C973 0.950 . S
H950 C974 0.950 . S
H951 C975 0.951 . S
H952 C977 0.951 . S
H953 C979 0.950 . S
H954 C980 0.950 . S
H955 C982 0.950 . S
H956 C985 0.950 . S
H957 C986 0.950 . S
H958 C988 0.950 . S
H959 C989 0.950 . S
C960 H942 0.951 . S
C960 C961 1.366 . S
C960 C962 1.388 . S
C961 C960 1.366 . S
C961 C965 1.385 . S
C962 H943 0.951 . S
C962 C960 1.388 . S
C962 C963 1.366 . S
C963 C962 1.366 . S
C963 C964 1.414 . S
C963 C966 1.499 . S
C964 H944 0.950 . S
C964 C963 1.414 . S
C964 C965 1.374 . S
C965 H945 0.950 . S
C965 C961 1.385 . S
C965 C964 1.374 . S
C966 C963 1.499 . S
C966 C967 1.373 . S
C966 C968 1.389 . S
C967 H946 0.950 . S
C967 C966 1.373 . S
C967 C983 1.377 . S
C968 C966 1.389 . S
C968 C969 1.524 . S
C968 C982 1.377 . S
C969 C968 1.524 . S
C969 C970 1.397 . S
C969 C974 1.363 . S
C970 H947 0.950 . S
C970 C969 1.397 . S
C970 C971 1.334 . S
C971 H948 0.950 . S
C971 C970 1.334 . S
C971 C972 1.287 . S
C972 C971 1.287 . S
C972 C973 1.524 . S
C972 H991 0.913 . S
C973 H949 0.950 . S
C973 C972 1.524 . S
C973 C974 1.415 . S
C974 H950 0.950 . S
C974 C969 1.363 . S
C974 C973 1.415 . S
C975 H951 0.951 . S
C975 C976 1.366 . S
C975 C977 1.388 . S
C976 C975 1.366 . S
C976 C980 1.385 . S
C977 H952 0.951 . S
C977 C975 1.388 . S
C977 C978 1.366 . S
C978 C977 1.366 . S
C978 C979 1.414 . S
C978 C981 1.499 . S
C979 H953 0.950 . S
C979 C978 1.414 . S
C979 C980 1.374 . S
C980 H954 0.950 . S
C980 C976 1.385 . S
C980 C979 1.374 . S
C981 C978 1.499 . S
C981 C982 1.373 . S
C981 C983 1.389 . S
C982 H955 0.950 . S
C982 C968 1.377 . S
C982 C981 1.373 . S
C983 C967 1.377 . S
C983 C981 1.389 . S
C983 C984 1.524 . S
C984 C983 1.524 . S
C984 C985 1.397 . S
C984 C989 1.363 . S
C985 H956 0.950 . S
C985 C984 1.397 . S
C985 C986 1.334 . S
C986 H957 0.950 . S
C986 C985 1.334 . S
C986 C987 1.287 . S
C987 C986 1.287 . S
C987 C988 1.524 . S
C987 H990 0.999 . S
C988 H958 0.950 . S
C988 C987 1.524 . S
C988 C989 1.415 . S
C989 H959 0.950 . S
C989 C984 1.363 . S
C989 C988 1.415 . S
H990 C987 0.999 . S
H991 C972 0.913 . S
H992 C1010 0.951 . S
H993 C1012 0.951 . S
H994 C1014 0.950 . S
H995 C1015 0.950 . S
H996 C1017 0.950 . S
H997 C1020 0.950 . S
H998 C1021 0.950 . S
H999 C1023 0.950 . S
H1000 C1024 0.950 . S
H1001 C1025 0.951 . S
H1002 C1027 0.951 . S
H1003 C1029 0.950 . S
H1004 C1030 0.950 . S
H1005 C1032 0.950 . S
H1006 C1035 0.950 . S
H1007 C1036 0.950 . S
H1008 C1038 0.950 . S
H1009 C1039 0.950 . S
C1010 H992 0.951 . S
C1010 C1011 1.366 . S
C1010 C1012 1.388 . S
C1011 C1010 1.366 . S
C1011 C1015 1.385 . S
C1012 H993 0.951 . S
C1012 C1010 1.388 . S
C1012 C1013 1.366 . S
C1013 C1012 1.366 . S
C1013 C1014 1.414 . S
C1013 C1016 1.499 . S
C1014 H994 0.950 . S
C1014 C1013 1.414 . S
C1014 C1015 1.374 . S
C1015 H995 0.950 . S
C1015 C1011 1.385 . S
C1015 C1014 1.374 . S
C1016 C1013 1.499 . S
C1016 C1017 1.373 . S
C1016 C1018 1.389 . S
C1017 H996 0.950 . S
C1017 C1016 1.373 . S
C1017 C1033 1.377 . S
C1018 C1016 1.389 . S
C1018 C1019 1.524 . S
C1018 C1032 1.377 . S
C1019 C1018 1.524 . S
C1019 C1020 1.397 . S
C1019 C1024 1.363 . S
C1020 H997 0.950 . S
C1020 C1019 1.397 . S
C1020 C1021 1.334 . S
C1021 H998 0.950 . S
C1021 C1020 1.334 . S
C1021 C1022 1.287 . S
C1022 C1021 1.287 . S
C1022 C1023 1.524 . S
C1022 H1041 0.913 . S
C1023 H999 0.950 . S
C1023 C1022 1.524 . S
C1023 C1024 1.415 . S
C1024 H1000 0.950 . S
C1024 C1019 1.363 . S
C1024 C1023 1.415 . S
C1025 H1001 0.951 . S
C1025 C1026 1.366 . S
C1025 C1027 1.388 . S
C1026 C1025 1.366 . S
C1026 C1030 1.385 . S
C1027 H1002 0.951 . S
C1027 C1025 1.388 . S
C1027 C1028 1.366 . S
C1028 C1027 1.366 . S
C1028 C1029 1.414 . S
C1028 C1031 1.499 . S
C1029 H1003 0.950 . S
C1029 C1028 1.414 . S
C1029 C1030 1.374 . S
C1030 H1004 0.950 . S
C1030 C1026 1.385 . S
C1030 C1029 1.374 . S
C1031 C1028 1.499 . S
C1031 C1032 1.373 . S
C1031 C1033 1.389 . S
C1032 H1005 0.950 . S
C1032 C1018 1.377 . S
C1032 C1031 1.373 . S
C1033 C1017 1.377 . S
C1033 C1031 1.389 . S
C1033 C1034 1.524 . S
C1034 C1033 1.524 . S
C1034 C1035 1.397 . S
C1034 C1039 1.363 . S
C1035 H1006 0.950 . S
C1035 C1034 1.397 . S
C1035 C1036 1.334 . S
C1036 H1007 0.950 . S
C1036 C1035 1.334 . S
C1036 C1037 1.287 . S
C1037 C1036 1.287 . S
C1037 C1038 1.524 . S
C1037 H1040 0.999 . S
C1038 H1008 0.950 . S
C1038 C1037 1.524 . S
C1038 C1039 1.415 . S
C1039 H1009 0.950 . S
C1039 C1034 1.363 . S
C1039 C1038 1.415 . S
H1040 C1037 0.999 . S
H1041 C1022 0.913 . S
H1042 C1060 0.951 . S
H1043 C1062 0.951 . S
H1044 C1064 0.950 . S
H1045 C1065 0.950 . S
H1046 C1067 0.950 . S
H1047 C1070 0.950 . S
H1048 C1071 0.950 . S
H1049 C1073 0.950 . S
H1050 C1074 0.950 . S
H1051 C1075 0.951 . S
H1052 C1077 0.951 . S
H1053 C1079 0.950 . S
H1054 C1080 0.950 . S
H1055 C1082 0.950 . S
H1056 C1085 0.950 . S
H1057 C1086 0.950 . S
H1058 C1088 0.950 . S
H1059 C1089 0.950 . S
C1060 H1042 0.951 . S
C1060 C1061 1.366 . S
C1060 C1062 1.388 . S
C1061 C1060 1.366 . S
C1061 C1065 1.385 . S
C1062 H1043 0.951 . S
C1062 C1060 1.388 . S
C1062 C1063 1.366 . S
C1063 C1062 1.366 . S
C1063 C1064 1.414 . S
C1063 C1066 1.499 . S
C1064 H1044 0.950 . S
C1064 C1063 1.414 . S
C1064 C1065 1.374 . S
C1065 H1045 0.950 . S
C1065 C1061 1.385 . S
C1065 C1064 1.374 . S
C1066 C1063 1.499 . S
C1066 C1067 1.373 . S
C1066 C1068 1.389 . S
C1067 H1046 0.950 . S
C1067 C1066 1.373 . S
C1067 C1083 1.377 . S
C1068 C1066 1.389 . S
C1068 C1069 1.524 . S
C1068 C1082 1.377 . S
C1069 C1068 1.524 . S
C1069 C1070 1.397 . S
C1069 C1074 1.363 . S
C1070 H1047 0.950 . S
C1070 C1069 1.397 . S
C1070 C1071 1.334 . S
C1071 H1048 0.950 . S
C1071 C1070 1.334 . S
C1071 C1072 1.287 . S
C1072 C1071 1.287 . S
C1072 C1073 1.524 . S
C1072 H1091 0.913 . S
C1073 H1049 0.950 . S
C1073 C1072 1.524 . S
C1073 C1074 1.415 . S
C1074 H1050 0.950 . S
C1074 C1069 1.363 . S
C1074 C1073 1.415 . S
C1075 H1051 0.951 . S
C1075 C1076 1.366 . S
C1075 C1077 1.388 . S
C1076 C1075 1.366 . S
C1076 C1080 1.385 . S
C1077 H1052 0.951 . S
C1077 C1075 1.388 . S
C1077 C1078 1.366 . S
C1078 C1077 1.366 . S
C1078 C1079 1.414 . S
C1078 C1081 1.499 . S
C1079 H1053 0.950 . S
C1079 C1078 1.414 . S
C1079 C1080 1.374 . S
C1080 H1054 0.950 . S
C1080 C1076 1.385 . S
C1080 C1079 1.374 . S
C1081 C1078 1.499 . S
C1081 C1082 1.373 . S
C1081 C1083 1.389 . S
C1082 H1055 0.950 . S
C1082 C1068 1.377 . S
C1082 C1081 1.373 . S
C1083 C1067 1.377 . S
C1083 C1081 1.389 . S
C1083 C1084 1.524 . S
C1084 C1083 1.524 . S
C1084 C1085 1.397 . S
C1084 C1089 1.363 . S
C1085 H1056 0.950 . S
C1085 C1084 1.397 . S
C1085 C1086 1.334 . S
C1086 H1057 0.950 . S
C1086 C1085 1.334 . S
C1086 C1087 1.287 . S
C1087 C1086 1.287 . S
C1087 C1088 1.524 . S
C1087 H1090 0.999 . S
C1088 H1058 0.950 . S
C1088 C1087 1.524 . S
C1088 C1089 1.415 . S
C1089 H1059 0.950 . S
C1089 C1084 1.363 . S
C1089 C1088 1.415 . S
H1090 C1087 0.999 . S
H1091 C1072 0.913 . S
H1092 C1110 0.951 . S
H1093 C1112 0.951 . S
H1094 C1114 0.950 . S
H1095 C1115 0.950 . S
H1096 C1117 0.950 . S
H1097 C1120 0.950 . S
H1098 C1121 0.950 . S
H1099 C1123 0.950 . S
H1100 C1124 0.950 . S
H1101 C1125 0.951 . S
H1102 C1127 0.951 . S
H1103 C1129 0.950 . S
H1104 C1130 0.950 . S
H1105 C1132 0.950 . S
H1106 C1135 0.950 . S
H1107 C1136 0.950 . S
H1108 C1138 0.950 . S
H1109 C1139 0.950 . S
C1110 H1092 0.951 . S
C1110 C1111 1.366 . S
C1110 C1112 1.388 . S
C1111 C1110 1.366 . S
C1111 C1115 1.385 . S
C1112 H1093 0.951 . S
C1112 C1110 1.388 . S
C1112 C1113 1.366 . S
C1113 C1112 1.366 . S
C1113 C1114 1.414 . S
C1113 C1116 1.499 . S
C1114 H1094 0.950 . S
C1114 C1113 1.414 . S
C1114 C1115 1.374 . S
C1115 H1095 0.950 . S
C1115 C1111 1.385 . S
C1115 C1114 1.374 . S
C1116 C1113 1.499 . S
C1116 C1117 1.373 . S
C1116 C1118 1.389 . S
C1117 H1096 0.950 . S
C1117 C1116 1.373 . S
C1117 C1133 1.377 . S
C1118 C1116 1.389 . S
C1118 C1119 1.524 . S
C1118 C1132 1.377 . S
C1119 C1118 1.524 . S
C1119 C1120 1.397 . S
C1119 C1124 1.363 . S
C1120 H1097 0.950 . S
C1120 C1119 1.397 . S
C1120 C1121 1.334 . S
C1121 H1098 0.950 . S
C1121 C1120 1.334 . S
C1121 C1122 1.287 . S
C1122 C1121 1.287 . S
C1122 C1123 1.524 . S
C1122 H1141 0.913 . S
C1123 H1099 0.950 . S
C1123 C1122 1.524 . S
C1123 C1124 1.415 . S
C1124 H1100 0.950 . S
C1124 C1119 1.363 . S
C1124 C1123 1.415 . S
C1125 H1101 0.951 . S
C1125 C1126 1.366 . S
C1125 C1127 1.388 . S
C1126 C1125 1.366 . S
C1126 C1130 1.385 . S
C1127 H1102 0.951 . S
C1127 C1125 1.388 . S
C1127 C1128 1.366 . S
C1128 C1127 1.366 . S
C1128 C1129 1.414 . S
C1128 C1131 1.499 . S
C1129 H1103 0.950 . S
C1129 C1128 1.414 . S
C1129 C1130 1.374 . S
C1130 H1104 0.950 . S
C1130 C1126 1.385 . S
C1130 C1129 1.374 . S
C1131 C1128 1.499 . S
C1131 C1132 1.373 . S
C1131 C1133 1.389 . S
C1132 H1105 0.950 . S
C1132 C1118 1.377 . S
C1132 C1131 1.373 . S
C1133 C1117 1.377 . S
C1133 C1131 1.389 . S
C1133 C1134 1.524 . S
C1134 C1133 1.524 . S
C1134 C1135 1.397 . S
C1134 C1139 1.363 . S
C1135 H1106 0.950 . S
C1135 C1134 1.397 . S
C1135 C1136 1.334 . S
C1136 H1107 0.950 . S
C1136 C1135 1.334 . S
C1136 C1137 1.287 . S
C1137 C1136 1.287 . S
C1137 C1138 1.524 . S
C1137 H1140 0.999 . S
C1138 H1108 0.950 . S
C1138 C1137 1.524 . S
C1138 C1139 1.415 . S
C1139 H1109 0.950 . S
C1139 C1134 1.363 . S
C1139 C1138 1.415 . S
H1140 C1137 0.999 . S
H1141 C1122 0.913 . S
H1142 C1160 0.951 . S
H1143 C1162 0.951 . S
H1144 C1164 0.950 . S
H1145 C1165 0.950 . S
H1146 C1167 0.950 . S
H1147 C1170 0.950 . S
H1148 C1171 0.950 . S
H1149 C1173 0.950 . S
H1150 C1174 0.950 . S
H1151 C1175 0.951 . S
H1152 C1177 0.951 . S
H1153 C1179 0.950 . S
H1154 C1180 0.950 . S
H1155 C1182 0.950 . S
H1156 C1185 0.950 . S
H1157 C1186 0.950 . S
H1158 C1188 0.950 . S
H1159 C1189 0.950 . S
C1160 H1142 0.951 . S
C1160 C1161 1.366 . S
C1160 C1162 1.388 . S
C1161 C1160 1.366 . S
C1161 C1165 1.385 . S
C1162 H1143 0.951 . S
C1162 C1160 1.388 . S
C1162 C1163 1.366 . S
C1163 C1162 1.366 . S
C1163 C1164 1.414 . S
C1163 C1166 1.499 . S
C1164 H1144 0.950 . S
C1164 C1163 1.414 . S
C1164 C1165 1.374 . S
C1165 H1145 0.950 . S
C1165 C1161 1.385 . S
C1165 C1164 1.374 . S
C1166 C1163 1.499 . S
C1166 C1167 1.373 . S
C1166 C1168 1.389 . S
C1167 H1146 0.950 . S
C1167 C1166 1.373 . S
C1167 C1183 1.377 . S
C1168 C1166 1.389 . S
C1168 C1169 1.524 . S
C1168 C1182 1.377 . S
C1169 C1168 1.524 . S
C1169 C1170 1.397 . S
C1169 C1174 1.363 . S
C1170 H1147 0.950 . S
C1170 C1169 1.397 . S
C1170 C1171 1.334 . S
C1171 H1148 0.950 . S
C1171 C1170 1.334 . S
C1171 C1172 1.287 . S
C1172 C1171 1.287 . S
C1172 C1173 1.524 . S
C1172 H1191 0.913 . S
C1173 H1149 0.950 . S
C1173 C1172 1.524 . S
C1173 C1174 1.415 . S
C1174 H1150 0.950 . S
C1174 C1169 1.363 . S
C1174 C1173 1.415 . S
C1175 H1151 0.951 . S
C1175 C1176 1.366 . S
C1175 C1177 1.388 . S
C1176 C1175 1.366 . S
C1176 C1180 1.385 . S
C1177 H1152 0.951 . S
C1177 C1175 1.388 . S
C1177 C1178 1.366 . S
C1178 C1177 1.366 . S
C1178 C1179 1.414 . S
C1178 C1181 1.499 . S
C1179 H1153 0.950 . S
C1179 C1178 1.414 . S
C1179 C1180 1.374 . S
C1180 H1154 0.950 . S
C1180 C1176 1.385 . S
C1180 C1179 1.374 . S
C1181 C1178 1.499 . S
C1181 C1182 1.373 . S
C1181 C1183 1.389 . S
C1182 H1155 0.950 . S
C1182 C1168 1.377 . S
C1182 C1181 1.373 . S
C1183 C1167 1.377 . S
C1183 C1181 1.389 . S
C1183 C1184 1.524 . S
C1184 C1183 1.524 . S
C1184 C1185 1.397 . S
C1184 C1189 1.363 . S
C1185 H1156 0.950 . S
C1185 C1184 1.397 . S
C1185 C1186 1.334 . S
C1186 H1157 0.950 . S
C1186 C1185 1.334 . S
C1186 C1187 1.287 . S
C1187 C1186 1.287 . S
C1187 C1188 1.524 . S
C1187 H1190 0.999 . S
C1188 H1158 0.950 . S
C1188 C1187 1.524 . S
C1188 C1189 1.415 . S
C1189 H1159 0.950 . S
C1189 C1184 1.363 . S
C1189 C1188 1.415 . S
H1190 C1187 0.999 . S
H1191 C1172 0.913 . S
H1192 C1210 0.951 . S
H1193 C1212 0.951 . S
H1194 C1214 0.950 . S
H1195 C1215 0.950 . S
H1196 C1217 0.950 . S
H1197 C1220 0.950 . S
H1198 C1221 0.950 . S
H1199 C1223 0.950 . S
H1200 C1224 0.950 . S
H1201 C1225 0.951 . S
H1202 C1227 0.951 . S
H1203 C1229 0.950 . S
H1204 C1230 0.950 . S
H1205 C1232 0.950 . S
H1206 C1235 0.950 . S
H1207 C1236 0.950 . S
H1208 C1238 0.950 . S
H1209 C1239 0.950 . S
C1210 H1192 0.951 . S
C1210 C1211 1.366 . S
C1210 C1212 1.388 . S
C1211 C1210 1.366 . S
C1211 C1215 1.385 . S
C1212 H1193 0.951 . S
C1212 C1210 1.388 . S
C1212 C1213 1.366 . S
C1213 C1212 1.366 . S
C1213 C1214 1.414 . S
C1213 C1216 1.499 . S
C1214 H1194 0.950 . S
C1214 C1213 1.414 . S
C1214 C1215 1.374 . S
C1215 H1195 0.950 . S
C1215 C1211 1.385 . S
C1215 C1214 1.374 . S
C1216 C1213 1.499 . S
C1216 C1217 1.373 . S
C1216 C1218 1.389 . S
C1217 H1196 0.950 . S
C1217 C1216 1.373 . S
C1217 C1233 1.377 . S
C1218 C1216 1.389 . S
C1218 C1219 1.524 . S
C1218 C1232 1.377 . S
C1219 C1218 1.524 . S
C1219 C1220 1.397 . S
C1219 C1224 1.363 . S
C1220 H1197 0.950 . S
C1220 C1219 1.397 . S
C1220 C1221 1.334 . S
C1221 H1198 0.950 . S
C1221 C1220 1.334 . S
C1221 C1222 1.287 . S
C1222 C1221 1.287 . S
C1222 C1223 1.524 . S
C1222 H1241 0.913 . S
C1223 H1199 0.950 . S
C1223 C1222 1.524 . S
C1223 C1224 1.415 . S
C1224 H1200 0.950 . S
C1224 C1219 1.363 . S
C1224 C1223 1.415 . S
C1225 H1201 0.951 . S
C1225 C1226 1.366 . S
C1225 C1227 1.388 . S
C1226 C1225 1.366 . S
C1226 C1230 1.385 . S
C1227 H1202 0.951 . S
C1227 C1225 1.388 . S
C1227 C1228 1.366 . S
C1228 C1227 1.366 . S
C1228 C1229 1.414 . S
C1228 C1231 1.499 . S
C1229 H1203 0.950 . S
C1229 C1228 1.414 . S
C1229 C1230 1.374 . S
C1230 H1204 0.950 . S
C1230 C1226 1.385 . S
C1230 C1229 1.374 . S
C1231 C1228 1.499 . S
C1231 C1232 1.373 . S
C1231 C1233 1.389 . S
C1232 H1205 0.950 . S
C1232 C1218 1.377 . S
C1232 C1231 1.373 . S
C1233 C1217 1.377 . S
C1233 C1231 1.389 . S
C1233 C1234 1.524 . S
C1234 C1233 1.524 . S
C1234 C1235 1.397 . S
C1234 C1239 1.363 . S
C1235 H1206 0.950 . S
C1235 C1234 1.397 . S
C1235 C1236 1.334 . S
C1236 H1207 0.950 . S
C1236 C1235 1.334 . S
C1236 C1237 1.287 . S
C1237 C1236 1.287 . S
C1237 C1238 1.524 . S
C1237 H1240 0.999 . S
C1238 H1208 0.950 . S
C1238 C1237 1.524 . S
C1238 C1239 1.415 . S
C1239 H1209 0.950 . S
C1239 C1234 1.363 . S
C1239 C1238 1.415 . S
H1240 C1237 0.999 . S
H1241 C1222 0.913 . S
H1242 C1260 0.951 . S
H1243 C1262 0.951 . S
H1244 C1264 0.950 . S
H1245 C1265 0.950 . S
H1246 C1267 0.950 . S
H1247 C1270 0.950 . S
H1248 C1271 0.950 . S
H1249 C1273 0.950 . S
H1250 C1274 0.950 . S
H1251 C1275 0.951 . S
H1252 C1277 0.951 . S
H1253 C1279 0.950 . S
H1254 C1280 0.950 . S
H1255 C1282 0.950 . S
H1256 C1285 0.950 . S
H1257 C1286 0.950 . S
H1258 C1288 0.950 . S
H1259 C1289 0.950 . S
C1260 H1242 0.951 . S
C1260 C1261 1.366 . S
C1260 C1262 1.388 . S
C1261 C1260 1.366 . S
C1261 C1265 1.385 . S
C1262 H1243 0.951 . S
C1262 C1260 1.388 . S
C1262 C1263 1.366 . S
C1263 C1262 1.366 . S
C1263 C1264 1.414 . S
C1263 C1266 1.499 . S
C1264 H1244 0.950 . S
C1264 C1263 1.414 . S
C1264 C1265 1.374 . S
C1265 H1245 0.950 . S
C1265 C1261 1.385 . S
C1265 C1264 1.374 . S
C1266 C1263 1.499 . S
C1266 C1267 1.373 . S
C1266 C1268 1.389 . S
C1267 H1246 0.950 . S
C1267 C1266 1.373 . S
C1267 C1283 1.377 . S
C1268 C1266 1.389 . S
C1268 C1269 1.524 . S
C1268 C1282 1.377 . S
C1269 C1268 1.524 . S
C1269 C1270 1.397 . S
C1269 C1274 1.363 . S
C1270 H1247 0.950 . S
C1270 C1269 1.397 . S
C1270 C1271 1.334 1_554 S
C1271 H1248 0.950 . S
C1271 C1270 1.334 1_556 S
C1271 C1272 1.287 . S
C1272 C1271 1.287 . S
C1272 C1273 1.524 . S
C1272 H1291 0.913 . S
C1273 H1249 0.950 . S
C1273 C1272 1.524 . S
C1273 C1274 1.415 1_556 S
C1274 H1250 0.950 . S
C1274 C1269 1.363 . S
C1274 C1273 1.415 1_554 S
C1275 H1251 0.951 . S
C1275 C1276 1.366 . S
C1275 C1277 1.388 . S
C1276 C1275 1.366 . S
C1276 C1280 1.385 . S
C1277 H1252 0.951 . S
C1277 C1275 1.388 . S
C1277 C1278 1.366 . S
C1278 C1277 1.366 . S
C1278 C1279 1.414 . S
C1278 C1281 1.499 . S
C1279 H1253 0.950 . S
C1279 C1278 1.414 . S
C1279 C1280 1.374 . S
C1280 H1254 0.950 . S
C1280 C1276 1.385 . S
C1280 C1279 1.374 . S
C1281 C1278 1.499 . S
C1281 C1282 1.373 . S
C1281 C1283 1.389 . S
C1282 H1255 0.950 . S
C1282 C1268 1.377 . S
C1282 C1281 1.373 . S
C1283 C1267 1.377 . S
C1283 C1281 1.389 . S
C1283 C1284 1.524 . S
C1284 C1283 1.524 . S
C1284 C1285 1.397 . S
C1284 C1289 1.363 . S
C1285 H1256 0.950 . S
C1285 C1284 1.397 . S
C1285 C1286 1.334 . S
C1286 H1257 0.950 . S
C1286 C1285 1.334 . S
C1286 C1287 1.287 . S
C1287 C1286 1.287 . S
C1287 C1288 1.524 . S
C1287 H1290 0.999 . S
C1288 H1258 0.950 . S
C1288 C1287 1.524 . S
C1288 C1289 1.415 . S
C1289 H1259 0.950 . S
C1289 C1284 1.363 . S
C1289 C1288 1.415 . S
H1290 C1287 0.999 . S
H1291 C1272 0.913 . S
H1292 C1310 0.951 . S
H1293 C1312 0.951 . S
H1294 C1314 0.950 . S
H1295 C1315 0.950 . S
H1296 C1317 0.950 . S
H1297 C1320 0.950 . S
H1298 C1321 0.950 . S
H1299 C1323 0.950 . S
H1300 C1324 0.950 . S
H1301 C1325 0.951 . S
H1302 C1327 0.951 . S
H1303 C1329 0.950 . S
H1304 C1330 0.950 . S
H1305 C1332 0.950 . S
H1306 C1335 0.950 . S
H1307 C1336 0.950 . S
H1308 C1338 0.950 . S
H1309 C1339 0.950 . S
C1310 H1292 0.951 . S
C1310 C1311 1.366 . S
C1310 C1312 1.388 . S
C1311 C1310 1.366 . S
C1311 C1315 1.385 . S
C1312 H1293 0.951 . S
C1312 C1310 1.388 . S
C1312 C1313 1.366 . S
C1313 C1312 1.366 . S
C1313 C1314 1.414 . S
C1313 C1316 1.499 . S
C1314 H1294 0.950 . S
C1314 C1313 1.414 . S
C1314 C1315 1.374 . S
C1315 H1295 0.950 . S
C1315 C1311 1.385 . S
C1315 C1314 1.374 . S
C1316 C1313 1.499 . S
C1316 C1317 1.373 . S
C1316 C1318 1.389 . S
C1317 H1296 0.950 . S
C1317 C1316 1.373 . S
C1317 C1333 1.377 . S
C1318 C1316 1.389 . S
C1318 C1319 1.524 . S
C1318 C1332 1.377 . S
C1319 C1318 1.524 . S
C1319 C1320 1.397 . S
C1319 C1324 1.363 . S
C1320 H1297 0.950 . S
C1320 C1319 1.397 . S
C1320 C1321 1.334 . S
C1321 H1298 0.950 . S
C1321 C1320 1.334 . S
C1321 C1322 1.287 . S
C1322 C1321 1.287 . S
C1322 C1323 1.524 . S
C1322 H1341 0.913 . S
C1323 H1299 0.950 . S
C1323 C1322 1.524 . S
C1323 C1324 1.415 . S
C1324 H1300 0.950 . S
C1324 C1319 1.363 . S
C1324 C1323 1.415 . S
C1325 H1301 0.951 . S
C1325 C1326 1.366 . S
C1325 C1327 1.388 . S
C1326 C1325 1.366 . S
C1326 C1330 1.385 . S
C1327 H1302 0.951 . S
C1327 C1325 1.388 . S
C1327 C1328 1.366 . S
C1328 C1327 1.366 . S
C1328 C1329 1.414 . S
C1328 C1331 1.499 . S
C1329 H1303 0.950 . S
C1329 C1328 1.414 . S
C1329 C1330 1.374 . S
C1330 H1304 0.950 . S
C1330 C1326 1.385 . S
C1330 C1329 1.374 . S
C1331 C1328 1.499 . S
C1331 C1332 1.373 . S
C1331 C1333 1.389 . S
C1332 H1305 0.950 . S
C1332 C1318 1.377 . S
C1332 C1331 1.373 . S
C1333 C1317 1.377 . S
C1333 C1331 1.389 . S
C1333 C1334 1.524 . S
C1334 C1333 1.524 . S
C1334 C1335 1.397 . S
C1334 C1339 1.363 . S
C1335 H1306 0.950 . S
C1335 C1334 1.397 . S
C1335 C1336 1.334 . S
C1336 H1307 0.950 . S
C1336 C1335 1.334 . S
C1336 C1337 1.287 . S
C1337 C1336 1.287 . S
C1337 C1338 1.524 . S
C1337 H1340 0.999 . S
C1338 H1308 0.950 . S
C1338 C1337 1.524 . S
C1338 C1339 1.415 . S
C1339 H1309 0.950 . S
C1339 C1334 1.363 . S
C1339 C1338 1.415 . S
H1340 C1337 0.999 . S
H1341 C1322 0.913 . S
H1342 C1360 0.951 . S
H1343 C1362 0.951 . S
H1344 C1364 0.950 . S
H1345 C1365 0.950 . S
H1346 C1367 0.950 . S
H1347 C1370 0.950 . S
H1348 C1371 0.950 . S
H1349 C1373 0.950 . S
H1350 C1374 0.950 . S
H1351 C1375 0.951 . S
H1352 C1377 0.951 . S
H1353 C1379 0.950 . S
H1354 C1380 0.950 . S
H1355 C1382 0.950 . S
H1356 C1385 0.950 . S
H1357 C1386 0.950 . S
H1358 C1388 0.950 . S
H1359 C1389 0.950 . S
C1360 H1342 0.951 . S
C1360 C1361 1.366 . S
C1360 C1362 1.388 . S
C1361 C1360 1.366 . S
C1361 C1365 1.385 . S
C1362 H1343 0.951 . S
C1362 C1360 1.388 . S
C1362 C1363 1.366 . S
C1363 C1362 1.366 . S
C1363 C1364 1.414 . S
C1363 C1366 1.499 . S
C1364 H1344 0.950 . S
C1364 C1363 1.414 . S
C1364 C1365 1.374 . S
C1365 H1345 0.950 . S
C1365 C1361 1.385 . S
C1365 C1364 1.374 . S
C1366 C1363 1.499 . S
C1366 C1367 1.373 . S
C1366 C1368 1.389 . S
C1367 H1346 0.950 . S
C1367 C1366 1.373 . S
C1367 C1383 1.377 . S
C1368 C1366 1.389 . S
C1368 C1369 1.524 . S
C1368 C1382 1.377 . S
C1369 C1368 1.524 . S
C1369 C1370 1.397 . S
C1369 C1374 1.363 . S
C1370 H1347 0.950 . S
C1370 C1369 1.397 . S
C1370 C1371 1.334 . S
C1371 H1348 0.950 . S
C1371 C1370 1.334 . S
C1371 C1372 1.287 . S
C1372 C1371 1.287 . S
C1372 C1373 1.524 . S
C1372 H1391 0.913 1_455 S
C1373 H1349 0.950 . S
C1373 C1372 1.524 . S
C1373 C1374 1.415 . S
C1374 H1350 0.950 . S
C1374 C1369 1.363 . S
C1374 C1373 1.415 . S
C1375 H1351 0.951 . S
C1375 C1376 1.366 . S
C1375 C1377 1.388 . S
C1376 C1375 1.366 . S
C1376 C1380 1.385 . S
C1377 H1352 0.951 . S
C1377 C1375 1.388 . S
C1377 C1378 1.366 . S
C1378 C1377 1.366 . S
C1378 C1379 1.414 . S
C1378 C1381 1.499 . S
C1379 H1353 0.950 . S
C1379 C1378 1.414 . S
C1379 C1380 1.374 . S
C1380 H1354 0.950 . S
C1380 C1376 1.385 . S
C1380 C1379 1.374 . S
C1381 C1378 1.499 . S
C1381 C1382 1.373 . S
C1381 C1383 1.389 . S
C1382 H1355 0.950 . S
C1382 C1368 1.377 . S
C1382 C1381 1.373 . S
C1383 C1367 1.377 . S
C1383 C1381 1.389 . S
C1383 C1384 1.524 . S
C1384 C1383 1.524 . S
C1384 C1385 1.397 . S
C1384 C1389 1.363 . S
C1385 H1356 0.950 . S
C1385 C1384 1.397 . S
C1385 C1386 1.334 . S
C1386 H1357 0.950 . S
C1386 C1385 1.334 . S
C1386 C1387 1.287 . S
C1387 C1386 1.287 . S
C1387 C1388 1.524 . S
C1387 H1390 0.999 . S
C1388 H1358 0.950 . S
C1388 C1387 1.524 . S
C1388 C1389 1.415 . S
C1389 H1359 0.950 . S
C1389 C1384 1.363 . S
C1389 C1388 1.415 . S
H1390 C1387 0.999 . S
H1391 C1372 0.913 1_655 S
C211 C13 1.599 . S
C226 C98 1.522 . S
C261 C27 1.605 . S
C276 C109 1.534 . S
C326 C128 1.526 . S
C311 C29 1.596 . S
C376 C145 1.533 . S
C361 C54 1.602 . S
C426 C172 1.533 . S
C411 C69 1.596 . S
C476 C181 1.536 . S
C461 C83 1.606 . S
C511 C15 1.602 . S
C526 C134 1.524 . S
C561 C41 1.604 . S
C576 C154 1.541 . S
C626 C163 1.530 . S
C611 C42 1.600 . S
C676 C190 1.541 . S
C661 C57 1.603 . S
C711 C71 1.598 . S
C726 C92 1.526 . S
C776 C118 1.539 . S
C761 C1 1.600 . S
C826 C146 1.567 . S
C811 C12 1.652 . S
C861 C26 1.663 . S
C876 C170 1.581 . S
C926 C182 1.565 . S
C911 C28 1.649 . S
C961 C55 1.662 . S
C976 C100 1.555 . S
C1011 C68 1.652 . S
C1026 C110 1.567 . S
C1061 C82 1.660 . S
C1076 C127 1.561 . S
C1111 C14 1.658 . S
C1126 C188 1.576 . S
C1176 C91 1.559 . S
C1161 C40 1.658 . S
C1211 C43 1.660 . S
C1226 C116 1.579 . S
C1261 C56 1.656 . S
C1276 C136 1.551 . S
C1311 C70 1.655 . S
C1326 C152 1.573 . S
C1361 C0 1.656 . S
C1376 C164 1.571 . S
