# Generated by pormake.
# Topology sit, (3,6)-cn, num edge types: 1
# Building blocks:
#     Node 0, Type 0, BuildingBlock: PAMTOO_clean_linker_0, # of connection points: 3
#     Node 1, Type 0, BuildingBlock: PAMTOO_clean_linker_0, # of connection points: 3
#     Node 2, Type 0, BuildingBlock: PAMTOO_clean_linker_0, # of connection points: 3
#     Node 3, Type 0, BuildingBlock: PAMTOO_clean_linker_0, # of connection points: 3
#     Node 4, Type 1, BuildingBlock: MIDCAF_clean_sbu_0, # of connection points: 6
#     Node 5, Type 1, BuildingBlock: MIDCAF_clean_sbu_0, # of connection points: 6
#     Edge 6, Type (0, 1), BuildingBlock: CIFDUS_clean_linker_0, # of connection points: 2
#     Edge 7, Type (0, 1), BuildingBlock: CIFDUS_clean_linker_0, # of connection points: 2
#     Edge 8, Type (0, 1), BuildingBlock: CIFDUS_clean_linker_0, # of connection points: 2
#     Edge 9, Type (0, 1), BuildingBlock: CIFDUS_clean_linker_0, # of connection points: 2
#     Edge 10, Type (0, 1), BuildingBlock: CIFDUS_clean_linker_0, # of connection points: 2
#     Edge 11, Type (0, 1), BuildingBlock: CIFDUS_clean_linker_0, # of connection points: 2
#     Edge 12, Type (0, 1), BuildingBlock: CIFDUS_clean_linker_0, # of connection points: 2
#     Edge 13, Type (0, 1), BuildingBlock: CIFDUS_clean_linker_0, # of connection points: 2
#     Edge 14, Type (0, 1), BuildingBlock: CIFDUS_clean_linker_0, # of connection points: 2
#     Edge 15, Type (0, 1), BuildingBlock: CIFDUS_clean_linker_0, # of connection points: 2
#     Edge 16, Type (0, 1), BuildingBlock: CIFDUS_clean_linker_0, # of connection points: 2
#     Edge 17, Type (0, 1), BuildingBlock: CIFDUS_clean_linker_0, # of connection points: 2
# Relax obj value: 0.078
# Max RMSD: 0.181
# Mean RMSD: 0.115
data_MOF--net-sit--node1-MIDCAF_clean_sbu_0--node2-PAMTOO_clean_linker_0--edge1-CIFDUS_clean_linker_0
_symmetry_space_group_name_H-M    P1
_symmetry_Int_Tables_number       1
_symmetry_cell_setting            triclinic
loop_
_symmetry_equiv_pos_as_xyz
'x, y, z'
_cell_length_a     18.962099
_cell_length_b     28.197816
_cell_length_c     32.800305
_cell_angle_alpha  89.763599
_cell_angle_beta   89.07213
_cell_angle_gamma 86.484828
loop_
_atom_site_label
_atom_site_type_symbol
_atom_site_fract_x
_atom_site_fract_y
_atom_site_fract_z
_atom_type_partial_charge
H0 H 0.06126 0.37526 0.95953 0.0
H1 H 0.19533 0.25203 0.98643 0.0
H2 H -0.02013 0.25862 0.02804 0.0
H3 H 0.15502 0.22722 0.07373 0.0
C4 C 0.13621 0.19484 0.05904 0.0
O5 O 0.09803 0.20609 0.02442 0.0
H6 H 0.18397 0.17239 0.04979 0.0
C7 C 0.06823 0.34155 0.97532 0.0
C8 C 0.01055 0.32071 0.99427 0.0
C9 C 0.13475 0.31739 0.97312 0.0
C10 C 0.14448 0.27157 0.98935 0.0
C11 C 0.08877 0.25093 0.00976 0.0
C12 C 0.0225 0.2757 0.01284 0.0
H13 H 0.05808 0.67489 0.94978 0.0
H14 H 0.91165 0.7832 -0.00321 0.0
H15 H 0.13182 0.78625 0.02518 0.0
H16 H 0.95535 0.79699 0.08072 0.0
C17 C 0.96529 0.83309 0.06876 0.0
O18 O 0.00637 0.83067 0.03357 0.0
H19 H 0.91294 0.85053 0.06121 0.0
C20 C 0.04834 0.70638 0.96833 0.0
C21 C 0.10441 0.72738 0.98723 0.0
C22 C -0.0209 0.72544 0.97245 0.0
C23 C 0.96524 0.76768 0.99407 0.0
C24 C 0.02038 0.78956 0.01306 0.0
C25 C 0.08975 0.76906 0.01027 0.0
H26 H 0.56084 0.92867 0.48117 0.0
H27 H 0.63685 0.80789 0.55168 0.0
H28 H 0.41494 0.84705 0.55019 0.0
H29 H 0.45125 0.80871 0.62779 0.0
C30 C 0.50473 0.79223 0.62041 0.0
O31 O 0.51192 0.78687 0.57882 0.0
H32 H 0.54403 0.81657 0.63193 0.0
C33 C 0.55039 0.90065 0.50278 0.0
C34 C 0.48053 0.89238 0.51422 0.0
C35 C 0.60681 0.87037 0.51609 0.0
C36 C 0.59369 0.83199 0.54181 0.0
C37 C 0.52452 0.82406 0.55425 0.0
C38 C 0.46821 0.85407 0.54052 0.0
H39 H 0.5135 0.15764 0.47917 0.0
H40 H 0.39147 0.2853 0.50814 0.0
H41 H 0.60847 0.27316 0.54085 0.0
H42 H 0.43936 0.31291 0.59105 0.0
C43 C 0.45856 0.34377 0.57367 0.0
O44 O 0.49542 0.32931 0.53877 0.0
H45 H 0.41105 0.36603 0.56444 0.0
C46 C 0.51148 0.19181 0.49392 0.0
C47 C 0.57278 0.21107 0.50918 0.0
C48 C 0.44612 0.21772 0.49454 0.0
C49 C 0.44127 0.26432 0.50904 0.0
C50 C 0.50016 0.2837 0.52582 0.0
C51 C 0.56475 0.25678 0.52718 0.0
Zn52 Zn -0.00803 0.12074 0.33627 0.0
Zn53 Zn 0.07653 0.90924 0.35653 0.0
Zn54 Zn 0.03405 0.03751 0.35235 0.0
C55 C 0.04681 0.95396 0.2767 0.0
C56 C 0.95067 0.95364 0.40342 0.0
O57 O 0.11348 0.08463 0.37617 0.0
O58 O 0.07332 0.15542 0.35459 0.0
C59 C 0.0071 0.08099 0.2619 0.0
O60 O 0.03841 0.99562 0.29356 0.0
O61 O 0.06083 0.91607 0.29698 0.0
O62 O -0.01131 0.91732 0.39142 0.0
O63 O 0.96186 0.99664 0.39172 0.0
O64 O -0.02196 0.11817 0.2775 0.0
O65 O 0.03096 0.04693 0.28519 0.0
O66 O 0.93427 0.04789 0.38796 0.0
O67 O 0.90993 0.12348 0.37276 0.0
C68 C 0.89545 0.08665 0.39229 0.0
O69 O 0.13633 0.03809 0.38425 0.0
O70 O 0.10795 0.96999 0.36748 0.0
C71 C 0.11934 0.12983 0.37319 0.0
C72 C 0.14994 0.99364 0.38636 0.0
Zn73 Zn 0.56143 0.60651 0.85911 0.0
Zn74 Zn 0.57904 0.44281 0.84115 0.0
Zn75 Zn 0.56431 0.52651 0.85245 0.0
C76 C 0.58581 0.47293 0.76492 0.0
C77 C 0.44688 0.45786 0.87719 0.0
O78 O 0.65402 0.54862 0.88911 0.0
O79 O 0.60111 0.61435 0.91356 0.0
C80 C 0.60047 0.59904 0.78269 0.0
O81 O 0.56511 0.51046 0.7853 0.0
O82 O 0.60665 0.43583 0.78381 0.0
O83 O 0.48245 0.42745 0.85604 0.0
O84 O 0.46944 0.49959 0.88182 0.0
O85 O 0.6195 0.62477 0.81132 0.0
O86 O 0.56956 0.56072 0.79126 0.0
O87 O 0.46378 0.5515 0.88368 0.0
O88 O 0.46015 0.62378 0.85778 0.0
C89 C 0.43138 0.59267 0.8789 0.0
O90 O 0.66037 0.498 0.88613 0.0
O91 O 0.64847 0.42119 0.88085 0.0
C92 C 0.65247 0.58401 0.91399 0.0
C93 C 0.68006 0.45488 0.89572 0.0
H94 H 0.17045 0.11153 0.09896 0.0
H95 H 0.00592 0.22331 0.08982 0.0
H96 H 0.94144 0.1891 0.14639 0.0
H97 H 0.94172 0.13581 0.20486 0.0
H98 H 0.11489 0.03129 0.2209 0.0
H99 H 0.1644 0.05246 0.15451 0.0
C100 C 0.11965 0.12763 0.10883 0.0
C101 C 0.0922 0.16942 0.08975 0.0
C102 C 0.08445 0.10888 0.14271 0.0
C103 C 0.02712 0.19055 0.10326 0.0
C104 C -0.00944 0.17118 0.13588 0.0
C105 C -0.01061 0.1168 0.19337 0.0
C106 C 0.02471 0.08222 0.21787 0.0
C107 C 0.01998 0.13142 0.15668 0.0
C108 C 0.08612 0.05765 0.20249 0.0
C109 C 0.11514 0.07037 0.1648 0.0
H110 H 0.91539 0.91402 0.10773 0.0
H111 H 0.09222 0.81046 0.10368 0.0
H112 H 0.13993 0.84464 0.16515 0.0
H113 H 0.12172 0.89619 0.2249 0.0
H114 H 0.94057 0.99605 0.23158 0.0
H115 H 0.90493 0.97229 0.16364 0.0
C116 C 0.96515 0.89971 0.1199 0.0
C117 C 0.00034 0.85974 0.10156 0.0
C118 C -0.00881 0.91888 0.15568 0.0
C119 C 0.06459 0.84129 0.11745 0.0
C120 C 0.09155 0.86066 0.15261 0.0
C121 C 0.07534 0.91345 0.21096 0.0
C122 C 0.034 0.94797 0.2329 0.0
C123 C 0.05395 0.89832 0.17272 0.0
C124 C -0.02608 0.97007 0.21486 0.0
C125 C 0.95307 0.95601 0.17627 0.0
H126 H 0.62775 0.74858 0.64632 0.0
H127 H 0.40458 0.72962 0.63997 0.0
H128 H 0.41832 0.65853 0.68304 0.0
H129 H 0.49021 0.61166 0.73244 0.0
H130 H 0.71129 0.63545 0.74315 0.0
H131 H 0.70301 0.69375 0.68776 0.0
C132 C 0.58252 0.72831 0.65396 0.0
C133 C 0.515 0.74481 0.6413 0.0
C134 C 0.59069 0.68832 0.67946 0.0
C135 C 0.45676 0.71795 0.65036 0.0
C136 C 0.46466 0.67739 0.67489 0.0
C137 C 0.53711 0.628 0.72122 0.0
C138 C 0.60139 0.61917 0.74133 0.0
C139 C 0.53087 0.66342 0.691 0.0
C140 C 0.66151 0.64156 0.72763 0.0
C141 C 0.65652 0.67529 0.69638 0.0
H142 H 0.43212 0.43311 0.60472 0.0
H143 H 0.58537 0.31371 0.60552 0.0
H144 H 0.65021 0.35088 0.65923 0.0
H145 H 0.65079 0.40965 0.71342 0.0
H146 H 0.49043 0.52478 0.71818 0.0
H147 H 0.44275 0.49849 0.65378 0.0
C148 C 0.48067 0.4159 0.61606 0.0
C149 C 0.50427 0.37082 0.60122 0.0
C150 C 0.51629 0.43684 0.64792 0.0
C151 C 0.5668 0.34857 0.61625 0.0
C152 C 0.60359 0.36973 0.64708 0.0
C153 C 0.60661 0.42983 0.69974 0.0
C154 C 0.57349 0.46867 0.72078 0.0
C155 C 0.57718 0.41285 0.66419 0.0
C156 C 0.51704 0.4949 0.70251 0.0
C157 C 0.48903 0.47933 0.66603 0.0
H158 H 0.20092 0.3958 0.99378 0.0
H159 H 0.19482 0.28726 0.90201 0.0
H160 H 0.286 0.32502 0.86195 0.0
H161 H 0.3681 0.38742 0.85394 0.0
H162 H 0.38645 0.49084 0.94908 0.0
H163 H 0.28794 0.45762 0.9867 0.0
C164 C 0.22012 0.38059 0.96506 0.0
C165 C 0.19223 0.33894 0.95063 0.0
C166 C 0.27342 0.40196 0.94275 0.0
C167 C 0.21665 0.31909 0.91357 0.0
C168 C 0.26819 0.34079 0.89069 0.0
C169 C 0.35025 0.40299 0.88279 0.0
C170 C 0.38301 0.44235 0.89824 0.0
C171 C 0.29694 0.38208 0.90506 0.0
C172 C 0.36027 0.46157 0.93596 0.0
C173 C 0.30475 0.44216 0.95767 0.0
H174 H 0.86547 0.69481 0.01281 0.0
H175 H 0.96832 0.69499 0.89461 0.0
H176 H 0.88236 0.64226 0.86815 0.0
H177 H 0.77505 0.5995 0.87788 0.0
H178 H 0.66645 0.60374 0.99419 0.0
H179 H 0.7591 0.64987 0.02302 0.0
C180 C 0.86813 0.68373 0.98115 0.0
C181 C 0.92206 0.69896 0.95543 0.0
C182 C 0.819 0.6532 0.96634 0.0
C183 C 0.9265 0.6838 0.9147 0.0
C184 C 0.87795 0.65342 0.89973 0.0
C185 C 0.77334 0.60918 0.9099 0.0
C186 C 0.71581 0.5975 0.9344 0.0
C187 C 0.82414 0.63787 0.92529 0.0
C188 C 0.71179 0.61154 0.97536 0.0
C189 C 0.76389 0.63851 0.99152 0.0
H190 H 0.96788 0.41583 0.98584 0.0
H191 H 0.88599 0.27572 0.99027 0.0
H192 H 0.77275 0.30852 0.96794 0.0
H193 H 0.70357 0.37244 0.93555 0.0
H194 H 0.78996 0.50901 0.91759 0.0
H195 H 0.89505 0.48196 0.95582 0.0
C196 C 0.92578 0.39212 0.98165 0.0
C197 C 0.93742 0.3428 0.98908 0.0
C198 C 0.86155 0.41052 0.96552 0.0
C199 C 0.88006 0.31369 0.98543 0.0
C200 C 0.8149 0.33232 0.97189 0.0
C201 C 0.74509 0.39661 0.94016 0.0
C202 C 0.73926 0.44265 0.9234 0.0
C203 C 0.80631 0.38001 0.96005 0.0
C204 C 0.79286 0.47365 0.93044 0.0
C205 C 0.85322 0.45792 0.95196 0.0
H206 H 0.14901 0.63382 0.97903 0.0
H207 H 0.22516 0.77522 0.97624 0.0
H208 H 0.33646 0.7438 0.9459 0.0
H209 H 0.40434 0.67897 0.91126 0.0
H210 H 0.31732 0.54222 0.90018 0.0
H211 H 0.21624 0.56912 0.94361 0.0
C212 C 0.18962 0.65802 0.97155 0.0
C213 C 0.17754 0.70718 0.9789 0.0
C214 C 0.25076 0.64052 0.95085 0.0
C215 C 0.23251 0.73734 0.97103 0.0
C216 C 0.29581 0.71951 0.95298 0.0
C217 C 0.36311 0.65502 0.91827 0.0
C218 C 0.36875 0.60808 0.90358 0.0
C219 C 0.30399 0.67169 0.94116 0.0
C220 C 0.31538 0.57751 0.91288 0.0
C221 C 0.25736 0.59326 0.93713 0.0
H222 H 0.68725 0.94616 0.52286 0.0
H223 H 0.68273 0.80722 0.46899 0.0
H224 H 0.79035 0.82067 0.42966 0.0
H225 H 0.87873 0.8744 0.40648 0.0
H226 H 0.89237 1.0103 0.46447 0.0
H227 H 0.78741 0.99598 0.50642 0.0
C228 C 0.71092 0.91868 0.50303 0.0
C229 C 0.67772 0.87586 0.49852 0.0
C230 C 0.77302 0.92655 0.48082 0.0
C231 C 0.70817 0.84023 0.47297 0.0
C232 C 0.76916 0.84808 0.45031 0.0
C233 C 0.85906 0.90085 0.42847 0.0
C234 C 0.89068 0.94452 0.43094 0.0
C235 C 0.80092 0.8915 0.45332 0.0
C236 C 0.86614 0.97766 0.46045 0.0
C237 C 0.80694 0.96913 0.4848 0.0
H238 H 0.36313 0.25262 0.43405 0.0
H239 H 0.39175 0.13466 0.51733 0.0
H240 H 0.29143 0.09713 0.48765 0.0
H241 H 0.19652 0.09802 0.43758 0.0
H242 H 0.17265 0.21384 0.35167 0.0
H243 H 0.26952 0.25267 0.38318 0.0
C244 C 0.34681 0.21889 0.44577 0.0
C245 C 0.38386 0.19639 0.47779 0.0
C246 C 0.29049 0.19715 0.42797 0.0
C247 C 0.36347 0.1524 0.49259 0.0
C248 C 0.30645 0.13099 0.47563 0.0
C249 C 0.21383 0.13107 0.42514 0.0
C250 C 0.17881 0.15245 0.39184 0.0
C251 C 0.27006 0.15284 0.44304 0.0
C252 C 0.19926 0.19655 0.3772 0.0
C253 C 0.25461 0.21875 0.39514 0.0
H254 H 0.35858 0.85956 0.48722 0.0
H255 H 0.46934 0.98817 0.49688 0.0
H256 H 0.37726 0.0314 0.45778 0.0
H257 H 0.26712 0.03136 0.41814 0.0
H258 H 0.15618 0.90247 0.41231 0.0
H259 H 0.2463 0.86088 0.4528 0.0
C260 C 0.36189 0.89734 0.48185 0.0
C261 C 0.42087 0.92045 0.49506 0.0
C262 C 0.30879 0.92197 0.45971 0.0
C263 C 0.42485 0.96927 0.48671 0.0
C264 C 0.37207 0.9941 0.46447 0.0
C265 C 0.26204 0.99456 0.42648 0.0
C266 C 0.20487 0.97024 0.41221 0.0
C267 C 0.31408 0.97065 0.45038 0.0
C268 C 0.19998 0.92204 0.4224 0.0
C269 C 0.25134 0.89815 0.44582 0.0
H270 H 0.60817 0.11643 0.48696 0.0
H271 H 0.7058 0.24789 0.51426 0.0
H272 H 0.81661 0.2141 0.48902 0.0
H273 H 0.88165 0.15529 0.44703 0.0
H274 H 0.77909 0.03368 0.40339 0.0
H275 H 0.67406 0.05639 0.44558 0.0
C276 C 0.65218 0.13898 0.48668 0.0
C277 C 0.64474 0.18636 0.5014 0.0
C278 C 0.71578 0.12105 0.46836 0.0
C279 C 0.70649 0.21186 0.50335 0.0
C280 C 0.77107 0.19268 0.48825 0.0
C281 C 0.83663 0.13327 0.4474 0.0
C282 C 0.83807 0.09255 0.42285 0.0
C283 C 0.77532 0.14852 0.46891 0.0
C284 C 0.7795 0.06457 0.42289 0.0
C285 C 0.71937 0.07796 0.4466 0.0
loop_
_geom_bond_atom_site_label_1
_geom_bond_atom_site_label_2
_geom_bond_distance
_geom_bond_site_symmetry_2
_ccdc_geom_bond_type
H0 C7 0.929 . S
H1 C10 0.930 . S
H2 C12 0.929 . S
H3 C4 0.969 . S
C4 H3 0.969 . S
C4 O5 1.550 . S
C4 H6 0.973 . S
O5 C4 1.550 . S
O5 C11 1.412 . S
H6 C4 0.973 . S
C7 H0 0.929 . S
C7 C8 1.400 . S
C7 C9 1.364 . S
C8 C7 1.400 . S
C8 C12 1.377 1_556 S
C9 C7 1.364 . S
C9 C10 1.374 1_556 S
C10 H1 0.930 . S
C10 C9 1.374 1_554 S
C10 C11 1.383 . S
C11 O5 1.412 . S
C11 C10 1.383 . S
C11 C12 1.394 . S
C12 H2 0.929 . S
C12 C8 1.377 1_554 S
C12 C11 1.394 . S
H13 C20 0.929 . S
H14 C23 0.930 . S
H15 C25 0.929 . S
H16 C17 0.969 . S
C17 H16 0.969 . S
C17 O18 1.550 1_655 S
C17 H19 0.973 . S
O18 C17 1.550 1_455 S
O18 C24 1.412 . S
H19 C17 0.973 . S
C20 H13 0.929 . S
C20 C21 1.400 . S
C20 C22 1.364 1_455 S
C21 C20 1.400 . S
C21 C25 1.377 1_556 S
C22 C20 1.364 1_655 S
C22 C23 1.374 1_556 S
C23 H14 0.930 . S
C23 C22 1.374 1_554 S
C23 C24 1.383 1_655 S
C24 O18 1.412 . S
C24 C23 1.383 1_455 S
C24 C25 1.394 . S
C25 H15 0.929 . S
C25 C21 1.377 1_554 S
C25 C24 1.394 . S
H26 C33 0.929 . S
H27 C36 0.930 . S
H28 C38 0.929 . S
H29 C30 0.969 . S
C30 H29 0.969 . S
C30 O31 1.550 . S
C30 H32 0.973 . S
O31 C30 1.550 . S
O31 C37 1.412 . S
H32 C30 0.973 . S
C33 H26 0.929 . S
C33 C34 1.400 . S
C33 C35 1.364 . S
C34 C33 1.400 . S
C34 C38 1.377 . S
C35 C33 1.364 . S
C35 C36 1.374 . S
C36 H27 0.930 . S
C36 C35 1.374 . S
C36 C37 1.383 . S
C37 O31 1.412 . S
C37 C36 1.383 . S
C37 C38 1.394 . S
C38 H28 0.929 . S
C38 C34 1.377 . S
C38 C37 1.394 . S
H39 C46 0.929 . S
H40 C49 0.930 . S
H41 C51 0.929 . S
H42 C43 0.969 . S
C43 H42 0.969 . S
C43 O44 1.550 . S
C43 H45 0.973 . S
O44 C43 1.550 . S
O44 C50 1.412 . S
H45 C43 0.973 . S
C46 H39 0.929 . S
C46 C47 1.400 . S
C46 C48 1.364 . S
C47 C46 1.400 . S
C47 C51 1.377 . S
C48 C46 1.364 . S
C48 C49 1.374 . S
C49 H40 0.930 . S
C49 C48 1.374 . S
C49 C50 1.383 . S
C50 O44 1.412 . S
C50 C49 1.383 . S
C50 C51 1.394 . S
C51 H41 0.929 . S
C51 C47 1.377 . S
C51 C50 1.394 . S
Zn52 O58 1.920 . S
Zn52 O64 1.898 . S
Zn52 O67 1.905 1_455 S
Zn53 O61 1.905 . S
Zn53 O62 1.910 . S
Zn53 O70 1.920 . S
Zn54 O57 2.080 . S
Zn54 O60 2.114 1_545 S
Zn54 O63 2.120 1_545 S
Zn54 O65 2.120 . S
Zn54 O66 2.114 1_455 S
Zn54 O69 2.080 1_545 S
C55 O60 1.166 . S
C55 O61 1.182 . S
C56 O62 1.165 1_655 S
C56 O63 1.299 1_655 S
O57 Zn54 2.080 . S
O57 C71 1.305 . S
O58 Zn52 1.920 . S
O58 C71 1.234 . S
C59 O64 1.167 . S
C59 O65 1.299 . S
O60 Zn54 2.114 1_565 S
O60 C55 1.166 . S
O61 Zn53 1.905 . S
O61 C55 1.182 . S
O62 Zn53 1.910 . S
O62 C56 1.165 1_455 S
O63 Zn54 2.120 1_565 S
O63 C56 1.299 1_455 S
O64 Zn52 1.898 . S
O64 C59 1.167 . S
O65 Zn54 2.120 . S
O65 C59 1.299 . S
O66 Zn54 2.114 1_655 S
O66 C68 1.166 . S
O67 Zn52 1.905 1_655 S
O67 C68 1.182 . S
C68 O66 1.166 . S
C68 O67 1.182 . S
O69 Zn54 2.080 1_565 S
O69 C72 1.305 . S
O70 Zn53 1.920 . S
O70 C72 1.234 . S
C71 O57 1.305 . S
C71 O58 1.234 . S
C72 O69 1.305 . S
C72 O70 1.234 . S
Zn73 O79 1.920 . S
Zn73 O85 1.898 . S
Zn73 O88 1.905 . S
Zn74 O82 1.905 . S
Zn74 O83 1.898 . S
Zn74 O91 1.920 . S
Zn75 O78 2.080 . S
Zn75 O81 2.114 . S
Zn75 O84 2.120 . S
Zn75 O86 2.120 . S
Zn75 O87 2.114 . S
Zn75 O90 2.080 . S
C76 O81 1.166 . S
C76 O82 1.182 . S
C77 O83 1.167 . S
C77 O84 1.299 . S
O78 Zn75 2.080 . S
O78 C92 1.305 . S
O79 Zn73 1.920 . S
O79 C92 1.234 . S
C80 O85 1.167 . S
C80 O86 1.299 . S
O81 Zn75 2.114 . S
O81 C76 1.166 . S
O82 Zn74 1.905 . S
O82 C76 1.182 . S
O83 Zn74 1.898 . S
O83 C77 1.167 . S
O84 Zn75 2.120 . S
O84 C77 1.299 . S
O85 Zn73 1.898 . S
O85 C80 1.167 . S
O86 Zn75 2.120 . S
O86 C80 1.299 . S
O87 Zn75 2.114 . S
O87 C89 1.166 . S
O88 Zn73 1.905 . S
O88 C89 1.182 . S
C89 O87 1.166 . S
C89 O88 1.182 . S
O90 Zn75 2.080 . S
O90 C93 1.305 . S
O91 Zn74 1.920 . S
O91 C93 1.234 . S
C92 O78 1.305 . S
C92 O79 1.234 . S
C93 O90 1.305 . S
C93 O91 1.234 . S
H94 C100 0.930 . S
H95 C103 0.930 . S
H96 C104 0.930 . S
H97 C105 0.930 . S
H98 C108 0.930 . S
H99 C109 0.930 . S
C100 H94 0.930 . S
C100 C101 1.355 . S
C100 C102 1.415 . S
C101 C100 1.355 . S
C101 C103 1.419 . S
C102 C100 1.415 . S
C102 C107 1.425 . S
C102 C109 1.409 . S
C103 H95 0.930 . S
C103 C101 1.419 . S
C103 C104 1.362 . S
C104 H96 0.930 . S
C104 C103 1.362 . S
C104 C107 1.409 . S
C105 H97 0.930 . S
C105 C106 1.355 . S
C105 C107 1.415 . S
C106 C105 1.355 . S
C106 C108 1.419 . S
C107 C102 1.425 . S
C107 C104 1.409 . S
C107 C105 1.415 . S
C108 H98 0.930 . S
C108 C106 1.419 . S
C108 C109 1.362 . S
C109 H99 0.930 . S
C109 C102 1.409 . S
C109 C108 1.362 . S
H110 C116 0.930 . S
H111 C119 0.930 . S
H112 C120 0.930 . S
H113 C121 0.930 . S
H114 C124 0.930 . S
H115 C125 0.930 . S
C116 H110 0.930 . S
C116 C117 1.355 1_655 S
C116 C118 1.415 . S
C117 C116 1.355 1_455 S
C117 C119 1.419 . S
C118 C116 1.415 . S
C118 C123 1.425 1_655 S
C118 C125 1.409 . S
C119 H111 0.930 . S
C119 C117 1.419 . S
C119 C120 1.362 . S
C120 H112 0.930 . S
C120 C119 1.362 . S
C120 C123 1.409 . S
C121 H113 0.930 . S
C121 C122 1.355 . S
C121 C123 1.415 . S
C122 C121 1.355 . S
C122 C124 1.419 1_455 S
C123 C118 1.425 1_455 S
C123 C120 1.409 . S
C123 C121 1.415 . S
C124 H114 0.930 . S
C124 C122 1.419 1_655 S
C124 C125 1.362 . S
C125 H115 0.930 . S
C125 C118 1.409 . S
C125 C124 1.362 . S
H126 C132 0.930 . S
H127 C135 0.930 . S
H128 C136 0.930 . S
H129 C137 0.930 . S
H130 C140 0.930 . S
H131 C141 0.930 . S
C132 H126 0.930 . S
C132 C133 1.355 . S
C132 C134 1.415 . S
C133 C132 1.355 . S
C133 C135 1.419 . S
C134 C132 1.415 . S
C134 C139 1.425 . S
C134 C141 1.409 . S
C135 H127 0.930 . S
C135 C133 1.419 . S
C135 C136 1.362 . S
C136 H128 0.930 . S
C136 C135 1.362 . S
C136 C139 1.409 . S
C137 H129 0.930 . S
C137 C138 1.355 . S
C137 C139 1.415 . S
C138 C137 1.355 . S
C138 C140 1.419 . S
C139 C134 1.425 . S
C139 C136 1.409 . S
C139 C137 1.415 . S
C140 H130 0.930 . S
C140 C138 1.419 . S
C140 C141 1.362 . S
C141 H131 0.930 . S
C141 C134 1.409 . S
C141 C140 1.362 . S
H142 C148 0.930 . S
H143 C151 0.930 . S
H144 C152 0.930 . S
H145 C153 0.930 . S
H146 C156 0.930 . S
H147 C157 0.930 . S
C148 H142 0.930 . S
C148 C149 1.355 . S
C148 C150 1.415 . S
C149 C148 1.355 . S
C149 C151 1.419 . S
C150 C148 1.415 . S
C150 C155 1.425 . S
C150 C157 1.409 . S
C151 H143 0.930 . S
C151 C149 1.419 . S
C151 C152 1.362 . S
C152 H144 0.930 . S
C152 C151 1.362 . S
C152 C155 1.409 . S
C153 H145 0.930 . S
C153 C154 1.355 . S
C153 C155 1.415 . S
C154 C153 1.355 . S
C154 C156 1.419 . S
C155 C150 1.425 . S
C155 C152 1.409 . S
C155 C153 1.415 . S
C156 H146 0.930 . S
C156 C154 1.419 . S
C156 C157 1.362 . S
C157 H147 0.930 . S
C157 C150 1.409 . S
C157 C156 1.362 . S
H158 C164 0.930 1_554 S
H159 C167 0.930 . S
H160 C168 0.930 . S
H161 C169 0.930 . S
H162 C172 0.930 . S
H163 C173 0.930 1_554 S
C164 H158 0.930 1_556 S
C164 C165 1.355 . S
C164 C166 1.415 . S
C165 C164 1.355 . S
C165 C167 1.419 . S
C166 C164 1.415 . S
C166 C171 1.425 . S
C166 C173 1.409 . S
C167 H159 0.930 . S
C167 C165 1.419 . S
C167 C168 1.362 . S
C168 H160 0.930 . S
C168 C167 1.362 . S
C168 C171 1.409 . S
C169 H161 0.930 . S
C169 C170 1.355 . S
C169 C171 1.415 . S
C170 C169 1.355 . S
C170 C172 1.419 . S
C171 C166 1.425 . S
C171 C168 1.409 . S
C171 C169 1.415 . S
C172 H162 0.930 . S
C172 C170 1.419 . S
C172 C173 1.362 . S
C173 H163 0.930 1_556 S
C173 C166 1.409 . S
C173 C172 1.362 . S
H174 C180 0.928 . S
H175 C183 0.930 . S
H176 C184 0.930 . S
H177 C185 0.930 . S
H178 C188 0.930 . S
H179 C189 0.934 . S
C180 H174 0.928 . S
C180 C181 1.355 1_554 S
C180 C182 1.415 1_554 S
C181 C180 1.355 1_556 S
C181 C183 1.419 . S
C182 C180 1.415 1_556 S
C182 C187 1.425 . S
C182 C189 1.407 1_556 S
C183 H175 0.930 . S
C183 C181 1.419 . S
C183 C184 1.362 . S
C184 H176 0.930 . S
C184 C183 1.362 . S
C184 C187 1.409 . S
C185 H177 0.930 . S
C185 C186 1.355 . S
C185 C187 1.415 . S
C186 C185 1.355 . S
C186 C188 1.419 . S
C187 C182 1.425 . S
C187 C184 1.409 . S
C187 C185 1.415 . S
C188 H178 0.930 . S
C188 C186 1.419 . S
C188 C189 1.360 1_556 S
C189 H179 0.934 . S
C189 C182 1.407 1_554 S
C189 C188 1.360 1_554 S
H190 C196 0.930 1_455 S
H191 C199 0.930 . S
H192 C200 0.930 . S
H193 C201 0.930 . S
H194 C204 0.930 . S
H195 C205 0.930 . S
C196 H190 0.930 1_655 S
C196 C197 1.355 . S
C196 C198 1.415 . S
C197 C196 1.355 . S
C197 C199 1.419 . S
C198 C196 1.415 . S
C198 C203 1.425 . S
C198 C205 1.409 . S
C199 H191 0.930 . S
C199 C197 1.419 . S
C199 C200 1.362 . S
C200 H192 0.930 . S
C200 C199 1.362 . S
C200 C203 1.409 . S
C201 H193 0.930 . S
C201 C202 1.355 . S
C201 C203 1.415 . S
C202 C201 1.355 . S
C202 C204 1.419 . S
C203 C198 1.425 . S
C203 C200 1.409 . S
C203 C201 1.415 . S
C204 H194 0.930 . S
C204 C202 1.419 . S
C204 C205 1.362 . S
C205 H195 0.930 . S
C205 C198 1.409 . S
C205 C204 1.362 . S
H206 C212 0.930 . S
H207 C215 0.930 . S
H208 C216 0.930 . S
H209 C217 0.930 . S
H210 C220 0.930 . S
H211 C221 0.930 . S
C212 H206 0.930 . S
C212 C213 1.355 . S
C212 C214 1.415 . S
C213 C212 1.355 . S
C213 C215 1.419 . S
C214 C212 1.415 . S
C214 C219 1.425 . S
C214 C221 1.409 . S
C215 H207 0.930 . S
C215 C213 1.419 . S
C215 C216 1.362 . S
C216 H208 0.930 . S
C216 C215 1.362 . S
C216 C219 1.409 . S
C217 H209 0.930 . S
C217 C218 1.355 . S
C217 C219 1.415 . S
C218 C217 1.355 . S
C218 C220 1.419 . S
C219 C214 1.425 . S
C219 C216 1.409 . S
C219 C217 1.415 . S
C220 H210 0.930 . S
C220 C218 1.419 . S
C220 C221 1.362 . S
C221 H211 0.930 . S
C221 C214 1.409 . S
C221 C220 1.362 . S
H222 C228 0.930 . S
H223 C231 0.930 . S
H224 C232 0.930 . S
H225 C233 0.930 . S
H226 C236 0.930 . S
H227 C237 0.930 . S
C228 H222 0.930 . S
C228 C229 1.355 . S
C228 C230 1.415 . S
C229 C228 1.355 . S
C229 C231 1.419 . S
C230 C228 1.415 . S
C230 C235 1.425 . S
C230 C237 1.409 . S
C231 H223 0.930 . S
C231 C229 1.419 . S
C231 C232 1.362 . S
C232 H224 0.930 . S
C232 C231 1.362 . S
C232 C235 1.409 . S
C233 H225 0.930 . S
C233 C234 1.355 . S
C233 C235 1.415 . S
C234 C233 1.355 . S
C234 C236 1.419 . S
C235 C230 1.425 . S
C235 C232 1.409 . S
C235 C233 1.415 . S
C236 H226 0.930 . S
C236 C234 1.419 . S
C236 C237 1.362 . S
C237 H227 0.930 . S
C237 C230 1.409 . S
C237 C236 1.362 . S
H238 C244 0.930 . S
H239 C247 0.930 . S
H240 C248 0.930 . S
H241 C249 0.930 . S
H242 C252 0.930 . S
H243 C253 0.930 . S
C244 H238 0.930 . S
C244 C245 1.355 . S
C244 C246 1.415 . S
C245 C244 1.355 . S
C245 C247 1.419 . S
C246 C244 1.415 . S
C246 C251 1.425 . S
C246 C253 1.409 . S
C247 H239 0.930 . S
C247 C245 1.419 . S
C247 C248 1.362 . S
C248 H240 0.930 . S
C248 C247 1.362 . S
C248 C251 1.409 . S
C249 H241 0.930 . S
C249 C250 1.355 . S
C249 C251 1.415 . S
C250 C249 1.355 . S
C250 C252 1.419 . S
C251 C246 1.425 . S
C251 C248 1.409 . S
C251 C249 1.415 . S
C252 H242 0.930 . S
C252 C250 1.419 . S
C252 C253 1.362 . S
C253 H243 0.930 . S
C253 C246 1.409 . S
C253 C252 1.362 . S
H254 C260 0.930 . S
H255 C263 0.930 . S
H256 C264 0.930 . S
H257 C265 0.930 . S
H258 C268 0.930 . S
H259 C269 0.930 . S
C260 H254 0.930 . S
C260 C261 1.355 . S
C260 C262 1.415 . S
C261 C260 1.355 . S
C261 C263 1.419 . S
C262 C260 1.415 . S
C262 C267 1.425 . S
C262 C269 1.409 . S
C263 H255 0.930 . S
C263 C261 1.419 . S
C263 C264 1.362 . S
C264 H256 0.930 . S
C264 C263 1.362 . S
C264 C267 1.409 . S
C265 H257 0.930 . S
C265 C266 1.355 . S
C265 C267 1.415 . S
C266 C265 1.355 . S
C266 C268 1.419 . S
C267 C262 1.425 . S
C267 C264 1.409 . S
C267 C265 1.415 . S
C268 H258 0.930 . S
C268 C266 1.419 . S
C268 C269 1.362 . S
C269 H259 0.930 . S
C269 C262 1.409 . S
C269 C268 1.362 . S
H270 C276 0.930 . S
H271 C279 0.930 . S
H272 C280 0.930 . S
H273 C281 0.930 . S
H274 C284 0.930 . S
H275 C285 0.930 . S
C276 H270 0.930 . S
C276 C277 1.355 . S
C276 C278 1.415 . S
C277 C276 1.355 . S
C277 C279 1.419 . S
C278 C276 1.415 . S
C278 C283 1.425 . S
C278 C285 1.409 . S
C279 H271 0.930 . S
C279 C277 1.419 . S
C279 C280 1.362 . S
C280 H272 0.930 . S
C280 C279 1.362 . S
C280 C283 1.409 . S
C281 H273 0.930 . S
C281 C282 1.355 . S
C281 C283 1.415 . S
C282 C281 1.355 . S
C282 C284 1.419 . S
C283 C278 1.425 . S
C283 C280 1.409 . S
C283 C281 1.415 . S
C284 H274 0.930 . S
C284 C282 1.419 . S
C284 C285 1.362 . S
C285 H275 0.930 . S
C285 C278 1.409 . S
C285 C284 1.362 . S
C106 C59 1.438 . S
C101 C4 1.479 . S
C122 C55 1.411 . S
C117 C17 1.506 1_455 S
C138 C80 1.373 . S
C133 C30 1.508 . S
C149 C43 1.503 . S
C154 C76 1.367 . S
C165 C9 1.258 . S
C170 C77 1.137 . S
C186 C92 1.177 . S
C181 C22 1.281 . S
C197 C8 1.709 1_655 S
C202 C93 1.600 . S
C218 C89 1.617 . S
C213 C21 1.720 . S
C234 C56 1.220 . S
C229 C35 1.301 . S
C245 C48 1.265 . S
C250 C71 1.117 . S
C266 C72 1.500 . S
C261 C34 1.688 . S
C282 C68 1.606 . S
C277 C47 1.716 . S
