# Generated by pormake.
# Topology ssa, (4,4)-cn, num edge types: 1
# Building blocks:
#     Node 0, Type 0, BuildingBlock: ESEHIV_clean_sbu_0, # of connection points: 4
#     Node 1, Type 0, BuildingBlock: ESEHIV_clean_sbu_0, # of connection points: 4
#     Node 2, Type 0, BuildingBlock: ESEHIV_clean_sbu_0, # of connection points: 4
#     Node 3, Type 0, BuildingBlock: ESEHIV_clean_sbu_0, # of connection points: 4
#     Node 4, Type 0, BuildingBlock: ESEHIV_clean_sbu_0, # of connection points: 4
#     Node 5, Type 0, BuildingBlock: ESEHIV_clean_sbu_0, # of connection points: 4
#     Node 6, Type 1, BuildingBlock: AZAVOO_clean_linker_0, # of connection points: 4
#     Node 7, Type 1, BuildingBlock: AZAVOO_clean_linker_0, # of connection points: 4
#     Node 8, Type 1, BuildingBlock: AZAVOO_clean_linker_0, # of connection points: 4
#     Node 9, Type 1, BuildingBlock: AZAVOO_clean_linker_0, # of connection points: 4
#     Node 10, Type 1, BuildingBlock: AZAVOO_clean_linker_0, # of connection points: 4
#     Node 11, Type 1, BuildingBlock: AZAVOO_clean_linker_0, # of connection points: 4
#     Edge 12, Type (0, 1), BuildingBlock: AJUNOK_clean_linker_0, # of connection points: 2
#     Edge 13, Type (0, 1), BuildingBlock: AJUNOK_clean_linker_0, # of connection points: 2
#     Edge 14, Type (0, 1), BuildingBlock: AJUNOK_clean_linker_0, # of connection points: 2
#     Edge 15, Type (0, 1), BuildingBlock: AJUNOK_clean_linker_0, # of connection points: 2
#     Edge 16, Type (0, 1), BuildingBlock: AJUNOK_clean_linker_0, # of connection points: 2
#     Edge 17, Type (0, 1), BuildingBlock: AJUNOK_clean_linker_0, # of connection points: 2
#     Edge 18, Type (0, 1), BuildingBlock: AJUNOK_clean_linker_0, # of connection points: 2
#     Edge 19, Type (0, 1), BuildingBlock: AJUNOK_clean_linker_0, # of connection points: 2
#     Edge 20, Type (0, 1), BuildingBlock: AJUNOK_clean_linker_0, # of connection points: 2
#     Edge 21, Type (0, 1), BuildingBlock: AJUNOK_clean_linker_0, # of connection points: 2
#     Edge 22, Type (0, 1), BuildingBlock: AJUNOK_clean_linker_0, # of connection points: 2
#     Edge 23, Type (0, 1), BuildingBlock: AJUNOK_clean_linker_0, # of connection points: 2
#     Edge 24, Type (0, 1), BuildingBlock: AJUNOK_clean_linker_0, # of connection points: 2
#     Edge 25, Type (0, 1), BuildingBlock: AJUNOK_clean_linker_0, # of connection points: 2
#     Edge 26, Type (0, 1), BuildingBlock: AJUNOK_clean_linker_0, # of connection points: 2
#     Edge 27, Type (0, 1), BuildingBlock: AJUNOK_clean_linker_0, # of connection points: 2
#     Edge 28, Type (0, 1), BuildingBlock: AJUNOK_clean_linker_0, # of connection points: 2
#     Edge 29, Type (0, 1), BuildingBlock: AJUNOK_clean_linker_0, # of connection points: 2
#     Edge 30, Type (0, 1), BuildingBlock: AJUNOK_clean_linker_0, # of connection points: 2
#     Edge 31, Type (0, 1), BuildingBlock: AJUNOK_clean_linker_0, # of connection points: 2
#     Edge 32, Type (0, 1), BuildingBlock: AJUNOK_clean_linker_0, # of connection points: 2
#     Edge 33, Type (0, 1), BuildingBlock: AJUNOK_clean_linker_0, # of connection points: 2
#     Edge 34, Type (0, 1), BuildingBlock: AJUNOK_clean_linker_0, # of connection points: 2
#     Edge 35, Type (0, 1), BuildingBlock: AJUNOK_clean_linker_0, # of connection points: 2
# Relax obj value: 0.086
# Max RMSD: 0.236
# Mean RMSD: 0.157
data_MOF--net-ssa--node1-ESEHIV_clean_sbu_0--node2-AZAVOO_clean_linker_0--edge1-AJUNOK_clean_linker_0
_symmetry_space_group_name_H-M    P1
_symmetry_Int_Tables_number       1
_symmetry_cell_setting            triclinic
loop_
_symmetry_equiv_pos_as_xyz
'x, y, z'
_cell_length_a     38.934417
_cell_length_b     42.634752
_cell_length_c     38.332059
_cell_angle_alpha  87.650587
_cell_angle_beta   94.386857
_cell_angle_gamma 123.26381
loop_
_atom_site_label
_atom_site_type_symbol
_atom_site_fract_x
_atom_site_fract_y
_atom_site_fract_z
_atom_type_partial_charge
Cu0 Cu 0.14599 0.5656 0.01042 0.0
N1 N 0.15152 0.55206 0.96654 0.0
N2 N 0.13062 0.51721 0.91821 0.0
C3 C 0.11934 0.52896 0.9445 0.0
C4 C 0.17153 0.53334 0.92379 0.0
C5 C 0.18452 0.55533 0.95347 0.0
O6 O 0.08863 0.55165 0.00995 0.0
C7 C 0.2 0.55326 0.05049 0.0
O8 O 0.22539 0.58188 0.03131 0.0
H9 H 0.0877 0.5181 0.94944 0.0
H10 H 0.21529 0.57038 0.96581 0.0
N11 N 0.18227 0.61686 0.01832 0.0
N12 N 0.22143 0.66886 0.05016 0.0
C13 C 0.18988 0.63269 0.04989 0.0
C14 C 0.21024 0.64387 0.99776 0.0
C15 C 0.23481 0.67612 0.01757 0.0
C16 C 0.07871 0.57558 0.01119 0.0
O17 O 0.10764 0.61076 0.01808 0.0
H18 H 0.17416 0.61721 0.0728 0.0
H19 H 0.2139 0.63981 0.97096 0.0
O20 O 0.16159 0.54041 0.04619 0.0
H21 H 0.19006 0.5277 0.90884 0.0
H22 H 0.26121 0.70234 0.00912 0.0
Cu23 Cu 0.59551 0.01675 0.57023 0.0
N24 N 0.60539 0.9785 0.57362 0.0
N25 N 0.61957 0.93755 0.55646 0.0
C26 C 0.61696 0.96707 0.54728 0.0
C27 C 0.60848 0.92955 0.58977 0.0
C28 C 0.5999 0.95504 0.60038 0.0
O29 O 0.56408 0.00951 0.52653 0.0
C30 C 0.68225 0.07317 0.57434 0.0
O31 O 0.68753 0.04635 0.56693 0.0
H32 H 0.62228 0.97954 0.52151 0.0
H33 H 0.58965 0.95599 0.62553 0.0
N34 N 0.56465 0.01433 0.60627 0.0
N35 N 0.54531 0.03662 0.64707 0.0
C36 C 0.57648 0.04272 0.6284 0.0
C37 C 0.5248 0.98887 0.61148 0.0
C38 C 0.51284 0.00244 0.63685 0.0
C39 C 0.57972 0.0184 0.49697 0.0
O40 O 0.61994 0.03743 0.49588 0.0
H41 H 0.60713 0.06787 0.62984 0.0
H42 H 0.50529 0.96333 0.59648 0.0
O43 O 0.64596 0.06605 0.57395 0.0
H44 H 0.60666 0.90691 0.60522 0.0
H45 H 0.48203 0.98919 0.64555 0.0
Cu46 Cu 0.62947 0.52871 0.09669 0.0
N47 N 0.6225 0.48226 0.09114 0.0
N48 N 0.60618 0.43182 0.06058 0.0
C49 C 0.60368 0.46203 0.06178 0.0
C50 C 0.62779 0.43317 0.09041 0.0
C51 C 0.63769 0.46434 0.10939 0.0
O52 O 0.65291 0.55424 0.05323 0.0
C53 C 0.56279 0.50218 0.13377 0.0
O54 O 0.58382 0.49022 0.15132 0.0
H55 H 0.59063 0.47075 0.04066 0.0
H56 H 0.6559 0.47388 0.13395 0.0
N57 N 0.66349 0.55703 0.13561 0.0
N58 N 0.68433 0.59732 0.18015 0.0
C59 C 0.65863 0.58188 0.15135 0.0
C60 C 0.69325 0.55637 0.1553 0.0
C61 C 0.7061 0.58118 0.18288 0.0
C62 C 0.68967 0.56338 0.0501 0.0
O63 O 0.71019 0.5609 0.07771 0.0
H64 H 0.63518 0.58715 0.14254 0.0
H65 H 0.70444 0.53881 0.15034 0.0
O66 O 0.57604 0.51948 0.10505 0.0
H67 H 0.63662 0.41359 0.09755 0.0
H68 H 0.72945 0.58673 0.20341 0.0
Cu69 Cu 0.05912 0.49707 0.53846 0.0
N70 N 0.04888 0.46614 0.50083 0.0
N71 N 0.06305 0.43788 0.46201 0.0
C72 C 0.07741 0.4612 0.48969 0.0
C73 C 0.02384 0.42801 0.45508 0.0
C74 C 0.01501 0.44531 0.47935 0.0
O75 O 0.10626 0.5466 0.52684 0.0
C76 C 0.0323 0.43819 0.58413 0.0
O77 O 0.00569 0.4228 0.55709 0.0
H78 H 0.10867 0.47559 0.50098 0.0
H79 H 0.98611 0.44297 0.48106 0.0
N80 N 0.01582 0.50259 0.54406 0.0
N81 N 0.97534 0.51216 0.57373 0.0
C82 C 0.00761 0.50853 0.57558 0.0
C83 C 0.98793 0.50274 0.52113 0.0
C84 C 0.96259 0.50849 0.53953 0.0
C85 C 0.14372 0.55686 0.52641 0.0
O86 O 0.15501 0.53485 0.54007 0.0
H87 H 0.02502 0.51 0.59958 0.0
H88 H 0.98644 0.49945 0.49313 0.0
O89 O 0.06228 0.47239 0.58182 0.0
H90 H 0.00326 0.4099 0.43388 0.0
H91 H 0.93753 0.51069 0.52858 0.0
Cu92 Cu 0.63021 0.05989 0.10253 0.0
N93 N 0.61859 0.09675 0.10459 0.0
N94 N 0.60661 0.14034 0.08588 0.0
C95 C 0.61687 0.1164 0.07701 0.0
C96 C 0.60192 0.13587 0.12061 0.0
C97 C 0.60958 0.10898 0.13217 0.0
O98 O 0.65672 0.06667 0.05915 0.0
C99 C 0.54763 0.00295 0.11953 0.0
O100 O 0.53896 0.02837 0.11259 0.0
H101 H 0.62215 0.11272 0.05066 0.0
H102 H 0.60819 0.09871 0.15864 0.0
N103 N 0.66909 0.06725 0.13792 0.0
N104 N 0.70439 0.05165 0.17485 0.0
C105 C 0.6755 0.04033 0.1482 0.0
C106 C 0.69499 0.09701 0.15859 0.0
C107 C 0.7169 0.08737 0.18161 0.0
C108 C 0.64159 0.063 0.02782 0.0
O109 O 0.60184 0.04801 0.0221 0.0
H110 H 0.6584 0.01252 0.13683 0.0
H111 H 0.69752 0.12359 0.15717 0.0
O112 O 0.58256 0.00983 0.1123 0.0
H113 H 0.59376 0.15097 0.13648 0.0
H114 H 0.74022 0.10525 0.20154 0.0
Cu115 Cu 0.53254 0.49441 0.58134 0.0
N116 N 0.53272 0.53764 0.57249 0.0
N117 N 0.55272 0.59182 0.54542 0.0
C118 C 0.55645 0.56225 0.54839 0.0
C119 C 0.52466 0.58518 0.56823 0.0
C120 C 0.51244 0.55161 0.58516 0.0
O121 O 0.52035 0.47181 0.53482 0.0
C122 C 0.59385 0.52902 0.63276 0.0
O123 O 0.56785 0.5379 0.6403 0.0
H124 H 0.57529 0.55779 0.53259 0.0
H125 H 0.49043 0.5384 0.60507 0.0
N126 N 0.4955 0.46205 0.61397 0.0
N127 N 0.47783 0.42651 0.66198 0.0
C128 C 0.50602 0.44448 0.63809 0.0
C129 C 0.45888 0.45466 0.62279 0.0
C130 C 0.44763 0.43221 0.65242 0.0
C131 C 0.48289 0.45332 0.52274 0.0
O132 O 0.45413 0.44501 0.54397 0.0
H133 H 0.5347 0.44589 0.63883 0.0
H134 H 0.4423 0.46581 0.60948 0.0
O135 O 0.58607 0.51027 0.6048 0.0
H136 H 0.51393 0.6033 0.57242 0.0
H137 H 0.4205 0.42231 0.66664 0.0
H138 H 0.34864 0.44517 0.52418 0.0
H139 H 0.07974 0.4447 0.19397 0.0
H140 H 0.40694 0.52017 0.34183 0.0
H141 H 0.44968 0.51495 0.38859 0.0
H142 H 0.39412 0.39865 0.36152 0.0
H143 H 0.34982 0.40374 0.31586 0.0
H144 H 0.34686 0.50305 0.38349 0.0
H145 H 0.35312 0.48992 0.44556 0.0
H146 H 0.27804 0.37094 0.42347 0.0
H147 H 0.27266 0.38456 0.36126 0.0
H148 H 0.27572 0.49923 0.36363 0.0
H149 H 0.22124 0.48863 0.40021 0.0
H150 H 0.13936 0.37856 0.35488 0.0
H151 H 0.19466 0.38859 0.31931 0.0
H152 H 0.26676 0.52274 0.27511 0.0
H153 H 0.21177 0.52904 0.24809 0.0
H154 H 0.13746 0.40978 0.22719 0.0
H155 H 0.19287 0.40402 0.25398 0.0
H156 H 0.33856 0.53796 0.23039 0.0
H157 H 0.31543 0.55681 0.17712 0.0
H158 H 0.22547 0.44048 0.1519 0.0
H159 H 0.24928 0.42176 0.20498 0.0
H160 H 0.4154 0.52797 0.27523 0.0
H161 H 0.46979 0.53888 0.23844 0.0
H162 H 0.38195 0.43907 0.17908 0.0
H163 H 0.32783 0.42756 0.21663 0.0
O164 O 0.34563 0.44973 0.49955 0.0
O165 O 0.29927 0.38936 0.4882 0.0
O166 O 0.1422 0.50445 0.21458 0.0
O167 O 0.10159 0.44291 0.20551 0.0
C168 C 0.33874 0.4616 0.30862 0.0
C169 C 0.30662 0.4529 0.33017 0.0
C170 C 0.27157 0.45187 0.31603 0.0
C171 C 0.26847 0.45996 0.28045 0.0
C172 C 0.2999 0.46805 0.25842 0.0
C173 C 0.33522 0.46884 0.27239 0.0
C174 C 0.37508 0.46235 0.32534 0.0
C175 C 0.40526 0.494 0.3449 0.0
C176 C 0.42956 0.49085 0.37189 0.0
C177 C 0.42443 0.45602 0.37969 0.0
C178 C 0.39784 0.42557 0.35711 0.0
C179 C 0.37307 0.42861 0.33043 0.0
C180 C 0.30959 0.44475 0.36794 0.0
C181 C 0.33195 0.47418 0.39212 0.0
C182 C 0.33544 0.4666 0.42754 0.0
C183 C 0.31607 0.42938 0.43947 0.0
C184 C 0.29324 0.39992 0.41514 0.0
C185 C 0.29011 0.40758 0.37964 0.0
C186 C 0.23905 0.44463 0.33897 0.0
C187 C 0.24626 0.47262 0.362 0.0
C188 C 0.21526 0.46663 0.38268 0.0
C189 C 0.17648 0.43284 0.3801 0.0
C190 C 0.16917 0.40479 0.35708 0.0
C191 C 0.20053 0.41051 0.33687 0.0
C192 C 0.23362 0.46292 0.26661 0.0
C193 C 0.23839 0.49799 0.26497 0.0
C194 C 0.20702 0.50151 0.24942 0.0
C195 C 0.17023 0.4699 0.23539 0.0
C196 C 0.16535 0.43467 0.23774 0.0
C197 C 0.19682 0.43123 0.25319 0.0
C198 C 0.29591 0.47848 0.22148 0.0
C199 C 0.3152 0.5165 0.21258 0.0
C200 C 0.30159 0.52721 0.18236 0.0
C201 C 0.26835 0.50006 0.16061 0.0
C202 C 0.25089 0.46194 0.16837 0.0
C203 C 0.2649 0.45124 0.19834 0.0
C204 C 0.36777 0.47662 0.24906 0.0
C205 C 0.40789 0.50833 0.25445 0.0
C206 C 0.43877 0.51474 0.23324 0.0
C207 C 0.42987 0.48993 0.20584 0.0
C208 C 0.3894 0.45889 0.19969 0.0
C209 C 0.35863 0.45221 0.22123 0.0
C210 C 0.31969 0.42147 0.47716 0.0
C211 C 0.13726 0.47361 0.21796 0.0
H212 H 0.88437 0.29587 0.03586 0.0
H213 H 0.63201 0.01967 0.74335 0.0
H214 H 0.89488 0.33517 0.84872 0.0
H215 H 0.95636 0.39514 0.86789 0.0
H216 H 0.03307 0.35974 0.83331 0.0
H217 H 0.97119 0.29904 0.81543 0.0
H218 H 0.82447 0.26769 0.88862 0.0
H219 H 0.84028 0.2811 0.95133 0.0
H220 H 0.9434 0.26929 0.94763 0.0
H221 H 0.92691 0.25542 0.885 0.0
H222 H 0.75065 0.20097 0.84574 0.0
H223 H 0.7058 0.16028 0.89148 0.0
H224 H 0.79517 0.13368 0.92606 0.0
H225 H 0.83998 0.17471 0.88059 0.0
H226 H 0.75333 0.20568 0.76111 0.0
H227 H 0.6887 0.15008 0.73872 0.0
H228 H 0.72829 0.07968 0.7846 0.0
H229 H 0.79311 0.13564 0.80647 0.0
H230 H 0.82293 0.26232 0.7179 0.0
H231 H 0.79395 0.23386 0.65988 0.0
H232 H 0.81718 0.1475 0.6875 0.0
H233 H 0.84734 0.17683 0.74444 0.0
H234 H 0.89408 0.33474 0.76423 0.0
H235 H 0.93844 0.37856 0.72001 0.0
H236 H 0.97786 0.30452 0.6993 0.0
H237 H 0.93266 0.26043 0.74317 0.0
O238 O 0.87878 0.29067 0.011 0.0
O239 O 0.93183 0.28489 0.0076 0.0
O240 O 0.6385 0.07962 0.72889 0.0
O241 O 0.65717 0.04208 0.75216 0.0
C242 C 0.89112 0.27646 0.81934 0.0
C243 C 0.86414 0.25134 0.84443 0.0
C244 C 0.82722 0.21753 0.83351 0.0
C245 C 0.81777 0.20883 0.79748 0.0
C246 C 0.84586 0.23307 0.77258 0.0
C247 C 0.88208 0.26735 0.78332 0.0
C248 C 0.92862 0.31281 0.83073 0.0
C249 C 0.92496 0.34035 0.84535 0.0
C250 C 0.96007 0.37473 0.85581 0.0
C251 C 0.99948 0.38235 0.85141 0.0
C252 C 0.00307 0.35464 0.83682 0.0
C253 C 0.96787 0.32011 0.82656 0.0
C254 C 0.87449 0.26051 0.88231 0.0
C255 C 0.85041 0.26794 0.90143 0.0
C256 C 0.85955 0.27565 0.93724 0.0
C257 C 0.89308 0.27623 0.95452 0.0
C258 C 0.91735 0.26905 0.93514 0.0
C259 C 0.90809 0.26123 0.89936 0.0
C260 C 0.79878 0.19108 0.85994 0.0
C261 C 0.76039 0.18613 0.86303 0.0
C262 C 0.73478 0.16282 0.88911 0.0
C263 C 0.74717 0.14414 0.9127 0.0
C264 C 0.78512 0.1483 0.9088 0.0
C265 C 0.81067 0.17158 0.88276 0.0
C266 C 0.77787 0.17467 0.78542 0.0
C267 C 0.74796 0.17821 0.76633 0.0
C268 C 0.71107 0.14641 0.75358 0.0
C269 C 0.70334 0.1104 0.75984 0.0
C270 C 0.73326 0.10697 0.77931 0.0
C271 C 0.77023 0.13885 0.79196 0.0
C272 C 0.83701 0.22147 0.73532 0.0
C273 C 0.8232 0.23813 0.71078 0.0
C274 C 0.8065 0.22175 0.6778 0.0
C275 C 0.80338 0.1885 0.66904 0.0
C276 C 0.81999 0.17356 0.69295 0.0
C277 C 0.83689 0.19007 0.72569 0.0
C278 C 0.90993 0.29426 0.75686 0.0
C279 C 0.91255 0.32813 0.75034 0.0
C280 C 0.93834 0.35338 0.72535 0.0
C281 C 0.96227 0.34539 0.70645 0.0
C282 C 0.9599 0.31157 0.71341 0.0
C283 C 0.93401 0.28628 0.73835 0.0
C284 C 0.90254 0.28418 0.9926 0.0
C285 C 0.66434 0.07655 0.746 0.0
H286 H 0.72066 0.78189 0.11614 0.0
H287 H 0.7369 0.04056 0.39974 0.0
H288 H 0.61982 0.72718 0.29325 0.0
H289 H 0.61888 0.67853 0.26048 0.0
H290 H 0.74377 0.72104 0.2995 0.0
H291 H 0.74464 0.76996 0.33219 0.0
H292 H 0.64876 0.78306 0.24424 0.0
H293 H 0.66689 0.77613 0.18657 0.0
H294 H 0.79508 0.8355 0.22387 0.0
H295 H 0.77643 0.84223 0.28143 0.0
H296 H 0.6559 0.84768 0.2551 0.0
H297 H 0.66559 0.90056 0.21946 0.0
H298 H 0.78338 0.97397 0.27473 0.0
H299 H 0.77421 0.92048 0.30963 0.0
H300 H 0.63662 0.87003 0.32783 0.0
H301 H 0.63923 0.92704 0.34105 0.0
H302 H 0.75928 0.97281 0.39448 0.0
H303 H 0.75637 0.91578 0.38076 0.0
H304 H 0.60584 0.80475 0.38779 0.0
H305 H 0.5911 0.82838 0.43816 0.0
H306 H 0.71799 0.88272 0.47734 0.0
H307 H 0.73251 0.85906 0.42699 0.0
H308 H 0.6024 0.72483 0.35757 0.0
H309 H 0.57374 0.67683 0.4033 0.0
H310 H 0.68642 0.74285 0.468 0.0
H311 H 0.71572 0.78919 0.42127 0.0
O312 O 0.71418 0.78496 0.13912 0.0
O313 O 0.77907 0.81237 0.16054 0.0
O314 O 0.67281 0.99242 0.36731 0.0
O315 O 0.73501 0.01767 0.39431 0.0
C316 C 0.68646 0.787 0.32636 0.0
C317 C 0.70027 0.8168 0.30199 0.0
C318 C 0.7041 0.85032 0.31109 0.0
C319 C 0.69473 0.85444 0.34472 0.0
C320 C 0.68145 0.8251 0.3693 0.0
C321 C 0.67695 0.79114 0.36013 0.0
C322 C 0.68212 0.75187 0.31544 0.0
C323 C 0.64642 0.72512 0.29586 0.0
C324 C 0.64609 0.69766 0.27686 0.0
C325 C 0.68143 0.6964 0.27721 0.0
C326 C 0.71613 0.7214 0.29891 0.0
C327 C 0.71655 0.74913 0.31774 0.0
C328 C 0.71132 0.81313 0.26689 0.0
C329 C 0.68073 0.79457 0.23984 0.0
C330 C 0.69118 0.79069 0.20695 0.0
C331 C 0.73245 0.80529 0.2006 0.0
C332 C 0.76301 0.82392 0.22788 0.0
C333 C 0.7525 0.82787 0.26073 0.0
C334 C 0.71443 0.88023 0.28479 0.0
C335 C 0.68453 0.8748 0.25856 0.0
C336 C 0.68996 0.90502 0.23845 0.0
C337 C 0.72505 0.94118 0.24471 0.0
C338 C 0.75601 0.94629 0.26967 0.0
C339 C 0.75089 0.91585 0.28939 0.0
C340 C 0.69622 0.88882 0.35347 0.0
C341 C 0.66338 0.89241 0.34244 0.0
C342 C 0.66497 0.92497 0.35003 0.0
C343 C 0.69949 0.95448 0.36885 0.0
C344 C 0.73228 0.95064 0.37994 0.0
C345 C 0.73066 0.91809 0.37226 0.0
C346 C 0.6702 0.83012 0.40384 0.0
C347 C 0.63004 0.82055 0.40795 0.0
C348 C 0.62173 0.83417 0.43658 0.0
C349 C 0.65359 0.85777 0.46124 0.0
C350 C 0.69305 0.8649 0.45843 0.0
C351 C 0.70127 0.85115 0.42994 0.0
C352 C 0.66137 0.76017 0.38588 0.0
C353 C 0.6213 0.72827 0.38118 0.0
C354 C 0.60477 0.70122 0.40753 0.0
C355 C 0.62791 0.70588 0.43918 0.0
C356 C 0.66816 0.73787 0.44363 0.0
C357 C 0.68487 0.76451 0.41706 0.0
C358 C 0.74346 0.80114 0.16563 0.0
C359 C 0.70146 0.98923 0.37675 0.0
H360 H 0.75108 0.54374 0.59417 0.0
H361 H 0.06809 0.56622 0.91104 0.0
H362 H 0.80093 0.60286 0.78931 0.0
H363 H 0.74949 0.60144 0.74753 0.0
H364 H 0.67574 0.48046 0.75284 0.0
H365 H 0.728 0.48217 0.79416 0.0
H366 H 0.84002 0.59316 0.73136 0.0
H367 H 0.80941 0.58368 0.67141 0.0
H368 H 0.74565 0.4636 0.68566 0.0
H369 H 0.77635 0.47357 0.74566 0.0
H370 H 0.92132 0.5999 0.74797 0.0
H371 H 0.94817 0.59348 0.69463 0.0
H372 H 0.88107 0.47355 0.7099 0.0
H373 H 0.85452 0.48021 0.76326 0.0
H374 H 0.9555 0.61442 0.81403 0.0
H375 H 0.02324 0.62912 0.83674 0.0
H376 H 0.96776 0.51493 0.873 0.0
H377 H 0.89998 0.5006 0.85044 0.0
H378 H 0.92354 0.61539 0.88162 0.0
H379 H 0.96987 0.61694 0.92895 0.0
H380 H 0.88305 0.49901 0.94805 0.0
H381 H 0.83801 0.49734 0.89884 0.0
H382 H 0.84712 0.61305 0.87677 0.0
H383 H 0.81259 0.62121 0.92308 0.0
H384 H 0.71494 0.50382 0.91497 0.0
H385 H 0.74909 0.49626 0.86795 0.0
O386 O 0.76346 0.54687 0.61769 0.0
O387 O 0.73241 0.48539 0.62594 0.0
O388 O 0.07245 0.61276 0.86782 0.0
O389 O 0.04241 0.55998 0.89879 0.0
C390 C 0.80578 0.54319 0.80624 0.0
C391 C 0.82701 0.53994 0.77976 0.0
C392 C 0.86486 0.54364 0.78793 0.0
C393 C 0.88159 0.55007 0.82266 0.0
C394 C 0.85991 0.55208 0.84973 0.0
C395 C 0.8221 0.54922 0.84145 0.0
C396 C 0.76809 0.54267 0.79511 0.0
C397 C 0.77264 0.57616 0.78297 0.0
C398 C 0.74339 0.57524 0.7587 0.0
C399 C 0.70879 0.54078 0.74655 0.0
C400 C 0.70238 0.50739 0.76137 0.0
C401 C 0.73171 0.50834 0.7856 0.0
C402 C 0.81018 0.53404 0.74276 0.0
C403 C 0.81958 0.56486 0.72137 0.0
C404 C 0.802 0.55935 0.68719 0.0
C405 C 0.77495 0.52287 0.67378 0.0
C406 C 0.76629 0.49205 0.69519 0.0
C407 C 0.78381 0.49763 0.7294 0.0
C408 C 0.88645 0.54055 0.75952 0.0
C409 C 0.91326 0.5724 0.74018 0.0
C410 C 0.92822 0.56867 0.70971 0.0
C411 C 0.91603 0.53298 0.69802 0.0
C412 C 0.89025 0.50127 0.71812 0.0
C413 C 0.87559 0.50506 0.74872 0.0
C414 C 0.9229 0.55653 0.83076 0.0
C415 C 0.95816 0.5924 0.82622 0.0
C416 C 0.99676 0.60078 0.83941 0.0
C417 C 1.00066 0.57338 0.85743 0.0
C418 C 0.96554 0.53686 0.86008 0.0
C419 C 0.92693 0.52848 0.84685 0.0
C420 C 0.87756 0.55619 0.88642 0.0
C421 C 0.91372 0.59021 0.89689 0.0
C422 C 0.94037 0.59093 0.92395 0.0
C423 C 0.93098 0.55775 0.94164 0.0
C424 C 0.8921 0.52475 0.93409 0.0
C425 C 0.86576 0.52392 0.9065 0.0
C426 C 0.80068 0.55405 0.86909 0.0
C427 C 0.8181 0.58919 0.88485 0.0
C428 C 0.79831 0.5938 0.91123 0.0
C429 C 0.76072 0.5633 0.92246 0.0
C430 C 0.74321 0.52815 0.90632 0.0
C431 C 0.7629 0.52365 0.87973 0.0
C432 C 0.75564 0.51709 0.63772 0.0
C433 C 0.04077 0.58322 0.8747 0.0
H434 H 0.3925 0.87254 0.54282 0.0
H435 H 0.15491 0.54395 0.27614 0.0
H436 H 0.36995 0.8791 0.35077 0.0
H437 H 0.42223 0.93655 0.38233 0.0
H438 H 0.51012 0.90531 0.37678 0.0
H439 H 0.45781 0.84825 0.3448 0.0
H440 H 0.32105 0.8233 0.40025 0.0
H441 H 0.34202 0.84612 0.46064 0.0
H442 H 0.43179 0.816 0.46508 0.0
H443 H 0.41036 0.79319 0.40468 0.0
H444 H 0.259 0.75229 0.38622 0.0
H445 H 0.21923 0.70718 0.43172 0.0
H446 H 0.28791 0.65575 0.42347 0.0
H447 H 0.32906 0.70241 0.37962 0.0
H448 H 0.23342 0.72672 0.29537 0.0
H449 H 0.17472 0.66366 0.27942 0.0
H450 H 0.25242 0.62061 0.29883 0.0
H451 H 0.31084 0.68383 0.31432 0.0
H452 H 0.29797 0.79903 0.24418 0.0
H453 H 0.27387 0.77991 0.18301 0.0
H454 H 0.31858 0.70675 0.19107 0.0
H455 H 0.34307 0.72634 0.25212 0.0
H456 H 0.37669 0.8772 0.27905 0.0
H457 H 0.4199 0.92105 0.23426 0.0
H458 H 0.45764 0.84647 0.21058 0.0
H459 H 0.41624 0.80389 0.25675 0.0
O460 O 0.38413 0.86268 0.51924 0.0
O461 O 0.42964 0.84651 0.52024 0.0
O462 O 0.13987 0.59324 0.2692 0.0
O463 O 0.17776 0.56931 0.28154 0.0
C464 C 0.37642 0.82133 0.3348 0.0
C465 C 0.35334 0.79512 0.361 0.0
C466 C 0.32109 0.75819 0.35183 0.0
C467 C 0.31144 0.74776 0.31617 0.0
C468 C 0.33436 0.77403 0.28993 0.0
C469 C 0.36759 0.81072 0.29919 0.0
C470 C 0.41025 0.85969 0.34555 0.0
C471 C 0.40096 0.88545 0.35523 0.0
C472 C 0.43072 0.91808 0.37332 0.0
C473 C 0.47018 0.92536 0.38195 0.0
C474 C 0.48022 0.9008 0.36991 0.0
C475 C 0.4504 0.86815 0.35177 0.0
C476 C 0.36402 0.8064 0.39833 0.0
C477 C 0.34489 0.82128 0.4145 0.0
C478 C 0.35707 0.83444 0.44891 0.0
C479 C 0.38864 0.83295 0.46768 0.0
C480 C 0.40738 0.81756 0.45139 0.0
C481 C 0.39513 0.80439 0.41698 0.0
C482 C 0.29697 0.73069 0.37956 0.0
C483 C 0.26576 0.73155 0.3946 0.0
C484 C 0.24293 0.7056 0.42048 0.0
C485 C 0.25056 0.67795 0.43172 0.0
C486 C 0.28186 0.67719 0.41637 0.0
C487 C 0.30506 0.70352 0.39086 0.0
C488 C 0.27616 0.70965 0.30621 0.0
C489 C 0.23762 0.70359 0.29611 0.0
C490 C 0.20421 0.66758 0.28702 0.0
C491 C 0.20885 0.63705 0.288 0.0
C492 C 0.24772 0.64343 0.29793 0.0
C493 C 0.28111 0.67947 0.30686 0.0
C494 C 0.32186 0.76376 0.25254 0.0
C495 C 0.30282 0.77911 0.2326 0.0
C496 C 0.28905 0.76815 0.19784 0.0
C497 C 0.29419 0.74172 0.18257 0.0
C498 C 0.31446 0.72731 0.20228 0.0
C499 C 0.32811 0.73818 0.23709 0.0
C500 C 0.39361 0.83747 0.27165 0.0
C501 C 0.39477 0.8706 0.26458 0.0
C502 C 0.41915 0.89543 0.23866 0.0
C503 C 0.44271 0.88758 0.219 0.0
C504 C 0.44082 0.85397 0.22574 0.0
C505 C 0.41679 0.82937 0.25192 0.0
C506 C 0.40212 0.84771 0.50396 0.0
C507 C 0.17334 0.59863 0.27893 0.0
H508 H 0.52198 0.26951 0.60161 0.0
H509 H 0.5408 0.03823 0.9068 0.0
H510 H 0.58288 0.32693 0.78325 0.0
H511 H 0.56841 0.36913 0.7504 0.0
H512 H 0.44878 0.31307 0.79272 0.0
H513 H 0.46325 0.27008 0.82498 0.0
H514 H 0.58182 0.26388 0.74495 0.0
H515 H 0.56837 0.26982 0.68241 0.0
H516 H 0.4422 0.22931 0.70043 0.0
H517 H 0.45595 0.22303 0.76284 0.0
H518 H 0.60286 0.2154 0.79014 0.0
H519 H 0.60595 0.17285 0.75125 0.0
H520 H 0.47373 0.10977 0.73305 0.0
H521 H 0.47084 0.15251 0.77216 0.0
H522 H 0.61372 0.21816 0.87208 0.0
H523 H 0.62504 0.17002 0.89538 0.0
H524 H 0.49702 0.08477 0.86941 0.0
H525 H 0.48602 0.13331 0.84666 0.0
H526 H 0.61258 0.27808 0.90995 0.0
H527 H 0.62908 0.26425 0.96927 0.0
H528 H 0.50678 0.16377 0.97043 0.0
H529 H 0.49019 0.17845 0.91177 0.0
H530 H 0.60245 0.3343 0.86559 0.0
H531 H 0.61738 0.37607 0.91471 0.0
H532 H 0.49986 0.2935 0.95471 0.0
H533 H 0.48505 0.25201 0.90544 0.0
O534 O 0.52654 0.26668 0.6264 0.0
O535 O 0.46206 0.24595 0.6371 0.0
O536 O 0.60209 0.10297 0.91195 0.0
O537 O 0.53715 0.05774 0.89749 0.0
C538 C 0.52989 0.2655 0.82022 0.0
C539 C 0.52825 0.24002 0.79638 0.0
C540 C 0.53511 0.2121 0.80867 0.0
C541 C 0.54199 0.20865 0.84485 0.0
C542 C 0.54279 0.23349 0.86872 0.0
C543 C 0.53751 0.2624 0.85645 0.0
C544 C 0.5242 0.29556 0.80657 0.0
C545 C 0.55399 0.32439 0.78617 0.0
C546 C 0.54569 0.34857 0.76752 0.0
C547 C 0.50753 0.34464 0.7692 0.0
C548 C 0.47841 0.31674 0.79094 0.0
C549 C 0.48676 0.29246 0.80961 0.0
C550 C 0.51982 0.24293 0.75835 0.0
C551 C 0.55123 0.25604 0.73527 0.0
C552 C 0.54349 0.25953 0.69959 0.0
C553 C 0.50421 0.25006 0.68641 0.0
C554 C 0.47279 0.23685 0.7097 0.0
C555 C 0.48055 0.23325 0.74535 0.0
C556 C 0.53666 0.18715 0.78375 0.0
C557 C 0.5746 0.19254 0.77757 0.0
C558 C 0.57633 0.16832 0.75536 0.0
C559 C 0.54008 0.1382 0.73905 0.0
C560 C 0.50207 0.13274 0.7454 0.0
C561 C 0.50039 0.15719 0.76745 0.0
C562 C 0.54904 0.17919 0.85783 0.0
C563 C 0.58818 0.18908 0.87152 0.0
C564 C 0.59455 0.16153 0.88476 0.0
C565 C 0.56187 0.12354 0.88433 0.0
C566 C 0.52281 0.11374 0.87017 0.0
C567 C 0.51645 0.14136 0.85707 0.0
C568 C 0.55021 0.22924 0.90666 0.0
C569 C 0.58894 0.25385 0.92357 0.0
C570 C 0.59835 0.24582 0.9573 0.0
C571 C 0.56917 0.21303 0.97452 0.0
C572 C 0.5296 0.18966 0.95821 0.0
C573 C 0.52017 0.19781 0.9246 0.0
C574 C 0.54251 0.29029 0.88177 0.0
C575 C 0.57944 0.32572 0.8844 0.0
C576 C 0.58812 0.34931 0.91263 0.0
C577 C 0.5598 0.33797 0.93851 0.0
C578 C 0.52201 0.30315 0.93493 0.0
C579 C 0.51347 0.27949 0.9068 0.0
C580 C 0.49617 0.25404 0.64853 0.0
C581 C 0.56841 0.09425 0.89875 0.0
C582 C 0.19206 0.51167 0.10234 0.0
C583 C 0.21698 0.53786 0.07717 0.0
C584 C 0.20861 0.49878 0.12876 0.0
C585 C 0.25068 0.5117 0.13105 0.0
H586 H 0.15975 0.50159 0.10212 0.0
H587 H 0.18857 0.47935 0.14811 0.0
S588 S 0.32852 0.57751 0.0702 0.0
N589 N 0.28576 0.57424 0.05531 0.0
N590 N 0.31622 0.55009 0.10491 0.0
C591 C 0.27561 0.53696 0.10563 0.0
C592 C 0.25893 0.54997 0.07872 0.0
C593 C 0.70748 0.13054 0.60987 0.0
C594 C 0.71653 0.10826 0.59142 0.0
C595 C 0.73693 0.15855 0.63298 0.0
C596 C 0.77679 0.16578 0.63829 0.0
H597 H 0.67661 0.12474 0.6084 0.0
H598 H 0.72736 0.17272 0.64863 0.0
S599 S 0.819 0.12154 0.59052 0.0
N600 N 0.77019 0.09948 0.57592 0.0
N601 N 0.82588 0.15289 0.61894 0.0
C602 C 0.7875 0.1464 0.61745 0.0
C603 C 0.75734 0.11754 0.59406 0.0
C604 C 0.69338 0.62135 0.24034 0.0
C605 C 0.68576 0.62349 0.20404 0.0
C606 C 0.69238 0.64519 0.26402 0.0
C607 C 0.68338 0.67175 0.25223 0.0
H608 H 0.69919 0.60054 0.25058 0.0
H609 H 0.69785 0.64233 0.29175 0.0
S610 S 0.66646 0.69207 0.15986 0.0
N611 N 0.67303 0.65713 0.15752 0.0
N612 N 0.67019 0.70102 0.20196 0.0
C613 C 0.677 0.67496 0.21605 0.0
C614 C 0.67839 0.65107 0.19199 0.0
C615 C 0.98688 0.54405 0.6295 0.0
C616 C 0.95945 0.51924 0.60292 0.0
C617 C 0.97254 0.54897 0.65985 0.0
C618 C 0.93024 0.52885 0.66488 0.0
H619 H 0.01977 0.55951 0.6269 0.0
H620 H 0.99473 0.56791 0.67992 0.0
S621 S 0.84563 0.46159 0.60271 0.0
N622 N 0.88805 0.47518 0.58313 0.0
N623 N 0.86088 0.48446 0.64031 0.0
C624 C 0.90238 0.50458 0.63822 0.0
C625 C 0.91703 0.49983 0.60713 0.0
C626 C 0.479 0.95858 0.14419 0.0
C627 C 0.52026 0.9701 0.14178 0.0
C628 C 0.45399 0.93133 0.16851 0.0
C629 C 0.46919 0.91456 0.19174 0.0
H630 H 0.46605 0.97127 0.1276 0.0
H631 H 0.42254 0.92365 0.16938 0.0
S632 S 0.57547 0.93539 0.19692 0.0
N633 N 0.57514 0.96231 0.16487 0.0
N634 N 0.52859 0.91197 0.21098 0.0
C635 C 0.51021 0.92533 0.18923 0.0
C636 C 0.53558 0.95282 0.1642 0.0
C637 C 0.45268 0.36979 0.69832 0.0
C638 C 0.48202 0.40793 0.69256 0.0
C639 C 0.46018 0.34979 0.72449 0.0
C640 C 0.49718 0.36745 0.74582 0.0
H641 H 0.42493 0.35498 0.68122 0.0
H642 H 0.43785 0.31992 0.72678 0.0
S643 S 0.5804 0.46851 0.74456 0.0
N644 N 0.54705 0.46358 0.71239 0.0
N645 N 0.56089 0.42645 0.76206 0.0
C646 C 0.52535 0.40623 0.74171 0.0
C647 C 0.51784 0.42636 0.71496 0.0
C648 C 0.60718 0.87841 0.53385 0.0
C649 C 0.6301 0.91788 0.53437 0.0
C650 C 0.61511 0.85892 0.51042 0.0
C651 C 0.64679 0.87831 0.48729 0.0
H652 H 0.58215 0.86257 0.5509 0.0
H653 H 0.59625 0.82854 0.51023 0.0
S654 S 0.71648 0.98159 0.47922 0.0
N655 N 0.68645 0.97553 0.51046 0.0
N656 N 0.70128 0.93907 0.46651 0.0
C657 C 0.67041 0.91773 0.48809 0.0
C658 C 0.66209 0.93748 0.51161 0.0
C659 C 0.74957 0.58631 0.01392 0.0
C660 C 0.70682 0.56896 0.01542 0.0
C661 C 0.76671 0.58566 0.98335 0.0
C662 C 0.74182 0.56745 0.95291 0.0
H663 H 0.76997 0.59927 0.03707 0.0
H664 H 0.7996 0.598 0.98418 0.0
S665 S 0.6284 0.52078 0.94183 0.0
N666 N 0.64013 0.53519 0.98292 0.0
N667 N 0.67245 0.53439 0.92521 0.0
C668 C 0.6992 0.55165 0.9534 0.0
C669 C 0.6817 0.55243 0.98463 0.0
C670 C 0.15609 0.60332 0.47861 0.0
C671 C 0.17227 0.59011 0.50507 0.0
C672 C 0.1816 0.63193 0.45556 0.0
C673 C 0.22459 0.64899 0.45803 0.0
H674 H 0.12317 0.59058 0.47478 0.0
H675 H 0.16726 0.63994 0.43494 0.0
S676 S 0.28307 0.62792 0.52535 0.0
N677 N 0.23443 0.59816 0.53387 0.0
N678 N 0.28249 0.6527 0.49133 0.0
C679 C 0.24138 0.63711 0.48527 0.0
C680 C 0.21527 0.60759 0.50856 0.0
C681 C 0.62593 0.18076 0.03389 0.0
C682 C 0.60026 0.16378 0.06183 0.0
C683 C 0.61688 0.19865 0.00685 0.0
C684 C 0.58166 0.20014 0.00662 0.0
H685 H 0.6525 0.17903 0.03234 0.0
H686 H 0.63644 0.20958 0.98501 0.0
S687 S 0.50646 0.16295 0.07525 0.0
N688 N 0.53957 0.15158 0.08883 0.0
N689 N 0.52279 0.18582 0.03809 0.0
C690 C 0.5569 0.18505 0.03533 0.0
C691 C 0.56621 0.16683 0.06299 0.0
C692 C 0.49718 0.47725 0.46102 0.0
C693 C 0.47171 0.44889 0.48444 0.0
C694 C 0.48262 0.47826 0.42645 0.0
C695 C 0.44219 0.45074 0.41382 0.0
H696 H 0.52758 0.50022 0.47008 0.0
H697 H 0.50263 0.50162 0.40992 0.0
S698 S 0.36515 0.36805 0.46378 0.0
N699 N 0.40569 0.39079 0.49168 0.0
N700 N 0.37819 0.39266 0.42726 0.0
C701 C 0.41751 0.4209 0.43643 0.0
C702 C 0.43229 0.42002 0.47155 0.0
C703 C 0.09994 0.45158 0.90172 0.0
C704 C 0.10264 0.48561 0.89631 0.0
C705 C 0.06738 0.41842 0.88578 0.0
C706 C 0.03661 0.41838 0.8639 0.0
H707 H 0.1218 0.4503 0.91995 0.0
H708 H 0.06516 0.39238 0.89207 0.0
S709 S 0.03411 0.50176 0.83732 0.0
N710 N 0.07491 0.51834 0.86515 0.0
N711 N 0.01402 0.45626 0.83435 0.0
C712 C 0.04068 0.45283 0.85659 0.0
C713 C 0.07363 0.4864 0.87305 0.0
C714 C 0.02615 0.59234 0.00362 0.0
C715 C 0.03667 0.56603 0.99905 0.0
C716 C 0.9905 0.58811 0.9869 0.0
C717 C 0.96368 0.55745 0.9647 0.0
H718 H 0.04653 0.61737 0.01915 0.0
H719 H 0.98475 0.6099 0.99039 0.0
S720 S 0.97486 0.47854 0.94651 0.0
N721 N 0.01524 0.50636 0.97307 0.0
N722 N 0.94873 0.49867 0.94121 0.0
C723 C 0.97235 0.52959 0.96172 0.0
C724 C 0.00867 0.53382 0.97897 0.0
C725 C 0.50944 0.97744 0.46798 0.0
C726 C 0.55229 1.00068 0.46499 0.0
C727 C 0.48296 0.95479 0.44021 0.0
C728 C 0.49816 0.95453 0.4082 0.0
H729 H 0.49621 0.97525 0.49253 0.0
H730 H 0.45057 0.93579 0.44456 0.0
S731 S 0.60658 0.01433 0.38461 0.0
N732 N 0.60804 0.02508 0.42584 0.0
N733 N 0.55782 0.9824 0.37351 0.0
C734 C 0.54043 0.97937 0.40391 0.0
C735 C 0.56757 0.00257 0.43227 0.0
C736 C 0.61876 0.39593 0.02017 0.0
C737 C 0.59307 0.40671 0.03125 0.0
C738 C 0.60789 0.37394 0.99001 0.0
C739 C 0.57068 0.36153 0.97011 0.0
H740 H 0.64794 0.40537 0.0344 0.0
H741 H 0.62866 0.36641 0.98231 0.0
S742 S 0.49206 0.38102 0.98873 0.0
N743 N 0.52831 0.40245 0.02055 0.0
N744 N 0.50797 0.36127 0.96389 0.0
C745 C 0.54444 0.3716 0.98125 0.0
C746 C 0.55564 0.39419 0.01177 0.0
C747 C 0.08253 0.42943 0.40505 0.0
C748 C 0.08707 0.4299 0.44184 0.0
C749 C 0.11047 0.42831 0.38495 0.0
C750 C 0.1437 0.4277 0.40112 0.0
H751 H 0.05869 0.43209 0.39177 0.0
H752 H 0.10732 0.42985 0.35671 0.0
S753 S 0.16539 0.42238 0.49609 0.0
N754 N 0.1242 0.42457 0.49332 0.0
N755 N 0.17737 0.42367 0.45541 0.0
C756 C 0.14714 0.42582 0.43765 0.0
C757 C 0.11858 0.42656 0.45808 0.0
C758 C 0.65344 0.07552 0.9636 0.0
C759 C 0.66965 0.08118 0.99861 0.0
C760 C 0.67873 0.09529 0.93594 0.0
C761 C 0.72128 0.12163 0.94209 0.0
H762 H 0.62078 0.05607 0.95748 0.0
H763 H 0.66482 0.09011 0.90949 0.0
S764 S 0.77944 0.14746 0.02867 0.0
N765 N 0.73163 0.1152 0.03757 0.0
N766 N 0.77852 0.15256 0.98577 0.0
C767 C 0.73806 0.12716 0.97681 0.0
C768 C 0.71246 0.10693 0.00496 0.0
C769 C 0.55151 0.63677 0.50341 0.0
C770 C 0.573 0.62245 0.52116 0.0
C771 C 0.56954 0.66388 0.47707 0.0
C772 C 0.60977 0.67774 0.46765 0.0
H773 H 0.52014 0.62613 0.50919 0.0
H774 H 0.5518 0.674 0.46393 0.0
S775 S 0.67981 0.65078 0.50778 0.0
N776 N 0.63754 0.62587 0.52912 0.0
N777 N 0.67071 0.67544 0.47873 0.0
C778 C 0.63186 0.6642 0.4858 0.0
C779 C 0.61364 0.63689 0.51274 0.0
C780 C 0.51984 0.04905 0.69859 0.0
C781 C 0.5451 0.06255 0.6701 0.0
C782 C 0.51825 0.07361 0.72074 0.0
C783 C 0.54204 0.11262 0.71534 0.0
H784 H 0.50135 0.01926 0.70394 0.0
H785 H 0.49857 0.06202 0.74248 0.0
S786 S 0.61064 0.16237 0.6431 0.0
N787 N 0.59247 0.1177 0.63659 0.0
N788 N 0.5901 0.1636 0.6787 0.0
C789 C 0.56718 0.12653 0.6869 0.0
C790 C 0.56859 0.10159 0.66418 0.0
C791 C 0.52841 0.49811 0.18729 0.0
C792 C 0.52852 0.50002 0.15052 0.0
C793 C 0.49679 0.49564 0.20474 0.0
C794 C 0.46361 0.49443 0.18617 0.0
H795 H 0.55318 0.49875 0.20293 0.0
H796 H 0.49794 0.49395 0.23305 0.0
S797 S 0.44916 0.49911 0.0898 0.0
N798 N 0.49293 0.50133 0.0961 0.0
N799 N 0.4327 0.49587 0.12909 0.0
C800 C 0.46318 0.49644 0.14943 0.0
C801 C 0.4959 0.49958 0.13156 0.0
C802 C 0.99973 0.37696 0.61514 0.0
C803 C 0.02272 0.41639 0.61722 0.0
C804 C 0.98213 0.35445 0.64447 0.0
C805 C 0.9864 0.37033 0.67724 0.0
H806 H 0.99378 0.36324 0.59019 0.0
H807 H 0.96319 0.3243 0.64093 0.0
S808 S 0.04695 0.4722 0.69764 0.0
N809 N 0.05134 0.47048 0.65533 0.0
N810 N 0.01847 0.42816 0.71073 0.0
C811 C 0.01117 0.40978 0.68019 0.0
C812 C 0.0294 0.4328 0.65019 0.0
C813 C 0.71783 0.00167 0.17368 0.0
C814 C 0.71645 0.02846 0.19274 0.0
C815 C 0.72276 0.97458 0.19063 0.0
C816 C 0.72695 0.97356 0.22727 0.0
H817 H 0.71369 1.00093 0.1454 0.0
H818 H 0.72199 0.95353 0.17506 0.0
S819 S 0.72627 0.03757 0.28935 0.0
N820 N 0.72044 0.05258 0.25031 0.0
N821 N 0.7304 0.00186 0.28223 0.0
C822 C 0.72748 1.00109 0.24667 0.0
C823 C 0.72216 0.02859 0.2294 0.0
C824 C 0.64393 0.51369 0.65994 0.0
C825 C 0.62668 0.53534 0.6597 0.0
C826 C 0.67052 0.5157 0.68804 0.0
C827 C 0.68104 0.53954 0.71688 0.0
H828 H 0.63583 0.49416 0.63887 0.0
H829 H 0.68278 0.49828 0.68727 0.0
S830 S 0.64563 0.60313 0.72848 0.0
N831 N 0.62364 0.58263 0.69037 0.0
N832 N 0.67278 0.58568 0.74309 0.0
C833 C 0.66492 0.56202 0.71651 0.0
C834 C 0.63797 0.56006 0.68799 0.0
C835 C 0.28282 0.7098 0.08902 0.0
C836 C 0.24031 0.69192 0.08084 0.0
C837 C 0.30044 0.72694 0.12172 0.0
C838 C 0.27615 0.7272 0.14694 0.0
H839 H 0.30208 0.70881 0.07075 0.0
H840 H 0.33306 0.7393 0.12765 0.0
S841 S 0.16382 0.68632 0.13699 0.0
N842 N 0.17486 0.67719 0.09948 0.0
N843 N 0.20782 0.70941 0.1609 0.0
C844 C 0.23395 0.71084 0.13836 0.0
C845 C 0.21606 0.69317 0.1053 0.0
loop_
_geom_bond_atom_site_label_1
_geom_bond_atom_site_label_2
_geom_bond_distance
_geom_bond_site_symmetry_2
_ccdc_geom_bond_type
Cu0 N1 1.999 1_554 S
Cu0 O6 1.974 1_554 S
Cu0 N11 1.985 . S
Cu0 O20 1.959 . S
N1 Cu0 1.999 1_556 S
N1 C3 1.263 . S
N1 C5 1.389 . S
N2 C3 1.358 . S
N2 C4 1.400 . S
C3 N1 1.263 . S
C3 N2 1.358 . S
C3 H9 0.930 . S
C4 N2 1.400 . S
C4 C5 1.351 . S
C4 H21 0.930 . S
C5 N1 1.389 . S
C5 C4 1.351 . S
C5 H10 0.930 1_556 S
O6 Cu0 1.974 1_556 S
O6 C16 1.282 . S
C7 O8 1.261 . S
C7 O20 1.251 . S
O8 C7 1.261 . S
H9 C3 0.930 . S
H10 C5 0.930 1_554 S
N11 Cu0 1.985 . S
N11 C13 1.335 . S
N11 C14 1.390 . S
N12 C13 1.345 . S
N12 C15 1.336 . S
C13 N11 1.335 . S
C13 N12 1.345 . S
C13 H18 0.930 . S
C14 N11 1.390 . S
C14 C15 1.346 . S
C14 H19 0.933 1_554 S
C15 N12 1.336 . S
C15 C14 1.346 . S
C15 H22 0.929 . S
C16 O6 1.282 . S
C16 O17 1.216 . S
O17 C16 1.216 . S
H18 C13 0.930 . S
H19 C14 0.933 1_556 S
O20 Cu0 1.959 . S
O20 C7 1.251 . S
H21 C4 0.930 . S
H22 C15 0.929 . S
Cu23 N24 1.999 . S
Cu23 O29 1.974 . S
Cu23 N34 1.985 1_565 S
Cu23 O43 1.959 1_565 S
N24 Cu23 1.999 . S
N24 C26 1.263 . S
N24 C28 1.389 . S
N25 C26 1.358 . S
N25 C27 1.400 . S
C26 N24 1.263 . S
C26 N25 1.358 . S
C26 H32 0.930 . S
C27 N25 1.400 . S
C27 C28 1.351 . S
C27 H44 0.930 . S
C28 N24 1.389 . S
C28 C27 1.351 . S
C28 H33 0.930 . S
O29 Cu23 1.974 . S
O29 C39 1.282 . S
C30 O31 1.261 . S
C30 O43 1.251 . S
O31 C30 1.261 . S
H32 C26 0.930 . S
H33 C28 0.930 . S
N34 Cu23 1.985 1_545 S
N34 C36 1.335 . S
N34 C37 1.390 . S
N35 C36 1.345 . S
N35 C38 1.336 . S
C36 N34 1.335 . S
C36 N35 1.345 . S
C36 H41 0.930 . S
C37 N34 1.390 . S
C37 C38 1.346 . S
C37 H42 0.930 . S
C38 N35 1.336 . S
C38 C37 1.346 . S
C38 H45 0.929 . S
C39 O29 1.282 . S
C39 O40 1.216 1_565 S
O40 C39 1.216 1_545 S
H41 C36 0.930 . S
H42 C37 0.930 . S
O43 Cu23 1.959 1_545 S
O43 C30 1.251 . S
H44 C27 0.930 . S
H45 C38 0.929 . S
Cu46 N47 1.999 . S
Cu46 O52 1.974 . S
Cu46 N57 1.985 . S
Cu46 O66 1.959 . S
N47 Cu46 1.999 . S
N47 C49 1.263 . S
N47 C51 1.389 . S
N48 C49 1.358 . S
N48 C50 1.400 . S
C49 N47 1.263 . S
C49 N48 1.358 . S
C49 H55 0.930 . S
C50 N48 1.400 . S
C50 C51 1.351 . S
C50 H67 0.930 . S
C51 N47 1.389 . S
C51 C50 1.351 . S
C51 H56 0.930 . S
O52 Cu46 1.974 . S
O52 C62 1.282 . S
C53 O54 1.261 . S
C53 O66 1.251 . S
O54 C53 1.261 . S
H55 C49 0.930 . S
H56 C51 0.930 . S
N57 Cu46 1.985 . S
N57 C59 1.335 . S
N57 C60 1.390 . S
N58 C59 1.345 . S
N58 C61 1.336 . S
C59 N57 1.335 . S
C59 N58 1.345 . S
C59 H64 0.930 . S
C60 N57 1.390 . S
C60 C61 1.346 . S
C60 H65 0.930 . S
C61 N58 1.336 . S
C61 C60 1.346 . S
C61 H68 0.929 . S
C62 O52 1.282 . S
C62 O63 1.216 . S
O63 C62 1.216 . S
H64 C59 0.930 . S
H65 C60 0.930 . S
O66 Cu46 1.959 . S
O66 C53 1.251 . S
H67 C50 0.930 . S
H68 C61 0.929 . S
Cu69 N70 1.999 1_655 S
Cu69 O75 1.974 1_655 S
Cu69 N80 1.985 . S
Cu69 O89 1.959 . S
N70 Cu69 1.999 1_455 S
N70 C72 1.263 . S
N70 C74 1.389 1_455 S
N71 C72 1.358 . S
N71 C73 1.400 . S
C72 N70 1.263 . S
C72 N71 1.358 . S
C72 H78 0.930 . S
C73 N71 1.400 . S
C73 C74 1.351 1_455 S
C73 H90 0.930 1_455 S
C74 N70 1.389 1_655 S
C74 C73 1.351 1_655 S
C74 H79 0.930 . S
O75 Cu69 1.974 1_455 S
O75 C85 1.282 . S
C76 O77 1.261 1_655 S
C76 O89 1.251 . S
O77 C76 1.261 1_455 S
H78 C72 0.930 . S
H79 C74 0.930 . S
N80 Cu69 1.985 . S
N80 C82 1.335 . S
N80 C83 1.390 . S
N81 C82 1.345 . S
N81 C84 1.336 . S
C82 N80 1.335 . S
C82 N81 1.345 . S
C82 H87 0.930 . S
C83 N80 1.390 . S
C83 C84 1.346 . S
C83 H88 0.930 1_655 S
C84 N81 1.336 . S
C84 C83 1.346 . S
C84 H91 0.929 . S
C85 O75 1.282 . S
C85 O86 1.216 . S
O86 C85 1.216 . S
H87 C82 0.930 . S
H88 C83 0.930 1_455 S
O89 Cu69 1.959 . S
O89 C76 1.251 . S
H90 C73 0.930 1_655 S
H91 C84 0.929 . S
Cu92 N93 1.999 . S
Cu92 O98 1.974 . S
Cu92 N103 1.985 . S
Cu92 O112 1.959 . S
N93 Cu92 1.999 . S
N93 C95 1.263 . S
N93 C97 1.389 . S
N94 C95 1.358 . S
N94 C96 1.400 . S
C95 N93 1.263 . S
C95 N94 1.358 . S
C95 H101 0.930 . S
C96 N94 1.400 . S
C96 C97 1.351 . S
C96 H113 0.930 . S
C97 N93 1.389 . S
C97 C96 1.351 . S
C97 H102 0.930 . S
O98 Cu92 1.974 . S
O98 C108 1.282 . S
C99 O100 1.261 . S
C99 O112 1.251 . S
O100 C99 1.261 . S
H101 C95 0.930 . S
H102 C97 0.930 . S
N103 Cu92 1.985 . S
N103 C105 1.335 . S
N103 C106 1.390 . S
N104 C105 1.345 . S
N104 C107 1.336 . S
C105 N103 1.335 . S
C105 N104 1.345 . S
C105 H110 0.930 . S
C106 N103 1.390 . S
C106 C107 1.346 . S
C106 H111 0.930 . S
C107 N104 1.336 . S
C107 C106 1.346 . S
C107 H114 0.929 . S
C108 O98 1.282 . S
C108 O109 1.216 . S
O109 C108 1.216 . S
H110 C105 0.930 . S
H111 C106 0.930 . S
O112 Cu92 1.959 . S
O112 C99 1.251 . S
H113 C96 0.930 . S
H114 C107 0.929 . S
Cu115 N116 1.999 . S
Cu115 O121 1.974 . S
Cu115 N126 1.985 . S
Cu115 O135 1.959 . S
N116 Cu115 1.999 . S
N116 C118 1.263 . S
N116 C120 1.389 . S
N117 C118 1.358 . S
N117 C119 1.400 . S
C118 N116 1.263 . S
C118 N117 1.358 . S
C118 H124 0.930 . S
C119 N117 1.400 . S
C119 C120 1.351 . S
C119 H136 0.930 . S
C120 N116 1.389 . S
C120 C119 1.351 . S
C120 H125 0.930 . S
O121 Cu115 1.974 . S
O121 C131 1.282 . S
C122 O123 1.261 . S
C122 O135 1.251 . S
O123 C122 1.261 . S
H124 C118 0.930 . S
H125 C120 0.930 . S
N126 Cu115 1.985 . S
N126 C128 1.335 . S
N126 C129 1.390 . S
N127 C128 1.345 . S
N127 C130 1.336 . S
C128 N126 1.335 . S
C128 N127 1.345 . S
C128 H133 0.930 . S
C129 N126 1.390 . S
C129 C130 1.346 . S
C129 H134 0.930 . S
C130 N127 1.336 . S
C130 C129 1.346 . S
C130 H137 0.929 . S
C131 O121 1.282 . S
C131 O132 1.216 . S
O132 C131 1.216 . S
H133 C128 0.930 . S
H134 C129 0.930 . S
O135 Cu115 1.959 . S
O135 C122 1.251 . S
H136 C119 0.930 . S
H137 C130 0.929 . S
H138 O164 0.856 . S
H139 O167 0.854 . S
H140 C175 0.930 . S
H141 C176 0.930 . S
H142 C178 0.930 . S
H143 C179 0.930 . S
H144 C181 0.931 . S
H145 C182 0.930 . S
H146 C184 0.930 . S
H147 C185 0.929 . S
H148 C187 0.930 . S
H149 C188 0.931 . S
H150 C190 0.930 . S
H151 C191 0.929 . S
H152 C193 0.931 . S
H153 C194 0.930 . S
H154 C196 0.930 . S
H155 C197 0.932 . S
H156 C199 0.930 . S
H157 C200 0.929 . S
H158 C202 0.931 . S
H159 C203 0.930 . S
H160 C205 0.929 . S
H161 C206 0.931 . S
H162 C208 0.930 . S
H163 C209 0.929 . S
O164 H138 0.856 . S
O164 C210 1.300 . S
O165 C210 1.209 . S
O166 C211 1.199 . S
O167 H139 0.854 . S
O167 C211 1.297 . S
C168 C169 1.404 . S
C168 C173 1.397 . S
C168 C174 1.492 . S
C169 C168 1.404 . S
C169 C170 1.396 . S
C169 C180 1.492 . S
C170 C169 1.396 . S
C170 C171 1.397 . S
C170 C186 1.509 . S
C171 C170 1.397 . S
C171 C172 1.412 . S
C171 C192 1.485 . S
C172 C171 1.412 . S
C172 C173 1.388 . S
C172 C198 1.490 . S
C173 C168 1.397 . S
C173 C172 1.388 . S
C173 C204 1.519 . S
C174 C168 1.492 . S
C174 C175 1.363 . S
C174 C179 1.390 . S
C175 H140 0.930 . S
C175 C174 1.363 . S
C175 C176 1.372 . S
C176 H141 0.930 . S
C176 C175 1.372 . S
C176 C177 1.383 . S
C177 C176 1.383 . S
C177 C178 1.395 . S
C178 H142 0.930 . S
C178 C177 1.395 . S
C178 C179 1.362 . S
C179 H143 0.930 . S
C179 C174 1.390 . S
C179 C178 1.362 . S
C180 C169 1.492 . S
C180 C181 1.377 . S
C180 C185 1.397 . S
C181 H144 0.931 . S
C181 C180 1.377 . S
C181 C182 1.376 . S
C182 H145 0.930 . S
C182 C181 1.376 . S
C182 C183 1.376 . S
C183 C182 1.376 . S
C183 C184 1.378 . S
C183 C210 1.486 . S
C184 H146 0.930 . S
C184 C183 1.378 . S
C184 C185 1.376 . S
C185 H147 0.929 . S
C185 C180 1.397 . S
C185 C184 1.376 . S
C186 C170 1.509 . S
C186 C187 1.391 . S
C186 C191 1.386 . S
C187 H148 0.930 . S
C187 C186 1.391 . S
C187 C188 1.375 . S
C188 H149 0.931 . S
C188 C187 1.375 . S
C188 C189 1.375 . S
C189 C188 1.375 . S
C189 C190 1.361 . S
C190 H150 0.930 . S
C190 C189 1.361 . S
C190 C191 1.399 . S
C191 H151 0.929 . S
C191 C186 1.386 . S
C191 C190 1.399 . S
C192 C171 1.485 . S
C192 C193 1.394 . S
C192 C197 1.360 . S
C193 H152 0.931 . S
C193 C192 1.394 . S
C193 C194 1.372 . S
C194 H153 0.930 . S
C194 C193 1.372 . S
C194 C195 1.397 . S
C195 C194 1.397 . S
C195 C196 1.390 . S
C195 C211 1.476 . S
C196 H154 0.930 . S
C196 C195 1.390 . S
C196 C197 1.366 . S
C197 H155 0.932 . S
C197 C192 1.360 . S
C197 C196 1.366 . S
C198 C172 1.490 . S
C198 C199 1.380 . S
C198 C203 1.386 . S
C199 H156 0.930 . S
C199 C198 1.380 . S
C199 C200 1.381 . S
C200 H157 0.929 . S
C200 C199 1.381 . S
C200 C201 1.371 . S
C201 C200 1.371 . S
C201 C202 1.380 . S
C202 H158 0.931 . S
C202 C201 1.380 . S
C202 C203 1.387 . S
C203 H159 0.930 . S
C203 C198 1.386 . S
C203 C202 1.387 . S
C204 C173 1.519 . S
C204 C205 1.377 . S
C204 C209 1.361 . S
C205 H160 0.929 . S
C205 C204 1.377 . S
C205 C206 1.386 . S
C206 H161 0.931 . S
C206 C205 1.386 . S
C206 C207 1.363 . S
C207 C206 1.363 . S
C207 C208 1.385 . S
C208 H162 0.930 . S
C208 C207 1.385 . S
C208 C209 1.396 . S
C209 H163 0.929 . S
C209 C204 1.361 . S
C209 C208 1.396 . S
C210 O164 1.300 . S
C210 O165 1.209 . S
C210 C183 1.486 . S
C211 O166 1.199 . S
C211 O167 1.297 . S
C211 C195 1.476 . S
H212 O238 0.856 . S
H213 O241 0.854 . S
H214 C249 0.930 . S
H215 C250 0.930 . S
H216 C252 0.930 . S
H217 C253 0.930 . S
H218 C255 0.931 . S
H219 C256 0.930 . S
H220 C258 0.930 . S
H221 C259 0.929 . S
H222 C261 0.930 . S
H223 C262 0.931 . S
H224 C264 0.930 . S
H225 C265 0.929 . S
H226 C267 0.931 . S
H227 C268 0.930 . S
H228 C270 0.930 . S
H229 C271 0.932 . S
H230 C273 0.930 . S
H231 C274 0.929 . S
H232 C276 0.931 . S
H233 C277 0.930 . S
H234 C279 0.929 . S
H235 C280 0.931 . S
H236 C282 0.930 . S
H237 C283 0.929 . S
O238 H212 0.856 . S
O238 C284 1.300 . S
O239 C284 1.184 1_455 S
O240 C285 1.199 . S
O241 H213 0.854 . S
O241 C285 1.297 1_565 S
C242 C243 1.404 . S
C242 C247 1.397 . S
C242 C248 1.492 . S
C243 C242 1.404 . S
C243 C244 1.396 . S
C243 C254 1.492 . S
C244 C243 1.396 . S
C244 C245 1.397 . S
C244 C260 1.509 . S
C245 C244 1.397 . S
C245 C246 1.412 . S
C245 C266 1.485 . S
C246 C245 1.412 . S
C246 C247 1.388 . S
C246 C272 1.490 . S
C247 C242 1.397 . S
C247 C246 1.388 . S
C247 C278 1.519 . S
C248 C242 1.492 . S
C248 C249 1.363 . S
C248 C253 1.390 . S
C249 H214 0.930 . S
C249 C248 1.363 . S
C249 C250 1.372 . S
C250 H215 0.930 . S
C250 C249 1.372 . S
C250 C251 1.383 1_655 S
C251 C250 1.383 1_455 S
C251 C252 1.395 . S
C252 H216 0.930 . S
C252 C251 1.395 . S
C252 C253 1.362 1_455 S
C253 H217 0.930 . S
C253 C248 1.390 . S
C253 C252 1.362 1_655 S
C254 C243 1.492 . S
C254 C255 1.377 . S
C254 C259 1.397 . S
C255 H218 0.931 . S
C255 C254 1.377 . S
C255 C256 1.376 . S
C256 H219 0.930 . S
C256 C255 1.376 . S
C256 C257 1.376 . S
C257 C256 1.376 . S
C257 C258 1.378 . S
C257 C284 1.486 1_556 S
C258 H220 0.930 . S
C258 C257 1.378 . S
C258 C259 1.376 . S
C259 H221 0.929 . S
C259 C254 1.397 . S
C259 C258 1.376 . S
C260 C244 1.509 . S
C260 C261 1.391 . S
C260 C265 1.386 . S
C261 H222 0.930 . S
C261 C260 1.391 . S
C261 C262 1.375 . S
C262 H223 0.931 . S
C262 C261 1.375 . S
C262 C263 1.375 . S
C263 C262 1.375 . S
C263 C264 1.361 . S
C264 H224 0.930 . S
C264 C263 1.361 . S
C264 C265 1.399 . S
C265 H225 0.929 . S
C265 C260 1.386 . S
C265 C264 1.399 . S
C266 C245 1.485 . S
C266 C267 1.394 . S
C266 C271 1.360 . S
C267 H226 0.931 . S
C267 C266 1.394 . S
C267 C268 1.372 . S
C268 H227 0.930 . S
C268 C267 1.372 . S
C268 C269 1.397 . S
C269 C268 1.397 . S
C269 C270 1.390 . S
C269 C285 1.476 . S
C270 H228 0.930 . S
C270 C269 1.390 . S
C270 C271 1.366 . S
C271 H229 0.932 . S
C271 C266 1.360 . S
C271 C270 1.366 . S
C272 C246 1.490 . S
C272 C273 1.380 . S
C272 C277 1.386 . S
C273 H230 0.930 . S
C273 C272 1.380 . S
C273 C274 1.381 . S
C274 H231 0.929 . S
C274 C273 1.381 . S
C274 C275 1.371 . S
C275 C274 1.371 . S
C275 C276 1.380 . S
C276 H232 0.931 . S
C276 C275 1.380 . S
C276 C277 1.387 . S
C277 H233 0.930 . S
C277 C272 1.386 . S
C277 C276 1.387 . S
C278 C247 1.519 . S
C278 C279 1.377 . S
C278 C283 1.361 . S
C279 H234 0.929 . S
C279 C278 1.377 . S
C279 C280 1.386 . S
C280 H235 0.931 . S
C280 C279 1.386 . S
C280 C281 1.363 . S
C281 C280 1.363 . S
C281 C282 1.385 . S
C282 H236 0.930 . S
C282 C281 1.385 . S
C282 C283 1.396 . S
C283 H237 0.929 . S
C283 C278 1.361 . S
C283 C282 1.396 . S
C284 O238 1.300 . S
C284 O239 1.184 1_655 S
C284 C257 1.486 1_554 S
C285 O240 1.199 . S
C285 O241 1.297 1_545 S
C285 C269 1.476 . S
H286 O312 0.856 . S
H287 O315 0.854 . S
H288 C323 0.930 . S
H289 C324 0.930 . S
H290 C326 0.930 . S
H291 C327 0.930 . S
H292 C329 0.931 . S
H293 C330 0.930 . S
H294 C332 0.930 . S
H295 C333 0.929 . S
H296 C335 0.930 . S
H297 C336 0.931 . S
H298 C338 0.930 . S
H299 C339 0.929 . S
H300 C341 0.931 . S
H301 C342 0.930 . S
H302 C344 0.934 . S
H303 C345 0.932 . S
H304 C347 0.930 . S
H305 C348 0.929 . S
H306 C350 0.931 . S
H307 C351 0.930 . S
H308 C353 0.929 . S
H309 C354 0.931 . S
H310 C356 0.930 . S
H311 C357 0.929 . S
O312 H286 0.856 . S
O312 C358 1.300 . S
O313 C358 1.209 . S
O314 C359 1.199 . S
O315 H287 0.854 . S
O315 C359 1.297 . S
C316 C317 1.404 . S
C316 C321 1.397 . S
C316 C322 1.492 . S
C317 C316 1.404 . S
C317 C318 1.396 . S
C317 C328 1.492 . S
C318 C317 1.396 . S
C318 C319 1.397 . S
C318 C334 1.509 . S
C319 C318 1.397 . S
C319 C320 1.412 . S
C319 C340 1.485 . S
C320 C319 1.412 . S
C320 C321 1.388 . S
C320 C346 1.490 . S
C321 C316 1.397 . S
C321 C320 1.388 . S
C321 C352 1.519 . S
C322 C316 1.492 . S
C322 C323 1.363 . S
C322 C327 1.390 . S
C323 H288 0.930 . S
C323 C322 1.363 . S
C323 C324 1.372 . S
C324 H289 0.930 . S
C324 C323 1.372 . S
C324 C325 1.383 . S
C325 C324 1.383 . S
C325 C326 1.395 . S
C326 H290 0.930 . S
C326 C325 1.395 . S
C326 C327 1.362 . S
C327 H291 0.930 . S
C327 C322 1.390 . S
C327 C326 1.362 . S
C328 C317 1.492 . S
C328 C329 1.377 . S
C328 C333 1.397 . S
C329 H292 0.931 . S
C329 C328 1.377 . S
C329 C330 1.376 . S
C330 H293 0.930 . S
C330 C329 1.376 . S
C330 C331 1.376 . S
C331 C330 1.376 . S
C331 C332 1.378 . S
C331 C358 1.486 . S
C332 H294 0.930 . S
C332 C331 1.378 . S
C332 C333 1.376 . S
C333 H295 0.929 . S
C333 C328 1.397 . S
C333 C332 1.376 . S
C334 C318 1.509 . S
C334 C335 1.391 . S
C334 C339 1.386 . S
C335 H296 0.930 . S
C335 C334 1.391 . S
C335 C336 1.375 . S
C336 H297 0.931 . S
C336 C335 1.375 . S
C336 C337 1.375 . S
C337 C336 1.375 . S
C337 C338 1.361 . S
C338 H298 0.930 . S
C338 C337 1.361 . S
C338 C339 1.399 . S
C339 H299 0.929 . S
C339 C334 1.386 . S
C339 C338 1.399 . S
C340 C319 1.485 . S
C340 C341 1.394 . S
C340 C345 1.360 . S
C341 H300 0.931 . S
C341 C340 1.394 . S
C341 C342 1.372 . S
C342 H301 0.930 . S
C342 C341 1.372 . S
C342 C343 1.397 . S
C343 C342 1.397 . S
C343 C344 1.394 1_565 S
C343 C359 1.476 1_565 S
C344 H302 0.934 . S
C344 C343 1.394 1_545 S
C344 C345 1.358 1_545 S
C345 H303 0.932 . S
C345 C340 1.360 . S
C345 C344 1.358 1_565 S
C346 C320 1.490 . S
C346 C347 1.380 . S
C346 C351 1.386 . S
C347 H304 0.930 . S
C347 C346 1.380 . S
C347 C348 1.381 . S
C348 H305 0.929 . S
C348 C347 1.381 . S
C348 C349 1.371 . S
C349 C348 1.371 . S
C349 C350 1.380 . S
C350 H306 0.931 . S
C350 C349 1.380 . S
C350 C351 1.387 . S
C351 H307 0.930 . S
C351 C346 1.386 . S
C351 C350 1.387 . S
C352 C321 1.519 . S
C352 C353 1.377 . S
C352 C357 1.361 . S
C353 H308 0.929 . S
C353 C352 1.377 . S
C353 C354 1.386 . S
C354 H309 0.931 . S
C354 C353 1.386 . S
C354 C355 1.363 . S
C355 C354 1.363 . S
C355 C356 1.385 . S
C356 H310 0.930 . S
C356 C355 1.385 . S
C356 C357 1.396 . S
C357 H311 0.929 . S
C357 C352 1.361 . S
C357 C356 1.396 . S
C358 O312 1.300 . S
C358 O313 1.209 . S
C358 C331 1.486 . S
C359 O314 1.199 . S
C359 O315 1.297 . S
C359 C343 1.476 1_545 S
H360 O386 0.856 . S
H361 O389 0.854 . S
H362 C397 0.930 . S
H363 C398 0.930 . S
H364 C400 0.930 . S
H365 C401 0.930 . S
H366 C403 0.931 . S
H367 C404 0.930 . S
H368 C406 0.930 . S
H369 C407 0.929 . S
H370 C409 0.930 . S
H371 C410 0.931 1_455 S
H372 C412 0.930 . S
H373 C413 0.929 . S
H374 C415 0.931 . S
H375 C416 0.930 . S
H376 C418 0.930 . S
H377 C419 0.932 . S
H378 C421 0.930 . S
H379 C422 0.930 1_455 S
H380 C424 0.931 . S
H381 C425 0.930 . S
H382 C427 0.929 . S
H383 C428 0.931 . S
H384 C430 0.930 . S
H385 C431 0.929 . S
O386 H360 0.856 . S
O386 C432 1.300 . S
O387 C432 1.209 . S
O388 C433 1.199 . S
O389 H361 0.854 . S
O389 C433 1.297 . S
C390 C391 1.404 . S
C390 C395 1.397 . S
C390 C396 1.492 . S
C391 C390 1.404 . S
C391 C392 1.396 . S
C391 C402 1.492 . S
C392 C391 1.396 . S
C392 C393 1.397 . S
C392 C408 1.509 . S
C393 C392 1.397 . S
C393 C394 1.412 . S
C393 C414 1.485 . S
C394 C393 1.412 . S
C394 C395 1.388 . S
C394 C420 1.490 . S
C395 C390 1.397 . S
C395 C394 1.388 . S
C395 C426 1.519 . S
C396 C390 1.492 . S
C396 C397 1.363 . S
C396 C401 1.390 . S
C397 H362 0.930 . S
C397 C396 1.363 . S
C397 C398 1.372 . S
C398 H363 0.930 . S
C398 C397 1.372 . S
C398 C399 1.383 . S
C399 C398 1.383 . S
C399 C400 1.395 . S
C400 H364 0.930 . S
C400 C399 1.395 . S
C400 C401 1.362 . S
C401 H365 0.930 . S
C401 C396 1.390 . S
C401 C400 1.362 . S
C402 C391 1.492 . S
C402 C403 1.377 . S
C402 C407 1.397 . S
C403 H366 0.931 . S
C403 C402 1.377 . S
C403 C404 1.376 . S
C404 H367 0.930 . S
C404 C403 1.376 . S
C404 C405 1.376 . S
C405 C404 1.376 . S
C405 C406 1.378 . S
C405 C432 1.486 . S
C406 H368 0.930 . S
C406 C405 1.378 . S
C406 C407 1.376 . S
C407 H369 0.929 . S
C407 C402 1.397 . S
C407 C406 1.376 . S
C408 C392 1.509 . S
C408 C409 1.391 . S
C408 C413 1.386 . S
C409 H370 0.930 . S
C409 C408 1.391 . S
C409 C410 1.375 . S
C410 H371 0.931 1_655 S
C410 C409 1.375 . S
C410 C411 1.375 . S
C411 C410 1.375 . S
C411 C412 1.361 . S
C412 H372 0.930 . S
C412 C411 1.361 . S
C412 C413 1.399 . S
C413 H373 0.929 . S
C413 C408 1.386 . S
C413 C412 1.399 . S
C414 C393 1.485 . S
C414 C415 1.394 1_655 S
C414 C419 1.360 . S
C415 H374 0.931 . S
C415 C414 1.394 1_455 S
C415 C416 1.372 . S
C416 H375 0.930 . S
C416 C415 1.372 . S
C416 C417 1.397 . S
C417 C416 1.397 . S
C417 C418 1.390 . S
C417 C433 1.476 . S
C418 H376 0.930 . S
C418 C417 1.390 . S
C418 C419 1.366 1_455 S
C419 H377 0.932 . S
C419 C414 1.360 . S
C419 C418 1.366 1_655 S
C420 C394 1.490 . S
C420 C421 1.380 . S
C420 C425 1.386 . S
C421 H378 0.930 . S
C421 C420 1.380 . S
C421 C422 1.381 . S
C422 H379 0.930 1_655 S
C422 C421 1.381 . S
C422 C423 1.371 . S
C423 C422 1.371 . S
C423 C424 1.380 . S
C424 H380 0.931 . S
C424 C423 1.380 . S
C424 C425 1.387 . S
C425 H381 0.930 . S
C425 C420 1.386 . S
C425 C424 1.387 . S
C426 C395 1.519 . S
C426 C427 1.377 . S
C426 C431 1.361 . S
C427 H382 0.929 . S
C427 C426 1.377 . S
C427 C428 1.386 . S
C428 H383 0.931 . S
C428 C427 1.386 . S
C428 C429 1.363 . S
C429 C428 1.363 . S
C429 C430 1.385 . S
C430 H384 0.930 . S
C430 C429 1.385 . S
C430 C431 1.396 . S
C431 H385 0.929 . S
C431 C426 1.361 . S
C431 C430 1.396 . S
C432 O386 1.300 . S
C432 O387 1.209 . S
C432 C405 1.486 . S
C433 O388 1.199 . S
C433 O389 1.297 . S
C433 C417 1.476 . S
H434 O460 0.856 . S
H435 O463 0.854 . S
H436 C471 0.930 . S
H437 C472 0.930 . S
H438 C474 0.930 . S
H439 C475 0.930 . S
H440 C477 0.931 . S
H441 C478 0.930 . S
H442 C480 0.930 . S
H443 C481 0.929 . S
H444 C483 0.930 . S
H445 C484 0.931 . S
H446 C486 0.930 . S
H447 C487 0.929 . S
H448 C489 0.931 . S
H449 C490 0.930 . S
H450 C492 0.930 . S
H451 C493 0.932 . S
H452 C495 0.930 . S
H453 C496 0.929 . S
H454 C498 0.931 . S
H455 C499 0.930 . S
H456 C501 0.929 . S
H457 C502 0.931 . S
H458 C504 0.930 . S
H459 C505 0.929 . S
O460 H434 0.856 . S
O460 C506 1.300 . S
O461 C506 1.209 . S
O462 C507 1.199 . S
O463 H435 0.854 . S
O463 C507 1.297 . S
C464 C465 1.404 . S
C464 C469 1.397 . S
C464 C470 1.492 . S
C465 C464 1.404 . S
C465 C466 1.396 . S
C465 C476 1.492 . S
C466 C465 1.396 . S
C466 C467 1.397 . S
C466 C482 1.509 . S
C467 C466 1.397 . S
C467 C468 1.412 . S
C467 C488 1.485 . S
C468 C467 1.412 . S
C468 C469 1.388 . S
C468 C494 1.490 . S
C469 C464 1.397 . S
C469 C468 1.388 . S
C469 C500 1.519 . S
C470 C464 1.492 . S
C470 C471 1.363 . S
C470 C475 1.390 . S
C471 H436 0.930 . S
C471 C470 1.363 . S
C471 C472 1.372 . S
C472 H437 0.930 . S
C472 C471 1.372 . S
C472 C473 1.383 . S
C473 C472 1.383 . S
C473 C474 1.395 . S
C474 H438 0.930 . S
C474 C473 1.395 . S
C474 C475 1.362 . S
C475 H439 0.930 . S
C475 C470 1.390 . S
C475 C474 1.362 . S
C476 C465 1.492 . S
C476 C477 1.377 . S
C476 C481 1.397 . S
C477 H440 0.931 . S
C477 C476 1.377 . S
C477 C478 1.376 . S
C478 H441 0.930 . S
C478 C477 1.376 . S
C478 C479 1.376 . S
C479 C478 1.376 . S
C479 C480 1.378 . S
C479 C506 1.486 . S
C480 H442 0.930 . S
C480 C479 1.378 . S
C480 C481 1.376 . S
C481 H443 0.929 . S
C481 C476 1.397 . S
C481 C480 1.376 . S
C482 C466 1.509 . S
C482 C483 1.391 . S
C482 C487 1.386 . S
C483 H444 0.930 . S
C483 C482 1.391 . S
C483 C484 1.375 . S
C484 H445 0.931 . S
C484 C483 1.375 . S
C484 C485 1.375 . S
C485 C484 1.375 . S
C485 C486 1.361 . S
C486 H446 0.930 . S
C486 C485 1.361 . S
C486 C487 1.399 . S
C487 H447 0.929 . S
C487 C482 1.386 . S
C487 C486 1.399 . S
C488 C467 1.485 . S
C488 C489 1.394 . S
C488 C493 1.360 . S
C489 H448 0.931 . S
C489 C488 1.394 . S
C489 C490 1.372 . S
C490 H449 0.930 . S
C490 C489 1.372 . S
C490 C491 1.397 . S
C491 C490 1.397 . S
C491 C492 1.390 . S
C491 C507 1.476 . S
C492 H450 0.930 . S
C492 C491 1.390 . S
C492 C493 1.366 . S
C493 H451 0.932 . S
C493 C488 1.360 . S
C493 C492 1.366 . S
C494 C468 1.490 . S
C494 C495 1.380 . S
C494 C499 1.386 . S
C495 H452 0.930 . S
C495 C494 1.380 . S
C495 C496 1.381 . S
C496 H453 0.929 . S
C496 C495 1.381 . S
C496 C497 1.371 . S
C497 C496 1.371 . S
C497 C498 1.380 . S
C498 H454 0.931 . S
C498 C497 1.380 . S
C498 C499 1.387 . S
C499 H455 0.930 . S
C499 C494 1.386 . S
C499 C498 1.387 . S
C500 C469 1.519 . S
C500 C501 1.377 . S
C500 C505 1.361 . S
C501 H456 0.929 . S
C501 C500 1.377 . S
C501 C502 1.386 . S
C502 H457 0.931 . S
C502 C501 1.386 . S
C502 C503 1.363 . S
C503 C502 1.363 . S
C503 C504 1.385 . S
C504 H458 0.930 . S
C504 C503 1.385 . S
C504 C505 1.396 . S
C505 H459 0.929 . S
C505 C500 1.361 . S
C505 C504 1.396 . S
C506 O460 1.300 . S
C506 O461 1.209 . S
C506 C479 1.486 . S
C507 O462 1.199 . S
C507 O463 1.297 . S
C507 C491 1.476 . S
H508 O534 0.856 . S
H509 O537 0.854 . S
H510 C545 0.930 . S
H511 C546 0.930 . S
H512 C548 0.930 . S
H513 C549 0.930 . S
H514 C551 0.931 . S
H515 C552 0.930 . S
H516 C554 0.930 . S
H517 C555 0.929 . S
H518 C557 0.930 . S
H519 C558 0.931 . S
H520 C560 0.930 . S
H521 C561 0.929 . S
H522 C563 0.931 . S
H523 C564 0.930 . S
H524 C566 0.930 . S
H525 C567 0.932 . S
H526 C569 0.930 . S
H527 C570 0.929 . S
H528 C572 0.931 . S
H529 C573 0.930 . S
H530 C575 0.929 . S
H531 C576 0.931 . S
H532 C578 0.930 . S
H533 C579 0.929 . S
O534 H508 0.856 . S
O534 C580 1.300 . S
O535 C580 1.209 . S
O536 C581 1.199 . S
O537 H509 0.854 . S
O537 C581 1.297 1_565 S
C538 C539 1.404 . S
C538 C543 1.397 . S
C538 C544 1.492 . S
C539 C538 1.404 . S
C539 C540 1.396 . S
C539 C550 1.492 . S
C540 C539 1.396 . S
C540 C541 1.397 . S
C540 C556 1.509 . S
C541 C540 1.397 . S
C541 C542 1.412 . S
C541 C562 1.485 . S
C542 C541 1.412 . S
C542 C543 1.388 . S
C542 C568 1.490 . S
C543 C538 1.397 . S
C543 C542 1.388 . S
C543 C574 1.519 . S
C544 C538 1.492 . S
C544 C545 1.363 . S
C544 C549 1.390 . S
C545 H510 0.930 . S
C545 C544 1.363 . S
C545 C546 1.372 . S
C546 H511 0.930 . S
C546 C545 1.372 . S
C546 C547 1.383 . S
C547 C546 1.383 . S
C547 C548 1.395 . S
C548 H512 0.930 . S
C548 C547 1.395 . S
C548 C549 1.362 . S
C549 H513 0.930 . S
C549 C544 1.390 . S
C549 C548 1.362 . S
C550 C539 1.492 . S
C550 C551 1.377 . S
C550 C555 1.397 . S
C551 H514 0.931 . S
C551 C550 1.377 . S
C551 C552 1.376 . S
C552 H515 0.930 . S
C552 C551 1.376 . S
C552 C553 1.376 . S
C553 C552 1.376 . S
C553 C554 1.378 . S
C553 C580 1.486 . S
C554 H516 0.930 . S
C554 C553 1.378 . S
C554 C555 1.376 . S
C555 H517 0.929 . S
C555 C550 1.397 . S
C555 C554 1.376 . S
C556 C540 1.509 . S
C556 C557 1.391 . S
C556 C561 1.386 . S
C557 H518 0.930 . S
C557 C556 1.391 . S
C557 C558 1.375 . S
C558 H519 0.931 . S
C558 C557 1.375 . S
C558 C559 1.375 . S
C559 C558 1.375 . S
C559 C560 1.361 . S
C560 H520 0.930 . S
C560 C559 1.361 . S
C560 C561 1.399 . S
C561 H521 0.929 . S
C561 C556 1.386 . S
C561 C560 1.399 . S
C562 C541 1.485 . S
C562 C563 1.394 . S
C562 C567 1.360 . S
C563 H522 0.931 . S
C563 C562 1.394 . S
C563 C564 1.372 . S
C564 H523 0.930 . S
C564 C563 1.372 . S
C564 C565 1.397 . S
C565 C564 1.397 . S
C565 C566 1.390 . S
C565 C581 1.476 . S
C566 H524 0.930 . S
C566 C565 1.390 . S
C566 C567 1.366 . S
C567 H525 0.932 . S
C567 C562 1.360 . S
C567 C566 1.366 . S
C568 C542 1.490 . S
C568 C569 1.380 . S
C568 C573 1.386 . S
C569 H526 0.930 . S
C569 C568 1.380 . S
C569 C570 1.381 . S
C570 H527 0.929 . S
C570 C569 1.381 . S
C570 C571 1.371 . S
C571 C570 1.371 . S
C571 C572 1.380 . S
C572 H528 0.931 . S
C572 C571 1.380 . S
C572 C573 1.387 . S
C573 H529 0.930 . S
C573 C568 1.386 . S
C573 C572 1.387 . S
C574 C543 1.519 . S
C574 C575 1.377 . S
C574 C579 1.361 . S
C575 H530 0.929 . S
C575 C574 1.377 . S
C575 C576 1.386 . S
C576 H531 0.931 . S
C576 C575 1.386 . S
C576 C577 1.363 . S
C577 C576 1.363 . S
C577 C578 1.385 . S
C578 H532 0.930 . S
C578 C577 1.385 . S
C578 C579 1.396 . S
C579 H533 0.929 . S
C579 C574 1.361 . S
C579 C578 1.396 . S
C580 O534 1.300 . S
C580 O535 1.209 . S
C580 C553 1.486 . S
C581 O536 1.199 . S
C581 O537 1.297 1_545 S
C581 C565 1.476 . S
C582 C583 1.369 . S
C582 C584 1.419 . S
C582 H586 0.930 . S
C583 C582 1.369 . S
C583 C592 1.429 . S
C584 C582 1.419 . S
C584 C585 1.363 . S
C584 H587 0.929 . S
C585 C584 1.363 . S
C585 C591 1.428 . S
H586 C582 0.930 . S
H587 C584 0.929 . S
S588 N589 1.613 . S
S588 N590 1.610 . S
N589 S588 1.613 . S
N589 C592 1.350 . S
N590 S588 1.610 . S
N590 C591 1.351 . S
C591 C585 1.428 . S
C591 N590 1.351 . S
C591 C592 1.434 . S
C592 C583 1.429 . S
C592 N589 1.350 . S
C592 C591 1.434 . S
C593 C594 1.369 . S
C593 C595 1.419 . S
C593 H597 0.930 . S
C594 C593 1.369 . S
C594 C603 1.429 . S
C595 C593 1.419 . S
C595 C596 1.363 . S
C595 H598 0.929 . S
C596 C595 1.363 . S
C596 C602 1.428 . S
H597 C593 0.930 . S
H598 C595 0.929 . S
S599 N600 1.613 . S
S599 N601 1.610 . S
N600 S599 1.613 . S
N600 C603 1.350 . S
N601 S599 1.610 . S
N601 C602 1.351 . S
C602 C596 1.428 . S
C602 N601 1.351 . S
C602 C603 1.434 . S
C603 C594 1.429 . S
C603 N600 1.350 . S
C603 C602 1.434 . S
C604 C605 1.369 . S
C604 C606 1.419 . S
C604 H608 0.930 . S
C605 C604 1.369 . S
C605 C614 1.429 . S
C606 C604 1.419 . S
C606 C607 1.363 . S
C606 H609 0.929 . S
C607 C606 1.363 . S
C607 C613 1.428 . S
H608 C604 0.930 . S
H609 C606 0.929 . S
S610 N611 1.613 . S
S610 N612 1.610 . S
N611 S610 1.613 . S
N611 C614 1.350 . S
N612 S610 1.610 . S
N612 C613 1.351 . S
C613 C607 1.428 . S
C613 N612 1.351 . S
C613 C614 1.434 . S
C614 C605 1.429 . S
C614 N611 1.350 . S
C614 C613 1.434 . S
C615 C616 1.369 . S
C615 C617 1.419 . S
C615 H619 0.930 . S
C616 C615 1.369 . S
C616 C625 1.429 . S
C617 C615 1.419 . S
C617 C618 1.363 . S
C617 H620 0.929 1_655 S
C618 C617 1.363 . S
C618 C624 1.428 . S
H619 C615 0.930 . S
H620 C617 0.929 1_455 S
S621 N622 1.613 . S
S621 N623 1.610 . S
N622 S621 1.613 . S
N622 C625 1.350 . S
N623 S621 1.610 . S
N623 C624 1.351 . S
C624 C618 1.428 . S
C624 N623 1.351 . S
C624 C625 1.434 . S
C625 C616 1.429 . S
C625 N622 1.350 . S
C625 C624 1.434 . S
C626 C627 1.369 . S
C626 C628 1.419 . S
C626 H630 0.930 . S
C627 C626 1.369 . S
C627 C636 1.429 . S
C628 C626 1.419 . S
C628 C629 1.363 . S
C628 H631 0.929 . S
C629 C628 1.363 . S
C629 C635 1.428 . S
H630 C626 0.930 . S
H631 C628 0.929 . S
S632 N633 1.613 1_565 S
S632 N634 1.610 . S
N633 S632 1.613 1_545 S
N633 C636 1.350 1_545 S
N634 S632 1.610 . S
N634 C635 1.351 . S
C635 C629 1.428 . S
C635 N634 1.351 . S
C635 C636 1.434 . S
C636 C627 1.429 . S
C636 N633 1.350 1_565 S
C636 C635 1.434 . S
C637 C638 1.369 . S
C637 C639 1.419 . S
C637 H641 0.930 . S
C638 C637 1.369 . S
C638 C647 1.429 . S
C639 C637 1.419 . S
C639 C640 1.363 . S
C639 H642 0.929 . S
C640 C639 1.363 . S
C640 C646 1.428 . S
H641 C637 0.930 . S
H642 C639 0.929 . S
S643 N644 1.613 . S
S643 N645 1.610 . S
N644 S643 1.613 . S
N644 C647 1.350 . S
N645 S643 1.610 . S
N645 C646 1.351 . S
C646 C640 1.428 . S
C646 N645 1.351 . S
C646 C647 1.434 . S
C647 C638 1.429 . S
C647 N644 1.350 . S
C647 C646 1.434 . S
C648 C649 1.369 . S
C648 C650 1.419 . S
C648 H652 0.930 . S
C649 C648 1.369 . S
C649 C658 1.429 . S
C650 C648 1.419 . S
C650 C651 1.363 . S
C650 H653 0.929 . S
C651 C650 1.363 . S
C651 C657 1.428 . S
H652 C648 0.930 . S
H653 C650 0.929 . S
S654 N655 1.613 1_545 S
S654 N656 1.610 1_545 S
N655 S654 1.613 1_565 S
N655 C658 1.350 . S
N656 S654 1.610 1_565 S
N656 C657 1.351 . S
C657 C651 1.428 . S
C657 N656 1.351 . S
C657 C658 1.434 . S
C658 C649 1.429 . S
C658 N655 1.350 . S
C658 C657 1.434 . S
C659 C660 1.369 . S
C659 C661 1.438 . S
C659 H663 0.930 . S
C660 C659 1.369 . S
C660 C669 1.429 1_554 S
C661 C659 1.438 . S
C661 C662 1.338 1_554 S
C661 H664 0.935 . S
C662 C661 1.338 1_556 S
C662 C668 1.428 . S
H663 C659 0.930 . S
H664 C661 0.935 . S
S665 N666 1.613 . S
S665 N667 1.610 . S
N666 S665 1.613 . S
N666 C669 1.350 . S
N667 S665 1.610 . S
N667 C668 1.351 . S
C668 C662 1.428 . S
C668 N667 1.351 . S
C668 C669 1.434 . S
C669 C660 1.429 1_556 S
C669 N666 1.350 . S
C669 C668 1.434 . S
C670 C671 1.369 . S
C670 C672 1.419 . S
C670 H674 0.930 . S
C671 C670 1.369 . S
C671 C680 1.429 . S
C672 C670 1.419 . S
C672 C673 1.363 . S
C672 H675 0.929 . S
C673 C672 1.363 . S
C673 C679 1.428 . S
H674 C670 0.930 . S
H675 C672 0.929 . S
S676 N677 1.613 . S
S676 N678 1.610 . S
N677 S676 1.613 . S
N677 C680 1.350 . S
N678 S676 1.610 . S
N678 C679 1.351 . S
C679 C673 1.428 . S
C679 N678 1.351 . S
C679 C680 1.434 . S
C680 C671 1.429 . S
C680 N677 1.350 . S
C680 C679 1.434 . S
C681 C682 1.369 1_556 S
C681 C683 1.419 . S
C681 H685 0.930 . S
C682 C681 1.369 1_554 S
C682 C691 1.429 . S
C683 C681 1.419 . S
C683 C684 1.363 . S
C683 H686 0.929 . S
C684 C683 1.363 . S
C684 C690 1.428 1_556 S
H685 C681 0.930 . S
H686 C683 0.929 . S
S687 N688 1.613 . S
S687 N689 1.610 . S
N688 S687 1.613 . S
N688 C691 1.350 . S
N689 S687 1.610 . S
N689 C690 1.351 . S
C690 C684 1.428 1_554 S
C690 N689 1.351 . S
C690 C691 1.434 . S
C691 C682 1.429 . S
C691 N688 1.350 . S
C691 C690 1.434 . S
C692 C693 1.369 . S
C692 C694 1.419 . S
C692 H696 0.930 . S
C693 C692 1.369 . S
C693 C702 1.429 . S
C694 C692 1.419 . S
C694 C695 1.363 . S
C694 H697 0.929 . S
C695 C694 1.363 . S
C695 C701 1.428 . S
H696 C692 0.930 . S
H697 C694 0.929 . S
S698 N699 1.613 . S
S698 N700 1.610 . S
N699 S698 1.613 . S
N699 C702 1.350 . S
N700 S698 1.610 . S
N700 C701 1.351 . S
C701 C695 1.428 . S
C701 N700 1.351 . S
C701 C702 1.434 . S
C702 C693 1.429 . S
C702 N699 1.350 . S
C702 C701 1.434 . S
C703 C704 1.369 . S
C703 C705 1.419 . S
C703 H707 0.930 . S
C704 C703 1.369 . S
C704 C713 1.429 . S
C705 C703 1.419 . S
C705 C706 1.363 . S
C705 H708 0.929 . S
C706 C705 1.363 . S
C706 C712 1.428 . S
H707 C703 0.930 . S
H708 C705 0.929 . S
S709 N710 1.613 . S
S709 N711 1.610 . S
N710 S709 1.613 . S
N710 C713 1.350 . S
N711 S709 1.610 . S
N711 C712 1.351 . S
C712 C706 1.428 . S
C712 N711 1.351 . S
C712 C713 1.434 . S
C713 C704 1.429 . S
C713 N710 1.350 . S
C713 C712 1.434 . S
C714 C715 1.369 . S
C714 C716 1.419 . S
C714 H718 0.930 . S
C715 C714 1.369 . S
C715 C724 1.429 . S
C716 C714 1.419 . S
C716 C717 1.363 . S
C716 H719 0.929 . S
C717 C716 1.363 . S
C717 C723 1.428 . S
H718 C714 0.930 . S
H719 C716 0.929 . S
S720 N721 1.613 . S
S720 N722 1.610 1_455 S
N721 S720 1.613 . S
N721 C724 1.350 . S
N722 S720 1.610 1_655 S
N722 C723 1.351 1_655 S
C723 C717 1.428 . S
C723 N722 1.351 1_455 S
C723 C724 1.434 . S
C724 C715 1.429 . S
C724 N721 1.350 . S
C724 C723 1.434 . S
C725 C726 1.369 . S
C725 C727 1.419 . S
C725 H729 0.930 . S
C726 C725 1.369 . S
C726 C735 1.429 . S
C727 C725 1.419 . S
C727 C728 1.363 . S
C727 H730 0.929 . S
C728 C727 1.363 . S
C728 C734 1.428 . S
H729 C725 0.930 . S
H730 C727 0.929 . S
S731 N732 1.613 . S
S731 N733 1.610 . S
N732 S731 1.613 . S
N732 C735 1.350 . S
N733 S731 1.610 . S
N733 C734 1.351 . S
C734 C728 1.428 . S
C734 N733 1.351 . S
C734 C735 1.434 . S
C735 C726 1.429 . S
C735 N732 1.350 . S
C735 C734 1.434 . S
C736 C737 1.369 1_554 S
C736 C738 1.419 1_554 S
C736 H740 0.930 . S
C737 C736 1.369 1_556 S
C737 C746 1.429 . S
C738 C736 1.419 1_556 S
C738 C739 1.363 . S
C738 H741 0.929 . S
C739 C738 1.363 . S
C739 C745 1.428 . S
H740 C736 0.930 . S
H741 C738 0.929 . S
S742 N743 1.613 . S
S742 N744 1.610 . S
N743 S742 1.613 . S
N743 C746 1.350 . S
N744 S742 1.610 . S
N744 C745 1.351 . S
C745 C739 1.428 . S
C745 N744 1.351 . S
C745 C746 1.434 . S
C746 C737 1.429 . S
C746 N743 1.350 . S
C746 C745 1.434 . S
C747 C748 1.369 . S
C747 C749 1.419 . S
C747 H751 0.930 . S
C748 C747 1.369 . S
C748 C757 1.429 . S
C749 C747 1.419 . S
C749 C750 1.363 . S
C749 H752 0.929 . S
C750 C749 1.363 . S
C750 C756 1.428 . S
H751 C747 0.930 . S
H752 C749 0.929 . S
S753 N754 1.613 . S
S753 N755 1.610 . S
N754 S753 1.613 . S
N754 C757 1.350 . S
N755 S753 1.610 . S
N755 C756 1.351 . S
C756 C750 1.428 . S
C756 N755 1.351 . S
C756 C757 1.434 . S
C757 C748 1.429 . S
C757 N754 1.350 . S
C757 C756 1.434 . S
C758 C759 1.369 1_556 S
C758 C760 1.419 . S
C758 H762 0.930 . S
C759 C758 1.369 1_554 S
C759 C768 1.429 . S
C760 C758 1.419 . S
C760 C761 1.363 . S
C760 H763 0.929 . S
C761 C760 1.363 . S
C761 C767 1.428 1_556 S
H762 C758 0.930 . S
H763 C760 0.929 . S
S764 N765 1.613 . S
S764 N766 1.610 . S
N765 S764 1.613 . S
N765 C768 1.350 . S
N766 S764 1.610 . S
N766 C767 1.351 . S
C767 C761 1.428 1_554 S
C767 N766 1.351 . S
C767 C768 1.434 . S
C768 C759 1.429 . S
C768 N765 1.350 . S
C768 C767 1.434 . S
C769 C770 1.369 . S
C769 C771 1.419 . S
C769 H773 0.930 . S
C770 C769 1.369 . S
C770 C779 1.429 . S
C771 C769 1.419 . S
C771 C772 1.363 . S
C771 H774 0.929 . S
C772 C771 1.363 . S
C772 C778 1.428 . S
H773 C769 0.930 . S
H774 C771 0.929 . S
S775 N776 1.613 . S
S775 N777 1.610 . S
N776 S775 1.613 . S
N776 C779 1.350 . S
N777 S775 1.610 . S
N777 C778 1.351 . S
C778 C772 1.428 . S
C778 N777 1.351 . S
C778 C779 1.434 . S
C779 C770 1.429 . S
C779 N776 1.350 . S
C779 C778 1.434 . S
C780 C781 1.369 . S
C780 C782 1.419 . S
C780 H784 0.930 . S
C781 C780 1.369 . S
C781 C790 1.429 . S
C782 C780 1.419 . S
C782 C783 1.363 . S
C782 H785 0.929 . S
C783 C782 1.363 . S
C783 C789 1.428 . S
H784 C780 0.930 . S
H785 C782 0.929 . S
S786 N787 1.613 . S
S786 N788 1.610 . S
N787 S786 1.613 . S
N787 C790 1.350 . S
N788 S786 1.610 . S
N788 C789 1.351 . S
C789 C783 1.428 . S
C789 N788 1.351 . S
C789 C790 1.434 . S
C790 C781 1.429 . S
C790 N787 1.350 . S
C790 C789 1.434 . S
C791 C792 1.369 . S
C791 C793 1.419 . S
C791 H795 0.930 . S
C792 C791 1.369 . S
C792 C801 1.429 . S
C793 C791 1.419 . S
C793 C794 1.363 . S
C793 H796 0.929 . S
C794 C793 1.363 . S
C794 C800 1.428 . S
H795 C791 0.930 . S
H796 C793 0.929 . S
S797 N798 1.613 . S
S797 N799 1.610 . S
N798 S797 1.613 . S
N798 C801 1.350 . S
N799 S797 1.610 . S
N799 C800 1.351 . S
C800 C794 1.428 . S
C800 N799 1.351 . S
C800 C801 1.434 . S
C801 C792 1.429 . S
C801 N798 1.350 . S
C801 C800 1.434 . S
C802 C803 1.369 . S
C802 C804 1.419 . S
C802 H806 0.930 . S
C803 C802 1.369 . S
C803 C812 1.429 1_655 S
C804 C802 1.419 . S
C804 C805 1.363 . S
C804 H807 0.929 . S
C805 C804 1.363 . S
C805 C811 1.428 1_655 S
H806 C802 0.930 . S
H807 C804 0.929 . S
S808 N809 1.613 . S
S808 N810 1.610 . S
N809 S808 1.613 . S
N809 C812 1.350 . S
N810 S808 1.610 . S
N810 C811 1.351 . S
C811 C805 1.428 1_455 S
C811 N810 1.351 . S
C811 C812 1.434 . S
C812 C803 1.429 1_455 S
C812 N809 1.350 . S
C812 C811 1.434 . S
C813 C814 1.369 1_565 S
C813 C815 1.419 . S
C813 H817 0.930 . S
C814 C813 1.369 1_545 S
C814 C823 1.429 . S
C815 C813 1.419 . S
C815 C816 1.363 . S
C815 H818 0.929 . S
C816 C815 1.363 . S
C816 C822 1.428 1_565 S
H817 C813 0.930 . S
H818 C815 0.929 . S
S819 N820 1.613 . S
S819 N821 1.610 . S
N820 S819 1.613 . S
N820 C823 1.350 . S
N821 S819 1.610 . S
N821 C822 1.351 . S
C822 C816 1.428 1_545 S
C822 N821 1.351 . S
C822 C823 1.434 . S
C823 C814 1.429 . S
C823 N820 1.350 . S
C823 C822 1.434 . S
C824 C825 1.369 . S
C824 C826 1.419 . S
C824 H828 0.930 . S
C825 C824 1.369 . S
C825 C834 1.429 . S
C826 C824 1.419 . S
C826 C827 1.363 . S
C826 H829 0.929 . S
C827 C826 1.363 . S
C827 C833 1.428 . S
H828 C824 0.930 . S
H829 C826 0.929 . S
S830 N831 1.613 . S
S830 N832 1.610 . S
N831 S830 1.613 . S
N831 C834 1.350 . S
N832 S830 1.610 . S
N832 C833 1.351 . S
C833 C827 1.428 . S
C833 N832 1.351 . S
C833 C834 1.434 . S
C834 C825 1.429 . S
C834 N831 1.350 . S
C834 C833 1.434 . S
C835 C836 1.369 . S
C835 C837 1.419 . S
C835 H839 0.930 . S
C836 C835 1.369 . S
C836 C845 1.429 . S
C837 C835 1.419 . S
C837 C838 1.363 . S
C837 H840 0.929 . S
C838 C837 1.363 . S
C838 C844 1.428 . S
H839 C835 0.930 . S
H840 C837 0.929 . S
S841 N842 1.613 . S
S841 N843 1.610 . S
N842 S841 1.613 . S
N842 C845 1.350 . S
N843 S841 1.610 . S
N843 C844 1.351 . S
C844 C838 1.428 . S
C844 N843 1.351 . S
C844 C845 1.434 . S
C845 C836 1.429 . S
C845 N842 1.350 . S
C845 C844 1.434 . S
C583 C7 2.412 . S
C585 C201 2.362 . S
C594 C30 1.370 . S
C596 C275 1.327 . S
C607 C325 1.768 . S
C605 N58 1.813 . S
C618 C411 1.343 . S
C616 N81 1.222 . S
C629 C503 1.983 . S
C627 C99 1.982 1_565 S
C640 C547 1.622 . S
C638 N127 1.654 . S
C649 N25 1.377 . S
C651 C349 1.351 . S
C660 C62 2.406 . S
C662 C429 2.347 . S
C673 C485 1.506 . S
C671 C85 1.464 . S
C684 C571 1.334 . S
C682 N94 1.341 . S
C693 C131 2.552 . S
C695 C177 2.326 . S
C706 C251 1.659 . S
C704 N2 1.644 . S
C717 C423 2.291 1_455 S
C715 C16 2.565 . S
C726 C39 2.115 . S
C728 C473 1.965 . S
C739 C577 2.215 . S
C737 N48 2.217 1_556 S
C748 N71 1.360 . S
C750 C189 1.348 . S
C759 C108 2.059 . S
C761 C263 1.997 . S
C770 N117 1.987 . S
C772 C355 1.996 . S
C781 N35 1.940 . S
C783 C559 1.916 . S
C794 C207 2.067 . S
C792 C53 2.079 . S
C803 C76 2.457 . S
C805 C281 2.338 . S
C814 N104 1.779 . S
C816 C337 1.766 . S
C825 C122 1.951 . S
C827 C399 1.711 . S
C836 N12 1.843 . S
C838 C497 1.787 . S
