# Generated by pormake.
# Topology ptr, (4,4)-cn, num edge types: 1
# Building blocks:
#     Node 0, Type 0, BuildingBlock: QUQFOY_clean_sbu_1, # of connection points: 4
#     Node 1, Type 0, BuildingBlock: QUQFOY_clean_sbu_1, # of connection points: 4
#     Node 2, Type 0, BuildingBlock: QUQFOY_clean_sbu_1, # of connection points: 4
#     Node 3, Type 0, BuildingBlock: QUQFOY_clean_sbu_1, # of connection points: 4
#     Node 4, Type 0, BuildingBlock: QUQFOY_clean_sbu_1, # of connection points: 4
#     Node 5, Type 0, BuildingBlock: QUQFOY_clean_sbu_1, # of connection points: 4
#     Node 6, Type 0, BuildingBlock: QUQFOY_clean_sbu_1, # of connection points: 4
#     Node 7, Type 0, BuildingBlock: QUQFOY_clean_sbu_1, # of connection points: 4
#     Node 8, Type 0, BuildingBlock: QUQFOY_clean_sbu_1, # of connection points: 4
#     Node 9, Type 0, BuildingBlock: QUQFOY_clean_sbu_1, # of connection points: 4
#     Node 10, Type 0, BuildingBlock: QUQFOY_clean_sbu_1, # of connection points: 4
#     Node 11, Type 0, BuildingBlock: QUQFOY_clean_sbu_1, # of connection points: 4
#     Node 12, Type 0, BuildingBlock: QUQFOY_clean_sbu_1, # of connection points: 4
#     Node 13, Type 0, BuildingBlock: QUQFOY_clean_sbu_1, # of connection points: 4
#     Node 14, Type 0, BuildingBlock: QUQFOY_clean_sbu_1, # of connection points: 4
#     Node 15, Type 0, BuildingBlock: QUQFOY_clean_sbu_1, # of connection points: 4
#     Node 16, Type 0, BuildingBlock: QUQFOY_clean_sbu_1, # of connection points: 4
#     Node 17, Type 0, BuildingBlock: QUQFOY_clean_sbu_1, # of connection points: 4
#     Node 18, Type 1, BuildingBlock: NAHDIM_clean_linker_0, # of connection points: 4
#     Node 19, Type 1, BuildingBlock: NAHDIM_clean_linker_0, # of connection points: 4
#     Node 20, Type 1, BuildingBlock: NAHDIM_clean_linker_0, # of connection points: 4
#     Node 21, Type 1, BuildingBlock: NAHDIM_clean_linker_0, # of connection points: 4
#     Node 22, Type 1, BuildingBlock: NAHDIM_clean_linker_0, # of connection points: 4
#     Node 23, Type 1, BuildingBlock: NAHDIM_clean_linker_0, # of connection points: 4
#     Node 24, Type 1, BuildingBlock: NAHDIM_clean_linker_0, # of connection points: 4
#     Node 25, Type 1, BuildingBlock: NAHDIM_clean_linker_0, # of connection points: 4
#     Node 26, Type 1, BuildingBlock: NAHDIM_clean_linker_0, # of connection points: 4
#     Node 27, Type 1, BuildingBlock: NAHDIM_clean_linker_0, # of connection points: 4
#     Node 28, Type 1, BuildingBlock: NAHDIM_clean_linker_0, # of connection points: 4
#     Node 29, Type 1, BuildingBlock: NAHDIM_clean_linker_0, # of connection points: 4
#     Node 30, Type 1, BuildingBlock: NAHDIM_clean_linker_0, # of connection points: 4
#     Node 31, Type 1, BuildingBlock: NAHDIM_clean_linker_0, # of connection points: 4
#     Node 32, Type 1, BuildingBlock: NAHDIM_clean_linker_0, # of connection points: 4
#     Node 33, Type 1, BuildingBlock: NAHDIM_clean_linker_0, # of connection points: 4
#     Node 34, Type 1, BuildingBlock: NAHDIM_clean_linker_0, # of connection points: 4
#     Node 35, Type 1, BuildingBlock: NAHDIM_clean_linker_0, # of connection points: 4
#     Edge 36, Type (0, 1), BuildingBlock: XIVTED_clean_linker_0, # of connection points: 2
#     Edge 37, Type (0, 1), BuildingBlock: XIVTED_clean_linker_0, # of connection points: 2
#     Edge 38, Type (0, 1), BuildingBlock: XIVTED_clean_linker_0, # of connection points: 2
#     Edge 39, Type (0, 1), BuildingBlock: XIVTED_clean_linker_0, # of connection points: 2
#     Edge 40, Type (0, 1), BuildingBlock: XIVTED_clean_linker_0, # of connection points: 2
#     Edge 41, Type (0, 1), BuildingBlock: XIVTED_clean_linker_0, # of connection points: 2
#     Edge 42, Type (0, 1), BuildingBlock: XIVTED_clean_linker_0, # of connection points: 2
#     Edge 43, Type (0, 1), BuildingBlock: XIVTED_clean_linker_0, # of connection points: 2
#     Edge 44, Type (0, 1), BuildingBlock: XIVTED_clean_linker_0, # of connection points: 2
#     Edge 45, Type (0, 1), BuildingBlock: XIVTED_clean_linker_0, # of connection points: 2
#     Edge 46, Type (0, 1), BuildingBlock: XIVTED_clean_linker_0, # of connection points: 2
#     Edge 47, Type (0, 1), BuildingBlock: XIVTED_clean_linker_0, # of connection points: 2
#     Edge 48, Type (0, 1), BuildingBlock: XIVTED_clean_linker_0, # of connection points: 2
#     Edge 49, Type (0, 1), BuildingBlock: XIVTED_clean_linker_0, # of connection points: 2
#     Edge 50, Type (0, 1), BuildingBlock: XIVTED_clean_linker_0, # of connection points: 2
#     Edge 51, Type (0, 1), BuildingBlock: XIVTED_clean_linker_0, # of connection points: 2
#     Edge 52, Type (0, 1), BuildingBlock: XIVTED_clean_linker_0, # of connection points: 2
#     Edge 53, Type (0, 1), BuildingBlock: XIVTED_clean_linker_0, # of connection points: 2
#     Edge 54, Type (0, 1), BuildingBlock: XIVTED_clean_linker_0, # of connection points: 2
#     Edge 55, Type (0, 1), BuildingBlock: XIVTED_clean_linker_0, # of connection points: 2
#     Edge 56, Type (0, 1), BuildingBlock: XIVTED_clean_linker_0, # of connection points: 2
#     Edge 57, Type (0, 1), BuildingBlock: XIVTED_clean_linker_0, # of connection points: 2
#     Edge 58, Type (0, 1), BuildingBlock: XIVTED_clean_linker_0, # of connection points: 2
#     Edge 59, Type (0, 1), BuildingBlock: XIVTED_clean_linker_0, # of connection points: 2
#     Edge 60, Type (0, 1), BuildingBlock: XIVTED_clean_linker_0, # of connection points: 2
#     Edge 61, Type (0, 1), BuildingBlock: XIVTED_clean_linker_0, # of connection points: 2
#     Edge 62, Type (0, 1), BuildingBlock: XIVTED_clean_linker_0, # of connection points: 2
#     Edge 63, Type (0, 1), BuildingBlock: XIVTED_clean_linker_0, # of connection points: 2
#     Edge 64, Type (0, 1), BuildingBlock: XIVTED_clean_linker_0, # of connection points: 2
#     Edge 65, Type (0, 1), BuildingBlock: XIVTED_clean_linker_0, # of connection points: 2
#     Edge 66, Type (0, 1), BuildingBlock: XIVTED_clean_linker_0, # of connection points: 2
#     Edge 67, Type (0, 1), BuildingBlock: XIVTED_clean_linker_0, # of connection points: 2
#     Edge 68, Type (0, 1), BuildingBlock: XIVTED_clean_linker_0, # of connection points: 2
#     Edge 69, Type (0, 1), BuildingBlock: XIVTED_clean_linker_0, # of connection points: 2
#     Edge 70, Type (0, 1), BuildingBlock: XIVTED_clean_linker_0, # of connection points: 2
#     Edge 71, Type (0, 1), BuildingBlock: XIVTED_clean_linker_0, # of connection points: 2
#     Edge 72, Type (0, 1), BuildingBlock: XIVTED_clean_linker_0, # of connection points: 2
#     Edge 73, Type (0, 1), BuildingBlock: XIVTED_clean_linker_0, # of connection points: 2
#     Edge 74, Type (0, 1), BuildingBlock: XIVTED_clean_linker_0, # of connection points: 2
#     Edge 75, Type (0, 1), BuildingBlock: XIVTED_clean_linker_0, # of connection points: 2
#     Edge 76, Type (0, 1), BuildingBlock: XIVTED_clean_linker_0, # of connection points: 2
#     Edge 77, Type (0, 1), BuildingBlock: XIVTED_clean_linker_0, # of connection points: 2
#     Edge 78, Type (0, 1), BuildingBlock: XIVTED_clean_linker_0, # of connection points: 2
#     Edge 79, Type (0, 1), BuildingBlock: XIVTED_clean_linker_0, # of connection points: 2
#     Edge 80, Type (0, 1), BuildingBlock: XIVTED_clean_linker_0, # of connection points: 2
#     Edge 81, Type (0, 1), BuildingBlock: XIVTED_clean_linker_0, # of connection points: 2
#     Edge 82, Type (0, 1), BuildingBlock: XIVTED_clean_linker_0, # of connection points: 2
#     Edge 83, Type (0, 1), BuildingBlock: XIVTED_clean_linker_0, # of connection points: 2
#     Edge 84, Type (0, 1), BuildingBlock: XIVTED_clean_linker_0, # of connection points: 2
#     Edge 85, Type (0, 1), BuildingBlock: XIVTED_clean_linker_0, # of connection points: 2
#     Edge 86, Type (0, 1), BuildingBlock: XIVTED_clean_linker_0, # of connection points: 2
#     Edge 87, Type (0, 1), BuildingBlock: XIVTED_clean_linker_0, # of connection points: 2
#     Edge 88, Type (0, 1), BuildingBlock: XIVTED_clean_linker_0, # of connection points: 2
#     Edge 89, Type (0, 1), BuildingBlock: XIVTED_clean_linker_0, # of connection points: 2
#     Edge 90, Type (0, 1), BuildingBlock: XIVTED_clean_linker_0, # of connection points: 2
#     Edge 91, Type (0, 1), BuildingBlock: XIVTED_clean_linker_0, # of connection points: 2
#     Edge 92, Type (0, 1), BuildingBlock: XIVTED_clean_linker_0, # of connection points: 2
#     Edge 93, Type (0, 1), BuildingBlock: XIVTED_clean_linker_0, # of connection points: 2
#     Edge 94, Type (0, 1), BuildingBlock: XIVTED_clean_linker_0, # of connection points: 2
#     Edge 95, Type (0, 1), BuildingBlock: XIVTED_clean_linker_0, # of connection points: 2
#     Edge 96, Type (0, 1), BuildingBlock: XIVTED_clean_linker_0, # of connection points: 2
#     Edge 97, Type (0, 1), BuildingBlock: XIVTED_clean_linker_0, # of connection points: 2
#     Edge 98, Type (0, 1), BuildingBlock: XIVTED_clean_linker_0, # of connection points: 2
#     Edge 99, Type (0, 1), BuildingBlock: XIVTED_clean_linker_0, # of connection points: 2
#     Edge 100, Type (0, 1), BuildingBlock: XIVTED_clean_linker_0, # of connection points: 2
#     Edge 101, Type (0, 1), BuildingBlock: XIVTED_clean_linker_0, # of connection points: 2
#     Edge 102, Type (0, 1), BuildingBlock: XIVTED_clean_linker_0, # of connection points: 2
#     Edge 103, Type (0, 1), BuildingBlock: XIVTED_clean_linker_0, # of connection points: 2
#     Edge 104, Type (0, 1), BuildingBlock: XIVTED_clean_linker_0, # of connection points: 2
#     Edge 105, Type (0, 1), BuildingBlock: XIVTED_clean_linker_0, # of connection points: 2
#     Edge 106, Type (0, 1), BuildingBlock: XIVTED_clean_linker_0, # of connection points: 2
#     Edge 107, Type (0, 1), BuildingBlock: XIVTED_clean_linker_0, # of connection points: 2
# Relax obj value: 0.010
# Max RMSD: 0.100
# Mean RMSD: 0.055
data_MOF--net-ptr--node1-QUQFOY_clean_sbu_1--node2-NAHDIM_clean_linker_0--edge1-XIVTED_clean_linker_0
_symmetry_space_group_name_H-M    P1
_symmetry_Int_Tables_number       1
_symmetry_cell_setting            triclinic
loop_
_symmetry_equiv_pos_as_xyz
'x, y, z'
_cell_length_a     96.726623
_cell_length_b     96.273536
_cell_length_c     82.5737
_cell_angle_alpha  90.909114
_cell_angle_beta   90.312315
_cell_angle_gamma 119.9292
loop_
_atom_site_label
_atom_site_type_symbol
_atom_site_fract_x
_atom_site_fract_y
_atom_site_fract_z
_atom_type_partial_charge
O0 O 0.00982 0.35975 0.03362 0.0
Cd1 Cd 0.02048 0.3552 0.01437 0.0
Cd2 Cd 0.99027 0.33936 0.00249 0.0
O3 O 0.98516 0.34757 0.02374 0.0
O4 O 0.04114 0.35793 0.02259 0.0
O5 O 0.02103 0.33465 0.01393 0.0
C6 C 0.03523 0.34272 0.02016 0.0
C7 C 0.97572 0.31269 0.99358 0.0
C8 C 0.99523 0.35579 0.03488 0.0
C9 C 0.01467 0.36704 0.98332 0.0
O10 O 0.00041 0.35558 0.98428 0.0
O11 O 0.02496 0.36934 0.99423 0.0
O12 O 0.96988 0.32212 0.99266 0.0
O13 O 0.98959 0.3182 1.00039 0.0
O14 O 0.63715 0.63527 0.03725 0.0
Cd15 Cd 0.64282 0.65289 0.02049 0.0
Cd16 Cd 0.65611 0.63747 0.00551 0.0
O17 O 0.64984 0.62391 0.02616 0.0
O18 O 0.64116 0.67024 0.03228 0.0
O19 O 0.66382 0.67334 0.0227 0.0
C20 C 0.65636 0.67919 0.03064 0.0
C21 C 0.68232 0.65045 0.99656 0.0
C22 C 0.64148 0.62479 0.03753 0.0
C23 C 0.62879 0.63772 0.9882 0.0
O24 O 0.63844 0.63238 0.98849 0.0
O25 O 0.62894 0.64683 0.99962 0.0
O26 O 0.67318 0.63518 0.99446 0.0
O27 O 0.67663 0.65831 0.0041 0.0
O28 O 0.36317 0.00932 0.98726 0.0
Cd29 Cd 0.35559 0.01832 0.00582 0.0
Cd30 Cd 0.3404 0.98756 0.01451 0.0
O31 O 0.34809 0.98365 0.99246 0.0
O32 O 0.35866 0.03922 0.99816 0.0
O33 O 0.33494 0.01819 0.00265 0.0
C34 C 0.34333 0.03275 0.99781 0.0
C35 C 0.3137 0.97369 0.02193 0.0
C36 C 0.35821 0.99469 0.9836 0.0
C37 C 0.36624 0.01122 0.03703 0.0
O38 O 0.3568 0.99656 0.03334 0.0
O39 O 0.36701 0.0222 0.02806 0.0
O40 O 0.32229 0.96687 0.02195 0.0
O41 O 0.32016 0.98827 0.01706 0.0
O42 O 0.99236 0.63943 0.98812 0.0
Cd43 Cd 0.98329 0.64648 0.00701 0.0
Cd44 Cd 0.01412 0.66171 0.01737 0.0
O45 O 0.01777 0.65352 0.99538 0.0
O46 O 0.96281 0.64461 0.99917 0.0
O47 O 0.98438 0.66773 0.00549 0.0
C48 C 0.96984 0.66005 1.00013 0.0
C49 C 0.02822 0.68883 0.02479 0.0
C50 C 0.00693 0.644 0.98546 0.0
C51 C 0.99015 0.63566 0.03835 0.0
O52 O 0.00477 0.64556 0.03583 0.0
O53 O 0.97939 0.63451 0.02858 0.0
O54 O 0.03487 0.68009 0.0254 0.0
O55 O 0.01364 0.68221 0.01959 0.0
O56 O 0.36881 0.37193 0.98668 0.0
Cd57 Cd 0.36311 0.35475 0.00397 0.0
Cd58 Cd 0.34918 0.37015 0.01791 0.0
O59 O 0.35597 0.38345 0.99704 0.0
O60 O 0.36553 0.33751 0.99297 0.0
O61 O 0.3424 0.33397 0.0016 0.0
C62 C 0.35032 0.3283 0.99424 0.0
C63 C 0.3226 0.35709 0.0258 0.0
C64 C 0.36443 0.38234 0.98591 0.0
C65 C 0.37601 0.37018 0.03654 0.0
O66 O 0.36621 0.37533 0.03573 0.0
O67 O 0.37643 0.36125 0.02525 0.0
O68 O 0.33163 0.37237 0.02791 0.0
O69 O 0.32864 0.34924 0.01891 0.0
O70 O 0.63714 0.99352 0.0366 0.0
Cd71 Cd 0.64507 0.98575 0.01729 0.0
Cd72 Cd 0.66073 0.01715 0.01085 0.0
O73 O 0.6523 0.01953 0.03312 0.0
O74 O 0.64182 0.96429 0.02315 0.0
O75 O 0.66564 0.98568 0.02021 0.0
C76 C 0.65715 0.97076 0.02384 0.0
C77 C 0.68765 0.03124 0.00422 0.0
C78 C 0.64197 0.00789 0.04125 0.0
C79 C 0.63553 0.99525 0.98679 0.0
O80 O 0.64501 0.0096 0.99147 0.0
O81 O 0.63428 0.98358 0.99494 0.0
O82 O 0.67924 0.03825 0.00487 0.0
O83 O 0.68089 0.01633 0.00804 0.0
O84 O 0.66925 0.69761 0.36494 0.0
Cd85 Cd 0.68204 0.69401 0.34695 0.0
Cd86 Cd 0.65346 0.68047 0.33158 0.0
O87 O 0.64551 0.68496 0.35305 0.0
O88 O 0.70266 0.69908 0.35747 0.0
O89 O 0.6854 0.67494 0.34775 0.0
C90 C 0.69891 0.68437 0.35487 0.0
C91 C 0.64152 0.65475 0.32011 0.0
C92 C 0.65438 0.69277 0.36511 0.0
C93 C 0.67983 0.70952 0.31642 0.0
O94 O 0.66499 0.69943 0.31621 0.0
O95 O 0.68889 0.70894 0.32727 0.0
O96 O 0.63487 0.66347 0.31911 0.0
O97 O 0.65489 0.66054 0.32803 0.0
O98 O 0.2936 0.96415 0.37943 0.0
Cd99 Cd 0.30061 0.98278 0.36362 0.0
Cd100 Cd 0.31537 0.96865 0.34898 0.0
O101 O 0.30827 0.95456 0.36929 0.0
O102 O 0.29935 1.00023 0.37563 0.0
O103 O 0.32199 0.00266 0.3667 0.0
C104 C 0.31465 0.00879 0.37444 0.0
C105 C 0.34136 0.97885 0.33968 0.0
C106 C 0.29862 0.95421 0.37988 0.0
C107 C 0.28853 0.96926 0.33059 0.0
O108 O 0.29834 0.96413 0.33131 0.0
O109 O 0.28787 0.97781 0.34213 0.0
O110 O 0.33087 0.96387 0.33802 0.0
O111 O 0.3372 0.9881 0.34704 0.0
O112 O 0.03823 0.33702 0.32211 0.0
Cd113 Cd 0.03296 0.3493 0.33941 0.0
Cd114 Cd 0.01661 0.31903 0.35188 0.0
O115 O 0.02356 0.31242 0.3309 0.0
O116 O 0.04221 0.37103 0.33012 0.0
O117 O 0.01638 0.35556 0.33398 0.0
C118 C 0.028 0.36886 0.32887 0.0
C119 C 0.98984 0.30604 0.35908 0.0
C120 C 0.03301 0.32205 0.32054 0.0
C121 C 0.04344 0.34415 0.3722 0.0
O122 O 0.03327 0.32934 0.37042 0.0
O123 O 0.04457 0.35408 0.36159 0.0
O124 O 0.9984 0.29928 0.36066 0.0
O125 O 0.99647 0.32021 0.35306 0.0
O126 O 0.66816 0.96519 0.32817 0.0
Cd127 Cd 0.65538 0.9718 0.34314 0.0
Cd128 Cd 0.68453 0.98878 0.35768 0.0
O129 O 0.69233 0.98082 0.33828 0.0
O130 O 0.6344 0.96193 0.33164 0.0
O131 O 0.64961 0.9881 0.33523 0.0
C132 C 0.63674 0.97611 0.32924 0.0
C133 C 0.69575 0.01609 0.36321 0.0
C134 C 0.68309 0.97047 0.32781 0.0
C135 C 0.65879 0.96304 0.37718 0.0
O136 O 0.67361 0.97313 0.37636 0.0
O137 O 0.6494 0.96139 0.36554 0.0
O138 O 0.70316 0.00851 0.36689 0.0
O139 O 0.6819 0.00811 0.35617 0.0
O140 O 0.03001 0.6969 0.31773 0.0
Cd141 Cd 0.02455 0.68079 0.33618 0.0
Cd142 Cd 0.01081 0.69691 0.34861 0.0
O143 O 0.01731 0.70898 0.32703 0.0
O144 O 0.02859 0.66387 0.32709 0.0
O145 O 0.00466 0.65914 0.33428 0.0
C146 C 0.01355 0.65388 0.32832 0.0
C147 C 0.98435 0.68419 0.35685 0.0
C148 C 0.02568 0.7073 0.3162 0.0
C149 C 0.038 0.69864 0.36775 0.0
O150 O 0.02825 0.70378 0.3663 0.0
O151 O 0.03804 0.6888 0.35732 0.0
O152 O 0.9933 0.69956 0.35795 0.0
O153 O 0.9904 0.67599 0.35077 0.0
O154 O 0.29721 0.3304 0.37278 0.0
Cd155 Cd 0.30196 0.31837 0.3547 0.0
Cd156 Cd 0.31726 0.34781 0.34164 0.0
O157 O 0.31118 0.35472 0.36304 0.0
O158 O 0.29934 0.29828 0.36419 0.0
O159 O 0.32253 0.31803 0.35605 0.0
C160 C 0.31448 0.3041 0.36246 0.0
C161 C 0.3434 0.36145 0.33236 0.0
C162 C 0.30244 0.3454 0.37401 0.0
C163 C 0.28955 0.32174 0.32256 0.0
O164 O 0.29994 0.33652 0.32386 0.0
O165 O 0.28852 0.31208 0.33345 0.0
O166 O 0.33417 0.3675 0.33129 0.0
O167 O 0.33794 0.3478 0.3393 0.0
O168 O 0.32479 0.03143 0.70359 0.0
Cd169 Cd 0.34035 0.03067 0.68702 0.0
Cd170 Cd 0.31311 0.01398 0.66912 0.0
O171 O 0.30289 0.0192 0.68841 0.0
O172 O 0.36044 0.03706 0.69941 0.0
O173 O 0.34572 0.01303 0.688 0.0
C174 C 0.3582 0.02289 0.69643 0.0
C175 C 0.30218 0.98767 0.65937 0.0
C176 C 0.30998 0.02634 0.70153 0.0
C177 C 0.33907 0.0439 0.65457 0.0
O178 O 0.32519 0.03181 0.65279 0.0
O179 O 0.34717 0.04579 0.66743 0.0
O180 O 0.29555 0.99614 0.65638 0.0
O181 O 0.31498 0.99408 0.66831 0.0
O182 O 0.96404 0.29476 0.69857 0.0
Cd183 Cd 0.9697 0.31251 0.68198 0.0
Cd184 Cd 0.98512 0.29821 0.66831 0.0
O185 O 0.9782 0.28443 0.68883 0.0
O186 O 0.96296 0.32668 0.69294 0.0
O187 O 0.98805 0.33469 0.68699 0.0
C188 C 0.97773 0.33776 0.6935 0.0
C189 C 0.01184 0.31212 0.66093 0.0
C190 C 0.96896 0.28478 0.69952 0.0
C191 C 0.95848 0.29748 0.64886 0.0
O192 O 0.96837 0.29249 0.65005 0.0
O193 O 0.95763 0.30626 0.66002 0.0
O194 O 0.00323 0.29681 0.65866 0.0
O195 O 0.00531 0.31955 0.66778 0.0
O196 O 0.69846 0.66971 0.65325 0.0
Cd197 Cd 0.69197 0.6801 0.67151 0.0
Cd198 Cd 0.67833 0.6505 0.68354 0.0
O199 O 0.68517 0.64488 0.66186 0.0
O200 O 0.69612 0.70121 0.66343 0.0
O201 O 0.67187 0.68121 0.66838 0.0
C202 C 0.68094 0.69567 0.6636 0.0
C203 C 0.65184 0.63719 0.6916 0.0
C204 C 0.69401 0.65491 0.65142 0.0
C205 C 0.70487 0.67624 0.70334 0.0
O206 O 0.69548 0.66124 0.70156 0.0
O207 O 0.70474 0.68587 0.69307 0.0
O208 O 0.66054 0.63052 0.69253 0.0
O209 O 0.65813 0.65136 0.68563 0.0
O210 O 0.33058 0.30068 0.65206 0.0
Cd211 Cd 0.31925 0.30612 0.67006 0.0
Cd212 Cd 0.34855 0.32007 0.68445 0.0
O213 O 0.35473 0.31315 0.66308 0.0
O214 O 0.29951 0.30437 0.66019 0.0
O215 O 0.31985 0.32724 0.66934 0.0
C216 C 0.30591 0.31965 0.66249 0.0
C217 C 0.36228 0.34682 0.69326 0.0
C218 C 0.3453 0.30493 0.6515 0.0
C219 C 0.32185 0.29293 0.70199 0.0
O220 O 0.33673 0.30295 0.70167 0.0
O221 O 0.31265 0.29248 0.69068 0.0
O222 O 0.36843 0.33771 0.69484 0.0
O223 O 0.34837 0.34077 0.68642 0.0
O224 O 0.71203 0.04405 0.64518 0.0
Cd225 Cd 0.70695 0.02694 0.66248 0.0
Cd226 Cd 0.69407 0.0429 0.67767 0.0
O227 O 0.69995 0.05587 0.65666 0.0
O228 O 0.70777 0.00901 0.65104 0.0
O229 O 0.68565 0.00666 0.66136 0.0
C230 C 0.69265 0.00031 0.65338 0.0
C231 C 0.66866 0.03285 0.68838 0.0
C232 C 0.70772 0.05454 0.64494 0.0
C233 C 0.72128 0.04193 0.69471 0.0
O234 O 0.71175 0.04741 0.69445 0.0
O235 O 0.72119 0.03301 0.68313 0.0
O236 O 0.67918 0.04787 0.68958 0.0
O237 O 0.67241 0.0235 0.68054 0.0
O238 O 0.95935 0.66848 0.69883 0.0
Cd239 Cd 0.96395 0.65576 0.68146 0.0
Cd240 Cd 0.97985 0.68505 0.66781 0.0
O241 O 0.97348 0.69256 0.68868 0.0
O242 O 0.95865 0.63536 0.69222 0.0
O243 O 0.98304 0.65291 0.68458 0.0
C244 C 0.97355 0.63961 0.69154 0.0
C245 C 0.00654 0.69774 0.66028 0.0
C246 C 0.96463 0.68349 0.69973 0.0
C247 C 0.95241 0.65894 0.64864 0.0
O248 O 0.96294 0.67371 0.64962 0.0
O249 O 0.95108 0.64952 0.65992 0.0
O250 O 0.99796 0.70441 0.65824 0.0
O251 O 0.99998 0.68383 0.66687 0.0
C252 C 0.19853 0.28799 0.04887 0.0
C253 C 0.20854 0.30018 0.06222 0.0
C254 C 0.19702 0.29327 0.08889 0.0
C255 C 0.19948 0.30808 0.09479 0.0
C256 C 0.18934 0.30882 0.10644 0.0
C257 C 0.17641 0.29443 0.11216 0.0
C258 C 0.17432 0.27947 0.10669 0.0
C259 C 0.18487 0.27911 0.09529 0.0
C260 C 0.19217 0.32497 0.11229 0.0
C261 C 0.1606 0.26389 0.11239 0.0
C262 C 0.07785 0.30732 0.06937 0.0
C263 C 0.08449 0.29948 0.07957 0.0
C264 C 0.10749 0.30678 0.09749 0.0
C265 C 0.105 0.29114 0.09866 0.0
C266 C 0.11569 0.28819 0.10749 0.0
C267 C 0.12921 0.30113 0.11516 0.0
C268 C 0.13177 0.31688 0.11394 0.0
C269 C 0.12079 0.31947 0.10521 0.0
C270 C 0.11258 0.27124 0.10862 0.0
C271 C 0.14616 0.33099 0.12177 0.0
C272 C 0.10297 0.29264 0.22018 0.0
C273 C 0.10055 0.27791 0.21388 0.0
C274 C 0.11246 0.27714 0.20494 0.0
C275 C 0.12708 0.29134 0.20227 0.0
C276 C 0.12969 0.30611 0.20888 0.0
C277 C 0.11757 0.30654 0.21775 0.0
C278 C 0.10937 0.26119 0.19812 0.0
C279 C 0.14517 0.32146 0.20632 0.0
C280 C 0.22789 0.27049 0.21241 0.0
C281 C 0.22326 0.28215 0.22003 0.0
C282 C 0.19644 0.27789 0.21517 0.0
C283 C 0.18131 0.26537 0.21074 0.0
C284 C 0.17021 0.26835 0.20281 0.0
C285 C 0.1743 0.28433 0.19956 0.0
C286 C 0.18935 0.29713 0.20468 0.0
C287 C 0.20029 0.29378 0.21244 0.0
C288 C 0.1542 0.25442 0.19772 0.0
C289 C 0.19387 0.31433 0.20188 0.0
C290 C 0.16431 0.29505 0.12268 0.0
C291 C 0.15274 0.29751 0.11516 0.0
C292 C 0.1409 0.29825 0.12408 0.0
C293 C 0.14043 0.29638 0.14106 0.0
C294 C 0.12857 0.29689 0.15039 0.0
C295 C 0.12825 0.29512 0.1671 0.0
C296 C 0.13972 0.2927 0.17511 0.0
C297 C 0.13944 0.29083 0.19209 0.0
C298 C 0.15094 0.28832 0.19967 0.0
C299 C 0.16282 0.2876 0.19075 0.0
C300 C 0.16337 0.28956 0.17376 0.0
C301 C 0.1752 0.28899 0.16439 0.0
C302 C 0.17563 0.29094 0.14769 0.0
C303 C 0.16413 0.29329 0.13967 0.0
C304 C 0.15211 0.29392 0.14888 0.0
C305 C 0.15175 0.29209 0.16593 0.0
C306 C 0.06568 0.27878 0.21602 0.0
C307 C 0.07603 0.28235 0.23136 0.0
O308 O 0.20601 0.29238 0.07681 0.0
O309 O 0.20689 0.27421 0.22222 0.0
O310 O 0.09163 0.29412 0.22846 0.0
O311 O 0.09747 0.31018 0.08905 0.0
H312 H 0.20439 0.3091 0.06279 0.0
H313 H 0.18566 0.28253 0.05169 0.0
H314 H 0.20149 0.27825 0.0479 0.0
H315 H 0.20062 0.29398 0.03702 0.0
H316 H 0.20924 0.31904 0.09015 0.0
H317 H 0.18323 0.26775 0.09075 0.0
H318 H 0.18269 0.32703 0.10728 0.0
H319 H 0.20393 0.3349 0.10848 0.0
H320 H 0.19155 0.3253 0.1257 0.0
H321 H 0.16025 0.25328 0.10644 0.0
H322 H 0.14913 0.26352 0.10988 0.0
H323 H 0.16161 0.26303 0.12569 0.0
H324 H 0.07555 0.28867 0.08605 0.0
H325 H 0.08327 0.30294 0.0441 0.0
H326 H 0.0823 0.31971 0.07478 0.0
H327 H 0.06519 0.30252 0.07353 0.0
H328 H 0.09476 0.28119 0.09274 0.0
H329 H 0.12263 0.33148 0.10422 0.0
H330 H 0.12231 0.27028 0.10258 0.0
H331 H 0.10102 0.26236 0.10287 0.0
H332 H 0.11258 0.26814 0.12152 0.0
H333 H 0.1468 0.34257 0.1191 0.0
H334 H 0.15723 0.33143 0.11747 0.0
H335 H 0.14577 0.32955 0.1351 0.0
H336 H 0.07578 0.2712 0.23523 0.0
H337 H 0.08939 0.26698 0.21573 0.0
H338 H 0.11938 0.31783 0.2227 0.0
H339 H 0.10999 0.26165 0.1847 0.0
H340 H 0.09751 0.25116 0.20155 0.0
H341 H 0.11874 0.25866 0.20251 0.0
H342 H 0.14549 0.33191 0.21259 0.0
H343 H 0.1469 0.32387 0.19316 0.0
H344 H 0.15531 0.32019 0.21083 0.0
H345 H 0.22696 0.29207 0.21132 0.0
H346 H 0.241 0.27656 0.21065 0.0
H347 H 0.22188 0.2662 0.2004 0.0
H348 H 0.22423 0.25992 0.22018 0.0
H349 H 0.17836 0.25317 0.21317 0.0
H350 H 0.21174 0.30358 0.21651 0.0
H351 H 0.15221 0.25486 0.18452 0.0
H352 H 0.1446 0.25531 0.20414 0.0
H353 H 0.15315 0.24267 0.20043 0.0
H354 H 0.20563 0.32295 0.20746 0.0
H355 H 0.18464 0.31674 0.20695 0.0
H356 H 0.19437 0.31646 0.18866 0.0
H357 H 0.15298 0.29891 0.10213 0.0
H358 H 0.11941 0.29867 0.14488 0.0
H359 H 0.11885 0.29565 0.17364 0.0
H360 H 0.15057 0.2868 0.21268 0.0
H361 H 0.1843 0.28709 0.16988 0.0
H362 H 0.18506 0.29049 0.14111 0.0
H363 H 0.05313 0.26958 0.21847 0.0
H364 H 0.07003 0.2741 0.20611 0.0
H365 H 0.06598 0.28984 0.21181 0.0
C366 C 0.7217 0.91195 0.05602 0.0
C367 C 0.70792 0.90923 0.06701 0.0
C368 C 0.7122 0.90293 0.09413 0.0
C369 C 0.69731 0.88989 0.09791 0.0
C370 C 0.69613 0.87813 0.10853 0.0
C371 C 0.7102 0.87939 0.11533 0.0
C372 C 0.72519 0.89298 0.11211 0.0
C373 C 0.72596 0.90474 0.10171 0.0
C374 C 0.67991 0.86405 0.11198 0.0
C375 C 0.74045 0.8947 0.11906 0.0
C376 C 0.698 0.76754 0.06544 0.0
C377 C 0.70563 0.78375 0.07305 0.0
C378 C 0.69822 0.79986 0.09033 0.0
C379 C 0.71393 0.81161 0.09459 0.0
C380 C 0.71687 0.82442 0.10513 0.0
C381 C 0.70388 0.82544 0.11158 0.0
C382 C 0.68808 0.81352 0.10747 0.0
C383 C 0.68548 0.8009 0.09685 0.0
C384 C 0.73385 0.83694 0.10935 0.0
C385 C 0.67394 0.81416 0.11423 0.0
C386 C 0.70668 0.79753 0.21654 0.0
C387 C 0.72155 0.81105 0.21339 0.0
C388 C 0.72253 0.82396 0.20477 0.0
C389 C 0.70837 0.82338 0.19928 0.0
C390 C 0.69339 0.80977 0.2024 0.0
C391 C 0.69277 0.79696 0.21088 0.0
C392 C 0.73869 0.83827 0.20158 0.0
C393 C 0.67804 0.80885 0.19691 0.0
C394 C 0.72598 0.906 0.26146 0.0
C395 C 0.72218 0.91637 0.25038 0.0
C396 C 0.71128 0.89749 0.22699 0.0
C397 C 0.72573 0.89902 0.22161 0.0
C398 C 0.72577 0.88822 0.20999 0.0
C399 C 0.71112 0.87579 0.20357 0.0
C400 C 0.69662 0.87469 0.20845 0.0
C401 C 0.69692 0.88564 0.22004 0.0
C402 C 0.74144 0.88984 0.20485 0.0
C403 C 0.68078 0.86163 0.20178 0.0
C404 C 0.70935 0.86569 0.12423 0.0
C405 C 0.70779 0.85269 0.11496 0.0
C406 C 0.70673 0.83921 0.12225 0.0
C407 C 0.70763 0.83873 0.1393 0.0
C408 C 0.707 0.82551 0.147 0.0
C409 C 0.7077 0.82506 0.1638 0.0
C410 C 0.70884 0.83771 0.17354 0.0
C411 C 0.70921 0.83719 0.19064 0.0
C412 C 0.7102 0.8499 0.19995 0.0
C413 C 0.71083 0.86322 0.1927 0.0
C414 C 0.7106 0.86404 0.17562 0.0
C415 C 0.71125 0.87727 0.16792 0.0
C416 C 0.71085 0.87787 0.15108 0.0
C417 C 0.70981 0.86526 0.14133 0.0
C418 C 0.70907 0.85176 0.14887 0.0
C419 C 0.70955 0.85119 0.16602 0.0
C420 C 0.71149 0.77193 0.24614 0.0
C421 C 0.71733 0.78452 0.23378 0.0
O422 O 0.71356 0.91359 0.08283 0.0
O423 O 0.71052 0.90692 0.23897 0.0
O424 O 0.70523 0.78494 0.22512 0.0
O425 O 0.69479 0.78739 0.07999 0.0
H426 H 0.69895 0.8962 0.06608 0.0
H427 H 0.72664 0.90426 0.05986 0.0
H428 H 0.73143 0.92466 0.05671 0.0
H429 H 0.71743 0.90873 0.04325 0.0
H430 H 0.68664 0.88881 0.09232 0.0
H431 H 0.73738 0.91499 0.09882 0.0
H432 H 0.67836 0.85336 0.1051 0.0
H433 H 0.67013 0.86631 0.10835 0.0
H434 H 0.67883 0.86124 0.12506 0.0
H435 H 0.75117 0.90577 0.11503 0.0
H436 H 0.74158 0.88418 0.11536 0.0
H437 H 0.74013 0.895 0.13249 0.0
H438 H 0.71502 0.79358 0.06582 0.0
H439 H 0.70089 0.76966 0.05216 0.0
H440 H 0.68492 0.76345 0.0636 0.0
H441 H 0.70622 0.75417 0.08103 0.0
H442 H 0.72391 0.8109 0.08966 0.0
H443 H 0.67342 0.79175 0.09355 0.0
H444 H 0.73614 0.84887 0.10544 0.0
H445 H 0.74267 0.83432 0.10356 0.0
H446 H 0.73571 0.83764 0.12269 0.0
H447 H 0.66239 0.80374 0.11015 0.0
H448 H 0.67429 0.82533 0.11037 0.0
H449 H 0.67452 0.81445 0.12767 0.0
H450 H 0.72733 0.78566 0.2262 0.0
H451 H 0.73244 0.81161 0.21761 0.0
H452 H 0.68136 0.7865 0.21338 0.0
H453 H 0.73996 0.84076 0.18843 0.0
H454 H 0.74862 0.83646 0.20573 0.0
H455 H 0.73976 0.84901 0.20796 0.0
H456 H 0.66734 0.79773 0.20088 0.0
H457 H 0.67771 0.80926 0.1835 0.0
H458 H 0.67746 0.81936 0.20179 0.0
H459 H 0.73317 0.92517 0.24411 0.0
H460 H 0.73479 0.91359 0.27101 0.0
H461 H 0.73122 0.89985 0.25452 0.0
H462 H 0.71497 0.89677 0.26735 0.0
H463 H 0.73696 0.90845 0.22656 0.0
H464 H 0.68586 0.88469 0.22412 0.0
H465 H 0.74223 0.89022 0.19144 0.0
H466 H 0.74209 0.87919 0.20876 0.0
H467 H 0.75186 0.90078 0.2101 0.0
H468 H 0.6706 0.86271 0.20646 0.0
H469 H 0.67905 0.84974 0.20507 0.0
H470 H 0.68067 0.86206 0.18836 0.0
H471 H 0.70716 0.85296 0.10185 0.0
H472 H 0.706 0.81538 0.14011 0.0
H473 H 0.70723 0.8146 0.16906 0.0
H474 H 0.71031 0.84933 0.21307 0.0
H475 H 0.71206 0.88731 0.17483 0.0
H476 H 0.71133 0.88831 0.14578 0.0
H477 H 0.71607 0.76368 0.24222 0.0
H478 H 0.69862 0.76301 0.24299 0.0
H479 H 0.71862 0.7858 0.26967 0.0
C480 C 0.19355 0.91274 0.06266 0.0
C481 C 0.20672 0.92082 0.07571 0.0
C482 C 0.19452 0.90108 0.09735 0.0
C483 C 0.18271 0.90486 0.10166 0.0
C484 C 0.17033 0.89499 0.11205 0.0
C485 C 0.16979 0.88113 0.11829 0.0
C486 C 0.18206 0.87772 0.11457 0.0
C487 C 0.19431 0.88781 0.10421 0.0
C488 C 0.15757 0.8991 0.11601 0.0
C489 C 0.18191 0.86309 0.12109 0.0
C490 C 0.08509 0.81389 0.05109 0.0
C491 C 0.08809 0.80405 0.06354 0.0
C492 C 0.09347 0.81469 0.09111 0.0
C493 C 0.10584 0.81189 0.09564 0.0
C494 C 0.11704 0.82146 0.10765 0.0
C495 C 0.11586 0.83415 0.11516 0.0
C496 C 0.10292 0.83648 0.11113 0.0
C497 C 0.09171 0.8265 0.0993 0.0
C498 C 0.13043 0.81836 0.11192 0.0
C499 C 0.10133 0.84994 0.11879 0.0
C500 C 0.08556 0.80844 0.21864 0.0
C501 C 0.09788 0.8056 0.21397 0.0
C502 C 0.11148 0.81751 0.2063 0.0
C503 C 0.11275 0.83253 0.20326 0.0
C504 C 0.1006 0.83559 0.20849 0.0
C505 C 0.08722 0.82353 0.21628 0.0
C506 C 0.12446 0.81403 0.20135 0.0
C507 C 0.10166 0.85153 0.20563 0.0
C508 C 0.21458 0.94271 0.2248 0.0
C509 C 0.20785 0.93117 0.23896 0.0
C510 C 0.19167 0.90481 0.22524 0.0
C511 C 0.19115 0.89042 0.22114 0.0
C512 C 0.17856 0.87851 0.21172 0.0
C513 C 0.16615 0.88109 0.2063 0.0
C514 C 0.16644 0.89552 0.21057 0.0
C515 C 0.17918 0.90725 0.21998 0.0
C516 C 0.1786 0.86324 0.20742 0.0
C517 C 0.15332 0.89858 0.20503 0.0
C518 C 0.15566 0.86941 0.12739 0.0
C519 C 0.14264 0.85781 0.11835 0.0
C520 C 0.12904 0.84595 0.12586 0.0
C521 C 0.12834 0.84556 0.14295 0.0
C522 C 0.11498 0.83364 0.15093 0.0
C523 C 0.11436 0.83344 0.16777 0.0
C524 C 0.12715 0.84508 0.17728 0.0
C525 C 0.12667 0.84495 0.19441 0.0
C526 C 0.13954 0.85678 0.20348 0.0
C527 C 0.153 0.86881 0.19591 0.0
C528 C 0.15377 0.86907 0.1788 0.0
C529 C 0.16721 0.88092 0.17079 0.0
C530 C 0.16787 0.88107 0.15396 0.0
C531 C 0.1551 0.86941 0.14449 0.0
C532 C 0.14139 0.8574 0.15229 0.0
C533 C 0.14077 0.85718 0.16947 0.0
C534 C 0.0489 0.77806 0.21108 0.0
C535 C 0.06351 0.781 0.22108 0.0
O536 O 0.20609 0.9096 0.08646 0.0
O537 O 0.20444 0.91591 0.23411 0.0
O538 O 0.07212 0.79705 0.22576 0.0
O539 O 0.08331 0.8064 0.07866 0.0
H540 H 0.20523 0.93009 0.08243 0.0
H541 H 0.18157 0.90738 0.06812 0.0
H542 H 0.19456 0.9031 0.05615 0.0
H543 H 0.19447 0.92171 0.05377 0.0
H544 H 0.18289 0.91531 0.09678 0.0
H545 H 0.20357 0.88509 0.10099 0.0
H546 H 0.14603 0.88986 0.11054 0.0
H547 H 0.16041 0.91101 0.11141 0.0
H548 H 0.156 0.89905 0.12932 0.0
H549 H 0.19259 0.86238 0.11747 0.0
H550 H 0.17107 0.85211 0.11657 0.0
H551 H 0.1814 0.86323 0.13451 0.0
H552 H 0.10117 0.80855 0.0635 0.0
H553 H 0.0886 0.81197 0.03883 0.0
H554 H 0.09233 0.82685 0.05436 0.0
H555 H 0.07232 0.81057 0.05075 0.0
H556 H 0.10684 0.80235 0.08963 0.0
H557 H 0.08195 0.82838 0.09583 0.0
H558 H 0.13199 0.81859 0.12528 0.0
H559 H 0.14174 0.82798 0.10691 0.0
H560 H 0.12829 0.80664 0.10696 0.0
H561 H 0.09082 0.85041 0.114 0.0
H562 H 0.11225 0.8616 0.11657 0.0
H563 H 0.10017 0.84843 0.1321 0.0
H564 H 0.07068 0.77763 0.21316 0.0
H565 H 0.09702 0.7942 0.2165 0.0
H566 H 0.07778 0.82569 0.22023 0.0
H567 H 0.12537 0.81423 0.18795 0.0
H568 H 0.1222 0.80217 0.20554 0.0
H569 H 0.13615 0.82348 0.20637 0.0
H570 H 0.09093 0.85182 0.2099 0.0
H571 H 0.10312 0.85418 0.19251 0.0
H572 H 0.11232 0.86119 0.21207 0.0
H573 H 0.19682 0.9308 0.24333 0.0
H574 H 0.21752 0.95497 0.22878 0.0
H575 H 0.2057 0.9388 0.21473 0.0
H576 H 0.22553 0.94312 0.22013 0.0
H577 H 0.20078 0.8886 0.22526 0.0
H578 H 0.17929 0.91826 0.22305 0.0
H579 H 0.17863 0.86186 0.19405 0.0
H580 H 0.16756 0.85278 0.2119 0.0
H581 H 0.1891 0.86302 0.21265 0.0
H582 H 0.15506 0.91025 0.20967 0.0
H583 H 0.14162 0.88885 0.20918 0.0
H584 H 0.15284 0.89849 0.19159 0.0
H585 H 0.14315 0.85796 0.10522 0.0
H586 H 0.10483 0.82435 0.14423 0.0
H587 H 0.10373 0.82402 0.17325 0.0
H588 H 0.13906 0.85663 0.2166 0.0
H589 H 0.17739 0.8902 0.17746 0.0
H590 H 0.1785 0.89045 0.14844 0.0
H591 H 0.04125 0.78147 0.21815 0.0
H592 H 0.04175 0.76522 0.20732 0.0
H593 H 0.0528 0.78537 0.2 0.0
C594 C 0.2898 0.09895 0.95441 0.0
C595 C 0.29439 0.09028 0.94161 0.0
C596 C 0.30211 0.10961 0.9195 0.0
C597 C 0.28662 0.10621 0.91517 0.0
C598 C 0.28427 0.11606 0.90448 0.0
C599 C 0.29763 0.1295 0.89788 0.0
C600 C 0.31318 0.1325 0.9016 0.0
C601 C 0.3152 0.12245 0.91233 0.0
C602 C 0.26751 0.11243 0.9006 0.0
C603 C 0.32768 0.14661 0.89463 0.0
C604 C 0.28215 0.22692 0.91871 0.0
C605 C 0.29205 0.22403 0.93136 0.0
C606 C 0.29994 0.20696 0.91585 0.0
C607 C 0.31263 0.20713 0.90771 0.0
C608 C 0.31063 0.19365 0.89895 0.0
C609 C 0.2955 0.17957 0.89838 0.0
C610 C 0.28259 0.17918 0.90676 0.0
C611 C 0.28493 0.19288 0.91545 0.0
C612 C 0.32469 0.19447 0.89022 0.0
C613 C 0.26633 0.16431 0.9064 0.0
C614 C 0.27024 0.19209 0.79815 0.0
C615 C 0.28607 0.19576 0.80077 0.0
C616 C 0.28945 0.18459 0.80782 0.0
C617 C 0.27672 0.16953 0.81245 0.0
C618 C 0.26079 0.16555 0.8091 0.0
C619 C 0.25777 0.17686 0.80179 0.0
C620 C 0.3066 0.189 0.81064 0.0
C621 C 0.24695 0.14953 0.81367 0.0
C622 C 0.28775 0.06652 0.76884 0.0
C623 C 0.28488 0.07468 0.78263 0.0
C624 C 0.28775 0.10066 0.78968 0.0
C625 C 0.29945 0.11682 0.78953 0.0
C626 C 0.29864 0.12806 0.79988 0.0
C627 C 0.28533 0.12309 0.8101 0.0
C628 C 0.27312 0.10677 0.80988 0.0
C629 C 0.27467 0.09564 0.79996 0.0
C630 C 0.31201 0.14527 0.79976 0.0
C631 C 0.25833 0.10108 0.81991 0.0
C632 C 0.29535 0.14117 0.88835 0.0
C633 C 0.2958 0.15408 0.89683 0.0
C634 C 0.29328 0.16535 0.88891 0.0
C635 C 0.28966 0.16347 0.87214 0.0
C636 C 0.28628 0.17416 0.86397 0.0
C637 C 0.2829 0.17232 0.84743 0.0
C638 C 0.28309 0.15993 0.83835 0.0
C639 C 0.28006 0.15825 0.82145 0.0
C640 C 0.28045 0.14588 0.81277 0.0
C641 C 0.28402 0.13516 0.82044 0.0
C642 C 0.28697 0.13658 0.83739 0.0
C643 C 0.29063 0.12608 0.84558 0.0
C644 C 0.29316 0.12739 0.86231 0.0
C645 C 0.29265 0.13959 0.87139 0.0
C646 C 0.28953 0.15065 0.86331 0.0
C647 C 0.28645 0.149 0.84635 0.0
C648 C 0.2627 0.22359 0.80335 0.0
C649 C 0.27453 0.21921 0.796 0.0
O650 O 0.30502 0.10111 0.93069 0.0
O651 O 0.28923 0.0904 0.77937 0.0
O652 O 0.2666 0.20295 0.79214 0.0
O653 O 0.30283 0.22065 0.92379 0.0
H654 H 0.28348 0.08114 0.93501 0.0
H655 H 0.28346 0.1046 0.94874 0.0
H656 H 0.30062 0.10846 0.96082 0.0
H657 H 0.28171 0.0903 0.96342 0.0
H658 H 0.27632 0.09609 0.92028 0.0
H659 H 0.32709 0.12489 0.91556 0.0
H660 H 0.26591 0.12249 0.90501 0.0
H661 H 0.25834 0.10119 0.90622 0.0
H662 H 0.26549 0.11132 0.88728 0.0
H663 H 0.33885 0.14649 0.89753 0.0
H664 H 0.32876 0.15791 0.89957 0.0
H665 H 0.32634 0.14663 0.88127 0.0
H666 H 0.28403 0.21386 0.93912 0.0
H667 H 0.27362 0.22979 0.92477 0.0
H668 H 0.27515 0.21606 0.91094 0.0
H669 H 0.29004 0.23701 0.91083 0.0
H670 H 0.32416 0.21801 0.90813 0.0
H671 H 0.27499 0.19248 0.92179 0.0
H672 H 0.322 0.19249 0.87702 0.0
H673 H 0.32684 0.18481 0.89444 0.0
H674 H 0.33577 0.2062 0.89218 0.0
H675 H 0.25746 0.16592 0.91345 0.0
H676 H 0.26718 0.15413 0.91142 0.0
H677 H 0.26197 0.16105 0.89367 0.0
H678 H 0.2839 0.22219 0.80547 0.0
H679 H 0.29577 0.20734 0.79732 0.0
H680 H 0.2456 0.17406 0.79943 0.0
H681 H 0.30929 0.19042 0.82384 0.0
H682 H 0.31507 0.20036 0.80471 0.0
H683 H 0.3086 0.17927 0.80598 0.0
H684 H 0.23524 0.14842 0.81057 0.0
H685 H 0.24743 0.1478 0.82688 0.0
H686 H 0.24783 0.13977 0.80729 0.0
H687 H 0.2889 0.07306 0.79478 0.0
H688 H 0.26323 0.04732 0.76118 0.0
H689 H 0.29703 0.06359 0.77336 0.0
H690 H 0.2962 0.07616 0.76045 0.0
H691 H 0.30943 0.12055 0.78144 0.0
H692 H 0.26542 0.08316 0.79988 0.0
H693 H 0.31548 0.15021 0.81231 0.0
H694 H 0.3079 0.15262 0.7933 0.0
H695 H 0.32273 0.14654 0.79354 0.0
H696 H 0.24868 0.089 0.81589 0.0
H697 H 0.25377 0.1096 0.81927 0.0
H698 H 0.26126 0.1004 0.83278 0.0
H699 H 0.29832 0.15548 0.90976 0.0
H700 H 0.28611 0.184 0.87029 0.0
H701 H 0.28026 0.18085 0.84184 0.0
H702 H 0.27822 0.14476 0.79979 0.0
H703 H 0.29147 0.11663 0.83918 0.0
H704 H 0.29572 0.11886 0.86801 0.0
H705 H 0.25267 0.22062 0.79476 0.0
H706 H 0.26877 0.2366 0.8065 0.0
H707 H 0.25772 0.21677 0.8146 0.0
C708 C 0.80913 0.08589 0.96824 0.0
C709 C 0.79765 0.08783 0.95692 0.0
C710 C 0.80684 0.0918 0.92939 0.0
C711 C 0.80392 0.10379 0.92389 0.0
C712 C 0.81381 0.11473 0.91234 0.0
C713 C 0.82702 0.11374 0.90641 0.0
C714 C 0.82956 0.10119 0.91149 0.0
C715 C 0.81922 0.09018 0.92276 0.0
C716 C 0.8105 0.12771 0.90697 0.0
C717 C 0.8436 0.09986 0.90561 0.0
C718 C 0.92383 0.22701 0.95268 0.0
C719 C 0.9156 0.211 0.94459 0.0
C720 C 0.89268 0.19491 0.92654 0.0
C721 C 0.897 0.18331 0.92266 0.0
C722 C 0.88724 0.17012 0.91247 0.0
C723 C 0.87294 0.16854 0.90598 0.0
C724 C 0.86877 0.18038 0.90956 0.0
C725 C 0.87871 0.19341 0.91981 0.0
C726 C 0.89205 0.15772 0.90882 0.0
C727 C 0.85366 0.17912 0.90276 0.0
C728 C 0.90177 0.18809 0.80092 0.0
C729 C 0.90457 0.17619 0.80716 0.0
C730 C 0.89281 0.16346 0.81597 0.0
C731 C 0.87794 0.16256 0.81855 0.0
C732 C 0.875 0.17438 0.81212 0.0
C733 C 0.88698 0.187 0.8034 0.0
C734 C 0.8963 0.15101 0.82266 0.0
C735 C 0.85925 0.17374 0.81459 0.0
C736 C 0.78079 0.03788 0.79993 0.0
C737 C 0.78566 0.05508 0.79552 0.0
C738 C 0.8118 0.0783 0.80201 0.0
C739 C 0.82715 0.08188 0.80661 0.0
C740 C 0.83743 0.09613 0.81515 0.0
C741 C 0.83229 0.10723 0.81882 0.0
C742 C 0.81701 0.10402 0.81352 0.0
C743 C 0.80688 0.08954 0.80519 0.0
C744 C 0.85371 0.09924 0.8204 0.0
C745 C 0.81137 0.11584 0.81675 0.0
C746 C 0.8391 0.12686 0.89644 0.0
C747 C 0.85011 0.14098 0.9046 0.0
C748 C 0.86185 0.154 0.89629 0.0
C749 C 0.86279 0.153 0.87927 0.0
C750 C 0.87448 0.16587 0.87052 0.0
C751 C 0.87537 0.16473 0.85377 0.0
C752 C 0.86461 0.15067 0.84514 0.0
C753 C 0.86553 0.14934 0.82814 0.0
C754 C 0.8547 0.13517 0.81994 0.0
C755 C 0.84291 0.12214 0.82826 0.0
C756 C 0.84173 0.12326 0.84526 0.0
C757 C 0.82997 0.11042 0.85404 0.0
C758 C 0.82895 0.11162 0.87077 0.0
C759 C 0.83982 0.1256 0.87941 0.0
C760 C 0.85176 0.13872 0.87081 0.0
C761 C 0.85267 0.13756 0.85372 0.0
C762 C 0.93924 0.21221 0.80411 0.0
C763 C 0.92839 0.20469 0.78914 0.0
O764 O 0.79819 0.08211 0.94155 0.0
O765 O 0.80214 0.06395 0.79448 0.0
O766 O 0.91288 0.20086 0.79261 0.0
O767 O 0.90151 0.20758 0.93675 0.0
H768 H 0.80176 0.1009 0.95666 0.0
H769 H 0.82152 0.09304 0.9638 0.0
H770 H 0.80604 0.07313 0.96872 0.0
H771 H 0.80872 0.09026 0.98067 0.0
H772 H 0.79408 0.10474 0.92888 0.0
H773 H 0.82124 0.08076 0.92706 0.0
H774 H 0.81939 0.13929 0.91273 0.0
H775 H 0.79838 0.12518 0.91041 0.0
H776 H 0.81167 0.12906 0.89363 0.0
H777 H 0.84424 0.08977 0.91121 0.0
H778 H 0.85487 0.11118 0.90843 0.0
H779 H 0.84276 0.09804 0.89226 0.0
H780 H 0.91482 0.20096 0.95183 0.0
H781 H 0.94611 0.24062 0.93838 0.0
H782 H 0.92425 0.22467 0.96598 0.0
H783 H 0.91466 0.23092 0.95412 0.0
H784 H 0.90786 0.18438 0.92767 0.0
H785 H 0.87552 0.20246 0.92278 0.0
H786 H 0.88285 0.14592 0.91338 0.0
H787 H 0.90376 0.16089 0.91442 0.0
H788 H 0.89273 0.15638 0.89551 0.0
H789 H 0.85254 0.18976 0.90597 0.0
H790 H 0.84317 0.16827 0.90748 0.0
H791 H 0.85336 0.17776 0.88936 0.0
H792 H 0.92862 0.19369 0.78523 0.0
H793 H 0.91589 0.17674 0.80533 0.0
H794 H 0.88489 0.19619 0.79853 0.0
H795 H 0.89512 0.15069 0.83604 0.0
H796 H 0.90846 0.1534 0.81966 0.0
H797 H 0.88745 0.13897 0.81774 0.0
H798 H 0.85875 0.18374 0.80861 0.0
H799 H 0.85722 0.17429 0.82775 0.0
H800 H 0.84939 0.16219 0.80969 0.0
H801 H 0.7814 0.05979 0.80557 0.0
H802 H 0.7676 0.03049 0.80072 0.0
H803 H 0.78608 0.03785 0.8119 0.0
H804 H 0.78506 0.03235 0.79078 0.0
H805 H 0.83091 0.07323 0.80386 0.0
H806 H 0.79522 0.08711 0.80108 0.0
H807 H 0.85543 0.10182 0.83365 0.0
H808 H 0.86302 0.10996 0.81421 0.0
H809 H 0.85551 0.08894 0.81754 0.0
H810 H 0.79966 0.11212 0.81082 0.0
H811 H 0.82028 0.12784 0.81233 0.0
H812 H 0.81024 0.11705 0.83 0.0
H813 H 0.84951 0.14185 0.91768 0.0
H814 H 0.88308 0.17697 0.87653 0.0
H815 H 0.88464 0.17502 0.84769 0.0
H816 H 0.85557 0.13421 0.80692 0.0
H817 H 0.82138 0.09929 0.84806 0.0
H818 H 0.81961 0.10141 0.87688 0.0
H819 H 0.93904 0.22313 0.80832 0.0
H820 H 0.95171 0.21551 0.80122 0.0
H821 H 0.93525 0.20362 0.81417 0.0
C822 C 0.80377 0.71274 0.96124 0.0
C823 C 0.79146 0.70765 0.94735 0.0
C824 C 0.80548 0.70136 0.92613 0.0
C825 C 0.81704 0.71726 0.92276 0.0
C826 C 0.82999 0.72056 0.91277 0.0
C827 C 0.8314 0.70775 0.90601 0.0
C828 C 0.81951 0.69175 0.90893 0.0
C829 C 0.80665 0.68879 0.91887 0.0
C830 C 0.84235 0.73776 0.90968 0.0
C831 C 0.82063 0.67779 0.90188 0.0
C832 C 0.91681 0.7308 0.97298 0.0
C833 C 0.91369 0.71764 0.96045 0.0
C834 C 0.90898 0.72225 0.93277 0.0
C835 C 0.89731 0.70684 0.92759 0.0
C836 C 0.88615 0.7047 0.91547 0.0
C837 C 0.8866 0.71829 0.90857 0.0
C838 C 0.89886 0.73386 0.91328 0.0
C839 C 0.91011 0.73561 0.92516 0.0
C840 C 0.87351 0.68792 0.91049 0.0
C841 C 0.89961 0.74864 0.90639 0.0
C842 C 0.92003 0.73241 0.80512 0.0
C843 C 0.90894 0.71635 0.80835 0.0
C844 C 0.89454 0.71228 0.81607 0.0
C845 C 0.8912 0.72453 0.82065 0.0
C846 C 0.9021 0.74064 0.81685 0.0
C847 C 0.91631 0.74433 0.80897 0.0
C848 C 0.88293 0.69493 0.81947 0.0
C849 C 0.89884 0.75397 0.82135 0.0
C850 C 0.78213 0.71944 0.80753 0.0
C851 C 0.78903 0.71724 0.79164 0.0
C852 C 0.80832 0.70946 0.80141 0.0
C853 C 0.81075 0.69646 0.80352 0.0
C854 C 0.82417 0.69824 0.812 0.0
C855 C 0.8355 0.71347 0.81843 0.0
C856 C 0.8334 0.72682 0.81592 0.0
C857 C 0.81983 0.72469 0.80747 0.0
C858 C 0.82607 0.68378 0.81441 0.0
C859 C 0.84538 0.74327 0.82248 0.0
C860 C 0.84585 0.71107 0.89683 0.0
C861 C 0.85914 0.71322 0.90568 0.0
C862 C 0.87318 0.71622 0.89803 0.0
C863 C 0.87409 0.71716 0.88095 0.0
C864 C 0.88797 0.72007 0.8728 0.0
C865 C 0.88882 0.72126 0.856 0.0
C866 C 0.87571 0.71933 0.84669 0.0
C867 C 0.87645 0.72057 0.82962 0.0
C868 C 0.86316 0.71849 0.82076 0.0
C869 C 0.84909 0.7153 0.8285 0.0
C870 C 0.84814 0.71411 0.84555 0.0
C871 C 0.83418 0.71098 0.85371 0.0
C872 C 0.8334 0.71 0.8705 0.0
C873 C 0.84652 0.71202 0.87977 0.0
C874 C 0.86071 0.7151 0.87181 0.0
C875 C 0.86152 0.71615 0.85467 0.0
C876 C 0.96006 0.74225 0.80681 0.0
C877 C 0.9435 0.72962 0.80053 0.0
O878 O 0.79321 0.69756 0.93642 0.0
O879 O 0.79468 0.70666 0.79365 0.0
O880 O 0.93433 0.73684 0.79824 0.0
O881 O 0.9189 0.72448 0.94545 0.0
H882 H 0.79306 0.71845 0.94102 0.0
H883 H 0.81608 0.71969 0.95661 0.0
H884 H 0.80255 0.70205 0.96748 0.0
H885 H 0.80207 0.72049 0.97018 0.0
H886 H 0.81618 0.72716 0.92801 0.0
H887 H 0.79761 0.67657 0.9214 0.0
H888 H 0.85394 0.74044 0.91519 0.0
H889 H 0.83894 0.74636 0.91478 0.0
H890 H 0.84413 0.73964 0.89644 0.0
H891 H 0.81031 0.66605 0.90515 0.0
H892 H 0.83176 0.67834 0.90629 0.0
H893 H 0.82124 0.67855 0.88848 0.0
H894 H 0.90053 0.70931 0.96019 0.0
H895 H 0.91293 0.72558 0.98515 0.0
H896 H 0.90994 0.73677 0.96959 0.0
H897 H 0.92968 0.74002 0.9736 0.0
H898 H 0.89677 0.69651 0.93327 0.0
H899 H 0.91931 0.74746 0.92918 0.0
H900 H 0.87204 0.68681 0.8971 0.0
H901 H 0.86193 0.68531 0.91569 0.0
H902 H 0.87641 0.67878 0.9148 0.0
H903 H 0.90952 0.75988 0.91182 0.0
H904 H 0.88819 0.74845 0.90852 0.0
H905 H 0.90128 0.74878 0.8931 0.0
H906 H 0.93836 0.72044 0.81009 0.0
H907 H 0.91145 0.70697 0.80475 0.0
H908 H 0.92483 0.75665 0.80617 0.0
H909 H 0.88175 0.69324 0.83276 0.0
H910 H 0.88678 0.68673 0.81422 0.0
H911 H 0.87096 0.69154 0.81446 0.0
H912 H 0.9088 0.76595 0.8181 0.0
H913 H 0.89681 0.75394 0.83458 0.0
H914 H 0.88781 0.75197 0.81504 0.0
H915 H 0.7989 0.72904 0.78778 0.0
H916 H 0.77732 0.72766 0.80579 0.0
H917 H 0.79152 0.72472 0.81713 0.0
H918 H 0.77241 0.70773 0.81175 0.0
H919 H 0.80188 0.68479 0.79874 0.0
H920 H 0.81828 0.73495 0.80586 0.0
H921 H 0.82623 0.68162 0.82757 0.0
H922 H 0.83765 0.68606 0.80946 0.0
H923 H 0.81632 0.67279 0.80846 0.0
H924 H 0.84257 0.75261 0.81866 0.0
H925 H 0.85751 0.74659 0.81829 0.0
H926 H 0.8456 0.74312 0.83592 0.0
H927 H 0.85852 0.71252 0.91879 0.0
H928 H 0.89838 0.72156 0.87934 0.0
H929 H 0.89987 0.72367 0.8504 0.0
H930 H 0.86383 0.71951 0.80768 0.0
H931 H 0.82368 0.7093 0.84722 0.0
H932 H 0.82237 0.70764 0.87613 0.0
H933 H 0.96594 0.75225 0.79822 0.0
H934 H 0.9677 0.73677 0.80859 0.0
H935 H 0.95898 0.74724 0.81865 0.0
C936 C 0.86038 0.6174 0.38044 0.0
C937 C 0.8704 0.62987 0.39357 0.0
C938 C 0.85852 0.6238 0.4201 0.0
C939 C 0.86133 0.63884 0.42564 0.0
C940 C 0.85117 0.64009 0.4369 0.0
C941 C 0.83782 0.62599 0.44256 0.0
C942 C 0.83533 0.61079 0.43741 0.0
C943 C 0.84592 0.60991 0.42642 0.0
C944 C 0.85446 0.6565 0.44239 0.0
C945 C 0.82118 0.59549 0.44307 0.0
C946 C 0.75639 0.66079 0.39701 0.0
C947 C 0.76895 0.65836 0.40442 0.0
C948 C 0.77299 0.64329 0.42552 0.0
C949 C 0.76802 0.62735 0.42913 0.0
C950 C 0.77766 0.6234 0.43854 0.0
C951 C 0.79248 0.63576 0.44474 0.0
C952 C 0.79724 0.65195 0.44173 0.0
C953 C 0.78744 0.65555 0.43219 0.0
C954 C 0.77215 0.60603 0.4417 0.0
C955 C 0.81277 0.66544 0.44851 0.0
C956 C 0.76495 0.62788 0.54968 0.0
C957 C 0.76199 0.61315 0.54283 0.0
C958 C 0.77379 0.61205 0.534 0.0
C959 C 0.78882 0.62592 0.53194 0.0
C960 C 0.79194 0.64069 0.53902 0.0
C961 C 0.77995 0.64145 0.54782 0.0
C962 C 0.77013 0.59608 0.52669 0.0
C963 C 0.80786 0.65571 0.53707 0.0
C964 C 0.88782 0.60095 0.54172 0.0
C965 C 0.88337 0.61303 0.54856 0.0
C966 C 0.85669 0.60948 0.54467 0.0
C967 C 0.84121 0.59733 0.54076 0.0
C968 C 0.83026 0.60081 0.53329 0.0
C969 C 0.83487 0.61691 0.52999 0.0
C970 C 0.85024 0.62936 0.53476 0.0
C971 C 0.86103 0.62552 0.54205 0.0
C972 C 0.81389 0.58725 0.52859 0.0
C973 C 0.85534 0.6467 0.53191 0.0
C974 C 0.82587 0.62719 0.45284 0.0
C975 C 0.81477 0.6302 0.4451 0.0
C976 C 0.80331 0.63181 0.45385 0.0
C977 C 0.8027 0.63019 0.47086 0.0
C978 C 0.7913 0.63169 0.48004 0.0
C979 C 0.79077 0.63005 0.49677 0.0
C980 C 0.80166 0.62688 0.50498 0.0
C981 C 0.80112 0.62506 0.52197 0.0
C982 C 0.81218 0.62201 0.52977 0.0
C983 C 0.82379 0.62064 0.52103 0.0
C984 C 0.82449 0.62237 0.50401 0.0
C985 C 0.836 0.62104 0.49482 0.0
C986 C 0.83657 0.62274 0.47809 0.0
C987 C 0.82553 0.62563 0.46986 0.0
C988 C 0.81384 0.62707 0.47888 0.0
C989 C 0.81335 0.62547 0.49597 0.0
C990 C 0.72803 0.61584 0.54493 0.0
C991 C 0.73795 0.61823 0.56036 0.0
O992 O 0.86762 0.62246 0.40842 0.0
O993 O 0.86704 0.60527 0.55099 0.0
O994 O 0.75379 0.62966 0.55799 0.0
O995 O 0.76349 0.6464 0.41584 0.0
H996 H 0.86645 0.63896 0.39364 0.0
H997 H 0.8475 0.61218 0.38312 0.0
H998 H 0.86317 0.60752 0.37997 0.0
H999 H 0.86264 0.62308 0.36841 0.0
H1000 H 0.8714 0.64958 0.42103 0.0
H1001 H 0.84399 0.59836 0.42216 0.0
H1002 H 0.84557 0.65904 0.43665 0.0
H1003 H 0.86658 0.66606 0.43902 0.0
H1004 H 0.85323 0.65694 0.45573 0.0
H1005 H 0.82047 0.58466 0.43726 0.0
H1006 H 0.80997 0.59558 0.44034 0.0
H1007 H 0.82198 0.59465 0.45639 0.0
H1008 H 0.78019 0.66957 0.40769 0.0
H1009 H 0.75535 0.65282 0.3712 0.0
H1010 H 0.75969 0.67351 0.40035 0.0
H1011 H 0.74583 0.65516 0.40534 0.0
H1012 H 0.75673 0.61798 0.42418 0.0
H1013 H 0.79106 0.66797 0.43022 0.0
H1014 H 0.78091 0.60287 0.43675 0.0
H1015 H 0.76024 0.59782 0.43617 0.0
H1016 H 0.77156 0.60408 0.45496 0.0
H1017 H 0.81442 0.67743 0.44576 0.0
H1018 H 0.82289 0.66455 0.44337 0.0
H1019 H 0.81323 0.66442 0.46186 0.0
H1020 H 0.73707 0.60665 0.56361 0.0
H1021 H 0.75051 0.60246 0.54416 0.0
H1022 H 0.78218 0.65275 0.55318 0.0
H1023 H 0.77083 0.59689 0.51329 0.0
H1024 H 0.75809 0.58625 0.52992 0.0
H1025 H 0.77916 0.59297 0.53087 0.0
H1026 H 0.80844 0.66627 0.54338 0.0
H1027 H 0.81018 0.65834 0.52401 0.0
H1028 H 0.81751 0.65384 0.54196 0.0
H1029 H 0.88693 0.62245 0.53928 0.0
H1030 H 0.90088 0.60687 0.53972 0.0
H1031 H 0.88156 0.596 0.52992 0.0
H1032 H 0.8843 0.59085 0.55012 0.0
H1033 H 0.8379 0.58502 0.54312 0.0
H1034 H 0.87278 0.63504 0.54573 0.0
H1035 H 0.81179 0.58747 0.51539 0.0
H1036 H 0.80468 0.58882 0.53501 0.0
H1037 H 0.81231 0.57534 0.53157 0.0
H1038 H 0.86717 0.65503 0.53753 0.0
H1039 H 0.84636 0.64952 0.5369 0.0
H1040 H 0.85598 0.64881 0.51869 0.0
H1041 H 0.81517 0.63149 0.43204 0.0
H1042 H 0.78262 0.63411 0.47437 0.0
H1043 H 0.78171 0.63129 0.50319 0.0
H1044 H 0.81164 0.62055 0.5428 0.0
H1045 H 0.84474 0.61869 0.50046 0.0
H1046 H 0.84575 0.62169 0.47167 0.0
H1047 H 0.7153 0.60688 0.54695 0.0
H1048 H 0.7323 0.61136 0.53477 0.0
H1049 H 0.72892 0.62733 0.54133 0.0
C1050 C 0.38006 0.24443 0.38298 0.0
C1051 C 0.36834 0.24248 0.39634 0.0
C1052 C 0.37524 0.23691 0.42279 0.0
C1053 C 0.36036 0.22482 0.42803 0.0
C1054 C 0.3593 0.21364 0.43938 0.0
C1055 C 0.37343 0.21453 0.44549 0.0
C1056 C 0.38847 0.22709 0.44064 0.0
C1057 C 0.38917 0.23831 0.42952 0.0
C1058 C 0.34306 0.20067 0.44456 0.0
C1059 C 0.40379 0.22838 0.4468 0.0
C1060 C 0.35693 0.09778 0.40769 0.0
C1061 C 0.36481 0.11418 0.41489 0.0
C1062 C 0.35813 0.13183 0.43053 0.0
C1063 C 0.37401 0.14357 0.43419 0.0
C1064 C 0.37748 0.1575 0.44316 0.0
C1065 C 0.36485 0.15968 0.44867 0.0
C1066 C 0.34887 0.14775 0.44525 0.0
C1067 C 0.34574 0.13399 0.4362 0.0
C1068 C 0.39465 0.16997 0.44667 0.0
C1069 C 0.3351 0.14961 0.45104 0.0
C1070 C 0.37266 0.1432 0.55463 0.0
C1071 C 0.38754 0.15559 0.54954 0.0
C1072 C 0.38858 0.16818 0.54029 0.0
C1073 C 0.37453 0.1685 0.53619 0.0
C1074 C 0.3596 0.15626 0.5416 0.0
C1075 C 0.35888 0.14375 0.55071 0.0
C1076 C 0.4047 0.18108 0.53472 0.0
C1077 C 0.34439 0.15632 0.53758 0.0
C1078 C 0.39818 0.29193 0.54492 0.0
C1079 C 0.38611 0.27588 0.55211 0.0
C1080 C 0.38973 0.25264 0.54841 0.0
C1081 C 0.402 0.24945 0.54497 0.0
C1082 C 0.39881 0.23504 0.53725 0.0
C1083 C 0.38286 0.22341 0.53322 0.0
C1084 C 0.37029 0.22623 0.53741 0.0
C1085 C 0.37385 0.24085 0.54496 0.0
C1086 C 0.41249 0.23235 0.53318 0.0
C1087 C 0.35312 0.21386 0.53378 0.0
C1088 C 0.37243 0.2017 0.45605 0.0
C1089 C 0.36957 0.18737 0.44854 0.0
C1090 C 0.36831 0.17464 0.45757 0.0
C1091 C 0.37008 0.17622 0.47462 0.0
C1092 C 0.369 0.16371 0.48407 0.0
C1093 C 0.37077 0.16538 0.50084 0.0
C1094 C 0.37361 0.17961 0.50883 0.0
C1095 C 0.3754 0.1814 0.52588 0.0
C1096 C 0.37824 0.19571 0.53344 0.0
C1097 C 0.3794 0.2084 0.52441 0.0
C1098 C 0.3776 0.20682 0.50734 0.0
C1099 C 0.37867 0.21934 0.49787 0.0
C1100 C 0.37685 0.21765 0.48109 0.0
C1101 C 0.37411 0.20348 0.4731 0.0
C1102 C 0.37298 0.1907 0.48241 0.0
C1103 C 0.37471 0.19237 0.49954 0.0
C1104 C 0.38782 0.12043 0.55372 0.0
C1105 C 0.38273 0.12716 0.56801 0.0
O1106 O 0.37644 0.2472 0.4111 0.0
O1107 O 0.39363 0.26711 0.5552 0.0
O1108 O 0.37094 0.13045 0.56314 0.0
O1109 O 0.35423 0.11836 0.42157 0.0
H1110 H 0.35914 0.22951 0.39628 0.0
H1111 H 0.38513 0.23652 0.38534 0.0
H1112 H 0.39005 0.257 0.38259 0.0
H1113 H 0.37384 0.24097 0.371 0.0
H1114 H 0.34959 0.2241 0.42316 0.0
H1115 H 0.4006 0.24783 0.42551 0.0
H1116 H 0.34066 0.18899 0.43927 0.0
H1117 H 0.33341 0.20294 0.44054 0.0
H1118 H 0.34273 0.19965 0.45795 0.0
H1119 H 0.41449 0.23836 0.44121 0.0
H1120 H 0.40374 0.21699 0.44424 0.0
H1121 H 0.40476 0.23035 0.46014 0.0
H1122 H 0.37431 0.12368 0.40746 0.0
H1123 H 0.36482 0.08454 0.42388 0.0
H1124 H 0.35983 0.09953 0.39439 0.0
H1125 H 0.3439 0.09388 0.40577 0.0
H1126 H 0.38374 0.14201 0.43001 0.0
H1127 H 0.33354 0.12485 0.4334 0.0
H1128 H 0.39724 0.18158 0.44147 0.0
H1129 H 0.40313 0.1665 0.4416 0.0
H1130 H 0.39669 0.17187 0.45996 0.0
H1131 H 0.32335 0.13895 0.44796 0.0
H1132 H 0.33566 0.16029 0.44546 0.0
H1133 H 0.33601 0.15162 0.46438 0.0
H1134 H 0.39326 0.1383 0.57283 0.0
H1135 H 0.39838 0.15548 0.55255 0.0
H1136 H 0.34747 0.1342 0.55474 0.0
H1137 H 0.40468 0.1817 0.5213 0.0
H1138 H 0.41449 0.17896 0.5386 0.0
H1139 H 0.40717 0.1929 0.53967 0.0
H1140 H 0.33382 0.14637 0.54338 0.0
H1141 H 0.34239 0.15519 0.52425 0.0
H1142 H 0.34546 0.16789 0.54158 0.0
H1143 H 0.37645 0.26969 0.54281 0.0
H1144 H 0.39246 0.29923 0.54243 0.0
H1145 H 0.40267 0.2898 0.53333 0.0
H1146 H 0.40851 0.29877 0.55333 0.0
H1147 H 0.41418 0.25852 0.54797 0.0
H1148 H 0.36424 0.24298 0.54827 0.0
H1149 H 0.4122 0.22957 0.52003 0.0
H1150 H 0.41123 0.22187 0.53986 0.0
H1151 H 0.42427 0.24292 0.53636 0.0
H1152 H 0.34467 0.21737 0.53886 0.0
H1153 H 0.3504 0.20214 0.53881 0.0
H1154 H 0.35116 0.21216 0.52046 0.0
H1155 H 0.36822 0.18606 0.43546 0.0
H1156 H 0.3668 0.15248 0.47859 0.0
H1157 H 0.36987 0.15536 0.50747 0.0
H1158 H 0.37966 0.19701 0.54651 0.0
H1159 H 0.38087 0.23057 0.50333 0.0
H1160 H 0.37769 0.22764 0.47444 0.0
H1161 H 0.37743 0.10943 0.54853 0.0
H1162 H 0.39702 0.11748 0.55776 0.0
H1163 H 0.39302 0.12935 0.544 0.0
C1164 C 0.86626 0.24669 0.38697 0.0
C1165 C 0.87779 0.25209 0.40157 0.0
C1166 C 0.86231 0.23003 0.4203 0.0
C1167 C 0.85091 0.23446 0.42439 0.0
C1168 C 0.83767 0.22446 0.43379 0.0
C1169 C 0.83579 0.20975 0.43922 0.0
C1170 C 0.84742 0.20544 0.43545 0.0
C1171 C 0.86057 0.2157 0.42611 0.0
C1172 C 0.82558 0.22949 0.4378 0.0
C1173 C 0.84581 0.18987 0.44108 0.0
C1174 C 0.7417 0.14167 0.37374 0.0
C1175 C 0.74762 0.13466 0.38677 0.0
C1176 C 0.75567 0.14684 0.41365 0.0
C1177 C 0.76767 0.14317 0.41717 0.0
C1178 C 0.77979 0.15238 0.42857 0.0
C1179 C 0.78 0.16567 0.43643 0.0
C1180 C 0.76759 0.16907 0.43325 0.0
C1181 C 0.75538 0.15936 0.42211 0.0
C1182 C 0.79258 0.14814 0.43192 0.0
C1183 C 0.7675 0.18327 0.44116 0.0
C1184 C 0.74811 0.14488 0.53978 0.0
C1185 C 0.75921 0.13996 0.53612 0.0
C1186 C 0.77359 0.15036 0.52848 0.0
C1187 C 0.7769 0.16596 0.52449 0.0
C1188 C 0.76601 0.17113 0.52876 0.0
C1189 C 0.75181 0.16053 0.5365 0.0
C1190 C 0.78517 0.14466 0.52453 0.0
C1191 C 0.76927 0.18775 0.5249 0.0
C1192 C 0.88648 0.26988 0.54148 0.0
C1193 C 0.87865 0.26004 0.55655 0.0
C1194 C 0.85969 0.23331 0.54501 0.0
C1195 C 0.8571 0.21782 0.54229 0.0
C1196 C 0.84378 0.20635 0.53334 0.0
C1197 C 0.83273 0.21049 0.52705 0.0
C1198 C 0.83503 0.22602 0.53005 0.0
C1199 C 0.84852 0.2373 0.53894 0.0
C1200 C 0.84165 0.18989 0.53037 0.0
C1201 C 0.82335 0.23075 0.52367 0.0
C1202 C 0.82134 0.19859 0.4483 0.0
C1203 C 0.80782 0.18773 0.43934 0.0
C1204 C 0.79381 0.17668 0.44696 0.0
C1205 C 0.79321 0.17642 0.46408 0.0
C1206 C 0.77941 0.16537 0.47218 0.0
C1207 C 0.77882 0.16548 0.48903 0.0
C1208 C 0.7921 0.17648 0.49843 0.0
C1209 C 0.79158 0.17679 0.51556 0.0
C1210 C 0.80502 0.18787 0.52451 0.0
C1211 C 0.81904 0.19878 0.51683 0.0
C1212 C 0.81979 0.19867 0.49973 0.0
C1213 C 0.83372 0.20948 0.49162 0.0
C1214 C 0.83427 0.20947 0.47479 0.0
C1215 C 0.82093 0.19862 0.46541 0.0
C1216 C 0.8068 0.18751 0.47332 0.0
C1217 C 0.80624 0.18752 0.4905 0.0
C1218 C 0.70799 0.11385 0.53891 0.0
C1219 C 0.7249 0.11845 0.54437 0.0
O1220 O 0.87501 0.239 0.41072 0.0
O1221 O 0.87313 0.24392 0.55338 0.0
O1222 O 0.7338 0.13495 0.54654 0.0
O1223 O 0.74445 0.13872 0.40194 0.0
H1224 H 0.87619 0.26079 0.40921 0.0
H1225 H 0.85372 0.24109 0.391 0.0
H1226 H 0.86755 0.23781 0.37934 0.0
H1227 H 0.86871 0.25715 0.37949 0.0
H1228 H 0.85215 0.24562 0.42023 0.0
H1229 H 0.86945 0.21242 0.42301 0.0
H1230 H 0.81385 0.22076 0.43226 0.0
H1231 H 0.82912 0.24163 0.43335 0.0
H1232 H 0.824 0.2294 0.45111 0.0
H1233 H 0.8559 0.18827 0.43716 0.0
H1234 H 0.8345 0.17966 0.43623 0.0
H1235 H 0.84522 0.18947 0.4545 0.0
H1236 H 0.76075 0.14029 0.38502 0.0
H1237 H 0.74379 0.13823 0.36148 0.0
H1238 H 0.74833 0.15497 0.37488 0.0
H1239 H 0.72879 0.13744 0.37505 0.0
H1240 H 0.76761 0.13315 0.41092 0.0
H1241 H 0.74595 0.16197 0.41939 0.0
H1242 H 0.79471 0.14832 0.44517 0.0
H1243 H 0.80391 0.15721 0.42643 0.0
H1244 H 0.7894 0.13615 0.42682 0.0
H1245 H 0.75779 0.18507 0.43631 0.0
H1246 H 0.77911 0.19435 0.43931 0.0
H1247 H 0.76591 0.18147 0.45441 0.0
H1248 H 0.72983 0.11432 0.53444 0.0
H1249 H 0.75673 0.12807 0.53927 0.0
H1250 H 0.74329 0.16429 0.53964 0.0
H1251 H 0.78641 0.14433 0.51119 0.0
H1252 H 0.78128 0.13253 0.52923 0.0
H1253 H 0.79714 0.15321 0.52973 0.0
H1254 H 0.75942 0.18981 0.52869 0.0
H1255 H 0.77102 0.1897 0.51167 0.0
H1256 H 0.78046 0.1968 0.53112 0.0
H1257 H 0.86855 0.26179 0.5602 0.0
H1258 H 0.89113 0.28283 0.54413 0.0
H1259 H 0.87767 0.26616 0.53136 0.0
H1260 H 0.89648 0.26815 0.53749 0.0
H1261 H 0.86572 0.21481 0.54705 0.0
H1262 H 0.85023 0.24919 0.54092 0.0
H1263 H 0.84124 0.18744 0.51714 0.0
H1264 H 0.83011 0.18069 0.5354 0.0
H1265 H 0.85142 0.18859 0.53595 0.0
H1266 H 0.82621 0.2429 0.52799 0.0
H1267 H 0.81108 0.22195 0.52745 0.0
H1268 H 0.82342 0.23058 0.51022 0.0
H1269 H 0.80821 0.18786 0.42621 0.0
H1270 H 0.76886 0.15659 0.46558 0.0
H1271 H 0.76782 0.1568 0.49458 0.0
H1272 H 0.8045 0.18812 0.53763 0.0
H1273 H 0.84437 0.21812 0.4982 0.0
H1274 H 0.84529 0.21812 0.46922 0.0
H1275 H 0.70226 0.11795 0.54796 0.0
H1276 H 0.70057 0.10064 0.53717 0.0
H1277 H 0.70841 0.11955 0.52719 0.0
C1278 C 0.02511 0.44195 0.2405 0.0
C1279 C 0.02063 0.4471 0.25639 0.0
C1280 C 0.0025 0.45637 0.24679 0.0
C1281 C 0.98651 0.45228 0.24523 0.0
C1282 C 0.98208 0.4621 0.23691 0.0
C1283 C 0.994 0.47644 0.23005 0.0
C1284 C 0.01023 0.4808 0.23172 0.0
C1285 C 0.01433 0.47073 0.24004 0.0
C1286 C 0.96465 0.45712 0.23535 0.0
C1287 C 0.02324 0.49608 0.22462 0.0
C1288 C 0.97985 0.57502 0.27805 0.0
C1289 C 0.97409 0.56043 0.26772 0.0
C1290 C 0.98517 0.54771 0.25017 0.0
C1291 C 0.99873 0.55004 0.24199 0.0
C1292 C 0.99868 0.53758 0.23291 0.0
C1293 C 0.98465 0.5224 0.23199 0.0
C1294 C 0.97086 0.51989 0.24031 0.0
C1295 C 0.97125 0.53257 0.24935 0.0
C1296 C 0.01362 0.54066 0.22425 0.0
C1297 C 0.95572 0.50383 0.23953 0.0
C1298 C 0.95875 0.53438 0.13242 0.0
C1299 C 0.9749 0.53902 0.13464 0.0
C1300 C 0.97932 0.52842 0.14124 0.0
C1301 C 0.96733 0.51293 0.14575 0.0
C1302 C 0.95108 0.50797 0.14273 0.0
C1303 C 0.94702 0.51875 0.13591 0.0
C1304 C 0.99678 0.5339 0.14375 0.0
C1305 C 0.93802 0.49148 0.14719 0.0
C1306 C 0.00131 0.42812 0.13412 0.0
C1307 C 0.9859 0.42186 0.12394 0.0
C1308 C 0.98316 0.44559 0.12528 0.0
C1309 C 0.99452 0.46184 0.12452 0.0
C1310 C 0.99283 0.47334 0.13357 0.0
C1311 C 0.97909 0.46845 0.14311 0.0
C1312 C 0.96711 0.45205 0.14317 0.0
C1313 C 0.96939 0.44075 0.13441 0.0
C1314 C 0.00586 0.49068 0.13315 0.0
C1315 C 0.95196 0.44645 0.15257 0.0
C1316 C 0.9895 0.48689 0.22109 0.0
C1317 C 0.98847 0.49889 0.22983 0.0
C1318 C 0.98442 0.50923 0.22216 0.0
C1319 C 0.98097 0.50741 0.20534 0.0
C1320 C 0.97645 0.51734 0.19733 0.0
C1321 C 0.97328 0.5156 0.18075 0.0
C1322 C 0.97465 0.50397 0.17148 0.0
C1323 C 0.97173 0.50232 0.15455 0.0
C1324 C 0.97309 0.49056 0.14572 0.0
C1325 C 0.97749 0.48042 0.15331 0.0
C1326 C 0.98059 0.48198 0.17022 0.0
C1327 C 0.98527 0.47217 0.17825 0.0
C1328 C 0.98804 0.47363 0.19491 0.0
C1329 C 0.98655 0.48519 0.20417 0.0
C1330 C 0.98216 0.49542 0.1963 0.0
C1331 C 0.97909 0.49376 0.17933 0.0
C1332 C 0.94847 0.56234 0.1422 0.0
C1333 C 0.96061 0.56057 0.13188 0.0
O1334 O 0.00587 0.4461 0.25475 0.0
O1335 O 0.98573 0.43482 0.11702 0.0
O1336 O 0.95413 0.54467 0.1269 0.0
O1337 O 0.98608 0.56035 0.25867 0.0
H1338 H 0.02986 0.45965 0.25959 0.0
H1339 H 0.02604 0.44996 0.23055 0.0
H1340 H 0.01594 0.42948 0.23699 0.0
H1341 H 0.03685 0.44258 0.24188 0.0
H1342 H 0.97745 0.44123 0.25046 0.0
H1343 H 0.02679 0.47421 0.2411 0.0
H1344 H 0.96261 0.46656 0.2408 0.0
H1345 H 0.95681 0.4456 0.24135 0.0
H1346 H 0.96118 0.45588 0.22234 0.0
H1347 H 0.03533 0.49787 0.22707 0.0
H1348 H 0.02265 0.5065 0.22973 0.0
H1349 H 0.0214 0.49584 0.21131 0.0
H1350 H 0.96277 0.55658 0.26083 0.0
H1351 H 0.97722 0.56593 0.30327 0.0
H1352 H 0.97328 0.58111 0.27336 0.0
H1353 H 0.99179 0.58436 0.27326 0.0
H1354 H 0.0094 0.56173 0.24273 0.0
H1355 H 0.96067 0.5306 0.25567 0.0
H1356 H 0.0112 0.53886 0.211 0.0
H1357 H 0.01726 0.53195 0.22817 0.0
H1358 H 0.0237 0.553 0.22659 0.0
H1359 H 0.94594 0.50383 0.24652 0.0
H1360 H 0.95806 0.49449 0.24437 0.0
H1361 H 0.95172 0.50049 0.22671 0.0
H1362 H 0.97136 0.56444 0.13975 0.0
H1363 H 0.98403 0.55091 0.13124 0.0
H1364 H 0.93461 0.5152 0.13383 0.0
H1365 H 0.99961 0.53521 0.15692 0.0
H1366 H 0.00463 0.54556 0.13798 0.0
H1367 H 0.9995 0.52478 0.13872 0.0
H1368 H 0.92595 0.48949 0.14415 0.0
H1369 H 0.93868 0.48976 0.16038 0.0
H1370 H 0.93971 0.48225 0.1407 0.0
H1371 H 0.97547 0.41542 0.13196 0.0
H1372 H 0.00148 0.41832 0.14084 0.0
H1373 H 0.0022 0.43713 0.14326 0.0
H1374 H 0.01192 0.43387 0.12624 0.0
H1375 H 0.00501 0.4654 0.11724 0.0
H1376 H 0.96037 0.42818 0.13454 0.0
H1377 H 0.00962 0.4956 0.14566 0.0
H1378 H 0.00124 0.49781 0.12714 0.0
H1379 H 0.01647 0.49226 0.12647 0.0
H1380 H 0.94277 0.43396 0.14916 0.0
H1381 H 0.94696 0.45446 0.15053 0.0
H1382 H 0.95465 0.44689 0.16571 0.0
H1383 H 0.99106 0.50033 0.24275 0.0
H1384 H 0.97528 0.52656 0.2038 0.0
H1385 H 0.9698 0.52357 0.17529 0.0
H1386 H 0.9708 0.48936 0.13275 0.0
H1387 H 0.98679 0.46318 0.17175 0.0
H1388 H 0.99148 0.46565 0.20043 0.0
H1389 H 0.95337 0.57503 0.1462 0.0
H1390 H 0.94576 0.55489 0.15314 0.0
H1391 H 0.93717 0.55833 0.13529 0.0
C1392 C 0.44223 0.39495 0.25704 0.0
C1393 C 0.4456 0.40756 0.27038 0.0
C1394 C 0.46251 0.43277 0.25605 0.0
C1395 C 0.46237 0.44561 0.24859 0.0
C1396 C 0.4757 0.45711 0.24029 0.0
C1397 C 0.48957 0.45574 0.23952 0.0
C1398 C 0.48991 0.44288 0.2472 0.0
C1399 C 0.47638 0.43151 0.25542 0.0
C1400 C 0.47491 0.47068 0.23225 0.0
C1401 C 0.50455 0.44113 0.24659 0.0
C1402 C 0.5935 0.56685 0.28504 0.0
C1403 C 0.58449 0.55057 0.27764 0.0
C1404 C 0.56062 0.53448 0.26073 0.0
C1405 C 0.56391 0.52207 0.25733 0.0
C1406 C 0.55344 0.50878 0.2476 0.0
C1407 C 0.5395 0.50795 0.24104 0.0
C1408 C 0.53629 0.52054 0.24425 0.0
C1409 C 0.54689 0.53362 0.2541 0.0
C1410 C 0.55718 0.49553 0.24442 0.0
C1411 C 0.5216 0.52011 0.23736 0.0
C1412 C 0.57121 0.52747 0.13724 0.0
C1413 C 0.57307 0.51469 0.14265 0.0
C1414 C 0.5608 0.50195 0.15102 0.0
C1415 C 0.5464 0.50193 0.15396 0.0
C1416 C 0.54439 0.5146 0.14826 0.0
C1417 C 0.55686 0.52721 0.14001 0.0
C1418 C 0.56328 0.48859 0.15692 0.0
C1419 C 0.52913 0.51489 0.15107 0.0
C1420 C 0.44422 0.3806 0.14131 0.0
C1421 C 0.44855 0.39674 0.13397 0.0
C1422 C 0.47563 0.41929 0.13749 0.0
C1423 C 0.49072 0.42172 0.14153 0.0
C1424 C 0.50209 0.43585 0.14954 0.0
C1425 C 0.49834 0.448 0.1532 0.0
C1426 C 0.48341 0.44601 0.14823 0.0
C1427 C 0.47217 0.43163 0.14046 0.0
C1428 C 0.51796 0.43765 0.15443 0.0
C1429 C 0.47925 0.45896 0.15139 0.0
C1430 C 0.50364 0.46776 0.23056 0.0
C1431 C 0.51508 0.48139 0.23908 0.0
C1432 C 0.52803 0.49373 0.23118 0.0
C1433 C 0.52963 0.49256 0.21427 0.0
C1434 C 0.54226 0.50493 0.20586 0.0
C1435 C 0.5436 0.50374 0.18918 0.0
C1436 C 0.53238 0.49011 0.18027 0.0
C1437 C 0.53355 0.48885 0.16329 0.0
C1438 C 0.52228 0.47508 0.15483 0.0
C1439 C 0.50975 0.46242 0.16286 0.0
C1440 C 0.50828 0.46353 0.17981 0.0
C1441 C 0.49575 0.45108 0.18828 0.0
C1442 C 0.4942 0.45243 0.20488 0.0
C1443 C 0.50526 0.46617 0.21373 0.0
C1444 C 0.51822 0.4787 0.20553 0.0
C1445 C 0.51964 0.47744 0.18853 0.0
C1446 C 0.60899 0.54968 0.14087 0.0
C1447 C 0.5981 0.54341 0.12579 0.0
O1448 O 0.44898 0.42198 0.26358 0.0
O1449 O 0.46473 0.40497 0.13072 0.0
O1450 O 0.58286 0.54031 0.12948 0.0
O1451 O 0.57023 0.5474 0.27035 0.0
H1452 H 0.45586 0.40932 0.27806 0.0
H1453 H 0.45282 0.39879 0.2493 0.0
H1454 H 0.43204 0.39312 0.24923 0.0
H1455 H 0.43937 0.38334 0.26247 0.0
H1456 H 0.45165 0.44651 0.24917 0.0
H1457 H 0.47675 0.42171 0.26122 0.0
H1458 H 0.48461 0.48234 0.23712 0.0
H1459 H 0.46329 0.47015 0.23414 0.0
H1460 H 0.47678 0.47029 0.21904 0.0
H1461 H 0.50296 0.43046 0.25316 0.0
H1462 H 0.51492 0.452 0.252 0.0
H1463 H 0.50743 0.4401 0.23379 0.0
H1464 H 0.58364 0.54067 0.28516 0.0
H1465 H 0.61519 0.57925 0.26969 0.0
H1466 H 0.5941 0.56483 0.2984 0.0
H1467 H 0.5849 0.5715 0.2865 0.0
H1468 H 0.57456 0.52262 0.2623 0.0
H1469 H 0.54447 0.54326 0.25674 0.0
H1470 H 0.54717 0.48396 0.24852 0.0
H1471 H 0.56833 0.49778 0.25068 0.0
H1472 H 0.55845 0.4943 0.2312 0.0
H1473 H 0.52139 0.53135 0.24004 0.0
H1474 H 0.51079 0.50993 0.24254 0.0
H1475 H 0.52097 0.51813 0.22403 0.0
H1476 H 0.59761 0.53226 0.12115 0.0
H1477 H 0.58404 0.51459 0.14055 0.0
H1478 H 0.5555 0.53706 0.13575 0.0
H1479 H 0.56192 0.48768 0.17027 0.0
H1480 H 0.57524 0.49042 0.15384 0.0
H1481 H 0.55403 0.477 0.15146 0.0
H1482 H 0.52919 0.52526 0.14529 0.0
H1483 H 0.52736 0.5155 0.16428 0.0
H1484 H 0.51881 0.50365 0.1462 0.0
H1485 H 0.44553 0.40331 0.14322 0.0
H1486 H 0.43126 0.37374 0.14394 0.0
H1487 H 0.45098 0.38261 0.15285 0.0
H1488 H 0.44723 0.37338 0.13294 0.0
H1489 H 0.49335 0.41222 0.13888 0.0
H1490 H 0.46072 0.43005 0.1367 0.0
H1491 H 0.51992 0.43998 0.1677 0.0
H1492 H 0.5277 0.44811 0.14831 0.0
H1493 H 0.51879 0.42683 0.15126 0.0
H1494 H 0.46797 0.45636 0.14518 0.0
H1495 H 0.48903 0.47069 0.14728 0.0
H1496 H 0.47793 0.46012 0.16461 0.0
H1497 H 0.51374 0.48251 0.25199 0.0
H1498 H 0.55122 0.51572 0.21207 0.0
H1499 H 0.55356 0.51366 0.18336 0.0
H1500 H 0.52327 0.47419 0.14181 0.0
H1501 H 0.4869 0.44019 0.18214 0.0
H1502 H 0.48423 0.44253 0.21071 0.0
H1503 H 0.62126 0.55244 0.1378 0.0
H1504 H 0.60453 0.54055 0.15045 0.0
H1505 H 0.60947 0.56071 0.14584 0.0
C1506 C 0.45974 0.02191 0.29869 0.0
C1507 C 0.44734 0.01931 0.28553 0.0
C1508 C 0.45781 0.01056 0.26277 0.0
C1509 C 0.47114 0.02562 0.25969 0.0
C1510 C 0.48299 0.02703 0.249 0.0
C1511 C 0.48145 0.01315 0.24116 0.0
C1512 C 0.46776 0.99808 0.24373 0.0
C1513 C 0.45608 0.99701 0.25446 0.0
C1514 C 0.49738 0.04331 0.24637 0.0
C1515 C 0.46568 0.98306 0.23544 0.0
C1516 C 0.57081 0.98316 0.27897 0.0
C1517 C 0.5589 0.98372 0.26813 0.0
C1518 C 0.55024 0.00192 0.25822 0.0
C1519 C 0.53895 0.99071 0.2471 0.0
C1520 C 0.52899 0.99443 0.238 0.0
C1521 C 0.5306 0.00982 0.2397 0.0
C1522 C 0.54227 0.02131 0.25048 0.0
C1523 C 0.55189 0.01716 0.25967 0.0
C1524 C 0.51653 0.98176 0.22679 0.0
C1525 C 0.54445 0.03789 0.25243 0.0
C1526 C 0.56643 0.0322 0.13879 0.0
C1527 C 0.55349 0.01676 0.14117 0.0
C1528 C 0.53964 0.01462 0.14879 0.0
C1529 C 0.5388 0.02821 0.15419 0.0
C1530 C 0.55157 0.04378 0.15114 0.0
C1531 C 0.56517 0.04555 0.14328 0.0
C1532 C 0.52601 0.99786 0.15131 0.0
C1533 C 0.55099 0.05852 0.15654 0.0
C1534 C 0.43844 0.04094 0.14469 0.0
C1535 C 0.44536 0.03892 0.12875 0.0
C1536 C 0.46153 0.02706 0.13771 0.0
C1537 C 0.46187 0.01275 0.1385 0.0
C1538 C 0.47421 0.01202 0.14676 0.0
C1539 C 0.48659 0.02605 0.15433 0.0
C1540 C 0.48656 0.04068 0.15328 0.0
C1541 C 0.47401 0.04105 0.14504 0.0
C1542 C 0.4739 0.99622 0.1476 0.0
C1543 C 0.4997 0.05589 0.16108 0.0
C1544 C 0.49471 0.01426 0.23124 0.0
C1545 C 0.50643 0.01232 0.23912 0.0
C1546 C 0.5195 0.01352 0.23077 0.0
C1547 C 0.52118 0.01715 0.21412 0.0
C1548 C 0.53456 0.01922 0.20553 0.0
C1549 C 0.53591 0.02237 0.18905 0.0
C1550 C 0.52383 0.02339 0.18049 0.0
C1551 C 0.52489 0.02615 0.16364 0.0
C1552 C 0.51263 0.027 0.1555 0.0
C1553 C 0.4993 0.02528 0.16376 0.0
C1554 C 0.4981 0.02267 0.18064 0.0
C1555 C 0.48493 0.02104 0.18937 0.0
C1556 C 0.48385 0.01845 0.20597 0.0
C1557 C 0.49579 0.01715 0.21443 0.0
C1558 C 0.50914 0.01869 0.20587 0.0
C1559 C 0.51037 0.02161 0.18899 0.0
C1560 C 0.6009 0.03693 0.14959 0.0
C1561 C 0.58844 0.02686 0.13653 0.0
O1562 O 0.44652 0.00845 0.27377 0.0
O1563 O 0.44891 0.02668 0.12991 0.0
O1564 O 0.58018 0.03456 0.13201 0.0
O1565 O 0.55953 0.99842 0.26784 0.0
H1566 H 0.45064 0.03093 0.27984 0.0
H1567 H 0.47186 0.02725 0.29353 0.0
H1568 H 0.45683 0.01033 0.30423 0.0
H1569 H 0.46002 0.03024 0.30831 0.0
H1570 H 0.47253 0.0363 0.26573 0.0
H1571 H 0.44569 0.98547 0.25676 0.0
H1572 H 0.5083 0.04336 0.25069 0.0
H1573 H 0.49652 0.05305 0.25282 0.0
H1574 H 0.49876 0.04586 0.23323 0.0
H1575 H 0.45397 0.97238 0.23804 0.0
H1576 H 0.4753 0.98076 0.23954 0.0
H1577 H 0.46676 0.98469 0.22214 0.0
H1578 H 0.54659 0.97323 0.26893 0.0
H1579 H 0.56358 0.97411 0.28841 0.0
H1580 H 0.57539 0.99382 0.28761 0.0
H1581 H 0.58689 0.9799 0.26185 0.0
H1582 H 0.53767 0.97895 0.24556 0.0
H1583 H 0.56069 0.02578 0.26816 0.0
H1584 H 0.51951 0.98549 0.21404 0.0
H1585 H 0.50464 0.98041 0.22919 0.0
H1586 H 0.51572 0.96991 0.2281 0.0
H1587 H 0.55523 0.046 0.25981 0.0
H1588 H 0.53384 0.0371 0.25844 0.0
H1589 H 0.5454 0.04322 0.24037 0.0
H1590 H 0.58026 0.01503 0.14186 0.0
H1591 H 0.55415 0.00639 0.13699 0.0
H1592 H 0.57513 0.05741 0.14108 0.0
H1593 H 0.52483 0.99528 0.16445 0.0
H1594 H 0.5278 0.98865 0.1449 0.0
H1595 H 0.51463 0.99681 0.14699 0.0
H1596 H 0.5621 0.06978 0.15368 0.0
H1597 H 0.54908 0.05825 0.16981 0.0
H1598 H 0.54075 0.05862 0.15051 0.0
H1599 H 0.45636 0.05034 0.12595 0.0
H1600 H 0.43534 0.05057 0.14365 0.0
H1601 H 0.44727 0.04433 0.15474 0.0
H1602 H 0.42755 0.02958 0.14782 0.0
H1603 H 0.45226 0.00203 0.13277 0.0
H1604 H 0.47405 0.05228 0.14451 0.0
H1605 H 0.4738 0.99296 0.16046 0.0
H1606 H 0.48486 0.99736 0.14211 0.0
H1607 H 0.46333 0.98636 0.14122 0.0
H1608 H 0.49849 0.0665 0.15837 0.0
H1609 H 0.51149 0.0581 0.15681 0.0
H1610 H 0.49953 0.05453 0.17441 0.0
H1611 H 0.50527 0.00963 0.25192 0.0
H1612 H 0.54415 0.01843 0.21147 0.0
H1613 H 0.54649 0.02385 0.18309 0.0
H1614 H 0.51346 0.02901 0.14256 0.0
H1615 H 0.4753 0.02178 0.18347 0.0
H1616 H 0.47347 0.01733 0.21207 0.0
H1617 H 0.60777 0.03101 0.1532 0.0
H1618 H 0.59488 0.03817 0.16047 0.0
H1619 H 0.60929 0.0491 0.14514 0.0
C1620 C 0.5727 0.97831 0.76869 0.0
C1621 C 0.56951 0.98718 0.7552 0.0
C1622 C 0.55429 0.99787 0.76944 0.0
C1623 C 0.55538 0.01175 0.77629 0.0
C1624 C 0.54255 0.01128 0.78461 0.0
C1625 C 0.52823 0.9965 0.78604 0.0
C1626 C 0.52695 0.98239 0.77904 0.0
C1627 C 0.53998 0.9832 0.77079 0.0
C1628 C 0.54432 0.02653 0.79197 0.0
C1629 C 0.51181 0.96643 0.78035 0.0
C1630 C 0.44734 0.99314 0.72535 0.0
C1631 C 0.43722 0.99298 0.73965 0.0
C1632 C 0.45677 0.00132 0.76217 0.0
C1633 C 0.45627 0.98654 0.76374 0.0
C1634 C 0.46685 0.98502 0.77426 0.0
C1635 C 0.47835 0.99857 0.78323 0.0
C1636 C 0.47885 0.01344 0.78179 0.0
C1637 C 0.46791 0.01454 0.7714 0.0
C1638 C 0.46588 0.96894 0.77561 0.0
C1639 C 0.49107 0.02818 0.79103 0.0
C1640 C 0.44127 0.98328 0.88499 0.0
C1641 C 0.43993 0.96948 0.87736 0.0
C1642 C 0.45308 0.96993 0.86973 0.0
C1643 C 0.46783 0.98447 0.86964 0.0
C1644 C 0.46929 0.99829 0.87752 0.0
C1645 C 0.45598 0.99749 0.88512 0.0
C1646 C 0.45118 0.95493 0.86155 0.0
C1647 C 0.48485 0.01397 0.87767 0.0
C1648 C 0.56677 0.96481 0.87696 0.0
C1649 C 0.56473 0.97571 0.88921 0.0
C1650 C 0.53821 0.97251 0.88688 0.0
C1651 C 0.52331 0.96009 0.88168 0.0
C1652 C 0.51234 0.96335 0.87388 0.0
C1653 C 0.51631 0.97947 0.87165 0.0
C1654 C 0.53097 0.99208 0.87786 0.0
C1655 C 0.54182 0.98846 0.88538 0.0
C1656 C 0.49672 0.94959 0.86763 0.0
C1657 C 0.53532 0.00938 0.87621 0.0
C1658 C 0.51459 0.99579 0.7949 0.0
C1659 C 0.50347 0.99801 0.78614 0.0
C1660 C 0.49019 0.99723 0.79364 0.0
C1661 C 0.48801 0.99443 0.81045 0.0
C1662 C 0.47486 0.9937 0.81842 0.0
C1663 C 0.47282 0.9909 0.83495 0.0
C1664 C 0.4837 0.98846 0.84411 0.0
C1665 C 0.48158 0.98532 0.86087 0.0
C1666 C 0.49249 0.98269 0.86956 0.0
C1667 C 0.50555 0.98307 0.86194 0.0
C1668 C 0.50796 0.98636 0.84523 0.0
C1669 C 0.521 0.98687 0.83719 0.0
C1670 C 0.52328 0.99011 0.82076 0.0
C1671 C 0.51249 0.99273 0.81166 0.0
C1672 C 0.4992 0.99214 0.81947 0.0
C1673 C 0.49699 0.98904 0.8363 0.0
C1674 C 0.40464 0.96991 0.87635 0.0
C1675 C 0.41301 0.97138 0.89263 0.0
O1676 O 0.56734 0.99928 0.76179 0.0
O1677 O 0.5488 0.96874 0.89338 0.0
O1678 O 0.4288 0.98358 0.89222 0.0
O1679 O 0.44695 0.00342 0.75188 0.0
H1680 H 0.55871 0.97859 0.74807 0.0
H1681 H 0.5624 0.97266 0.77694 0.0
H1682 H 0.58346 0.98676 0.77593 0.0
H1683 H 0.57456 0.96869 0.76341 0.0
H1684 H 0.56644 0.02301 0.77518 0.0
H1685 H 0.53886 0.97232 0.76553 0.0
H1686 H 0.53505 0.02885 0.78682 0.0
H1687 H 0.55625 0.03708 0.78979 0.0
H1688 H 0.54244 0.02518 0.80524 0.0
H1689 H 0.51269 0.95653 0.77429 0.0
H1690 H 0.50171 0.96714 0.77479 0.0
H1691 H 0.509 0.96353 0.7933 0.0
H1692 H 0.43035 0.98063 0.74436 0.0
H1693 H 0.43957 0.98493 0.71547 0.0
H1694 H 0.45572 0.98905 0.72918 0.0
H1695 H 0.4544 0.00545 0.72058 0.0
H1696 H 0.44773 0.97611 0.75681 0.0
H1697 H 0.46822 0.02589 0.77016 0.0
H1698 H 0.47663 0.96956 0.77014 0.0
H1699 H 0.45515 0.95918 0.76934 0.0
H1700 H 0.46569 0.96584 0.78854 0.0
H1701 H 0.4904 0.03902 0.78796 0.0
H1702 H 0.50325 0.0304 0.7884 0.0
H1703 H 0.48923 0.02621 0.80424 0.0
H1704 H 0.41247 0.95982 0.89527 0.0
H1705 H 0.4287 0.95834 0.87716 0.0
H1706 H 0.45694 0.00806 0.89108 0.0
H1707 H 0.45305 0.95685 0.84834 0.0
H1708 H 0.4392 0.94436 0.86343 0.0
H1709 H 0.46037 0.95228 0.86626 0.0
H1710 H 0.48403 0.02367 0.88428 0.0
H1711 H 0.48853 0.01776 0.86505 0.0
H1712 H 0.49434 0.01237 0.88348 0.0
H1713 H 0.5688 0.98738 0.88322 0.0
H1714 H 0.57951 0.97012 0.87363 0.0
H1715 H 0.55971 0.96343 0.86578 0.0
H1716 H 0.56255 0.95273 0.88199 0.0
H1717 H 0.52054 0.94781 0.88321 0.0
H1718 H 0.55308 0.99808 0.89008 0.0
H1719 H 0.49556 0.9507 0.85439 0.0
H1720 H 0.48667 0.95005 0.87354 0.0
H1721 H 0.49563 0.93776 0.86995 0.0
H1722 H 0.54627 0.01766 0.88328 0.0
H1723 H 0.52534 0.01107 0.88032 0.0
H1724 H 0.53738 0.01267 0.86326 0.0
H1725 H 0.50506 1.00014 0.77324 0.0
H1726 H 0.46602 0.99534 0.81197 0.0
H1727 H 0.46252 0.99057 0.84044 0.0
H1728 H 0.4907 0.98015 0.88237 0.0
H1729 H 0.52963 0.98482 0.8435 0.0
H1730 H 0.53356 0.99042 0.81526 0.0
H1731 H 0.39192 0.96033 0.8768 0.0
H1732 H 0.41038 0.96676 0.86647 0.0
H1733 H 0.40525 0.98142 0.87338 0.0
C1734 C 0.0238 0.59209 0.77113 0.0
C1735 C 0.01473 0.58034 0.75705 0.0
C1736 C 0.00377 0.55458 0.77112 0.0
C1737 C 0.99003 0.5426 0.77831 0.0
C1738 C 0.99044 0.5307 0.78753 0.0
C1739 C 0.005 0.53076 0.78951 0.0
C1740 C 0.0189 0.54259 0.78192 0.0
C1741 C 0.01816 0.5544 0.77278 0.0
C1742 C 0.97538 0.51819 0.79538 0.0
C1743 C 0.03457 0.54287 0.78369 0.0
C1744 C 0.01314 0.42754 0.78314 0.0
C1745 C 0.00984 0.43333 0.76715 0.0
C1746 C 0.9999 0.45105 0.77688 0.0
C1747 C 0.01477 0.46382 0.78211 0.0
C1748 C 0.01592 0.47736 0.79003 0.0
C1749 C 0.00189 0.47808 0.79306 0.0
C1750 C 0.98692 0.46532 0.78773 0.0
C1751 C 0.98615 0.45202 0.77961 0.0
C1752 C 0.03216 0.49089 0.79523 0.0
C1753 C 0.97174 0.46569 0.79077 0.0
C1754 C 0.01582 0.46537 0.89791 0.0
C1755 C 0.02858 0.47426 0.88761 0.0
C1756 C 0.02921 0.48681 0.87863 0.0
C1757 C 0.01653 0.49016 0.87965 0.0
C1758 C 0.00384 0.48142 0.89039 0.0
C1759 C 0.00381 0.46928 0.89961 0.0
C1760 C 0.04334 0.49635 0.86792 0.0
C1761 C 0.99016 0.48466 0.89188 0.0
C1762 C 0.04794 0.61643 0.87726 0.0
C1763 C 0.03631 0.6019 0.88695 0.0
C1764 C 0.03767 0.57725 0.88612 0.0
C1765 C 0.04855 0.57239 0.88173 0.0
C1766 C 0.0433 0.55676 0.87587 0.0
C1767 C 0.02674 0.54566 0.87476 0.0
C1768 C 0.01569 0.55021 0.88023 0.0
C1769 C 0.02128 0.56601 0.88581 0.0
C1770 C 0.05544 0.55227 0.87036 0.0
C1771 C 0.998 0.53849 0.87978 0.0
C1772 C 0.00572 0.51867 0.79988 0.0
C1773 C 0.00292 0.50426 0.79262 0.0
C1774 C 0.00305 0.49224 0.80178 0.0
C1775 C 0.00551 0.49438 0.81875 0.0
C1776 C 0.00471 0.48215 0.82848 0.0
C1777 C 0.00782 0.48461 0.84507 0.0
C1778 C 0.01222 0.49953 0.85251 0.0
C1779 C 0.01632 0.50248 0.8692 0.0
C1780 C 0.02069 0.51748 0.87616 0.0
C1781 C 0.02104 0.52969 0.86691 0.0
C1782 C 0.01684 0.52692 0.85025 0.0
C1783 C 0.01698 0.53891 0.84061 0.0
C1784 C 0.01306 0.53614 0.82418 0.0
C1785 C 0.00922 0.52142 0.81667 0.0
C1786 C 0.00902 0.50918 0.82615 0.0
C1787 C 0.01261 0.51185 0.84301 0.0
C1788 C 0.99732 0.42897 0.89147 0.0
C1789 C 0.01401 0.43942 0.89906 0.0
O1790 O 0.00253 0.56605 0.76288 0.0
O1791 O 0.0434 0.59283 0.89054 0.0
O1792 O 0.01485 0.45294 0.90628 0.0
O1793 O 0.99822 0.43761 0.76928 0.0
H1794 H 0.02309 0.57796 0.74993 0.0
H1795 H 0.02947 0.58718 0.77916 0.0
H1796 H 0.01553 0.59441 0.77847 0.0
H1797 H 0.03338 0.60363 0.76642 0.0
H1798 H 0.97897 0.54277 0.77688 0.0
H1799 H 0.02887 0.56343 0.76709 0.0
H1800 H 0.97274 0.50603 0.7914 0.0
H1801 H 0.96493 0.51959 0.79239 0.0
H1802 H 0.9771 0.51904 0.80874 0.0
H1803 H 0.04425 0.55265 0.77675 0.0
H1804 H 0.03316 0.53123 0.77943 0.0
H1805 H 0.03821 0.54447 0.79667 0.0
H1806 H 0.02102 0.4438 0.76289 0.0
H1807 H 0.02233 0.42395 0.78143 0.0
H1808 H 0.00205 0.41711 0.78761 0.0
H1809 H 0.01765 0.43723 0.79254 0.0
H1810 H 0.02559 0.4634 0.7801 0.0
H1811 H 0.97473 0.44216 0.77552 0.0
H1812 H 0.03369 0.50256 0.79137 0.0
H1813 H 0.042 0.48945 0.79013 0.0
H1814 H 0.03323 0.4913 0.80864 0.0
H1815 H 0.96094 0.4543 0.78698 0.0
H1816 H 0.97194 0.47565 0.78398 0.0
H1817 H 0.97089 0.46801 0.80384 0.0
H1818 H 0.02303 0.44298 0.88936 0.0
H1819 H 0.03808 0.47143 0.88671 0.0
H1820 H 0.99411 0.46239 0.90777 0.0
H1821 H 0.03974 0.49274 0.85507 0.0
H1822 H 0.05342 0.49432 0.8708 0.0
H1823 H 0.04755 0.50936 0.8692 0.0
H1824 H 0.98055 0.47588 0.8997 0.0
H1825 H 0.985 0.48426 0.87971 0.0
H1826 H 0.9946 0.49686 0.89714 0.0
H1827 H 0.02555 0.59497 0.87903 0.0
H1828 H 0.04255 0.62394 0.87432 0.0
H1829 H 0.05075 0.61234 0.86572 0.0
H1830 H 0.05926 0.62385 0.88417 0.0
H1831 H 0.06118 0.58109 0.88234 0.0
H1832 H 0.01285 0.56957 0.88989 0.0
H1833 H 0.05318 0.54829 0.85744 0.0
H1834 H 0.05424 0.54206 0.87751 0.0
H1835 H 0.06787 0.56238 0.87174 0.0
H1836 H 0.99112 0.5433 0.88612 0.0
H1837 H 0.99547 0.52709 0.88546 0.0
H1838 H 0.99375 0.53567 0.86699 0.0
H1839 H 0.00086 0.50249 0.77962 0.0
H1840 H 0.00164 0.47052 0.82336 0.0
H1841 H 0.00697 0.47473 0.85193 0.0
H1842 H 0.02407 0.51976 0.88889 0.0
H1843 H 0.0201 0.55058 0.84563 0.0
H1844 H 0.01334 0.54581 0.8174 0.0
H1845 H 0.98806 0.42505 0.90094 0.0
H1846 H 0.99635 0.41822 0.8852 0.0
H1847 H 0.9949 0.43586 0.88233 0.0
C1848 C 0.5303 0.57461 0.72723 0.0
C1849 C 0.54271 0.58208 0.74104 0.0
C1850 C 0.52906 0.56191 0.76204 0.0
C1851 C 0.51728 0.56594 0.76566 0.0
C1852 C 0.50449 0.55625 0.77572 0.0
C1853 C 0.50349 0.54231 0.78232 0.0
C1854 C 0.51562 0.53855 0.77917 0.0
C1855 C 0.52829 0.54847 0.76913 0.0
C1856 C 0.49186 0.56071 0.77906 0.0
C1857 C 0.51498 0.52383 0.78609 0.0
C1858 C 0.41778 0.47191 0.71747 0.0
C1859 C 0.42054 0.46245 0.73056 0.0
C1860 C 0.42632 0.4748 0.75738 0.0
C1861 C 0.43859 0.47214 0.76264 0.0
C1862 C 0.44998 0.48247 0.77414 0.0
C1863 C 0.44911 0.4958 0.78037 0.0
C1864 C 0.43632 0.49809 0.77557 0.0
C1865 C 0.42491 0.48735 0.7643 0.0
C1866 C 0.46321 0.47941 0.77926 0.0
C1867 C 0.43507 0.51222 0.78184 0.0
C1868 C 0.4169 0.47793 0.88387 0.0
C1869 C 0.42845 0.47363 0.88021 0.0
C1870 C 0.4426 0.48438 0.87245 0.0
C1871 C 0.44521 0.4997 0.86827 0.0
C1872 C 0.43385 0.50426 0.87252 0.0
C1873 C 0.4199 0.49334 0.88045 0.0
C1874 C 0.45472 0.47935 0.86857 0.0
C1875 C 0.43633 0.52057 0.86845 0.0
C1876 C 0.55089 0.60706 0.88502 0.0
C1877 C 0.5445 0.59653 0.89995 0.0
C1878 C 0.52675 0.56968 0.88783 0.0
C1879 C 0.52536 0.55478 0.88435 0.0
C1880 C 0.51221 0.54286 0.87555 0.0
C1881 C 0.50016 0.54597 0.8701 0.0
C1882 C 0.5013 0.5609 0.87383 0.0
C1883 C 0.51457 0.57261 0.88268 0.0
C1884 C 0.51132 0.52703 0.87186 0.0
C1885 C 0.48858 0.56453 0.86825 0.0
C1886 C 0.48925 0.53111 0.79163 0.0
C1887 C 0.47612 0.5193 0.7829 0.0
C1888 C 0.46235 0.50806 0.7907 0.0
C1889 C 0.46155 0.50861 0.80778 0.0
C1890 C 0.44793 0.49749 0.81606 0.0
C1891 C 0.44722 0.49825 0.83286 0.0
C1892 C 0.46021 0.51002 0.84206 0.0
C1893 C 0.45963 0.51086 0.85916 0.0
C1894 C 0.47281 0.52264 0.86792 0.0
C1895 C 0.4866 0.53378 0.86006 0.0
C1896 C 0.48736 0.53322 0.84297 0.0
C1897 C 0.50102 0.54431 0.83468 0.0
C1898 C 0.50166 0.54368 0.81787 0.0
C1899 C 0.48869 0.53191 0.8087 0.0
C1900 C 0.47478 0.52061 0.8168 0.0
C1901 C 0.47412 0.52127 0.83396 0.0
C1902 C 0.37789 0.44774 0.8797 0.0
C1903 C 0.39376 0.45131 0.88745 0.0
O1904 O 0.54119 0.57039 0.75167 0.0
O1905 O 0.54009 0.58079 0.896 0.0
O1906 O 0.40285 0.46762 0.89085 0.0
O1907 O 0.41594 0.46562 0.74542 0.0
H1908 H 0.54106 0.59128 0.74769 0.0
H1909 H 0.51802 0.56916 0.73197 0.0
H1910 H 0.53156 0.56513 0.72069 0.0
H1911 H 0.53185 0.58394 0.71851 0.0
H1912 H 0.51784 0.57648 0.76057 0.0
H1913 H 0.5375 0.54553 0.76641 0.0
H1914 H 0.48027 0.55135 0.77378 0.0
H1915 H 0.49485 0.57245 0.77389 0.0
H1916 H 0.4903 0.56123 0.79233 0.0
H1917 H 0.52554 0.52277 0.78279 0.0
H1918 H 0.50405 0.51294 0.78159 0.0
H1919 H 0.51431 0.52419 0.7995 0.0
H1920 H 0.43357 0.46667 0.73061 0.0
H1921 H 0.42112 0.4693 0.70541 0.0
H1922 H 0.42529 0.48497 0.72015 0.0
H1923 H 0.40509 0.4689 0.71701 0.0
H1924 H 0.43934 0.46208 0.7576 0.0
H1925 H 0.41525 0.48915 0.76026 0.0
H1926 H 0.46475 0.48046 0.79264 0.0
H1927 H 0.47459 0.4886 0.77394 0.0
H1928 H 0.46091 0.46737 0.7752 0.0
H1929 H 0.42472 0.51262 0.77647 0.0
H1930 H 0.44615 0.52356 0.7791 0.0
H1931 H 0.43384 0.51164 0.79521 0.0
H1932 H 0.3997 0.44743 0.87838 0.0
H1933 H 0.42649 0.46195 0.88351 0.0
H1934 H 0.41104 0.49663 0.88361 0.0
H1935 H 0.45568 0.47861 0.85523 0.0
H1936 H 0.45149 0.46752 0.87369 0.0
H1937 H 0.46664 0.48846 0.87339 0.0
H1938 H 0.42606 0.52203 0.872 0.0
H1939 H 0.4382 0.52251 0.85524 0.0
H1940 H 0.44723 0.52999 0.87479 0.0
H1941 H 0.53403 0.59708 0.90467 0.0
H1942 H 0.5547 0.61972 0.8883 0.0
H1943 H 0.54151 0.60302 0.87544 0.0
H1944 H 0.56122 0.60649 0.87996 0.0
H1945 H 0.53475 0.55258 0.88842 0.0
H1946 H 0.51533 0.584 0.88535 0.0
H1947 H 0.51135 0.52526 0.85855 0.0
H1948 H 0.49997 0.51707 0.87644 0.0
H1949 H 0.52144 0.52631 0.87737 0.0
H1950 H 0.49108 0.57664 0.87229 0.0
H1951 H 0.47683 0.55546 0.87299 0.0
H1952 H 0.48765 0.56375 0.85482 0.0
H1953 H 0.47666 0.51877 0.76979 0.0
H1954 H 0.43763 0.4881 0.80962 0.0
H1955 H 0.43637 0.48944 0.83856 0.0
H1956 H 0.4723 0.5232 0.88102 0.0
H1957 H 0.51138 0.55364 0.84109 0.0
H1958 H 0.51247 0.55253 0.81213 0.0
H1959 H 0.37132 0.45166 0.88784 0.0
H1960 H 0.37033 0.4347 0.87699 0.0
H1961 H 0.38014 0.45426 0.86815 0.0
C1962 C 0.66718 0.78621 0.61345 0.0
C1963 C 0.65093 0.77063 0.61302 0.0
C1964 C 0.64144 0.77498 0.58762 0.0
C1965 C 0.62671 0.77418 0.58946 0.0
C1966 C 0.62256 0.78354 0.57993 0.0
C1967 C 0.63361 0.79415 0.56861 0.0
C1968 C 0.64855 0.79493 0.5668 0.0
C1969 C 0.65209 0.785 0.57608 0.0
C1970 C 0.60647 0.78221 0.58206 0.0
C1971 C 0.66094 0.80647 0.55535 0.0
C1972 C 0.62126 0.89419 0.58426 0.0
C1973 C 0.63145 0.89224 0.59735 0.0
C1974 C 0.63813 0.87342 0.58349 0.0
C1975 C 0.65027 0.87255 0.5753 0.0
C1976 C 0.6475 0.85835 0.56745 0.0
C1977 C 0.63212 0.84462 0.56784 0.0
C1978 C 0.61981 0.84526 0.5764 0.0
C1979 C 0.62293 0.85965 0.58419 0.0
C1980 C 0.66095 0.85808 0.55854 0.0
C1981 C 0.60332 0.83077 0.5771 0.0
C1982 C 0.60972 0.85786 0.46862 0.0
C1983 C 0.62508 0.86019 0.47125 0.0
C1984 C 0.62721 0.84804 0.4779 0.0
C1985 C 0.61368 0.83335 0.48207 0.0
C1986 C 0.5982 0.83065 0.47849 0.0
C1987 C 0.59644 0.84293 0.47161 0.0
C1988 C 0.6439 0.8511 0.48096 0.0
C1989 C 0.58353 0.81504 0.48252 0.0
C1990 C 0.60577 0.72196 0.468 0.0
C1991 C 0.61028 0.73256 0.45308 0.0
C1992 C 0.62018 0.75967 0.46496 0.0
C1993 C 0.63394 0.77433 0.46834 0.0
C1994 C 0.63322 0.78673 0.47675 0.0
C1995 C 0.6183 0.78436 0.48193 0.0
C1996 C 0.60425 0.76967 0.47834 0.0
C1997 C 0.6053 0.75745 0.46988 0.0
C1998 C 0.64845 0.80229 0.48027 0.0
C1999 C 0.58816 0.76682 0.48367 0.0
C2000 C 0.62985 0.80492 0.55921 0.0
C2001 C 0.63131 0.81853 0.5672 0.0
C2002 C 0.62894 0.82975 0.55896 0.0
C2003 C 0.62486 0.82735 0.54228 0.0
C2004 C 0.62223 0.83832 0.53368 0.0
C2005 C 0.61889 0.83623 0.51713 0.0
C2006 C 0.61828 0.82322 0.50848 0.0
C2007 C 0.6157 0.82146 0.4915 0.0
C2008 C 0.61544 0.80853 0.48325 0.0
C2009 C 0.61754 0.79714 0.49154 0.0
C2010 C 0.6198 0.79853 0.50857 0.0
C2011 C 0.62159 0.7871 0.51734 0.0
C2012 C 0.62443 0.78892 0.534 0.0
C2013 C 0.62593 0.8024 0.54247 0.0
C2014 C 0.62362 0.81377 0.53396 0.0
C2015 C 0.62045 0.81177 0.51701 0.0
C2016 C 0.60419 0.88905 0.47865 0.0
C2017 C 0.61552 0.88556 0.46883 0.0
O2018 O 0.64563 0.76631 0.59711 0.0
O2019 O 0.62195 0.74812 0.45713 0.0
O2020 O 0.60734 0.86976 0.46324 0.0
O2021 O 0.6417 0.88778 0.59036 0.0
H2022 H 0.64218 0.77265 0.61986 0.0
H2023 H 0.66604 0.79618 0.60829 0.0
H2024 H 0.67604 0.78465 0.60633 0.0
H2025 H 0.67175 0.78983 0.62608 0.0
H2026 H 0.61852 0.76624 0.59839 0.0
H2027 H 0.66345 0.78543 0.5748 0.0
H2028 H 0.60806 0.79335 0.58802 0.0
H2029 H 0.59846 0.77187 0.58961 0.0
H2030 H 0.60062 0.78093 0.57009 0.0
H2031 H 0.67282 0.80765 0.55757 0.0
H2032 H 0.66212 0.81852 0.55653 0.0
H2033 H 0.65721 0.80211 0.54269 0.0
H2034 H 0.62358 0.88299 0.60605 0.0
H2035 H 0.61325 0.89803 0.58986 0.0
H2036 H 0.61369 0.88268 0.57764 0.0
H2037 H 0.62899 0.90327 0.57538 0.0
H2038 H 0.66197 0.88318 0.57491 0.0
H2039 H 0.61344 0.86004 0.59066 0.0
H2040 H 0.65785 0.85566 0.54544 0.0
H2041 H 0.66268 0.84825 0.56309 0.0
H2042 H 0.67238 0.86958 0.55994 0.0
H2043 H 0.59502 0.83315 0.58428 0.0
H2044 H 0.60401 0.82066 0.58254 0.0
H2045 H 0.59835 0.82695 0.56462 0.0
H2046 H 0.6255 0.88768 0.47719 0.0
H2047 H 0.6354 0.87152 0.46822 0.0
H2048 H 0.58464 0.84116 0.46918 0.0
H2049 H 0.64645 0.85245 0.4942 0.0
H2050 H 0.65304 0.86213 0.47502 0.0
H2051 H 0.645 0.84075 0.4765 0.0
H2052 H 0.57234 0.81477 0.47884 0.0
H2053 H 0.58329 0.81312 0.49577 0.0
H2054 H 0.58396 0.80493 0.47635 0.0
H2055 H 0.5995 0.73252 0.44822 0.0
H2056 H 0.59663 0.70944 0.46466 0.0
H2057 H 0.60071 0.72636 0.47748 0.0
H2058 H 0.61642 0.72202 0.47321 0.0
H2059 H 0.64534 0.77598 0.46447 0.0
H2060 H 0.59449 0.74623 0.46732 0.0
H2061 H 0.65042 0.80419 0.49358 0.0
H2062 H 0.64742 0.81247 0.47551 0.0
H2063 H 0.65902 0.80248 0.47483 0.0
H2064 H 0.57831 0.75478 0.47985 0.0
H2065 H 0.58587 0.77608 0.47853 0.0
H2066 H 0.58812 0.76797 0.49707 0.0
H2067 H 0.63476 0.82063 0.57992 0.0
H2068 H 0.62278 0.84869 0.53962 0.0
H2069 H 0.61702 0.84511 0.51118 0.0
H2070 H 0.6138 0.80745 0.47018 0.0
H2071 H 0.62086 0.77664 0.51142 0.0
H2072 H 0.62571 0.77975 0.54011 0.0
H2073 H 0.5937 0.88691 0.47115 0.0
H2074 H 0.61048 0.90169 0.48318 0.0
H2075 H 0.59987 0.88107 0.48924 0.0
C2076 C 0.13072 0.74851 0.6394 0.0
C2077 C 0.12163 0.75297 0.62726 0.0
C2078 C 0.13435 0.76054 0.60119 0.0
C2079 C 0.13317 0.77414 0.59784 0.0
C2080 C 0.14434 0.7862 0.58796 0.0
C2081 C 0.15703 0.78466 0.58143 0.0
C2082 C 0.15783 0.7706 0.58425 0.0
C2083 C 0.14627 0.75857 0.59391 0.0
C2084 C 0.14283 0.8008 0.58491 0.0
C2085 C 0.1712 0.76855 0.57757 0.0
C2086 C 0.25714 0.89779 0.63027 0.0
C2087 C 0.2484 0.88107 0.62395 0.0
C2088 C 0.22478 0.86433 0.60686 0.0
C2089 C 0.22858 0.85228 0.60341 0.0
C2090 C 0.21873 0.83923 0.59307 0.0
C2091 C 0.20489 0.83826 0.58606 0.0
C2092 C 0.20111 0.85043 0.58948 0.0
C2093 C 0.21111 0.86327 0.59987 0.0
C2094 C 0.22308 0.82647 0.58959 0.0
C2095 C 0.1865 0.84986 0.58215 0.0
C2096 C 0.23533 0.86756 0.48145 0.0
C2097 C 0.23654 0.85381 0.48409 0.0
C2098 C 0.22473 0.84084 0.49261 0.0
C2099 C 0.21141 0.8416 0.49852 0.0
C2100 C 0.21022 0.85546 0.49597 0.0
C2101 C 0.22229 0.86832 0.48758 0.0
C2102 C 0.2264 0.82627 0.49521 0.0
C2103 C 0.19609 0.85661 0.50193 0.0
C2104 C 0.1437 0.75968 0.43524 0.0
C2105 C 0.12998 0.74982 0.44681 0.0
C2106 C 0.139 0.76892 0.47003 0.0
C2107 C 0.15177 0.76687 0.47506 0.0
C2108 C 0.16296 0.77734 0.48665 0.0
C2109 C 0.16126 0.78999 0.49342 0.0
C2110 C 0.14806 0.79167 0.48885 0.0
C2111 C 0.13706 0.78103 0.47727 0.0
C2112 C 0.1768 0.77512 0.49144 0.0
C2113 C 0.14584 0.80498 0.49588 0.0
C2114 C 0.17013 0.7983 0.57285 0.0
C2115 C 0.18166 0.81104 0.58234 0.0
C2116 C 0.19417 0.82451 0.57527 0.0
C2117 C 0.19559 0.82518 0.55824 0.0
C2118 C 0.20831 0.83833 0.55076 0.0
C2119 C 0.20943 0.83908 0.53397 0.0
C2120 C 0.19773 0.82681 0.52402 0.0
C2121 C 0.19849 0.82769 0.50694 0.0
C2122 C 0.18656 0.81537 0.49742 0.0
C2123 C 0.17379 0.80209 0.50445 0.0
C2124 C 0.17288 0.80089 0.5215 0.0
C2125 C 0.16022 0.78767 0.52898 0.0
C2126 C 0.15931 0.78675 0.54579 0.0
C2127 C 0.17102 0.79901 0.55576 0.0
C2128 C 0.18388 0.81246 0.54845 0.0
C2129 C 0.18487 0.81335 0.53131 0.0
C2130 C 0.26442 0.89299 0.45119 0.0
C2131 C 0.25835 0.88048 0.46366 0.0
O2132 O 0.12433 0.74939 0.61167 0.0
O2133 O 0.12844 0.75976 0.45812 0.0
O2134 O 0.24628 0.88019 0.47291 0.0
O2135 O 0.23387 0.87714 0.61679 0.0
H2136 H 0.12646 0.76612 0.62893 0.0
H2137 H 0.14374 0.75584 0.63729 0.0
H2138 H 0.12722 0.73566 0.63803 0.0
H2139 H 0.12837 0.75091 0.65199 0.0
H2140 H 0.1236 0.77538 0.60312 0.0
H2141 H 0.14693 0.7479 0.59644 0.0
H2142 H 0.15204 0.81108 0.5922 0.0
H2143 H 0.13093 0.79892 0.58831 0.0
H2144 H 0.14488 0.80405 0.57195 0.0
H2145 H 0.17049 0.75721 0.58145 0.0
H2146 H 0.18289 0.77877 0.58162 0.0
H2147 H 0.17082 0.76855 0.56413 0.0
H2148 H 0.24798 0.87177 0.63212 0.0
H2149 H 0.27843 0.90973 0.61433 0.0
H2150 H 0.25809 0.89669 0.64377 0.0
H2151 H 0.24828 0.90216 0.63129 0.0
H2152 H 0.23915 0.85297 0.60876 0.0
H2153 H 0.20832 0.87265 0.60258 0.0
H2154 H 0.21335 0.81469 0.59362 0.0
H2155 H 0.23438 0.82906 0.59577 0.0
H2156 H 0.22436 0.82545 0.57634 0.0
H2157 H 0.18517 0.8602 0.58615 0.0
H2158 H 0.17566 0.83861 0.58556 0.0
H2159 H 0.18721 0.84982 0.56874 0.0
H2160 H 0.26755 0.87936 0.47078 0.0
H2161 H 0.24666 0.85313 0.47953 0.0
H2162 H 0.22146 0.87897 0.48549 0.0
H2163 H 0.22534 0.82344 0.50828 0.0
H2164 H 0.23798 0.82796 0.49085 0.0
H2165 H 0.2166 0.81578 0.48867 0.0
H2166 H 0.1966 0.86793 0.49834 0.0
H2167 H 0.19564 0.85595 0.51534 0.0
H2168 H 0.18486 0.84632 0.49703 0.0
H2169 H 0.13226 0.74105 0.45316 0.0
H2170 H 0.1445 0.75171 0.42587 0.0
H2171 H 0.1553 0.76593 0.44187 0.0
H2172 H 0.14179 0.76881 0.42915 0.0
H2173 H 0.15322 0.7573 0.46987 0.0
H2174 H 0.12708 0.78241 0.47344 0.0
H2175 H 0.17735 0.77442 0.50482 0.0
H2176 H 0.18813 0.78567 0.48765 0.0
H2177 H 0.17594 0.76414 0.48584 0.0
H2178 H 0.13473 0.80441 0.49136 0.0
H2179 H 0.15616 0.81676 0.49272 0.0
H2180 H 0.14545 0.80433 0.50929 0.0
H2181 H 0.18069 0.81063 0.59543 0.0
H2182 H 0.21758 0.8482 0.55782 0.0
H2183 H 0.21949 0.84948 0.52889 0.0
H2184 H 0.18712 0.81624 0.48433 0.0
H2185 H 0.15086 0.77791 0.5219 0.0
H2186 H 0.14926 0.77635 0.5509 0.0
H2187 H 0.27744 0.90119 0.45436 0.0
H2188 H 0.26073 0.902 0.45494 0.0
H2189 H 0.25666 0.87897 0.42776 0.0
C2190 C 0.13489 0.37423 0.63095 0.0
C2191 C 0.12315 0.369 0.61652 0.0
C2192 C 0.13828 0.36314 0.59618 0.0
C2193 C 0.14987 0.37912 0.59317 0.0
C2194 C 0.16319 0.38265 0.58365 0.0
C2195 C 0.16494 0.36999 0.577 0.0
C2196 C 0.15305 0.35392 0.57961 0.0
C2197 C 0.13983 0.35073 0.58909 0.0
C2198 C 0.17555 0.39992 0.5809 0.0
C2199 C 0.1545 0.34012 0.57265 0.0
C2200 C 0.25282 0.39161 0.64427 0.0
C2201 C 0.24934 0.37916 0.63078 0.0
C2202 C 0.2432 0.38451 0.60387 0.0
C2203 C 0.23136 0.3691 0.59885 0.0
C2204 C 0.2199 0.36699 0.58709 0.0
C2205 C 0.22022 0.38059 0.58038 0.0
C2206 C 0.23257 0.39615 0.58498 0.0
C2207 C 0.2441 0.39788 0.5965 0.0
C2208 C 0.20717 0.35022 0.58218 0.0
C2209 C 0.23324 0.41095 0.57824 0.0
C2210 C 0.25466 0.39333 0.4777 0.0
C2211 C 0.24312 0.37741 0.4809 0.0
C2212 C 0.22871 0.37387 0.48831 0.0
C2213 C 0.22584 0.38649 0.49259 0.0
C2214 C 0.23719 0.40246 0.48878 0.0
C2215 C 0.25141 0.40563 0.48122 0.0
C2216 C 0.21662 0.35666 0.49172 0.0
C2217 C 0.23443 0.41619 0.49296 0.0
C2218 C 0.11863 0.38521 0.47793 0.0
C2219 C 0.12583 0.38322 0.46216 0.0
C2220 C 0.14432 0.37447 0.47209 0.0
C2221 C 0.14629 0.36116 0.47397 0.0
C2222 C 0.15935 0.36234 0.48267 0.0
C2223 C 0.17078 0.37729 0.48959 0.0
C2224 C 0.16916 0.39094 0.48734 0.0
C2225 C 0.15593 0.38941 0.47867 0.0
C2226 C 0.16076 0.34756 0.48479 0.0
C2227 C 0.18127 0.40711 0.49439 0.0
C2228 C 0.17961 0.37352 0.56809 0.0
C2229 C 0.19275 0.37556 0.57716 0.0
C2230 C 0.20689 0.37855 0.56971 0.0
C2231 C 0.20803 0.37954 0.55265 0.0
C2232 C 0.22196 0.3823 0.5447 0.0
C2233 C 0.22303 0.3835 0.52792 0.0
C2234 C 0.21014 0.38181 0.51841 0.0
C2235 C 0.21112 0.38307 0.50135 0.0
C2236 C 0.19809 0.3814 0.4923 0.0
C2237 C 0.18402 0.37851 0.49984 0.0
C2238 C 0.18277 0.37712 0.51686 0.0
C2239 C 0.16873 0.37409 0.52481 0.0
C2240 C 0.16766 0.37291 0.54157 0.0
C2241 C 0.18057 0.37468 0.55105 0.0
C2242 C 0.19484 0.37769 0.5433 0.0
C2243 C 0.19591 0.37884 0.52618 0.0
C2244 C 0.29406 0.40204 0.48122 0.0
C2245 C 0.27778 0.38974 0.47404 0.0
O2246 O 0.12557 0.35909 0.60594 0.0
O2247 O 0.131 0.37224 0.46407 0.0
O2248 O 0.26897 0.39724 0.47112 0.0
O2249 O 0.25365 0.38679 0.61604 0.0
H2250 H 0.12482 0.37975 0.61002 0.0
H2251 H 0.14738 0.38135 0.62684 0.0
H2252 H 0.13358 0.3636 0.63738 0.0
H2253 H 0.13266 0.38185 0.63958 0.0
H2254 H 0.14873 0.38889 0.59829 0.0
H2255 H 0.13078 0.33845 0.59134 0.0
H2256 H 0.18707 0.40257 0.58658 0.0
H2257 H 0.17201 0.4084 0.58604 0.0
H2258 H 0.17756 0.40201 0.56772 0.0
H2259 H 0.14416 0.32829 0.57567 0.0
H2260 H 0.16557 0.34074 0.57736 0.0
H2261 H 0.15544 0.34101 0.55927 0.0
H2262 H 0.23624 0.37062 0.63106 0.0
H2263 H 0.24971 0.38577 0.65624 0.0
H2264 H 0.24551 0.39741 0.64224 0.0
H2265 H 0.2656 0.40107 0.64448 0.0
H2266 H 0.231 0.35875 0.60425 0.0
H2267 H 0.25344 0.40972 0.60036 0.0
H2268 H 0.19559 0.34774 0.58731 0.0
H2269 H 0.20995 0.34102 0.58657 0.0
H2270 H 0.20573 0.34906 0.56879 0.0
H2271 H 0.24308 0.42216 0.58375 0.0
H2272 H 0.22177 0.41065 0.58037 0.0
H2273 H 0.23496 0.4112 0.56495 0.0
H2274 H 0.27198 0.38032 0.4833 0.0
H2275 H 0.24527 0.36775 0.47753 0.0
H2276 H 0.26028 0.41784 0.47842 0.0
H2277 H 0.21526 0.35504 0.50501 0.0
H2278 H 0.22012 0.34813 0.48663 0.0
H2279 H 0.2048 0.35366 0.48656 0.0
H2280 H 0.24468 0.42798 0.4897 0.0
H2281 H 0.23229 0.41634 0.50615 0.0
H2282 H 0.2236 0.41449 0.48646 0.0
H2283 H 0.13604 0.39501 0.45875 0.0
H2284 H 0.11421 0.39376 0.47626 0.0
H2285 H 0.12774 0.39 0.48782 0.0
H2286 H 0.10857 0.3735 0.4817 0.0
H2287 H 0.13735 0.34971 0.46879 0.0
H2288 H 0.15474 0.3999 0.47726 0.0
H2289 H 0.16068 0.34508 0.49789 0.0
H2290 H 0.17231 0.34965 0.47991 0.0
H2291 H 0.15092 0.33683 0.47857 0.0
H2292 H 0.17892 0.41679 0.49065 0.0
H2293 H 0.19344 0.4102 0.49054 0.0
H2294 H 0.18108 0.40663 0.50782 0.0
H2295 H 0.19193 0.37474 0.59025 0.0
H2296 H 0.23223 0.38364 0.55139 0.0
H2297 H 0.23411 0.38577 0.52249 0.0
H2298 H 0.19896 0.3825 0.47924 0.0
H2299 H 0.15839 0.37262 0.51816 0.0
H2300 H 0.15658 0.37061 0.54703 0.0
H2301 H 0.3014 0.39633 0.48354 0.0
H2302 H 0.29242 0.40688 0.4929 0.0
H2303 H 0.30055 0.41219 0.4729 0.0
H2304 H 0.97318 0.36562 0.03523 0.0
H2305 H 0.98661 0.39384 0.12776 0.0
H2306 H 0.00688 0.36102 0.06586 0.0
H2307 H 0.98162 0.42202 0.09035 0.0
H2308 H 0.98672 0.37566 0.10679 0.0
H2309 H 0.96862 0.38016 0.0574 0.0
C2310 C 0.97932 0.36735 0.04674 0.0
C2311 C 0.99045 0.36219 0.04877 0.0
C2312 C 0.98558 0.38584 0.10328 0.0
C2313 C 0.98519 0.37855 0.074 0.0
C2314 C 0.98564 0.39631 0.1152 0.0
C2315 C 0.98481 0.40996 0.11091 0.0
C2316 C 0.98403 0.38864 0.08696 0.0
C2317 C 0.98276 0.41199 0.09437 0.0
C2318 C 0.97682 0.37573 0.05928 0.0
C2319 C 0.99826 0.36489 0.06383 0.0
N2320 N 0.98247 0.40147 0.08301 0.0
N2321 N 0.99546 0.37287 0.07591 0.0
H2322 H 0.64639 0.59926 0.04135 0.0
H2323 H 0.59632 0.57097 0.12313 0.0
H2324 H 0.62444 0.62395 0.0642 0.0
H2325 H 0.61566 0.5444 0.09923 0.0
H2326 H 0.60756 0.59112 0.10213 0.0
H2327 H 0.63637 0.57969 0.063 0.0
C2328 C 0.63954 0.60062 0.05094 0.0
C2329 C 0.63622 0.61325 0.05091 0.0
C2330 C 0.60931 0.58086 0.10141 0.0
C2331 C 0.62468 0.59087 0.0757 0.0
C2332 C 0.60285 0.56934 0.11336 0.0
C2333 C 0.60478 0.55583 0.11271 0.0
C2334 C 0.61793 0.57897 0.08876 0.0
C2335 C 0.61367 0.55449 0.10001 0.0
C2336 C 0.63379 0.58942 0.06328 0.0
C2337 C 0.62727 0.6144 0.06367 0.0
N2338 N 0.61987 0.56589 0.0885 0.0
N2339 N 0.6218 0.60335 0.0755 0.0
H2340 H 0.36687 0.99093 0.0595 0.0
H2341 H 0.44404 0.05936 0.10672 0.0
H2342 H 0.39009 0.04097 0.04727 0.0
H2343 H 0.41903 0.00977 0.1204 0.0
H2344 H 0.42426 0.05298 0.08504 0.0
H2345 H 0.38562 0.99773 0.08211 0.0
C2346 C 0.37586 0.00337 0.0616 0.0
C2347 C 0.37692 0.01539 0.0514 0.0
C2348 C 0.42312 0.04348 0.09274 0.0
C2349 C 0.39854 0.02324 0.0773 0.0
C2350 C 0.43444 0.0471 0.10505 0.0
C2351 C 0.43338 0.035 0.1151 0.0
C2352 C 0.41057 0.02764 0.09052 0.0
C2353 C 0.42048 0.01939 0.11269 0.0
C2354 C 0.38659 0.00724 0.07453 0.0
C2355 C 0.38882 0.0313 0.05479 0.0
N2356 N 0.40964 0.01615 0.1006 0.0
N2357 N 0.39921 0.03475 0.0674 0.0
H2358 H 0.35265 0.96505 0.97321 0.0
H2359 H 0.41529 0.0003 0.90104 0.0
H2360 H 0.37923 0.01524 0.96162 0.0
H2361 H 0.39097 0.9505 0.91398 0.0
H2362 H 0.40113 0.00573 0.92242 0.0
H2363 H 0.36536 0.95915 0.95067 0.0
C2364 C 0.36107 0.97481 0.96588 0.0
C2365 C 0.36492 0.99068 0.96938 0.0
C2366 C 0.39891 0.99362 0.92065 0.0
C2367 C 0.37955 0.98401 0.94361 0.0
C2368 C 0.40705 0.99054 0.90849 0.0
C2369 C 0.40456 0.975 0.906 0.0
C2370 C 0.38808 0.98104 0.93031 0.0
C2371 C 0.39344 0.9627 0.91572 0.0
C2372 C 0.36835 0.97144 0.95304 0.0
C2373 C 0.37593 0.00283 0.95945 0.0
N2374 N 0.38566 0.96599 0.92749 0.0
N2375 N 0.38288 0.99925 0.94707 0.0
H2376 H 0.03386 0.39959 0.98471 0.0
H2377 H 0.01795 0.41355 0.89333 0.0
H2378 H 0.00397 0.36033 0.95206 0.0
H2379 H 0.018 0.44359 0.93279 0.0
H2380 H 0.02096 0.39645 0.91309 0.0
H2381 H 0.03646 0.41852 0.96365 0.0
C2382 C 0.0282 0.39498 0.97298 0.0
C2383 C 0.01865 0.37843 0.97006 0.0
C2384 C 0.02047 0.40691 0.91732 0.0
C2385 C 0.0217 0.39984 0.94609 0.0
C2386 C 0.01872 0.41663 0.90611 0.0
C2387 C 0.01744 0.4299 0.91135 0.0
C2388 C 0.02141 0.41072 0.93388 0.0
C2389 C 0.01878 0.43346 0.92808 0.0
C2390 C 0.02958 0.40574 0.96108 0.0
C2391 C 0.01137 0.37303 0.95476 0.0
N2392 N 0.0207 0.42392 0.93875 0.0
N2393 N 0.01305 0.38372 0.94331 0.0
H2394 H 0.60487 0.64496 0.98432 0.0
H2395 H 0.57051 0.59217 0.90258 0.0
H2396 H 0.62555 0.61903 0.96151 0.0
H2397 H 0.54799 0.61564 0.92658 0.0
H2398 H 0.5914 0.60283 0.92357 0.0
H2399 H 0.58463 0.63541 0.96269 0.0
C2400 C 0.60522 0.63733 0.97474 0.0
C2401 C 0.61692 0.63276 0.97478 0.0
C2402 C 0.58186 0.6056 0.92431 0.0
C2403 C 0.59374 0.62174 0.95001 0.0
C2404 C 0.56991 0.59946 0.91237 0.0
C2405 C 0.55731 0.60273 0.91306 0.0
C2406 C 0.58134 0.61524 0.93698 0.0
C2407 C 0.55733 0.6126 0.92578 0.0
C2408 C 0.59363 0.63185 0.96241 0.0
C2409 C 0.61675 0.62284 0.96203 0.0
N2410 N 0.56913 0.61846 0.93727 0.0
N2411 N 0.60534 0.61765 0.95021 0.0
H2412 H 0.98728 0.6258 0.96038 0.0
H2413 H 0.05468 0.61596 0.91444 0.0
H2414 H 0.03616 0.64791 0.97739 0.0
H2415 H 0.0079 0.60037 0.8942 0.0
H2416 H 0.04765 0.62616 0.93855 0.0
H2417 H 0.99422 0.61501 0.93686 0.0
C2418 C 0.99949 0.62842 0.95917 0.0
C2419 C 0.01116 0.6378 0.9709 0.0
C2420 C 0.0389 0.62045 0.92886 0.0
C2421 C 0.01916 0.62538 0.94397 0.0
C2422 C 0.04289 0.61458 0.91517 0.0
C2423 C 0.03181 0.60724 0.90238 0.0
C2424 C 0.02372 0.61896 0.92979 0.0
C2425 C 0.01674 0.60587 0.90383 0.0
C2426 C 0.00344 0.62225 0.94571 0.0
C2427 C 0.02678 0.64078 0.96865 0.0
N2428 N 0.01313 0.61166 0.91728 0.0
N2429 N 0.03032 0.63455 0.95546 0.0
H2430 H 0.35949 0.40772 0.98093 0.0
H2431 H 0.39762 0.42532 0.89262 0.0
H2432 H 0.38039 0.38164 0.95893 0.0
H2433 H 0.38298 0.45576 0.9169 0.0
H2434 H 0.39112 0.40904 0.91682 0.0
H2435 H 0.36754 0.42522 0.95752 0.0
C2436 C 0.36577 0.40566 0.9712 0.0
C2437 C 0.36924 0.39315 0.97191 0.0
C2438 C 0.38942 0.41934 0.91693 0.0
C2439 C 0.37847 0.41314 0.94508 0.0
C2440 C 0.39316 0.42864 0.90312 0.0
C2441 C 0.3909 0.44194 0.9028 0.0
C2442 C 0.38321 0.42324 0.93049 0.0
C2443 C 0.38496 0.44563 0.9167 0.0
C2444 C 0.37039 0.41569 0.95786 0.0
C2445 C 0.37744 0.39111 0.95894 0.0
N2446 N 0.38125 0.43629 0.92996 0.0
N2447 N 0.38172 0.40095 0.94607 0.0
H2448 H 0.63762 0.01707 0.96474 0.0
H2449 H 0.56057 0.95437 0.91319 0.0
H2450 H 0.61063 0.96666 0.97528 0.0
H2451 H 0.59217 0.00302 0.89894 0.0
H2452 H 0.57794 0.95879 0.93675 0.0
H2453 H 0.6204 0.01228 0.94119 0.0
C2454 C 0.62809 0.00497 0.96209 0.0
C2455 C 0.62557 0.99225 0.97204 0.0
C2456 C 0.58106 0.9685 0.92848 0.0
C2457 C 0.6057 0.98669 0.94506 0.0
C2458 C 0.57113 0.966 0.9151 0.0
C2459 C 0.57489 0.9784 0.90419 0.0
C2460 C 0.59484 0.98352 0.93099 0.0
C2461 C 0.58877 0.9932 0.90712 0.0
C2462 C 0.61826 0.00224 0.94861 0.0
C2463 C 0.61304 0.97682 0.96794 0.0
N2464 N 0.59821 0.99535 0.92024 0.0
N2465 N 0.60353 0.97448 0.9548 0.0
H2466 H 0.62225 0.98608 0.06312 0.0
H2467 H 0.60669 0.04863 0.11341 0.0
H2468 H 0.64541 0.0365 0.05254 0.0
H2469 H 0.58867 0.99953 0.12692 0.0
H2470 H 0.62036 0.04442 0.09053 0.0
H2471 H 0.60943 0.99081 0.08617 0.0
C2472 C 0.6247 0.99818 0.06567 0.0
C2473 C 0.63492 0.01091 0.05583 0.0
C2474 C 0.61339 0.03456 0.09848 0.0
C2475 C 0.62013 0.01639 0.08226 0.0
C2476 C 0.60555 0.03694 0.11147 0.0
C2477 C 0.5964 0.02435 0.12194 0.0
C2478 C 0.61208 0.01948 0.09596 0.0
C2479 C 0.59546 0.0095 0.11904 0.0
C2480 C 0.61736 0.00086 0.07887 0.0
C2481 C 0.63765 0.02633 0.0598 0.0
N2482 N 0.60315 0.00747 0.10631 0.0
N2483 N 0.63023 0.02862 0.07267 0.0
H2484 H 0.00953 0.63684 0.06326 0.0
H2485 H 0.94238 0.55716 0.1047 0.0
H2486 H 0.96088 0.61003 0.04548 0.0
H2487 H 0.98871 0.58836 0.12628 0.0
H2488 H 0.94934 0.57549 0.08201 0.0
H2489 H 0.00246 0.61846 0.08572 0.0
C2490 C 0.99733 0.62712 0.06409 0.0
C2491 C 0.98578 0.62499 0.05244 0.0
C2492 C 0.958 0.5783 0.09169 0.0
C2493 C 0.97763 0.60379 0.07813 0.0
C2494 C 0.95406 0.56783 0.10457 0.0
C2495 C 0.96503 0.57122 0.11731 0.0
C2496 C 0.97305 0.59227 0.09152 0.0
C2497 C 0.97995 0.58525 0.11665 0.0
C2498 C 0.99331 0.61661 0.07694 0.0
C2499 C 0.97017 0.61217 0.05419 0.0
N2500 N 0.98353 0.59524 0.10397 0.0
N2501 N 0.96657 0.60202 0.06676 0.0
H2502 H 0.37678 0.38694 0.06397 0.0
H2503 H 0.45158 0.38539 0.10409 0.0
H2504 H 0.40046 0.3639 0.04133 0.0
H2505 H 0.42336 0.40192 0.12922 0.0
H2506 H 0.43442 0.37946 0.08004 0.0
H2507 H 0.39506 0.39439 0.08713 0.0
C2508 C 0.38583 0.38345 0.06384 0.0
C2509 C 0.38704 0.37473 0.05067 0.0
C2510 C 0.43203 0.38447 0.09078 0.0
C2511 C 0.40809 0.3833 0.0772 0.0
C2512 C 0.44186 0.38791 0.10445 0.0
C2513 C 0.43892 0.39423 0.11861 0.0
C2514 C 0.41917 0.38737 0.09126 0.0
C2515 C 0.42608 0.39714 0.11852 0.0
C2516 C 0.39627 0.3877 0.0771 0.0
C2517 C 0.39903 0.37056 0.05123 0.0
N2518 N 0.41668 0.39369 0.10507 0.0
N2519 N 0.40909 0.37489 0.06426 0.0
H2520 H 0.66964 0.70918 0.39305 0.0
H2521 H 0.59443 0.71401 0.42619 0.0
H2522 H 0.62363 0.68654 0.36882 0.0
H2523 H 0.64008 0.73549 0.45091 0.0
H2524 H 0.60463 0.70314 0.40543 0.0
H2525 H 0.65873 0.71806 0.41483 0.0
C2526 C 0.65721 0.70597 0.39235 0.0
C2527 C 0.64757 0.69714 0.37902 0.0
C2528 C 0.61244 0.71027 0.41537 0.0
C2529 C 0.635 0.7074 0.40393 0.0
C2530 C 0.60664 0.71651 0.42717 0.0
C2531 C 0.61653 0.72596 0.44007 0.0
C2532 C 0.62825 0.71339 0.41653 0.0
C2533 C 0.63215 0.72853 0.44098 0.0
C2534 C 0.65099 0.71108 0.4048 0.0
C2535 C 0.63153 0.69334 0.37882 0.0
N2536 N 0.63754 0.72237 0.42933 0.0
N2537 N 0.62578 0.69856 0.39104 0.0
H2538 H 0.31022 0.9345 0.38853 0.0
H2539 H 0.22754 0.87411 0.44512 0.0
H2540 H 0.27249 0.94478 0.39893 0.0
H2541 H 0.27965 0.87166 0.44457 0.0
H2542 H 0.24391 0.90125 0.42423 0.0
H2543 H 0.29821 0.91214 0.40727 0.0
C2544 C 0.29949 0.93213 0.39482 0.0
C2545 C 0.29233 0.9415 0.39212 0.0
C2546 C 0.24982 0.89496 0.42851 0.0
C2547 C 0.27849 0.91589 0.41333 0.0
C2548 C 0.23925 0.87766 0.44046 0.0
C2549 C 0.25281 0.87123 0.44944 0.0
C2550 C 0.27021 0.90182 0.42365 0.0
C2551 C 0.27209 0.87609 0.44005 0.0
C2552 C 0.29268 0.9194 0.40552 0.0
C2553 C 0.27844 0.9379 0.40065 0.0
N2554 N 0.27927 0.89207 0.4291 0.0
N2555 N 0.27187 0.92525 0.41073 0.0
H2556 H 0.04542 0.32639 0.39685 0.0
H2557 H 0.12222 0.40091 0.43845 0.0
H2558 H 0.06706 0.37482 0.3796 0.0
H2559 H 0.10083 0.35262 0.45582 0.0
H2560 H 0.10166 0.39163 0.41716 0.0
H2561 H 0.06505 0.33584 0.41901 0.0
C2562 C 0.05423 0.33902 0.39776 0.0
C2563 C 0.0546 0.34981 0.38628 0.0
C2564 C 0.10148 0.38303 0.42557 0.0
C2565 C 0.07718 0.36069 0.41161 0.0
C2566 C 0.11325 0.38832 0.43767 0.0
C2567 C 0.11342 0.37745 0.44868 0.0
C2568 C 0.0897 0.36676 0.42452 0.0
C2569 C 0.1013 0.36133 0.44737 0.0
C2570 C 0.06546 0.3444 0.41041 0.0
C2571 C 0.06631 0.36605 0.38811 0.0
N2572 N 0.08997 0.35646 0.43547 0.0
N2573 N 0.07715 0.37097 0.40049 0.0
H2574 H 0.05187 0.33909 0.29543 0.0
H2575 H 0.05677 0.26501 0.25638 0.0
H2576 H 0.02682 0.2913 0.31443 0.0
H2577 H 0.0796 0.31235 0.23644 0.0
H2578 H 0.04557 0.27425 0.27773 0.0
H2579 H 0.06193 0.32935 0.27366 0.0
C2580 C 0.04842 0.32652 0.29501 0.0
C2581 C 0.0385 0.31601 0.30684 0.0
C2582 C 0.05308 0.28264 0.26873 0.0
C2583 C 0.05008 0.30476 0.28188 0.0
C2584 C 0.05952 0.27738 0.2566 0.0
C2585 C 0.06941 0.28803 0.24485 0.0
C2586 C 0.05647 0.29863 0.26905 0.0
C2587 C 0.0723 0.30384 0.24545 0.0
C2588 C 0.05419 0.32096 0.28255 0.0
C2589 C 0.03444 0.29984 0.3056 0.0
N2590 N 0.06592 0.30867 0.25738 0.0
N2591 N 0.04029 0.29472 0.29338 0.0
H2592 H 0.66361 0.71971 0.29725 0.0
H2593 H 0.74822 0.79322 0.25156 0.0
H2594 H 0.71117 0.72903 0.30855 0.0
H2595 H 0.6937 0.79075 0.25372 0.0
H2596 H 0.73412 0.76584 0.27239 0.0
H2597 H 0.67499 0.74252 0.27908 0.0
C2598 C 0.67642 0.72645 0.29581 0.0
C2599 C 0.68647 0.72252 0.30452 0.0
C2600 C 0.7273 0.77132 0.26845 0.0
C2601 C 0.69946 0.7485 0.28375 0.0
C2602 C 0.73648 0.78883 0.25658 0.0
C2603 C 0.7216 0.79369 0.24807 0.0
C2604 C 0.70674 0.76277 0.27361 0.0
C2605 C 0.70205 0.78713 0.25783 0.0
C2606 C 0.68289 0.7395 0.28551 0.0
C2607 C 0.703 0.73171 0.30218 0.0
N2608 N 0.69624 0.77117 0.26857 0.0
N2609 N 0.70899 0.74429 0.29197 0.0
H2610 H 0.28767 0.95243 0.30321 0.0
H2611 H 0.20903 0.94851 0.26626 0.0
H2612 H 0.26394 0.9754 0.32591 0.0
H2613 H 0.23453 0.92801 0.24256 0.0
H2614 H 0.22903 0.9586 0.2882 0.0
H2615 H 0.26843 0.94364 0.28081 0.0
C2616 C 0.27845 0.9557 0.30347 0.0
C2617 C 0.27741 0.96465 0.31652 0.0
C2618 C 0.23023 0.95184 0.27824 0.0
C2619 C 0.25523 0.9545 0.29086 0.0
C2620 C 0.21878 0.94603 0.26577 0.0
C2621 C 0.21993 0.9371 0.25278 0.0
C2622 C 0.24299 0.9488 0.27767 0.0
C2623 C 0.23302 0.93456 0.25252 0.0
C2624 C 0.26745 0.95065 0.29065 0.0
C2625 C 0.26521 0.96852 0.31613 0.0
N2626 N 0.24398 0.9403 0.26482 0.0
N2627 N 0.25456 0.96337 0.30354 0.0
H2628 H 0.71445 0.97979 0.3215 0.0
H2629 H 0.69145 0.90636 0.2602 0.0
H2630 H 0.66619 0.946 0.30604 0.0
H2631 H 0.73945 0.94631 0.26483 0.0
H2632 H 0.68229 0.92038 0.2781 0.0
H2633 H 0.72424 0.96748 0.3018 0.0
C2634 C 0.70592 0.96986 0.31394 0.0
C2635 C 0.68946 0.96389 0.31548 0.0
C2636 C 0.6948 0.9262 0.27507 0.0
C2637 C 0.70056 0.94974 0.29307 0.0
C2638 C 0.70003 0.91822 0.26478 0.0
C2639 C 0.71619 0.92539 0.26065 0.0
C2640 C 0.70583 0.94134 0.28163 0.0
C2641 C 0.72685 0.94054 0.26745 0.0
C2642 C 0.71152 0.96287 0.30269 0.0
C2643 C 0.67897 0.95101 0.30533 0.0
N2644 N 0.7215 0.94802 0.27764 0.0
N2645 N 0.68469 0.94432 0.29466 0.0
H2646 H 0.04191 0.70575 0.2898 0.0
H2647 H 0.04964 0.78422 0.24895 0.0
H2648 H 0.02152 0.73298 0.31017 0.0
H2649 H 0.06531 0.75384 0.22643 0.0
H2650 H 0.04021 0.76628 0.27208 0.0
H2651 H 0.05133 0.72379 0.26695 0.0
C2652 C 0.03937 0.71549 0.28947 0.0
C2653 C 0.0309 0.71783 0.30196 0.0
C2654 C 0.04576 0.76357 0.26211 0.0
C2655 C 0.04176 0.73864 0.27579 0.0
C2656 C 0.0512 0.77383 0.24897 0.0
C2657 C 0.05841 0.77058 0.23586 0.0
C2658 C 0.04752 0.74993 0.26213 0.0
C2659 C 0.05996 0.75686 0.23636 0.0
C2660 C 0.04476 0.72581 0.2764 0.0
C2661 C 0.02797 0.73068 0.30082 0.0
N2662 N 0.05459 0.74706 0.24928 0.0
N2663 N 0.03343 0.74063 0.288 0.0
H2664 H 0.26462 0.29132 0.31606 0.0
H2665 H 0.24803 0.3124 0.22724 0.0
H2666 H 0.28997 0.33868 0.29609 0.0
H2667 H 0.21848 0.26658 0.24903 0.0
H2668 H 0.2634 0.32224 0.25256 0.0
H2669 H 0.24754 0.28191 0.29175 0.0
C2670 C 0.26659 0.29975 0.3066 0.0
C2671 C 0.2788 0.31582 0.30813 0.0
C2672 C 0.25348 0.31006 0.25188 0.0
C2673 C 0.2593 0.30511 0.28026 0.0
C2674 C 0.24469 0.30447 0.23744 0.0
C2675 C 0.23193 0.28869 0.23608 0.0
C2676 C 0.24961 0.29976 0.26505 0.0
C2677 C 0.2282 0.27886 0.24962 0.0
C2678 C 0.25681 0.29438 0.29274 0.0
C2679 C 0.28074 0.32619 0.29548 0.0
N2680 N 0.23705 0.28452 0.26352 0.0
N2681 N 0.27116 0.32065 0.28208 0.0
H2682 H 0.30883 0.37626 0.37954 0.0
H2683 H 0.2727 0.35929 0.46867 0.0
H2684 H 0.28649 0.32957 0.40111 0.0
H2685 H 0.28788 0.4038 0.44433 0.0
H2686 H 0.278 0.34828 0.44411 0.0
H2687 H 0.30183 0.38678 0.40333 0.0
C2688 C 0.30246 0.36821 0.38926 0.0
C2689 C 0.29827 0.35199 0.38831 0.0
C2690 C 0.28007 0.36042 0.44408 0.0
C2691 C 0.29023 0.36399 0.4156 0.0
C2692 C 0.27701 0.36668 0.45808 0.0
C2693 C 0.2798 0.38244 0.45849 0.0
C2694 C 0.28613 0.37004 0.43041 0.0
C2695 C 0.28553 0.39157 0.44447 0.0
C2696 C 0.29842 0.37423 0.40282 0.0
C2697 C 0.28997 0.34214 0.40128 0.0
N2698 N 0.28858 0.38527 0.43103 0.0
N2699 N 0.28628 0.34831 0.41439 0.0
H2700 H 0.67499 0.96307 0.40462 0.0
H2701 H 0.60018 0.88505 0.44042 0.0
H2702 H 0.62826 0.93868 0.38184 0.0
H2703 H 0.64542 0.91183 0.46559 0.0
H2704 H 0.61055 0.90423 0.41843 0.0
H2705 H 0.66459 0.94427 0.42689 0.0
C2706 C 0.66253 0.95383 0.40433 0.0
C2707 C 0.6525 0.95246 0.3913 0.0
C2708 C 0.61825 0.9059 0.42873 0.0
C2709 C 0.64056 0.93081 0.41671 0.0
C2710 C 0.61235 0.89491 0.44122 0.0
C2711 C 0.62203 0.89677 0.45473 0.0
C2712 C 0.63394 0.91888 0.42975 0.0
C2713 C 0.63763 0.90988 0.4553 0.0
C2714 C 0.65661 0.94308 0.41704 0.0
C2715 C 0.63646 0.94022 0.39161 0.0
N2716 N 0.64312 0.92042 0.44298 0.0
N2717 N 0.63102 0.92985 0.40406 0.0
H2718 H 0.04436 0.72288 0.3896 0.0
H2719 H 0.11671 0.71953 0.43333 0.0
H2720 H 0.05898 0.68859 0.3764 0.0
H2721 H 0.109 0.75988 0.4372 0.0
H2722 H 0.09316 0.70582 0.41543 0.0
H2723 H 0.0655 0.73427 0.41028 0.0
C2724 C 0.05192 0.71765 0.39113 0.0
C2725 C 0.04995 0.70482 0.38115 0.0
C2726 C 0.09653 0.7176 0.42036 0.0
C2727 C 0.0742 0.71784 0.40482 0.0
C2728 C 0.10989 0.72537 0.43062 0.0
C2729 C 0.11462 0.74071 0.43703 0.0
C2730 C 0.08786 0.72525 0.41643 0.0
C2731 C 0.1056 0.74793 0.43282 0.0
C2732 C 0.06403 0.7242 0.4029 0.0
C2733 C 0.06012 0.69854 0.38373 0.0
N2734 N 0.09265 0.74013 0.42282 0.0
N2735 N 0.07184 0.70514 0.39528 0.0
H2736 H 0.31382 0.02689 0.7344 0.0
H2737 H 0.26654 0.07922 0.75394 0.0
H2738 H 0.28661 0.03388 0.69711 0.0
H2739 H 0.26966 0.04084 0.79483 0.0
H2740 H 0.27677 0.06399 0.73019 0.0
H2741 H 0.3004 0.03462 0.75493 0.0
C2742 C 0.30495 0.02994 0.73058 0.0
C2743 C 0.30123 0.02971 0.71409 0.0
C2744 C 0.27482 0.06006 0.74259 0.0
C2745 C 0.28632 0.03886 0.73729 0.0
C2746 C 0.26765 0.0689 0.75684 0.0
C2747 C 0.26933 0.06339 0.77795 0.0
C2748 C 0.27936 0.04511 0.74904 0.0
C2749 C 0.26962 0.04468 0.7826 0.0
C2750 C 0.29729 0.03425 0.74225 0.0
C2751 C 0.28969 0.03379 0.70972 0.0
N2752 N 0.27615 0.03847 0.76757 0.0
N2753 N 0.28283 0.03851 0.72125 0.0
H2754 H 0.95047 0.28336 0.72505 0.0
H2755 H 0.94681 0.20572 0.76338 0.0
H2756 H 0.97497 0.26011 0.70477 0.0
H2757 H 0.92442 0.23076 0.78426 0.0
H2758 H 0.9572 0.22532 0.7417 0.0
H2759 H 0.94085 0.26407 0.74674 0.0
C2760 C 0.95387 0.27422 0.72516 0.0
C2761 C 0.96354 0.27336 0.71301 0.0
C2762 C 0.94995 0.22649 0.75098 0.0
C2763 C 0.95246 0.25111 0.73792 0.0
C2764 C 0.94398 0.21528 0.7633 0.0
C2765 C 0.93446 0.21643 0.77542 0.0
C2766 C 0.94648 0.23902 0.75085 0.0
C2767 C 0.93145 0.22925 0.77497 0.0
C2768 C 0.94835 0.26318 0.73758 0.0
C2769 C 0.96755 0.26123 0.71386 0.0
N2770 N 0.93738 0.23999 0.76286 0.0
N2771 N 0.96195 0.25055 0.72608 0.0
H2772 H 0.72721 0.70748 0.71044 0.0
H2773 H 0.76463 0.68613 0.78632 0.0
H2774 H 0.70921 0.65932 0.72735 0.0
H2775 H 0.78384 0.73381 0.76782 0.0
H2776 H 0.74361 0.67615 0.76543 0.0
H2777 H 0.7473 0.71745 0.73213 0.0
C2778 C 0.72742 0.69899 0.71875 0.0
C2779 C 0.71651 0.68251 0.71701 0.0
C2780 C 0.75246 0.68879 0.76588 0.0
C2781 C 0.73958 0.69389 0.74189 0.0
C2782 C 0.76449 0.69446 0.77775 0.0
C2783 C 0.7762 0.71076 0.77855 0.0
C2784 C 0.75203 0.69951 0.75483 0.0
C2785 C 0.77522 0.72111 0.76743 0.0
C2786 C 0.73893 0.70471 0.73113 0.0
C2787 C 0.71738 0.67212 0.72819 0.0
N2788 N 0.76339 0.71531 0.75599 0.0
N2789 N 0.72874 0.67797 0.74011 0.0
H2790 H 0.71303 0.67296 0.62676 0.0
H2791 H 0.71797 0.60008 0.58454 0.0
H2792 H 0.68825 0.62453 0.64417 0.0
H2793 H 0.74243 0.64841 0.56706 0.0
H2794 H 0.70669 0.60872 0.60631 0.0
H2795 H 0.72349 0.66408 0.60455 0.0
C2796 C 0.70972 0.66044 0.62589 0.0
C2797 C 0.69975 0.64949 0.6374 0.0
C2798 C 0.71459 0.61746 0.59777 0.0
C2799 C 0.71179 0.63925 0.61197 0.0
C2800 C 0.72107 0.61255 0.5854 0.0
C2801 C 0.73141 0.62362 0.5742 0.0
C2802 C 0.71836 0.63356 0.59889 0.0
C2803 C 0.73475 0.63956 0.57563 0.0
C2804 C 0.71573 0.65538 0.61319 0.0
C2805 C 0.69589 0.63341 0.6356 0.0
N2806 N 0.72828 0.64406 0.58777 0.0
N2807 N 0.70195 0.62879 0.62317 0.0
H2808 H 0.32483 0.04375 0.6258 0.0
H2809 H 0.39774 0.12687 0.59636 0.0
H2810 H 0.36822 0.07157 0.6539 0.0
H2811 H 0.35351 0.09955 0.56957 0.0
H2812 H 0.38744 0.10664 0.61743 0.0
H2813 H 0.33546 0.0639 0.6049 0.0
C2814 C 0.33662 0.05408 0.62758 0.0
C2815 C 0.34563 0.05595 0.64167 0.0
C2816 C 0.37996 0.10511 0.60698 0.0
C2817 C 0.3579 0.07916 0.6177 0.0
C2818 C 0.38581 0.11667 0.595 0.0
C2819 C 0.37635 0.11502 0.58136 0.0
C2820 C 0.36457 0.09172 0.60525 0.0
C2821 C 0.36109 0.1014 0.58002 0.0
C2822 C 0.34268 0.06561 0.61562 0.0
C2823 C 0.36084 0.06962 0.64326 0.0
N2824 N 0.35568 0.09031 0.59182 0.0
N2825 N 0.36649 0.08071 0.63142 0.0
H2826 H 0.95635 0.27835 0.62288 0.0
H2827 H 0.88212 0.2804 0.58193 0.0
H2828 H 0.93544 0.30539 0.64253 0.0
H2829 H 0.90287 0.25334 0.56216 0.0
H2830 H 0.90194 0.2901 0.60397 0.0
H2831 H 0.93731 0.26955 0.60022 0.0
C2832 C 0.94781 0.2825 0.62241 0.0
C2833 C 0.94749 0.2926 0.63468 0.0
C2834 C 0.90213 0.28199 0.59486 0.0
C2835 C 0.9256 0.28251 0.60876 0.0
C2836 C 0.89079 0.27641 0.58233 0.0
C2837 C 0.89065 0.26578 0.57042 0.0
C2838 C 0.91353 0.27701 0.59545 0.0
C2839 C 0.90238 0.26128 0.57128 0.0
C2840 C 0.93692 0.27744 0.60947 0.0
C2841 C 0.93613 0.29758 0.63339 0.0
N2842 N 0.9133 0.26686 0.58362 0.0
N2843 N 0.92563 0.29245 0.6207 0.0
H2844 H 0.37545 0.30968 0.64688 0.0
H2845 H 0.35623 0.27175 0.55698 0.0
H2846 H 0.32906 0.28927 0.62368 0.0
H2847 H 0.40083 0.28664 0.58205 0.0
H2848 H 0.3461 0.27816 0.58137 0.0
H2849 H 0.38512 0.30164 0.62323 0.0
C2850 C 0.36729 0.30352 0.63683 0.0
C2851 C 0.35141 0.30018 0.63728 0.0
C2852 C 0.35806 0.27992 0.5816 0.0
C2853 C 0.36243 0.29094 0.61016 0.0
C2854 C 0.36382 0.27622 0.5677 0.0
C2855 C 0.37934 0.27858 0.56755 0.0
C2856 C 0.36795 0.28619 0.59544 0.0
C2857 C 0.38876 0.28457 0.58171 0.0
C2858 C 0.37282 0.29889 0.62334 0.0
C2859 C 0.34139 0.29212 0.6239 0.0
N2860 N 0.38294 0.28824 0.59506 0.0
N2861 N 0.34708 0.28782 0.61089 0.0
H2862 H 0.70248 0.07981 0.64097 0.0
H2863 H 0.73039 0.09336 0.54879 0.0
H2864 H 0.72156 0.05319 0.61655 0.0
H2865 H 0.71798 0.12451 0.57515 0.0
H2866 H 0.72743 0.07863 0.5736 0.0
H2867 H 0.70809 0.09637 0.61708 0.0
C2868 C 0.70789 0.07747 0.63062 0.0
C2869 C 0.7115 0.06504 0.63078 0.0
C2870 C 0.72548 0.08876 0.57402 0.0
C2871 C 0.71792 0.08394 0.60334 0.0
C2872 C 0.7272 0.09719 0.55987 0.0
C2873 C 0.72448 0.1102 0.55996 0.0
C2874 C 0.72082 0.09327 0.58835 0.0
C2875 C 0.72023 0.11458 0.57461 0.0
C2876 C 0.71112 0.08695 0.61698 0.0
C2877 C 0.71855 0.06261 0.61699 0.0
N2878 N 0.71844 0.10608 0.58819 0.0
N2879 N 0.72145 0.07191 0.60383 0.0
H2880 H 0.95333 0.67492 0.62113 0.0
H2881 H 0.87843 0.59921 0.57853 0.0
H2882 H 0.92699 0.62867 0.64326 0.0
H2883 H 0.90891 0.64325 0.55413 0.0
H2884 H 0.89456 0.6106 0.60328 0.0
H2885 H 0.93575 0.66426 0.59734 0.0
C2886 C 0.94383 0.66253 0.62102 0.0
C2887 C 0.94169 0.65267 0.63422 0.0
C2888 C 0.89767 0.61782 0.59255 0.0
C2889 C 0.92146 0.64039 0.60698 0.0
C2890 C 0.88843 0.61135 0.57847 0.0
C2891 C 0.89231 0.62035 0.56432 0.0
C2892 C 0.9109 0.6334 0.59249 0.0
C2893 C 0.90547 0.63595 0.56482 0.0
C2894 C 0.9338 0.65645 0.60741 0.0
C2895 C 0.92915 0.63671 0.63336 0.0
N2896 N 0.9143 0.64198 0.57866 0.0
N2897 N 0.91952 0.63107 0.61997 0.0
H2898 H 0.97136 0.71454 0.70494 0.0
H2899 H 0.93787 0.69899 0.79511 0.0
H2900 H 0.94869 0.66805 0.72693 0.0
H2901 H 0.95237 0.74323 0.77045 0.0
H2902 H 0.94202 0.68755 0.77022 0.0
H2903 H 0.96498 0.72551 0.72886 0.0
C2904 C 0.96502 0.70663 0.71476 0.0
C2905 C 0.96059 0.69035 0.71391 0.0
C2906 C 0.9442 0.69972 0.77019 0.0
C2907 C 0.9533 0.70284 0.74134 0.0
C2908 C 0.9418 0.70624 0.78439 0.0
C2909 C 0.94477 0.72206 0.78482 0.0
C2910 C 0.94978 0.70915 0.75633 0.0
C2911 C 0.94994 0.73097 0.7706 0.0
C2912 C 0.96135 0.71289 0.7284 0.0
C2913 C 0.95235 0.68067 0.72701 0.0
N2914 N 0.95238 0.72443 0.75696 0.0
N2915 N 0.94905 0.68707 0.74019 0.0
H2916 H 0.33744 0.29204 0.72944 0.0
H2917 H 0.26081 0.21619 0.76582 0.0
H2918 H 0.29126 0.26807 0.70552 0.0
H2919 H 0.3049 0.24458 0.7925 0.0
H2920 H 0.27245 0.23358 0.74255 0.0
H2921 H 0.32634 0.27339 0.75171 0.0
C2922 C 0.32496 0.28285 0.72884 0.0
C2923 C 0.31526 0.28167 0.71558 0.0
C2924 C 0.27962 0.23595 0.75346 0.0
C2925 C 0.30249 0.26021 0.74107 0.0
C2926 C 0.273 0.22599 0.76669 0.0
C2927 C 0.28195 0.22891 0.78105 0.0
C2928 C 0.2953 0.24894 0.7546 0.0
C2929 C 0.29764 0.24186 0.78162 0.0
C2930 C 0.31864 0.27221 0.74158 0.0
C2931 C 0.29918 0.26949 0.71551 0.0
N2932 N 0.30381 0.2514 0.7686 0.0
N2933 N 0.29331 0.25924 0.72805 0.0
H2934 H 0.72239 0.05806 0.72269 0.0
H2935 H 0.79169 0.04813 0.76468 0.0
H2936 H 0.7448 0.03414 0.69918 0.0
H2937 H 0.76182 0.06221 0.79043 0.0
H2938 H 0.77718 0.04622 0.73951 0.0
H2939 H 0.73929 0.06292 0.74652 0.0
C2940 C 0.73093 0.05389 0.72248 0.0
C2941 C 0.7321 0.04559 0.7089 0.0
C2942 C 0.77387 0.04982 0.75065 0.0
C2943 C 0.75154 0.05116 0.73627 0.0
C2944 C 0.78217 0.05096 0.76497 0.0
C2945 C 0.77791 0.0553 0.77964 0.0
C2946 C 0.76128 0.05313 0.75099 0.0
C2947 C 0.76548 0.05882 0.77939 0.0
C2948 C 0.74056 0.05665 0.73614 0.0
C2949 C 0.74342 0.04052 0.70939 0.0
N2950 N 0.75759 0.05764 0.76532 0.0
N2951 N 0.75269 0.04336 0.72287 0.0
H2952 H 0.02447 0.31049 0.02173 0.0
H2953 H 0.1141 0.32514 0.06125 0.0
H2954 H 0.06643 0.35678 0.03018 0.0
H2955 H 0.061 0.27136 0.05859 0.0
H2956 H 0.09678 0.33838 0.04515 0.0
H2957 H 0.03915 0.2977 0.03196 0.0
C2958 C 0.0368 0.31795 0.0256 0.0
C2959 C 0.04422 0.33473 0.02514 0.0
C2960 C 0.09092 0.32576 0.04786 0.0
C2961 C 0.061 0.3202 0.03682 0.0
C2962 C 0.10197 0.3176 0.05688 0.0
C2963 C 0.08867 0.29692 0.06414 0.0
C2964 C 0.07004 0.31304 0.04369 0.0
C2965 C 0.06849 0.28371 0.05517 0.0
C2966 C 0.04513 0.31065 0.03149 0.0
C2967 C 0.06021 0.34381 0.03037 0.0
N2968 N 0.06089 0.29377 0.04705 0.0
N2969 N 0.06807 0.33642 0.036 0.0
H2970 H 0.6446 0.69287 0.05158 0.0
H2971 H 0.73469 0.7808 0.06514 0.0
H2972 H 0.6879 0.70212 0.0277 0.0
H2973 H 0.68489 0.76175 0.10061 0.0
H2974 H 0.71681 0.7502 0.04831 0.0
H2975 H 0.65947 0.71862 0.06603 0.0
C2976 C 0.65721 0.70037 0.04927 0.0
C2977 C 0.66503 0.69529 0.03846 0.0
C2978 C 0.71168 0.7532 0.05843 0.0
C2979 C 0.68208 0.72472 0.05501 0.0
C2980 C 0.72322 0.77161 0.06937 0.0
C2981 C 0.71075 0.77588 0.08341 0.0
C2982 C 0.69149 0.73992 0.06414 0.0
C2983 C 0.69173 0.75963 0.09158 0.0
C2984 C 0.66569 0.71502 0.05759 0.0
C2985 C 0.68141 0.70553 0.03598 0.0
N2986 N 0.68354 0.74371 0.07985 0.0
N2987 N 0.68942 0.71979 0.04422 0.0
H2988 H 0.29621 0.94246 0.03106 0.0
H2989 H 0.22485 0.95235 0.06713 0.0
H2990 H 0.2939 0.98595 0.02752 0.0
H2991 H 0.22458 0.90743 0.06504 0.0
H2992 H 0.25034 0.96506 0.05299 0.0
H2993 H 0.27004 0.92949 0.04362 0.0
C2994 C 0.29015 0.94926 0.03281 0.0
C2995 C 0.29728 0.96534 0.02826 0.0
C2996 C 0.24475 0.95244 0.05568 0.0
C2997 C 0.26734 0.95058 0.04282 0.0
C2998 C 0.23027 0.94522 0.06384 0.0
C2999 C 0.22281 0.92892 0.06763 0.0
C3000 C 0.25179 0.94326 0.0512 0.0
C3001 C 0.23012 0.92011 0.0627 0.0
C3002 C 0.2752 0.94184 0.04002 0.0
C3003 C 0.28885 0.97353 0.03083 0.0
N3004 N 0.24423 0.92741 0.05483 0.0
N3005 N 0.27437 0.96609 0.03803 0.0
H3006 H 0.31148 0.02144 0.99203 0.0
H3007 H 0.32554 0.10286 0.95236 0.0
H3008 H 0.35776 0.06384 0.98803 0.0
H3009 H 0.2803 0.05885 0.95079 0.0
H3010 H 0.33722 0.08921 0.96699 0.0
H3011 H 0.29943 0.03549 0.97879 0.0
C3012 C 0.31909 0.03374 0.9885 0.0
C3013 C 0.33566 0.04146 0.9911 0.0
C3014 C 0.32477 0.08249 0.96336 0.0
C3015 C 0.32196 0.05757 0.97586 0.0
C3016 C 0.31812 0.09026 0.95493 0.0
C3017 C 0.30203 0.08185 0.94998 0.0
C3018 C 0.31521 0.06623 0.96709 0.0
C3019 C 0.29284 0.06566 0.95408 0.0
C3020 C 0.31221 0.04173 0.98087 0.0
C3021 C 0.34494 0.0574 0.98623 0.0
N3022 N 0.29956 0.05837 0.96236 0.0
N3023 N 0.33797 0.0649 0.97882 0.0
H3024 H 0.98281 0.28846 0.9958 0.0
H3025 H 0.9182 0.23393 0.91712 0.0
H3026 H 0.94978 0.30034 0.97322 0.0
H3027 H 0.947 0.21339 0.95423 0.0
H3028 H 0.93251 0.26237 0.93777 0.0
H3029 H 0.97039 0.26306 0.98026 0.0
C3030 C 0.97286 0.28567 0.98772 0.0
C3031 C 0.96735 0.29656 0.98578 0.0
C3032 C 0.93475 0.25263 0.94003 0.0
C3033 C 0.95334 0.26776 0.96786 0.0
C3034 C 0.92672 0.23569 0.92661 0.0
C3035 C 0.92899 0.21907 0.93497 0.0
C3036 C 0.94651 0.25339 0.95722 0.0
C3037 C 0.94493 0.22278 0.94998 0.0
C3038 C 0.96579 0.27119 0.97887 0.0
C3039 C 0.95441 0.29231 0.97512 0.0
N3040 N 0.95092 0.2393 0.9605 0.0
N3041 N 0.94797 0.27833 0.96642 0.0
H3042 H 0.69876 0.63693 0.9832 0.0
H3043 H 0.77282 0.72039 0.95661 0.0
H3044 H 0.70298 0.68278 0.99478 0.0
H3045 H 0.77286 0.67561 0.95476 0.0
H3046 H 0.74648 0.70668 0.96906 0.0
H3047 H 0.72524 0.65075 0.97128 0.0
C3048 C 0.70528 0.64991 0.98329 0.0
C3049 C 0.69864 0.65871 0.99 0.0
C3050 C 0.75221 0.69984 0.96585 0.0
C3051 C 0.72893 0.67462 0.97624 0.0
C3052 C 0.76717 0.70763 0.95866 0.0
C3053 C 0.77484 0.69905 0.95426 0.0
C3054 C 0.74487 0.68334 0.96872 0.0
C3055 C 0.7672 0.68262 0.95758 0.0
C3056 C 0.72041 0.65779 0.97649 0.0
C3057 C 0.70765 0.67552 0.98977 0.0
N3058 N 0.75261 0.67529 0.96452 0.0
N3059 N 0.7223 0.68293 0.98293 0.0
H3060 H 0.9827 0.69236 0.99622 0.0
H3061 H 0.90027 0.68621 0.96944 0.0
H3062 H 0.93844 0.64747 0.99132 0.0
H3063 H 0.94603 0.72852 0.96274 0.0
H3064 H 0.91382 0.67213 0.97904 0.0
H3065 H 0.96922 0.70628 0.98593 0.0
C3066 C 0.97013 0.68543 0.99306 0.0
C3067 C 0.96168 0.66872 0.99464 0.0
C3068 C 0.92092 0.68448 0.97541 0.0
C3069 C 0.9462 0.68457 0.98283 0.0
C3070 C 0.91318 0.6925 0.96991 0.0
C3071 C 0.92205 0.70857 0.96533 0.0
C3072 C 0.93765 0.69261 0.9765 0.0
C3073 C 0.93876 0.71616 0.96621 0.0
C3074 C 0.96246 0.69338 0.98711 0.0
C3075 C 0.94542 0.66036 0.99029 0.0
N3076 N 0.94603 0.70815 0.97179 0.0
N3077 N 0.93821 0.66838 0.98463 0.0
H3078 H 0.36321 0.31497 0.97435 0.0
H3079 H 0.28205 0.23202 0.95929 0.0
H3080 H 0.3189 0.30478 0.99655 0.0
H3081 H 0.32217 0.25023 0.92722 0.0
H3082 H 0.29628 0.25674 0.97586 0.0
H3083 H 0.34931 0.28912 0.96004 0.0
C3084 C 0.35057 0.30724 0.97634 0.0
C3085 C 0.34219 0.31209 0.98662 0.0
C3086 C 0.30198 0.25522 0.96526 0.0
C3087 C 0.32619 0.28244 0.9702 0.0
C3088 C 0.29392 0.24113 0.95588 0.0
C3089 C 0.30108 0.23889 0.94209 0.0
C3090 C 0.31732 0.26715 0.96083 0.0
C3091 C 0.31633 0.25124 0.93795 0.0
C3092 C 0.34263 0.2925 0.96809 0.0
C3093 C 0.32581 0.30154 0.98869 0.0
N3094 N 0.32396 0.26477 0.94733 0.0
N3095 N 0.31832 0.2872 0.98053 0.0
H3096 H 0.70607 0.06322 0.99828 0.0
H3097 H 0.77716 0.05517 0.95865 0.0
H3098 H 0.70684 0.01878 0.99632 0.0
H3099 H 0.78018 0.10047 0.97004 0.0
H3100 H 0.7506 0.0413 0.9707 0.0
H3101 H 0.73265 0.07687 0.98659 0.0
C3102 C 0.71187 0.05635 0.99549 0.0
C3103 C 0.70422 0.03983 0.9983 0.0
C3104 C 0.75706 0.05428 0.97053 0.0
C3105 C 0.73461 0.05537 0.98471 0.0
C3106 C 0.77216 0.06216 0.9636 0.0
C3107 C 0.78083 0.07898 0.96329 0.0
C3108 C 0.75056 0.06327 0.97714 0.0
C3109 C 0.77387 0.0875 0.96994 0.0
C3110 C 0.72705 0.06415 0.98879 0.0
C3111 C 0.71232 0.03154 0.99441 0.0
N3112 N 0.75915 0.07956 0.97656 0.0
N3113 N 0.72704 0.03938 0.98773 0.0
H3114 H 0.64278 0.93852 0.02877 0.0
H3115 H 0.72054 0.94207 0.06746 0.0
H3116 H 0.68855 0.98195 0.03191 0.0
H3117 H 0.67811 0.898 0.05347 0.0
H3118 H 0.70843 0.95717 0.05658 0.0
H3119 H 0.65503 0.92366 0.03959 0.0
C3120 C 0.65543 0.94492 0.03166 0.0
C3121 C 0.66466 0.9615 0.02941 0.0
C3122 C 0.70177 0.9442 0.05592 0.0
C3123 C 0.67873 0.94458 0.04199 0.0
C3124 C 0.70865 0.9356 0.06218 0.0
C3125 C 0.7003 0.91878 0.06137 0.0
C3126 C 0.6864 0.93591 0.04891 0.0
C3127 C 0.68494 0.91096 0.05438 0.0
C3128 C 0.66241 0.93643 0.03785 0.0
C3129 C 0.681 0.96917 0.03339 0.0
N3130 N 0.67848 0.91958 0.04845 0.0
N3131 N 0.6875 0.96066 0.03957 0.0
H3132 H 0.0163 0.70911 0.02926 0.0
H3133 H 0.10046 0.78498 0.05419 0.0
H3134 H 0.05982 0.70717 0.03317 0.0
H3135 H 0.05556 0.78321 0.06199 0.0
H3136 H 0.08597 0.75694 0.04493 0.0
H3137 H 0.0307 0.73688 0.03936 0.0
C3138 C 0.0289 0.71454 0.03218 0.0
C3139 C 0.03688 0.7058 0.03036 0.0
C3140 C 0.07927 0.76265 0.04873 0.0
C3141 C 0.05341 0.73757 0.04193 0.0
C3142 C 0.08753 0.77864 0.05403 0.0
C3143 C 0.07919 0.78642 0.05882 0.0
C3144 C 0.06252 0.7544 0.04805 0.0
C3145 C 0.06244 0.77765 0.05834 0.0
C3146 C 0.03708 0.73037 0.03802 0.0
C3147 C 0.05319 0.71344 0.0344 0.0
N3148 N 0.05465 0.76214 0.05295 0.0
N3149 N 0.06092 0.7289 0.03994 0.0
H3150 H 0.30536 0.37068 0.03675 0.0
H3151 H 0.22863 0.28759 0.05961 0.0
H3152 H 0.30192 0.32475 0.02786 0.0
H3153 H 0.22819 0.33197 0.05548 0.0
H3154 H 0.25653 0.30133 0.05105 0.0
H3155 H 0.278 0.35696 0.04652 0.0
C3156 C 0.29884 0.3577 0.03684 0.0
C3157 C 0.30592 0.34885 0.03143 0.0
C3158 C 0.25033 0.30805 0.05205 0.0
C3159 C 0.27462 0.33306 0.04273 0.0
C3160 C 0.23445 0.30024 0.05697 0.0
C3161 C 0.22608 0.30864 0.05815 0.0
C3162 C 0.25793 0.32442 0.04845 0.0
C3163 C 0.23419 0.32504 0.05468 0.0
C3164 C 0.28322 0.34988 0.04241 0.0
C3165 C 0.2969 0.33205 0.03184 0.0
N3166 N 0.24965 0.33238 0.04999 0.0
N3167 N 0.28173 0.32469 0.03745 0.0
H3168 H 0.73043 0.70265 0.36278 0.0
H3169 H 0.74306 0.62405 0.39213 0.0
H3170 H 0.69263 0.65337 0.35831 0.0
H3171 H 0.78776 0.68089 0.378 0.0
H3172 H 0.72123 0.63428 0.3807 0.0
H3173 H 0.7488 0.6935 0.37094 0.0
C3174 C 0.72598 0.68989 0.36354 0.0
C3175 C 0.70998 0.67875 0.35981 0.0
C3176 C 0.73399 0.6423 0.38038 0.0
C3177 C 0.73096 0.66824 0.36924 0.0
C3178 C 0.74727 0.63552 0.3865 0.0
C3179 C 0.7682 0.65244 0.38875 0.0
C3180 C 0.74193 0.66255 0.37402 0.0
C3181 C 0.77545 0.67135 0.37758 0.0
C3182 C 0.7365 0.68469 0.36814 0.0
C3183 C 0.7049 0.66235 0.36099 0.0
N3184 N 0.76116 0.67484 0.37271 0.0
N3185 N 0.71536 0.65756 0.36573 0.0
H3186 H 0.30304 0.02288 0.39507 0.0
H3187 H 0.39355 0.11056 0.40771 0.0
H3188 H 0.34638 0.03134 0.37185 0.0
H3189 H 0.34369 0.09294 0.44276 0.0
H3190 H 0.37543 0.07966 0.39153 0.0
H3191 H 0.318 0.04887 0.40911 0.0
C3192 C 0.31568 0.03023 0.39284 0.0
C3193 C 0.32348 0.02488 0.3823 0.0
C3194 C 0.37032 0.08299 0.40142 0.0
C3195 C 0.34061 0.05461 0.39836 0.0
C3196 C 0.382 0.10158 0.41199 0.0
C3197 C 0.36965 0.10639 0.42565 0.0
C3198 C 0.35006 0.07003 0.40714 0.0
C3199 C 0.35049 0.0905 0.43395 0.0
C3200 C 0.32421 0.04504 0.40092 0.0
C3201 C 0.3399 0.03495 0.37991 0.0
N3202 N 0.34216 0.07432 0.42256 0.0
N3203 N 0.34794 0.04937 0.38789 0.0
H3204 H 0.97173 0.27497 0.36833 0.0
H3205 H 0.89767 0.28419 0.39648 0.0
H3206 H 0.96987 0.31848 0.36245 0.0
H3207 H 0.89612 0.23873 0.39213 0.0
H3208 H 0.92472 0.29743 0.38559 0.0
H3209 H 0.94458 0.26189 0.37854 0.0
C3210 C 0.96559 0.28177 0.36913 0.0
C3211 C 0.9731 0.29786 0.36453 0.0
C3212 C 0.91849 0.28457 0.3871 0.0
C3213 C 0.94198 0.28295 0.37635 0.0
C3214 C 0.90312 0.27704 0.3934 0.0
C3215 C 0.8948 0.26041 0.39561 0.0
C3216 C 0.9256 0.27539 0.38292 0.0
C3217 C 0.90223 0.25163 0.39102 0.0
C3218 C 0.95006 0.27428 0.37495 0.0
C3219 C 0.96453 0.30605 0.36582 0.0
N3220 N 0.91723 0.25923 0.38499 0.0
N3221 N 0.94945 0.29853 0.3717 0.0
H3222 H 0.99998 0.36556 0.3166 0.0
H3223 H 0.0441 0.4532 0.27872 0.0
H3224 H 0.05008 0.39986 0.32301 0.0
H3225 H 0.9967 0.41656 0.26406 0.0
H3226 H 0.04481 0.43504 0.29857 0.0
H3227 H 0.99692 0.38534 0.30087 0.0
C3228 C 0.01027 0.3773 0.31489 0.0
C3229 C 0.02533 0.38104 0.321 0.0
C3230 C 0.03416 0.431 0.29116 0.0
C3231 C 0.02194 0.40363 0.30308 0.0
C3232 C 0.03373 0.4414 0.27989 0.0
C3233 C 0.02025 0.43646 0.26989 0.0
C3234 C 0.02107 0.41542 0.29238 0.0
C3235 C 0.00724 0.42091 0.2717 0.0
C3236 C 0.00854 0.38855 0.30586 0.0
C3237 C 0.03828 0.39641 0.3184 0.0
N3238 N 0.00799 0.41091 0.2827 0.0
N3239 N 0.03629 0.40709 0.3096 0.0
H3240 H 0.61647 0.64178 0.29858 0.0
H3241 H 0.61572 0.55208 0.28632 0.0
H3242 H 0.65001 0.63154 0.32269 0.0
H3243 H 0.58678 0.5727 0.24953 0.0
H3244 H 0.62938 0.58298 0.30271 0.0
H3245 H 0.6053 0.61606 0.284 0.0
C3246 C 0.62144 0.63409 0.30088 0.0
C3247 C 0.63424 0.63885 0.31185 0.0
C3248 C 0.62138 0.5802 0.29243 0.0
C3249 C 0.62148 0.60943 0.29518 0.0
C3250 C 0.61393 0.56155 0.28179 0.0
C3251 C 0.59751 0.55785 0.2674 0.0
C3252 C 0.61528 0.59409 0.28621 0.0
C3253 C 0.59557 0.57454 0.25874 0.0
C3254 C 0.61509 0.61945 0.29249 0.0
C3255 C 0.64019 0.62838 0.31431 0.0
N3256 N 0.60374 0.5906 0.27028 0.0
N3257 N 0.63373 0.61411 0.30604 0.0
H3258 H 0.36506 0.01025 0.33717 0.0
H3259 H 0.42534 0.9881 0.29302 0.0
H3260 H 0.35417 0.96181 0.32617 0.0
H3261 H 0.43321 0.03626 0.29656 0.0
H3262 H 0.39992 0.9784 0.30674 0.0
H3263 H 0.39093 0.02022 0.32414 0.0
C3264 C 0.36815 0.00172 0.33211 0.0
C3265 C 0.35743 0.98517 0.33273 0.0
C3266 C 0.40713 0.99108 0.30442 0.0
C3267 C 0.38694 0.99649 0.31779 0.0
C3268 C 0.4216 0.9966 0.29651 0.0
C3269 C 0.43118 0.01296 0.29325 0.0
C3270 C 0.4023 0.00202 0.30938 0.0
C3271 C 0.42599 0.02352 0.29852 0.0
C3272 C 0.38288 0.00742 0.32462 0.0
C3273 C 0.36203 0.97466 0.32594 0.0
N3274 N 0.41189 0.01787 0.3063 0.0
N3275 N 0.37642 0.98049 0.31876 0.0
H3276 H 0.64002 0.00407 0.31699 0.0
H3277 H 0.55405 0.95135 0.2584 0.0
H3278 H 0.60762 0.95299 0.318 0.0
H3279 H 0.5915 0.01265 0.25757 0.0
H3280 H 0.57559 0.95137 0.28267 0.0
H3281 H 0.62195 0.00639 0.29754 0.0
C3282 C 0.62905 0.9934 0.3133 0.0
C3283 C 0.62538 0.97829 0.31903 0.0
C3284 C 0.57785 0.96248 0.27731 0.0
C3285 C 0.60488 0.98087 0.29686 0.0
C3286 C 0.56511 0.96212 0.26158 0.0
C3287 C 0.56896 0.98254 0.25693 0.0
C3288 C 0.59431 0.98123 0.2842 0.0
C3289 C 0.58868 0.00078 0.2612 0.0
C3290 C 0.6188 0.99473 0.30218 0.0
C3291 C 0.61102 0.96486 0.31382 0.0
N3292 N 0.59861 0.99818 0.27572 0.0
N3293 N 0.60136 0.96646 0.30296 0.0
H3294 H 0.02975 0.63892 0.31826 0.0
H3295 H 0.94476 0.55166 0.28774 0.0
H3296 H 0.98199 0.63054 0.32523 0.0
H3297 H 0.00241 0.56174 0.28701 0.0
H3298 H 0.95819 0.58258 0.30404 0.0
H3299 H 0.01858 0.61152 0.30776 0.0
C3300 C 0.0169 0.6313 0.31765 0.0
C3301 C 0.00679 0.63705 0.32263 0.0
C3302 C 0.96573 0.5777 0.30069 0.0
C3303 C 0.99395 0.60568 0.31055 0.0
C3304 C 0.95714 0.55819 0.29162 0.0
C3305 C 0.97263 0.55418 0.28313 0.0
C3306 C 0.98691 0.58928 0.30371 0.0
C3307 C 0.99354 0.5647 0.291 0.0
C3308 C 0.01054 0.61564 0.31166 0.0
C3309 C 0.99023 0.62659 0.32156 0.0
N3310 N 0.99864 0.58208 0.29929 0.0
N3311 N 0.9843 0.6114 0.31553 0.0
H3312 H 0.35623 0.38795 0.31355 0.0
H3313 H 0.43818 0.38894 0.29736 0.0
H3314 H 0.36684 0.35327 0.33403 0.0
H3315 H 0.41963 0.4121 0.26697 0.0
H3316 H 0.41401 0.3784 0.31373 0.0
H3317 H 0.38159 0.39991 0.29949 0.0
C3318 C 0.36396 0.38292 0.31522 0.0
C3319 C 0.35936 0.36952 0.32494 0.0
C3320 C 0.41533 0.38591 0.30356 0.0
C3321 C 0.38846 0.38319 0.30879 0.0
C3322 C 0.42911 0.39197 0.29429 0.0
C3323 C 0.4311 0.40173 0.28103 0.0
C3324 C 0.40345 0.38965 0.29955 0.0
C3325 C 0.41881 0.40496 0.2773 0.0
C3326 C 0.37841 0.38972 0.30711 0.0
C3327 C 0.36988 0.36354 0.3266 0.0
N3328 N 0.40558 0.39902 0.28656 0.0
N3329 N 0.38395 0.37041 0.31859 0.0
H3330 H 0.30024 0.2731 0.37237 0.0
H3331 H 0.38188 0.27542 0.39528 0.0
H3332 H 0.34654 0.31462 0.36514 0.0
H3333 H 0.33674 0.2317 0.38935 0.0
H3334 H 0.36891 0.29073 0.38749 0.0
H3335 H 0.31325 0.25843 0.38167 0.0
C3336 C 0.31315 0.27914 0.37274 0.0
C3337 C 0.32232 0.2951 0.36791 0.0
C3338 C 0.36186 0.27779 0.38793 0.0
C3339 C 0.33729 0.27838 0.37868 0.0
C3340 C 0.36923 0.26908 0.39242 0.0
C3341 C 0.36038 0.25227 0.39285 0.0
C3342 C 0.34549 0.26965 0.38403 0.0
C3343 C 0.34401 0.24463 0.38913 0.0
C3344 C 0.32057 0.27075 0.37804 0.0
C3345 C 0.33901 0.30231 0.36866 0.0
N3346 N 0.3371 0.25336 0.38487 0.0
N3347 N 0.34597 0.29391 0.37399 0.0
H3348 H 0.68143 0.03456 0.36293 0.0
H3349 H 0.76203 0.11673 0.38087 0.0
H3350 H 0.72653 0.03704 0.37249 0.0
H3351 H 0.71563 0.11167 0.38818 0.0
H3352 H 0.74933 0.08781 0.37579 0.0
H3353 H 0.69381 0.06322 0.36982 0.0
C3354 C 0.69393 0.04113 0.36644 0.0
C3355 C 0.70297 0.03341 0.36712 0.0
C3356 C 0.74192 0.09301 0.37855 0.0
C3357 C 0.71718 0.06613 0.37493 0.0
C3358 C 0.74916 0.10951 0.38145 0.0
C3359 C 0.73985 0.11663 0.38475 0.0
C3360 C 0.72522 0.08356 0.37878 0.0
C3361 C 0.72322 0.10668 0.38547 0.0
C3362 C 0.70096 0.05745 0.37045 0.0
C3363 C 0.7191 0.04249 0.37182 0.0
N3364 N 0.71641 0.09066 0.38233 0.0
N3365 N 0.72571 0.05837 0.37545 0.0
H3366 H 0.96726 0.69839 0.36641 0.0
H3367 H 0.8902 0.61685 0.39231 0.0
H3368 H 0.96363 0.65203 0.36068 0.0
H3369 H 0.8904 0.6613 0.38575 0.0
H3370 H 0.91812 0.62994 0.38379 0.0
H3371 H 0.94001 0.68534 0.37638 0.0
C3372 C 0.96073 0.68545 0.36724 0.0
C3373 C 0.96773 0.67628 0.36265 0.0
C3374 C 0.91205 0.63682 0.38426 0.0
C3375 C 0.9365 0.66126 0.37418 0.0
C3376 C 0.89617 0.62938 0.38917 0.0
C3377 C 0.88797 0.63799 0.38965 0.0
C3378 C 0.91982 0.65302 0.37996 0.0
C3379 C 0.89626 0.65421 0.38552 0.0
C3380 C 0.94515 0.67801 0.37292 0.0
C3381 C 0.95867 0.65956 0.36401 0.0
N3382 N 0.91171 0.66119 0.38085 0.0
N3383 N 0.94353 0.65257 0.3697 0.0
H3384 H 0.35581 0.99327 0.69493 0.0
H3385 H 0.44114 0.02341 0.73712 0.0
H3386 H 0.38668 0.0419 0.71208 0.0
H3387 H 0.40672 0.97352 0.72823 0.0
H3388 H 0.42191 0.03063 0.72663 0.0
H3389 H 0.37494 0.98596 0.70561 0.0
C3390 C 0.36661 0.00241 0.70091 0.0
C3391 C 0.36964 0.01821 0.70263 0.0
C3392 C 0.4185 0.01809 0.7271 0.0
C3393 C 0.39157 0.00996 0.71484 0.0
C3394 C 0.42945 0.01397 0.73315 0.0
C3395 C 0.42534 0.9978 0.73395 0.0
C3396 C 0.40344 0.00599 0.7215 0.0
C3397 C 0.41021 0.98609 0.72815 0.0
C3398 C 0.3775 0.99823 0.70705 0.0
C3399 C 0.38383 0.02956 0.71051 0.0
N3400 N 0.39981 0.99041 0.72218 0.0
N3401 N 0.39427 0.02522 0.71629 0.0
H3402 H 0.00793 0.36356 0.69796 0.0
H3403 H 0.97944 0.40797 0.76078 0.0
H3404 H 0.9586 0.3468 0.70916 0.0
H3405 H 0.02812 0.42817 0.74527 0.0
H3406 H 0.97154 0.38574 0.74138 0.0
H3407 H 0.01562 0.38772 0.71454 0.0
C3408 C 0.99871 0.36502 0.70378 0.0
C3409 C 0.98261 0.3531 0.70223 0.0
C3410 C 0.98393 0.39513 0.74206 0.0
C3411 C 0.99131 0.38062 0.72131 0.0
C3412 C 0.98842 0.40785 0.75309 0.0
C3413 C 0.00441 0.42012 0.75437 0.0
C3414 C 0.99555 0.39449 0.73243 0.0
C3415 C 0.01563 0.4191 0.74444 0.0
C3416 C 0.0031 0.3788 0.71326 0.0
C3417 C 0.97117 0.35563 0.71005 0.0
N3418 N 0.011 0.4065 0.73392 0.0
N3419 N 0.97575 0.36904 0.71932 0.0
H3420 H 0.63163 0.64928 0.69518 0.0
H3421 H 0.56112 0.56871 0.73215 0.0
H3422 H 0.63462 0.60655 0.70244 0.0
H3423 H 0.5614 0.61365 0.73286 0.0
H3424 H 0.58733 0.58193 0.71956 0.0
H3425 H 0.60503 0.63592 0.70703 0.0
C3426 C 0.62666 0.63706 0.69917 0.0
C3427 C 0.63538 0.62903 0.69784 0.0
C3428 C 0.58173 0.58894 0.72258 0.0
C3429 C 0.60499 0.61369 0.71145 0.0
C3430 C 0.56681 0.58142 0.72984 0.0
C3431 C 0.55928 0.59021 0.73397 0.0
C3432 C 0.58909 0.60534 0.71913 0.0
C3433 C 0.56697 0.60653 0.7302 0.0
C3434 C 0.6115 0.62946 0.70599 0.0
C3435 C 0.62836 0.61322 0.70325 0.0
N3436 N 0.58146 0.61358 0.72302 0.0
N3437 N 0.61359 0.60608 0.70982 0.0
H3438 H 0.69306 0.72754 0.66919 0.0
H3439 H 0.64886 0.74267 0.59965 0.0
H3440 H 0.65411 0.68647 0.6451 0.0
H3441 H 0.65653 0.76851 0.64513 0.0
H3442 H 0.65372 0.72318 0.61348 0.0
H3443 H 0.68325 0.74456 0.65803 0.0
C3444 C 0.68238 0.72213 0.66164 0.0
C3445 C 0.67432 0.70564 0.65806 0.0
C3446 C 0.65415 0.73306 0.62039 0.0
C3447 C 0.66339 0.72499 0.64497 0.0
C3448 C 0.65142 0.74423 0.61254 0.0
C3449 C 0.6524 0.7574 0.62123 0.0
C3450 C 0.65837 0.73532 0.63688 0.0
C3451 C 0.65582 0.75866 0.63794 0.0
C3452 C 0.67678 0.73179 0.65535 0.0
C3453 C 0.66055 0.69915 0.6482 0.0
N3454 N 0.659 0.74796 0.64516 0.0
N3455 N 0.65565 0.70891 0.6417 0.0
H3456 H 0.27766 0.97276 0.63744 0.0
H3457 H 0.28041 0.88437 0.63311 0.0
H3458 H 0.31158 0.96544 0.6648 0.0
H3459 H 0.24936 0.90082 0.59419 0.0
H3460 H 0.29337 0.9162 0.64729 0.0
H3461 H 0.26747 0.94637 0.62467 0.0
C3462 C 0.28293 0.96558 0.64083 0.0
C3463 C 0.29554 0.97136 0.65219 0.0
C3464 C 0.28515 0.91247 0.63709 0.0
C3465 C 0.28391 0.94112 0.63754 0.0
C3466 C 0.27811 0.89324 0.6278 0.0
C3467 C 0.26123 0.88799 0.61342 0.0
C3468 C 0.27822 0.92533 0.62965 0.0
C3469 C 0.25841 0.90358 0.60342 0.0
C3470 C 0.27713 0.95053 0.63347 0.0
C3471 C 0.30189 0.96148 0.65607 0.0
N3472 N 0.2663 0.92036 0.61381 0.0
N3473 N 0.29597 0.94678 0.64876 0.0
H3474 H 0.03199 0.34465 0.65954 0.0
H3475 H 0.10471 0.3369 0.62374 0.0
H3476 H 0.02963 0.29941 0.64929 0.0
H3477 H 0.10365 0.38117 0.62445 0.0
H3478 H 0.07791 0.32324 0.635 0.0
H3479 H 0.05908 0.35858 0.64883 0.0
C3480 C 0.03719 0.33765 0.65513 0.0
C3481 C 0.02851 0.32083 0.65529 0.0
C3482 C 0.08347 0.33591 0.63257 0.0
C3483 C 0.05947 0.33668 0.64301 0.0
C3484 C 0.09873 0.3437 0.62606 0.0
C3485 C 0.10624 0.36012 0.62273 0.0
C3486 C 0.07572 0.34464 0.63608 0.0
C3487 C 0.09814 0.36843 0.62651 0.0
C3488 C 0.05263 0.3456 0.64895 0.0
C3489 C 0.03585 0.31238 0.64937 0.0
N3490 N 0.08332 0.36061 0.63297 0.0
N3491 N 0.05088 0.32039 0.64349 0.0
H3492 H 0.27497 0.30667 0.652 0.0
H3493 H 0.28187 0.39083 0.63151 0.0
H3494 H 0.31788 0.35209 0.66081 0.0
H3495 H 0.23697 0.34718 0.63701 0.0
H3496 H 0.29589 0.37639 0.63865 0.0
H3497 H 0.26141 0.32097 0.6431 0.0
C3498 C 0.28155 0.31965 0.65205 0.0
C3499 C 0.29757 0.3282 0.65722 0.0
C3500 C 0.28297 0.36998 0.63826 0.0
C3501 C 0.28215 0.34463 0.6469 0.0
C3502 C 0.27499 0.3782 0.63415 0.0
C3503 C 0.25824 0.37022 0.63384 0.0
C3504 C 0.27414 0.35362 0.64187 0.0
C3505 C 0.24988 0.3538 0.63721 0.0
C3506 C 0.27379 0.3278 0.64699 0.0
C3507 C 0.3055 0.34502 0.65701 0.0
N3508 N 0.25791 0.34606 0.64109 0.0
N3509 N 0.29772 0.35269 0.65189 0.0
H3510 H 0.6613 0.97754 0.65823 0.0
H3511 H 0.6611 0.91772 0.59011 0.0
H3512 H 0.70335 0.98559 0.63257 0.0
H3513 H 0.62337 0.90303 0.62479 0.0
H3514 H 0.676 0.94344 0.60452 0.0
H3515 H 0.64645 0.95084 0.6453 0.0
C3516 C 0.66743 0.97368 0.64995 0.0
C3517 C 0.68359 0.98383 0.64646 0.0
C3518 C 0.66454 0.93455 0.60911 0.0
C3519 C 0.66667 0.95344 0.63154 0.0
C3520 C 0.65605 0.91983 0.60091 0.0
C3521 C 0.64115 0.90803 0.60654 0.0
C3522 C 0.65799 0.93771 0.62285 0.0
C3523 C 0.63496 0.91168 0.62027 0.0
C3524 C 0.65896 0.95845 0.6426 0.0
C3525 C 0.69092 0.97819 0.63564 0.0
N3526 N 0.64339 0.92621 0.62796 0.0
N3527 N 0.68239 0.96345 0.6285 0.0
H3528 H 0.0249 0.72876 0.65103 0.0
H3529 H 0.10026 0.72032 0.62649 0.0
H3530 H 0.02637 0.68509 0.65731 0.0
H3531 H 0.10279 0.76577 0.63566 0.0
H3532 H 0.07208 0.70658 0.63414 0.0
H3533 H 0.05248 0.74192 0.64194 0.0
C3534 C 0.03102 0.72193 0.65049 0.0
C3535 C 0.02333 0.70581 0.655 0.0
C3536 C 0.07883 0.71956 0.63446 0.0
C3537 C 0.0549 0.7208 0.64444 0.0
C3538 C 0.09487 0.72739 0.63007 0.0
C3539 C 0.10393 0.74421 0.63066 0.0
C3540 C 0.07174 0.72861 0.63921 0.0
C3541 C 0.09629 0.7528 0.63516 0.0
C3542 C 0.04678 0.72947 0.64532 0.0
C3543 C 0.03187 0.69756 0.65404 0.0
N3544 N 0.08066 0.74491 0.63927 0.0
N3545 N 0.04719 0.70513 0.64881 0.0
H3546 H 0.00387 0.64388 0.69107 0.0
H3547 H 0.98557 0.57909 0.75886 0.0
H3548 H 0.95693 0.61329 0.71011 0.0
H3549 H 0.02857 0.59941 0.73083 0.0
H3550 H 0.97539 0.59252 0.74175 0.0
H3551 H 0.01369 0.62861 0.70598 0.0
C3552 C 0.99561 0.6339 0.69828 0.0
C3553 C 0.97956 0.62989 0.69938 0.0
C3554 C 0.98697 0.5939 0.73919 0.0
C3555 C 0.99074 0.61253 0.71657 0.0
C3556 C 0.99277 0.58618 0.74893 0.0
C3557 C 0.00778 0.58779 0.74598 0.0
C3558 C 0.99638 0.60364 0.72662 0.0
C3559 C 0.0168 0.5976 0.73328 0.0
C3560 C 0.00122 0.62519 0.70677 0.0
C3561 C 0.9694 0.61683 0.7089 0.0
N3562 N 0.01099 0.6052 0.72408 0.0
N3563 N 0.97518 0.60872 0.71721 0.0
H3564 H 0.39317 0.36419 0.70422 0.0
H3565 H 0.38789 0.44214 0.72884 0.0
H3566 H 0.35088 0.36771 0.69629 0.0
H3567 H 0.43233 0.44241 0.72327 0.0
H3568 H 0.37345 0.41378 0.72032 0.0
H3569 H 0.40709 0.39191 0.71443 0.0
C3570 C 0.3868 0.37079 0.70463 0.0
C3571 C 0.37085 0.36364 0.69933 0.0
C3572 C 0.38636 0.42005 0.721 0.0
C3573 C 0.3867 0.39534 0.71114 0.0
C3574 C 0.39458 0.43619 0.7259 0.0
C3575 C 0.41133 0.44465 0.72663 0.0
C3576 C 0.39494 0.41228 0.71698 0.0
C3577 C 0.41943 0.43635 0.72281 0.0
C3578 C 0.39477 0.38662 0.71044 0.0
C3579 C 0.36321 0.37277 0.70017 0.0
N3580 N 0.41116 0.42065 0.71814 0.0
N3581 N 0.37119 0.38814 0.706 0.0
H3582 H 0.65909 0.04921 0.70833 0.0
H3583 H 0.5742 0.97344 0.72791 0.0
H3584 H 0.64306 0.00214 0.68738 0.0
H3585 H 0.5971 0.01676 0.75734 0.0
H3586 H 0.59761 0.98458 0.71041 0.0
H3587 H 0.63447 0.03839 0.72359 0.0
C3588 C 0.65033 0.03661 0.70683 0.0
C3589 C 0.65318 0.02654 0.69661 0.0
C3590 C 0.59743 0.99168 0.72062 0.0
C3591 C 0.62493 0.01407 0.71413 0.0
C3592 C 0.58407 0.98537 0.73054 0.0
C3593 C 0.58354 0.99433 0.74386 0.0
C3594 C 0.61035 0.00705 0.72406 0.0
C3595 C 0.59682 0.00958 0.74699 0.0
C3596 C 0.6363 0.03043 0.71561 0.0
C3597 C 0.64138 0.01031 0.69517 0.0
N3598 N 0.60962 0.01547 0.73713 0.0
N3599 N 0.62776 0.00456 0.70387 0.0
loop_
_geom_bond_atom_site_label_1
_geom_bond_atom_site_label_2
_geom_bond_distance
_geom_bond_site_symmetry_2
_ccdc_geom_bond_type
O0 Cd1 2.223 . S
O0 C8 1.315 . S
Cd1 O0 2.223 . S
Cd1 O4 2.297 . S
Cd1 O5 2.439 . S
Cd1 O11 2.240 1_554 S
Cd2 O3 2.240 . S
Cd2 O10 2.223 1_554 S
Cd2 O12 2.297 1_554 S
Cd2 O13 2.439 1_554 S
O3 Cd2 2.240 . S
O3 C8 1.279 1_655 S
O4 Cd1 2.297 . S
O4 C6 1.247 . S
O5 Cd1 2.439 . S
O5 C6 1.208 . S
C6 O4 1.247 . S
C6 O5 1.208 . S
C7 O12 1.247 . S
C7 O13 1.208 . S
C8 O0 1.315 . S
C8 O3 1.279 1_455 S
C9 O10 1.315 1_455 S
C9 O11 1.279 . S
O10 Cd2 2.223 1_556 S
O10 C9 1.315 1_655 S
O11 Cd1 2.240 1_556 S
O11 C9 1.279 . S
O12 Cd2 2.297 1_556 S
O12 C7 1.247 . S
O13 Cd2 2.439 1_556 S
O13 C7 1.208 . S
O14 Cd15 2.223 . S
O14 C22 1.315 . S
Cd15 O14 2.223 . S
Cd15 O18 2.297 . S
Cd15 O19 2.439 . S
Cd15 O25 2.240 1_554 S
Cd16 O17 2.240 . S
Cd16 O24 2.223 1_554 S
Cd16 O26 2.297 1_554 S
Cd16 O27 2.455 . S
O17 Cd16 2.240 . S
O17 C22 1.279 . S
O18 Cd15 2.297 . S
O18 C20 1.247 . S
O19 Cd15 2.439 . S
O19 C20 1.208 . S
C20 O18 1.247 . S
C20 O19 1.208 . S
C21 O26 1.247 . S
C21 O27 1.177 1_556 S
C22 O14 1.315 . S
C22 O17 1.279 . S
C23 O24 1.315 . S
C23 O25 1.279 . S
O24 Cd16 2.223 1_556 S
O24 C23 1.315 . S
O25 Cd15 2.240 1_556 S
O25 C23 1.279 . S
O26 Cd16 2.297 1_556 S
O26 C21 1.247 . S
O27 Cd16 2.455 . S
O27 C21 1.177 1_554 S
O28 Cd29 2.223 1_556 S
O28 C36 1.315 . S
Cd29 O28 2.223 1_554 S
Cd29 O32 2.297 1_554 S
Cd29 O33 2.439 1_554 S
Cd29 O39 2.240 . S
Cd30 O31 2.240 1_554 S
Cd30 O38 2.223 . S
Cd30 O40 2.297 . S
Cd30 O41 2.439 . S
O31 Cd30 2.240 1_556 S
O31 C36 1.279 1_565 S
O32 Cd29 2.297 1_556 S
O32 C34 1.247 . S
O33 Cd29 2.439 1_556 S
O33 C34 1.208 . S
C34 O32 1.247 . S
C34 O33 1.208 . S
C35 O40 1.247 . S
C35 O41 1.208 . S
C36 O28 1.315 . S
C36 O31 1.279 1_545 S
C37 O38 1.315 1_545 S
C37 O39 1.279 . S
O38 Cd30 2.223 . S
O38 C37 1.315 1_565 S
O39 Cd29 2.240 . S
O39 C37 1.279 . S
O40 Cd30 2.297 . S
O40 C35 1.247 . S
O41 Cd30 2.439 . S
O41 C35 1.208 . S
O42 Cd43 2.223 1_556 S
O42 C50 1.345 . S
Cd43 O42 2.223 1_554 S
Cd43 O46 2.297 1_554 S
Cd43 O47 2.439 1_554 S
Cd43 O53 2.240 . S
Cd44 O45 2.240 1_554 S
Cd44 O52 2.223 . S
Cd44 O54 2.297 . S
Cd44 O55 2.439 . S
O45 Cd44 2.240 1_556 S
O45 C50 1.280 1_455 S
O46 Cd43 2.297 1_556 S
O46 C48 1.247 . S
O47 Cd43 2.439 1_556 S
O47 C48 1.208 . S
C48 O46 1.247 . S
C48 O47 1.208 . S
C49 O54 1.247 . S
C49 O55 1.208 . S
C50 O42 1.345 . S
C50 O45 1.280 1_655 S
C51 O52 1.371 . S
C51 O53 1.228 1_455 S
O52 Cd44 2.223 . S
O52 C51 1.371 . S
O53 Cd43 2.240 . S
O53 C51 1.228 1_655 S
O54 Cd44 2.297 . S
O54 C49 1.247 . S
O55 Cd44 2.439 . S
O55 C49 1.208 . S
O56 Cd57 2.223 . S
O56 C64 1.315 . S
Cd57 O56 2.223 . S
Cd57 O60 2.297 . S
Cd57 O61 2.439 . S
Cd57 O67 2.240 1_556 S
Cd58 O59 2.240 1_554 S
Cd58 O66 2.223 . S
Cd58 O68 2.297 . S
Cd58 O69 2.439 . S
O59 Cd58 2.240 1_556 S
O59 C64 1.279 . S
O60 Cd57 2.297 . S
O60 C62 1.247 . S
O61 Cd57 2.439 . S
O61 C62 1.208 . S
C62 O60 1.247 . S
C62 O61 1.208 . S
C63 O68 1.247 . S
C63 O69 1.208 . S
C64 O56 1.315 . S
C64 O59 1.279 . S
C65 O66 1.315 . S
C65 O67 1.279 . S
O66 Cd58 2.223 . S
O66 C65 1.315 . S
O67 Cd57 2.240 1_554 S
O67 C65 1.279 . S
O68 Cd58 2.297 . S
O68 C63 1.247 . S
O69 Cd58 2.439 . S
O69 C63 1.208 . S
O70 Cd71 2.223 . S
O70 C78 1.309 . S
Cd71 O70 2.223 . S
Cd71 O74 2.297 . S
Cd71 O75 2.439 . S
Cd71 O81 2.240 1_554 S
Cd72 O73 2.240 . S
Cd72 O80 2.223 1_554 S
Cd72 O82 2.297 1_554 S
Cd72 O83 2.439 1_554 S
O73 Cd72 2.240 . S
O73 C78 1.279 1_545 S
O74 Cd71 2.297 . S
O74 C76 1.247 . S
O75 Cd71 2.439 . S
O75 C76 1.208 . S
C76 O74 1.247 . S
C76 O75 1.208 . S
C77 O82 1.247 . S
C77 O83 1.208 . S
C78 O70 1.309 . S
C78 O73 1.279 1_565 S
C79 O80 1.353 . S
C79 O81 1.244 1_545 S
O80 Cd72 2.223 1_556 S
O80 C79 1.353 . S
O81 Cd71 2.240 1_556 S
O81 C79 1.244 1_565 S
O82 Cd72 2.297 1_556 S
O82 C77 1.247 . S
O83 Cd72 2.439 1_556 S
O83 C77 1.208 . S
O84 Cd85 2.223 . S
O84 C92 1.315 . S
Cd85 O84 2.223 . S
Cd85 O88 2.297 . S
Cd85 O89 2.439 . S
Cd85 O95 2.240 . S
Cd86 O87 2.240 . S
Cd86 O94 2.223 . S
Cd86 O96 2.297 . S
Cd86 O97 2.439 . S
O87 Cd86 2.240 . S
O87 C92 1.279 . S
O88 Cd85 2.297 . S
O88 C90 1.247 . S
O89 Cd85 2.439 . S
O89 C90 1.208 . S
C90 O88 1.247 . S
C90 O89 1.208 . S
C91 O96 1.247 . S
C91 O97 1.208 . S
C92 O84 1.315 . S
C92 O87 1.279 . S
C93 O94 1.315 . S
C93 O95 1.279 . S
O94 Cd86 2.223 . S
O94 C93 1.315 . S
O95 Cd85 2.240 . S
O95 C93 1.279 . S
O96 Cd86 2.297 . S
O96 C91 1.247 . S
O97 Cd86 2.439 . S
O97 C91 1.208 . S
O98 Cd99 2.223 . S
O98 C106 1.315 . S
Cd99 O98 2.223 . S
Cd99 O102 2.297 1_565 S
Cd99 O103 2.439 1_565 S
Cd99 O109 2.240 . S
Cd100 O101 2.240 . S
Cd100 O108 2.223 . S
Cd100 O110 2.297 . S
Cd100 O111 2.439 . S
O101 Cd100 2.240 . S
O101 C106 1.279 . S
O102 Cd99 2.297 1_545 S
O102 C104 1.247 . S
O103 Cd99 2.439 1_545 S
O103 C104 1.208 . S
C104 O102 1.247 . S
C104 O103 1.208 . S
C105 O110 1.247 . S
C105 O111 1.208 . S
C106 O98 1.315 . S
C106 O101 1.279 . S
C107 O108 1.315 . S
C107 O109 1.279 . S
O108 Cd100 2.223 . S
O108 C107 1.315 . S
O109 Cd99 2.240 . S
O109 C107 1.279 . S
O110 Cd100 2.297 . S
O110 C105 1.247 . S
O111 Cd100 2.439 . S
O111 C105 1.208 . S
O112 Cd113 2.223 . S
O112 C120 1.315 . S
Cd113 O112 2.223 . S
Cd113 O116 2.297 . S
Cd113 O117 2.439 . S
Cd113 O123 2.240 . S
Cd114 O115 2.240 . S
Cd114 O122 2.223 . S
Cd114 O124 2.297 1_455 S
Cd114 O125 2.439 1_455 S
O115 Cd114 2.240 . S
O115 C120 1.279 . S
O116 Cd113 2.297 . S
O116 C118 1.247 . S
O117 Cd113 2.439 . S
O117 C118 1.208 . S
C118 O116 1.247 . S
C118 O117 1.208 . S
C119 O124 1.247 . S
C119 O125 1.208 . S
C120 O112 1.315 . S
C120 O115 1.279 . S
C121 O122 1.315 . S
C121 O123 1.279 . S
O122 Cd114 2.223 . S
O122 C121 1.315 . S
O123 Cd113 2.240 . S
O123 C121 1.279 . S
O124 Cd114 2.297 1_655 S
O124 C119 1.247 . S
O125 Cd114 2.439 1_655 S
O125 C119 1.208 . S
O126 Cd127 2.223 . S
O126 C134 1.315 . S
Cd127 O126 2.223 . S
Cd127 O130 2.297 . S
Cd127 O131 2.439 . S
Cd127 O137 2.240 . S
Cd128 O129 2.240 . S
Cd128 O136 2.223 . S
Cd128 O138 2.297 1_565 S
Cd128 O139 2.439 1_565 S
O129 Cd128 2.240 . S
O129 C134 1.279 . S
O130 Cd127 2.297 . S
O130 C132 1.247 . S
O131 Cd127 2.439 . S
O131 C132 1.208 . S
C132 O130 1.247 . S
C132 O131 1.208 . S
C133 O138 1.247 . S
C133 O139 1.208 . S
C134 O126 1.315 . S
C134 O129 1.279 . S
C135 O136 1.315 . S
C135 O137 1.279 . S
O136 Cd128 2.223 . S
O136 C135 1.315 . S
O137 Cd127 2.240 . S
O137 C135 1.279 . S
O138 Cd128 2.297 1_545 S
O138 C133 1.247 . S
O139 Cd128 2.439 1_545 S
O139 C133 1.208 . S
O140 Cd141 2.223 . S
O140 C148 1.315 . S
Cd141 O140 2.223 . S
Cd141 O144 2.297 . S
Cd141 O145 2.439 . S
Cd141 O151 2.240 . S
Cd142 O143 2.240 . S
Cd142 O150 2.223 . S
Cd142 O152 2.297 1_455 S
Cd142 O153 2.439 1_455 S
O143 Cd142 2.240 . S
O143 C148 1.279 . S
O144 Cd141 2.297 . S
O144 C146 1.247 . S
O145 Cd141 2.439 . S
O145 C146 1.208 . S
C146 O144 1.247 . S
C146 O145 1.208 . S
C147 O152 1.247 . S
C147 O153 1.208 . S
C148 O140 1.315 . S
C148 O143 1.279 . S
C149 O150 1.315 . S
C149 O151 1.279 . S
O150 Cd142 2.223 . S
O150 C149 1.315 . S
O151 Cd141 2.240 . S
O151 C149 1.279 . S
O152 Cd142 2.297 1_655 S
O152 C147 1.247 . S
O153 Cd142 2.439 1_655 S
O153 C147 1.208 . S
O154 Cd155 2.223 . S
O154 C162 1.315 . S
Cd155 O154 2.223 . S
Cd155 O158 2.297 . S
Cd155 O159 2.439 . S
Cd155 O165 2.240 . S
Cd156 O157 2.240 . S
Cd156 O164 2.223 . S
Cd156 O166 2.297 . S
Cd156 O167 2.439 . S
O157 Cd156 2.240 . S
O157 C162 1.279 . S
O158 Cd155 2.297 . S
O158 C160 1.247 . S
O159 Cd155 2.439 . S
O159 C160 1.208 . S
C160 O158 1.247 . S
C160 O159 1.208 . S
C161 O166 1.247 . S
C161 O167 1.208 . S
C162 O154 1.315 . S
C162 O157 1.279 . S
C163 O164 1.315 . S
C163 O165 1.279 . S
O164 Cd156 2.223 . S
O164 C163 1.315 . S
O165 Cd155 2.240 . S
O165 C163 1.279 . S
O166 Cd156 2.297 . S
O166 C161 1.247 . S
O167 Cd156 2.439 . S
O167 C161 1.208 . S
O168 Cd169 2.223 . S
O168 C176 1.315 . S
Cd169 O168 2.223 . S
Cd169 O172 2.297 . S
Cd169 O173 2.439 . S
Cd169 O179 2.240 . S
Cd170 O171 2.240 . S
Cd170 O178 2.223 . S
Cd170 O180 2.297 1_545 S
Cd170 O181 2.439 1_545 S
O171 Cd170 2.240 . S
O171 C176 1.279 . S
O172 Cd169 2.297 . S
O172 C174 1.247 . S
O173 Cd169 2.439 . S
O173 C174 1.208 . S
C174 O172 1.247 . S
C174 O173 1.208 . S
C175 O180 1.247 . S
C175 O181 1.208 . S
C176 O168 1.315 . S
C176 O171 1.279 . S
C177 O178 1.315 . S
C177 O179 1.279 . S
O178 Cd170 2.223 . S
O178 C177 1.315 . S
O179 Cd169 2.240 . S
O179 C177 1.279 . S
O180 Cd170 2.297 1_565 S
O180 C175 1.247 . S
O181 Cd170 2.439 1_565 S
O181 C175 1.208 . S
O182 Cd183 2.223 . S
O182 C190 1.315 . S
Cd183 O182 2.223 . S
Cd183 O186 2.297 . S
Cd183 O187 2.439 . S
Cd183 O193 2.240 . S
Cd184 O185 2.240 . S
Cd184 O192 2.223 . S
Cd184 O194 2.297 1_655 S
Cd184 O195 2.439 1_655 S
O185 Cd184 2.240 . S
O185 C190 1.279 . S
O186 Cd183 2.297 . S
O186 C188 1.247 . S
O187 Cd183 2.439 . S
O187 C188 1.208 . S
C188 O186 1.247 . S
C188 O187 1.208 . S
C189 O194 1.247 . S
C189 O195 1.208 . S
C190 O182 1.315 . S
C190 O185 1.279 . S
C191 O192 1.315 . S
C191 O193 1.279 . S
O192 Cd184 2.223 . S
O192 C191 1.315 . S
O193 Cd183 2.240 . S
O193 C191 1.279 . S
O194 Cd184 2.297 1_455 S
O194 C189 1.247 . S
O195 Cd184 2.439 1_455 S
O195 C189 1.208 . S
O196 Cd197 2.223 . S
O196 C204 1.315 . S
Cd197 O196 2.223 . S
Cd197 O200 2.297 . S
Cd197 O201 2.439 . S
Cd197 O207 2.240 . S
Cd198 O199 2.240 . S
Cd198 O206 2.223 . S
Cd198 O208 2.297 . S
Cd198 O209 2.439 . S
O199 Cd198 2.240 . S
O199 C204 1.279 . S
O200 Cd197 2.297 . S
O200 C202 1.247 . S
O201 Cd197 2.439 . S
O201 C202 1.208 . S
C202 O200 1.247 . S
C202 O201 1.208 . S
C203 O208 1.247 . S
C203 O209 1.208 . S
C204 O196 1.315 . S
C204 O199 1.279 . S
C205 O206 1.315 . S
C205 O207 1.279 . S
O206 Cd198 2.223 . S
O206 C205 1.315 . S
O207 Cd197 2.240 . S
O207 C205 1.279 . S
O208 Cd198 2.297 . S
O208 C203 1.247 . S
O209 Cd198 2.439 . S
O209 C203 1.208 . S
O210 Cd211 2.223 . S
O210 C218 1.315 . S
Cd211 O210 2.223 . S
Cd211 O214 2.297 . S
Cd211 O215 2.439 . S
Cd211 O221 2.240 . S
Cd212 O213 2.240 . S
Cd212 O220 2.223 . S
Cd212 O222 2.297 . S
Cd212 O223 2.439 . S
O213 Cd212 2.240 . S
O213 C218 1.279 . S
O214 Cd211 2.297 . S
O214 C216 1.247 . S
O215 Cd211 2.439 . S
O215 C216 1.208 . S
C216 O214 1.247 . S
C216 O215 1.208 . S
C217 O222 1.247 . S
C217 O223 1.208 . S
C218 O210 1.315 . S
C218 O213 1.279 . S
C219 O220 1.315 . S
C219 O221 1.279 . S
O220 Cd212 2.223 . S
O220 C219 1.315 . S
O221 Cd211 2.240 . S
O221 C219 1.279 . S
O222 Cd212 2.297 . S
O222 C217 1.247 . S
O223 Cd212 2.439 . S
O223 C217 1.208 . S
O224 Cd225 2.223 . S
O224 C232 1.315 . S
Cd225 O224 2.223 . S
Cd225 O228 2.297 1_545 S
Cd225 O229 2.439 1_545 S
Cd225 O235 2.240 . S
Cd226 O227 2.240 . S
Cd226 O234 2.223 . S
Cd226 O236 2.297 . S
Cd226 O237 2.439 . S
O227 Cd226 2.240 . S
O227 C232 1.279 . S
O228 Cd225 2.297 1_565 S
O228 C230 1.247 . S
O229 Cd225 2.439 1_565 S
O229 C230 1.208 . S
C230 O228 1.247 . S
C230 O229 1.208 . S
C231 O236 1.247 . S
C231 O237 1.208 . S
C232 O224 1.315 . S
C232 O227 1.279 . S
C233 O234 1.315 . S
C233 O235 1.279 . S
O234 Cd226 2.223 . S
O234 C233 1.315 . S
O235 Cd225 2.240 . S
O235 C233 1.279 . S
O236 Cd226 2.297 . S
O236 C231 1.247 . S
O237 Cd226 2.439 . S
O237 C231 1.208 . S
O238 Cd239 2.223 . S
O238 C246 1.315 . S
Cd239 O238 2.223 . S
Cd239 O242 2.297 . S
Cd239 O243 2.439 . S
Cd239 O249 2.240 . S
Cd240 O241 2.240 . S
Cd240 O248 2.223 . S
Cd240 O250 2.297 1_655 S
Cd240 O251 2.439 1_655 S
O241 Cd240 2.240 . S
O241 C246 1.279 . S
O242 Cd239 2.297 . S
O242 C244 1.247 . S
O243 Cd239 2.439 . S
O243 C244 1.208 . S
C244 O242 1.247 . S
C244 O243 1.208 . S
C245 O250 1.247 . S
C245 O251 1.208 . S
C246 O238 1.315 . S
C246 O241 1.279 . S
C247 O248 1.315 . S
C247 O249 1.279 . S
O248 Cd240 2.223 . S
O248 C247 1.315 . S
O249 Cd239 2.240 . S
O249 C247 1.279 . S
O250 Cd240 2.297 1_455 S
O250 C245 1.247 . S
O251 Cd240 2.439 1_455 S
O251 C245 1.208 . S
C252 C253 1.560 . S
C252 H313 0.959 . S
C252 H314 0.959 . S
C252 H315 0.960 . S
C253 C252 1.560 . S
C253 O308 1.426 . S
C253 H312 0.980 . S
C254 C255 1.407 . S
C254 C259 1.418 . S
C254 O308 1.334 . S
C255 C254 1.407 . S
C255 C256 1.360 . S
C255 H316 0.929 . S
C256 C255 1.360 . S
C256 C257 1.401 . S
C256 C260 1.527 . S
C257 C256 1.401 . S
C257 C258 1.405 . S
C257 C290 1.587 . S
C258 C257 1.405 . S
C258 C259 1.332 . S
C258 C261 1.496 . S
C259 C254 1.418 . S
C259 C258 1.332 . S
C259 H317 0.929 . S
C260 C256 1.527 . S
C260 H318 0.959 . S
C260 H319 0.961 . S
C260 H320 0.961 . S
C261 C258 1.496 . S
C261 H321 0.960 . S
C261 H322 0.960 . S
C261 H323 0.961 . S
C262 C263 1.517 . S
C262 H325 0.961 . S
C262 H326 0.960 . S
C262 H327 0.959 . S
C263 C262 1.517 . S
C263 O311 1.468 . S
C263 H324 0.980 . S
C264 C265 1.349 . S
C264 C269 1.367 . S
C264 O311 1.408 . S
C265 C264 1.349 . S
C265 C266 1.407 . S
C265 H328 0.930 . S
C266 C265 1.407 . S
C266 C267 1.449 . S
C266 C270 1.535 . S
C267 C266 1.449 . S
C267 C268 1.384 . S
C267 C292 1.553 . S
C268 C267 1.384 . S
C268 C269 1.364 . S
C268 C271 1.450 . S
C269 C264 1.367 . S
C269 C268 1.364 . S
C269 H329 0.931 . S
C270 C266 1.535 . S
C270 H330 0.959 . S
C270 H331 0.961 . S
C270 H332 0.959 . S
C271 C268 1.450 . S
C271 H333 0.960 . S
C271 H334 0.960 . S
C271 H335 0.960 . S
C272 C273 1.309 . S
C272 C277 1.304 . S
C272 O310 1.435 . S
C273 C272 1.309 . S
C273 C274 1.476 . S
C273 H337 0.930 . S
C274 C273 1.476 . S
C274 C275 1.400 . S
C274 C278 1.567 . S
C275 C274 1.400 . S
C275 C276 1.373 . S
C275 C297 1.432 . S
C276 C275 1.373 . S
C276 C277 1.339 . S
C276 C279 1.530 . S
C277 C272 1.304 . S
C277 C276 1.339 . S
C277 H338 0.930 . S
C278 C274 1.567 . S
C278 H339 0.961 . S
C278 H340 0.960 . S
C278 H341 0.958 . S
C279 C276 1.530 . S
C279 H342 0.961 . S
C279 H343 0.960 . S
C279 H344 0.960 . S
C280 C281 1.530 . S
C280 H346 0.961 . S
C280 H347 0.961 . S
C280 H348 0.959 . S
C281 C280 1.530 . S
C281 O309 1.412 . S
C281 H345 0.980 . S
C282 C283 1.288 . S
C282 C287 1.377 . S
C282 O309 1.393 . S
C283 C282 1.288 . S
C283 C284 1.369 . S
C283 H349 0.932 . S
C284 C283 1.369 . S
C284 C285 1.398 . S
C284 C288 1.527 . S
C285 C284 1.398 . S
C285 C286 1.380 . S
C285 C299 1.497 . S
C286 C285 1.380 . S
C286 C287 1.383 . S
C286 C289 1.603 . S
C287 C282 1.377 . S
C287 C286 1.383 . S
C287 H350 0.929 . S
C288 C284 1.527 . S
C288 H351 0.961 . S
C288 H352 0.959 . S
C288 H353 0.959 . S
C289 C286 1.603 . S
C289 H354 0.960 . S
C289 H355 0.962 . S
C289 H356 0.961 . S
C290 C257 1.587 . S
C290 C291 1.360 . S
C290 C303 1.412 . S
C291 C290 1.360 . S
C291 C292 1.365 . S
C291 H357 0.929 . S
C292 C267 1.553 . S
C292 C291 1.365 . S
C292 C293 1.404 . S
C293 C292 1.404 . S
C293 C294 1.395 . S
C293 C304 1.451 . S
C294 C293 1.395 . S
C294 C295 1.322 . S
C294 H358 0.930 . S
C295 C294 1.322 . S
C295 C296 1.459 . S
C295 H359 0.929 . S
C296 C295 1.459 . S
C296 C297 1.445 . S
C296 C305 1.395 . S
C297 C275 1.432 . S
C297 C296 1.445 . S
C297 C298 1.370 . S
C298 C297 1.370 . S
C298 C299 1.438 . S
C298 H360 0.930 . S
C299 C285 1.497 . S
C299 C298 1.438 . S
C299 C300 1.360 . S
C300 C299 1.360 . S
C300 C301 1.401 . S
C300 C305 1.446 . S
C301 C300 1.401 . S
C301 C302 1.347 . S
C301 H361 0.929 . S
C302 C301 1.347 . S
C302 C303 1.455 . S
C302 H362 0.930 . S
C303 C290 1.412 . S
C303 C302 1.455 . S
C303 C304 1.331 . S
C304 C293 1.451 . S
C304 C303 1.331 . S
C304 C305 1.497 . S
C305 C296 1.395 . S
C305 C300 1.446 . S
C305 C304 1.497 . S
C306 C307 1.582 . S
C306 H363 0.962 . S
C306 H364 0.959 . S
C306 H365 0.958 . S
C307 C306 1.582 . S
C307 O310 1.458 . S
C307 H336 0.980 . S
O308 C253 1.426 . S
O308 C254 1.334 . S
O309 C281 1.412 . S
O309 C282 1.393 . S
O310 C272 1.435 . S
O310 C307 1.458 . S
O311 C263 1.468 . S
O311 C264 1.408 . S
H312 C253 0.980 . S
H313 C252 0.959 . S
H314 C252 0.959 . S
H315 C252 0.960 . S
H316 C255 0.929 . S
H317 C259 0.929 . S
H318 C260 0.959 . S
H319 C260 0.961 . S
H320 C260 0.961 . S
H321 C261 0.960 . S
H322 C261 0.960 . S
H323 C261 0.961 . S
H324 C263 0.980 . S
H325 C262 0.961 . S
H326 C262 0.960 . S
H327 C262 0.959 . S
H328 C265 0.930 . S
H329 C269 0.931 . S
H330 C270 0.959 . S
H331 C270 0.961 . S
H332 C270 0.959 . S
H333 C271 0.960 . S
H334 C271 0.960 . S
H335 C271 0.960 . S
H336 C307 0.980 . S
H337 C273 0.930 . S
H338 C277 0.930 . S
H339 C278 0.961 . S
H340 C278 0.960 . S
H341 C278 0.958 . S
H342 C279 0.961 . S
H343 C279 0.960 . S
H344 C279 0.960 . S
H345 C281 0.980 . S
H346 C280 0.961 . S
H347 C280 0.961 . S
H348 C280 0.959 . S
H349 C283 0.932 . S
H350 C287 0.929 . S
H351 C288 0.961 . S
H352 C288 0.959 . S
H353 C288 0.959 . S
H354 C289 0.960 . S
H355 C289 0.962 . S
H356 C289 0.961 . S
H357 C291 0.929 . S
H358 C294 0.930 . S
H359 C295 0.929 . S
H360 C298 0.930 . S
H361 C301 0.929 . S
H362 C302 0.930 . S
H363 C306 0.962 . S
H364 C306 0.959 . S
H365 C306 0.958 . S
C366 C367 1.560 . S
C366 H427 0.959 . S
C366 H428 0.959 . S
C366 H429 0.960 . S
C367 C366 1.560 . S
C367 O422 1.426 . S
C367 H426 0.980 . S
C368 C369 1.407 . S
C368 C373 1.418 . S
C368 O422 1.334 . S
C369 C368 1.407 . S
C369 C370 1.360 . S
C369 H430 0.929 . S
C370 C369 1.360 . S
C370 C371 1.401 . S
C370 C374 1.527 . S
C371 C370 1.401 . S
C371 C372 1.405 . S
C371 C404 1.587 . S
C372 C371 1.405 . S
C372 C373 1.332 . S
C372 C375 1.496 . S
C373 C368 1.418 . S
C373 C372 1.332 . S
C373 H431 0.929 . S
C374 C370 1.527 . S
C374 H432 0.959 . S
C374 H433 0.961 . S
C374 H434 0.961 . S
C375 C372 1.496 . S
C375 H435 0.960 . S
C375 H436 0.960 . S
C375 H437 0.961 . S
C376 C377 1.517 . S
C376 H439 0.961 . S
C376 H440 0.960 . S
C376 H441 0.959 . S
C377 C376 1.517 . S
C377 O425 1.468 . S
C377 H438 0.980 . S
C378 C379 1.349 . S
C378 C383 1.367 . S
C378 O425 1.408 . S
C379 C378 1.349 . S
C379 C380 1.407 . S
C379 H442 0.930 . S
C380 C379 1.407 . S
C380 C381 1.449 . S
C380 C384 1.535 . S
C381 C380 1.449 . S
C381 C382 1.384 . S
C381 C406 1.553 . S
C382 C381 1.384 . S
C382 C383 1.364 . S
C382 C385 1.450 . S
C383 C378 1.367 . S
C383 C382 1.364 . S
C383 H443 0.931 . S
C384 C380 1.535 . S
C384 H444 0.959 . S
C384 H445 0.961 . S
C384 H446 0.959 . S
C385 C382 1.450 . S
C385 H447 0.960 . S
C385 H448 0.960 . S
C385 H449 0.960 . S
C386 C387 1.309 . S
C386 C391 1.304 . S
C386 O424 1.435 . S
C387 C386 1.309 . S
C387 C388 1.476 . S
C387 H451 0.930 . S
C388 C387 1.476 . S
C388 C389 1.400 . S
C388 C392 1.567 . S
C389 C388 1.400 . S
C389 C390 1.373 . S
C389 C411 1.432 . S
C390 C389 1.373 . S
C390 C391 1.339 . S
C390 C393 1.530 . S
C391 C386 1.304 . S
C391 C390 1.339 . S
C391 H452 0.930 . S
C392 C388 1.567 . S
C392 H453 0.961 . S
C392 H454 0.960 . S
C392 H455 0.958 . S
C393 C390 1.530 . S
C393 H456 0.961 . S
C393 H457 0.960 . S
C393 H458 0.960 . S
C394 C395 1.530 . S
C394 H460 0.961 . S
C394 H461 0.961 . S
C394 H462 0.959 . S
C395 C394 1.530 . S
C395 O423 1.412 . S
C395 H459 0.980 . S
C396 C397 1.288 . S
C396 C401 1.377 . S
C396 O423 1.393 . S
C397 C396 1.288 . S
C397 C398 1.369 . S
C397 H463 0.932 . S
C398 C397 1.369 . S
C398 C399 1.398 . S
C398 C402 1.527 . S
C399 C398 1.398 . S
C399 C400 1.380 . S
C399 C413 1.497 . S
C400 C399 1.380 . S
C400 C401 1.383 . S
C400 C403 1.603 . S
C401 C396 1.377 . S
C401 C400 1.383 . S
C401 H464 0.929 . S
C402 C398 1.527 . S
C402 H465 0.961 . S
C402 H466 0.959 . S
C402 H467 0.959 . S
C403 C400 1.603 . S
C403 H468 0.960 . S
C403 H469 0.962 . S
C403 H470 0.961 . S
C404 C371 1.587 . S
C404 C405 1.360 . S
C404 C417 1.412 . S
C405 C404 1.360 . S
C405 C406 1.365 . S
C405 H471 0.929 . S
C406 C381 1.553 . S
C406 C405 1.365 . S
C406 C407 1.404 . S
C407 C406 1.404 . S
C407 C408 1.395 . S
C407 C418 1.451 . S
C408 C407 1.395 . S
C408 C409 1.322 . S
C408 H472 0.930 . S
C409 C408 1.322 . S
C409 C410 1.459 . S
C409 H473 0.929 . S
C410 C409 1.459 . S
C410 C411 1.445 . S
C410 C419 1.395 . S
C411 C389 1.432 . S
C411 C410 1.445 . S
C411 C412 1.370 . S
C412 C411 1.370 . S
C412 C413 1.438 . S
C412 H474 0.930 . S
C413 C399 1.497 . S
C413 C412 1.438 . S
C413 C414 1.360 . S
C414 C413 1.360 . S
C414 C415 1.401 . S
C414 C419 1.446 . S
C415 C414 1.401 . S
C415 C416 1.347 . S
C415 H475 0.929 . S
C416 C415 1.347 . S
C416 C417 1.455 . S
C416 H476 0.930 . S
C417 C404 1.412 . S
C417 C416 1.455 . S
C417 C418 1.331 . S
C418 C407 1.451 . S
C418 C417 1.331 . S
C418 C419 1.497 . S
C419 C410 1.395 . S
C419 C414 1.446 . S
C419 C418 1.497 . S
C420 C421 1.582 . S
C420 H477 0.962 . S
C420 H478 0.959 . S
C420 H479 0.958 . S
C421 C420 1.582 . S
C421 O424 1.458 . S
C421 H450 0.980 . S
O422 C367 1.426 . S
O422 C368 1.334 . S
O423 C395 1.412 . S
O423 C396 1.393 . S
O424 C386 1.435 . S
O424 C421 1.458 . S
O425 C377 1.468 . S
O425 C378 1.408 . S
H426 C367 0.980 . S
H427 C366 0.959 . S
H428 C366 0.959 . S
H429 C366 0.960 . S
H430 C369 0.929 . S
H431 C373 0.929 . S
H432 C374 0.959 . S
H433 C374 0.961 . S
H434 C374 0.961 . S
H435 C375 0.960 . S
H436 C375 0.960 . S
H437 C375 0.961 . S
H438 C377 0.980 . S
H439 C376 0.961 . S
H440 C376 0.960 . S
H441 C376 0.959 . S
H442 C379 0.930 . S
H443 C383 0.931 . S
H444 C384 0.959 . S
H445 C384 0.961 . S
H446 C384 0.959 . S
H447 C385 0.960 . S
H448 C385 0.960 . S
H449 C385 0.960 . S
H450 C421 0.980 . S
H451 C387 0.930 . S
H452 C391 0.930 . S
H453 C392 0.961 . S
H454 C392 0.960 . S
H455 C392 0.958 . S
H456 C393 0.961 . S
H457 C393 0.960 . S
H458 C393 0.960 . S
H459 C395 0.980 . S
H460 C394 0.961 . S
H461 C394 0.961 . S
H462 C394 0.959 . S
H463 C397 0.932 . S
H464 C401 0.929 . S
H465 C402 0.961 . S
H466 C402 0.959 . S
H467 C402 0.959 . S
H468 C403 0.960 . S
H469 C403 0.962 . S
H470 C403 0.961 . S
H471 C405 0.929 . S
H472 C408 0.930 . S
H473 C409 0.929 . S
H474 C412 0.930 . S
H475 C415 0.929 . S
H476 C416 0.930 . S
H477 C420 0.962 . S
H478 C420 0.959 . S
H479 C420 0.958 . S
C480 C481 1.560 . S
C480 H541 0.959 . S
C480 H542 0.959 . S
C480 H543 0.960 . S
C481 C480 1.560 . S
C481 O536 1.426 . S
C481 H540 0.980 . S
C482 C483 1.407 . S
C482 C487 1.418 . S
C482 O536 1.334 . S
C483 C482 1.407 . S
C483 C484 1.360 . S
C483 H544 0.929 . S
C484 C483 1.360 . S
C484 C485 1.401 . S
C484 C488 1.527 . S
C485 C484 1.401 . S
C485 C486 1.405 . S
C485 C518 1.587 . S
C486 C485 1.405 . S
C486 C487 1.332 . S
C486 C489 1.496 . S
C487 C482 1.418 . S
C487 C486 1.332 . S
C487 H545 0.929 . S
C488 C484 1.527 . S
C488 H546 0.959 . S
C488 H547 0.961 . S
C488 H548 0.961 . S
C489 C486 1.496 . S
C489 H549 0.960 . S
C489 H550 0.960 . S
C489 H551 0.961 . S
C490 C491 1.517 . S
C490 H553 0.961 . S
C490 H554 0.960 . S
C490 H555 0.959 . S
C491 C490 1.517 . S
C491 O539 1.468 . S
C491 H552 0.980 . S
C492 C493 1.349 . S
C492 C497 1.367 . S
C492 O539 1.408 . S
C493 C492 1.349 . S
C493 C494 1.407 . S
C493 H556 0.930 . S
C494 C493 1.407 . S
C494 C495 1.449 . S
C494 C498 1.535 . S
C495 C494 1.449 . S
C495 C496 1.384 . S
C495 C520 1.553 . S
C496 C495 1.384 . S
C496 C497 1.364 . S
C496 C499 1.450 . S
C497 C492 1.367 . S
C497 C496 1.364 . S
C497 H557 0.931 . S
C498 C494 1.535 . S
C498 H558 0.959 . S
C498 H559 0.961 . S
C498 H560 0.959 . S
C499 C496 1.450 . S
C499 H561 0.960 . S
C499 H562 0.960 . S
C499 H563 0.960 . S
C500 C501 1.309 . S
C500 C505 1.304 . S
C500 O538 1.435 . S
C501 C500 1.309 . S
C501 C502 1.476 . S
C501 H565 0.930 . S
C502 C501 1.476 . S
C502 C503 1.400 . S
C502 C506 1.567 . S
C503 C502 1.400 . S
C503 C504 1.373 . S
C503 C525 1.432 . S
C504 C503 1.373 . S
C504 C505 1.339 . S
C504 C507 1.530 . S
C505 C500 1.304 . S
C505 C504 1.339 . S
C505 H566 0.930 . S
C506 C502 1.567 . S
C506 H567 0.961 . S
C506 H568 0.960 . S
C506 H569 0.958 . S
C507 C504 1.530 . S
C507 H570 0.961 . S
C507 H571 0.960 . S
C507 H572 0.960 . S
C508 C509 1.530 . S
C508 H574 0.961 . S
C508 H575 0.961 . S
C508 H576 0.959 . S
C509 C508 1.530 . S
C509 O537 1.412 . S
C509 H573 0.980 . S
C510 C511 1.288 . S
C510 C515 1.377 . S
C510 O537 1.393 . S
C511 C510 1.288 . S
C511 C512 1.369 . S
C511 H577 0.932 . S
C512 C511 1.369 . S
C512 C513 1.398 . S
C512 C516 1.527 . S
C513 C512 1.398 . S
C513 C514 1.380 . S
C513 C527 1.497 . S
C514 C513 1.380 . S
C514 C515 1.383 . S
C514 C517 1.603 . S
C515 C510 1.377 . S
C515 C514 1.383 . S
C515 H578 0.929 . S
C516 C512 1.527 . S
C516 H579 0.961 . S
C516 H580 0.959 . S
C516 H581 0.959 . S
C517 C514 1.603 . S
C517 H582 0.960 . S
C517 H583 0.962 . S
C517 H584 0.961 . S
C518 C485 1.587 . S
C518 C519 1.360 . S
C518 C531 1.412 . S
C519 C518 1.360 . S
C519 C520 1.365 . S
C519 H585 0.929 . S
C520 C495 1.553 . S
C520 C519 1.365 . S
C520 C521 1.404 . S
C521 C520 1.404 . S
C521 C522 1.395 . S
C521 C532 1.451 . S
C522 C521 1.395 . S
C522 C523 1.322 . S
C522 H586 0.930 . S
C523 C522 1.322 . S
C523 C524 1.459 . S
C523 H587 0.929 . S
C524 C523 1.459 . S
C524 C525 1.445 . S
C524 C533 1.395 . S
C525 C503 1.432 . S
C525 C524 1.445 . S
C525 C526 1.370 . S
C526 C525 1.370 . S
C526 C527 1.438 . S
C526 H588 0.930 . S
C527 C513 1.497 . S
C527 C526 1.438 . S
C527 C528 1.360 . S
C528 C527 1.360 . S
C528 C529 1.401 . S
C528 C533 1.446 . S
C529 C528 1.401 . S
C529 C530 1.347 . S
C529 H589 0.929 . S
C530 C529 1.347 . S
C530 C531 1.455 . S
C530 H590 0.930 . S
C531 C518 1.412 . S
C531 C530 1.455 . S
C531 C532 1.331 . S
C532 C521 1.451 . S
C532 C531 1.331 . S
C532 C533 1.497 . S
C533 C524 1.395 . S
C533 C528 1.446 . S
C533 C532 1.497 . S
C534 C535 1.582 . S
C534 H591 0.962 . S
C534 H592 0.959 . S
C534 H593 0.958 . S
C535 C534 1.582 . S
C535 O538 1.458 . S
C535 H564 0.980 . S
O536 C481 1.426 . S
O536 C482 1.334 . S
O537 C509 1.412 . S
O537 C510 1.393 . S
O538 C500 1.435 . S
O538 C535 1.458 . S
O539 C491 1.468 . S
O539 C492 1.408 . S
H540 C481 0.980 . S
H541 C480 0.959 . S
H542 C480 0.959 . S
H543 C480 0.960 . S
H544 C483 0.929 . S
H545 C487 0.929 . S
H546 C488 0.959 . S
H547 C488 0.961 . S
H548 C488 0.961 . S
H549 C489 0.960 . S
H550 C489 0.960 . S
H551 C489 0.961 . S
H552 C491 0.980 . S
H553 C490 0.961 . S
H554 C490 0.960 . S
H555 C490 0.959 . S
H556 C493 0.930 . S
H557 C497 0.931 . S
H558 C498 0.959 . S
H559 C498 0.961 . S
H560 C498 0.959 . S
H561 C499 0.960 . S
H562 C499 0.960 . S
H563 C499 0.960 . S
H564 C535 0.980 . S
H565 C501 0.930 . S
H566 C505 0.930 . S
H567 C506 0.961 . S
H568 C506 0.960 . S
H569 C506 0.958 . S
H570 C507 0.961 . S
H571 C507 0.960 . S
H572 C507 0.960 . S
H573 C509 0.980 . S
H574 C508 0.961 . S
H575 C508 0.961 . S
H576 C508 0.959 . S
H577 C511 0.932 . S
H578 C515 0.929 . S
H579 C516 0.961 . S
H580 C516 0.959 . S
H581 C516 0.959 . S
H582 C517 0.960 . S
H583 C517 0.962 . S
H584 C517 0.961 . S
H585 C519 0.929 . S
H586 C522 0.930 . S
H587 C523 0.929 . S
H588 C526 0.930 . S
H589 C529 0.929 . S
H590 C530 0.930 . S
H591 C534 0.962 . S
H592 C534 0.959 . S
H593 C534 0.958 . S
C594 C595 1.560 . S
C594 H655 0.959 . S
C594 H656 0.959 . S
C594 H657 0.960 . S
C595 C594 1.560 . S
C595 O650 1.426 . S
C595 H654 0.980 . S
C596 C597 1.407 . S
C596 C601 1.418 . S
C596 O650 1.334 . S
C597 C596 1.407 . S
C597 C598 1.360 . S
C597 H658 0.929 . S
C598 C597 1.360 . S
C598 C599 1.401 . S
C598 C602 1.527 . S
C599 C598 1.401 . S
C599 C600 1.405 . S
C599 C632 1.587 . S
C600 C599 1.405 . S
C600 C601 1.332 . S
C600 C603 1.496 . S
C601 C596 1.418 . S
C601 C600 1.332 . S
C601 H659 0.929 . S
C602 C598 1.527 . S
C602 H660 0.959 . S
C602 H661 0.961 . S
C602 H662 0.961 . S
C603 C600 1.496 . S
C603 H663 0.960 . S
C603 H664 0.960 . S
C603 H665 0.961 . S
C604 C605 1.517 . S
C604 H667 0.961 . S
C604 H668 0.960 . S
C604 H669 0.959 . S
C605 C604 1.517 . S
C605 O653 1.468 . S
C605 H666 0.980 . S
C606 C607 1.349 . S
C606 C611 1.367 . S
C606 O653 1.408 . S
C607 C606 1.349 . S
C607 C608 1.407 . S
C607 H670 0.930 . S
C608 C607 1.407 . S
C608 C609 1.449 . S
C608 C612 1.535 . S
C609 C608 1.449 . S
C609 C610 1.384 . S
C609 C634 1.553 . S
C610 C609 1.384 . S
C610 C611 1.364 . S
C610 C613 1.450 . S
C611 C606 1.367 . S
C611 C610 1.364 . S
C611 H671 0.931 . S
C612 C608 1.535 . S
C612 H672 0.959 . S
C612 H673 0.961 . S
C612 H674 0.959 . S
C613 C610 1.450 . S
C613 H675 0.960 . S
C613 H676 0.960 . S
C613 H677 0.960 . S
C614 C615 1.309 . S
C614 C619 1.304 . S
C614 O652 1.435 . S
C615 C614 1.309 . S
C615 C616 1.476 . S
C615 H679 0.930 . S
C616 C615 1.476 . S
C616 C617 1.400 . S
C616 C620 1.567 . S
C617 C616 1.400 . S
C617 C618 1.373 . S
C617 C639 1.432 . S
C618 C617 1.373 . S
C618 C619 1.339 . S
C618 C621 1.530 . S
C619 C614 1.304 . S
C619 C618 1.339 . S
C619 H680 0.930 . S
C620 C616 1.567 . S
C620 H681 0.961 . S
C620 H682 0.960 . S
C620 H683 0.958 . S
C621 C618 1.530 . S
C621 H684 0.961 . S
C621 H685 0.960 . S
C621 H686 0.960 . S
C622 C623 1.530 . S
C622 H688 0.961 . S
C622 H689 0.961 . S
C622 H690 0.959 . S
C623 C622 1.530 . S
C623 O651 1.412 . S
C623 H687 0.980 . S
C624 C625 1.288 . S
C624 C629 1.377 . S
C624 O651 1.393 . S
C625 C624 1.288 . S
C625 C626 1.369 . S
C625 H691 0.932 . S
C626 C625 1.369 . S
C626 C627 1.398 . S
C626 C630 1.527 . S
C627 C626 1.398 . S
C627 C628 1.380 . S
C627 C641 1.497 . S
C628 C627 1.380 . S
C628 C629 1.383 . S
C628 C631 1.603 . S
C629 C624 1.377 . S
C629 C628 1.383 . S
C629 H692 0.929 . S
C630 C626 1.527 . S
C630 H693 0.961 . S
C630 H694 0.959 . S
C630 H695 0.959 . S
C631 C628 1.603 . S
C631 H696 0.960 . S
C631 H697 0.962 . S
C631 H698 0.961 . S
C632 C599 1.587 . S
C632 C633 1.360 . S
C632 C645 1.412 . S
C633 C632 1.360 . S
C633 C634 1.365 . S
C633 H699 0.929 . S
C634 C609 1.553 . S
C634 C633 1.365 . S
C634 C635 1.404 . S
C635 C634 1.404 . S
C635 C636 1.395 . S
C635 C646 1.451 . S
C636 C635 1.395 . S
C636 C637 1.322 . S
C636 H700 0.930 . S
C637 C636 1.322 . S
C637 C638 1.459 . S
C637 H701 0.929 . S
C638 C637 1.459 . S
C638 C639 1.445 . S
C638 C647 1.395 . S
C639 C617 1.432 . S
C639 C638 1.445 . S
C639 C640 1.370 . S
C640 C639 1.370 . S
C640 C641 1.438 . S
C640 H702 0.930 . S
C641 C627 1.497 . S
C641 C640 1.438 . S
C641 C642 1.360 . S
C642 C641 1.360 . S
C642 C643 1.401 . S
C642 C647 1.446 . S
C643 C642 1.401 . S
C643 C644 1.347 . S
C643 H703 0.929 . S
C644 C643 1.347 . S
C644 C645 1.455 . S
C644 H704 0.930 . S
C645 C632 1.412 . S
C645 C644 1.455 . S
C645 C646 1.331 . S
C646 C635 1.451 . S
C646 C645 1.331 . S
C646 C647 1.497 . S
C647 C638 1.395 . S
C647 C642 1.446 . S
C647 C646 1.497 . S
C648 C649 1.582 . S
C648 H705 0.962 . S
C648 H706 0.959 . S
C648 H707 0.958 . S
C649 C648 1.582 . S
C649 O652 1.458 . S
C649 H678 0.980 . S
O650 C595 1.426 . S
O650 C596 1.334 . S
O651 C623 1.412 . S
O651 C624 1.393 . S
O652 C614 1.435 . S
O652 C649 1.458 . S
O653 C605 1.468 . S
O653 C606 1.408 . S
H654 C595 0.980 . S
H655 C594 0.959 . S
H656 C594 0.959 . S
H657 C594 0.960 . S
H658 C597 0.929 . S
H659 C601 0.929 . S
H660 C602 0.959 . S
H661 C602 0.961 . S
H662 C602 0.961 . S
H663 C603 0.960 . S
H664 C603 0.960 . S
H665 C603 0.961 . S
H666 C605 0.980 . S
H667 C604 0.961 . S
H668 C604 0.960 . S
H669 C604 0.959 . S
H670 C607 0.930 . S
H671 C611 0.931 . S
H672 C612 0.959 . S
H673 C612 0.961 . S
H674 C612 0.959 . S
H675 C613 0.960 . S
H676 C613 0.960 . S
H677 C613 0.960 . S
H678 C649 0.980 . S
H679 C615 0.930 . S
H680 C619 0.930 . S
H681 C620 0.961 . S
H682 C620 0.960 . S
H683 C620 0.958 . S
H684 C621 0.961 . S
H685 C621 0.960 . S
H686 C621 0.960 . S
H687 C623 0.980 . S
H688 C622 0.961 . S
H689 C622 0.961 . S
H690 C622 0.959 . S
H691 C625 0.932 . S
H692 C629 0.929 . S
H693 C630 0.961 . S
H694 C630 0.959 . S
H695 C630 0.959 . S
H696 C631 0.960 . S
H697 C631 0.962 . S
H698 C631 0.961 . S
H699 C633 0.929 . S
H700 C636 0.930 . S
H701 C637 0.929 . S
H702 C640 0.930 . S
H703 C643 0.929 . S
H704 C644 0.930 . S
H705 C648 0.962 . S
H706 C648 0.959 . S
H707 C648 0.958 . S
C708 C709 1.560 . S
C708 H769 0.959 . S
C708 H770 0.959 . S
C708 H771 0.960 . S
C709 C708 1.560 . S
C709 O764 1.426 . S
C709 H768 0.980 . S
C710 C711 1.407 . S
C710 C715 1.418 . S
C710 O764 1.334 . S
C711 C710 1.407 . S
C711 C712 1.360 . S
C711 H772 0.929 . S
C712 C711 1.360 . S
C712 C713 1.401 . S
C712 C716 1.527 . S
C713 C712 1.401 . S
C713 C714 1.405 . S
C713 C746 1.587 . S
C714 C713 1.405 . S
C714 C715 1.332 . S
C714 C717 1.496 . S
C715 C710 1.418 . S
C715 C714 1.332 . S
C715 H773 0.929 . S
C716 C712 1.527 . S
C716 H774 0.959 . S
C716 H775 0.961 . S
C716 H776 0.961 . S
C717 C714 1.496 . S
C717 H777 0.960 . S
C717 H778 0.960 . S
C717 H779 0.961 . S
C718 C719 1.517 . S
C718 H781 0.961 . S
C718 H782 0.960 . S
C718 H783 0.959 . S
C719 C718 1.517 . S
C719 O767 1.468 . S
C719 H780 0.980 . S
C720 C721 1.349 . S
C720 C725 1.367 . S
C720 O767 1.408 . S
C721 C720 1.349 . S
C721 C722 1.407 . S
C721 H784 0.930 . S
C722 C721 1.407 . S
C722 C723 1.449 . S
C722 C726 1.535 . S
C723 C722 1.449 . S
C723 C724 1.384 . S
C723 C748 1.553 . S
C724 C723 1.384 . S
C724 C725 1.364 . S
C724 C727 1.450 . S
C725 C720 1.367 . S
C725 C724 1.364 . S
C725 H785 0.931 . S
C726 C722 1.535 . S
C726 H786 0.959 . S
C726 H787 0.961 . S
C726 H788 0.959 . S
C727 C724 1.450 . S
C727 H789 0.960 . S
C727 H790 0.960 . S
C727 H791 0.960 . S
C728 C729 1.309 . S
C728 C733 1.304 . S
C728 O766 1.435 . S
C729 C728 1.309 . S
C729 C730 1.476 . S
C729 H793 0.930 . S
C730 C729 1.476 . S
C730 C731 1.400 . S
C730 C734 1.567 . S
C731 C730 1.400 . S
C731 C732 1.373 . S
C731 C753 1.432 . S
C732 C731 1.373 . S
C732 C733 1.339 . S
C732 C735 1.530 . S
C733 C728 1.304 . S
C733 C732 1.339 . S
C733 H794 0.930 . S
C734 C730 1.567 . S
C734 H795 0.961 . S
C734 H796 0.960 . S
C734 H797 0.958 . S
C735 C732 1.530 . S
C735 H798 0.961 . S
C735 H799 0.960 . S
C735 H800 0.960 . S
C736 C737 1.530 . S
C736 H802 0.961 . S
C736 H803 0.961 . S
C736 H804 0.959 . S
C737 C736 1.530 . S
C737 O765 1.412 . S
C737 H801 0.980 . S
C738 C739 1.288 . S
C738 C743 1.377 . S
C738 O765 1.393 . S
C739 C738 1.288 . S
C739 C740 1.369 . S
C739 H805 0.932 . S
C740 C739 1.369 . S
C740 C741 1.398 . S
C740 C744 1.527 . S
C741 C740 1.398 . S
C741 C742 1.380 . S
C741 C755 1.497 . S
C742 C741 1.380 . S
C742 C743 1.383 . S
C742 C745 1.603 . S
C743 C738 1.377 . S
C743 C742 1.383 . S
C743 H806 0.929 . S
C744 C740 1.527 . S
C744 H807 0.961 . S
C744 H808 0.959 . S
C744 H809 0.959 . S
C745 C742 1.603 . S
C745 H810 0.960 . S
C745 H811 0.962 . S
C745 H812 0.961 . S
C746 C713 1.587 . S
C746 C747 1.360 . S
C746 C759 1.412 . S
C747 C746 1.360 . S
C747 C748 1.365 . S
C747 H813 0.929 . S
C748 C723 1.553 . S
C748 C747 1.365 . S
C748 C749 1.404 . S
C749 C748 1.404 . S
C749 C750 1.395 . S
C749 C760 1.451 . S
C750 C749 1.395 . S
C750 C751 1.322 . S
C750 H814 0.930 . S
C751 C750 1.322 . S
C751 C752 1.459 . S
C751 H815 0.929 . S
C752 C751 1.459 . S
C752 C753 1.445 . S
C752 C761 1.395 . S
C753 C731 1.432 . S
C753 C752 1.445 . S
C753 C754 1.370 . S
C754 C753 1.370 . S
C754 C755 1.438 . S
C754 H816 0.930 . S
C755 C741 1.497 . S
C755 C754 1.438 . S
C755 C756 1.360 . S
C756 C755 1.360 . S
C756 C757 1.401 . S
C756 C761 1.446 . S
C757 C756 1.401 . S
C757 C758 1.347 . S
C757 H817 0.929 . S
C758 C757 1.347 . S
C758 C759 1.455 . S
C758 H818 0.930 . S
C759 C746 1.412 . S
C759 C758 1.455 . S
C759 C760 1.331 . S
C760 C749 1.451 . S
C760 C759 1.331 . S
C760 C761 1.497 . S
C761 C752 1.395 . S
C761 C756 1.446 . S
C761 C760 1.497 . S
C762 C763 1.582 . S
C762 H819 0.962 . S
C762 H820 0.959 . S
C762 H821 0.958 . S
C763 C762 1.582 . S
C763 O766 1.458 . S
C763 H792 0.980 . S
O764 C709 1.426 . S
O764 C710 1.334 . S
O765 C737 1.412 . S
O765 C738 1.393 . S
O766 C728 1.435 . S
O766 C763 1.458 . S
O767 C719 1.468 . S
O767 C720 1.408 . S
H768 C709 0.980 . S
H769 C708 0.959 . S
H770 C708 0.959 . S
H771 C708 0.960 . S
H772 C711 0.929 . S
H773 C715 0.929 . S
H774 C716 0.959 . S
H775 C716 0.961 . S
H776 C716 0.961 . S
H777 C717 0.960 . S
H778 C717 0.960 . S
H779 C717 0.961 . S
H780 C719 0.980 . S
H781 C718 0.961 . S
H782 C718 0.960 . S
H783 C718 0.959 . S
H784 C721 0.930 . S
H785 C725 0.931 . S
H786 C726 0.959 . S
H787 C726 0.961 . S
H788 C726 0.959 . S
H789 C727 0.960 . S
H790 C727 0.960 . S
H791 C727 0.960 . S
H792 C763 0.980 . S
H793 C729 0.930 . S
H794 C733 0.930 . S
H795 C734 0.961 . S
H796 C734 0.960 . S
H797 C734 0.958 . S
H798 C735 0.961 . S
H799 C735 0.960 . S
H800 C735 0.960 . S
H801 C737 0.980 . S
H802 C736 0.961 . S
H803 C736 0.961 . S
H804 C736 0.959 . S
H805 C739 0.932 . S
H806 C743 0.929 . S
H807 C744 0.961 . S
H808 C744 0.959 . S
H809 C744 0.959 . S
H810 C745 0.960 . S
H811 C745 0.962 . S
H812 C745 0.961 . S
H813 C747 0.929 . S
H814 C750 0.930 . S
H815 C751 0.929 . S
H816 C754 0.930 . S
H817 C757 0.929 . S
H818 C758 0.930 . S
H819 C762 0.962 . S
H820 C762 0.959 . S
H821 C762 0.958 . S
C822 C823 1.560 . S
C822 H883 0.959 . S
C822 H884 0.959 . S
C822 H885 0.960 . S
C823 C822 1.560 . S
C823 O878 1.426 . S
C823 H882 0.980 . S
C824 C825 1.407 . S
C824 C829 1.418 . S
C824 O878 1.334 . S
C825 C824 1.407 . S
C825 C826 1.360 . S
C825 H886 0.929 . S
C826 C825 1.360 . S
C826 C827 1.401 . S
C826 C830 1.527 . S
C827 C826 1.401 . S
C827 C828 1.405 . S
C827 C860 1.587 . S
C828 C827 1.405 . S
C828 C829 1.332 . S
C828 C831 1.496 . S
C829 C824 1.418 . S
C829 C828 1.332 . S
C829 H887 0.929 . S
C830 C826 1.527 . S
C830 H888 0.959 . S
C830 H889 0.961 . S
C830 H890 0.961 . S
C831 C828 1.496 . S
C831 H891 0.960 . S
C831 H892 0.960 . S
C831 H893 0.961 . S
C832 C833 1.517 . S
C832 H895 0.961 . S
C832 H896 0.960 . S
C832 H897 0.959 . S
C833 C832 1.517 . S
C833 O881 1.468 . S
C833 H894 0.980 . S
C834 C835 1.349 . S
C834 C839 1.367 . S
C834 O881 1.408 . S
C835 C834 1.349 . S
C835 C836 1.407 . S
C835 H898 0.930 . S
C836 C835 1.407 . S
C836 C837 1.449 . S
C836 C840 1.535 . S
C837 C836 1.449 . S
C837 C838 1.384 . S
C837 C862 1.553 . S
C838 C837 1.384 . S
C838 C839 1.364 . S
C838 C841 1.450 . S
C839 C834 1.367 . S
C839 C838 1.364 . S
C839 H899 0.931 . S
C840 C836 1.535 . S
C840 H900 0.959 . S
C840 H901 0.961 . S
C840 H902 0.959 . S
C841 C838 1.450 . S
C841 H903 0.960 . S
C841 H904 0.960 . S
C841 H905 0.960 . S
C842 C843 1.309 . S
C842 C847 1.304 . S
C842 O880 1.435 . S
C843 C842 1.309 . S
C843 C844 1.476 . S
C843 H907 0.930 . S
C844 C843 1.476 . S
C844 C845 1.400 . S
C844 C848 1.567 . S
C845 C844 1.400 . S
C845 C846 1.373 . S
C845 C867 1.432 . S
C846 C845 1.373 . S
C846 C847 1.339 . S
C846 C849 1.530 . S
C847 C842 1.304 . S
C847 C846 1.339 . S
C847 H908 0.930 . S
C848 C844 1.567 . S
C848 H909 0.961 . S
C848 H910 0.960 . S
C848 H911 0.958 . S
C849 C846 1.530 . S
C849 H912 0.961 . S
C849 H913 0.960 . S
C849 H914 0.960 . S
C850 C851 1.530 . S
C850 H916 0.961 . S
C850 H917 0.961 . S
C850 H918 0.959 . S
C851 C850 1.530 . S
C851 O879 1.412 . S
C851 H915 0.980 . S
C852 C853 1.288 . S
C852 C857 1.377 . S
C852 O879 1.393 . S
C853 C852 1.288 . S
C853 C854 1.369 . S
C853 H919 0.932 . S
C854 C853 1.369 . S
C854 C855 1.398 . S
C854 C858 1.527 . S
C855 C854 1.398 . S
C855 C856 1.380 . S
C855 C869 1.497 . S
C856 C855 1.380 . S
C856 C857 1.383 . S
C856 C859 1.603 . S
C857 C852 1.377 . S
C857 C856 1.383 . S
C857 H920 0.929 . S
C858 C854 1.527 . S
C858 H921 0.961 . S
C858 H922 0.959 . S
C858 H923 0.959 . S
C859 C856 1.603 . S
C859 H924 0.960 . S
C859 H925 0.962 . S
C859 H926 0.961 . S
C860 C827 1.587 . S
C860 C861 1.360 . S
C860 C873 1.412 . S
C861 C860 1.360 . S
C861 C862 1.365 . S
C861 H927 0.929 . S
C862 C837 1.553 . S
C862 C861 1.365 . S
C862 C863 1.404 . S
C863 C862 1.404 . S
C863 C864 1.395 . S
C863 C874 1.451 . S
C864 C863 1.395 . S
C864 C865 1.322 . S
C864 H928 0.930 . S
C865 C864 1.322 . S
C865 C866 1.459 . S
C865 H929 0.929 . S
C866 C865 1.459 . S
C866 C867 1.445 . S
C866 C875 1.395 . S
C867 C845 1.432 . S
C867 C866 1.445 . S
C867 C868 1.370 . S
C868 C867 1.370 . S
C868 C869 1.438 . S
C868 H930 0.930 . S
C869 C855 1.497 . S
C869 C868 1.438 . S
C869 C870 1.360 . S
C870 C869 1.360 . S
C870 C871 1.401 . S
C870 C875 1.446 . S
C871 C870 1.401 . S
C871 C872 1.347 . S
C871 H931 0.929 . S
C872 C871 1.347 . S
C872 C873 1.455 . S
C872 H932 0.930 . S
C873 C860 1.412 . S
C873 C872 1.455 . S
C873 C874 1.331 . S
C874 C863 1.451 . S
C874 C873 1.331 . S
C874 C875 1.497 . S
C875 C866 1.395 . S
C875 C870 1.446 . S
C875 C874 1.497 . S
C876 C877 1.582 . S
C876 H933 0.962 . S
C876 H934 0.959 . S
C876 H935 0.958 . S
C877 C876 1.582 . S
C877 O880 1.458 . S
C877 H906 0.980 . S
O878 C823 1.426 . S
O878 C824 1.334 . S
O879 C851 1.412 . S
O879 C852 1.393 . S
O880 C842 1.435 . S
O880 C877 1.458 . S
O881 C833 1.468 . S
O881 C834 1.408 . S
H882 C823 0.980 . S
H883 C822 0.959 . S
H884 C822 0.959 . S
H885 C822 0.960 . S
H886 C825 0.929 . S
H887 C829 0.929 . S
H888 C830 0.959 . S
H889 C830 0.961 . S
H890 C830 0.961 . S
H891 C831 0.960 . S
H892 C831 0.960 . S
H893 C831 0.961 . S
H894 C833 0.980 . S
H895 C832 0.961 . S
H896 C832 0.960 . S
H897 C832 0.959 . S
H898 C835 0.930 . S
H899 C839 0.931 . S
H900 C840 0.959 . S
H901 C840 0.961 . S
H902 C840 0.959 . S
H903 C841 0.960 . S
H904 C841 0.960 . S
H905 C841 0.960 . S
H906 C877 0.980 . S
H907 C843 0.930 . S
H908 C847 0.930 . S
H909 C848 0.961 . S
H910 C848 0.960 . S
H911 C848 0.958 . S
H912 C849 0.961 . S
H913 C849 0.960 . S
H914 C849 0.960 . S
H915 C851 0.980 . S
H916 C850 0.961 . S
H917 C850 0.961 . S
H918 C850 0.959 . S
H919 C853 0.932 . S
H920 C857 0.929 . S
H921 C858 0.961 . S
H922 C858 0.959 . S
H923 C858 0.959 . S
H924 C859 0.960 . S
H925 C859 0.962 . S
H926 C859 0.961 . S
H927 C861 0.929 . S
H928 C864 0.930 . S
H929 C865 0.929 . S
H930 C868 0.930 . S
H931 C871 0.929 . S
H932 C872 0.930 . S
H933 C876 0.962 . S
H934 C876 0.959 . S
H935 C876 0.958 . S
C936 C937 1.560 . S
C936 H997 0.959 . S
C936 H998 0.959 . S
C936 H999 0.960 . S
C937 C936 1.560 . S
C937 O992 1.426 . S
C937 H996 0.980 . S
C938 C939 1.407 . S
C938 C943 1.418 . S
C938 O992 1.334 . S
C939 C938 1.407 . S
C939 C940 1.360 . S
C939 H1000 0.929 . S
C940 C939 1.360 . S
C940 C941 1.401 . S
C940 C944 1.527 . S
C941 C940 1.401 . S
C941 C942 1.405 . S
C941 C974 1.587 . S
C942 C941 1.405 . S
C942 C943 1.332 . S
C942 C945 1.496 . S
C943 C938 1.418 . S
C943 C942 1.332 . S
C943 H1001 0.929 . S
C944 C940 1.527 . S
C944 H1002 0.959 . S
C944 H1003 0.961 . S
C944 H1004 0.961 . S
C945 C942 1.496 . S
C945 H1005 0.960 . S
C945 H1006 0.960 . S
C945 H1007 0.961 . S
C946 C947 1.517 . S
C946 H1009 0.961 . S
C946 H1010 0.960 . S
C946 H1011 0.959 . S
C947 C946 1.517 . S
C947 O995 1.468 . S
C947 H1008 0.980 . S
C948 C949 1.349 . S
C948 C953 1.367 . S
C948 O995 1.408 . S
C949 C948 1.349 . S
C949 C950 1.407 . S
C949 H1012 0.930 . S
C950 C949 1.407 . S
C950 C951 1.449 . S
C950 C954 1.535 . S
C951 C950 1.449 . S
C951 C952 1.384 . S
C951 C976 1.553 . S
C952 C951 1.384 . S
C952 C953 1.364 . S
C952 C955 1.450 . S
C953 C948 1.367 . S
C953 C952 1.364 . S
C953 H1013 0.931 . S
C954 C950 1.535 . S
C954 H1014 0.959 . S
C954 H1015 0.961 . S
C954 H1016 0.959 . S
C955 C952 1.450 . S
C955 H1017 0.960 . S
C955 H1018 0.960 . S
C955 H1019 0.960 . S
C956 C957 1.309 . S
C956 C961 1.304 . S
C956 O994 1.435 . S
C957 C956 1.309 . S
C957 C958 1.476 . S
C957 H1021 0.930 . S
C958 C957 1.476 . S
C958 C959 1.400 . S
C958 C962 1.567 . S
C959 C958 1.400 . S
C959 C960 1.373 . S
C959 C981 1.432 . S
C960 C959 1.373 . S
C960 C961 1.339 . S
C960 C963 1.530 . S
C961 C956 1.304 . S
C961 C960 1.339 . S
C961 H1022 0.930 . S
C962 C958 1.567 . S
C962 H1023 0.961 . S
C962 H1024 0.960 . S
C962 H1025 0.958 . S
C963 C960 1.530 . S
C963 H1026 0.961 . S
C963 H1027 0.960 . S
C963 H1028 0.960 . S
C964 C965 1.530 . S
C964 H1030 0.961 . S
C964 H1031 0.961 . S
C964 H1032 0.959 . S
C965 C964 1.530 . S
C965 O993 1.412 . S
C965 H1029 0.980 . S
C966 C967 1.288 . S
C966 C971 1.377 . S
C966 O993 1.393 . S
C967 C966 1.288 . S
C967 C968 1.369 . S
C967 H1033 0.932 . S
C968 C967 1.369 . S
C968 C969 1.398 . S
C968 C972 1.527 . S
C969 C968 1.398 . S
C969 C970 1.380 . S
C969 C983 1.497 . S
C970 C969 1.380 . S
C970 C971 1.383 . S
C970 C973 1.603 . S
C971 C966 1.377 . S
C971 C970 1.383 . S
C971 H1034 0.929 . S
C972 C968 1.527 . S
C972 H1035 0.961 . S
C972 H1036 0.959 . S
C972 H1037 0.959 . S
C973 C970 1.603 . S
C973 H1038 0.960 . S
C973 H1039 0.962 . S
C973 H1040 0.961 . S
C974 C941 1.587 . S
C974 C975 1.360 . S
C974 C987 1.412 . S
C975 C974 1.360 . S
C975 C976 1.365 . S
C975 H1041 0.929 . S
C976 C951 1.553 . S
C976 C975 1.365 . S
C976 C977 1.404 . S
C977 C976 1.404 . S
C977 C978 1.395 . S
C977 C988 1.451 . S
C978 C977 1.395 . S
C978 C979 1.322 . S
C978 H1042 0.930 . S
C979 C978 1.322 . S
C979 C980 1.459 . S
C979 H1043 0.929 . S
C980 C979 1.459 . S
C980 C981 1.445 . S
C980 C989 1.395 . S
C981 C959 1.432 . S
C981 C980 1.445 . S
C981 C982 1.370 . S
C982 C981 1.370 . S
C982 C983 1.438 . S
C982 H1044 0.930 . S
C983 C969 1.497 . S
C983 C982 1.438 . S
C983 C984 1.360 . S
C984 C983 1.360 . S
C984 C985 1.401 . S
C984 C989 1.446 . S
C985 C984 1.401 . S
C985 C986 1.347 . S
C985 H1045 0.929 . S
C986 C985 1.347 . S
C986 C987 1.455 . S
C986 H1046 0.930 . S
C987 C974 1.412 . S
C987 C986 1.455 . S
C987 C988 1.331 . S
C988 C977 1.451 . S
C988 C987 1.331 . S
C988 C989 1.497 . S
C989 C980 1.395 . S
C989 C984 1.446 . S
C989 C988 1.497 . S
C990 C991 1.582 . S
C990 H1047 0.962 . S
C990 H1048 0.959 . S
C990 H1049 0.958 . S
C991 C990 1.582 . S
C991 O994 1.458 . S
C991 H1020 0.980 . S
O992 C937 1.426 . S
O992 C938 1.334 . S
O993 C965 1.412 . S
O993 C966 1.393 . S
O994 C956 1.435 . S
O994 C991 1.458 . S
O995 C947 1.468 . S
O995 C948 1.408 . S
H996 C937 0.980 . S
H997 C936 0.959 . S
H998 C936 0.959 . S
H999 C936 0.960 . S
H1000 C939 0.929 . S
H1001 C943 0.929 . S
H1002 C944 0.959 . S
H1003 C944 0.961 . S
H1004 C944 0.961 . S
H1005 C945 0.960 . S
H1006 C945 0.960 . S
H1007 C945 0.961 . S
H1008 C947 0.980 . S
H1009 C946 0.961 . S
H1010 C946 0.960 . S
H1011 C946 0.959 . S
H1012 C949 0.930 . S
H1013 C953 0.931 . S
H1014 C954 0.959 . S
H1015 C954 0.961 . S
H1016 C954 0.959 . S
H1017 C955 0.960 . S
H1018 C955 0.960 . S
H1019 C955 0.960 . S
H1020 C991 0.980 . S
H1021 C957 0.930 . S
H1022 C961 0.930 . S
H1023 C962 0.961 . S
H1024 C962 0.960 . S
H1025 C962 0.958 . S
H1026 C963 0.961 . S
H1027 C963 0.960 . S
H1028 C963 0.960 . S
H1029 C965 0.980 . S
H1030 C964 0.961 . S
H1031 C964 0.961 . S
H1032 C964 0.959 . S
H1033 C967 0.932 . S
H1034 C971 0.929 . S
H1035 C972 0.961 . S
H1036 C972 0.959 . S
H1037 C972 0.959 . S
H1038 C973 0.960 . S
H1039 C973 0.962 . S
H1040 C973 0.961 . S
H1041 C975 0.929 . S
H1042 C978 0.930 . S
H1043 C979 0.929 . S
H1044 C982 0.930 . S
H1045 C985 0.929 . S
H1046 C986 0.930 . S
H1047 C990 0.962 . S
H1048 C990 0.959 . S
H1049 C990 0.958 . S
C1050 C1051 1.560 . S
C1050 H1111 0.959 . S
C1050 H1112 0.959 . S
C1050 H1113 0.960 . S
C1051 C1050 1.560 . S
C1051 O1106 1.426 . S
C1051 H1110 0.980 . S
C1052 C1053 1.407 . S
C1052 C1057 1.418 . S
C1052 O1106 1.334 . S
C1053 C1052 1.407 . S
C1053 C1054 1.360 . S
C1053 H1114 0.929 . S
C1054 C1053 1.360 . S
C1054 C1055 1.401 . S
C1054 C1058 1.527 . S
C1055 C1054 1.401 . S
C1055 C1056 1.405 . S
C1055 C1088 1.587 . S
C1056 C1055 1.405 . S
C1056 C1057 1.332 . S
C1056 C1059 1.496 . S
C1057 C1052 1.418 . S
C1057 C1056 1.332 . S
C1057 H1115 0.929 . S
C1058 C1054 1.527 . S
C1058 H1116 0.959 . S
C1058 H1117 0.961 . S
C1058 H1118 0.961 . S
C1059 C1056 1.496 . S
C1059 H1119 0.960 . S
C1059 H1120 0.960 . S
C1059 H1121 0.961 . S
C1060 C1061 1.517 . S
C1060 H1123 0.961 . S
C1060 H1124 0.960 . S
C1060 H1125 0.959 . S
C1061 C1060 1.517 . S
C1061 O1109 1.468 . S
C1061 H1122 0.980 . S
C1062 C1063 1.349 . S
C1062 C1067 1.367 . S
C1062 O1109 1.408 . S
C1063 C1062 1.349 . S
C1063 C1064 1.407 . S
C1063 H1126 0.930 . S
C1064 C1063 1.407 . S
C1064 C1065 1.449 . S
C1064 C1068 1.535 . S
C1065 C1064 1.449 . S
C1065 C1066 1.384 . S
C1065 C1090 1.553 . S
C1066 C1065 1.384 . S
C1066 C1067 1.364 . S
C1066 C1069 1.450 . S
C1067 C1062 1.367 . S
C1067 C1066 1.364 . S
C1067 H1127 0.931 . S
C1068 C1064 1.535 . S
C1068 H1128 0.959 . S
C1068 H1129 0.961 . S
C1068 H1130 0.959 . S
C1069 C1066 1.450 . S
C1069 H1131 0.960 . S
C1069 H1132 0.960 . S
C1069 H1133 0.960 . S
C1070 C1071 1.309 . S
C1070 C1075 1.304 . S
C1070 O1108 1.435 . S
C1071 C1070 1.309 . S
C1071 C1072 1.476 . S
C1071 H1135 0.930 . S
C1072 C1071 1.476 . S
C1072 C1073 1.400 . S
C1072 C1076 1.567 . S
C1073 C1072 1.400 . S
C1073 C1074 1.373 . S
C1073 C1095 1.432 . S
C1074 C1073 1.373 . S
C1074 C1075 1.339 . S
C1074 C1077 1.530 . S
C1075 C1070 1.304 . S
C1075 C1074 1.339 . S
C1075 H1136 0.930 . S
C1076 C1072 1.567 . S
C1076 H1137 0.961 . S
C1076 H1138 0.960 . S
C1076 H1139 0.958 . S
C1077 C1074 1.530 . S
C1077 H1140 0.961 . S
C1077 H1141 0.960 . S
C1077 H1142 0.960 . S
C1078 C1079 1.530 . S
C1078 H1144 0.961 . S
C1078 H1145 0.961 . S
C1078 H1146 0.959 . S
C1079 C1078 1.530 . S
C1079 O1107 1.412 . S
C1079 H1143 0.980 . S
C1080 C1081 1.288 . S
C1080 C1085 1.377 . S
C1080 O1107 1.393 . S
C1081 C1080 1.288 . S
C1081 C1082 1.369 . S
C1081 H1147 0.932 . S
C1082 C1081 1.369 . S
C1082 C1083 1.398 . S
C1082 C1086 1.527 . S
C1083 C1082 1.398 . S
C1083 C1084 1.380 . S
C1083 C1097 1.497 . S
C1084 C1083 1.380 . S
C1084 C1085 1.383 . S
C1084 C1087 1.603 . S
C1085 C1080 1.377 . S
C1085 C1084 1.383 . S
C1085 H1148 0.929 . S
C1086 C1082 1.527 . S
C1086 H1149 0.961 . S
C1086 H1150 0.959 . S
C1086 H1151 0.959 . S
C1087 C1084 1.603 . S
C1087 H1152 0.960 . S
C1087 H1153 0.962 . S
C1087 H1154 0.961 . S
C1088 C1055 1.587 . S
C1088 C1089 1.360 . S
C1088 C1101 1.412 . S
C1089 C1088 1.360 . S
C1089 C1090 1.365 . S
C1089 H1155 0.929 . S
C1090 C1065 1.553 . S
C1090 C1089 1.365 . S
C1090 C1091 1.404 . S
C1091 C1090 1.404 . S
C1091 C1092 1.395 . S
C1091 C1102 1.451 . S
C1092 C1091 1.395 . S
C1092 C1093 1.322 . S
C1092 H1156 0.930 . S
C1093 C1092 1.322 . S
C1093 C1094 1.459 . S
C1093 H1157 0.929 . S
C1094 C1093 1.459 . S
C1094 C1095 1.445 . S
C1094 C1103 1.395 . S
C1095 C1073 1.432 . S
C1095 C1094 1.445 . S
C1095 C1096 1.370 . S
C1096 C1095 1.370 . S
C1096 C1097 1.438 . S
C1096 H1158 0.930 . S
C1097 C1083 1.497 . S
C1097 C1096 1.438 . S
C1097 C1098 1.360 . S
C1098 C1097 1.360 . S
C1098 C1099 1.401 . S
C1098 C1103 1.446 . S
C1099 C1098 1.401 . S
C1099 C1100 1.347 . S
C1099 H1159 0.929 . S
C1100 C1099 1.347 . S
C1100 C1101 1.455 . S
C1100 H1160 0.930 . S
C1101 C1088 1.412 . S
C1101 C1100 1.455 . S
C1101 C1102 1.331 . S
C1102 C1091 1.451 . S
C1102 C1101 1.331 . S
C1102 C1103 1.497 . S
C1103 C1094 1.395 . S
C1103 C1098 1.446 . S
C1103 C1102 1.497 . S
C1104 C1105 1.582 . S
C1104 H1161 0.962 . S
C1104 H1162 0.959 . S
C1104 H1163 0.958 . S
C1105 C1104 1.582 . S
C1105 O1108 1.458 . S
C1105 H1134 0.980 . S
O1106 C1051 1.426 . S
O1106 C1052 1.334 . S
O1107 C1079 1.412 . S
O1107 C1080 1.393 . S
O1108 C1070 1.435 . S
O1108 C1105 1.458 . S
O1109 C1061 1.468 . S
O1109 C1062 1.408 . S
H1110 C1051 0.980 . S
H1111 C1050 0.959 . S
H1112 C1050 0.959 . S
H1113 C1050 0.960 . S
H1114 C1053 0.929 . S
H1115 C1057 0.929 . S
H1116 C1058 0.959 . S
H1117 C1058 0.961 . S
H1118 C1058 0.961 . S
H1119 C1059 0.960 . S
H1120 C1059 0.960 . S
H1121 C1059 0.961 . S
H1122 C1061 0.980 . S
H1123 C1060 0.961 . S
H1124 C1060 0.960 . S
H1125 C1060 0.959 . S
H1126 C1063 0.930 . S
H1127 C1067 0.931 . S
H1128 C1068 0.959 . S
H1129 C1068 0.961 . S
H1130 C1068 0.959 . S
H1131 C1069 0.960 . S
H1132 C1069 0.960 . S
H1133 C1069 0.960 . S
H1134 C1105 0.980 . S
H1135 C1071 0.930 . S
H1136 C1075 0.930 . S
H1137 C1076 0.961 . S
H1138 C1076 0.960 . S
H1139 C1076 0.958 . S
H1140 C1077 0.961 . S
H1141 C1077 0.960 . S
H1142 C1077 0.960 . S
H1143 C1079 0.980 . S
H1144 C1078 0.961 . S
H1145 C1078 0.961 . S
H1146 C1078 0.959 . S
H1147 C1081 0.932 . S
H1148 C1085 0.929 . S
H1149 C1086 0.961 . S
H1150 C1086 0.959 . S
H1151 C1086 0.959 . S
H1152 C1087 0.960 . S
H1153 C1087 0.962 . S
H1154 C1087 0.961 . S
H1155 C1089 0.929 . S
H1156 C1092 0.930 . S
H1157 C1093 0.929 . S
H1158 C1096 0.930 . S
H1159 C1099 0.929 . S
H1160 C1100 0.930 . S
H1161 C1104 0.962 . S
H1162 C1104 0.959 . S
H1163 C1104 0.958 . S
C1164 C1165 1.560 . S
C1164 H1225 0.959 . S
C1164 H1226 0.959 . S
C1164 H1227 0.960 . S
C1165 C1164 1.560 . S
C1165 O1220 1.426 . S
C1165 H1224 0.980 . S
C1166 C1167 1.407 . S
C1166 C1171 1.418 . S
C1166 O1220 1.334 . S
C1167 C1166 1.407 . S
C1167 C1168 1.360 . S
C1167 H1228 0.929 . S
C1168 C1167 1.360 . S
C1168 C1169 1.401 . S
C1168 C1172 1.527 . S
C1169 C1168 1.401 . S
C1169 C1170 1.405 . S
C1169 C1202 1.587 . S
C1170 C1169 1.405 . S
C1170 C1171 1.332 . S
C1170 C1173 1.496 . S
C1171 C1166 1.418 . S
C1171 C1170 1.332 . S
C1171 H1229 0.929 . S
C1172 C1168 1.527 . S
C1172 H1230 0.959 . S
C1172 H1231 0.961 . S
C1172 H1232 0.961 . S
C1173 C1170 1.496 . S
C1173 H1233 0.960 . S
C1173 H1234 0.960 . S
C1173 H1235 0.961 . S
C1174 C1175 1.517 . S
C1174 H1237 0.961 . S
C1174 H1238 0.960 . S
C1174 H1239 0.959 . S
C1175 C1174 1.517 . S
C1175 O1223 1.468 . S
C1175 H1236 0.980 . S
C1176 C1177 1.349 . S
C1176 C1181 1.367 . S
C1176 O1223 1.408 . S
C1177 C1176 1.349 . S
C1177 C1178 1.407 . S
C1177 H1240 0.930 . S
C1178 C1177 1.407 . S
C1178 C1179 1.449 . S
C1178 C1182 1.535 . S
C1179 C1178 1.449 . S
C1179 C1180 1.384 . S
C1179 C1204 1.553 . S
C1180 C1179 1.384 . S
C1180 C1181 1.364 . S
C1180 C1183 1.450 . S
C1181 C1176 1.367 . S
C1181 C1180 1.364 . S
C1181 H1241 0.931 . S
C1182 C1178 1.535 . S
C1182 H1242 0.959 . S
C1182 H1243 0.961 . S
C1182 H1244 0.959 . S
C1183 C1180 1.450 . S
C1183 H1245 0.960 . S
C1183 H1246 0.960 . S
C1183 H1247 0.960 . S
C1184 C1185 1.309 . S
C1184 C1189 1.304 . S
C1184 O1222 1.435 . S
C1185 C1184 1.309 . S
C1185 C1186 1.476 . S
C1185 H1249 0.930 . S
C1186 C1185 1.476 . S
C1186 C1187 1.400 . S
C1186 C1190 1.567 . S
C1187 C1186 1.400 . S
C1187 C1188 1.373 . S
C1187 C1209 1.432 . S
C1188 C1187 1.373 . S
C1188 C1189 1.339 . S
C1188 C1191 1.530 . S
C1189 C1184 1.304 . S
C1189 C1188 1.339 . S
C1189 H1250 0.930 . S
C1190 C1186 1.567 . S
C1190 H1251 0.961 . S
C1190 H1252 0.960 . S
C1190 H1253 0.958 . S
C1191 C1188 1.530 . S
C1191 H1254 0.961 . S
C1191 H1255 0.960 . S
C1191 H1256 0.960 . S
C1192 C1193 1.530 . S
C1192 H1258 0.961 . S
C1192 H1259 0.961 . S
C1192 H1260 0.959 . S
C1193 C1192 1.530 . S
C1193 O1221 1.412 . S
C1193 H1257 0.980 . S
C1194 C1195 1.288 . S
C1194 C1199 1.377 . S
C1194 O1221 1.393 . S
C1195 C1194 1.288 . S
C1195 C1196 1.369 . S
C1195 H1261 0.932 . S
C1196 C1195 1.369 . S
C1196 C1197 1.398 . S
C1196 C1200 1.527 . S
C1197 C1196 1.398 . S
C1197 C1198 1.380 . S
C1197 C1211 1.497 . S
C1198 C1197 1.380 . S
C1198 C1199 1.383 . S
C1198 C1201 1.603 . S
C1199 C1194 1.377 . S
C1199 C1198 1.383 . S
C1199 H1262 0.929 . S
C1200 C1196 1.527 . S
C1200 H1263 0.961 . S
C1200 H1264 0.959 . S
C1200 H1265 0.959 . S
C1201 C1198 1.603 . S
C1201 H1266 0.960 . S
C1201 H1267 0.962 . S
C1201 H1268 0.961 . S
C1202 C1169 1.587 . S
C1202 C1203 1.360 . S
C1202 C1215 1.412 . S
C1203 C1202 1.360 . S
C1203 C1204 1.365 . S
C1203 H1269 0.929 . S
C1204 C1179 1.553 . S
C1204 C1203 1.365 . S
C1204 C1205 1.404 . S
C1205 C1204 1.404 . S
C1205 C1206 1.395 . S
C1205 C1216 1.451 . S
C1206 C1205 1.395 . S
C1206 C1207 1.322 . S
C1206 H1270 0.930 . S
C1207 C1206 1.322 . S
C1207 C1208 1.459 . S
C1207 H1271 0.929 . S
C1208 C1207 1.459 . S
C1208 C1209 1.445 . S
C1208 C1217 1.395 . S
C1209 C1187 1.432 . S
C1209 C1208 1.445 . S
C1209 C1210 1.370 . S
C1210 C1209 1.370 . S
C1210 C1211 1.438 . S
C1210 H1272 0.930 . S
C1211 C1197 1.497 . S
C1211 C1210 1.438 . S
C1211 C1212 1.360 . S
C1212 C1211 1.360 . S
C1212 C1213 1.401 . S
C1212 C1217 1.446 . S
C1213 C1212 1.401 . S
C1213 C1214 1.347 . S
C1213 H1273 0.929 . S
C1214 C1213 1.347 . S
C1214 C1215 1.455 . S
C1214 H1274 0.930 . S
C1215 C1202 1.412 . S
C1215 C1214 1.455 . S
C1215 C1216 1.331 . S
C1216 C1205 1.451 . S
C1216 C1215 1.331 . S
C1216 C1217 1.497 . S
C1217 C1208 1.395 . S
C1217 C1212 1.446 . S
C1217 C1216 1.497 . S
C1218 C1219 1.582 . S
C1218 H1275 0.962 . S
C1218 H1276 0.959 . S
C1218 H1277 0.958 . S
C1219 C1218 1.582 . S
C1219 O1222 1.458 . S
C1219 H1248 0.980 . S
O1220 C1165 1.426 . S
O1220 C1166 1.334 . S
O1221 C1193 1.412 . S
O1221 C1194 1.393 . S
O1222 C1184 1.435 . S
O1222 C1219 1.458 . S
O1223 C1175 1.468 . S
O1223 C1176 1.408 . S
H1224 C1165 0.980 . S
H1225 C1164 0.959 . S
H1226 C1164 0.959 . S
H1227 C1164 0.960 . S
H1228 C1167 0.929 . S
H1229 C1171 0.929 . S
H1230 C1172 0.959 . S
H1231 C1172 0.961 . S
H1232 C1172 0.961 . S
H1233 C1173 0.960 . S
H1234 C1173 0.960 . S
H1235 C1173 0.961 . S
H1236 C1175 0.980 . S
H1237 C1174 0.961 . S
H1238 C1174 0.960 . S
H1239 C1174 0.959 . S
H1240 C1177 0.930 . S
H1241 C1181 0.931 . S
H1242 C1182 0.959 . S
H1243 C1182 0.961 . S
H1244 C1182 0.959 . S
H1245 C1183 0.960 . S
H1246 C1183 0.960 . S
H1247 C1183 0.960 . S
H1248 C1219 0.980 . S
H1249 C1185 0.930 . S
H1250 C1189 0.930 . S
H1251 C1190 0.961 . S
H1252 C1190 0.960 . S
H1253 C1190 0.958 . S
H1254 C1191 0.961 . S
H1255 C1191 0.960 . S
H1256 C1191 0.960 . S
H1257 C1193 0.980 . S
H1258 C1192 0.961 . S
H1259 C1192 0.961 . S
H1260 C1192 0.959 . S
H1261 C1195 0.932 . S
H1262 C1199 0.929 . S
H1263 C1200 0.961 . S
H1264 C1200 0.959 . S
H1265 C1200 0.959 . S
H1266 C1201 0.960 . S
H1267 C1201 0.962 . S
H1268 C1201 0.961 . S
H1269 C1203 0.929 . S
H1270 C1206 0.930 . S
H1271 C1207 0.929 . S
H1272 C1210 0.930 . S
H1273 C1213 0.929 . S
H1274 C1214 0.930 . S
H1275 C1218 0.962 . S
H1276 C1218 0.959 . S
H1277 C1218 0.958 . S
C1278 C1279 1.560 . S
C1278 H1339 0.959 . S
C1278 H1340 0.959 . S
C1278 H1341 0.960 . S
C1279 C1278 1.560 . S
C1279 O1334 1.426 . S
C1279 H1338 0.980 . S
C1280 C1281 1.407 1_455 S
C1280 C1285 1.418 . S
C1280 O1334 1.334 . S
C1281 C1280 1.407 1_655 S
C1281 C1282 1.360 . S
C1281 H1342 0.929 . S
C1282 C1281 1.360 . S
C1282 C1283 1.385 1_655 S
C1282 C1286 1.527 . S
C1283 C1282 1.385 1_455 S
C1283 C1284 1.484 . S
C1283 C1316 1.529 1_455 S
C1284 C1283 1.484 . S
C1284 C1285 1.332 . S
C1284 C1287 1.496 . S
C1285 C1280 1.418 . S
C1285 C1284 1.332 . S
C1285 H1343 0.929 . S
C1286 C1282 1.527 . S
C1286 H1344 0.959 . S
C1286 H1345 0.961 . S
C1286 H1346 0.961 . S
C1287 C1284 1.496 . S
C1287 H1347 0.960 . S
C1287 H1348 0.960 . S
C1287 H1349 0.961 . S
C1288 C1289 1.517 . S
C1288 H1351 0.961 . S
C1288 H1352 0.960 . S
C1288 H1353 0.959 . S
C1289 C1288 1.517 . S
C1289 O1337 1.468 . S
C1289 H1350 0.980 1_655 S
C1290 C1291 1.349 . S
C1290 C1295 1.367 . S
C1290 O1337 1.408 . S
C1291 C1290 1.349 . S
C1291 C1292 1.389 1_655 S
C1291 H1354 0.930 1_655 S
C1292 C1291 1.389 1_455 S
C1292 C1293 1.433 1_455 S
C1292 C1296 1.567 . S
C1293 C1292 1.433 1_655 S
C1293 C1294 1.384 . S
C1293 C1318 1.553 . S
C1294 C1293 1.384 . S
C1294 C1295 1.364 . S
C1294 C1297 1.450 . S
C1295 C1290 1.367 . S
C1295 C1294 1.364 . S
C1295 H1355 0.931 . S
C1296 C1292 1.567 . S
C1296 H1356 0.959 . S
C1296 H1357 0.961 . S
C1296 H1358 0.959 . S
C1297 C1294 1.450 . S
C1297 H1359 0.960 . S
C1297 H1360 0.960 . S
C1297 H1361 0.960 . S
C1298 C1299 1.309 . S
C1298 C1303 1.304 . S
C1298 O1336 1.435 . S
C1299 C1298 1.309 . S
C1299 C1300 1.440 1_655 S
C1299 H1363 0.930 1_655 S
C1300 C1299 1.440 1_455 S
C1300 C1301 1.377 1_455 S
C1300 C1304 1.626 . S
C1301 C1300 1.377 1_655 S
C1301 C1302 1.373 . S
C1301 C1323 1.432 . S
C1302 C1301 1.373 . S
C1302 C1303 1.339 . S
C1302 C1305 1.530 . S
C1303 C1298 1.304 . S
C1303 C1302 1.339 . S
C1303 H1364 0.930 . S
C1304 C1300 1.626 . S
C1304 H1365 0.961 . S
C1304 H1366 0.960 . S
C1304 H1367 0.958 . S
C1305 C1302 1.530 . S
C1305 H1368 0.961 . S
C1305 H1369 0.960 . S
C1305 H1370 0.960 . S
C1306 C1307 1.547 . S
C1306 H1372 0.961 . S
C1306 H1373 0.961 . S
C1306 H1374 0.959 . S
C1307 C1306 1.547 . S
C1307 O1335 1.415 . S
C1307 H1371 0.975 1_455 S
C1308 C1309 1.288 . S
C1308 C1313 1.377 1_455 S
C1308 O1335 1.393 . S
C1309 C1308 1.288 . S
C1309 C1310 1.369 . S
C1309 H1375 0.932 . S
C1310 C1309 1.369 . S
C1310 C1311 1.398 1_455 S
C1310 C1314 1.527 . S
C1311 C1310 1.398 1_655 S
C1311 C1312 1.380 . S
C1311 C1325 1.497 . S
C1312 C1311 1.380 . S
C1312 C1313 1.383 . S
C1312 C1315 1.603 . S
C1313 C1308 1.377 1_655 S
C1313 C1312 1.383 . S
C1313 H1376 0.929 . S
C1314 C1310 1.527 . S
C1314 H1377 0.961 . S
C1314 H1378 0.959 . S
C1314 H1379 0.959 . S
C1315 C1312 1.603 . S
C1315 H1380 0.960 . S
C1315 H1381 0.962 . S
C1315 H1382 0.961 . S
C1316 C1283 1.529 1_655 S
C1316 C1317 1.360 . S
C1316 C1329 1.412 . S
C1317 C1316 1.360 . S
C1317 C1318 1.365 . S
C1317 H1383 0.929 . S
C1318 C1293 1.553 . S
C1318 C1317 1.365 . S
C1318 C1319 1.404 . S
C1319 C1318 1.404 . S
C1319 C1320 1.395 . S
C1319 C1330 1.451 . S
C1320 C1319 1.395 . S
C1320 C1321 1.322 . S
C1320 H1384 0.930 . S
C1321 C1320 1.322 . S
C1321 C1322 1.459 . S
C1321 H1385 0.929 . S
C1322 C1321 1.459 . S
C1322 C1323 1.445 . S
C1322 C1331 1.395 . S
C1323 C1301 1.432 . S
C1323 C1322 1.445 . S
C1323 C1324 1.370 . S
C1324 C1323 1.370 . S
C1324 C1325 1.438 . S
C1324 H1386 0.930 . S
C1325 C1311 1.497 . S
C1325 C1324 1.438 . S
C1325 C1326 1.360 . S
C1326 C1325 1.360 . S
C1326 C1327 1.401 . S
C1326 C1331 1.446 . S
C1327 C1326 1.401 . S
C1327 C1328 1.347 . S
C1327 H1387 0.929 . S
C1328 C1327 1.347 . S
C1328 C1329 1.455 . S
C1328 H1388 0.930 . S
C1329 C1316 1.412 . S
C1329 C1328 1.455 . S
C1329 C1330 1.331 . S
C1330 C1319 1.451 . S
C1330 C1329 1.331 . S
C1330 C1331 1.497 . S
C1331 C1322 1.395 . S
C1331 C1326 1.446 . S
C1331 C1330 1.497 . S
C1332 C1333 1.582 . S
C1332 H1389 0.962 . S
C1332 H1390 0.959 . S
C1332 H1391 0.958 . S
C1333 C1332 1.582 . S
C1333 O1336 1.458 . S
C1333 H1362 0.980 . S
O1334 C1279 1.426 . S
O1334 C1280 1.334 . S
O1335 C1307 1.415 . S
O1335 C1308 1.393 . S
O1336 C1298 1.435 . S
O1336 C1333 1.458 . S
O1337 C1289 1.468 . S
O1337 C1290 1.408 . S
H1338 C1279 0.980 . S
H1339 C1278 0.959 . S
H1340 C1278 0.959 . S
H1341 C1278 0.960 . S
H1342 C1281 0.929 . S
H1343 C1285 0.929 . S
H1344 C1286 0.959 . S
H1345 C1286 0.961 . S
H1346 C1286 0.961 . S
H1347 C1287 0.960 . S
H1348 C1287 0.960 . S
H1349 C1287 0.961 . S
H1350 C1289 0.980 1_455 S
H1351 C1288 0.961 . S
H1352 C1288 0.960 . S
H1353 C1288 0.959 . S
H1354 C1291 0.930 1_455 S
H1355 C1295 0.931 . S
H1356 C1296 0.959 . S
H1357 C1296 0.961 . S
H1358 C1296 0.959 . S
H1359 C1297 0.960 . S
H1360 C1297 0.960 . S
H1361 C1297 0.960 . S
H1362 C1333 0.980 . S
H1363 C1299 0.930 1_455 S
H1364 C1303 0.930 . S
H1365 C1304 0.961 . S
H1366 C1304 0.960 . S
H1367 C1304 0.958 . S
H1368 C1305 0.961 . S
H1369 C1305 0.960 . S
H1370 C1305 0.960 . S
H1371 C1307 0.975 1_655 S
H1372 C1306 0.961 . S
H1373 C1306 0.961 . S
H1374 C1306 0.959 . S
H1375 C1309 0.932 . S
H1376 C1313 0.929 . S
H1377 C1314 0.961 . S
H1378 C1314 0.959 . S
H1379 C1314 0.959 . S
H1380 C1315 0.960 . S
H1381 C1315 0.962 . S
H1382 C1315 0.961 . S
H1383 C1317 0.929 . S
H1384 C1320 0.930 . S
H1385 C1321 0.929 . S
H1386 C1324 0.930 . S
H1387 C1327 0.929 . S
H1388 C1328 0.930 . S
H1389 C1332 0.962 . S
H1390 C1332 0.959 . S
H1391 C1332 0.958 . S
C1392 C1393 1.560 . S
C1392 H1453 0.959 . S
C1392 H1454 0.959 . S
C1392 H1455 0.960 . S
C1393 C1392 1.560 . S
C1393 O1448 1.426 . S
C1393 H1452 0.980 . S
C1394 C1395 1.407 . S
C1394 C1399 1.418 . S
C1394 O1448 1.334 . S
C1395 C1394 1.407 . S
C1395 C1396 1.360 . S
C1395 H1456 0.929 . S
C1396 C1395 1.360 . S
C1396 C1397 1.401 . S
C1396 C1400 1.527 . S
C1397 C1396 1.401 . S
C1397 C1398 1.405 . S
C1397 C1430 1.587 . S
C1398 C1397 1.405 . S
C1398 C1399 1.332 . S
C1398 C1401 1.496 . S
C1399 C1394 1.418 . S
C1399 C1398 1.332 . S
C1399 H1457 0.929 . S
C1400 C1396 1.527 . S
C1400 H1458 0.959 . S
C1400 H1459 0.961 . S
C1400 H1460 0.961 . S
C1401 C1398 1.496 . S
C1401 H1461 0.960 . S
C1401 H1462 0.960 . S
C1401 H1463 0.961 . S
C1402 C1403 1.517 . S
C1402 H1465 0.961 . S
C1402 H1466 0.960 . S
C1402 H1467 0.959 . S
C1403 C1402 1.517 . S
C1403 O1451 1.468 . S
C1403 H1464 0.980 . S
C1404 C1405 1.349 . S
C1404 C1409 1.367 . S
C1404 O1451 1.408 . S
C1405 C1404 1.349 . S
C1405 C1406 1.407 . S
C1405 H1468 0.930 . S
C1406 C1405 1.407 . S
C1406 C1407 1.449 . S
C1406 C1410 1.535 . S
C1407 C1406 1.449 . S
C1407 C1408 1.384 . S
C1407 C1432 1.553 . S
C1408 C1407 1.384 . S
C1408 C1409 1.364 . S
C1408 C1411 1.450 . S
C1409 C1404 1.367 . S
C1409 C1408 1.364 . S
C1409 H1469 0.931 . S
C1410 C1406 1.535 . S
C1410 H1470 0.959 . S
C1410 H1471 0.961 . S
C1410 H1472 0.959 . S
C1411 C1408 1.450 . S
C1411 H1473 0.960 . S
C1411 H1474 0.960 . S
C1411 H1475 0.960 . S
C1412 C1413 1.309 . S
C1412 C1417 1.304 . S
C1412 O1450 1.435 . S
C1413 C1412 1.309 . S
C1413 C1414 1.476 . S
C1413 H1477 0.930 . S
C1414 C1413 1.476 . S
C1414 C1415 1.400 . S
C1414 C1418 1.567 . S
C1415 C1414 1.400 . S
C1415 C1416 1.373 . S
C1415 C1437 1.432 . S
C1416 C1415 1.373 . S
C1416 C1417 1.339 . S
C1416 C1419 1.530 . S
C1417 C1412 1.304 . S
C1417 C1416 1.339 . S
C1417 H1478 0.930 . S
C1418 C1414 1.567 . S
C1418 H1479 0.961 . S
C1418 H1480 0.960 . S
C1418 H1481 0.958 . S
C1419 C1416 1.530 . S
C1419 H1482 0.961 . S
C1419 H1483 0.960 . S
C1419 H1484 0.960 . S
C1420 C1421 1.530 . S
C1420 H1486 0.961 . S
C1420 H1487 0.961 . S
C1420 H1488 0.959 . S
C1421 C1420 1.530 . S
C1421 O1449 1.412 . S
C1421 H1485 0.980 . S
C1422 C1423 1.288 . S
C1422 C1427 1.377 . S
C1422 O1449 1.393 . S
C1423 C1422 1.288 . S
C1423 C1424 1.369 . S
C1423 H1489 0.932 . S
C1424 C1423 1.369 . S
C1424 C1425 1.398 . S
C1424 C1428 1.527 . S
C1425 C1424 1.398 . S
C1425 C1426 1.380 . S
C1425 C1439 1.497 . S
C1426 C1425 1.380 . S
C1426 C1427 1.383 . S
C1426 C1429 1.603 . S
C1427 C1422 1.377 . S
C1427 C1426 1.383 . S
C1427 H1490 0.929 . S
C1428 C1424 1.527 . S
C1428 H1491 0.961 . S
C1428 H1492 0.959 . S
C1428 H1493 0.959 . S
C1429 C1426 1.603 . S
C1429 H1494 0.960 . S
C1429 H1495 0.962 . S
C1429 H1496 0.961 . S
C1430 C1397 1.587 . S
C1430 C1431 1.360 . S
C1430 C1443 1.412 . S
C1431 C1430 1.360 . S
C1431 C1432 1.365 . S
C1431 H1497 0.929 . S
C1432 C1407 1.553 . S
C1432 C1431 1.365 . S
C1432 C1433 1.404 . S
C1433 C1432 1.404 . S
C1433 C1434 1.395 . S
C1433 C1444 1.451 . S
C1434 C1433 1.395 . S
C1434 C1435 1.322 . S
C1434 H1498 0.930 . S
C1435 C1434 1.322 . S
C1435 C1436 1.459 . S
C1435 H1499 0.929 . S
C1436 C1435 1.459 . S
C1436 C1437 1.445 . S
C1436 C1445 1.395 . S
C1437 C1415 1.432 . S
C1437 C1436 1.445 . S
C1437 C1438 1.370 . S
C1438 C1437 1.370 . S
C1438 C1439 1.438 . S
C1438 H1500 0.930 . S
C1439 C1425 1.497 . S
C1439 C1438 1.438 . S
C1439 C1440 1.360 . S
C1440 C1439 1.360 . S
C1440 C1441 1.401 . S
C1440 C1445 1.446 . S
C1441 C1440 1.401 . S
C1441 C1442 1.347 . S
C1441 H1501 0.929 . S
C1442 C1441 1.347 . S
C1442 C1443 1.455 . S
C1442 H1502 0.930 . S
C1443 C1430 1.412 . S
C1443 C1442 1.455 . S
C1443 C1444 1.331 . S
C1444 C1433 1.451 . S
C1444 C1443 1.331 . S
C1444 C1445 1.497 . S
C1445 C1436 1.395 . S
C1445 C1440 1.446 . S
C1445 C1444 1.497 . S
C1446 C1447 1.582 . S
C1446 H1503 0.962 . S
C1446 H1504 0.959 . S
C1446 H1505 0.958 . S
C1447 C1446 1.582 . S
C1447 O1450 1.458 . S
C1447 H1476 0.980 . S
O1448 C1393 1.426 . S
O1448 C1394 1.334 . S
O1449 C1421 1.412 . S
O1449 C1422 1.393 . S
O1450 C1412 1.435 . S
O1450 C1447 1.458 . S
O1451 C1403 1.468 . S
O1451 C1404 1.408 . S
H1452 C1393 0.980 . S
H1453 C1392 0.959 . S
H1454 C1392 0.959 . S
H1455 C1392 0.960 . S
H1456 C1395 0.929 . S
H1457 C1399 0.929 . S
H1458 C1400 0.959 . S
H1459 C1400 0.961 . S
H1460 C1400 0.961 . S
H1461 C1401 0.960 . S
H1462 C1401 0.960 . S
H1463 C1401 0.961 . S
H1464 C1403 0.980 . S
H1465 C1402 0.961 . S
H1466 C1402 0.960 . S
H1467 C1402 0.959 . S
H1468 C1405 0.930 . S
H1469 C1409 0.931 . S
H1470 C1410 0.959 . S
H1471 C1410 0.961 . S
H1472 C1410 0.959 . S
H1473 C1411 0.960 . S
H1474 C1411 0.960 . S
H1475 C1411 0.960 . S
H1476 C1447 0.980 . S
H1477 C1413 0.930 . S
H1478 C1417 0.930 . S
H1479 C1418 0.961 . S
H1480 C1418 0.960 . S
H1481 C1418 0.958 . S
H1482 C1419 0.961 . S
H1483 C1419 0.960 . S
H1484 C1419 0.960 . S
H1485 C1421 0.980 . S
H1486 C1420 0.961 . S
H1487 C1420 0.961 . S
H1488 C1420 0.959 . S
H1489 C1423 0.932 . S
H1490 C1427 0.929 . S
H1491 C1428 0.961 . S
H1492 C1428 0.959 . S
H1493 C1428 0.959 . S
H1494 C1429 0.960 . S
H1495 C1429 0.962 . S
H1496 C1429 0.961 . S
H1497 C1431 0.929 . S
H1498 C1434 0.930 . S
H1499 C1435 0.929 . S
H1500 C1438 0.930 . S
H1501 C1441 0.929 . S
H1502 C1442 0.930 . S
H1503 C1446 0.962 . S
H1504 C1446 0.959 . S
H1505 C1446 0.958 . S
C1506 C1507 1.560 . S
C1506 H1567 0.959 . S
C1506 H1568 0.959 . S
C1506 H1569 0.960 . S
C1507 C1506 1.560 . S
C1507 O1562 1.426 . S
C1507 H1566 0.980 . S
C1508 C1509 1.407 1_565 S
C1508 C1513 1.418 . S
C1508 O1562 1.334 . S
C1509 C1508 1.407 1_545 S
C1509 C1510 1.360 . S
C1509 H1570 0.929 . S
C1510 C1509 1.360 . S
C1510 C1511 1.340 1_545 S
C1510 C1514 1.527 . S
C1511 C1510 1.340 1_565 S
C1511 C1512 1.463 . S
C1511 C1544 1.596 1_565 S
C1512 C1511 1.463 . S
C1512 C1513 1.332 . S
C1512 C1515 1.496 . S
C1513 C1508 1.418 . S
C1513 C1512 1.332 . S
C1513 H1571 0.929 . S
C1514 C1510 1.527 . S
C1514 H1572 0.959 . S
C1514 H1573 0.961 . S
C1514 H1574 0.961 . S
C1515 C1512 1.496 . S
C1515 H1575 0.960 . S
C1515 H1576 0.960 . S
C1515 H1577 0.961 . S
C1516 C1517 1.517 . S
C1516 H1579 0.972 . S
C1516 H1580 0.960 . S
C1516 H1581 0.959 . S
C1517 C1516 1.517 . S
C1517 O1565 1.468 . S
C1517 H1578 0.980 1_545 S
C1518 C1519 1.349 . S
C1518 C1523 1.367 . S
C1518 O1565 1.408 . S
C1519 C1518 1.349 . S
C1519 C1520 1.431 1_545 S
C1519 H1582 0.930 1_545 S
C1520 C1519 1.431 1_565 S
C1520 C1521 1.386 1_565 S
C1520 C1524 1.577 . S
C1521 C1520 1.386 1_545 S
C1521 C1522 1.384 . S
C1521 C1546 1.553 . S
C1522 C1521 1.384 . S
C1522 C1523 1.364 . S
C1522 C1525 1.450 . S
C1523 C1518 1.367 . S
C1523 C1522 1.364 . S
C1523 H1583 0.931 . S
C1524 C1520 1.577 . S
C1524 H1584 0.959 . S
C1524 H1585 0.961 . S
C1524 H1586 0.959 . S
C1525 C1522 1.450 . S
C1525 H1587 0.960 . S
C1525 H1588 0.960 . S
C1525 H1589 0.960 . S
C1526 C1527 1.309 . S
C1526 C1531 1.304 . S
C1526 O1564 1.435 . S
C1527 C1526 1.309 . S
C1527 C1528 1.502 1_545 S
C1527 H1591 0.930 1_545 S
C1528 C1527 1.502 1_565 S
C1528 C1529 1.318 1_565 S
C1528 C1532 1.624 . S
C1529 C1528 1.318 1_545 S
C1529 C1530 1.373 . S
C1529 C1551 1.432 . S
C1530 C1529 1.373 . S
C1530 C1531 1.339 . S
C1530 C1533 1.530 . S
C1531 C1526 1.304 . S
C1531 C1530 1.339 . S
C1531 H1592 0.930 . S
C1532 C1528 1.624 . S
C1532 H1593 0.961 . S
C1532 H1594 0.960 . S
C1532 H1595 0.958 . S
C1533 C1530 1.530 . S
C1533 H1596 0.961 . S
C1533 H1597 0.960 . S
C1533 H1598 0.960 . S
C1534 C1535 1.526 1_565 S
C1534 H1600 0.961 . S
C1534 H1601 0.961 . S
C1534 H1602 0.959 . S
C1535 C1534 1.526 1_545 S
C1535 O1563 1.382 1_545 S
C1535 H1599 0.996 . S
C1536 C1537 1.288 . S
C1536 C1541 1.377 1_565 S
C1536 O1563 1.393 . S
C1537 C1536 1.288 . S
C1537 C1538 1.369 . S
C1537 H1603 0.932 . S
C1538 C1537 1.369 . S
C1538 C1539 1.398 1_565 S
C1538 C1542 1.527 . S
C1539 C1538 1.398 1_545 S
C1539 C1540 1.380 . S
C1539 C1553 1.497 . S
C1540 C1539 1.380 . S
C1540 C1541 1.383 . S
C1540 C1543 1.603 . S
C1541 C1536 1.377 1_545 S
C1541 C1540 1.383 . S
C1541 H1604 0.929 . S
C1542 C1538 1.527 . S
C1542 H1605 0.961 . S
C1542 H1606 0.959 . S
C1542 H1607 0.959 . S
C1543 C1540 1.603 . S
C1543 H1608 0.960 . S
C1543 H1609 0.962 . S
C1543 H1610 0.961 . S
C1544 C1511 1.596 1_545 S
C1544 C1545 1.360 . S
C1544 C1557 1.412 . S
C1545 C1544 1.360 . S
C1545 C1546 1.365 . S
C1545 H1611 0.929 . S
C1546 C1521 1.553 . S
C1546 C1545 1.365 . S
C1546 C1547 1.404 . S
C1547 C1546 1.404 . S
C1547 C1548 1.395 . S
C1547 C1558 1.451 . S
C1548 C1547 1.395 . S
C1548 C1549 1.322 . S
C1548 H1612 0.930 . S
C1549 C1548 1.322 . S
C1549 C1550 1.459 . S
C1549 H1613 0.929 . S
C1550 C1549 1.459 . S
C1550 C1551 1.445 . S
C1550 C1559 1.395 . S
C1551 C1529 1.432 . S
C1551 C1550 1.445 . S
C1551 C1552 1.370 . S
C1552 C1551 1.370 . S
C1552 C1553 1.438 . S
C1552 H1614 0.930 . S
C1553 C1539 1.497 . S
C1553 C1552 1.438 . S
C1553 C1554 1.360 . S
C1554 C1553 1.360 . S
C1554 C1555 1.401 . S
C1554 C1559 1.446 . S
C1555 C1554 1.401 . S
C1555 C1556 1.347 . S
C1555 H1615 0.929 . S
C1556 C1555 1.347 . S
C1556 C1557 1.455 . S
C1556 H1616 0.930 . S
C1557 C1544 1.412 . S
C1557 C1556 1.455 . S
C1557 C1558 1.331 . S
C1558 C1547 1.451 . S
C1558 C1557 1.331 . S
C1558 C1559 1.497 . S
C1559 C1550 1.395 . S
C1559 C1554 1.446 . S
C1559 C1558 1.497 . S
C1560 C1561 1.582 . S
C1560 H1617 0.962 . S
C1560 H1618 0.959 . S
C1560 H1619 0.958 . S
C1561 C1560 1.582 . S
C1561 O1564 1.458 . S
C1561 H1590 0.980 . S
O1562 C1507 1.426 . S
O1562 C1508 1.334 . S
O1563 C1535 1.382 1_565 S
O1563 C1536 1.393 . S
O1564 C1526 1.435 . S
O1564 C1561 1.458 . S
O1565 C1517 1.468 . S
O1565 C1518 1.408 . S
H1566 C1507 0.980 . S
H1567 C1506 0.959 . S
H1568 C1506 0.959 . S
H1569 C1506 0.960 . S
H1570 C1509 0.929 . S
H1571 C1513 0.929 . S
H1572 C1514 0.959 . S
H1573 C1514 0.961 . S
H1574 C1514 0.961 . S
H1575 C1515 0.960 . S
H1576 C1515 0.960 . S
H1577 C1515 0.961 . S
H1578 C1517 0.980 1_565 S
H1579 C1516 0.972 . S
H1580 C1516 0.960 . S
H1581 C1516 0.959 . S
H1582 C1519 0.930 1_565 S
H1583 C1523 0.931 . S
H1584 C1524 0.959 . S
H1585 C1524 0.961 . S
H1586 C1524 0.959 . S
H1587 C1525 0.960 . S
H1588 C1525 0.960 . S
H1589 C1525 0.960 . S
H1590 C1561 0.980 . S
H1591 C1527 0.930 1_565 S
H1592 C1531 0.930 . S
H1593 C1532 0.961 . S
H1594 C1532 0.960 . S
H1595 C1532 0.958 . S
H1596 C1533 0.961 . S
H1597 C1533 0.960 . S
H1598 C1533 0.960 . S
H1599 C1535 0.996 . S
H1600 C1534 0.961 . S
H1601 C1534 0.961 . S
H1602 C1534 0.959 . S
H1603 C1537 0.932 . S
H1604 C1541 0.929 . S
H1605 C1542 0.961 . S
H1606 C1542 0.959 . S
H1607 C1542 0.959 . S
H1608 C1543 0.960 . S
H1609 C1543 0.962 . S
H1610 C1543 0.961 . S
H1611 C1545 0.929 . S
H1612 C1548 0.930 . S
H1613 C1549 0.929 . S
H1614 C1552 0.930 . S
H1615 C1555 0.929 . S
H1616 C1556 0.930 . S
H1617 C1560 0.962 . S
H1618 C1560 0.959 . S
H1619 C1560 0.958 . S
C1620 C1621 1.560 . S
C1620 H1681 0.959 . S
C1620 H1682 0.959 . S
C1620 H1683 0.960 . S
C1621 C1620 1.560 . S
C1621 O1676 1.426 . S
C1621 H1680 0.980 1_565 S
C1622 C1623 1.407 1_565 S
C1622 C1627 1.418 . S
C1622 O1676 1.334 . S
C1623 C1622 1.407 1_545 S
C1623 C1624 1.360 . S
C1623 H1684 0.929 . S
C1624 C1623 1.360 . S
C1624 C1625 1.401 . S
C1624 C1628 1.527 . S
C1625 C1624 1.401 . S
C1625 C1626 1.405 1_545 S
C1625 C1658 1.587 . S
C1626 C1625 1.405 1_565 S
C1626 C1627 1.332 . S
C1626 C1629 1.496 . S
C1627 C1622 1.418 . S
C1627 C1626 1.332 . S
C1627 H1685 0.929 . S
C1628 C1624 1.527 . S
C1628 H1686 0.959 . S
C1628 H1687 0.961 . S
C1628 H1688 0.961 . S
C1629 C1626 1.496 . S
C1629 H1689 0.960 . S
C1629 H1690 0.960 . S
C1629 H1691 0.961 . S
C1630 C1631 1.517 . S
C1630 H1693 0.961 . S
C1630 H1694 0.960 . S
C1630 H1695 0.959 . S
C1631 C1630 1.517 . S
C1631 O1679 1.468 . S
C1631 H1692 0.980 . S
C1632 C1633 1.349 . S
C1632 C1637 1.367 . S
C1632 O1679 1.408 . S
C1633 C1632 1.349 . S
C1633 C1634 1.407 . S
C1633 H1696 0.905 1_545 S
C1634 C1633 1.407 . S
C1634 C1635 1.449 . S
C1634 C1638 1.535 1_545 S
C1635 C1634 1.449 . S
C1635 C1636 1.384 . S
C1635 C1660 1.553 . S
C1636 C1635 1.384 . S
C1636 C1637 1.364 . S
C1636 C1639 1.450 . S
C1637 C1632 1.367 . S
C1637 C1636 1.364 . S
C1637 H1697 0.931 . S
C1638 C1634 1.535 1_565 S
C1638 H1698 0.959 . S
C1638 H1699 0.961 . S
C1638 H1700 0.959 . S
C1639 C1636 1.450 . S
C1639 H1701 0.960 . S
C1639 H1702 0.960 . S
C1639 H1703 0.960 . S
C1640 C1641 1.309 1_545 S
C1640 C1645 1.304 . S
C1640 O1678 1.435 . S
C1641 C1640 1.309 1_565 S
C1641 C1642 1.476 . S
C1641 H1705 0.930 . S
C1642 C1641 1.476 . S
C1642 C1643 1.400 1_565 S
C1642 C1646 1.567 . S
C1643 C1642 1.400 1_545 S
C1643 C1644 1.373 . S
C1643 C1665 1.432 . S
C1644 C1643 1.373 . S
C1644 C1645 1.339 . S
C1644 C1647 1.530 . S
C1645 C1640 1.304 . S
C1645 C1644 1.339 . S
C1645 H1706 0.930 . S
C1646 C1642 1.567 . S
C1646 H1707 0.961 . S
C1646 H1708 0.960 . S
C1646 H1709 0.958 . S
C1647 C1644 1.530 . S
C1647 H1710 0.961 . S
C1647 H1711 0.960 . S
C1647 H1712 0.960 . S
C1648 C1649 1.530 . S
C1648 H1714 0.961 . S
C1648 H1715 0.961 . S
C1648 H1716 0.959 . S
C1649 C1648 1.530 . S
C1649 O1677 1.412 . S
C1649 H1713 0.979 1_565 S
C1650 C1651 1.288 . S
C1650 C1655 1.377 1_565 S
C1650 O1677 1.393 . S
C1651 C1650 1.288 . S
C1651 C1652 1.369 . S
C1651 H1717 0.932 . S
C1652 C1651 1.369 . S
C1652 C1653 1.398 . S
C1652 C1656 1.527 . S
C1653 C1652 1.398 . S
C1653 C1654 1.380 1_565 S
C1653 C1667 1.497 1_565 S
C1654 C1653 1.380 1_545 S
C1654 C1655 1.383 . S
C1654 C1657 1.603 . S
C1655 C1650 1.377 1_545 S
C1655 C1654 1.383 . S
C1655 H1718 0.929 . S
C1656 C1652 1.527 . S
C1656 H1719 0.961 . S
C1656 H1720 0.959 . S
C1656 H1721 0.959 . S
C1657 C1654 1.603 . S
C1657 H1722 0.960 . S
C1657 H1723 0.962 . S
C1657 H1724 0.961 . S
C1658 C1625 1.587 . S
C1658 C1659 1.360 . S
C1658 C1671 1.412 . S
C1659 C1658 1.360 . S
C1659 C1660 1.365 . S
C1659 H1725 0.929 . S
C1660 C1635 1.553 . S
C1660 C1659 1.365 . S
C1660 C1661 1.404 . S
C1661 C1660 1.404 . S
C1661 C1662 1.395 . S
C1661 C1672 1.451 . S
C1662 C1661 1.395 . S
C1662 C1663 1.322 . S
C1662 H1726 0.930 . S
C1663 C1662 1.322 . S
C1663 C1664 1.459 . S
C1663 H1727 0.929 . S
C1664 C1663 1.459 . S
C1664 C1665 1.445 . S
C1664 C1673 1.395 . S
C1665 C1643 1.432 . S
C1665 C1664 1.445 . S
C1665 C1666 1.370 . S
C1666 C1665 1.370 . S
C1666 C1667 1.438 . S
C1666 H1728 0.930 . S
C1667 C1653 1.497 1_545 S
C1667 C1666 1.438 . S
C1667 C1668 1.360 . S
C1668 C1667 1.360 . S
C1668 C1669 1.401 . S
C1668 C1673 1.446 . S
C1669 C1668 1.401 . S
C1669 C1670 1.347 . S
C1669 H1729 0.975 . S
C1670 C1669 1.347 . S
C1670 C1671 1.455 . S
C1670 H1730 0.930 . S
C1671 C1658 1.412 . S
C1671 C1670 1.455 . S
C1671 C1672 1.331 . S
C1672 C1661 1.451 . S
C1672 C1671 1.331 . S
C1672 C1673 1.497 . S
C1673 C1664 1.395 . S
C1673 C1668 1.446 . S
C1673 C1672 1.497 . S
C1674 C1675 1.582 . S
C1674 H1731 0.962 . S
C1674 H1732 0.959 . S
C1674 H1733 0.958 . S
C1675 C1674 1.582 . S
C1675 O1678 1.458 . S
C1675 H1704 0.980 1_545 S
O1676 C1621 1.426 . S
O1676 C1622 1.334 . S
O1677 C1649 1.412 . S
O1677 C1650 1.393 . S
O1678 C1640 1.435 . S
O1678 C1675 1.458 . S
O1679 C1631 1.468 . S
O1679 C1632 1.408 . S
H1680 C1621 0.980 1_545 S
H1681 C1620 0.959 . S
H1682 C1620 0.959 . S
H1683 C1620 0.960 . S
H1684 C1623 0.929 . S
H1685 C1627 0.929 . S
H1686 C1628 0.959 . S
H1687 C1628 0.961 . S
H1688 C1628 0.961 . S
H1689 C1629 0.960 . S
H1690 C1629 0.960 . S
H1691 C1629 0.961 . S
H1692 C1631 0.980 . S
H1693 C1630 0.961 . S
H1694 C1630 0.960 . S
H1695 C1630 0.959 . S
H1696 C1633 0.905 1_565 S
H1697 C1637 0.931 . S
H1698 C1638 0.959 . S
H1699 C1638 0.961 . S
H1700 C1638 0.959 . S
H1701 C1639 0.960 . S
H1702 C1639 0.960 . S
H1703 C1639 0.960 . S
H1704 C1675 0.980 1_565 S
H1705 C1641 0.930 . S
H1706 C1645 0.930 . S
H1707 C1646 0.961 . S
H1708 C1646 0.960 . S
H1709 C1646 0.958 . S
H1710 C1647 0.961 . S
H1711 C1647 0.960 . S
H1712 C1647 0.960 . S
H1713 C1649 0.979 1_545 S
H1714 C1648 0.961 . S
H1715 C1648 0.961 . S
H1716 C1648 0.959 . S
H1717 C1651 0.932 . S
H1718 C1655 0.929 . S
H1719 C1656 0.961 . S
H1720 C1656 0.959 . S
H1721 C1656 0.959 . S
H1722 C1657 0.960 . S
H1723 C1657 0.962 . S
H1724 C1657 0.961 . S
H1725 C1659 0.929 . S
H1726 C1662 0.930 . S
H1727 C1663 0.929 . S
H1728 C1666 0.930 . S
H1729 C1669 0.975 . S
H1730 C1670 0.930 . S
H1731 C1674 0.962 . S
H1732 C1674 0.959 . S
H1733 C1674 0.958 . S
C1734 C1735 1.560 . S
C1734 H1795 0.959 . S
C1734 H1796 0.959 . S
C1734 H1797 0.960 . S
C1735 C1734 1.560 . S
C1735 O1790 1.426 . S
C1735 H1794 0.980 1_455 S
C1736 C1737 1.407 1_455 S
C1736 C1741 1.418 . S
C1736 O1790 1.334 . S
C1737 C1736 1.407 1_655 S
C1737 C1738 1.360 . S
C1737 H1798 0.929 . S
C1738 C1737 1.360 . S
C1738 C1739 1.401 . S
C1738 C1742 1.527 . S
C1739 C1738 1.401 . S
C1739 C1740 1.405 1_655 S
C1739 C1772 1.587 . S
C1740 C1739 1.405 1_455 S
C1740 C1741 1.332 . S
C1740 C1743 1.496 . S
C1741 C1736 1.418 . S
C1741 C1740 1.332 . S
C1741 H1799 0.929 . S
C1742 C1738 1.527 . S
C1742 H1800 0.959 . S
C1742 H1801 0.961 . S
C1742 H1802 0.961 . S
C1743 C1740 1.496 . S
C1743 H1803 0.960 . S
C1743 H1804 0.960 . S
C1743 H1805 0.961 . S
C1744 C1745 1.517 . S
C1744 H1807 0.961 . S
C1744 H1808 0.960 . S
C1744 H1809 0.959 . S
C1745 C1744 1.517 . S
C1745 O1793 1.468 . S
C1745 H1806 0.980 . S
C1746 C1747 1.349 . S
C1746 C1751 1.367 . S
C1746 O1793 1.408 . S
C1747 C1746 1.349 . S
C1747 C1748 1.407 . S
C1747 H1810 0.862 1_655 S
C1748 C1747 1.407 . S
C1748 C1749 1.449 . S
C1748 C1752 1.535 1_655 S
C1749 C1748 1.449 . S
C1749 C1750 1.384 . S
C1749 C1774 1.553 . S
C1750 C1749 1.384 . S
C1750 C1751 1.364 . S
C1750 C1753 1.450 . S
C1751 C1746 1.367 . S
C1751 C1750 1.364 . S
C1751 H1811 0.931 . S
C1752 C1748 1.535 1_455 S
C1752 H1812 0.959 . S
C1752 H1813 0.961 . S
C1752 H1814 0.959 . S
C1753 C1750 1.450 . S
C1753 H1815 0.960 . S
C1753 H1816 0.960 . S
C1753 H1817 0.960 . S
C1754 C1755 1.309 1_655 S
C1754 C1759 1.304 . S
C1754 O1792 1.435 . S
C1755 C1754 1.309 1_455 S
C1755 C1756 1.476 . S
C1755 H1819 0.930 . S
C1756 C1755 1.476 . S
C1756 C1757 1.400 1_455 S
C1756 C1760 1.567 . S
C1757 C1756 1.400 1_655 S
C1757 C1758 1.373 . S
C1757 C1779 1.432 . S
C1758 C1757 1.373 . S
C1758 C1759 1.339 . S
C1758 C1761 1.530 . S
C1759 C1754 1.304 . S
C1759 C1758 1.339 . S
C1759 H1820 0.930 . S
C1760 C1756 1.567 . S
C1760 H1821 0.961 . S
C1760 H1822 0.960 . S
C1760 H1823 0.958 . S
C1761 C1758 1.530 . S
C1761 H1824 0.961 . S
C1761 H1825 0.960 . S
C1761 H1826 0.960 . S
C1762 C1763 1.530 . S
C1762 H1828 0.961 . S
C1762 H1829 0.961 . S
C1762 H1830 0.959 . S
C1763 C1762 1.530 . S
C1763 O1791 1.412 . S
C1763 H1827 0.964 1_455 S
C1764 C1765 1.288 . S
C1764 C1769 1.377 1_455 S
C1764 O1791 1.393 . S
C1765 C1764 1.288 . S
C1765 C1766 1.369 . S
C1765 H1831 0.932 . S
C1766 C1765 1.369 . S
C1766 C1767 1.398 . S
C1766 C1770 1.527 . S
C1767 C1766 1.398 . S
C1767 C1768 1.380 1_455 S
C1767 C1781 1.497 1_455 S
C1768 C1767 1.380 1_655 S
C1768 C1769 1.383 . S
C1768 C1771 1.603 . S
C1769 C1764 1.377 1_655 S
C1769 C1768 1.383 . S
C1769 H1832 0.929 . S
C1770 C1766 1.527 . S
C1770 H1833 0.961 . S
C1770 H1834 0.959 . S
C1770 H1835 0.959 . S
C1771 C1768 1.603 . S
C1771 H1836 0.960 . S
C1771 H1837 0.962 . S
C1771 H1838 0.961 . S
C1772 C1739 1.587 . S
C1772 C1773 1.360 . S
C1772 C1785 1.412 . S
C1773 C1772 1.360 . S
C1773 C1774 1.365 . S
C1773 H1839 0.929 . S
C1774 C1749 1.553 . S
C1774 C1773 1.365 . S
C1774 C1775 1.404 . S
C1775 C1774 1.404 . S
C1775 C1776 1.395 . S
C1775 C1786 1.451 . S
C1776 C1775 1.395 . S
C1776 C1777 1.322 . S
C1776 H1840 0.930 . S
C1777 C1776 1.322 . S
C1777 C1778 1.459 . S
C1777 H1841 0.929 . S
C1778 C1777 1.459 . S
C1778 C1779 1.445 . S
C1778 C1787 1.395 . S
C1779 C1757 1.432 . S
C1779 C1778 1.445 . S
C1779 C1780 1.370 . S
C1780 C1779 1.370 . S
C1780 C1781 1.438 . S
C1780 H1842 0.930 . S
C1781 C1767 1.497 1_655 S
C1781 C1780 1.438 . S
C1781 C1782 1.360 . S
C1782 C1781 1.360 . S
C1782 C1783 1.401 . S
C1782 C1787 1.446 . S
C1783 C1782 1.401 . S
C1783 C1784 1.347 . S
C1783 H1843 0.929 . S
C1784 C1783 1.347 . S
C1784 C1785 1.455 . S
C1784 H1844 0.930 . S
C1785 C1772 1.412 . S
C1785 C1784 1.455 . S
C1785 C1786 1.331 . S
C1786 C1775 1.451 . S
C1786 C1785 1.331 . S
C1786 C1787 1.497 . S
C1787 C1778 1.395 . S
C1787 C1782 1.446 . S
C1787 C1786 1.497 . S
C1788 C1789 1.583 . S
C1788 H1845 0.962 . S
C1788 H1846 0.959 . S
C1788 H1847 0.958 . S
C1789 C1788 1.583 . S
C1789 O1792 1.485 . S
C1789 H1818 0.969 1_655 S
O1790 C1735 1.426 . S
O1790 C1736 1.334 . S
O1791 C1763 1.412 . S
O1791 C1764 1.393 . S
O1792 C1754 1.435 . S
O1792 C1789 1.485 . S
O1793 C1745 1.468 . S
O1793 C1746 1.408 . S
H1794 C1735 0.980 1_655 S
H1795 C1734 0.959 . S
H1796 C1734 0.959 . S
H1797 C1734 0.960 . S
H1798 C1737 0.929 . S
H1799 C1741 0.929 . S
H1800 C1742 0.959 . S
H1801 C1742 0.961 . S
H1802 C1742 0.961 . S
H1803 C1743 0.960 . S
H1804 C1743 0.960 . S
H1805 C1743 0.961 . S
H1806 C1745 0.980 . S
H1807 C1744 0.961 . S
H1808 C1744 0.960 . S
H1809 C1744 0.959 . S
H1810 C1747 0.862 1_455 S
H1811 C1751 0.931 . S
H1812 C1752 0.959 . S
H1813 C1752 0.961 . S
H1814 C1752 0.959 . S
H1815 C1753 0.960 . S
H1816 C1753 0.960 . S
H1817 C1753 0.960 . S
H1818 C1789 0.969 1_455 S
H1819 C1755 0.930 . S
H1820 C1759 0.930 . S
H1821 C1760 0.961 . S
H1822 C1760 0.960 . S
H1823 C1760 0.958 . S
H1824 C1761 0.961 . S
H1825 C1761 0.960 . S
H1826 C1761 0.960 . S
H1827 C1763 0.964 1_655 S
H1828 C1762 0.961 . S
H1829 C1762 0.961 . S
H1830 C1762 0.959 . S
H1831 C1765 0.932 . S
H1832 C1769 0.929 . S
H1833 C1770 0.961 . S
H1834 C1770 0.959 . S
H1835 C1770 0.959 . S
H1836 C1771 0.960 . S
H1837 C1771 0.962 . S
H1838 C1771 0.961 . S
H1839 C1773 0.929 . S
H1840 C1776 0.930 . S
H1841 C1777 0.929 . S
H1842 C1780 0.930 . S
H1843 C1783 0.929 . S
H1844 C1784 0.930 . S
H1845 C1788 0.962 . S
H1846 C1788 0.959 . S
H1847 C1788 0.958 . S
C1848 C1849 1.560 . S
C1848 H1909 0.959 . S
C1848 H1910 0.959 . S
C1848 H1911 0.960 . S
C1849 C1848 1.560 . S
C1849 O1904 1.426 . S
C1849 H1908 0.980 . S
C1850 C1851 1.407 . S
C1850 C1855 1.418 . S
C1850 O1904 1.334 . S
C1851 C1850 1.407 . S
C1851 C1852 1.360 . S
C1851 H1912 0.929 . S
C1852 C1851 1.360 . S
C1852 C1853 1.401 . S
C1852 C1856 1.527 . S
C1853 C1852 1.401 . S
C1853 C1854 1.405 . S
C1853 C1886 1.587 . S
C1854 C1853 1.405 . S
C1854 C1855 1.332 . S
C1854 C1857 1.496 . S
C1855 C1850 1.418 . S
C1855 C1854 1.332 . S
C1855 H1913 0.929 . S
C1856 C1852 1.527 . S
C1856 H1914 0.959 . S
C1856 H1915 0.961 . S
C1856 H1916 0.961 . S
C1857 C1854 1.496 . S
C1857 H1917 0.960 . S
C1857 H1918 0.960 . S
C1857 H1919 0.961 . S
C1858 C1859 1.517 . S
C1858 H1921 0.961 . S
C1858 H1922 0.960 . S
C1858 H1923 0.959 . S
C1859 C1858 1.517 . S
C1859 O1907 1.468 . S
C1859 H1920 0.980 . S
C1860 C1861 1.349 . S
C1860 C1865 1.367 . S
C1860 O1907 1.408 . S
C1861 C1860 1.349 . S
C1861 C1862 1.407 . S
C1861 H1924 0.930 . S
C1862 C1861 1.407 . S
C1862 C1863 1.449 . S
C1862 C1866 1.535 . S
C1863 C1862 1.449 . S
C1863 C1864 1.384 . S
C1863 C1888 1.553 . S
C1864 C1863 1.384 . S
C1864 C1865 1.364 . S
C1864 C1867 1.450 . S
C1865 C1860 1.367 . S
C1865 C1864 1.364 . S
C1865 H1925 0.931 . S
C1866 C1862 1.535 . S
C1866 H1926 0.959 . S
C1866 H1927 0.961 . S
C1866 H1928 0.959 . S
C1867 C1864 1.450 . S
C1867 H1929 0.960 . S
C1867 H1930 0.960 . S
C1867 H1931 0.960 . S
C1868 C1869 1.309 . S
C1868 C1873 1.304 . S
C1868 O1906 1.435 . S
C1869 C1868 1.309 . S
C1869 C1870 1.476 . S
C1869 H1933 0.930 . S
C1870 C1869 1.476 . S
C1870 C1871 1.400 . S
C1870 C1874 1.567 . S
C1871 C1870 1.400 . S
C1871 C1872 1.373 . S
C1871 C1893 1.432 . S
C1872 C1871 1.373 . S
C1872 C1873 1.339 . S
C1872 C1875 1.530 . S
C1873 C1868 1.304 . S
C1873 C1872 1.339 . S
C1873 H1934 0.930 . S
C1874 C1870 1.567 . S
C1874 H1935 0.961 . S
C1874 H1936 0.960 . S
C1874 H1937 0.958 . S
C1875 C1872 1.530 . S
C1875 H1938 0.961 . S
C1875 H1939 0.960 . S
C1875 H1940 0.960 . S
C1876 C1877 1.530 . S
C1876 H1942 0.961 . S
C1876 H1943 0.961 . S
C1876 H1944 0.959 . S
C1877 C1876 1.530 . S
C1877 O1905 1.412 . S
C1877 H1941 0.980 . S
C1878 C1879 1.288 . S
C1878 C1883 1.377 . S
C1878 O1905 1.393 . S
C1879 C1878 1.288 . S
C1879 C1880 1.369 . S
C1879 H1945 0.932 . S
C1880 C1879 1.369 . S
C1880 C1881 1.398 . S
C1880 C1884 1.527 . S
C1881 C1880 1.398 . S
C1881 C1882 1.380 . S
C1881 C1895 1.497 . S
C1882 C1881 1.380 . S
C1882 C1883 1.383 . S
C1882 C1885 1.603 . S
C1883 C1878 1.377 . S
C1883 C1882 1.383 . S
C1883 H1946 0.929 . S
C1884 C1880 1.527 . S
C1884 H1947 0.961 . S
C1884 H1948 0.959 . S
C1884 H1949 0.959 . S
C1885 C1882 1.603 . S
C1885 H1950 0.960 . S
C1885 H1951 0.962 . S
C1885 H1952 0.961 . S
C1886 C1853 1.587 . S
C1886 C1887 1.360 . S
C1886 C1899 1.412 . S
C1887 C1886 1.360 . S
C1887 C1888 1.365 . S
C1887 H1953 0.929 . S
C1888 C1863 1.553 . S
C1888 C1887 1.365 . S
C1888 C1889 1.404 . S
C1889 C1888 1.404 . S
C1889 C1890 1.395 . S
C1889 C1900 1.451 . S
C1890 C1889 1.395 . S
C1890 C1891 1.322 . S
C1890 H1954 0.930 . S
C1891 C1890 1.322 . S
C1891 C1892 1.459 . S
C1891 H1955 0.929 . S
C1892 C1891 1.459 . S
C1892 C1893 1.445 . S
C1892 C1901 1.395 . S
C1893 C1871 1.432 . S
C1893 C1892 1.445 . S
C1893 C1894 1.370 . S
C1894 C1893 1.370 . S
C1894 C1895 1.438 . S
C1894 H1956 0.930 . S
C1895 C1881 1.497 . S
C1895 C1894 1.438 . S
C1895 C1896 1.360 . S
C1896 C1895 1.360 . S
C1896 C1897 1.401 . S
C1896 C1901 1.446 . S
C1897 C1896 1.401 . S
C1897 C1898 1.347 . S
C1897 H1957 0.929 . S
C1898 C1897 1.347 . S
C1898 C1899 1.455 . S
C1898 H1958 0.930 . S
C1899 C1886 1.412 . S
C1899 C1898 1.455 . S
C1899 C1900 1.331 . S
C1900 C1889 1.451 . S
C1900 C1899 1.331 . S
C1900 C1901 1.497 . S
C1901 C1892 1.395 . S
C1901 C1896 1.446 . S
C1901 C1900 1.497 . S
C1902 C1903 1.582 . S
C1902 H1959 0.962 . S
C1902 H1960 0.959 . S
C1902 H1961 0.958 . S
C1903 C1902 1.582 . S
C1903 O1906 1.458 . S
C1903 H1932 0.980 . S
O1904 C1849 1.426 . S
O1904 C1850 1.334 . S
O1905 C1877 1.412 . S
O1905 C1878 1.393 . S
O1906 C1868 1.435 . S
O1906 C1903 1.458 . S
O1907 C1859 1.468 . S
O1907 C1860 1.408 . S
H1908 C1849 0.980 . S
H1909 C1848 0.959 . S
H1910 C1848 0.959 . S
H1911 C1848 0.960 . S
H1912 C1851 0.929 . S
H1913 C1855 0.929 . S
H1914 C1856 0.959 . S
H1915 C1856 0.961 . S
H1916 C1856 0.961 . S
H1917 C1857 0.960 . S
H1918 C1857 0.960 . S
H1919 C1857 0.961 . S
H1920 C1859 0.980 . S
H1921 C1858 0.961 . S
H1922 C1858 0.960 . S
H1923 C1858 0.959 . S
H1924 C1861 0.930 . S
H1925 C1865 0.931 . S
H1926 C1866 0.959 . S
H1927 C1866 0.961 . S
H1928 C1866 0.959 . S
H1929 C1867 0.960 . S
H1930 C1867 0.960 . S
H1931 C1867 0.960 . S
H1932 C1903 0.980 . S
H1933 C1869 0.930 . S
H1934 C1873 0.930 . S
H1935 C1874 0.961 . S
H1936 C1874 0.960 . S
H1937 C1874 0.958 . S
H1938 C1875 0.961 . S
H1939 C1875 0.960 . S
H1940 C1875 0.960 . S
H1941 C1877 0.980 . S
H1942 C1876 0.961 . S
H1943 C1876 0.961 . S
H1944 C1876 0.959 . S
H1945 C1879 0.932 . S
H1946 C1883 0.929 . S
H1947 C1884 0.961 . S
H1948 C1884 0.959 . S
H1949 C1884 0.959 . S
H1950 C1885 0.960 . S
H1951 C1885 0.962 . S
H1952 C1885 0.961 . S
H1953 C1887 0.929 . S
H1954 C1890 0.930 . S
H1955 C1891 0.929 . S
H1956 C1894 0.930 . S
H1957 C1897 0.929 . S
H1958 C1898 0.930 . S
H1959 C1902 0.962 . S
H1960 C1902 0.959 . S
H1961 C1902 0.958 . S
C1962 C1963 1.560 . S
C1962 H2023 0.959 . S
C1962 H2024 0.959 . S
C1962 H2025 0.960 . S
C1963 C1962 1.560 . S
C1963 O2018 1.426 . S
C1963 H2022 0.980 . S
C1964 C1965 1.407 . S
C1964 C1969 1.418 . S
C1964 O2018 1.334 . S
C1965 C1964 1.407 . S
C1965 C1966 1.360 . S
C1965 H2026 0.929 . S
C1966 C1965 1.360 . S
C1966 C1967 1.401 . S
C1966 C1970 1.527 . S
C1967 C1966 1.401 . S
C1967 C1968 1.405 . S
C1967 C2000 1.587 . S
C1968 C1967 1.405 . S
C1968 C1969 1.332 . S
C1968 C1971 1.496 . S
C1969 C1964 1.418 . S
C1969 C1968 1.332 . S
C1969 H2027 0.929 . S
C1970 C1966 1.527 . S
C1970 H2028 0.959 . S
C1970 H2029 0.961 . S
C1970 H2030 0.961 . S
C1971 C1968 1.496 . S
C1971 H2031 0.960 . S
C1971 H2032 0.960 . S
C1971 H2033 0.961 . S
C1972 C1973 1.517 . S
C1972 H2035 0.961 . S
C1972 H2036 0.960 . S
C1972 H2037 0.959 . S
C1973 C1972 1.517 . S
C1973 O2021 1.468 . S
C1973 H2034 0.980 . S
C1974 C1975 1.349 . S
C1974 C1979 1.367 . S
C1974 O2021 1.408 . S
C1975 C1974 1.349 . S
C1975 C1976 1.407 . S
C1975 H2038 0.930 . S
C1976 C1975 1.407 . S
C1976 C1977 1.449 . S
C1976 C1980 1.535 . S
C1977 C1976 1.449 . S
C1977 C1978 1.384 . S
C1977 C2002 1.553 . S
C1978 C1977 1.384 . S
C1978 C1979 1.364 . S
C1978 C1981 1.450 . S
C1979 C1974 1.367 . S
C1979 C1978 1.364 . S
C1979 H2039 0.931 . S
C1980 C1976 1.535 . S
C1980 H2040 0.959 . S
C1980 H2041 0.961 . S
C1980 H2042 0.959 . S
C1981 C1978 1.450 . S
C1981 H2043 0.960 . S
C1981 H2044 0.960 . S
C1981 H2045 0.960 . S
C1982 C1983 1.309 . S
C1982 C1987 1.304 . S
C1982 O2020 1.435 . S
C1983 C1982 1.309 . S
C1983 C1984 1.476 . S
C1983 H2047 0.930 . S
C1984 C1983 1.476 . S
C1984 C1985 1.400 . S
C1984 C1988 1.567 . S
C1985 C1984 1.400 . S
C1985 C1986 1.373 . S
C1985 C2007 1.432 . S
C1986 C1985 1.373 . S
C1986 C1987 1.339 . S
C1986 C1989 1.530 . S
C1987 C1982 1.304 . S
C1987 C1986 1.339 . S
C1987 H2048 0.930 . S
C1988 C1984 1.567 . S
C1988 H2049 0.961 . S
C1988 H2050 0.960 . S
C1988 H2051 0.958 . S
C1989 C1986 1.530 . S
C1989 H2052 0.961 . S
C1989 H2053 0.960 . S
C1989 H2054 0.960 . S
C1990 C1991 1.530 . S
C1990 H2056 0.961 . S
C1990 H2057 0.961 . S
C1990 H2058 0.959 . S
C1991 C1990 1.530 . S
C1991 O2019 1.412 . S
C1991 H2055 0.980 . S
C1992 C1993 1.288 . S
C1992 C1997 1.377 . S
C1992 O2019 1.393 . S
C1993 C1992 1.288 . S
C1993 C1994 1.369 . S
C1993 H2059 0.932 . S
C1994 C1993 1.369 . S
C1994 C1995 1.398 . S
C1994 C1998 1.527 . S
C1995 C1994 1.398 . S
C1995 C1996 1.380 . S
C1995 C2009 1.497 . S
C1996 C1995 1.380 . S
C1996 C1997 1.383 . S
C1996 C1999 1.603 . S
C1997 C1992 1.377 . S
C1997 C1996 1.383 . S
C1997 H2060 0.929 . S
C1998 C1994 1.527 . S
C1998 H2061 0.961 . S
C1998 H2062 0.959 . S
C1998 H2063 0.959 . S
C1999 C1996 1.603 . S
C1999 H2064 0.960 . S
C1999 H2065 0.962 . S
C1999 H2066 0.961 . S
C2000 C1967 1.587 . S
C2000 C2001 1.360 . S
C2000 C2013 1.412 . S
C2001 C2000 1.360 . S
C2001 C2002 1.365 . S
C2001 H2067 0.929 . S
C2002 C1977 1.553 . S
C2002 C2001 1.365 . S
C2002 C2003 1.404 . S
C2003 C2002 1.404 . S
C2003 C2004 1.395 . S
C2003 C2014 1.451 . S
C2004 C2003 1.395 . S
C2004 C2005 1.322 . S
C2004 H2068 0.930 . S
C2005 C2004 1.322 . S
C2005 C2006 1.459 . S
C2005 H2069 0.929 . S
C2006 C2005 1.459 . S
C2006 C2007 1.445 . S
C2006 C2015 1.395 . S
C2007 C1985 1.432 . S
C2007 C2006 1.445 . S
C2007 C2008 1.370 . S
C2008 C2007 1.370 . S
C2008 C2009 1.438 . S
C2008 H2070 0.930 . S
C2009 C1995 1.497 . S
C2009 C2008 1.438 . S
C2009 C2010 1.360 . S
C2010 C2009 1.360 . S
C2010 C2011 1.401 . S
C2010 C2015 1.446 . S
C2011 C2010 1.401 . S
C2011 C2012 1.347 . S
C2011 H2071 0.929 . S
C2012 C2011 1.347 . S
C2012 C2013 1.455 . S
C2012 H2072 0.930 . S
C2013 C2000 1.412 . S
C2013 C2012 1.455 . S
C2013 C2014 1.331 . S
C2014 C2003 1.451 . S
C2014 C2013 1.331 . S
C2014 C2015 1.497 . S
C2015 C2006 1.395 . S
C2015 C2010 1.446 . S
C2015 C2014 1.497 . S
C2016 C2017 1.582 . S
C2016 H2073 0.962 . S
C2016 H2074 0.959 . S
C2016 H2075 0.958 . S
C2017 C2016 1.582 . S
C2017 O2020 1.458 . S
C2017 H2046 0.980 . S
O2018 C1963 1.426 . S
O2018 C1964 1.334 . S
O2019 C1991 1.412 . S
O2019 C1992 1.393 . S
O2020 C1982 1.435 . S
O2020 C2017 1.458 . S
O2021 C1973 1.468 . S
O2021 C1974 1.408 . S
H2022 C1963 0.980 . S
H2023 C1962 0.959 . S
H2024 C1962 0.959 . S
H2025 C1962 0.960 . S
H2026 C1965 0.929 . S
H2027 C1969 0.929 . S
H2028 C1970 0.959 . S
H2029 C1970 0.961 . S
H2030 C1970 0.961 . S
H2031 C1971 0.960 . S
H2032 C1971 0.960 . S
H2033 C1971 0.961 . S
H2034 C1973 0.980 . S
H2035 C1972 0.961 . S
H2036 C1972 0.960 . S
H2037 C1972 0.959 . S
H2038 C1975 0.930 . S
H2039 C1979 0.931 . S
H2040 C1980 0.959 . S
H2041 C1980 0.961 . S
H2042 C1980 0.959 . S
H2043 C1981 0.960 . S
H2044 C1981 0.960 . S
H2045 C1981 0.960 . S
H2046 C2017 0.980 . S
H2047 C1983 0.930 . S
H2048 C1987 0.930 . S
H2049 C1988 0.961 . S
H2050 C1988 0.960 . S
H2051 C1988 0.958 . S
H2052 C1989 0.961 . S
H2053 C1989 0.960 . S
H2054 C1989 0.960 . S
H2055 C1991 0.980 . S
H2056 C1990 0.961 . S
H2057 C1990 0.961 . S
H2058 C1990 0.959 . S
H2059 C1993 0.932 . S
H2060 C1997 0.929 . S
H2061 C1998 0.961 . S
H2062 C1998 0.959 . S
H2063 C1998 0.959 . S
H2064 C1999 0.960 . S
H2065 C1999 0.962 . S
H2066 C1999 0.961 . S
H2067 C2001 0.929 . S
H2068 C2004 0.930 . S
H2069 C2005 0.929 . S
H2070 C2008 0.930 . S
H2071 C2011 0.929 . S
H2072 C2012 0.930 . S
H2073 C2016 0.962 . S
H2074 C2016 0.959 . S
H2075 C2016 0.958 . S
C2076 C2077 1.560 . S
C2076 H2137 0.959 . S
C2076 H2138 0.959 . S
C2076 H2139 0.960 . S
C2077 C2076 1.560 . S
C2077 O2132 1.426 . S
C2077 H2136 0.980 . S
C2078 C2079 1.407 . S
C2078 C2083 1.418 . S
C2078 O2132 1.334 . S
C2079 C2078 1.407 . S
C2079 C2080 1.360 . S
C2079 H2140 0.929 . S
C2080 C2079 1.360 . S
C2080 C2081 1.401 . S
C2080 C2084 1.527 . S
C2081 C2080 1.401 . S
C2081 C2082 1.405 . S
C2081 C2114 1.587 . S
C2082 C2081 1.405 . S
C2082 C2083 1.332 . S
C2082 C2085 1.496 . S
C2083 C2078 1.418 . S
C2083 C2082 1.332 . S
C2083 H2141 0.929 . S
C2084 C2080 1.527 . S
C2084 H2142 0.959 . S
C2084 H2143 0.961 . S
C2084 H2144 0.961 . S
C2085 C2082 1.496 . S
C2085 H2145 0.960 . S
C2085 H2146 0.960 . S
C2085 H2147 0.961 . S
C2086 C2087 1.517 . S
C2086 H2149 0.961 . S
C2086 H2150 0.960 . S
C2086 H2151 0.959 . S
C2087 C2086 1.517 . S
C2087 O2135 1.468 . S
C2087 H2148 0.980 . S
C2088 C2089 1.349 . S
C2088 C2093 1.367 . S
C2088 O2135 1.408 . S
C2089 C2088 1.349 . S
C2089 C2090 1.407 . S
C2089 H2152 0.930 . S
C2090 C2089 1.407 . S
C2090 C2091 1.449 . S
C2090 C2094 1.535 . S
C2091 C2090 1.449 . S
C2091 C2092 1.384 . S
C2091 C2116 1.553 . S
C2092 C2091 1.384 . S
C2092 C2093 1.364 . S
C2092 C2095 1.450 . S
C2093 C2088 1.367 . S
C2093 C2092 1.364 . S
C2093 H2153 0.931 . S
C2094 C2090 1.535 . S
C2094 H2154 0.959 . S
C2094 H2155 0.961 . S
C2094 H2156 0.959 . S
C2095 C2092 1.450 . S
C2095 H2157 0.960 . S
C2095 H2158 0.960 . S
C2095 H2159 0.960 . S
C2096 C2097 1.309 . S
C2096 C2101 1.304 . S
C2096 O2134 1.435 . S
C2097 C2096 1.309 . S
C2097 C2098 1.476 . S
C2097 H2161 0.930 . S
C2098 C2097 1.476 . S
C2098 C2099 1.400 . S
C2098 C2102 1.567 . S
C2099 C2098 1.400 . S
C2099 C2100 1.373 . S
C2099 C2121 1.432 . S
C2100 C2099 1.373 . S
C2100 C2101 1.339 . S
C2100 C2103 1.530 . S
C2101 C2096 1.304 . S
C2101 C2100 1.339 . S
C2101 H2162 0.930 . S
C2102 C2098 1.567 . S
C2102 H2163 0.961 . S
C2102 H2164 0.960 . S
C2102 H2165 0.958 . S
C2103 C2100 1.530 . S
C2103 H2166 0.961 . S
C2103 H2167 0.960 . S
C2103 H2168 0.960 . S
C2104 C2105 1.530 . S
C2104 H2170 0.961 . S
C2104 H2171 0.961 . S
C2104 H2172 0.959 . S
C2105 C2104 1.530 . S
C2105 O2133 1.412 . S
C2105 H2169 0.980 . S
C2106 C2107 1.288 . S
C2106 C2111 1.377 . S
C2106 O2133 1.393 . S
C2107 C2106 1.288 . S
C2107 C2108 1.369 . S
C2107 H2173 0.932 . S
C2108 C2107 1.369 . S
C2108 C2109 1.398 . S
C2108 C2112 1.527 . S
C2109 C2108 1.398 . S
C2109 C2110 1.380 . S
C2109 C2123 1.497 . S
C2110 C2109 1.380 . S
C2110 C2111 1.383 . S
C2110 C2113 1.603 . S
C2111 C2106 1.377 . S
C2111 C2110 1.383 . S
C2111 H2174 0.929 . S
C2112 C2108 1.527 . S
C2112 H2175 0.961 . S
C2112 H2176 0.959 . S
C2112 H2177 0.959 . S
C2113 C2110 1.603 . S
C2113 H2178 0.960 . S
C2113 H2179 0.962 . S
C2113 H2180 0.961 . S
C2114 C2081 1.587 . S
C2114 C2115 1.360 . S
C2114 C2127 1.412 . S
C2115 C2114 1.360 . S
C2115 C2116 1.365 . S
C2115 H2181 0.929 . S
C2116 C2091 1.553 . S
C2116 C2115 1.365 . S
C2116 C2117 1.404 . S
C2117 C2116 1.404 . S
C2117 C2118 1.395 . S
C2117 C2128 1.451 . S
C2118 C2117 1.395 . S
C2118 C2119 1.322 . S
C2118 H2182 0.930 . S
C2119 C2118 1.322 . S
C2119 C2120 1.459 . S
C2119 H2183 0.929 . S
C2120 C2119 1.459 . S
C2120 C2121 1.445 . S
C2120 C2129 1.395 . S
C2121 C2099 1.432 . S
C2121 C2120 1.445 . S
C2121 C2122 1.370 . S
C2122 C2121 1.370 . S
C2122 C2123 1.438 . S
C2122 H2184 0.930 . S
C2123 C2109 1.497 . S
C2123 C2122 1.438 . S
C2123 C2124 1.360 . S
C2124 C2123 1.360 . S
C2124 C2125 1.401 . S
C2124 C2129 1.446 . S
C2125 C2124 1.401 . S
C2125 C2126 1.347 . S
C2125 H2185 0.929 . S
C2126 C2125 1.347 . S
C2126 C2127 1.455 . S
C2126 H2186 0.930 . S
C2127 C2114 1.412 . S
C2127 C2126 1.455 . S
C2127 C2128 1.331 . S
C2128 C2117 1.451 . S
C2128 C2127 1.331 . S
C2128 C2129 1.497 . S
C2129 C2120 1.395 . S
C2129 C2124 1.446 . S
C2129 C2128 1.497 . S
C2130 C2131 1.582 . S
C2130 H2187 0.962 . S
C2130 H2188 0.959 . S
C2130 H2189 0.958 . S
C2131 C2130 1.582 . S
C2131 O2134 1.458 . S
C2131 H2160 0.980 . S
O2132 C2077 1.426 . S
O2132 C2078 1.334 . S
O2133 C2105 1.412 . S
O2133 C2106 1.393 . S
O2134 C2096 1.435 . S
O2134 C2131 1.458 . S
O2135 C2087 1.468 . S
O2135 C2088 1.408 . S
H2136 C2077 0.980 . S
H2137 C2076 0.959 . S
H2138 C2076 0.959 . S
H2139 C2076 0.960 . S
H2140 C2079 0.929 . S
H2141 C2083 0.929 . S
H2142 C2084 0.959 . S
H2143 C2084 0.961 . S
H2144 C2084 0.961 . S
H2145 C2085 0.960 . S
H2146 C2085 0.960 . S
H2147 C2085 0.961 . S
H2148 C2087 0.980 . S
H2149 C2086 0.961 . S
H2150 C2086 0.960 . S
H2151 C2086 0.959 . S
H2152 C2089 0.930 . S
H2153 C2093 0.931 . S
H2154 C2094 0.959 . S
H2155 C2094 0.961 . S
H2156 C2094 0.959 . S
H2157 C2095 0.960 . S
H2158 C2095 0.960 . S
H2159 C2095 0.960 . S
H2160 C2131 0.980 . S
H2161 C2097 0.930 . S
H2162 C2101 0.930 . S
H2163 C2102 0.961 . S
H2164 C2102 0.960 . S
H2165 C2102 0.958 . S
H2166 C2103 0.961 . S
H2167 C2103 0.960 . S
H2168 C2103 0.960 . S
H2169 C2105 0.980 . S
H2170 C2104 0.961 . S
H2171 C2104 0.961 . S
H2172 C2104 0.959 . S
H2173 C2107 0.932 . S
H2174 C2111 0.929 . S
H2175 C2112 0.961 . S
H2176 C2112 0.959 . S
H2177 C2112 0.959 . S
H2178 C2113 0.960 . S
H2179 C2113 0.962 . S
H2180 C2113 0.961 . S
H2181 C2115 0.929 . S
H2182 C2118 0.930 . S
H2183 C2119 0.929 . S
H2184 C2122 0.930 . S
H2185 C2125 0.929 . S
H2186 C2126 0.930 . S
H2187 C2130 0.962 . S
H2188 C2130 0.959 . S
H2189 C2130 0.958 . S
C2190 C2191 1.560 . S
C2190 H2251 0.959 . S
C2190 H2252 0.959 . S
C2190 H2253 0.960 . S
C2191 C2190 1.560 . S
C2191 O2246 1.426 . S
C2191 H2250 0.980 . S
C2192 C2193 1.407 . S
C2192 C2197 1.418 . S
C2192 O2246 1.334 . S
C2193 C2192 1.407 . S
C2193 C2194 1.360 . S
C2193 H2254 0.929 . S
C2194 C2193 1.360 . S
C2194 C2195 1.401 . S
C2194 C2198 1.527 . S
C2195 C2194 1.401 . S
C2195 C2196 1.405 . S
C2195 C2228 1.587 . S
C2196 C2195 1.405 . S
C2196 C2197 1.332 . S
C2196 C2199 1.496 . S
C2197 C2192 1.418 . S
C2197 C2196 1.332 . S
C2197 H2255 0.929 . S
C2198 C2194 1.527 . S
C2198 H2256 0.959 . S
C2198 H2257 0.961 . S
C2198 H2258 0.961 . S
C2199 C2196 1.496 . S
C2199 H2259 0.960 . S
C2199 H2260 0.960 . S
C2199 H2261 0.961 . S
C2200 C2201 1.517 . S
C2200 H2263 0.961 . S
C2200 H2264 0.960 . S
C2200 H2265 0.959 . S
C2201 C2200 1.517 . S
C2201 O2249 1.468 . S
C2201 H2262 0.980 . S
C2202 C2203 1.349 . S
C2202 C2207 1.367 . S
C2202 O2249 1.408 . S
C2203 C2202 1.349 . S
C2203 C2204 1.407 . S
C2203 H2266 0.930 . S
C2204 C2203 1.407 . S
C2204 C2205 1.449 . S
C2204 C2208 1.535 . S
C2205 C2204 1.449 . S
C2205 C2206 1.384 . S
C2205 C2230 1.553 . S
C2206 C2205 1.384 . S
C2206 C2207 1.364 . S
C2206 C2209 1.450 . S
C2207 C2202 1.367 . S
C2207 C2206 1.364 . S
C2207 H2267 0.931 . S
C2208 C2204 1.535 . S
C2208 H2268 0.959 . S
C2208 H2269 0.961 . S
C2208 H2270 0.959 . S
C2209 C2206 1.450 . S
C2209 H2271 0.960 . S
C2209 H2272 0.960 . S
C2209 H2273 0.960 . S
C2210 C2211 1.309 . S
C2210 C2215 1.304 . S
C2210 O2248 1.435 . S
C2211 C2210 1.309 . S
C2211 C2212 1.476 . S
C2211 H2275 0.930 . S
C2212 C2211 1.476 . S
C2212 C2213 1.400 . S
C2212 C2216 1.567 . S
C2213 C2212 1.400 . S
C2213 C2214 1.373 . S
C2213 C2235 1.432 . S
C2214 C2213 1.373 . S
C2214 C2215 1.339 . S
C2214 C2217 1.530 . S
C2215 C2210 1.304 . S
C2215 C2214 1.339 . S
C2215 H2276 0.930 . S
C2216 C2212 1.567 . S
C2216 H2277 0.961 . S
C2216 H2278 0.960 . S
C2216 H2279 0.958 . S
C2217 C2214 1.530 . S
C2217 H2280 0.961 . S
C2217 H2281 0.960 . S
C2217 H2282 0.960 . S
C2218 C2219 1.530 . S
C2218 H2284 0.961 . S
C2218 H2285 0.961 . S
C2218 H2286 0.959 . S
C2219 C2218 1.530 . S
C2219 O2247 1.412 . S
C2219 H2283 0.980 . S
C2220 C2221 1.288 . S
C2220 C2225 1.377 . S
C2220 O2247 1.393 . S
C2221 C2220 1.288 . S
C2221 C2222 1.369 . S
C2221 H2287 0.932 . S
C2222 C2221 1.369 . S
C2222 C2223 1.398 . S
C2222 C2226 1.527 . S
C2223 C2222 1.398 . S
C2223 C2224 1.380 . S
C2223 C2237 1.497 . S
C2224 C2223 1.380 . S
C2224 C2225 1.383 . S
C2224 C2227 1.603 . S
C2225 C2220 1.377 . S
C2225 C2224 1.383 . S
C2225 H2288 0.929 . S
C2226 C2222 1.527 . S
C2226 H2289 0.961 . S
C2226 H2290 0.959 . S
C2226 H2291 0.959 . S
C2227 C2224 1.603 . S
C2227 H2292 0.960 . S
C2227 H2293 0.962 . S
C2227 H2294 0.961 . S
C2228 C2195 1.587 . S
C2228 C2229 1.360 . S
C2228 C2241 1.412 . S
C2229 C2228 1.360 . S
C2229 C2230 1.365 . S
C2229 H2295 0.929 . S
C2230 C2205 1.553 . S
C2230 C2229 1.365 . S
C2230 C2231 1.404 . S
C2231 C2230 1.404 . S
C2231 C2232 1.395 . S
C2231 C2242 1.451 . S
C2232 C2231 1.395 . S
C2232 C2233 1.322 . S
C2232 H2296 0.930 . S
C2233 C2232 1.322 . S
C2233 C2234 1.459 . S
C2233 H2297 0.929 . S
C2234 C2233 1.459 . S
C2234 C2235 1.445 . S
C2234 C2243 1.395 . S
C2235 C2213 1.432 . S
C2235 C2234 1.445 . S
C2235 C2236 1.370 . S
C2236 C2235 1.370 . S
C2236 C2237 1.438 . S
C2236 H2298 0.930 . S
C2237 C2223 1.497 . S
C2237 C2236 1.438 . S
C2237 C2238 1.360 . S
C2238 C2237 1.360 . S
C2238 C2239 1.401 . S
C2238 C2243 1.446 . S
C2239 C2238 1.401 . S
C2239 C2240 1.347 . S
C2239 H2299 0.929 . S
C2240 C2239 1.347 . S
C2240 C2241 1.455 . S
C2240 H2300 0.930 . S
C2241 C2228 1.412 . S
C2241 C2240 1.455 . S
C2241 C2242 1.331 . S
C2242 C2231 1.451 . S
C2242 C2241 1.331 . S
C2242 C2243 1.497 . S
C2243 C2234 1.395 . S
C2243 C2238 1.446 . S
C2243 C2242 1.497 . S
C2244 C2245 1.582 . S
C2244 H2301 0.962 . S
C2244 H2302 0.959 . S
C2244 H2303 0.958 . S
C2245 C2244 1.582 . S
C2245 O2248 1.458 . S
C2245 H2274 0.980 . S
O2246 C2191 1.426 . S
O2246 C2192 1.334 . S
O2247 C2219 1.412 . S
O2247 C2220 1.393 . S
O2248 C2210 1.435 . S
O2248 C2245 1.458 . S
O2249 C2201 1.468 . S
O2249 C2202 1.408 . S
H2250 C2191 0.980 . S
H2251 C2190 0.959 . S
H2252 C2190 0.959 . S
H2253 C2190 0.960 . S
H2254 C2193 0.929 . S
H2255 C2197 0.929 . S
H2256 C2198 0.959 . S
H2257 C2198 0.961 . S
H2258 C2198 0.961 . S
H2259 C2199 0.960 . S
H2260 C2199 0.960 . S
H2261 C2199 0.961 . S
H2262 C2201 0.980 . S
H2263 C2200 0.961 . S
H2264 C2200 0.960 . S
H2265 C2200 0.959 . S
H2266 C2203 0.930 . S
H2267 C2207 0.931 . S
H2268 C2208 0.959 . S
H2269 C2208 0.961 . S
H2270 C2208 0.959 . S
H2271 C2209 0.960 . S
H2272 C2209 0.960 . S
H2273 C2209 0.960 . S
H2274 C2245 0.980 . S
H2275 C2211 0.930 . S
H2276 C2215 0.930 . S
H2277 C2216 0.961 . S
H2278 C2216 0.960 . S
H2279 C2216 0.958 . S
H2280 C2217 0.961 . S
H2281 C2217 0.960 . S
H2282 C2217 0.960 . S
H2283 C2219 0.980 . S
H2284 C2218 0.961 . S
H2285 C2218 0.961 . S
H2286 C2218 0.959 . S
H2287 C2221 0.932 . S
H2288 C2225 0.929 . S
H2289 C2226 0.961 . S
H2290 C2226 0.959 . S
H2291 C2226 0.959 . S
H2292 C2227 0.960 . S
H2293 C2227 0.962 . S
H2294 C2227 0.961 . S
H2295 C2229 0.929 . S
H2296 C2232 0.930 . S
H2297 C2233 0.929 . S
H2298 C2236 0.930 . S
H2299 C2239 0.929 . S
H2300 C2240 0.930 . S
H2301 C2244 0.962 . S
H2302 C2244 0.959 . S
H2303 C2244 0.958 . S
H2304 C2310 0.930 . S
H2305 C2314 0.930 . S
H2306 C2319 0.929 . S
H2307 C2317 0.953 1_455 S
H2308 C2312 0.929 . S
H2309 C2318 0.929 . S
C2310 H2304 0.930 . S
C2310 C2311 1.386 1_455 S
C2310 C2318 1.378 . S
C2311 C2310 1.386 1_655 S
C2311 C2319 1.444 . S
C2312 H2308 0.929 . S
C2312 C2314 1.378 . S
C2312 C2316 1.350 . S
C2313 C2316 1.463 . S
C2313 C2318 1.350 1_655 S
C2313 N2321 1.427 . S
C2314 H2305 0.930 . S
C2314 C2312 1.378 . S
C2314 C2315 1.367 . S
C2315 C2314 1.367 . S
C2315 C2317 1.433 . S
C2316 C2312 1.350 . S
C2316 C2313 1.463 . S
C2316 N2320 1.420 . S
C2317 H2307 0.953 1_655 S
C2317 C2315 1.433 . S
C2317 N2320 1.396 . S
C2318 H2309 0.929 . S
C2318 C2310 1.378 . S
C2318 C2313 1.350 1_455 S
C2319 H2306 0.929 . S
C2319 C2311 1.444 . S
C2319 N2321 1.384 . S
N2320 C2316 1.420 . S
N2320 C2317 1.396 . S
N2321 C2313 1.427 . S
N2321 C2319 1.384 . S
H2322 C2328 0.930 . S
H2323 C2332 0.930 . S
H2324 C2337 0.929 . S
H2325 C2335 0.929 . S
H2326 C2330 0.929 . S
H2327 C2336 0.929 . S
C2328 H2322 0.930 . S
C2328 C2329 1.367 . S
C2328 C2336 1.378 . S
C2329 C2328 1.367 . S
C2329 C2337 1.433 . S
C2330 H2326 0.929 . S
C2330 C2332 1.378 . S
C2330 C2334 1.350 . S
C2331 C2334 1.463 . S
C2331 C2336 1.350 . S
C2331 N2339 1.427 . S
C2332 H2323 0.930 . S
C2332 C2330 1.378 . S
C2332 C2333 1.367 . S
C2333 C2332 1.367 . S
C2333 C2335 1.433 . S
C2334 C2330 1.350 . S
C2334 C2331 1.463 . S
C2334 N2338 1.427 . S
C2335 H2325 0.929 . S
C2335 C2333 1.433 . S
C2335 N2338 1.384 . S
C2336 H2327 0.929 . S
C2336 C2328 1.378 . S
C2336 C2331 1.350 . S
C2337 H2324 0.929 . S
C2337 C2329 1.433 . S
C2337 N2339 1.384 . S
N2338 C2334 1.427 . S
N2338 C2335 1.384 . S
N2339 C2331 1.427 . S
N2339 C2337 1.384 . S
H2340 C2346 0.930 . S
H2341 C2350 0.930 . S
H2342 C2355 0.929 . S
H2343 C2353 0.929 . S
H2344 C2348 0.929 . S
H2345 C2354 0.929 . S
C2346 H2340 0.930 . S
C2346 C2347 1.367 1_565 S
C2346 C2354 1.378 . S
C2347 C2346 1.367 1_545 S
C2347 C2355 1.433 . S
C2348 H2344 0.929 . S
C2348 C2350 1.378 . S
C2348 C2352 1.350 . S
C2349 C2352 1.463 . S
C2349 C2354 1.350 1_545 S
C2349 N2357 1.427 . S
C2350 H2341 0.930 . S
C2350 C2348 1.378 . S
C2350 C2351 1.367 . S
C2351 C2350 1.367 . S
C2351 C2353 1.433 1_545 S
C2352 C2348 1.350 . S
C2352 C2349 1.463 . S
C2352 N2356 1.427 1_545 S
C2353 H2343 0.929 . S
C2353 C2351 1.433 1_565 S
C2353 N2356 1.384 . S
C2354 H2345 0.929 . S
C2354 C2346 1.378 . S
C2354 C2349 1.350 1_565 S
C2355 H2342 0.929 . S
C2355 C2347 1.433 . S
C2355 N2357 1.384 . S
N2356 C2352 1.427 1_565 S
N2356 C2353 1.384 . S
N2357 C2349 1.427 . S
N2357 C2355 1.384 . S
H2358 C2364 0.930 . S
H2359 C2368 0.930 . S
H2360 C2373 0.929 . S
H2361 C2371 0.929 . S
H2362 C2366 0.929 . S
H2363 C2372 0.929 . S
C2364 H2358 0.930 . S
C2364 C2365 1.367 . S
C2364 C2372 1.378 . S
C2365 C2364 1.367 . S
C2365 C2373 1.433 1_565 S
C2366 H2362 0.929 . S
C2366 C2368 1.378 . S
C2366 C2370 1.350 1_545 S
C2367 C2370 1.463 . S
C2367 C2372 1.350 . S
C2367 N2375 1.427 1_565 S
C2368 H2359 0.930 . S
C2368 C2366 1.378 . S
C2368 C2369 1.367 1_545 S
C2369 C2368 1.367 1_565 S
C2369 C2371 1.433 . S
C2370 C2366 1.350 1_565 S
C2370 C2367 1.463 . S
C2370 N2374 1.427 . S
C2371 H2361 0.929 . S
C2371 C2369 1.433 . S
C2371 N2374 1.384 . S
C2372 H2363 0.929 . S
C2372 C2364 1.378 . S
C2372 C2367 1.350 . S
C2373 H2360 0.929 . S
C2373 C2365 1.433 1_545 S
C2373 N2375 1.384 . S
N2374 C2370 1.427 . S
N2374 C2371 1.384 . S
N2375 C2367 1.427 1_545 S
N2375 C2373 1.384 . S
H2376 C2382 0.930 . S
H2377 C2386 0.930 . S
H2378 C2391 0.929 . S
H2379 C2389 0.929 . S
H2380 C2384 0.929 . S
H2381 C2390 0.929 . S
C2382 H2376 0.930 . S
C2382 C2383 1.367 . S
C2382 C2390 1.378 . S
C2383 C2382 1.367 . S
C2383 C2391 1.433 . S
C2384 H2380 0.929 . S
C2384 C2386 1.378 . S
C2384 C2388 1.350 . S
C2385 C2388 1.463 . S
C2385 C2390 1.350 . S
C2385 N2393 1.427 . S
C2386 H2377 0.930 . S
C2386 C2384 1.378 . S
C2386 C2387 1.367 . S
C2387 C2386 1.367 . S
C2387 C2389 1.433 . S
C2388 C2384 1.350 . S
C2388 C2385 1.463 . S
C2388 N2392 1.427 . S
C2389 H2379 0.929 . S
C2389 C2387 1.433 . S
C2389 N2392 1.384 . S
C2390 H2381 0.929 . S
C2390 C2382 1.378 . S
C2390 C2385 1.350 . S
C2391 H2378 0.929 . S
C2391 C2383 1.433 . S
C2391 N2393 1.384 . S
N2392 C2388 1.427 . S
N2392 C2389 1.384 . S
N2393 C2385 1.427 . S
N2393 C2391 1.384 . S
H2394 C2400 0.930 . S
H2395 C2404 0.930 . S
H2396 C2409 0.929 . S
H2397 C2407 0.929 . S
H2398 C2402 0.929 . S
H2399 C2408 0.929 . S
C2400 H2394 0.930 . S
C2400 C2401 1.367 . S
C2400 C2408 1.378 . S
C2401 C2400 1.367 . S
C2401 C2409 1.433 . S
C2402 H2398 0.929 . S
C2402 C2404 1.378 . S
C2402 C2406 1.350 . S
C2403 C2406 1.463 . S
C2403 C2408 1.350 . S
C2403 N2411 1.427 . S
C2404 H2395 0.930 . S
C2404 C2402 1.378 . S
C2404 C2405 1.367 . S
C2405 C2404 1.367 . S
C2405 C2407 1.433 . S
C2406 C2402 1.350 . S
C2406 C2403 1.463 . S
C2406 N2410 1.427 . S
C2407 H2397 0.929 . S
C2407 C2405 1.433 . S
C2407 N2410 1.384 . S
C2408 H2399 0.929 . S
C2408 C2400 1.378 . S
C2408 C2403 1.350 . S
C2409 H2396 0.929 . S
C2409 C2401 1.433 . S
C2409 N2411 1.384 . S
N2410 C2406 1.427 . S
N2410 C2407 1.384 . S
N2411 C2403 1.427 . S
N2411 C2409 1.384 . S
H2412 C2418 0.930 . S
H2413 C2422 0.930 . S
H2414 C2427 0.929 . S
H2415 C2425 0.929 . S
H2416 C2420 0.929 . S
H2417 C2426 0.929 . S
C2418 H2412 0.930 . S
C2418 C2419 1.367 1_655 S
C2418 C2426 1.378 . S
C2419 C2418 1.367 1_455 S
C2419 C2427 1.433 . S
C2420 H2416 0.929 . S
C2420 C2422 1.378 . S
C2420 C2424 1.350 . S
C2421 C2424 1.463 . S
C2421 C2426 1.350 1_455 S
C2421 N2429 1.427 . S
C2422 H2413 0.930 . S
C2422 C2420 1.378 . S
C2422 C2423 1.406 . S
C2423 C2422 1.406 . S
C2423 C2425 1.370 1_455 S
C2424 C2420 1.350 . S
C2424 C2421 1.463 . S
C2424 N2428 1.427 1_455 S
C2425 H2415 0.929 . S
C2425 C2423 1.370 1_655 S
C2425 N2428 1.384 . S
C2426 H2417 0.929 . S
C2426 C2418 1.378 . S
C2426 C2421 1.350 1_655 S
C2427 H2414 0.929 . S
C2427 C2419 1.433 . S
C2427 N2429 1.384 . S
N2428 C2424 1.427 1_655 S
N2428 C2425 1.384 . S
N2429 C2421 1.427 . S
N2429 C2427 1.384 . S
H2430 C2436 0.930 . S
H2431 C2440 0.930 . S
H2432 C2445 0.929 . S
H2433 C2443 0.929 . S
H2434 C2438 0.929 . S
H2435 C2444 0.929 . S
C2436 H2430 0.930 . S
C2436 C2437 1.367 . S
C2436 C2444 1.378 . S
C2437 C2436 1.367 . S
C2437 C2445 1.433 . S
C2438 H2434 0.929 . S
C2438 C2440 1.378 . S
C2438 C2442 1.350 . S
C2439 C2442 1.463 . S
C2439 C2444 1.350 . S
C2439 N2447 1.427 . S
C2440 H2431 0.930 . S
C2440 C2438 1.378 . S
C2440 C2441 1.367 . S
C2441 C2440 1.367 . S
C2441 C2443 1.433 . S
C2442 C2438 1.350 . S
C2442 C2439 1.463 . S
C2442 N2446 1.427 . S
C2443 H2433 0.929 . S
C2443 C2441 1.433 . S
C2443 N2446 1.384 . S
C2444 H2435 0.929 . S
C2444 C2436 1.378 . S
C2444 C2439 1.350 . S
C2445 H2432 0.929 . S
C2445 C2437 1.433 . S
C2445 N2447 1.384 . S
N2446 C2442 1.427 . S
N2446 C2443 1.384 . S
N2447 C2439 1.427 . S
N2447 C2445 1.384 . S
H2448 C2454 0.930 . S
H2449 C2458 0.930 . S
H2450 C2463 0.929 . S
H2451 C2461 0.929 . S
H2452 C2456 0.929 . S
H2453 C2462 0.929 . S
C2454 H2448 0.930 . S
C2454 C2455 1.367 1_545 S
C2454 C2462 1.378 . S
C2455 C2454 1.367 1_565 S
C2455 C2463 1.433 . S
C2456 H2452 0.929 . S
C2456 C2458 1.378 . S
C2456 C2460 1.350 . S
C2457 C2460 1.463 . S
C2457 C2462 1.350 1_565 S
C2457 N2465 1.427 . S
C2458 H2449 0.930 . S
C2458 C2456 1.378 . S
C2458 C2459 1.434 . S
C2459 C2458 1.434 . S
C2459 C2461 1.397 1_565 S
C2460 C2456 1.350 . S
C2460 C2457 1.463 . S
C2460 N2464 1.427 1_565 S
C2461 H2451 0.929 . S
C2461 C2459 1.397 1_545 S
C2461 N2464 1.384 . S
C2462 H2453 0.929 . S
C2462 C2454 1.378 . S
C2462 C2457 1.350 1_545 S
C2463 H2450 0.929 . S
C2463 C2455 1.433 . S
C2463 N2465 1.384 . S
N2464 C2460 1.427 1_545 S
N2464 C2461 1.384 . S
N2465 C2457 1.427 . S
N2465 C2463 1.384 . S
H2466 C2472 0.930 . S
H2467 C2476 0.930 . S
H2468 C2481 0.929 . S
H2469 C2479 0.929 . S
H2470 C2474 0.929 . S
H2471 C2480 0.929 . S
C2472 H2466 0.930 . S
C2472 C2473 1.367 1_565 S
C2472 C2480 1.378 . S
C2473 C2472 1.367 1_545 S
C2473 C2481 1.433 . S
C2474 H2470 0.929 . S
C2474 C2476 1.378 . S
C2474 C2478 1.350 . S
C2475 C2478 1.463 . S
C2475 C2480 1.350 1_545 S
C2475 N2483 1.427 . S
C2476 H2467 0.930 . S
C2476 C2474 1.378 . S
C2476 C2477 1.367 . S
C2477 C2476 1.367 . S
C2477 C2479 1.433 1_545 S
C2478 C2474 1.350 . S
C2478 C2475 1.463 . S
C2478 N2482 1.427 1_545 S
C2479 H2469 0.929 . S
C2479 C2477 1.433 1_565 S
C2479 N2482 1.384 . S
C2480 H2471 0.929 . S
C2480 C2472 1.378 . S
C2480 C2475 1.350 1_565 S
C2481 H2468 0.929 . S
C2481 C2473 1.433 . S
C2481 N2483 1.384 . S
N2482 C2478 1.427 1_565 S
N2482 C2479 1.384 . S
N2483 C2475 1.427 . S
N2483 C2481 1.384 . S
H2484 C2490 0.930 . S
H2485 C2494 0.930 . S
H2486 C2499 0.929 . S
H2487 C2497 0.929 . S
H2488 C2492 0.929 . S
H2489 C2498 0.929 . S
C2490 H2484 0.930 . S
C2490 C2491 1.367 1_455 S
C2490 C2498 1.378 . S
C2491 C2490 1.367 1_655 S
C2491 C2499 1.433 . S
C2492 H2488 0.929 . S
C2492 C2494 1.378 . S
C2492 C2496 1.350 . S
C2493 C2496 1.463 . S
C2493 C2498 1.350 1_655 S
C2493 N2501 1.427 . S
C2494 H2485 0.930 . S
C2494 C2492 1.378 . S
C2494 C2495 1.367 . S
C2495 C2494 1.367 . S
C2495 C2497 1.433 1_655 S
C2496 C2492 1.350 . S
C2496 C2493 1.463 . S
C2496 N2500 1.427 1_655 S
C2497 H2487 0.929 . S
C2497 C2495 1.433 1_455 S
C2497 N2500 1.384 . S
C2498 H2489 0.929 . S
C2498 C2490 1.378 . S
C2498 C2493 1.350 1_455 S
C2499 H2486 0.929 . S
C2499 C2491 1.433 . S
C2499 N2501 1.384 . S
N2500 C2496 1.427 1_455 S
N2500 C2497 1.384 . S
N2501 C2493 1.427 . S
N2501 C2499 1.384 . S
H2502 C2508 0.930 . S
H2503 C2512 0.930 . S
H2504 C2517 0.929 . S
H2505 C2515 0.929 . S
H2506 C2510 0.929 . S
H2507 C2516 0.929 . S
C2508 H2502 0.930 . S
C2508 C2509 1.367 . S
C2508 C2516 1.378 . S
C2509 C2508 1.367 . S
C2509 C2517 1.433 . S
C2510 H2506 0.929 . S
C2510 C2512 1.378 . S
C2510 C2514 1.350 . S
C2511 C2514 1.463 . S
C2511 C2516 1.350 . S
C2511 N2519 1.427 . S
C2512 H2503 0.930 . S
C2512 C2510 1.378 . S
C2512 C2513 1.367 . S
C2513 C2512 1.367 . S
C2513 C2515 1.433 . S
C2514 C2510 1.350 . S
C2514 C2511 1.463 . S
C2514 N2518 1.427 . S
C2515 H2505 0.929 . S
C2515 C2513 1.433 . S
C2515 N2518 1.384 . S
C2516 H2507 0.929 . S
C2516 C2508 1.378 . S
C2516 C2511 1.350 . S
C2517 H2504 0.929 . S
C2517 C2509 1.433 . S
C2517 N2519 1.384 . S
N2518 C2514 1.427 . S
N2518 C2515 1.384 . S
N2519 C2511 1.427 . S
N2519 C2517 1.384 . S
H2520 C2526 0.930 . S
H2521 C2530 0.930 . S
H2522 C2535 0.929 . S
H2523 C2533 0.929 . S
H2524 C2528 0.929 . S
H2525 C2534 0.929 . S
C2526 H2520 0.930 . S
C2526 C2527 1.367 . S
C2526 C2534 1.378 . S
C2527 C2526 1.367 . S
C2527 C2535 1.433 . S
C2528 H2524 0.929 . S
C2528 C2530 1.378 . S
C2528 C2532 1.350 . S
C2529 C2532 1.463 . S
C2529 C2534 1.350 . S
C2529 N2537 1.427 . S
C2530 H2521 0.930 . S
C2530 C2528 1.378 . S
C2530 C2531 1.367 . S
C2531 C2530 1.367 . S
C2531 C2533 1.433 . S
C2532 C2528 1.350 . S
C2532 C2529 1.463 . S
C2532 N2536 1.427 . S
C2533 H2523 0.929 . S
C2533 C2531 1.433 . S
C2533 N2536 1.384 . S
C2534 H2525 0.929 . S
C2534 C2526 1.378 . S
C2534 C2529 1.350 . S
C2535 H2522 0.929 . S
C2535 C2527 1.433 . S
C2535 N2537 1.384 . S
N2536 C2532 1.427 . S
N2536 C2533 1.384 . S
N2537 C2529 1.427 . S
N2537 C2535 1.384 . S
H2538 C2544 0.930 . S
H2539 C2548 0.930 . S
H2540 C2553 0.929 . S
H2541 C2551 0.929 . S
H2542 C2546 0.929 . S
H2543 C2552 0.929 . S
C2544 H2538 0.930 . S
C2544 C2545 1.367 . S
C2544 C2552 1.378 . S
C2545 C2544 1.367 . S
C2545 C2553 1.433 . S
C2546 H2542 0.929 . S
C2546 C2548 1.378 . S
C2546 C2550 1.350 . S
C2547 C2550 1.463 . S
C2547 C2552 1.350 . S
C2547 N2555 1.427 . S
C2548 H2539 0.930 . S
C2548 C2546 1.378 . S
C2548 C2549 1.367 . S
C2549 C2548 1.367 . S
C2549 C2551 1.433 . S
C2550 C2546 1.350 . S
C2550 C2547 1.463 . S
C2550 N2554 1.427 . S
C2551 H2541 0.929 . S
C2551 C2549 1.433 . S
C2551 N2554 1.384 . S
C2552 H2543 0.929 . S
C2552 C2544 1.378 . S
C2552 C2547 1.350 . S
C2553 H2540 0.929 . S
C2553 C2545 1.433 . S
C2553 N2555 1.384 . S
N2554 C2550 1.427 . S
N2554 C2551 1.384 . S
N2555 C2547 1.427 . S
N2555 C2553 1.384 . S
H2556 C2562 0.930 . S
H2557 C2566 0.930 . S
H2558 C2571 0.929 . S
H2559 C2569 0.929 . S
H2560 C2564 0.929 . S
H2561 C2570 0.929 . S
C2562 H2556 0.930 . S
C2562 C2563 1.367 . S
C2562 C2570 1.378 . S
C2563 C2562 1.367 . S
C2563 C2571 1.433 . S
C2564 H2560 0.929 . S
C2564 C2566 1.378 . S
C2564 C2568 1.350 . S
C2565 C2568 1.463 . S
C2565 C2570 1.350 . S
C2565 N2573 1.427 . S
C2566 H2557 0.930 . S
C2566 C2564 1.378 . S
C2566 C2567 1.367 . S
C2567 C2566 1.367 . S
C2567 C2569 1.433 . S
C2568 C2564 1.350 . S
C2568 C2565 1.463 . S
C2568 N2572 1.427 . S
C2569 H2559 0.929 . S
C2569 C2567 1.433 . S
C2569 N2572 1.384 . S
C2570 H2561 0.929 . S
C2570 C2562 1.378 . S
C2570 C2565 1.350 . S
C2571 H2558 0.929 . S
C2571 C2563 1.433 . S
C2571 N2573 1.384 . S
N2572 C2568 1.427 . S
N2572 C2569 1.384 . S
N2573 C2565 1.427 . S
N2573 C2571 1.384 . S
H2574 C2580 0.930 . S
H2575 C2584 0.930 . S
H2576 C2589 0.929 . S
H2577 C2587 0.929 . S
H2578 C2582 0.929 . S
H2579 C2588 0.929 . S
C2580 H2574 0.930 . S
C2580 C2581 1.367 . S
C2580 C2588 1.378 . S
C2581 C2580 1.367 . S
C2581 C2589 1.433 . S
C2582 H2578 0.929 . S
C2582 C2584 1.378 . S
C2582 C2586 1.350 . S
C2583 C2586 1.463 . S
C2583 C2588 1.350 . S
C2583 N2591 1.427 . S
C2584 H2575 0.930 . S
C2584 C2582 1.378 . S
C2584 C2585 1.367 . S
C2585 C2584 1.367 . S
C2585 C2587 1.433 . S
C2586 C2582 1.350 . S
C2586 C2583 1.463 . S
C2586 N2590 1.427 . S
C2587 H2577 0.929 . S
C2587 C2585 1.433 . S
C2587 N2590 1.384 . S
C2588 H2579 0.929 . S
C2588 C2580 1.378 . S
C2588 C2583 1.350 . S
C2589 H2576 0.929 . S
C2589 C2581 1.433 . S
C2589 N2591 1.384 . S
N2590 C2586 1.427 . S
N2590 C2587 1.384 . S
N2591 C2583 1.427 . S
N2591 C2589 1.384 . S
H2592 C2598 0.930 . S
H2593 C2602 0.930 . S
H2594 C2607 0.929 . S
H2595 C2605 0.929 . S
H2596 C2600 0.929 . S
H2597 C2606 0.929 . S
C2598 H2592 0.930 . S
C2598 C2599 1.367 . S
C2598 C2606 1.378 . S
C2599 C2598 1.367 . S
C2599 C2607 1.433 . S
C2600 H2596 0.929 . S
C2600 C2602 1.378 . S
C2600 C2604 1.350 . S
C2601 C2604 1.463 . S
C2601 C2606 1.350 . S
C2601 N2609 1.427 . S
C2602 H2593 0.930 . S
C2602 C2600 1.378 . S
C2602 C2603 1.367 . S
C2603 C2602 1.367 . S
C2603 C2605 1.433 . S
C2604 C2600 1.350 . S
C2604 C2601 1.463 . S
C2604 N2608 1.427 . S
C2605 H2595 0.929 . S
C2605 C2603 1.433 . S
C2605 N2608 1.384 . S
C2606 H2597 0.929 . S
C2606 C2598 1.378 . S
C2606 C2601 1.350 . S
C2607 H2594 0.929 . S
C2607 C2599 1.433 . S
C2607 N2609 1.384 . S
N2608 C2604 1.427 . S
N2608 C2605 1.384 . S
N2609 C2601 1.427 . S
N2609 C2607 1.384 . S
H2610 C2616 0.930 . S
H2611 C2620 0.930 . S
H2612 C2625 0.929 . S
H2613 C2623 0.929 . S
H2614 C2618 0.929 . S
H2615 C2624 0.929 . S
C2616 H2610 0.930 . S
C2616 C2617 1.367 . S
C2616 C2624 1.378 . S
C2617 C2616 1.367 . S
C2617 C2625 1.433 . S
C2618 H2614 0.929 . S
C2618 C2620 1.378 . S
C2618 C2622 1.350 . S
C2619 C2622 1.463 . S
C2619 C2624 1.350 . S
C2619 N2627 1.427 . S
C2620 H2611 0.930 . S
C2620 C2618 1.378 . S
C2620 C2621 1.367 . S
C2621 C2620 1.367 . S
C2621 C2623 1.433 . S
C2622 C2618 1.350 . S
C2622 C2619 1.463 . S
C2622 N2626 1.427 . S
C2623 H2613 0.929 . S
C2623 C2621 1.433 . S
C2623 N2626 1.384 . S
C2624 H2615 0.929 . S
C2624 C2616 1.378 . S
C2624 C2619 1.350 . S
C2625 H2612 0.929 . S
C2625 C2617 1.433 . S
C2625 N2627 1.384 . S
N2626 C2622 1.427 . S
N2626 C2623 1.384 . S
N2627 C2619 1.427 . S
N2627 C2625 1.384 . S
H2628 C2634 0.930 . S
H2629 C2638 0.930 . S
H2630 C2643 0.929 . S
H2631 C2641 0.929 . S
H2632 C2636 0.929 . S
H2633 C2642 0.929 . S
C2634 H2628 0.930 . S
C2634 C2635 1.367 . S
C2634 C2642 1.378 . S
C2635 C2634 1.367 . S
C2635 C2643 1.433 . S
C2636 H2632 0.929 . S
C2636 C2638 1.378 . S
C2636 C2640 1.350 . S
C2637 C2640 1.463 . S
C2637 C2642 1.350 . S
C2637 N2645 1.427 . S
C2638 H2629 0.930 . S
C2638 C2636 1.378 . S
C2638 C2639 1.367 . S
C2639 C2638 1.367 . S
C2639 C2641 1.433 . S
C2640 C2636 1.350 . S
C2640 C2637 1.463 . S
C2640 N2644 1.427 . S
C2641 H2631 0.929 . S
C2641 C2639 1.433 . S
C2641 N2644 1.384 . S
C2642 H2633 0.929 . S
C2642 C2634 1.378 . S
C2642 C2637 1.350 . S
C2643 H2630 0.929 . S
C2643 C2635 1.433 . S
C2643 N2645 1.384 . S
N2644 C2640 1.427 . S
N2644 C2641 1.384 . S
N2645 C2637 1.427 . S
N2645 C2643 1.384 . S
H2646 C2652 0.930 . S
H2647 C2656 0.930 . S
H2648 C2661 0.929 . S
H2649 C2659 0.929 . S
H2650 C2654 0.929 . S
H2651 C2660 0.929 . S
C2652 H2646 0.930 . S
C2652 C2653 1.367 . S
C2652 C2660 1.378 . S
C2653 C2652 1.367 . S
C2653 C2661 1.433 . S
C2654 H2650 0.929 . S
C2654 C2656 1.378 . S
C2654 C2658 1.350 . S
C2655 C2658 1.463 . S
C2655 C2660 1.350 . S
C2655 N2663 1.427 . S
C2656 H2647 0.930 . S
C2656 C2654 1.378 . S
C2656 C2657 1.367 . S
C2657 C2656 1.367 . S
C2657 C2659 1.433 . S
C2658 C2654 1.350 . S
C2658 C2655 1.463 . S
C2658 N2662 1.427 . S
C2659 H2649 0.929 . S
C2659 C2657 1.433 . S
C2659 N2662 1.384 . S
C2660 H2651 0.929 . S
C2660 C2652 1.378 . S
C2660 C2655 1.350 . S
C2661 H2648 0.929 . S
C2661 C2653 1.433 . S
C2661 N2663 1.384 . S
N2662 C2658 1.427 . S
N2662 C2659 1.384 . S
N2663 C2655 1.427 . S
N2663 C2661 1.384 . S
H2664 C2670 0.930 . S
H2665 C2674 0.930 . S
H2666 C2679 0.929 . S
H2667 C2677 0.929 . S
H2668 C2672 0.929 . S
H2669 C2678 0.929 . S
C2670 H2664 0.930 . S
C2670 C2671 1.367 . S
C2670 C2678 1.378 . S
C2671 C2670 1.367 . S
C2671 C2679 1.433 . S
C2672 H2668 0.929 . S
C2672 C2674 1.378 . S
C2672 C2676 1.350 . S
C2673 C2676 1.463 . S
C2673 C2678 1.350 . S
C2673 N2681 1.427 . S
C2674 H2665 0.930 . S
C2674 C2672 1.378 . S
C2674 C2675 1.367 . S
C2675 C2674 1.367 . S
C2675 C2677 1.433 . S
C2676 C2672 1.350 . S
C2676 C2673 1.463 . S
C2676 N2680 1.427 . S
C2677 H2667 0.929 . S
C2677 C2675 1.433 . S
C2677 N2680 1.384 . S
C2678 H2669 0.929 . S
C2678 C2670 1.378 . S
C2678 C2673 1.350 . S
C2679 H2666 0.929 . S
C2679 C2671 1.433 . S
C2679 N2681 1.384 . S
N2680 C2676 1.427 . S
N2680 C2677 1.384 . S
N2681 C2673 1.427 . S
N2681 C2679 1.384 . S
H2682 C2688 0.930 . S
H2683 C2692 0.930 . S
H2684 C2697 0.929 . S
H2685 C2695 0.929 . S
H2686 C2690 0.929 . S
H2687 C2696 0.929 . S
C2688 H2682 0.930 . S
C2688 C2689 1.367 . S
C2688 C2696 1.378 . S
C2689 C2688 1.367 . S
C2689 C2697 1.433 . S
C2690 H2686 0.929 . S
C2690 C2692 1.378 . S
C2690 C2694 1.350 . S
C2691 C2694 1.463 . S
C2691 C2696 1.350 . S
C2691 N2699 1.427 . S
C2692 H2683 0.930 . S
C2692 C2690 1.378 . S
C2692 C2693 1.367 . S
C2693 C2692 1.367 . S
C2693 C2695 1.433 . S
C2694 C2690 1.350 . S
C2694 C2691 1.463 . S
C2694 N2698 1.427 . S
C2695 H2685 0.929 . S
C2695 C2693 1.433 . S
C2695 N2698 1.384 . S
C2696 H2687 0.929 . S
C2696 C2688 1.378 . S
C2696 C2691 1.350 . S
C2697 H2684 0.929 . S
C2697 C2689 1.433 . S
C2697 N2699 1.384 . S
N2698 C2694 1.427 . S
N2698 C2695 1.384 . S
N2699 C2691 1.427 . S
N2699 C2697 1.384 . S
H2700 C2706 0.930 . S
H2701 C2710 0.930 . S
H2702 C2715 0.929 . S
H2703 C2713 0.929 . S
H2704 C2708 0.929 . S
H2705 C2714 0.929 . S
C2706 H2700 0.930 . S
C2706 C2707 1.367 . S
C2706 C2714 1.378 . S
C2707 C2706 1.367 . S
C2707 C2715 1.433 . S
C2708 H2704 0.929 . S
C2708 C2710 1.378 . S
C2708 C2712 1.350 . S
C2709 C2712 1.463 . S
C2709 C2714 1.350 . S
C2709 N2717 1.427 . S
C2710 H2701 0.930 . S
C2710 C2708 1.378 . S
C2710 C2711 1.367 . S
C2711 C2710 1.367 . S
C2711 C2713 1.433 . S
C2712 C2708 1.350 . S
C2712 C2709 1.463 . S
C2712 N2716 1.427 . S
C2713 H2703 0.929 . S
C2713 C2711 1.433 . S
C2713 N2716 1.384 . S
C2714 H2705 0.929 . S
C2714 C2706 1.378 . S
C2714 C2709 1.350 . S
C2715 H2702 0.929 . S
C2715 C2707 1.433 . S
C2715 N2717 1.384 . S
N2716 C2712 1.427 . S
N2716 C2713 1.384 . S
N2717 C2709 1.427 . S
N2717 C2715 1.384 . S
H2718 C2724 0.930 . S
H2719 C2728 0.930 . S
H2720 C2733 0.929 . S
H2721 C2731 0.929 . S
H2722 C2726 0.929 . S
H2723 C2732 0.929 . S
C2724 H2718 0.930 . S
C2724 C2725 1.367 . S
C2724 C2732 1.378 . S
C2725 C2724 1.367 . S
C2725 C2733 1.433 . S
C2726 H2722 0.929 . S
C2726 C2728 1.378 . S
C2726 C2730 1.350 . S
C2727 C2730 1.463 . S
C2727 C2732 1.350 . S
C2727 N2735 1.427 . S
C2728 H2719 0.930 . S
C2728 C2726 1.378 . S
C2728 C2729 1.367 . S
C2729 C2728 1.367 . S
C2729 C2731 1.433 . S
C2730 C2726 1.350 . S
C2730 C2727 1.463 . S
C2730 N2734 1.427 . S
C2731 H2721 0.929 . S
C2731 C2729 1.433 . S
C2731 N2734 1.384 . S
C2732 H2723 0.929 . S
C2732 C2724 1.378 . S
C2732 C2727 1.350 . S
C2733 H2720 0.929 . S
C2733 C2725 1.433 . S
C2733 N2735 1.384 . S
N2734 C2730 1.427 . S
N2734 C2731 1.384 . S
N2735 C2727 1.427 . S
N2735 C2733 1.384 . S
H2736 C2742 0.930 . S
H2737 C2746 0.930 . S
H2738 C2751 0.929 . S
H2739 C2749 0.929 . S
H2740 C2744 0.929 . S
H2741 C2750 0.929 . S
C2742 H2736 0.930 . S
C2742 C2743 1.367 . S
C2742 C2750 1.378 . S
C2743 C2742 1.367 . S
C2743 C2751 1.433 . S
C2744 H2740 0.929 . S
C2744 C2746 1.378 . S
C2744 C2748 1.350 . S
C2745 C2748 1.463 . S
C2745 C2750 1.350 . S
C2745 N2753 1.427 . S
C2746 H2737 0.930 . S
C2746 C2744 1.378 . S
C2746 C2747 1.367 . S
C2747 C2746 1.367 . S
C2747 C2749 1.433 . S
C2748 C2744 1.350 . S
C2748 C2745 1.463 . S
C2748 N2752 1.427 . S
C2749 H2739 0.929 . S
C2749 C2747 1.433 . S
C2749 N2752 1.384 . S
C2750 H2741 0.929 . S
C2750 C2742 1.378 . S
C2750 C2745 1.350 . S
C2751 H2738 0.929 . S
C2751 C2743 1.433 . S
C2751 N2753 1.384 . S
N2752 C2748 1.427 . S
N2752 C2749 1.384 . S
N2753 C2745 1.427 . S
N2753 C2751 1.384 . S
H2754 C2760 0.930 . S
H2755 C2764 0.930 . S
H2756 C2769 0.929 . S
H2757 C2767 0.929 . S
H2758 C2762 0.929 . S
H2759 C2768 0.929 . S
C2760 H2754 0.930 . S
C2760 C2761 1.367 . S
C2760 C2768 1.378 . S
C2761 C2760 1.367 . S
C2761 C2769 1.433 . S
C2762 H2758 0.929 . S
C2762 C2764 1.378 . S
C2762 C2766 1.350 . S
C2763 C2766 1.463 . S
C2763 C2768 1.350 . S
C2763 N2771 1.427 . S
C2764 H2755 0.930 . S
C2764 C2762 1.378 . S
C2764 C2765 1.367 . S
C2765 C2764 1.367 . S
C2765 C2767 1.433 . S
C2766 C2762 1.350 . S
C2766 C2763 1.463 . S
C2766 N2770 1.427 . S
C2767 H2757 0.929 . S
C2767 C2765 1.433 . S
C2767 N2770 1.384 . S
C2768 H2759 0.929 . S
C2768 C2760 1.378 . S
C2768 C2763 1.350 . S
C2769 H2756 0.929 . S
C2769 C2761 1.433 . S
C2769 N2771 1.384 . S
N2770 C2766 1.427 . S
N2770 C2767 1.384 . S
N2771 C2763 1.427 . S
N2771 C2769 1.384 . S
H2772 C2778 0.930 . S
H2773 C2782 0.930 . S
H2774 C2787 0.929 . S
H2775 C2785 0.929 . S
H2776 C2780 0.929 . S
H2777 C2786 0.929 . S
C2778 H2772 0.930 . S
C2778 C2779 1.367 . S
C2778 C2786 1.378 . S
C2779 C2778 1.367 . S
C2779 C2787 1.433 . S
C2780 H2776 0.929 . S
C2780 C2782 1.378 . S
C2780 C2784 1.350 . S
C2781 C2784 1.463 . S
C2781 C2786 1.350 . S
C2781 N2789 1.427 . S
C2782 H2773 0.930 . S
C2782 C2780 1.378 . S
C2782 C2783 1.367 . S
C2783 C2782 1.367 . S
C2783 C2785 1.433 . S
C2784 C2780 1.350 . S
C2784 C2781 1.463 . S
C2784 N2788 1.427 . S
C2785 H2775 0.929 . S
C2785 C2783 1.433 . S
C2785 N2788 1.384 . S
C2786 H2777 0.929 . S
C2786 C2778 1.378 . S
C2786 C2781 1.350 . S
C2787 H2774 0.929 . S
C2787 C2779 1.433 . S
C2787 N2789 1.384 . S
N2788 C2784 1.427 . S
N2788 C2785 1.384 . S
N2789 C2781 1.427 . S
N2789 C2787 1.384 . S
H2790 C2796 0.930 . S
H2791 C2800 0.930 . S
H2792 C2805 0.929 . S
H2793 C2803 0.929 . S
H2794 C2798 0.929 . S
H2795 C2804 0.929 . S
C2796 H2790 0.930 . S
C2796 C2797 1.367 . S
C2796 C2804 1.378 . S
C2797 C2796 1.367 . S
C2797 C2805 1.433 . S
C2798 H2794 0.929 . S
C2798 C2800 1.378 . S
C2798 C2802 1.350 . S
C2799 C2802 1.463 . S
C2799 C2804 1.350 . S
C2799 N2807 1.427 . S
C2800 H2791 0.930 . S
C2800 C2798 1.378 . S
C2800 C2801 1.367 . S
C2801 C2800 1.367 . S
C2801 C2803 1.433 . S
C2802 C2798 1.350 . S
C2802 C2799 1.463 . S
C2802 N2806 1.427 . S
C2803 H2793 0.929 . S
C2803 C2801 1.433 . S
C2803 N2806 1.384 . S
C2804 H2795 0.929 . S
C2804 C2796 1.378 . S
C2804 C2799 1.350 . S
C2805 H2792 0.929 . S
C2805 C2797 1.433 . S
C2805 N2807 1.384 . S
N2806 C2802 1.427 . S
N2806 C2803 1.384 . S
N2807 C2799 1.427 . S
N2807 C2805 1.384 . S
H2808 C2814 0.930 . S
H2809 C2818 0.930 . S
H2810 C2823 0.929 . S
H2811 C2821 0.929 . S
H2812 C2816 0.929 . S
H2813 C2822 0.929 . S
C2814 H2808 0.930 . S
C2814 C2815 1.367 . S
C2814 C2822 1.378 . S
C2815 C2814 1.367 . S
C2815 C2823 1.433 . S
C2816 H2812 0.929 . S
C2816 C2818 1.378 . S
C2816 C2820 1.350 . S
C2817 C2820 1.463 . S
C2817 C2822 1.350 . S
C2817 N2825 1.427 . S
C2818 H2809 0.930 . S
C2818 C2816 1.378 . S
C2818 C2819 1.367 . S
C2819 C2818 1.367 . S
C2819 C2821 1.433 . S
C2820 C2816 1.350 . S
C2820 C2817 1.463 . S
C2820 N2824 1.427 . S
C2821 H2811 0.929 . S
C2821 C2819 1.433 . S
C2821 N2824 1.384 . S
C2822 H2813 0.929 . S
C2822 C2814 1.378 . S
C2822 C2817 1.350 . S
C2823 H2810 0.929 . S
C2823 C2815 1.433 . S
C2823 N2825 1.384 . S
N2824 C2820 1.427 . S
N2824 C2821 1.384 . S
N2825 C2817 1.427 . S
N2825 C2823 1.384 . S
H2826 C2832 0.930 . S
H2827 C2836 0.930 . S
H2828 C2841 0.929 . S
H2829 C2839 0.929 . S
H2830 C2834 0.929 . S
H2831 C2840 0.929 . S
C2832 H2826 0.930 . S
C2832 C2833 1.367 . S
C2832 C2840 1.378 . S
C2833 C2832 1.367 . S
C2833 C2841 1.433 . S
C2834 H2830 0.929 . S
C2834 C2836 1.378 . S
C2834 C2838 1.350 . S
C2835 C2838 1.463 . S
C2835 C2840 1.350 . S
C2835 N2843 1.427 . S
C2836 H2827 0.930 . S
C2836 C2834 1.378 . S
C2836 C2837 1.367 . S
C2837 C2836 1.367 . S
C2837 C2839 1.433 . S
C2838 C2834 1.350 . S
C2838 C2835 1.463 . S
C2838 N2842 1.427 . S
C2839 H2829 0.929 . S
C2839 C2837 1.433 . S
C2839 N2842 1.384 . S
C2840 H2831 0.929 . S
C2840 C2832 1.378 . S
C2840 C2835 1.350 . S
C2841 H2828 0.929 . S
C2841 C2833 1.433 . S
C2841 N2843 1.384 . S
N2842 C2838 1.427 . S
N2842 C2839 1.384 . S
N2843 C2835 1.427 . S
N2843 C2841 1.384 . S
H2844 C2850 0.930 . S
H2845 C2854 0.930 . S
H2846 C2859 0.929 . S
H2847 C2857 0.929 . S
H2848 C2852 0.929 . S
H2849 C2858 0.929 . S
C2850 H2844 0.930 . S
C2850 C2851 1.367 . S
C2850 C2858 1.378 . S
C2851 C2850 1.367 . S
C2851 C2859 1.433 . S
C2852 H2848 0.929 . S
C2852 C2854 1.378 . S
C2852 C2856 1.350 . S
C2853 C2856 1.463 . S
C2853 C2858 1.350 . S
C2853 N2861 1.427 . S
C2854 H2845 0.930 . S
C2854 C2852 1.378 . S
C2854 C2855 1.367 . S
C2855 C2854 1.367 . S
C2855 C2857 1.433 . S
C2856 C2852 1.350 . S
C2856 C2853 1.463 . S
C2856 N2860 1.427 . S
C2857 H2847 0.929 . S
C2857 C2855 1.433 . S
C2857 N2860 1.384 . S
C2858 H2849 0.929 . S
C2858 C2850 1.378 . S
C2858 C2853 1.350 . S
C2859 H2846 0.929 . S
C2859 C2851 1.433 . S
C2859 N2861 1.384 . S
N2860 C2856 1.427 . S
N2860 C2857 1.384 . S
N2861 C2853 1.427 . S
N2861 C2859 1.384 . S
H2862 C2868 0.930 . S
H2863 C2872 0.930 . S
H2864 C2877 0.929 . S
H2865 C2875 0.929 . S
H2866 C2870 0.929 . S
H2867 C2876 0.929 . S
C2868 H2862 0.930 . S
C2868 C2869 1.367 . S
C2868 C2876 1.378 . S
C2869 C2868 1.367 . S
C2869 C2877 1.433 . S
C2870 H2866 0.929 . S
C2870 C2872 1.378 . S
C2870 C2874 1.350 . S
C2871 C2874 1.463 . S
C2871 C2876 1.350 . S
C2871 N2879 1.427 . S
C2872 H2863 0.930 . S
C2872 C2870 1.378 . S
C2872 C2873 1.367 . S
C2873 C2872 1.367 . S
C2873 C2875 1.433 . S
C2874 C2870 1.350 . S
C2874 C2871 1.463 . S
C2874 N2878 1.427 . S
C2875 H2865 0.929 . S
C2875 C2873 1.433 . S
C2875 N2878 1.384 . S
C2876 H2867 0.929 . S
C2876 C2868 1.378 . S
C2876 C2871 1.350 . S
C2877 H2864 0.929 . S
C2877 C2869 1.433 . S
C2877 N2879 1.384 . S
N2878 C2874 1.427 . S
N2878 C2875 1.384 . S
N2879 C2871 1.427 . S
N2879 C2877 1.384 . S
H2880 C2886 0.930 . S
H2881 C2890 0.930 . S
H2882 C2895 0.929 . S
H2883 C2893 0.929 . S
H2884 C2888 0.929 . S
H2885 C2894 0.929 . S
C2886 H2880 0.930 . S
C2886 C2887 1.367 . S
C2886 C2894 1.378 . S
C2887 C2886 1.367 . S
C2887 C2895 1.433 . S
C2888 H2884 0.929 . S
C2888 C2890 1.378 . S
C2888 C2892 1.350 . S
C2889 C2892 1.463 . S
C2889 C2894 1.350 . S
C2889 N2897 1.427 . S
C2890 H2881 0.930 . S
C2890 C2888 1.378 . S
C2890 C2891 1.367 . S
C2891 C2890 1.367 . S
C2891 C2893 1.433 . S
C2892 C2888 1.350 . S
C2892 C2889 1.463 . S
C2892 N2896 1.427 . S
C2893 H2883 0.929 . S
C2893 C2891 1.433 . S
C2893 N2896 1.384 . S
C2894 H2885 0.929 . S
C2894 C2886 1.378 . S
C2894 C2889 1.350 . S
C2895 H2882 0.929 . S
C2895 C2887 1.433 . S
C2895 N2897 1.384 . S
N2896 C2892 1.427 . S
N2896 C2893 1.384 . S
N2897 C2889 1.427 . S
N2897 C2895 1.384 . S
H2898 C2904 0.930 . S
H2899 C2908 0.930 . S
H2900 C2913 0.929 . S
H2901 C2911 0.929 . S
H2902 C2906 0.929 . S
H2903 C2912 0.929 . S
C2904 H2898 0.930 . S
C2904 C2905 1.367 . S
C2904 C2912 1.378 . S
C2905 C2904 1.367 . S
C2905 C2913 1.433 . S
C2906 H2902 0.929 . S
C2906 C2908 1.378 . S
C2906 C2910 1.350 . S
C2907 C2910 1.463 . S
C2907 C2912 1.350 . S
C2907 N2915 1.427 . S
C2908 H2899 0.930 . S
C2908 C2906 1.378 . S
C2908 C2909 1.367 . S
C2909 C2908 1.367 . S
C2909 C2911 1.433 . S
C2910 C2906 1.350 . S
C2910 C2907 1.463 . S
C2910 N2914 1.427 . S
C2911 H2901 0.929 . S
C2911 C2909 1.433 . S
C2911 N2914 1.384 . S
C2912 H2903 0.929 . S
C2912 C2904 1.378 . S
C2912 C2907 1.350 . S
C2913 H2900 0.929 . S
C2913 C2905 1.433 . S
C2913 N2915 1.384 . S
N2914 C2910 1.427 . S
N2914 C2911 1.384 . S
N2915 C2907 1.427 . S
N2915 C2913 1.384 . S
H2916 C2922 0.930 . S
H2917 C2926 0.930 . S
H2918 C2931 0.929 . S
H2919 C2929 0.929 . S
H2920 C2924 0.929 . S
H2921 C2930 0.929 . S
C2922 H2916 0.930 . S
C2922 C2923 1.367 . S
C2922 C2930 1.378 . S
C2923 C2922 1.367 . S
C2923 C2931 1.433 . S
C2924 H2920 0.929 . S
C2924 C2926 1.378 . S
C2924 C2928 1.350 . S
C2925 C2928 1.463 . S
C2925 C2930 1.350 . S
C2925 N2933 1.427 . S
C2926 H2917 0.930 . S
C2926 C2924 1.378 . S
C2926 C2927 1.367 . S
C2927 C2926 1.367 . S
C2927 C2929 1.433 . S
C2928 C2924 1.350 . S
C2928 C2925 1.463 . S
C2928 N2932 1.427 . S
C2929 H2919 0.929 . S
C2929 C2927 1.433 . S
C2929 N2932 1.384 . S
C2930 H2921 0.929 . S
C2930 C2922 1.378 . S
C2930 C2925 1.350 . S
C2931 H2918 0.929 . S
C2931 C2923 1.433 . S
C2931 N2933 1.384 . S
N2932 C2928 1.427 . S
N2932 C2929 1.384 . S
N2933 C2925 1.427 . S
N2933 C2931 1.384 . S
H2934 C2940 0.930 . S
H2935 C2944 0.930 . S
H2936 C2949 0.929 . S
H2937 C2947 0.929 . S
H2938 C2942 0.929 . S
H2939 C2948 0.929 . S
C2940 H2934 0.930 . S
C2940 C2941 1.367 . S
C2940 C2948 1.378 . S
C2941 C2940 1.367 . S
C2941 C2949 1.433 . S
C2942 H2938 0.929 . S
C2942 C2944 1.378 . S
C2942 C2946 1.350 . S
C2943 C2946 1.463 . S
C2943 C2948 1.350 . S
C2943 N2951 1.427 . S
C2944 H2935 0.930 . S
C2944 C2942 1.378 . S
C2944 C2945 1.367 . S
C2945 C2944 1.367 . S
C2945 C2947 1.433 . S
C2946 C2942 1.350 . S
C2946 C2943 1.463 . S
C2946 N2950 1.427 . S
C2947 H2937 0.929 . S
C2947 C2945 1.433 . S
C2947 N2950 1.384 . S
C2948 H2939 0.929 . S
C2948 C2940 1.378 . S
C2948 C2943 1.350 . S
C2949 H2936 0.929 . S
C2949 C2941 1.433 . S
C2949 N2951 1.384 . S
N2950 C2946 1.427 . S
N2950 C2947 1.384 . S
N2951 C2943 1.427 . S
N2951 C2949 1.384 . S
H2952 C2958 0.930 . S
H2953 C2962 0.930 . S
H2954 C2967 0.929 . S
H2955 C2965 0.929 . S
H2956 C2960 0.929 . S
H2957 C2966 0.929 . S
C2958 H2952 0.930 . S
C2958 C2959 1.367 . S
C2958 C2966 1.378 . S
C2959 C2958 1.367 . S
C2959 C2967 1.433 . S
C2960 H2956 0.929 . S
C2960 C2962 1.378 . S
C2960 C2964 1.350 . S
C2961 C2964 1.463 . S
C2961 C2966 1.350 . S
C2961 N2969 1.427 . S
C2962 H2953 0.930 . S
C2962 C2960 1.378 . S
C2962 C2963 1.367 . S
C2963 C2962 1.367 . S
C2963 C2965 1.433 . S
C2964 C2960 1.350 . S
C2964 C2961 1.463 . S
C2964 N2968 1.427 . S
C2965 H2955 0.929 . S
C2965 C2963 1.433 . S
C2965 N2968 1.384 . S
C2966 H2957 0.929 . S
C2966 C2958 1.378 . S
C2966 C2961 1.350 . S
C2967 H2954 0.929 . S
C2967 C2959 1.433 . S
C2967 N2969 1.384 . S
N2968 C2964 1.427 . S
N2968 C2965 1.384 . S
N2969 C2961 1.427 . S
N2969 C2967 1.384 . S
H2970 C2976 0.930 . S
H2971 C2980 0.930 . S
H2972 C2985 0.929 . S
H2973 C2983 0.929 . S
H2974 C2978 0.929 . S
H2975 C2984 0.929 . S
C2976 H2970 0.930 . S
C2976 C2977 1.367 . S
C2976 C2984 1.378 . S
C2977 C2976 1.367 . S
C2977 C2985 1.433 . S
C2978 H2974 0.929 . S
C2978 C2980 1.378 . S
C2978 C2982 1.350 . S
C2979 C2982 1.463 . S
C2979 C2984 1.350 . S
C2979 N2987 1.427 . S
C2980 H2971 0.930 . S
C2980 C2978 1.378 . S
C2980 C2981 1.367 . S
C2981 C2980 1.367 . S
C2981 C2983 1.433 . S
C2982 C2978 1.350 . S
C2982 C2979 1.463 . S
C2982 N2986 1.427 . S
C2983 H2973 0.929 . S
C2983 C2981 1.433 . S
C2983 N2986 1.384 . S
C2984 H2975 0.929 . S
C2984 C2976 1.378 . S
C2984 C2979 1.350 . S
C2985 H2972 0.929 . S
C2985 C2977 1.433 . S
C2985 N2987 1.384 . S
N2986 C2982 1.427 . S
N2986 C2983 1.384 . S
N2987 C2979 1.427 . S
N2987 C2985 1.384 . S
H2988 C2994 0.930 . S
H2989 C2998 0.930 . S
H2990 C3003 0.929 . S
H2991 C3001 0.929 . S
H2992 C2996 0.929 . S
H2993 C3002 0.929 . S
C2994 H2988 0.930 . S
C2994 C2995 1.367 . S
C2994 C3002 1.378 . S
C2995 C2994 1.367 . S
C2995 C3003 1.433 . S
C2996 H2992 0.929 . S
C2996 C2998 1.378 . S
C2996 C3000 1.350 . S
C2997 C3000 1.463 . S
C2997 C3002 1.350 . S
C2997 N3005 1.427 . S
C2998 H2989 0.930 . S
C2998 C2996 1.378 . S
C2998 C2999 1.367 . S
C2999 C2998 1.367 . S
C2999 C3001 1.433 . S
C3000 C2996 1.350 . S
C3000 C2997 1.463 . S
C3000 N3004 1.427 . S
C3001 H2991 0.929 . S
C3001 C2999 1.433 . S
C3001 N3004 1.384 . S
C3002 H2993 0.929 . S
C3002 C2994 1.378 . S
C3002 C2997 1.350 . S
C3003 H2990 0.929 . S
C3003 C2995 1.433 . S
C3003 N3005 1.384 . S
N3004 C3000 1.427 . S
N3004 C3001 1.384 . S
N3005 C2997 1.427 . S
N3005 C3003 1.384 . S
H3006 C3012 0.930 . S
H3007 C3016 0.930 . S
H3008 C3021 0.929 . S
H3009 C3019 0.929 . S
H3010 C3014 0.929 . S
H3011 C3020 0.929 . S
C3012 H3006 0.930 . S
C3012 C3013 1.367 . S
C3012 C3020 1.378 . S
C3013 C3012 1.367 . S
C3013 C3021 1.433 . S
C3014 H3010 0.929 . S
C3014 C3016 1.378 . S
C3014 C3018 1.350 . S
C3015 C3018 1.463 . S
C3015 C3020 1.350 . S
C3015 N3023 1.427 . S
C3016 H3007 0.930 . S
C3016 C3014 1.378 . S
C3016 C3017 1.367 . S
C3017 C3016 1.367 . S
C3017 C3019 1.433 . S
C3018 C3014 1.350 . S
C3018 C3015 1.463 . S
C3018 N3022 1.427 . S
C3019 H3009 0.929 . S
C3019 C3017 1.433 . S
C3019 N3022 1.384 . S
C3020 H3011 0.929 . S
C3020 C3012 1.378 . S
C3020 C3015 1.350 . S
C3021 H3008 0.929 . S
C3021 C3013 1.433 . S
C3021 N3023 1.384 . S
N3022 C3018 1.427 . S
N3022 C3019 1.384 . S
N3023 C3015 1.427 . S
N3023 C3021 1.384 . S
H3024 C3030 0.930 . S
H3025 C3034 0.930 . S
H3026 C3039 0.929 . S
H3027 C3037 0.929 . S
H3028 C3032 0.929 . S
H3029 C3038 0.929 . S
C3030 H3024 0.930 . S
C3030 C3031 1.367 . S
C3030 C3038 1.378 . S
C3031 C3030 1.367 . S
C3031 C3039 1.433 . S
C3032 H3028 0.929 . S
C3032 C3034 1.378 . S
C3032 C3036 1.350 . S
C3033 C3036 1.463 . S
C3033 C3038 1.350 . S
C3033 N3041 1.427 . S
C3034 H3025 0.930 . S
C3034 C3032 1.378 . S
C3034 C3035 1.367 . S
C3035 C3034 1.367 . S
C3035 C3037 1.433 . S
C3036 C3032 1.350 . S
C3036 C3033 1.463 . S
C3036 N3040 1.427 . S
C3037 H3027 0.929 . S
C3037 C3035 1.433 . S
C3037 N3040 1.384 . S
C3038 H3029 0.929 . S
C3038 C3030 1.378 . S
C3038 C3033 1.350 . S
C3039 H3026 0.929 . S
C3039 C3031 1.433 . S
C3039 N3041 1.384 . S
N3040 C3036 1.427 . S
N3040 C3037 1.384 . S
N3041 C3033 1.427 . S
N3041 C3039 1.384 . S
H3042 C3048 0.930 . S
H3043 C3052 0.930 . S
H3044 C3057 0.929 . S
H3045 C3055 0.929 . S
H3046 C3050 0.929 . S
H3047 C3056 0.929 . S
C3048 H3042 0.930 . S
C3048 C3049 1.367 . S
C3048 C3056 1.378 . S
C3049 C3048 1.367 . S
C3049 C3057 1.433 . S
C3050 H3046 0.929 . S
C3050 C3052 1.378 . S
C3050 C3054 1.350 . S
C3051 C3054 1.463 . S
C3051 C3056 1.350 . S
C3051 N3059 1.427 . S
C3052 H3043 0.930 . S
C3052 C3050 1.378 . S
C3052 C3053 1.367 . S
C3053 C3052 1.367 . S
C3053 C3055 1.433 . S
C3054 C3050 1.350 . S
C3054 C3051 1.463 . S
C3054 N3058 1.427 . S
C3055 H3045 0.929 . S
C3055 C3053 1.433 . S
C3055 N3058 1.384 . S
C3056 H3047 0.929 . S
C3056 C3048 1.378 . S
C3056 C3051 1.350 . S
C3057 H3044 0.929 . S
C3057 C3049 1.433 . S
C3057 N3059 1.384 . S
N3058 C3054 1.427 . S
N3058 C3055 1.384 . S
N3059 C3051 1.427 . S
N3059 C3057 1.384 . S
H3060 C3066 0.930 . S
H3061 C3070 0.930 . S
H3062 C3075 0.929 . S
H3063 C3073 0.929 . S
H3064 C3068 0.929 . S
H3065 C3074 0.929 . S
C3066 H3060 0.930 . S
C3066 C3067 1.367 . S
C3066 C3074 1.378 . S
C3067 C3066 1.367 . S
C3067 C3075 1.433 . S
C3068 H3064 0.929 . S
C3068 C3070 1.378 . S
C3068 C3072 1.350 . S
C3069 C3072 1.463 . S
C3069 C3074 1.350 . S
C3069 N3077 1.427 . S
C3070 H3061 0.930 . S
C3070 C3068 1.378 . S
C3070 C3071 1.367 . S
C3071 C3070 1.367 . S
C3071 C3073 1.433 . S
C3072 C3068 1.350 . S
C3072 C3069 1.463 . S
C3072 N3076 1.427 . S
C3073 H3063 0.929 . S
C3073 C3071 1.433 . S
C3073 N3076 1.384 . S
C3074 H3065 0.929 . S
C3074 C3066 1.378 . S
C3074 C3069 1.350 . S
C3075 H3062 0.929 . S
C3075 C3067 1.433 . S
C3075 N3077 1.384 . S
N3076 C3072 1.427 . S
N3076 C3073 1.384 . S
N3077 C3069 1.427 . S
N3077 C3075 1.384 . S
H3078 C3084 0.930 . S
H3079 C3088 0.930 . S
H3080 C3093 0.929 . S
H3081 C3091 0.929 . S
H3082 C3086 0.929 . S
H3083 C3092 0.929 . S
C3084 H3078 0.930 . S
C3084 C3085 1.367 . S
C3084 C3092 1.378 . S
C3085 C3084 1.367 . S
C3085 C3093 1.433 . S
C3086 H3082 0.929 . S
C3086 C3088 1.378 . S
C3086 C3090 1.350 . S
C3087 C3090 1.463 . S
C3087 C3092 1.350 . S
C3087 N3095 1.427 . S
C3088 H3079 0.930 . S
C3088 C3086 1.378 . S
C3088 C3089 1.367 . S
C3089 C3088 1.367 . S
C3089 C3091 1.433 . S
C3090 C3086 1.350 . S
C3090 C3087 1.463 . S
C3090 N3094 1.427 . S
C3091 H3081 0.929 . S
C3091 C3089 1.433 . S
C3091 N3094 1.384 . S
C3092 H3083 0.929 . S
C3092 C3084 1.378 . S
C3092 C3087 1.350 . S
C3093 H3080 0.929 . S
C3093 C3085 1.433 . S
C3093 N3095 1.384 . S
N3094 C3090 1.427 . S
N3094 C3091 1.384 . S
N3095 C3087 1.427 . S
N3095 C3093 1.384 . S
H3096 C3102 0.930 . S
H3097 C3106 0.930 . S
H3098 C3111 0.929 . S
H3099 C3109 0.929 . S
H3100 C3104 0.929 . S
H3101 C3110 0.929 . S
C3102 H3096 0.930 . S
C3102 C3103 1.367 . S
C3102 C3110 1.378 . S
C3103 C3102 1.367 . S
C3103 C3111 1.433 . S
C3104 H3100 0.929 . S
C3104 C3106 1.378 . S
C3104 C3108 1.350 . S
C3105 C3108 1.463 . S
C3105 C3110 1.350 . S
C3105 N3113 1.427 . S
C3106 H3097 0.930 . S
C3106 C3104 1.378 . S
C3106 C3107 1.367 . S
C3107 C3106 1.367 . S
C3107 C3109 1.433 . S
C3108 C3104 1.350 . S
C3108 C3105 1.463 . S
C3108 N3112 1.427 . S
C3109 H3099 0.929 . S
C3109 C3107 1.433 . S
C3109 N3112 1.384 . S
C3110 H3101 0.929 . S
C3110 C3102 1.378 . S
C3110 C3105 1.350 . S
C3111 H3098 0.929 . S
C3111 C3103 1.433 . S
C3111 N3113 1.384 . S
N3112 C3108 1.427 . S
N3112 C3109 1.384 . S
N3113 C3105 1.427 . S
N3113 C3111 1.384 . S
H3114 C3120 0.930 . S
H3115 C3124 0.930 . S
H3116 C3129 0.929 . S
H3117 C3127 0.929 . S
H3118 C3122 0.929 . S
H3119 C3128 0.929 . S
C3120 H3114 0.930 . S
C3120 C3121 1.367 . S
C3120 C3128 1.378 . S
C3121 C3120 1.367 . S
C3121 C3129 1.433 . S
C3122 H3118 0.929 . S
C3122 C3124 1.378 . S
C3122 C3126 1.350 . S
C3123 C3126 1.463 . S
C3123 C3128 1.350 . S
C3123 N3131 1.427 . S
C3124 H3115 0.930 . S
C3124 C3122 1.378 . S
C3124 C3125 1.367 . S
C3125 C3124 1.367 . S
C3125 C3127 1.433 . S
C3126 C3122 1.350 . S
C3126 C3123 1.463 . S
C3126 N3130 1.427 . S
C3127 H3117 0.929 . S
C3127 C3125 1.433 . S
C3127 N3130 1.384 . S
C3128 H3119 0.929 . S
C3128 C3120 1.378 . S
C3128 C3123 1.350 . S
C3129 H3116 0.929 . S
C3129 C3121 1.433 . S
C3129 N3131 1.384 . S
N3130 C3126 1.427 . S
N3130 C3127 1.384 . S
N3131 C3123 1.427 . S
N3131 C3129 1.384 . S
H3132 C3138 0.930 . S
H3133 C3142 0.930 . S
H3134 C3147 0.929 . S
H3135 C3145 0.929 . S
H3136 C3140 0.929 . S
H3137 C3146 0.929 . S
C3138 H3132 0.930 . S
C3138 C3139 1.367 . S
C3138 C3146 1.378 . S
C3139 C3138 1.367 . S
C3139 C3147 1.433 . S
C3140 H3136 0.929 . S
C3140 C3142 1.378 . S
C3140 C3144 1.350 . S
C3141 C3144 1.463 . S
C3141 C3146 1.350 . S
C3141 N3149 1.427 . S
C3142 H3133 0.930 . S
C3142 C3140 1.378 . S
C3142 C3143 1.367 . S
C3143 C3142 1.367 . S
C3143 C3145 1.433 . S
C3144 C3140 1.350 . S
C3144 C3141 1.463 . S
C3144 N3148 1.427 . S
C3145 H3135 0.929 . S
C3145 C3143 1.433 . S
C3145 N3148 1.384 . S
C3146 H3137 0.929 . S
C3146 C3138 1.378 . S
C3146 C3141 1.350 . S
C3147 H3134 0.929 . S
C3147 C3139 1.433 . S
C3147 N3149 1.384 . S
N3148 C3144 1.427 . S
N3148 C3145 1.384 . S
N3149 C3141 1.427 . S
N3149 C3147 1.384 . S
H3150 C3156 0.930 . S
H3151 C3160 0.930 . S
H3152 C3165 0.929 . S
H3153 C3163 0.929 . S
H3154 C3158 0.929 . S
H3155 C3164 0.929 . S
C3156 H3150 0.930 . S
C3156 C3157 1.367 . S
C3156 C3164 1.378 . S
C3157 C3156 1.367 . S
C3157 C3165 1.433 . S
C3158 H3154 0.929 . S
C3158 C3160 1.378 . S
C3158 C3162 1.350 . S
C3159 C3162 1.463 . S
C3159 C3164 1.350 . S
C3159 N3167 1.427 . S
C3160 H3151 0.930 . S
C3160 C3158 1.378 . S
C3160 C3161 1.367 . S
C3161 C3160 1.367 . S
C3161 C3163 1.433 . S
C3162 C3158 1.350 . S
C3162 C3159 1.463 . S
C3162 N3166 1.427 . S
C3163 H3153 0.929 . S
C3163 C3161 1.433 . S
C3163 N3166 1.384 . S
C3164 H3155 0.929 . S
C3164 C3156 1.378 . S
C3164 C3159 1.350 . S
C3165 H3152 0.929 . S
C3165 C3157 1.433 . S
C3165 N3167 1.384 . S
N3166 C3162 1.427 . S
N3166 C3163 1.384 . S
N3167 C3159 1.427 . S
N3167 C3165 1.384 . S
H3168 C3174 0.930 . S
H3169 C3178 0.930 . S
H3170 C3183 0.929 . S
H3171 C3181 0.929 . S
H3172 C3176 0.929 . S
H3173 C3182 0.929 . S
C3174 H3168 0.930 . S
C3174 C3175 1.367 . S
C3174 C3182 1.378 . S
C3175 C3174 1.367 . S
C3175 C3183 1.433 . S
C3176 H3172 0.929 . S
C3176 C3178 1.378 . S
C3176 C3180 1.350 . S
C3177 C3180 1.463 . S
C3177 C3182 1.350 . S
C3177 N3185 1.427 . S
C3178 H3169 0.930 . S
C3178 C3176 1.378 . S
C3178 C3179 1.367 . S
C3179 C3178 1.367 . S
C3179 C3181 1.433 . S
C3180 C3176 1.350 . S
C3180 C3177 1.463 . S
C3180 N3184 1.427 . S
C3181 H3171 0.929 . S
C3181 C3179 1.433 . S
C3181 N3184 1.384 . S
C3182 H3173 0.929 . S
C3182 C3174 1.378 . S
C3182 C3177 1.350 . S
C3183 H3170 0.929 . S
C3183 C3175 1.433 . S
C3183 N3185 1.384 . S
N3184 C3180 1.427 . S
N3184 C3181 1.384 . S
N3185 C3177 1.427 . S
N3185 C3183 1.384 . S
H3186 C3192 0.930 . S
H3187 C3196 0.930 . S
H3188 C3201 0.929 . S
H3189 C3199 0.929 . S
H3190 C3194 0.929 . S
H3191 C3200 0.929 . S
C3192 H3186 0.930 . S
C3192 C3193 1.367 . S
C3192 C3200 1.378 . S
C3193 C3192 1.367 . S
C3193 C3201 1.433 . S
C3194 H3190 0.929 . S
C3194 C3196 1.378 . S
C3194 C3198 1.350 . S
C3195 C3198 1.463 . S
C3195 C3200 1.350 . S
C3195 N3203 1.427 . S
C3196 H3187 0.930 . S
C3196 C3194 1.378 . S
C3196 C3197 1.367 . S
C3197 C3196 1.367 . S
C3197 C3199 1.433 . S
C3198 C3194 1.350 . S
C3198 C3195 1.463 . S
C3198 N3202 1.427 . S
C3199 H3189 0.929 . S
C3199 C3197 1.433 . S
C3199 N3202 1.384 . S
C3200 H3191 0.929 . S
C3200 C3192 1.378 . S
C3200 C3195 1.350 . S
C3201 H3188 0.929 . S
C3201 C3193 1.433 . S
C3201 N3203 1.384 . S
N3202 C3198 1.427 . S
N3202 C3199 1.384 . S
N3203 C3195 1.427 . S
N3203 C3201 1.384 . S
H3204 C3210 0.930 . S
H3205 C3214 0.930 . S
H3206 C3219 0.929 . S
H3207 C3217 0.929 . S
H3208 C3212 0.929 . S
H3209 C3218 0.929 . S
C3210 H3204 0.930 . S
C3210 C3211 1.367 . S
C3210 C3218 1.378 . S
C3211 C3210 1.367 . S
C3211 C3219 1.433 . S
C3212 H3208 0.929 . S
C3212 C3214 1.378 . S
C3212 C3216 1.350 . S
C3213 C3216 1.463 . S
C3213 C3218 1.350 . S
C3213 N3221 1.427 . S
C3214 H3205 0.930 . S
C3214 C3212 1.378 . S
C3214 C3215 1.367 . S
C3215 C3214 1.367 . S
C3215 C3217 1.433 . S
C3216 C3212 1.350 . S
C3216 C3213 1.463 . S
C3216 N3220 1.427 . S
C3217 H3207 0.929 . S
C3217 C3215 1.433 . S
C3217 N3220 1.384 . S
C3218 H3209 0.929 . S
C3218 C3210 1.378 . S
C3218 C3213 1.350 . S
C3219 H3206 0.929 . S
C3219 C3211 1.433 . S
C3219 N3221 1.384 . S
N3220 C3216 1.427 . S
N3220 C3217 1.384 . S
N3221 C3213 1.427 . S
N3221 C3219 1.384 . S
H3222 C3228 0.930 . S
H3223 C3232 0.930 . S
H3224 C3237 0.929 . S
H3225 C3235 0.929 . S
H3226 C3230 0.929 . S
H3227 C3236 0.929 . S
C3228 H3222 0.930 . S
C3228 C3229 1.367 . S
C3228 C3236 1.378 . S
C3229 C3228 1.367 . S
C3229 C3237 1.433 . S
C3230 H3226 0.929 . S
C3230 C3232 1.378 . S
C3230 C3234 1.350 . S
C3231 C3234 1.463 . S
C3231 C3236 1.350 . S
C3231 N3239 1.427 . S
C3232 H3223 0.930 . S
C3232 C3230 1.378 . S
C3232 C3233 1.367 . S
C3233 C3232 1.367 . S
C3233 C3235 1.433 . S
C3234 C3230 1.350 . S
C3234 C3231 1.463 . S
C3234 N3238 1.427 . S
C3235 H3225 0.929 . S
C3235 C3233 1.433 . S
C3235 N3238 1.384 . S
C3236 H3227 0.929 . S
C3236 C3228 1.378 . S
C3236 C3231 1.350 . S
C3237 H3224 0.929 . S
C3237 C3229 1.433 . S
C3237 N3239 1.384 . S
N3238 C3234 1.427 . S
N3238 C3235 1.384 . S
N3239 C3231 1.427 . S
N3239 C3237 1.384 . S
H3240 C3246 0.930 . S
H3241 C3250 0.930 . S
H3242 C3255 0.929 . S
H3243 C3253 0.929 . S
H3244 C3248 0.929 . S
H3245 C3254 0.929 . S
C3246 H3240 0.930 . S
C3246 C3247 1.367 . S
C3246 C3254 1.378 . S
C3247 C3246 1.367 . S
C3247 C3255 1.433 . S
C3248 H3244 0.929 . S
C3248 C3250 1.378 . S
C3248 C3252 1.350 . S
C3249 C3252 1.463 . S
C3249 C3254 1.350 . S
C3249 N3257 1.427 . S
C3250 H3241 0.930 . S
C3250 C3248 1.378 . S
C3250 C3251 1.367 . S
C3251 C3250 1.367 . S
C3251 C3253 1.433 . S
C3252 C3248 1.350 . S
C3252 C3249 1.463 . S
C3252 N3256 1.427 . S
C3253 H3243 0.929 . S
C3253 C3251 1.433 . S
C3253 N3256 1.384 . S
C3254 H3245 0.929 . S
C3254 C3246 1.378 . S
C3254 C3249 1.350 . S
C3255 H3242 0.929 . S
C3255 C3247 1.433 . S
C3255 N3257 1.384 . S
N3256 C3252 1.427 . S
N3256 C3253 1.384 . S
N3257 C3249 1.427 . S
N3257 C3255 1.384 . S
H3258 C3264 0.930 . S
H3259 C3268 0.930 . S
H3260 C3273 0.929 . S
H3261 C3271 0.929 . S
H3262 C3266 0.929 . S
H3263 C3272 0.929 . S
C3264 H3258 0.930 . S
C3264 C3265 1.367 1_545 S
C3264 C3272 1.378 . S
C3265 C3264 1.367 1_565 S
C3265 C3273 1.433 . S
C3266 H3262 0.929 . S
C3266 C3268 1.378 . S
C3266 C3270 1.350 . S
C3267 C3270 1.463 . S
C3267 C3272 1.350 1_565 S
C3267 N3275 1.427 . S
C3268 H3259 0.930 . S
C3268 C3266 1.378 . S
C3268 C3269 1.367 . S
C3269 C3268 1.367 . S
C3269 C3271 1.433 1_565 S
C3270 C3266 1.350 . S
C3270 C3267 1.463 . S
C3270 N3274 1.427 1_565 S
C3271 H3261 0.929 . S
C3271 C3269 1.433 1_545 S
C3271 N3274 1.384 . S
C3272 H3263 0.929 . S
C3272 C3264 1.378 . S
C3272 C3267 1.350 1_545 S
C3273 H3260 0.929 . S
C3273 C3265 1.433 . S
C3273 N3275 1.384 . S
N3274 C3270 1.427 1_545 S
N3274 C3271 1.384 . S
N3275 C3267 1.427 . S
N3275 C3273 1.384 . S
H3276 C3282 0.930 . S
H3277 C3286 0.930 . S
H3278 C3291 0.929 . S
H3279 C3289 0.929 . S
H3280 C3284 0.929 . S
H3281 C3290 0.929 . S
C3282 H3276 0.930 . S
C3282 C3283 1.367 1_545 S
C3282 C3290 1.378 . S
C3283 C3282 1.367 1_565 S
C3283 C3291 1.433 . S
C3284 H3280 0.929 . S
C3284 C3286 1.378 . S
C3284 C3288 1.350 . S
C3285 C3288 1.463 . S
C3285 C3290 1.350 1_565 S
C3285 N3293 1.427 . S
C3286 H3277 0.930 . S
C3286 C3284 1.378 . S
C3286 C3287 1.367 . S
C3287 C3286 1.367 . S
C3287 C3289 1.433 1_565 S
C3288 C3284 1.350 . S
C3288 C3285 1.463 . S
C3288 N3292 1.427 1_565 S
C3289 H3279 0.929 . S
C3289 C3287 1.433 1_545 S
C3289 N3292 1.384 . S
C3290 H3281 0.929 . S
C3290 C3282 1.378 . S
C3290 C3285 1.350 1_545 S
C3291 H3278 0.929 . S
C3291 C3283 1.433 . S
C3291 N3293 1.384 . S
N3292 C3288 1.427 1_545 S
N3292 C3289 1.384 . S
N3293 C3285 1.427 . S
N3293 C3291 1.384 . S
H3294 C3300 0.930 . S
H3295 C3304 0.930 . S
H3296 C3309 0.929 . S
H3297 C3307 0.929 . S
H3298 C3302 0.929 . S
H3299 C3308 0.929 . S
C3300 H3294 0.930 . S
C3300 C3301 1.367 . S
C3300 C3308 1.378 . S
C3301 C3300 1.367 . S
C3301 C3309 1.433 1_455 S
C3302 H3298 0.929 . S
C3302 C3304 1.378 . S
C3302 C3306 1.350 1_655 S
C3303 C3306 1.463 . S
C3303 C3308 1.350 . S
C3303 N3311 1.427 1_455 S
C3304 H3295 0.930 . S
C3304 C3302 1.378 . S
C3304 C3305 1.364 1_655 S
C3305 C3304 1.364 1_455 S
C3305 C3307 1.434 . S
C3306 C3302 1.350 1_455 S
C3306 C3303 1.463 . S
C3306 N3310 1.427 . S
C3307 H3297 0.929 . S
C3307 C3305 1.434 . S
C3307 N3310 1.384 . S
C3308 H3299 0.929 . S
C3308 C3300 1.378 . S
C3308 C3303 1.350 . S
C3309 H3296 0.929 . S
C3309 C3301 1.433 1_655 S
C3309 N3311 1.384 . S
N3310 C3306 1.427 . S
N3310 C3307 1.384 . S
N3311 C3303 1.427 1_655 S
N3311 C3309 1.384 . S
H3312 C3318 0.930 . S
H3313 C3322 0.930 . S
H3314 C3327 0.929 . S
H3315 C3325 0.929 . S
H3316 C3320 0.929 . S
H3317 C3326 0.929 . S
C3318 H3312 0.930 . S
C3318 C3319 1.367 . S
C3318 C3326 1.378 . S
C3319 C3318 1.367 . S
C3319 C3327 1.433 . S
C3320 H3316 0.929 . S
C3320 C3322 1.378 . S
C3320 C3324 1.350 . S
C3321 C3324 1.463 . S
C3321 C3326 1.350 . S
C3321 N3329 1.427 . S
C3322 H3313 0.930 . S
C3322 C3320 1.378 . S
C3322 C3323 1.367 . S
C3323 C3322 1.367 . S
C3323 C3325 1.433 . S
C3324 C3320 1.350 . S
C3324 C3321 1.463 . S
C3324 N3328 1.427 . S
C3325 H3315 0.929 . S
C3325 C3323 1.433 . S
C3325 N3328 1.384 . S
C3326 H3317 0.929 . S
C3326 C3318 1.378 . S
C3326 C3321 1.350 . S
C3327 H3314 0.929 . S
C3327 C3319 1.433 . S
C3327 N3329 1.384 . S
N3328 C3324 1.427 . S
N3328 C3325 1.384 . S
N3329 C3321 1.427 . S
N3329 C3327 1.384 . S
H3330 C3336 0.930 . S
H3331 C3340 0.930 . S
H3332 C3345 0.929 . S
H3333 C3343 0.929 . S
H3334 C3338 0.929 . S
H3335 C3344 0.929 . S
C3336 H3330 0.930 . S
C3336 C3337 1.367 . S
C3336 C3344 1.378 . S
C3337 C3336 1.367 . S
C3337 C3345 1.433 . S
C3338 H3334 0.929 . S
C3338 C3340 1.378 . S
C3338 C3342 1.350 . S
C3339 C3342 1.463 . S
C3339 C3344 1.350 . S
C3339 N3347 1.427 . S
C3340 H3331 0.930 . S
C3340 C3338 1.378 . S
C3340 C3341 1.367 . S
C3341 C3340 1.367 . S
C3341 C3343 1.433 . S
C3342 C3338 1.350 . S
C3342 C3339 1.463 . S
C3342 N3346 1.427 . S
C3343 H3333 0.929 . S
C3343 C3341 1.433 . S
C3343 N3346 1.384 . S
C3344 H3335 0.929 . S
C3344 C3336 1.378 . S
C3344 C3339 1.350 . S
C3345 H3332 0.929 . S
C3345 C3337 1.433 . S
C3345 N3347 1.384 . S
N3346 C3342 1.427 . S
N3346 C3343 1.384 . S
N3347 C3339 1.427 . S
N3347 C3345 1.384 . S
H3348 C3354 0.930 . S
H3349 C3358 0.930 . S
H3350 C3363 0.929 . S
H3351 C3361 0.929 . S
H3352 C3356 0.929 . S
H3353 C3362 0.929 . S
C3354 H3348 0.930 . S
C3354 C3355 1.367 . S
C3354 C3362 1.378 . S
C3355 C3354 1.367 . S
C3355 C3363 1.433 . S
C3356 H3352 0.929 . S
C3356 C3358 1.378 . S
C3356 C3360 1.350 . S
C3357 C3360 1.463 . S
C3357 C3362 1.350 . S
C3357 N3365 1.427 . S
C3358 H3349 0.930 . S
C3358 C3356 1.378 . S
C3358 C3359 1.367 . S
C3359 C3358 1.367 . S
C3359 C3361 1.433 . S
C3360 C3356 1.350 . S
C3360 C3357 1.463 . S
C3360 N3364 1.427 . S
C3361 H3351 0.929 . S
C3361 C3359 1.433 . S
C3361 N3364 1.384 . S
C3362 H3353 0.929 . S
C3362 C3354 1.378 . S
C3362 C3357 1.350 . S
C3363 H3350 0.929 . S
C3363 C3355 1.433 . S
C3363 N3365 1.384 . S
N3364 C3360 1.427 . S
N3364 C3361 1.384 . S
N3365 C3357 1.427 . S
N3365 C3363 1.384 . S
H3366 C3372 0.930 . S
H3367 C3376 0.930 . S
H3368 C3381 0.929 . S
H3369 C3379 0.929 . S
H3370 C3374 0.929 . S
H3371 C3380 0.929 . S
C3372 H3366 0.930 . S
C3372 C3373 1.367 . S
C3372 C3380 1.378 . S
C3373 C3372 1.367 . S
C3373 C3381 1.433 . S
C3374 H3370 0.929 . S
C3374 C3376 1.378 . S
C3374 C3378 1.350 . S
C3375 C3378 1.463 . S
C3375 C3380 1.350 . S
C3375 N3383 1.427 . S
C3376 H3367 0.930 . S
C3376 C3374 1.378 . S
C3376 C3377 1.367 . S
C3377 C3376 1.367 . S
C3377 C3379 1.433 . S
C3378 C3374 1.350 . S
C3378 C3375 1.463 . S
C3378 N3382 1.427 . S
C3379 H3369 0.929 . S
C3379 C3377 1.433 . S
C3379 N3382 1.384 . S
C3380 H3371 0.929 . S
C3380 C3372 1.378 . S
C3380 C3375 1.350 . S
C3381 H3368 0.929 . S
C3381 C3373 1.433 . S
C3381 N3383 1.384 . S
N3382 C3378 1.427 . S
N3382 C3379 1.384 . S
N3383 C3375 1.427 . S
N3383 C3381 1.384 . S
H3384 C3390 0.931 1_565 S
H3385 C3394 0.930 . S
H3386 C3399 0.929 . S
H3387 C3397 0.929 . S
H3388 C3392 0.929 . S
H3389 C3398 0.936 . S
C3390 H3384 0.931 1_545 S
C3390 C3391 1.366 . S
C3390 C3398 1.374 1_545 S
C3391 C3390 1.366 . S
C3391 C3399 1.433 . S
C3392 H3388 0.929 . S
C3392 C3394 1.378 . S
C3392 C3396 1.350 . S
C3393 C3396 1.463 . S
C3393 C3398 1.346 1_545 S
C3393 N3401 1.427 . S
C3394 H3385 0.930 . S
C3394 C3392 1.378 . S
C3394 C3395 1.367 . S
C3395 C3394 1.367 . S
C3395 C3397 1.433 1_545 S
C3396 C3392 1.350 . S
C3396 C3393 1.463 . S
C3396 N3400 1.373 1_545 S
C3397 H3387 0.929 . S
C3397 C3395 1.433 1_565 S
C3397 N3400 1.413 . S
C3398 H3389 0.936 . S
C3398 C3390 1.374 1_565 S
C3398 C3393 1.346 1_565 S
C3399 H3386 0.929 . S
C3399 C3391 1.433 . S
C3399 N3401 1.384 . S
N3400 C3396 1.373 1_565 S
N3400 C3397 1.413 . S
N3401 C3393 1.427 . S
N3401 C3399 1.384 . S
H3402 C3408 0.967 . S
H3403 C3412 0.930 . S
H3404 C3417 0.929 . S
H3405 C3415 0.929 . S
H3406 C3410 0.929 . S
H3407 C3416 0.951 . S
C3408 H3402 0.967 . S
C3408 C3409 1.349 1_455 S
C3408 C3416 1.381 . S
C3409 C3408 1.349 1_655 S
C3409 C3417 1.433 . S
C3410 H3406 0.929 . S
C3410 C3412 1.378 . S
C3410 C3414 1.350 . S
C3411 C3414 1.463 . S
C3411 C3416 1.308 1_655 S
C3411 N3419 1.427 . S
C3412 H3403 0.930 . S
C3412 C3410 1.378 . S
C3412 C3413 1.367 . S
C3413 C3412 1.367 . S
C3413 C3415 1.433 1_655 S
C3414 C3410 1.350 . S
C3414 C3411 1.463 . S
C3414 N3418 1.398 1_655 S
C3415 H3405 0.929 . S
C3415 C3413 1.433 1_455 S
C3415 N3418 1.357 . S
C3416 H3407 0.951 . S
C3416 C3408 1.381 . S
C3416 C3411 1.308 1_455 S
C3417 H3404 0.929 . S
C3417 C3409 1.433 . S
C3417 N3419 1.384 . S
N3418 C3414 1.398 1_455 S
N3418 C3415 1.357 . S
N3419 C3411 1.427 . S
N3419 C3417 1.384 . S
H3420 C3426 0.930 . S
H3421 C3430 0.930 . S
H3422 C3435 0.929 . S
H3423 C3433 0.929 . S
H3424 C3428 0.929 . S
H3425 C3434 0.929 . S
C3426 H3420 0.930 . S
C3426 C3427 1.367 . S
C3426 C3434 1.378 . S
C3427 C3426 1.367 . S
C3427 C3435 1.433 . S
C3428 H3424 0.929 . S
C3428 C3430 1.378 . S
C3428 C3432 1.350 . S
C3429 C3432 1.463 . S
C3429 C3434 1.350 . S
C3429 N3437 1.427 . S
C3430 H3421 0.930 . S
C3430 C3428 1.378 . S
C3430 C3431 1.367 . S
C3431 C3430 1.367 . S
C3431 C3433 1.433 . S
C3432 C3428 1.350 . S
C3432 C3429 1.463 . S
C3432 N3436 1.427 . S
C3433 H3423 0.929 . S
C3433 C3431 1.433 . S
C3433 N3436 1.384 . S
C3434 H3425 0.929 . S
C3434 C3426 1.378 . S
C3434 C3429 1.350 . S
C3435 H3422 0.929 . S
C3435 C3427 1.433 . S
C3435 N3437 1.384 . S
N3436 C3432 1.427 . S
N3436 C3433 1.384 . S
N3437 C3429 1.427 . S
N3437 C3435 1.384 . S
H3438 C3444 0.930 . S
H3439 C3448 0.930 . S
H3440 C3453 0.929 . S
H3441 C3451 0.929 . S
H3442 C3446 0.929 . S
H3443 C3452 0.929 . S
C3444 H3438 0.930 . S
C3444 C3445 1.367 . S
C3444 C3452 1.378 . S
C3445 C3444 1.367 . S
C3445 C3453 1.433 . S
C3446 H3442 0.929 . S
C3446 C3448 1.378 . S
C3446 C3450 1.350 . S
C3447 C3450 1.463 . S
C3447 C3452 1.350 . S
C3447 N3455 1.427 . S
C3448 H3439 0.930 . S
C3448 C3446 1.378 . S
C3448 C3449 1.367 . S
C3449 C3448 1.367 . S
C3449 C3451 1.433 . S
C3450 C3446 1.350 . S
C3450 C3447 1.463 . S
C3450 N3454 1.427 . S
C3451 H3441 0.929 . S
C3451 C3449 1.433 . S
C3451 N3454 1.384 . S
C3452 H3443 0.929 . S
C3452 C3444 1.378 . S
C3452 C3447 1.350 . S
C3453 H3440 0.929 . S
C3453 C3445 1.433 . S
C3453 N3455 1.384 . S
N3454 C3450 1.427 . S
N3454 C3451 1.384 . S
N3455 C3447 1.427 . S
N3455 C3453 1.384 . S
H3456 C3462 0.930 . S
H3457 C3466 0.930 . S
H3458 C3471 0.929 . S
H3459 C3469 0.929 . S
H3460 C3464 0.929 . S
H3461 C3470 0.929 . S
C3462 H3456 0.930 . S
C3462 C3463 1.367 . S
C3462 C3470 1.378 . S
C3463 C3462 1.367 . S
C3463 C3471 1.433 . S
C3464 H3460 0.929 . S
C3464 C3466 1.378 . S
C3464 C3468 1.350 . S
C3465 C3468 1.463 . S
C3465 C3470 1.350 . S
C3465 N3473 1.427 . S
C3466 H3457 0.930 . S
C3466 C3464 1.378 . S
C3466 C3467 1.367 . S
C3467 C3466 1.367 . S
C3467 C3469 1.433 . S
C3468 C3464 1.350 . S
C3468 C3465 1.463 . S
C3468 N3472 1.427 . S
C3469 H3459 0.929 . S
C3469 C3467 1.433 . S
C3469 N3472 1.384 . S
C3470 H3461 0.929 . S
C3470 C3462 1.378 . S
C3470 C3465 1.350 . S
C3471 H3458 0.929 . S
C3471 C3463 1.433 . S
C3471 N3473 1.384 . S
N3472 C3468 1.427 . S
N3472 C3469 1.384 . S
N3473 C3465 1.427 . S
N3473 C3471 1.384 . S
H3474 C3480 0.930 . S
H3475 C3484 0.930 . S
H3476 C3489 0.929 . S
H3477 C3487 0.929 . S
H3478 C3482 0.929 . S
H3479 C3488 0.929 . S
C3480 H3474 0.930 . S
C3480 C3481 1.367 . S
C3480 C3488 1.378 . S
C3481 C3480 1.367 . S
C3481 C3489 1.433 . S
C3482 H3478 0.929 . S
C3482 C3484 1.378 . S
C3482 C3486 1.350 . S
C3483 C3486 1.463 . S
C3483 C3488 1.350 . S
C3483 N3491 1.427 . S
C3484 H3475 0.930 . S
C3484 C3482 1.378 . S
C3484 C3485 1.367 . S
C3485 C3484 1.367 . S
C3485 C3487 1.433 . S
C3486 C3482 1.350 . S
C3486 C3483 1.463 . S
C3486 N3490 1.427 . S
C3487 H3477 0.929 . S
C3487 C3485 1.433 . S
C3487 N3490 1.384 . S
C3488 H3479 0.929 . S
C3488 C3480 1.378 . S
C3488 C3483 1.350 . S
C3489 H3476 0.929 . S
C3489 C3481 1.433 . S
C3489 N3491 1.384 . S
N3490 C3486 1.427 . S
N3490 C3487 1.384 . S
N3491 C3483 1.427 . S
N3491 C3489 1.384 . S
H3492 C3498 0.930 . S
H3493 C3502 0.930 . S
H3494 C3507 0.929 . S
H3495 C3505 0.929 . S
H3496 C3500 0.929 . S
H3497 C3506 0.929 . S
C3498 H3492 0.930 . S
C3498 C3499 1.367 . S
C3498 C3506 1.378 . S
C3499 C3498 1.367 . S
C3499 C3507 1.433 . S
C3500 H3496 0.929 . S
C3500 C3502 1.378 . S
C3500 C3504 1.350 . S
C3501 C3504 1.463 . S
C3501 C3506 1.350 . S
C3501 N3509 1.427 . S
C3502 H3493 0.930 . S
C3502 C3500 1.378 . S
C3502 C3503 1.367 . S
C3503 C3502 1.367 . S
C3503 C3505 1.433 . S
C3504 C3500 1.350 . S
C3504 C3501 1.463 . S
C3504 N3508 1.427 . S
C3505 H3495 0.929 . S
C3505 C3503 1.433 . S
C3505 N3508 1.384 . S
C3506 H3497 0.929 . S
C3506 C3498 1.378 . S
C3506 C3501 1.350 . S
C3507 H3494 0.929 . S
C3507 C3499 1.433 . S
C3507 N3509 1.384 . S
N3508 C3504 1.427 . S
N3508 C3505 1.384 . S
N3509 C3501 1.427 . S
N3509 C3507 1.384 . S
H3510 C3516 0.930 . S
H3511 C3520 0.930 . S
H3512 C3525 0.929 . S
H3513 C3523 0.929 . S
H3514 C3518 0.929 . S
H3515 C3524 0.929 . S
C3516 H3510 0.930 . S
C3516 C3517 1.367 . S
C3516 C3524 1.378 . S
C3517 C3516 1.367 . S
C3517 C3525 1.433 . S
C3518 H3514 0.929 . S
C3518 C3520 1.378 . S
C3518 C3522 1.350 . S
C3519 C3522 1.463 . S
C3519 C3524 1.350 . S
C3519 N3527 1.427 . S
C3520 H3511 0.930 . S
C3520 C3518 1.378 . S
C3520 C3521 1.367 . S
C3521 C3520 1.367 . S
C3521 C3523 1.433 . S
C3522 C3518 1.350 . S
C3522 C3519 1.463 . S
C3522 N3526 1.427 . S
C3523 H3513 0.929 . S
C3523 C3521 1.433 . S
C3523 N3526 1.384 . S
C3524 H3515 0.929 . S
C3524 C3516 1.378 . S
C3524 C3519 1.350 . S
C3525 H3512 0.929 . S
C3525 C3517 1.433 . S
C3525 N3527 1.384 . S
N3526 C3522 1.427 . S
N3526 C3523 1.384 . S
N3527 C3519 1.427 . S
N3527 C3525 1.384 . S
H3528 C3534 0.930 . S
H3529 C3538 0.930 . S
H3530 C3543 0.929 . S
H3531 C3541 0.929 . S
H3532 C3536 0.929 . S
H3533 C3542 0.929 . S
C3534 H3528 0.930 . S
C3534 C3535 1.367 . S
C3534 C3542 1.378 . S
C3535 C3534 1.367 . S
C3535 C3543 1.433 . S
C3536 H3532 0.929 . S
C3536 C3538 1.378 . S
C3536 C3540 1.350 . S
C3537 C3540 1.463 . S
C3537 C3542 1.350 . S
C3537 N3545 1.427 . S
C3538 H3529 0.930 . S
C3538 C3536 1.378 . S
C3538 C3539 1.367 . S
C3539 C3538 1.367 . S
C3539 C3541 1.433 . S
C3540 C3536 1.350 . S
C3540 C3537 1.463 . S
C3540 N3544 1.427 . S
C3541 H3531 0.929 . S
C3541 C3539 1.433 . S
C3541 N3544 1.384 . S
C3542 H3533 0.929 . S
C3542 C3534 1.378 . S
C3542 C3537 1.350 . S
C3543 H3530 0.929 . S
C3543 C3535 1.433 . S
C3543 N3545 1.384 . S
N3544 C3540 1.427 . S
N3544 C3541 1.384 . S
N3545 C3537 1.427 . S
N3545 C3543 1.384 . S
H3546 C3552 0.930 . S
H3547 C3556 0.930 . S
H3548 C3561 0.929 . S
H3549 C3559 0.929 . S
H3550 C3554 0.929 . S
H3551 C3560 0.929 . S
C3552 H3546 0.930 . S
C3552 C3553 1.367 1_455 S
C3552 C3560 1.378 . S
C3553 C3552 1.367 1_655 S
C3553 C3561 1.433 . S
C3554 H3550 0.929 . S
C3554 C3556 1.378 . S
C3554 C3558 1.350 . S
C3555 C3558 1.463 . S
C3555 C3560 1.350 1_655 S
C3555 N3563 1.427 . S
C3556 H3547 0.930 . S
C3556 C3554 1.378 . S
C3556 C3557 1.367 . S
C3557 C3556 1.367 . S
C3557 C3559 1.433 1_655 S
C3558 C3554 1.350 . S
C3558 C3555 1.463 . S
C3558 N3562 1.427 1_655 S
C3559 H3549 0.929 . S
C3559 C3557 1.433 1_455 S
C3559 N3562 1.384 . S
C3560 H3551 0.929 . S
C3560 C3552 1.378 . S
C3560 C3555 1.350 1_455 S
C3561 H3548 0.929 . S
C3561 C3553 1.433 . S
C3561 N3563 1.384 . S
N3562 C3558 1.427 1_455 S
N3562 C3559 1.384 . S
N3563 C3555 1.427 . S
N3563 C3561 1.384 . S
H3564 C3570 0.930 . S
H3565 C3574 0.930 . S
H3566 C3579 0.929 . S
H3567 C3577 0.929 . S
H3568 C3572 0.929 . S
H3569 C3578 0.929 . S
C3570 H3564 0.930 . S
C3570 C3571 1.367 . S
C3570 C3578 1.378 . S
C3571 C3570 1.367 . S
C3571 C3579 1.433 . S
C3572 H3568 0.929 . S
C3572 C3574 1.378 . S
C3572 C3576 1.350 . S
C3573 C3576 1.463 . S
C3573 C3578 1.350 . S
C3573 N3581 1.427 . S
C3574 H3565 0.930 . S
C3574 C3572 1.378 . S
C3574 C3575 1.367 . S
C3575 C3574 1.367 . S
C3575 C3577 1.433 . S
C3576 C3572 1.350 . S
C3576 C3573 1.463 . S
C3576 N3580 1.427 . S
C3577 H3567 0.929 . S
C3577 C3575 1.433 . S
C3577 N3580 1.384 . S
C3578 H3569 0.929 . S
C3578 C3570 1.378 . S
C3578 C3573 1.350 . S
C3579 H3566 0.929 . S
C3579 C3571 1.433 . S
C3579 N3581 1.384 . S
N3580 C3576 1.427 . S
N3580 C3577 1.384 . S
N3581 C3573 1.427 . S
N3581 C3579 1.384 . S
H3582 C3588 0.930 . S
H3583 C3592 0.918 . S
H3584 C3597 0.929 . S
H3585 C3595 0.929 . S
H3586 C3590 0.933 1_565 S
H3587 C3596 0.929 . S
C3588 H3582 0.930 . S
C3588 C3589 1.367 . S
C3588 C3596 1.378 . S
C3589 C3588 1.367 . S
C3589 C3597 1.433 . S
C3590 H3586 0.933 1_545 S
C3590 C3592 1.421 1_545 S
C3590 C3594 1.328 . S
C3591 C3594 1.463 . S
C3591 C3596 1.350 . S
C3591 N3599 1.427 . S
C3592 H3583 0.918 . S
C3592 C3590 1.421 1_565 S
C3592 C3593 1.368 1_565 S
C3593 C3592 1.368 1_545 S
C3593 C3595 1.433 . S
C3594 C3590 1.328 . S
C3594 C3591 1.463 . S
C3594 N3598 1.427 . S
C3595 H3585 0.929 . S
C3595 C3593 1.433 . S
C3595 N3598 1.384 . S
C3596 H3587 0.929 . S
C3596 C3588 1.378 . S
C3596 C3591 1.350 . S
C3597 H3584 0.929 . S
C3597 C3589 1.433 . S
C3597 N3599 1.384 . S
N3598 C3594 1.427 . S
N3598 C3595 1.384 . S
N3599 C3591 1.427 . S
N3599 C3597 1.384 . S
C2311 C8 1.311 1_655 S
C2315 C1307 1.074 1_655 S
C2329 C22 1.700 . S
C2333 C1447 1.074 . S
C2351 C1535 1.178 . S
C2347 C37 1.392 . S
C2365 C36 1.458 1_565 S
C2369 C1675 1.059 1_565 S
C2383 C9 1.401 . S
C2387 C1789 1.016 1_455 S
C2401 C23 1.716 . S
C2405 C1877 1.253 . S
C2419 C50 1.289 1_455 S
C2423 C1763 1.116 . S
C2441 C1903 1.339 . S
C2437 C64 1.605 . S
C2459 C1649 1.172 . S
C2455 C79 1.397 1_565 S
C2473 C78 1.419 1_545 S
C2477 C1561 1.065 . S
C2495 C1333 1.061 . S
C2491 C51 1.408 1_655 S
C2509 C65 1.617 . S
C2513 C1421 1.420 . S
C2527 C92 1.753 . S
C2531 C1991 1.273 . S
C2545 C106 1.791 . S
C2549 C2131 1.146 . S
C2567 C2219 1.270 . S
C2563 C121 1.730 . S
C2581 C120 1.736 . S
C2585 C307 1.139 . S
C2599 C93 1.747 . S
C2603 C421 1.144 . S
C2617 C107 1.767 . S
C2621 C509 1.299 . S
C2635 C134 1.518 . S
C2639 C395 1.349 . S
C2653 C148 1.659 . S
C2657 C535 1.387 . S
C2675 C281 1.442 . S
C2671 C163 1.634 . S
C2693 C2245 1.506 . S
C2689 C162 1.787 . S
C2711 C2017 1.365 . S
C2707 C135 1.653 . S
C2729 C2105 1.520 . S
C2725 C149 1.708 . S
C2743 C176 1.619 . S
C2747 C623 1.181 . S
C2761 C190 1.755 . S
C2765 C763 1.138 . S
C2779 C205 1.729 . S
C2783 C851 1.267 . S
C2797 C204 1.869 . S
C2801 C991 1.256 . S
C2819 C1105 1.140 . S
C2815 C177 1.752 . S
C2837 C1193 1.345 . S
C2833 C191 1.806 . S
C2855 C1079 1.476 . S
C2851 C218 1.661 . S
C2873 C1219 1.412 . S
C2869 C232 1.694 . S
C2887 C247 1.624 . S
C2891 C965 1.444 . S
C2909 C877 1.374 . S
C2905 C246 1.643 . S
C2923 C219 1.654 . S
C2927 C649 1.386 . S
C2945 C737 1.504 . S
C2941 C233 1.663 . S
C2963 C263 0.939 . S
C2959 C6 1.754 . S
C2977 C20 1.552 . S
C2981 C377 0.889 . S
C2999 C481 1.187 . S
C2995 C35 1.651 . S
C3017 C595 1.140 . S
C3013 C34 1.568 . S
C3035 C719 0.954 . S
C3031 C7 1.702 . S
C3053 C823 1.145 . S
C3049 C21 1.566 . S
C3067 C48 1.845 . S
C3071 C833 1.312 . S
C3085 C62 1.641 . S
C3089 C605 1.177 . S
C3103 C77 1.748 . S
C3107 C709 1.490 . S
C3121 C76 1.664 . S
C3125 C367 1.436 . S
C3143 C491 1.318 . S
C3139 C49 1.796 . S
C3157 C63 1.655 . S
C3161 C253 1.411 . S
C3179 C947 0.976 . S
C3175 C90 1.677 . S
C3193 C104 1.688 . S
C3197 C1061 0.976 . S
C3211 C119 1.651 . S
C3215 C1165 1.273 . S
C3233 C1279 1.061 . S
C3229 C118 1.300 . S
C3247 C91 1.630 . S
C3251 C1403 0.906 . S
C3265 C105 1.406 . S
C3269 C1507 1.126 . S
C3283 C132 1.511 . S
C3287 C1517 0.961 1_565 S
C3301 C146 1.417 . S
C3305 C1289 0.910 1_455 S
C3323 C1393 1.410 . S
C3319 C161 1.676 . S
C3337 C160 1.601 . S
C3341 C1051 1.400 . S
C3355 C133 1.781 . S
C3359 C1175 1.308 . S
C3377 C937 1.532 . S
C3373 C147 1.772 . S
C3395 C1631 0.966 . S
C3391 C174 1.497 . S
C3409 C188 1.405 . S
C3413 C1745 0.901 . S
C3427 C203 1.588 . S
C3431 C1849 1.173 . S
C3449 C1963 1.157 . S
C3445 C202 1.503 . S
C3467 C2087 0.988 . S
C3463 C175 1.702 . S
C3481 C189 1.689 . S
C3485 C2191 1.280 . S
C3499 C216 1.768 . S
C3503 C2201 1.272 . S
C3517 C230 1.766 . S
C3521 C1973 1.311 . S
C3539 C2077 1.496 . S
C3535 C245 1.734 . S
C3557 C1735 1.102 1_655 S
C3553 C244 1.304 . S
C3575 C1859 1.235 . S
C3571 C217 1.715 . S
C3589 C231 1.420 . S
C3593 C1621 1.139 1_545 S
