# Generated by pormake.
# Topology ssa, (4,4)-cn, num edge types: 1
# Building blocks:
#     Node 0, Type 0, BuildingBlock: NAWXER_clean_sbu_0, # of connection points: 4
#     Node 1, Type 0, BuildingBlock: NAWXER_clean_sbu_0, # of connection points: 4
#     Node 2, Type 0, BuildingBlock: NAWXER_clean_sbu_0, # of connection points: 4
#     Node 3, Type 0, BuildingBlock: NAWXER_clean_sbu_0, # of connection points: 4
#     Node 4, Type 0, BuildingBlock: NAWXER_clean_sbu_0, # of connection points: 4
#     Node 5, Type 0, BuildingBlock: NAWXER_clean_sbu_0, # of connection points: 4
#     Node 6, Type 1, BuildingBlock: MUDLON_clean_linker_0, # of connection points: 4
#     Node 7, Type 1, BuildingBlock: MUDLON_clean_linker_0, # of connection points: 4
#     Node 8, Type 1, BuildingBlock: MUDLON_clean_linker_0, # of connection points: 4
#     Node 9, Type 1, BuildingBlock: MUDLON_clean_linker_0, # of connection points: 4
#     Node 10, Type 1, BuildingBlock: MUDLON_clean_linker_0, # of connection points: 4
#     Node 11, Type 1, BuildingBlock: MUDLON_clean_linker_0, # of connection points: 4
#     Edge 12, Type (0, 1), BuildingBlock: XIVTED_clean_linker_0, # of connection points: 2
#     Edge 13, Type (0, 1), BuildingBlock: XIVTED_clean_linker_0, # of connection points: 2
#     Edge 14, Type (0, 1), BuildingBlock: XIVTED_clean_linker_0, # of connection points: 2
#     Edge 15, Type (0, 1), BuildingBlock: XIVTED_clean_linker_0, # of connection points: 2
#     Edge 16, Type (0, 1), BuildingBlock: XIVTED_clean_linker_0, # of connection points: 2
#     Edge 17, Type (0, 1), BuildingBlock: XIVTED_clean_linker_0, # of connection points: 2
#     Edge 18, Type (0, 1), BuildingBlock: XIVTED_clean_linker_0, # of connection points: 2
#     Edge 19, Type (0, 1), BuildingBlock: XIVTED_clean_linker_0, # of connection points: 2
#     Edge 20, Type (0, 1), BuildingBlock: XIVTED_clean_linker_0, # of connection points: 2
#     Edge 21, Type (0, 1), BuildingBlock: XIVTED_clean_linker_0, # of connection points: 2
#     Edge 22, Type (0, 1), BuildingBlock: XIVTED_clean_linker_0, # of connection points: 2
#     Edge 23, Type (0, 1), BuildingBlock: XIVTED_clean_linker_0, # of connection points: 2
#     Edge 24, Type (0, 1), BuildingBlock: XIVTED_clean_linker_0, # of connection points: 2
#     Edge 25, Type (0, 1), BuildingBlock: XIVTED_clean_linker_0, # of connection points: 2
#     Edge 26, Type (0, 1), BuildingBlock: XIVTED_clean_linker_0, # of connection points: 2
#     Edge 27, Type (0, 1), BuildingBlock: XIVTED_clean_linker_0, # of connection points: 2
#     Edge 28, Type (0, 1), BuildingBlock: XIVTED_clean_linker_0, # of connection points: 2
#     Edge 29, Type (0, 1), BuildingBlock: XIVTED_clean_linker_0, # of connection points: 2
#     Edge 30, Type (0, 1), BuildingBlock: XIVTED_clean_linker_0, # of connection points: 2
#     Edge 31, Type (0, 1), BuildingBlock: XIVTED_clean_linker_0, # of connection points: 2
#     Edge 32, Type (0, 1), BuildingBlock: XIVTED_clean_linker_0, # of connection points: 2
#     Edge 33, Type (0, 1), BuildingBlock: XIVTED_clean_linker_0, # of connection points: 2
#     Edge 34, Type (0, 1), BuildingBlock: XIVTED_clean_linker_0, # of connection points: 2
#     Edge 35, Type (0, 1), BuildingBlock: XIVTED_clean_linker_0, # of connection points: 2
# Relax obj value: 0.010
# Max RMSD: 0.048
# Mean RMSD: 0.034
data_MOF--net-ssa--node1-NAWXER_clean_sbu_0--node2-MUDLON_clean_linker_0--edge1-XIVTED_clean_linker_0
_symmetry_space_group_name_H-M    P1
_symmetry_Int_Tables_number       1
_symmetry_cell_setting            triclinic
loop_
_symmetry_equiv_pos_as_xyz
'x, y, z'
_cell_length_a     68.738383
_cell_length_b     68.819888
_cell_length_c     37.810117
_cell_angle_alpha  90.074804
_cell_angle_beta   89.851551
_cell_angle_gamma 120.06226
loop_
_atom_site_label
_atom_site_type_symbol
_atom_site_fract_x
_atom_site_fract_y
_atom_site_fract_z
_atom_type_partial_charge
C0 C 0.04803 0.5668 0.07731 0.0
C1 C 0.0082 0.49306 0.02132 0.0
O2 O 0.02965 0.54986 0.08704 0.0
Zn3 Zn 0.02718 0.53011 0.04876 0.0
O4 O 0.05739 0.56596 0.04842 0.0
Zn5 Zn 0.05086 0.54223 0.0067 0.0
O6 O 0.04564 0.55595 0.96592 0.0
O7 O 0.01792 0.54323 0.0047 0.0
O8 O 0.02519 0.50742 0.00328 0.0
O9 O 0.00311 0.49913 0.04999 0.0
O10 O 0.05672 0.52702 0.05595 0.0
O11 O 0.07759 0.53975 0.00764 0.0
C12 C 0.02644 0.55269 0.97502 0.0
C13 C 0.0744 0.53119 0.03837 0.0
C14 C 0.54674 0.04321 0.51166 0.0
C15 C 0.57788 0.99889 0.46383 0.0
O16 O 0.54238 0.0263 0.53124 0.0
Zn17 Zn 0.55052 0.99986 0.53233 0.0
O18 O 0.55911 0.04742 0.48448 0.0
Zn19 Zn 0.56357 0.02195 0.48917 0.0
O20 O 0.52961 0.99339 0.4828 0.0
O21 O 0.52091 0.97423 0.53292 0.0
O22 O 0.58001 0.01718 0.4523 0.0
O23 O 0.56739 0.99071 0.49305 0.0
O24 O 0.56814 0.0056 0.57451 0.0
O25 O 0.58575 0.03158 0.53395 0.0
C26 C 0.51553 0.97679 0.50188 0.0
C27 C 0.58529 0.02378 0.56491 0.0
C28 C 0.49797 0.45365 0.95984 0.0
C29 C 0.53165 0.52703 0.0168 0.0
O30 O 0.4978 0.47112 0.94949 0.0
Zn31 Zn 0.51389 0.49009 0.98869 0.0
O32 O 0.50723 0.45397 0.98947 0.0
Zn33 Zn 0.52466 0.47789 0.03138 0.0
O34 O 0.50551 0.46497 0.07221 0.0
O35 O 0.49012 0.47563 0.0311 0.0
O36 O 0.53408 0.51261 0.03477 0.0
O37 O 0.52067 0.52105 0.98803 0.0
O38 O 0.54653 0.49311 0.98269 0.0
O39 O 0.5538 0.48012 0.03133 0.0
C40 C 0.48903 0.46681 0.0614 0.0
C41 C 0.55971 0.48882 0.00077 0.0
C42 C 0.05694 0.52728 0.52382 0.0
C43 C 0.01428 0.45637 0.58675 0.0
O44 O 0.06104 0.52215 0.55406 0.0
Zn45 Zn 0.03568 0.49189 0.55556 0.0
O46 O 0.03947 0.51298 0.50676 0.0
Zn47 Zn 0.0118 0.47943 0.51411 0.0
O48 O 0.98611 0.48392 0.51497 0.0
O49 O 0.00773 0.49726 0.5621 0.0
O50 O 0.00511 0.45637 0.55721 0.0
O51 O 0.03245 0.47369 0.59606 0.0
O52 O 0.04284 0.47536 0.51321 0.0
O53 O 0.01528 0.46388 0.47445 0.0
C54 C 0.99015 0.49356 0.54491 0.0
C55 C 0.03376 0.46551 0.48398 0.0
C56 C 0.49969 0.97056 0.03106 0.0
C57 C 0.48105 0.02024 0.96669 0.0
O58 O 0.5046 0.98841 0.04867 0.0
Zn59 Zn 0.50248 0.0185 0.04115 0.0
O60 O 0.49083 0.96763 0.00065 0.0
Zn61 Zn 0.48993 0.9951 -0.00057 0.0
O62 O 0.52532 0.01966 0.9965 0.0
O63 O 0.53353 0.04195 0.04284 0.0
O64 O 0.47767 0.001 0.95779 0.0
O65 O 0.49006 0.0285 0.99671 0.0
O66 O 0.48334 0.01701 0.07932 0.0
O67 O 0.46572 0.99001 0.04014 0.0
C68 C 0.53974 0.03648 0.01472 0.0
C69 C 0.46552 0.99966 0.0691 0.0
C70 C 0.57685 0.55053 0.55379 0.0
C71 C 0.50435 0.52053 0.4944 0.0
O72 O 0.55988 0.55174 0.56406 0.0
Zn73 Zn 0.54059 0.53661 0.52388 0.0
O74 O 0.57607 0.5411 0.52417 0.0
Zn75 Zn 0.5529 0.52491 0.48208 0.0
O76 O 0.56756 0.54394 0.44189 0.0
O77 O 0.55613 0.55985 0.48106 0.0
O78 O 0.51862 0.5173 0.47726 0.0
O79 O 0.5102 0.53165 0.52313 0.0
O80 O 0.53394 0.50257 0.52879 0.0
O81 O 0.54922 0.49518 0.48299 0.0
C82 C 0.56569 0.56062 0.4515 0.0
C83 C 0.53796 0.48886 0.51159 0.0
H84 H 0.32747 0.46733 0.32659 0.0
N85 N 0.30967 0.42602 0.2944 0.0
H86 H 0.3549 0.48039 0.37422 0.0
H87 H 0.31625 0.40025 0.33898 0.0
H88 H 0.34272 0.41286 0.38827 0.0
H89 H 0.3092 0.39532 0.251 0.0
H90 H 0.33821 0.40061 0.20767 0.0
H91 H 0.34528 0.46639 0.2729 0.0
H92 H 0.37428 0.47156 0.23073 0.0
H93 H 0.3097 0.46388 0.27107 0.0
H94 H 0.26697 0.39475 0.30145 0.0
H95 H 0.27661 0.46691 0.25727 0.0
H96 H 0.23371 0.39764 0.28777 0.0
H97 H 0.17872 0.47125 0.27914 0.0
H98 H 0.15375 0.47094 0.32483 0.0
H99 H 0.11116 0.39927 0.31186 0.0
H100 H 0.13644 0.39979 0.26543 0.0
H101 H 0.14407 0.41853 0.18516 0.0
H102 H 0.13622 0.43944 0.1406 0.0
H103 H 0.19087 0.50152 0.18112 0.0
H104 H 0.19885 0.48054 0.22506 0.0
H105 H 0.20996 0.46773 0.27369 0.0
H106 H 0.24377 0.46615 0.28719 0.0
H107 H 0.2157 0.40207 0.2342 0.0
N108 N 0.17246 0.43539 0.2388 0.0
H109 H 0.18173 0.40375 0.22081 0.0
C110 C 0.32025 0.43283 0.32855 0.0
C111 C 0.33028 0.4552 0.34034 0.0
C112 C 0.34592 0.46266 0.36792 0.0
C113 C 0.35151 0.4478 0.38444 0.0
C114 C 0.33933 0.4249 0.37538 0.0
C115 C 0.324 0.41758 0.34751 0.0
C116 C 0.32505 0.43029 0.26549 0.0
C117 C 0.32311 0.41205 0.24604 0.0
C118 C 0.33965 0.41509 0.22144 0.0
C119 C 0.35857 0.43644 0.21635 0.0
C120 C 0.35999 0.45488 0.23459 0.0
C121 C 0.3433 0.4519 0.25868 0.0
C122 C 0.29075 0.429 0.28743 0.0
C123 C 0.29323 0.4494 0.27513 0.0
C124 C 0.27427 0.45113 0.26725 0.0
C125 C 0.25256 0.43247 0.27124 0.0
C126 C 0.2502 0.41222 0.28393 0.0
C127 C 0.26913 0.41057 0.29199 0.0
C128 C 0.15953 0.43542 0.26886 0.0
C129 C 0.16437 0.45535 0.28645 0.0
C130 C 0.14999 0.45516 0.31277 0.0
C131 C 0.13042 0.43508 0.32199 0.0
C132 C 0.12598 0.41505 0.30511 0.0
C133 C 0.14045 0.41526 0.27883 0.0
C134 C 0.17179 0.44786 0.20871 0.0
C135 C 0.1548 0.43658 0.18362 0.0
C136 C 0.15038 0.44855 0.15819 0.0
C137 C 0.16281 0.47213 0.15766 0.0
C138 C 0.18089 0.48336 0.1812 0.0
C139 C 0.18546 0.47133 0.20638 0.0
C140 C 0.19321 0.43578 0.24605 0.0
C141 C 0.21103 0.45343 0.26461 0.0
C142 C 0.23046 0.45254 0.27232 0.0
C143 C 0.23236 0.43394 0.26191 0.0
C144 C 0.21462 0.41649 0.243 0.0
C145 C 0.19529 0.41746 0.23513 0.0
H146 H 0.74028 0.11752 0.88681 0.0
N147 N 0.74562 0.14398 0.83223 0.0
H148 H 0.70905 0.10169 0.92932 0.0
H149 H 0.71411 0.15692 0.84042 0.0
H150 H 0.68323 0.14148 0.88275 0.0
H151 H 0.73132 0.16289 0.78255 0.0
H152 H 0.70765 0.14346 0.73141 0.0
H153 H 0.73684 0.10466 0.80633 0.0
H154 H 0.71383 0.08532 0.75473 0.0
H155 H 0.78669 0.15043 0.82484 0.0
H156 H 0.75066 0.18608 0.84026 0.0
H157 H 0.82229 0.18582 0.8271 0.0
H158 H 0.78607 0.22137 0.84457 0.0
H159 H 0.9309 0.29986 0.87874 0.0
H160 H 0.94834 0.33033 0.9218 0.0
H161 H 0.8893 0.33736 0.91958 0.0
H162 H 0.87163 0.30613 0.87772 0.0
H163 H 0.88532 0.32044 0.81918 0.0
H164 H 0.90532 0.34681 0.77158 0.0
H165 H 0.93976 0.31067 0.74591 0.0
H166 H 0.91994 0.28433 0.7946 0.0
H167 H 0.88258 0.24768 0.86908 0.0
H168 H 0.84612 0.21321 0.8675 0.0
H169 H 0.81785 0.24873 0.81348 0.0
N170 N 0.89342 0.28748 0.843 0.0
H171 H 0.85401 0.28327 0.81707 0.0
C172 C 0.72972 0.13852 0.86068 0.0
C173 C 0.7282 0.12325 0.88652 0.0
C174 C 0.71031 0.11414 0.91054 0.0
C175 C 0.69368 0.12031 0.90924 0.0
C176 C 0.69595 0.13663 0.8847 0.0
C177 C 0.7137 0.14554 0.86045 0.0
C178 C 0.73563 0.13505 0.79835 0.0
C179 C 0.72787 0.14612 0.77625 0.0
C180 C 0.71441 0.135 0.74694 0.0
C181 C 0.70855 0.11269 0.73932 0.0
C182 C 0.71762 0.10231 0.76027 0.0
C183 C 0.73096 0.11338 0.7895 0.0
C184 C 0.76603 0.16545 0.83285 0.0
C185 C 0.78651 0.16592 0.82898 0.0
C186 C 0.80683 0.18617 0.83064 0.0
C187 C 0.80718 0.20654 0.83663 0.0
C188 C 0.78653 0.20609 0.83975 0.0
C189 C 0.76615 0.18578 0.83761 0.0
C190 C 0.90022 0.301 0.87462 0.0
C191 C 0.92144 0.30745 0.88859 0.0
C192 C 0.93144 0.32503 0.91284 0.0
C193 C 0.92047 0.33671 0.92334 0.0
C194 C 0.89825 0.32878 0.91198 0.0
C195 C 0.88814 0.31096 0.8879 0.0
C196 C 0.9013 0.30041 0.81078 0.0
C197 C 0.89683 0.31781 0.80314 0.0
C198 C 0.90833 0.33298 0.77593 0.0
C199 C 0.92423 0.33088 0.75547 0.0
C200 C 0.92753 0.31259 0.76135 0.0
C201 C 0.91623 0.29756 0.789 0.0
C202 C 0.87122 0.26797 0.84284 0.0
C203 C 0.86842 0.248 0.85719 0.0
C204 C 0.84759 0.22827 0.85588 0.0
C205 C 0.82902 0.22799 0.83976 0.0
C206 C 0.83169 0.24825 0.82626 0.0
C207 C 0.85253 0.2681 0.82802 0.0
H208 H 0.57178 0.85812 0.25205 0.0
N209 N 0.6051 0.86926 0.20259 0.0
H210 H 0.57361 0.88019 0.30323 0.0
H211 H 0.64132 0.90492 0.22835 0.0
H212 H 0.64333 0.92735 0.28018 0.0
H213 H 0.61917 0.90009 0.15216 0.0
H214 H 0.59604 0.90947 0.11458 0.0
H215 H 0.55931 0.84408 0.19554 0.0
H216 H 0.53607 0.85383 0.159 0.0
H217 H 0.57674 0.82923 0.23593 0.0
H218 H 0.63449 0.86254 0.16735 0.0
H219 H 0.57923 0.79512 0.23383 0.0
H220 H 0.63702 0.8283 0.16495 0.0
H221 H 0.58282 0.70817 0.23357 0.0
H222 H 0.57615 0.68174 0.28144 0.0
H223 H 0.64655 0.70154 0.28063 0.0
H224 H 0.65303 0.72787 0.2323 0.0
H225 H 0.64696 0.72208 0.15682 0.0
H226 H 0.63324 0.69099 0.11466 0.0
H227 H 0.56546 0.67808 0.13004 0.0
H228 H 0.57947 0.70965 0.17127 0.0
H229 H 0.61266 0.75162 0.25529 0.0
H230 H 0.60656 0.78328 0.25521 0.0
H231 H 0.61557 0.78912 0.14203 0.0
N232 N 0.62239 0.73307 0.19746 0.0
H233 H 0.62156 0.75714 0.14161 0.0
C234 C 0.60656 0.87975 0.23629 0.0
C235 C 0.58769 0.87275 0.25833 0.0
C236 C 0.58875 0.88548 0.28781 0.0
C237 C 0.60859 0.90559 0.29576 0.0
C238 C 0.62772 0.91205 0.27458 0.0
C239 C 0.62668 0.89919 0.24518 0.0
C240 C 0.59103 0.87168 0.17693 0.0
C241 C 0.60105 0.88958 0.153 0.0
C242 C 0.58783 0.89486 0.13159 0.0
C243 C 0.56429 0.88245 0.13415 0.0
C244 C 0.5542 0.86376 0.15679 0.0
C245 C 0.56748 0.85823 0.17775 0.0
C246 C 0.60568 0.84864 0.20203 0.0
C247 C 0.59001 0.82933 0.2205 0.0
C248 C 0.59143 0.80975 0.21929 0.0
C249 C 0.6083 0.80902 0.19921 0.0
C250 C 0.62368 0.82825 0.18034 0.0
C251 C 0.62237 0.84783 0.18185 0.0
C252 C 0.61853 0.7201 0.22943 0.0
C253 C 0.59688 0.70707 0.244 0.0
C254 C 0.59311 0.69205 0.27151 0.0
C255 C 0.61082 0.68949 0.28467 0.0
C256 C 0.63255 0.703 0.2708 0.0
C257 C 0.63633 0.71817 0.2435 0.0
C258 C 0.6143 0.71802 0.16747 0.0
C259 C 0.62926 0.71293 0.15024 0.0
C260 C 0.62134 0.69505 0.12646 0.0
C261 C 0.5982 0.6818 0.11953 0.0
C262 C 0.58338 0.68797 0.13474 0.0
C263 C 0.59135 0.70594 0.15853 0.0
C264 C 0.6163 0.75056 0.198 0.0
C265 C 0.61252 0.75885 0.23 0.0
C266 C 0.60916 0.77727 0.23014 0.0
C267 C 0.61029 0.78851 0.1986 0.0
C268 C 0.61448 0.78071 0.16678 0.0
C269 C 0.61762 0.76216 0.16654 0.0
H270 H 0.94293 0.62682 0.74228 0.0
N271 N 0.89863 0.60259 0.73298 0.0
H272 H 0.96554 0.6206 0.78545 0.0
H273 H 0.88248 0.57387 0.78978 0.0
H274 H 0.90464 0.56876 0.83474 0.0
H275 H 0.8749 0.55663 0.73089 0.0
H276 H 0.88187 0.53299 0.69052 0.0
H277 H 0.92256 0.61555 0.67344 0.0
H278 H 0.92961 0.592 0.63281 0.0
H279 H 0.88889 0.62009 0.7902 0.0
H280 H 0.8596 0.58375 0.69323 0.0
H281 H 0.8532 0.61693 0.80599 0.0
H282 H 0.82441 0.58156 0.70837 0.0
H283 H 0.73855 0.60683 0.85049 0.0
H284 H 0.71068 0.58458 0.89571 0.0
H285 H 0.70742 0.52447 0.85454 0.0
H286 H 0.7352 0.54668 0.80979 0.0
H287 H 0.72301 0.55467 0.75553 0.0
H288 H 0.69684 0.55267 0.71081 0.0
H289 H 0.71872 0.62275 0.72733 0.0
H290 H 0.74558 0.62482 0.7721 0.0
H291 H 0.79166 0.62562 0.8088 0.0
H292 H 0.82792 0.62947 0.79266 0.0
H293 H 0.79339 0.5629 0.7471 0.0
N294 N 0.75095 0.59145 0.79579 0.0
H295 H 0.75763 0.55977 0.76151 0.0
C296 C 0.91105 0.60106 0.76278 0.0
C297 C 0.93454 0.61436 0.76277 0.0
C298 C 0.94742 0.61078 0.78766 0.0
C299 C 0.93705 0.59398 0.81366 0.0
C300 C 0.91339 0.58141 0.81467 0.0
C301 C 0.90057 0.58459 0.78921 0.0
C302 C 0.89844 0.58796 0.7053 0.0
C303 C 0.88648 0.56443 0.70909 0.0
C304 C 0.89051 0.55094 0.68605 0.0
C305 C 0.90648 0.56067 0.65876 0.0
C306 C 0.91709 0.58399 0.6534 0.0
C307 C 0.91313 0.59749 0.67657 0.0
C308 C 0.87699 0.6006 0.74179 0.0
C309 C 0.8748 0.61103 0.77251 0.0
C310 C 0.85436 0.60957 0.78131 0.0
C311 C 0.83566 0.5985 0.75889 0.0
C312 C 0.83815 0.58941 0.72703 0.0
C313 C 0.85852 0.59063 0.7184 0.0
C314 C 0.73888 0.57857 0.82645 0.0
C315 C 0.73236 0.58896 0.85203 0.0
C316 C 0.71648 0.57622 0.87785 0.0
C317 C 0.70668 0.55274 0.87836 0.0
C318 C 0.71449 0.54252 0.85446 0.0
C319 C 0.7305 0.5553 0.8288 0.0
C320 C 0.73674 0.59013 0.76681 0.0
C321 C 0.72284 0.56985 0.74903 0.0
C322 C 0.70768 0.56865 0.72346 0.0
C323 C 0.70579 0.58757 0.7155 0.0
C324 C 0.71979 0.60789 0.73304 0.0
C325 C 0.7352 0.60915 0.75834 0.0
C326 C 0.77184 0.59243 0.78682 0.0
C327 C 0.79201 0.61189 0.79537 0.0
C328 C 0.81271 0.61397 0.78628 0.0
C329 C 0.81367 0.59646 0.76858 0.0
C330 C 0.79337 0.57688 0.76022 0.0
C331 C 0.77271 0.57494 0.76897 0.0
H332 H 0.17846 0.70139 0.33394 0.0
N333 N 0.16373 0.73154 0.33996 0.0
H334 H 0.16776 0.66906 0.37224 0.0
H335 H 0.14435 0.72442 0.40333 0.0
H336 H 0.13328 0.69184 0.44176 0.0
H337 H 0.11993 0.70957 0.32703 0.0
H338 H 0.10068 0.68547 0.27682 0.0
H339 H 0.18396 0.72896 0.27876 0.0
H340 H 0.16498 0.70639 0.22699 0.0
H341 H 0.20694 0.73949 0.35188 0.0
H342 H 0.16873 0.77093 0.32145 0.0
H343 H 0.24135 0.77536 0.34864 0.0
H344 H 0.20347 0.80688 0.31581 0.0
H345 H 0.3424 0.87505 0.31017 0.0
H346 H 0.37564 0.88548 0.34467 0.0
H347 H 0.34423 0.8973 0.43528 0.0
H348 H 0.3118 0.88911 0.39873 0.0
H349 H 0.31946 0.92329 0.32048 0.0
H350 H 0.33982 0.94691 0.26984 0.0
H351 H 0.33223 0.8884 0.21482 0.0
H352 H 0.31128 0.86504 0.26454 0.0
H353 H 0.3025 0.83967 0.31235 0.0
H354 H 0.2678 0.80341 0.31217 0.0
H355 H 0.23129 0.83568 0.34909 0.0
N356 N 0.30675 0.88032 0.32972 0.0
H357 H 0.26591 0.87198 0.34676 0.0
C358 C 0.1621 0.71533 0.36579 0.0
C359 C 0.16917 0.69982 0.35795 0.0
C360 C 0.16291 0.68125 0.37975 0.0
C361 C 0.1494 0.67774 0.40974 0.0
C362 C 0.1438 0.69414 0.41897 0.0
C363 C 0.15008 0.71275 0.39708 0.0
C364 C 0.15331 0.72114 0.30676 0.0
C365 C 0.12979 0.70921 0.30492 0.0
C366 C 0.11882 0.69548 0.27595 0.0
C367 C 0.13116 0.69367 0.24762 0.0
C368 C 0.15481 0.7068 0.24857 0.0
C369 C 0.16578 0.7201 0.27802 0.0
C370 C 0.1849 0.75243 0.33748 0.0
C371 C 0.2058 0.754 0.34428 0.0
C372 C 0.22572 0.77469 0.34198 0.0
C373 C 0.22537 0.79423 0.33211 0.0
C374 C 0.2045 0.79242 0.32436 0.0
C375 C 0.18457 0.77183 0.3273 0.0
C376 C 0.32481 0.88209 0.35151 0.0
C377 C 0.34261 0.87998 0.33737 0.0
C378 C 0.36169 0.88568 0.3576 0.0
C379 C 0.36316 0.8928 0.39296 0.0
C380 C 0.34434 0.89283 0.40787 0.0
C381 C 0.32555 0.88782 0.3872 0.0
C382 C 0.31396 0.89245 0.29668 0.0
C383 C 0.32159 0.91553 0.29697 0.0
C384 C 0.33345 0.92901 0.26816 0.0
C385 C 0.33811 0.91966 0.23847 0.0
C386 C 0.32889 0.89623 0.23706 0.0
C387 C 0.31686 0.88275 0.26578 0.0
C388 C 0.28666 0.85859 0.32907 0.0
C389 C 0.28695 0.83895 0.31979 0.0
C390 C 0.26706 0.81814 0.32019 0.0
C391 C 0.24655 0.81645 0.33058 0.0
C392 C 0.24652 0.83622 0.34013 0.0
C393 C 0.26632 0.85701 0.33912 0.0
H394 H 0.42453 0.10229 0.66268 0.0
N395 N 0.44258 0.14065 0.69769 0.0
H396 H 0.44249 0.09039 0.61918 0.0
H397 H 0.4837 0.1679 0.66663 0.0
H398 H 0.50144 0.15676 0.6212 0.0
H399 H 0.4821 0.15011 0.72948 0.0
H400 H 0.48616 0.13105 0.7809 0.0
H401 H 0.40999 0.11111 0.7393 0.0
H402 H 0.41391 0.0917 0.79083 0.0
H403 H 0.41325 0.14996 0.66848 0.0
H404 H 0.47503 0.18018 0.72779 0.0
H405 H 0.41374 0.18572 0.66855 0.0
H406 H 0.4752 0.21561 0.72937 0.0
H407 H 0.422 0.28974 0.64243 0.0
H408 H 0.43767 0.31988 0.59825 0.0
H409 H 0.50271 0.34788 0.64807 0.0
H410 H 0.48704 0.31799 0.69185 0.0
H411 H 0.47553 0.30023 0.74957 0.0
H412 H 0.4806 0.32493 0.79945 0.0
H413 H 0.41762 0.32138 0.77409 0.0
H414 H 0.41311 0.29724 0.72356 0.0
H415 H 0.40792 0.24507 0.70666 0.0
H416 H 0.40822 0.20971 0.70738 0.0
H417 H 0.48041 0.24644 0.69379 0.0
N418 N 0.44248 0.2862 0.69941 0.0
H419 H 0.47997 0.28158 0.69463 0.0
C420 C 0.4526 0.1359 0.6678 0.0
C421 C 0.44117 0.11434 0.65319 0.0
C422 C 0.45151 0.10766 0.62805 0.0
C423 C 0.47356 0.12257 0.61638 0.0
C424 C 0.48464 0.14464 0.62987 0.0
C425 C 0.47437 0.15118 0.65562 0.0
C426 C 0.44565 0.13215 0.73079 0.0
C427 C 0.46713 0.13788 0.74328 0.0
C428 C 0.46944 0.12691 0.77266 0.0
C429 C 0.45035 0.10982 0.78978 0.0
C430 C 0.42891 0.10467 0.77796 0.0
C431 C 0.42664 0.11583 0.7488 0.0
C432 C 0.44385 0.16221 0.69835 0.0
C433 C 0.42682 0.16429 0.68172 0.0
C434 C 0.42707 0.1847 0.68206 0.0
C435 C 0.44441 0.20356 0.69929 0.0
C436 C 0.46169 0.20153 0.7156 0.0
C437 C 0.46149 0.1811 0.71501 0.0
C438 C 0.45323 0.30147 0.67034 0.0
C439 C 0.43976 0.30204 0.64312 0.0
C440 C 0.4487 0.31932 0.61811 0.0
C441 C 0.47139 0.33631 0.61985 0.0
C442 C 0.48524 0.3349 0.64576 0.0
C443 C 0.47624 0.31772 0.67091 0.0
C444 C 0.44395 0.29704 0.7327 0.0
C445 C 0.46263 0.30444 0.75511 0.0
C446 C 0.46546 0.31851 0.78376 0.0
C447 C 0.44965 0.32539 0.79049 0.0
C448 C 0.43032 0.31678 0.76924 0.0
C449 C 0.42758 0.30281 0.74062 0.0
C450 C 0.44376 0.26594 0.70023 0.0
C451 C 0.42378 0.24541 0.70397 0.0
C452 C 0.424 0.22524 0.70408 0.0
C453 C 0.44433 0.22516 0.70026 0.0
C454 C 0.46446 0.24584 0.69708 0.0
C455 C 0.46422 0.26605 0.69725 0.0
H456 H 0.08296 0.53034 0.1082 0.0
H457 H 0.15009 0.46614 0.08774 0.0
H458 H 0.10284 0.51986 0.00485 0.0
H459 H 0.15662 0.50633 0.17943 0.0
H460 H 0.13156 0.48369 0.05633 0.0
H461 H 0.10828 0.51935 0.13504 0.0
C462 C 0.09275 0.52579 0.09116 0.0
C463 C 0.09078 0.52591 0.05429 0.0
C464 C 0.13744 0.48891 0.08311 0.0
C465 C 0.11957 0.51307 0.08482 0.0
C466 C 0.14793 0.47889 0.10102 0.0
C467 C 0.15488 0.48481 0.13621 0.0
C468 C 0.13345 0.50451 0.10087 0.0
C469 C 0.15172 0.50143 0.15223 0.0
C470 C 0.10728 0.51966 0.10647 0.0
C471 C 0.10396 0.52002 0.03341 0.0
N472 N 0.14093 0.51044 0.13464 0.0
N473 N 0.1176 0.51349 0.04899 0.0
H474 H 0.59099 0.01086 0.63072 0.0
H475 H 0.70404 0.12631 0.67278 0.0
H476 H 0.62287 0.06514 0.55549 0.0
H477 H 0.67412 0.06928 0.74319 0.0
H478 H 0.67473 0.10447 0.62918 0.0
H479 H 0.6217 0.0322 0.67194 0.0
C480 C 0.60449 0.02725 0.62279 0.0
C481 C 0.6043 0.03622 0.58958 0.0
C482 C 0.67469 0.09672 0.65411 0.0
C483 C 0.63958 0.06087 0.63685 0.0
C484 C 0.69136 0.10921 0.67905 0.0
C485 C 0.69164 0.0996 0.71165 0.0
C486 C 0.65808 0.07453 0.66195 0.0
C487 C 0.67486 0.0773 0.71822 0.0
C488 C 0.62206 0.03945 0.64637 0.0
C489 C 0.62231 0.05755 0.58081 0.0
N490 N 0.65877 0.06559 0.6937 0.0
N491 N 0.63917 0.06919 0.60435 0.0
H492 H 0.56236 0.5463 0.0695 0.0
H493 H 0.56428 0.66321 0.06983 0.0
H494 H 0.52472 0.56111 0.99369 0.0
H495 H 0.61166 0.65087 0.12589 0.0
H496 H 0.54839 0.62592 0.04246 0.0
H497 H 0.57927 0.58448 0.09167 0.0
C498 C 0.55761 0.55759 0.05748 0.0
C499 C 0.54202 0.55043 0.02973 0.0
C500 C 0.56242 0.63154 0.06048 0.0
C501 C 0.56143 0.59445 0.05518 0.0
C502 C 0.57143 0.65275 0.07618 0.0
C503 C 0.58941 0.66024 0.10007 0.0
C504 C 0.57126 0.61765 0.06916 0.0
C505 C 0.59807 0.64602 0.10722 0.0
C506 C 0.56738 0.57949 0.0701 0.0
C507 C 0.53667 0.56594 0.01512 0.0
N508 N 0.58884 0.62543 0.09205 0.0
N509 N 0.54627 0.58724 0.02818 0.0
H510 H 0.98463 0.49912 0.61453 0.0
H511 H 0.91519 0.56108 0.58747 0.0
H512 H 0.96104 0.50385 0.51103 0.0
H513 H 0.91634 0.53001 0.6859 0.0
H514 H 0.93293 0.54199 0.55804 0.0
H515 H 0.96104 0.51246 0.64073 0.0
C516 C 0.97441 0.50293 0.59731 0.0
C517 C 0.97485 0.50047 0.56055 0.0
C518 C 0.92894 0.53912 0.58595 0.0
C519 C 0.94789 0.51597 0.5904 0.0
C520 C 0.91891 0.55003 0.60274 0.0
C521 C 0.91428 0.54712 0.63918 0.0
C522 C 0.93475 0.5256 0.60593 0.0
C523 C 0.91937 0.53257 0.65772 0.0
C524 C 0.96085 0.51042 0.6123 0.0
C525 C 0.96112 0.50549 0.53952 0.0
N526 N 0.92957 0.52261 0.641 0.0
N527 N 0.94837 0.5133 0.55472 0.0
H528 H 0.42421 0.96323 0.05464 0.0
H529 H 0.37671 0.96001 0.24836 0.0
H530 H 0.45991 0.01394 0.13403 0.0
H531 H 0.33769 0.91267 0.16647 0.0
H532 H 0.40595 0.98158 0.20521 0.0
H533 H 0.39137 0.94587 0.09355 0.0
C534 C 0.42511 0.97083 0.08014 0.0
C535 C 0.44495 0.98999 0.09119 0.0
C536 C 0.3909 0.96661 0.19653 0.0
C537 C 0.40739 0.97012 0.13593 0.0
C538 C 0.37401 0.95433 0.22116 0.0
C539 C 0.35461 0.93435 0.2112 0.0
C540 C 0.3886 0.95883 0.16161 0.0
C541 C 0.35248 0.92773 0.17558 0.0
C542 C 0.40632 0.9609 0.10234 0.0
C543 C 0.44506 0.99912 0.12445 0.0
N544 N 0.36935 0.93981 0.15216 0.0
N545 N 0.42665 0.98901 0.14573 0.0
H546 H 0.55072 0.45783 0.49502 0.0
H547 H 0.45066 0.36043 0.60663 0.0
H548 H 0.50299 0.46677 0.55711 0.0
H549 H 0.51169 0.35932 0.58418 0.0
H550 H 0.46638 0.39661 0.57682 0.0
H551 H 0.53375 0.41911 0.51742 0.0
C552 C 0.53669 0.45165 0.51325 0.0
C553 C 0.52835 0.46556 0.52444 0.0
C554 C 0.47627 0.38837 0.57815 0.0
C555 C 0.50874 0.42147 0.54943 0.0
C556 C 0.46722 0.3676 0.59482 0.0
C557 C 0.4799 0.35685 0.5979 0.0
C558 C 0.49813 0.39849 0.56419 0.0
C559 C 0.50145 0.36716 0.58261 0.0
C560 C 0.52707 0.42964 0.52601 0.0
C561 C 0.51012 0.45674 0.54805 0.0
N562 N 0.50994 0.38749 0.56642 0.0
N563 N 0.50089 0.43526 0.5596 0.0
H564 H 0.57241 0.95733 0.47735 0.0
H565 H 0.62709 0.95125 0.29351 0.0
H566 H 0.60206 0.01173 0.40198 0.0
H567 H 0.58958 0.89417 0.36198 0.0
H568 H 0.62307 0.97516 0.33725 0.0
H569 H 0.58329 0.93555 0.43948 0.0
C570 C 0.58139 0.9648 0.45301 0.0
C571 C 0.58616 0.98635 0.44271 0.0
C572 C 0.61589 0.95744 0.34287 0.0
C573 C 0.59863 0.96143 0.39917 0.0
C574 C 0.61834 0.9438 0.31803 0.0
C575 C 0.60856 0.92062 0.32399 0.0
C576 C 0.60356 0.94789 0.37398 0.0
C577 C 0.59712 0.91188 0.35605 0.0
C578 C 0.58756 0.95232 0.43136 0.0
C579 C 0.59788 0.99514 0.41089 0.0
N580 N 0.59483 0.92549 0.37974 0.0
N581 N 0.6036 0.9826 0.39018 0.0
H582 H 0.59932 0.50167 0.0357 0.0
H583 H 0.66767 0.51623 0.85718 0.0
H584 H 0.57002 0.48879 0.9315 0.0
H585 H 0.69896 0.55825 0.94823 0.0
H586 H 0.63217 0.49707 0.88955 0.0
H587 H 0.63637 0.51417 0.00852 0.0
C588 C 0.60065 0.50117 0.0072 0.0
C589 C 0.58171 0.49438 0.98571 0.0
C590 C 0.64689 0.51027 0.90261 0.0
C591 C 0.62359 0.50819 0.95481 0.0
C592 C 0.66721 0.52108 0.8843 0.0
C593 C 0.68629 0.53892 0.90002 0.0
C594 C 0.64561 0.5172 0.93701 0.0
C595 C 0.68458 0.54471 0.93508 0.0
C596 C 0.62172 0.50837 0.99179 0.0
C597 C 0.58427 0.49412 0.94896 0.0
N598 N 0.66451 0.53393 0.95242 0.0
N599 N 0.60481 0.50089 0.93467 0.0
H600 H 0.05928 0.53892 0.45459 0.0
H601 H 0.14392 0.66947 0.4815 0.0
H602 H 0.08924 0.56594 0.55616 0.0
H603 H 0.13011 0.63607 0.38034 0.0
H604 H 0.12286 0.63263 0.51048 0.0
H605 H 0.0837 0.57541 0.42781 0.0
C606 C 0.07102 0.55256 0.4713 0.0
C607 C 0.07218 0.54939 0.5077 0.0
C608 C 0.12472 0.63344 0.48198 0.0
C609 C 0.10023 0.59138 0.47711 0.0
C610 C 0.13665 0.65441 0.46546 0.0
C611 C 0.13885 0.65584 0.42847 0.0
C612 C 0.11462 0.61386 0.46126 0.0
C613 C 0.12914 0.6358 0.40893 0.0
C614 C 0.08505 0.57339 0.45594 0.0
C615 C 0.08784 0.56767 0.52797 0.0
N616 N 0.11731 0.61572 0.42552 0.0
N617 N 0.10116 0.588 0.51244 0.0
H618 H 0.49276 0.06441 0.97219 0.0
H619 H 0.42759 0.06419 0.79717 0.0
H620 H 0.45604 0.00603 0.9059 0.0
H621 H 0.47906 0.1248 0.84643 0.0
H622 H 0.43368 0.04205 0.84173 0.0
H623 H 0.48393 0.08619 0.93091 0.0
C624 C 0.48274 0.05613 0.94905 0.0
C625 C 0.47519 0.03336 0.94243 0.0
C626 C 0.44357 0.06019 0.84288 0.0
C627 C 0.46497 0.05821 0.89517 0.0
C628 C 0.43998 0.07284 0.81766 0.0
C629 C 0.45285 0.09637 0.81814 0.0
C630 C 0.46002 0.07114 0.86897 0.0
C631 C 0.46891 0.1067 0.84495 0.0
C632 C 0.47778 0.0686 0.92545 0.0
C633 C 0.46231 0.02355 0.91196 0.0
N634 N 0.47204 0.09401 0.86933 0.0
N635 N 0.45758 0.03603 0.88948 0.0
H636 H 0.46977 0.52722 0.51679 0.0
H637 H 0.38242 0.43407 0.38382 0.0
H638 H 0.48559 0.48961 0.44204 0.0
H639 H 0.36831 0.48209 0.43408 0.0
H640 H 0.41828 0.45088 0.41387 0.0
H641 H 0.43102 0.50838 0.49392 0.0
C642 C 0.46514 0.51506 0.49564 0.0
C643 C 0.48099 0.51007 0.48119 0.0
C644 C 0.40733 0.45771 0.41861 0.0
C645 C 0.43689 0.48838 0.45549 0.0
C646 C 0.38661 0.44789 0.40178 0.0
C647 C 0.37215 0.45657 0.40645 0.0
C648 C 0.41394 0.47654 0.4403 0.0
C649 C 0.37899 0.47496 0.42944 0.0
C650 C 0.44308 0.50435 0.48265 0.0
C651 C 0.47407 0.49416 0.4539 0.0
N652 N 0.39948 0.48443 0.44544 0.0
N653 N 0.45261 0.4839 0.44209 0.0
H654 H 0.01848 0.47418 0.9664 0.0
H655 H 0.90638 0.35423 0.97704 0.0
H656 H 0.96818 0.45839 0.04713 0.0
H657 H 0.96355 0.36972 0.91066 0.0
H658 H 0.92755 0.39205 0.00283 0.0
H659 H 0.99731 0.43581 0.94508 0.0
C660 C 0.00293 0.46263 0.97968 0.0
C661 C 0.9951 0.46958 0.00861 0.0
C662 C 0.93546 0.387 0.98286 0.0
C663 C 0.9706 0.42529 0.98415 0.0
C664 C 0.92339 0.36547 0.96809 0.0
C665 C 0.93323 0.35867 0.94183 0.0
C666 C 0.9574 0.40187 0.97093 0.0
C667 C 0.95535 0.37394 0.93129 0.0
C668 C 0.99085 0.44063 0.96753 0.0
C669 C 0.97485 0.45375 0.02476 0.0
N670 N 0.96657 0.39476 0.94571 0.0
N671 N 0.96321 0.43232 0.01221 0.0
H672 H 0.98105 0.5342 0.97226 0.0
H673 H 0.97905 0.62283 0.8418 0.0
H674 H 0.04237 0.58582 0.92452 0.0
H675 H 0.92669 0.55302 0.84189 0.0
H676 H 0.00149 0.61314 0.8803 0.0
H677 H 0.95951 0.54474 0.93325 0.0
C678 C 0.98998 0.54782 0.95365 0.0
C679 C 0.01351 0.55914 0.95149 0.0
C680 C 0.98504 0.60006 0.8718 0.0
C681 C 0.98899 0.57143 0.9073 0.0
C682 C 0.9722 0.6055 0.84968 0.0
C683 C 0.95075 0.58878 0.83838 0.0
C684 C 0.97621 0.57787 0.88337 0.0
C685 C 0.94278 0.56669 0.85038 0.0
C686 C 0.97768 0.55374 0.93136 0.0
C687 C 0.02423 0.5766 0.92681 0.0
N688 N 0.95542 0.56194 0.87237 0.0
N689 N 0.01188 0.58238 0.90579 0.0
H690 H 0.47617 0.95799 0.53874 0.0
H691 H 0.39667 0.88169 0.38611 0.0
H692 H 0.50325 0.9612 0.4345 0.0
H693 H 0.37962 0.92478 0.44601 0.0
H694 H 0.43377 0.90047 0.41366 0.0
H695 H 0.43802 0.93493 0.5148 0.0
C696 C 0.47406 0.95352 0.51096 0.0
C697 C 0.49275 0.96149 0.48843 0.0
C698 C 0.42165 0.90549 0.42083 0.0
C699 C 0.44956 0.9349 0.46141 0.0
C700 C 0.40048 0.89496 0.40496 0.0
C701 C 0.38474 0.90175 0.41304 0.0
C702 C 0.42692 0.92239 0.44588 0.0
C703 C 0.39075 0.91854 0.43896 0.0
C704 C 0.4524 0.94051 0.49741 0.0
C705 C 0.4892 0.95545 0.45259 0.0
N706 N 0.41132 0.92822 0.45447 0.0
N707 N 0.46796 0.94234 0.44015 0.0
H708 H 0.49805 0.41442 0.9719 0.0
H709 H 0.44226 0.36081 0.78524 0.0
H710 H 0.47642 0.4466 0.89618 0.0
H711 H 0.46778 0.33017 0.85704 0.0
H712 H 0.4517 0.39068 0.82807 0.0
H713 H 0.48433 0.38199 0.93258 0.0
C714 C 0.49029 0.41463 0.94711 0.0
C715 C 0.48849 0.43334 0.93727 0.0
C716 C 0.45513 0.37738 0.8346 0.0
C717 C 0.4728 0.39624 0.89208 0.0
C718 C 0.44957 0.36016 0.81024 0.0
C719 C 0.45417 0.34286 0.81753 0.0
C720 C 0.46546 0.37742 0.8666 0.0
C721 C 0.46413 0.34327 0.85012 0.0
C722 C 0.4825 0.3961 0.92465 0.0
C723 C 0.47826 0.43261 0.90483 0.0
N724 N 0.46949 0.3603 0.87341 0.0
N725 N 0.47088 0.41441 0.88338 0.0
H726 H 0.02047 0.44486 0.41928 0.0
H727 H 0.08439 0.41265 0.31789 0.0
H728 H 0.07394 0.46752 0.49592 0.0
H729 H 0.13938 0.4584 0.38436 0.0
H730 H 0.05821 0.41589 0.35769 0.0
H731 H 0.04162 0.43411 0.37994 0.0
C732 C 0.03651 0.44724 0.42807 0.0
C733 C 0.04544 0.45715 0.46095 0.0
C734 C 0.07598 0.42546 0.36345 0.0
C735 C 0.0697 0.44445 0.41624 0.0
C736 C 0.09095 0.4233 0.34099 0.0
C737 C 0.11417 0.43546 0.34756 0.0
C738 C 0.08431 0.44002 0.39265 0.0
C739 C 0.12168 0.44907 0.37784 0.0
C740 C 0.04856 0.4409 0.40565 0.0
C741 C 0.06638 0.45997 0.47082 0.0
N742 N 0.10681 0.45102 0.39916 0.0
N743 N 0.07785 0.45384 0.44845 0.0
H744 H 0.57241 0.07902 0.03375 0.0
H745 H 0.66797 0.07507 0.91845 0.0
H746 H 0.56097 0.02261 0.96888 0.0
H747 H 0.67151 0.13745 0.94724 0.0
H748 H 0.63141 0.05456 0.94768 0.0
H749 H 0.61133 0.09971 0.01199 0.0
C750 C 0.57811 0.07096 0.01511 0.0
C751 C 0.56342 0.04912 0.00291 0.0
C752 C 0.64027 0.07274 0.94786 0.0
C753 C 0.60779 0.07251 0.97843 0.0
C754 C 0.66123 0.08446 0.93149 0.0
C755 C 0.67278 0.108 0.93043 0.0
C756 C 0.63082 0.08461 0.96356 0.0
C757 C 0.66305 0.11929 0.94727 0.0
C758 C 0.60025 0.08278 0.00268 0.0
C759 C 0.57166 0.03948 0.97875 0.0
N760 N 0.64259 0.10748 0.96315 0.0
N761 N 0.5933 0.0512 0.96739 0.0
H762 H 0.55994 0.59683 0.46092 0.0
H763 H 0.62638 0.65987 0.28492 0.0
H764 H 0.59006 0.57013 0.38989 0.0
H765 H 0.58473 0.67871 0.34444 0.0
H766 H 0.61696 0.62937 0.32686 0.0
H767 H 0.57243 0.62921 0.42203 0.0
C768 C 0.56927 0.5978 0.43721 0.0
C769 C 0.57388 0.58065 0.42859 0.0
C770 C 0.60995 0.64023 0.33082 0.0
C771 C 0.58827 0.6178 0.38393 0.0
C772 C 0.61546 0.65775 0.30707 0.0
C773 C 0.60631 0.67185 0.3112 0.0
C774 C 0.59528 0.63683 0.35907 0.0
C775 C 0.59198 0.6681 0.34008 0.0
C776 C 0.57635 0.6163 0.41497 0.0
C777 C 0.58604 0.58288 0.3975 0.0
N778 N 0.58691 0.65096 0.3629 0.0
N779 N 0.59281 0.60111 0.37628 0.0
H780 H 0.56662 0.08908 0.51099 0.0
H781 H 0.45559 0.0908 0.56337 0.0
H782 H 0.50392 0.02855 0.53249 0.0
H783 H 0.51863 0.13544 0.61491 0.0
H784 H 0.47389 0.073 0.53269 0.0
H785 H 0.54948 0.11136 0.53074 0.0
C786 C 0.54919 0.08056 0.51936 0.0
C787 C 0.53662 0.05704 0.52045 0.0
C788 C 0.48367 0.08693 0.55037 0.0
C789 C 0.51701 0.08213 0.54183 0.0
C790 C 0.47326 0.09703 0.56817 0.0
C791 C 0.48535 0.11438 0.59266 0.0
C792 C 0.50648 0.09458 0.55624 0.0
C793 C 0.5085 0.12222 0.59638 0.0
C794 C 0.53952 0.0932 0.53064 0.0
C795 C 0.51417 0.04668 0.53161 0.0
N796 N 0.5183 0.11217 0.57853 0.0
N797 N 0.50501 0.05929 0.5417 0.0
H798 H 0.44698 0.45661 0.0405 0.0
H799 H 0.40278 0.45655 0.23405 0.0
H800 H 0.48544 0.46105 0.13329 0.0
H801 H 0.35722 0.42288 0.14775 0.0
H802 H 0.43419 0.46187 0.19655 0.0
H803 H 0.41452 0.44736 0.07834 0.0
C804 C 0.44856 0.45554 0.06884 0.0
C805 C 0.46895 0.45966 0.08383 0.0
C806 C 0.41731 0.45323 0.18587 0.0
C807 C 0.43202 0.4494 0.12716 0.0
C808 C 0.39945 0.45035 0.20712 0.0
C809 C 0.37747 0.43939 0.19379 0.0
C810 C 0.41321 0.44546 0.15085 0.0
C811 C 0.37396 0.4314 0.15892 0.0
C812 C 0.43002 0.45017 0.09035 0.0
C813 C 0.47002 0.45794 0.12066 0.0
N814 N 0.3917 0.4348 0.13845 0.0
N815 N 0.45188 0.4532 0.14113 0.0
H816 H 0.98191 0.41351 0.56987 0.0
H817 H 0.94905 0.37553 0.76891 0.0
H818 H 0.02059 0.45469 0.65782 0.0
H819 H 0.93233 0.32702 0.68537 0.0
H820 H 0.97273 0.40552 0.72756 0.0
H821 H 0.96115 0.38205 0.61068 0.0
C822 C 0.98613 0.41589 0.59772 0.0
C823 C 0.00294 0.43676 0.61052 0.0
C824 C 0.96396 0.38832 0.71828 0.0
C825 C 0.97908 0.40102 0.65722 0.0
C826 C 0.95034 0.37126 0.74175 0.0
C827 C 0.93865 0.34887 0.73034 0.0
C828 C 0.96562 0.38301 0.68298 0.0
C829 C 0.9411 0.34412 0.69507 0.0
C830 C 0.97433 0.39792 0.62092 0.0
C831 C 0.00779 0.43888 0.64681 0.0
N832 N 0.95416 0.36112 0.67243 0.0
N833 N 0.99572 0.42131 0.66897 0.0
H834 H 0.50428 0.963 0.10044 0.0
H835 H 0.56591 0.89457 0.06467 0.0
H836 H 0.50814 0.94097 0.99509 0.0
H837 H 0.53225 0.88967 0.16346 0.0
H838 H 0.54671 0.91298 0.03819 0.0
H839 H 0.51649 0.93784 0.12432 0.0
C840 C 0.50757 0.95275 0.08236 0.0
C841 C 0.50527 0.95409 0.04575 0.0
C842 C 0.54327 0.90753 0.06549 0.0
C843 C 0.51954 0.92556 0.07282 0.0
C844 C 0.55424 0.89711 0.08058 0.0
C845 C 0.55061 0.89062 0.11624 0.0
C846 C 0.52906 0.91195 0.08651 0.0
C847 C 0.53535 0.89426 0.13579 0.0
C848 C 0.51442 0.93833 0.096 0.0
C849 C 0.50965 0.94036 0.02351 0.0
N850 N 0.52539 0.905 0.12083 0.0
N851 N 0.51691 0.92688 0.03736 0.0
H852 H 0.61503 0.54932 0.53881 0.0
H853 H 0.67585 0.60264 0.72274 0.0
H854 H 0.58529 0.57099 0.6192 0.0
H855 H 0.69642 0.56778 0.65038 0.0
H856 H 0.64542 0.59622 0.68205 0.0
H857 H 0.64769 0.56103 0.57636 0.0
C858 C 0.61538 0.55665 0.56433 0.0
C859 C 0.59725 0.559 0.57595 0.0
C860 C 0.65669 0.59011 0.67503 0.0
C861 C 0.63482 0.57248 0.61928 0.0
C862 C 0.67413 0.5939 0.69808 0.0
C863 C 0.68858 0.58562 0.68994 0.0
C864 C 0.65387 0.57815 0.64353 0.0
C865 C 0.68549 0.57421 0.65785 0.0
C866 C 0.63408 0.56331 0.58581 0.0
C867 C 0.59882 0.56876 0.60925 0.0
N868 N 0.66847 0.57079 0.63588 0.0
N869 N 0.61727 0.57507 0.62985 0.0
H870 H 0.02986 0.58098 0.12915 0.0
H871 H 0.14642 0.66958 0.21005 0.0
H872 H 0.09251 0.5983 0.0773 0.0
H873 H 0.08886 0.67887 0.21937 0.0
H874 H 0.12621 0.64052 0.16609 0.0
H875 H 0.05023 0.61372 0.1681 0.0
C876 C 0.04785 0.5917 0.12588 0.0
C877 C 0.05953 0.58694 0.09999 0.0
C878 C 0.11812 0.64908 0.17765 0.0
C879 C 0.08281 0.62397 0.14457 0.0
C880 C 0.12972 0.66589 0.20262 0.0
C881 C 0.11948 0.67695 0.21877 0.0
C882 C 0.09589 0.64279 0.16917 0.0
C883 C 0.09741 0.67063 0.20842 0.0
C884 C 0.0594 0.61037 0.14794 0.0
C885 C 0.08283 0.6014 0.0968 0.0
N886 N 0.08626 0.65379 0.18462 0.0
N887 N 0.09374 0.61909 0.11912 0.0
loop_
_geom_bond_atom_site_label_1
_geom_bond_atom_site_label_2
_geom_bond_distance
_geom_bond_site_symmetry_2
_ccdc_geom_bond_type
C0 O2 1.247 . S
C0 O4 1.258 . S
C1 O8 1.247 . S
C1 O9 1.258 . S
O2 C0 1.247 . S
O2 Zn3 2.028 1_455 S
Zn3 O2 2.028 1_655 S
Zn3 O7 2.035 . S
Zn3 O9 2.035 . S
Zn3 O10 2.028 1_655 S
O4 C0 1.258 . S
O4 Zn5 2.035 . S
Zn5 O4 2.035 . S
Zn5 O6 2.028 1_455 S
Zn5 O8 2.028 1_455 S
Zn5 O11 2.035 . S
O6 Zn5 2.028 1_655 S
O6 C12 1.247 . S
O7 Zn3 2.035 . S
O7 C12 1.258 . S
O8 C1 1.247 . S
O8 Zn5 2.028 1_655 S
O9 C1 1.258 . S
O9 Zn3 2.035 . S
O10 Zn3 2.028 1_455 S
O10 C13 1.247 . S
O11 Zn5 2.035 . S
O11 C13 1.258 . S
C12 O6 1.247 . S
C12 O7 1.258 . S
C13 O10 1.247 . S
C13 O11 1.258 . S
C14 O16 1.247 . S
C14 O18 1.258 . S
C15 O22 1.247 . S
C15 O23 1.258 . S
O16 C14 1.247 . S
O16 Zn17 2.028 1_545 S
Zn17 O16 2.028 1_565 S
Zn17 O21 2.035 . S
Zn17 O23 2.035 . S
Zn17 O24 2.028 1_565 S
O18 C14 1.258 . S
O18 Zn19 2.035 . S
Zn19 O18 2.035 . S
Zn19 O20 2.028 1_545 S
Zn19 O22 2.028 1_545 S
Zn19 O25 2.035 . S
O20 Zn19 2.028 1_565 S
O20 C26 1.247 . S
O21 Zn17 2.035 . S
O21 C26 1.258 . S
O22 C15 1.247 . S
O22 Zn19 2.028 1_565 S
O23 C15 1.258 . S
O23 Zn17 2.035 . S
O24 Zn17 2.028 1_545 S
O24 C27 1.247 . S
O25 Zn19 2.035 . S
O25 C27 1.258 . S
C26 O20 1.247 . S
C26 O21 1.258 . S
C27 O24 1.247 . S
C27 O25 1.258 . S
C28 O30 1.247 . S
C28 O32 1.258 1_556 S
C29 O36 1.247 . S
C29 O37 1.258 . S
O30 C28 1.247 . S
O30 Zn31 2.028 . S
Zn31 O30 2.028 . S
Zn31 O35 2.035 1_556 S
Zn31 O37 2.035 1_556 S
Zn31 O38 2.028 . S
O32 C28 1.258 1_554 S
O32 Zn33 2.035 . S
Zn33 O32 2.035 . S
Zn33 O34 2.028 . S
Zn33 O36 2.028 . S
Zn33 O39 2.035 . S
O34 Zn33 2.028 . S
O34 C40 1.247 . S
O35 Zn31 2.035 1_554 S
O35 C40 1.258 . S
O36 C29 1.247 . S
O36 Zn33 2.028 . S
O37 C29 1.258 . S
O37 Zn31 2.035 1_554 S
O38 Zn31 2.028 . S
O38 C41 1.247 . S
O39 Zn33 2.035 . S
O39 C41 1.258 1_554 S
C40 O34 1.247 . S
C40 O35 1.258 . S
C41 O38 1.247 . S
C41 O39 1.258 1_556 S
C42 O44 1.247 . S
C42 O46 1.258 . S
C43 O50 1.247 . S
C43 O51 1.258 . S
O44 C42 1.247 . S
O44 Zn45 2.028 . S
Zn45 O44 2.028 . S
Zn45 O49 2.035 . S
Zn45 O51 2.035 . S
Zn45 O52 2.028 . S
O46 C42 1.258 . S
O46 Zn47 2.035 . S
Zn47 O46 2.035 . S
Zn47 O48 2.028 . S
Zn47 O50 2.028 . S
Zn47 O53 2.035 . S
O48 Zn47 2.028 . S
O48 C54 1.247 . S
O49 Zn45 2.035 . S
O49 C54 1.258 . S
O50 C43 1.247 . S
O50 Zn47 2.028 . S
O51 C43 1.258 . S
O51 Zn45 2.035 . S
O52 Zn45 2.028 . S
O52 C55 1.247 . S
O53 Zn47 2.035 . S
O53 C55 1.258 . S
C54 O48 1.247 . S
C54 O49 1.258 . S
C55 O52 1.247 . S
C55 O53 1.258 . S
C56 O58 1.247 1_565 S
C56 O60 1.258 . S
C57 O64 1.247 . S
C57 O65 1.258 1_556 S
O58 C56 1.247 1_545 S
O58 Zn59 2.028 . S
Zn59 O58 2.028 . S
Zn59 O63 2.035 . S
Zn59 O65 2.035 . S
Zn59 O66 2.028 . S
O60 C56 1.258 . S
O60 Zn61 2.035 1_554 S
Zn61 O60 2.035 1_556 S
Zn61 O62 2.028 1_565 S
Zn61 O64 2.028 1_565 S
Zn61 O67 2.035 1_556 S
O62 Zn61 2.028 1_545 S
O62 C68 1.247 . S
O63 Zn59 2.035 . S
O63 C68 1.258 1_554 S
O64 C57 1.247 . S
O64 Zn61 2.028 1_545 S
O65 C57 1.258 1_554 S
O65 Zn59 2.035 . S
O66 Zn59 2.028 . S
O66 C69 1.247 1_545 S
O67 Zn61 2.035 1_554 S
O67 C69 1.258 . S
C68 O62 1.247 . S
C68 O63 1.258 1_556 S
C69 O66 1.247 1_565 S
C69 O67 1.258 . S
C70 O72 1.247 . S
C70 O74 1.258 . S
C71 O78 1.247 . S
C71 O79 1.258 . S
O72 C70 1.247 . S
O72 Zn73 2.028 . S
Zn73 O72 2.028 . S
Zn73 O77 2.035 . S
Zn73 O79 2.035 . S
Zn73 O80 2.028 . S
O74 C70 1.258 . S
O74 Zn75 2.035 . S
Zn75 O74 2.035 . S
Zn75 O76 2.028 . S
Zn75 O78 2.028 . S
Zn75 O81 2.035 . S
O76 Zn75 2.028 . S
O76 C82 1.247 . S
O77 Zn73 2.035 . S
O77 C82 1.258 . S
O78 C71 1.247 . S
O78 Zn75 2.028 . S
O79 C71 1.258 . S
O79 Zn73 2.035 . S
O80 Zn73 2.028 . S
O80 C83 1.247 . S
O81 Zn75 2.035 . S
O81 C83 1.258 . S
C82 O76 1.247 . S
C82 O77 1.258 . S
C83 O80 1.247 . S
C83 O81 1.258 . S
H84 C111 0.929 . S
N85 C110 1.433 . S
N85 C116 1.435 . S
N85 C122 1.423 . S
H86 C112 0.930 . S
H87 C115 0.931 . S
H88 C114 0.929 . S
H89 C117 0.930 . S
H90 C118 0.932 . S
H91 C121 0.929 . S
H92 C120 0.931 . S
H93 C123 0.929 . S
H94 C127 0.932 . S
H95 C124 0.931 . S
H96 C126 0.929 . S
H97 C129 0.929 . S
H98 C130 0.930 . S
H99 C132 0.929 . S
H100 C133 0.931 . S
H101 C135 0.930 . S
H102 C136 0.932 . S
H103 C138 0.931 . S
H104 C139 0.929 . S
H105 C141 0.929 . S
H106 C142 0.931 . S
H107 C144 0.929 . S
N108 C128 1.433 . S
N108 C134 1.435 . S
N108 C140 1.423 . S
H109 C145 0.932 . S
C110 N85 1.433 . S
C110 C111 1.363 . S
C110 C115 1.370 . S
C111 H84 0.929 . S
C111 C110 1.363 . S
C111 C112 1.385 . S
C112 H86 0.930 . S
C112 C111 1.385 . S
C112 C113 1.357 . S
C113 C112 1.357 . S
C113 C114 1.406 . S
C114 H88 0.929 . S
C114 C113 1.406 . S
C114 C115 1.391 . S
C115 H87 0.931 . S
C115 C110 1.370 . S
C115 C114 1.391 . S
C116 N85 1.435 . S
C116 C117 1.358 . S
C116 C121 1.371 . S
C117 H89 0.930 . S
C117 C116 1.358 . S
C117 C118 1.405 . S
C118 H90 0.932 . S
C118 C117 1.405 . S
C118 C119 1.383 . S
C119 C118 1.383 . S
C119 C120 1.393 . S
C120 H92 0.931 . S
C120 C119 1.393 . S
C120 C121 1.382 . S
C121 H91 0.929 . S
C121 C116 1.371 . S
C121 C120 1.382 . S
C122 N85 1.423 . S
C122 C123 1.362 . S
C122 C127 1.388 . S
C123 H93 0.929 . S
C123 C122 1.362 . S
C123 C124 1.376 . S
C124 H95 0.931 . S
C124 C123 1.376 . S
C124 C125 1.396 . S
C125 C124 1.396 . S
C125 C126 1.348 . S
C125 C143 1.472 . S
C126 H96 0.929 . S
C126 C125 1.348 . S
C126 C127 1.443 . S
C127 H94 0.932 . S
C127 C122 1.388 . S
C127 C126 1.443 . S
C128 N108 1.433 . S
C128 C129 1.363 . S
C128 C133 1.370 . S
C129 H97 0.929 . S
C129 C128 1.363 . S
C129 C130 1.385 . S
C130 H98 0.930 . S
C130 C129 1.385 . S
C130 C131 1.357 . S
C131 C130 1.357 . S
C131 C132 1.406 . S
C132 H99 0.929 . S
C132 C131 1.406 . S
C132 C133 1.391 . S
C133 H100 0.931 . S
C133 C128 1.370 . S
C133 C132 1.391 . S
C134 N108 1.435 . S
C134 C135 1.358 . S
C134 C139 1.371 . S
C135 H101 0.930 . S
C135 C134 1.358 . S
C135 C136 1.405 . S
C136 H102 0.932 . S
C136 C135 1.405 . S
C136 C137 1.383 . S
C137 C136 1.383 . S
C137 C138 1.393 . S
C138 H103 0.931 . S
C138 C137 1.393 . S
C138 C139 1.382 . S
C139 H104 0.929 . S
C139 C134 1.371 . S
C139 C138 1.382 . S
C140 N108 1.423 . S
C140 C141 1.362 . S
C140 C145 1.388 . S
C141 H105 0.929 . S
C141 C140 1.362 . S
C141 C142 1.376 . S
C142 H106 0.931 . S
C142 C141 1.376 . S
C142 C143 1.396 . S
C143 C125 1.472 . S
C143 C142 1.396 . S
C143 C144 1.348 . S
C144 H107 0.929 . S
C144 C143 1.348 . S
C144 C145 1.443 . S
C145 H109 0.932 . S
C145 C140 1.388 . S
C145 C144 1.443 . S
H146 C173 0.929 . S
N147 C172 1.433 . S
N147 C178 1.435 . S
N147 C184 1.423 . S
H148 C174 0.930 . S
H149 C177 0.931 . S
H150 C176 0.929 . S
H151 C179 0.930 . S
H152 C180 0.932 . S
H153 C183 0.929 . S
H154 C182 0.931 . S
H155 C185 0.929 . S
H156 C189 0.932 . S
H157 C186 0.931 . S
H158 C188 0.929 . S
H159 C191 0.929 . S
H160 C192 0.930 . S
H161 C194 0.929 . S
H162 C195 0.931 . S
H163 C197 0.930 . S
H164 C198 0.932 . S
H165 C200 0.931 . S
H166 C201 0.929 . S
H167 C203 0.929 . S
H168 C204 0.931 . S
H169 C206 0.929 . S
N170 C190 1.433 . S
N170 C196 1.435 . S
N170 C202 1.423 . S
H171 C207 0.932 . S
C172 N147 1.433 . S
C172 C173 1.363 . S
C172 C177 1.370 . S
C173 H146 0.929 . S
C173 C172 1.363 . S
C173 C174 1.385 . S
C174 H148 0.930 . S
C174 C173 1.385 . S
C174 C175 1.357 . S
C175 C174 1.357 . S
C175 C176 1.406 . S
C176 H150 0.929 . S
C176 C175 1.406 . S
C176 C177 1.391 . S
C177 H149 0.931 . S
C177 C172 1.370 . S
C177 C176 1.391 . S
C178 N147 1.435 . S
C178 C179 1.358 . S
C178 C183 1.371 . S
C179 H151 0.930 . S
C179 C178 1.358 . S
C179 C180 1.405 . S
C180 H152 0.932 . S
C180 C179 1.405 . S
C180 C181 1.383 . S
C181 C180 1.383 . S
C181 C182 1.393 . S
C182 H154 0.931 . S
C182 C181 1.393 . S
C182 C183 1.382 . S
C183 H153 0.929 . S
C183 C178 1.371 . S
C183 C182 1.382 . S
C184 N147 1.423 . S
C184 C185 1.362 . S
C184 C189 1.388 . S
C185 H155 0.929 . S
C185 C184 1.362 . S
C185 C186 1.376 . S
C186 H157 0.931 . S
C186 C185 1.376 . S
C186 C187 1.396 . S
C187 C186 1.396 . S
C187 C188 1.348 . S
C187 C205 1.472 . S
C188 H158 0.929 . S
C188 C187 1.348 . S
C188 C189 1.443 . S
C189 H156 0.932 . S
C189 C184 1.388 . S
C189 C188 1.443 . S
C190 N170 1.433 . S
C190 C191 1.363 . S
C190 C195 1.370 . S
C191 H159 0.929 . S
C191 C190 1.363 . S
C191 C192 1.385 . S
C192 H160 0.930 . S
C192 C191 1.385 . S
C192 C193 1.357 . S
C193 C192 1.357 . S
C193 C194 1.406 . S
C194 H161 0.929 . S
C194 C193 1.406 . S
C194 C195 1.391 . S
C195 H162 0.931 . S
C195 C190 1.370 . S
C195 C194 1.391 . S
C196 N170 1.435 . S
C196 C197 1.358 . S
C196 C201 1.371 . S
C197 H163 0.930 . S
C197 C196 1.358 . S
C197 C198 1.405 . S
C198 H164 0.932 . S
C198 C197 1.405 . S
C198 C199 1.383 . S
C199 C198 1.383 . S
C199 C200 1.393 . S
C200 H165 0.931 . S
C200 C199 1.393 . S
C200 C201 1.382 . S
C201 H166 0.929 . S
C201 C196 1.371 . S
C201 C200 1.382 . S
C202 N170 1.423 . S
C202 C203 1.362 . S
C202 C207 1.388 . S
C203 H167 0.929 . S
C203 C202 1.362 . S
C203 C204 1.376 . S
C204 H168 0.931 . S
C204 C203 1.376 . S
C204 C205 1.396 . S
C205 C187 1.472 . S
C205 C204 1.396 . S
C205 C206 1.348 . S
C206 H169 0.929 . S
C206 C205 1.348 . S
C206 C207 1.443 . S
C207 H171 0.932 . S
C207 C202 1.388 . S
C207 C206 1.443 . S
H208 C235 0.929 . S
N209 C234 1.433 . S
N209 C240 1.435 . S
N209 C246 1.423 . S
H210 C236 0.930 . S
H211 C239 0.931 . S
H212 C238 0.929 . S
H213 C241 0.930 . S
H214 C242 0.932 . S
H215 C245 0.929 . S
H216 C244 0.931 . S
H217 C247 0.929 . S
H218 C251 0.932 . S
H219 C248 0.931 . S
H220 C250 0.929 . S
H221 C253 0.929 . S
H222 C254 0.930 . S
H223 C256 0.929 . S
H224 C257 0.931 . S
H225 C259 0.930 . S
H226 C260 0.932 . S
H227 C262 0.931 . S
H228 C263 0.929 . S
H229 C265 0.929 . S
H230 C266 0.931 . S
H231 C268 0.929 . S
N232 C252 1.433 . S
N232 C258 1.435 . S
N232 C264 1.423 . S
H233 C269 0.932 . S
C234 N209 1.433 . S
C234 C235 1.363 . S
C234 C239 1.370 . S
C235 H208 0.929 . S
C235 C234 1.363 . S
C235 C236 1.385 . S
C236 H210 0.930 . S
C236 C235 1.385 . S
C236 C237 1.357 . S
C237 C236 1.357 . S
C237 C238 1.406 . S
C238 H212 0.929 . S
C238 C237 1.406 . S
C238 C239 1.391 . S
C239 H211 0.931 . S
C239 C234 1.370 . S
C239 C238 1.391 . S
C240 N209 1.435 . S
C240 C241 1.358 . S
C240 C245 1.371 . S
C241 H213 0.930 . S
C241 C240 1.358 . S
C241 C242 1.405 . S
C242 H214 0.932 . S
C242 C241 1.405 . S
C242 C243 1.383 . S
C243 C242 1.383 . S
C243 C244 1.393 . S
C244 H216 0.931 . S
C244 C243 1.393 . S
C244 C245 1.382 . S
C245 H215 0.929 . S
C245 C240 1.371 . S
C245 C244 1.382 . S
C246 N209 1.423 . S
C246 C247 1.362 . S
C246 C251 1.388 . S
C247 H217 0.929 . S
C247 C246 1.362 . S
C247 C248 1.376 . S
C248 H219 0.931 . S
C248 C247 1.376 . S
C248 C249 1.396 . S
C249 C248 1.396 . S
C249 C250 1.348 . S
C249 C267 1.472 . S
C250 H220 0.929 . S
C250 C249 1.348 . S
C250 C251 1.443 . S
C251 H218 0.932 . S
C251 C246 1.388 . S
C251 C250 1.443 . S
C252 N232 1.433 . S
C252 C253 1.363 . S
C252 C257 1.370 . S
C253 H221 0.929 . S
C253 C252 1.363 . S
C253 C254 1.385 . S
C254 H222 0.930 . S
C254 C253 1.385 . S
C254 C255 1.357 . S
C255 C254 1.357 . S
C255 C256 1.406 . S
C256 H223 0.929 . S
C256 C255 1.406 . S
C256 C257 1.391 . S
C257 H224 0.931 . S
C257 C252 1.370 . S
C257 C256 1.391 . S
C258 N232 1.435 . S
C258 C259 1.358 . S
C258 C263 1.371 . S
C259 H225 0.930 . S
C259 C258 1.358 . S
C259 C260 1.405 . S
C260 H226 0.932 . S
C260 C259 1.405 . S
C260 C261 1.383 . S
C261 C260 1.383 . S
C261 C262 1.393 . S
C262 H227 0.931 . S
C262 C261 1.393 . S
C262 C263 1.382 . S
C263 H228 0.929 . S
C263 C258 1.371 . S
C263 C262 1.382 . S
C264 N232 1.423 . S
C264 C265 1.362 . S
C264 C269 1.388 . S
C265 H229 0.929 . S
C265 C264 1.362 . S
C265 C266 1.376 . S
C266 H230 0.931 . S
C266 C265 1.376 . S
C266 C267 1.396 . S
C267 C249 1.472 . S
C267 C266 1.396 . S
C267 C268 1.348 . S
C268 H231 0.929 . S
C268 C267 1.348 . S
C268 C269 1.443 . S
C269 H233 0.932 . S
C269 C264 1.388 . S
C269 C268 1.443 . S
H270 C297 0.929 . S
N271 C296 1.433 . S
N271 C302 1.435 . S
N271 C308 1.423 . S
H272 C298 0.930 . S
H273 C301 0.931 . S
H274 C300 0.929 . S
H275 C303 0.930 . S
H276 C304 0.932 . S
H277 C307 0.929 . S
H278 C306 0.931 . S
H279 C309 0.929 . S
H280 C313 0.932 . S
H281 C310 0.931 . S
H282 C312 0.929 . S
H283 C315 0.929 . S
H284 C316 0.930 . S
H285 C318 0.929 . S
H286 C319 0.931 . S
H287 C321 0.930 . S
H288 C322 0.932 . S
H289 C324 0.931 . S
H290 C325 0.929 . S
H291 C327 0.929 . S
H292 C328 0.931 . S
H293 C330 0.929 . S
N294 C314 1.433 . S
N294 C320 1.435 . S
N294 C326 1.423 . S
H295 C331 0.932 . S
C296 N271 1.433 . S
C296 C297 1.363 . S
C296 C301 1.370 . S
C297 H270 0.929 . S
C297 C296 1.363 . S
C297 C298 1.385 . S
C298 H272 0.930 . S
C298 C297 1.385 . S
C298 C299 1.357 . S
C299 C298 1.357 . S
C299 C300 1.406 . S
C300 H274 0.929 . S
C300 C299 1.406 . S
C300 C301 1.391 . S
C301 H273 0.931 . S
C301 C296 1.370 . S
C301 C300 1.391 . S
C302 N271 1.435 . S
C302 C303 1.358 . S
C302 C307 1.371 . S
C303 H275 0.930 . S
C303 C302 1.358 . S
C303 C304 1.405 . S
C304 H276 0.932 . S
C304 C303 1.405 . S
C304 C305 1.383 . S
C305 C304 1.383 . S
C305 C306 1.393 . S
C306 H278 0.931 . S
C306 C305 1.393 . S
C306 C307 1.382 . S
C307 H277 0.929 . S
C307 C302 1.371 . S
C307 C306 1.382 . S
C308 N271 1.423 . S
C308 C309 1.362 . S
C308 C313 1.388 . S
C309 H279 0.929 . S
C309 C308 1.362 . S
C309 C310 1.376 . S
C310 H281 0.931 . S
C310 C309 1.376 . S
C310 C311 1.396 . S
C311 C310 1.396 . S
C311 C312 1.348 . S
C311 C329 1.472 . S
C312 H282 0.929 . S
C312 C311 1.348 . S
C312 C313 1.443 . S
C313 H280 0.932 . S
C313 C308 1.388 . S
C313 C312 1.443 . S
C314 N294 1.433 . S
C314 C315 1.363 . S
C314 C319 1.370 . S
C315 H283 0.929 . S
C315 C314 1.363 . S
C315 C316 1.385 . S
C316 H284 0.930 . S
C316 C315 1.385 . S
C316 C317 1.357 . S
C317 C316 1.357 . S
C317 C318 1.406 . S
C318 H285 0.929 . S
C318 C317 1.406 . S
C318 C319 1.391 . S
C319 H286 0.931 . S
C319 C314 1.370 . S
C319 C318 1.391 . S
C320 N294 1.435 . S
C320 C321 1.358 . S
C320 C325 1.371 . S
C321 H287 0.930 . S
C321 C320 1.358 . S
C321 C322 1.405 . S
C322 H288 0.932 . S
C322 C321 1.405 . S
C322 C323 1.383 . S
C323 C322 1.383 . S
C323 C324 1.393 . S
C324 H289 0.931 . S
C324 C323 1.393 . S
C324 C325 1.382 . S
C325 H290 0.929 . S
C325 C320 1.371 . S
C325 C324 1.382 . S
C326 N294 1.423 . S
C326 C327 1.362 . S
C326 C331 1.388 . S
C327 H291 0.929 . S
C327 C326 1.362 . S
C327 C328 1.376 . S
C328 H292 0.931 . S
C328 C327 1.376 . S
C328 C329 1.396 . S
C329 C311 1.472 . S
C329 C328 1.396 . S
C329 C330 1.348 . S
C330 H293 0.929 . S
C330 C329 1.348 . S
C330 C331 1.443 . S
C331 H295 0.932 . S
C331 C326 1.388 . S
C331 C330 1.443 . S
H332 C359 0.929 . S
N333 C358 1.433 . S
N333 C364 1.435 . S
N333 C370 1.423 . S
H334 C360 0.930 . S
H335 C363 0.931 . S
H336 C362 0.929 . S
H337 C365 0.930 . S
H338 C366 0.932 . S
H339 C369 0.929 . S
H340 C368 0.931 . S
H341 C371 0.929 . S
H342 C375 0.932 . S
H343 C372 0.931 . S
H344 C374 0.929 . S
H345 C377 0.929 . S
H346 C378 0.930 . S
H347 C380 0.929 . S
H348 C381 0.931 . S
H349 C383 0.930 . S
H350 C384 0.932 . S
H351 C386 0.931 . S
H352 C387 0.929 . S
H353 C389 0.929 . S
H354 C390 0.931 . S
H355 C392 0.929 . S
N356 C376 1.433 . S
N356 C382 1.435 . S
N356 C388 1.423 . S
H357 C393 0.932 . S
C358 N333 1.433 . S
C358 C359 1.363 . S
C358 C363 1.370 . S
C359 H332 0.929 . S
C359 C358 1.363 . S
C359 C360 1.385 . S
C360 H334 0.930 . S
C360 C359 1.385 . S
C360 C361 1.357 . S
C361 C360 1.357 . S
C361 C362 1.406 . S
C362 H336 0.929 . S
C362 C361 1.406 . S
C362 C363 1.391 . S
C363 H335 0.931 . S
C363 C358 1.370 . S
C363 C362 1.391 . S
C364 N333 1.435 . S
C364 C365 1.358 . S
C364 C369 1.371 . S
C365 H337 0.930 . S
C365 C364 1.358 . S
C365 C366 1.405 . S
C366 H338 0.932 . S
C366 C365 1.405 . S
C366 C367 1.383 . S
C367 C366 1.383 . S
C367 C368 1.393 . S
C368 H340 0.931 . S
C368 C367 1.393 . S
C368 C369 1.382 . S
C369 H339 0.929 . S
C369 C364 1.371 . S
C369 C368 1.382 . S
C370 N333 1.423 . S
C370 C371 1.362 . S
C370 C375 1.388 . S
C371 H341 0.929 . S
C371 C370 1.362 . S
C371 C372 1.376 . S
C372 H343 0.931 . S
C372 C371 1.376 . S
C372 C373 1.396 . S
C373 C372 1.396 . S
C373 C374 1.348 . S
C373 C391 1.472 . S
C374 H344 0.929 . S
C374 C373 1.348 . S
C374 C375 1.443 . S
C375 H342 0.932 . S
C375 C370 1.388 . S
C375 C374 1.443 . S
C376 N356 1.433 . S
C376 C377 1.363 . S
C376 C381 1.370 . S
C377 H345 0.929 . S
C377 C376 1.363 . S
C377 C378 1.385 . S
C378 H346 0.930 . S
C378 C377 1.385 . S
C378 C379 1.357 . S
C379 C378 1.357 . S
C379 C380 1.406 . S
C380 H347 0.929 . S
C380 C379 1.406 . S
C380 C381 1.391 . S
C381 H348 0.931 . S
C381 C376 1.370 . S
C381 C380 1.391 . S
C382 N356 1.435 . S
C382 C383 1.358 . S
C382 C387 1.371 . S
C383 H349 0.930 . S
C383 C382 1.358 . S
C383 C384 1.405 . S
C384 H350 0.932 . S
C384 C383 1.405 . S
C384 C385 1.383 . S
C385 C384 1.383 . S
C385 C386 1.393 . S
C386 H351 0.931 . S
C386 C385 1.393 . S
C386 C387 1.382 . S
C387 H352 0.929 . S
C387 C382 1.371 . S
C387 C386 1.382 . S
C388 N356 1.423 . S
C388 C389 1.362 . S
C388 C393 1.388 . S
C389 H353 0.929 . S
C389 C388 1.362 . S
C389 C390 1.376 . S
C390 H354 0.931 . S
C390 C389 1.376 . S
C390 C391 1.396 . S
C391 C373 1.472 . S
C391 C390 1.396 . S
C391 C392 1.348 . S
C392 H355 0.929 . S
C392 C391 1.348 . S
C392 C393 1.443 . S
C393 H357 0.932 . S
C393 C388 1.388 . S
C393 C392 1.443 . S
H394 C421 0.929 . S
N395 C420 1.433 . S
N395 C426 1.435 . S
N395 C432 1.423 . S
H396 C422 0.930 . S
H397 C425 0.931 . S
H398 C424 0.929 . S
H399 C427 0.930 . S
H400 C428 0.932 . S
H401 C431 0.929 . S
H402 C430 0.931 . S
H403 C433 0.929 . S
H404 C437 0.932 . S
H405 C434 0.931 . S
H406 C436 0.929 . S
H407 C439 0.929 . S
H408 C440 0.930 . S
H409 C442 0.929 . S
H410 C443 0.931 . S
H411 C445 0.930 . S
H412 C446 0.932 . S
H413 C448 0.931 . S
H414 C449 0.929 . S
H415 C451 0.929 . S
H416 C452 0.931 . S
H417 C454 0.929 . S
N418 C438 1.433 . S
N418 C444 1.435 . S
N418 C450 1.423 . S
H419 C455 0.932 . S
C420 N395 1.433 . S
C420 C421 1.363 . S
C420 C425 1.370 . S
C421 H394 0.929 . S
C421 C420 1.363 . S
C421 C422 1.385 . S
C422 H396 0.930 . S
C422 C421 1.385 . S
C422 C423 1.357 . S
C423 C422 1.357 . S
C423 C424 1.406 . S
C424 H398 0.929 . S
C424 C423 1.406 . S
C424 C425 1.391 . S
C425 H397 0.931 . S
C425 C420 1.370 . S
C425 C424 1.391 . S
C426 N395 1.435 . S
C426 C427 1.358 . S
C426 C431 1.371 . S
C427 H399 0.930 . S
C427 C426 1.358 . S
C427 C428 1.405 . S
C428 H400 0.932 . S
C428 C427 1.405 . S
C428 C429 1.383 . S
C429 C428 1.383 . S
C429 C430 1.393 . S
C430 H402 0.931 . S
C430 C429 1.393 . S
C430 C431 1.382 . S
C431 H401 0.929 . S
C431 C426 1.371 . S
C431 C430 1.382 . S
C432 N395 1.423 . S
C432 C433 1.362 . S
C432 C437 1.388 . S
C433 H403 0.929 . S
C433 C432 1.362 . S
C433 C434 1.376 . S
C434 H405 0.931 . S
C434 C433 1.376 . S
C434 C435 1.396 . S
C435 C434 1.396 . S
C435 C436 1.348 . S
C435 C453 1.472 . S
C436 H406 0.929 . S
C436 C435 1.348 . S
C436 C437 1.443 . S
C437 H404 0.932 . S
C437 C432 1.388 . S
C437 C436 1.443 . S
C438 N418 1.433 . S
C438 C439 1.363 . S
C438 C443 1.370 . S
C439 H407 0.929 . S
C439 C438 1.363 . S
C439 C440 1.385 . S
C440 H408 0.930 . S
C440 C439 1.385 . S
C440 C441 1.357 . S
C441 C440 1.357 . S
C441 C442 1.406 . S
C442 H409 0.929 . S
C442 C441 1.406 . S
C442 C443 1.391 . S
C443 H410 0.931 . S
C443 C438 1.370 . S
C443 C442 1.391 . S
C444 N418 1.435 . S
C444 C445 1.358 . S
C444 C449 1.371 . S
C445 H411 0.930 . S
C445 C444 1.358 . S
C445 C446 1.405 . S
C446 H412 0.932 . S
C446 C445 1.405 . S
C446 C447 1.383 . S
C447 C446 1.383 . S
C447 C448 1.393 . S
C448 H413 0.931 . S
C448 C447 1.393 . S
C448 C449 1.382 . S
C449 H414 0.929 . S
C449 C444 1.371 . S
C449 C448 1.382 . S
C450 N418 1.423 . S
C450 C451 1.362 . S
C450 C455 1.388 . S
C451 H415 0.929 . S
C451 C450 1.362 . S
C451 C452 1.376 . S
C452 H416 0.931 . S
C452 C451 1.376 . S
C452 C453 1.396 . S
C453 C435 1.472 . S
C453 C452 1.396 . S
C453 C454 1.348 . S
C454 H417 0.929 . S
C454 C453 1.348 . S
C454 C455 1.443 . S
C455 H419 0.932 . S
C455 C450 1.388 . S
C455 C454 1.443 . S
H456 C462 0.930 . S
H457 C466 0.930 . S
H458 C471 0.929 . S
H459 C469 0.929 . S
H460 C464 0.929 . S
H461 C470 0.929 . S
C462 H456 0.930 . S
C462 C463 1.367 . S
C462 C470 1.378 . S
C463 C462 1.367 . S
C463 C471 1.433 . S
C464 H460 0.929 . S
C464 C466 1.378 . S
C464 C468 1.350 . S
C465 C468 1.463 . S
C465 C470 1.350 . S
C465 N473 1.427 . S
C466 H457 0.930 . S
C466 C464 1.378 . S
C466 C467 1.367 . S
C467 C466 1.367 . S
C467 C469 1.433 . S
C468 C464 1.350 . S
C468 C465 1.463 . S
C468 N472 1.427 . S
C469 H459 0.929 . S
C469 C467 1.433 . S
C469 N472 1.384 . S
C470 H461 0.929 . S
C470 C462 1.378 . S
C470 C465 1.350 . S
C471 H458 0.929 . S
C471 C463 1.433 . S
C471 N473 1.384 . S
N472 C468 1.427 . S
N472 C469 1.384 . S
N473 C465 1.427 . S
N473 C471 1.384 . S
H474 C480 0.930 . S
H475 C484 0.930 . S
H476 C489 0.929 . S
H477 C487 0.929 . S
H478 C482 0.929 . S
H479 C488 0.929 . S
C480 H474 0.930 . S
C480 C481 1.367 . S
C480 C488 1.378 . S
C481 C480 1.367 . S
C481 C489 1.433 . S
C482 H478 0.929 . S
C482 C484 1.378 . S
C482 C486 1.350 . S
C483 C486 1.463 . S
C483 C488 1.350 . S
C483 N491 1.427 . S
C484 H475 0.930 . S
C484 C482 1.378 . S
C484 C485 1.367 . S
C485 C484 1.367 . S
C485 C487 1.433 . S
C486 C482 1.350 . S
C486 C483 1.463 . S
C486 N490 1.427 . S
C487 H477 0.929 . S
C487 C485 1.433 . S
C487 N490 1.384 . S
C488 H479 0.929 . S
C488 C480 1.378 . S
C488 C483 1.350 . S
C489 H476 0.929 . S
C489 C481 1.433 . S
C489 N491 1.384 . S
N490 C486 1.427 . S
N490 C487 1.384 . S
N491 C483 1.427 . S
N491 C489 1.384 . S
H492 C498 0.930 . S
H493 C502 0.930 . S
H494 C507 0.929 . S
H495 C505 0.929 . S
H496 C500 0.929 . S
H497 C506 0.929 . S
C498 H492 0.930 . S
C498 C499 1.367 . S
C498 C506 1.378 . S
C499 C498 1.367 . S
C499 C507 1.433 . S
C500 H496 0.929 . S
C500 C502 1.378 . S
C500 C504 1.350 . S
C501 C504 1.463 . S
C501 C506 1.350 . S
C501 N509 1.427 . S
C502 H493 0.930 . S
C502 C500 1.378 . S
C502 C503 1.367 . S
C503 C502 1.367 . S
C503 C505 1.433 . S
C504 C500 1.350 . S
C504 C501 1.463 . S
C504 N508 1.427 . S
C505 H495 0.929 . S
C505 C503 1.433 . S
C505 N508 1.384 . S
C506 H497 0.929 . S
C506 C498 1.378 . S
C506 C501 1.350 . S
C507 H494 0.929 . S
C507 C499 1.433 . S
C507 N509 1.384 . S
N508 C504 1.427 . S
N508 C505 1.384 . S
N509 C501 1.427 . S
N509 C507 1.384 . S
H510 C516 0.930 . S
H511 C520 0.930 . S
H512 C525 0.929 . S
H513 C523 0.929 . S
H514 C518 0.929 . S
H515 C524 0.929 . S
C516 H510 0.930 . S
C516 C517 1.367 . S
C516 C524 1.378 1_455 S
C517 C516 1.367 . S
C517 C525 1.433 . S
C518 H514 0.929 . S
C518 C520 1.378 . S
C518 C522 1.350 . S
C519 C522 1.463 . S
C519 C524 1.350 . S
C519 N527 1.427 . S
C520 H511 0.930 . S
C520 C518 1.378 . S
C520 C521 1.367 . S
C521 C520 1.367 . S
C521 C523 1.433 . S
C522 C518 1.350 . S
C522 C519 1.463 . S
C522 N526 1.427 . S
C523 H513 0.929 . S
C523 C521 1.433 . S
C523 N526 1.384 . S
C524 H515 0.929 . S
C524 C516 1.378 1_655 S
C524 C519 1.350 . S
C525 H512 0.929 . S
C525 C517 1.433 . S
C525 N527 1.384 1_455 S
N526 C522 1.427 . S
N526 C523 1.384 . S
N527 C519 1.427 . S
N527 C525 1.384 1_655 S
H528 C534 0.930 . S
H529 C538 0.930 . S
H530 C543 0.929 . S
H531 C541 0.929 . S
H532 C536 0.929 . S
H533 C542 0.929 . S
C534 H528 0.930 . S
C534 C535 1.367 . S
C534 C542 1.378 . S
C535 C534 1.367 . S
C535 C543 1.433 . S
C536 H532 0.929 . S
C536 C538 1.378 . S
C536 C540 1.350 . S
C537 C540 1.463 . S
C537 C542 1.350 . S
C537 N545 1.427 . S
C538 H529 0.930 . S
C538 C536 1.378 . S
C538 C539 1.367 . S
C539 C538 1.367 . S
C539 C541 1.433 . S
C540 C536 1.350 . S
C540 C537 1.463 . S
C540 N544 1.427 . S
C541 H531 0.929 . S
C541 C539 1.433 . S
C541 N544 1.384 . S
C542 H533 0.929 . S
C542 C534 1.378 . S
C542 C537 1.350 . S
C543 H530 0.929 . S
C543 C535 1.433 . S
C543 N545 1.384 . S
N544 C540 1.427 . S
N544 C541 1.384 . S
N545 C537 1.427 . S
N545 C543 1.384 . S
H546 C552 0.930 . S
H547 C556 0.930 . S
H548 C561 0.929 . S
H549 C559 0.929 . S
H550 C554 0.929 . S
H551 C560 0.929 . S
C552 H546 0.930 . S
C552 C553 1.367 . S
C552 C560 1.378 . S
C553 C552 1.367 . S
C553 C561 1.433 . S
C554 H550 0.929 . S
C554 C556 1.378 . S
C554 C558 1.350 . S
C555 C558 1.463 . S
C555 C560 1.350 . S
C555 N563 1.427 . S
C556 H547 0.930 . S
C556 C554 1.378 . S
C556 C557 1.367 . S
C557 C556 1.367 . S
C557 C559 1.433 . S
C558 C554 1.350 . S
C558 C555 1.463 . S
C558 N562 1.427 . S
C559 H549 0.929 . S
C559 C557 1.433 . S
C559 N562 1.384 . S
C560 H551 0.929 . S
C560 C552 1.378 . S
C560 C555 1.350 . S
C561 H548 0.929 . S
C561 C553 1.433 . S
C561 N563 1.384 . S
N562 C558 1.427 . S
N562 C559 1.384 . S
N563 C555 1.427 . S
N563 C561 1.384 . S
H564 C570 0.930 . S
H565 C574 0.930 . S
H566 C579 0.929 . S
H567 C577 0.929 . S
H568 C572 0.929 . S
H569 C578 0.929 . S
C570 H564 0.930 . S
C570 C571 1.367 . S
C570 C578 1.378 . S
C571 C570 1.367 . S
C571 C579 1.433 . S
C572 H568 0.929 . S
C572 C574 1.378 . S
C572 C576 1.350 . S
C573 C576 1.463 . S
C573 C578 1.350 . S
C573 N581 1.427 . S
C574 H565 0.930 . S
C574 C572 1.378 . S
C574 C575 1.367 . S
C575 C574 1.367 . S
C575 C577 1.433 . S
C576 C572 1.350 . S
C576 C573 1.463 . S
C576 N580 1.427 . S
C577 H567 0.929 . S
C577 C575 1.433 . S
C577 N580 1.384 . S
C578 H569 0.929 . S
C578 C570 1.378 . S
C578 C573 1.350 . S
C579 H566 0.929 . S
C579 C571 1.433 . S
C579 N581 1.384 . S
N580 C576 1.427 . S
N580 C577 1.384 . S
N581 C573 1.427 . S
N581 C579 1.384 . S
H582 C588 0.956 . S
H583 C592 0.930 . S
H584 C597 0.929 . S
H585 C595 0.929 . S
H586 C590 0.929 . S
H587 C596 0.929 . S
C588 H582 0.956 . S
C588 C589 1.367 . S
C588 C596 1.378 . S
C589 C588 1.367 . S
C589 C597 1.433 . S
C590 H586 0.929 . S
C590 C592 1.378 . S
C590 C594 1.350 . S
C591 C594 1.463 . S
C591 C596 1.350 . S
C591 N599 1.427 . S
C592 H583 0.930 . S
C592 C590 1.378 . S
C592 C593 1.367 . S
C593 C592 1.367 . S
C593 C595 1.433 . S
C594 C590 1.350 . S
C594 C591 1.463 . S
C594 N598 1.427 . S
C595 H585 0.929 . S
C595 C593 1.433 . S
C595 N598 1.384 . S
C596 H587 0.929 . S
C596 C588 1.378 . S
C596 C591 1.350 . S
C597 H584 0.929 . S
C597 C589 1.433 . S
C597 N599 1.384 . S
N598 C594 1.427 . S
N598 C595 1.384 . S
N599 C591 1.427 . S
N599 C597 1.384 . S
H600 C606 0.930 . S
H601 C610 0.930 . S
H602 C615 0.929 . S
H603 C613 0.929 . S
H604 C608 0.929 . S
H605 C614 0.929 . S
C606 H600 0.930 . S
C606 C607 1.367 . S
C606 C614 1.378 . S
C607 C606 1.367 . S
C607 C615 1.433 . S
C608 H604 0.929 . S
C608 C610 1.378 . S
C608 C612 1.350 . S
C609 C612 1.463 . S
C609 C614 1.350 . S
C609 N617 1.427 . S
C610 H601 0.930 . S
C610 C608 1.378 . S
C610 C611 1.367 . S
C611 C610 1.367 . S
C611 C613 1.433 . S
C612 C608 1.350 . S
C612 C609 1.463 . S
C612 N616 1.427 . S
C613 H603 0.929 . S
C613 C611 1.433 . S
C613 N616 1.384 . S
C614 H605 0.929 . S
C614 C606 1.378 . S
C614 C609 1.350 . S
C615 H602 0.929 . S
C615 C607 1.433 . S
C615 N617 1.384 . S
N616 C612 1.427 . S
N616 C613 1.384 . S
N617 C609 1.427 . S
N617 C615 1.384 . S
H618 C624 0.930 . S
H619 C628 0.930 . S
H620 C633 0.929 . S
H621 C631 0.929 . S
H622 C626 0.929 . S
H623 C632 0.929 . S
C624 H618 0.930 . S
C624 C625 1.367 . S
C624 C632 1.378 . S
C625 C624 1.367 . S
C625 C633 1.433 . S
C626 H622 0.929 . S
C626 C628 1.378 . S
C626 C630 1.350 . S
C627 C630 1.463 . S
C627 C632 1.350 . S
C627 N635 1.427 . S
C628 H619 0.930 . S
C628 C626 1.378 . S
C628 C629 1.367 . S
C629 C628 1.367 . S
C629 C631 1.433 . S
C630 C626 1.350 . S
C630 C627 1.463 . S
C630 N634 1.427 . S
C631 H621 0.929 . S
C631 C629 1.433 . S
C631 N634 1.384 . S
C632 H623 0.929 . S
C632 C624 1.378 . S
C632 C627 1.350 . S
C633 H620 0.929 . S
C633 C625 1.433 . S
C633 N635 1.384 . S
N634 C630 1.427 . S
N634 C631 1.384 . S
N635 C627 1.427 . S
N635 C633 1.384 . S
H636 C642 0.930 . S
H637 C646 0.930 . S
H638 C651 0.929 . S
H639 C649 0.929 . S
H640 C644 0.929 . S
H641 C650 0.929 . S
C642 H636 0.930 . S
C642 C643 1.367 . S
C642 C650 1.378 . S
C643 C642 1.367 . S
C643 C651 1.433 . S
C644 H640 0.929 . S
C644 C646 1.378 . S
C644 C648 1.350 . S
C645 C648 1.463 . S
C645 C650 1.350 . S
C645 N653 1.427 . S
C646 H637 0.930 . S
C646 C644 1.378 . S
C646 C647 1.367 . S
C647 C646 1.367 . S
C647 C649 1.433 . S
C648 C644 1.350 . S
C648 C645 1.463 . S
C648 N652 1.427 . S
C649 H639 0.929 . S
C649 C647 1.433 . S
C649 N652 1.384 . S
C650 H641 0.929 . S
C650 C642 1.378 . S
C650 C645 1.350 . S
C651 H638 0.929 . S
C651 C643 1.433 . S
C651 N653 1.384 . S
N652 C648 1.427 . S
N652 C649 1.384 . S
N653 C645 1.427 . S
N653 C651 1.384 . S
H654 C660 0.930 . S
H655 C664 0.930 . S
H656 C669 0.929 . S
H657 C667 0.929 . S
H658 C662 0.929 . S
H659 C668 0.929 . S
C660 H654 0.930 . S
C660 C661 1.367 1_556 S
C660 C668 1.378 . S
C661 C660 1.367 1_554 S
C661 C669 1.433 . S
C662 H658 0.929 . S
C662 C664 1.378 . S
C662 C666 1.350 . S
C663 C666 1.463 . S
C663 C668 1.350 . S
C663 N671 1.427 1_556 S
C664 H655 0.930 . S
C664 C662 1.378 . S
C664 C665 1.367 . S
C665 C664 1.367 . S
C665 C667 1.433 . S
C666 C662 1.350 . S
C666 C663 1.463 . S
C666 N670 1.427 . S
C667 H657 0.929 . S
C667 C665 1.433 . S
C667 N670 1.384 . S
C668 H659 0.929 . S
C668 C660 1.378 . S
C668 C663 1.350 . S
C669 H656 0.929 . S
C669 C661 1.433 . S
C669 N671 1.384 . S
N670 C666 1.427 . S
N670 C667 1.384 . S
N671 C663 1.427 1_554 S
N671 C669 1.384 . S
H672 C678 0.930 . S
H673 C682 0.930 . S
H674 C687 0.929 . S
H675 C685 0.929 . S
H676 C680 0.929 . S
H677 C686 0.929 . S
C678 H672 0.930 . S
C678 C679 1.367 1_556 S
C678 C686 1.378 . S
C679 C678 1.367 1_554 S
C679 C687 1.433 . S
C680 H676 0.929 . S
C680 C682 1.378 . S
C680 C684 1.350 . S
C681 C684 1.463 . S
C681 C686 1.350 . S
C681 N689 1.427 . S
C682 H673 0.930 . S
C682 C680 1.378 . S
C682 C683 1.367 . S
C683 C682 1.367 . S
C683 C685 1.433 . S
C684 C680 1.350 . S
C684 C681 1.463 . S
C684 N688 1.427 . S
C685 H675 0.929 . S
C685 C683 1.433 . S
C685 N688 1.384 . S
C686 H677 0.929 . S
C686 C678 1.378 . S
C686 C681 1.350 . S
C687 H674 0.929 . S
C687 C679 1.433 . S
C687 N689 1.384 1_554 S
N688 C684 1.427 . S
N688 C685 1.384 . S
N689 C681 1.427 . S
N689 C687 1.384 1_556 S
H690 C696 0.930 . S
H691 C700 0.930 . S
H692 C705 0.929 . S
H693 C703 0.929 . S
H694 C698 0.929 . S
H695 C704 0.929 . S
C696 H690 0.930 . S
C696 C697 1.367 . S
C696 C704 1.378 . S
C697 C696 1.367 . S
C697 C705 1.433 . S
C698 H694 0.929 . S
C698 C700 1.378 . S
C698 C702 1.350 . S
C699 C702 1.463 . S
C699 C704 1.350 . S
C699 N707 1.427 . S
C700 H691 0.930 . S
C700 C698 1.378 . S
C700 C701 1.367 . S
C701 C700 1.367 . S
C701 C703 1.433 . S
C702 C698 1.350 . S
C702 C699 1.463 . S
C702 N706 1.427 . S
C703 H693 0.929 . S
C703 C701 1.433 . S
C703 N706 1.384 . S
C704 H695 0.929 . S
C704 C696 1.378 . S
C704 C699 1.350 . S
C705 H692 0.929 . S
C705 C697 1.433 . S
C705 N707 1.384 . S
N706 C702 1.427 . S
N706 C703 1.384 . S
N707 C699 1.427 . S
N707 C705 1.384 . S
H708 C714 0.930 . S
H709 C718 0.930 . S
H710 C723 0.929 . S
H711 C721 0.929 . S
H712 C716 0.929 . S
H713 C722 0.929 . S
C714 H708 0.930 . S
C714 C715 1.367 . S
C714 C722 1.378 . S
C715 C714 1.367 . S
C715 C723 1.433 . S
C716 H712 0.929 . S
C716 C718 1.378 . S
C716 C720 1.350 . S
C717 C720 1.463 . S
C717 C722 1.350 . S
C717 N725 1.427 . S
C718 H709 0.930 . S
C718 C716 1.378 . S
C718 C719 1.367 . S
C719 C718 1.367 . S
C719 C721 1.433 . S
C720 C716 1.350 . S
C720 C717 1.463 . S
C720 N724 1.427 . S
C721 H711 0.929 . S
C721 C719 1.433 . S
C721 N724 1.384 . S
C722 H713 0.929 . S
C722 C714 1.378 . S
C722 C717 1.350 . S
C723 H710 0.929 . S
C723 C715 1.433 . S
C723 N725 1.384 . S
N724 C720 1.427 . S
N724 C721 1.384 . S
N725 C717 1.427 . S
N725 C723 1.384 . S
H726 C732 0.930 . S
H727 C736 0.930 . S
H728 C741 0.929 . S
H729 C739 0.929 . S
H730 C734 0.929 . S
H731 C740 0.929 . S
C732 H726 0.930 . S
C732 C733 1.367 . S
C732 C740 1.378 . S
C733 C732 1.367 . S
C733 C741 1.433 . S
C734 H730 0.929 . S
C734 C736 1.378 . S
C734 C738 1.350 . S
C735 C738 1.463 . S
C735 C740 1.350 . S
C735 N743 1.427 . S
C736 H727 0.930 . S
C736 C734 1.378 . S
C736 C737 1.367 . S
C737 C736 1.367 . S
C737 C739 1.433 . S
C738 C734 1.350 . S
C738 C735 1.463 . S
C738 N742 1.427 . S
C739 H729 0.929 . S
C739 C737 1.433 . S
C739 N742 1.384 . S
C740 H731 0.929 . S
C740 C732 1.378 . S
C740 C735 1.350 . S
C741 H728 0.929 . S
C741 C733 1.433 . S
C741 N743 1.384 . S
N742 C738 1.427 . S
N742 C739 1.384 . S
N743 C735 1.427 . S
N743 C741 1.384 . S
H744 C750 0.930 1_554 S
H745 C754 0.930 . S
H746 C759 0.929 . S
H747 C757 0.929 . S
H748 C752 0.929 . S
H749 C758 0.929 . S
C750 H744 0.930 1_556 S
C750 C751 1.367 . S
C750 C758 1.378 . S
C751 C750 1.367 . S
C751 C759 1.433 . S
C752 H748 0.929 . S
C752 C754 1.378 . S
C752 C756 1.350 . S
C753 C756 1.463 . S
C753 C758 1.350 . S
C753 N761 1.427 . S
C754 H745 0.930 . S
C754 C752 1.378 . S
C754 C755 1.367 . S
C755 C754 1.367 . S
C755 C757 1.433 . S
C756 C752 1.350 . S
C756 C753 1.463 . S
C756 N760 1.427 . S
C757 H747 0.929 . S
C757 C755 1.433 . S
C757 N760 1.384 . S
C758 H749 0.929 . S
C758 C750 1.378 . S
C758 C753 1.350 . S
C759 H746 0.929 . S
C759 C751 1.433 . S
C759 N761 1.384 . S
N760 C756 1.427 . S
N760 C757 1.384 . S
N761 C753 1.427 . S
N761 C759 1.384 . S
H762 C768 0.930 . S
H763 C772 0.930 . S
H764 C777 0.929 . S
H765 C775 0.929 . S
H766 C770 0.929 . S
H767 C776 0.929 . S
C768 H762 0.930 . S
C768 C769 1.367 . S
C768 C776 1.378 . S
C769 C768 1.367 . S
C769 C777 1.433 . S
C770 H766 0.929 . S
C770 C772 1.378 . S
C770 C774 1.350 . S
C771 C774 1.463 . S
C771 C776 1.350 . S
C771 N779 1.427 . S
C772 H763 0.930 . S
C772 C770 1.378 . S
C772 C773 1.367 . S
C773 C772 1.367 . S
C773 C775 1.433 . S
C774 C770 1.350 . S
C774 C771 1.463 . S
C774 N778 1.427 . S
C775 H765 0.929 . S
C775 C773 1.433 . S
C775 N778 1.384 . S
C776 H767 0.929 . S
C776 C768 1.378 . S
C776 C771 1.350 . S
C777 H764 0.929 . S
C777 C769 1.433 . S
C777 N779 1.384 . S
N778 C774 1.427 . S
N778 C775 1.384 . S
N779 C771 1.427 . S
N779 C777 1.384 . S
H780 C786 0.930 . S
H781 C790 0.930 . S
H782 C795 0.929 . S
H783 C793 0.929 . S
H784 C788 0.929 . S
H785 C794 0.929 . S
C786 H780 0.930 . S
C786 C787 1.367 . S
C786 C794 1.378 . S
C787 C786 1.367 . S
C787 C795 1.433 . S
C788 H784 0.929 . S
C788 C790 1.378 . S
C788 C792 1.350 . S
C789 C792 1.463 . S
C789 C794 1.350 . S
C789 N797 1.427 . S
C790 H781 0.930 . S
C790 C788 1.378 . S
C790 C791 1.367 . S
C791 C790 1.367 . S
C791 C793 1.433 . S
C792 C788 1.350 . S
C792 C789 1.463 . S
C792 N796 1.427 . S
C793 H783 0.929 . S
C793 C791 1.433 . S
C793 N796 1.384 . S
C794 H785 0.929 . S
C794 C786 1.378 . S
C794 C789 1.350 . S
C795 H782 0.929 . S
C795 C787 1.433 . S
C795 N797 1.384 . S
N796 C792 1.427 . S
N796 C793 1.384 . S
N797 C789 1.427 . S
N797 C795 1.384 . S
H798 C804 0.930 . S
H799 C808 0.930 . S
H800 C813 0.929 . S
H801 C811 0.929 . S
H802 C806 0.929 . S
H803 C812 0.929 . S
C804 H798 0.930 . S
C804 C805 1.367 . S
C804 C812 1.378 . S
C805 C804 1.367 . S
C805 C813 1.433 . S
C806 H802 0.929 . S
C806 C808 1.378 . S
C806 C810 1.350 . S
C807 C810 1.463 . S
C807 C812 1.350 . S
C807 N815 1.427 . S
C808 H799 0.930 . S
C808 C806 1.378 . S
C808 C809 1.367 . S
C809 C808 1.367 . S
C809 C811 1.433 . S
C810 C806 1.350 . S
C810 C807 1.463 . S
C810 N814 1.427 . S
C811 H801 0.929 . S
C811 C809 1.433 . S
C811 N814 1.384 . S
C812 H803 0.929 . S
C812 C804 1.378 . S
C812 C807 1.350 . S
C813 H800 0.929 . S
C813 C805 1.433 . S
C813 N815 1.384 . S
N814 C810 1.427 . S
N814 C811 1.384 . S
N815 C807 1.427 . S
N815 C813 1.384 . S
H816 C822 0.930 . S
H817 C826 0.930 . S
H818 C831 0.929 . S
H819 C829 0.929 . S
H820 C824 0.929 . S
H821 C830 0.929 . S
C822 H816 0.930 . S
C822 C823 1.367 . S
C822 C830 1.378 1_455 S
C823 C822 1.367 . S
C823 C831 1.433 . S
C824 H820 0.929 . S
C824 C826 1.378 . S
C824 C828 1.350 . S
C825 C828 1.463 . S
C825 C830 1.350 . S
C825 N833 1.427 1_655 S
C826 H817 0.930 . S
C826 C824 1.378 . S
C826 C827 1.367 . S
C827 C826 1.367 . S
C827 C829 1.433 . S
C828 C824 1.350 . S
C828 C825 1.463 . S
C828 N832 1.427 . S
C829 H819 0.929 . S
C829 C827 1.433 . S
C829 N832 1.384 . S
C830 H821 0.929 . S
C830 C822 1.378 1_655 S
C830 C825 1.350 . S
C831 H818 0.929 . S
C831 C823 1.433 . S
C831 N833 1.384 . S
N832 C828 1.427 . S
N832 C829 1.384 . S
N833 C825 1.427 1_455 S
N833 C831 1.384 . S
H834 C840 0.930 . S
H835 C844 0.930 . S
H836 C849 0.929 . S
H837 C847 0.929 . S
H838 C842 0.929 . S
H839 C848 0.929 . S
C840 H834 0.930 . S
C840 C841 1.367 . S
C840 C848 1.378 . S
C841 C840 1.367 . S
C841 C849 1.433 . S
C842 H838 0.929 . S
C842 C844 1.378 . S
C842 C846 1.350 . S
C843 C846 1.463 . S
C843 C848 1.350 . S
C843 N851 1.427 . S
C844 H835 0.930 . S
C844 C842 1.378 . S
C844 C845 1.367 . S
C845 C844 1.367 . S
C845 C847 1.433 . S
C846 C842 1.350 . S
C846 C843 1.463 . S
C846 N850 1.427 . S
C847 H837 0.929 . S
C847 C845 1.433 . S
C847 N850 1.384 . S
C848 H839 0.929 . S
C848 C840 1.378 . S
C848 C843 1.350 . S
C849 H836 0.929 . S
C849 C841 1.433 . S
C849 N851 1.384 . S
N850 C846 1.427 . S
N850 C847 1.384 . S
N851 C843 1.427 . S
N851 C849 1.384 . S
H852 C858 0.930 . S
H853 C862 0.930 . S
H854 C867 0.929 . S
H855 C865 0.929 . S
H856 C860 0.929 . S
H857 C866 0.929 . S
C858 H852 0.930 . S
C858 C859 1.367 . S
C858 C866 1.378 . S
C859 C858 1.367 . S
C859 C867 1.433 . S
C860 H856 0.929 . S
C860 C862 1.378 . S
C860 C864 1.350 . S
C861 C864 1.463 . S
C861 C866 1.350 . S
C861 N869 1.427 . S
C862 H853 0.930 . S
C862 C860 1.378 . S
C862 C863 1.367 . S
C863 C862 1.367 . S
C863 C865 1.433 . S
C864 C860 1.350 . S
C864 C861 1.463 . S
C864 N868 1.427 . S
C865 H855 0.929 . S
C865 C863 1.433 . S
C865 N868 1.384 . S
C866 H857 0.929 . S
C866 C858 1.378 . S
C866 C861 1.350 . S
C867 H854 0.929 . S
C867 C859 1.433 . S
C867 N869 1.384 . S
N868 C864 1.427 . S
N868 C865 1.384 . S
N869 C861 1.427 . S
N869 C867 1.384 . S
H870 C876 0.930 . S
H871 C880 0.930 . S
H872 C885 0.929 . S
H873 C883 0.929 . S
H874 C878 0.929 . S
H875 C884 0.929 . S
C876 H870 0.930 . S
C876 C877 1.367 . S
C876 C884 1.378 . S
C877 C876 1.367 . S
C877 C885 1.433 . S
C878 H874 0.929 . S
C878 C880 1.378 . S
C878 C882 1.350 . S
C879 C882 1.463 . S
C879 C884 1.350 . S
C879 N887 1.427 . S
C880 H871 0.930 . S
C880 C878 1.378 . S
C880 C881 1.367 . S
C881 C880 1.367 . S
C881 C883 1.433 . S
C882 C878 1.350 . S
C882 C879 1.463 . S
C882 N886 1.427 . S
C883 H873 0.929 . S
C883 C881 1.433 . S
C883 N886 1.384 . S
C884 H875 0.929 . S
C884 C876 1.378 . S
C884 C879 1.350 . S
C885 H872 0.929 . S
C885 C877 1.433 . S
C885 N887 1.384 . S
N886 C882 1.427 . S
N886 C883 1.384 . S
N887 C879 1.427 . S
N887 C885 1.384 . S
C463 C13 1.727 . S
C467 C137 1.635 . S
C481 C27 1.854 . S
C485 C181 1.790 . S
C503 C261 1.569 . S
C499 C29 1.647 . S
C521 C305 1.663 . S
C517 C54 1.722 . S
C539 C385 1.717 . S
C535 C69 1.832 . S
C557 C441 1.775 . S
C553 C83 1.941 . S
C571 C15 1.978 . S
C575 C237 1.751 . S
C589 C41 1.733 . S
C593 C317 1.617 . S
C611 C361 1.756 . S
C607 C42 1.931 . S
C629 C429 1.654 . S
C625 C57 1.692 . S
C643 C71 1.772 . S
C647 C113 1.599 . S
C665 C193 1.839 . S
C661 C1 1.927 . S
C683 C299 1.834 . S
C679 C12 1.932 . S
C697 C26 1.765 . S
C701 C379 1.577 . S
C719 C447 1.656 . S
C715 C28 1.691 . S
C733 C55 1.931 . S
C737 C131 1.756 . S
C751 C68 1.734 . S
C755 C175 1.615 . S
C769 C82 1.979 . S
C773 C255 1.751 . S
C787 C14 1.943 . S
C791 C423 1.780 . S
C809 C119 1.710 . S
C805 C40 1.828 . S
C823 C43 1.716 . S
C827 C199 1.649 . S
C841 C56 1.653 . S
C845 C243 1.580 . S
C859 C70 1.860 . S
C863 C323 1.789 . S
C877 C0 1.722 . S
C881 C367 1.624 . S
