# Generated by pormake.
# Topology bwt, (3,3)-cn, num edge types: 1
# Building blocks:
#     Node 0, Type 0, BuildingBlock: WUSLED_clean_sbu_0, # of connection points: 3
#     Node 1, Type 0, BuildingBlock: WUSLED_clean_sbu_0, # of connection points: 3
#     Node 2, Type 0, BuildingBlock: WUSLED_clean_sbu_0, # of connection points: 3
#     Node 3, Type 0, BuildingBlock: WUSLED_clean_sbu_0, # of connection points: 3
#     Node 4, Type 0, BuildingBlock: WUSLED_clean_sbu_0, # of connection points: 3
#     Node 5, Type 0, BuildingBlock: WUSLED_clean_sbu_0, # of connection points: 3
#     Node 6, Type 0, BuildingBlock: WUSLED_clean_sbu_0, # of connection points: 3
#     Node 7, Type 0, BuildingBlock: WUSLED_clean_sbu_0, # of connection points: 3
#     Node 8, Type 0, BuildingBlock: WUSLED_clean_sbu_0, # of connection points: 3
#     Node 9, Type 0, BuildingBlock: WUSLED_clean_sbu_0, # of connection points: 3
#     Node 10, Type 0, BuildingBlock: WUSLED_clean_sbu_0, # of connection points: 3
#     Node 11, Type 0, BuildingBlock: WUSLED_clean_sbu_0, # of connection points: 3
#     Node 12, Type 0, BuildingBlock: WUSLED_clean_sbu_0, # of connection points: 3
#     Node 13, Type 0, BuildingBlock: WUSLED_clean_sbu_0, # of connection points: 3
#     Node 14, Type 0, BuildingBlock: WUSLED_clean_sbu_0, # of connection points: 3
#     Node 15, Type 0, BuildingBlock: WUSLED_clean_sbu_0, # of connection points: 3
#     Node 16, Type 0, BuildingBlock: WUSLED_clean_sbu_0, # of connection points: 3
#     Node 17, Type 0, BuildingBlock: WUSLED_clean_sbu_0, # of connection points: 3
#     Node 18, Type 0, BuildingBlock: WUSLED_clean_sbu_0, # of connection points: 3
#     Node 19, Type 0, BuildingBlock: WUSLED_clean_sbu_0, # of connection points: 3
#     Node 20, Type 0, BuildingBlock: WUSLED_clean_sbu_0, # of connection points: 3
#     Node 21, Type 0, BuildingBlock: WUSLED_clean_sbu_0, # of connection points: 3
#     Node 22, Type 0, BuildingBlock: WUSLED_clean_sbu_0, # of connection points: 3
#     Node 23, Type 0, BuildingBlock: WUSLED_clean_sbu_0, # of connection points: 3
#     Node 24, Type 1, BuildingBlock: QEWDON_clean_linker_0, # of connection points: 3
#     Node 25, Type 1, BuildingBlock: QEWDON_clean_linker_0, # of connection points: 3
#     Node 26, Type 1, BuildingBlock: QEWDON_clean_linker_0, # of connection points: 3
#     Node 27, Type 1, BuildingBlock: QEWDON_clean_linker_0, # of connection points: 3
#     Node 28, Type 1, BuildingBlock: QEWDON_clean_linker_0, # of connection points: 3
#     Node 29, Type 1, BuildingBlock: QEWDON_clean_linker_0, # of connection points: 3
#     Node 30, Type 1, BuildingBlock: QEWDON_clean_linker_0, # of connection points: 3
#     Node 31, Type 1, BuildingBlock: QEWDON_clean_linker_0, # of connection points: 3
#     Node 32, Type 1, BuildingBlock: QEWDON_clean_linker_0, # of connection points: 3
#     Node 33, Type 1, BuildingBlock: QEWDON_clean_linker_0, # of connection points: 3
#     Node 34, Type 1, BuildingBlock: QEWDON_clean_linker_0, # of connection points: 3
#     Node 35, Type 1, BuildingBlock: QEWDON_clean_linker_0, # of connection points: 3
#     Node 36, Type 1, BuildingBlock: QEWDON_clean_linker_0, # of connection points: 3
#     Node 37, Type 1, BuildingBlock: QEWDON_clean_linker_0, # of connection points: 3
#     Node 38, Type 1, BuildingBlock: QEWDON_clean_linker_0, # of connection points: 3
#     Node 39, Type 1, BuildingBlock: QEWDON_clean_linker_0, # of connection points: 3
#     Node 40, Type 1, BuildingBlock: QEWDON_clean_linker_0, # of connection points: 3
#     Node 41, Type 1, BuildingBlock: QEWDON_clean_linker_0, # of connection points: 3
#     Node 42, Type 1, BuildingBlock: QEWDON_clean_linker_0, # of connection points: 3
#     Node 43, Type 1, BuildingBlock: QEWDON_clean_linker_0, # of connection points: 3
#     Node 44, Type 1, BuildingBlock: QEWDON_clean_linker_0, # of connection points: 3
#     Node 45, Type 1, BuildingBlock: QEWDON_clean_linker_0, # of connection points: 3
#     Node 46, Type 1, BuildingBlock: QEWDON_clean_linker_0, # of connection points: 3
#     Node 47, Type 1, BuildingBlock: QEWDON_clean_linker_0, # of connection points: 3
#     Edge 48, Type (0, 1), BuildingBlock: XIVTED_clean_linker_0, # of connection points: 2
#     Edge 49, Type (0, 1), BuildingBlock: XIVTED_clean_linker_0, # of connection points: 2
#     Edge 50, Type (0, 1), BuildingBlock: XIVTED_clean_linker_0, # of connection points: 2
#     Edge 51, Type (0, 1), BuildingBlock: XIVTED_clean_linker_0, # of connection points: 2
#     Edge 52, Type (0, 1), BuildingBlock: XIVTED_clean_linker_0, # of connection points: 2
#     Edge 53, Type (0, 1), BuildingBlock: XIVTED_clean_linker_0, # of connection points: 2
#     Edge 54, Type (0, 1), BuildingBlock: XIVTED_clean_linker_0, # of connection points: 2
#     Edge 55, Type (0, 1), BuildingBlock: XIVTED_clean_linker_0, # of connection points: 2
#     Edge 56, Type (0, 1), BuildingBlock: XIVTED_clean_linker_0, # of connection points: 2
#     Edge 57, Type (0, 1), BuildingBlock: XIVTED_clean_linker_0, # of connection points: 2
#     Edge 58, Type (0, 1), BuildingBlock: XIVTED_clean_linker_0, # of connection points: 2
#     Edge 59, Type (0, 1), BuildingBlock: XIVTED_clean_linker_0, # of connection points: 2
#     Edge 60, Type (0, 1), BuildingBlock: XIVTED_clean_linker_0, # of connection points: 2
#     Edge 61, Type (0, 1), BuildingBlock: XIVTED_clean_linker_0, # of connection points: 2
#     Edge 62, Type (0, 1), BuildingBlock: XIVTED_clean_linker_0, # of connection points: 2
#     Edge 63, Type (0, 1), BuildingBlock: XIVTED_clean_linker_0, # of connection points: 2
#     Edge 64, Type (0, 1), BuildingBlock: XIVTED_clean_linker_0, # of connection points: 2
#     Edge 65, Type (0, 1), BuildingBlock: XIVTED_clean_linker_0, # of connection points: 2
#     Edge 66, Type (0, 1), BuildingBlock: XIVTED_clean_linker_0, # of connection points: 2
#     Edge 67, Type (0, 1), BuildingBlock: XIVTED_clean_linker_0, # of connection points: 2
#     Edge 68, Type (0, 1), BuildingBlock: XIVTED_clean_linker_0, # of connection points: 2
#     Edge 69, Type (0, 1), BuildingBlock: XIVTED_clean_linker_0, # of connection points: 2
#     Edge 70, Type (0, 1), BuildingBlock: XIVTED_clean_linker_0, # of connection points: 2
#     Edge 71, Type (0, 1), BuildingBlock: XIVTED_clean_linker_0, # of connection points: 2
#     Edge 72, Type (0, 1), BuildingBlock: XIVTED_clean_linker_0, # of connection points: 2
#     Edge 73, Type (0, 1), BuildingBlock: XIVTED_clean_linker_0, # of connection points: 2
#     Edge 74, Type (0, 1), BuildingBlock: XIVTED_clean_linker_0, # of connection points: 2
#     Edge 75, Type (0, 1), BuildingBlock: XIVTED_clean_linker_0, # of connection points: 2
#     Edge 76, Type (0, 1), BuildingBlock: XIVTED_clean_linker_0, # of connection points: 2
#     Edge 77, Type (0, 1), BuildingBlock: XIVTED_clean_linker_0, # of connection points: 2
#     Edge 78, Type (0, 1), BuildingBlock: XIVTED_clean_linker_0, # of connection points: 2
#     Edge 79, Type (0, 1), BuildingBlock: XIVTED_clean_linker_0, # of connection points: 2
#     Edge 80, Type (0, 1), BuildingBlock: XIVTED_clean_linker_0, # of connection points: 2
#     Edge 81, Type (0, 1), BuildingBlock: XIVTED_clean_linker_0, # of connection points: 2
#     Edge 82, Type (0, 1), BuildingBlock: XIVTED_clean_linker_0, # of connection points: 2
#     Edge 83, Type (0, 1), BuildingBlock: XIVTED_clean_linker_0, # of connection points: 2
#     Edge 84, Type (0, 1), BuildingBlock: XIVTED_clean_linker_0, # of connection points: 2
#     Edge 85, Type (0, 1), BuildingBlock: XIVTED_clean_linker_0, # of connection points: 2
#     Edge 86, Type (0, 1), BuildingBlock: XIVTED_clean_linker_0, # of connection points: 2
#     Edge 87, Type (0, 1), BuildingBlock: XIVTED_clean_linker_0, # of connection points: 2
#     Edge 88, Type (0, 1), BuildingBlock: XIVTED_clean_linker_0, # of connection points: 2
#     Edge 89, Type (0, 1), BuildingBlock: XIVTED_clean_linker_0, # of connection points: 2
#     Edge 90, Type (0, 1), BuildingBlock: XIVTED_clean_linker_0, # of connection points: 2
#     Edge 91, Type (0, 1), BuildingBlock: XIVTED_clean_linker_0, # of connection points: 2
#     Edge 92, Type (0, 1), BuildingBlock: XIVTED_clean_linker_0, # of connection points: 2
#     Edge 93, Type (0, 1), BuildingBlock: XIVTED_clean_linker_0, # of connection points: 2
#     Edge 94, Type (0, 1), BuildingBlock: XIVTED_clean_linker_0, # of connection points: 2
#     Edge 95, Type (0, 1), BuildingBlock: XIVTED_clean_linker_0, # of connection points: 2
#     Edge 96, Type (0, 1), BuildingBlock: XIVTED_clean_linker_0, # of connection points: 2
#     Edge 97, Type (0, 1), BuildingBlock: XIVTED_clean_linker_0, # of connection points: 2
#     Edge 98, Type (0, 1), BuildingBlock: XIVTED_clean_linker_0, # of connection points: 2
#     Edge 99, Type (0, 1), BuildingBlock: XIVTED_clean_linker_0, # of connection points: 2
#     Edge 100, Type (0, 1), BuildingBlock: XIVTED_clean_linker_0, # of connection points: 2
#     Edge 101, Type (0, 1), BuildingBlock: XIVTED_clean_linker_0, # of connection points: 2
#     Edge 102, Type (0, 1), BuildingBlock: XIVTED_clean_linker_0, # of connection points: 2
#     Edge 103, Type (0, 1), BuildingBlock: XIVTED_clean_linker_0, # of connection points: 2
#     Edge 104, Type (0, 1), BuildingBlock: XIVTED_clean_linker_0, # of connection points: 2
#     Edge 105, Type (0, 1), BuildingBlock: XIVTED_clean_linker_0, # of connection points: 2
#     Edge 106, Type (0, 1), BuildingBlock: XIVTED_clean_linker_0, # of connection points: 2
#     Edge 107, Type (0, 1), BuildingBlock: XIVTED_clean_linker_0, # of connection points: 2
#     Edge 108, Type (0, 1), BuildingBlock: XIVTED_clean_linker_0, # of connection points: 2
#     Edge 109, Type (0, 1), BuildingBlock: XIVTED_clean_linker_0, # of connection points: 2
#     Edge 110, Type (0, 1), BuildingBlock: XIVTED_clean_linker_0, # of connection points: 2
#     Edge 111, Type (0, 1), BuildingBlock: XIVTED_clean_linker_0, # of connection points: 2
#     Edge 112, Type (0, 1), BuildingBlock: XIVTED_clean_linker_0, # of connection points: 2
#     Edge 113, Type (0, 1), BuildingBlock: XIVTED_clean_linker_0, # of connection points: 2
#     Edge 114, Type (0, 1), BuildingBlock: XIVTED_clean_linker_0, # of connection points: 2
#     Edge 115, Type (0, 1), BuildingBlock: XIVTED_clean_linker_0, # of connection points: 2
#     Edge 116, Type (0, 1), BuildingBlock: XIVTED_clean_linker_0, # of connection points: 2
#     Edge 117, Type (0, 1), BuildingBlock: XIVTED_clean_linker_0, # of connection points: 2
#     Edge 118, Type (0, 1), BuildingBlock: XIVTED_clean_linker_0, # of connection points: 2
#     Edge 119, Type (0, 1), BuildingBlock: XIVTED_clean_linker_0, # of connection points: 2
# Relax obj value: 0.072
# Max RMSD: 0.185
# Mean RMSD: 0.075
data_MOF--net-bwt--node1-WUSLED_clean_sbu_0--node2-QEWDON_clean_linker_0--edge1-XIVTED_clean_linker_0
_symmetry_space_group_name_H-M    P1
_symmetry_Int_Tables_number       1
_symmetry_cell_setting            triclinic
loop_
_symmetry_equiv_pos_as_xyz
'x, y, z'
_cell_length_a     70.771133
_cell_length_b     70.763541
_cell_length_c     70.755428
_cell_angle_alpha  95.589396
_cell_angle_beta   95.589752
_cell_angle_gamma 95.580368
loop_
_atom_site_label
_atom_site_type_symbol
_atom_site_fract_x
_atom_site_fract_y
_atom_site_fract_z
_atom_type_partial_charge
C0 C 0.25698 0.58405 0.316 0.0
C1 C 0.27435 0.59121 0.32686 0.0
C2 C 0.2917 0.58494 0.29917 0.0
C3 C 0.29149 0.59173 0.31852 0.0
C4 C 0.27428 0.57762 0.28842 0.0
C5 C 0.25713 0.57726 0.29673 0.0
U6 U 0.22624 0.56946 0.35454 0.0
O7 O 0.20653 0.58523 0.37053 0.0
O8 O 0.19591 0.55832 0.35294 0.0
C9 C 0.19149 0.57343 0.36325 0.0
C10 C 0.23867 0.58342 0.3245 0.0
C11 C 0.17437 0.58221 0.35594 0.0
C12 C 0.15428 0.60828 0.35807 0.0
C13 C 0.17128 0.60068 0.36342 0.0
C14 C 0.14315 0.57928 0.33736 0.0
C15 C 0.13987 0.59757 0.34519 0.0
C16 C 0.16015 0.57166 0.34273 0.0
C17 C 0.24958 0.54224 0.39399 0.0
C18 C 0.26044 0.54272 0.42777 0.0
C19 C 0.24301 0.51407 0.41056 0.0
C20 C 0.24158 0.52322 0.39388 0.0
C21 C 0.25258 0.52367 0.42768 0.0
C22 C 0.25904 0.55184 0.41113 0.0
C23 C 0.24945 0.55174 0.3762 0.0
O24 O 0.22911 0.56641 0.32367 0.0
O25 O 0.23877 0.59368 0.34104 0.0
O26 O 0.24908 0.57037 0.37813 0.0
O27 O 0.23852 0.54315 0.3611 0.0
H28 H 0.27475 0.5965 0.3418 0.0
H29 H 0.30453 0.59773 0.3272 0.0
H30 H 0.27388 0.57196 0.27359 0.0
H31 H 0.24394 0.57158 0.28809 0.0
H32 H 0.15231 0.62248 0.36424 0.0
H33 H 0.18181 0.60914 0.37379 0.0
H34 H 0.13225 0.57051 0.32764 0.0
H35 H 0.16189 0.55728 0.3369 0.0
H36 H 0.26763 0.55068 0.44075 0.0
H37 H 0.23697 0.49933 0.40993 0.0
H38 H 0.23444 0.51528 0.38087 0.0
H39 H 0.26557 0.56641 0.41166 0.0
C40 C 0.25258 0.38626 0.78587 0.0
C41 C 0.23875 0.39918 0.78584 0.0
C42 C 0.21539 0.37492 0.76775 0.0
C43 C 0.22034 0.39358 0.77681 0.0
C44 C 0.22922 0.36192 0.76812 0.0
C45 C 0.2477 0.36758 0.77708 0.0
U46 U 0.28715 0.42258 0.81775 0.0
O47 O 0.31118 0.41912 0.8389 0.0
O48 O 0.31612 0.43501 0.81437 0.0
C49 C 0.32383 0.4279 0.8294 0.0
C50 C 0.27208 0.39233 0.79492 0.0
C51 C 0.34098 0.41836 0.82644 0.0
C52 C 0.35667 0.39245 0.81186 0.0
C53 C 0.33991 0.40044 0.81576 0.0
C54 C 0.37554 0.42007 0.82963 0.0
C55 C 0.37472 0.40232 0.81852 0.0
C56 C 0.35885 0.42796 0.83356 0.0
C57 C 0.26903 0.46708 0.84063 0.0
C58 C 0.29117 0.49342 0.85668 0.0
C59 C 0.25728 0.49315 0.85943 0.0
C60 C 0.25383 0.47575 0.84778 0.0
C61 C 0.276 0.50216 0.86402 0.0
C62 C 0.28772 0.476 0.84514 0.0
C63 C 0.26536 0.44864 0.82871 0.0
O64 O 0.28051 0.40762 0.78882 0.0
O65 O 0.27433 0.39264 0.81362 0.0
O66 O 0.26785 0.43358 0.83779 0.0
O67 O 0.27286 0.44805 0.81241 0.0
H68 H 0.24224 0.41363 0.79271 0.0
H69 H 0.20994 0.40384 0.777 0.0
H70 H 0.22588 0.3475 0.76114 0.0
H71 H 0.25822 0.35743 0.77701 0.0
H72 H 0.35548 0.3787 0.80342 0.0
H73 H 0.32618 0.39285 0.81013 0.0
H74 H 0.3891 0.42831 0.83468 0.0
H75 H 0.35991 0.44187 0.84172 0.0
H76 H 0.30579 0.49981 0.86023 0.0
H77 H 0.2453 0.49957 0.86478 0.0
H78 H 0.23931 0.46903 0.84442 0.0
H79 H 0.29965 0.46942 0.83986 0.0
C80 C 0.66831 0.9962 0.64731 0.0
C81 C 0.68345 0.993 0.63636 0.0
C82 C 0.70445 0.99047 0.66518 0.0
C83 C 0.7013 0.99004 0.6452 0.0
C84 C 0.68933 0.99395 0.67612 0.0
C85 C 0.6714 0.99673 0.66724 0.0
U86 U 0.63868 0.01424 0.60681 0.0
O87 O 0.61207 0.00191 0.58952 0.0
O88 O 0.61337 0.0301 0.60601 0.0
C89 C 0.60273 0.01637 0.59483 0.0
C90 C 0.64945 0.99932 0.63807 0.0
C91 C 0.58293 0.01199 0.59924 0.0
C92 C 0.55599 0.98961 0.60434 0.0
C93 C 0.57549 0.99358 0.60251 0.0
C94 C 0.55133 0.02246 0.60011 0.0
C95 C 0.54363 0.00395 0.6028 0.0
C96 C 0.57072 0.02639 0.5983 0.0
C97 C 0.6626 0.03657 0.568 0.0
C98 C 0.64285 0.04904 0.5431 0.0
C99 C 0.67598 0.0452 0.53935 0.0
C100 C 0.67813 0.03836 0.55724 0.0
C101 C 0.65822 0.05034 0.53193 0.0
C102 C 0.645 0.04216 0.56095 0.0
C103 C 0.66439 0.02781 0.58597 0.0
O104 O 0.64616 0.01729 0.63802 0.0
O105 O 0.64398 0.98906 0.62158 0.0
O106 O 0.65782 0.00965 0.58448 0.0
O107 O 0.65903 0.03783 0.60077 0.0
H108 H 0.68149 0.9928 0.62096 0.0
H109 H 0.71273 0.98766 0.63641 0.0
H110 H 0.69129 0.99424 0.69152 0.0
H111 H 0.65992 0.99927 0.67593 0.0
H112 H 0.5505 0.97522 0.60639 0.0
H113 H 0.5846 0.98217 0.60321 0.0
H114 H 0.54232 0.03395 0.59929 0.0
H115 H 0.57612 0.04066 0.59571 0.0
H116 H 0.62905 0.05306 0.53792 0.0
H117 H 0.68804 0.04571 0.53102 0.0
H118 H 0.69177 0.03398 0.56244 0.0
H119 H 0.63282 0.04081 0.56908 0.0
C120 C 0.83688 0.99745 0.27387 0.0
C121 C 0.81911 0.98903 0.26486 0.0
C122 C 0.80399 0.99817 0.29333 0.0
C123 C 0.80281 0.98941 0.27447 0.0
C124 C 0.82186 0.00667 0.30228 0.0
C125 C 0.83818 0.00632 0.2926 0.0
U126 U 0.85852 0.97889 0.23047 0.0
O127 O 0.87897 0.99262 0.21306 0.0
O128 O 0.88547 0.96689 0.2264 0.0
C129 C 0.89177 0.98086 0.21689 0.0
C130 C 0.85397 0.99661 0.26372 0.0
C131 C 0.91158 0.98964 0.2227 0.0
C132 C 0.93999 0.00794 0.21455 0.0
C133 C 0.92065 0.00114 0.21047 0.0
C134 C 0.94141 0.9923 0.24351 0.0
C135 C 0.95075 0.00324 0.23089 0.0
C136 C 0.92204 0.9856 0.23949 0.0
C137 C 0.82418 0.94693 0.19252 0.0
C138 C 0.83402 0.93149 0.16346 0.0
C139 C 0.80048 0.92966 0.16829 0.0
C140 C 0.80513 0.94042 0.18603 0.0
C141 C 0.81484 0.92517 0.1567 0.0
C142 C 0.83865 0.94231 0.18124 0.0
C143 C 0.82856 0.95878 0.21092 0.0
O144 O 0.86018 0.97969 0.26176 0.0
O145 O 0.85333 0.00496 0.2479 0.0
O146 O 0.83285 0.97712 0.2099 0.0
O147 O 0.83981 0.9519 0.22383 0.0
H148 H 0.81788 0.98202 0.25041 0.0
H149 H 0.78936 0.98247 0.26726 0.0
H150 H 0.82321 0.01369 0.31672 0.0
H151 H 0.85181 0.0129 0.29974 0.0
H152 H 0.94658 0.0166 0.20467 0.0
H153 H 0.91289 0.00447 0.19746 0.0
H154 H 0.94924 0.98818 0.25611 0.0
H155 H 0.91546 0.97678 0.24924 0.0
H156 H 0.84544 0.92815 0.15499 0.0
H157 H 0.78555 0.92537 0.16342 0.0
H158 H 0.79379 0.94393 0.19457 0.0
H159 H 0.85347 0.94722 0.18611 0.0
C160 C 0.32535 0.26899 0.60162 0.0
C161 C 0.33208 0.28343 0.59093 0.0
C162 C 0.30797 0.30328 0.60137 0.0
C163 C 0.32349 0.30041 0.5908 0.0
C164 C 0.30121 0.28866 0.61197 0.0
C165 C 0.30984 0.27167 0.61208 0.0
U166 U 0.36325 0.23975 0.58461 0.0
O167 O 0.38335 0.223 0.59985 0.0
O168 O 0.36337 0.20918 0.5756 0.0
C169 C 0.37662 0.20697 0.58934 0.0
C170 C 0.3347 0.25132 0.602 0.0
C171 C 0.37364 0.18979 0.59941 0.0
C172 C 0.35295 0.16415 0.60982 0.0
C173 C 0.35539 0.18198 0.60274 0.0
C174 C 0.38703 0.16227 0.61118 0.0
C175 C 0.3687 0.15383 0.61355 0.0
C176 C 0.38945 0.18003 0.60419 0.0
C177 C 0.39459 0.26209 0.54957 0.0
C178 C 0.41986 0.2464 0.53577 0.0
C179 C 0.41496 0.27871 0.52941 0.0
C180 C 0.39974 0.27833 0.54061 0.0
C181 C 0.4253 0.2628 0.52696 0.0
C182 C 0.40465 0.24607 0.54703 0.0
C183 C 0.37893 0.2623 0.56174 0.0
O184 O 0.33231 0.24004 0.58586 0.0
O185 O 0.35246 0.25366 0.60996 0.0
O186 O 0.3841 0.26364 0.5802 0.0
O187 O 0.36408 0.24967 0.55616 0.0
H188 H 0.34411 0.28162 0.58279 0.0
H189 H 0.32924 0.31142 0.5827 0.0
H190 H 0.28913 0.29025 0.62006 0.0
H191 H 0.30443 0.26065 0.62037 0.0
H192 H 0.33864 0.15798 0.61137 0.0
H193 H 0.34297 0.18928 0.59917 0.0
H194 H 0.39947 0.15481 0.61415 0.0
H195 H 0.40366 0.18582 0.60178 0.0
H196 H 0.42768 0.23401 0.5344 0.0
H197 H 0.41863 0.29147 0.52266 0.0
H198 H 0.39207 0.2908 0.54239 0.0
H199 H 0.40086 0.23342 0.55392 0.0
C200 C 0.27391 0.83808 0.00511 0.0
C201 C 0.26501 0.81993 0.99774 0.0
C202 C 0.29425 0.80576 0.00601 0.0
C203 C 0.27504 0.80395 0.9982 0.0
C204 C 0.30314 0.82401 0.0135 0.0
C205 C 0.29301 0.84006 0.01305 0.0
U206 U 0.22949 0.85632 0.98548 0.0
O207 O 0.2106 0.87627 0.99756 0.0
O208 O 0.22344 0.88157 0.97125 0.0
C209 C 0.21299 0.8879 0.98438 0.0
C210 C 0.2632 0.85476 0.00373 0.0
C211 C 0.21688 0.90837 0.99092 0.0
C212 C 0.23899 0.93654 0.00244 0.0
C213 C 0.23509 0.91662 0.99899 0.0
C214 C 0.20632 0.93992 0.99057 0.0
C215 C 0.22477 0.94836 0.99765 0.0
C216 C 0.20243 0.92011 0.98726 0.0
C217 C 0.1944 0.81789 0.9547 0.0
C218 C 0.16085 0.82007 0.94517 0.0
C219 C 0.17658 0.79423 0.93076 0.0
C220 C 0.19366 0.8015 0.94174 0.0
C221 C 0.15987 0.80321 0.9326 0.0
C222 C 0.178 0.82737 0.95612 0.0
C223 C 0.21229 0.82442 0.96687 0.0
O224 O 0.26082 0.86017 0.98648 0.0
O225 O 0.24741 0.85388 0.01215 0.0
O226 O 0.2107 0.82962 0.98495 0.0
O227 O 0.22456 0.83594 0.9595 0.0
H228 H 0.2503 0.81816 0.99138 0.0
H229 H 0.26785 0.79022 0.99199 0.0
H230 H 0.31788 0.82586 0.01974 0.0
H231 H 0.30011 0.85399 0.01876 0.0
H232 H 0.25335 0.94271 0.0078 0.0
H233 H 0.24643 0.90771 0.00186 0.0
H234 H 0.19508 0.9487 0.98691 0.0
H235 H 0.18829 0.91397 0.98105 0.0
H236 H 0.14821 0.82723 0.94707 0.0
H237 H 0.1764 0.78142 0.92099 0.0
H238 H 0.20625 0.79411 0.94035 0.0
H239 H 0.17836 0.84014 0.96599 0.0
C240 C 0.78077 0.25017 0.38995 0.0
C241 C 0.79055 0.23394 0.39147 0.0
C242 C 0.76175 0.21338 0.37832 0.0
C243 C 0.78114 0.21571 0.38558 0.0
C244 C 0.75203 0.22968 0.37684 0.0
C245 C 0.76149 0.24791 0.38254 0.0
U246 U 0.81515 0.28431 0.42526 0.0
O247 O 0.83524 0.30878 0.42042 0.0
O248 O 0.81229 0.31301 0.43869 0.0
C249 C 0.82604 0.32112 0.43002 0.0
C250 C 0.79023 0.26948 0.39652 0.0
C251 C 0.82177 0.33822 0.4207 0.0
C252 C 0.79924 0.3596 0.40953 0.0
C253 C 0.8029 0.34222 0.4162 0.0
C254 C 0.83322 0.36878 0.41064 0.0
C255 C 0.81436 0.37331 0.40709 0.0
C256 C 0.83687 0.35145 0.41747 0.0
C257 C 0.84175 0.26638 0.46782 0.0
C258 C 0.85844 0.28881 0.4936 0.0
C259 C 0.86181 0.25502 0.49323 0.0
C260 C 0.84956 0.25135 0.47622 0.0
C261 C 0.86632 0.2738 0.50215 0.0
C262 C 0.84631 0.28514 0.47657 0.0
C263 C 0.82871 0.26248 0.4501 0.0
O264 O 0.78529 0.27723 0.41271 0.0
O265 O 0.8087 0.27216 0.39527 0.0
O266 O 0.83646 0.26536 0.43433 0.0
O267 O 0.81225 0.26951 0.45086 0.0
H268 H 0.80539 0.23531 0.39735 0.0
H269 H 0.78892 0.2034 0.3871 0.0
H270 H 0.73713 0.22833 0.37115 0.0
H271 H 0.7537 0.26026 0.38131 0.0
H272 H 0.78453 0.36262 0.40718 0.0
H273 H 0.79094 0.33222 0.41845 0.0
H274 H 0.84522 0.3788 0.40859 0.0
H275 H 0.85154 0.34861 0.42074 0.0
H276 H 0.86191 0.30346 0.4999 0.0
H277 H 0.8676 0.24316 0.49951 0.0
H278 H 0.84616 0.23678 0.46964 0.0
H279 H 0.84049 0.29694 0.4702 0.0
C280 C 0.64829 0.66131 0.00336 0.0
C281 C 0.63733 0.67681 0.00337 0.0
C282 C 0.66516 0.69805 0.99834 0.0
C283 C 0.64566 0.69497 0.00079 0.0
C284 C 0.67619 0.68254 0.99873 0.0
C285 C 0.66778 0.6643 0.00116 0.0
U286 U 0.6075 0.63059 0.01919 0.0
O287 O 0.59073 0.60404 0.00583 0.0
O288 O 0.60619 0.60491 0.03446 0.0
C289 C 0.59563 0.59439 0.02019 0.0
C290 C 0.63937 0.64211 0.00572 0.0
C291 C 0.6004 0.57468 0.01566 0.0
C292 C 0.60226 0.54693 0.9929 0.0
C293 C 0.60043 0.56644 0.99674 0.0
C294 C 0.60455 0.54376 0.02679 0.0
C295 C 0.60394 0.53529 0.00788 0.0
C296 C 0.60273 0.56318 0.0306 0.0
C297 C 0.56769 0.65436 0.04024 0.0
C298 C 0.54149 0.63478 0.05087 0.0
C299 C 0.53953 0.66857 0.04903 0.0
C300 C 0.55767 0.67036 0.04274 0.0
C301 C 0.5311 0.65069 0.05291 0.0
C302 C 0.55962 0.63659 0.04455 0.0
C303 C 0.58606 0.65602 0.03223 0.0
O304 O 0.63865 0.63839 0.0235 0.0
O305 O 0.62327 0.63662 0.99481 0.0
O306 O 0.58522 0.64966 0.01406 0.0
O307 O 0.6004 0.65042 0.04271 0.0
H308 H 0.62228 0.67483 0.00527 0.0
H309 H 0.63684 0.70666 0.00084 0.0
H310 H 0.69121 0.68442 0.99674 0.0
H311 H 0.67647 0.65251 0.0012 0.0
H312 H 0.60168 0.54084 0.97818 0.0
H313 H 0.59848 0.57489 0.98487 0.0
H314 H 0.60623 0.53532 0.03869 0.0
H315 H 0.60258 0.56911 0.04529 0.0
H316 H 0.53552 0.62086 0.05392 0.0
H317 H 0.53181 0.68105 0.05013 0.0
H318 H 0.56368 0.68415 0.03937 0.0
H319 H 0.5672 0.62407 0.04267 0.0
C320 C 0.58904 0.32124 0.25637 0.0
C321 C 0.58025 0.32911 0.2718 0.0
C322 C 0.58835 0.30308 0.29016 0.0
C323 C 0.57995 0.32015 0.28855 0.0
C324 C 0.59715 0.29526 0.27462 0.0
C325 C 0.5975 0.30429 0.25787 0.0
U326 U 0.5715 0.35939 0.22796 0.0
O327 O 0.58593 0.37944 0.2107 0.0
O328 O 0.56127 0.35965 0.19762 0.0
C329 C 0.57474 0.37299 0.19501 0.0
C330 C 0.58905 0.33063 0.23869 0.0
C331 C 0.58404 0.37001 0.1774 0.0
C332 C 0.60561 0.35423 0.15791 0.0
C333 C 0.59741 0.35678 0.17515 0.0
C334 C 0.5872 0.37815 0.14523 0.0
C335 C 0.60057 0.36489 0.1427 0.0
C336 C 0.57908 0.38067 0.16237 0.0
C337 C 0.53768 0.39102 0.25154 0.0
C338 C 0.5249 0.41711 0.23641 0.0
C339 C 0.51779 0.41152 0.26836 0.0
C340 C 0.52854 0.39596 0.26772 0.0
C341 C 0.516 0.42241 0.25279 0.0
C342 C 0.53569 0.40156 0.23581 0.0
C343 C 0.54961 0.37518 0.2515 0.0
O344 O 0.57263 0.3284 0.22787 0.0
O345 O 0.59717 0.34833 0.24085 0.0
O346 O 0.56807 0.38016 0.25228 0.0
O347 O 0.54357 0.36035 0.239 0.0
H348 H 0.57352 0.34215 0.27085 0.0
H349 H 0.57282 0.32642 0.3001 0.0
H350 H 0.60394 0.28225 0.27545 0.0
H351 H 0.60434 0.29802 0.24609 0.0
H352 H 0.61594 0.34398 0.15653 0.0
H353 H 0.60141 0.34841 0.18665 0.0
H354 H 0.5826 0.3863 0.13377 0.0
H355 H 0.5687 0.39088 0.16382 0.0
H356 H 0.52403 0.42535 0.22429 0.0
H357 H 0.51095 0.41508 0.28108 0.0
H358 H 0.52991 0.38791 0.27996 0.0
H359 H 0.54272 0.39793 0.22322 0.0
C360 C 0.99992 0.27244 0.84066 0.0
C361 C 0.99803 0.26252 0.82229 0.0
C362 C 1.00019 0.29252 0.80809 0.0
C363 C 0.99829 0.27243 0.8062 0.0
C364 C 0.00239 0.30243 0.82656 0.0
C365 C 0.00224 0.29246 0.84272 0.0
U366 U 0.97949 0.22842 0.85957 0.0
O367 O 0.99142 0.20956 0.87952 0.0
O368 O 0.96576 0.22325 0.88541 0.0
C369 C 0.97889 0.21277 0.89168 0.0
C370 C 0.99803 0.26184 0.8574 0.0
C371 C 0.98667 0.21767 0.91175 0.0
C372 C 0.0052 0.2393 0.93716 0.0
C373 C 0.99867 0.23459 0.91777 0.0
C374 C 0.98798 0.21009 0.94452 0.0
C375 C 0.99981 0.22715 0.9508 0.0
C376 C 0.98151 0.20542 0.92519 0.0
C377 C 0.94888 0.19277 0.82121 0.0
C378 C 0.94071 0.15877 0.82222 0.0
C379 C 0.92523 0.1749 0.79729 0.0
C380 C 0.93563 0.19214 0.80506 0.0
C381 C 0.92796 0.15792 0.8055 0.0
C382 C 0.95109 0.17608 0.83003 0.0
C383 C 0.96085 0.21077 0.82787 0.0
O384 O 0.98068 0.2598 0.8626 0.0
O385 O 0.00632 0.24598 0.85705 0.0
O386 O 0.97897 0.20936 0.83307 0.0
O387 O 0.95337 0.223 0.83935 0.0
H388 H 0.99604 0.24705 0.82035 0.0
H389 H 0.9969 0.26431 0.79226 0.0
H390 H 0.00366 0.31789 0.82854 0.0
H391 H 0.0035 0.30035 0.85677 0.0
H392 H 0.01441 0.25245 0.94146 0.0
H393 H 0.00279 0.24422 0.90752 0.0
H394 H 0.98322 0.20056 0.9546 0.0
H395 H 0.97217 0.19234 0.92078 0.0
H396 H 0.94328 0.14594 0.82881 0.0
H397 H 0.9153 0.1748 0.78461 0.0
H398 H 0.93366 0.20493 0.79816 0.0
H399 H 0.96121 0.17632 0.84259 0.0
C400 C 0.38952 0.77963 0.25318 0.0
C401 C 0.39099 0.78953 0.23702 0.0
C402 C 0.3776 0.76092 0.2163 0.0
C403 C 0.38497 0.78029 0.21875 0.0
C404 C 0.37619 0.75106 0.23251 0.0
C405 C 0.38204 0.76037 0.2508 0.0
U406 U 0.42472 0.81457 0.28653 0.0
O407 O 0.4202 0.83494 0.31082 0.0
O408 O 0.43873 0.81225 0.31518 0.0
C409 C 0.43036 0.82627 0.3232 0.0
C410 C 0.39624 0.78901 0.2725 0.0
C411 C 0.42156 0.82214 0.3405 0.0
C412 C 0.39749 0.80488 0.35645 0.0
C413 C 0.40479 0.80962 0.33961 0.0
C414 C 0.42349 0.82544 0.37508 0.0
C415 C 0.40691 0.81255 0.37442 0.0
C416 C 0.4307 0.83018 0.35829 0.0
C417 C 0.46609 0.84203 0.26639 0.0
C418 C 0.50048 0.84818 0.26575 0.0
C419 C 0.48221 0.87414 0.27491 0.0
C420 C 0.46549 0.86151 0.27227 0.0
C421 C 0.49991 0.86761 0.27182 0.0
C422 C 0.48373 0.83556 0.26296 0.0
C423 C 0.44862 0.8283 0.26388 0.0
O424 O 0.41275 0.78447 0.27987 0.0
O425 O 0.39455 0.8074 0.27531 0.0
O426 O 0.43243 0.83532 0.26661 0.0
O427 O 0.45028 0.81221 0.27142 0.0
H428 H 0.39695 0.80436 0.23849 0.0
H429 H 0.38645 0.78818 0.20652 0.0
H430 H 0.37044 0.73617 0.23106 0.0
H431 H 0.38086 0.75248 0.26309 0.0
H432 H 0.38461 0.79506 0.3554 0.0
H433 H 0.39756 0.80327 0.32593 0.0
H434 H 0.43137 0.83134 0.38859 0.0
H435 H 0.44374 0.83978 0.35921 0.0
H436 H 0.51388 0.84276 0.2631 0.0
H437 H 0.48132 0.88898 0.27985 0.0
H438 H 0.45216 0.86701 0.27504 0.0
H439 H 0.48458 0.82066 0.25826 0.0
C440 C 0.99934 0.64899 0.66529 0.0
C441 C 0.99951 0.63889 0.68141 0.0
C442 C 0.99479 0.6677 0.70145 0.0
C443 C 0.99718 0.64812 0.69927 0.0
C444 C 0.99478 0.67779 0.68523 0.0
C445 C 0.99702 0.66849 0.66731 0.0
U446 U 0.01443 0.60647 0.63656 0.0
O447 O 0.00122 0.58923 0.61017 0.0
O448 O 0.03036 0.60363 0.61144 0.0
C449 C 0.01607 0.59319 0.60085 0.0
C450 C 0.00174 0.63918 0.6465 0.0
C451 C 0.01251 0.59741 0.58084 0.0
C452 C 0.99109 0.6 0.5523 0.0
C453 C 0.99401 0.59841 0.57195 0.0
C454 C 0.02505 0.59996 0.55032 0.0
C455 C 0.00656 0.60043 0.54122 0.0
C456 C 0.02795 0.5984 0.56985 0.0
C457 C 0.03423 0.56697 0.66179 0.0
C458 C 0.03425 0.53485 0.64618 0.0
C459 C 0.05642 0.54591 0.67424 0.0
C460 C 0.04907 0.5636 0.67524 0.0
C461 C 0.04895 0.53122 0.65981 0.0
C462 C 0.02709 0.55257 0.64708 0.0
C463 C 0.02662 0.58563 0.66288 0.0
O464 O 0.01952 0.63774 0.64316 0.0
O465 O 0.99047 0.62322 0.64149 0.0
O466 O 0.00847 0.58534 0.65656 0.0
O467 O 0.03754 0.59952 0.65706 0.0
H468 H 0.00135 0.62381 0.68014 0.0
H469 H 0.99696 0.63979 0.71132 0.0
H470 H 0.99326 0.69292 0.68639 0.0
H471 H 0.99698 0.67653 0.65504 0.0
H472 H 0.97667 0.6003 0.5457 0.0
H473 H 0.98178 0.59751 0.58002 0.0
H474 H 0.03734 0.60069 0.54232 0.0
H475 H 0.04232 0.59748 0.5763 0.0
H476 H 0.02786 0.52386 0.63506 0.0
H477 H 0.06792 0.54376 0.68481 0.0
H478 H 0.05496 0.57465 0.68654 0.0
H479 H 0.01579 0.55491 0.63636 0.0
C480 C 0.73028 0.40955 0.67314 0.0
C481 C 0.71603 0.4178 0.66261 0.0
C482 C 0.69246 0.40623 0.68283 0.0
C483 C 0.6973 0.41616 0.66739 0.0
C484 C 0.7069 0.39827 0.69357 0.0
C485 C 0.72567 0.39988 0.68872 0.0
U486 U 0.76489 0.42813 0.64062 0.0
O487 O 0.79491 0.4406 0.64576 0.0
O488 O 0.78681 0.41471 0.6257 0.0
C489 C 0.80083 0.42674 0.63483 0.0
C490 C 0.7498 0.41086 0.66759 0.0
C491 C 0.81802 0.41861 0.64273 0.0
C492 C 0.83578 0.39159 0.64888 0.0
C493 C 0.81874 0.39879 0.6427 0.0
C494 C 0.85148 0.42385 0.65553 0.0
C495 C 0.85237 0.40406 0.65528 0.0
C496 C 0.83453 0.43101 0.64928 0.0
C497 C 0.74505 0.45858 0.60281 0.0
C498 C 0.76255 0.48233 0.58663 0.0
C499 C 0.7319 0.46674 0.57202 0.0
C500 C 0.73045 0.45625 0.58765 0.0
C501 C 0.74797 0.47993 0.57128 0.0
C502 C 0.76115 0.4717 0.6022 0.0
C503 C 0.74308 0.4472 0.61901 0.0
O504 O 0.75141 0.40215 0.65063 0.0
O505 O 0.75916 0.42804 0.67064 0.0
O506 O 0.75224 0.45458 0.63554 0.0
O507 O 0.74427 0.42881 0.61534 0.0
H508 H 0.71938 0.42541 0.65058 0.0
H509 H 0.68661 0.42269 0.65901 0.0
H510 H 0.70359 0.39039 0.70543 0.0
H511 H 0.73652 0.39342 0.69699 0.0
H512 H 0.83597 0.37629 0.64864 0.0
H513 H 0.80625 0.38884 0.63768 0.0
H514 H 0.86406 0.43385 0.66003 0.0
H515 H 0.83444 0.44631 0.64921 0.0
H516 H 0.77504 0.49248 0.58667 0.0
H517 H 0.72058 0.46418 0.56034 0.0
H518 H 0.71795 0.44615 0.58781 0.0
H519 H 0.77265 0.47375 0.61373 0.0
C520 C 0.7529 0.59334 0.22534 0.0
C521 C 0.76658 0.5848 0.21532 0.0
C522 C 0.79216 0.60361 0.23658 0.0
C523 C 0.78604 0.58994 0.22084 0.0
C524 C 0.77837 0.61201 0.24667 0.0
C525 C 0.75889 0.60693 0.24105 0.0
U526 U 0.71358 0.55889 0.1975 0.0
O527 O 0.68559 0.54737 0.20477 0.0
O528 O 0.68731 0.56396 0.18021 0.0
C529 C 0.67617 0.55542 0.19133 0.0
C530 C 0.73244 0.58788 0.21959 0.0
C531 C 0.66034 0.56577 0.1973 0.0
C532 C 0.64667 0.58679 0.22029 0.0
C533 C 0.66246 0.57843 0.21411 0.0
C534 C 0.62679 0.5705 0.19254 0.0
C535 C 0.62857 0.58267 0.20972 0.0
C536 C 0.64252 0.56213 0.18642 0.0
C537 C 0.7269 0.51488 0.16882 0.0
C538 C 0.70235 0.49203 0.15073 0.0
C539 C 0.73568 0.48683 0.15052 0.0
C540 C 0.7409 0.50374 0.16266 0.0
C541 C 0.71633 0.4808 0.14437 0.0
C542 C 0.70759 0.50891 0.16285 0.0
C543 C 0.73248 0.53266 0.18145 0.0
O544 O 0.72692 0.58856 0.2014 0.0
O545 O 0.72525 0.57231 0.22618 0.0
O546 O 0.72739 0.53246 0.1988 0.0
O547 O 0.72914 0.5484 0.17385 0.0
H548 H 0.76219 0.57412 0.20324 0.0
H549 H 0.79629 0.58302 0.21295 0.0
H550 H 0.78265 0.6227 0.25875 0.0
H551 H 0.7485 0.61362 0.24896 0.0
H552 H 0.64857 0.59624 0.23348 0.0
H553 H 0.67618 0.5815 0.22264 0.0
H554 H 0.61304 0.56675 0.18418 0.0
H555 H 0.64064 0.55237 0.17343 0.0
H556 H 0.68735 0.48801 0.14602 0.0
H557 H 0.74678 0.47845 0.14602 0.0
H558 H 0.75588 0.50814 0.16722 0.0
H559 H 0.6966 0.5174 0.16746 0.0
C560 C 0.34641 0.00909 0.34625 0.0
C561 C 0.33123 0.9962 0.35003 0.0
C562 C 0.30888 0.01144 0.32967 0.0
C563 C 0.31267 0.99729 0.34175 0.0
C564 C 0.3242 0.02411 0.32564 0.0
C565 C 0.34281 0.02293 0.33386 0.0
U566 U 0.37638 0.99734 0.38941 0.0
O567 O 0.40385 0.98545 0.39368 0.0
O568 O 0.40046 0.0138 0.4078 0.0
C569 C 0.41205 0.00068 0.40463 0.0
C570 C 0.36555 0.0092 0.35653 0.0
C571 C 0.43155 0.00733 0.40106 0.0
C572 C 0.45425 0.02601 0.38476 0.0
C573 C 0.43536 0.02053 0.38799 0.0
C574 C 0.4655 0.00528 0.40776 0.0
C575 C 0.46956 0.01832 0.39452 0.0
C576 C 0.44672 0.9999 0.41099 0.0
C577 C 0.35183 0.97422 0.42757 0.0
C578 C 0.33745 0.95582 0.45067 0.0
C579 C 0.36813 0.97456 0.45944 0.0
C580 C 0.36766 0.98024 0.44107 0.0
C581 C 0.35284 0.96259 0.46461 0.0
C582 C 0.33693 0.96166 0.43232 0.0
C583 C 0.35059 0.98149 0.40881 0.0
O584 O 0.36861 0.02055 0.37261 0.0
O585 O 0.37155 0.99232 0.35804 0.0
O586 O 0.35866 0.97179 0.39561 0.0
O587 O 0.3546 1.00008 0.40928 0.0
H588 H 0.33364 0.9856 0.35982 0.0
H589 H 0.30119 0.98752 0.34541 0.0
H590 H 0.32177 0.03508 0.31629 0.0
H591 H 0.35432 0.0331 0.3309 0.0
H592 H 0.45685 0.03617 0.37457 0.0
H593 H 0.42377 0.02642 0.3802 0.0
H594 H 0.47679 0.99869 0.41521 0.0
H595 H 0.44401 0.98964 0.42109 0.0
H596 H 0.32561 0.94631 0.45404 0.0
H597 H 0.38009 0.98027 0.4698 0.0
H598 H 0.37939 0.98983 0.43757 0.0
H599 H 0.32471 0.9567 0.42198 0.0
C600 C 0.17542 0.00713 0.7185 0.0
C601 C 0.19166 0.01937 0.72632 0.0
C602 C 0.21126 0.00235 0.70548 0.0
C603 C 0.2094 0.01704 0.71986 0.0
C604 C 0.19485 0.99028 0.69747 0.0
C605 C 0.17706 0.99266 0.70395 0.0
U606 U 0.14969 0.02843 0.75771 0.0
O607 O 0.12212 0.04013 0.75836 0.0
O608 O 0.12781 0.01574 0.77425 0.0
C609 C 0.11522 0.02707 0.76861 0.0
C610 C 0.15718 0.00876 0.72652 0.0
C611 C 0.09587 0.01787 0.76189 0.0
C612 C 0.07076 0.00607 0.73635 0.0
C613 C 0.08982 0.01305 0.74237 0.0
C614 C 0.06388 0.00787 0.76931 0.0
C615 C 0.05748 0.00372 0.74975 0.0
C616 C 0.08287 0.01489 0.77529 0.0
C617 C 0.18124 0.06234 0.79666 0.0
C618 C 0.17688 0.06898 0.83021 0.0
C619 C 0.19908 0.08992 0.81574 0.0
C620 C 0.19443 0.07866 0.79824 0.0
C621 C 0.1907 0.08498 0.83206 0.0
C622 C 0.17215 0.05781 0.81266 0.0
C623 C 0.17808 0.04971 0.77858 0.0
O624 O 0.15613 0.00146 0.74281 0.0
O625 O 0.15095 0.02568 0.72661 0.0
O626 O 0.16781 0.05589 0.76444 0.0
O627 O 0.17394 0.03142 0.77999 0.0
H628 H 0.1907 0.03048 0.73775 0.0
H629 H 0.22175 0.02638 0.72658 0.0
H630 H 0.19577 0.97895 0.68626 0.0
H631 H 0.16466 0.98302 0.69783 0.0
H632 H 0.06634 0.00281 0.7212 0.0
H633 H 0.09969 0.01512 0.73179 0.0
H634 H 0.05403 0.00649 0.78001 0.0
H635 H 0.08728 0.01856 0.79042 0.0
H636 H 0.17029 0.06458 0.84248 0.0
H637 H 0.20951 0.10231 0.81654 0.0
H638 H 0.20151 0.08245 0.78601 0.0
H639 H 0.16182 0.04532 0.81176 0.0
C640 C 0.67321 0.73238 0.40874 0.0
C641 C 0.66563 0.71776 0.41874 0.0
C642 C 0.68692 0.69622 0.40537 0.0
C643 C 0.67242 0.69985 0.41708 0.0
C644 C 0.69463 0.71105 0.39557 0.0
C645 C 0.68781 0.72898 0.39726 0.0
U646 U 0.63747 0.76381 0.42722 0.0
O647 O 0.63996 0.79416 0.43821 0.0
O648 O 0.62008 0.78344 0.41277 0.0
C649 C 0.62816 0.79846 0.42411 0.0
C650 C 0.66544 0.7509 0.40982 0.0
C651 C 0.63462 0.81515 0.41461 0.0
C652 C 0.65982 0.83627 0.40418 0.0
C653 C 0.65392 0.81954 0.41201 0.0
C654 C 0.62712 0.84394 0.40071 0.0
C655 C 0.64651 0.84879 0.39868 0.0
C656 C 0.62126 0.8273 0.40864 0.0
C657 C 0.60194 0.74318 0.45914 0.0
C658 C 0.58469 0.76124 0.48151 0.0
C659 C 0.57164 0.72938 0.46786 0.0
C660 C 0.58748 0.72794 0.45767 0.0
C661 C 0.56998 0.74608 0.47986 0.0
C662 C 0.60046 0.75985 0.47118 0.0
C663 C 0.61816 0.74149 0.44773 0.0
O664 O 0.64797 0.75048 0.40145 0.0
O665 O 0.66809 0.7608 0.42675 0.0
O666 O 0.6342 0.75199 0.45445 0.0
O667 O 0.61405 0.74144 0.4292 0.0
H668 H 0.65425 0.72014 0.42761 0.0
H669 H 0.66596 0.6887 0.42459 0.0
H670 H 0.70595 0.7088 0.38661 0.0
H671 H 0.69382 0.74014 0.38946 0.0
H672 H 0.67482 0.83952 0.40261 0.0
H673 H 0.66445 0.81025 0.41636 0.0
H674 H 0.61654 0.85337 0.39685 0.0
H675 H 0.60631 0.82414 0.41052 0.0
H676 H 0.58405 0.77422 0.49078 0.0
H677 H 0.56046 0.71756 0.4659 0.0
H678 H 0.58831 0.715 0.44839 0.0
H679 H 0.61141 0.77186 0.47252 0.0
C680 C 0.73227 0.1704 0.00626 0.0
C681 C 0.74534 0.18689 0.00807 0.0
C682 C 0.71943 0.20636 0.00186 0.0
C683 C 0.739 0.20467 0.00577 0.0
C684 C 0.7063 0.18988 1.00042 0.0
C685 C 0.7127 0.172 0.00253 0.0
U686 U 0.77021 0.14336 0.02785 0.0
O687 O 0.76972 0.1164 0.04085 0.0
O688 O 0.78522 0.11993 0.01575 0.0
C689 C 0.77912 0.10822 0.02771 0.0
C690 C 0.73915 0.15173 0.00869 0.0
C691 C 0.7712 0.0889 0.01923 0.0
C692 C 0.74468 0.06398 0.01095 0.0
C693 C 0.75153 0.08295 0.01752 0.0
C694 C 0.77696 0.05696 0.0069 0.0
C695 C 0.75737 0.05069 0.00586 0.0
C696 C 0.78379 0.07586 0.01356 0.0
C697 C 0.81119 0.17507 0.0595 0.0
C698 C 0.8454 0.17322 0.06462 0.0
C699 C 0.82995 0.1922 0.08766 0.0
C700 C 0.81237 0.18694 0.07672 0.0
C701 C 0.84676 0.18581 0.0815 0.0
C702 C 0.82778 0.16786 0.05373 0.0
C703 C 0.79285 0.17171 0.04723 0.0
O704 O 0.75482 0.14879 0.00078 0.0
O705 O 0.73944 0.14665 0.02609 0.0
O706 O 0.77856 0.16263 0.05436 0.0
O707 O 0.7936 0.16635 0.02901 0.0
H708 H 0.7605 0.18603 0.01126 0.0
H709 H 0.7494 0.21714 0.00723 0.0
H710 H 0.69114 0.19078 0.99734 0.0
H711 H 0.70241 0.15944 0.00123 0.0
H712 H 0.72949 0.05964 0.01012 0.0
H713 H 0.74151 0.09283 0.02164 0.0
H714 H 0.78715 0.04706 0.00335 0.0
H715 H 0.79901 0.08017 0.01478 0.0
H716 H 0.85805 0.16817 0.05931 0.0
H717 H 0.83041 0.20164 0.10074 0.0
H718 H 0.79974 0.1926 0.08147 0.0
H719 H 0.82727 0.15862 0.04052 0.0
C720 C 0.22948 0.76851 0.61186 0.0
C721 C 0.2265 0.78073 0.59764 0.0
C722 C 0.24023 0.80818 0.6199 0.0
C723 C 0.23188 0.80035 0.6016 0.0
C724 C 0.24287 0.79591 0.63422 0.0
C725 C 0.23757 0.77621 0.6302 0.0
U726 U 0.20303 0.72727 0.57881 0.0
O727 O 0.21123 0.69934 0.56839 0.0
O728 O 0.18635 0.70083 0.58458 0.0
C729 C 0.1977 0.68981 0.57621 0.0
C730 C 0.2241 0.74781 0.60755 0.0
C731 C 0.20332 0.67351 0.58608 0.0
C732 C 0.22707 0.65751 0.6038 0.0
C733 C 0.22109 0.67414 0.59696 0.0
C734 C 0.1972 0.63977 0.58972 0.0
C735 C 0.21537 0.64 0.59985 0.0
C736 C 0.19127 0.65634 0.58292 0.0
C737 C 0.17475 0.73754 0.53339 0.0
C738 C 0.15692 0.71148 0.51214 0.0
C739 C 0.15745 0.7439 0.50372 0.0
C740 C 0.16917 0.75043 0.52064 0.0
C741 C 0.15114 0.72434 0.49928 0.0
C742 C 0.16863 0.71802 0.52901 0.0
C743 C 0.18691 0.74445 0.55121 0.0
O744 O 0.20589 0.74219 0.60793 0.0
O745 O 0.23122 0.73981 0.59264 0.0
O746 O 0.20453 0.73999 0.55176 0.0
O747 O 0.17909 0.74168 0.56695 0.0
H748 H 0.22008 0.77506 0.58344 0.0
H749 H 0.22937 0.80943 0.59034 0.0
H750 H 0.24937 0.80147 0.64841 0.0
H751 H 0.23991 0.76699 0.64137 0.0
H752 H 0.24103 0.65827 0.61176 0.0
H753 H 0.23059 0.6873 0.5996 0.0
H754 H 0.1879 0.62656 0.58614 0.0
H755 H 0.17754 0.65556 0.57447 0.0
H756 H 0.15208 0.69638 0.50938 0.0
H757 H 0.15342 0.75415 0.49406 0.0
H758 H 0.17385 0.76555 0.52379 0.0
H759 H 0.1728 0.70787 0.53874 0.0
C760 C 0.33426 0.34662 0.01301 0.0
C761 C 0.33754 0.33214 0.99906 0.0
C762 C 0.31819 0.30862 0.01389 0.0
C763 C 0.32951 0.31338 0.99943 0.0
C764 C 0.31463 0.32322 0.02767 0.0
C765 C 0.3226 0.34208 0.02721 0.0
U766 U 0.37804 0.37596 0.00289 0.0
O767 O 0.38353 0.40316 0.99076 0.0
O768 O 0.39668 0.39977 0.01953 0.0
C769 C 0.39426 0.41127 0.00617 0.0
C770 C 0.34461 0.36585 0.01384 0.0
C771 C 0.39115 0.43105 0.01237 0.0
C772 C 0.37573 0.45472 0.03083 0.0
C773 C 0.3785 0.43559 0.02579 0.0
C774 C 0.39831 0.46473 0.00918 0.0
C775 C 0.38553 0.46953 0.02246 0.0
C776 C 0.4011 0.44573 0.00425 0.0
C777 C 0.41536 0.34884 0.98045 0.0
C778 C 0.43664 0.33285 0.96096 0.0
C779 C 0.44851 0.36186 0.98149 0.0
C780 C 0.43034 0.36304 0.98734 0.0
C781 C 0.45198 0.34654 0.9685 0.0
C782 C 0.4185 0.33397 0.96696 0.0
C783 C 0.39662 0.3491 0.98767 0.0
O784 O 0.36039 0.36865 0.02564 0.0
O785 O 0.3467 0.37221 0.99721 0.0
O786 O 0.38408 0.35767 0.97764 0.0
O787 O 0.39708 0.35355 0.00619 0.0
H788 H 0.34681 0.33522 0.98817 0.0
H789 H 0.33284 0.30247 0.98881 0.0
H790 H 0.30589 0.32002 0.03893 0.0
H791 H 0.32007 0.353 0.03822 0.0
H792 H 0.36587 0.45788 0.04119 0.0
H793 H 0.37069 0.4244 0.03222 0.0
H794 H 0.40577 0.47561 0.00207 0.0
H795 H 0.41087 0.44246 0.99381 0.0
H796 H 0.43871 0.32108 0.95067 0.0
H797 H 0.45998 0.37253 0.98779 0.0
H798 H 0.42812 0.37474 0.99766 0.0
H799 H 0.40702 0.32301 0.96134 0.0
C800 C 0.41599 0.67601 0.73446 0.0
C801 C 0.42648 0.66736 0.72084 0.0
C802 C 0.41354 0.68653 0.69694 0.0
C803 C 0.4253 0.67259 0.70227 0.0
C804 C 0.40354 0.69563 0.71084 0.0
C805 C 0.40471 0.69034 0.72945 0.0
U806 U 0.42886 0.63881 0.76635 0.0
O807 O 0.43851 0.63986 0.79693 0.0
O808 O 0.41172 0.62266 0.785 0.0
C809 C 0.42314 0.62934 0.80046 0.0
C810 C 0.41558 0.66886 0.75324 0.0
C811 C 0.41382 0.6364 0.81708 0.0
C812 C 0.40538 0.66229 0.83878 0.0
C813 C 0.41296 0.65599 0.82201 0.0
C814 C 0.39872 0.6295 0.8454 0.0
C815 C 0.39841 0.64912 0.8508 0.0
C816 C 0.40638 0.62323 0.82872 0.0
C817 C 0.45613 0.59917 0.74533 0.0
C818 C 0.4563 0.56785 0.75655 0.0
C819 C 0.4782 0.57743 0.73409 0.0
C820 C 0.47091 0.59513 0.73423 0.0
C821 C 0.47066 0.56347 0.74493 0.0
C822 C 0.44916 0.58558 0.75683 0.0
C823 C 0.44752 0.61717 0.74412 0.0
O824 O 0.40516 0.65241 0.75292 0.0
O825 O 0.43225 0.66964 0.76345 0.0
O826 O 0.45591 0.63191 0.75566 0.0
O827 O 0.42879 0.61568 0.74331 0.0
H828 H 0.4352 0.65619 0.72445 0.0
H829 H 0.43338 0.6655 0.692 0.0
H830 H 0.39423 0.70628 0.70714 0.0
H831 H 0.3964 0.69704 0.73976 0.0
H832 H 0.40515 0.67748 0.84244 0.0
H833 H 0.4185 0.6664 0.81313 0.0
H834 H 0.39372 0.61898 0.85443 0.0
H835 H 0.40693 0.60806 0.82515 0.0
H836 H 0.45041 0.55744 0.76525 0.0
H837 H 0.4892 0.5744 0.72495 0.0
H838 H 0.47648 0.6055 0.72531 0.0
H839 H 0.43789 0.5885 0.76566 0.0
C840 C 0.02108 0.72797 0.17623 0.0
C841 C 0.02787 0.74119 0.1921 0.0
C842 C 0.02068 0.71731 0.21356 0.0
C843 C 0.0276 0.73595 0.21057 0.0
C844 C 0.01443 0.70388 0.19762 0.0
C845 C 0.01455 0.70922 0.17905 0.0
U846 U 0.036 0.76621 0.14662 0.0
O847 O 0.04618 0.76656 0.1183 0.0
O848 O 0.02038 0.78004 0.12426 0.0
C849 C 0.03173 0.77511 0.11141 0.0
C850 C 0.02062 0.73419 0.15697 0.0
C851 C 0.02232 0.76705 0.09249 0.0
C852 C 0.01107 0.74012 0.06872 0.0
C853 C 0.01852 0.74727 0.08741 0.0
C854 C 0.01049 0.77244 0.0603 0.0
C855 C 0.00725 0.75264 0.05485 0.0
C856 C 0.01795 0.77954 0.07891 0.0
C857 C 0.067 0.80915 0.17629 0.0
C858 C 0.06918 0.84338 0.1743 0.0
C859 C 0.09434 0.82989 0.19252 0.0
C860 C 0.08465 0.81165 0.18758 0.0
C861 C 0.08648 0.84603 0.18637 0.0
C862 C 0.05953 0.8251 0.16928 0.0
C863 C 0.05604 0.79011 0.17356 0.0
O864 O 0.0111 0.749 0.15469 0.0
O865 O 0.03721 0.7357 0.15002 0.0
O866 O 0.06347 0.77658 0.16362 0.0
O867 O 0.03742 0.78953 0.16973 0.0
H868 H 0.03314 0.7557 0.19019 0.0
H869 H 0.03274 0.74652 0.22254 0.0
H870 H 0.00892 0.68945 0.19954 0.0
H871 H 0.00931 0.69883 0.16695 0.0
H872 H 0.00856 0.7248 0.06507 0.0
H873 H 0.0217 0.73738 0.09776 0.0
H874 H 0.00802 0.78252 0.04998 0.0
H875 H 0.02081 0.79485 0.08257 0.0
H876 H 0.06261 0.85548 0.16944 0.0
H877 H 0.10778 0.83137 0.20154 0.0
H878 H 0.09068 0.79953 0.19309 0.0
H879 H 0.04594 0.82355 0.16049 0.0
C880 C 0.59615 0.23244 0.7556 0.0
C881 C 0.58365 0.22805 0.76915 0.0
C882 C 0.6063 0.24544 0.79461 0.0
C883 C 0.58866 0.23452 0.78848 0.0
C884 C 0.61883 0.2496 0.78094 0.0
C885 C 0.61377 0.24317 0.76161 0.0
U886 U 0.56315 0.20335 0.71487 0.0
O887 O 0.55245 0.21106 0.68681 0.0
O888 O 0.57018 0.18738 0.68858 0.0
C889 C 0.56169 0.19858 0.67745 0.0
C890 C 0.59093 0.22607 0.73519 0.0
C891 C 0.57217 0.20541 0.66181 0.0
C892 C 0.57656 0.22796 0.6383 0.0
C893 C 0.56884 0.22282 0.65474 0.0
C894 C 0.59175 0.19876 0.63595 0.0
C895 C 0.5878 0.21583 0.62844 0.0
C896 C 0.58395 0.19357 0.65239 0.0
C897 C 0.51878 0.17269 0.72425 0.0
C898 C 0.49957 0.15235 0.69833 0.0
C899 C 0.4884 0.15608 0.72964 0.0
C900 C 0.50486 0.1684 0.73643 0.0
C901 C 0.48557 0.14782 0.71051 0.0
C902 C 0.51598 0.1647 0.70513 0.0
C903 C 0.53602 0.18568 0.73148 0.0
O904 O 0.59218 0.20792 0.73003 0.0
O905 O 0.57527 0.23212 0.7275 0.0
O906 O 0.53572 0.20327 0.72709 0.0
O907 O 0.55233 0.17881 0.72905 0.0
H908 H 0.57 0.21968 0.76475 0.0
H909 H 0.5788 0.23082 0.79865 0.0
H910 H 0.63242 0.25812 0.78513 0.0
H911 H 0.62358 0.24669 0.75133 0.0
H912 H 0.57287 0.24104 0.63282 0.0
H913 H 0.55964 0.23221 0.66144 0.0
H914 H 0.60051 0.18916 0.62887 0.0
H915 H 0.58665 0.17998 0.65736 0.0
H916 H 0.49808 0.14604 0.68362 0.0
H917 H 0.47784 0.15312 0.73935 0.0
H918 H 0.50673 0.17457 0.75121 0.0
H919 H 0.52657 0.16792 0.69549 0.0
C920 C 0.01159 0.3592 0.34312 0.0
C921 C 0.01316 0.3714 0.32872 0.0
C922 C 0.01396 0.34421 0.30509 0.0
C923 C 0.01447 0.364 0.30994 0.0
C924 C 0.01174 0.33192 0.31938 0.0
C925 C 0.01068 0.33939 0.33831 0.0
U926 U 0.99987 0.39934 0.37734 0.0
O927 O 0.98827 0.40079 0.40504 0.0
O928 O 0.01666 0.41548 0.4027 0.0
C929 C 0.00372 0.41085 0.41404 0.0
C930 C 0.01112 0.36726 0.36307 0.0
C931 C 0.01077 0.40529 0.43275 0.0
C932 C 0.01196 0.38235 0.45613 0.0
C933 C 0.00739 0.38651 0.4374 0.0
C934 C 0.02422 0.41546 0.46549 0.0
C935 C 0.01999 0.3969 0.4705 0.0
C936 C 0.01961 0.4196 0.4468 0.0
C937 C 0.97756 0.44068 0.35667 0.0
C938 C 0.98226 0.47443 0.36838 0.0
C939 C 0.95248 0.46104 0.35003 0.0
C940 C 0.95922 0.44307 0.34845 0.0
C941 C 0.96407 0.47704 0.35972 0.0
C942 C 0.98888 0.45645 0.36697 0.0
C943 C 0.98474 0.42179 0.35413 0.0
O944 O 0.02281 0.38288 0.36841 0.0
O945 O 0.99401 0.36833 0.36862 0.0
O946 O 0.97464 0.4078 0.36076 0.0
O947 O 0.00327 0.42152 0.35793 0.0
H948 H 0.01359 0.38672 0.33203 0.0
H949 H 0.01584 0.37378 0.29917 0.0
H950 H 0.01132 0.31661 0.316 0.0
H951 H 0.00935 0.32975 0.34921 0.0
H952 H 0.00835 0.36794 0.45953 0.0
H953 H 0.00058 0.37522 0.42677 0.0
H954 H 0.03066 0.42691 0.47612 0.0
H955 H 0.02238 0.43417 0.44347 0.0
H956 H 0.99175 0.4864 0.37568 0.0
H957 H 0.9383 0.46241 0.34343 0.0
H958 H 0.95017 0.43106 0.34058 0.0
H959 H 0.00305 0.45504 0.37363 0.0
H960 H 0.24887 0.45752 0.55995 0.0
C961 C 0.24927 0.4715 0.56784 0.0
C962 C 0.25424 0.48791 0.55897 0.0
C963 C 0.24414 0.47317 0.58664 0.0
H964 H 0.25721 0.5186 0.56178 0.0
C965 C 0.2542 0.50598 0.569 0.0
C966 C 0.24872 0.508 0.58753 0.0
C967 C 0.24379 0.49152 0.59632 0.0
C968 C 0.23802 0.45586 0.59579 0.0
H969 H 0.23959 0.493 0.61067 0.0
C970 C 0.24849 0.43985 0.59506 0.0
C971 C 0.24277 0.42373 0.60424 0.0
C972 C 0.22157 0.45536 0.60544 0.0
H973 H 0.21307 0.4673 0.60598 0.0
C974 C 0.21571 0.43937 0.61429 0.0
H975 H 0.26135 0.44019 0.58789 0.0
C976 C 0.22621 0.42369 0.61375 0.0
H977 H 0.22123 0.4114 0.62063 0.0
H978 H 0.20295 0.43911 0.62158 0.0
H979 H 0.33315 0.62768 0.95875 0.0
C980 C 0.33803 0.61862 0.9692 0.0
C981 C 0.32935 0.59979 0.96801 0.0
C982 C 0.35344 0.62514 0.98314 0.0
H983 H 0.3292 0.57315 0.98025 0.0
C984 C 0.33543 0.58791 0.98157 0.0
C985 C 0.35065 0.59416 0.99569 0.0
C986 C 0.35985 0.61274 0.9962 0.0
C987 C 0.36352 0.64453 0.98397 0.0
H988 H 0.37187 0.61758 0.00683 0.0
C989 C 0.35091 0.66533 0.98743 0.0
C990 C 0.36409 0.68884 0.99263 0.0
C991 C 0.38887 0.6472 0.98477 0.0
H992 H 0.39643 0.63471 0.98265 0.0
C993 C 0.40214 0.67046 0.99084 0.0
H994 H 0.33548 0.66355 0.98666 0.0
C995 C 0.38959 0.69113 0.99528 0.0
H996 H 0.39775 0.70491 0.99924 0.0
H997 H 0.41759 0.67196 0.99201 0.0
H998 H 0.66371 0.06603 0.38239 0.0
C999 C 0.66383 0.05065 0.38073 0.0
C1000 C 0.65764 0.04019 0.39468 0.0
C1001 C 0.6699 0.04139 0.36469 0.0
H1002 H 0.65109 0.01495 0.4047 0.0
C1003 C 0.65722 0.02023 0.39256 0.0
C1004 C 0.66476 0.00763 0.37721 0.0
C1005 C 0.6704 0.02136 0.36317 0.0
C1006 C 0.67658 0.05292 0.34951 0.0
H1007 H 0.67642 0.01712 0.35022 0.0
C1008 C 0.68756 0.07074 0.35445 0.0
C1009 C 0.69355 0.08191 0.34031 0.0
C1010 C 0.67185 0.04633 0.33005 0.0
H1011 H 0.66311 0.0329 0.32569 0.0
C1012 C 0.67814 0.05717 0.31595 0.0
H1013 H 0.6917 0.07588 0.36935 0.0
C1014 C 0.68892 0.07485 0.321 0.0
H1015 H 0.69325 0.0832 0.3098 0.0
H1016 H 0.67441 0.05195 0.30102 0.0
H1017 H 0.75604 0.86037 0.0143 0.0
C1018 C 0.75227 0.87429 0.01111 0.0
C1019 C 0.75843 0.89033 0.0243 0.0
C1020 C 0.7421 0.87641 0.99342 0.0
H1021 H 0.75852 0.92073 0.03041 0.0
C1022 C 0.75378 0.90835 0.02015 0.0
C1023 C 0.74346 0.91072 0.00282 0.0
C1024 C 0.73785 0.89479 0.98936 0.0
C1025 C 0.73648 0.85967 0.97888 0.0
H1026 H 0.72992 0.89668 0.9759 0.0
C1027 C 0.72848 0.8421 0.98403 0.0
C1028 C 0.7226 0.82654 0.97001 0.0
C1029 C 0.73894 0.8613 0.9596 0.0
H1030 H 0.74535 0.8745 0.95524 0.0
C1031 C 0.73338 0.84586 0.94573 0.0
H1032 H 0.72623 0.84074 0.99879 0.0
C1033 C 0.7252 0.82863 0.95084 0.0
H1034 H 0.72105 0.81684 0.9398 0.0
H1035 H 0.73541 0.84727 0.93095 0.0
H1036 H 0.54886 0.24827 0.44823 0.0
C1037 C 0.55772 0.24837 0.46164 0.0
C1038 C 0.55061 0.25442 0.47883 0.0
C1039 C 0.57589 0.24175 0.46184 0.0
H1040 H 0.556 0.25784 0.50949 0.0
C1041 C 0.56183 0.254 0.49619 0.0
C1042 C 0.57964 0.24692 0.49674 0.0
C1043 C 0.58667 0.24089 0.47955 0.0
C1044 C 0.58312 0.23455 0.44371 0.0
H1045 H 0.60046 0.23541 0.48002 0.0
C1046 C 0.58128 0.24445 0.42735 0.0
C1047 C 0.58818 0.23745 0.41025 0.0
C1048 C 0.59185 0.21751 0.4427 0.0
H1049 H 0.59319 0.20939 0.45488 0.0
C1050 C 0.59873 0.21057 0.42587 0.0
H1051 H 0.57452 0.25755 0.42795 0.0
C1052 C 0.59697 0.22043 0.40979 0.0
H1053 H 0.60275 0.21483 0.39703 0.0
H1054 H 0.60549 0.19747 0.4253 0.0
H1055 H 0.01797 0.74842 0.86641 0.0
C1056 C 0.01351 0.74444 0.87984 0.0
C1057 C 0.02723 0.74507 0.89563 0.0
C1058 C 0.99411 0.73885 0.88142 0.0
H1059 H 0.03215 0.74144 0.92543 0.0
C1060 C 0.02155 0.74032 0.91311 0.0
C1061 C 0.0023 0.73532 0.91522 0.0
C1062 C 0.98859 0.73459 0.89933 0.0
C1063 C 0.97967 0.7376 0.86443 0.0
H1064 H 0.97373 0.73042 0.90089 0.0
C1065 C 0.98381 0.73 0.8463 0.0
C1066 C 0.97019 0.7287 0.83017 0.0
C1067 C 0.96166 0.74397 0.86622 0.0
H1068 H 0.95811 0.75014 0.87987 0.0
C1069 C 0.9481 0.74271 0.85033 0.0
H1070 H 0.99766 0.72509 0.84476 0.0
C1071 C 0.95227 0.73511 0.83245 0.0
H1072 H 0.94132 0.73403 0.82047 0.0
H1073 H 0.93427 0.74762 0.85189 0.0
H1074 H 0.96007 0.33386 0.62857 0.0
C1075 C 0.96931 0.34021 0.61907 0.0
C1076 C 0.96755 0.3328 0.59978 0.0
C1077 C 0.98252 0.35614 0.62585 0.0
H1078 H 0.97817 0.33546 0.57257 0.0
C1079 C 0.97984 0.34078 0.58761 0.0
C1080 C 0.99323 0.35652 0.59417 0.0
C1081 C 0.99428 0.36442 0.61327 0.0
C1082 C 0.98461 0.3645 0.6474 0.0
H1083 H 0.00453 0.37665 0.61844 0.0
C1084 C 0.98711 0.35104 0.66883 0.0
C1085 C 0.99228 0.36423 0.69228 0.0
C1086 C 0.98615 0.39007 0.65097 0.0
H1087 H 0.98428 0.39808 0.63878 0.0
C1088 C 0.99208 0.40274 0.67453 0.0
H1089 H 0.98562 0.35578 0.65623 0.0
C1090 C 0.99568 0.38969 0.69497 0.0
H1091 H 0.99915 0.39751 0.70898 0.0
H1092 H 0.99354 0.4182 0.67637 0.0
H1093 H 0.38224 0.66183 0.06751 0.0
C1094 C 0.38068 0.6627 0.05223 0.0
C1095 C 0.39447 0.65664 0.04147 0.0
C1096 C 0.3649 0.66958 0.04339 0.0
H1097 H 0.40454 0.65127 0.01604 0.0
C1098 C 0.39248 0.65729 0.02162 0.0
C1099 C 0.3773 0.66558 0.00947 0.0
C1100 C 0.36343 0.67095 0.0235 0.0
C1101 C 0.34988 0.67608 0.05523 0.0
H1102 H 0.35064 0.67738 0.01963 0.0
C1103 C 0.355 0.6865 0.07332 0.0
C1104 C 0.34098 0.69244 0.08468 0.0
C1105 C 0.33038 0.67179 0.04861 0.0
H1106 H 0.3259 0.66348 0.03495 0.0
C1107 C 0.31641 0.67797 0.05968 0.0
H1108 H 0.36994 0.69026 0.07849 0.0
C1109 C 0.32163 0.68824 0.07759 0.0
H1110 H 0.31053 0.69253 0.08608 0.0
H1111 H 0.30146 0.67458 0.05443 0.0
H1112 H 0.44856 0.55341 0.24479 0.0
C1113 C 0.46252 0.56142 0.24565 0.0
C1114 C 0.47879 0.5526 0.2512 0.0
C1115 C 0.46433 0.58028 0.24065 0.0
H1116 H 0.50945 0.55533 0.25489 0.0
C1117 C 0.49692 0.56259 0.25157 0.0
C1118 C 0.49913 0.58107 0.24604 0.0
C1119 C 0.48279 0.58996 0.24085 0.0
C1120 C 0.4471 0.58954 0.2343 0.0
H1121 H 0.48453 0.60437 0.23685 0.0
C1122 C 0.43013 0.5869 0.24313 0.0
C1123 C 0.41386 0.59566 0.23701 0.0
C1124 C 0.44752 0.60103 0.21916 0.0
H1125 H 0.46011 0.60304 0.21173 0.0
C1126 C 0.43157 0.60989 0.21319 0.0
H1127 H 0.42957 0.57799 0.25471 0.0
C1128 C 0.4149 0.60731 0.22204 0.0
H1129 H 0.40285 0.61461 0.21723 0.0
H1130 H 0.43212 0.61879 0.20161 0.0
H1131 H 0.86762 0.01474 0.74824 0.0
C1132 C 0.88133 0.01073 0.74464 0.0
C1133 C 0.89693 0.02482 0.74606 0.0
C1134 C 0.88346 0.99152 0.73876 0.0
H1135 H 0.9269 0.03048 0.74335 0.0
C1136 C 0.91473 0.01965 0.74168 0.0
C1137 C 0.91731 1.00058 0.73629 0.0
C1138 C 0.90164 0.98654 0.73486 0.0
C1139 C 0.86677 0.97669 0.73677 0.0
H1140 H 0.90358 0.97182 0.7304 0.0
C1141 C 0.84878 0.98035 0.72837 0.0
C1142 C 0.8331 0.96614 0.72599 0.0
C1143 C 0.86879 0.95867 0.74305 0.0
H1144 H 0.88233 0.9555 0.74984 0.0
C1145 C 0.85327 0.94459 0.74084 0.0
H1146 H 0.8471 0.99404 0.72311 0.0
C1147 C 0.83556 0.94823 0.73232 0.0
H1148 H 0.82371 0.93709 0.73087 0.0
H1149 H 0.85497 0.93079 0.74578 0.0
H1150 H 0.62601 0.96001 0.3316 0.0
C1151 C 0.61685 0.96983 0.33754 0.0
C1152 C 0.59797 0.96911 0.32909 0.0
C1153 C 0.62333 0.98251 0.35398 0.0
H1154 H 0.57129 0.98112 0.33032 0.0
C1155 C 0.58606 0.98207 0.3364 0.0
C1156 C 0.59235 0.99507 0.35253 0.0
C1157 C 0.61092 0.99497 0.36151 0.0
C1158 C 0.64276 0.98276 0.36382 0.0
H1159 H 0.61577 0.00475 0.3742 0.0
C1160 C 0.66341 0.9853 0.35084 0.0
C1161 C 0.68713 0.98977 0.36367 0.0
C1162 C 0.64578 0.98365 0.38919 0.0
H1163 H 0.63341 0.98201 0.39698 0.0
C1164 C 0.66928 0.98896 0.4021 0.0
H1165 H 0.66144 0.98441 0.33542 0.0
C1166 C 0.68982 0.99257 0.38919 0.0
H1167 H 0.70376 0.9961 0.39713 0.0
H1168 H 0.67102 0.99019 0.41755 0.0
H1169 H 0.06845 0.38248 0.67014 0.0
C1170 C 0.05301 0.3807 0.66965 0.0
C1171 C 0.04275 0.39465 0.6632 0.0
C1172 C 0.0435 0.36444 0.67503 0.0
H1173 H 0.01768 0.40446 0.65546 0.0
C1174 C 0.02276 0.39239 0.66193 0.0
C1175 C 0.00993 0.37727 0.66951 0.0
C1176 C 0.02341 0.36288 0.67498 0.0
C1177 C 0.05489 0.34903 0.68135 0.0
H1178 H 0.01894 0.34972 0.68064 0.0
C1179 C 0.07248 0.35368 0.6928 0.0
C1180 C 0.08415 0.33946 0.69756 0.0
C1181 C 0.04871 0.32971 0.67531 0.0
H1182 H 0.03542 0.32563 0.66625 0.0
C1183 C 0.05991 0.31546 0.68049 0.0
H1184 H 0.07711 0.36847 0.69803 0.0
C1185 C 0.07756 0.32025 0.69142 0.0
H1186 H 0.08622 0.30893 0.69463 0.0
H1187 H 0.05507 0.30063 0.67566 0.0
H1188 H 0.73464 0.53602 0.43463 0.0
C1189 C 0.74363 0.52592 0.42868 0.0
C1190 C 0.75516 0.51631 0.44102 0.0
C1191 C 0.74315 0.52199 0.40871 0.0
H1192 H 0.77447 0.49468 0.44264 0.0
C1193 C 0.76632 0.50284 0.43321 0.0
C1194 C 0.76586 0.49853 0.41341 0.0
C1195 C 0.75432 0.5082 0.40122 0.0
C1196 C 0.73026 0.53149 0.39566 0.0
H1197 H 0.75401 0.50491 0.3859 0.0
C1198 C 0.72842 0.55115 0.39912 0.0
C1199 C 0.71626 0.56009 0.38664 0.0
C1200 C 0.71963 0.52084 0.37962 0.0
H1201 H 0.72044 0.50564 0.37675 0.0
C1202 C 0.70754 0.52961 0.36727 0.0
H1203 H 0.73678 0.55957 0.41125 0.0
C1204 C 0.70585 0.54907 0.3707 0.0
H1205 H 0.69614 0.55544 0.36102 0.0
H1206 H 0.69935 0.52124 0.35504 0.0
H1207 H 0.67674 0.37233 0.02352 0.0
C1208 C 0.66495 0.38035 0.01971 0.0
C1209 C 0.66017 0.39429 0.03343 0.0
C1210 C 0.65503 0.3774 0.00114 0.0
H1211 H 0.64319 0.41743 0.03865 0.0
C1212 C 0.64591 0.40581 0.02844 0.0
C1213 C 0.6366 0.40393 0.00991 0.0
C1214 C 0.64067 0.38933 0.99655 0.0
C1215 C 0.6602 0.36269 0.9863 0.0
H1216 H 0.63272 0.38767 0.98253 0.0
C1217 C 0.6684 0.34619 0.99142 0.0
C1218 C 0.67303 0.33231 0.97738 0.0
C1219 C 0.65707 0.36509 0.96672 0.0
H1220 H 0.65172 0.3778 0.96193 0.0
C1221 C 0.66103 0.35118 0.9528 0.0
H1222 H 0.67108 0.34403 0.00631 0.0
C1223 C 0.66877 0.33488 0.95801 0.0
H1224 H 0.67124 0.32421 0.94675 0.0
H1225 H 0.65815 0.35309 0.93784 0.0
H1226 H 0.31673 0.9605 0.60535 0.0
C1227 C 0.32326 0.97487 0.61004 0.0
C1228 C 0.33846 0.98213 0.60066 0.0
C1229 C 0.31548 0.98632 0.62409 0.0
H1230 H 0.35848 0.00648 0.59893 0.0
C1231 C 0.34669 0.0009 0.60615 0.0
C1232 C 0.33853 0.0132 0.61912 0.0
C1233 C 0.3232 0.00564 0.62845 0.0
C1234 C 0.29793 0.97838 0.63212 0.0
H1235 H 0.3169 0.01495 0.63853 0.0
C1236 C 0.29464 0.95861 0.63367 0.0
C1237 C 0.27694 0.95027 0.63803 0.0
C1238 C 0.28347 0.98992 0.63644 0.0
H1239 H 0.28511 0.00508 0.63514 0.0
C1240 C 0.2662 0.98186 0.64172 0.0
H1241 H 0.30579 0.94951 0.6312 0.0
C1242 C 0.26283 0.96217 0.64234 0.0
H1243 H 0.24903 0.95623 0.6457 0.0
H1244 H 0.25516 0.99089 0.64488 0.0
H1245 H 0.26225 0.13954 0.97162 0.0
C1246 C 0.25883 0.12563 0.97634 0.0
C1247 C 0.24497 0.11263 0.96514 0.0
C1248 C 0.26858 0.12049 0.99314 0.0
H1249 H 0.23084 0.08407 0.96149 0.0
C1250 C 0.2412 0.09423 0.97047 0.0
C1251 C 0.25148 0.08832 0.98638 0.0
C1252 C 0.26463 0.10171 0.99808 0.0
C1253 C 0.28365 0.13432 0.00475 0.0
H1254 H 0.2722 0.09725 0.01064 0.0
C1255 C 0.28222 0.15418 0.0062 0.0
C1256 C 0.29683 0.16725 0.01642 0.0
C1257 C 0.29994 0.12781 0.01399 0.0
H1258 H 0.30199 0.1128 0.01281 0.0
C1259 C 0.31421 0.14066 0.02452 0.0
H1260 H 0.2697 0.15955 0.99952 0.0
C1261 C 0.31273 0.16023 0.02572 0.0
H1262 H 0.32433 0.16989 0.03348 0.0
H1263 H 0.32668 0.13545 0.03148 0.0
H1264 H 0.43346 0.73125 0.53492 0.0
C1265 C 0.42695 0.74002 0.52494 0.0
C1266 C 0.43869 0.75192 0.51509 0.0
C1267 C 0.40689 0.7388 0.52133 0.0
H1268 H 0.43909 0.77135 0.49344 0.0
C1269 C 0.43018 0.76282 0.50178 0.0
C1270 C 0.41032 0.76156 0.49774 0.0
C1271 C 0.39871 0.74961 0.50757 0.0
C1272 C 0.39456 0.72533 0.53101 0.0
H1273 H 0.38334 0.74869 0.50436 0.0
C1274 C 0.399 0.72285 0.55042 0.0
C1275 C 0.38774 0.70949 0.55926 0.0
C1276 C 0.37851 0.71442 0.52065 0.0
H1277 H 0.37488 0.71567 0.50563 0.0
C1278 C 0.36718 0.70139 0.52942 0.0
H1279 H 0.41132 0.73111 0.5586 0.0
C1280 C 0.37175 0.69887 0.54856 0.0
H1281 H 0.36269 0.68867 0.55503 0.0
H1282 H 0.35488 0.69307 0.5213 0.0
H1283 H 0.97934 0.26843 0.13766 0.0
C1284 C 0.986 0.26449 0.1249 0.0
C1285 C 0.97772 0.24865 0.11225 0.0
C1286 C 0.00221 0.27582 0.12064 0.0
H1287 H 0.97898 0.23254 0.08503 0.0
C1288 C 0.98593 0.24406 0.09535 0.0
C1289 C 0.00187 0.2553 0.09068 0.0
C1290 C 0.0101 0.27098 0.10349 0.0
C1291 C 0.00991 0.29359 0.13321 0.0
H1292 H 0.02248 0.27959 0.09989 0.0
C1293 C 0.0109 0.29431 0.15331 0.0
C1294 C 0.01786 0.31134 0.165 0.0
C1295 C 0.01588 0.3102 0.12502 0.0
H1296 H 0.01486 0.31035 0.10967 0.0
C1297 C 0.02281 0.32703 0.1365 0.0
H1298 H 0.00657 0.28159 0.15985 0.0
C1299 C 0.02379 0.32765 0.15631 0.0
H1300 H 0.02885 0.34107 0.16482 0.0
H1301 H 0.02723 0.33974 0.13001 0.0
H1302 H 0.03857 0.67774 0.38457 0.0
C1303 C 0.03373 0.6658 0.39198 0.0
C1304 C 0.04582 0.66074 0.40716 0.0
C1305 C 0.0153 0.65595 0.38692 0.0
H1306 H 0.04821 0.64304 0.43012 0.0
C1307 C 0.03933 0.64609 0.41763 0.0
C1308 C 0.02083 0.63676 0.4135 0.0
C1309 C 0.00909 0.64131 0.39784 0.0
C1310 C 0.00221 0.6616 0.37102 0.0
H1311 H 0.99501 0.63355 0.39452 0.0
C1312 C 0.00942 0.66923 0.35509 0.0
C1313 C 0.99704 0.67519 0.34056 0.0
C1314 C 0.98231 0.65976 0.37186 0.0
H1315 H 0.97609 0.65459 0.38401 0.0
C1316 C 0.96998 0.66497 0.35717 0.0
H1317 H 0.02462 0.67069 0.35399 0.0
C1318 C 0.97723 0.67264 0.34165 0.0
H1319 H 0.96727 0.67644 0.3304 0.0
H1320 H 0.95472 0.66325 0.35791 0.0
H1321 H 0.59541 0.31535 0.95348 0.0
C1322 C 0.60096 0.32151 0.96778 0.0
C1323 C 0.58996 0.33349 0.97803 0.0
C1324 C 0.6183 0.3164 0.97623 0.0
H1325 H 0.588 0.34955 0.00511 0.0
C1326 C 0.59684 0.34108 0.99678 0.0
C1327 C 0.61402 0.33615 0.00563 0.0
C1328 C 0.62467 0.32386 0.99526 0.0
C1329 C 0.62857 0.30188 0.96572 0.0
H1330 H 0.63774 0.31991 0.00221 0.0
C1331 C 0.62815 0.30056 0.94565 0.0
C1332 C 0.6359 0.28557 0.93547 0.0
C1333 C 0.63759 0.28826 0.97551 0.0
H1334 H 0.63763 0.28825 0.99081 0.0
C1335 C 0.64628 0.27404 0.96561 0.0
H1336 H 0.62153 0.31102 0.93781 0.0
C1337 C 0.64539 0.27261 0.94575 0.0
H1338 H 0.65141 0.26084 0.93842 0.0
H1339 H 0.65321 0.2637 0.97335 0.0
H1340 H 0.52607 0.42561 0.72751 0.0
C1341 C 0.51788 0.41952 0.73804 0.0
C1342 C 0.50612 0.43086 0.74805 0.0
C1343 C 0.51772 0.39994 0.74045 0.0
H1344 H 0.48562 0.43153 0.76858 0.0
C1345 C 0.49499 0.42284 0.76114 0.0
C1346 C 0.49455 0.40346 0.76364 0.0
C1347 C 0.50588 0.39202 0.75326 0.0
C1348 C 0.52841 0.38735 0.7283 0.0
H1349 H 0.50522 0.37693 0.75499 0.0
C1350 C 0.54725 0.39314 0.72472 0.0
C1351 C 0.55698 0.38125 0.71274 0.0
C1352 C 0.51949 0.3695 0.71978 0.0
H1353 H 0.50491 0.36478 0.72194 0.0
C1354 C 0.52911 0.35767 0.70803 0.0
H1355 H 0.55428 0.40688 0.73114 0.0
C1356 C 0.5477 0.36347 0.70449 0.0
H1357 H 0.55491 0.35393 0.69543 0.0
H1358 H 0.52209 0.34397 0.70156 0.0
H1359 H 0.13867 0.98143 0.26574 0.0
C1360 C 0.12573 0.98792 0.26217 0.0
C1361 C 0.11225 0.97875 0.24742 0.0
C1362 C 0.12225 0.005 0.27265 0.0
H1363 H 0.08422 0.97897 0.23271 0.0
C1364 C 0.09509 0.98662 0.24332 0.0
C1365 C 0.0911 0.00336 0.25375 0.0
C1366 C 0.10486 0.01265 0.26817 0.0
C1367 C 0.13625 0.01427 0.28887 0.0
H1368 H 0.10189 0.0258 0.27592 0.0
C1369 C 0.15612 0.01387 0.28834 0.0
C1370 C 0.16919 0.02234 0.30386 0.0
C1371 C 0.12975 0.02328 0.30529 0.0
H1372 H 0.11465 0.02341 0.30658 0.0
C1373 C 0.14265 0.0319 0.32055 0.0
H1374 H 0.1615 0.00725 0.27579 0.0
C1375 C 0.16222 0.03147 0.31988 0.0
H1376 H 0.17188 0.03789 0.33213 0.0
H1377 H 0.13744 0.03873 0.33309 0.0
H1378 H 0.37813 0.02768 0.66981 0.0
C1379 C 0.38679 0.02265 0.65895 0.0
C1380 C 0.40012 0.03571 0.65219 0.0
C1381 C 0.38578 0.00297 0.65291 0.0
H1382 H 0.42315 0.03884 0.63463 0.0
C1383 C 0.41203 0.02899 0.63889 0.0
C1384 C 0.41161 0.00943 0.63313 0.0
C1385 C 0.39818 0.99653 0.63985 0.0
C1386 C 0.37363 0.98896 0.66209 0.0
H1387 H 0.39797 0.98139 0.6355 0.0
C1388 C 0.35492 0.9922 0.66566 0.0
C1389 C 0.34376 0.97931 0.6752 0.0
C1390 C 0.38113 0.9726 0.66814 0.0
H1391 H 0.39561 0.96988 0.66601 0.0
C1392 C 0.37027 0.95985 0.67763 0.0
H1393 H 0.3491 0.00467 0.66081 0.0
C1394 C 0.35181 0.96319 0.68125 0.0
H1395 H 0.34404 0.95324 0.68915 0.0
H1396 H 0.37629 0.94745 0.68246 0.0
H1397 H 0.94819 0.61666 0.32086 0.0
C1398 C 0.9636 0.61825 0.32158 0.0
C1399 C 0.97375 0.60817 0.33458 0.0
C1400 C 0.97314 0.62961 0.30935 0.0
H1401 H 0.00171 0.60318 0.34667 0.0
C1402 C 0.99372 0.6111 0.33687 0.0
C1403 C 0.00366 0.62255 0.32525 0.0
C1404 C 0.99334 0.63116 0.31106 0.0
C1405 C 0.96202 0.6394 0.29469 0.0
H1406 H 0.00118 0.63886 0.30133 0.0
C1407 C 0.94296 0.6325 0.28764 0.0
C1408 C 0.93218 0.64228 0.27476 0.0
C1409 C 0.97019 0.65599 0.28777 0.0
H1410 H 0.98461 0.66194 0.29255 0.0
C1411 C 0.95973 0.66548 0.27466 0.0
H1412 H 0.93639 0.61932 0.2918 0.0
C1413 C 0.94081 0.65878 0.26825 0.0
H1414 H 0.93283 0.66671 0.25848 0.0
H1415 H 0.96627 0.67828 0.26966 0.0
H1416 H 0.11745 0.5948 0.31074 0.0
H1417 H 0.02784 0.63047 0.35805 0.0
H1418 H 0.11918 0.6168 0.37004 0.0
H1419 H 0.02758 0.61711 0.29728 0.0
H1420 H 0.06205 0.62791 0.36218 0.0
H1421 H 0.08529 0.60455 0.30494 0.0
C1422 C 0.11113 0.60176 0.32252 0.0
C1423 C 0.12104 0.60488 0.34094 0.0
C1424 C 0.05464 0.62577 0.34788 0.0
C1425 C 0.08424 0.61613 0.33437 0.0
C1426 C 0.03509 0.6273 0.34553 0.0
C1427 C 0.02485 0.62395 0.32732 0.0
C1428 C 0.06406 0.62047 0.33192 0.0
C1429 C 0.03496 0.61986 0.31157 0.0
C1430 C 0.09281 0.60744 0.31917 0.0
C1431 C 0.11221 0.61423 0.35557 0.0
N1432 N 0.05397 0.61794 0.31426 0.0
N1433 N 0.0943 0.61934 0.35201 0.0
H1434 H 0.38077 0.38394 0.78391 0.0
H1435 H 0.49111 0.41267 0.80134 0.0
H1436 H 0.40976 0.40448 0.83973 0.0
H1437 H 0.46443 0.3768 0.75132 0.0
H1438 H 0.46233 0.40615 0.8172 0.0
H1439 H 0.41134 0.37742 0.773 0.0
C1440 C 0.39346 0.38669 0.79404 0.0
C1441 C 0.39265 0.39516 0.81271 0.0
C1442 C 0.4629 0.39926 0.80295 0.0
C1443 C 0.42788 0.3881 0.80009 0.0
C1444 C 0.47936 0.40291 0.79397 0.0
C1445 C 0.48004 0.39525 0.77505 0.0
C1446 C 0.44683 0.38829 0.79272 0.0
C1447 C 0.46443 0.38287 0.76597 0.0
C1448 C 0.41099 0.38303 0.78774 0.0
C1449 C 0.40972 0.39852 0.82505 0.0
N1450 N 0.44827 0.3801 0.77473 0.0
N1451 N 0.42664 0.39531 0.81843 0.0
H1452 H 0.52528 0.98203 0.62698 0.0
H1453 H 0.42582 0.02189 0.60135 0.0
H1454 H 0.51434 0.01648 0.58085 0.0
H1455 H 0.43444 0.98232 0.64323 0.0
H1456 H 0.4568 0.01636 0.59054 0.0
H1457 H 0.49107 0.9784 0.63039 0.0
C1458 C 0.51567 0.98861 0.6174 0.0
C1459 C 0.52276 0.99988 0.60385 0.0
C1460 C 0.45179 0.00858 0.60184 0.0
C1461 C 0.48359 0.99593 0.60777 0.0
C1462 C 0.43407 0.01169 0.60794 0.0
C1463 C 0.42764 0.00265 0.62327 0.0
C1464 C 0.46331 0.99658 0.61135 0.0
C1465 C 0.43884 0.98953 0.63131 0.0
C1466 C 0.49613 0.98658 0.61938 0.0
C1467 C 0.5096 0.00811 0.59185 0.0
N1468 N 0.45629 0.98715 0.6255 0.0
N1469 N 0.49073 0.00615 0.59423 0.0
H1470 H 0.97622 0.00369 0.20405 0.0
H1471 H 0.06797 0.01465 0.28069 0.0
H1472 H 0.97357 0.01424 0.26483 0.0
H1473 H 0.06994 0.00604 0.21975 0.0
H1474 H 0.03409 0.01916 0.2752 0.0
H1475 H 0.01089 0.00893 0.20949 0.0
C1476 C 0.98287 0.00744 0.21854 0.0
C1477 C 0.97183 0.00838 0.23401 0.0
C1478 C 0.042 0.01656 0.26302 0.0
C1479 C 0.01182 0.01398 0.24039 0.0
C1480 C 0.06139 0.01415 0.26615 0.0
C1481 C 0.07174 0.00974 0.25065 0.0
C1482 C 0.0329 0.0145 0.24426 0.0
C1483 C 0.06242 0.00908 0.23211 0.0
C1484 C 0.00275 0.0103 0.22165 0.0
C1485 C 0.98144 0.01298 0.25248 0.0
N1486 N 0.0435 0.01119 0.22945 0.0
N1487 N 0.00086 0.01542 0.25517 0.0
H1488 H 0.34593 0.1376 0.63867 0.0
H1489 H 0.3486 0.034 0.59037 0.0
H1490 H 0.38492 0.1238 0.59742 0.0
H1491 H 0.34075 0.04094 0.65039 0.0
H1492 H 0.35795 0.06784 0.59176 0.0
H1493 H 0.34002 0.1033 0.64261 0.0
C1494 C 0.35336 0.12741 0.6306 0.0
C1495 C 0.36594 0.13358 0.61769 0.0
C1496 C 0.3544 0.06197 0.6047 0.0
C1497 C 0.3591 0.09462 0.62198 0.0
C1498 C 0.34921 0.04248 0.60403 0.0
C1499 C 0.34433 0.03424 0.62045 0.0
C1500 C 0.35422 0.07375 0.62174 0.0
C1501 C 0.3444 0.04655 0.63737 0.0
C1502 C 0.35008 0.10794 0.63297 0.0
C1503 C 0.37525 0.11979 0.60767 0.0
N1504 N 0.34914 0.06577 0.63756 0.0
N1505 N 0.37145 0.10102 0.60983 0.0
H1506 H 0.24367 0.97446 0.02659 0.0
H1507 H 0.24937 0.05797 0.95927 0.0
H1508 H 0.21695 0.96957 0.96862 0.0
H1509 H 0.2498 0.07152 0.02015 0.0
H1510 H 0.24369 0.02427 0.96314 0.0
H1511 H 0.25154 0.00907 0.0252 0.0
C1512 C 0.23947 0.98068 0.01363 0.0
C1513 C 0.22952 0.96923 0.99774 0.0
C1514 C 0.24498 0.03459 0.97568 0.0
C1515 C 0.2387 0.00833 0.99597 0.0
C1516 C 0.24812 0.05388 0.97349 0.0
C1517 C 0.24951 0.0677 0.98935 0.0
C1518 C 0.24346 0.02882 0.99391 0.0
C1519 C 0.24864 0.06136 0.00752 0.0
C1520 C 0.24388 1.00034 0.01289 0.0
C1521 C 0.2244 0.97791 0.98128 0.0
N1522 N 0.24557 0.04231 0.00933 0.0
N1523 N 0.22915 0.99685 0.98079 0.0
H1524 H 0.83471 0.40758 0.42125 0.0
H1525 H 0.75191 0.46853 0.38668 0.0
H1526 H 0.78493 0.38374 0.38307 0.0
H1527 H 0.80257 0.49161 0.42375 0.0
H1528 H 0.76634 0.43881 0.38023 0.0
H1529 H 0.82586 0.43942 0.41743 0.0
C1530 C 0.82211 0.40899 0.41173 0.0
C1531 C 0.81045 0.39281 0.40266 0.0
C1532 C 0.77445 0.4505 0.3895 0.0
C1533 C 0.79991 0.42949 0.39863 0.0
C1534 C 0.76627 0.46752 0.39305 0.0
C1535 C 0.77597 0.48243 0.40599 0.0
C1536 C 0.7924 0.44839 0.399 0.0
C1537 C 0.79449 0.48032 0.41395 0.0
C1538 C 0.81697 0.42726 0.40968 0.0
C1539 C 0.79413 0.39573 0.39074 0.0
N1540 N 0.80198 0.46353 0.41055 0.0
N1541 N 0.78921 0.41368 0.38927 0.0
H1542 H 0.62346 0.51603 0.98164 0.0
H1543 H 0.60736 0.41821 0.02733 0.0
H1544 H 0.58597 0.50671 0.02521 0.0
H1545 H 0.64078 0.42527 0.98024 0.0
H1546 H 0.59536 0.44898 0.02325 0.0
H1547 H 0.6265 0.48173 0.97768 0.0
C1548 C 0.61568 0.50676 0.9902 0.0
C1549 C 0.60473 0.51434 0.00403 0.0
C1550 C 0.60501 0.44367 0.01352 0.0
C1551 C 0.60823 0.47507 0.99966 0.0
C1552 C 0.61175 0.42605 0.01579 0.0
C1553 C 0.62516 0.4193 0.00419 0.0
C1554 C 0.61199 0.45477 0.99975 0.0
C1555 C 0.6304 0.42996 0.98945 0.0
C1556 C 0.61745 0.48717 0.98796 0.0
C1557 C 0.595 0.50161 0.01474 0.0
N1558 N 0.6241 0.44736 0.98788 0.0
N1559 N 0.59714 0.48268 0.01247 0.0
H1560 H 0.61099 0.39165 0.11887 0.0
H1561 H 0.62523 0.31367 0.03316 0.0
H1562 H 0.60806 0.33108 0.12353 0.0
H1563 H 0.61369 0.37134 0.02559 0.0
H1564 H 0.62702 0.32154 0.0678 0.0
H1565 H 0.61938 0.38583 0.08631 0.0
C1566 C 0.61221 0.37712 0.11312 0.0
C1567 C 0.6084 0.3618 0.12393 0.0
C1568 C 0.62441 0.33256 0.05856 0.0
C1569 C 0.61843 0.3551 0.08664 0.0
C1570 C 0.62357 0.32813 0.03879 0.0
C1571 C 0.61911 0.34183 0.02645 0.0
C1572 C 0.62086 0.35083 0.06607 0.0
C1573 C 0.61691 0.36029 0.03458 0.0
C1574 C 0.61714 0.37384 0.09454 0.0
C1575 C 0.61083 0.34336 0.11583 0.0
N1576 N 0.61762 0.3642 0.05385 0.0
N1577 N 0.61549 0.34051 0.09762 0.0
H1578 H 0.00228 0.26265 0.97104 0.0
H1579 H 0.00838 0.22133 0.07168 0.0
H1580 H 0.01032 0.20395 0.9781 0.0
H1581 H 0.00879 0.28138 0.06541 0.0
H1582 H 0.01251 0.21519 0.0378 0.0
H1583 H 0.00805 0.27042 0.00563 0.0
C1584 C 0.00558 0.25143 0.9798 0.0
C1585 C 0.00555 0.23254 0.97159 0.0
C1586 C 0.01202 0.22976 0.04387 0.0
C1587 C 0.01184 0.24131 0.01135 0.0
C1588 C 0.00967 0.23326 0.06321 0.0
C1589 C 0.0081 0.25186 0.07132 0.0
C1590 C 0.01253 0.24495 0.03246 0.0
C1591 C 0.01 0.26682 0.05975 0.0
C1592 C 0.00878 0.25588 0.99961 0.0
C1593 C 0.00973 0.21861 0.98379 0.0
N1594 N 0.01182 0.26301 0.04084 0.0
N1595 N 0.01248 0.22323 0.00302 0.0
H1596 H 0.39253 0.77659 0.38113 0.0
H1597 H 0.41592 0.79927 0.49247 0.0
H1598 H 0.4068 0.83395 0.40902 0.0
H1599 H 0.38744 0.74525 0.46595 0.0
H1600 H 0.4092 0.81316 0.46252 0.0
H1601 H 0.38696 0.76556 0.41192 0.0
C1602 C 0.39411 0.78697 0.39363 0.0
C1603 C 0.4005 0.80621 0.39246 0.0
C1604 C 0.40402 0.79838 0.46331 0.0
C1605 C 0.39453 0.79352 0.42792 0.0
C1606 C 0.40781 0.7905 0.48042 0.0
C1607 C 0.40229 0.77111 0.48157 0.0
C1608 C 0.39502 0.78666 0.44712 0.0
C1609 C 0.39188 0.76028 0.4656 0.0
C1610 C 0.39101 0.78061 0.41127 0.0
C1611 C 0.40244 0.8189 0.40927 0.0
N1612 N 0.38891 0.7681 0.44889 0.0
N1613 N 0.39978 0.81228 0.42632 0.0
H1614 H 0.98295 0.62184 0.52102 0.0
H1615 H 0.03602 0.60656 0.42822 0.0
H1616 H 0.02362 0.58081 0.5135 0.0
H1617 H 0.98894 0.64062 0.43158 0.0
H1618 H 0.02829 0.59325 0.45748 0.0
H1619 H 0.9816 0.62565 0.48691 0.0
C1620 C 0.99137 0.61342 0.51216 0.0
C1621 C 0.00373 0.6013 0.52023 0.0
C1622 C 0.01935 0.60332 0.45164 0.0
C1623 C 0.00239 0.6057 0.48122 0.0
C1624 C 0.02372 0.61081 0.43488 0.0
C1625 C 0.01318 0.62477 0.42761 0.0
C1626 C 0.00457 0.61013 0.4614 0.0
C1627 C 0.99738 0.62984 0.43674 0.0
C1628 C 0.99063 0.61562 0.49268 0.0
C1629 C 0.01432 0.59075 0.50803 0.0
N1630 N 0.99379 0.62283 0.45341 0.0
N1631 N 0.01359 0.59338 0.48923 0.0
H1632 H 0.87881 0.41783 0.68552 0.0
H1633 H 0.95449 0.34897 0.6565 0.0
H1634 H 0.86805 0.37349 0.63821 0.0
H1635 H 0.96652 0.40261 0.69513 0.0
H1636 H 0.92341 0.35417 0.65417 0.0
H1637 H 0.91064 0.40811 0.69261 0.0
C1638 C 0.88312 0.40598 0.67666 0.0
C1639 C 0.87082 0.39667 0.66106 0.0
C1640 C 0.93355 0.36493 0.66264 0.0
C1641 C 0.90732 0.38534 0.6692 0.0
C1642 C 0.95302 0.36258 0.66418 0.0
C1643 C 0.96938 0.37676 0.67341 0.0
C1644 C 0.9274 0.38082 0.67181 0.0
C1645 C 0.95942 0.39111 0.68496 0.0
C1646 C 0.90128 0.40039 0.68076 0.0
C1647 C 0.87703 0.38108 0.65038 0.0
N1648 N 0.94046 0.39284 0.68317 0.0
N1649 N 0.89494 0.37602 0.65452 0.0
H1650 H 0.61949 0.58508 0.24662 0.0
H1651 H 0.51076 0.59786 0.21529 0.0
H1652 H 0.59799 0.5958 0.18989 0.0
H1653 H 0.53182 0.58321 0.27065 0.0
H1654 H 0.54372 0.60458 0.20809 0.0
H1655 H 0.58895 0.59157 0.25771 0.0
C1656 C 0.6085 0.58919 0.23655 0.0
C1657 C 0.61125 0.5896 0.2172 0.0
C1658 C 0.54115 0.60025 0.22196 0.0
C1659 C 0.57603 0.5967 0.22978 0.0
C1660 C 0.52233 0.59659 0.22614 0.0
C1661 C 0.51857 0.5897 0.24349 0.0
C1662 C 0.55629 0.59694 0.23521 0.0
C1663 C 0.53411 0.58817 0.25697 0.0
C1664 C 0.59098 0.59277 0.24289 0.0
C1665 C 0.59637 0.59486 0.20483 0.0
N1666 N 0.55227 0.59146 0.25244 0.0
N1667 N 0.57933 0.59796 0.21127 0.0
H1668 H 0.50267 0.0231 0.41921 0.0
H1669 H 0.56802 0.01632 0.33368 0.0
H1670 H 0.48229 0.02311 0.35966 0.0
H1671 H 0.58461 1.00058 0.38981 0.0
H1672 H 0.53975 0.02864 0.3454 0.0
H1673 H 0.53537 0.02406 0.41064 0.0
C1674 C 0.50504 0.02351 0.40435 0.0
C1675 C 0.48958 0.02257 0.39008 0.0
C1676 C 0.54976 0.02283 0.35525 0.0
C1677 C 0.52705 0.02402 0.38029 0.0
C1678 C 0.5659 0.01585 0.3486 0.0
C1679 C 0.57843 0.00705 0.3607 0.0
C1680 C 0.54607 0.02098 0.37415 0.0
C1681 C 0.57524 0.00713 0.37997 0.0
C1682 C 0.52374 0.02417 0.39952 0.0
C1683 C 0.49365 0.02377 0.37117 0.0
N1684 N 0.55915 0.01365 0.38604 0.0
N1685 N 0.51196 0.02418 0.36681 0.0
H1686 H 0.03591 0.01635 0.72023 0.0
H1687 H 0.9367 0.97336 0.75222 0.0
H1688 H 0.03174 0.97955 0.76517 0.0
H1689 H 0.94233 0.01712 0.71418 0.0
H1690 H 0.97089 0.97 0.75206 0.0
H1691 H 0.00127 0.01124 0.71288 0.0
C1692 C 0.02776 0.00689 0.72832 0.0
C1693 C 0.03678 0.99854 0.74349 0.0
C1694 C 0.96457 0.98012 0.74351 0.0
C1695 C 0.99696 0.99288 0.73533 0.0
C1696 C 0.94505 0.98191 0.74348 0.0
C1697 C 0.93678 0.99566 0.73335 0.0
C1698 C 0.9758 0.9921 0.73326 0.0
C1699 C 0.94824 0.00651 0.72237 0.0
C1700 C 0.00794 0.0041 0.72421 0.0
C1701 C 0.02537 0.98658 0.7536 0.0
N1702 N 0.96719 0.00463 0.72276 0.0
N1703 N 0.00606 0.98426 0.74946 0.0
H1704 H 0.67741 0.87395 0.41342 0.0
H1705 H 0.65159 0.9529 0.34739 0.0
H1706 H 0.62994 0.86634 0.36924 0.0
H1707 H 0.68928 0.96297 0.4016 0.0
H1708 H 0.64841 0.92161 0.35162 0.0
H1709 H 0.68575 0.90607 0.40485 0.0
C1710 C 0.66892 0.8789 0.40169 0.0
C1711 C 0.65287 0.86747 0.39212 0.0
C1712 C 0.65684 0.93136 0.36277 0.0
C1713 C 0.66222 0.90436 0.38237 0.0
C1714 C 0.65884 0.95092 0.361 0.0
C1715 C 0.66803 0.96675 0.37571 0.0
C1716 C 0.66551 0.92461 0.37857 0.0
C1717 C 0.67914 0.95623 0.38989 0.0
C1718 C 0.67361 0.89731 0.3969 0.0
C1719 C 0.64226 0.87478 0.37719 0.0
N1720 N 0.67692 0.93716 0.39108 0.0
N1721 N 0.64706 0.89281 0.37283 0.0
H1722 H 0.76802 0.02542 0.97781 0.0
H1723 H 0.72474 0.93534 0.02408 0.0
H1724 H 0.73153 0.02887 0.02319 0.0
H1725 H 0.75381 0.93043 0.97337 0.0
H1726 H 0.72381 0.96941 0.02142 0.0
H1727 H 0.76019 0.9907 0.97348 0.0
C1728 C 0.7582 0.01889 0.98673 0.0
C1729 C 0.75059 0.03007 0.00104 0.0
C1730 C 0.73011 0.96089 0.01065 0.0
C1731 C 0.74159 0.99034 0.99617 0.0
C1732 C 0.73059 0.94145 0.01216 0.0
C1733 C 0.73944 0.93019 0.99897 0.0
C1734 C 0.73889 0.96923 0.99604 0.0
C1735 C 0.74682 0.9387 0.98378 0.0
C1736 C 0.75366 0.99908 0.98418 0.0
C1737 C 0.73769 0.02088 0.01194 0.0
N1738 N 0.74668 0.95782 0.9829 0.0
N1739 N 0.73382 0.00156 0.00946 0.0
H1740 H 0.25139 0.62928 0.5976 0.0
H1741 H 0.21843 0.51961 0.60532 0.0
H1742 H 0.19584 0.60878 0.61238 0.0
H1743 H 0.27334 0.54063 0.58957 0.0
H1744 H 0.21203 0.55258 0.61383 0.0
H1745 H 0.26165 0.59771 0.60046 0.0
C1746 C 0.24143 0.61828 0.60184 0.0
C1747 C 0.2226 0.62172 0.60451 0.0
C1748 C 0.22562 0.54998 0.60881 0.0
C1749 C 0.23421 0.58522 0.60738 0.0
C1750 C 0.22934 0.53114 0.60411 0.0
C1751 C 0.24635 0.52739 0.59649 0.0
C1752 C 0.23899 0.56516 0.60585 0.0
C1753 C 0.25991 0.54291 0.59508 0.0
C1754 C 0.24728 0.60015 0.60332 0.0
C1755 C 0.21035 0.60671 0.60975 0.0
N1756 N 0.25584 0.56109 0.59946 0.0
N1757 N 0.21628 0.58908 0.61078 0.0
H1758 H 0.35119 0.48326 0.02771 0.0
H1759 H 0.3876 0.58641 0.0041 0.0
H1760 H 0.41079 0.50214 0.02578 0.0
H1761 H 0.32986 0.56967 0.01528 0.0
H1762 H 0.39758 0.55783 0.01742 0.0
H1763 H 0.34415 0.51631 0.02853 0.0
C1764 C 0.36289 0.49435 0.02786 0.0
C1765 C 0.38158 0.48978 0.02628 0.0
C1766 C 0.3828 0.56061 0.01735 0.0
C1767 C 0.3735 0.5278 0.02673 0.0
C1768 C 0.37713 0.57702 0.00987 0.0
C1769 C 0.35781 0.58018 0.00822 0.0
C1770 C 0.36898 0.54727 0.02305 0.0
C1771 C 0.34484 0.56751 0.01589 0.0
C1772 C 0.35883 0.51329 0.02822 0.0
C1773 C 0.39607 0.50489 0.02639 0.0
N1774 N 0.35058 0.55144 0.02262 0.0
N1775 N 0.39168 0.52316 0.02625 0.0
H1776 H 0.415 0.67871 0.87677 0.0
H1777 H 0.34684 0.65536 0.95476 0.0
H1778 H 0.36767 0.63437 0.86777 0.0
H1779 H 0.40195 0.6913 0.9656 0.0
H1780 H 0.35121 0.65234 0.92348 0.0
H1781 H 0.40664 0.68719 0.90894 0.0
C1782 C 0.40264 0.67096 0.88143 0.0
C1783 C 0.39211 0.65571 0.86956 0.0
C1784 C 0.36258 0.66024 0.93337 0.0
C1785 C 0.38258 0.6652 0.90656 0.0
C1786 C 0.36074 0.66204 0.95292 0.0
C1787 C 0.37572 0.67031 0.96889 0.0
C1788 C 0.37872 0.66844 0.92681 0.0
C1789 C 0.39013 0.68143 0.95863 0.0
C1790 C 0.39796 0.67572 0.89987 0.0
C1791 C 0.37637 0.64603 0.87653 0.0
N1792 N 0.39142 0.67941 0.93957 0.0
N1793 N 0.37216 0.65085 0.89461 0.0
H1794 H 0.02017 0.7228 0.03391 0.0
H1795 H 0.97526 0.75188 0.93436 0.0
H1796 H 0.98132 0.76591 0.0291 0.0
H1797 H 0.01767 0.71244 0.94016 0.0
H1798 H 0.97197 0.75224 0.96859 0.0
H1799 H 0.01411 0.71401 0.99951 0.0
C1800 C 0.01006 0.73018 0.0257 0.0
C1801 C 0.00145 0.74531 0.03445 0.0
C1802 C 0.98174 0.74323 0.96231 0.0
C1803 C 0.99472 0.73553 0.99484 0.0
C1804 C 0.98348 0.7429 0.94275 0.0
C1805 C 0.99691 0.73229 0.93452 0.0
C1806 C 0.9935 0.73284 0.97364 0.0
C1807 C 0.00734 0.72102 0.94604 0.0
C1808 C 0.00671 0.72524 0.00599 0.0
C1809 C 0.98862 0.75445 0.02294 0.0
N1810 N 0.00559 0.72177 0.96504 0.0
N1811 N 0.98582 0.74958 0.00372 0.0
H1812 H 0.58917 0.19093 0.59636 0.0
H1813 H 0.58906 0.27274 0.52832 0.0
H1814 H 0.59977 0.25083 0.61719 0.0
H1815 H 0.59108 0.21363 0.50799 0.0
H1816 H 0.59725 0.26542 0.561 0.0
H1817 H 0.59403 0.19894 0.56434 0.0
C1818 C 0.59293 0.20575 0.59434 0.0
C1819 C 0.59375 0.22025 0.60956 0.0
C1820 C 0.59634 0.2541 0.5494 0.0
C1821 C 0.59889 0.22956 0.57265 0.0
C1822 C 0.59173 0.2583 0.53075 0.0
C1823 C 0.5893 0.24374 0.51552 0.0
C1824 C 0.59814 0.2351 0.55287 0.0
C1825 C 0.59288 0.22527 0.51937 0.0
C1826 C 0.5956 0.21032 0.57596 0.0
C1827 C 0.59846 0.23919 0.60586 0.0
N1828 N 0.59675 0.22138 0.53772 0.0
N1829 N 0.60055 0.24331 0.58776 0.0
H1830 H 0.03289 0.36549 0.48552 0.0
H1831 H 0.99774 0.394 0.58717 0.0
H1832 H 0.01223 0.41948 0.5019 0.0
H1833 H 0.01424 0.33859 0.56903 0.0
H1834 H 0.00993 0.40613 0.55888 0.0
H1835 H 0.03246 0.3578 0.51842 0.0
C1836 C 0.02842 0.3758 0.49606 0.0
C1837 C 0.02235 0.39305 0.49085 0.0
C1838 C 0.01122 0.39141 0.56128 0.0
C1839 C 0.02187 0.38437 0.52859 0.0
C1840 C 0.00443 0.38455 0.57751 0.0
C1841 C 0.00474 0.36522 0.58022 0.0
C1842 C 0.01832 0.3788 0.54774 0.0
C1843 C 0.01347 0.35353 0.56724 0.0
C1844 C 0.02827 0.37145 0.51488 0.0
C1845 C 0.01709 0.40604 0.50523 0.0
N1846 N 0.01964 0.36042 0.55142 0.0
N1847 N 0.01674 0.40133 0.52336 0.0
H1848 H 0.22581 0.49908 0.44124 0.0
H1849 H 0.28474 0.50413 0.5434 0.0
H1850 H 0.28356 0.52612 0.45466 0.0
H1851 H 0.23041 0.47029 0.52831 0.0
H1852 H 0.28615 0.50903 0.50983 0.0
H1853 H 0.22842 0.48546 0.47173 0.0
C1854 C 0.23913 0.50196 0.45046 0.0
C1855 C 0.25439 0.51402 0.44545 0.0
C1856 C 0.27407 0.50021 0.51373 0.0
C1857 C 0.2574 0.4986 0.48052 0.0
C1858 C 0.27334 0.49734 0.53287 0.0
C1859 C 0.25742 0.48684 0.53855 0.0
C1860 C 0.2586 0.49283 0.5002 0.0
C1861 C 0.24297 0.4784 0.52444 0.0
C1862 C 0.24059 0.49421 0.46791 0.0
C1863 C 0.27124 0.51732 0.45809 0.0
N1864 N 0.24373 0.48185 0.50593 0.0
N1865 N 0.27222 0.50983 0.47507 0.0
H1866 H 0.30067 0.53377 0.86073 0.0
H1867 H 0.29535 0.5776 0.96757 0.0
H1868 H 0.26035 0.51154 0.89718 0.0
H1869 H 0.33367 0.60172 0.93031 0.0
H1870 H 0.27854 0.5568 0.94025 0.0
H1871 H 0.30958 0.56163 0.88427 0.0
C1872 C 0.2936 0.53482 0.87363 0.0
C1873 C 0.27993 0.52017 0.8771 0.0
C1874 C 0.29037 0.5669 0.93794 0.0
C1875 C 0.29002 0.55207 0.90412 0.0
C1876 C 0.29991 0.57882 0.95352 0.0
C1877 C 0.31604 0.59122 0.95121 0.0
C1878 C 0.29718 0.5672 0.91995 0.0
C1879 C 0.32129 0.59236 0.93271 0.0
C1880 C 0.2986 0.55079 0.88702 0.0
C1881 C 0.27094 0.52248 0.89389 0.0
N1882 N 0.31212 0.58023 0.91784 0.0
N1883 N 0.27633 0.53798 0.90688 0.0
H1884 H 0.68269 0.07256 0.51311 0.0
H1885 H 0.62485 0.03587 0.41217 0.0
H1886 H 0.62736 0.03958 0.50525 0.0
H1887 H 0.6815 0.06583 0.41933 0.0
H1888 H 0.62224 0.04429 0.44612 0.0
H1889 H 0.67957 0.07667 0.47907 0.0
C1890 C 0.66981 0.06634 0.50428 0.0
C1891 C 0.65541 0.05545 0.51203 0.0
C1892 C 0.63508 0.04942 0.44022 0.0
C1893 C 0.65168 0.06019 0.47306 0.0
C1894 C 0.6365 0.04474 0.42083 0.0
C1895 C 0.6535 0.04999 0.41311 0.0
C1896 C 0.65088 0.05923 0.45195 0.0
C1897 C 0.66818 0.06148 0.42483 0.0
C1898 C 0.66798 0.0688 0.48486 0.0
C1899 C 0.63883 0.04812 0.49998 0.0
N1900 N 0.6667 0.0654 0.44378 0.0
N1901 N 0.63755 0.0504 0.48108 0.0
H1902 H 0.78699 0.89527 0.14494 0.0
H1903 H 0.79456 0.90663 0.03491 0.0
H1904 H 0.83058 0.93212 0.12383 0.0
H1905 H 0.74871 0.87196 0.05482 0.0
H1906 H 0.81136 0.91085 0.06712 0.0
H1907 H 0.7759 0.88196 0.11207 0.0
C1908 C 0.79434 0.90047 0.13342 0.0
C1909 C 0.80959 0.91506 0.13718 0.0
C1910 C 0.79779 0.90203 0.06446 0.0
C1911 C 0.79706 0.89974 0.09953 0.0
C1912 C 0.78829 0.89954 0.04607 0.0
C1913 C 0.77027 0.88901 0.04237 0.0
C1914 C 0.78906 0.89418 0.07935 0.0
C1915 C 0.76263 0.88014 0.05721 0.0
C1916 C 0.78806 0.89277 0.11467 0.0
C1917 C 0.81883 0.92088 0.1217 0.0
N1918 N 0.77194 0.88318 0.07518 0.0
N1919 N 0.81228 0.91336 0.10359 0.0
H1920 H 0.45319 0.29258 0.52743 0.0
H1921 H 0.51794 0.23261 0.46287 0.0
H1922 H 0.436 0.23493 0.50152 0.0
H1923 H 0.53807 0.2858 0.49713 0.0
H1924 H 0.4855 0.23631 0.47103 0.0
H1925 H 0.48196 0.29305 0.511 0.0
C1926 C 0.45532 0.28009 0.51808 0.0
C1927 C 0.44219 0.26363 0.51598 0.0
C1928 C 0.49695 0.24736 0.47645 0.0
C1929 C 0.47529 0.26402 0.49723 0.0
C1930 C 0.5154 0.24536 0.47161 0.0
C1931 C 0.53065 0.25889 0.47943 0.0
C1932 C 0.4938 0.26302 0.48914 0.0
C1933 C 0.52667 0.275 0.49092 0.0
C1934 C 0.47182 0.28035 0.50876 0.0
C1935 C 0.44588 0.24781 0.50382 0.0
N1936 N 0.50868 0.27652 0.4956 0.0
N1937 N 0.46213 0.24835 0.49499 0.0
H1938 H 0.1307 0.82066 0.91523 0.0
H1939 H 0.05801 0.72617 0.90419 0.0
H1940 H 0.14654 0.7653 0.9272 0.0
H1941 H 0.04232 0.77933 0.88582 0.0
H1942 H 0.09145 0.7396 0.90906 0.0
H1943 H 0.09911 0.80554 0.90144 0.0
C1944 C 0.12759 0.80533 0.91485 0.0
C1945 C 0.14128 0.79426 0.92251 0.0
C1946 C 0.0808 0.7483 0.90366 0.0
C1947 C 0.10523 0.77687 0.90668 0.0
C1948 C 0.06175 0.74058 0.90082 0.0
C1949 C 0.04752 0.75172 0.89467 0.0
C1950 C 0.08562 0.76743 0.90068 0.0
C1951 C 0.05297 0.77031 0.89051 0.0
C1952 C 0.1096 0.79669 0.90686 0.0
C1953 C 0.13656 0.77442 0.92134 0.0
N1954 N 0.07161 0.77773 0.89389 0.0
N1955 N 0.11891 0.76642 0.91378 0.0
H1956 H 0.90005 0.25891 0.51089 0.0
H1957 H 0.92963 0.33322 0.60386 0.0
H1958 H 0.863 0.29817 0.53394 0.0
H1959 H 0.96907 0.30039 0.57573 0.0
H1960 H 0.90313 0.3147 0.58314 0.0
H1961 H 0.92339 0.26853 0.53883 0.0
C1962 C 0.89669 0.26933 0.52198 0.0
C1963 C 0.87966 0.27795 0.51995 0.0
C1964 C 0.91755 0.31128 0.58176 0.0
C1965 C 0.90637 0.28913 0.5519 0.0
C1966 C 0.93265 0.3217 0.59373 0.0
C1967 C 0.95155 0.31846 0.59131 0.0
C1968 C 0.92143 0.29755 0.56731 0.0
C1969 C 0.95469 0.30349 0.57784 0.0
C1970 C 0.91005 0.27488 0.53789 0.0
C1971 C 0.87612 0.29146 0.53473 0.0
N1972 N 0.93981 0.29377 0.56615 0.0
N1973 N 0.88943 0.29675 0.54998 0.0
H1974 H 0.51305 0.67492 0.07618 0.0
H1975 H 0.41045 0.62319 0.03524 0.0
H1976 H 0.50322 0.62141 0.03999 0.0
H1977 H 0.41978 0.67837 0.06828 0.0
H1978 H 0.44395 0.61864 0.04366 0.0
H1979 H 0.47889 0.67312 0.07958 0.0
C1980 C 0.50375 0.6627 0.0691 0.0
C1981 C 0.51101 0.64845 0.05753 0.0
C1982 C 0.43861 0.63157 0.04945 0.0
C1983 C 0.47189 0.64624 0.06145 0.0
C1984 C 0.41948 0.63409 0.04474 0.0
C1985 C 0.41252 0.65127 0.05091 0.0
C1986 C 0.45086 0.64645 0.0602 0.0
C1987 C 0.42469 0.66495 0.06322 0.0
C1988 C 0.48426 0.66162 0.07115 0.0
C1989 C 0.49833 0.63272 0.04907 0.0
N1990 N 0.4434 0.66242 0.06716 0.0
N1991 N 0.47939 0.63218 0.05099 0.0
H1992 H 0.49172 0.43501 0.22511 0.0
H1993 H 0.49362 0.5375 0.28259 0.0
H1994 H 0.51723 0.44963 0.28328 0.0
H1995 H 0.46229 0.52169 0.22707 0.0
H1996 H 0.49862 0.50405 0.28473 0.0
H1997 H 0.47771 0.46534 0.22668 0.0
C1998 C 0.49428 0.44454 0.23825 0.0
C1999 C 0.50583 0.43983 0.25402 0.0
C2000 C 0.49032 0.50777 0.27222 0.0
C2001 C 0.48976 0.47453 0.25596 0.0
C2002 C 0.48738 0.52684 0.27107 0.0
C2003 C 0.47759 0.53227 0.25462 0.0
C2004 C 0.48371 0.49408 0.25664 0.0
C2005 C 0.46984 0.518 0.24003 0.0
C2006 C 0.48617 0.46179 0.23918 0.0
C2007 C 0.50836 0.45258 0.27079 0.0
N2008 N 0.47337 0.49957 0.24122 0.0
N2009 N 0.50059 0.46941 0.27123 0.0
H2010 H 0.9231 0.14614 0.76723 0.0
H2011 H 0.88414 0.03856 0.77944 0.0
H2012 H 0.91209 0.12702 0.82162 0.0
H2013 H 0.90692 0.05656 0.72898 0.0
H2014 H 0.88765 0.07206 0.79344 0.0
H2015 H 0.9106 0.11464 0.75156 0.0
C2016 C 0.91776 0.13542 0.77588 0.0
C2017 C 0.91875 0.13925 0.79582 0.0
C2018 C 0.89158 0.06869 0.77919 0.0
C2019 C 0.90468 0.10291 0.7779 0.0
C2020 C 0.88943 0.04964 0.77116 0.0
C2021 C 0.89537 0.0449 0.75312 0.0
C2022 C 0.8996 0.08299 0.76899 0.0
C2023 C 0.90233 0.05969 0.743 0.0
C2024 C 0.91074 0.11736 0.76691 0.0
C2025 C 0.91187 0.12462 0.80625 0.0
N2026 N 0.90438 0.07804 0.75113 0.0
N2027 N 0.90524 0.10704 0.79718 0.0
H2028 H 0.53432 0.86161 0.2904 0.0
H2029 H 0.57522 0.9713 0.29596 0.0
H2030 H 0.50605 0.90405 0.26204 0.0
H2031 H 0.60038 0.93087 0.32983 0.0
H2032 H 0.55409 0.94507 0.27764 0.0
H2033 H 0.56232 0.88502 0.29952 0.0
C2034 C 0.53412 0.87576 0.28582 0.0
C2035 C 0.51772 0.88097 0.27565 0.0
C2036 C 0.56448 0.94186 0.28883 0.0
C2037 C 0.54966 0.90785 0.28613 0.0
C2038 C 0.57661 0.95682 0.2992 0.0
C2039 C 0.58936 0.95327 0.31459 0.0
C2040 C 0.565 0.92322 0.29397 0.0
C2041 C 0.59073 0.93424 0.31809 0.0
C2042 C 0.55008 0.88914 0.29109 0.0
C2043 C 0.51823 0.89954 0.27021 0.0
N2044 N 0.57843 0.91994 0.3081 0.0
N2045 N 0.53385 0.91234 0.27565 0.0
H2046 H 0.05962 0.51197 0.69037 0.0
H2047 H 0.04127 0.41212 0.63027 0.0
H2048 H 0.05311 0.50594 0.62866 0.0
H2049 H 0.06557 0.41975 0.6891 0.0
H2050 H 0.04945 0.44626 0.62828 0.0
H2051 H 0.0657 0.47868 0.68967 0.0
C2052 C 0.05985 0.50382 0.67664 0.0
C2053 C 0.05546 0.5118 0.65954 0.0
C2054 C 0.05351 0.44041 0.64148 0.0
C2055 C 0.06197 0.47333 0.65868 0.0
C2056 C 0.04893 0.42094 0.64255 0.0
C2057 C 0.05269 0.41327 0.6599 0.0
C2058 C 0.06149 0.45228 0.65799 0.0
C2059 C 0.06248 0.42519 0.67548 0.0
C2060 C 0.06326 0.48471 0.67626 0.0
C2061 C 0.05579 0.5003 0.64223 0.0
N2062 N 0.06616 0.44422 0.67429 0.0
N2063 N 0.05862 0.48157 0.64224 0.0
H2064 H 0.7803 0.48911 0.55406 0.0
H2065 H 0.72338 0.51663 0.4603 0.0
H2066 H 0.71984 0.49472 0.54933 0.0
H2067 H 0.78483 0.51993 0.46941 0.0
H2068 H 0.72194 0.51248 0.49408 0.0
H2069 H 0.78253 0.50373 0.5245 0.0
C2070 C 0.76752 0.49368 0.54701 0.0
C2071 C 0.74981 0.49044 0.55418 0.0
C2072 C 0.73576 0.51446 0.48878 0.0
C2073 C 0.75222 0.50691 0.51992 0.0
C2074 C 0.73659 0.517 0.46952 0.0
C2075 C 0.75424 0.51834 0.46198 0.0
C2076 C 0.7527 0.51313 0.50051 0.0
C2077 C 0.7709 0.51857 0.47457 0.0
C2078 C 0.76879 0.50197 0.53002 0.0
C2079 C 0.73373 0.49647 0.54414 0.0
N2080 N 0.76971 0.51567 0.49312 0.0
N2081 N 0.73528 0.5042 0.52743 0.0
H2082 H 0.68595 0.45357 0.14452 0.0
H2083 H 0.6986 0.40417 0.0409 0.0
H2084 H 0.73379 0.46807 0.11325 0.0
H2085 H 0.64713 0.3966 0.06843 0.0
H2086 H 0.7151 0.4212 0.0707 0.0
H2087 H 0.6748 0.42706 0.11999 0.0
C2088 C 0.69418 0.45113 0.13255 0.0
C2089 C 0.71067 0.4633 0.1308 0.0
C2090 C 0.70032 0.41541 0.07037 0.0
C2091 C 0.69806 0.4328 0.10272 0.0
C2092 C 0.69099 0.40551 0.05345 0.0
C2093 C 0.67149 0.39913 0.05227 0.0
C2094 C 0.69001 0.41893 0.08613 0.0
C2095 C 0.66216 0.40143 0.06881 0.0
C2096 C 0.68787 0.4359 0.11861 0.0
C2097 C 0.72101 0.45909 0.11522 0.0
N2098 N 0.67142 0.41139 0.08499 0.0
N2099 N 0.71441 0.44435 0.10167 0.0
H2100 H 0.38235 0.95617 0.49095 0.0
H2101 H 0.37365 0.97944 0.58737 0.0
H2102 H 0.32168 0.96064 0.4847 0.0
H2103 H 0.31344 0.96209 0.57225 0.0
H2104 H 0.37928 0.9695 0.55459 0.0
H2105 H 0.3813 0.95496 0.52522 0.0
C2106 C 0.3688 0.95685 0.49675 0.0
C2107 C 0.35214 0.95886 0.48488 0.0
C2108 C 0.36493 0.96721 0.55854 0.0
C2109 C 0.35085 0.95769 0.52419 0.0
C2110 C 0.36169 0.97306 0.5773 0.0
C2111 C 0.34302 0.97182 0.5826 0.0
C2112 C 0.34933 0.96009 0.545 0.0
C2113 C 0.32811 0.96324 0.56899 0.0
C2114 C 0.36823 0.95622 0.51638 0.0
C2115 C 0.33491 0.95904 0.49315 0.0
N2116 N 0.33156 0.95805 0.55081 0.0
N2117 N 0.33478 0.95866 0.51226 0.0
H2118 H 0.16956 0.09398 0.86176 0.0
H2119 H 0.26246 0.12609 0.93564 0.0
H2120 H 0.2272 0.09973 0.84622 0.0
H2121 H 0.20702 0.10803 0.95209 0.0
H2122 H 0.24819 0.12512 0.90254 0.0
H2123 H 0.18174 0.10699 0.89443 0.0
C2124 C 0.18474 0.09811 0.86513 0.0
C2125 C 0.19738 0.09543 0.85121 0.0
C2126 C 0.23907 0.12175 0.91346 0.0
C2127 C 0.21137 0.11059 0.88856 0.0
C2128 C 0.24718 0.1225 0.93236 0.0
C2129 C 0.2359 0.11694 0.94651 0.0
C2130 C 0.21958 0.11542 0.90875 0.0
C2131 C 0.21621 0.11221 0.9415 0.0
C2132 C 0.19167 0.10564 0.88377 0.0
C2133 C 0.21686 0.10155 0.85637 0.0
N2134 N 0.20871 0.1113 0.92298 0.0
N2135 N 0.22327 0.10863 0.87466 0.0
H2136 H 0.55123 0.77795 0.48622 0.0
H2137 H 0.45888 0.72076 0.51611 0.0
H2138 H 0.54874 0.71854 0.49617 0.0
H2139 H 0.46642 0.78211 0.51712 0.0
H2140 H 0.49268 0.71991 0.51197 0.0
H2141 H 0.52129 0.78013 0.50013 0.0
C2142 C 0.54459 0.76541 0.49159 0.0
C2143 C 0.55254 0.74797 0.48982 0.0
C2144 C 0.48702 0.73359 0.51342 0.0
C2145 C 0.51784 0.75031 0.50546 0.0
C2146 C 0.46774 0.7341 0.51595 0.0
C2147 C 0.45974 0.75152 0.5167 0.0
C2148 C 0.49834 0.7506 0.51146 0.0
C2149 C 0.47191 0.76833 0.5162 0.0
C2150 C 0.52738 0.76665 0.49947 0.0
C2151 C 0.54298 0.73217 0.49681 0.0
N2152 N 0.4905 0.76743 0.51333 0.0
N2153 N 0.52604 0.73366 0.50411 0.0
H2154 H 0.87866 0.16697 0.0881 0.0
H2155 H 0.94577 0.26382 0.12299 0.0
H2156 H 0.85836 0.22233 0.09786 0.0
H2157 H 0.96701 0.21005 0.10707 0.0
H2158 H 0.91354 0.24734 0.12071 0.0
H2159 H 0.91077 0.18115 0.10106 0.0
C2160 C 0.8809 0.18206 0.0931 0.0
C2161 C 0.86577 0.19349 0.09165 0.0
C2162 C 0.92528 0.23907 0.11801 0.0
C2163 C 0.90248 0.20978 0.10666 0.0
C2164 C 0.94373 0.24846 0.11951 0.0
C2165 C 0.95906 0.23832 0.11499 0.0
C2166 C 0.92213 0.21942 0.11188 0.0
C2167 C 0.95552 0.21845 0.11035 0.0
C2168 C 0.89922 0.19012 0.1006 0.0
C2169 C 0.86948 0.21288 0.09877 0.0
N2170 N 0.93739 0.20969 0.10866 0.0
N2171 N 0.88747 0.22043 0.10576 0.0
H2172 H 0.1209 0.74109 0.48324 0.0
H2173 H 0.0806 0.64779 0.41394 0.0
H2174 H 0.15151 0.69155 0.47517 0.0
H2175 H 0.05257 0.69922 0.41724 0.0
H2176 H 0.10882 0.66521 0.43283 0.0
H2177 H 0.09784 0.72777 0.45615 0.0
C2178 C 0.12296 0.72755 0.47561 0.0
C2179 C 0.13807 0.71732 0.4817 0.0
C2180 C 0.09668 0.67284 0.42914 0.0
C2181 C 0.11151 0.70185 0.45076 0.0
C2182 C 0.08063 0.6629 0.41828 0.0
C2183 C 0.06427 0.6721 0.41416 0.0
C2184 C 0.09624 0.69204 0.43621 0.0
C2185 C 0.06495 0.69167 0.42009 0.0
C2186 C 0.10972 0.71991 0.46016 0.0
C2187 C 0.13986 0.69975 0.47131 0.0
N2188 N 0.08056 0.70093 0.43112 0.0
N2189 N 0.12664 0.6925 0.4565 0.0
H2190 H 0.46851 0.31323 0.96432 0.0
H2191 H 0.56342 0.30659 0.95734 0.0
H2192 H 0.48086 0.3741 0.96345 0.0
H2193 H 0.57103 0.36567 0.98135 0.0
H2194 H 0.52976 0.30919 0.9491 0.0
H2195 H 0.50176 0.30949 0.96143 0.0
C2196 C 0.4781 0.32579 0.96295 0.0
C2197 C 0.47178 0.34402 0.96417 0.0
C2198 C 0.53869 0.32157 0.95631 0.0
C2199 C 0.51027 0.33983 0.96078 0.0
C2200 C 0.5581 0.32023 0.96068 0.0
C2201 C 0.57012 0.33587 0.97035 0.0
C2202 C 0.5311 0.33858 0.96197 0.0
C2203 C 0.56222 0.3531 0.97434 0.0
C2204 C 0.49722 0.32363 0.96124 0.0
C2205 C 0.48512 0.35979 0.96288 0.0
N2206 N 0.54316 0.35393 0.97034 0.0
N2207 N 0.50378 0.35736 0.96152 0.0
H2208 H 0.4479 0.52979 0.73957 0.0
H2209 H 0.53204 0.46306 0.7515 0.0
H2210 H 0.50716 0.55281 0.74614 0.0
H2211 H 0.4729 0.44265 0.73438 0.0
H2212 H 0.52432 0.496 0.74856 0.0
H2213 H 0.45757 0.49767 0.73731 0.0
C2214 C 0.463 0.52804 0.74062 0.0
C2215 C 0.47675 0.54397 0.74326 0.0
C2216 C 0.51313 0.48425 0.74519 0.0
C2217 C 0.48804 0.50708 0.74054 0.0
C2218 C 0.51755 0.46553 0.74676 0.0
C2219 C 0.50301 0.45029 0.74334 0.0
C2220 C 0.49406 0.48754 0.74022 0.0
C2221 C 0.48445 0.4541 0.73734 0.0
C2222 C 0.46854 0.50968 0.73917 0.0
C2223 C 0.49612 0.54087 0.74412 0.0
N2224 N 0.48049 0.47231 0.73615 0.0
N2225 N 0.50123 0.52274 0.74294 0.0
H2226 H 0.08987 0.87808 0.16726 0.0
H2227 H 0.12432 0.94744 0.26295 0.0
H2228 H 0.10314 0.8587 0.22255 0.0
H2229 H 0.10559 0.9671 0.20912 0.0
H2230 H 0.12273 0.91502 0.24693 0.0
H2231 H 0.10102 0.91078 0.18103 0.0
C2232 C 0.09525 0.88066 0.18225 0.0
C2233 C 0.09537 0.8656 0.19378 0.0
C2234 C 0.11923 0.92646 0.23855 0.0
C2235 C 0.10827 0.90299 0.20961 0.0
C2236 C 0.1203 0.94501 0.24768 0.0
C2237 C 0.11486 0.95992 0.23738 0.0
C2238 C 0.11264 0.92283 0.21902 0.0
C2239 C 0.10959 0.95592 0.21764 0.0
C2240 C 0.1017 0.89932 0.19008 0.0
C2241 C 0.10288 0.86978 0.21304 0.0
N2242 N 0.1084 0.93772 0.20914 0.0
N2243 N 0.10883 0.88808 0.22037 0.0
H2244 H 0.46786 0.12011 0.72936 0.0
H2245 H 0.40527 0.06901 0.63557 0.0
H2246 H 0.46425 0.14392 0.67538 0.0
H2247 H 0.40682 0.04709 0.69039 0.0
H2248 H 0.42227 0.09921 0.65102 0.0
H2249 H 0.44165 0.09591 0.71656 0.0
C2250 C 0.46139 0.12047 0.71491 0.0
C2251 C 0.4685 0.13402 0.70339 0.0
C2252 C 0.41855 0.08796 0.65975 0.0
C2253 C 0.43853 0.10602 0.68849 0.0
C2254 C 0.40874 0.07077 0.65094 0.0
C2255 C 0.40483 0.05548 0.6617 0.0
C2256 C 0.42467 0.08975 0.67941 0.0
C2257 C 0.40953 0.05851 0.68157 0.0
C2258 C 0.44643 0.10655 0.70756 0.0
C2259 C 0.45959 0.13352 0.68467 0.0
N2260 N 0.41953 0.07516 0.68973 0.0
N2261 N 0.44524 0.11966 0.67776 0.0
H2262 H 0.94345 0.49162 0.33065 0.0
H2263 H 0.98026 0.59757 0.37093 0.0
H2264 H 0.97104 0.50739 0.38798 0.0
H2265 H 0.94562 0.58133 0.31709 0.0
H2266 H 0.97148 0.56581 0.38038 0.0
H2267 H 0.93845 0.5248 0.32828 0.0
C2268 C 0.94811 0.50194 0.34294 0.0
C2269 C 0.95806 0.49663 0.35942 0.0
C2270 C 0.96541 0.56935 0.36669 0.0
C2271 C 0.95284 0.53501 0.35652 0.0
C2272 C 0.97041 0.58749 0.36131 0.0
C2273 C 0.96403 0.59196 0.34301 0.0
C2274 C 0.95413 0.55556 0.3536 0.0
C2275 C 0.951 0.57851 0.33128 0.0
C2276 C 0.94534 0.52101 0.34152 0.0
C2277 C 0.96386 0.51085 0.37475 0.0
N2278 N 0.94684 0.56079 0.33659 0.0
N2279 N 0.96149 0.52943 0.37279 0.0
H2280 H 0.3275 0.57905 0.31512 0.0
H2281 H 0.37709 0.59124 0.21963 0.0
H2282 H 0.29773 0.59257 0.26273 0.0
H2283 H 0.40924 0.59333 0.27502 0.0
H2284 H 0.34757 0.5882 0.2347 0.0
H2285 H 0.35728 0.58099 0.30022 0.0
C2286 C 0.32718 0.58251 0.30053 0.0
C2287 C 0.30996 0.58568 0.29022 0.0
C2288 C 0.36108 0.58932 0.24357 0.0
C2289 C 0.34405 0.58754 0.27297 0.0
C2290 C 0.37799 0.59115 0.23498 0.0
C2291 C 0.39578 0.59276 0.24606 0.0
C2292 C 0.36184 0.58891 0.26341 0.0
C2293 C 0.39591 0.592 0.26586 0.0
C2294 C 0.3442 0.58351 0.29201 0.0
C2295 C 0.3105 0.58971 0.27121 0.0
N2296 N 0.37921 0.59016 0.2739 0.0
N2297 N 0.32722 0.5905 0.26322 0.0
H2298 H 0.19217 0.34155 0.76824 0.0
H2299 H 0.10997 0.37 0.69379 0.0
H2300 H 0.19443 0.39533 0.74414 0.0
H2301 H 0.10263 0.32102 0.72535 0.0
H2302 H 0.1416 0.37857 0.71104 0.0
H2303 H 0.16017 0.33267 0.75132 0.0
C2304 C 0.18596 0.35145 0.75934 0.0
C2305 C 0.19597 0.36923 0.75764 0.0
C2306 C 0.13307 0.36597 0.71425 0.0
C2307 C 0.15938 0.3592 0.7383 0.0
C2308 C 0.1149 0.36112 0.70448 0.0
C2309 C 0.10347 0.34481 0.70818 0.0
C2310 C 0.14004 0.3544 0.72778 0.0
C2311 C 0.11096 0.33362 0.72187 0.0
C2312 C 0.16766 0.34643 0.74978 0.0
C2313 C 0.18715 0.38159 0.74606 0.0
N2314 N 0.12876 0.33861 0.73116 0.0
N2315 N 0.16941 0.37632 0.73681 0.0
H2316 H 0.72491 0.01037 0.69713 0.0
H2317 H 0.80937 0.94295 0.69859 0.0
H2318 H 0.72718 0.96304 0.65441 0.0
H2319 H 0.81391 0.99768 0.73232 0.0
H2320 H 0.77806 0.94886 0.68393 0.0
H2321 H 0.75632 0.00471 0.712 0.0
C2322 C 0.73198 0.99874 0.69094 0.0
C2323 C 0.72342 0.98718 0.67449 0.0
C2324 C 0.78591 0.95961 0.6945 0.0
C2325 C 0.75935 0.98063 0.69138 0.0
C2326 C 0.80373 0.95619 0.70295 0.0
C2327 C 0.81424 0.96983 0.71673 0.0
C2328 C 0.77839 0.97672 0.69998 0.0
C2329 C 0.80634 0.98685 0.72166 0.0
C2330 C 0.74995 0.99559 0.69935 0.0
C2331 C 0.73333 0.97243 0.66695 0.0
N2332 N 0.78884 0.98978 0.71337 0.0
N2333 N 0.75071 0.96954 0.67549 0.0
H2334 H 0.76755 0.00389 0.27964 0.0
H2335 H 0.72375 0.98442 0.37685 0.0
H2336 H 0.80091 0.99184 0.33059 0.0
H2337 H 0.69003 0.99743 0.32647 0.0
H2338 H 0.75207 0.98746 0.36015 0.0
H2339 H 0.73901 0.00193 0.29654 0.0
C2340 C 0.76888 0.0008 0.29438 0.0
C2341 C 0.78668 0.99796 0.30368 0.0
C2342 C 0.73849 0.98975 0.35276 0.0
C2343 C 0.75404 0.9958 0.32316 0.0
C2344 C 0.72222 0.98819 0.36238 0.0
C2345 C 0.70436 0.99105 0.35328 0.0
C2346 C 0.73697 0.9941 0.33379 0.0
C2347 C 0.70339 0.99511 0.33418 0.0
C2348 C 0.75258 0.99976 0.30404 0.0
C2349 C 0.78756 0.99432 0.32289 0.0
N2350 N 0.71947 0.99658 0.3251 0.0
N2351 N 0.77148 0.99328 0.33195 0.0
H2352 H 0.30061 0.32462 0.57149 0.0
H2353 H 0.25205 0.40321 0.634 0.0
H2354 H 0.29499 0.32371 0.63161 0.0
H2355 H 0.25892 0.40593 0.57437 0.0
H2356 H 0.2684 0.37442 0.63335 0.0
H2357 H 0.2861 0.35464 0.57222 0.0
C2358 C 0.29644 0.33076 0.58488 0.0
C2359 C 0.29903 0.32153 0.60151 0.0
C2360 C 0.26641 0.3813 0.62039 0.0
C2361 C 0.28221 0.3559 0.60239 0.0
C2362 C 0.25699 0.39773 0.62074 0.0
C2363 C 0.25393 0.40693 0.60416 0.0
C2364 C 0.27285 0.37387 0.60333 0.0
C2365 C 0.26102 0.39936 0.5875 0.0
C2366 C 0.28807 0.34788 0.58525 0.0
C2367 C 0.29304 0.33008 0.61835 0.0
N2368 N 0.27005 0.38321 0.58747 0.0
N2369 N 0.28493 0.34673 0.61834 0.0
H2370 H 0.28178 0.76954 0.01336 0.0
H2371 H 0.37768 0.72579 0.98882 0.0
H2372 H 0.3311 0.80296 0.99784 0.0
H2373 H 0.3271 0.69178 0.00091 0.0
H2374 H 0.36137 0.75429 0.99346 0.0
H2375 H 0.29872 0.74112 0.01038 0.0
C2376 C 0.29618 0.77091 0.00932 0.0
C2377 C 0.30497 0.78868 0.00572 0.0
C2378 C 0.35387 0.74059 0.99519 0.0
C2379 C 0.32452 0.75614 0.00239 0.0
C2380 C 0.36326 0.72422 0.9927 0.0
C2381 C 0.35397 0.70622 0.99483 0.0
C2382 C 0.33498 0.73903 0.99979 0.0
C2383 C 0.33496 0.70524 0.99913 0.0
C2384 C 0.30587 0.75467 0.00768 0.0
C2385 C 0.3238 0.78963 0.00091 0.0
N2386 N 0.32614 0.7214 0.00154 0.0
N2387 N 0.3329 0.77358 0.9993 0.0
H2388 H 0.7265 0.19944 0.38674 0.0
H2389 H 0.72534 0.09783 0.32596 0.0
H2390 H 0.77388 0.18328 0.35706 0.0
H2391 H 0.6856 0.1098 0.36696 0.0
H2392 H 0.74209 0.1299 0.33503 0.0
H2393 H 0.70996 0.16744 0.37739 0.0
C2394 C 0.73337 0.18917 0.37816 0.0
C2395 C 0.75158 0.19402 0.37264 0.0
C2396 C 0.72974 0.12547 0.34207 0.0
C2397 C 0.73277 0.15734 0.36195 0.0
C2398 C 0.72013 0.10723 0.33684 0.0
C2399 C 0.70409 0.10115 0.34576 0.0
C2400 C 0.72312 0.13779 0.35616 0.0
C2401 C 0.69804 0.11384 0.35987 0.0
C2402 C 0.72398 0.17087 0.37294 0.0
C2403 C 0.75992 0.18007 0.36174 0.0
N2404 N 0.7075 0.13157 0.36457 0.0
N2405 N 0.75042 0.16238 0.35668 0.0
H2406 H 0.69963 0.7172 0.0141 0.0
H2407 H 0.69057 0.80512 0.952 0.0
H2408 H 0.65035 0.72269 0.97485 0.0
H2409 H 0.73389 0.80615 0.9995 0.0
H2410 H 0.67653 0.77415 0.95935 0.0
H2411 H 0.71344 0.74891 0.00804 0.0
C2412 C 0.69175 0.72505 0.00418 0.0
C2413 C 0.67379 0.71729 0.99499 0.0
C2414 C 0.68906 0.78115 0.96824 0.0
C2415 C 0.68948 0.75355 0.98802 0.0
C2416 C 0.69713 0.79879 0.96399 0.0
C2417 C 0.71348 0.80818 0.9751 0.0
C2418 C 0.69746 0.77264 0.98363 0.0
C2419 C 0.72123 0.79944 0.99064 0.0
C2420 C 0.69958 0.74319 0.00082 0.0
C2421 C 0.66412 0.72818 0.98242 0.0
N2422 N 0.71323 0.78208 0.99436 0.0
N2423 N 0.67211 0.74568 0.97925 0.0
H2424 H 0.58161 0.26472 0.29329 0.0
H2425 H 0.5938 0.27618 0.40785 0.0
H2426 H 0.5935 0.31928 0.3275 0.0
H2427 H 0.57894 0.22228 0.37297 0.0
H2428 H 0.59306 0.29244 0.3788 0.0
H2429 H 0.58055 0.24905 0.32248 0.0
C2430 C 0.58411 0.27342 0.30695 0.0
C2431 C 0.58771 0.29337 0.30789 0.0
C2432 C 0.58991 0.27706 0.37752 0.0
C2433 C 0.5863 0.27549 0.34151 0.0
C2434 C 0.59019 0.26778 0.39412 0.0
C2435 C 0.58656 0.2478 0.39289 0.0
C2436 C 0.58595 0.2663 0.35954 0.0
C2437 C 0.58219 0.23766 0.37464 0.0
C2438 C 0.58337 0.26446 0.32364 0.0
C2439 C 0.59049 0.30389 0.32604 0.0
N2440 N 0.58208 0.24699 0.35874 0.0
N2441 N 0.58979 0.29483 0.34211 0.0
H2442 H 0.97703 0.2829 0.77444 0.0
H2443 H 0.01347 0.37573 0.72675 0.0
H2444 H 0.02101 0.326 0.80222 0.0
H2445 H 0.97565 0.32867 0.69644 0.0
H2446 H 0.01564 0.35834 0.75487 0.0
H2447 H 0.97573 0.29992 0.7461 0.0
C2448 C 0.98656 0.29586 0.77455 0.0
C2449 C 0.99925 0.30294 0.79078 0.0
C2450 C 0.00684 0.35182 0.74209 0.0
C2451 C 0.99754 0.32274 0.75834 0.0
C2452 C 0.00543 0.36183 0.72605 0.0
C2453 C 0.99409 0.35376 0.70932 0.0
C2454 C 0.99676 0.33362 0.74141 0.0
C2455 C 0.98454 0.33542 0.70906 0.0
C2456 C 0.98571 0.30564 0.75836 0.0
C2457 C 0.01087 0.32009 0.79016 0.0
N2458 N 0.986 0.32601 0.72491 0.0
N2459 N 0.00973 0.3294 0.77422 0.0
H2460 H 0.35634 0.77359 0.18655 0.0
H2461 H 0.36756 0.68374 0.11228 0.0
H2462 H 0.38567 0.72568 0.20179 0.0
H2463 H 0.32706 0.72419 0.10123 0.0
H2464 H 0.37643 0.70042 0.1443 0.0
H2465 H 0.34739 0.75711 0.15438 0.0
C2466 C 0.36092 0.75962 0.1831 0.0
C2467 C 0.37175 0.75098 0.19686 0.0
C2468 C 0.36559 0.70564 0.13489 0.0
C2469 C 0.36159 0.73207 0.16012 0.0
C2470 C 0.36062 0.69621 0.11657 0.0
C2471 C 0.34657 0.70261 0.10407 0.0
C2472 C 0.35658 0.72172 0.14074 0.0
C2473 C 0.33785 0.71869 0.11047 0.0
C2474 C 0.35573 0.75019 0.16478 0.0
C2475 C 0.37715 0.73278 0.19168 0.0
N2476 N 0.34305 0.72774 0.12834 0.0
N2477 N 0.3721 0.72397 0.17371 0.0
H2478 H 0.01224 0.66212 0.73663 0.0
H2479 H 0.95986 0.74041 0.79503 0.0
H2480 H 0.97142 0.69558 0.70996 0.0
H2481 H 0.99047 0.69827 0.82152 0.0
H2482 H 0.96628 0.72617 0.76377 0.0
H2483 H 0.0068 0.67726 0.76783 0.0
C2484 C 0.00207 0.67258 0.73729 0.0
C2485 C 0.99219 0.67744 0.72054 0.0
C2486 C 0.9716 0.72006 0.77643 0.0
C2487 C 0.98613 0.69511 0.75637 0.0
C2488 C 0.96786 0.72812 0.79432 0.0
C2489 C 0.97454 0.72052 0.81103 0.0
C2490 C 0.98222 0.70431 0.77517 0.0
C2491 C 0.98521 0.70482 0.80912 0.0
C2492 C 0.99904 0.6813 0.75515 0.0
C2493 C 0.97953 0.69148 0.72239 0.0
N2494 N 0.9887 0.69725 0.79155 0.0
N2495 N 0.97686 0.69978 0.73996 0.0
H2496 H 0.66017 0.3977 0.65769 0.0
H2497 H 0.58768 0.39725 0.73797 0.0
H2498 H 0.6788 0.40901 0.71801 0.0
H2499 H 0.57134 0.37855 0.67824 0.0
H2500 H 0.62072 0.40461 0.73094 0.0
H2501 H 0.62717 0.39345 0.66498 0.0
C2502 C 0.65731 0.39944 0.67249 0.0
C2503 C 0.67231 0.40376 0.68726 0.0
C2504 C 0.60987 0.39896 0.71938 0.0
C2505 C 0.63441 0.3987 0.69576 0.0
C2506 C 0.59101 0.39488 0.72336 0.0
C2507 C 0.57678 0.38715 0.70868 0.0
C2508 C 0.61447 0.39541 0.70056 0.0
C2509 C 0.58191 0.38422 0.69003 0.0
C2510 C 0.63844 0.3969 0.67666 0.0
C2511 C 0.66771 0.4055 0.70619 0.0
N2512 N 0.6003 0.38832 0.68653 0.0
N2513 N 0.64916 0.40299 0.7099 0.0
H2514 H 0.81091 0.60885 0.27279 0.0
H2515 H 0.91304 0.63973 0.23881 0.0
H2516 H 0.82054 0.6107 0.21368 0.0
H2517 H 0.90473 0.62999 0.29683 0.0
H2518 H 0.87901 0.63012 0.22942 0.0
H2519 H 0.84506 0.61776 0.28204 0.0
C2520 C 0.8202 0.61122 0.26176 0.0
C2521 C 0.81286 0.60904 0.24243 0.0
C2522 C 0.88464 0.63001 0.24419 0.0
C2523 C 0.85199 0.61912 0.2529 0.0
C2524 C 0.90404 0.63557 0.24957 0.0
C2525 C 0.91173 0.63566 0.26863 0.0
C2526 C 0.87277 0.62464 0.258 0.0
C2527 C 0.89945 0.62993 0.28194 0.0
C2528 C 0.83971 0.61618 0.26704 0.0
C2529 C 0.82561 0.61203 0.22873 0.0
N2530 N 0.88058 0.62474 0.27639 0.0
N2531 N 0.84453 0.61698 0.23423 0.0
H2532 H 0.29193 0.0445 0.32772 0.0
H2533 H 0.18738 0.99117 0.29303 0.0
H2534 H 0.28012 0.98334 0.3152 0.0
H2535 H 0.19847 0.0507 0.31493 0.0
H2536 H 0.22183 0.98876 0.29633 0.0
H2537 H 0.25833 0.04766 0.31833 0.0
C2538 C 0.28233 0.03174 0.32273 0.0
C2539 C 0.28886 0.01361 0.32234 0.0
C2540 C 0.21672 0.00239 0.30028 0.0
C2541 C 0.25025 0.01712 0.31179 0.0
C2542 C 0.19708 0.0038 0.29827 0.0
C2543 C 0.19004 0.02113 0.30386 0.0
C2544 C 0.22944 0.01845 0.30782 0.0
C2545 C 0.20326 0.03699 0.31072 0.0
C2546 C 0.2631 0.03355 0.31751 0.0
C2547 C 0.27566 0.99758 0.31598 0.0
N2548 N 0.22229 0.03525 0.31258 0.0
N2549 N 0.25699 0.9997 0.31103 0.0
H2550 H 0.24026 0.02926 0.69982 0.0
H2551 H 0.31303 0.9526 0.67674 0.0
H2552 H 0.22606 0.96833 0.69783 0.0
H2553 H 0.32876 0.01364 0.68245 0.0
H2554 H 0.28115 0.9582 0.68419 0.0
H2555 H 0.27243 0.02385 0.69238 0.0
C2556 C 0.2439 0.01474 0.69783 0.0
C2557 C 0.23043 0.99923 0.69957 0.0
C2558 C 0.29158 0.97038 0.68383 0.0
C2559 C 0.26728 0.99294 0.69099 0.0
C2560 C 0.30995 0.96721 0.67974 0.0
C2561 C 0.3239 0.98265 0.67907 0.0
C2562 C 0.28684 0.98913 0.68696 0.0
C2563 C 0.31856 0.00122 0.68245 0.0
C2564 C 0.26227 0.01166 0.69354 0.0
C2565 C 0.23588 0.98072 0.69647 0.0
N2566 N 0.30047 0.00392 0.68619 0.0
N2567 N 0.25389 0.9781 0.69242 0.0
H2568 H 0.69528 0.67651 0.37244 0.0
H2569 H 0.7133 0.58114 0.42077 0.0
H2570 H 0.69324 0.67166 0.43257 0.0
H2571 H 0.71447 0.58628 0.3606 0.0
H2572 H 0.70807 0.61486 0.42585 0.0
H2573 H 0.70443 0.64412 0.3683 0.0
C2574 C 0.69696 0.66872 0.38483 0.0
C2575 C 0.69342 0.67685 0.40288 0.0
C2576 C 0.70955 0.60862 0.41155 0.0
C2577 C 0.70365 0.63954 0.39818 0.0
C2578 C 0.71265 0.5894 0.40865 0.0
C2579 C 0.7142 0.58081 0.3902 0.0
C2580 C 0.70802 0.61938 0.39589 0.0
C2581 C 0.71303 0.59219 0.37502 0.0
C2582 C 0.70207 0.65015 0.38243 0.0
C2583 C 0.69554 0.66589 0.41834 0.0
N2584 N 0.70996 0.61083 0.37819 0.0
N2585 N 0.70045 0.6478 0.41562 0.0
H2586 H 0.68996 0.22275 0.01713 0.0
H2587 H 0.69885 0.31305 0.95855 0.0
H2588 H 0.73412 0.23298 0.98027 0.0
H2589 H 0.66844 0.312 0.00861 0.0
H2590 H 0.71038 0.28282 0.96498 0.0
H2591 H 0.67987 0.25435 0.0125 0.0
C2592 C 0.69747 0.23163 0.00803 0.0
C2593 C 0.7129 0.22528 0.99909 0.0
C2594 C 0.7012 0.28925 0.97458 0.0
C2595 C 0.70153 0.26133 0.99379 0.0
C2596 C 0.6944 0.30649 0.97082 0.0
C2597 C 0.68197 0.31497 0.98261 0.0
C2598 C 0.69559 0.2803 0.99025 0.0
C2599 C 0.67767 0.30606 0.99885 0.0
C2600 C 0.69183 0.24969 0.00552 0.0
C2601 C 0.72227 0.23741 0.98757 0.0
N2602 N 0.68422 0.28908 0.00202 0.0
N2603 N 0.71637 0.25479 0.98517 0.0
H2604 H 0.2357 0.83265 0.65146 0.0
H2605 H 0.28655 0.92404 0.61068 0.0
H2606 H 0.25897 0.83119 0.59726 0.0
H2607 H 0.2576 0.92823 0.66163 0.0
H2608 H 0.27868 0.88955 0.60724 0.0
H2609 H 0.24554 0.86714 0.65699 0.0
C2610 C 0.24297 0.83955 0.64078 0.0
C2611 C 0.24642 0.82902 0.62381 0.0
C2612 C 0.27408 0.89795 0.61923 0.0
C2613 C 0.25765 0.86844 0.63002 0.0
C2614 C 0.27872 0.91768 0.62131 0.0
C2615 C 0.27281 0.9291 0.63653 0.0
C2616 C 0.2634 0.88939 0.63245 0.0
C2617 C 0.26232 0.92001 0.64959 0.0
C2618 C 0.24849 0.85924 0.6439 0.0
C2619 C 0.25575 0.83875 0.61041 0.0
N2620 N 0.25794 0.90068 0.64726 0.0
N2621 N 0.26102 0.85785 0.6138 0.0
H2622 H 0.31786 0.28955 0.04582 0.0
H2623 H 0.28589 0.18722 0.98661 0.0
H2624 H 0.30298 0.28124 0.98476 0.0
H2625 H 0.30642 0.19511 0.04661 0.0
H2626 H 0.28786 0.2219 0.98649 0.0
H2627 H 0.30952 0.2554 0.04714 0.0
C2628 C 0.31255 0.28061 0.03272 0.0
C2629 C 0.31124 0.28829 0.01513 0.0
C2630 C 0.2918 0.21605 0.99972 0.0
C2631 C 0.30191 0.24906 0.0165 0.0
C2632 C 0.29054 0.19623 0.99984 0.0
C2633 C 0.29612 0.18822 0.01662 0.0
C2634 C 0.29865 0.22799 0.01652 0.0
C2635 C 0.30226 0.20065 0.03327 0.0
C2636 C 0.30793 0.26106 0.03347 0.0
C2637 C 0.3045 0.27591 0.99859 0.0
N2638 N 0.30345 0.21989 0.03277 0.0
N2639 N 0.30019 0.25692 0.99967 0.0
H2640 H 0.41187 0.72139 0.68295 0.0
H2641 H 0.38839 0.6754 0.57423 0.0
H2642 H 0.40889 0.66106 0.66481 0.0
H2643 H 0.39849 0.73621 0.59032 0.0
H2644 H 0.3954 0.67012 0.60762 0.0
H2645 H 0.40646 0.72741 0.6494 0.0
C2646 C 0.41009 0.70942 0.67193 0.0
C2647 C 0.4109 0.69069 0.67671 0.0
C2648 C 0.39615 0.68464 0.6039 0.0
C2649 C 0.40474 0.69747 0.63834 0.0
C2650 C 0.39204 0.68766 0.58483 0.0
C2651 C 0.39274 0.70628 0.5795 0.0
C2652 C 0.4009 0.70035 0.61786 0.0
C2653 C 0.39789 0.72162 0.5938 0.0
C2654 C 0.4071 0.71287 0.65279 0.0
C2655 C 0.40866 0.67575 0.66182 0.0
N2656 N 0.40166 0.71832 0.61236 0.0
N2657 N 0.40561 0.67946 0.64337 0.0
H2658 H 0.0067 0.7379 0.24264 0.0
H2659 H 0.02621 0.66478 0.31989 0.0
H2660 H 0.03137 0.68543 0.22939 0.0
H2661 H 0.98484 0.7056 0.32364 0.0
H2662 H 0.03406 0.67604 0.28959 0.0
H2663 H 0.004 0.72962 0.27504 0.0
C2664 C 0.0117 0.72469 0.24662 0.0
C2665 C 0.01926 0.71232 0.23331 0.0
C2666 C 0.02337 0.68259 0.29717 0.0
C2667 C 0.01622 0.70277 0.27042 0.0
C2668 C 0.01899 0.67629 0.31454 0.0
C2669 C 0.00442 0.68386 0.32405 0.0
C2670 C 0.01347 0.69688 0.28958 0.0
C2671 C 0.99572 0.69891 0.3165 0.0
C2672 C 0.01009 0.71995 0.26509 0.0
C2673 C 0.0253 0.69528 0.23918 0.0
N2674 N 1.00028 0.70482 0.29968 0.0
N2675 N 0.02368 0.691 0.25734 0.0
H2676 H 0.64112 0.24686 0.81597 0.0
H2677 H 0.60323 0.28933 0.91268 0.0
H2678 H 0.5834 0.2604 0.82008 0.0
H2679 H 0.6605 0.27389 0.90982 0.0
H2680 H 0.59662 0.28106 0.87826 0.0
H2681 H 0.6492 0.25853 0.84978 0.0
C2682 C 0.63017 0.25239 0.82394 0.0
C2683 C 0.61151 0.25257 0.81514 0.0
C2684 C 0.61068 0.27958 0.88511 0.0
C2685 C 0.62067 0.26586 0.85393 0.0
C2686 C 0.61455 0.28449 0.90479 0.0
C2687 C 0.63248 0.28232 0.91424 0.0
C2688 C 0.6248 0.27237 0.87469 0.0
C2689 C 0.6464 0.27559 0.90321 0.0
C2690 C 0.63478 0.25898 0.84327 0.0
C2691 C 0.59788 0.2597 0.82629 0.0
N2692 N 0.64225 0.27079 0.88405 0.0
N2693 N 0.60272 0.26603 0.84506 0.0
H2694 H 0.04084 0.35661 0.28279 0.0
H2695 H 0.99124 0.29608 0.18682 0.0
H2696 H 0.99209 0.31486 0.28215 0.0
H2697 H 0.04622 0.32943 0.19155 0.0
H2698 H 0.99146 0.3015 0.22161 0.0
H2699 H 0.04312 0.34604 0.24932 0.0
C2700 C 0.03063 0.34515 0.27556 0.0
C2701 C 0.01616 0.33671 0.28518 0.0
C2702 C 0.00354 0.30747 0.21502 0.0
C2703 C 0.01861 0.32451 0.24674 0.0
C2704 C 0.00348 0.3043 0.19517 0.0
C2705 C 0.01862 0.31254 0.18619 0.0
C2706 C 0.01882 0.31901 0.22594 0.0
C2707 C 0.03402 0.32317 0.19776 0.0
C2708 C 0.03198 0.33905 0.25647 0.0
C2709 C 0.00348 0.32172 0.27522 0.0
N2710 N 0.03363 0.32624 0.21695 0.0
N2711 N 0.00485 0.31623 0.25645 0.0
loop_
_geom_bond_atom_site_label_1
_geom_bond_atom_site_label_2
_geom_bond_distance
_geom_bond_site_symmetry_2
_ccdc_geom_bond_type
C0 C1 1.264 . S
C0 C5 1.479 . S
C0 C10 1.465 . S
C1 C0 1.264 . S
C1 C3 1.339 . S
C1 H28 0.931 . S
C2 C3 1.395 . S
C2 C4 1.320 . S
C3 C1 1.339 . S
C3 C2 1.395 . S
C3 H29 0.929 . S
C4 C2 1.320 . S
C4 C5 1.405 . S
C4 H30 0.930 . S
C5 C0 1.479 . S
C5 C4 1.405 . S
C5 H31 0.931 . S
U6 O7 2.454 . S
U6 O8 2.458 . S
U6 C9 2.984 . S
U6 C10 2.847 . S
U6 C23 2.882 . S
U6 O24 2.441 . S
U6 O25 2.420 . S
U6 O26 2.455 . S
U6 O27 2.449 . S
O7 U6 2.454 . S
O7 C9 1.353 . S
O8 U6 2.458 . S
O8 C9 1.286 . S
C9 U6 2.984 . S
C9 O7 1.353 . S
C9 O8 1.286 . S
C9 C11 1.363 . S
C10 C0 1.465 . S
C10 U6 2.847 . S
C10 O24 1.249 . S
C10 O25 1.202 . S
C11 C9 1.363 . S
C11 C13 1.408 . S
C11 C16 1.342 . S
C12 C13 1.310 . S
C12 C15 1.461 . S
C12 H32 0.932 . S
C13 C11 1.408 . S
C13 C12 1.310 . S
C13 H33 0.930 . S
C14 C15 1.474 . S
C14 C16 1.285 . S
C14 H34 0.929 . S
C15 C12 1.461 . S
C15 C14 1.474 . S
C16 C11 1.342 . S
C16 C14 1.285 . S
C16 H35 0.930 . S
C17 C20 1.424 . S
C17 C22 1.245 . S
C17 C23 1.428 . S
C18 C21 1.260 . S
C18 C22 1.477 . S
C18 H36 0.932 . S
C19 C20 1.384 . S
C19 C21 1.479 . S
C19 H37 0.929 . S
C20 C17 1.424 . S
C20 C19 1.384 . S
C20 H38 0.928 . S
C21 C18 1.260 . S
C21 C19 1.479 . S
C22 C17 1.245 . S
C22 C18 1.477 . S
C22 H39 0.932 . S
C23 U6 2.882 . S
C23 C17 1.428 . S
C23 O26 1.301 . S
C23 O27 1.282 . S
O24 U6 2.441 . S
O24 C10 1.249 . S
O25 U6 2.420 . S
O25 C10 1.202 . S
O26 U6 2.455 . S
O26 C23 1.301 . S
O27 U6 2.449 . S
O27 C23 1.282 . S
H28 C1 0.931 . S
H29 C3 0.929 . S
H30 C4 0.930 . S
H31 C5 0.931 . S
H32 C12 0.932 . S
H33 C13 0.930 . S
H34 C14 0.929 . S
H35 C16 0.930 . S
H36 C18 0.932 . S
H37 C19 0.929 . S
H38 C20 0.928 . S
H39 C22 0.932 . S
C40 C41 1.264 . S
C40 C45 1.479 . S
C40 C50 1.465 . S
C41 C40 1.264 . S
C41 C43 1.339 . S
C41 H68 0.931 . S
C42 C43 1.395 . S
C42 C44 1.320 . S
C43 C41 1.339 . S
C43 C42 1.395 . S
C43 H69 0.929 . S
C44 C42 1.320 . S
C44 C45 1.405 . S
C44 H70 0.930 . S
C45 C40 1.479 . S
C45 C44 1.405 . S
C45 H71 0.931 . S
U46 O47 2.454 . S
U46 O48 2.458 . S
U46 C49 2.984 . S
U46 C50 2.847 . S
U46 C63 2.882 . S
U46 O64 2.441 . S
U46 O65 2.420 . S
U46 O66 2.455 . S
U46 O67 2.449 . S
O47 U46 2.454 . S
O47 C49 1.353 . S
O48 U46 2.458 . S
O48 C49 1.286 . S
C49 U46 2.984 . S
C49 O47 1.353 . S
C49 O48 1.286 . S
C49 C51 1.363 . S
C50 C40 1.465 . S
C50 U46 2.847 . S
C50 O64 1.249 . S
C50 O65 1.202 . S
C51 C49 1.363 . S
C51 C53 1.408 . S
C51 C56 1.342 . S
C52 C53 1.310 . S
C52 C55 1.461 . S
C52 H72 0.932 . S
C53 C51 1.408 . S
C53 C52 1.310 . S
C53 H73 0.930 . S
C54 C55 1.474 . S
C54 C56 1.285 . S
C54 H74 0.929 . S
C55 C52 1.461 . S
C55 C54 1.474 . S
C56 C51 1.342 . S
C56 C54 1.285 . S
C56 H75 0.930 . S
C57 C60 1.424 . S
C57 C62 1.245 . S
C57 C63 1.428 . S
C58 C61 1.260 . S
C58 C62 1.477 . S
C58 H76 0.932 . S
C59 C60 1.384 . S
C59 C61 1.479 . S
C59 H77 0.929 . S
C60 C57 1.424 . S
C60 C59 1.384 . S
C60 H78 0.928 . S
C61 C58 1.260 . S
C61 C59 1.479 . S
C62 C57 1.245 . S
C62 C58 1.477 . S
C62 H79 0.932 . S
C63 U46 2.882 . S
C63 C57 1.428 . S
C63 O66 1.301 . S
C63 O67 1.282 . S
O64 U46 2.441 . S
O64 C50 1.249 . S
O65 U46 2.420 . S
O65 C50 1.202 . S
O66 U46 2.455 . S
O66 C63 1.301 . S
O67 U46 2.449 . S
O67 C63 1.282 . S
H68 C41 0.931 . S
H69 C43 0.929 . S
H70 C44 0.930 . S
H71 C45 0.931 . S
H72 C52 0.932 . S
H73 C53 0.930 . S
H74 C54 0.929 . S
H75 C56 0.930 . S
H76 C58 0.932 . S
H77 C59 0.929 . S
H78 C60 0.928 . S
H79 C62 0.932 . S
C80 C81 1.264 . S
C80 C85 1.479 . S
C80 C90 1.465 . S
C81 C80 1.264 . S
C81 C83 1.339 . S
C81 H108 0.931 . S
C82 C83 1.395 . S
C82 C84 1.320 . S
C83 C81 1.339 . S
C83 C82 1.395 . S
C83 H109 0.929 . S
C84 C82 1.320 . S
C84 C85 1.405 . S
C84 H110 0.930 . S
C85 C80 1.479 . S
C85 C84 1.405 . S
C85 H111 0.931 . S
U86 O87 2.454 . S
U86 O88 2.458 . S
U86 C89 2.984 . S
U86 C90 2.847 . S
U86 C103 2.882 . S
U86 O104 2.441 . S
U86 O105 2.420 . S
U86 O106 2.455 . S
U86 O107 2.449 . S
O87 U86 2.454 . S
O87 C89 1.353 . S
O88 U86 2.458 . S
O88 C89 1.286 . S
C89 U86 2.984 . S
C89 O87 1.353 . S
C89 O88 1.286 . S
C89 C91 1.363 . S
C90 C80 1.465 . S
C90 U86 2.847 . S
C90 O104 1.249 . S
C90 O105 1.202 . S
C91 C89 1.363 . S
C91 C93 1.408 . S
C91 C96 1.342 . S
C92 C93 1.310 . S
C92 C95 1.461 . S
C92 H112 0.932 . S
C93 C91 1.408 . S
C93 C92 1.310 . S
C93 H113 0.930 . S
C94 C95 1.474 . S
C94 C96 1.285 . S
C94 H114 0.929 . S
C95 C92 1.461 . S
C95 C94 1.474 . S
C96 C91 1.342 . S
C96 C94 1.285 . S
C96 H115 0.930 . S
C97 C100 1.424 1_565 S
C97 C102 1.245 1_565 S
C97 C103 1.428 . S
C98 C101 1.260 . S
C98 C102 1.477 . S
C98 H116 0.932 . S
C99 C100 1.384 . S
C99 C101 1.479 . S
C99 H117 0.929 . S
C100 C97 1.424 1_545 S
C100 C99 1.384 . S
C100 H118 0.928 . S
C101 C98 1.260 . S
C101 C99 1.479 . S
C102 C97 1.245 1_545 S
C102 C98 1.477 . S
C102 H119 0.932 . S
C103 U86 2.882 . S
C103 C97 1.428 . S
C103 O106 1.301 . S
C103 O107 1.282 . S
O104 U86 2.441 . S
O104 C90 1.249 . S
O105 U86 2.420 . S
O105 C90 1.202 . S
O106 U86 2.455 . S
O106 C103 1.301 . S
O107 U86 2.449 . S
O107 C103 1.282 . S
H108 C81 0.931 . S
H109 C83 0.929 . S
H110 C84 0.930 . S
H111 C85 0.931 . S
H112 C92 0.932 . S
H113 C93 0.930 . S
H114 C94 0.929 . S
H115 C96 0.930 . S
H116 C98 0.932 . S
H117 C99 0.929 . S
H118 C100 0.928 . S
H119 C102 0.932 . S
C120 C121 1.264 . S
C120 C125 1.479 . S
C120 C130 1.465 . S
C121 C120 1.264 . S
C121 C123 1.339 . S
C121 H148 0.931 . S
C122 C123 1.395 . S
C122 C124 1.320 . S
C123 C121 1.339 . S
C123 C122 1.395 . S
C123 H149 0.929 . S
C124 C122 1.320 . S
C124 C125 1.405 . S
C124 H150 0.930 . S
C125 C120 1.479 . S
C125 C124 1.405 . S
C125 H151 0.931 . S
U126 O127 2.454 . S
U126 O128 2.458 . S
U126 C129 2.984 . S
U126 C130 2.847 . S
U126 C143 2.882 1_545 S
U126 O144 2.441 . S
U126 O145 2.420 . S
U126 O146 2.450 1_545 S
U126 O147 2.449 . S
O127 U126 2.454 . S
O127 C129 1.353 . S
O128 U126 2.458 . S
O128 C129 1.286 . S
C129 U126 2.984 . S
C129 O127 1.353 . S
C129 O128 1.286 . S
C129 C131 1.363 . S
C130 C120 1.465 . S
C130 U126 2.847 . S
C130 O144 1.249 . S
C130 O145 1.202 . S
C131 C129 1.363 . S
C131 C133 1.408 . S
C131 C136 1.342 . S
C132 C133 1.310 . S
C132 C135 1.461 . S
C132 H152 0.932 . S
C133 C131 1.408 . S
C133 C132 1.310 . S
C133 H153 0.930 . S
C134 C135 1.474 . S
C134 C136 1.285 . S
C134 H154 0.929 . S
C135 C132 1.461 . S
C135 C134 1.474 . S
C136 C131 1.342 . S
C136 C134 1.285 . S
C136 H155 0.930 . S
C137 C140 1.424 . S
C137 C142 1.245 . S
C137 C143 1.428 . S
C138 C141 1.260 . S
C138 C142 1.477 . S
C138 H156 0.932 . S
C139 C140 1.384 . S
C139 C141 1.479 . S
C139 H157 0.929 . S
C140 C137 1.424 . S
C140 C139 1.384 . S
C140 H158 0.928 . S
C141 C138 1.260 . S
C141 C139 1.479 . S
C142 C137 1.245 . S
C142 C138 1.477 . S
C142 H159 0.932 . S
C143 U126 2.882 1_565 S
C143 C137 1.428 . S
C143 O146 1.303 . S
C143 O147 1.282 1_565 S
O144 U126 2.441 . S
O144 C130 1.249 . S
O145 U126 2.420 . S
O145 C130 1.202 . S
O146 U126 2.450 1_565 S
O146 C143 1.303 . S
O147 U126 2.449 . S
O147 C143 1.282 1_545 S
H148 C121 0.931 . S
H149 C123 0.929 . S
H150 C124 0.930 . S
H151 C125 0.931 . S
H152 C132 0.932 . S
H153 C133 0.930 . S
H154 C134 0.929 . S
H155 C136 0.930 . S
H156 C138 0.932 . S
H157 C139 0.929 . S
H158 C140 0.928 . S
H159 C142 0.932 . S
C160 C161 1.264 . S
C160 C165 1.479 . S
C160 C170 1.465 . S
C161 C160 1.264 . S
C161 C163 1.339 . S
C161 H188 0.931 . S
C162 C163 1.395 . S
C162 C164 1.320 . S
C163 C161 1.339 . S
C163 C162 1.395 . S
C163 H189 0.929 . S
C164 C162 1.320 . S
C164 C165 1.405 . S
C164 H190 0.930 . S
C165 C160 1.479 . S
C165 C164 1.405 . S
C165 H191 0.931 . S
U166 O167 2.454 . S
U166 O168 2.458 . S
U166 C169 2.984 . S
U166 C170 2.847 . S
U166 C183 2.882 . S
U166 O184 2.441 . S
U166 O185 2.420 . S
U166 O186 2.455 . S
U166 O187 2.449 . S
O167 U166 2.454 . S
O167 C169 1.353 . S
O168 U166 2.458 . S
O168 C169 1.286 . S
C169 U166 2.984 . S
C169 O167 1.353 . S
C169 O168 1.286 . S
C169 C171 1.363 . S
C170 C160 1.465 . S
C170 U166 2.847 . S
C170 O184 1.249 . S
C170 O185 1.202 . S
C171 C169 1.363 . S
C171 C173 1.408 . S
C171 C176 1.342 . S
C172 C173 1.310 . S
C172 C175 1.461 . S
C172 H192 0.932 . S
C173 C171 1.408 . S
C173 C172 1.310 . S
C173 H193 0.930 . S
C174 C175 1.474 . S
C174 C176 1.285 . S
C174 H194 0.929 . S
C175 C172 1.461 . S
C175 C174 1.474 . S
C176 C171 1.342 . S
C176 C174 1.285 . S
C176 H195 0.930 . S
C177 C180 1.424 . S
C177 C182 1.245 . S
C177 C183 1.428 . S
C178 C181 1.260 . S
C178 C182 1.477 . S
C178 H196 0.932 . S
C179 C180 1.384 . S
C179 C181 1.479 . S
C179 H197 0.929 . S
C180 C177 1.424 . S
C180 C179 1.384 . S
C180 H198 0.928 . S
C181 C178 1.260 . S
C181 C179 1.479 . S
C182 C177 1.245 . S
C182 C178 1.477 . S
C182 H199 0.932 . S
C183 U166 2.882 . S
C183 C177 1.428 . S
C183 O186 1.301 . S
C183 O187 1.282 . S
O184 U166 2.441 . S
O184 C170 1.249 . S
O185 U166 2.420 . S
O185 C170 1.202 . S
O186 U166 2.455 . S
O186 C183 1.301 . S
O187 U166 2.449 . S
O187 C183 1.282 . S
H188 C161 0.931 . S
H189 C163 0.929 . S
H190 C164 0.930 . S
H191 C165 0.931 . S
H192 C172 0.932 . S
H193 C173 0.930 . S
H194 C174 0.929 . S
H195 C176 0.930 . S
H196 C178 0.932 . S
H197 C179 0.929 . S
H198 C180 0.928 . S
H199 C182 0.932 . S
C200 C201 1.264 . S
C200 C205 1.479 . S
C200 C210 1.465 . S
C201 C200 1.264 . S
C201 C203 1.339 . S
C201 H228 0.931 . S
C202 C203 1.395 . S
C202 C204 1.320 . S
C203 C201 1.339 . S
C203 C202 1.395 . S
C203 H229 0.929 . S
C204 C202 1.320 . S
C204 C205 1.405 . S
C204 H230 0.930 . S
C205 C200 1.479 . S
C205 C204 1.405 . S
C205 H231 0.931 . S
U206 O207 2.454 . S
U206 O208 2.458 . S
U206 C209 2.984 . S
U206 C210 2.847 . S
U206 C223 2.882 1_554 S
U206 O224 2.441 . S
U206 O225 2.420 . S
U206 O226 2.450 1_554 S
U206 O227 2.449 . S
O207 U206 2.454 . S
O207 C209 1.353 . S
O208 U206 2.458 . S
O208 C209 1.286 . S
C209 U206 2.984 . S
C209 O207 1.353 . S
C209 O208 1.286 . S
C209 C211 1.363 . S
C210 C200 1.465 . S
C210 U206 2.847 . S
C210 O224 1.249 . S
C210 O225 1.202 . S
C211 C209 1.363 . S
C211 C213 1.408 . S
C211 C216 1.342 . S
C212 C213 1.310 . S
C212 C215 1.461 . S
C212 H232 0.932 . S
C213 C211 1.408 . S
C213 C212 1.310 . S
C213 H233 0.930 . S
C214 C215 1.474 . S
C214 C216 1.285 . S
C214 H234 0.929 . S
C215 C212 1.461 . S
C215 C214 1.474 . S
C216 C211 1.342 . S
C216 C214 1.285 . S
C216 H235 0.930 . S
C217 C220 1.424 . S
C217 C222 1.245 . S
C217 C223 1.428 . S
C218 C221 1.260 . S
C218 C222 1.477 . S
C218 H236 0.932 . S
C219 C220 1.384 . S
C219 C221 1.479 . S
C219 H237 0.929 . S
C220 C217 1.424 . S
C220 C219 1.384 . S
C220 H238 0.928 . S
C221 C218 1.260 . S
C221 C219 1.479 . S
C222 C217 1.245 . S
C222 C218 1.477 . S
C222 H239 0.932 . S
C223 U206 2.882 1_556 S
C223 C217 1.428 . S
C223 O226 1.303 . S
C223 O227 1.282 1_556 S
O224 U206 2.441 . S
O224 C210 1.249 . S
O225 U206 2.420 . S
O225 C210 1.202 . S
O226 U206 2.450 1_556 S
O226 C223 1.303 . S
O227 U206 2.449 . S
O227 C223 1.282 1_554 S
H228 C201 0.931 . S
H229 C203 0.929 . S
H230 C204 0.930 . S
H231 C205 0.931 . S
H232 C212 0.932 . S
H233 C213 0.930 . S
H234 C214 0.929 . S
H235 C216 0.930 . S
H236 C218 0.932 . S
H237 C219 0.929 . S
H238 C220 0.928 . S
H239 C222 0.932 . S
C240 C241 1.264 . S
C240 C245 1.479 . S
C240 C250 1.465 . S
C241 C240 1.264 . S
C241 C243 1.339 . S
C241 H268 0.931 . S
C242 C243 1.395 . S
C242 C244 1.320 . S
C243 C241 1.339 . S
C243 C242 1.395 . S
C243 H269 0.929 . S
C244 C242 1.320 . S
C244 C245 1.405 . S
C244 H270 0.930 . S
C245 C240 1.479 . S
C245 C244 1.405 . S
C245 H271 0.931 . S
U246 O247 2.454 . S
U246 O248 2.458 . S
U246 C249 2.984 . S
U246 C250 2.847 . S
U246 C263 2.882 . S
U246 O264 2.441 . S
U246 O265 2.420 . S
U246 O266 2.455 . S
U246 O267 2.449 . S
O247 U246 2.454 . S
O247 C249 1.353 . S
O248 U246 2.458 . S
O248 C249 1.286 . S
C249 U246 2.984 . S
C249 O247 1.353 . S
C249 O248 1.286 . S
C249 C251 1.363 . S
C250 C240 1.465 . S
C250 U246 2.847 . S
C250 O264 1.249 . S
C250 O265 1.202 . S
C251 C249 1.363 . S
C251 C253 1.408 . S
C251 C256 1.342 . S
C252 C253 1.310 . S
C252 C255 1.461 . S
C252 H272 0.932 . S
C253 C251 1.408 . S
C253 C252 1.310 . S
C253 H273 0.930 . S
C254 C255 1.474 . S
C254 C256 1.285 . S
C254 H274 0.929 . S
C255 C252 1.461 . S
C255 C254 1.474 . S
C256 C251 1.342 . S
C256 C254 1.285 . S
C256 H275 0.930 . S
C257 C260 1.424 . S
C257 C262 1.245 . S
C257 C263 1.428 . S
C258 C261 1.260 . S
C258 C262 1.477 . S
C258 H276 0.932 . S
C259 C260 1.384 . S
C259 C261 1.479 . S
C259 H277 0.929 . S
C260 C257 1.424 . S
C260 C259 1.384 . S
C260 H278 0.928 . S
C261 C258 1.260 . S
C261 C259 1.479 . S
C262 C257 1.245 . S
C262 C258 1.477 . S
C262 H279 0.932 . S
C263 U246 2.882 . S
C263 C257 1.428 . S
C263 O266 1.301 . S
C263 O267 1.282 . S
O264 U246 2.441 . S
O264 C250 1.249 . S
O265 U246 2.420 . S
O265 C250 1.202 . S
O266 U246 2.455 . S
O266 C263 1.301 . S
O267 U246 2.449 . S
O267 C263 1.282 . S
H268 C241 0.931 . S
H269 C243 0.929 . S
H270 C244 0.930 . S
H271 C245 0.931 . S
H272 C252 0.932 . S
H273 C253 0.930 . S
H274 C254 0.929 . S
H275 C256 0.930 . S
H276 C258 0.932 . S
H277 C259 0.929 . S
H278 C260 0.928 . S
H279 C262 0.932 . S
C280 C281 1.264 . S
C280 C285 1.479 . S
C280 C290 1.465 . S
C281 C280 1.264 . S
C281 C283 1.339 . S
C281 H308 0.931 . S
C282 C283 1.395 . S
C282 C284 1.320 . S
C283 C281 1.339 . S
C283 C282 1.395 . S
C283 H309 0.929 . S
C284 C282 1.320 . S
C284 C285 1.405 . S
C284 H310 0.930 . S
C285 C280 1.479 . S
C285 C284 1.405 . S
C285 H311 0.931 . S
U286 O287 2.454 . S
U286 O288 2.458 . S
U286 C289 2.984 . S
U286 C290 2.847 . S
U286 C303 2.882 . S
U286 O304 2.441 . S
U286 O305 2.420 . S
U286 O306 2.455 . S
U286 O307 2.449 . S
O287 U286 2.454 . S
O287 C289 1.353 . S
O288 U286 2.458 . S
O288 C289 1.286 . S
C289 U286 2.984 . S
C289 O287 1.353 . S
C289 O288 1.286 . S
C289 C291 1.363 . S
C290 C280 1.465 . S
C290 U286 2.847 . S
C290 O304 1.249 . S
C290 O305 1.202 . S
C291 C289 1.363 . S
C291 C293 1.408 . S
C291 C296 1.342 . S
C292 C293 1.310 . S
C292 C295 1.461 . S
C292 H312 0.932 . S
C293 C291 1.408 . S
C293 C292 1.310 . S
C293 H313 0.930 . S
C294 C295 1.474 . S
C294 C296 1.285 . S
C294 H314 0.929 . S
C295 C292 1.461 . S
C295 C294 1.474 . S
C296 C291 1.342 . S
C296 C294 1.285 . S
C296 H315 0.930 . S
C297 C300 1.424 1_556 S
C297 C302 1.245 1_556 S
C297 C303 1.428 . S
C298 C301 1.260 . S
C298 C302 1.477 . S
C298 H316 0.932 . S
C299 C300 1.384 . S
C299 C301 1.479 . S
C299 H317 0.929 . S
C300 C297 1.424 1_554 S
C300 C299 1.384 . S
C300 H318 0.928 . S
C301 C298 1.260 . S
C301 C299 1.479 . S
C302 C297 1.245 1_554 S
C302 C298 1.477 . S
C302 H319 0.932 . S
C303 U286 2.882 . S
C303 C297 1.428 . S
C303 O306 1.301 . S
C303 O307 1.282 . S
O304 U286 2.441 . S
O304 C290 1.249 . S
O305 U286 2.420 . S
O305 C290 1.202 . S
O306 U286 2.455 . S
O306 C303 1.301 . S
O307 U286 2.449 . S
O307 C303 1.282 . S
H308 C281 0.931 . S
H309 C283 0.929 . S
H310 C284 0.930 . S
H311 C285 0.931 . S
H312 C292 0.932 . S
H313 C293 0.930 . S
H314 C294 0.929 . S
H315 C296 0.930 . S
H316 C298 0.932 . S
H317 C299 0.929 . S
H318 C300 0.928 . S
H319 C302 0.932 . S
C320 C321 1.264 . S
C320 C325 1.479 . S
C320 C330 1.465 . S
C321 C320 1.264 . S
C321 C323 1.339 . S
C321 H348 0.931 . S
C322 C323 1.395 . S
C322 C324 1.320 . S
C323 C321 1.339 . S
C323 C322 1.395 . S
C323 H349 0.929 . S
C324 C322 1.320 . S
C324 C325 1.405 . S
C324 H350 0.930 . S
C325 C320 1.479 . S
C325 C324 1.405 . S
C325 H351 0.931 . S
U326 O327 2.454 . S
U326 O328 2.458 . S
U326 C329 2.984 . S
U326 C330 2.847 . S
U326 C343 2.882 . S
U326 O344 2.441 . S
U326 O345 2.420 . S
U326 O346 2.455 . S
U326 O347 2.449 . S
O327 U326 2.454 . S
O327 C329 1.353 . S
O328 U326 2.458 . S
O328 C329 1.286 . S
C329 U326 2.984 . S
C329 O327 1.353 . S
C329 O328 1.286 . S
C329 C331 1.363 . S
C330 C320 1.465 . S
C330 U326 2.847 . S
C330 O344 1.249 . S
C330 O345 1.202 . S
C331 C329 1.363 . S
C331 C333 1.408 . S
C331 C336 1.342 . S
C332 C333 1.310 . S
C332 C335 1.461 . S
C332 H352 0.932 . S
C333 C331 1.408 . S
C333 C332 1.310 . S
C333 H353 0.930 . S
C334 C335 1.474 . S
C334 C336 1.285 . S
C334 H354 0.929 . S
C335 C332 1.461 . S
C335 C334 1.474 . S
C336 C331 1.342 . S
C336 C334 1.285 . S
C336 H355 0.930 . S
C337 C340 1.424 . S
C337 C342 1.245 . S
C337 C343 1.428 . S
C338 C341 1.260 . S
C338 C342 1.477 . S
C338 H356 0.932 . S
C339 C340 1.384 . S
C339 C341 1.479 . S
C339 H357 0.929 . S
C340 C337 1.424 . S
C340 C339 1.384 . S
C340 H358 0.928 . S
C341 C338 1.260 . S
C341 C339 1.479 . S
C342 C337 1.245 . S
C342 C338 1.477 . S
C342 H359 0.932 . S
C343 U326 2.882 . S
C343 C337 1.428 . S
C343 O346 1.301 . S
C343 O347 1.282 . S
O344 U326 2.441 . S
O344 C330 1.249 . S
O345 U326 2.420 . S
O345 C330 1.202 . S
O346 U326 2.455 . S
O346 C343 1.301 . S
O347 U326 2.449 . S
O347 C343 1.282 . S
H348 C321 0.931 . S
H349 C323 0.929 . S
H350 C324 0.930 . S
H351 C325 0.931 . S
H352 C332 0.932 . S
H353 C333 0.930 . S
H354 C334 0.929 . S
H355 C336 0.930 . S
H356 C338 0.932 . S
H357 C339 0.929 . S
H358 C340 0.928 . S
H359 C342 0.932 . S
C360 C361 1.264 . S
C360 C365 1.479 . S
C360 C370 1.465 . S
C361 C360 1.264 . S
C361 C363 1.339 . S
C361 H388 0.931 . S
C362 C363 1.395 . S
C362 C364 1.320 . S
C363 C361 1.339 . S
C363 C362 1.395 . S
C363 H389 0.929 . S
C364 C362 1.320 . S
C364 C365 1.405 . S
C364 H390 0.930 . S
C365 C360 1.479 . S
C365 C364 1.405 . S
C365 H391 0.931 . S
U366 O367 2.454 . S
U366 O368 2.458 . S
U366 C369 2.984 . S
U366 C370 2.847 . S
U366 C383 2.882 1_455 S
U366 O384 2.441 . S
U366 O385 2.420 . S
U366 O386 2.450 1_455 S
U366 O387 2.449 . S
O367 U366 2.454 . S
O367 C369 1.353 . S
O368 U366 2.458 . S
O368 C369 1.286 . S
C369 U366 2.984 . S
C369 O367 1.353 . S
C369 O368 1.286 . S
C369 C371 1.363 . S
C370 C360 1.465 . S
C370 U366 2.847 . S
C370 O384 1.249 . S
C370 O385 1.202 . S
C371 C369 1.363 . S
C371 C373 1.408 . S
C371 C376 1.342 . S
C372 C373 1.310 . S
C372 C375 1.461 . S
C372 H392 0.932 . S
C373 C371 1.408 . S
C373 C372 1.310 . S
C373 H393 0.930 . S
C374 C375 1.474 . S
C374 C376 1.285 . S
C374 H394 0.929 . S
C375 C372 1.461 . S
C375 C374 1.474 . S
C376 C371 1.342 . S
C376 C374 1.285 . S
C376 H395 0.930 . S
C377 C380 1.424 . S
C377 C382 1.245 . S
C377 C383 1.428 . S
C378 C381 1.260 . S
C378 C382 1.477 . S
C378 H396 0.932 . S
C379 C380 1.384 . S
C379 C381 1.479 . S
C379 H397 0.929 . S
C380 C377 1.424 . S
C380 C379 1.384 . S
C380 H398 0.928 . S
C381 C378 1.260 . S
C381 C379 1.479 . S
C382 C377 1.245 . S
C382 C378 1.477 . S
C382 H399 0.932 . S
C383 U366 2.882 1_655 S
C383 C377 1.428 . S
C383 O386 1.303 . S
C383 O387 1.282 1_655 S
O384 U366 2.441 . S
O384 C370 1.249 . S
O385 U366 2.420 . S
O385 C370 1.202 . S
O386 U366 2.450 1_655 S
O386 C383 1.303 . S
O387 U366 2.449 . S
O387 C383 1.282 1_455 S
H388 C361 0.931 . S
H389 C363 0.929 . S
H390 C364 0.930 . S
H391 C365 0.931 . S
H392 C372 0.932 . S
H393 C373 0.930 . S
H394 C374 0.929 . S
H395 C376 0.930 . S
H396 C378 0.932 . S
H397 C379 0.929 . S
H398 C380 0.928 . S
H399 C382 0.932 . S
C400 C401 1.264 . S
C400 C405 1.479 . S
C400 C410 1.465 . S
C401 C400 1.264 . S
C401 C403 1.339 . S
C401 H428 0.931 . S
C402 C403 1.395 . S
C402 C404 1.320 . S
C403 C401 1.339 . S
C403 C402 1.395 . S
C403 H429 0.929 . S
C404 C402 1.320 . S
C404 C405 1.405 . S
C404 H430 0.930 . S
C405 C400 1.479 . S
C405 C404 1.405 . S
C405 H431 0.931 . S
U406 O407 2.454 . S
U406 O408 2.458 . S
U406 C409 2.984 . S
U406 C410 2.847 . S
U406 C423 2.882 . S
U406 O424 2.441 . S
U406 O425 2.420 . S
U406 O426 2.455 . S
U406 O427 2.449 . S
O407 U406 2.454 . S
O407 C409 1.353 . S
O408 U406 2.458 . S
O408 C409 1.286 . S
C409 U406 2.984 . S
C409 O407 1.353 . S
C409 O408 1.286 . S
C409 C411 1.363 . S
C410 C400 1.465 . S
C410 U406 2.847 . S
C410 O424 1.249 . S
C410 O425 1.202 . S
C411 C409 1.363 . S
C411 C413 1.408 . S
C411 C416 1.342 . S
C412 C413 1.310 . S
C412 C415 1.461 . S
C412 H432 0.932 . S
C413 C411 1.408 . S
C413 C412 1.310 . S
C413 H433 0.930 . S
C414 C415 1.474 . S
C414 C416 1.285 . S
C414 H434 0.929 . S
C415 C412 1.461 . S
C415 C414 1.474 . S
C416 C411 1.342 . S
C416 C414 1.285 . S
C416 H435 0.930 . S
C417 C420 1.424 . S
C417 C422 1.245 . S
C417 C423 1.428 . S
C418 C421 1.260 . S
C418 C422 1.477 . S
C418 H436 0.932 . S
C419 C420 1.384 . S
C419 C421 1.479 . S
C419 H437 0.929 . S
C420 C417 1.424 . S
C420 C419 1.384 . S
C420 H438 0.928 . S
C421 C418 1.260 . S
C421 C419 1.479 . S
C422 C417 1.245 . S
C422 C418 1.477 . S
C422 H439 0.932 . S
C423 U406 2.882 . S
C423 C417 1.428 . S
C423 O426 1.301 . S
C423 O427 1.282 . S
O424 U406 2.441 . S
O424 C410 1.249 . S
O425 U406 2.420 . S
O425 C410 1.202 . S
O426 U406 2.455 . S
O426 C423 1.301 . S
O427 U406 2.449 . S
O427 C423 1.282 . S
H428 C401 0.931 . S
H429 C403 0.929 . S
H430 C404 0.930 . S
H431 C405 0.931 . S
H432 C412 0.932 . S
H433 C413 0.930 . S
H434 C414 0.929 . S
H435 C416 0.930 . S
H436 C418 0.932 . S
H437 C419 0.929 . S
H438 C420 0.928 . S
H439 C422 0.932 . S
C440 C441 1.264 . S
C440 C445 1.479 . S
C440 C450 1.465 . S
C441 C440 1.264 . S
C441 C443 1.339 . S
C441 H468 0.931 . S
C442 C443 1.395 . S
C442 C444 1.320 . S
C443 C441 1.339 . S
C443 C442 1.395 . S
C443 H469 0.929 . S
C444 C442 1.320 . S
C444 C445 1.405 . S
C444 H470 0.930 . S
C445 C440 1.479 . S
C445 C444 1.405 . S
C445 H471 0.931 . S
U446 O447 2.454 . S
U446 O448 2.458 . S
U446 C449 2.984 . S
U446 C450 2.847 . S
U446 C463 2.882 . S
U446 O464 2.441 . S
U446 O465 2.420 . S
U446 O466 2.455 . S
U446 O467 2.449 . S
O447 U446 2.454 . S
O447 C449 1.353 . S
O448 U446 2.458 . S
O448 C449 1.286 . S
C449 U446 2.984 . S
C449 O447 1.353 . S
C449 O448 1.286 . S
C449 C451 1.363 . S
C450 C440 1.465 . S
C450 U446 2.847 . S
C450 O464 1.249 . S
C450 O465 1.202 . S
C451 C449 1.363 . S
C451 C453 1.408 . S
C451 C456 1.342 . S
C452 C453 1.310 . S
C452 C455 1.461 . S
C452 H472 0.932 . S
C453 C451 1.408 . S
C453 C452 1.310 . S
C453 H473 0.930 . S
C454 C455 1.474 . S
C454 C456 1.285 . S
C454 H474 0.929 . S
C455 C452 1.461 . S
C455 C454 1.474 . S
C456 C451 1.342 . S
C456 C454 1.285 . S
C456 H475 0.930 . S
C457 C460 1.424 1_655 S
C457 C462 1.245 1_655 S
C457 C463 1.428 . S
C458 C461 1.260 . S
C458 C462 1.477 . S
C458 H476 0.932 . S
C459 C460 1.384 . S
C459 C461 1.479 . S
C459 H477 0.929 . S
C460 C457 1.424 1_455 S
C460 C459 1.384 . S
C460 H478 0.928 . S
C461 C458 1.260 . S
C461 C459 1.479 . S
C462 C457 1.245 1_455 S
C462 C458 1.477 . S
C462 H479 0.932 . S
C463 U446 2.882 . S
C463 C457 1.428 . S
C463 O466 1.301 . S
C463 O467 1.282 . S
O464 U446 2.441 . S
O464 C450 1.249 . S
O465 U446 2.420 . S
O465 C450 1.202 . S
O466 U446 2.455 . S
O466 C463 1.301 . S
O467 U446 2.449 . S
O467 C463 1.282 . S
H468 C441 0.931 . S
H469 C443 0.929 . S
H470 C444 0.930 . S
H471 C445 0.931 . S
H472 C452 0.932 . S
H473 C453 0.930 . S
H474 C454 0.929 . S
H475 C456 0.930 . S
H476 C458 0.932 . S
H477 C459 0.929 . S
H478 C460 0.928 . S
H479 C462 0.932 . S
C480 C481 1.264 . S
C480 C485 1.479 . S
C480 C490 1.465 . S
C481 C480 1.264 . S
C481 C483 1.339 . S
C481 H508 0.931 . S
C482 C483 1.395 . S
C482 C484 1.320 . S
C483 C481 1.339 . S
C483 C482 1.395 . S
C483 H509 0.929 . S
C484 C482 1.320 . S
C484 C485 1.405 . S
C484 H510 0.930 . S
C485 C480 1.479 . S
C485 C484 1.405 . S
C485 H511 0.931 . S
U486 O487 2.454 . S
U486 O488 2.458 . S
U486 C489 2.984 . S
U486 C490 2.847 . S
U486 C503 2.882 . S
U486 O504 2.441 . S
U486 O505 2.420 . S
U486 O506 2.455 . S
U486 O507 2.449 . S
O487 U486 2.454 . S
O487 C489 1.353 . S
O488 U486 2.458 . S
O488 C489 1.286 . S
C489 U486 2.984 . S
C489 O487 1.353 . S
C489 O488 1.286 . S
C489 C491 1.363 . S
C490 C480 1.465 . S
C490 U486 2.847 . S
C490 O504 1.249 . S
C490 O505 1.202 . S
C491 C489 1.363 . S
C491 C493 1.408 . S
C491 C496 1.342 . S
C492 C493 1.310 . S
C492 C495 1.461 . S
C492 H512 0.932 . S
C493 C491 1.408 . S
C493 C492 1.310 . S
C493 H513 0.930 . S
C494 C495 1.474 . S
C494 C496 1.285 . S
C494 H514 0.929 . S
C495 C492 1.461 . S
C495 C494 1.474 . S
C496 C491 1.342 . S
C496 C494 1.285 . S
C496 H515 0.930 . S
C497 C500 1.424 . S
C497 C502 1.245 . S
C497 C503 1.428 . S
C498 C501 1.260 . S
C498 C502 1.477 . S
C498 H516 0.932 . S
C499 C500 1.384 . S
C499 C501 1.479 . S
C499 H517 0.929 . S
C500 C497 1.424 . S
C500 C499 1.384 . S
C500 H518 0.928 . S
C501 C498 1.260 . S
C501 C499 1.479 . S
C502 C497 1.245 . S
C502 C498 1.477 . S
C502 H519 0.932 . S
C503 U486 2.882 . S
C503 C497 1.428 . S
C503 O506 1.301 . S
C503 O507 1.282 . S
O504 U486 2.441 . S
O504 C490 1.249 . S
O505 U486 2.420 . S
O505 C490 1.202 . S
O506 U486 2.455 . S
O506 C503 1.301 . S
O507 U486 2.449 . S
O507 C503 1.282 . S
H508 C481 0.931 . S
H509 C483 0.929 . S
H510 C484 0.930 . S
H511 C485 0.931 . S
H512 C492 0.932 . S
H513 C493 0.930 . S
H514 C494 0.929 . S
H515 C496 0.930 . S
H516 C498 0.932 . S
H517 C499 0.929 . S
H518 C500 0.928 . S
H519 C502 0.932 . S
C520 C521 1.264 . S
C520 C525 1.479 . S
C520 C530 1.465 . S
C521 C520 1.264 . S
C521 C523 1.339 . S
C521 H548 0.931 . S
C522 C523 1.395 . S
C522 C524 1.320 . S
C523 C521 1.339 . S
C523 C522 1.395 . S
C523 H549 0.929 . S
C524 C522 1.320 . S
C524 C525 1.405 . S
C524 H550 0.930 . S
C525 C520 1.479 . S
C525 C524 1.405 . S
C525 H551 0.931 . S
U526 O527 2.454 . S
U526 O528 2.458 . S
U526 C529 2.984 . S
U526 C530 2.847 . S
U526 C543 2.882 . S
U526 O544 2.441 . S
U526 O545 2.420 . S
U526 O546 2.455 . S
U526 O547 2.449 . S
O527 U526 2.454 . S
O527 C529 1.353 . S
O528 U526 2.458 . S
O528 C529 1.286 . S
C529 U526 2.984 . S
C529 O527 1.353 . S
C529 O528 1.286 . S
C529 C531 1.363 . S
C530 C520 1.465 . S
C530 U526 2.847 . S
C530 O544 1.249 . S
C530 O545 1.202 . S
C531 C529 1.363 . S
C531 C533 1.408 . S
C531 C536 1.342 . S
C532 C533 1.310 . S
C532 C535 1.461 . S
C532 H552 0.932 . S
C533 C531 1.408 . S
C533 C532 1.310 . S
C533 H553 0.930 . S
C534 C535 1.474 . S
C534 C536 1.285 . S
C534 H554 0.929 . S
C535 C532 1.461 . S
C535 C534 1.474 . S
C536 C531 1.342 . S
C536 C534 1.285 . S
C536 H555 0.930 . S
C537 C540 1.424 . S
C537 C542 1.245 . S
C537 C543 1.428 . S
C538 C541 1.260 . S
C538 C542 1.477 . S
C538 H556 0.932 . S
C539 C540 1.384 . S
C539 C541 1.479 . S
C539 H557 0.929 . S
C540 C537 1.424 . S
C540 C539 1.384 . S
C540 H558 0.928 . S
C541 C538 1.260 . S
C541 C539 1.479 . S
C542 C537 1.245 . S
C542 C538 1.477 . S
C542 H559 0.932 . S
C543 U526 2.882 . S
C543 C537 1.428 . S
C543 O546 1.301 . S
C543 O547 1.282 . S
O544 U526 2.441 . S
O544 C530 1.249 . S
O545 U526 2.420 . S
O545 C530 1.202 . S
O546 U526 2.455 . S
O546 C543 1.301 . S
O547 U526 2.449 . S
O547 C543 1.282 . S
H548 C521 0.931 . S
H549 C523 0.929 . S
H550 C524 0.930 . S
H551 C525 0.931 . S
H552 C532 0.932 . S
H553 C533 0.930 . S
H554 C534 0.929 . S
H555 C536 0.930 . S
H556 C538 0.932 . S
H557 C539 0.929 . S
H558 C540 0.928 . S
H559 C542 0.932 . S
C560 C561 1.264 . S
C560 C565 1.479 1_565 S
C560 C570 1.465 . S
C561 C560 1.264 . S
C561 C563 1.339 . S
C561 H588 0.931 . S
C562 C563 1.395 1_545 S
C562 C564 1.320 . S
C563 C561 1.339 . S
C563 C562 1.395 1_565 S
C563 H589 0.929 . S
C564 C562 1.320 . S
C564 C565 1.405 . S
C564 H590 0.930 . S
C565 C560 1.479 1_545 S
C565 C564 1.405 . S
C565 H591 0.931 . S
U566 O567 2.454 . S
U566 O568 2.458 . S
U566 C569 2.984 . S
U566 C570 2.847 . S
U566 C583 2.882 . S
U566 O584 2.441 . S
U566 O585 2.420 . S
U566 O586 2.455 . S
U566 O587 2.449 . S
O567 U566 2.454 . S
O567 C569 1.353 . S
O568 U566 2.458 . S
O568 C569 1.286 . S
C569 U566 2.984 . S
C569 O567 1.353 . S
C569 O568 1.286 . S
C569 C571 1.359 1_565 S
C570 C560 1.465 . S
C570 U566 2.847 . S
C570 O584 1.249 . S
C570 O585 1.202 . S
C571 C569 1.359 1_545 S
C571 C573 1.423 . S
C571 C576 1.337 . S
C572 C573 1.310 . S
C572 C575 1.461 . S
C572 H592 0.932 . S
C573 C571 1.423 . S
C573 C572 1.310 . S
C573 H593 0.930 . S
C574 C575 1.474 . S
C574 C576 1.285 . S
C574 H594 0.929 . S
C575 C572 1.461 . S
C575 C574 1.474 . S
C576 C571 1.337 . S
C576 C574 1.285 . S
C576 H595 0.931 . S
C577 C580 1.424 . S
C577 C582 1.245 . S
C577 C583 1.428 . S
C578 C581 1.260 . S
C578 C582 1.477 . S
C578 H596 0.932 . S
C579 C580 1.384 . S
C579 C581 1.479 . S
C579 H597 0.929 . S
C580 C577 1.424 . S
C580 C579 1.384 . S
C580 H598 0.928 . S
C581 C578 1.260 . S
C581 C579 1.479 . S
C582 C577 1.245 . S
C582 C578 1.477 . S
C582 H599 0.932 . S
C583 U566 2.882 . S
C583 C577 1.428 . S
C583 O586 1.301 . S
C583 O587 1.282 . S
O584 U566 2.441 . S
O584 C570 1.249 . S
O585 U566 2.420 . S
O585 C570 1.202 . S
O586 U566 2.455 . S
O586 C583 1.301 . S
O587 U566 2.449 . S
O587 C583 1.282 . S
H588 C561 0.931 . S
H589 C563 0.929 . S
H590 C564 0.930 . S
H591 C565 0.931 . S
H592 C572 0.932 . S
H593 C573 0.930 . S
H594 C574 0.929 . S
H595 C576 0.931 . S
H596 C578 0.932 . S
H597 C579 0.929 . S
H598 C580 0.928 . S
H599 C582 0.932 . S
C600 C601 1.264 . S
C600 C605 1.479 . S
C600 C610 1.453 1_565 S
C601 C600 1.264 . S
C601 C603 1.339 . S
C601 H628 0.931 1_565 S
C602 C603 1.395 . S
C602 C604 1.320 . S
C603 C601 1.339 . S
C603 C602 1.395 . S
C603 H629 0.929 . S
C604 C602 1.320 . S
C604 C605 1.405 . S
C604 H630 0.930 . S
C605 C600 1.479 . S
C605 C604 1.405 . S
C605 H631 0.931 . S
U606 O607 2.454 1_545 S
U606 O608 2.458 . S
U606 C609 2.984 1_545 S
U606 C610 2.855 . S
U606 C623 2.882 . S
U606 O624 2.441 1_545 S
U606 O625 2.420 . S
U606 O626 2.455 . S
U606 O627 2.449 . S
O607 U606 2.454 1_565 S
O607 C609 1.353 . S
O608 U606 2.458 . S
O608 C609 1.286 1_545 S
C609 U606 2.984 1_565 S
C609 O607 1.353 . S
C609 O608 1.286 1_565 S
C609 C611 1.363 . S
C610 C600 1.453 1_545 S
C610 U606 2.855 . S
C610 O624 1.243 1_545 S
C610 O625 1.222 . S
C611 C609 1.363 . S
C611 C613 1.408 . S
C611 C616 1.342 . S
C612 C613 1.310 . S
C612 C615 1.461 . S
C612 H632 0.932 . S
C613 C611 1.408 . S
C613 C612 1.310 . S
C613 H633 0.930 . S
C614 C615 1.474 . S
C614 C616 1.285 . S
C614 H634 0.929 . S
C615 C612 1.461 . S
C615 C614 1.474 . S
C616 C611 1.342 . S
C616 C614 1.285 . S
C616 H635 0.930 . S
C617 C620 1.424 . S
C617 C622 1.245 . S
C617 C623 1.428 . S
C618 C621 1.260 . S
C618 C622 1.477 . S
C618 H636 0.932 . S
C619 C620 1.384 . S
C619 C621 1.479 . S
C619 H637 0.929 . S
C620 C617 1.424 . S
C620 C619 1.384 . S
C620 H638 0.928 . S
C621 C618 1.260 . S
C621 C619 1.479 . S
C622 C617 1.245 . S
C622 C618 1.477 . S
C622 H639 0.932 . S
C623 U606 2.882 . S
C623 C617 1.428 . S
C623 O626 1.301 . S
C623 O627 1.282 . S
O624 U606 2.441 1_565 S
O624 C610 1.243 1_565 S
O625 U606 2.420 . S
O625 C610 1.222 . S
O626 U606 2.455 . S
O626 C623 1.301 . S
O627 U606 2.449 . S
O627 C623 1.282 . S
H628 C601 0.931 1_545 S
H629 C603 0.929 . S
H630 C604 0.930 . S
H631 C605 0.931 . S
H632 C612 0.932 . S
H633 C613 0.930 . S
H634 C614 0.929 . S
H635 C616 0.930 . S
H636 C618 0.932 . S
H637 C619 0.929 . S
H638 C620 0.928 . S
H639 C622 0.932 . S
C640 C641 1.264 . S
C640 C645 1.479 . S
C640 C650 1.465 . S
C641 C640 1.264 . S
C641 C643 1.339 . S
C641 H668 0.931 . S
C642 C643 1.395 . S
C642 C644 1.320 . S
C643 C641 1.339 . S
C643 C642 1.395 . S
C643 H669 0.929 . S
C644 C642 1.320 . S
C644 C645 1.405 . S
C644 H670 0.930 . S
C645 C640 1.479 . S
C645 C644 1.405 . S
C645 H671 0.931 . S
U646 O647 2.454 . S
U646 O648 2.458 . S
U646 C649 2.984 . S
U646 C650 2.847 . S
U646 C663 2.882 . S
U646 O664 2.441 . S
U646 O665 2.420 . S
U646 O666 2.455 . S
U646 O667 2.449 . S
O647 U646 2.454 . S
O647 C649 1.353 . S
O648 U646 2.458 . S
O648 C649 1.286 . S
C649 U646 2.984 . S
C649 O647 1.353 . S
C649 O648 1.286 . S
C649 C651 1.363 . S
C650 C640 1.465 . S
C650 U646 2.847 . S
C650 O664 1.249 . S
C650 O665 1.202 . S
C651 C649 1.363 . S
C651 C653 1.408 . S
C651 C656 1.342 . S
C652 C653 1.310 . S
C652 C655 1.461 . S
C652 H672 0.932 . S
C653 C651 1.408 . S
C653 C652 1.310 . S
C653 H673 0.930 . S
C654 C655 1.474 . S
C654 C656 1.285 . S
C654 H674 0.929 . S
C655 C652 1.461 . S
C655 C654 1.474 . S
C656 C651 1.342 . S
C656 C654 1.285 . S
C656 H675 0.930 . S
C657 C660 1.424 . S
C657 C662 1.245 . S
C657 C663 1.428 . S
C658 C661 1.260 . S
C658 C662 1.477 . S
C658 H676 0.932 . S
C659 C660 1.384 . S
C659 C661 1.479 . S
C659 H677 0.929 . S
C660 C657 1.424 . S
C660 C659 1.384 . S
C660 H678 0.928 . S
C661 C658 1.260 . S
C661 C659 1.479 . S
C662 C657 1.245 . S
C662 C658 1.477 . S
C662 H679 0.932 . S
C663 U646 2.882 . S
C663 C657 1.428 . S
C663 O666 1.301 . S
C663 O667 1.282 . S
O664 U646 2.441 . S
O664 C650 1.249 . S
O665 U646 2.420 . S
O665 C650 1.202 . S
O666 U646 2.455 . S
O666 C663 1.301 . S
O667 U646 2.449 . S
O667 C663 1.282 . S
H668 C641 0.931 . S
H669 C643 0.929 . S
H670 C644 0.930 . S
H671 C645 0.931 . S
H672 C652 0.932 . S
H673 C653 0.930 . S
H674 C654 0.929 . S
H675 C656 0.930 . S
H676 C658 0.932 . S
H677 C659 0.929 . S
H678 C660 0.928 . S
H679 C662 0.932 . S
C680 C681 1.264 . S
C680 C685 1.479 . S
C680 C690 1.453 1_556 S
C681 C680 1.264 . S
C681 C683 1.339 . S
C681 H708 0.931 1_556 S
C682 C683 1.395 . S
C682 C684 1.320 . S
C683 C681 1.339 . S
C683 C682 1.395 . S
C683 H709 0.929 . S
C684 C682 1.320 . S
C684 C685 1.405 . S
C684 H710 0.930 . S
C685 C680 1.479 . S
C685 C684 1.405 . S
C685 H711 0.931 . S
U686 O687 2.454 1_554 S
U686 O688 2.458 . S
U686 C689 2.984 1_554 S
U686 C690 2.855 . S
U686 C703 2.882 . S
U686 O704 2.441 1_554 S
U686 O705 2.420 . S
U686 O706 2.455 . S
U686 O707 2.449 . S
O687 U686 2.454 1_556 S
O687 C689 1.353 . S
O688 U686 2.458 . S
O688 C689 1.286 1_554 S
C689 U686 2.984 1_556 S
C689 O687 1.353 . S
C689 O688 1.286 1_556 S
C689 C691 1.363 . S
C690 C680 1.453 1_554 S
C690 U686 2.855 . S
C690 O704 1.243 1_554 S
C690 O705 1.222 . S
C691 C689 1.363 . S
C691 C693 1.408 . S
C691 C696 1.342 . S
C692 C693 1.310 . S
C692 C695 1.461 . S
C692 H712 0.932 . S
C693 C691 1.408 . S
C693 C692 1.310 . S
C693 H713 0.930 . S
C694 C695 1.474 . S
C694 C696 1.285 . S
C694 H714 0.929 . S
C695 C692 1.461 . S
C695 C694 1.474 . S
C696 C691 1.342 . S
C696 C694 1.285 . S
C696 H715 0.930 . S
C697 C700 1.424 . S
C697 C702 1.245 . S
C697 C703 1.428 . S
C698 C701 1.260 . S
C698 C702 1.477 . S
C698 H716 0.932 . S
C699 C700 1.384 . S
C699 C701 1.479 . S
C699 H717 0.929 . S
C700 C697 1.424 . S
C700 C699 1.384 . S
C700 H718 0.928 . S
C701 C698 1.260 . S
C701 C699 1.479 . S
C702 C697 1.245 . S
C702 C698 1.477 . S
C702 H719 0.932 . S
C703 U686 2.882 . S
C703 C697 1.428 . S
C703 O706 1.301 . S
C703 O707 1.282 . S
O704 U686 2.441 1_556 S
O704 C690 1.243 1_556 S
O705 U686 2.420 . S
O705 C690 1.222 . S
O706 U686 2.455 . S
O706 C703 1.301 . S
O707 U686 2.449 . S
O707 C703 1.282 . S
H708 C681 0.931 1_554 S
H709 C683 0.929 . S
H710 C684 0.930 . S
H711 C685 0.931 . S
H712 C692 0.932 . S
H713 C693 0.930 . S
H714 C694 0.929 . S
H715 C696 0.930 . S
H716 C698 0.932 . S
H717 C699 0.929 . S
H718 C700 0.928 . S
H719 C702 0.932 . S
C720 C721 1.264 . S
C720 C725 1.479 . S
C720 C730 1.465 . S
C721 C720 1.264 . S
C721 C723 1.339 . S
C721 H748 0.931 . S
C722 C723 1.395 . S
C722 C724 1.320 . S
C723 C721 1.339 . S
C723 C722 1.395 . S
C723 H749 0.929 . S
C724 C722 1.320 . S
C724 C725 1.405 . S
C724 H750 0.930 . S
C725 C720 1.479 . S
C725 C724 1.405 . S
C725 H751 0.931 . S
U726 O727 2.454 . S
U726 O728 2.458 . S
U726 C729 2.984 . S
U726 C730 2.847 . S
U726 C743 2.882 . S
U726 O744 2.441 . S
U726 O745 2.420 . S
U726 O746 2.455 . S
U726 O747 2.449 . S
O727 U726 2.454 . S
O727 C729 1.353 . S
O728 U726 2.458 . S
O728 C729 1.286 . S
C729 U726 2.984 . S
C729 O727 1.353 . S
C729 O728 1.286 . S
C729 C731 1.363 . S
C730 C720 1.465 . S
C730 U726 2.847 . S
C730 O744 1.249 . S
C730 O745 1.202 . S
C731 C729 1.363 . S
C731 C733 1.408 . S
C731 C736 1.342 . S
C732 C733 1.310 . S
C732 C735 1.461 . S
C732 H752 0.932 . S
C733 C731 1.408 . S
C733 C732 1.310 . S
C733 H753 0.930 . S
C734 C735 1.474 . S
C734 C736 1.285 . S
C734 H754 0.929 . S
C735 C732 1.461 . S
C735 C734 1.474 . S
C736 C731 1.342 . S
C736 C734 1.285 . S
C736 H755 0.930 . S
C737 C740 1.424 . S
C737 C742 1.245 . S
C737 C743 1.428 . S
C738 C741 1.260 . S
C738 C742 1.477 . S
C738 H756 0.932 . S
C739 C740 1.384 . S
C739 C741 1.479 . S
C739 H757 0.929 . S
C740 C737 1.424 . S
C740 C739 1.384 . S
C740 H758 0.928 . S
C741 C738 1.260 . S
C741 C739 1.479 . S
C742 C737 1.245 . S
C742 C738 1.477 . S
C742 H759 0.932 . S
C743 U726 2.882 . S
C743 C737 1.428 . S
C743 O746 1.301 . S
C743 O747 1.282 . S
O744 U726 2.441 . S
O744 C730 1.249 . S
O745 U726 2.420 . S
O745 C730 1.202 . S
O746 U726 2.455 . S
O746 C743 1.301 . S
O747 U726 2.449 . S
O747 C743 1.282 . S
H748 C721 0.931 . S
H749 C723 0.929 . S
H750 C724 0.930 . S
H751 C725 0.931 . S
H752 C732 0.932 . S
H753 C733 0.930 . S
H754 C734 0.929 . S
H755 C736 0.930 . S
H756 C738 0.932 . S
H757 C739 0.929 . S
H758 C740 0.928 . S
H759 C742 0.932 . S
C760 C761 1.264 . S
C760 C765 1.479 1_556 S
C760 C770 1.465 . S
C761 C760 1.264 . S
C761 C763 1.339 . S
C761 H788 0.931 . S
C762 C763 1.395 1_554 S
C762 C764 1.320 . S
C763 C761 1.339 . S
C763 C762 1.395 1_556 S
C763 H789 0.929 . S
C764 C762 1.320 . S
C764 C765 1.405 . S
C764 H790 0.930 . S
C765 C760 1.479 1_554 S
C765 C764 1.405 . S
C765 H791 0.931 . S
U766 O767 2.454 . S
U766 O768 2.458 . S
U766 C769 2.984 . S
U766 C770 2.847 . S
U766 C783 2.882 . S
U766 O784 2.441 . S
U766 O785 2.420 . S
U766 O786 2.455 . S
U766 O787 2.449 . S
O767 U766 2.454 . S
O767 C769 1.353 . S
O768 U766 2.458 . S
O768 C769 1.286 . S
C769 U766 2.984 . S
C769 O767 1.353 . S
C769 O768 1.286 . S
C769 C771 1.359 1_556 S
C770 C760 1.465 . S
C770 U766 2.847 . S
C770 O784 1.249 . S
C770 O785 1.202 . S
C771 C769 1.359 1_554 S
C771 C773 1.423 . S
C771 C776 1.337 . S
C772 C773 1.310 . S
C772 C775 1.461 . S
C772 H792 0.932 . S
C773 C771 1.423 . S
C773 C772 1.310 . S
C773 H793 0.930 . S
C774 C775 1.474 . S
C774 C776 1.285 . S
C774 H794 0.929 . S
C775 C772 1.461 . S
C775 C774 1.474 . S
C776 C771 1.337 . S
C776 C774 1.285 . S
C776 H795 0.931 . S
C777 C780 1.424 . S
C777 C782 1.245 . S
C777 C783 1.428 . S
C778 C781 1.260 . S
C778 C782 1.477 . S
C778 H796 0.932 . S
C779 C780 1.384 . S
C779 C781 1.479 . S
C779 H797 0.929 . S
C780 C777 1.424 . S
C780 C779 1.384 . S
C780 H798 0.928 . S
C781 C778 1.260 . S
C781 C779 1.479 . S
C782 C777 1.245 . S
C782 C778 1.477 . S
C782 H799 0.932 . S
C783 U766 2.882 . S
C783 C777 1.428 . S
C783 O786 1.301 . S
C783 O787 1.282 . S
O784 U766 2.441 . S
O784 C770 1.249 . S
O785 U766 2.420 . S
O785 C770 1.202 . S
O786 U766 2.455 . S
O786 C783 1.301 . S
O787 U766 2.449 . S
O787 C783 1.282 . S
H788 C761 0.931 . S
H789 C763 0.929 . S
H790 C764 0.930 . S
H791 C765 0.931 . S
H792 C772 0.932 . S
H793 C773 0.930 . S
H794 C774 0.929 . S
H795 C776 0.931 . S
H796 C778 0.932 . S
H797 C779 0.929 . S
H798 C780 0.928 . S
H799 C782 0.932 . S
C800 C801 1.264 . S
C800 C805 1.479 . S
C800 C810 1.465 . S
C801 C800 1.264 . S
C801 C803 1.339 . S
C801 H828 0.931 . S
C802 C803 1.395 . S
C802 C804 1.320 . S
C803 C801 1.339 . S
C803 C802 1.395 . S
C803 H829 0.929 . S
C804 C802 1.320 . S
C804 C805 1.405 . S
C804 H830 0.930 . S
C805 C800 1.479 . S
C805 C804 1.405 . S
C805 H831 0.931 . S
U806 O807 2.454 . S
U806 O808 2.458 . S
U806 C809 2.984 . S
U806 C810 2.847 . S
U806 C823 2.882 . S
U806 O824 2.441 . S
U806 O825 2.420 . S
U806 O826 2.455 . S
U806 O827 2.449 . S
O807 U806 2.454 . S
O807 C809 1.353 . S
O808 U806 2.458 . S
O808 C809 1.286 . S
C809 U806 2.984 . S
C809 O807 1.353 . S
C809 O808 1.286 . S
C809 C811 1.363 . S
C810 C800 1.465 . S
C810 U806 2.847 . S
C810 O824 1.249 . S
C810 O825 1.202 . S
C811 C809 1.363 . S
C811 C813 1.408 . S
C811 C816 1.342 . S
C812 C813 1.310 . S
C812 C815 1.461 . S
C812 H832 0.932 . S
C813 C811 1.408 . S
C813 C812 1.310 . S
C813 H833 0.930 . S
C814 C815 1.474 . S
C814 C816 1.285 . S
C814 H834 0.929 . S
C815 C812 1.461 . S
C815 C814 1.474 . S
C816 C811 1.342 . S
C816 C814 1.285 . S
C816 H835 0.930 . S
C817 C820 1.424 . S
C817 C822 1.245 . S
C817 C823 1.428 . S
C818 C821 1.260 . S
C818 C822 1.477 . S
C818 H836 0.932 . S
C819 C820 1.384 . S
C819 C821 1.479 . S
C819 H837 0.929 . S
C820 C817 1.424 . S
C820 C819 1.384 . S
C820 H838 0.928 . S
C821 C818 1.260 . S
C821 C819 1.479 . S
C822 C817 1.245 . S
C822 C818 1.477 . S
C822 H839 0.932 . S
C823 U806 2.882 . S
C823 C817 1.428 . S
C823 O826 1.301 . S
C823 O827 1.282 . S
O824 U806 2.441 . S
O824 C810 1.249 . S
O825 U806 2.420 . S
O825 C810 1.202 . S
O826 U806 2.455 . S
O826 C823 1.301 . S
O827 U806 2.449 . S
O827 C823 1.282 . S
H828 C801 0.931 . S
H829 C803 0.929 . S
H830 C804 0.930 . S
H831 C805 0.931 . S
H832 C812 0.932 . S
H833 C813 0.930 . S
H834 C814 0.929 . S
H835 C816 0.930 . S
H836 C818 0.932 . S
H837 C819 0.929 . S
H838 C820 0.928 . S
H839 C822 0.932 . S
C840 C841 1.264 . S
C840 C845 1.479 . S
C840 C850 1.453 1_655 S
C841 C840 1.264 . S
C841 C843 1.339 . S
C841 H868 0.931 1_655 S
C842 C843 1.395 . S
C842 C844 1.320 . S
C843 C841 1.339 . S
C843 C842 1.395 . S
C843 H869 0.929 . S
C844 C842 1.320 . S
C844 C845 1.405 . S
C844 H870 0.930 . S
C845 C840 1.479 . S
C845 C844 1.405 . S
C845 H871 0.931 . S
U846 O847 2.454 1_455 S
U846 O848 2.458 . S
U846 C849 2.984 1_455 S
U846 C850 2.855 . S
U846 C863 2.882 . S
U846 O864 2.441 1_455 S
U846 O865 2.420 . S
U846 O866 2.455 . S
U846 O867 2.449 . S
O847 U846 2.454 1_655 S
O847 C849 1.353 . S
O848 U846 2.458 . S
O848 C849 1.286 1_455 S
C849 U846 2.984 1_655 S
C849 O847 1.353 . S
C849 O848 1.286 1_655 S
C849 C851 1.363 . S
C850 C840 1.453 1_455 S
C850 U846 2.855 . S
C850 O864 1.243 1_455 S
C850 O865 1.222 . S
C851 C849 1.363 . S
C851 C853 1.408 . S
C851 C856 1.342 . S
C852 C853 1.310 . S
C852 C855 1.461 . S
C852 H872 0.932 . S
C853 C851 1.408 . S
C853 C852 1.310 . S
C853 H873 0.930 . S
C854 C855 1.474 . S
C854 C856 1.285 . S
C854 H874 0.929 . S
C855 C852 1.461 . S
C855 C854 1.474 . S
C856 C851 1.342 . S
C856 C854 1.285 . S
C856 H875 0.930 . S
C857 C860 1.424 . S
C857 C862 1.245 . S
C857 C863 1.428 . S
C858 C861 1.260 . S
C858 C862 1.477 . S
C858 H876 0.932 . S
C859 C860 1.384 . S
C859 C861 1.479 . S
C859 H877 0.929 . S
C860 C857 1.424 . S
C860 C859 1.384 . S
C860 H878 0.928 . S
C861 C858 1.260 . S
C861 C859 1.479 . S
C862 C857 1.245 . S
C862 C858 1.477 . S
C862 H879 0.932 . S
C863 U846 2.882 . S
C863 C857 1.428 . S
C863 O866 1.301 . S
C863 O867 1.282 . S
O864 U846 2.441 1_655 S
O864 C850 1.243 1_655 S
O865 U846 2.420 . S
O865 C850 1.222 . S
O866 U846 2.455 . S
O866 C863 1.301 . S
O867 U846 2.449 . S
O867 C863 1.282 . S
H868 C841 0.931 1_455 S
H869 C843 0.929 . S
H870 C844 0.930 . S
H871 C845 0.931 . S
H872 C852 0.932 . S
H873 C853 0.930 . S
H874 C854 0.929 . S
H875 C856 0.930 . S
H876 C858 0.932 . S
H877 C859 0.929 . S
H878 C860 0.928 . S
H879 C862 0.932 . S
C880 C881 1.264 . S
C880 C885 1.479 . S
C880 C890 1.465 . S
C881 C880 1.264 . S
C881 C883 1.339 . S
C881 H908 0.931 . S
C882 C883 1.395 . S
C882 C884 1.320 . S
C883 C881 1.339 . S
C883 C882 1.395 . S
C883 H909 0.929 . S
C884 C882 1.320 . S
C884 C885 1.405 . S
C884 H910 0.930 . S
C885 C880 1.479 . S
C885 C884 1.405 . S
C885 H911 0.931 . S
U886 O887 2.454 . S
U886 O888 2.458 . S
U886 C889 2.984 . S
U886 C890 2.847 . S
U886 C903 2.882 . S
U886 O904 2.441 . S
U886 O905 2.420 . S
U886 O906 2.455 . S
U886 O907 2.449 . S
O887 U886 2.454 . S
O887 C889 1.353 . S
O888 U886 2.458 . S
O888 C889 1.286 . S
C889 U886 2.984 . S
C889 O887 1.353 . S
C889 O888 1.286 . S
C889 C891 1.363 . S
C890 C880 1.465 . S
C890 U886 2.847 . S
C890 O904 1.249 . S
C890 O905 1.202 . S
C891 C889 1.363 . S
C891 C893 1.408 . S
C891 C896 1.342 . S
C892 C893 1.310 . S
C892 C895 1.461 . S
C892 H912 0.932 . S
C893 C891 1.408 . S
C893 C892 1.310 . S
C893 H913 0.930 . S
C894 C895 1.474 . S
C894 C896 1.285 . S
C894 H914 0.929 . S
C895 C892 1.461 . S
C895 C894 1.474 . S
C896 C891 1.342 . S
C896 C894 1.285 . S
C896 H915 0.930 . S
C897 C900 1.424 . S
C897 C902 1.245 . S
C897 C903 1.428 . S
C898 C901 1.260 . S
C898 C902 1.477 . S
C898 H916 0.932 . S
C899 C900 1.384 . S
C899 C901 1.479 . S
C899 H917 0.929 . S
C900 C897 1.424 . S
C900 C899 1.384 . S
C900 H918 0.928 . S
C901 C898 1.260 . S
C901 C899 1.479 . S
C902 C897 1.245 . S
C902 C898 1.477 . S
C902 H919 0.932 . S
C903 U886 2.882 . S
C903 C897 1.428 . S
C903 O906 1.301 . S
C903 O907 1.282 . S
O904 U886 2.441 . S
O904 C890 1.249 . S
O905 U886 2.420 . S
O905 C890 1.202 . S
O906 U886 2.455 . S
O906 C903 1.301 . S
O907 U886 2.449 . S
O907 C903 1.282 . S
H908 C881 0.931 . S
H909 C883 0.929 . S
H910 C884 0.930 . S
H911 C885 0.931 . S
H912 C892 0.932 . S
H913 C893 0.930 . S
H914 C894 0.929 . S
H915 C896 0.930 . S
H916 C898 0.932 . S
H917 C899 0.929 . S
H918 C900 0.928 . S
H919 C902 0.932 . S
C920 C921 1.264 . S
C920 C925 1.479 1_655 S
C920 C930 1.465 . S
C921 C920 1.264 . S
C921 C923 1.339 . S
C921 H948 0.931 . S
C922 C923 1.395 1_455 S
C922 C924 1.320 . S
C923 C921 1.339 . S
C923 C922 1.395 1_655 S
C923 H949 0.929 . S
C924 C922 1.320 . S
C924 C925 1.405 . S
C924 H950 0.930 . S
C925 C920 1.479 1_455 S
C925 C924 1.405 . S
C925 H951 0.931 . S
U926 O927 2.454 . S
U926 O928 2.458 . S
U926 C929 2.984 . S
U926 C930 2.847 . S
U926 C943 2.882 . S
U926 O944 2.441 . S
U926 O945 2.420 . S
U926 O946 2.455 . S
U926 O947 2.449 . S
O927 U926 2.454 . S
O927 C929 1.353 . S
O928 U926 2.458 . S
O928 C929 1.286 . S
C929 U926 2.984 . S
C929 O927 1.353 . S
C929 O928 1.286 . S
C929 C931 1.359 1_655 S
C930 C920 1.465 . S
C930 U926 2.847 . S
C930 O944 1.249 . S
C930 O945 1.202 . S
C931 C929 1.359 1_455 S
C931 C933 1.423 . S
C931 C936 1.337 . S
C932 C933 1.310 . S
C932 C935 1.461 . S
C932 H952 0.932 . S
C933 C931 1.423 . S
C933 C932 1.310 . S
C933 H953 0.930 . S
C934 C935 1.474 . S
C934 C936 1.285 . S
C934 H954 0.929 . S
C935 C932 1.461 . S
C935 C934 1.474 . S
C936 C931 1.337 . S
C936 C934 1.285 . S
C936 H955 0.931 . S
C937 C940 1.424 . S
C937 C942 1.245 . S
C937 C943 1.428 . S
C938 C941 1.260 . S
C938 C942 1.477 . S
C938 H956 0.932 . S
C939 C940 1.384 . S
C939 C941 1.479 . S
C939 H957 0.929 . S
C940 C937 1.424 . S
C940 C939 1.384 . S
C940 H958 0.928 . S
C941 C938 1.260 . S
C941 C939 1.479 . S
C942 C937 1.245 . S
C942 C938 1.477 . S
C942 H959 0.932 . S
C943 U926 2.882 . S
C943 C937 1.428 . S
C943 O946 1.301 . S
C943 O947 1.282 . S
O944 U926 2.441 . S
O944 C930 1.249 . S
O945 U926 2.420 . S
O945 C930 1.202 . S
O946 U926 2.455 . S
O946 C943 1.301 . S
O947 U926 2.449 . S
O947 C943 1.282 . S
H948 C921 0.931 . S
H949 C923 0.929 . S
H950 C924 0.930 . S
H951 C925 0.931 . S
H952 C932 0.932 . S
H953 C933 0.930 . S
H954 C934 0.929 . S
H955 C936 0.931 . S
H956 C938 0.932 . S
H957 C939 0.929 . S
H958 C940 0.928 . S
H959 C942 0.932 . S
H960 C961 0.949 . S
C961 H960 0.949 . S
C961 C962 1.395 . S
C961 C963 1.391 . S
C962 C961 1.395 . S
C962 C965 1.390 . S
C963 C961 1.391 . S
C963 C967 1.387 . S
C963 C968 1.491 . S
H964 C965 0.950 . S
C965 C962 1.390 . S
C965 H964 0.950 . S
C965 C966 1.378 . S
C966 C965 1.378 . S
C966 C967 1.409 . S
C967 C963 1.387 . S
C967 C966 1.409 . S
C967 H969 0.951 . S
C968 C963 1.491 . S
C968 C970 1.382 . S
C968 C972 1.404 . S
H969 C967 0.951 . S
C970 C968 1.382 . S
C970 C971 1.390 . S
C970 H975 0.949 . S
C971 C970 1.390 . S
C971 C976 1.399 . S
C972 C968 1.404 . S
C972 H973 0.950 . S
C972 C974 1.375 . S
H973 C972 0.950 . S
C974 C972 1.375 . S
C974 C976 1.382 . S
C974 H978 0.950 . S
H975 C970 0.949 . S
C976 C971 1.399 . S
C976 C974 1.382 . S
C976 H977 0.952 . S
H977 C976 0.952 . S
H978 C974 0.950 . S
H979 C980 0.949 . S
C980 H979 0.949 . S
C980 C981 1.395 . S
C980 C982 1.391 1_556 S
C981 C980 1.395 . S
C981 C984 1.390 . S
C982 C980 1.391 1_554 S
C982 C986 1.387 . S
C982 C987 1.491 . S
H983 C984 0.950 . S
C984 C981 1.390 . S
C984 H983 0.950 . S
C984 C985 1.378 1_556 S
C985 C984 1.378 1_554 S
C985 C986 1.409 . S
C986 C982 1.387 . S
C986 C985 1.409 . S
C986 H988 0.951 . S
C987 C982 1.491 . S
C987 C989 1.382 . S
C987 C991 1.404 . S
H988 C986 0.951 . S
C989 C987 1.382 . S
C989 C990 1.390 . S
C989 H994 0.943 1_554 S
C990 C989 1.390 . S
C990 C995 1.399 . S
C991 C987 1.404 . S
C991 H992 0.950 . S
C991 C993 1.375 . S
H992 C991 0.950 . S
C993 C991 1.375 . S
C993 C995 1.382 . S
C993 H997 0.950 . S
H994 C989 0.943 1_556 S
C995 C990 1.399 . S
C995 C993 1.382 . S
C995 H996 0.952 . S
H996 C995 0.952 . S
H997 C993 0.950 . S
H998 C999 0.949 . S
C999 H998 0.949 . S
C999 C1000 1.395 . S
C999 C1001 1.391 . S
C1000 C999 1.395 . S
C1000 C1003 1.390 . S
C1001 C999 1.391 . S
C1001 C1005 1.387 . S
C1001 C1006 1.491 . S
H1002 C1003 0.950 . S
C1003 C1000 1.390 . S
C1003 H1002 0.950 . S
C1003 C1004 1.378 . S
C1004 C1003 1.378 . S
C1004 C1005 1.409 . S
C1005 C1001 1.387 . S
C1005 C1004 1.409 . S
C1005 H1007 0.951 . S
C1006 C1001 1.491 . S
C1006 C1008 1.382 . S
C1006 C1010 1.404 . S
H1007 C1005 0.951 . S
C1008 C1006 1.382 . S
C1008 C1009 1.390 . S
C1008 H1013 0.949 . S
C1009 C1008 1.390 . S
C1009 C1014 1.399 . S
C1010 C1006 1.404 . S
C1010 H1011 0.950 . S
C1010 C1012 1.375 . S
H1011 C1010 0.950 . S
C1012 C1010 1.375 . S
C1012 C1014 1.382 . S
C1012 H1016 0.950 . S
H1013 C1008 0.949 . S
C1014 C1009 1.399 . S
C1014 C1012 1.382 . S
C1014 H1015 0.952 . S
H1015 C1014 0.952 . S
H1016 C1012 0.950 . S
H1017 C1018 0.949 . S
C1018 H1017 0.949 . S
C1018 C1019 1.395 . S
C1018 C1020 1.391 1_554 S
C1019 C1018 1.395 . S
C1019 C1022 1.390 . S
C1020 C1018 1.391 1_556 S
C1020 C1024 1.387 . S
C1020 C1025 1.491 . S
H1021 C1022 0.950 . S
C1022 C1019 1.390 . S
C1022 H1021 0.950 . S
C1022 C1023 1.378 1_554 S
C1023 C1022 1.378 1_556 S
C1023 C1024 1.409 . S
C1024 C1020 1.387 . S
C1024 C1023 1.409 . S
C1024 H1026 0.951 . S
C1025 C1020 1.491 . S
C1025 C1027 1.382 . S
C1025 C1029 1.404 . S
H1026 C1024 0.951 . S
C1027 C1025 1.382 . S
C1027 C1028 1.390 . S
C1027 H1032 0.949 1_556 S
C1028 C1027 1.390 . S
C1028 C1033 1.399 . S
C1029 C1025 1.404 . S
C1029 H1030 0.950 . S
C1029 C1031 1.375 . S
H1030 C1029 0.950 . S
C1031 C1029 1.375 . S
C1031 C1033 1.382 . S
C1031 H1035 0.950 . S
H1032 C1027 0.949 1_554 S
C1033 C1028 1.399 . S
C1033 C1031 1.382 . S
C1033 H1034 0.952 . S
H1034 C1033 0.952 . S
H1035 C1031 0.950 . S
H1036 C1037 0.949 . S
C1037 H1036 0.949 . S
C1037 C1038 1.395 . S
C1037 C1039 1.391 . S
C1038 C1037 1.395 . S
C1038 C1041 1.390 . S
C1039 C1037 1.391 . S
C1039 C1043 1.387 . S
C1039 C1044 1.491 . S
H1040 C1041 0.950 . S
C1041 C1038 1.390 . S
C1041 H1040 0.950 . S
C1041 C1042 1.378 . S
C1042 C1041 1.378 . S
C1042 C1043 1.409 . S
C1043 C1039 1.387 . S
C1043 C1042 1.409 . S
C1043 H1045 0.951 . S
C1044 C1039 1.491 . S
C1044 C1046 1.382 . S
C1044 C1048 1.404 . S
H1045 C1043 0.951 . S
C1046 C1044 1.382 . S
C1046 C1047 1.390 . S
C1046 H1051 0.949 . S
C1047 C1046 1.390 . S
C1047 C1052 1.399 . S
C1048 C1044 1.404 . S
C1048 H1049 0.950 . S
C1048 C1050 1.375 . S
H1049 C1048 0.950 . S
C1050 C1048 1.375 . S
C1050 C1052 1.382 . S
C1050 H1054 0.950 . S
H1051 C1046 0.949 . S
C1052 C1047 1.399 . S
C1052 C1050 1.382 . S
C1052 H1053 0.952 . S
H1053 C1052 0.952 . S
H1054 C1050 0.950 . S
H1055 C1056 0.949 . S
C1056 H1055 0.949 . S
C1056 C1057 1.395 . S
C1056 C1058 1.391 1_455 S
C1057 C1056 1.395 . S
C1057 C1060 1.390 . S
C1058 C1056 1.391 1_655 S
C1058 C1062 1.387 . S
C1058 C1063 1.491 . S
H1059 C1060 0.950 . S
C1060 C1057 1.390 . S
C1060 H1059 0.950 . S
C1060 C1061 1.378 1_455 S
C1061 C1060 1.378 1_655 S
C1061 C1062 1.409 . S
C1062 C1058 1.387 . S
C1062 C1061 1.409 . S
C1062 H1064 0.951 . S
C1063 C1058 1.491 . S
C1063 C1065 1.382 . S
C1063 C1067 1.404 . S
H1064 C1062 0.951 . S
C1065 C1063 1.382 . S
C1065 C1066 1.390 . S
C1065 H1070 0.949 1_655 S
C1066 C1065 1.390 . S
C1066 C1071 1.399 . S
C1067 C1063 1.404 . S
C1067 H1068 0.950 . S
C1067 C1069 1.375 . S
H1068 C1067 0.950 . S
C1069 C1067 1.375 . S
C1069 C1071 1.382 . S
C1069 H1073 0.950 . S
H1070 C1065 0.949 1_455 S
C1071 C1066 1.399 . S
C1071 C1069 1.382 . S
C1071 H1072 0.952 . S
H1072 C1071 0.952 . S
H1073 C1069 0.950 . S
H1074 C1075 0.949 . S
C1075 H1074 0.949 . S
C1075 C1076 1.395 . S
C1075 C1077 1.391 1_655 S
C1076 C1075 1.395 . S
C1076 C1079 1.390 . S
C1077 C1075 1.391 1_455 S
C1077 C1081 1.387 . S
C1077 C1082 1.491 . S
H1078 C1079 0.950 . S
C1079 C1076 1.390 . S
C1079 H1078 0.950 . S
C1079 C1080 1.378 1_655 S
C1080 C1079 1.378 1_455 S
C1080 C1081 1.409 . S
C1081 C1077 1.387 . S
C1081 C1080 1.409 . S
C1081 H1083 0.951 . S
C1082 C1077 1.491 . S
C1082 C1084 1.382 . S
C1082 C1086 1.404 . S
H1083 C1081 0.951 . S
C1084 C1082 1.382 . S
C1084 C1085 1.390 . S
C1084 H1089 0.943 1_455 S
C1085 C1084 1.390 . S
C1085 C1090 1.399 . S
C1086 C1082 1.404 . S
C1086 H1087 0.950 . S
C1086 C1088 1.375 . S
H1087 C1086 0.950 . S
C1088 C1086 1.375 . S
C1088 C1090 1.382 . S
C1088 H1092 0.950 . S
H1089 C1084 0.943 1_655 S
C1090 C1085 1.399 . S
C1090 C1088 1.382 . S
C1090 H1091 0.952 . S
H1091 C1090 0.952 . S
H1092 C1088 0.950 . S
H1093 C1094 0.949 . S
C1094 H1093 0.949 . S
C1094 C1095 1.395 . S
C1094 C1096 1.391 . S
C1095 C1094 1.395 . S
C1095 C1098 1.390 . S
C1096 C1094 1.391 . S
C1096 C1100 1.387 . S
C1096 C1101 1.491 . S
H1097 C1098 0.950 . S
C1098 C1095 1.390 . S
C1098 H1097 0.950 . S
C1098 C1099 1.378 . S
C1099 C1098 1.378 . S
C1099 C1100 1.409 . S
C1100 C1096 1.387 . S
C1100 C1099 1.409 . S
C1100 H1102 0.951 . S
C1101 C1096 1.491 . S
C1101 C1103 1.382 . S
C1101 C1105 1.404 . S
H1102 C1100 0.951 . S
C1103 C1101 1.382 . S
C1103 C1104 1.390 . S
C1103 H1108 0.949 . S
C1104 C1103 1.390 . S
C1104 C1109 1.399 . S
C1105 C1101 1.404 . S
C1105 H1106 0.950 . S
C1105 C1107 1.375 . S
H1106 C1105 0.950 . S
C1107 C1105 1.375 . S
C1107 C1109 1.382 . S
C1107 H1111 0.950 . S
H1108 C1103 0.949 . S
C1109 C1104 1.399 . S
C1109 C1107 1.382 . S
C1109 H1110 0.952 . S
H1110 C1109 0.952 . S
H1111 C1107 0.950 . S
H1112 C1113 0.949 . S
C1113 H1112 0.949 . S
C1113 C1114 1.395 . S
C1113 C1115 1.391 . S
C1114 C1113 1.395 . S
C1114 C1117 1.390 . S
C1115 C1113 1.391 . S
C1115 C1119 1.387 . S
C1115 C1120 1.491 . S
H1116 C1117 0.950 . S
C1117 C1114 1.390 . S
C1117 H1116 0.950 . S
C1117 C1118 1.378 . S
C1118 C1117 1.378 . S
C1118 C1119 1.409 . S
C1119 C1115 1.387 . S
C1119 C1118 1.409 . S
C1119 H1121 0.951 . S
C1120 C1115 1.491 . S
C1120 C1122 1.382 . S
C1120 C1124 1.404 . S
H1121 C1119 0.951 . S
C1122 C1120 1.382 . S
C1122 C1123 1.390 . S
C1122 H1127 0.949 . S
C1123 C1122 1.390 . S
C1123 C1128 1.399 . S
C1124 C1120 1.404 . S
C1124 H1125 0.950 . S
C1124 C1126 1.375 . S
H1125 C1124 0.950 . S
C1126 C1124 1.375 . S
C1126 C1128 1.382 . S
C1126 H1130 0.950 . S
H1127 C1122 0.949 . S
C1128 C1123 1.399 . S
C1128 C1126 1.382 . S
C1128 H1129 0.952 . S
H1129 C1128 0.952 . S
H1130 C1126 0.950 . S
H1131 C1132 0.949 . S
C1132 H1131 0.949 . S
C1132 C1133 1.395 . S
C1132 C1134 1.391 1_545 S
C1133 C1132 1.395 . S
C1133 C1136 1.390 . S
C1134 C1132 1.391 1_565 S
C1134 C1138 1.387 . S
C1134 C1139 1.491 . S
H1135 C1136 0.950 . S
C1136 C1133 1.390 . S
C1136 H1135 0.950 . S
C1136 C1137 1.378 1_545 S
C1137 C1136 1.378 1_565 S
C1137 C1138 1.409 . S
C1138 C1134 1.387 . S
C1138 C1137 1.409 . S
C1138 H1140 0.951 . S
C1139 C1134 1.491 . S
C1139 C1141 1.382 . S
C1139 C1143 1.404 . S
H1140 C1138 0.951 . S
C1141 C1139 1.382 . S
C1141 C1142 1.390 . S
C1141 H1146 0.949 1_565 S
C1142 C1141 1.390 . S
C1142 C1147 1.399 . S
C1143 C1139 1.404 . S
C1143 H1144 0.950 . S
C1143 C1145 1.375 . S
H1144 C1143 0.950 . S
C1145 C1143 1.375 . S
C1145 C1147 1.382 . S
C1145 H1149 0.950 . S
H1146 C1141 0.949 1_545 S
C1147 C1142 1.399 . S
C1147 C1145 1.382 . S
C1147 H1148 0.952 . S
H1148 C1147 0.952 . S
H1149 C1145 0.950 . S
H1150 C1151 0.949 . S
C1151 H1150 0.949 . S
C1151 C1152 1.395 . S
C1151 C1153 1.391 1_565 S
C1152 C1151 1.395 . S
C1152 C1155 1.390 . S
C1153 C1151 1.391 1_545 S
C1153 C1157 1.387 . S
C1153 C1158 1.491 . S
H1154 C1155 0.950 . S
C1155 C1152 1.390 . S
C1155 H1154 0.950 . S
C1155 C1156 1.378 1_565 S
C1156 C1155 1.378 1_545 S
C1156 C1157 1.409 . S
C1157 C1153 1.387 . S
C1157 C1156 1.409 . S
C1157 H1159 0.951 . S
C1158 C1153 1.491 . S
C1158 C1160 1.382 . S
C1158 C1162 1.404 . S
H1159 C1157 0.951 . S
C1160 C1158 1.382 . S
C1160 C1161 1.390 . S
C1160 H1165 0.943 1_545 S
C1161 C1160 1.390 . S
C1161 C1166 1.399 . S
C1162 C1158 1.404 . S
C1162 H1163 0.950 . S
C1162 C1164 1.375 . S
H1163 C1162 0.950 . S
C1164 C1162 1.375 . S
C1164 C1166 1.382 . S
C1164 H1168 0.950 . S
H1165 C1160 0.943 1_565 S
C1166 C1161 1.399 . S
C1166 C1164 1.382 . S
C1166 H1167 0.952 . S
H1167 C1166 0.952 . S
H1168 C1164 0.950 . S
H1169 C1170 0.949 . S
C1170 H1169 0.949 . S
C1170 C1171 1.395 . S
C1170 C1172 1.391 . S
C1171 C1170 1.395 . S
C1171 C1174 1.390 . S
C1172 C1170 1.391 . S
C1172 C1176 1.387 . S
C1172 C1177 1.491 . S
H1173 C1174 0.950 . S
C1174 C1171 1.390 . S
C1174 H1173 0.950 . S
C1174 C1175 1.378 . S
C1175 C1174 1.378 . S
C1175 C1176 1.409 . S
C1176 C1172 1.387 . S
C1176 C1175 1.409 . S
C1176 H1178 0.951 . S
C1177 C1172 1.491 . S
C1177 C1179 1.382 . S
C1177 C1181 1.404 . S
H1178 C1176 0.951 . S
C1179 C1177 1.382 . S
C1179 C1180 1.390 . S
C1179 H1184 0.949 . S
C1180 C1179 1.390 . S
C1180 C1185 1.399 . S
C1181 C1177 1.404 . S
C1181 H1182 0.950 . S
C1181 C1183 1.375 . S
H1182 C1181 0.950 . S
C1183 C1181 1.375 . S
C1183 C1185 1.382 . S
C1183 H1187 0.950 . S
H1184 C1179 0.949 . S
C1185 C1180 1.399 . S
C1185 C1183 1.382 . S
C1185 H1186 0.952 . S
H1186 C1185 0.952 . S
H1187 C1183 0.950 . S
H1188 C1189 0.949 . S
C1189 H1188 0.949 . S
C1189 C1190 1.395 . S
C1189 C1191 1.391 . S
C1190 C1189 1.395 . S
C1190 C1193 1.390 . S
C1191 C1189 1.391 . S
C1191 C1195 1.387 . S
C1191 C1196 1.491 . S
H1192 C1193 0.950 . S
C1193 C1190 1.390 . S
C1193 H1192 0.950 . S
C1193 C1194 1.378 . S
C1194 C1193 1.378 . S
C1194 C1195 1.409 . S
C1195 C1191 1.387 . S
C1195 C1194 1.409 . S
C1195 H1197 0.951 . S
C1196 C1191 1.491 . S
C1196 C1198 1.382 . S
C1196 C1200 1.404 . S
H1197 C1195 0.951 . S
C1198 C1196 1.382 . S
C1198 C1199 1.390 . S
C1198 H1203 0.949 . S
C1199 C1198 1.390 . S
C1199 C1204 1.399 . S
C1200 C1196 1.404 . S
C1200 H1201 0.950 . S
C1200 C1202 1.375 . S
H1201 C1200 0.950 . S
C1202 C1200 1.375 . S
C1202 C1204 1.382 . S
C1202 H1206 0.950 . S
H1203 C1198 0.949 . S
C1204 C1199 1.399 . S
C1204 C1202 1.382 . S
C1204 H1205 0.952 . S
H1205 C1204 0.952 . S
H1206 C1202 0.950 . S
H1207 C1208 0.949 . S
C1208 H1207 0.949 . S
C1208 C1209 1.395 . S
C1208 C1210 1.391 1_554 S
C1209 C1208 1.395 . S
C1209 C1212 1.390 . S
C1210 C1208 1.391 1_556 S
C1210 C1214 1.387 . S
C1210 C1215 1.491 . S
H1211 C1212 0.950 . S
C1212 C1209 1.390 . S
C1212 H1211 0.950 . S
C1212 C1213 1.378 1_554 S
C1213 C1212 1.378 1_556 S
C1213 C1214 1.409 . S
C1214 C1210 1.387 . S
C1214 C1213 1.409 . S
C1214 H1216 0.951 . S
C1215 C1210 1.491 . S
C1215 C1217 1.382 . S
C1215 C1219 1.404 . S
H1216 C1214 0.951 . S
C1217 C1215 1.382 . S
C1217 C1218 1.390 . S
C1217 H1222 0.949 1_556 S
C1218 C1217 1.390 . S
C1218 C1223 1.399 . S
C1219 C1215 1.404 . S
C1219 H1220 0.950 . S
C1219 C1221 1.375 . S
H1220 C1219 0.950 . S
C1221 C1219 1.375 . S
C1221 C1223 1.382 . S
C1221 H1225 0.950 . S
H1222 C1217 0.949 1_554 S
C1223 C1218 1.399 . S
C1223 C1221 1.382 . S
C1223 H1224 0.952 . S
H1224 C1223 0.952 . S
H1225 C1221 0.950 . S
H1226 C1227 0.949 . S
C1227 H1226 0.949 . S
C1227 C1228 1.395 . S
C1227 C1229 1.391 . S
C1228 C1227 1.395 . S
C1228 C1231 1.390 . S
C1229 C1227 1.391 . S
C1229 C1233 1.387 . S
C1229 C1234 1.491 . S
H1230 C1231 0.950 . S
C1231 C1228 1.390 . S
C1231 H1230 0.950 . S
C1231 C1232 1.378 . S
C1232 C1231 1.378 . S
C1232 C1233 1.409 . S
C1233 C1229 1.387 . S
C1233 C1232 1.409 . S
C1233 H1235 0.951 . S
C1234 C1229 1.491 . S
C1234 C1236 1.382 . S
C1234 C1238 1.404 . S
H1235 C1233 0.951 . S
C1236 C1234 1.382 . S
C1236 C1237 1.390 . S
C1236 H1241 0.949 . S
C1237 C1236 1.390 . S
C1237 C1242 1.399 . S
C1238 C1234 1.404 . S
C1238 H1239 0.950 . S
C1238 C1240 1.375 . S
H1239 C1238 0.950 . S
C1240 C1238 1.375 . S
C1240 C1242 1.382 . S
C1240 H1244 0.950 . S
H1241 C1236 0.949 . S
C1242 C1237 1.399 . S
C1242 C1240 1.382 . S
C1242 H1243 0.952 . S
H1243 C1242 0.952 . S
H1244 C1240 0.950 . S
H1245 C1246 0.949 . S
C1246 H1245 0.949 . S
C1246 C1247 1.395 . S
C1246 C1248 1.391 1_556 S
C1247 C1246 1.395 . S
C1247 C1250 1.390 . S
C1248 C1246 1.391 1_554 S
C1248 C1252 1.387 . S
C1248 C1253 1.491 . S
H1249 C1250 0.950 . S
C1250 C1247 1.390 . S
C1250 H1249 0.950 . S
C1250 C1251 1.378 1_556 S
C1251 C1250 1.378 1_554 S
C1251 C1252 1.409 . S
C1252 C1248 1.387 . S
C1252 C1251 1.409 . S
C1252 H1254 0.951 . S
C1253 C1248 1.491 . S
C1253 C1255 1.382 . S
C1253 C1257 1.404 . S
H1254 C1252 0.951 . S
C1255 C1253 1.382 . S
C1255 C1256 1.390 . S
C1255 H1260 0.949 . S
C1256 C1255 1.390 . S
C1256 C1261 1.399 . S
C1257 C1253 1.404 . S
C1257 H1258 0.950 . S
C1257 C1259 1.375 . S
H1258 C1257 0.950 . S
C1259 C1257 1.375 . S
C1259 C1261 1.382 . S
C1259 H1263 0.950 . S
H1260 C1255 0.949 . S
C1261 C1256 1.399 . S
C1261 C1259 1.382 . S
C1261 H1262 0.952 . S
H1262 C1261 0.952 . S
H1263 C1259 0.950 . S
H1264 C1265 0.949 . S
C1265 H1264 0.949 . S
C1265 C1266 1.395 . S
C1265 C1267 1.391 . S
C1266 C1265 1.395 . S
C1266 C1269 1.390 . S
C1267 C1265 1.391 . S
C1267 C1271 1.387 . S
C1267 C1272 1.491 . S
H1268 C1269 0.950 . S
C1269 C1266 1.390 . S
C1269 H1268 0.950 . S
C1269 C1270 1.378 . S
C1270 C1269 1.378 . S
C1270 C1271 1.409 . S
C1271 C1267 1.387 . S
C1271 C1270 1.409 . S
C1271 H1273 0.951 . S
C1272 C1267 1.491 . S
C1272 C1274 1.382 . S
C1272 C1276 1.404 . S
H1273 C1271 0.951 . S
C1274 C1272 1.382 . S
C1274 C1275 1.390 . S
C1274 H1279 0.949 . S
C1275 C1274 1.390 . S
C1275 C1280 1.399 . S
C1276 C1272 1.404 . S
C1276 H1277 0.950 . S
C1276 C1278 1.375 . S
H1277 C1276 0.950 . S
C1278 C1276 1.375 . S
C1278 C1280 1.382 . S
C1278 H1282 0.950 . S
H1279 C1274 0.949 . S
C1280 C1275 1.399 . S
C1280 C1278 1.382 . S
C1280 H1281 0.952 . S
H1281 C1280 0.952 . S
H1282 C1278 0.950 . S
H1283 C1284 0.949 . S
C1284 H1283 0.949 . S
C1284 C1285 1.395 . S
C1284 C1286 1.391 1_655 S
C1285 C1284 1.395 . S
C1285 C1288 1.390 . S
C1286 C1284 1.391 1_455 S
C1286 C1290 1.387 . S
C1286 C1291 1.491 . S
H1287 C1288 0.950 . S
C1288 C1285 1.390 . S
C1288 H1287 0.950 . S
C1288 C1289 1.378 1_655 S
C1289 C1288 1.378 1_455 S
C1289 C1290 1.409 . S
C1290 C1286 1.387 . S
C1290 C1289 1.409 . S
C1290 H1292 0.951 . S
C1291 C1286 1.491 . S
C1291 C1293 1.382 . S
C1291 C1295 1.404 . S
H1292 C1290 0.951 . S
C1293 C1291 1.382 . S
C1293 C1294 1.390 . S
C1293 H1298 0.949 . S
C1294 C1293 1.390 . S
C1294 C1299 1.399 . S
C1295 C1291 1.404 . S
C1295 H1296 0.950 . S
C1295 C1297 1.375 . S
H1296 C1295 0.950 . S
C1297 C1295 1.375 . S
C1297 C1299 1.382 . S
C1297 H1301 0.950 . S
H1298 C1293 0.949 . S
C1299 C1294 1.399 . S
C1299 C1297 1.382 . S
C1299 H1300 0.952 . S
H1300 C1299 0.952 . S
H1301 C1297 0.950 . S
H1302 C1303 0.949 . S
C1303 H1302 0.949 . S
C1303 C1304 1.395 . S
C1303 C1305 1.391 1_455 S
C1304 C1303 1.395 . S
C1304 C1307 1.390 . S
C1305 C1303 1.391 1_655 S
C1305 C1309 1.387 . S
C1305 C1310 1.491 . S
H1306 C1307 0.950 . S
C1307 C1304 1.390 . S
C1307 H1306 0.950 . S
C1307 C1308 1.378 1_455 S
C1308 C1307 1.378 1_655 S
C1308 C1309 1.409 . S
C1309 C1305 1.387 . S
C1309 C1308 1.409 . S
C1309 H1311 0.951 . S
C1310 C1305 1.491 . S
C1310 C1312 1.382 . S
C1310 C1314 1.404 . S
H1311 C1309 0.951 . S
C1312 C1310 1.382 . S
C1312 C1313 1.390 . S
C1312 H1317 0.949 1_655 S
C1313 C1312 1.390 . S
C1313 C1318 1.399 . S
C1314 C1310 1.404 . S
C1314 H1315 0.950 . S
C1314 C1316 1.375 . S
H1315 C1314 0.950 . S
C1316 C1314 1.375 . S
C1316 C1318 1.382 . S
C1316 H1320 0.950 . S
H1317 C1312 0.949 1_455 S
C1318 C1313 1.399 . S
C1318 C1316 1.382 . S
C1318 H1319 0.952 . S
H1319 C1318 0.952 . S
H1320 C1316 0.950 . S
H1321 C1322 0.949 . S
C1322 H1321 0.949 . S
C1322 C1323 1.395 . S
C1322 C1324 1.391 . S
C1323 C1322 1.395 . S
C1323 C1326 1.390 . S
C1324 C1322 1.391 . S
C1324 C1328 1.387 . S
C1324 C1329 1.491 . S
H1325 C1326 0.950 . S
C1326 C1323 1.390 . S
C1326 H1325 0.950 . S
C1326 C1327 1.378 . S
C1327 C1326 1.378 . S
C1327 C1328 1.409 . S
C1328 C1324 1.387 . S
C1328 C1327 1.409 . S
C1328 H1330 0.951 . S
C1329 C1324 1.491 . S
C1329 C1331 1.382 . S
C1329 C1333 1.404 . S
H1330 C1328 0.951 . S
C1331 C1329 1.382 . S
C1331 C1332 1.390 . S
C1331 H1336 0.949 . S
C1332 C1331 1.390 . S
C1332 C1337 1.399 . S
C1333 C1329 1.404 . S
C1333 H1334 0.950 . S
C1333 C1335 1.375 . S
H1334 C1333 0.950 . S
C1335 C1333 1.375 . S
C1335 C1337 1.382 . S
C1335 H1339 0.950 . S
H1336 C1331 0.949 . S
C1337 C1332 1.399 . S
C1337 C1335 1.382 . S
C1337 H1338 0.952 . S
H1338 C1337 0.952 . S
H1339 C1335 0.950 . S
H1340 C1341 0.949 . S
C1341 H1340 0.949 . S
C1341 C1342 1.395 . S
C1341 C1343 1.391 . S
C1342 C1341 1.395 . S
C1342 C1345 1.390 . S
C1343 C1341 1.391 . S
C1343 C1347 1.387 . S
C1343 C1348 1.491 . S
H1344 C1345 0.950 . S
C1345 C1342 1.390 . S
C1345 H1344 0.950 . S
C1345 C1346 1.378 . S
C1346 C1345 1.378 . S
C1346 C1347 1.409 . S
C1347 C1343 1.387 . S
C1347 C1346 1.409 . S
C1347 H1349 0.951 . S
C1348 C1343 1.491 . S
C1348 C1350 1.382 . S
C1348 C1352 1.404 . S
H1349 C1347 0.951 . S
C1350 C1348 1.382 . S
C1350 C1351 1.390 . S
C1350 H1355 0.949 . S
C1351 C1350 1.390 . S
C1351 C1356 1.399 . S
C1352 C1348 1.404 . S
C1352 H1353 0.950 . S
C1352 C1354 1.375 . S
H1353 C1352 0.950 . S
C1354 C1352 1.375 . S
C1354 C1356 1.382 . S
C1354 H1358 0.950 . S
H1355 C1350 0.949 . S
C1356 C1351 1.399 . S
C1356 C1354 1.382 . S
C1356 H1357 0.952 . S
H1357 C1356 0.952 . S
H1358 C1354 0.950 . S
H1359 C1360 0.949 . S
C1360 H1359 0.949 . S
C1360 C1361 1.395 . S
C1360 C1362 1.391 1_565 S
C1361 C1360 1.395 . S
C1361 C1364 1.390 . S
C1362 C1360 1.391 1_545 S
C1362 C1366 1.387 . S
C1362 C1367 1.491 . S
H1363 C1364 0.950 . S
C1364 C1361 1.390 . S
C1364 H1363 0.950 . S
C1364 C1365 1.378 1_565 S
C1365 C1364 1.378 1_545 S
C1365 C1366 1.409 . S
C1366 C1362 1.387 . S
C1366 C1365 1.409 . S
C1366 H1368 0.951 . S
C1367 C1362 1.491 . S
C1367 C1369 1.382 . S
C1367 C1371 1.404 . S
H1368 C1366 0.951 . S
C1369 C1367 1.382 . S
C1369 C1370 1.390 . S
C1369 H1374 0.949 . S
C1370 C1369 1.390 . S
C1370 C1375 1.399 . S
C1371 C1367 1.404 . S
C1371 H1372 0.950 . S
C1371 C1373 1.375 . S
H1372 C1371 0.950 . S
C1373 C1371 1.375 . S
C1373 C1375 1.382 . S
C1373 H1377 0.950 . S
H1374 C1369 0.949 . S
C1375 C1370 1.399 . S
C1375 C1373 1.382 . S
C1375 H1376 0.952 . S
H1376 C1375 0.952 . S
H1377 C1373 0.950 . S
H1378 C1379 0.949 . S
C1379 H1378 0.949 . S
C1379 C1380 1.395 . S
C1379 C1381 1.391 1_545 S
C1380 C1379 1.395 . S
C1380 C1383 1.390 . S
C1381 C1379 1.391 1_565 S
C1381 C1385 1.387 . S
C1381 C1386 1.491 . S
H1382 C1383 0.950 . S
C1383 C1380 1.390 . S
C1383 H1382 0.950 . S
C1383 C1384 1.378 1_545 S
C1384 C1383 1.378 1_565 S
C1384 C1385 1.409 . S
C1385 C1381 1.387 . S
C1385 C1384 1.409 . S
C1385 H1387 0.951 . S
C1386 C1381 1.491 . S
C1386 C1388 1.382 . S
C1386 C1390 1.404 . S
H1387 C1385 0.951 . S
C1388 C1386 1.382 . S
C1388 C1389 1.390 . S
C1388 H1393 0.949 1_565 S
C1389 C1388 1.390 . S
C1389 C1394 1.399 . S
C1390 C1386 1.404 . S
C1390 H1391 0.950 . S
C1390 C1392 1.375 . S
H1391 C1390 0.950 . S
C1392 C1390 1.375 . S
C1392 C1394 1.382 . S
C1392 H1396 0.950 . S
H1393 C1388 0.949 1_545 S
C1394 C1389 1.399 . S
C1394 C1392 1.382 . S
C1394 H1395 0.952 . S
H1395 C1394 0.952 . S
H1396 C1392 0.950 . S
H1397 C1398 0.949 . S
C1398 H1397 0.949 . S
C1398 C1399 1.395 . S
C1398 C1400 1.391 . S
C1399 C1398 1.395 . S
C1399 C1402 1.390 . S
C1400 C1398 1.391 . S
C1400 C1404 1.387 . S
C1400 C1405 1.491 . S
H1401 C1402 0.950 . S
C1402 C1399 1.390 . S
C1402 H1401 0.950 . S
C1402 C1403 1.378 . S
C1403 C1402 1.378 . S
C1403 C1404 1.409 . S
C1404 C1400 1.387 . S
C1404 C1403 1.409 . S
C1404 H1406 0.951 . S
C1405 C1400 1.491 . S
C1405 C1407 1.382 . S
C1405 C1409 1.404 . S
H1406 C1404 0.951 . S
C1407 C1405 1.382 . S
C1407 C1408 1.390 . S
C1407 H1412 0.949 . S
C1408 C1407 1.390 . S
C1408 C1413 1.399 . S
C1409 C1405 1.404 . S
C1409 H1410 0.950 . S
C1409 C1411 1.375 . S
H1410 C1409 0.950 . S
C1411 C1409 1.375 . S
C1411 C1413 1.382 . S
C1411 H1415 0.950 . S
H1412 C1407 0.949 . S
C1413 C1408 1.399 . S
C1413 C1411 1.382 . S
C1413 H1414 0.952 . S
H1414 C1413 0.952 . S
H1415 C1411 0.950 . S
H1416 C1422 0.930 . S
H1417 C1426 0.930 . S
H1418 C1431 0.929 . S
H1419 C1429 0.929 1_655 S
H1420 C1424 0.929 . S
H1421 C1430 0.929 . S
C1422 H1416 0.930 . S
C1422 C1423 1.367 . S
C1422 C1430 1.378 . S
C1423 C1422 1.367 . S
C1423 C1431 1.433 . S
C1424 H1420 0.929 . S
C1424 C1426 1.378 . S
C1424 C1428 1.350 . S
C1425 C1428 1.463 . S
C1425 C1430 1.350 . S
C1425 N1433 1.427 . S
C1426 H1417 0.930 . S
C1426 C1424 1.378 . S
C1426 C1427 1.367 . S
C1427 C1426 1.367 . S
C1427 C1429 1.433 . S
C1428 C1424 1.350 . S
C1428 C1425 1.463 . S
C1428 N1432 1.427 . S
C1429 H1419 0.929 1_455 S
C1429 C1427 1.433 . S
C1429 N1432 1.384 . S
C1430 H1421 0.929 . S
C1430 C1422 1.378 . S
C1430 C1425 1.350 . S
C1431 H1418 0.929 . S
C1431 C1423 1.433 . S
C1431 N1433 1.384 . S
N1432 C1428 1.427 . S
N1432 C1429 1.384 . S
N1433 C1425 1.427 . S
N1433 C1431 1.384 . S
H1434 C1440 0.930 . S
H1435 C1444 0.930 . S
H1436 C1449 0.929 . S
H1437 C1447 0.929 . S
H1438 C1442 0.929 . S
H1439 C1448 0.929 . S
C1440 H1434 0.930 . S
C1440 C1441 1.367 . S
C1440 C1448 1.378 . S
C1441 C1440 1.367 . S
C1441 C1449 1.433 . S
C1442 H1438 0.929 . S
C1442 C1444 1.378 . S
C1442 C1446 1.350 . S
C1443 C1446 1.463 . S
C1443 C1448 1.350 . S
C1443 N1451 1.427 . S
C1444 H1435 0.930 . S
C1444 C1442 1.378 . S
C1444 C1445 1.367 . S
C1445 C1444 1.367 . S
C1445 C1447 1.433 . S
C1446 C1442 1.350 . S
C1446 C1443 1.463 . S
C1446 N1450 1.427 . S
C1447 H1437 0.929 . S
C1447 C1445 1.433 . S
C1447 N1450 1.384 . S
C1448 H1439 0.929 . S
C1448 C1440 1.378 . S
C1448 C1443 1.350 . S
C1449 H1436 0.929 . S
C1449 C1441 1.433 . S
C1449 N1451 1.384 . S
N1450 C1446 1.427 . S
N1450 C1447 1.384 . S
N1451 C1443 1.427 . S
N1451 C1449 1.384 . S
H1452 C1458 0.930 . S
H1453 C1462 0.930 . S
H1454 C1467 0.929 . S
H1455 C1465 0.929 1_545 S
H1456 C1460 0.929 . S
H1457 C1466 0.929 . S
C1458 H1452 0.930 . S
C1458 C1459 1.367 1_545 S
C1458 C1466 1.378 . S
C1459 C1458 1.367 1_565 S
C1459 C1467 1.433 . S
C1460 H1456 0.929 . S
C1460 C1462 1.378 . S
C1460 C1464 1.350 . S
C1461 C1464 1.463 . S
C1461 C1466 1.350 1_565 S
C1461 N1469 1.427 . S
C1462 H1453 0.930 . S
C1462 C1460 1.378 . S
C1462 C1463 1.367 . S
C1463 C1462 1.367 . S
C1463 C1465 1.433 . S
C1464 C1460 1.350 . S
C1464 C1461 1.463 . S
C1464 N1468 1.448 . S
C1465 H1455 0.929 1_565 S
C1465 C1463 1.433 . S
C1465 N1468 1.384 . S
C1466 H1457 0.929 . S
C1466 C1458 1.378 . S
C1466 C1461 1.350 1_545 S
C1467 H1454 0.929 . S
C1467 C1459 1.433 . S
C1467 N1469 1.384 . S
N1468 C1464 1.448 . S
N1468 C1465 1.384 . S
N1469 C1461 1.427 . S
N1469 C1467 1.384 . S
H1470 C1476 0.912 1_655 S
H1471 C1480 0.930 . S
H1472 C1485 0.929 1_565 S
H1473 C1483 0.929 . S
H1474 C1478 0.968 . S
H1475 C1484 0.929 . S
C1476 H1470 0.912 1_455 S
C1476 C1477 1.343 1_455 S
C1476 C1484 1.421 . S
C1477 C1476 1.343 1_655 S
C1477 C1485 1.433 . S
C1478 H1474 0.968 . S
C1478 C1480 1.387 . S
C1478 C1482 1.302 1_565 S
C1479 C1482 1.463 . S
C1479 C1484 1.350 . S
C1479 N1487 1.427 . S
C1480 H1471 0.930 . S
C1480 C1478 1.387 . S
C1480 C1481 1.367 1_565 S
C1481 C1480 1.367 1_545 S
C1481 C1483 1.433 . S
C1482 C1478 1.302 1_545 S
C1482 C1479 1.463 . S
C1482 N1486 1.427 . S
C1483 H1473 0.929 . S
C1483 C1481 1.433 . S
C1483 N1486 1.384 . S
C1484 H1475 0.929 . S
C1484 C1476 1.421 . S
C1484 C1479 1.350 . S
C1485 H1472 0.929 1_545 S
C1485 C1477 1.433 . S
C1485 N1487 1.384 1_655 S
N1486 C1482 1.427 . S
N1486 C1483 1.384 . S
N1487 C1479 1.427 . S
N1487 C1485 1.384 1_455 S
H1488 C1494 0.930 . S
H1489 C1498 0.930 1_565 S
H1490 C1503 0.929 . S
H1491 C1501 0.929 . S
H1492 C1496 0.929 . S
H1493 C1502 0.929 . S
C1494 H1488 0.930 . S
C1494 C1495 1.367 . S
C1494 C1502 1.378 . S
C1495 C1494 1.367 . S
C1495 C1503 1.433 . S
C1496 H1492 0.929 . S
C1496 C1498 1.378 . S
C1496 C1500 1.350 . S
C1497 C1500 1.463 . S
C1497 C1502 1.350 . S
C1497 N1505 1.427 . S
C1498 H1489 0.930 1_545 S
C1498 C1496 1.378 . S
C1498 C1499 1.367 . S
C1499 C1498 1.367 . S
C1499 C1501 1.433 . S
C1500 C1496 1.350 . S
C1500 C1497 1.463 . S
C1500 N1504 1.427 . S
C1501 H1491 0.929 . S
C1501 C1499 1.433 . S
C1501 N1504 1.384 . S
C1502 H1493 0.929 . S
C1502 C1494 1.378 . S
C1502 C1497 1.350 . S
C1503 H1490 0.929 . S
C1503 C1495 1.433 . S
C1503 N1505 1.384 . S
N1504 C1500 1.427 . S
N1504 C1501 1.384 . S
N1505 C1497 1.427 . S
N1505 C1503 1.384 . S
H1506 C1512 0.930 1_565 S
H1507 C1516 0.888 1_556 S
H1508 C1521 0.929 1_556 S
H1509 C1519 0.929 . S
H1510 C1514 0.929 1_556 S
H1511 C1520 0.929 . S
C1512 H1506 0.930 1_545 S
C1512 C1513 1.367 1_545 S
C1512 C1520 1.378 . S
C1513 C1512 1.367 1_565 S
C1513 C1521 1.433 . S
C1514 H1510 0.929 1_554 S
C1514 C1516 1.389 . S
C1514 C1518 1.350 . S
C1515 C1518 1.463 . S
C1515 C1520 1.350 . S
C1515 N1523 1.427 . S
C1516 H1507 0.888 1_554 S
C1516 C1514 1.389 . S
C1516 C1517 1.401 . S
C1517 C1516 1.401 . S
C1517 C1519 1.433 . S
C1518 C1514 1.350 . S
C1518 C1515 1.463 . S
C1518 N1522 1.427 . S
C1519 H1509 0.929 . S
C1519 C1517 1.433 . S
C1519 N1522 1.384 . S
C1520 H1511 0.929 . S
C1520 C1512 1.378 . S
C1520 C1515 1.350 . S
C1521 H1508 0.929 1_554 S
C1521 C1513 1.433 . S
C1521 N1523 1.384 1_565 S
N1522 C1518 1.427 . S
N1522 C1519 1.384 . S
N1523 C1515 1.427 . S
N1523 C1521 1.384 1_545 S
H1524 C1530 0.930 . S
H1525 C1534 0.930 . S
H1526 C1539 0.929 . S
H1527 C1537 0.929 . S
H1528 C1532 0.929 . S
H1529 C1538 0.929 . S
C1530 H1524 0.930 . S
C1530 C1531 1.367 . S
C1530 C1538 1.378 . S
C1531 C1530 1.367 . S
C1531 C1539 1.433 . S
C1532 H1528 0.929 . S
C1532 C1534 1.378 . S
C1532 C1536 1.350 . S
C1533 C1536 1.463 . S
C1533 C1538 1.350 . S
C1533 N1541 1.427 . S
C1534 H1525 0.930 . S
C1534 C1532 1.378 . S
C1534 C1535 1.367 . S
C1535 C1534 1.367 . S
C1535 C1537 1.433 . S
C1536 C1532 1.350 . S
C1536 C1533 1.463 . S
C1536 N1540 1.427 . S
C1537 H1527 0.929 . S
C1537 C1535 1.433 . S
C1537 N1540 1.384 . S
C1538 H1529 0.929 . S
C1538 C1530 1.378 . S
C1538 C1533 1.350 . S
C1539 H1526 0.929 . S
C1539 C1531 1.433 . S
C1539 N1541 1.384 . S
N1540 C1536 1.427 . S
N1540 C1537 1.384 . S
N1541 C1533 1.427 . S
N1541 C1539 1.384 . S
H1542 C1548 0.930 1_554 S
H1543 C1552 0.930 . S
H1544 C1557 0.929 . S
H1545 C1555 0.929 . S
H1546 C1550 0.929 . S
H1547 C1556 0.929 1_554 S
C1548 H1542 0.930 1_556 S
C1548 C1549 1.367 . S
C1548 C1556 1.378 . S
C1549 C1548 1.367 . S
C1549 C1557 1.433 . S
C1550 H1546 0.929 . S
C1550 C1552 1.378 . S
C1550 C1554 1.350 . S
C1551 C1554 1.463 . S
C1551 C1556 1.350 . S
C1551 N1559 1.427 . S
C1552 H1543 0.930 . S
C1552 C1550 1.378 . S
C1552 C1553 1.367 . S
C1553 C1552 1.367 . S
C1553 C1555 1.433 . S
C1554 C1550 1.350 . S
C1554 C1551 1.463 . S
C1554 N1558 1.427 . S
C1555 H1545 0.929 . S
C1555 C1553 1.433 . S
C1555 N1558 1.384 . S
C1556 H1547 0.929 1_556 S
C1556 C1548 1.378 . S
C1556 C1551 1.350 . S
C1557 H1544 0.929 . S
C1557 C1549 1.433 . S
C1557 N1559 1.384 . S
N1558 C1554 1.427 . S
N1558 C1555 1.384 . S
N1559 C1551 1.427 . S
N1559 C1557 1.384 . S
H1560 C1566 0.930 . S
H1561 C1570 0.930 . S
H1562 C1575 0.929 . S
H1563 C1573 0.929 . S
H1564 C1568 0.929 . S
H1565 C1574 0.929 . S
C1566 H1560 0.930 . S
C1566 C1567 1.367 . S
C1566 C1574 1.378 . S
C1567 C1566 1.367 . S
C1567 C1575 1.433 . S
C1568 H1564 0.929 . S
C1568 C1570 1.378 . S
C1568 C1572 1.350 . S
C1569 C1572 1.463 . S
C1569 C1574 1.350 . S
C1569 N1577 1.427 . S
C1570 H1561 0.930 . S
C1570 C1568 1.378 . S
C1570 C1571 1.367 . S
C1571 C1570 1.367 . S
C1571 C1573 1.433 . S
C1572 C1568 1.350 . S
C1572 C1569 1.463 . S
C1572 N1576 1.427 . S
C1573 H1563 0.929 . S
C1573 C1571 1.433 . S
C1573 N1576 1.384 . S
C1574 H1565 0.929 . S
C1574 C1566 1.378 . S
C1574 C1569 1.350 . S
C1575 H1562 0.929 . S
C1575 C1567 1.433 . S
C1575 N1577 1.384 . S
N1576 C1572 1.427 . S
N1576 C1573 1.384 . S
N1577 C1569 1.427 . S
N1577 C1575 1.384 . S
H1578 C1584 0.921 1_556 S
H1579 C1588 0.930 . S
H1580 C1593 0.929 . S
H1581 C1591 0.929 . S
H1582 C1586 0.929 . S
H1583 C1592 0.929 . S
C1584 H1578 0.921 1_554 S
C1584 C1585 1.355 1_554 S
C1584 C1592 1.399 . S
C1585 C1584 1.355 1_556 S
C1585 C1593 1.433 . S
C1586 H1582 0.929 . S
C1586 C1588 1.378 . S
C1586 C1590 1.350 . S
C1587 C1590 1.463 . S
C1587 C1592 1.350 . S
C1587 N1595 1.427 . S
C1588 H1579 0.930 . S
C1588 C1586 1.378 . S
C1588 C1589 1.367 . S
C1589 C1588 1.367 . S
C1589 C1591 1.433 . S
C1590 C1586 1.350 . S
C1590 C1587 1.463 . S
C1590 N1594 1.427 . S
C1591 H1581 0.929 . S
C1591 C1589 1.433 . S
C1591 N1594 1.384 . S
C1592 H1583 0.929 . S
C1592 C1584 1.399 . S
C1592 C1587 1.350 . S
C1593 H1580 0.929 . S
C1593 C1585 1.433 . S
C1593 N1595 1.384 1_556 S
N1594 C1590 1.427 . S
N1594 C1591 1.384 . S
N1595 C1587 1.427 . S
N1595 C1593 1.384 1_554 S
H1596 C1602 0.930 . S
H1597 C1606 0.930 . S
H1598 C1611 0.929 . S
H1599 C1609 0.929 . S
H1600 C1604 0.929 . S
H1601 C1610 0.929 . S
C1602 H1596 0.930 . S
C1602 C1603 1.367 . S
C1602 C1610 1.378 . S
C1603 C1602 1.367 . S
C1603 C1611 1.433 . S
C1604 H1600 0.929 . S
C1604 C1606 1.378 . S
C1604 C1608 1.350 . S
C1605 C1608 1.463 . S
C1605 C1610 1.350 . S
C1605 N1613 1.427 . S
C1606 H1597 0.930 . S
C1606 C1604 1.378 . S
C1606 C1607 1.367 . S
C1607 C1606 1.367 . S
C1607 C1609 1.433 . S
C1608 C1604 1.350 . S
C1608 C1605 1.463 . S
C1608 N1612 1.427 . S
C1609 H1599 0.929 . S
C1609 C1607 1.433 . S
C1609 N1612 1.384 . S
C1610 H1601 0.929 . S
C1610 C1602 1.378 . S
C1610 C1605 1.350 . S
C1611 H1598 0.929 . S
C1611 C1603 1.433 . S
C1611 N1613 1.384 . S
N1612 C1608 1.427 . S
N1612 C1609 1.384 . S
N1613 C1605 1.427 . S
N1613 C1611 1.384 . S
H1614 C1620 0.930 1_455 S
H1615 C1624 0.930 . S
H1616 C1629 0.929 . S
H1617 C1627 0.929 . S
H1618 C1622 0.929 . S
H1619 C1628 0.937 . S
C1620 H1614 0.930 1_655 S
C1620 C1621 1.367 . S
C1620 C1628 1.378 . S
C1621 C1620 1.367 . S
C1621 C1629 1.433 . S
C1622 H1618 0.929 . S
C1622 C1624 1.378 . S
C1622 C1626 1.350 . S
C1623 C1626 1.463 . S
C1623 C1628 1.350 . S
C1623 N1631 1.427 . S
C1624 H1615 0.930 . S
C1624 C1622 1.378 . S
C1624 C1625 1.367 . S
C1625 C1624 1.367 . S
C1625 C1627 1.433 . S
C1626 C1622 1.350 . S
C1626 C1623 1.463 . S
C1626 N1630 1.427 . S
C1627 H1617 0.929 . S
C1627 C1625 1.433 . S
C1627 N1630 1.384 . S
C1628 H1619 0.937 . S
C1628 C1620 1.378 . S
C1628 C1623 1.350 . S
C1629 H1616 0.929 . S
C1629 C1621 1.433 . S
C1629 N1631 1.384 . S
N1630 C1626 1.427 . S
N1630 C1627 1.384 . S
N1631 C1623 1.427 . S
N1631 C1629 1.384 . S
H1632 C1638 0.930 . S
H1633 C1642 0.930 . S
H1634 C1647 0.929 . S
H1635 C1645 0.949 . S
H1636 C1640 0.929 . S
H1637 C1646 0.929 . S
C1638 H1632 0.930 . S
C1638 C1639 1.367 . S
C1638 C1646 1.378 . S
C1639 C1638 1.367 . S
C1639 C1647 1.433 . S
C1640 H1636 0.929 . S
C1640 C1642 1.378 . S
C1640 C1644 1.350 . S
C1641 C1644 1.463 . S
C1641 C1646 1.350 . S
C1641 N1649 1.427 . S
C1642 H1633 0.930 . S
C1642 C1640 1.378 . S
C1642 C1643 1.367 . S
C1643 C1642 1.367 . S
C1643 C1645 1.433 . S
C1644 C1640 1.350 . S
C1644 C1641 1.463 . S
C1644 N1648 1.427 . S
C1645 H1635 0.949 . S
C1645 C1643 1.433 . S
C1645 N1648 1.384 . S
C1646 H1637 0.929 . S
C1646 C1638 1.378 . S
C1646 C1641 1.350 . S
C1647 H1634 0.929 . S
C1647 C1639 1.433 . S
C1647 N1649 1.384 . S
N1648 C1644 1.427 . S
N1648 C1645 1.384 . S
N1649 C1641 1.427 . S
N1649 C1647 1.384 . S
H1650 C1656 0.930 . S
H1651 C1660 0.930 . S
H1652 C1665 0.929 . S
H1653 C1663 0.929 . S
H1654 C1658 0.929 . S
H1655 C1664 0.929 . S
C1656 H1650 0.930 . S
C1656 C1657 1.367 . S
C1656 C1664 1.378 . S
C1657 C1656 1.367 . S
C1657 C1665 1.433 . S
C1658 H1654 0.929 . S
C1658 C1660 1.378 . S
C1658 C1662 1.350 . S
C1659 C1662 1.463 . S
C1659 C1664 1.350 . S
C1659 N1667 1.427 . S
C1660 H1651 0.930 . S
C1660 C1658 1.378 . S
C1660 C1661 1.367 . S
C1661 C1660 1.367 . S
C1661 C1663 1.433 . S
C1662 C1658 1.350 . S
C1662 C1659 1.463 . S
C1662 N1666 1.427 . S
C1663 H1653 0.929 . S
C1663 C1661 1.433 . S
C1663 N1666 1.384 . S
C1664 H1655 0.929 . S
C1664 C1656 1.378 . S
C1664 C1659 1.350 . S
C1665 H1652 0.929 . S
C1665 C1657 1.433 . S
C1665 N1667 1.384 . S
N1666 C1662 1.427 . S
N1666 C1663 1.384 . S
N1667 C1659 1.427 . S
N1667 C1665 1.384 . S
H1668 C1674 0.930 . S
H1669 C1678 0.919 1_565 S
H1670 C1683 0.929 . S
H1671 C1681 0.929 . S
H1672 C1676 0.929 1_565 S
H1673 C1682 0.929 . S
C1674 H1668 0.930 . S
C1674 C1675 1.367 . S
C1674 C1682 1.378 . S
C1675 C1674 1.367 . S
C1675 C1683 1.433 1_545 S
C1676 H1672 0.929 1_545 S
C1676 C1678 1.378 . S
C1676 C1680 1.350 . S
C1677 C1680 1.463 . S
C1677 C1682 1.350 . S
C1677 N1685 1.428 . S
C1678 H1669 0.919 1_545 S
C1678 C1676 1.378 . S
C1678 C1679 1.367 . S
C1679 C1678 1.367 . S
C1679 C1681 1.433 . S
C1680 C1676 1.350 . S
C1680 C1677 1.463 . S
C1680 N1684 1.427 . S
C1681 H1671 0.929 . S
C1681 C1679 1.433 . S
C1681 N1684 1.384 . S
C1682 H1673 0.929 . S
C1682 C1674 1.378 . S
C1682 C1677 1.350 . S
C1683 H1670 0.929 . S
C1683 C1675 1.433 1_565 S
C1683 N1685 1.384 1_565 S
N1684 C1680 1.427 . S
N1684 C1681 1.384 . S
N1685 C1677 1.428 . S
N1685 C1683 1.384 1_545 S
H1686 C1692 0.930 1_545 S
H1687 C1696 0.930 . S
H1688 C1701 0.929 1_455 S
H1689 C1699 0.929 . S
H1690 C1694 0.929 . S
H1691 C1700 0.929 1_545 S
C1692 H1686 0.930 1_565 S
C1692 C1693 1.367 . S
C1692 C1700 1.378 1_455 S
C1693 C1692 1.367 . S
C1693 C1701 1.433 1_455 S
C1694 H1690 0.929 . S
C1694 C1696 1.378 . S
C1694 C1698 1.350 . S
C1695 C1698 1.463 . S
C1695 C1700 1.350 . S
C1695 N1703 1.427 . S
C1696 H1687 0.930 . S
C1696 C1694 1.378 . S
C1696 C1697 1.367 . S
C1697 C1696 1.367 . S
C1697 C1699 1.433 1_565 S
C1698 C1694 1.350 . S
C1698 C1695 1.463 . S
C1698 N1702 1.430 1_565 S
C1699 H1689 0.929 . S
C1699 C1697 1.433 1_545 S
C1699 N1702 1.383 . S
C1700 H1691 0.929 1_565 S
C1700 C1692 1.378 1_655 S
C1700 C1695 1.350 . S
C1701 H1688 0.929 1_655 S
C1701 C1693 1.433 1_655 S
C1701 N1703 1.384 . S
N1702 C1698 1.430 1_545 S
N1702 C1699 1.383 . S
N1703 C1695 1.427 . S
N1703 C1701 1.384 . S
H1704 C1710 0.930 . S
H1705 C1714 0.930 . S
H1706 C1719 0.929 . S
H1707 C1717 0.929 . S
H1708 C1712 0.929 . S
H1709 C1718 0.929 . S
C1710 H1704 0.930 . S
C1710 C1711 1.367 . S
C1710 C1718 1.378 . S
C1711 C1710 1.367 . S
C1711 C1719 1.433 . S
C1712 H1708 0.929 . S
C1712 C1714 1.378 . S
C1712 C1716 1.350 . S
C1713 C1716 1.463 . S
C1713 C1718 1.350 . S
C1713 N1721 1.427 . S
C1714 H1705 0.930 . S
C1714 C1712 1.378 . S
C1714 C1715 1.367 . S
C1715 C1714 1.367 . S
C1715 C1717 1.433 . S
C1716 C1712 1.350 . S
C1716 C1713 1.463 . S
C1716 N1720 1.427 . S
C1717 H1707 0.929 . S
C1717 C1715 1.433 . S
C1717 N1720 1.384 . S
C1718 H1709 0.929 . S
C1718 C1710 1.378 . S
C1718 C1713 1.350 . S
C1719 H1706 0.929 . S
C1719 C1711 1.433 . S
C1719 N1721 1.384 . S
N1720 C1716 1.427 . S
N1720 C1717 1.384 . S
N1721 C1713 1.427 . S
N1721 C1719 1.384 . S
H1722 C1728 0.930 . S
H1723 C1732 0.930 1_554 S
H1724 C1737 0.929 . S
H1725 C1735 0.929 . S
H1726 C1730 0.929 1_554 S
H1727 C1736 0.929 . S
C1728 H1722 0.930 . S
C1728 C1729 1.367 . S
C1728 C1736 1.378 1_545 S
C1729 C1728 1.367 . S
C1729 C1737 1.433 . S
C1730 H1726 0.929 1_556 S
C1730 C1732 1.378 . S
C1730 C1734 1.350 . S
C1731 C1734 1.463 . S
C1731 C1736 1.350 . S
C1731 N1739 1.427 . S
C1732 H1723 0.930 1_556 S
C1732 C1730 1.378 . S
C1732 C1733 1.367 . S
C1733 C1732 1.367 . S
C1733 C1735 1.433 . S
C1734 C1730 1.350 . S
C1734 C1731 1.463 . S
C1734 N1738 1.427 . S
C1735 H1725 0.929 . S
C1735 C1733 1.433 . S
C1735 N1738 1.384 . S
C1736 H1727 0.929 . S
C1736 C1728 1.378 1_565 S
C1736 C1731 1.350 . S
C1737 H1724 0.929 . S
C1737 C1729 1.433 . S
C1737 N1739 1.384 1_545 S
N1738 C1734 1.427 . S
N1738 C1735 1.384 . S
N1739 C1731 1.427 . S
N1739 C1737 1.384 1_565 S
H1740 C1746 0.930 . S
H1741 C1750 0.930 . S
H1742 C1755 0.929 . S
H1743 C1753 0.929 . S
H1744 C1748 0.929 . S
H1745 C1754 0.929 . S
C1746 H1740 0.930 . S
C1746 C1747 1.367 . S
C1746 C1754 1.378 . S
C1747 C1746 1.367 . S
C1747 C1755 1.433 . S
C1748 H1744 0.929 . S
C1748 C1750 1.378 . S
C1748 C1752 1.350 . S
C1749 C1752 1.463 . S
C1749 C1754 1.350 . S
C1749 N1757 1.427 . S
C1750 H1741 0.930 . S
C1750 C1748 1.378 . S
C1750 C1751 1.367 . S
C1751 C1750 1.367 . S
C1751 C1753 1.433 . S
C1752 C1748 1.350 . S
C1752 C1749 1.463 . S
C1752 N1756 1.427 . S
C1753 H1743 0.929 . S
C1753 C1751 1.433 . S
C1753 N1756 1.384 . S
C1754 H1745 0.929 . S
C1754 C1746 1.378 . S
C1754 C1749 1.350 . S
C1755 H1742 0.929 . S
C1755 C1747 1.433 . S
C1755 N1757 1.384 . S
N1756 C1752 1.427 . S
N1756 C1753 1.384 . S
N1757 C1749 1.427 . S
N1757 C1755 1.384 . S
H1758 C1764 0.930 . S
H1759 C1768 0.930 . S
H1760 C1773 0.929 . S
H1761 C1771 0.929 1_556 S
H1762 C1766 0.929 . S
H1763 C1772 0.929 . S
C1764 H1758 0.930 . S
C1764 C1765 1.367 1_556 S
C1764 C1772 1.378 . S
C1765 C1764 1.367 1_554 S
C1765 C1773 1.433 . S
C1766 H1762 0.929 . S
C1766 C1768 1.378 . S
C1766 C1770 1.350 . S
C1767 C1770 1.463 . S
C1767 C1772 1.350 1_554 S
C1767 N1775 1.427 . S
C1768 H1759 0.930 . S
C1768 C1766 1.378 . S
C1768 C1769 1.367 . S
C1769 C1768 1.367 . S
C1769 C1771 1.433 . S
C1770 C1766 1.350 . S
C1770 C1767 1.463 . S
C1770 N1774 1.427 . S
C1771 H1761 0.929 1_554 S
C1771 C1769 1.433 . S
C1771 N1774 1.384 . S
C1772 H1763 0.929 . S
C1772 C1764 1.378 . S
C1772 C1767 1.350 1_556 S
C1773 H1760 0.929 . S
C1773 C1765 1.433 . S
C1773 N1775 1.384 . S
N1774 C1770 1.427 . S
N1774 C1771 1.384 . S
N1775 C1767 1.427 . S
N1775 C1773 1.384 . S
H1776 C1782 0.930 . S
H1777 C1786 0.930 . S
H1778 C1791 0.929 . S
H1779 C1789 0.929 . S
H1780 C1784 0.929 . S
H1781 C1790 0.929 . S
C1782 H1776 0.930 . S
C1782 C1783 1.367 . S
C1782 C1790 1.378 . S
C1783 C1782 1.367 . S
C1783 C1791 1.433 . S
C1784 H1780 0.929 . S
C1784 C1786 1.378 . S
C1784 C1788 1.350 . S
C1785 C1788 1.463 . S
C1785 C1790 1.350 . S
C1785 N1793 1.427 . S
C1786 H1777 0.930 . S
C1786 C1784 1.378 . S
C1786 C1787 1.367 . S
C1787 C1786 1.367 . S
C1787 C1789 1.433 . S
C1788 C1784 1.350 . S
C1788 C1785 1.463 . S
C1788 N1792 1.427 . S
C1789 H1779 0.929 . S
C1789 C1787 1.433 . S
C1789 N1792 1.384 . S
C1790 H1781 0.929 . S
C1790 C1782 1.378 . S
C1790 C1785 1.350 . S
C1791 H1778 0.929 . S
C1791 C1783 1.433 . S
C1791 N1793 1.384 . S
N1792 C1788 1.427 . S
N1792 C1789 1.384 . S
N1793 C1785 1.427 . S
N1793 C1791 1.384 . S
H1794 C1800 0.930 1_455 S
H1795 C1804 0.930 . S
H1796 C1809 0.946 . S
H1797 C1807 0.929 . S
H1798 C1802 0.929 . S
H1799 C1808 0.929 1_455 S
C1800 H1794 0.930 1_655 S
C1800 C1801 1.367 . S
C1800 C1808 1.378 1_554 S
C1801 C1800 1.367 . S
C1801 C1809 1.452 . S
C1802 H1798 0.929 . S
C1802 C1804 1.378 . S
C1802 C1806 1.350 . S
C1803 C1806 1.463 . S
C1803 C1808 1.350 . S
C1803 N1811 1.427 . S
C1804 H1795 0.930 . S
C1804 C1802 1.378 . S
C1804 C1805 1.367 . S
C1805 C1804 1.367 . S
C1805 C1807 1.433 1_655 S
C1806 C1802 1.350 . S
C1806 C1803 1.463 . S
C1806 N1810 1.459 . S
C1807 H1797 0.929 . S
C1807 C1805 1.433 1_455 S
C1807 N1810 1.378 1_455 S
C1808 H1799 0.929 1_655 S
C1808 C1800 1.378 1_556 S
C1808 C1803 1.350 . S
C1809 H1796 0.946 . S
C1809 C1801 1.452 . S
C1809 N1811 1.348 1_554 S
N1810 C1806 1.459 . S
N1810 C1807 1.378 1_655 S
N1811 C1803 1.427 . S
N1811 C1809 1.348 1_556 S
H1812 C1818 0.930 . S
H1813 C1822 0.930 . S
H1814 C1827 0.929 . S
H1815 C1825 0.929 . S
H1816 C1820 0.929 . S
H1817 C1826 0.929 . S
C1818 H1812 0.930 . S
C1818 C1819 1.367 . S
C1818 C1826 1.378 . S
C1819 C1818 1.367 . S
C1819 C1827 1.433 . S
C1820 H1816 0.929 . S
C1820 C1822 1.378 . S
C1820 C1824 1.350 . S
C1821 C1824 1.463 . S
C1821 C1826 1.350 . S
C1821 N1829 1.427 . S
C1822 H1813 0.930 . S
C1822 C1820 1.378 . S
C1822 C1823 1.367 . S
C1823 C1822 1.367 . S
C1823 C1825 1.433 . S
C1824 C1820 1.350 . S
C1824 C1821 1.463 . S
C1824 N1828 1.427 . S
C1825 H1815 0.929 . S
C1825 C1823 1.433 . S
C1825 N1828 1.384 . S
C1826 H1817 0.929 . S
C1826 C1818 1.378 . S
C1826 C1821 1.350 . S
C1827 H1814 0.929 . S
C1827 C1819 1.433 . S
C1827 N1829 1.384 . S
N1828 C1824 1.427 . S
N1828 C1825 1.384 . S
N1829 C1821 1.427 . S
N1829 C1827 1.384 . S
H1830 C1836 0.930 . S
H1831 C1840 0.930 . S
H1832 C1845 0.929 . S
H1833 C1843 0.929 . S
H1834 C1838 0.929 1_655 S
H1835 C1844 0.929 . S
C1836 H1830 0.930 . S
C1836 C1837 1.367 . S
C1836 C1844 1.378 . S
C1837 C1836 1.367 . S
C1837 C1845 1.433 1_455 S
C1838 H1834 0.929 1_455 S
C1838 C1840 1.378 . S
C1838 C1842 1.350 . S
C1839 C1842 1.463 . S
C1839 C1844 1.350 . S
C1839 N1847 1.427 . S
C1840 H1831 0.930 . S
C1840 C1838 1.378 . S
C1840 C1841 1.367 . S
C1841 C1840 1.367 . S
C1841 C1843 1.433 . S
C1842 C1838 1.350 . S
C1842 C1839 1.463 . S
C1842 N1846 1.427 . S
C1843 H1833 0.929 . S
C1843 C1841 1.433 . S
C1843 N1846 1.384 . S
C1844 H1835 0.929 . S
C1844 C1836 1.378 . S
C1844 C1839 1.350 . S
C1845 H1832 0.929 . S
C1845 C1837 1.433 1_655 S
C1845 N1847 1.384 1_655 S
N1846 C1842 1.427 . S
N1846 C1843 1.384 . S
N1847 C1839 1.427 . S
N1847 C1845 1.384 1_455 S
H1848 C1854 0.930 . S
H1849 C1858 0.930 . S
H1850 C1863 0.929 . S
H1851 C1861 0.929 . S
H1852 C1856 0.929 . S
H1853 C1862 0.929 . S
C1854 H1848 0.930 . S
C1854 C1855 1.367 . S
C1854 C1862 1.378 . S
C1855 C1854 1.367 . S
C1855 C1863 1.433 . S
C1856 H1852 0.929 . S
C1856 C1858 1.378 . S
C1856 C1860 1.350 . S
C1857 C1860 1.463 . S
C1857 C1862 1.350 . S
C1857 N1865 1.427 . S
C1858 H1849 0.930 . S
C1858 C1856 1.378 . S
C1858 C1859 1.367 . S
C1859 C1858 1.367 . S
C1859 C1861 1.433 . S
C1860 C1856 1.350 . S
C1860 C1857 1.463 . S
C1860 N1864 1.427 . S
C1861 H1851 0.929 . S
C1861 C1859 1.433 . S
C1861 N1864 1.384 . S
C1862 H1853 0.929 . S
C1862 C1854 1.378 . S
C1862 C1857 1.350 . S
C1863 H1850 0.929 . S
C1863 C1855 1.433 . S
C1863 N1865 1.384 . S
N1864 C1860 1.427 . S
N1864 C1861 1.384 . S
N1865 C1857 1.427 . S
N1865 C1863 1.384 . S
H1866 C1872 0.930 . S
H1867 C1876 0.930 . S
H1868 C1881 0.929 . S
H1869 C1879 0.929 . S
H1870 C1874 0.929 . S
H1871 C1880 0.929 . S
C1872 H1866 0.930 . S
C1872 C1873 1.367 . S
C1872 C1880 1.378 . S
C1873 C1872 1.367 . S
C1873 C1881 1.433 . S
C1874 H1870 0.929 . S
C1874 C1876 1.378 . S
C1874 C1878 1.350 . S
C1875 C1878 1.463 . S
C1875 C1880 1.350 . S
C1875 N1883 1.427 . S
C1876 H1867 0.930 . S
C1876 C1874 1.378 . S
C1876 C1877 1.367 . S
C1877 C1876 1.367 . S
C1877 C1879 1.433 . S
C1878 C1874 1.350 . S
C1878 C1875 1.463 . S
C1878 N1882 1.427 . S
C1879 H1869 0.929 . S
C1879 C1877 1.433 . S
C1879 N1882 1.384 . S
C1880 H1871 0.929 . S
C1880 C1872 1.378 . S
C1880 C1875 1.350 . S
C1881 H1868 0.929 . S
C1881 C1873 1.433 . S
C1881 N1883 1.384 . S
N1882 C1878 1.427 . S
N1882 C1879 1.384 . S
N1883 C1875 1.427 . S
N1883 C1881 1.384 . S
H1884 C1890 0.930 . S
H1885 C1894 0.930 . S
H1886 C1899 0.929 1_565 S
H1887 C1897 0.929 . S
H1888 C1892 0.929 . S
H1889 C1898 0.929 . S
C1890 H1884 0.930 . S
C1890 C1891 1.367 . S
C1890 C1898 1.378 . S
C1891 C1890 1.367 . S
C1891 C1899 1.433 . S
C1892 H1888 0.929 . S
C1892 C1894 1.378 . S
C1892 C1896 1.350 . S
C1893 C1896 1.463 . S
C1893 C1898 1.350 . S
C1893 N1901 1.427 . S
C1894 H1885 0.930 . S
C1894 C1892 1.378 . S
C1894 C1895 1.367 . S
C1895 C1894 1.367 . S
C1895 C1897 1.433 . S
C1896 C1892 1.350 . S
C1896 C1893 1.463 . S
C1896 N1900 1.427 . S
C1897 H1887 0.929 . S
C1897 C1895 1.433 . S
C1897 N1900 1.384 . S
C1898 H1889 0.929 . S
C1898 C1890 1.378 . S
C1898 C1893 1.350 . S
C1899 H1886 0.929 1_545 S
C1899 C1891 1.433 . S
C1899 N1901 1.384 . S
N1900 C1896 1.427 . S
N1900 C1897 1.384 . S
N1901 C1893 1.427 . S
N1901 C1899 1.384 . S
H1902 C1908 0.930 . S
H1903 C1912 0.930 . S
H1904 C1917 0.929 . S
H1905 C1915 0.929 . S
H1906 C1910 0.929 . S
H1907 C1916 0.929 . S
C1908 H1902 0.930 . S
C1908 C1909 1.367 . S
C1908 C1916 1.378 . S
C1909 C1908 1.367 . S
C1909 C1917 1.433 . S
C1910 H1906 0.929 . S
C1910 C1912 1.378 . S
C1910 C1914 1.350 . S
C1911 C1914 1.463 . S
C1911 C1916 1.350 . S
C1911 N1919 1.427 . S
C1912 H1903 0.930 . S
C1912 C1910 1.378 . S
C1912 C1913 1.367 . S
C1913 C1912 1.367 . S
C1913 C1915 1.433 . S
C1914 C1910 1.350 . S
C1914 C1911 1.463 . S
C1914 N1918 1.427 . S
C1915 H1905 0.929 . S
C1915 C1913 1.433 . S
C1915 N1918 1.384 . S
C1916 H1907 0.929 . S
C1916 C1908 1.378 . S
C1916 C1911 1.350 . S
C1917 H1904 0.929 . S
C1917 C1909 1.433 . S
C1917 N1919 1.384 . S
N1918 C1914 1.427 . S
N1918 C1915 1.384 . S
N1919 C1911 1.427 . S
N1919 C1917 1.384 . S
H1920 C1926 0.930 . S
H1921 C1930 0.930 . S
H1922 C1935 0.929 . S
H1923 C1933 0.929 . S
H1924 C1928 0.929 . S
H1925 C1934 0.929 . S
C1926 H1920 0.930 . S
C1926 C1927 1.367 . S
C1926 C1934 1.378 . S
C1927 C1926 1.367 . S
C1927 C1935 1.433 . S
C1928 H1924 0.929 . S
C1928 C1930 1.378 . S
C1928 C1932 1.350 . S
C1929 C1932 1.463 . S
C1929 C1934 1.350 . S
C1929 N1937 1.427 . S
C1930 H1921 0.930 . S
C1930 C1928 1.378 . S
C1930 C1931 1.367 . S
C1931 C1930 1.367 . S
C1931 C1933 1.433 . S
C1932 C1928 1.350 . S
C1932 C1929 1.463 . S
C1932 N1936 1.427 . S
C1933 H1923 0.929 . S
C1933 C1931 1.433 . S
C1933 N1936 1.384 . S
C1934 H1925 0.929 . S
C1934 C1926 1.378 . S
C1934 C1929 1.350 . S
C1935 H1922 0.929 . S
C1935 C1927 1.433 . S
C1935 N1937 1.384 . S
N1936 C1932 1.427 . S
N1936 C1933 1.384 . S
N1937 C1929 1.427 . S
N1937 C1935 1.384 . S
H1938 C1944 0.930 . S
H1939 C1948 0.930 . S
H1940 C1953 0.929 . S
H1941 C1951 0.929 . S
H1942 C1946 0.929 . S
H1943 C1952 0.929 . S
C1944 H1938 0.930 . S
C1944 C1945 1.367 . S
C1944 C1952 1.378 . S
C1945 C1944 1.367 . S
C1945 C1953 1.433 . S
C1946 H1942 0.929 . S
C1946 C1948 1.378 . S
C1946 C1950 1.350 . S
C1947 C1950 1.463 . S
C1947 C1952 1.350 . S
C1947 N1955 1.427 . S
C1948 H1939 0.930 . S
C1948 C1946 1.378 . S
C1948 C1949 1.367 . S
C1949 C1948 1.367 . S
C1949 C1951 1.433 . S
C1950 C1946 1.350 . S
C1950 C1947 1.463 . S
C1950 N1954 1.427 . S
C1951 H1941 0.929 . S
C1951 C1949 1.433 . S
C1951 N1954 1.384 . S
C1952 H1943 0.929 . S
C1952 C1944 1.378 . S
C1952 C1947 1.350 . S
C1953 H1940 0.929 . S
C1953 C1945 1.433 . S
C1953 N1955 1.384 . S
N1954 C1950 1.427 . S
N1954 C1951 1.384 . S
N1955 C1947 1.427 . S
N1955 C1953 1.384 . S
H1956 C1962 0.930 . S
H1957 C1966 0.930 . S
H1958 C1971 0.929 . S
H1959 C1969 0.929 . S
H1960 C1964 0.929 . S
H1961 C1970 0.929 . S
C1962 H1956 0.930 . S
C1962 C1963 1.367 . S
C1962 C1970 1.378 . S
C1963 C1962 1.367 . S
C1963 C1971 1.433 . S
C1964 H1960 0.929 . S
C1964 C1966 1.378 . S
C1964 C1968 1.350 . S
C1965 C1968 1.463 . S
C1965 C1970 1.350 . S
C1965 N1973 1.427 . S
C1966 H1957 0.930 . S
C1966 C1964 1.378 . S
C1966 C1967 1.367 . S
C1967 C1966 1.367 . S
C1967 C1969 1.433 . S
C1968 C1964 1.350 . S
C1968 C1965 1.463 . S
C1968 N1972 1.427 . S
C1969 H1959 0.929 . S
C1969 C1967 1.433 . S
C1969 N1972 1.384 . S
C1970 H1961 0.929 . S
C1970 C1962 1.378 . S
C1970 C1965 1.350 . S
C1971 H1958 0.929 . S
C1971 C1963 1.433 . S
C1971 N1973 1.384 . S
N1972 C1968 1.427 . S
N1972 C1969 1.384 . S
N1973 C1965 1.427 . S
N1973 C1971 1.384 . S
H1974 C1980 0.930 . S
H1975 C1984 0.930 . S
H1976 C1989 0.929 1_556 S
H1977 C1987 0.929 . S
H1978 C1982 0.929 . S
H1979 C1988 0.929 . S
C1980 H1974 0.930 . S
C1980 C1981 1.367 . S
C1980 C1988 1.378 . S
C1981 C1980 1.367 . S
C1981 C1989 1.433 . S
C1982 H1978 0.929 . S
C1982 C1984 1.378 . S
C1982 C1986 1.350 . S
C1983 C1986 1.463 . S
C1983 C1988 1.350 . S
C1983 N1991 1.427 . S
C1984 H1975 0.930 . S
C1984 C1982 1.378 . S
C1984 C1985 1.367 . S
C1985 C1984 1.367 . S
C1985 C1987 1.433 . S
C1986 C1982 1.350 . S
C1986 C1983 1.463 . S
C1986 N1990 1.427 . S
C1987 H1977 0.929 . S
C1987 C1985 1.433 . S
C1987 N1990 1.384 . S
C1988 H1979 0.929 . S
C1988 C1980 1.378 . S
C1988 C1983 1.350 . S
C1989 H1976 0.929 1_554 S
C1989 C1981 1.433 . S
C1989 N1991 1.384 . S
N1990 C1986 1.427 . S
N1990 C1987 1.384 . S
N1991 C1983 1.427 . S
N1991 C1989 1.384 . S
H1992 C1998 0.930 . S
H1993 C2002 0.930 . S
H1994 C2007 0.929 . S
H1995 C2005 0.929 . S
H1996 C2000 0.929 . S
H1997 C2006 0.929 . S
C1998 H1992 0.930 . S
C1998 C1999 1.367 . S
C1998 C2006 1.378 . S
C1999 C1998 1.367 . S
C1999 C2007 1.433 . S
C2000 H1996 0.929 . S
C2000 C2002 1.378 . S
C2000 C2004 1.350 . S
C2001 C2004 1.463 . S
C2001 C2006 1.350 . S
C2001 N2009 1.427 . S
C2002 H1993 0.930 . S
C2002 C2000 1.378 . S
C2002 C2003 1.367 . S
C2003 C2002 1.367 . S
C2003 C2005 1.433 . S
C2004 C2000 1.350 . S
C2004 C2001 1.463 . S
C2004 N2008 1.427 . S
C2005 H1995 0.929 . S
C2005 C2003 1.433 . S
C2005 N2008 1.384 . S
C2006 H1997 0.929 . S
C2006 C1998 1.378 . S
C2006 C2001 1.350 . S
C2007 H1994 0.929 . S
C2007 C1999 1.433 . S
C2007 N2009 1.384 . S
N2008 C2004 1.427 . S
N2008 C2005 1.384 . S
N2009 C2001 1.427 . S
N2009 C2007 1.384 . S
H2010 C2016 0.930 . S
H2011 C2020 0.930 . S
H2012 C2025 0.929 . S
H2013 C2023 0.929 . S
H2014 C2018 0.929 . S
H2015 C2024 0.929 . S
C2016 H2010 0.930 . S
C2016 C2017 1.367 . S
C2016 C2024 1.378 . S
C2017 C2016 1.367 . S
C2017 C2025 1.433 . S
C2018 H2014 0.929 . S
C2018 C2020 1.378 . S
C2018 C2022 1.350 . S
C2019 C2022 1.463 . S
C2019 C2024 1.350 . S
C2019 N2027 1.427 . S
C2020 H2011 0.930 . S
C2020 C2018 1.378 . S
C2020 C2021 1.367 . S
C2021 C2020 1.367 . S
C2021 C2023 1.433 . S
C2022 C2018 1.350 . S
C2022 C2019 1.463 . S
C2022 N2026 1.427 . S
C2023 H2013 0.929 . S
C2023 C2021 1.433 . S
C2023 N2026 1.384 . S
C2024 H2015 0.929 . S
C2024 C2016 1.378 . S
C2024 C2019 1.350 . S
C2025 H2012 0.929 . S
C2025 C2017 1.433 . S
C2025 N2027 1.384 . S
N2026 C2022 1.427 . S
N2026 C2023 1.384 . S
N2027 C2019 1.427 . S
N2027 C2025 1.384 . S
H2028 C2034 0.930 . S
H2029 C2038 0.930 . S
H2030 C2043 0.929 . S
H2031 C2041 0.929 . S
H2032 C2036 0.929 . S
H2033 C2042 0.929 . S
C2034 H2028 0.930 . S
C2034 C2035 1.367 . S
C2034 C2042 1.378 . S
C2035 C2034 1.367 . S
C2035 C2043 1.433 . S
C2036 H2032 0.929 . S
C2036 C2038 1.378 . S
C2036 C2040 1.350 . S
C2037 C2040 1.463 . S
C2037 C2042 1.350 . S
C2037 N2045 1.427 . S
C2038 H2029 0.930 . S
C2038 C2036 1.378 . S
C2038 C2039 1.367 . S
C2039 C2038 1.367 . S
C2039 C2041 1.433 . S
C2040 C2036 1.350 . S
C2040 C2037 1.463 . S
C2040 N2044 1.427 . S
C2041 H2031 0.929 . S
C2041 C2039 1.433 . S
C2041 N2044 1.384 . S
C2042 H2033 0.929 . S
C2042 C2034 1.378 . S
C2042 C2037 1.350 . S
C2043 H2030 0.929 . S
C2043 C2035 1.433 . S
C2043 N2045 1.384 . S
N2044 C2040 1.427 . S
N2044 C2041 1.384 . S
N2045 C2037 1.427 . S
N2045 C2043 1.384 . S
H2046 C2052 0.930 1_655 S
H2047 C2056 0.930 . S
H2048 C2061 0.929 . S
H2049 C2059 0.929 . S
H2050 C2054 0.929 . S
H2051 C2060 0.929 . S
C2052 H2046 0.930 1_455 S
C2052 C2053 1.367 . S
C2052 C2060 1.378 . S
C2053 C2052 1.367 . S
C2053 C2061 1.433 . S
C2054 H2050 0.929 . S
C2054 C2056 1.378 . S
C2054 C2058 1.350 . S
C2055 C2058 1.463 . S
C2055 C2060 1.350 . S
C2055 N2063 1.427 . S
C2056 H2047 0.930 . S
C2056 C2054 1.378 . S
C2056 C2057 1.367 . S
C2057 C2056 1.367 . S
C2057 C2059 1.433 . S
C2058 C2054 1.350 . S
C2058 C2055 1.463 . S
C2058 N2062 1.427 . S
C2059 H2049 0.929 . S
C2059 C2057 1.433 . S
C2059 N2062 1.384 . S
C2060 H2051 0.929 . S
C2060 C2052 1.378 . S
C2060 C2055 1.350 . S
C2061 H2048 0.929 . S
C2061 C2053 1.433 . S
C2061 N2063 1.384 . S
N2062 C2058 1.427 . S
N2062 C2059 1.384 . S
N2063 C2055 1.427 . S
N2063 C2061 1.384 . S
H2064 C2070 0.930 . S
H2065 C2074 0.930 . S
H2066 C2079 0.929 . S
H2067 C2077 0.929 . S
H2068 C2072 0.929 . S
H2069 C2078 0.929 . S
C2070 H2064 0.930 . S
C2070 C2071 1.367 . S
C2070 C2078 1.378 . S
C2071 C2070 1.367 . S
C2071 C2079 1.433 . S
C2072 H2068 0.929 . S
C2072 C2074 1.378 . S
C2072 C2076 1.350 . S
C2073 C2076 1.463 . S
C2073 C2078 1.350 . S
C2073 N2081 1.427 . S
C2074 H2065 0.930 . S
C2074 C2072 1.378 . S
C2074 C2075 1.367 . S
C2075 C2074 1.367 . S
C2075 C2077 1.433 . S
C2076 C2072 1.350 . S
C2076 C2073 1.463 . S
C2076 N2080 1.427 . S
C2077 H2067 0.929 . S
C2077 C2075 1.433 . S
C2077 N2080 1.384 . S
C2078 H2069 0.929 . S
C2078 C2070 1.378 . S
C2078 C2073 1.350 . S
C2079 H2066 0.929 . S
C2079 C2071 1.433 . S
C2079 N2081 1.384 . S
N2080 C2076 1.427 . S
N2080 C2077 1.384 . S
N2081 C2073 1.427 . S
N2081 C2079 1.384 . S
H2082 C2088 0.930 . S
H2083 C2092 0.930 . S
H2084 C2097 0.929 . S
H2085 C2095 0.929 . S
H2086 C2090 0.929 . S
H2087 C2096 0.929 . S
C2088 H2082 0.930 . S
C2088 C2089 1.367 . S
C2088 C2096 1.378 . S
C2089 C2088 1.367 . S
C2089 C2097 1.433 . S
C2090 H2086 0.929 . S
C2090 C2092 1.378 . S
C2090 C2094 1.350 . S
C2091 C2094 1.463 . S
C2091 C2096 1.350 . S
C2091 N2099 1.427 . S
C2092 H2083 0.930 . S
C2092 C2090 1.378 . S
C2092 C2093 1.367 . S
C2093 C2092 1.367 . S
C2093 C2095 1.433 . S
C2094 C2090 1.350 . S
C2094 C2091 1.463 . S
C2094 N2098 1.427 . S
C2095 H2085 0.929 . S
C2095 C2093 1.433 . S
C2095 N2098 1.384 . S
C2096 H2087 0.929 . S
C2096 C2088 1.378 . S
C2096 C2091 1.350 . S
C2097 H2084 0.929 . S
C2097 C2089 1.433 . S
C2097 N2099 1.384 . S
N2098 C2094 1.427 . S
N2098 C2095 1.384 . S
N2099 C2091 1.427 . S
N2099 C2097 1.384 . S
H2100 C2106 0.930 1_545 S
H2101 C2110 0.930 . S
H2102 C2115 0.929 . S
H2103 C2113 0.929 . S
H2104 C2108 0.929 . S
H2105 C2114 0.936 . S
C2106 H2100 0.930 1_565 S
C2106 C2107 1.367 . S
C2106 C2114 1.378 . S
C2107 C2106 1.367 . S
C2107 C2115 1.433 . S
C2108 H2104 0.929 . S
C2108 C2110 1.378 . S
C2108 C2112 1.350 . S
C2109 C2112 1.463 . S
C2109 C2114 1.350 . S
C2109 N2117 1.427 . S
C2110 H2101 0.930 . S
C2110 C2108 1.378 . S
C2110 C2111 1.367 . S
C2111 C2110 1.367 . S
C2111 C2113 1.433 . S
C2112 C2108 1.350 . S
C2112 C2109 1.463 . S
C2112 N2116 1.427 . S
C2113 H2103 0.929 . S
C2113 C2111 1.433 . S
C2113 N2116 1.384 . S
C2114 H2105 0.936 . S
C2114 C2106 1.378 . S
C2114 C2109 1.350 . S
C2115 H2102 0.929 . S
C2115 C2107 1.433 . S
C2115 N2117 1.384 . S
N2116 C2112 1.427 . S
N2116 C2113 1.384 . S
N2117 C2109 1.427 . S
N2117 C2115 1.384 . S
H2118 C2124 0.930 . S
H2119 C2128 0.930 . S
H2120 C2133 0.929 . S
H2121 C2131 0.929 . S
H2122 C2126 0.929 . S
H2123 C2132 0.929 . S
C2124 H2118 0.930 . S
C2124 C2125 1.367 . S
C2124 C2132 1.378 . S
C2125 C2124 1.367 . S
C2125 C2133 1.433 . S
C2126 H2122 0.929 . S
C2126 C2128 1.378 . S
C2126 C2130 1.350 . S
C2127 C2130 1.463 . S
C2127 C2132 1.350 . S
C2127 N2135 1.427 . S
C2128 H2119 0.930 . S
C2128 C2126 1.378 . S
C2128 C2129 1.367 . S
C2129 C2128 1.367 . S
C2129 C2131 1.433 . S
C2130 C2126 1.350 . S
C2130 C2127 1.463 . S
C2130 N2134 1.427 . S
C2131 H2121 0.929 . S
C2131 C2129 1.433 . S
C2131 N2134 1.384 . S
C2132 H2123 0.929 . S
C2132 C2124 1.378 . S
C2132 C2127 1.350 . S
C2133 H2120 0.929 . S
C2133 C2125 1.433 . S
C2133 N2135 1.384 . S
N2134 C2130 1.427 . S
N2134 C2131 1.384 . S
N2135 C2127 1.427 . S
N2135 C2133 1.384 . S
H2136 C2142 0.930 . S
H2137 C2146 0.930 . S
H2138 C2151 0.929 . S
H2139 C2149 0.929 . S
H2140 C2144 0.929 . S
H2141 C2150 0.929 . S
C2142 H2136 0.930 . S
C2142 C2143 1.367 . S
C2142 C2150 1.378 . S
C2143 C2142 1.367 . S
C2143 C2151 1.433 . S
C2144 H2140 0.929 . S
C2144 C2146 1.378 . S
C2144 C2148 1.350 . S
C2145 C2148 1.463 . S
C2145 C2150 1.350 . S
C2145 N2153 1.427 . S
C2146 H2137 0.930 . S
C2146 C2144 1.378 . S
C2146 C2147 1.367 . S
C2147 C2146 1.367 . S
C2147 C2149 1.433 . S
C2148 C2144 1.350 . S
C2148 C2145 1.463 . S
C2148 N2152 1.427 . S
C2149 H2139 0.929 . S
C2149 C2147 1.433 . S
C2149 N2152 1.384 . S
C2150 H2141 0.929 . S
C2150 C2142 1.378 . S
C2150 C2145 1.350 . S
C2151 H2138 0.929 . S
C2151 C2143 1.433 . S
C2151 N2153 1.384 . S
N2152 C2148 1.427 . S
N2152 C2149 1.384 . S
N2153 C2145 1.427 . S
N2153 C2151 1.384 . S
H2154 C2160 0.930 . S
H2155 C2164 0.930 . S
H2156 C2169 0.929 . S
H2157 C2167 0.929 . S
H2158 C2162 0.929 . S
H2159 C2168 0.929 . S
C2160 H2154 0.930 . S
C2160 C2161 1.367 . S
C2160 C2168 1.378 . S
C2161 C2160 1.367 . S
C2161 C2169 1.433 . S
C2162 H2158 0.929 . S
C2162 C2164 1.378 . S
C2162 C2166 1.350 . S
C2163 C2166 1.463 . S
C2163 C2168 1.350 . S
C2163 N2171 1.427 . S
C2164 H2155 0.930 . S
C2164 C2162 1.378 . S
C2164 C2165 1.367 . S
C2165 C2164 1.367 . S
C2165 C2167 1.433 . S
C2166 C2162 1.350 . S
C2166 C2163 1.463 . S
C2166 N2170 1.427 . S
C2167 H2157 0.929 . S
C2167 C2165 1.433 . S
C2167 N2170 1.384 . S
C2168 H2159 0.929 . S
C2168 C2160 1.378 . S
C2168 C2163 1.350 . S
C2169 H2156 0.929 . S
C2169 C2161 1.433 . S
C2169 N2171 1.384 . S
N2170 C2166 1.427 . S
N2170 C2167 1.384 . S
N2171 C2163 1.427 . S
N2171 C2169 1.384 . S
H2172 C2178 0.930 . S
H2173 C2182 0.930 . S
H2174 C2187 0.929 . S
H2175 C2185 0.929 . S
H2176 C2180 0.929 . S
H2177 C2186 0.929 . S
C2178 H2172 0.930 . S
C2178 C2179 1.367 . S
C2178 C2186 1.378 . S
C2179 C2178 1.367 . S
C2179 C2187 1.433 . S
C2180 H2176 0.929 . S
C2180 C2182 1.378 . S
C2180 C2184 1.350 . S
C2181 C2184 1.463 . S
C2181 C2186 1.350 . S
C2181 N2189 1.427 . S
C2182 H2173 0.930 . S
C2182 C2180 1.378 . S
C2182 C2183 1.367 . S
C2183 C2182 1.367 . S
C2183 C2185 1.433 . S
C2184 C2180 1.350 . S
C2184 C2181 1.463 . S
C2184 N2188 1.427 . S
C2185 H2175 0.929 . S
C2185 C2183 1.433 . S
C2185 N2188 1.384 . S
C2186 H2177 0.929 . S
C2186 C2178 1.378 . S
C2186 C2181 1.350 . S
C2187 H2174 0.929 . S
C2187 C2179 1.433 . S
C2187 N2189 1.384 . S
N2188 C2184 1.427 . S
N2188 C2185 1.384 . S
N2189 C2181 1.427 . S
N2189 C2187 1.384 . S
H2190 C2196 0.930 . S
H2191 C2200 0.930 . S
H2192 C2205 0.929 1_554 S
H2193 C2203 0.929 . S
H2194 C2198 0.929 . S
H2195 C2204 0.929 . S
C2196 H2190 0.930 . S
C2196 C2197 1.367 . S
C2196 C2204 1.378 . S
C2197 C2196 1.367 . S
C2197 C2205 1.433 . S
C2198 H2194 0.929 . S
C2198 C2200 1.378 . S
C2198 C2202 1.350 . S
C2199 C2202 1.463 . S
C2199 C2204 1.350 . S
C2199 N2207 1.427 . S
C2200 H2191 0.930 . S
C2200 C2198 1.378 . S
C2200 C2201 1.367 . S
C2201 C2200 1.367 . S
C2201 C2203 1.433 . S
C2202 C2198 1.350 . S
C2202 C2199 1.463 . S
C2202 N2206 1.427 . S
C2203 H2193 0.929 . S
C2203 C2201 1.433 . S
C2203 N2206 1.384 . S
C2204 H2195 0.929 . S
C2204 C2196 1.378 . S
C2204 C2199 1.350 . S
C2205 H2192 0.929 1_556 S
C2205 C2197 1.433 . S
C2205 N2207 1.384 . S
N2206 C2202 1.427 . S
N2206 C2203 1.384 . S
N2207 C2199 1.427 . S
N2207 C2205 1.384 . S
H2208 C2214 0.930 . S
H2209 C2218 0.930 . S
H2210 C2223 0.929 . S
H2211 C2221 0.929 . S
H2212 C2216 0.929 . S
H2213 C2222 0.929 . S
C2214 H2208 0.930 . S
C2214 C2215 1.367 . S
C2214 C2222 1.378 . S
C2215 C2214 1.367 . S
C2215 C2223 1.433 . S
C2216 H2212 0.929 . S
C2216 C2218 1.378 . S
C2216 C2220 1.350 . S
C2217 C2220 1.463 . S
C2217 C2222 1.350 . S
C2217 N2225 1.427 . S
C2218 H2209 0.930 . S
C2218 C2216 1.378 . S
C2218 C2219 1.367 . S
C2219 C2218 1.367 . S
C2219 C2221 1.433 . S
C2220 C2216 1.350 . S
C2220 C2217 1.463 . S
C2220 N2224 1.427 . S
C2221 H2211 0.929 . S
C2221 C2219 1.433 . S
C2221 N2224 1.384 . S
C2222 H2213 0.929 . S
C2222 C2214 1.378 . S
C2222 C2217 1.350 . S
C2223 H2210 0.929 . S
C2223 C2215 1.433 . S
C2223 N2225 1.384 . S
N2224 C2220 1.427 . S
N2224 C2221 1.384 . S
N2225 C2217 1.427 . S
N2225 C2223 1.384 . S
H2226 C2232 0.930 . S
H2227 C2236 0.930 . S
H2228 C2241 0.929 . S
H2229 C2239 0.929 . S
H2230 C2234 0.929 . S
H2231 C2240 0.929 . S
C2232 H2226 0.930 . S
C2232 C2233 1.367 . S
C2232 C2240 1.378 . S
C2233 C2232 1.367 . S
C2233 C2241 1.433 . S
C2234 H2230 0.929 . S
C2234 C2236 1.378 . S
C2234 C2238 1.350 . S
C2235 C2238 1.463 . S
C2235 C2240 1.350 . S
C2235 N2243 1.427 . S
C2236 H2227 0.930 . S
C2236 C2234 1.378 . S
C2236 C2237 1.367 . S
C2237 C2236 1.367 . S
C2237 C2239 1.433 . S
C2238 C2234 1.350 . S
C2238 C2235 1.463 . S
C2238 N2242 1.427 . S
C2239 H2229 0.929 . S
C2239 C2237 1.433 . S
C2239 N2242 1.384 . S
C2240 H2231 0.929 . S
C2240 C2232 1.378 . S
C2240 C2235 1.350 . S
C2241 H2228 0.929 . S
C2241 C2233 1.433 . S
C2241 N2243 1.384 . S
N2242 C2238 1.427 . S
N2242 C2239 1.384 . S
N2243 C2235 1.427 . S
N2243 C2241 1.384 . S
H2244 C2250 0.930 . S
H2245 C2254 0.930 . S
H2246 C2259 0.929 . S
H2247 C2257 0.929 . S
H2248 C2252 0.929 . S
H2249 C2258 0.929 . S
C2250 H2244 0.930 . S
C2250 C2251 1.367 . S
C2250 C2258 1.378 . S
C2251 C2250 1.367 . S
C2251 C2259 1.433 . S
C2252 H2248 0.929 . S
C2252 C2254 1.378 . S
C2252 C2256 1.350 . S
C2253 C2256 1.463 . S
C2253 C2258 1.350 . S
C2253 N2261 1.427 . S
C2254 H2245 0.930 . S
C2254 C2252 1.378 . S
C2254 C2255 1.367 . S
C2255 C2254 1.367 . S
C2255 C2257 1.433 . S
C2256 C2252 1.350 . S
C2256 C2253 1.463 . S
C2256 N2260 1.427 . S
C2257 H2247 0.929 . S
C2257 C2255 1.433 . S
C2257 N2260 1.384 . S
C2258 H2249 0.929 . S
C2258 C2250 1.378 . S
C2258 C2253 1.350 . S
C2259 H2246 0.929 . S
C2259 C2251 1.433 . S
C2259 N2261 1.384 . S
N2260 C2256 1.427 . S
N2260 C2257 1.384 . S
N2261 C2253 1.427 . S
N2261 C2259 1.384 . S
H2262 C2268 0.930 . S
H2263 C2272 0.930 . S
H2264 C2277 0.929 . S
H2265 C2275 0.929 . S
H2266 C2270 0.929 . S
H2267 C2276 0.929 . S
C2268 H2262 0.930 . S
C2268 C2269 1.367 . S
C2268 C2276 1.378 . S
C2269 C2268 1.367 . S
C2269 C2277 1.433 . S
C2270 H2266 0.929 . S
C2270 C2272 1.378 . S
C2270 C2274 1.350 . S
C2271 C2274 1.463 . S
C2271 C2276 1.350 . S
C2271 N2279 1.427 . S
C2272 H2263 0.930 . S
C2272 C2270 1.378 . S
C2272 C2273 1.367 . S
C2273 C2272 1.367 . S
C2273 C2275 1.433 . S
C2274 C2270 1.350 . S
C2274 C2271 1.463 . S
C2274 N2278 1.427 . S
C2275 H2265 0.929 . S
C2275 C2273 1.433 . S
C2275 N2278 1.384 . S
C2276 H2267 0.929 . S
C2276 C2268 1.378 . S
C2276 C2271 1.350 . S
C2277 H2264 0.929 . S
C2277 C2269 1.433 . S
C2277 N2279 1.384 . S
N2278 C2274 1.427 . S
N2278 C2275 1.384 . S
N2279 C2271 1.427 . S
N2279 C2277 1.384 . S
H2280 C2286 0.930 . S
H2281 C2290 0.930 . S
H2282 C2295 0.929 . S
H2283 C2293 0.929 . S
H2284 C2288 0.929 . S
H2285 C2294 0.929 . S
C2286 H2280 0.930 . S
C2286 C2287 1.367 . S
C2286 C2294 1.378 . S
C2287 C2286 1.367 . S
C2287 C2295 1.433 . S
C2288 H2284 0.929 . S
C2288 C2290 1.378 . S
C2288 C2292 1.350 . S
C2289 C2292 1.463 . S
C2289 C2294 1.350 . S
C2289 N2297 1.427 . S
C2290 H2281 0.930 . S
C2290 C2288 1.378 . S
C2290 C2291 1.367 . S
C2291 C2290 1.367 . S
C2291 C2293 1.433 . S
C2292 C2288 1.350 . S
C2292 C2289 1.463 . S
C2292 N2296 1.427 . S
C2293 H2283 0.929 . S
C2293 C2291 1.433 . S
C2293 N2296 1.384 . S
C2294 H2285 0.929 . S
C2294 C2286 1.378 . S
C2294 C2289 1.350 . S
C2295 H2282 0.929 . S
C2295 C2287 1.433 . S
C2295 N2297 1.384 . S
N2296 C2292 1.427 . S
N2296 C2293 1.384 . S
N2297 C2289 1.427 . S
N2297 C2295 1.384 . S
H2298 C2304 0.930 . S
H2299 C2308 0.930 . S
H2300 C2313 0.929 . S
H2301 C2311 0.929 . S
H2302 C2306 0.929 . S
H2303 C2312 0.929 . S
C2304 H2298 0.930 . S
C2304 C2305 1.367 . S
C2304 C2312 1.378 . S
C2305 C2304 1.367 . S
C2305 C2313 1.433 . S
C2306 H2302 0.929 . S
C2306 C2308 1.378 . S
C2306 C2310 1.350 . S
C2307 C2310 1.463 . S
C2307 C2312 1.350 . S
C2307 N2315 1.427 . S
C2308 H2299 0.930 . S
C2308 C2306 1.378 . S
C2308 C2309 1.367 . S
C2309 C2308 1.367 . S
C2309 C2311 1.433 . S
C2310 C2306 1.350 . S
C2310 C2307 1.463 . S
C2310 N2314 1.427 . S
C2311 H2301 0.929 . S
C2311 C2309 1.433 . S
C2311 N2314 1.384 . S
C2312 H2303 0.929 . S
C2312 C2304 1.378 . S
C2312 C2307 1.350 . S
C2313 H2300 0.929 . S
C2313 C2305 1.433 . S
C2313 N2315 1.384 . S
N2314 C2310 1.427 . S
N2314 C2311 1.384 . S
N2315 C2307 1.427 . S
N2315 C2313 1.384 . S
H2316 C2322 0.930 . S
H2317 C2326 0.930 . S
H2318 C2331 0.929 . S
H2319 C2329 0.929 1_545 S
H2320 C2324 0.929 . S
H2321 C2330 0.929 . S
C2322 H2316 0.930 . S
C2322 C2323 1.367 1_545 S
C2322 C2330 1.378 . S
C2323 C2322 1.367 1_565 S
C2323 C2331 1.433 . S
C2324 H2320 0.929 . S
C2324 C2326 1.378 . S
C2324 C2328 1.350 . S
C2325 C2328 1.463 . S
C2325 C2330 1.350 1_565 S
C2325 N2333 1.427 . S
C2326 H2317 0.930 . S
C2326 C2324 1.378 . S
C2326 C2327 1.367 . S
C2327 C2326 1.367 . S
C2327 C2329 1.433 . S
C2328 C2324 1.350 . S
C2328 C2325 1.463 . S
C2328 N2332 1.439 . S
C2329 H2319 0.929 1_565 S
C2329 C2327 1.433 . S
C2329 N2332 1.388 . S
C2330 H2321 0.929 . S
C2330 C2322 1.378 . S
C2330 C2325 1.350 1_545 S
C2331 H2318 0.929 . S
C2331 C2323 1.433 . S
C2331 N2333 1.384 . S
N2332 C2328 1.439 . S
N2332 C2329 1.388 . S
N2333 C2325 1.427 . S
N2333 C2331 1.384 . S
H2334 C2340 0.930 . S
H2335 C2344 0.930 1_565 S
H2336 C2349 0.929 . S
H2337 C2347 0.929 . S
H2338 C2342 0.929 . S
H2339 C2348 0.929 . S
C2340 H2334 0.930 . S
C2340 C2341 1.367 . S
C2340 C2348 1.378 . S
C2341 C2340 1.367 . S
C2341 C2349 1.433 . S
C2342 H2338 0.929 . S
C2342 C2344 1.378 . S
C2342 C2346 1.350 . S
C2343 C2346 1.463 . S
C2343 C2348 1.350 . S
C2343 N2351 1.427 . S
C2344 H2335 0.930 1_545 S
C2344 C2342 1.378 . S
C2344 C2345 1.367 . S
C2345 C2344 1.367 . S
C2345 C2347 1.433 . S
C2346 C2342 1.350 . S
C2346 C2343 1.463 . S
C2346 N2350 1.427 . S
C2347 H2337 0.929 . S
C2347 C2345 1.433 . S
C2347 N2350 1.384 . S
C2348 H2339 0.929 . S
C2348 C2340 1.378 . S
C2348 C2343 1.350 . S
C2349 H2336 0.929 . S
C2349 C2341 1.433 . S
C2349 N2351 1.384 . S
N2350 C2346 1.427 . S
N2350 C2347 1.384 . S
N2351 C2343 1.427 . S
N2351 C2349 1.384 . S
H2352 C2358 0.930 . S
H2353 C2362 0.930 . S
H2354 C2367 0.929 . S
H2355 C2365 0.929 . S
H2356 C2360 0.929 . S
H2357 C2366 0.929 . S
C2358 H2352 0.930 . S
C2358 C2359 1.367 . S
C2358 C2366 1.378 . S
C2359 C2358 1.367 . S
C2359 C2367 1.433 . S
C2360 H2356 0.929 . S
C2360 C2362 1.378 . S
C2360 C2364 1.350 . S
C2361 C2364 1.463 . S
C2361 C2366 1.350 . S
C2361 N2369 1.427 . S
C2362 H2353 0.930 . S
C2362 C2360 1.378 . S
C2362 C2363 1.367 . S
C2363 C2362 1.367 . S
C2363 C2365 1.433 . S
C2364 C2360 1.350 . S
C2364 C2361 1.463 . S
C2364 N2368 1.427 . S
C2365 H2355 0.929 . S
C2365 C2363 1.433 . S
C2365 N2368 1.384 . S
C2366 H2357 0.929 . S
C2366 C2358 1.378 . S
C2366 C2361 1.350 . S
C2367 H2354 0.929 . S
C2367 C2359 1.433 . S
C2367 N2369 1.384 . S
N2368 C2364 1.427 . S
N2368 C2365 1.384 . S
N2369 C2361 1.427 . S
N2369 C2367 1.384 . S
H2370 C2376 0.930 . S
H2371 C2380 0.930 . S
H2372 C2385 0.929 . S
H2373 C2383 0.929 . S
H2374 C2378 0.929 . S
H2375 C2384 0.929 . S
C2376 H2370 0.930 . S
C2376 C2377 1.367 . S
C2376 C2384 1.378 . S
C2377 C2376 1.367 . S
C2377 C2385 1.433 . S
C2378 H2374 0.929 . S
C2378 C2380 1.378 . S
C2378 C2382 1.350 . S
C2379 C2382 1.463 . S
C2379 C2384 1.350 . S
C2379 N2387 1.427 . S
C2380 H2371 0.930 . S
C2380 C2378 1.378 . S
C2380 C2381 1.367 . S
C2381 C2380 1.367 . S
C2381 C2383 1.433 . S
C2382 C2378 1.350 . S
C2382 C2379 1.463 . S
C2382 N2386 1.427 . S
C2383 H2373 0.929 . S
C2383 C2381 1.433 . S
C2383 N2386 1.384 . S
C2384 H2375 0.929 . S
C2384 C2376 1.378 . S
C2384 C2379 1.350 . S
C2385 H2372 0.929 . S
C2385 C2377 1.433 . S
C2385 N2387 1.384 . S
N2386 C2382 1.427 . S
N2386 C2383 1.384 . S
N2387 C2379 1.427 . S
N2387 C2385 1.384 . S
H2388 C2394 0.930 . S
H2389 C2398 0.930 . S
H2390 C2403 0.929 . S
H2391 C2401 0.929 . S
H2392 C2396 0.929 . S
H2393 C2402 0.929 . S
C2394 H2388 0.930 . S
C2394 C2395 1.367 . S
C2394 C2402 1.378 . S
C2395 C2394 1.367 . S
C2395 C2403 1.433 . S
C2396 H2392 0.929 . S
C2396 C2398 1.378 . S
C2396 C2400 1.350 . S
C2397 C2400 1.463 . S
C2397 C2402 1.350 . S
C2397 N2405 1.427 . S
C2398 H2389 0.930 . S
C2398 C2396 1.378 . S
C2398 C2399 1.367 . S
C2399 C2398 1.367 . S
C2399 C2401 1.433 . S
C2400 C2396 1.350 . S
C2400 C2397 1.463 . S
C2400 N2404 1.427 . S
C2401 H2391 0.929 . S
C2401 C2399 1.433 . S
C2401 N2404 1.384 . S
C2402 H2393 0.929 . S
C2402 C2394 1.378 . S
C2402 C2397 1.350 . S
C2403 H2390 0.929 . S
C2403 C2395 1.433 . S
C2403 N2405 1.384 . S
N2404 C2400 1.427 . S
N2404 C2401 1.384 . S
N2405 C2397 1.427 . S
N2405 C2403 1.384 . S
H2406 C2412 0.930 . S
H2407 C2416 0.930 . S
H2408 C2421 0.929 . S
H2409 C2419 0.929 . S
H2410 C2414 0.929 . S
H2411 C2420 0.929 . S
C2412 H2406 0.930 . S
C2412 C2413 1.367 1_554 S
C2412 C2420 1.378 . S
C2413 C2412 1.367 1_556 S
C2413 C2421 1.433 . S
C2414 H2410 0.929 . S
C2414 C2416 1.378 . S
C2414 C2418 1.350 . S
C2415 C2418 1.463 . S
C2415 C2420 1.350 1_556 S
C2415 N2423 1.427 . S
C2416 H2407 0.930 . S
C2416 C2414 1.378 . S
C2416 C2417 1.367 . S
C2417 C2416 1.367 . S
C2417 C2419 1.433 1_556 S
C2418 C2414 1.350 . S
C2418 C2415 1.463 . S
C2418 N2422 1.427 1_556 S
C2419 H2409 0.929 . S
C2419 C2417 1.433 1_554 S
C2419 N2422 1.384 . S
C2420 H2411 0.929 . S
C2420 C2412 1.378 . S
C2420 C2415 1.350 1_554 S
C2421 H2408 0.929 . S
C2421 C2413 1.433 . S
C2421 N2423 1.384 . S
N2422 C2418 1.427 1_554 S
N2422 C2419 1.384 . S
N2423 C2415 1.427 . S
N2423 C2421 1.384 . S
H2424 C2430 0.930 . S
H2425 C2434 0.930 . S
H2426 C2439 0.929 . S
H2427 C2437 0.929 . S
H2428 C2432 0.929 . S
H2429 C2438 0.929 . S
C2430 H2424 0.930 . S
C2430 C2431 1.367 . S
C2430 C2438 1.378 . S
C2431 C2430 1.367 . S
C2431 C2439 1.433 . S
C2432 H2428 0.929 . S
C2432 C2434 1.378 . S
C2432 C2436 1.350 . S
C2433 C2436 1.463 . S
C2433 C2438 1.350 . S
C2433 N2441 1.427 . S
C2434 H2425 0.930 . S
C2434 C2432 1.378 . S
C2434 C2435 1.367 . S
C2435 C2434 1.367 . S
C2435 C2437 1.433 . S
C2436 C2432 1.350 . S
C2436 C2433 1.463 . S
C2436 N2440 1.427 . S
C2437 H2427 0.929 . S
C2437 C2435 1.433 . S
C2437 N2440 1.384 . S
C2438 H2429 0.929 . S
C2438 C2430 1.378 . S
C2438 C2433 1.350 . S
C2439 H2426 0.929 . S
C2439 C2431 1.433 . S
C2439 N2441 1.384 . S
N2440 C2436 1.427 . S
N2440 C2437 1.384 . S
N2441 C2433 1.427 . S
N2441 C2439 1.384 . S
H2442 C2448 0.930 1_655 S
H2443 C2452 0.930 . S
H2444 C2457 0.929 . S
H2445 C2455 0.929 . S
H2446 C2450 0.929 . S
H2447 C2456 0.929 1_655 S
C2448 H2442 0.930 1_455 S
C2448 C2449 1.367 . S
C2448 C2456 1.378 . S
C2449 C2448 1.367 . S
C2449 C2457 1.433 . S
C2450 H2446 0.929 . S
C2450 C2452 1.378 . S
C2450 C2454 1.350 . S
C2451 C2454 1.463 . S
C2451 C2456 1.350 . S
C2451 N2459 1.427 . S
C2452 H2443 0.930 . S
C2452 C2450 1.378 . S
C2452 C2453 1.367 . S
C2453 C2452 1.367 . S
C2453 C2455 1.433 1_455 S
C2454 C2450 1.350 . S
C2454 C2451 1.463 . S
C2454 N2458 1.427 1_455 S
C2455 H2445 0.929 . S
C2455 C2453 1.433 1_655 S
C2455 N2458 1.384 . S
C2456 H2447 0.929 1_455 S
C2456 C2448 1.378 . S
C2456 C2451 1.350 . S
C2457 H2444 0.929 . S
C2457 C2449 1.433 . S
C2457 N2459 1.384 . S
N2458 C2454 1.427 1_655 S
N2458 C2455 1.384 . S
N2459 C2451 1.427 . S
N2459 C2457 1.384 . S
H2460 C2466 0.930 . S
H2461 C2470 0.930 . S
H2462 C2475 0.929 . S
H2463 C2473 0.929 . S
H2464 C2468 0.929 . S
H2465 C2474 0.929 . S
C2466 H2460 0.930 . S
C2466 C2467 1.367 . S
C2466 C2474 1.378 . S
C2467 C2466 1.367 . S
C2467 C2475 1.433 . S
C2468 H2464 0.929 . S
C2468 C2470 1.378 . S
C2468 C2472 1.350 . S
C2469 C2472 1.463 . S
C2469 C2474 1.350 . S
C2469 N2477 1.427 . S
C2470 H2461 0.930 . S
C2470 C2468 1.378 . S
C2470 C2471 1.367 . S
C2471 C2470 1.367 . S
C2471 C2473 1.433 . S
C2472 C2468 1.350 . S
C2472 C2469 1.463 . S
C2472 N2476 1.427 . S
C2473 H2463 0.929 . S
C2473 C2471 1.433 . S
C2473 N2476 1.384 . S
C2474 H2465 0.929 . S
C2474 C2466 1.378 . S
C2474 C2469 1.350 . S
C2475 H2462 0.929 . S
C2475 C2467 1.433 . S
C2475 N2477 1.384 . S
N2476 C2472 1.427 . S
N2476 C2473 1.384 . S
N2477 C2469 1.427 . S
N2477 C2475 1.384 . S
H2478 C2484 0.937 . S
H2479 C2488 0.930 . S
H2480 C2493 0.929 . S
H2481 C2491 0.929 1_455 S
H2482 C2486 0.929 . S
H2483 C2492 0.913 1_455 S
C2484 H2478 0.937 . S
C2484 C2485 1.363 1_455 S
C2484 C2492 1.369 1_455 S
C2485 C2484 1.363 1_655 S
C2485 C2493 1.433 . S
C2486 H2482 0.929 . S
C2486 C2488 1.378 . S
C2486 C2490 1.350 . S
C2487 C2490 1.463 . S
C2487 C2492 1.375 . S
C2487 N2495 1.427 . S
C2488 H2479 0.930 . S
C2488 C2486 1.378 . S
C2488 C2489 1.367 . S
C2489 C2488 1.367 . S
C2489 C2491 1.433 . S
C2490 C2486 1.350 . S
C2490 C2487 1.463 . S
C2490 N2494 1.427 . S
C2491 H2481 0.929 1_655 S
C2491 C2489 1.433 . S
C2491 N2494 1.384 . S
C2492 H2483 0.913 1_655 S
C2492 C2484 1.369 1_655 S
C2492 C2487 1.375 . S
C2493 H2480 0.929 . S
C2493 C2485 1.433 . S
C2493 N2495 1.384 . S
N2494 C2490 1.427 . S
N2494 C2491 1.384 . S
N2495 C2487 1.427 . S
N2495 C2493 1.384 . S
H2496 C2502 0.930 . S
H2497 C2506 0.930 . S
H2498 C2511 0.929 . S
H2499 C2509 0.929 . S
H2500 C2504 0.929 . S
H2501 C2510 0.929 . S
C2502 H2496 0.930 . S
C2502 C2503 1.367 . S
C2502 C2510 1.378 . S
C2503 C2502 1.367 . S
C2503 C2511 1.433 . S
C2504 H2500 0.929 . S
C2504 C2506 1.378 . S
C2504 C2508 1.350 . S
C2505 C2508 1.463 . S
C2505 C2510 1.350 . S
C2505 N2513 1.427 . S
C2506 H2497 0.930 . S
C2506 C2504 1.378 . S
C2506 C2507 1.367 . S
C2507 C2506 1.367 . S
C2507 C2509 1.433 . S
C2508 C2504 1.350 . S
C2508 C2505 1.463 . S
C2508 N2512 1.427 . S
C2509 H2499 0.929 . S
C2509 C2507 1.433 . S
C2509 N2512 1.384 . S
C2510 H2501 0.929 . S
C2510 C2502 1.378 . S
C2510 C2505 1.350 . S
C2511 H2498 0.929 . S
C2511 C2503 1.433 . S
C2511 N2513 1.384 . S
N2512 C2508 1.427 . S
N2512 C2509 1.384 . S
N2513 C2505 1.427 . S
N2513 C2511 1.384 . S
H2514 C2520 0.930 . S
H2515 C2524 0.930 . S
H2516 C2529 0.929 . S
H2517 C2527 0.929 . S
H2518 C2522 0.929 . S
H2519 C2528 0.929 . S
C2520 H2514 0.930 . S
C2520 C2521 1.367 . S
C2520 C2528 1.378 . S
C2521 C2520 1.367 . S
C2521 C2529 1.433 . S
C2522 H2518 0.929 . S
C2522 C2524 1.378 . S
C2522 C2526 1.350 . S
C2523 C2526 1.463 . S
C2523 C2528 1.350 . S
C2523 N2531 1.427 . S
C2524 H2515 0.930 . S
C2524 C2522 1.378 . S
C2524 C2525 1.367 . S
C2525 C2524 1.367 . S
C2525 C2527 1.433 . S
C2526 C2522 1.350 . S
C2526 C2523 1.463 . S
C2526 N2530 1.427 . S
C2527 H2517 0.929 . S
C2527 C2525 1.433 . S
C2527 N2530 1.384 . S
C2528 H2519 0.929 . S
C2528 C2520 1.378 . S
C2528 C2523 1.350 . S
C2529 H2516 0.929 . S
C2529 C2521 1.433 . S
C2529 N2531 1.384 . S
N2530 C2526 1.427 . S
N2530 C2527 1.384 . S
N2531 C2523 1.427 . S
N2531 C2529 1.384 . S
H2532 C2538 0.930 . S
H2533 C2542 0.930 1_565 S
H2534 C2547 0.929 . S
H2535 C2545 0.929 . S
H2536 C2540 0.929 1_565 S
H2537 C2546 0.929 . S
C2538 H2532 0.930 . S
C2538 C2539 1.367 . S
C2538 C2546 1.378 . S
C2539 C2538 1.367 . S
C2539 C2547 1.433 1_545 S
C2540 H2536 0.929 1_545 S
C2540 C2542 1.378 . S
C2540 C2544 1.350 . S
C2541 C2544 1.463 . S
C2541 C2546 1.350 . S
C2541 N2549 1.389 1_545 S
C2542 H2533 0.930 1_545 S
C2542 C2540 1.378 . S
C2542 C2543 1.367 . S
C2543 C2542 1.367 . S
C2543 C2545 1.433 . S
C2544 C2540 1.350 . S
C2544 C2541 1.463 . S
C2544 N2548 1.427 . S
C2545 H2535 0.929 . S
C2545 C2543 1.433 . S
C2545 N2548 1.384 . S
C2546 H2537 0.929 . S
C2546 C2538 1.378 . S
C2546 C2541 1.350 . S
C2547 H2534 0.929 . S
C2547 C2539 1.433 1_565 S
C2547 N2549 1.396 . S
N2548 C2544 1.427 . S
N2548 C2545 1.384 . S
N2549 C2541 1.389 1_565 S
N2549 C2547 1.396 . S
H2550 C2556 0.930 1_545 S
H2551 C2560 0.930 . S
H2552 C2565 0.929 . S
H2553 C2563 0.929 . S
H2554 C2558 0.929 . S
H2555 C2564 0.883 1_545 S
C2556 H2550 0.930 1_565 S
C2556 C2557 1.367 . S
C2556 C2564 1.384 . S
C2557 C2556 1.367 . S
C2557 C2565 1.433 . S
C2558 H2554 0.929 . S
C2558 C2560 1.378 . S
C2558 C2562 1.350 . S
C2559 C2562 1.463 . S
C2559 C2564 1.392 . S
C2559 N2567 1.427 . S
C2560 H2551 0.930 . S
C2560 C2558 1.378 . S
C2560 C2561 1.367 . S
C2561 C2560 1.367 . S
C2561 C2563 1.433 1_565 S
C2562 C2558 1.350 . S
C2562 C2559 1.463 . S
C2562 N2566 1.427 1_565 S
C2563 H2553 0.929 . S
C2563 C2561 1.433 1_545 S
C2563 N2566 1.384 . S
C2564 H2555 0.883 1_565 S
C2564 C2556 1.384 . S
C2564 C2559 1.392 . S
C2565 H2552 0.929 . S
C2565 C2557 1.433 . S
C2565 N2567 1.384 . S
N2566 C2562 1.427 1_545 S
N2566 C2563 1.384 . S
N2567 C2559 1.427 . S
N2567 C2565 1.384 . S
H2568 C2574 0.930 . S
H2569 C2578 0.930 . S
H2570 C2583 0.929 . S
H2571 C2581 0.929 . S
H2572 C2576 0.929 . S
H2573 C2582 0.929 . S
C2574 H2568 0.930 . S
C2574 C2575 1.367 . S
C2574 C2582 1.378 . S
C2575 C2574 1.367 . S
C2575 C2583 1.433 . S
C2576 H2572 0.929 . S
C2576 C2578 1.378 . S
C2576 C2580 1.350 . S
C2577 C2580 1.463 . S
C2577 C2582 1.350 . S
C2577 N2585 1.427 . S
C2578 H2569 0.930 . S
C2578 C2576 1.378 . S
C2578 C2579 1.367 . S
C2579 C2578 1.367 . S
C2579 C2581 1.433 . S
C2580 C2576 1.350 . S
C2580 C2577 1.463 . S
C2580 N2584 1.427 . S
C2581 H2571 0.929 . S
C2581 C2579 1.433 . S
C2581 N2584 1.384 . S
C2582 H2573 0.929 . S
C2582 C2574 1.378 . S
C2582 C2577 1.350 . S
C2583 H2570 0.929 . S
C2583 C2575 1.433 . S
C2583 N2585 1.384 . S
N2584 C2580 1.427 . S
N2584 C2581 1.384 . S
N2585 C2577 1.427 . S
N2585 C2583 1.384 . S
H2586 C2592 0.938 . S
H2587 C2596 0.930 . S
H2588 C2601 0.929 . S
H2589 C2599 0.929 . S
H2590 C2594 0.929 . S
H2591 C2600 0.929 1_554 S
C2592 H2586 0.938 . S
C2592 C2593 1.367 . S
C2592 C2600 1.378 . S
C2593 C2592 1.367 . S
C2593 C2601 1.433 . S
C2594 H2590 0.929 . S
C2594 C2596 1.378 . S
C2594 C2598 1.350 . S
C2595 C2598 1.463 . S
C2595 C2600 1.350 . S
C2595 N2603 1.427 . S
C2596 H2587 0.930 . S
C2596 C2594 1.378 . S
C2596 C2597 1.367 . S
C2597 C2596 1.367 . S
C2597 C2599 1.433 1_556 S
C2598 C2594 1.350 . S
C2598 C2595 1.463 . S
C2598 N2602 1.424 . S
C2599 H2589 0.929 . S
C2599 C2597 1.433 1_554 S
C2599 N2602 1.384 1_554 S
C2600 H2591 0.929 1_556 S
C2600 C2592 1.378 . S
C2600 C2595 1.350 . S
C2601 H2588 0.929 . S
C2601 C2593 1.433 . S
C2601 N2603 1.384 . S
N2602 C2598 1.424 . S
N2602 C2599 1.384 1_556 S
N2603 C2595 1.427 . S
N2603 C2601 1.384 . S
H2604 C2610 0.930 . S
H2605 C2614 0.930 . S
H2606 C2619 0.929 . S
H2607 C2617 0.929 . S
H2608 C2612 0.929 . S
H2609 C2618 0.929 . S
C2610 H2604 0.930 . S
C2610 C2611 1.367 . S
C2610 C2618 1.378 . S
C2611 C2610 1.367 . S
C2611 C2619 1.433 . S
C2612 H2608 0.929 . S
C2612 C2614 1.378 . S
C2612 C2616 1.350 . S
C2613 C2616 1.463 . S
C2613 C2618 1.350 . S
C2613 N2621 1.427 . S
C2614 H2605 0.930 . S
C2614 C2612 1.378 . S
C2614 C2615 1.367 . S
C2615 C2614 1.367 . S
C2615 C2617 1.433 . S
C2616 C2612 1.350 . S
C2616 C2613 1.463 . S
C2616 N2620 1.427 . S
C2617 H2607 0.929 . S
C2617 C2615 1.433 . S
C2617 N2620 1.384 . S
C2618 H2609 0.929 . S
C2618 C2610 1.378 . S
C2618 C2613 1.350 . S
C2619 H2606 0.929 . S
C2619 C2611 1.433 . S
C2619 N2621 1.384 . S
N2620 C2616 1.427 . S
N2620 C2617 1.384 . S
N2621 C2613 1.427 . S
N2621 C2619 1.384 . S
H2622 C2628 0.930 . S
H2623 C2632 0.930 . S
H2624 C2637 0.929 1_556 S
H2625 C2635 0.929 . S
H2626 C2630 0.927 1_556 S
H2627 C2636 0.929 . S
C2628 H2622 0.930 . S
C2628 C2629 1.367 . S
C2628 C2636 1.378 . S
C2629 C2628 1.367 . S
C2629 C2637 1.433 . S
C2630 H2626 0.927 1_554 S
C2630 C2632 1.378 . S
C2630 C2634 1.350 . S
C2631 C2634 1.463 . S
C2631 C2636 1.350 . S
C2631 N2639 1.427 . S
C2632 H2623 0.930 . S
C2632 C2630 1.378 . S
C2632 C2633 1.367 . S
C2633 C2632 1.367 . S
C2633 C2635 1.433 . S
C2634 C2630 1.350 . S
C2634 C2631 1.463 . S
C2634 N2638 1.427 . S
C2635 H2625 0.929 . S
C2635 C2633 1.433 . S
C2635 N2638 1.384 . S
C2636 H2627 0.929 . S
C2636 C2628 1.378 . S
C2636 C2631 1.350 . S
C2637 H2624 0.929 1_554 S
C2637 C2629 1.433 . S
C2637 N2639 1.384 . S
N2638 C2634 1.427 . S
N2638 C2635 1.384 . S
N2639 C2631 1.427 . S
N2639 C2637 1.384 . S
H2640 C2646 0.930 . S
H2641 C2650 0.930 . S
H2642 C2655 0.929 . S
H2643 C2653 0.929 . S
H2644 C2648 0.929 . S
H2645 C2654 0.929 . S
C2646 H2640 0.930 . S
C2646 C2647 1.367 . S
C2646 C2654 1.378 . S
C2647 C2646 1.367 . S
C2647 C2655 1.433 . S
C2648 H2644 0.929 . S
C2648 C2650 1.378 . S
C2648 C2652 1.350 . S
C2649 C2652 1.463 . S
C2649 C2654 1.350 . S
C2649 N2657 1.427 . S
C2650 H2641 0.930 . S
C2650 C2648 1.378 . S
C2650 C2651 1.367 . S
C2651 C2650 1.367 . S
C2651 C2653 1.433 . S
C2652 C2648 1.350 . S
C2652 C2649 1.463 . S
C2652 N2656 1.427 . S
C2653 H2643 0.929 . S
C2653 C2651 1.433 . S
C2653 N2656 1.384 . S
C2654 H2645 0.929 . S
C2654 C2646 1.378 . S
C2654 C2649 1.350 . S
C2655 H2642 0.929 . S
C2655 C2647 1.433 . S
C2655 N2657 1.384 . S
N2656 C2652 1.427 . S
N2656 C2653 1.384 . S
N2657 C2649 1.427 . S
N2657 C2655 1.384 . S
H2658 C2664 0.930 . S
H2659 C2668 0.921 1_455 S
H2660 C2673 0.929 . S
H2661 C2671 0.929 . S
H2662 C2666 0.929 . S
H2663 C2672 0.929 . S
C2664 H2658 0.930 . S
C2664 C2665 1.367 . S
C2664 C2672 1.378 . S
C2665 C2664 1.367 . S
C2665 C2673 1.433 . S
C2666 H2662 0.929 . S
C2666 C2668 1.378 . S
C2666 C2670 1.350 . S
C2667 C2670 1.463 . S
C2667 C2672 1.350 . S
C2667 N2675 1.427 . S
C2668 H2659 0.921 1_655 S
C2668 C2666 1.378 . S
C2668 C2669 1.367 . S
C2669 C2668 1.367 . S
C2669 C2671 1.433 . S
C2670 C2666 1.350 . S
C2670 C2667 1.463 . S
C2670 N2674 1.427 . S
C2671 H2661 0.929 . S
C2671 C2669 1.433 . S
C2671 N2674 1.384 . S
C2672 H2663 0.929 . S
C2672 C2664 1.378 . S
C2672 C2667 1.350 . S
C2673 H2660 0.929 . S
C2673 C2665 1.433 . S
C2673 N2675 1.384 . S
N2674 C2670 1.427 . S
N2674 C2671 1.384 . S
N2675 C2667 1.427 . S
N2675 C2673 1.384 . S
H2676 C2682 0.930 . S
H2677 C2686 0.930 . S
H2678 C2691 0.929 . S
H2679 C2689 0.929 . S
H2680 C2684 0.929 . S
H2681 C2690 0.929 . S
C2682 H2676 0.930 . S
C2682 C2683 1.367 . S
C2682 C2690 1.378 . S
C2683 C2682 1.367 . S
C2683 C2691 1.433 . S
C2684 H2680 0.929 . S
C2684 C2686 1.378 . S
C2684 C2688 1.350 . S
C2685 C2688 1.463 . S
C2685 C2690 1.350 . S
C2685 N2693 1.427 . S
C2686 H2677 0.930 . S
C2686 C2684 1.378 . S
C2686 C2687 1.367 . S
C2687 C2686 1.367 . S
C2687 C2689 1.433 . S
C2688 C2684 1.350 . S
C2688 C2685 1.463 . S
C2688 N2692 1.427 . S
C2689 H2679 0.929 . S
C2689 C2687 1.433 . S
C2689 N2692 1.384 . S
C2690 H2681 0.929 . S
C2690 C2682 1.378 . S
C2690 C2685 1.350 . S
C2691 H2678 0.929 . S
C2691 C2683 1.433 . S
C2691 N2693 1.384 . S
N2692 C2688 1.427 . S
N2692 C2689 1.384 . S
N2693 C2685 1.427 . S
N2693 C2691 1.384 . S
H2694 C2700 0.930 . S
H2695 C2704 0.930 . S
H2696 C2709 0.929 . S
H2697 C2707 0.929 . S
H2698 C2702 0.929 . S
H2699 C2708 0.929 . S
C2700 H2694 0.930 . S
C2700 C2701 1.367 . S
C2700 C2708 1.378 . S
C2701 C2700 1.367 . S
C2701 C2709 1.433 1_455 S
C2702 H2698 0.929 . S
C2702 C2704 1.378 . S
C2702 C2706 1.350 1_655 S
C2703 C2706 1.463 . S
C2703 C2708 1.350 . S
C2703 N2711 1.427 1_455 S
C2704 H2695 0.930 . S
C2704 C2702 1.378 . S
C2704 C2705 1.367 1_655 S
C2705 C2704 1.367 1_455 S
C2705 C2707 1.433 . S
C2706 C2702 1.350 1_455 S
C2706 C2703 1.463 . S
C2706 N2710 1.427 . S
C2707 H2697 0.929 . S
C2707 C2705 1.433 . S
C2707 N2710 1.384 . S
C2708 H2699 0.929 . S
C2708 C2700 1.378 . S
C2708 C2703 1.350 . S
C2709 H2696 0.929 . S
C2709 C2701 1.433 1_655 S
C2709 N2711 1.384 . S
N2710 C2706 1.427 . S
N2710 C2707 1.384 . S
N2711 C2703 1.427 1_655 S
N2711 C2709 1.384 . S
C1427 C1403 1.664 1_455 S
C1423 C15 1.750 . S
C1445 C1346 1.396 . S
C1441 C55 1.411 . S
C1463 C1384 1.025 . S
C1459 C95 1.117 . S
C1481 C1365 1.545 . S
C1477 C135 1.572 . S
C1499 C1232 1.651 1_545 S
C1495 C175 1.752 . S
C1513 C215 1.573 . S
C1517 C1251 1.547 . S
C1535 C1194 1.403 . S
C1531 C255 1.403 . S
C1549 C295 1.117 . S
C1553 C1213 1.024 . S
C1571 C1327 1.659 1_554 S
C1567 C335 1.750 . S
C1585 C375 1.573 . S
C1589 C1289 1.552 . S
C1603 C415 1.404 . S
C1607 C1270 1.403 . S
C1625 C1308 1.023 . S
C1621 C455 1.117 . S
C1643 C1175 1.670 1_655 S
C1639 C495 1.748 . S
C1657 C535 1.397 . S
C1661 C1118 1.404 . S
C1679 C1156 0.996 . S
C1675 C575 1.112 . S
C1693 C615 1.562 . S
C1697 C1137 1.563 . S
C1715 C1004 1.667 1_565 S
C1711 C655 1.749 . S
C1733 C1023 1.553 . S
C1729 C695 1.566 . S
C1747 C735 1.403 . S
C1751 C966 1.397 . S
C1765 C775 1.117 . S
C1769 C985 1.029 . S
C1783 C815 1.750 . S
C1787 C1099 1.663 1_556 S
C1801 C855 1.564 . S
C1805 C1061 1.564 . S
C1823 C1042 1.402 . S
C1819 C895 1.399 . S
C1837 C935 1.117 . S
C1841 C1080 1.011 . S
C1859 C962 1.537 . S
C1855 C21 1.623 . S
C1877 C981 1.606 . S
C1873 C61 1.754 . S
C1891 C101 0.988 . S
C1895 C1000 0.961 . S
C1909 C141 1.123 . S
C1913 C1019 1.044 . S
C1931 C1038 1.552 . S
C1927 C181 1.623 . S
C1945 C221 1.126 . S
C1949 C1057 1.042 . S
C1967 C1076 1.619 . S
C1963 C261 1.762 . S
C1985 C1095 0.960 . S
C1981 C301 0.986 . S
C2003 C1114 1.547 . S
C1999 C341 1.624 . S
C2017 C381 1.125 . S
C2021 C1133 1.063 . S
C2035 C421 1.763 . S
C2039 C1152 1.621 . S
C2053 C461 0.984 . S
C2057 C1171 0.978 . S
C2071 C501 1.580 . S
C2075 C1190 1.550 . S
C2089 C541 1.624 . S
C2093 C1209 1.607 . S
C2107 C581 0.985 . S
C2111 C1228 0.978 . S
C2125 C621 1.077 . S
C2129 C1247 1.037 . S
C2143 C661 1.579 . S
C2147 C1266 1.549 . S
C2165 C1285 1.052 . S
C2161 C701 1.079 . S
C2183 C1304 1.623 . S
C2179 C741 1.635 . S
C2201 C1323 0.957 . S
C2197 C781 0.968 . S
C2219 C1342 1.552 . S
C2215 C821 1.582 . S
C2233 C861 1.076 . S
C2237 C1361 1.036 . S
C2251 C901 1.638 . S
C2255 C1380 1.619 . S
C2269 C941 0.973 . S
C2273 C1399 0.970 . S
C2287 C2 1.669 . S
C2291 C1123 1.603 . S
C2309 C1180 1.912 . S
C2305 C42 1.938 . S
C2323 C82 1.624 . S
C2327 C1142 1.583 . S
C2345 C1161 1.529 . S
C2341 C122 1.608 . S
C2359 C162 1.670 . S
C2363 C971 1.607 . S
C2377 C202 1.607 . S
C2381 C990 1.527 . S
C2395 C242 1.936 . S
C2399 C1009 1.906 . S
C2413 C282 1.625 . S
C2417 C1028 1.581 . S
C2435 C1047 1.616 . S
C2431 C322 1.668 . S
C2453 C1085 1.527 . S
C2449 C362 1.608 . S
C2467 C402 1.939 . S
C2471 C1104 1.909 . S
C2485 C442 1.623 . S
C2489 C1066 1.582 . S
C2507 C1351 1.583 . S
C2503 C482 1.648 . S
C2525 C1408 1.781 . S
C2521 C522 1.860 . S
C2539 C562 1.622 . S
C2543 C1370 1.487 . S
C2561 C1389 1.475 . S
C2557 C602 1.562 . S
C2575 C642 1.650 . S
C2579 C1199 1.582 . S
C2593 C682 1.564 . S
C2597 C1218 1.474 . S
C2611 C722 1.870 . S
C2615 C1237 1.794 . S
C2633 C1256 1.486 . S
C2629 C762 1.621 . S
C2651 C1275 1.572 . S
C2647 C802 1.644 . S
C2669 C1313 1.491 . S
C2665 C842 1.571 . S
C2683 C882 1.870 . S
C2687 C1332 1.794 . S
C2705 C1294 1.500 . S
C2701 C922 1.624 . S
