# Generated by pormake.
# Topology tsx, (6,3)-cn, num edge types: 1
# Building blocks:
#     Node 0, Type 0, BuildingBlock: CIFDUS_clean_sbu_1, # of connection points: 6
#     Node 1, Type 0, BuildingBlock: CIFDUS_clean_sbu_1, # of connection points: 6
#     Node 2, Type 1, BuildingBlock: VETTIZ_charged_linker_0, # of connection points: 3
#     Node 3, Type 1, BuildingBlock: VETTIZ_charged_linker_0, # of connection points: 3
#     Node 4, Type 1, BuildingBlock: VETTIZ_charged_linker_0, # of connection points: 3
#     Node 5, Type 1, BuildingBlock: VETTIZ_charged_linker_0, # of connection points: 3
#     Edge 6, Type (0, 1), BuildingBlock: ZUJKAS_clean_linker_0, # of connection points: 2
#     Edge 7, Type (0, 1), BuildingBlock: ZUJKAS_clean_linker_0, # of connection points: 2
#     Edge 8, Type (0, 1), BuildingBlock: ZUJKAS_clean_linker_0, # of connection points: 2
#     Edge 9, Type (0, 1), BuildingBlock: ZUJKAS_clean_linker_0, # of connection points: 2
#     Edge 10, Type (0, 1), BuildingBlock: ZUJKAS_clean_linker_0, # of connection points: 2
#     Edge 11, Type (0, 1), BuildingBlock: ZUJKAS_clean_linker_0, # of connection points: 2
#     Edge 12, Type (0, 1), BuildingBlock: ZUJKAS_clean_linker_0, # of connection points: 2
#     Edge 13, Type (0, 1), BuildingBlock: ZUJKAS_clean_linker_0, # of connection points: 2
#     Edge 14, Type (0, 1), BuildingBlock: ZUJKAS_clean_linker_0, # of connection points: 2
#     Edge 15, Type (0, 1), BuildingBlock: ZUJKAS_clean_linker_0, # of connection points: 2
#     Edge 16, Type (0, 1), BuildingBlock: ZUJKAS_clean_linker_0, # of connection points: 2
#     Edge 17, Type (0, 1), BuildingBlock: ZUJKAS_clean_linker_0, # of connection points: 2
# Relax obj value: 0.132
# Max RMSD: 0.158
# Mean RMSD: 0.122
data_MOF--net-tsx--node1-CIFDUS_clean_sbu_1--node2-VETTIZ_charged_linker_0--edge1-ZUJKAS_clean_linker_0
_symmetry_space_group_name_H-M    P1
_symmetry_Int_Tables_number       1
_symmetry_cell_setting            triclinic
loop_
_symmetry_equiv_pos_as_xyz
'x, y, z'
_cell_length_a     26.691694
_cell_length_b     33.508611
_cell_length_c     56.116711
_cell_angle_alpha  96.903174
_cell_angle_beta   92.166308
_cell_angle_gamma 91.066791
loop_
_atom_site_label
_atom_site_type_symbol
_atom_site_fract_x
_atom_site_fract_y
_atom_site_fract_z
_atom_type_partial_charge
O0 O 0.02385 0.09396 0.01122 0.0
Mn1 Mn 0.06355 0.03974 0.00744 0.0
O2 O 0.9437 0.07831 -0.00067 0.0
Mn3 Mn 0.95707 0.02814 0.98383 0.0
O4 O 0.10287 0.98532 0.0034 0.0
O5 O 0.12772 0.07336 0.01217 0.0
Mn6 Mn 0.16961 0.05019 0.03103 0.0
O7 O 0.06045 0.03724 0.04444 0.0
O8 O 0.18305 0.00047 0.01509 0.0
O9 O 0.06656 0.04171 0.97028 0.0
O10 O 0.98826 0.02722 0.95489 0.0
O11 O 0.20316 0.09532 0.02394 0.0
O12 O 0.13881 0.0497 0.06009 0.0
C13 C 0.96587 0.97845 0.00386 0.0
C14 C 0.97752 0.10336 0.00858 0.0
C15 C 0.14911 0.97561 0.00581 0.0
C16 C 0.16218 0.10105 0.01187 0.0
C17 C 0.09228 0.0423 0.06241 0.0
C18 C 0.03467 0.03475 0.95238 0.0
O19 O 0.99957 0.00636 0.00291 0.0
O20 O 0.92471 0.98285 0.99163 0.0
O21 O 0.52428 0.59586 0.51199 0.0
Mn22 Mn 0.56345 0.54172 0.50815 0.0
O23 O 0.44602 0.58181 0.49636 0.0
Mn24 Mn 0.45914 0.53064 0.48205 0.0
O25 O 0.60278 0.48743 0.5042 0.0
O26 O 0.62726 0.5748 0.51408 0.0
Mn27 Mn 0.66924 0.552 0.53291 0.0
O28 O 0.55841 0.5382 0.54501 0.0
O29 O 0.68294 0.50286 0.51615 0.0
O30 O 0.56931 0.54467 0.47117 0.0
O31 O 0.49322 0.52756 0.45384 0.0
O32 O 0.70075 0.59895 0.52671 0.0
O33 O 0.63652 0.54989 0.56135 0.0
C34 C 0.46449 0.48178 0.50306 0.0
C35 C 0.47895 0.60591 0.50742 0.0
C36 C 0.64913 0.478 0.50661 0.0
C37 C 0.65988 0.60379 0.51437 0.0
C38 C 0.58977 0.54261 0.5632 0.0
C39 C 0.53968 0.53618 0.45254 0.0
O40 O 0.49909 0.50908 0.50245 0.0
O41 O 0.42464 0.48632 0.4899 0.0
C42 C 0.12938 0.93161 0.45958 0.0
C43 C 0.1613 0.90357 0.44748 0.0
C44 C 0.1614 0.89999 0.42217 0.0
C45 C 0.09842 0.95092 0.42138 0.0
C46 C 0.09837 0.95493 0.44619 0.0
C47 C 0.0621 0.98621 0.45599 0.0
H48 H 0.8998 0.13257 0.43362 0.0
C49 C 0.06225 0.97931 0.41275 0.0
C50 C 0.04062 0.00017 0.43296 0.0
H51 H 0.93994 0.0955 0.50268 0.0
H52 H 0.99211 0.04303 0.48345 0.0
H53 H 1.00777 0.12639 0.41155 0.0
H54 H 0.88012 0.04577 0.40782 0.0
H55 H 0.90685 0.03668 0.37968 0.0
H56 H 0.88335 0.08592 0.38946 0.0
H57 H 0.95071 0.13364 0.39481 0.0
H58 H 1.00066 0.10421 0.3816 0.0
C59 C 0.09248 0.02005 0.47163 0.0
C60 C 0.02175 0.96554 0.46971 0.0
C61 C 0.03883 0.98871 0.32294 0.0
C62 C 1.00956 0.0137 0.3098 0.0
C63 C 0.97812 0.04165 0.32225 0.0
C64 C 0.97634 0.04519 0.34729 0.0
C65 C 1.00637 0.02059 0.36023 0.0
C66 C 0.03673 0.99277 0.34808 0.0
C67 C 0.06639 0.96964 0.365 0.0
C68 C 0.04839 0.98803 0.38923 0.0
C69 C 1.01341 0.01783 0.38623 0.0
C70 C 0.12291 0.97868 0.36218 0.0
C71 C 0.05067 0.92465 0.35942 0.0
C72 C 0.92004 0.11319 0.44457 0.0
C73 C 0.91659 0.11818 0.46956 0.0
C74 C 0.94253 0.0921 0.48333 0.0
C75 C 0.97288 0.06194 0.47214 0.0
C76 C 0.97684 0.05789 0.44697 0.0
C77 C 0.94975 0.08294 0.43371 0.0
C78 C 0.95594 0.07367 0.40722 0.0
C79 C 0.99211 0.03937 0.40654 0.0
C80 C 1.00493 0.03036 0.42981 0.0
C81 C 0.97967 0.11134 0.39809 0.0
C82 C 0.90404 0.06004 0.39523 0.0
H83 H 0.13218 0.91893 0.38995 0.0
H84 H 0.12801 0.93494 0.47897 0.0
H85 H 1.01379 0.93413 0.46137 0.0
H86 H 0.98526 0.98048 0.46915 0.0
H87 H 0.03419 0.96442 0.48873 0.0
H88 H 0.12524 0.02971 0.46187 0.0
H89 H 0.10694 0.00933 0.4885 0.0
H90 H 0.0707 0.04727 0.47634 0.0
H91 H 0.06374 0.96719 0.31393 0.0
H92 H 0.95466 0.06083 0.31257 0.0
H93 H 0.95185 0.06726 0.35558 0.0
H94 H 0.12913 0.00969 0.3575 0.0
H95 H 0.1385 0.9575 0.34772 0.0
H96 H 0.14561 0.97782 0.37898 0.0
H97 H 1.00968 0.92126 0.35506 0.0
H98 H 0.05723 0.90755 0.37483 0.0
H99 H 0.07049 0.91001 0.34376 0.0
H100 H 0.18618 0.87933 0.41236 0.0
C101 C 0.13018 0.92329 0.40913 0.0
C102 C 0.14326 0.13985 0.55462 0.0
C103 C 0.17597 0.16855 0.56792 0.0
C104 C 0.17919 0.17052 0.59309 0.0
C105 C 0.11815 0.1161 0.59177 0.0
C106 C 0.11417 0.11412 0.56701 0.0
C107 C 0.07564 0.08256 0.5564 0.0
H108 H 0.90989 0.9336 0.57606 0.0
C109 C 0.08378 0.08565 0.59942 0.0
C110 C 0.058 0.06595 0.57892 0.0
H111 H 0.94156 0.97422 0.50788 0.0
H112 H 0.99979 0.02512 0.528 0.0
H113 H 0.02281 0.93598 0.59645 0.0
H114 H 0.90395 0.02097 0.60539 0.0
H115 H 0.93534 0.0215 0.6335 0.0
H116 H 0.90442 0.97576 0.6196 0.0
H117 H 0.96955 0.92829 0.61409 0.0
H118 H 0.02456 0.95616 0.62684 0.0
C119 C 0.10264 0.05056 0.53973 0.0
C120 C 0.03317 0.1036 0.54353 0.0
C121 C 0.08422 0.06708 0.68782 0.0
C122 C 0.05749 0.04136 0.70107 0.0
C123 C 0.02192 0.01379 0.68878 0.0
C124 C 1.01332 0.0119 0.66383 0.0
C125 C 0.0405 0.03787 0.65089 0.0
C126 C 0.07502 0.06492 0.66299 0.0
C127 C 0.1001 0.09058 0.64658 0.0
C128 C 0.07533 0.07424 0.6225 0.0
C129 C 0.04059 0.04338 0.62506 0.0
C130 C 0.15706 0.08209 0.64766 0.0
C131 C 0.08649 0.13502 0.6543 0.0
C132 C 0.92961 0.95316 0.56535 0.0
C133 C 0.92174 0.94933 0.54027 0.0
C134 C 0.94715 0.97638 0.5272 0.0
C135 C 0.9811 0.00576 0.53891 0.0
C136 C 0.98945 0.00834 0.564 0.0
C137 C 0.96327 0.98247 0.57672 0.0
C138 C 0.97577 0.98933 0.60321 0.0
C139 C 1.014 0.0235 0.60449 0.0
C140 C 0.02231 0.03466 0.5815 0.0
C141 C 0.99912 0.9505 0.61077 0.0
C142 C 0.92752 0.00231 0.6163 0.0
H143 H 0.15534 0.14775 0.6242 0.0
H144 H 0.13984 0.13804 0.53523 0.0
H145 H 0.02613 0.13376 0.55328 0.0
H146 H 0.99689 0.08709 0.54295 0.0
H147 H 0.043 0.10782 0.52491 0.0
H148 H 0.13713 0.04084 0.54896 0.0
H149 H 0.11398 0.06301 0.52322 0.0
H150 H 0.07957 0.02309 0.53442 0.0
H151 H 0.11222 0.08832 0.69652 0.0
H152 H 1.00014 0.994 0.69852 0.0
H153 H 0.98574 0.99034 0.65559 0.0
H154 H 0.16361 0.04982 0.64935 0.0
H155 H 0.1763 0.10017 0.66337 0.0
H156 H 0.17607 0.08768 0.63121 0.0
H157 H 0.04997 0.13717 0.66326 0.0
H158 H 0.08122 0.15236 0.63883 0.0
H159 H 0.11535 0.15052 0.66711 0.0
H160 H 0.20437 0.19217 0.60362 0.0
C161 C 0.15067 0.14456 0.60503 0.0
C162 C 0.64388 0.4402 0.96047 0.0
C163 C 0.67964 0.41581 0.94836 0.0
C164 C 0.6792 0.41182 0.92308 0.0
C165 C 0.60915 0.45659 0.92221 0.0
C166 C 0.60942 0.46073 0.94705 0.0
C167 C 0.57074 0.49003 0.95681 0.0
H168 H 0.39719 0.62812 0.93379 0.0
C169 C 0.56978 0.48232 0.91354 0.0
C170 C 0.54692 0.50215 0.93372 0.0
H171 H 0.44266 0.59526 0.00324 0.0
H172 H 0.49665 0.54386 0.98422 0.0
H173 H 0.50398 0.62525 0.91091 0.0
H174 H 0.38159 0.53997 0.90923 0.0
H175 H 0.40805 0.53036 0.88105 0.0
H176 H 0.38165 0.57891 0.88994 0.0
H177 H 0.44547 0.62974 0.89472 0.0
H178 H 0.49648 0.60215 0.88117 0.0
C179 C 0.59881 0.52575 0.97189 0.0
C180 C 0.53306 0.46769 0.97113 0.0
C181 C 0.54225 0.48857 0.82356 0.0
C182 C 0.51022 0.51149 0.81033 0.0
C183 C 0.47657 0.53758 0.82273 0.0
C184 C 0.4753 0.5414 0.84779 0.0
C185 C 0.50814 0.51902 0.86082 0.0
C186 C 0.54063 0.49291 0.84873 0.0
C187 C 0.57319 0.47212 0.86575 0.0
C188 C 0.5543 0.48975 0.88996 0.0
C189 C 0.51647 0.51726 0.88687 0.0
C190 C 0.62864 0.48449 0.86259 0.0
C191 C 0.56176 0.42635 0.86061 0.0
C192 C 0.41897 0.60989 0.94487 0.0
C193 C 0.41655 0.61583 0.9699 0.0
C194 C 0.44449 0.59118 0.98385 0.0
C195 C 0.47596 0.56169 0.97278 0.0
C196 C 0.47917 0.55695 0.94756 0.0
C197 C 0.44991 0.58039 0.93415 0.0
C198 C 0.45557 0.57057 0.90766 0.0
C199 C 0.49415 0.53802 0.90714 0.0
C200 C 0.50855 0.53024 0.93049 0.0
C201 C 0.47611 0.60879 0.89788 0.0
C202 C 0.40419 0.55435 0.89619 0.0
H203 H 0.64583 0.42734 0.8908 0.0
H204 H 0.64358 0.44391 0.9799 0.0
H205 H 0.5271 0.43594 0.96298 0.0
H206 H 0.49544 0.48087 0.97101 0.0
H207 H 0.54688 0.4674 0.99004 0.0
H208 H 0.62935 0.5375 0.96151 0.0
H209 H 0.61614 0.51604 0.98847 0.0
H210 H 0.57463 0.55137 0.97706 0.0
H211 H 0.5689 0.46854 0.81459 0.0
H212 H 0.45102 0.55512 0.81298 0.0
H213 H 0.44907 0.56207 0.85602 0.0
H214 H 0.63162 0.51488 0.85657 0.0
H215 H 0.64646 0.46305 0.84899 0.0
H216 H 0.65143 0.48709 0.87959 0.0
H217 H 0.52083 0.42037 0.85714 0.0
H218 H 0.57201 0.4099 0.87592 0.0
H219 H 0.58126 0.41292 0.84453 0.0
H220 H 0.70597 0.39284 0.91339 0.0
C221 C 0.6441 0.4318 0.90999 0.0
C222 C 0.64774 0.63711 0.05593 0.0
C223 C 0.68161 0.66483 0.06927 0.0
C224 C 0.68491 0.66644 0.09442 0.0
C225 C 0.62106 0.61404 0.09301 0.0
C226 C 0.61733 0.61221 0.06826 0.0
C227 C 0.57754 0.58178 0.05757 0.0
H228 H 0.392 0.44808 0.07781 0.0
C229 C 0.58445 0.58516 0.10062 0.0
C230 C 0.55793 0.56633 0.08007 0.0
H231 H 0.43663 0.47863 0.00898 0.0
H232 H 0.50116 0.52458 0.0288 0.0
H233 H 0.50192 0.43886 0.09819 0.0
H234 H 0.40031 0.53736 0.10677 0.0
H235 H 0.42853 0.53284 0.13512 0.0
H236 H 0.39085 0.49164 0.11989 0.0
H237 H 0.44978 0.43891 0.11745 0.0
H238 H 0.50991 0.46103 0.12806 0.0
C239 C 0.60367 0.54855 0.04142 0.0
C240 C 0.53704 0.6039 0.04411 0.0
C241 C 0.57967 0.56877 0.18921 0.0
C242 C 0.55031 0.5448 0.20242 0.0
C243 C 0.51228 0.51956 0.19021 0.0
C244 C 0.50414 0.51791 0.16524 0.0
C245 C 0.53424 0.54184 0.15225 0.0
C246 C 0.571 0.56684 0.16435 0.0
C247 C 0.59898 0.59059 0.1479 0.0
C248 C 0.57385 0.57503 0.12376 0.0
C249 C 0.53597 0.54661 0.12636 0.0
C250 C 0.65493 0.57898 0.14936 0.0
C251 C 0.58908 0.63588 0.15523 0.0
C252 C 0.41524 0.46505 0.067 0.0
C253 C 0.40872 0.46033 0.04188 0.0
C254 C 0.44084 0.48198 0.0284 0.0
C255 C 0.47823 0.50858 0.03995 0.0
C256 C 0.48406 0.51305 0.06522 0.0
C257 C 0.45296 0.49102 0.07818 0.0
C258 C 0.46532 0.49762 0.10468 0.0
C259 C 0.50824 0.52799 0.10578 0.0
C260 C 0.51922 0.53736 0.08267 0.0
C261 C 0.48233 0.45712 0.11274 0.0
C262 C 0.41893 0.51556 0.11748 0.0
H263 H 0.65979 0.64419 0.12546 0.0
H264 H 0.64435 0.63553 0.03654 0.0
H265 H 0.52956 0.63369 0.05421 0.0
H266 H 0.50054 0.58765 0.04218 0.0
H267 H 0.54926 0.60902 0.02598 0.0
H268 H 0.6373 0.53814 0.05102 0.0
H269 H 0.61632 0.56024 0.02491 0.0
H270 H 0.57964 0.52158 0.03623 0.0
H271 H 0.60856 0.58904 0.19807 0.0
H272 H 0.48928 0.5006 0.19995 0.0
H273 H 0.47482 0.49796 0.15701 0.0
H274 H 0.65847 0.54639 0.15103 0.0
H275 H 0.67493 0.59601 0.16522 0.0
H276 H 0.67517 0.58355 0.13308 0.0
H277 H 0.55286 0.6403 0.16428 0.0
H278 H 0.58532 0.65294 0.13957 0.0
H279 H 0.61909 0.65018 0.16784 0.0
H280 H 0.71098 0.68731 0.10497 0.0
C281 C 0.65507 0.64128 0.1063 0.0
H282 H 0.10163 0.1629 0.02591 0.0
H283 H 0.12219 0.23342 0.02212 0.0
H284 H 0.23762 0.19544 0.97317 0.0
H285 H 0.21639 0.12541 0.97668 0.0
H286 H 0.2145 0.25756 0.03946 0.0
H287 H 0.19475 0.29684 0.94683 0.0
H288 H 0.16183 0.25432 0.95644 0.0
H289 H 0.22607 0.25017 0.9479 0.0
C290 C 0.12892 0.16968 0.01308 0.0
C291 C 0.1568 0.13881 0.00122 0.0
C292 C 0.14121 0.21002 0.01116 0.0
C293 C 0.18155 0.21996 0.99734 0.0
C294 C 0.20572 0.18887 0.98352 0.0
H295 H 0.41863 0.39854 0.00577 0.0
H296 H 0.35746 0.34371 0.99286 0.0
C297 C 0.19345 0.14868 0.98548 0.0
C298 C 0.20561 0.26086 0.00146 0.0
H299 H 0.25696 0.3357 0.97302 0.0
C300 C 0.22271 0.27508 0.02498 0.0
C301 C 0.21731 0.28342 0.98254 0.0
C302 C 0.19859 0.27056 0.95705 0.0
C303 C 0.25284 0.31007 0.02999 0.0
C304 C 0.26542 0.33228 0.01103 0.0
C305 C 0.24734 0.31872 0.98755 0.0
C306 C 0.29897 0.36865 0.01545 0.0
C307 C 0.27303 0.32175 0.05544 0.0
C308 C 0.28568 0.40175 0.03155 0.0
C309 C 0.3206 0.43273 0.03908 0.0
C310 C 0.36932 0.43164 0.03034 0.0
C311 C 0.38133 0.40019 0.01274 0.0
C312 C 0.34644 0.36885 0.0054 0.0
H313 H 0.2701 0.29648 0.06648 0.0
H314 H 0.31294 0.33184 0.05573 0.0
H315 H 0.25107 0.34695 0.06403 0.0
H316 H 0.24895 0.40272 0.03915 0.0
H317 H 0.31015 0.45687 0.05245 0.0
H318 H 0.09496 0.9053 0.00791 0.0
H319 H 0.12895 0.83705 0.0055 0.0
H320 H 0.27272 0.88366 0.98781 0.0
H321 H 0.23948 0.95117 0.99027 0.0
H322 H 0.18471 0.78715 0.96778 0.0
H323 H 0.29873 0.83276 0.05148 0.0
H324 H 0.24537 0.8607 0.04254 0.0
H325 H 0.30503 0.86696 0.02941 0.0
C326 C 0.13339 0.90068 0.00291 0.0
C327 C 0.1647 0.9336 -0.0005 0.0
C328 C 0.15285 0.86181 0.00171 0.0
C329 C 0.20369 0.85558 0.99708 0.0
C330 C 0.23371 0.88797 0.99195 0.0
H331 H 0.435 0.69526 0.97014 0.0
H332 H 0.37746 0.75017 0.98056 0.0
C333 C 0.21455 0.92652 0.99324 0.0
C334 C 0.22712 0.8161 -0.00138 0.0
H335 H 0.32516 0.77403 0.02668 0.0
C336 C 0.21457 0.78379 0.98098 0.0
C337 C 0.26593 0.8118 0.01596 0.0
C338 C 0.27931 0.84477 0.03608 0.0
C339 C 0.2423 0.74829 0.97925 0.0
C340 C 0.28321 0.74514 0.99567 0.0
C341 C 0.29383 0.77656 0.0141 0.0
C342 C 0.31919 0.71196 0.9921 0.0
C343 C 0.22984 0.71537 0.95901 0.0
C344 C 0.30611 0.67249 0.99595 0.0
C345 C 0.33938 0.64111 0.99032 0.0
C346 C 0.38587 0.64896 0.98071 0.0
C347 C 0.39956 0.68868 0.97781 0.0
C348 C 0.36667 0.71993 0.98362 0.0
H349 H 0.1992 0.72368 0.94673 0.0
H350 H 0.26359 0.70826 0.94845 0.0
H351 H 0.21809 0.68766 0.96653 0.0
H352 H 0.26972 0.66584 0.00264 0.0
H353 H 0.32788 0.61057 0.99234 0.0
H354 H 0.99876 0.9058 0.98594 0.0
H355 H 0.9646 0.84272 0.99734 0.0
H356 H 0.90329 0.90788 0.06007 0.0
H357 H 0.93695 0.97088 0.04856 0.0
H358 H 0.94872 0.80424 0.05075 0.0
H359 H 0.79046 0.86552 -0.00032 0.0
H360 H 0.85509 0.87652 0.994 0.0
H361 H 0.82778 0.89976 0.02074 0.0
C362 C 0.98101 0.90622 0.00302 0.0
C363 C 0.97116 0.94301 0.01662 0.0
C364 C 0.96109 0.87022 0.00939 0.0
C365 C 0.93113 0.87079 0.02942 0.0
C366 C 0.92665 0.90685 0.04464 0.0
H367 H 0.68436 0.74594 0.0782 0.0
H368 H 0.74696 0.79246 0.06561 0.0
C369 C 0.94644 0.94281 0.03822 0.0
C370 C 0.89567 0.83692 0.03133 0.0
H371 H 0.77328 0.80807 0.01848 0.0
C372 C 0.91054 0.80466 0.04349 0.0
C373 C 0.84599 0.83769 0.02171 0.0
C374 C 0.82856 0.87155 0.00818 0.0
C375 C 0.87612 0.77373 0.04704 0.0
C376 C 0.82599 0.77517 0.03799 0.0
C377 C 0.81176 0.80693 0.02526 0.0
C378 C 0.78637 0.74659 0.04373 0.0
C379 C 0.89288 0.7407 0.06134 0.0
C380 C 0.78663 0.70553 0.03485 0.0
C381 C 0.75034 0.67887 0.04184 0.0
C382 C 0.71365 0.69303 0.05786 0.0
C383 C 0.71226 0.73436 0.0658 0.0
C384 C 0.74809 0.76088 0.05871 0.0
H385 H 0.93088 0.74693 0.0699 0.0
H386 H 0.866 0.73664 0.07553 0.0
H387 H 0.8937 0.71197 0.04926 0.0
H388 H 0.81544 0.69404 0.02296 0.0
H389 H 0.75237 0.64707 0.03568 0.0
H390 H 0.02479 0.17095 0.99694 0.0
H391 H 0.98641 0.23648 0.99475 0.0
H392 H 0.8543 0.19476 0.02712 0.0
H393 H 0.8927 0.12978 0.02957 0.0
H394 H 0.89873 0.23767 0.96658 0.0
H395 H 0.86704 0.31129 0.05827 0.0
H396 H 0.91279 0.27264 0.05226 0.0
H397 H 0.84749 0.2593 0.05379 0.0
C398 C 0.98875 0.17657 0.00474 0.0
C399 C 0.96196 0.14551 0.01369 0.0
C400 C 0.96657 0.21386 0.00324 0.0
C401 C 0.91757 0.22072 0.01095 0.0
C402 C 0.89245 0.19062 0.02153 0.0
H403 H 0.66426 0.36543 0.98248 0.0
H404 H 0.72609 0.32201 -0.00063 0.0
C405 C 0.91438 0.15339 0.02284 0.0
C406 C 0.88928 0.25576 0.0042 0.0
H407 H 0.81516 0.33259 0.02634 0.0
C408 C 0.88127 0.25895 0.97966 0.0
C409 C 0.86575 0.28302 0.02127 0.0
C410 C 0.87402 0.28169 0.04789 0.0
C411 C 0.84883 0.28746 0.97163 0.0
C412 C 0.82473 0.31451 0.98867 0.0
C413 C 0.83364 0.31197 0.01328 0.0
C414 C 0.78878 0.34444 0.98106 0.0
C415 C 0.83877 0.28685 0.94492 0.0
C416 C 0.80377 0.3726 0.96597 0.0
C417 C 0.76849 0.39689 0.95611 0.0
C418 C 0.71766 0.39417 0.96155 0.0
C419 C 0.70321 0.3681 0.97801 0.0
C420 C 0.73849 0.34331 0.98763 0.0
H421 H 0.84919 0.25782 0.93481 0.0
H422 H 0.7986 0.29203 0.94072 0.0
H423 H 0.86148 0.31105 0.93836 0.0
H424 H 0.84256 0.37489 0.96119 0.0
H425 H 0.78073 0.4172 0.94374 0.0
H426 H 0.63294 0.67324 0.53871 0.0
H427 H 0.66049 0.73911 0.5297 0.0
H428 H 0.70241 0.6869 0.45938 0.0
H429 H 0.67691 0.62031 0.46913 0.0
H430 H 0.77923 0.72019 0.48115 0.0
H431 H 0.63341 0.83259 0.49565 0.0
H432 H 0.6356 0.80514 0.52109 0.0
H433 H 0.61823 0.7794 0.4917 0.0
C434 C 0.64518 0.67625 0.52079 0.0
C435 C 0.65207 0.6419 0.50446 0.0
C436 C 0.66106 0.71411 0.51559 0.0
C437 C 0.68361 0.71844 0.49377 0.0
C438 C 0.68515 0.68456 0.47634 0.0
H439 H 0.85034 0.95226 0.50365 0.0
H440 H 0.79178 0.89796 0.48618 0.0
C441 C 0.66986 0.64651 0.48173 0.0
C442 C 0.71488 0.75523 0.49169 0.0
H443 H 0.72001 0.85682 0.50845 0.0
C444 C 0.76563 0.75013 0.48641 0.0
C445 C 0.69775 0.79472 0.49813 0.0
C446 C 0.64308 0.80318 0.50167 0.0
C447 C 0.8002 0.78257 0.48949 0.0
C448 C 0.78414 0.82114 0.49878 0.0
C449 C 0.73271 0.82709 0.5019 0.0
C450 C 0.82076 0.85394 0.50803 0.0
C451 C 0.85411 0.77482 0.48358 0.0
C452 C 0.85635 0.84734 0.5261 0.0
C453 C 0.88976 0.87797 0.53592 0.0
C454 C 0.88811 0.91635 0.52819 0.0
C455 C 0.85285 0.92296 0.50985 0.0
C456 C 0.81918 0.89207 0.49998 0.0
H457 H 0.85669 0.74965 0.46889 0.0
H458 H 0.87293 0.80192 0.47811 0.0
H459 H 0.87467 0.76607 0.49964 0.0
H460 H 0.85775 0.81853 0.53301 0.0
H461 H 0.91676 0.87161 0.54978 0.0
H462 H 0.73914 0.45428 0.49027 0.0
H463 H 0.77276 0.38684 0.48699 0.0
H464 H 0.63029 0.33951 0.50601 0.0
H465 H 0.59589 0.40752 0.50898 0.0
H466 H 0.77827 0.34349 0.52691 0.0
H467 H 0.67209 0.25775 0.4492 0.0
H468 H 0.67522 0.31205 0.45351 0.0
H469 H 0.63653 0.28538 0.47204 0.0
C470 C 0.71453 0.42942 0.49323 0.0
C471 C 0.66493 0.43618 0.49995 0.0
C472 C 0.73386 0.39089 0.49143 0.0
C473 C 0.70419 0.35816 0.49637 0.0
C474 C 0.65372 0.36428 0.50187 0.0
H475 H 0.82704 0.11369 0.49124 0.0
H476 H 0.77046 0.16979 0.50213 0.0
C477 C 0.63406 0.40309 0.50349 0.0
C478 C 0.72826 0.3188 0.49757 0.0
H479 H 0.73626 0.22406 0.46796 0.0
C480 C 0.76861 0.31719 0.51422 0.0
C481 C 0.71531 0.2844 0.4812 0.0
C482 C 0.67263 0.28471 0.46284 0.0
C483 C 0.79786 0.28285 0.51418 0.0
C484 C 0.78679 0.2493 0.49691 0.0
C485 C 0.74464 0.2499 0.48118 0.0
C486 C 0.822 0.21564 0.49296 0.0
C487 C 0.84136 0.28316 0.53217 0.0
C488 C 0.86973 0.22299 0.48452 0.0
C489 C 0.90167 0.19125 0.47831 0.0
C490 C 0.88664 0.15159 0.48058 0.0
C491 C 0.83965 0.1442 0.48982 0.0
C492 C 0.8073 0.17607 0.49582 0.0
H493 H 0.83617 0.30533 0.54822 0.0
H494 H 0.84635 0.25296 0.53806 0.0
H495 H 0.87626 0.2917 0.5237 0.0
H496 H 0.8815 0.25317 0.48181 0.0
H497 H 0.93743 0.19746 0.47083 0.0
H498 H 0.49843 0.40832 0.48744 0.0
H499 H 0.46213 0.34618 0.49915 0.0
H500 H 0.39389 0.41461 0.55884 0.0
H501 H 0.42969 0.47666 0.54699 0.0
H502 H 0.44229 0.30863 0.55022 0.0
H503 H 0.28493 0.37108 0.49933 0.0
H504 H 0.34971 0.38419 0.49525 0.0
H505 H 0.3192 0.40513 0.52167 0.0
C506 C 0.47852 0.40971 0.50398 0.0
C507 C 0.46741 0.44708 0.51657 0.0
C508 C 0.45739 0.37424 0.51052 0.0
C509 C 0.42497 0.37596 0.52969 0.0
C510 C 0.41903 0.41272 0.54405 0.0
H511 H 0.17693 0.2497 0.57663 0.0
H512 H 0.23925 0.29679 0.56442 0.0
C513 C 0.44 0.44812 0.53746 0.0
C514 C 0.3892 0.34223 0.53143 0.0
H515 H 0.2667 0.31394 0.5184 0.0
C516 C 0.40405 0.30941 0.54309 0.0
C517 C 0.33949 0.3434 0.52189 0.0
C518 C 0.32213 0.37764 0.50868 0.0
C519 C 0.36955 0.27838 0.54634 0.0
C520 C 0.31938 0.28021 0.5374 0.0
C521 C 0.30519 0.31251 0.52512 0.0
C522 C 0.27972 0.25134 0.54274 0.0
C523 C 0.38633 0.2448 0.56021 0.0
C524 C 0.28058 0.21033 0.53379 0.0
C525 C 0.24448 0.18334 0.54059 0.0
C526 C 0.20733 0.19711 0.55645 0.0
C527 C 0.20519 0.23841 0.56435 0.0
C528 C 0.24087 0.26526 0.55748 0.0
H529 H 0.42402 0.2511 0.5691 0.0
H530 H 0.3591 0.23979 0.57409 0.0
H531 H 0.38798 0.21657 0.54774 0.0
H532 H 0.30976 0.19911 0.52205 0.0
H533 H 0.24709 0.15156 0.53446 0.0
H534 H 0.49851 0.66714 0.48186 0.0
H535 H 0.45015 0.7283 0.48196 0.0
H536 H 0.37446 0.69934 0.54455 0.0
H537 H 0.42107 0.63685 0.54346 0.0
H538 H 0.30906 0.7094 0.5123 0.0
H539 H 0.44045 0.83842 0.51484 0.0
H540 H 0.45694 0.80054 0.49136 0.0
H541 H 0.46069 0.79011 0.52219 0.0
C542 C 0.47317 0.67489 0.49626 0.0
C543 C 0.46393 0.64784 0.51289 0.0
C544 C 0.44551 0.70997 0.49637 0.0
C545 C 0.40875 0.71895 0.51342 0.0
C546 C 0.40258 0.69329 0.53125 0.0
H547 H 0.21695 0.92448 0.48964 0.0
H548 H 0.27457 0.88209 0.51004 0.0
C549 C 0.42953 0.6578 0.5308 0.0
C550 C 0.3714 0.75058 0.51005 0.0
H551 H 0.35922 0.84529 0.49404 0.0
C552 C 0.32023 0.73941 0.50889 0.0
C553 C 0.38527 0.79011 0.50589 0.0
C554 C 0.43885 0.80555 0.50892 0.0
C555 C 0.28314 0.76553 0.50225 0.0
C556 C 0.2975 0.8035 0.49579 0.0
C557 C 0.34821 0.81585 0.4985 0.0
C558 C 0.26107 0.82913 0.48433 0.0
C559 C 0.22892 0.75177 0.50186 0.0
C560 C 0.23444 0.81354 0.4631 0.0
C561 C 0.20126 0.83742 0.45162 0.0
C562 C 0.19441 0.87779 0.46083 0.0
C563 C 0.22091 0.8934 0.4822 0.0
C564 C 0.25413 0.86932 0.49378 0.0
H565 H 0.22301 0.73015 0.51509 0.0
H566 H 0.2037 0.77749 0.50587 0.0
H567 H 0.21813 0.7361 0.48379 0.0
H568 H 0.23987 0.78293 0.45515 0.0
H569 H 0.1811 0.82419 0.43539 0.0
H570 H 0.14425 0.06321 0.10498 0.0
H571 H 0.12074 0.05083 0.14494 0.0
H572 H 0.97975 -0.00225 0.11575 0.0
H573 H 1.00275 0.01067 0.07537 0.0
H574 H 0.97 0.04889 0.15797 0.0
H575 H 0.12101 0.94141 0.16955 0.0
H576 H 0.14514 0.98797 0.16137 0.0
H577 H 0.10339 0.95683 0.14071 0.0
C578 C 0.10813 0.04894 0.10693 0.0
C579 C 0.07558 0.03755 0.08685 0.0
C580 C 0.09492 0.04163 0.12983 0.0
C581 C 0.04913 0.02237 0.13324 0.0
C582 C 1.01558 0.01222 0.11345 0.0
H583 H 1.01028 0.94663 0.27648 0.0
H584 H 1.01339 0.94432 0.23267 0.0
C585 C 0.02871 0.01972 0.09041 0.0
C586 C 0.03667 0.01366 0.15766 0.0
H587 H 0.08465 0.97163 0.20584 0.0
C588 C 0.99459 0.03149 0.16834 0.0
C589 C 0.06807 0.99014 0.17101 0.0
C590 C 0.1116 0.96763 0.15998 0.0
C591 C 0.98491 0.02853 0.19251 0.0
C592 C 1.01886 0.00795 0.20645 0.0
C593 C 0.05909 0.98799 0.19531 0.0
C594 C 1.01527 0.00897 0.23286 0.0
C595 C 0.93866 0.04782 0.20291 0.0
C596 C 1.01638 0.046 0.24752 0.0
C597 C 1.01463 0.04738 0.27243 0.0
C598 C 1.01232 0.01173 0.28329 0.0
C599 C 1.01223 0.97459 0.26864 0.0
C600 C 1.01371 0.97324 0.24363 0.0
H601 H 0.90884 0.04963 0.18875 0.0
H602 H 0.92347 0.03092 0.217 0.0
H603 H 0.94836 0.07895 0.21109 0.0
H604 H 0.01936 0.07394 0.23973 0.0
H605 H 1.01587 0.07644 0.28324 0.0
H606 H 0.12009 0.07024 0.9371 0.0
H607 H 0.14018 0.07719 0.89524 0.0
H608 H 1.00603 0.00893 0.87012 0.0
H609 H 0.98577 0.00181 0.91126 0.0
H610 H 0.14467 0.01119 0.85122 0.0
H611 H 0.99685 0.1243 0.84543 0.0
H612 H 0.02535 0.11374 0.87366 0.0
H613 H 0.97754 0.08043 0.85858 0.0
C614 C 0.09532 0.05631 0.9226 0.0
C615 C 0.05096 0.03598 0.92753 0.0
C616 C 0.10681 0.06034 0.89877 0.0
C617 C 0.0741 0.04403 0.87974 0.0
C618 C 0.03131 0.02217 0.88462 0.0
H619 H 0.06064 0.97926 0.72882 0.0
H620 H 0.07255 0.9836 0.77243 0.0
C621 C 0.0198 0.01824 0.9082 0.0
C622 C 0.08222 0.0509 0.85463 0.0
H623 H 0.02464 0.09159 0.80827 0.0
C624 C 0.11919 0.02938 0.84184 0.0
C625 C 0.04927 0.07501 0.84258 0.0
C626 C 1.01024 0.10002 0.85577 0.0
C627 C 0.12213 0.02956 0.81688 0.0
C628 C 0.08652 0.05119 0.80451 0.0
C629 C 0.0516 0.07463 0.81765 0.0
C630 C 0.08267 0.04837 0.77789 0.0
C631 C 0.1629 0.00619 0.80401 0.0
C632 C 0.08289 0.08339 0.76647 0.0
C633 C 0.07489 0.08108 0.74159 0.0
C634 C 0.06646 0.04365 0.72755 0.0
C635 C 0.06654 0.00859 0.73905 0.0
C636 C 0.07427 0.01097 0.76397 0.0
H637 H 0.19593 0.00322 0.81627 0.0
H638 H 0.1484 0.97545 0.79739 0.0
H639 H 0.1753 0.02075 0.7884 0.0
H640 H 0.08861 0.11262 0.77687 0.0
H641 H 0.07424 0.10877 0.73344 0.0
H642 H 0.6386 0.56667 0.60612 0.0
H643 H 0.61519 0.5533 0.6459 0.0
H644 H 0.47896 0.49317 0.6157 0.0
H645 H 0.50196 0.507 0.57542 0.0
H646 H 0.46499 0.54376 0.65821 0.0
H647 H 0.62381 0.44358 0.67008 0.0
H648 H 0.64453 0.49115 0.66194 0.0
H649 H 0.60489 0.45823 0.64121 0.0
C650 C 0.60354 0.55064 0.60781 0.0
C651 C 0.5724 0.5375 0.58748 0.0
C652 C 0.59038 0.54282 0.63061 0.0
C653 C 0.54608 0.52125 0.63368 0.0
C654 C 0.51368 0.50944 0.61365 0.0
H655 H 0.5159 0.44446 0.77726 0.0
H656 H 0.51797 0.44192 0.73341 0.0
C657 C 0.52676 0.51748 0.59068 0.0
C658 C 0.53418 0.51172 0.65802 0.0
H659 H 0.58579 0.47216 0.70633 0.0
C660 C 0.49093 0.52754 0.66863 0.0
C661 C 0.5674 0.48973 0.67144 0.0
C662 C 0.61246 0.46932 0.66049 0.0
C663 C 0.48177 0.5242 0.69282 0.0
C664 C 0.5174 0.50534 0.70684 0.0
C665 C 0.55889 0.48723 0.69575 0.0
C666 C 0.51421 0.50639 0.73329 0.0
C667 C 0.43425 0.54131 0.70315 0.0
C668 C 0.5125 0.54343 0.74782 0.0
C669 C 0.51129 0.54493 0.77275 0.0
C670 C 0.5124 0.50942 0.78379 0.0
C671 C 0.51516 0.47232 0.76928 0.0
C672 C 0.51605 0.47083 0.74424 0.0
H673 H 0.40407 0.54143 0.68897 0.0
H674 H 0.42063 0.52398 0.71738 0.0
H675 H 0.44166 0.57291 0.71109 0.0
H676 H 0.51291 0.57135 0.7399 0.0
H677 H 0.51029 0.57403 0.78345 0.0
H678 H 0.50896 0.48753 0.41257 0.0
H679 H 0.53124 0.49222 0.37129 0.0
H680 H 0.63446 0.59048 0.39569 0.0
H681 H 0.61242 0.58563 0.43754 0.0
H682 H 0.55885 0.60492 0.35877 0.0
H683 H 0.66063 0.46432 0.33429 0.0
H684 H 0.60426 0.45679 0.34984 0.0
H685 H 0.65524 0.48662 0.36504 0.0
C686 C 0.53708 0.50972 0.40924 0.0
C687 C 0.55892 0.5363 0.42823 0.0
C688 C 0.55001 0.51217 0.38565 0.0
C689 C 0.58482 0.5414 0.38047 0.0
C690 C 0.60784 0.56745 0.3994 0.0
H691 H 0.64057 0.5454 0.22728 0.0
H692 H 0.65566 0.54904 0.27085 0.0
C693 C 0.59541 0.56458 0.42323 0.0
C694 C 0.59247 0.5467 0.35505 0.0
H695 H 0.62094 0.49401 0.30157 0.0
C696 C 0.57347 0.58112 0.34629 0.0
C697 C 0.61177 0.5157 0.33886 0.0
C698 C 0.63459 0.47891 0.34748 0.0
C699 C 0.57027 0.58415 0.32155 0.0
C700 C 0.58604 0.55175 0.30524 0.0
C701 C 0.6082 0.51856 0.3141 0.0
C702 C 0.57711 0.55066 0.27895 0.0
C703 C 0.54883 0.62152 0.31302 0.0
C704 C 0.52791 0.54977 0.26909 0.0
C705 C 0.51914 0.54761 0.24425 0.0
C706 C 0.55946 0.5463 0.2288 0.0
C707 C 0.60873 0.5469 0.23874 0.0
C708 C 0.61744 0.54883 0.26359 0.0
H709 H 0.55185 0.6475 0.32734 0.0
H710 H 0.56821 0.62956 0.29703 0.0
H711 H 0.50851 0.61596 0.30791 0.0
H712 H 0.49622 0.55042 0.28063 0.0
H713 H 0.48082 0.54746 0.23716 0.0
loop_
_geom_bond_atom_site_label_1
_geom_bond_atom_site_label_2
_geom_bond_distance
_geom_bond_site_symmetry_2
_ccdc_geom_bond_type
O0 Mn1 2.163 . S
O0 C14 1.244 1_455 S
Mn1 O0 2.163 . S
Mn1 O4 2.160 1_545 S
Mn1 O5 2.221 . S
Mn1 O7 2.163 . S
Mn1 O9 2.160 1_554 S
Mn1 O19 2.221 1_444 S
O2 Mn3 2.087 . S
O2 C14 1.256 1_556 S
Mn3 O2 2.087 . S
Mn3 O10 2.089 . S
Mn3 O19 2.290 1_545 S
Mn3 O20 2.251 1_546 S
O4 Mn1 2.160 1_565 S
O4 C15 1.252 . S
O5 Mn1 2.221 . S
O5 Mn6 2.290 . S
O5 C16 1.278 . S
Mn6 O5 2.290 . S
Mn6 O8 2.089 1_545 S
Mn6 O11 2.251 . S
Mn6 O12 2.087 . S
O7 Mn1 2.163 . S
O7 C17 1.244 . S
O8 Mn6 2.089 1_565 S
O8 C15 1.256 . S
O9 Mn1 2.160 1_556 S
O9 C18 1.239 . S
O10 Mn3 2.089 . S
O10 C18 1.256 1_655 S
O11 Mn6 2.251 . S
O11 C16 1.241 . S
O12 Mn6 2.087 . S
O12 C17 1.256 . S
C13 O19 1.278 1_554 S
C13 O20 1.241 . S
C14 O0 1.244 1_655 S
C14 O2 1.256 1_554 S
C15 O4 1.252 . S
C15 O8 1.256 . S
C16 O5 1.278 . S
C16 O11 1.241 . S
C17 O7 1.244 . S
C17 O12 1.256 . S
C18 O9 1.239 . S
C18 O10 1.256 1_455 S
O19 Mn1 2.221 1_666 S
O19 Mn3 2.290 1_565 S
O19 C13 1.278 1_556 S
O20 Mn3 2.251 1_564 S
O20 C13 1.241 . S
O21 Mn22 2.163 . S
O21 C35 1.244 . S
Mn22 O21 2.163 . S
Mn22 O25 2.160 . S
Mn22 O26 2.221 . S
Mn22 O28 2.163 . S
Mn22 O30 2.160 . S
Mn22 O40 2.221 . S
O23 Mn24 2.087 . S
O23 C35 1.256 . S
Mn24 O23 2.087 . S
Mn24 O31 2.089 . S
Mn24 O40 2.290 . S
Mn24 O41 2.251 . S
O25 Mn22 2.160 . S
O25 C36 1.239 . S
O26 Mn22 2.221 . S
O26 Mn27 2.290 . S
O26 C37 1.278 . S
Mn27 O26 2.290 . S
Mn27 O29 2.089 . S
Mn27 O32 2.251 . S
Mn27 O33 2.087 . S
O28 Mn22 2.163 . S
O28 C38 1.244 . S
O29 Mn27 2.089 . S
O29 C36 1.256 . S
O30 Mn22 2.160 . S
O30 C39 1.239 . S
O31 Mn24 2.089 . S
O31 C39 1.256 . S
O32 Mn27 2.251 . S
O32 C37 1.241 . S
O33 Mn27 2.087 . S
O33 C38 1.256 . S
C34 O40 1.278 . S
C34 O41 1.241 . S
C35 O21 1.244 . S
C35 O23 1.256 . S
C36 O25 1.239 . S
C36 O29 1.256 . S
C37 O26 1.278 . S
C37 O32 1.241 . S
C38 O28 1.244 . S
C38 O33 1.256 . S
C39 O30 1.239 . S
C39 O31 1.256 . S
O40 Mn22 2.221 . S
O40 Mn24 2.290 . S
O40 C34 1.278 . S
O41 Mn24 2.251 . S
O41 C34 1.241 . S
C42 C43 1.391 . S
C42 C46 1.391 . S
C42 H84 0.948 . S
C43 C42 1.391 . S
C43 C44 1.391 . S
C44 C43 1.391 . S
C44 H100 0.947 . S
C44 C101 1.392 . S
C45 C46 1.391 . S
C45 C49 1.397 . S
C45 C101 1.419 . S
C46 C42 1.391 . S
C46 C45 1.391 . S
C46 C47 1.399 . S
C47 C46 1.399 . S
C47 C50 1.396 . S
C47 C59 1.453 1_565 S
C47 C60 1.684 . S
H48 C72 0.948 . S
C49 C45 1.397 . S
C49 C50 1.394 . S
C49 C68 1.723 . S
C50 C47 1.396 . S
C50 C49 1.394 . S
C50 C80 1.723 1_565 S
H51 C74 0.947 . S
H52 C75 0.948 . S
H53 C81 0.982 1_455 S
H54 C82 0.979 . S
H55 C82 0.980 . S
H56 C82 0.983 . S
H57 C81 0.979 . S
H58 C81 0.977 . S
C59 C47 1.453 1_545 S
C59 H88 0.982 . S
C59 H89 0.979 1_545 S
C59 H90 0.977 . S
C60 C47 1.684 . S
C60 H85 0.979 1_455 S
C60 H86 0.980 . S
C60 H87 0.983 . S
C61 C62 1.390 1_565 S
C61 C66 1.391 . S
C61 H91 0.948 . S
C62 C61 1.390 1_545 S
C62 C63 1.392 . S
C63 C62 1.392 . S
C63 C64 1.392 . S
C63 H92 0.947 1_455 S
C64 C63 1.392 . S
C64 C65 1.419 . S
C64 H93 0.948 1_455 S
C65 C64 1.419 . S
C65 C66 1.391 1_545 S
C65 C69 1.397 . S
C66 C61 1.391 . S
C66 C65 1.391 1_565 S
C66 C67 1.399 . S
C67 C66 1.399 . S
C67 C68 1.396 . S
C67 C70 1.453 . S
C67 C71 1.684 . S
C68 C49 1.723 . S
C68 C67 1.396 . S
C68 C69 1.394 1_565 S
C69 C65 1.397 . S
C69 C68 1.394 1_545 S
C69 C79 1.723 . S
C70 C67 1.453 . S
C70 H94 0.982 . S
C70 H95 0.979 . S
C70 H96 0.977 . S
C71 C67 1.684 . S
C71 H97 0.979 . S
C71 H98 0.980 . S
C71 H99 0.983 . S
C72 H48 0.948 . S
C72 C73 1.391 . S
C72 C77 1.391 . S
C73 C72 1.391 . S
C73 C74 1.391 . S
C74 H51 0.947 . S
C74 C73 1.391 . S
C74 C75 1.392 . S
C75 H52 0.948 . S
C75 C74 1.392 . S
C75 C76 1.419 . S
C76 C75 1.419 . S
C76 C77 1.391 . S
C76 C80 1.397 1_655 S
C77 C72 1.391 . S
C77 C76 1.391 . S
C77 C78 1.399 . S
C78 C77 1.399 . S
C78 C79 1.396 1_655 S
C78 C81 1.453 . S
C78 C82 1.684 . S
C79 C69 1.723 . S
C79 C78 1.396 1_455 S
C79 C80 1.394 . S
C80 C50 1.723 1_545 S
C80 C76 1.397 1_455 S
C80 C79 1.394 . S
C81 H53 0.982 1_655 S
C81 H57 0.979 . S
C81 H58 0.977 . S
C81 C78 1.453 . S
C82 H54 0.979 . S
C82 H55 0.980 . S
C82 H56 0.983 . S
C82 C78 1.684 . S
H83 C101 0.948 . S
H84 C42 0.948 . S
H85 C60 0.979 1_655 S
H86 C60 0.980 . S
H87 C60 0.983 . S
H88 C59 0.982 . S
H89 C59 0.979 1_565 S
H90 C59 0.977 . S
H91 C61 0.948 . S
H92 C63 0.947 1_655 S
H93 C64 0.948 1_655 S
H94 C70 0.982 . S
H95 C70 0.979 . S
H96 C70 0.977 . S
H97 C71 0.979 . S
H98 C71 0.980 . S
H99 C71 0.983 . S
H100 C44 0.947 . S
C101 C44 1.392 . S
C101 C45 1.419 . S
C101 H83 0.948 . S
C102 C103 1.391 . S
C102 C106 1.391 . S
C102 H144 0.948 . S
C103 C102 1.391 . S
C103 C104 1.391 . S
C104 C103 1.391 . S
C104 H160 0.947 . S
C104 C161 1.392 . S
C105 C106 1.391 . S
C105 C109 1.397 . S
C105 C161 1.419 . S
C106 C102 1.391 . S
C106 C105 1.391 . S
C106 C107 1.399 . S
C107 C106 1.399 . S
C107 C110 1.396 . S
C107 C119 1.453 . S
C107 C120 1.684 1_455 S
H108 C132 0.948 . S
C109 C105 1.397 . S
C109 C110 1.394 . S
C109 C128 1.723 . S
C110 C107 1.396 . S
C110 C109 1.394 . S
C110 C140 1.723 1_455 S
H111 C134 0.947 . S
H112 C135 0.948 . S
H113 C141 0.982 . S
H114 C142 0.979 . S
H115 C142 0.980 . S
H116 C142 0.983 1_565 S
H117 C141 0.979 . S
H118 C141 0.977 . S
C119 C107 1.453 . S
C119 H148 0.982 . S
C119 H149 0.979 . S
C119 H150 0.977 . S
C120 C107 1.684 1_655 S
C120 H145 0.979 . S
C120 H146 0.980 . S
C120 H147 0.983 . S
C121 C122 1.391 1_455 S
C121 C126 1.391 . S
C121 H151 0.948 . S
C122 C121 1.391 1_655 S
C122 C123 1.391 . S
C123 C122 1.391 . S
C123 C124 1.392 . S
C123 H152 0.947 . S
C124 C123 1.392 . S
C124 C125 1.419 . S
C124 H153 0.948 . S
C125 C124 1.419 . S
C125 C126 1.391 1_655 S
C125 C129 1.397 . S
C126 C121 1.391 . S
C126 C125 1.391 1_455 S
C126 C127 1.399 . S
C127 C126 1.399 . S
C127 C128 1.396 . S
C127 C130 1.453 . S
C127 C131 1.684 . S
C128 C109 1.723 . S
C128 C127 1.396 . S
C128 C129 1.394 1_455 S
C129 C125 1.397 . S
C129 C128 1.394 1_655 S
C129 C139 1.723 . S
C130 C127 1.453 . S
C130 H154 0.982 . S
C130 H155 0.979 . S
C130 H156 0.977 . S
C131 C127 1.684 . S
C131 H157 0.979 . S
C131 H158 0.980 . S
C131 H159 0.983 . S
C132 H108 0.948 . S
C132 C133 1.391 . S
C132 C137 1.391 1_565 S
C133 C132 1.391 . S
C133 C134 1.391 . S
C134 H111 0.947 . S
C134 C133 1.391 . S
C134 C135 1.392 1_565 S
C135 H112 0.948 . S
C135 C134 1.392 1_545 S
C135 C136 1.419 . S
C136 C135 1.419 . S
C136 C137 1.391 . S
C136 C140 1.397 . S
C137 C132 1.391 1_545 S
C137 C136 1.391 . S
C137 C138 1.399 . S
C138 C137 1.399 . S
C138 C139 1.396 . S
C138 C141 1.453 1_545 S
C138 C142 1.684 . S
C139 C129 1.723 . S
C139 C138 1.396 . S
C139 C140 1.394 . S
C140 C110 1.723 1_655 S
C140 C136 1.397 . S
C140 C139 1.394 . S
C141 H113 0.982 . S
C141 H117 0.979 . S
C141 H118 0.977 . S
C141 C138 1.453 1_565 S
C142 H114 0.979 . S
C142 H115 0.980 . S
C142 H116 0.983 1_545 S
C142 C138 1.684 . S
H143 C161 0.948 . S
H144 C102 0.948 . S
H145 C120 0.979 . S
H146 C120 0.980 . S
H147 C120 0.983 . S
H148 C119 0.982 . S
H149 C119 0.979 . S
H150 C119 0.977 . S
H151 C121 0.948 . S
H152 C123 0.947 . S
H153 C124 0.948 . S
H154 C130 0.982 . S
H155 C130 0.979 . S
H156 C130 0.977 . S
H157 C131 0.979 . S
H158 C131 0.980 . S
H159 C131 0.983 . S
H160 C104 0.947 . S
C161 C104 1.392 . S
C161 C105 1.419 . S
C161 H143 0.948 . S
C162 C163 1.391 . S
C162 C166 1.391 . S
C162 H204 0.948 . S
C163 C162 1.391 . S
C163 C164 1.391 . S
C164 C163 1.391 . S
C164 H220 0.947 . S
C164 C221 1.392 . S
C165 C166 1.391 . S
C165 C169 1.397 . S
C165 C221 1.419 . S
C166 C162 1.391 . S
C166 C165 1.391 . S
C166 C167 1.399 . S
C167 C166 1.399 . S
C167 C170 1.396 . S
C167 C179 1.453 . S
C167 C180 1.684 . S
H168 C192 0.948 . S
C169 C165 1.397 . S
C169 C170 1.394 . S
C169 C188 1.723 . S
C170 C167 1.396 . S
C170 C169 1.394 . S
C170 C200 1.723 . S
H171 C194 0.947 1_554 S
H172 C195 0.948 . S
H173 C201 0.982 . S
H174 C202 0.979 . S
H175 C202 0.980 . S
H176 C202 0.983 . S
H177 C201 0.979 . S
H178 C201 0.977 . S
C179 C167 1.453 . S
C179 H208 0.982 . S
C179 H209 0.979 . S
C179 H210 0.977 . S
C180 C167 1.684 . S
C180 H205 0.979 . S
C180 H206 0.980 . S
C180 H207 0.986 1_556 S
C181 C182 1.391 . S
C181 C186 1.391 . S
C181 H211 0.948 . S
C182 C181 1.391 . S
C182 C183 1.391 . S
C183 C182 1.391 . S
C183 C184 1.392 . S
C183 H212 0.947 . S
C184 C183 1.392 . S
C184 C185 1.419 . S
C184 H213 0.948 . S
C185 C184 1.419 . S
C185 C186 1.391 . S
C185 C189 1.397 . S
C186 C181 1.391 . S
C186 C185 1.391 . S
C186 C187 1.399 . S
C187 C186 1.399 . S
C187 C188 1.396 . S
C187 C190 1.453 . S
C187 C191 1.684 . S
C188 C169 1.723 . S
C188 C187 1.396 . S
C188 C189 1.394 . S
C189 C185 1.397 . S
C189 C188 1.394 . S
C189 C199 1.723 . S
C190 C187 1.453 . S
C190 H214 0.982 . S
C190 H215 0.979 . S
C190 H216 0.977 . S
C191 C187 1.684 . S
C191 H217 0.979 . S
C191 H218 0.980 . S
C191 H219 0.983 . S
C192 H168 0.948 . S
C192 C193 1.391 . S
C192 C197 1.391 . S
C193 C192 1.391 . S
C193 C194 1.391 . S
C194 H171 0.947 1_556 S
C194 C193 1.391 . S
C194 C195 1.392 . S
C195 H172 0.948 . S
C195 C194 1.392 . S
C195 C196 1.419 . S
C196 C195 1.419 . S
C196 C197 1.391 . S
C196 C200 1.397 . S
C197 C192 1.391 . S
C197 C196 1.391 . S
C197 C198 1.399 . S
C198 C197 1.399 . S
C198 C199 1.396 . S
C198 C201 1.453 . S
C198 C202 1.684 . S
C199 C189 1.723 . S
C199 C198 1.396 . S
C199 C200 1.394 . S
C200 C170 1.723 . S
C200 C196 1.397 . S
C200 C199 1.394 . S
C201 H173 0.982 . S
C201 H177 0.979 . S
C201 H178 0.977 . S
C201 C198 1.453 . S
C202 H174 0.979 . S
C202 H175 0.980 . S
C202 H176 0.983 . S
C202 C198 1.684 . S
H203 C221 0.948 . S
H204 C162 0.948 . S
H205 C180 0.979 . S
H206 C180 0.980 . S
H207 C180 0.986 1_554 S
H208 C179 0.982 . S
H209 C179 0.979 . S
H210 C179 0.977 . S
H211 C181 0.948 . S
H212 C183 0.947 . S
H213 C184 0.948 . S
H214 C190 0.982 . S
H215 C190 0.979 . S
H216 C190 0.977 . S
H217 C191 0.979 . S
H218 C191 0.980 . S
H219 C191 0.983 . S
H220 C164 0.947 . S
C221 C164 1.392 . S
C221 C165 1.419 . S
C221 H203 0.948 . S
C222 C223 1.391 . S
C222 C226 1.391 . S
C222 H264 0.948 . S
C223 C222 1.391 . S
C223 C224 1.391 . S
C224 C223 1.391 . S
C224 H280 0.947 . S
C224 C281 1.392 . S
C225 C226 1.391 . S
C225 C229 1.397 . S
C225 C281 1.419 . S
C226 C222 1.391 . S
C226 C225 1.391 . S
C226 C227 1.399 . S
C227 C226 1.399 . S
C227 C230 1.396 . S
C227 C239 1.453 . S
C227 C240 1.684 . S
H228 C252 0.948 . S
C229 C225 1.397 . S
C229 C230 1.394 . S
C229 C248 1.723 . S
C230 C227 1.396 . S
C230 C229 1.394 . S
C230 C260 1.723 . S
H231 C254 0.947 . S
H232 C255 0.948 . S
H233 C261 0.982 . S
H234 C262 0.979 . S
H235 C262 0.980 . S
H236 C262 0.983 . S
H237 C261 0.979 . S
H238 C261 0.977 . S
C239 C227 1.453 . S
C239 H268 0.982 . S
C239 H269 0.979 . S
C239 H270 0.977 . S
C240 C227 1.684 . S
C240 H265 0.979 . S
C240 H266 0.980 . S
C240 H267 0.983 . S
C241 C242 1.391 . S
C241 C246 1.391 . S
C241 H271 0.948 . S
C242 C241 1.391 . S
C242 C243 1.391 . S
C243 C242 1.391 . S
C243 C244 1.392 . S
C243 H272 0.947 . S
C244 C243 1.392 . S
C244 C245 1.419 . S
C244 H273 0.948 . S
C245 C244 1.419 . S
C245 C246 1.391 . S
C245 C249 1.397 . S
C246 C241 1.391 . S
C246 C245 1.391 . S
C246 C247 1.399 . S
C247 C246 1.399 . S
C247 C248 1.396 . S
C247 C250 1.453 . S
C247 C251 1.684 . S
C248 C229 1.723 . S
C248 C247 1.396 . S
C248 C249 1.394 . S
C249 C245 1.397 . S
C249 C248 1.394 . S
C249 C259 1.723 . S
C250 C247 1.453 . S
C250 H274 0.982 . S
C250 H275 0.979 . S
C250 H276 0.977 . S
C251 C247 1.684 . S
C251 H277 0.979 . S
C251 H278 0.980 . S
C251 H279 0.983 . S
C252 H228 0.948 . S
C252 C253 1.391 . S
C252 C257 1.391 . S
C253 C252 1.391 . S
C253 C254 1.391 . S
C254 H231 0.947 . S
C254 C253 1.391 . S
C254 C255 1.392 . S
C255 H232 0.948 . S
C255 C254 1.392 . S
C255 C256 1.419 . S
C256 C255 1.419 . S
C256 C257 1.391 . S
C256 C260 1.397 . S
C257 C252 1.391 . S
C257 C256 1.391 . S
C257 C258 1.399 . S
C258 C257 1.399 . S
C258 C259 1.396 . S
C258 C261 1.453 . S
C258 C262 1.684 . S
C259 C249 1.723 . S
C259 C258 1.396 . S
C259 C260 1.394 . S
C260 C230 1.723 . S
C260 C256 1.397 . S
C260 C259 1.394 . S
C261 H233 0.982 . S
C261 H237 0.979 . S
C261 H238 0.977 . S
C261 C258 1.453 . S
C262 H234 0.979 . S
C262 H235 0.980 . S
C262 H236 0.983 . S
C262 C258 1.684 . S
H263 C281 0.948 . S
H264 C222 0.948 . S
H265 C240 0.979 . S
H266 C240 0.980 . S
H267 C240 0.983 . S
H268 C239 0.982 . S
H269 C239 0.979 . S
H270 C239 0.977 . S
H271 C241 0.948 . S
H272 C243 0.947 . S
H273 C244 0.948 . S
H274 C250 0.982 . S
H275 C250 0.979 . S
H276 C250 0.977 . S
H277 C251 0.979 . S
H278 C251 0.980 . S
H279 C251 0.983 . S
H280 C224 0.947 . S
C281 C224 1.392 . S
C281 C225 1.419 . S
C281 H263 0.948 . S
H282 C290 0.929 . S
H283 C292 0.930 . S
H284 C294 0.932 1_556 S
H285 C297 0.929 . S
H286 C300 0.930 . S
H287 C302 0.960 . S
H288 C302 0.960 . S
H289 C302 0.960 . S
C290 H282 0.929 . S
C290 C291 1.377 . S
C290 C292 1.384 . S
C291 C290 1.377 . S
C291 C297 1.390 1_554 S
C292 H283 0.930 . S
C292 C290 1.384 . S
C292 C293 1.372 . S
C293 C292 1.372 . S
C293 C294 1.398 . S
C293 C298 1.490 . S
C294 H284 0.932 1_554 S
C294 C293 1.398 . S
C294 C297 1.386 1_554 S
H295 C311 0.930 . S
H296 C312 0.931 . S
C297 H285 0.929 . S
C297 C291 1.390 1_556 S
C297 C294 1.386 1_556 S
C298 C293 1.490 . S
C298 C300 1.395 . S
C298 C301 1.403 . S
H299 C305 0.930 . S
C300 H286 0.930 . S
C300 C298 1.395 . S
C300 C303 1.403 . S
C301 C298 1.403 . S
C301 C302 1.524 1_554 S
C301 C305 1.400 . S
C302 H287 0.960 . S
C302 H288 0.960 . S
C302 H289 0.960 . S
C302 C301 1.524 1_556 S
C303 C300 1.403 . S
C303 C304 1.392 . S
C303 C307 1.495 . S
C304 C303 1.392 . S
C304 C305 1.385 . S
C304 C306 1.478 . S
C305 H299 0.930 . S
C305 C301 1.400 . S
C305 C304 1.385 . S
C306 C304 1.478 . S
C306 C308 1.381 . S
C306 C312 1.383 . S
C307 C303 1.495 . S
C307 H313 0.959 . S
C307 H314 0.961 . S
C307 H315 0.960 . S
C308 C306 1.381 . S
C308 C309 1.394 . S
C308 H316 0.930 . S
C309 C308 1.394 . S
C309 C310 1.383 . S
C309 H317 0.929 . S
C310 C309 1.383 . S
C310 C311 1.377 . S
C311 H295 0.930 . S
C311 C310 1.377 . S
C311 C312 1.379 . S
C312 H296 0.931 . S
C312 C306 1.383 . S
C312 C311 1.379 . S
H313 C307 0.959 . S
H314 C307 0.961 . S
H315 C307 0.960 . S
H316 C308 0.930 . S
H317 C309 0.929 . S
H318 C326 0.929 . S
H319 C328 0.930 . S
H320 C330 0.930 . S
H321 C333 0.929 . S
H322 C336 0.930 . S
H323 C338 0.960 . S
H324 C338 0.960 . S
H325 C338 0.960 . S
C326 H318 0.929 . S
C326 C327 1.377 . S
C326 C328 1.384 . S
C327 C326 1.377 . S
C327 C333 1.390 1_554 S
C328 H319 0.930 . S
C328 C326 1.384 . S
C328 C329 1.371 1_554 S
C329 C328 1.371 1_556 S
C329 C330 1.400 . S
C329 C334 1.490 . S
C330 H320 0.930 . S
C330 C329 1.400 . S
C330 C333 1.386 . S
H331 C347 0.930 . S
H332 C348 0.931 . S
C333 H321 0.929 . S
C333 C327 1.390 1_556 S
C333 C330 1.386 . S
C334 C329 1.490 . S
C334 C336 1.395 . S
C334 C337 1.403 1_556 S
H335 C341 0.930 . S
C336 H322 0.930 . S
C336 C334 1.395 . S
C336 C339 1.403 . S
C337 C334 1.403 1_554 S
C337 C338 1.524 . S
C337 C341 1.400 . S
C338 H323 0.960 . S
C338 H324 0.960 . S
C338 H325 0.960 . S
C338 C337 1.524 . S
C339 C336 1.403 . S
C339 C340 1.392 . S
C339 C343 1.495 . S
C340 C339 1.392 . S
C340 C341 1.385 1_556 S
C340 C342 1.478 . S
C341 H335 0.930 . S
C341 C337 1.400 . S
C341 C340 1.385 1_554 S
C342 C340 1.478 . S
C342 C344 1.381 . S
C342 C348 1.383 . S
C343 C339 1.495 . S
C343 H349 0.959 . S
C343 H350 0.961 . S
C343 H351 0.960 . S
C344 C342 1.381 . S
C344 C345 1.394 . S
C344 H352 0.930 . S
C345 C344 1.394 . S
C345 C346 1.383 . S
C345 H353 0.929 . S
C346 C345 1.383 . S
C346 C347 1.377 . S
C347 H331 0.930 . S
C347 C346 1.377 . S
C347 C348 1.379 . S
C348 H332 0.931 . S
C348 C342 1.383 . S
C348 C347 1.379 . S
H349 C343 0.959 . S
H350 C343 0.961 . S
H351 C343 0.960 . S
H352 C344 0.930 . S
H353 C345 0.929 . S
H354 C362 0.929 . S
H355 C364 0.930 . S
H356 C366 0.930 . S
H357 C369 0.929 . S
H358 C372 0.930 . S
H359 C374 0.960 . S
H360 C374 0.960 . S
H361 C374 0.960 1_554 S
C362 H354 0.929 . S
C362 C363 1.377 . S
C362 C364 1.384 . S
C363 C362 1.377 . S
C363 C369 1.390 . S
C364 H355 0.930 . S
C364 C362 1.384 . S
C364 C365 1.372 . S
C365 C364 1.372 . S
C365 C366 1.400 . S
C365 C370 1.490 . S
C366 H356 0.930 . S
C366 C365 1.400 . S
C366 C369 1.386 . S
H367 C383 0.930 . S
H368 C384 0.931 . S
C369 H357 0.929 . S
C369 C363 1.390 . S
C369 C366 1.386 . S
C370 C365 1.490 . S
C370 C372 1.395 . S
C370 C373 1.403 . S
H371 C377 0.930 . S
C372 H358 0.930 . S
C372 C370 1.395 . S
C372 C375 1.403 . S
C373 C370 1.403 . S
C373 C374 1.524 1_554 S
C373 C377 1.400 . S
C374 H359 0.960 . S
C374 H360 0.960 . S
C374 H361 0.960 1_556 S
C374 C373 1.524 1_556 S
C375 C372 1.403 . S
C375 C376 1.392 . S
C375 C379 1.495 . S
C376 C375 1.392 . S
C376 C377 1.385 . S
C376 C378 1.478 . S
C377 H371 0.930 . S
C377 C373 1.400 . S
C377 C376 1.385 . S
C378 C376 1.478 . S
C378 C380 1.381 . S
C378 C384 1.383 . S
C379 C375 1.495 . S
C379 H385 0.959 . S
C379 H386 0.961 . S
C379 H387 0.960 . S
C380 C378 1.381 . S
C380 C381 1.394 . S
C380 H388 0.930 . S
C381 C380 1.394 . S
C381 C382 1.383 . S
C381 H389 0.929 . S
C382 C381 1.383 . S
C382 C383 1.377 . S
C383 H367 0.930 . S
C383 C382 1.377 . S
C383 C384 1.379 . S
C384 H368 0.931 . S
C384 C378 1.383 . S
C384 C383 1.379 . S
H385 C379 0.959 . S
H386 C379 0.961 . S
H387 C379 0.960 . S
H388 C380 0.930 . S
H389 C381 0.929 . S
H390 C398 0.949 . S
H391 C400 0.930 . S
H392 C402 0.930 . S
H393 C405 0.929 . S
H394 C408 0.930 . S
H395 C410 0.960 . S
H396 C410 0.960 . S
H397 C410 0.960 . S
C398 H390 0.949 . S
C398 C399 1.377 . S
C398 C400 1.384 1_554 S
C399 C398 1.377 . S
C399 C405 1.390 . S
C400 H391 0.930 . S
C400 C398 1.384 1_556 S
C400 C401 1.372 . S
C401 C400 1.372 . S
C401 C402 1.400 . S
C401 C406 1.490 . S
C402 H392 0.930 . S
C402 C401 1.400 . S
C402 C405 1.386 1_556 S
H403 C419 0.930 . S
H404 C420 0.931 . S
C405 H393 0.929 . S
C405 C399 1.390 . S
C405 C402 1.386 1_554 S
C406 C401 1.490 . S
C406 C408 1.395 . S
C406 C409 1.403 1_556 S
H407 C413 0.944 . S
C408 H394 0.930 . S
C408 C406 1.395 . S
C408 C411 1.403 . S
C409 C406 1.403 1_554 S
C409 C410 1.524 . S
C409 C413 1.408 . S
C410 H395 0.960 . S
C410 H396 0.960 . S
C410 H397 0.960 . S
C410 C409 1.524 . S
C411 C408 1.403 . S
C411 C412 1.392 . S
C411 C415 1.495 . S
C412 C411 1.392 . S
C412 C413 1.364 1_556 S
C412 C414 1.478 . S
C413 H407 0.944 . S
C413 C409 1.408 . S
C413 C412 1.364 1_554 S
C414 C412 1.478 . S
C414 C416 1.381 . S
C414 C420 1.383 . S
C415 C411 1.495 . S
C415 H421 0.959 . S
C415 H422 0.961 . S
C415 H423 0.960 . S
C416 C414 1.381 . S
C416 C417 1.394 . S
C416 H424 0.930 . S
C417 C416 1.394 . S
C417 C418 1.383 . S
C417 H425 0.929 . S
C418 C417 1.383 . S
C418 C419 1.377 . S
C419 H403 0.930 . S
C419 C418 1.377 . S
C419 C420 1.379 . S
C420 H404 0.931 . S
C420 C414 1.383 . S
C420 C419 1.379 . S
H421 C415 0.959 . S
H422 C415 0.961 . S
H423 C415 0.960 . S
H424 C416 0.930 . S
H425 C417 0.929 . S
H426 C434 0.929 . S
H427 C436 0.930 . S
H428 C438 0.930 . S
H429 C441 0.929 . S
H430 C444 0.930 . S
H431 C446 0.960 . S
H432 C446 0.960 . S
H433 C446 0.960 . S
C434 H426 0.929 . S
C434 C435 1.377 . S
C434 C436 1.384 . S
C435 C434 1.377 . S
C435 C441 1.390 . S
C436 H427 0.930 . S
C436 C434 1.384 . S
C436 C437 1.372 . S
C437 C436 1.372 . S
C437 C438 1.400 . S
C437 C442 1.490 . S
C438 H428 0.930 . S
C438 C437 1.400 . S
C438 C441 1.386 . S
H439 C455 0.930 . S
H440 C456 0.931 . S
C441 H429 0.929 . S
C441 C435 1.390 . S
C441 C438 1.386 . S
C442 C437 1.490 . S
C442 C444 1.395 . S
C442 C445 1.403 . S
H443 C449 0.930 . S
C444 H430 0.930 . S
C444 C442 1.395 . S
C444 C447 1.403 . S
C445 C442 1.403 . S
C445 C446 1.524 . S
C445 C449 1.400 . S
C446 H431 0.960 . S
C446 H432 0.960 . S
C446 H433 0.960 . S
C446 C445 1.524 . S
C447 C444 1.403 . S
C447 C448 1.392 . S
C447 C451 1.495 . S
C448 C447 1.392 . S
C448 C449 1.385 . S
C448 C450 1.478 . S
C449 H443 0.930 . S
C449 C445 1.400 . S
C449 C448 1.385 . S
C450 C448 1.478 . S
C450 C452 1.381 . S
C450 C456 1.383 . S
C451 C447 1.495 . S
C451 H457 0.959 . S
C451 H458 0.961 . S
C451 H459 0.960 . S
C452 C450 1.381 . S
C452 C453 1.394 . S
C452 H460 0.930 . S
C453 C452 1.394 . S
C453 C454 1.383 . S
C453 H461 0.929 . S
C454 C453 1.383 . S
C454 C455 1.377 . S
C455 H439 0.930 . S
C455 C454 1.377 . S
C455 C456 1.379 . S
C456 H440 0.931 . S
C456 C450 1.383 . S
C456 C455 1.379 . S
H457 C451 0.959 . S
H458 C451 0.961 . S
H459 C451 0.960 . S
H460 C452 0.930 . S
H461 C453 0.929 . S
H462 C470 0.929 . S
H463 C472 0.930 . S
H464 C474 0.930 . S
H465 C477 0.929 . S
H466 C480 0.930 . S
H467 C482 0.960 . S
H468 C482 0.960 . S
H469 C482 0.960 . S
C470 H462 0.929 . S
C470 C471 1.377 . S
C470 C472 1.384 . S
C471 C470 1.377 . S
C471 C477 1.390 . S
C472 H463 0.930 . S
C472 C470 1.384 . S
C472 C473 1.372 . S
C473 C472 1.372 . S
C473 C474 1.400 . S
C473 C478 1.490 . S
C474 H464 0.930 . S
C474 C473 1.400 . S
C474 C477 1.386 . S
H475 C491 0.930 . S
H476 C492 0.931 . S
C477 H465 0.929 . S
C477 C471 1.390 . S
C477 C474 1.386 . S
C478 C473 1.490 . S
C478 C480 1.395 . S
C478 C481 1.403 . S
H479 C485 0.930 . S
C480 H466 0.930 . S
C480 C478 1.395 . S
C480 C483 1.403 . S
C481 C478 1.403 . S
C481 C482 1.524 . S
C481 C485 1.400 . S
C482 H467 0.960 . S
C482 H468 0.960 . S
C482 H469 0.960 . S
C482 C481 1.524 . S
C483 C480 1.403 . S
C483 C484 1.392 . S
C483 C487 1.495 . S
C484 C483 1.392 . S
C484 C485 1.385 . S
C484 C486 1.478 . S
C485 H479 0.930 . S
C485 C481 1.400 . S
C485 C484 1.385 . S
C486 C484 1.478 . S
C486 C488 1.381 . S
C486 C492 1.383 . S
C487 C483 1.495 . S
C487 H493 0.959 . S
C487 H494 0.961 . S
C487 H495 0.960 . S
C488 C486 1.381 . S
C488 C489 1.394 . S
C488 H496 0.930 . S
C489 C488 1.394 . S
C489 C490 1.383 . S
C489 H497 0.929 . S
C490 C489 1.383 . S
C490 C491 1.377 . S
C491 H475 0.930 . S
C491 C490 1.377 . S
C491 C492 1.379 . S
C492 H476 0.931 . S
C492 C486 1.383 . S
C492 C491 1.379 . S
H493 C487 0.959 . S
H494 C487 0.961 . S
H495 C487 0.960 . S
H496 C488 0.930 . S
H497 C489 0.929 . S
H498 C506 0.929 . S
H499 C508 0.930 . S
H500 C510 0.930 . S
H501 C513 0.929 . S
H502 C516 0.930 . S
H503 C518 0.960 . S
H504 C518 0.960 . S
H505 C518 0.960 . S
C506 H498 0.929 . S
C506 C507 1.377 . S
C506 C508 1.384 . S
C507 C506 1.377 . S
C507 C513 1.390 . S
C508 H499 0.930 . S
C508 C506 1.384 . S
C508 C509 1.372 . S
C509 C508 1.372 . S
C509 C510 1.400 . S
C509 C514 1.490 . S
C510 H500 0.930 . S
C510 C509 1.400 . S
C510 C513 1.386 . S
H511 C527 0.930 . S
H512 C528 0.931 . S
C513 H501 0.929 . S
C513 C507 1.390 . S
C513 C510 1.386 . S
C514 C509 1.490 . S
C514 C516 1.395 . S
C514 C517 1.403 . S
H515 C521 0.930 . S
C516 H502 0.930 . S
C516 C514 1.395 . S
C516 C519 1.403 . S
C517 C514 1.403 . S
C517 C518 1.524 . S
C517 C521 1.400 . S
C518 H503 0.960 . S
C518 H504 0.960 . S
C518 H505 0.960 . S
C518 C517 1.524 . S
C519 C516 1.403 . S
C519 C520 1.392 . S
C519 C523 1.495 . S
C520 C519 1.392 . S
C520 C521 1.385 . S
C520 C522 1.478 . S
C521 H515 0.930 . S
C521 C517 1.400 . S
C521 C520 1.385 . S
C522 C520 1.478 . S
C522 C524 1.381 . S
C522 C528 1.383 . S
C523 C519 1.495 . S
C523 H529 0.959 . S
C523 H530 0.961 . S
C523 H531 0.960 . S
C524 C522 1.381 . S
C524 C525 1.394 . S
C524 H532 0.930 . S
C525 C524 1.394 . S
C525 C526 1.383 . S
C525 H533 0.929 . S
C526 C525 1.383 . S
C526 C527 1.377 . S
C527 H511 0.930 . S
C527 C526 1.377 . S
C527 C528 1.379 . S
C528 H512 0.931 . S
C528 C522 1.383 . S
C528 C527 1.379 . S
H529 C523 0.959 . S
H530 C523 0.961 . S
H531 C523 0.960 . S
H532 C524 0.930 . S
H533 C525 0.929 . S
H534 C542 0.929 . S
H535 C544 0.930 . S
H536 C546 0.930 . S
H537 C549 0.929 . S
H538 C552 0.930 . S
H539 C554 0.960 . S
H540 C554 0.960 . S
H541 C554 0.960 . S
C542 H534 0.929 . S
C542 C543 1.377 . S
C542 C544 1.384 . S
C543 C542 1.377 . S
C543 C549 1.390 . S
C544 H535 0.930 . S
C544 C542 1.384 . S
C544 C545 1.372 . S
C545 C544 1.372 . S
C545 C546 1.400 . S
C545 C550 1.490 . S
C546 H536 0.930 . S
C546 C545 1.400 . S
C546 C549 1.386 . S
H547 C563 0.930 . S
H548 C564 0.931 . S
C549 H537 0.929 . S
C549 C543 1.390 . S
C549 C546 1.386 . S
C550 C545 1.490 . S
C550 C552 1.395 . S
C550 C553 1.403 . S
H551 C557 0.930 . S
C552 H538 0.930 . S
C552 C550 1.395 . S
C552 C555 1.403 . S
C553 C550 1.403 . S
C553 C554 1.524 . S
C553 C557 1.400 . S
C554 H539 0.960 . S
C554 H540 0.960 . S
C554 H541 0.960 . S
C554 C553 1.524 . S
C555 C552 1.403 . S
C555 C556 1.392 . S
C555 C559 1.495 . S
C556 C555 1.392 . S
C556 C557 1.385 . S
C556 C558 1.478 . S
C557 H551 0.930 . S
C557 C553 1.400 . S
C557 C556 1.385 . S
C558 C556 1.478 . S
C558 C560 1.381 . S
C558 C564 1.383 . S
C559 C555 1.495 . S
C559 H565 0.959 . S
C559 H566 0.961 . S
C559 H567 0.960 . S
C560 C558 1.381 . S
C560 C561 1.394 . S
C560 H568 0.930 . S
C561 C560 1.394 . S
C561 C562 1.383 . S
C561 H569 0.929 . S
C562 C561 1.383 . S
C562 C563 1.377 . S
C563 H547 0.930 . S
C563 C562 1.377 . S
C563 C564 1.379 . S
C564 H548 0.931 . S
C564 C558 1.383 . S
C564 C563 1.379 . S
H565 C559 0.959 . S
H566 C559 0.961 . S
H567 C559 0.960 . S
H568 C560 0.930 . S
H569 C561 0.929 . S
H570 C578 0.929 . S
H571 C580 0.930 . S
H572 C582 0.930 . S
H573 C585 0.929 . S
H574 C588 0.930 . S
H575 C590 0.960 . S
H576 C590 0.960 . S
H577 C590 0.960 . S
C578 H570 0.929 . S
C578 C579 1.377 . S
C578 C580 1.384 . S
C579 C578 1.377 . S
C579 C585 1.390 1_545 S
C580 H571 0.930 . S
C580 C578 1.384 . S
C580 C581 1.372 . S
C581 C580 1.372 . S
C581 C582 1.400 1_545 S
C581 C586 1.490 . S
C582 H572 0.930 . S
C582 C581 1.400 1_565 S
C582 C585 1.386 . S
H583 C599 0.930 . S
H584 C600 0.931 . S
C585 H573 0.929 . S
C585 C579 1.390 1_565 S
C585 C582 1.386 . S
C586 C581 1.490 . S
C586 C588 1.395 . S
C586 C589 1.403 1_545 S
H587 C593 0.930 . S
C588 H574 0.930 . S
C588 C586 1.395 . S
C588 C591 1.403 . S
C589 C586 1.403 1_565 S
C589 C590 1.524 . S
C589 C593 1.400 . S
C590 H575 0.960 . S
C590 H576 0.960 . S
C590 H577 0.960 . S
C590 C589 1.524 . S
C591 C588 1.403 . S
C591 C592 1.392 . S
C591 C595 1.495 1_455 S
C592 C591 1.392 . S
C592 C593 1.385 1_545 S
C592 C594 1.478 . S
C593 H587 0.930 . S
C593 C589 1.400 . S
C593 C592 1.385 1_565 S
C594 C592 1.478 . S
C594 C596 1.381 . S
C594 C600 1.383 1_545 S
C595 C591 1.495 1_655 S
C595 H601 0.959 . S
C595 H602 0.961 . S
C595 H603 0.960 1_655 S
C596 C594 1.381 . S
C596 C597 1.394 . S
C596 H604 0.930 . S
C597 C596 1.394 . S
C597 C598 1.394 . S
C597 H605 0.929 . S
C598 C597 1.394 . S
C598 C599 1.369 1_545 S
C599 H583 0.930 . S
C599 C598 1.369 1_565 S
C599 C600 1.379 . S
C600 H584 0.931 . S
C600 C594 1.383 1_565 S
C600 C599 1.379 . S
H601 C595 0.959 . S
H602 C595 0.961 . S
H603 C595 0.960 1_455 S
H604 C596 0.930 . S
H605 C597 0.929 . S
H606 C614 0.929 . S
H607 C616 0.930 . S
H608 C618 0.930 1_655 S
H609 C621 0.929 1_655 S
H610 C624 0.930 . S
H611 C626 0.960 . S
H612 C626 0.960 . S
H613 C626 0.960 . S
C614 H606 0.929 . S
C614 C615 1.377 . S
C614 C616 1.384 . S
C615 C614 1.377 . S
C615 C621 1.390 . S
C616 H607 0.930 . S
C616 C614 1.384 . S
C616 C617 1.372 . S
C617 C616 1.372 . S
C617 C618 1.400 . S
C617 C622 1.490 . S
C618 H608 0.930 1_455 S
C618 C617 1.400 . S
C618 C621 1.386 . S
H619 C635 0.930 . S
H620 C636 0.931 . S
C621 H609 0.929 1_455 S
C621 C615 1.390 . S
C621 C618 1.386 . S
C622 C617 1.490 . S
C622 C624 1.395 . S
C622 C625 1.403 1_455 S
H623 C629 0.930 . S
C624 H610 0.930 . S
C624 C622 1.395 . S
C624 C627 1.403 . S
C625 C622 1.403 1_655 S
C625 C626 1.524 . S
C625 C629 1.400 . S
C626 H611 0.960 . S
C626 H612 0.960 . S
C626 H613 0.960 . S
C626 C625 1.524 . S
C627 C624 1.403 . S
C627 C628 1.392 . S
C627 C631 1.495 . S
C628 C627 1.392 . S
C628 C629 1.385 1_455 S
C628 C630 1.478 . S
C629 H623 0.930 . S
C629 C625 1.400 . S
C629 C628 1.385 1_655 S
C630 C628 1.478 . S
C630 C632 1.381 . S
C630 C636 1.383 1_455 S
C631 C627 1.495 . S
C631 H637 0.959 . S
C631 H638 0.961 . S
C631 H639 0.960 . S
C632 C630 1.381 . S
C632 C633 1.394 . S
C632 H640 0.930 . S
C633 C632 1.394 . S
C633 C634 1.383 . S
C633 H641 0.929 . S
C634 C633 1.383 . S
C634 C635 1.377 1_455 S
C635 H619 0.930 . S
C635 C634 1.377 1_655 S
C635 C636 1.379 . S
C636 H620 0.931 . S
C636 C630 1.383 1_655 S
C636 C635 1.379 . S
H637 C631 0.959 . S
H638 C631 0.961 . S
H639 C631 0.960 . S
H640 C632 0.930 . S
H641 C633 0.929 . S
H642 C650 0.929 . S
H643 C652 0.930 . S
H644 C654 0.930 . S
H645 C657 0.929 . S
H646 C660 0.930 . S
H647 C662 0.960 . S
H648 C662 0.960 . S
H649 C662 0.960 . S
C650 H642 0.929 . S
C650 C651 1.377 . S
C650 C652 1.384 . S
C651 C650 1.377 . S
C651 C657 1.390 . S
C652 H643 0.930 . S
C652 C650 1.384 . S
C652 C653 1.372 . S
C653 C652 1.372 . S
C653 C654 1.400 . S
C653 C658 1.490 . S
C654 H644 0.930 . S
C654 C653 1.400 . S
C654 C657 1.386 . S
H655 C671 0.930 . S
H656 C672 0.931 . S
C657 H645 0.929 . S
C657 C651 1.390 . S
C657 C654 1.386 . S
C658 C653 1.490 . S
C658 C660 1.395 . S
C658 C661 1.403 . S
H659 C665 0.930 . S
C660 H646 0.930 . S
C660 C658 1.395 . S
C660 C663 1.403 . S
C661 C658 1.403 . S
C661 C662 1.524 . S
C661 C665 1.400 . S
C662 H647 0.960 . S
C662 H648 0.960 . S
C662 H649 0.960 . S
C662 C661 1.524 . S
C663 C660 1.403 . S
C663 C664 1.392 . S
C663 C667 1.495 . S
C664 C663 1.392 . S
C664 C665 1.385 . S
C664 C666 1.478 . S
C665 H659 0.930 . S
C665 C661 1.400 . S
C665 C664 1.385 . S
C666 C664 1.478 . S
C666 C668 1.381 . S
C666 C672 1.383 . S
C667 C663 1.495 . S
C667 H673 0.959 . S
C667 H674 0.961 . S
C667 H675 0.960 . S
C668 C666 1.381 . S
C668 C669 1.394 . S
C668 H676 0.930 . S
C669 C668 1.394 . S
C669 C670 1.383 . S
C669 H677 0.929 . S
C670 C669 1.383 . S
C670 C671 1.377 . S
C671 H655 0.930 . S
C671 C670 1.377 . S
C671 C672 1.379 . S
C672 H656 0.931 . S
C672 C666 1.383 . S
C672 C671 1.379 . S
H673 C667 0.959 . S
H674 C667 0.961 . S
H675 C667 0.960 . S
H676 C668 0.930 . S
H677 C669 0.929 . S
H678 C686 0.929 . S
H679 C688 0.930 . S
H680 C690 0.930 . S
H681 C693 0.929 . S
H682 C696 0.930 . S
H683 C698 0.960 . S
H684 C698 0.960 . S
H685 C698 0.960 . S
C686 H678 0.929 . S
C686 C687 1.377 . S
C686 C688 1.384 . S
C687 C686 1.377 . S
C687 C693 1.390 . S
C688 H679 0.930 . S
C688 C686 1.384 . S
C688 C689 1.372 . S
C689 C688 1.372 . S
C689 C690 1.400 . S
C689 C694 1.490 . S
C690 H680 0.930 . S
C690 C689 1.400 . S
C690 C693 1.386 . S
H691 C707 0.930 . S
H692 C708 0.931 . S
C693 H681 0.929 . S
C693 C687 1.390 . S
C693 C690 1.386 . S
C694 C689 1.490 . S
C694 C696 1.395 . S
C694 C697 1.403 . S
H695 C701 0.930 . S
C696 H682 0.930 . S
C696 C694 1.395 . S
C696 C699 1.403 . S
C697 C694 1.403 . S
C697 C698 1.524 . S
C697 C701 1.400 . S
C698 H683 0.960 . S
C698 H684 0.960 . S
C698 H685 0.960 . S
C698 C697 1.524 . S
C699 C696 1.403 . S
C699 C700 1.392 . S
C699 C703 1.495 . S
C700 C699 1.392 . S
C700 C701 1.385 . S
C700 C702 1.478 . S
C701 H695 0.930 . S
C701 C697 1.400 . S
C701 C700 1.385 . S
C702 C700 1.478 . S
C702 C704 1.381 . S
C702 C708 1.383 . S
C703 C699 1.495 . S
C703 H709 0.959 . S
C703 H710 0.961 . S
C703 H711 0.960 . S
C704 C702 1.381 . S
C704 C705 1.394 . S
C704 H712 0.930 . S
C705 C704 1.394 . S
C705 C706 1.383 . S
C705 H713 0.929 . S
C706 C705 1.383 . S
C706 C707 1.377 . S
C707 H691 0.930 . S
C707 C706 1.377 . S
C707 C708 1.379 . S
C708 H692 0.931 . S
C708 C702 1.383 . S
C708 C707 1.379 . S
H709 C703 0.959 . S
H710 C703 0.961 . S
H711 C703 0.960 . S
H712 C704 0.930 . S
H713 C705 0.929 . S
C310 C253 1.417 . S
C291 C16 1.248 . S
C327 C15 1.474 . S
C346 C193 1.482 . S
C363 C13 1.261 . S
C382 C223 1.357 . S
C399 C14 1.274 . S
C418 C163 1.225 . S
C435 C37 1.239 . S
C454 C133 1.424 . S
C471 C36 1.478 . S
C490 C73 1.494 . S
C526 C103 1.365 . S
C507 C34 1.257 . S
C562 C43 1.264 . S
C543 C35 1.265 . S
C579 C17 1.514 . S
C598 C62 1.505 . S
C615 C18 1.367 . S
C634 C122 1.398 1_455 S
C670 C182 1.508 . S
C651 C38 1.514 . S
C687 C39 1.364 . S
C706 C242 1.395 . S
