# Generated by pormake.
# Topology zzz, (3,6)-cn, num edge types: 1
# Building blocks:
#     Node 0, Type 0, BuildingBlock: INOVEN_clean_linker_0, # of connection points: 3
#     Node 1, Type 0, BuildingBlock: INOVEN_clean_linker_0, # of connection points: 3
#     Node 2, Type 0, BuildingBlock: INOVEN_clean_linker_0, # of connection points: 3
#     Node 3, Type 0, BuildingBlock: INOVEN_clean_linker_0, # of connection points: 3
#     Node 4, Type 0, BuildingBlock: INOVEN_clean_linker_0, # of connection points: 3
#     Node 5, Type 0, BuildingBlock: INOVEN_clean_linker_0, # of connection points: 3
#     Node 6, Type 0, BuildingBlock: INOVEN_clean_linker_0, # of connection points: 3
#     Node 7, Type 0, BuildingBlock: INOVEN_clean_linker_0, # of connection points: 3
#     Node 8, Type 1, BuildingBlock: MIFKUJ_clean_sbu_0, # of connection points: 6
#     Node 9, Type 1, BuildingBlock: MIFKUJ_clean_sbu_0, # of connection points: 6
#     Node 10, Type 1, BuildingBlock: MIFKUJ_clean_sbu_0, # of connection points: 6
#     Node 11, Type 1, BuildingBlock: MIFKUJ_clean_sbu_0, # of connection points: 6
#     Edge 12, Type (0, 1), BuildingBlock: AJUNOK_clean_linker_0, # of connection points: 2
#     Edge 13, Type (0, 1), BuildingBlock: AJUNOK_clean_linker_0, # of connection points: 2
#     Edge 14, Type (0, 1), BuildingBlock: AJUNOK_clean_linker_0, # of connection points: 2
#     Edge 15, Type (0, 1), BuildingBlock: AJUNOK_clean_linker_0, # of connection points: 2
#     Edge 16, Type (0, 1), BuildingBlock: AJUNOK_clean_linker_0, # of connection points: 2
#     Edge 17, Type (0, 1), BuildingBlock: AJUNOK_clean_linker_0, # of connection points: 2
#     Edge 18, Type (0, 1), BuildingBlock: AJUNOK_clean_linker_0, # of connection points: 2
#     Edge 19, Type (0, 1), BuildingBlock: AJUNOK_clean_linker_0, # of connection points: 2
#     Edge 20, Type (0, 1), BuildingBlock: AJUNOK_clean_linker_0, # of connection points: 2
#     Edge 21, Type (0, 1), BuildingBlock: AJUNOK_clean_linker_0, # of connection points: 2
#     Edge 22, Type (0, 1), BuildingBlock: AJUNOK_clean_linker_0, # of connection points: 2
#     Edge 23, Type (0, 1), BuildingBlock: AJUNOK_clean_linker_0, # of connection points: 2
#     Edge 24, Type (0, 1), BuildingBlock: AJUNOK_clean_linker_0, # of connection points: 2
#     Edge 25, Type (0, 1), BuildingBlock: AJUNOK_clean_linker_0, # of connection points: 2
#     Edge 26, Type (0, 1), BuildingBlock: AJUNOK_clean_linker_0, # of connection points: 2
#     Edge 27, Type (0, 1), BuildingBlock: AJUNOK_clean_linker_0, # of connection points: 2
#     Edge 28, Type (0, 1), BuildingBlock: AJUNOK_clean_linker_0, # of connection points: 2
#     Edge 29, Type (0, 1), BuildingBlock: AJUNOK_clean_linker_0, # of connection points: 2
#     Edge 30, Type (0, 1), BuildingBlock: AJUNOK_clean_linker_0, # of connection points: 2
#     Edge 31, Type (0, 1), BuildingBlock: AJUNOK_clean_linker_0, # of connection points: 2
#     Edge 32, Type (0, 1), BuildingBlock: AJUNOK_clean_linker_0, # of connection points: 2
#     Edge 33, Type (0, 1), BuildingBlock: AJUNOK_clean_linker_0, # of connection points: 2
#     Edge 34, Type (0, 1), BuildingBlock: AJUNOK_clean_linker_0, # of connection points: 2
#     Edge 35, Type (0, 1), BuildingBlock: AJUNOK_clean_linker_0, # of connection points: 2
# Relax obj value: 0.126
# Max RMSD: 0.124
# Mean RMSD: 0.086
data_MOF--net-zzz--node1-MIFKUJ_clean_sbu_0--node2-INOVEN_clean_linker_0--edge1-AJUNOK_clean_linker_0
_symmetry_space_group_name_H-M    P1
_symmetry_Int_Tables_number       1
_symmetry_cell_setting            triclinic
loop_
_symmetry_equiv_pos_as_xyz
'x, y, z'
_cell_length_a     37.238101
_cell_length_b     37.287619
_cell_length_c     12.204241
_cell_angle_alpha  89.960869
_cell_angle_beta   89.902873
_cell_angle_gamma 89.997802
loop_
_atom_site_label
_atom_site_type_symbol
_atom_site_fract_x
_atom_site_fract_y
_atom_site_fract_z
_atom_type_partial_charge
H0 H 0.73229 0.50494 0.26319 0.0
H1 H 0.82673 0.55536 0.13044 0.0
H2 H 0.73253 0.5467 0.93428 0.0
N3 N 0.69142 0.5151 0.07995 0.0
N4 N 0.67112 0.53324 0.02029 0.0
C5 C 0.74515 0.52046 0.19918 0.0
C6 C 0.78115 0.53197 0.21122 0.0
C7 C 0.7265 0.52837 0.10124 0.0
C8 C 0.74506 0.5447 0.01422 0.0
C9 C 0.78129 0.55306 0.02385 0.0
C10 C 0.79818 0.54964 0.12472 0.0
H11 H 0.0072 0.729 0.29737 0.0
H12 H 0.97021 0.82745 0.14973 0.0
H13 H 0.98063 0.73376 0.95354 0.0
N14 N 0.0021 0.68948 0.10744 0.0
N15 N 0.9843 0.67155 0.04002 0.0
C16 C 0.99648 0.7435 0.22783 0.0
C17 C 0.98707 0.78033 0.23801 0.0
C18 C 0.992 0.72587 0.12558 0.0
C19 C 0.98083 0.74586 0.03433 0.0
C20 C 0.97335 0.78212 0.04388 0.0
C21 C 0.97481 0.7987 0.14551 0.0
H22 H 0.76604 0.01215 0.25049 0.0
H23 H 0.67975 0.9463 0.13177 0.0
H24 H 0.77525 0.95806 0.94116 0.0
N25 N 0.81079 0.99851 0.0788 0.0
N26 N 0.83445 0.97998 0.03349 0.0
C27 C 0.75588 0.99268 0.19246 0.0
C28 C 0.72074 0.97884 0.20396 0.0
C29 C 0.7769 0.98257 0.10105 0.0
C30 C 0.76138 0.96132 0.01874 0.0
C31 C 0.7257 0.95032 0.0268 0.0
C32 C 0.70752 0.955 0.12555 0.0
H33 H 0.50148 0.78039 0.26201 0.0
H34 H 0.56148 0.68735 0.158 0.0
H35 H 0.55154 0.77583 0.94319 0.0
N36 N 0.51882 0.82123 0.08096 0.0
N37 N 0.52926 0.83404 -0.00839 0.0
C38 C 0.51925 0.76729 0.20427 0.0
C39 C 0.52994 0.73103 0.22132 0.0
C40 C 0.52997 0.78534 0.10672 0.0
C41 C 0.54809 0.76532 0.02536 0.0
C42 C 0.55694 0.72965 0.04224 0.0
C43 C 0.55334 0.71506 0.14602 0.0
H44 H 0.30456 0.48062 0.98633 0.0
H45 H 0.19623 0.5181 0.03885 0.0
H46 H 0.26882 0.51564 0.30655 0.0
N47 N 0.32675 0.49242 0.19763 0.0
N48 N 0.32921 0.49012 0.29971 0.0
C49 C 0.28439 0.49244 0.0391 0.0
C50 C 0.24932 0.49917 -0.00127 0.0
C51 C 0.29226 0.49959 0.15081 0.0
C52 C 0.26459 0.51255 0.21922 0.0
C53 C 0.23025 0.51853 0.17876 0.0
C54 C 0.22352 0.51427 0.06811 0.0
H55 H 0.03102 0.30004 0.94997 0.0
H56 H 0.02989 0.18823 0.04449 0.0
H57 H 0.01506 0.26785 0.288 0.0
N58 N 0.01936 0.32505 0.16074 0.0
N59 N 0.99998 0.33081 0.24275 0.0
C60 C 0.02899 0.27943 0.01218 0.0
C61 C 0.03233 0.24258 0.98328 0.0
C62 C 0.02219 0.28888 0.12336 0.0
C63 C 0.01914 0.2615 0.20217 0.0
C64 C 0.0223 0.22592 0.17253 0.0
C65 C 0.02861 0.21657 0.06488 0.0
H66 H 0.20714 0.02611 0.98827 0.0
H67 H 0.31867 0.99778 0.02266 0.0
H68 H 0.25223 0.00272 0.30708 0.0
N69 N 0.19002 0.0169 0.20291 0.0
N70 N 0.18658 0.01176 0.30365 0.0
C71 C 0.22947 0.01796 0.03928 0.0
C72 C 0.26379 0.01275 -0.00726 0.0
C73 C 0.22459 0.01289 0.15335 0.0
C74 C 0.25472 0.00427 0.21879 0.0
C75 C 0.28855 0.99924 0.17154 0.0
C76 C 0.2923 0.00187 0.05892 0.0
H77 H 0.49372 0.2176 0.95554 0.0
H78 H 0.46244 0.32442 0.05141 0.0
H79 H 0.47467 0.24365 0.29536 0.0
N80 N 0.49192 0.19047 0.16569 0.0
N81 N 0.51004 0.18666 0.25122 0.0
C82 C 0.48492 0.23634 0.01775 0.0
C83 C 0.47622 0.27224 0.98914 0.0
C84 C 0.48387 0.22581 0.12939 0.0
C85 C 0.47461 0.2511 0.20942 0.0
C86 C 0.46744 0.2864 0.18108 0.0
C87 C 0.46643 0.29631 0.07159 0.0
Zn88 Zn 0.99806 0.06167 0.61342 0.0
Zn89 Zn 0.01004 0.95816 0.65744 0.0
C90 C 0.00402 0.13004 0.70313 0.0
O91 O 0.97066 0.12707 0.66955 0.0
C92 C 0.0209 0.90098 0.51508 0.0
O93 O 0.05083 0.90286 0.57163 0.0
O94 O 0.98427 0.0905 0.48373 0.0
O95 O 0.02804 0.02205 0.53697 0.0
O96 O 0.05732 0.98264 0.63371 0.0
C97 C 0.01431 0.10239 0.44949 0.0
O98 O 0.04392 0.09007 0.49393 0.0
O99 O 0.02386 0.10199 0.7 0.0
C100 C 0.98379 0.90205 0.76309 0.0
O101 O 0.95646 0.91485 0.70737 0.0
O102 O 0.01318 0.91944 0.76573 0.0
O103 O 0.97152 0.98993 0.7221 0.0
O104 O 0.95506 0.0463 0.70508 0.0
O105 O 0.99807 0.92643 0.52529 0.0
C106 C 0.05784 0.00874 0.56698 0.0
C107 C 0.9507 0.01556 0.74798 0.0
Zn108 Zn 0.44609 0.01221 0.6446 0.0
Zn109 Zn 0.55558 0.01626 0.65356 0.0
C110 C 0.3757 0.00739 0.71672 0.0
O111 O 0.38442 0.97433 0.69075 0.0
C112 C 0.60566 0.02042 0.4942 0.0
O113 O 0.61069 0.04876 0.55609 0.0
O114 O 0.42762 0.98737 0.50971 0.0
O115 O 0.48015 0.05297 0.58706 0.0
O116 O 0.53757 0.06551 0.61806 0.0
C117 C 0.40779 0.00963 0.45979 0.0
O118 O 0.40433 0.04204 0.49932 0.0
O119 O 0.40004 0.03141 0.71279 0.0
C120 C 0.60842 0.98078 0.75043 0.0
O121 O 0.59025 0.9572 0.69335 0.0
O122 O 0.59777 0.01326 0.75311 0.0
O123 O 0.51987 0.98408 0.72608 0.0
O124 O 0.46274 0.97365 0.7501 0.0
O125 O 0.57911 0.99974 0.51353 0.0
C126 C 0.50774 0.07304 0.57256 0.0
C127 C 0.49506 0.9655 0.7687 0.0
Zn128 Zn 0.51162 0.45151 0.59838 0.0
Zn129 Zn 0.49697 0.55728 0.65788 0.0
C130 C 0.51165 0.38661 0.70285 0.0
O131 O 0.54345 0.39037 0.65757 0.0
C132 C 0.48926 0.61961 0.52844 0.0
O133 O 0.46627 0.62558 0.60797 0.0
O134 O 0.51835 0.42386 0.46344 0.0
O135 O 0.48413 0.49633 0.55404 0.0
O136 O 0.44852 0.53435 0.63133 0.0
C137 C 0.4872 0.41218 0.44042 0.0
O138 O 0.45925 0.42497 0.49302 0.0
O139 O 0.48944 0.41271 0.69607 0.0
C140 C 0.52917 0.60938 0.76733 0.0
O141 O 0.55286 0.59835 0.69484 0.0
O142 O 0.49952 0.59268 0.77743 0.0
O143 O 0.53516 0.51961 0.69812 0.0
O144 O 0.55694 0.46549 0.67682 0.0
O145 O 0.50604 0.58967 0.52469 0.0
C146 C 0.45221 0.50579 0.57582 0.0
C147 C 0.55871 0.49604 0.72242 0.0
Zn148 Zn 0.06674 0.50443 0.62834 0.0
Zn149 Zn 0.95538 0.50572 0.63182 0.0
C150 C 0.13929 0.50398 0.7 0.0
O151 O 0.13551 0.53602 0.65683 0.0
C152 C 0.90409 0.49841 0.47459 0.0
O153 O 0.90619 0.46699 0.52276 0.0
O154 O 0.08884 0.5246 0.49225 0.0
O155 O 0.03264 0.46503 0.56909 0.0
O156 O 0.974 0.45752 0.59064 0.0
C157 C 0.10514 0.49818 0.44918 0.0
O158 O 0.09954 0.46617 0.49048 0.0
O159 O 0.11162 0.48375 0.70588 0.0
C160 C 0.89954 0.53442 0.73601 0.0
O161 O 0.91477 0.56134 0.68415 0.0
O162 O 0.9143 0.50361 0.73383 0.0
O163 O 0.9896 0.53784 0.7134 0.0
O164 O 0.04808 0.54422 0.72805 0.0
O165 O 0.92698 0.52267 0.49933 0.0
C166 C 0.00397 0.44708 0.55273 0.0
C167 C 0.0165 0.55394 0.75407 0.0
C168 C 0.155 0.00408 0.47451 0.0
C169 C 0.15385 0.01384 0.36365 0.0
C170 C 0.12401 0.00343 0.53947 0.0
C171 C 0.09032 0.01278 0.49634 0.0
H172 H 0.18033 0.99621 0.5109 0.0
H173 H 0.12646 0.99511 0.62421 0.0
S174 S 0.07279 0.04177 0.20934 0.0
N175 N 0.11651 0.03434 0.21267 0.0
N176 N 0.05779 0.03278 0.33385 0.0
C177 C 0.08878 0.02345 0.38506 0.0
C178 C 0.12063 0.02405 0.31868 0.0
C179 C 0.54078 0.14668 0.37794 0.0
C180 C 0.5104 0.1547 0.31467 0.0
C181 C 0.53955 0.1207 0.46157 0.0
C182 C 0.50738 0.10252 0.48844 0.0
H183 H 0.56553 0.16128 0.36413 0.0
H184 H 0.56407 0.11521 0.50615 0.0
S185 S 0.41906 0.1179 0.35473 0.0
N186 N 0.44692 0.14421 0.28706 0.0
N187 N 0.44377 0.09743 0.44784 0.0
C188 C 0.47663 0.11128 0.42667 0.0
C189 C 0.4783 0.13675 0.33904 0.0
C190 C 0.3579 0.48728 0.47621 0.0
C191 C 0.36145 0.48743 0.3616 0.0
C192 C 0.38763 0.49148 0.54526 0.0
C193 C 0.42233 0.49526 0.50216 0.0
H194 H 0.33139 0.48582 0.51269 0.0
H195 H 0.38328 0.49297 0.63295 0.0
S196 S 0.44685 0.49462 0.20666 0.0
N197 N 0.40273 0.48979 0.20716 0.0
N198 N 0.45901 0.497 0.33662 0.0
C199 C 0.42666 0.49349 0.38713 0.0
C200 C 0.39613 0.48969 0.31661 0.0
C201 C 0.02792 0.38724 0.30798 0.0
C202 C 0.99932 0.36263 0.30656 0.0
C203 C 0.02984 0.41396 0.38958 0.0
C204 C 0.00361 0.41664 0.47318 0.0
H205 H 0.04933 0.38521 0.24816 0.0
H206 H 0.05178 0.43285 0.38592 0.0
S207 S 0.92334 0.35811 0.50168 0.0
N208 N 0.94431 0.34269 0.39215 0.0
N209 N 0.94782 0.39204 0.54579 0.0
C210 C 0.97474 0.39223 0.47038 0.0
C211 C 0.97272 0.36553 0.38709 0.0
C212 C 0.86353 0.02378 0.912 0.0
C213 C 0.86579 0.99451 0.98454 0.0
C214 C 0.89158 0.03132 0.83779 0.0
C215 C 0.92266 0.00973 0.83364 0.0
H216 H 0.83898 0.03928 0.90725 0.0
H217 H 0.88814 0.05309 0.77994 0.0
S218 S 0.94364 0.93452 0.02334 0.0
N219 N 0.90248 0.94677 0.05715 0.0
N220 N 0.95593 0.96157 0.92279 0.0
C221 C 0.92609 0.98225 0.91251 0.0
C222 C 0.89743 0.97447 0.98646 0.0
C223 C 0.50084 0.89496 -0.00309 0.0
C224 C 0.52033 0.86762 0.94398 0.0
C225 C 0.49259 0.92715 0.94041 0.0
C226 C 0.50383 0.93255 0.8308 0.0
H227 H 0.49201 0.89151 0.08082 0.0
H228 H 0.47759 0.94789 0.98244 0.0
S229 S 0.55263 0.86741 0.65718 0.0
N230 N 0.54896 0.84736 0.77732 0.0
N231 N 0.53301 0.90681 0.67172 0.0
C232 C 0.52274 0.90506 0.77852 0.0
C233 C 0.5311 0.87289 0.83528 0.0
C234 C 0.61256 0.54434 0.9428 0.0
C235 C 0.63958 0.51981 0.96984 0.0
C236 C 0.58588 0.53577 0.86645 0.0
C237 C 0.58604 0.50297 0.80953 0.0
H238 H 0.61291 0.57098 0.97817 0.0
H239 H 0.56537 0.55537 0.85091 0.0
S240 S 0.64948 0.42769 0.8598 0.0
N241 N 0.66338 0.45984 0.94252 0.0
N242 N 0.61407 0.44401 0.79551 0.0
C243 C 0.61199 0.47726 0.8406 0.0
C244 C 0.63863 0.48567 0.9212 0.0
C245 C 0.96852 0.61469 0.95852 0.0
C246 C 0.99534 0.63838 -0.00646 0.0
C247 C 0.976 0.58688 0.88469 0.0
C248 C 0.01056 0.58213 0.8396 0.0
H249 H 0.94103 0.61876 0.98495 0.0
H250 H 0.95412 0.56955 0.86094 0.0
S251 S 0.09088 0.63685 0.90789 0.0
N252 N 0.05828 0.65485 0.98154 0.0
N253 N 0.07257 0.60296 0.8411 0.0
C254 C 0.03815 0.6049 0.87769 0.0
C255 C 0.0305 0.63298 0.95471 0.0
C256 C 0.98746 0.18517 0.29181 0.0
C257 C 0.02074 0.19748 0.25372 0.0
C258 C 0.98533 0.15376 0.3539 0.0
C259 C 0.01648 0.13399 0.3785 0.0
H260 H 0.963 0.1993 0.27067 0.0
H261 H 0.95922 0.14498 0.38253 0.0
S262 S 0.11009 0.15689 0.29766 0.0
N263 N 0.0852 0.18925 0.24553 0.0
N264 N 0.08176 0.12982 0.36081 0.0
C265 C 0.05002 0.14673 0.3415 0.0
C266 C 0.05202 0.1787 0.27945 0.0
C267 C 0.34977 0.02063 0.21617 0.0
C268 C 0.32136 0.9968 0.23859 0.0
C269 C 0.38006 0.02171 0.28267 0.0
C270 C 0.38308 0.99898 0.37347 0.0
H271 H 0.34781 0.03992 0.14996 0.0
H272 H 0.40026 0.042 0.26692 0.0
S273 S 0.31777 0.92995 0.46279 0.0
N274 N 0.29919 0.94835 0.35348 0.0
N275 N 0.35666 0.95053 0.47959 0.0
C276 C 0.35603 0.9736 0.39351 0.0
C277 C 0.32486 0.97265 0.32607 0.0
C278 C 0.44376 0.34211 0.26455 0.0
C279 C 0.46981 0.31494 0.26287 0.0
C280 C 0.44993 0.37391 0.32152 0.0
C281 C 0.48252 0.37953 0.37662 0.0
H282 H 0.41915 0.33925 0.21812 0.0
H283 H 0.42939 0.39452 0.32053 0.0
S284 S 0.55776 0.31509 0.40508 0.0
N285 N 0.52824 0.29447 0.32655 0.0
N286 N 0.5398 0.35442 0.43415 0.0
C287 C 0.50817 0.35201 0.37916 0.0
C288 C 0.50172 0.31951 0.32243 0.0
C289 C 0.17809 0.54388 0.28255 0.0
C290 C 0.19958 0.51464 0.25255 0.0
C291 C 0.1467 0.53845 0.3441 0.0
C292 C 0.13582 0.50361 0.37465 0.0
H293 H 0.18554 0.57081 0.2582 0.0
H294 H 0.1311 0.56163 0.3685 0.0
S295 S 0.18272 0.41839 0.30592 0.0
N296 N 0.20802 0.4502 0.25248 0.0
N297 N 0.14872 0.43944 0.364 0.0
C298 C 0.15699 0.47422 0.34147 0.0
C299 C 0.18902 0.47991 0.28149 0.0
C300 C 0.94333 0.82629 0.9243 0.0
C301 C 0.97356 0.80528 0.94759 0.0
C302 C 0.94654 0.85683 0.85883 0.0
C303 C 0.98026 0.8676 0.81872 0.0
H304 H 0.91775 0.82039 0.9627 0.0
H305 H 0.92297 0.87332 0.84581 0.0
S306 S 0.06628 0.81847 0.8449 0.0
N307 N 0.0371 0.7945 0.91594 0.0
N308 N 0.04335 0.85258 0.79449 0.0
C309 C 0.01008 0.8453 0.83484 0.0
C310 C 0.00663 0.81383 0.8991 0.0
C311 C 0.70108 0.98378 0.87127 0.0
C312 C 0.70302 0.95095 0.92831 0.0
C313 C 0.6705 0.99307 0.81195 0.0
C314 C 0.64135 0.96947 0.80555 0.0
H315 H 0.7217 0.004 0.88167 0.0
H316 H 0.66918 0.01934 0.77411 0.0
S317 S 0.63543 0.87822 0.92514 0.0
N318 N 0.67502 0.8934 0.96476 0.0
N319 N 0.61768 0.91033 0.84928 0.0
C320 C 0.64433 0.9352 0.85274 0.0
C321 C 0.67528 0.92597 0.91472 0.0
C322 C 0.57951 0.68182 0.91796 0.0
C323 C 0.55162 0.70442 0.95192 0.0
C324 C 0.57203 0.65131 0.85537 0.0
C325 C 0.5364 0.64207 0.82925 0.0
H326 H 0.60684 0.68692 0.94393 0.0
H327 H 0.59408 0.63402 0.83153 0.0
S328 S 0.45426 0.69368 0.89621 0.0
N329 N 0.48748 0.71702 0.9501 0.0
N330 N 0.47333 0.65872 0.83717 0.0
C331 C 0.50848 0.66509 0.86008 0.0
C332 C 0.51617 0.69665 0.92008 0.0
C333 C 0.82856 0.57993 0.90647 0.0
C334 C 0.80454 0.55179 0.92714 0.0
C335 C 0.85864 0.57446 0.83989 0.0
C336 C 0.86587 0.54045 0.79505 0.0
H337 H 0.82528 0.60548 0.94754 0.0
H338 H 0.87741 0.59638 0.82899 0.0
S339 S 0.8091 0.45921 0.81704 0.0
N340 N 0.78809 0.48977 0.891 0.0
N341 N 0.84498 0.4794 0.76677 0.0
C342 C 0.84089 0.51278 0.8098 0.0
C343 C 0.81 0.51853 0.87561 0.0
C344 C 0.0602 0.19997 0.85262 0.0
C345 C 0.03493 0.22776 0.87032 0.0
C346 C 0.051 0.16891 0.79341 0.0
C347 C 0.01694 0.16543 0.74509 0.0
H348 H 0.08485 0.19958 0.89967 0.0
H349 H 0.06962 0.1466 0.7928 0.0
S350 S 0.94793 0.23743 0.72774 0.0
N351 N 0.9791 0.25412 0.80911 0.0
N352 N 0.96259 0.19742 0.69079 0.0
C353 C 0.99458 0.19612 0.74411 0.0
C354 C 0.00367 0.2272 0.80687 0.0
C355 C 0.2806 0.99043 0.81248 0.0
C356 C 0.27393 0.02062 0.87826 0.0
C357 C 0.31268 0.98751 0.75281 0.0
C358 C 0.3386 0.01509 0.75473 0.0
H359 H 0.26412 0.96667 0.82178 0.0
H360 H 0.31846 0.96216 0.71321 0.0
S361 S 0.32705 0.10457 0.88175 0.0
N362 N 0.29053 0.08218 0.91701 0.0
N363 N 0.35075 0.07707 0.80409 0.0
C364 C 0.3289 0.0479 0.80286 0.0
C365 C 0.29605 0.05083 0.8629 0.0
C366 C 0.45789 0.31067 0.83264 0.0
C367 C 0.48471 0.28944 0.88249 0.0
C368 C 0.46665 0.34166 0.77252 0.0
C369 C 0.50259 0.35219 0.75811 0.0
H370 H 0.42986 0.30547 0.8505 0.0
H371 H 0.4451 0.35822 0.74107 0.0
S372 S 0.58291 0.30308 0.85891 0.0
N373 N 0.54856 0.27923 0.90377 0.0
N374 N 0.56532 0.33655 0.78852 0.0
C375 C 0.52969 0.32923 0.79827 0.0
C376 C 0.52068 0.2979 0.86008 0.0
C377 C 0.20719 0.46198 0.89299 0.0
C378 C 0.23526 0.48751 0.89081 0.0
C379 C 0.17698 0.4655 0.82475 0.0
C380 C 0.1745 0.49393 0.74944 0.0
H381 H 0.2059 0.44265 0.95928 0.0
H382 H 0.15427 0.44789 0.8383 0.0
S383 S 0.24736 0.5585 0.68234 0.0
N384 N 0.26286 0.53582 0.78852 0.0
N385 N 0.20757 0.54117 0.65477 0.0
C386 C 0.20542 0.51522 0.73274 0.0
C387 C 0.23568 0.51206 0.80405 0.0
C388 C 0.96776 0.82757 0.37054 0.0
C389 C 0.99452 0.80328 0.33541 0.0
C390 C 0.97641 0.85898 0.42828 0.0
C391 C 0.01217 0.86721 0.45517 0.0
H392 H 0.94013 0.82362 0.3455 0.0
H393 H 0.95495 0.87729 0.44979 0.0
S394 S 0.09173 0.81011 0.39549 0.0
N395 N 0.05778 0.78814 0.3403 0.0
N396 N 0.07417 0.84631 0.45216 0.0
C397 C 0.03884 0.8417 0.4283 0.0
C398 C 0.02998 0.80989 0.36832 0.0
C399 C 0.69532 0.98623 0.3932 0.0
C400 C 0.6939 0.99398 0.28075 0.0
C401 C 0.66609 0.99441 0.46183 0.0
C402 C 0.63454 0.00986 0.41938 0.0
H403 H 0.71853 0.97279 0.42738 0.0
H404 H 0.66797 0.98826 0.54843 0.0
S405 S 0.61811 0.0368 0.13227 0.0
N406 N 0.65899 0.0196 0.13129 0.0
N407 N 0.60404 0.03403 0.26047 0.0
C408 C 0.63307 0.01842 0.30812 0.0
C409 C 0.66283 0.01072 0.23873 0.0
C410 C 0.51602 0.71092 0.41496 0.0
C411 C 0.51279 0.70591 0.30134 0.0
C412 C 0.50765 0.68291 0.4885 0.0
C413 C 0.49698 0.6488 0.45036 0.0
H414 H 0.52658 0.73589 0.44677 0.0
H415 H 0.51089 0.68749 0.57561 0.0
S416 S 0.47999 0.62316 0.16263 0.0
N417 N 0.4933 0.66533 0.15618 0.0
N418 N 0.48072 0.61249 0.29391 0.0
C419 C 0.49222 0.64392 0.33806 0.0
C420 C 0.49915 0.6726 0.26384 0.0
C421 C 0.82009 0.54499 0.37131 0.0
C422 C 0.80542 0.51953 0.29894 0.0
C423 C 0.85256 0.53843 0.42633 0.0
C424 C 0.87155 0.50629 0.41006 0.0
H425 H 0.80742 0.57098 0.38042 0.0
H426 H 0.86294 0.55868 0.48147 0.0
S427 S 0.84526 0.43157 0.22664 0.0
N428 N 0.81273 0.46135 0.21279 0.0
N429 N 0.87335 0.4487 0.31721 0.0
C430 C 0.8567 0.48026 0.34031 0.0
C431 C 0.82372 0.48693 0.2846 0.0
loop_
_geom_bond_atom_site_label_1
_geom_bond_atom_site_label_2
_geom_bond_distance
_geom_bond_site_symmetry_2
_ccdc_geom_bond_type
H0 C5 0.929 . S
H1 C10 0.931 . S
H2 C8 0.930 . S
N3 N4 1.234 1_554 S
N3 C7 1.453 . S
N4 N3 1.234 1_556 S
C5 H0 0.929 . S
C5 C6 1.373 . S
C5 C7 1.368 . S
C6 C5 1.373 . S
C6 C10 1.397 . S
C7 N3 1.453 . S
C7 C5 1.368 . S
C7 C8 1.373 1_554 S
C8 H2 0.930 . S
C8 C7 1.373 1_556 S
C8 C9 1.371 . S
C9 C8 1.371 . S
C9 C10 1.383 1_556 S
C10 H1 0.931 . S
C10 C6 1.397 . S
C10 C9 1.383 1_554 S
H11 C16 0.929 . S
H12 C21 0.931 . S
H13 C19 0.930 . S
N14 N15 1.234 1_554 S
N14 C18 1.453 . S
N15 N14 1.234 1_556 S
C16 H11 0.929 . S
C16 C17 1.373 . S
C16 C18 1.368 . S
C17 C16 1.373 . S
C17 C21 1.397 . S
C18 N14 1.453 . S
C18 C16 1.368 . S
C18 C19 1.373 1_554 S
C19 H13 0.930 . S
C19 C18 1.373 1_556 S
C19 C20 1.371 . S
C20 C19 1.371 . S
C20 C21 1.383 1_556 S
C21 H12 0.931 . S
C21 C17 1.397 . S
C21 C20 1.383 1_554 S
H22 C27 0.929 . S
H23 C32 0.931 . S
H24 C30 0.930 . S
N25 N26 1.234 1_554 S
N25 C29 1.453 . S
N26 N25 1.234 1_556 S
C27 H22 0.929 . S
C27 C28 1.373 . S
C27 C29 1.368 . S
C28 C27 1.373 . S
C28 C32 1.397 . S
C29 N25 1.453 . S
C29 C27 1.368 . S
C29 C30 1.373 1_554 S
C30 H24 0.930 . S
C30 C29 1.373 1_556 S
C30 C31 1.371 . S
C31 C30 1.371 . S
C31 C32 1.383 1_556 S
C32 H23 0.931 . S
C32 C28 1.397 . S
C32 C31 1.383 1_554 S
H33 C38 0.929 . S
H34 C43 0.931 . S
H35 C41 0.930 . S
N36 N37 1.234 1_554 S
N36 C40 1.453 . S
N37 N36 1.234 1_556 S
C38 H33 0.929 . S
C38 C39 1.373 . S
C38 C40 1.368 . S
C39 C38 1.373 . S
C39 C43 1.397 . S
C40 N36 1.453 . S
C40 C38 1.368 . S
C40 C41 1.373 1_554 S
C41 H35 0.930 . S
C41 C40 1.373 1_556 S
C41 C42 1.371 . S
C42 C41 1.371 . S
C42 C43 1.383 1_556 S
C43 H34 0.931 . S
C43 C39 1.397 . S
C43 C42 1.383 1_554 S
H44 C49 0.929 . S
H45 C54 0.931 . S
H46 C52 0.930 . S
N47 N48 1.234 . S
N47 C51 1.453 . S
N48 N47 1.234 . S
C49 H44 0.929 . S
C49 C50 1.373 . S
C49 C51 1.368 . S
C50 C49 1.373 . S
C50 C54 1.397 . S
C51 N47 1.453 . S
C51 C49 1.368 . S
C51 C52 1.373 . S
C52 H46 0.930 . S
C52 C51 1.373 . S
C52 C53 1.371 . S
C53 C52 1.371 . S
C53 C54 1.383 . S
C54 H45 0.931 . S
C54 C50 1.397 . S
C54 C53 1.383 . S
H55 C60 0.929 . S
H56 C65 0.931 . S
H57 C63 0.930 . S
N58 N59 1.234 . S
N58 C62 1.453 . S
N59 N58 1.234 . S
C60 H55 0.929 . S
C60 C61 1.373 . S
C60 C62 1.368 . S
C61 C60 1.373 . S
C61 C65 1.397 . S
C62 N58 1.453 . S
C62 C60 1.368 . S
C62 C63 1.373 . S
C63 H57 0.930 . S
C63 C62 1.373 . S
C63 C64 1.371 . S
C64 C63 1.371 . S
C64 C65 1.383 . S
C65 H56 0.931 . S
C65 C61 1.397 . S
C65 C64 1.383 . S
H66 C71 0.929 . S
H67 C76 0.931 . S
H68 C74 0.930 . S
N69 N70 1.234 . S
N69 C73 1.453 . S
N70 N69 1.234 . S
C71 H66 0.929 . S
C71 C72 1.373 . S
C71 C73 1.368 . S
C72 C71 1.373 . S
C72 C76 1.397 . S
C73 N69 1.453 . S
C73 C71 1.368 . S
C73 C74 1.373 . S
C74 H68 0.930 . S
C74 C73 1.373 . S
C74 C75 1.371 . S
C75 C74 1.371 . S
C75 C76 1.383 . S
C76 H67 0.931 . S
C76 C72 1.397 . S
C76 C75 1.383 . S
H77 C82 0.929 . S
H78 C87 0.931 . S
H79 C85 0.930 . S
N80 N81 1.234 . S
N80 C84 1.453 . S
N81 N80 1.234 . S
C82 H77 0.929 . S
C82 C83 1.373 . S
C82 C84 1.368 . S
C83 C82 1.373 . S
C83 C87 1.397 . S
C84 N80 1.453 . S
C84 C82 1.368 . S
C84 C85 1.373 . S
C85 H79 0.930 . S
C85 C84 1.373 . S
C85 C86 1.371 . S
C86 C85 1.371 . S
C86 C87 1.383 . S
C87 H78 0.931 . S
C87 C83 1.397 . S
C87 C86 1.383 . S
Zn88 O94 1.969 1_455 S
Zn88 O95 1.965 . S
Zn88 O99 2.024 . S
Zn88 O104 1.969 1_455 S
Zn89 O96 1.969 . S
Zn89 O102 1.969 . S
Zn89 O103 1.965 1_455 S
Zn89 O105 2.024 1_455 S
C90 O91 1.229 1_455 S
C90 O99 1.058 . S
O91 C90 1.229 1_655 S
C92 O93 1.229 1_655 S
C92 O105 1.058 . S
O93 C92 1.229 1_455 S
O94 Zn88 1.969 1_655 S
O94 C97 1.267 1_655 S
O95 Zn88 1.965 . S
O95 C106 1.260 . S
O96 Zn89 1.969 . S
O96 C106 1.258 1_565 S
C97 O94 1.267 1_455 S
C97 O98 1.228 . S
O98 C97 1.228 . S
O99 Zn88 2.024 . S
O99 C90 1.058 . S
C100 O101 1.228 1_455 S
C100 O102 1.267 . S
O101 C100 1.228 1_655 S
O102 Zn89 1.969 . S
O102 C100 1.267 . S
O103 Zn89 1.965 1_655 S
O103 C107 1.260 1_565 S
O104 Zn88 1.969 1_655 S
O104 C107 1.258 . S
O105 Zn89 2.024 1_655 S
O105 C92 1.058 . S
C106 O95 1.260 . S
C106 O96 1.258 1_545 S
C107 O103 1.260 1_545 S
C107 O104 1.258 . S
Zn108 O114 1.969 1_545 S
Zn108 O115 1.965 . S
Zn108 O119 2.024 . S
Zn108 O124 1.969 1_545 S
Zn109 O116 1.969 . S
Zn109 O122 1.969 . S
Zn109 O123 1.965 1_545 S
Zn109 O125 2.024 1_545 S
C110 O111 1.229 1_545 S
C110 O119 1.058 . S
O111 C110 1.229 1_565 S
C112 O113 1.229 1_565 S
C112 O125 1.058 . S
O113 C112 1.229 1_545 S
O114 Zn108 1.969 1_565 S
O114 C117 1.267 1_565 S
O115 Zn108 1.965 . S
O115 C126 1.260 . S
O116 Zn109 1.969 . S
O116 C126 1.258 . S
C117 O114 1.267 1_545 S
C117 O118 1.228 . S
O118 C117 1.228 . S
O119 Zn108 2.024 . S
O119 C110 1.058 . S
C120 O121 1.228 1_545 S
C120 O122 1.267 . S
O121 C120 1.228 1_565 S
O122 Zn109 1.969 . S
O122 C120 1.267 . S
O123 Zn109 1.965 1_565 S
O123 C127 1.260 . S
O124 Zn108 1.969 1_565 S
O124 C127 1.258 . S
O125 Zn109 2.024 1_565 S
O125 C112 1.058 . S
C126 O115 1.260 . S
C126 O116 1.258 . S
C127 O123 1.260 . S
C127 O124 1.258 . S
Zn128 O134 1.969 . S
Zn128 O135 1.965 . S
Zn128 O139 2.024 . S
Zn128 O144 1.969 . S
Zn129 O136 1.969 . S
Zn129 O142 1.969 . S
Zn129 O143 1.965 . S
Zn129 O145 2.024 . S
C130 O131 1.229 . S
C130 O139 1.058 . S
O131 C130 1.229 . S
C132 O133 1.229 . S
C132 O145 1.058 . S
O133 C132 1.229 . S
O134 Zn128 1.969 . S
O134 C137 1.267 . S
O135 Zn128 1.965 . S
O135 C146 1.260 . S
O136 Zn129 1.969 . S
O136 C146 1.258 . S
C137 O134 1.267 . S
C137 O138 1.228 . S
O138 C137 1.228 . S
O139 Zn128 2.024 . S
O139 C130 1.058 . S
C140 O141 1.228 . S
C140 O142 1.267 . S
O141 C140 1.228 . S
O142 Zn129 1.969 . S
O142 C140 1.267 . S
O143 Zn129 1.965 . S
O143 C147 1.260 . S
O144 Zn128 1.969 . S
O144 C147 1.258 . S
O145 Zn129 2.024 . S
O145 C132 1.058 . S
C146 O135 1.260 . S
C146 O136 1.258 . S
C147 O143 1.260 . S
C147 O144 1.258 . S
Zn148 O154 1.969 . S
Zn148 O155 1.965 . S
Zn148 O159 2.024 . S
Zn148 O164 1.969 . S
Zn149 O156 1.969 . S
Zn149 O162 1.969 . S
Zn149 O163 1.965 . S
Zn149 O165 2.024 . S
C150 O151 1.229 . S
C150 O159 1.058 . S
O151 C150 1.229 . S
C152 O153 1.229 . S
C152 O165 1.058 . S
O153 C152 1.229 . S
O154 Zn148 1.969 . S
O154 C157 1.267 . S
O155 Zn148 1.965 . S
O155 C166 1.260 . S
O156 Zn149 1.969 . S
O156 C166 1.258 1_655 S
C157 O154 1.267 . S
C157 O158 1.228 . S
O158 C157 1.228 . S
O159 Zn148 2.024 . S
O159 C150 1.058 . S
C160 O161 1.228 . S
C160 O162 1.267 . S
O161 C160 1.228 . S
O162 Zn149 1.969 . S
O162 C160 1.267 . S
O163 Zn149 1.965 . S
O163 C167 1.260 1_655 S
O164 Zn148 1.969 . S
O164 C167 1.258 . S
O165 Zn149 2.024 . S
O165 C152 1.058 . S
C166 O155 1.260 . S
C166 O156 1.258 1_455 S
C167 O163 1.260 1_455 S
C167 O164 1.258 . S
C168 C169 1.369 . S
C168 C170 1.419 . S
C168 H172 0.930 1_545 S
C169 C168 1.369 . S
C169 C178 1.429 . S
C170 C168 1.419 . S
C170 C171 1.363 . S
C170 H173 0.929 1_545 S
C171 C170 1.363 . S
C171 C177 1.428 . S
H172 C168 0.930 1_565 S
H173 C170 0.929 1_565 S
S174 N175 1.613 . S
S174 N176 1.610 . S
N175 S174 1.613 . S
N175 C178 1.350 . S
N176 S174 1.610 . S
N176 C177 1.351 . S
C177 C171 1.428 . S
C177 N176 1.351 . S
C177 C178 1.434 . S
C178 C169 1.429 . S
C178 N175 1.350 . S
C178 C177 1.434 . S
C179 C180 1.369 . S
C179 C181 1.419 . S
C179 H183 0.930 . S
C180 C179 1.369 . S
C180 C189 1.429 . S
C181 C179 1.419 . S
C181 C182 1.363 . S
C181 H184 0.929 . S
C182 C181 1.363 . S
C182 C188 1.428 . S
H183 C179 0.930 . S
H184 C181 0.929 . S
S185 N186 1.613 . S
S185 N187 1.610 . S
N186 S185 1.613 . S
N186 C189 1.350 . S
N187 S185 1.610 . S
N187 C188 1.351 . S
C188 C182 1.428 . S
C188 N187 1.351 . S
C188 C189 1.434 . S
C189 C180 1.429 . S
C189 N186 1.350 . S
C189 C188 1.434 . S
C190 C191 1.369 . S
C190 C192 1.419 . S
C190 H194 0.930 . S
C191 C190 1.369 . S
C191 C200 1.429 . S
C192 C190 1.419 . S
C192 C193 1.363 . S
C192 H195 0.929 . S
C193 C192 1.363 . S
C193 C199 1.428 . S
H194 C190 0.930 . S
H195 C192 0.929 . S
S196 N197 1.613 . S
S196 N198 1.610 . S
N197 S196 1.613 . S
N197 C200 1.350 . S
N198 S196 1.610 . S
N198 C199 1.351 . S
C199 C193 1.428 . S
C199 N198 1.351 . S
C199 C200 1.434 . S
C200 C191 1.429 . S
C200 N197 1.350 . S
C200 C199 1.434 . S
C201 C202 1.369 . S
C201 C203 1.419 . S
C201 H205 0.930 . S
C202 C201 1.369 . S
C202 C211 1.429 1_455 S
C203 C201 1.419 . S
C203 C204 1.363 . S
C203 H206 0.929 . S
C204 C203 1.363 . S
C204 C210 1.428 1_455 S
H205 C201 0.930 . S
H206 C203 0.929 . S
S207 N208 1.613 . S
S207 N209 1.610 . S
N208 S207 1.613 . S
N208 C211 1.350 . S
N209 S207 1.610 . S
N209 C210 1.351 . S
C210 C204 1.428 1_655 S
C210 N209 1.351 . S
C210 C211 1.434 . S
C211 C202 1.429 1_655 S
C211 N208 1.350 . S
C211 C210 1.434 . S
C212 C213 1.369 1_545 S
C212 C214 1.419 . S
C212 H216 0.930 . S
C213 C212 1.369 1_565 S
C213 C222 1.429 . S
C214 C212 1.419 . S
C214 C215 1.363 1_545 S
C214 H217 0.929 . S
C215 C214 1.363 1_565 S
C215 C221 1.428 . S
H216 C212 0.930 . S
H217 C214 0.929 . S
S218 N219 1.613 . S
S218 N220 1.610 1_554 S
N219 S218 1.613 . S
N219 C222 1.350 1_554 S
N220 S218 1.610 1_556 S
N220 C221 1.351 . S
C221 C215 1.428 . S
C221 N220 1.351 . S
C221 C222 1.434 . S
C222 C213 1.429 . S
C222 N219 1.350 1_556 S
C222 C221 1.434 . S
C223 C224 1.369 . S
C223 C225 1.419 . S
C223 H227 0.930 1_556 S
C224 C223 1.369 . S
C224 C233 1.429 . S
C225 C223 1.419 . S
C225 C226 1.363 . S
C225 H228 0.929 . S
C226 C225 1.363 . S
C226 C232 1.428 . S
H227 C223 0.930 1_554 S
H228 C225 0.929 . S
S229 N230 1.613 . S
S229 N231 1.610 . S
N230 S229 1.613 . S
N230 C233 1.350 . S
N231 S229 1.610 . S
N231 C232 1.351 . S
C232 C226 1.428 . S
C232 N231 1.351 . S
C232 C233 1.434 . S
C233 C224 1.429 . S
C233 N230 1.350 . S
C233 C232 1.434 . S
C234 C235 1.369 . S
C234 C236 1.419 . S
C234 H238 0.930 . S
C235 C234 1.369 . S
C235 C244 1.429 . S
C236 C234 1.419 . S
C236 C237 1.363 . S
C236 H239 0.929 . S
C237 C236 1.363 . S
C237 C243 1.428 . S
H238 C234 0.930 . S
H239 C236 0.929 . S
S240 N241 1.613 . S
S240 N242 1.610 . S
N241 S240 1.613 . S
N241 C244 1.350 . S
N242 S240 1.610 . S
N242 C243 1.351 . S
C243 C237 1.428 . S
C243 N242 1.351 . S
C243 C244 1.434 . S
C244 C235 1.429 . S
C244 N241 1.350 . S
C244 C243 1.434 . S
C245 C246 1.369 . S
C245 C247 1.419 . S
C245 H249 0.930 . S
C246 C245 1.369 . S
C246 C255 1.429 1_655 S
C247 C245 1.419 . S
C247 C248 1.363 . S
C247 H250 0.929 . S
C248 C247 1.363 . S
C248 C254 1.428 1_655 S
H249 C245 0.930 . S
H250 C247 0.929 . S
S251 N252 1.613 . S
S251 N253 1.610 . S
N252 S251 1.613 . S
N252 C255 1.350 . S
N253 S251 1.610 . S
N253 C254 1.351 . S
C254 C248 1.428 1_455 S
C254 N253 1.351 . S
C254 C255 1.434 . S
C255 C246 1.429 1_455 S
C255 N252 1.350 . S
C255 C254 1.434 . S
C256 C257 1.369 1_655 S
C256 C258 1.419 . S
C256 H260 0.930 . S
C257 C256 1.369 1_455 S
C257 C266 1.429 . S
C258 C256 1.419 . S
C258 C259 1.363 . S
C258 H261 0.929 . S
C259 C258 1.363 . S
C259 C265 1.428 1_655 S
H260 C256 0.930 . S
H261 C258 0.929 . S
S262 N263 1.613 . S
S262 N264 1.610 . S
N263 S262 1.613 . S
N263 C266 1.350 . S
N264 S262 1.610 . S
N264 C265 1.351 . S
C265 C259 1.428 1_455 S
C265 N264 1.351 . S
C265 C266 1.434 . S
C266 C257 1.429 . S
C266 N263 1.350 . S
C266 C265 1.434 . S
C267 C268 1.369 . S
C267 C269 1.419 . S
C267 H271 0.930 . S
C268 C267 1.369 . S
C268 C277 1.429 . S
C269 C267 1.419 . S
C269 C270 1.363 . S
C269 H272 0.929 . S
C270 C269 1.363 . S
C270 C276 1.428 1_545 S
H271 C267 0.930 . S
H272 C269 0.929 . S
S273 N274 1.613 . S
S273 N275 1.610 . S
N274 S273 1.613 . S
N274 C277 1.350 1_565 S
N275 S273 1.610 . S
N275 C276 1.351 . S
C276 C270 1.428 1_565 S
C276 N275 1.351 . S
C276 C277 1.434 1_565 S
C277 C268 1.429 . S
C277 N274 1.350 1_545 S
C277 C276 1.434 1_545 S
C278 C279 1.369 . S
C278 C280 1.419 . S
C278 H282 0.930 . S
C279 C278 1.369 . S
C279 C288 1.429 . S
C280 C278 1.419 . S
C280 C281 1.363 . S
C280 H283 0.929 . S
C281 C280 1.363 . S
C281 C287 1.428 . S
H282 C278 0.930 . S
H283 C280 0.929 . S
S284 N285 1.613 . S
S284 N286 1.610 . S
N285 S284 1.613 . S
N285 C288 1.350 . S
N286 S284 1.610 . S
N286 C287 1.351 . S
C287 C281 1.428 . S
C287 N286 1.351 . S
C287 C288 1.434 . S
C288 C279 1.429 . S
C288 N285 1.350 . S
C288 C287 1.434 . S
C289 C290 1.369 . S
C289 C291 1.419 . S
C289 H293 0.930 . S
C290 C289 1.369 . S
C290 C299 1.429 . S
C291 C289 1.419 . S
C291 C292 1.363 . S
C291 H294 0.929 . S
C292 C291 1.363 . S
C292 C298 1.428 . S
H293 C289 0.930 . S
H294 C291 0.929 . S
S295 N296 1.613 . S
S295 N297 1.610 . S
N296 S295 1.613 . S
N296 C299 1.350 . S
N297 S295 1.610 . S
N297 C298 1.351 . S
C298 C292 1.428 . S
C298 N297 1.351 . S
C298 C299 1.434 . S
C299 C290 1.429 . S
C299 N296 1.350 . S
C299 C298 1.434 . S
C300 C301 1.369 . S
C300 C302 1.419 . S
C300 H304 0.930 . S
C301 C300 1.369 . S
C301 C310 1.429 1_655 S
C302 C300 1.419 . S
C302 C303 1.363 1_655 S
C302 H305 0.929 . S
C303 C302 1.363 1_455 S
C303 C309 1.428 . S
H304 C300 0.930 . S
H305 C302 0.929 . S
S306 N307 1.613 . S
S306 N308 1.610 . S
N307 S306 1.613 . S
N307 C310 1.350 . S
N308 S306 1.610 . S
N308 C309 1.351 . S
C309 C303 1.428 . S
C309 N308 1.351 . S
C309 C310 1.434 . S
C310 C301 1.429 1_455 S
C310 N307 1.350 . S
C310 C309 1.434 . S
C311 C312 1.369 1_545 S
C311 C313 1.419 . S
C311 H315 0.930 . S
C312 C311 1.369 1_565 S
C312 C321 1.429 . S
C313 C311 1.419 . S
C313 C314 1.363 . S
C313 H316 0.929 . S
C314 C313 1.363 . S
C314 C320 1.428 1_545 S
H315 C311 0.930 . S
H316 C313 0.929 . S
S317 N318 1.613 . S
S317 N319 1.610 . S
N318 S317 1.613 . S
N318 C321 1.350 . S
N319 S317 1.610 . S
N319 C320 1.351 . S
C320 C314 1.428 1_565 S
C320 N319 1.351 . S
C320 C321 1.434 . S
C321 C312 1.429 . S
C321 N318 1.350 . S
C321 C320 1.434 . S
C322 C323 1.369 . S
C322 C324 1.419 . S
C322 H326 0.930 . S
C323 C322 1.369 . S
C323 C332 1.429 1_556 S
C324 C322 1.419 . S
C324 C325 1.363 . S
C324 H327 0.929 . S
C325 C324 1.363 . S
C325 C331 1.428 . S
H326 C322 0.930 . S
H327 C324 0.929 . S
S328 N329 1.613 . S
S328 N330 1.610 . S
N329 S328 1.613 . S
N329 C332 1.350 . S
N330 S328 1.610 . S
N330 C331 1.351 1_554 S
C331 C325 1.428 . S
C331 N330 1.351 1_556 S
C331 C332 1.434 1_556 S
C332 C323 1.429 1_554 S
C332 N329 1.350 . S
C332 C331 1.434 1_554 S
C333 C334 1.369 . S
C333 C335 1.419 . S
C333 H337 0.930 . S
C334 C333 1.369 . S
C334 C343 1.429 . S
C335 C333 1.419 . S
C335 C336 1.363 . S
C335 H338 0.929 . S
C336 C335 1.363 . S
C336 C342 1.428 . S
H337 C333 0.930 . S
H338 C335 0.929 . S
S339 N340 1.613 . S
S339 N341 1.610 1_554 S
N340 S339 1.613 . S
N340 C343 1.350 1_554 S
N341 S339 1.610 1_556 S
N341 C342 1.351 . S
C342 C336 1.428 . S
C342 N341 1.351 . S
C342 C343 1.434 . S
C343 C334 1.429 . S
C343 N340 1.350 1_556 S
C343 C342 1.434 . S
C344 C345 1.369 1_554 S
C344 C346 1.419 1_554 S
C344 H348 0.930 . S
C345 C344 1.369 1_556 S
C345 C354 1.429 . S
C346 C344 1.419 1_556 S
C346 C347 1.363 . S
C346 H349 0.929 1_556 S
C347 C346 1.363 . S
C347 C353 1.428 . S
H348 C344 0.930 . S
H349 C346 0.929 1_554 S
S350 N351 1.613 . S
S350 N352 1.610 . S
N351 S350 1.613 . S
N351 C354 1.350 . S
N352 S350 1.610 . S
N352 C353 1.351 . S
C353 C347 1.428 . S
C353 N352 1.351 . S
C353 C354 1.434 . S
C354 C345 1.429 . S
C354 N351 1.350 . S
C354 C353 1.434 . S
C355 C356 1.369 . S
C355 C357 1.419 . S
C355 H359 0.930 . S
C356 C355 1.369 . S
C356 C365 1.429 1_556 S
C357 C355 1.419 . S
C357 C358 1.363 . S
C357 H360 0.929 . S
C358 C357 1.363 . S
C358 C364 1.428 . S
H359 C355 0.930 . S
H360 C357 0.929 . S
S361 N362 1.613 . S
S361 N363 1.610 . S
N362 S361 1.613 . S
N362 C365 1.350 . S
N363 S361 1.610 . S
N363 C364 1.351 1_554 S
C364 C358 1.428 . S
C364 N363 1.351 1_556 S
C364 C365 1.434 1_556 S
C365 C356 1.429 1_554 S
C365 N362 1.350 . S
C365 C364 1.434 1_554 S
C366 C367 1.369 . S
C366 C368 1.419 . S
C366 H370 0.930 . S
C367 C366 1.369 . S
C367 C376 1.429 . S
C368 C366 1.419 . S
C368 C369 1.363 . S
C368 H371 0.929 . S
C369 C368 1.363 . S
C369 C375 1.428 . S
H370 C366 0.930 . S
H371 C368 0.929 . S
S372 N373 1.613 . S
S372 N374 1.610 . S
N373 S372 1.613 . S
N373 C376 1.350 . S
N374 S372 1.610 . S
N374 C375 1.351 . S
C375 C369 1.428 . S
C375 N374 1.351 . S
C375 C376 1.434 . S
C376 C367 1.429 . S
C376 N373 1.350 . S
C376 C375 1.434 . S
C377 C378 1.369 1_554 S
C377 C379 1.419 1_554 S
C377 H381 0.930 . S
C378 C377 1.369 1_556 S
C378 C387 1.429 . S
C379 C377 1.419 1_556 S
C379 C380 1.363 . S
C379 H382 0.929 1_556 S
C380 C379 1.363 . S
C380 C386 1.428 . S
H381 C377 0.930 . S
H382 C379 0.929 1_554 S
S383 N384 1.613 . S
S383 N385 1.610 . S
N384 S383 1.613 . S
N384 C387 1.350 . S
N385 S383 1.610 . S
N385 C386 1.351 . S
C386 C380 1.428 . S
C386 N385 1.351 . S
C386 C387 1.434 . S
C387 C378 1.429 . S
C387 N384 1.350 . S
C387 C386 1.434 . S
C388 C389 1.369 . S
C388 C390 1.419 . S
C388 H392 0.930 . S
C389 C388 1.369 . S
C389 C398 1.429 1_655 S
C390 C388 1.419 . S
C390 C391 1.363 . S
C390 H393 0.929 . S
C391 C390 1.363 . S
C391 C397 1.428 1_655 S
H392 C388 0.930 . S
H393 C390 0.929 . S
S394 N395 1.613 . S
S394 N396 1.610 . S
N395 S394 1.613 . S
N395 C398 1.350 . S
N396 S394 1.610 . S
N396 C397 1.351 . S
C397 C391 1.428 1_455 S
C397 N396 1.351 . S
C397 C398 1.434 . S
C398 C389 1.429 1_455 S
C398 N395 1.350 . S
C398 C397 1.434 . S
C399 C400 1.369 . S
C399 C401 1.419 . S
C399 H403 0.930 . S
C400 C399 1.369 . S
C400 C409 1.429 . S
C401 C399 1.419 . S
C401 C402 1.363 . S
C401 H404 0.929 . S
C402 C401 1.363 . S
C402 C408 1.428 . S
H403 C399 0.930 . S
H404 C401 0.929 . S
S405 N406 1.613 . S
S405 N407 1.610 . S
N406 S405 1.613 . S
N406 C409 1.350 . S
N407 S405 1.610 . S
N407 C408 1.351 . S
C408 C402 1.428 . S
C408 N407 1.351 . S
C408 C409 1.434 . S
C409 C400 1.429 . S
C409 N406 1.350 . S
C409 C408 1.434 . S
C410 C411 1.369 . S
C410 C412 1.419 . S
C410 H414 0.930 . S
C411 C410 1.369 . S
C411 C420 1.429 . S
C412 C410 1.419 . S
C412 C413 1.363 . S
C412 H415 0.929 . S
C413 C412 1.363 . S
C413 C419 1.428 . S
H414 C410 0.930 . S
H415 C412 0.929 . S
S416 N417 1.613 . S
S416 N418 1.610 . S
N417 S416 1.613 . S
N417 C420 1.350 . S
N418 S416 1.610 . S
N418 C419 1.351 . S
C419 C413 1.428 . S
C419 N418 1.351 . S
C419 C420 1.434 . S
C420 C411 1.429 . S
C420 N417 1.350 . S
C420 C419 1.434 . S
C421 C422 1.369 . S
C421 C423 1.419 . S
C421 H425 0.930 . S
C422 C421 1.369 . S
C422 C431 1.429 . S
C423 C421 1.419 . S
C423 C424 1.363 . S
C423 H426 0.929 . S
C424 C423 1.363 . S
C424 C430 1.428 . S
H425 C421 0.930 . S
H426 C423 0.929 . S
S427 N428 1.613 . S
S427 N429 1.610 . S
N428 S427 1.613 . S
N428 C431 1.350 . S
N429 S427 1.610 . S
N429 C430 1.351 . S
C430 C424 1.428 . S
C430 N429 1.351 . S
C430 C431 1.434 . S
C431 C422 1.429 . S
C431 N428 1.350 . S
C431 C430 1.434 . S
C169 N70 1.499 . S
C171 C106 1.525 . S
C182 C126 1.526 . S
C180 N81 1.498 . S
C193 C146 1.523 . S
C191 N48 1.500 . S
C204 C166 1.527 . S
C202 N59 1.491 . S
C215 C107 1.523 1_565 S
C213 N26 1.505 . S
C224 N37 1.495 . S
C226 C127 1.530 . S
C235 N4 1.497 . S
C237 C147 1.526 . S
C246 N15 1.495 . S
C248 C167 1.528 1_655 S
C259 C97 1.005 1_655 S
C257 C64 1.029 . S
C270 C117 1.001 . S
C268 C75 1.040 . S
C281 C137 1.001 . S
C279 C86 1.040 . S
C290 C53 1.030 . S
C292 C157 1.005 . S
C301 C20 1.022 . S
C303 C100 1.011 . S
C314 C120 0.998 . S
C312 C31 1.033 . S
C325 C140 1.008 . S
C323 C42 1.022 . S
C334 C9 1.021 . S
C336 C160 1.011 . S
C345 C61 1.540 1_556 S
C347 C90 1.461 . S
C356 C72 1.529 1_556 S
C358 C110 1.472 . S
C369 C130 1.465 . S
C367 C83 1.532 1_556 S
C380 C150 1.461 . S
C378 C50 1.539 1_556 S
C389 C17 1.538 . S
C391 C92 1.461 . S
C402 C112 1.470 . S
C400 C28 1.528 . S
C413 C132 1.468 . S
C411 C39 1.529 . S
C422 C6 1.529 . S
C424 C152 1.468 . S
