# Generated by pormake.
# Topology pto, (3,4)-cn, num edge types: 1
# Building blocks:
#     Node 0, Type 0, BuildingBlock: KAKCAD_clean_linker_0, # of connection points: 3
#     Node 1, Type 0, BuildingBlock: KAKCAD_clean_linker_0, # of connection points: 3
#     Node 2, Type 0, BuildingBlock: KAKCAD_clean_linker_0, # of connection points: 3
#     Node 3, Type 0, BuildingBlock: KAKCAD_clean_linker_0, # of connection points: 3
#     Node 4, Type 0, BuildingBlock: KAKCAD_clean_linker_0, # of connection points: 3
#     Node 5, Type 0, BuildingBlock: KAKCAD_clean_linker_0, # of connection points: 3
#     Node 6, Type 0, BuildingBlock: KAKCAD_clean_linker_0, # of connection points: 3
#     Node 7, Type 0, BuildingBlock: KAKCAD_clean_linker_0, # of connection points: 3
#     Node 8, Type 1, BuildingBlock: NAWXER_clean_sbu_0, # of connection points: 4
#     Node 9, Type 1, BuildingBlock: NAWXER_clean_sbu_0, # of connection points: 4
#     Node 10, Type 1, BuildingBlock: NAWXER_clean_sbu_0, # of connection points: 4
#     Node 11, Type 1, BuildingBlock: NAWXER_clean_sbu_0, # of connection points: 4
#     Node 12, Type 1, BuildingBlock: NAWXER_clean_sbu_0, # of connection points: 4
#     Node 13, Type 1, BuildingBlock: NAWXER_clean_sbu_0, # of connection points: 4
#     Edge 14, Type (0, 1), BuildingBlock: AJUNOK_clean_linker_0, # of connection points: 2
#     Edge 15, Type (0, 1), BuildingBlock: AJUNOK_clean_linker_0, # of connection points: 2
#     Edge 16, Type (0, 1), BuildingBlock: AJUNOK_clean_linker_0, # of connection points: 2
#     Edge 17, Type (0, 1), BuildingBlock: AJUNOK_clean_linker_0, # of connection points: 2
#     Edge 18, Type (0, 1), BuildingBlock: AJUNOK_clean_linker_0, # of connection points: 2
#     Edge 19, Type (0, 1), BuildingBlock: AJUNOK_clean_linker_0, # of connection points: 2
#     Edge 20, Type (0, 1), BuildingBlock: AJUNOK_clean_linker_0, # of connection points: 2
#     Edge 21, Type (0, 1), BuildingBlock: AJUNOK_clean_linker_0, # of connection points: 2
#     Edge 22, Type (0, 1), BuildingBlock: AJUNOK_clean_linker_0, # of connection points: 2
#     Edge 23, Type (0, 1), BuildingBlock: AJUNOK_clean_linker_0, # of connection points: 2
#     Edge 24, Type (0, 1), BuildingBlock: AJUNOK_clean_linker_0, # of connection points: 2
#     Edge 25, Type (0, 1), BuildingBlock: AJUNOK_clean_linker_0, # of connection points: 2
#     Edge 26, Type (0, 1), BuildingBlock: AJUNOK_clean_linker_0, # of connection points: 2
#     Edge 27, Type (0, 1), BuildingBlock: AJUNOK_clean_linker_0, # of connection points: 2
#     Edge 28, Type (0, 1), BuildingBlock: AJUNOK_clean_linker_0, # of connection points: 2
#     Edge 29, Type (0, 1), BuildingBlock: AJUNOK_clean_linker_0, # of connection points: 2
#     Edge 30, Type (0, 1), BuildingBlock: AJUNOK_clean_linker_0, # of connection points: 2
#     Edge 31, Type (0, 1), BuildingBlock: AJUNOK_clean_linker_0, # of connection points: 2
#     Edge 32, Type (0, 1), BuildingBlock: AJUNOK_clean_linker_0, # of connection points: 2
#     Edge 33, Type (0, 1), BuildingBlock: AJUNOK_clean_linker_0, # of connection points: 2
#     Edge 34, Type (0, 1), BuildingBlock: AJUNOK_clean_linker_0, # of connection points: 2
#     Edge 35, Type (0, 1), BuildingBlock: AJUNOK_clean_linker_0, # of connection points: 2
#     Edge 36, Type (0, 1), BuildingBlock: AJUNOK_clean_linker_0, # of connection points: 2
#     Edge 37, Type (0, 1), BuildingBlock: AJUNOK_clean_linker_0, # of connection points: 2
# Relax obj value: 0.000
# Max RMSD: 0.003
# Mean RMSD: 0.002
data_MOF--net-pto--node1-NAWXER_clean_sbu_0--node2-KAKCAD_clean_linker_0--edge1-AJUNOK_clean_linker_0
_symmetry_space_group_name_H-M    P1
_symmetry_Int_Tables_number       1
_symmetry_cell_setting            triclinic
loop_
_symmetry_equiv_pos_as_xyz
'x, y, z'
_cell_length_a     41.52994
_cell_length_b     39.123125
_cell_length_c     36.775305
_cell_angle_alpha  90.354391
_cell_angle_beta   90.569887
_cell_angle_gamma 90.239061
loop_
_atom_site_label
_atom_site_type_symbol
_atom_site_fract_x
_atom_site_fract_y
_atom_site_fract_z
_atom_type_partial_charge
C0 C 0.25662 0.19233 0.33284 0.0
C1 C 0.23037 0.16957 0.33166 0.0
C2 C 0.25744 0.22082 0.31018 0.0
C3 C 0.23194 0.22745 0.28583 0.0
C4 C 0.20502 0.20546 0.28566 0.0
C5 C 0.20423 0.1768 0.3084 0.0
C6 C 0.23426 0.25653 0.25995 0.0
C7 C 0.26347 0.26294 0.24213 0.0
C8 C 0.26668 0.29055 0.21819 0.0
C9 C 0.24007 0.31177 0.2119 0.0
C10 C 0.21058 0.30603 0.22938 0.0
C11 C 0.20783 0.27812 0.25325 0.0
C12 C 0.18319 0.32993 0.2232 0.0
C13 C 0.18887 0.36528 0.21988 0.0
C14 C 0.15129 0.31783 0.22045 0.0
C15 C 0.12578 0.34057 0.2148 0.0
C16 C 0.13166 0.3758 0.21139 0.0
C17 C 0.29785 0.29734 0.19982 0.0
C18 C 0.32726 0.29344 0.21866 0.0
C19 C 0.29846 0.30766 0.16324 0.0
C20 C 0.32771 0.31356 0.14585 0.0
C21 C 0.35701 0.30918 0.16458 0.0
C22 C 0.35651 0.29912 0.20116 0.0
C23 C 0.16346 0.38788 0.21391 0.0
H24 H 0.27668 0.18802 0.35127 0.0
H25 H 0.27818 0.23767 0.31167 0.0
H26 H 0.18501 0.20981 0.26716 0.0
H27 H 0.18362 0.15976 0.30708 0.0
H28 H 0.28364 0.24588 0.24634 0.0
H29 H 0.18553 0.27386 0.26759 0.0
H30 H 0.24242 0.33306 0.19342 0.0
H31 H 0.21296 0.37572 0.22273 0.0
H32 H 0.14602 0.29078 0.22247 0.0
H33 H 0.1014 0.33066 0.21323 0.0
H34 H 0.32769 0.28606 0.24699 0.0
H35 H 0.27634 0.31035 0.1477 0.0
H36 H 0.16859 0.41501 0.21248 0.0
H37 H 0.37881 0.29553 0.21616 0.0
H38 H 0.32744 0.32047 0.11737 0.0
C39 C 0.33588 0.81047 0.84795 0.0
C40 C 0.35462 0.78057 0.84866 0.0
C41 C 0.30716 0.81153 0.82771 0.0
C42 C 0.29632 0.78252 0.80843 0.0
C43 C 0.31514 0.75282 0.80883 0.0
C44 C 0.34404 0.75192 0.8285 0.0
C45 C 0.26519 0.78273 0.78837 0.0
C46 C 0.2584 0.80829 0.76291 0.0
C47 C 0.22975 0.80732 0.74216 0.0
C48 C 0.20759 0.78054 0.74768 0.0
C49 C 0.21376 0.75501 0.77372 0.0
C50 C 0.24269 0.75649 0.79387 0.0
C51 C 0.19047 0.72648 0.7797 0.0
C52 C 0.15703 0.73219 0.77865 0.0
C53 C 0.20158 0.69317 0.78678 0.0
C54 C 0.17992 0.66639 0.79268 0.0
C55 C 0.14661 0.67213 0.79137 0.0
C56 C 0.22409 0.83352 0.71364 0.0
C57 C 0.23104 0.86813 0.7208 0.0
C58 C 0.21386 0.82395 0.67841 0.0
C59 C 0.21236 0.84817 0.65053 0.0
C60 C 0.22106 0.88238 0.65734 0.0
C61 C 0.2294 0.89229 0.69302 0.0
C62 C 0.13536 0.70526 0.7842 0.0
H63 H 0.34288 0.83271 0.86385 0.0
H64 H 0.29291 0.83466 0.828 0.0
H65 H 0.3075 0.73024 0.79381 0.0
H66 H 0.35804 0.72863 0.82811 0.0
H67 H 0.27612 0.82815 0.75819 0.0
H68 H 0.24771 0.73738 0.81435 0.0
H69 H 0.1857 0.77947 0.73144 0.0
H70 H 0.14756 0.75751 0.7738 0.0
H71 H 0.22709 0.68754 0.78702 0.0
H72 H 0.18923 0.64092 0.79721 0.0
H73 H 0.23838 0.87642 0.7478 0.0
H74 H 0.20849 0.79747 0.67198 0.0
H75 H 0.10974 0.71029 0.7829 0.0
H76 H 0.23549 0.91865 0.69925 0.0
H77 H 0.20587 0.83984 0.62327 0.0
C78 C 0.6716 0.74601 0.15292 0.0
C79 C 0.65644 0.77619 0.14142 0.0
C80 C 0.69712 0.74725 0.17791 0.0
C81 C 0.70856 0.77875 0.19152 0.0
C82 C 0.69394 0.80901 0.17917 0.0
C83 C 0.66812 0.80772 0.15453 0.0
C84 C 0.73514 0.77999 0.21902 0.0
C85 C 0.76075 0.75666 0.21751 0.0
C86 C 0.78536 0.75705 0.24403 0.0
C87 C 0.78446 0.78154 0.2722 0.0
C88 C 0.7591 0.80523 0.27399 0.0
C89 C 0.73459 0.8041 0.24745 0.0
C90 C 0.75754 0.8311 0.30364 0.0
C91 C 0.76146 0.82162 0.34022 0.0
C92 C 0.75071 0.86539 0.29546 0.0
C93 C 0.74795 0.88972 0.3232 0.0
C94 C 0.75172 0.88024 0.35973 0.0
C95 C 0.81146 0.73123 0.24236 0.0
C96 C 0.8038 0.69651 0.23697 0.0
C97 C 0.84402 0.74094 0.24545 0.0
C98 C 0.86841 0.71638 0.24299 0.0
C99 C 0.86059 0.68169 0.23808 0.0
C100 C 0.8281 0.672 0.23504 0.0
C101 C 0.75831 0.84596 0.36806 0.0
H102 H 0.6638 0.72134 0.14253 0.0
H103 H 0.70751 0.72339 0.18696 0.0
H104 H 0.70248 0.83378 0.18847 0.0
H105 H 0.65704 0.83142 0.14605 0.0
H106 H 0.7619 0.73836 0.19532 0.0
H107 H 0.71448 0.82153 0.24966 0.0
H108 H 0.80333 0.78203 0.29277 0.0
H109 H 0.76638 0.79531 0.34731 0.0
H110 H 0.74766 0.87344 0.2675 0.0
H111 H 0.74277 0.91599 0.31613 0.0
H112 H 0.77892 0.68826 0.23467 0.0
H113 H 0.8506 0.76755 0.24932 0.0
H114 H 0.76149 0.83813 0.39606 0.0
H115 H 0.82152 0.64539 0.23115 0.0
H116 H 0.89334 0.72438 0.24552 0.0
C117 C 0.78063 0.17086 0.71442 0.0
C118 C 0.75377 0.16757 0.69101 0.0
C119 C 0.78347 0.19861 0.73836 0.0
C120 C 0.75937 0.22363 0.73976 0.0
C121 C 0.73214 0.22006 0.71698 0.0
C122 C 0.72947 0.19246 0.69267 0.0
C123 C 0.7629 0.2536 0.76457 0.0
C124 C 0.79219 0.27179 0.76665 0.0
C125 C 0.79545 0.30044 0.78961 0.0
C126 C 0.76943 0.31039 0.81118 0.0
C127 C 0.74035 0.29198 0.81036 0.0
C128 C 0.73709 0.26392 0.78649 0.0
C129 C 0.71425 0.30093 0.83604 0.0
C130 C 0.72181 0.30904 0.87246 0.0
C131 C 0.68173 0.30028 0.82497 0.0
C132 C 0.65731 0.30649 0.85011 0.0
C133 C 0.66501 0.3132 0.88673 0.0
C134 C 0.82577 0.32054 0.79103 0.0
C135 C 0.85558 0.30456 0.79722 0.0
C136 C 0.82482 0.3562 0.78703 0.0
C137 C 0.85312 0.37551 0.78879 0.0
C138 C 0.88285 0.35964 0.79518 0.0
C139 C 0.88393 0.32405 0.79958 0.0
C140 C 0.69746 0.31518 0.89749 0.0
H141 H 0.79964 0.15199 0.71408 0.0
H142 H 0.80452 0.20044 0.75592 0.0
H143 H 0.71333 0.23915 0.71723 0.0
H144 H 0.70885 0.1912 0.67445 0.0
H145 H 0.81216 0.26429 0.74964 0.0
H146 H 0.71491 0.24922 0.78598 0.0
H147 H 0.77204 0.33239 0.82906 0.0
H148 H 0.74656 0.30946 0.88202 0.0
H149 H 0.67516 0.29454 0.79701 0.0
H150 H 0.63239 0.30475 0.84125 0.0
H151 H 0.85686 0.27712 0.80063 0.0
H152 H 0.80217 0.36909 0.78207 0.0
H153 H 0.70397 0.32055 0.92556 0.0
H154 H 0.90672 0.31133 0.80415 0.0
H155 H 0.85183 0.40293 0.78508 0.0
C156 C 0.78909 0.80813 0.64412 0.0
C157 C 0.79001 0.84026 0.66129 0.0
C158 C 0.78399 0.77857 0.66437 0.0
C159 C 0.77912 0.7807 0.70206 0.0
C160 C 0.77984 0.8129 0.71921 0.0
C161 C 0.78548 0.84246 0.69899 0.0
C162 C 0.7745 0.74924 0.72358 0.0
C163 C 0.79629 0.72229 0.72009 0.0
C164 C 0.79344 0.69297 0.74148 0.0
C165 C 0.76817 0.69057 0.76656 0.0
C166 C 0.74529 0.71699 0.76977 0.0
C167 C 0.74889 0.74633 0.748 0.0
C168 C 0.71778 0.71421 0.79567 0.0
C169 C 0.70344 0.68239 0.80342 0.0
C170 C 0.70527 0.74359 0.81262 0.0
C171 C 0.67888 0.74138 0.83573 0.0
C172 C 0.66453 0.70965 0.84346 0.0
C173 C 0.81806 0.66582 0.73839 0.0
C174 C 0.82721 0.65347 0.70404 0.0
C175 C 0.83426 0.65401 0.76947 0.0
C176 C 0.85986 0.63118 0.76618 0.0
C177 C 0.86962 0.61941 0.73176 0.0
C178 C 0.85256 0.63029 0.70077 0.0
C179 C 0.67743 0.6801 0.82732 0.0
H180 H 0.7923 0.80595 0.61499 0.0
H181 H 0.78346 0.75404 0.65054 0.0
H182 H 0.77644 0.81513 0.7483 0.0
H183 H 0.78567 0.86708 0.71264 0.0
H184 H 0.81634 0.72472 0.70158 0.0
H185 H 0.73148 0.76681 0.7493 0.0
H186 H 0.76656 0.66816 0.78358 0.0
H187 H 0.71199 0.65913 0.79078 0.0
H188 H 0.71593 0.76851 0.80832 0.0
H189 H 0.66961 0.76477 0.84746 0.0
H190 H 0.81485 0.66199 0.67966 0.0
H191 H 0.82793 0.66343 0.79622 0.0
H192 H 0.66769 0.65509 0.83333 0.0
H193 H 0.85884 0.62098 0.67398 0.0
H194 H 0.87262 0.62344 0.79059 0.0
C195 C 0.66477 0.24719 0.21233 0.0
C196 C 0.66758 0.25286 0.17486 0.0
C197 C 0.69188 0.24916 0.23509 0.0
C198 C 0.72223 0.25749 0.22093 0.0
C199 C 0.72499 0.26347 0.18345 0.0
C200 C 0.69792 0.26088 0.16054 0.0
C201 C 0.75074 0.2599 0.24549 0.0
C202 C 0.7572 0.23343 0.27014 0.0
C203 C 0.78288 0.23603 0.2952 0.0
C204 C 0.80193 0.26573 0.29558 0.0
C205 C 0.79596 0.29237 0.27109 0.0
C206 C 0.77064 0.28911 0.24563 0.0
C207 C 0.81608 0.32372 0.27313 0.0
C208 C 0.8218 0.33991 0.30682 0.0
C209 C 0.83116 0.33647 0.24203 0.0
C210 C 0.8526 0.36407 0.24485 0.0
C211 C 0.85914 0.37963 0.27878 0.0
C212 C 0.78902 0.20862 0.3222 0.0
C213 C 0.76318 0.19248 0.3396 0.0
C214 C 0.82068 0.19949 0.33204 0.0
C215 C 0.82634 0.17549 0.35939 0.0
C216 C 0.80044 0.16001 0.37726 0.0
C217 C 0.76883 0.16842 0.36673 0.0
C218 C 0.84291 0.36772 0.30958 0.0
H219 H 0.64158 0.24116 0.22396 0.0
H220 H 0.68904 0.24471 0.26393 0.0
H221 H 0.74812 0.26984 0.17186 0.0
H222 H 0.70053 0.26574 0.13175 0.0
H223 H 0.74226 0.21065 0.26955 0.0
H224 H 0.76557 0.30986 0.22705 0.0
H225 H 0.82131 0.26842 0.31536 0.0
H226 H 0.81005 0.33087 0.33114 0.0
H227 H 0.82727 0.32433 0.21579 0.0
H228 H 0.86477 0.37263 0.22061 0.0
H229 H 0.73852 0.19915 0.33307 0.0
H230 H 0.84114 0.21114 0.31884 0.0
H231 H 0.8466 0.3798 0.33587 0.0
H232 H 0.74838 0.15665 0.37985 0.0
H233 H 0.85093 0.16976 0.36719 0.0
C234 C 0.34818 0.26216 0.87039 0.0
C235 C 0.38122 0.26094 0.86266 0.0
C236 C 0.32548 0.26517 0.8422 0.0
C237 C 0.33546 0.26648 0.80583 0.0
C238 C 0.36852 0.26514 0.7982 0.0
C239 C 0.39119 0.26271 0.82637 0.0
C240 C 0.31156 0.26802 0.77567 0.0
C241 C 0.28682 0.2925 0.77567 0.0
C242 C 0.26455 0.29403 0.74659 0.0
C243 C 0.2667 0.27006 0.71813 0.0
C244 C 0.29099 0.24524 0.71809 0.0
C245 C 0.31357 0.24469 0.74665 0.0
C246 C 0.29207 0.21911 0.68885 0.0
C247 C 0.26402 0.20112 0.67886 0.0
C248 C 0.32106 0.21161 0.67117 0.0
C249 C 0.3219 0.18668 0.64378 0.0
C250 C 0.29385 0.16844 0.634 0.0
C251 C 0.23895 0.32048 0.74563 0.0
C252 C 0.22071 0.32768 0.77669 0.0
C253 C 0.232 0.33808 0.71325 0.0
C254 C 0.20734 0.36229 0.71193 0.0
C255 C 0.18907 0.36947 0.74296 0.0
C256 C 0.1959 0.35173 0.7753 0.0
C257 C 0.26493 0.17597 0.65185 0.0
H258 H 0.34001 0.26128 0.89825 0.0
H259 H 0.30011 0.26593 0.84874 0.0
H260 H 0.37684 0.26627 0.7704 0.0
H261 H 0.41656 0.262 0.81983 0.0
H262 H 0.28549 0.3109 0.79775 0.0
H263 H 0.33214 0.22528 0.74693 0.0
H264 H 0.24929 0.27055 0.69598 0.0
H265 H 0.24145 0.2061 0.69239 0.0
H266 H 0.34295 0.22539 0.67819 0.0
H267 H 0.34437 0.18202 0.62995 0.0
H268 H 0.22513 0.31414 0.80184 0.0
H269 H 0.24583 0.3333 0.68894 0.0
H270 H 0.24299 0.16211 0.64518 0.0
H271 H 0.1817 0.35601 0.79943 0.0
H272 H 0.20275 0.37564 0.6867 0.0
C273 C 0.29099 0.84525 0.31116 0.0
C274 C 0.29068 0.84307 0.34922 0.0
C275 C 0.28992 0.81559 0.28981 0.0
C276 C 0.28791 0.78329 0.30619 0.0
C277 C 0.28754 0.78116 0.3443 0.0
C278 C 0.28917 0.81082 0.36566 0.0
C279 C 0.28555 0.752 0.28342 0.0
C280 C 0.30717 0.74671 0.25499 0.0
C281 C 0.30442 0.71791 0.23214 0.0
C282 C 0.27961 0.69407 0.23824 0.0
C283 C 0.25724 0.69929 0.26639 0.0
C284 C 0.26077 0.72823 0.28905 0.0
C285 C 0.22865 0.67645 0.27052 0.0
C286 C 0.21205 0.6639 0.23969 0.0
C287 C 0.21621 0.66919 0.30516 0.0
C288 C 0.18712 0.65135 0.30876 0.0
C289 C 0.16986 0.64029 0.27781 0.0
C290 C 0.32704 0.71389 0.20134 0.0
C291 C 0.33437 0.7422 0.17955 0.0
C292 C 0.3426 0.68266 0.19447 0.0
C293 C 0.36618 0.68037 0.16749 0.0
C294 C 0.37453 0.70926 0.14703 0.0
C295 C 0.35772 0.73988 0.15268 0.0
C296 C 0.18317 0.64584 0.24332 0.0
H297 H 0.29201 0.86992 0.29799 0.0
H298 H 0.28996 0.81791 0.26047 0.0
H299 H 0.28608 0.75654 0.35752 0.0
H300 H 0.28857 0.80864 0.395 0.0
H301 H 0.32641 0.76505 0.25081 0.0
H302 H 0.24328 0.73333 0.31004 0.0
H303 H 0.27729 0.67196 0.22051 0.0
H304 H 0.22065 0.66909 0.21257 0.0
H305 H 0.22864 0.67786 0.32957 0.0
H306 H 0.17765 0.64715 0.3357 0.0
H307 H 0.32225 0.76638 0.18358 0.0
H308 H 0.3374 0.66042 0.21083 0.0
H309 H 0.17092 0.63672 0.21897 0.0
H310 H 0.363 0.76228 0.13659 0.0
H311 H 0.37866 0.6564 0.16349 0.0
C312 C 0.95755 0.48588 0.28053 0.0
C313 C 0.0487 0.56587 0.28102 0.0
O314 O 0.97379 0.49567 0.30829 0.0
Zn315 Zn 1.00272 0.52599 0.28275 0.0
O316 O 0.96462 0.49737 0.24899 0.0
Zn317 Zn 0.99899 0.53115 0.22462 0.0
O318 O 0.02345 0.4999 0.19363 0.0
O319 O 0.02919 0.48962 0.25227 0.0
O320 O 0.03639 0.56046 0.24946 0.0
O321 O 0.03695 0.5509 0.3085 0.0
O322 O 0.97022 0.56468 0.26422 0.0
O323 O 0.97134 0.56639 0.20422 0.0
C324 C 0.03543 0.48204 0.2192 0.0
C325 C 0.96019 0.57745 0.23416 0.0
C326 C 0.99327 0.45109 0.79097 0.0
C327 C 0.06358 0.5523 0.79211 0.0
O328 O 1.00488 0.46575 0.81923 0.0
Zn329 Zn 0.03034 0.50018 0.79396 0.0
O330 O 1.00201 0.46114 0.75947 0.0
Zn331 Zn 0.03191 0.49895 0.73532 0.0
O332 O 0.06575 0.47213 0.71236 0.0
O333 O 0.06889 0.47141 0.77223 0.0
O334 O 0.05719 0.54046 0.7603 0.0
O335 O 0.05312 0.53677 0.81996 0.0
O336 O 0.99287 0.52732 0.76627 0.0
O337 O 0.99997 0.52376 0.70679 0.0
C338 C 0.08007 0.4626 0.74127 0.0
C339 C 0.98373 0.53437 0.7338 0.0
C340 C 0.23415 0.97503 0.53443 0.0
C341 C 0.23642 0.05489 0.43182 0.0
O342 O 0.20994 0.98696 0.51733 0.0
Zn343 Zn 0.23406 0.01377 0.48192 0.0
O344 O 0.26253 0.98267 0.5238 0.0
Zn345 Zn 0.28535 0.01253 0.483 0.0
O346 O 0.31003 0.04411 0.51267 0.0
O347 O 0.2574 0.05158 0.51593 0.0
O348 O 0.26446 0.04548 0.44263 0.0
O349 O 0.21161 0.04265 0.44714 0.0
O350 O 0.25526 0.97497 0.44826 0.0
O351 O 0.308 0.97861 0.45521 0.0
C352 C 0.28612 0.06029 0.52538 0.0
C353 C 0.28356 0.96408 0.44088 0.0
C354 C 0.55347 0.76628 0.03384 0.0
C355 C 0.4685 0.76668 0.94148 0.0
O356 O 0.54438 0.73607 0.02438 0.0
Zn357 Zn 0.51109 0.71265 0.98587 0.0
O358 O 0.54155 0.79226 0.0181 0.0
Zn359 Zn 0.5128 0.76709 0.98638 0.0
O360 O 0.48115 0.74386 0.02536 0.0
O361 O 0.48307 0.68771 0.01853 0.0
O362 O 0.48398 0.7921 0.95444 0.0
O363 O 0.47645 0.73642 0.9511 0.0
O364 O 0.53926 0.68791 0.95264 0.0
O365 O 0.54684 0.74369 0.95124 0.0
C366 C 0.47217 0.71385 0.03503 0.0
C367 C 0.55458 0.71362 0.94071 0.0
C368 C 0.79678 0.96365 0.57506 0.0
C369 C 0.80473 0.05981 0.49152 0.0
O370 O 0.76954 0.97555 0.56482 0.0
Zn371 Zn 0.75074 0.01551 0.53259 0.0
O372 O 0.82263 0.97802 0.56478 0.0
Zn373 Zn 0.80269 0.01287 0.53439 0.0
O374 O 0.78201 0.04749 0.57247 0.0
O375 O 0.7291 0.04507 0.56763 0.0
O376 O 0.82843 0.04342 0.50491 0.0
O377 O 0.77583 0.05182 0.50006 0.0
O378 O 0.72705 0.98925 0.49556 0.0
O379 O 0.77991 0.98376 0.49218 0.0
C380 C 0.75423 0.05772 0.58265 0.0
C381 C 0.75165 0.97684 0.47993 0.0
C382 C 0.55641 0.25786 0.07824 0.0
C383 C 0.47571 0.26127 0.98032 0.0
O384 O 0.54323 0.23235 0.06235 0.0
Zn385 Zn 0.51502 0.25805 0.03053 0.0
O386 O 0.54779 0.2883 0.06989 0.0
Zn387 Zn 0.51568 0.3129 0.032 0.0
O388 O 0.48548 0.33669 0.06309 0.0
O389 O 0.48145 0.28059 0.06684 0.0
O390 O 0.48474 0.29089 0.99152 0.0
O391 O 0.48704 0.23471 0.99547 0.0
O392 O 0.55006 0.28202 0.99722 0.0
O393 O 0.54582 0.3382 1.00196 0.0
C394 C 0.47215 0.31042 0.07661 0.0
C395 C 0.55972 0.31204 0.98879 0.0
C396 C 0.08047 0.39971 0.2353 0.0
C397 C 0.10462 0.40041 0.20886 0.0
C398 C 0.05728 0.4255 0.23713 0.0
C399 C 0.05701 0.45276 0.21229 0.0
H400 H 0.08043 0.38002 0.25589 0.0
H401 H 0.03995 0.4246 0.25895 0.0
S402 S 0.11311 0.46448 0.13559 0.0
N403 N 0.12559 0.42917 0.15561 0.0
N404 N 0.08159 0.47759 0.15885 0.0
C405 C 0.07986 0.45274 0.18439 0.0
C406 C 0.10383 0.42663 0.18281 0.0
C407 C 0.10117 0.63699 0.76647 0.0
C408 C 0.12374 0.64306 0.79449 0.0
C409 C 0.08132 0.60799 0.76666 0.0
C410 C 0.08287 0.58414 0.79515 0.0
H411 H 0.09963 0.65417 0.74353 0.0
H412 H 0.06489 0.60401 0.74394 0.0
S413 S 0.13647 0.58947 0.87621 0.0
N414 N 0.14562 0.62376 0.85234 0.0
N415 N 0.10784 0.56932 0.85294 0.0
C416 C 0.10444 0.59055 0.82409 0.0
C417 C 0.12506 0.61993 0.82363 0.0
C418 C 0.90995 0.65564 0.21043 0.0
C419 C 0.88611 0.6553 0.23737 0.0
C420 C 0.93364 0.63006 0.20899 0.0
C421 C 0.93467 0.60382 0.23498 0.0
H422 H 0.90998 0.67555 0.19009 0.0
H423 H 0.95153 0.63114 0.18779 0.0
S424 S 0.87754 0.5917 0.31093 0.0
N425 N 0.8648 0.62654 0.29027 0.0
N426 N 0.90942 0.57896 0.28815 0.0
C427 C 0.91099 0.60343 0.26213 0.0
C428 C 0.88668 0.62903 0.26317 0.0
C429 C 0.92075 0.3978 0.76294 0.0
C430 C 0.91267 0.38039 0.79478 0.0
C431 C 0.94747 0.41957 0.76199 0.0
C432 C 0.96699 0.42533 0.79306 0.0
H433 H 0.90603 0.39483 0.73862 0.0
H434 H 0.95219 0.4328 0.73679 0.0
S435 S 0.95622 0.38482 0.88311 0.0
N436 N 0.92643 0.36914 0.85788 0.0
N437 N 0.97662 0.41082 0.85649 0.0
C438 C 0.95941 0.40758 0.82505 0.0
C439 C 0.93229 0.38488 0.8258 0.0
C440 C 0.20466 0.13022 0.37706 0.0
C441 C 0.23077 0.13824 0.35448 0.0
C442 C 0.20603 0.10236 0.40105 0.0
C443 C 0.23359 0.08155 0.40332 0.0
H444 H 0.18349 0.1463 0.37713 0.0
H445 H 0.18585 0.09791 0.41886 0.0
S446 S 0.30639 0.08879 0.34596 0.0
N447 N 0.28341 0.1209 0.33302 0.0
N448 N 0.28621 0.06897 0.37808 0.0
C449 C 0.25915 0.08836 0.37951 0.0
C450 C 0.25769 0.11657 0.35513 0.0
C451 C 0.38922 0.74883 0.89299 0.0
C452 C 0.38416 0.77821 0.87184 0.0
C453 C 0.41667 0.74541 0.91498 0.0
C454 C 0.44016 0.77138 0.91719 0.0
H455 H 0.3716 0.72834 0.89293 0.0
H456 H 0.41918 0.72233 0.93087 0.0
S457 S 0.43931 0.85289 0.86618 0.0
N458 N 0.40574 0.83329 0.85336 0.0
N459 N 0.457 0.82725 0.8957 0.0
C460 C 0.43551 0.80098 0.89629 0.0
C461 C 0.40761 0.80432 0.87344 0.0
C462 C 0.72817 0.90283 0.41778 0.0
C463 C 0.75006 0.90639 0.38901 0.0
C464 C 0.72733 0.92686 0.44639 0.0
C465 C 0.74885 0.95468 0.44741 0.0
H466 H 0.71181 0.88121 0.41827 0.0
H467 H 0.71075 0.92284 0.46854 0.0
S468 S 0.81001 0.97596 0.37819 0.0
N469 N 0.79288 0.94048 0.36281 0.0
N470 N 0.79175 0.98512 0.4167 0.0
C471 C 0.77034 0.9588 0.41845 0.0
C472 C 0.77084 0.93478 0.3892 0.0
C473 C 0.61364 0.33801 0.91084 0.0
C474 C 0.63935 0.31486 0.91434 0.0
C475 C 0.58842 0.33837 0.9361 0.0
C476 C 0.58793 0.31506 0.96502 0.0
H477 H 0.61292 0.35569 0.88829 0.0
H478 H 0.56866 0.35599 0.93218 0.0
S479 S 0.64996 0.2501 0.98667 0.0
N480 N 0.66309 0.26882 0.94951 0.0
N481 N 0.6158 0.26928 0.99659 0.0
C482 C 0.61382 0.29234 0.96913 0.0
C483 C 0.63952 0.29227 0.94386 0.0
C484 C 0.1986 0.91154 0.60168 0.0
C485 C 0.22396 0.90705 0.62689 0.0
C486 C 0.20162 0.93416 0.57226 0.0
C487 C 0.23033 0.95262 0.56666 0.0
H488 H 0.17626 0.89752 0.60477 0.0
H489 H 0.18159 0.93664 0.55339 0.0
S490 S 0.30387 0.94974 0.62507 0.0
N491 N 0.27865 0.92278 0.64425 0.0
N492 N 0.28439 0.96519 0.58952 0.0
C493 C 0.25575 0.94841 0.59193 0.0
C494 C 0.25256 0.92567 0.62186 0.0
C495 C 0.62762 0.797 0.08547 0.0
C496 C 0.62878 0.77476 0.11546 0.0
C497 C 0.60254 0.79496 0.05968 0.0
C498 C 0.57804 0.77032 0.06276 0.0
H499 H 0.64666 0.81554 0.08137 0.0
H500 H 0.60295 0.81197 0.03655 0.0
S501 S 0.56745 0.70924 0.1384 0.0
N502 N 0.60115 0.72987 0.14859 0.0
N503 N 0.55477 0.72528 0.09942 0.0
C504 C 0.57828 0.74873 0.09311 0.0
C505 C 0.60347 0.75112 0.11963 0.0
C506 C 0.78015 0.13174 0.64343 0.0
C507 C 0.75245 0.13938 0.66354 0.0
C508 C 0.78021 0.10536 0.6176 0.0
C509 C 0.75251 0.08544 0.6104 0.0
H510 H 0.80203 0.14653 0.64738 0.0
H511 H 0.80227 0.10084 0.60288 0.0
S512 S 0.67376 0.09432 0.65622 0.0
N513 N 0.69661 0.12429 0.67516 0.0
N514 N 0.69655 0.075 0.62587 0.0
C515 C 0.72447 0.09285 0.63009 0.0
C516 C 0.72448 0.11972 0.65676 0.0
C517 C 0.40969 0.28484 0.14571 0.0
C518 C 0.38797 0.31226 0.1451 0.0
C519 C 0.43746 0.28522 0.12448 0.0
C520 C 0.44485 0.31319 0.10208 0.0
H521 H 0.40453 0.26228 0.16161 0.0
H522 H 0.4529 0.26297 0.12504 0.0
S523 S 0.39711 0.39274 0.09341 0.0
N524 N 0.37657 0.36912 0.12223 0.0
N525 N 0.42903 0.37 0.08236 0.0
C526 C 0.4241 0.34153 0.10255 0.0
C527 C 0.39555 0.34096 0.12395 0.0
C528 C 0.90088 0.56879 0.75317 0.0
C529 C 0.89767 0.59605 0.72868 0.0
C530 C 0.92839 0.54832 0.75352 0.0
C531 C 0.95367 0.5539 0.72907 0.0
H532 H 0.88219 0.56356 0.77274 0.0
H533 H 0.93009 0.52819 0.77356 0.0
S534 S 0.95724 0.62129 0.65896 0.0
N535 N 0.92228 0.62735 0.679 0.0
N536 N 0.97365 0.58789 0.67908 0.0
C537 C 0.9504 0.58008 0.70342 0.0
C538 C 0.92248 0.60139 0.70336 0.0
C539 C 0.88299 0.43429 0.25609 0.0
C540 C 0.88315 0.40788 0.28184 0.0
C541 C 0.90658 0.45997 0.25676 0.0
C542 C 0.93118 0.46048 0.28338 0.0
H543 H 0.86464 0.43497 0.23497 0.0
H544 H 0.90572 0.47939 0.23591 0.0
S545 S 0.94272 0.39715 0.35689 0.0
N546 N 0.91031 0.38366 0.33464 0.0
N547 N 0.95419 0.43251 0.33634 0.0
C548 C 0.9312 0.43481 0.30992 0.0
C549 C 0.90732 0.40838 0.30904 0.0
C550 C 0.13991 0.39439 0.71276 0.0
C551 C 0.16263 0.39503 0.74151 0.0
C552 C 0.11378 0.41711 0.71201 0.0
C553 C 0.10933 0.44109 0.74013 0.0
H554 H 0.14182 0.37555 0.69119 0.0
H555 H 0.09638 0.41508 0.68995 0.0
S556 S 0.16435 0.45642 0.81882 0.0
N557 N 0.18071 0.42416 0.79664 0.0
N558 N 0.13144 0.46625 0.79571 0.0
C559 C 0.13257 0.44288 0.76823 0.0
C560 C 0.15922 0.42 0.76882 0.0
C561 C 0.13288 0.59685 0.30602 0.0
C562 C 0.13771 0.62368 0.28123 0.0
C563 C 0.10328 0.57929 0.30746 0.0
C564 C 0.07765 0.58791 0.28402 0.0
H565 H 0.15246 0.58852 0.32346 0.0
H566 H 0.10101 0.55784 0.32575 0.0
S567 S 0.07618 0.65962 0.21851 0.0
N568 N 0.11289 0.66068 0.23614 0.0
N569 N 0.05781 0.62723 0.23818 0.0
C570 C 0.08163 0.6158 0.26057 0.0
C571 C 0.11152 0.6338 0.25933 0.0
C572 C 0.77035 0.8783 0.61213 0.0
C573 C 0.79335 0.87154 0.63931 0.0
C574 C 0.77202 0.90811 0.5915 0.0
C575 C 0.79708 0.93203 0.59679 0.0
H576 H 0.75057 0.86066 0.60723 0.0
H577 H 0.75349 0.91238 0.57109 0.0
S578 S 0.86387 0.92555 0.66396 0.0
N579 N 0.84216 0.89063 0.67036 0.0
N580 N 0.84577 0.94663 0.63078 0.0
C581 C 0.82067 0.92525 0.62339 0.0
C582 C 0.81862 0.89504 0.64494 0.0
C583 C 0.61309 0.27459 0.15773 0.0
C584 C 0.63856 0.25192 0.15109 0.0
C585 C 0.58612 0.27563 0.13453 0.0
C586 C 0.58325 0.25339 0.10444 0.0
H587 H 0.61449 0.29235 0.18042 0.0
H588 H 0.5675 0.29425 0.13994 0.0
S589 S 0.64294 0.18853 0.07602 0.0
N590 N 0.65915 0.20641 0.11272 0.0
N591 N 0.60797 0.20767 0.0696 0.0
C592 C 0.60813 0.22989 0.09814 0.0
C593 C 0.63594 0.22937 0.12132 0.0
C594 C 0.26938 0.14107 0.57868 0.0
C595 C 0.29421 0.14186 0.60498 0.0
C596 C 0.26752 0.11499 0.55257 0.0
C597 C 0.29063 0.08886 0.55138 0.0
H598 H 0.25098 0.16062 0.57848 0.0
H599 H 0.24762 0.11519 0.53329 0.0
S600 S 0.36039 0.0789 0.61405 0.0
N601 N 0.34232 0.11394 0.62839 0.0
N602 N 0.33926 0.06534 0.57848 0.0
C603 C 0.31611 0.08974 0.5768 0.0
C604 C 0.31781 0.11614 0.60378 0.0
C605 C 0.40233 0.68328 0.09294 0.0
C606 C 0.40137 0.70832 0.12059 0.0
C607 C 0.42605 0.6843 0.06587 0.0
C608 C 0.4494 0.71048 0.06555 0.0
H609 H 0.38401 0.66352 0.09151 0.0
H610 H 0.42534 0.66528 0.04434 0.0
S611 S 0.46043 0.77858 0.13531 0.0
N612 N 0.42817 0.75738 0.14843 0.0
N613 N 0.47224 0.75959 0.09756 0.0
C614 C 0.44963 0.73451 0.09415 0.0
C615 C 0.42574 0.73335 0.12166 0.0
C616 C 0.78793 0.14046 0.43993 0.0
C617 C 0.80579 0.13617 0.40795 0.0
C618 C 0.7894 0.11647 0.46786 0.0
C619 C 0.80915 0.08754 0.46519 0.0
H620 H 0.77194 0.16208 0.44297 0.0
H621 H 0.77413 0.12004 0.49131 0.0
S622 S 0.8617 0.06487 0.38801 0.0
N623 N 0.84462 0.10113 0.37568 0.0
N624 N 0.84784 0.05629 0.42893 0.0
C625 C 0.82844 0.08368 0.43433 0.0
C626 C 0.82667 0.10799 0.40551 0.0
C627 C 0.42867 0.28556 0.89565 0.0
C628 C 0.4055 0.25948 0.89237 0.0
C629 C 0.45145 0.28552 0.92397 0.0
C630 C 0.45234 0.25903 0.94972 0.0
H631 H 0.4288 0.30654 0.87655 0.0
H632 H 0.46853 0.3065 0.92568 0.0
S633 S 0.39744 0.18409 0.95221 0.0
N634 N 0.38495 0.20615 0.91662 0.0
N635 N 0.42831 0.20563 0.96962 0.0
C636 C 0.42972 0.23234 0.94626 0.0
C637 C 0.4061 0.23272 0.9177 0.0
C638 C 0.26521 0.89802 0.36765 0.0
C639 C 0.29045 0.87452 0.37171 0.0
C640 C 0.26344 0.92713 0.38991 0.0
C641 C 0.2872 0.93413 0.41652 0.0
H642 H 0.2463 0.89343 0.34768 0.0
H643 H 0.24324 0.94426 0.38627 0.0
S644 S 0.35886 0.88094 0.43685 0.0
N645 N 0.33997 0.8602 0.40363 0.0
N646 N 0.33713 0.91535 0.44509 0.0
C647 C 0.31302 0.91119 0.4202 0.0
C648 C 0.31448 0.88122 0.39793 0.0
C649 C 0.63664 0.72892 0.90019 0.0
C650 C 0.6367 0.70792 0.86892 0.0
C651 C 0.61011 0.73006 0.92331 0.0
C652 C 0.58272 0.70964 0.91677 0.0
H653 H 0.65724 0.74494 0.90682 0.0
H654 H 0.61105 0.74714 0.94662 0.0
S655 S 0.57006 0.65009 0.83926 0.0
N656 N 0.60626 0.66642 0.83258 0.0
N657 N 0.55705 0.66745 0.87741 0.0
C658 C 0.5826 0.68768 0.88647 0.0
C659 C 0.60942 0.68704 0.86227 0.0
loop_
_geom_bond_atom_site_label_1
_geom_bond_atom_site_label_2
_geom_bond_distance
_geom_bond_site_symmetry_2
_ccdc_geom_bond_type
C0 C1 1.386 . S
C0 C2 1.397 . S
C0 H24 0.931 . S
C1 C0 1.386 . S
C1 C5 1.397 . S
C2 C0 1.397 . S
C2 C3 1.384 . S
C2 H25 0.930 . S
C3 C2 1.384 . S
C3 C4 1.377 . S
C3 C6 1.481 . S
C4 C3 1.377 . S
C4 C5 1.389 . S
C4 H26 0.929 . S
C5 C1 1.397 . S
C5 C4 1.389 . S
C5 H27 0.931 . S
C6 C3 1.481 . S
C6 C7 1.387 . S
C6 C11 1.390 . S
C7 C6 1.387 . S
C7 C8 1.401 . S
C7 H28 0.930 . S
C8 C7 1.401 . S
C8 C9 1.376 . S
C8 C17 1.511 . S
C9 C8 1.376 . S
C9 C10 1.392 . S
C9 H30 0.931 . S
C10 C9 1.392 . S
C10 C11 1.361 . S
C10 C12 1.500 . S
C11 C6 1.390 . S
C11 C10 1.361 . S
C11 H29 0.931 . S
C12 C10 1.500 . S
C12 C13 1.371 . S
C12 C14 1.365 . S
C13 C12 1.371 . S
C13 C23 1.386 . S
C13 H31 0.931 . S
C14 C12 1.365 . S
C14 C15 1.409 . S
C14 H32 0.929 . S
C15 C14 1.409 . S
C15 C16 1.380 . S
C15 H33 0.930 . S
C16 C15 1.380 . S
C16 C23 1.357 . S
C17 C8 1.511 . S
C17 C18 1.341 . S
C17 C19 1.371 . S
C18 C17 1.341 . S
C18 C22 1.394 . S
C18 H34 0.930 . S
C19 C17 1.371 . S
C19 C20 1.392 . S
C19 H35 0.931 . S
C20 C19 1.392 . S
C20 C21 1.331 . S
C20 H38 0.932 . S
C21 C20 1.331 . S
C21 C22 1.336 . S
C22 C18 1.394 . S
C22 C21 1.336 . S
C22 H37 0.929 . S
C23 C13 1.386 . S
C23 C16 1.357 . S
C23 H36 0.928 . S
H24 C0 0.931 . S
H25 C2 0.930 . S
H26 C4 0.929 . S
H27 C5 0.931 . S
H28 C7 0.930 . S
H29 C11 0.931 . S
H30 C9 0.931 . S
H31 C13 0.931 . S
H32 C14 0.929 . S
H33 C15 0.930 . S
H34 C18 0.930 . S
H35 C19 0.931 . S
H36 C23 0.928 . S
H37 C22 0.929 . S
H38 C20 0.932 . S
C39 C40 1.386 . S
C39 C41 1.397 . S
C39 H63 0.931 . S
C40 C39 1.386 . S
C40 C44 1.397 . S
C41 C39 1.397 . S
C41 C42 1.384 . S
C41 H64 0.930 . S
C42 C41 1.384 . S
C42 C43 1.377 . S
C42 C45 1.481 . S
C43 C42 1.377 . S
C43 C44 1.389 . S
C43 H65 0.929 . S
C44 C40 1.397 . S
C44 C43 1.389 . S
C44 H66 0.931 . S
C45 C42 1.481 . S
C45 C46 1.387 . S
C45 C50 1.390 . S
C46 C45 1.387 . S
C46 C47 1.401 . S
C46 H67 0.930 . S
C47 C46 1.401 . S
C47 C48 1.376 . S
C47 C56 1.511 . S
C48 C47 1.376 . S
C48 C49 1.392 . S
C48 H69 0.931 . S
C49 C48 1.392 . S
C49 C50 1.361 . S
C49 C51 1.500 . S
C50 C45 1.390 . S
C50 C49 1.361 . S
C50 H68 0.931 . S
C51 C49 1.500 . S
C51 C52 1.371 . S
C51 C53 1.365 . S
C52 C51 1.371 . S
C52 C62 1.386 . S
C52 H70 0.931 . S
C53 C51 1.365 . S
C53 C54 1.409 . S
C53 H71 0.929 . S
C54 C53 1.409 . S
C54 C55 1.380 . S
C54 H72 0.930 . S
C55 C54 1.380 . S
C55 C62 1.357 . S
C56 C47 1.511 . S
C56 C57 1.341 . S
C56 C58 1.371 . S
C57 C56 1.341 . S
C57 C61 1.394 . S
C57 H73 0.930 . S
C58 C56 1.371 . S
C58 C59 1.392 . S
C58 H74 0.931 . S
C59 C58 1.392 . S
C59 C60 1.331 . S
C59 H77 0.932 . S
C60 C59 1.331 . S
C60 C61 1.336 . S
C61 C57 1.394 . S
C61 C60 1.336 . S
C61 H76 0.929 . S
C62 C52 1.386 . S
C62 C55 1.357 . S
C62 H75 0.928 . S
H63 C39 0.931 . S
H64 C41 0.930 . S
H65 C43 0.929 . S
H66 C44 0.931 . S
H67 C46 0.930 . S
H68 C50 0.931 . S
H69 C48 0.931 . S
H70 C52 0.931 . S
H71 C53 0.929 . S
H72 C54 0.930 . S
H73 C57 0.930 . S
H74 C58 0.931 . S
H75 C62 0.928 . S
H76 C61 0.929 . S
H77 C59 0.932 . S
C78 C79 1.386 . S
C78 C80 1.397 . S
C78 H102 0.931 . S
C79 C78 1.386 . S
C79 C83 1.397 . S
C80 C78 1.397 . S
C80 C81 1.384 . S
C80 H103 0.930 . S
C81 C80 1.384 . S
C81 C82 1.377 . S
C81 C84 1.481 . S
C82 C81 1.377 . S
C82 C83 1.389 . S
C82 H104 0.929 . S
C83 C79 1.397 . S
C83 C82 1.389 . S
C83 H105 0.931 . S
C84 C81 1.481 . S
C84 C85 1.387 . S
C84 C89 1.390 . S
C85 C84 1.387 . S
C85 C86 1.401 . S
C85 H106 0.930 . S
C86 C85 1.401 . S
C86 C87 1.376 . S
C86 C95 1.511 . S
C87 C86 1.376 . S
C87 C88 1.392 . S
C87 H108 0.931 . S
C88 C87 1.392 . S
C88 C89 1.361 . S
C88 C90 1.500 . S
C89 C84 1.390 . S
C89 C88 1.361 . S
C89 H107 0.931 . S
C90 C88 1.500 . S
C90 C91 1.371 . S
C90 C92 1.365 . S
C91 C90 1.371 . S
C91 C101 1.386 . S
C91 H109 0.931 . S
C92 C90 1.365 . S
C92 C93 1.409 . S
C92 H110 0.929 . S
C93 C92 1.409 . S
C93 C94 1.380 . S
C93 H111 0.930 . S
C94 C93 1.380 . S
C94 C101 1.357 . S
C95 C86 1.511 . S
C95 C96 1.341 . S
C95 C97 1.371 . S
C96 C95 1.341 . S
C96 C100 1.394 . S
C96 H112 0.930 . S
C97 C95 1.371 . S
C97 C98 1.392 . S
C97 H113 0.931 . S
C98 C97 1.392 . S
C98 C99 1.331 . S
C98 H116 0.932 . S
C99 C98 1.331 . S
C99 C100 1.336 . S
C100 C96 1.394 . S
C100 C99 1.336 . S
C100 H115 0.929 . S
C101 C91 1.386 . S
C101 C94 1.357 . S
C101 H114 0.928 . S
H102 C78 0.931 . S
H103 C80 0.930 . S
H104 C82 0.929 . S
H105 C83 0.931 . S
H106 C85 0.930 . S
H107 C89 0.931 . S
H108 C87 0.931 . S
H109 C91 0.931 . S
H110 C92 0.929 . S
H111 C93 0.930 . S
H112 C96 0.930 . S
H113 C97 0.931 . S
H114 C101 0.928 . S
H115 C100 0.929 . S
H116 C98 0.932 . S
C117 C118 1.386 . S
C117 C119 1.397 . S
C117 H141 0.931 . S
C118 C117 1.386 . S
C118 C122 1.397 . S
C119 C117 1.397 . S
C119 C120 1.384 . S
C119 H142 0.930 . S
C120 C119 1.384 . S
C120 C121 1.377 . S
C120 C123 1.481 . S
C121 C120 1.377 . S
C121 C122 1.389 . S
C121 H143 0.929 . S
C122 C118 1.397 . S
C122 C121 1.389 . S
C122 H144 0.931 . S
C123 C120 1.481 . S
C123 C124 1.387 . S
C123 C128 1.390 . S
C124 C123 1.387 . S
C124 C125 1.401 . S
C124 H145 0.930 . S
C125 C124 1.401 . S
C125 C126 1.376 . S
C125 C134 1.511 . S
C126 C125 1.376 . S
C126 C127 1.392 . S
C126 H147 0.931 . S
C127 C126 1.392 . S
C127 C128 1.361 . S
C127 C129 1.500 . S
C128 C123 1.390 . S
C128 C127 1.361 . S
C128 H146 0.931 . S
C129 C127 1.500 . S
C129 C130 1.371 . S
C129 C131 1.365 . S
C130 C129 1.371 . S
C130 C140 1.386 . S
C130 H148 0.931 . S
C131 C129 1.365 . S
C131 C132 1.409 . S
C131 H149 0.929 . S
C132 C131 1.409 . S
C132 C133 1.380 . S
C132 H150 0.930 . S
C133 C132 1.380 . S
C133 C140 1.357 . S
C134 C125 1.511 . S
C134 C135 1.341 . S
C134 C136 1.371 . S
C135 C134 1.341 . S
C135 C139 1.394 . S
C135 H151 0.930 . S
C136 C134 1.371 . S
C136 C137 1.392 . S
C136 H152 0.931 . S
C137 C136 1.392 . S
C137 C138 1.331 . S
C137 H155 0.932 . S
C138 C137 1.331 . S
C138 C139 1.336 . S
C139 C135 1.394 . S
C139 C138 1.336 . S
C139 H154 0.929 . S
C140 C130 1.386 . S
C140 C133 1.357 . S
C140 H153 0.928 . S
H141 C117 0.931 . S
H142 C119 0.930 . S
H143 C121 0.929 . S
H144 C122 0.931 . S
H145 C124 0.930 . S
H146 C128 0.931 . S
H147 C126 0.931 . S
H148 C130 0.931 . S
H149 C131 0.929 . S
H150 C132 0.930 . S
H151 C135 0.930 . S
H152 C136 0.931 . S
H153 C140 0.928 . S
H154 C139 0.929 . S
H155 C137 0.932 . S
C156 C157 1.386 . S
C156 C158 1.397 . S
C156 H180 0.931 . S
C157 C156 1.386 . S
C157 C161 1.397 . S
C158 C156 1.397 . S
C158 C159 1.384 . S
C158 H181 0.930 . S
C159 C158 1.384 . S
C159 C160 1.377 . S
C159 C162 1.481 . S
C160 C159 1.377 . S
C160 C161 1.389 . S
C160 H182 0.929 . S
C161 C157 1.397 . S
C161 C160 1.389 . S
C161 H183 0.931 . S
C162 C159 1.481 . S
C162 C163 1.387 . S
C162 C167 1.390 . S
C163 C162 1.387 . S
C163 C164 1.401 . S
C163 H184 0.930 . S
C164 C163 1.401 . S
C164 C165 1.376 . S
C164 C173 1.511 . S
C165 C164 1.376 . S
C165 C166 1.392 . S
C165 H186 0.931 . S
C166 C165 1.392 . S
C166 C167 1.361 . S
C166 C168 1.500 . S
C167 C162 1.390 . S
C167 C166 1.361 . S
C167 H185 0.931 . S
C168 C166 1.500 . S
C168 C169 1.371 . S
C168 C170 1.365 . S
C169 C168 1.371 . S
C169 C179 1.386 . S
C169 H187 0.931 . S
C170 C168 1.365 . S
C170 C171 1.409 . S
C170 H188 0.929 . S
C171 C170 1.409 . S
C171 C172 1.380 . S
C171 H189 0.930 . S
C172 C171 1.380 . S
C172 C179 1.357 . S
C173 C164 1.511 . S
C173 C174 1.341 . S
C173 C175 1.371 . S
C174 C173 1.341 . S
C174 C178 1.394 . S
C174 H190 0.930 . S
C175 C173 1.371 . S
C175 C176 1.392 . S
C175 H191 0.931 . S
C176 C175 1.392 . S
C176 C177 1.331 . S
C176 H194 0.932 . S
C177 C176 1.331 . S
C177 C178 1.336 . S
C178 C174 1.394 . S
C178 C177 1.336 . S
C178 H193 0.929 . S
C179 C169 1.386 . S
C179 C172 1.357 . S
C179 H192 0.928 . S
H180 C156 0.931 . S
H181 C158 0.930 . S
H182 C160 0.929 . S
H183 C161 0.931 . S
H184 C163 0.930 . S
H185 C167 0.931 . S
H186 C165 0.931 . S
H187 C169 0.931 . S
H188 C170 0.929 . S
H189 C171 0.930 . S
H190 C174 0.930 . S
H191 C175 0.931 . S
H192 C179 0.928 . S
H193 C178 0.929 . S
H194 C176 0.932 . S
C195 C196 1.386 . S
C195 C197 1.397 . S
C195 H219 0.931 . S
C196 C195 1.386 . S
C196 C200 1.397 . S
C197 C195 1.397 . S
C197 C198 1.384 . S
C197 H220 0.930 . S
C198 C197 1.384 . S
C198 C199 1.377 . S
C198 C201 1.481 . S
C199 C198 1.377 . S
C199 C200 1.389 . S
C199 H221 0.929 . S
C200 C196 1.397 . S
C200 C199 1.389 . S
C200 H222 0.931 . S
C201 C198 1.481 . S
C201 C202 1.387 . S
C201 C206 1.390 . S
C202 C201 1.387 . S
C202 C203 1.401 . S
C202 H223 0.930 . S
C203 C202 1.401 . S
C203 C204 1.376 . S
C203 C212 1.511 . S
C204 C203 1.376 . S
C204 C205 1.392 . S
C204 H225 0.931 . S
C205 C204 1.392 . S
C205 C206 1.361 . S
C205 C207 1.500 . S
C206 C201 1.390 . S
C206 C205 1.361 . S
C206 H224 0.931 . S
C207 C205 1.500 . S
C207 C208 1.371 . S
C207 C209 1.365 . S
C208 C207 1.371 . S
C208 C218 1.386 . S
C208 H226 0.931 . S
C209 C207 1.365 . S
C209 C210 1.409 . S
C209 H227 0.929 . S
C210 C209 1.409 . S
C210 C211 1.380 . S
C210 H228 0.930 . S
C211 C210 1.380 . S
C211 C218 1.357 . S
C212 C203 1.511 . S
C212 C213 1.341 . S
C212 C214 1.371 . S
C213 C212 1.341 . S
C213 C217 1.394 . S
C213 H229 0.930 . S
C214 C212 1.371 . S
C214 C215 1.392 . S
C214 H230 0.931 . S
C215 C214 1.392 . S
C215 C216 1.331 . S
C215 H233 0.932 . S
C216 C215 1.331 . S
C216 C217 1.336 . S
C217 C213 1.394 . S
C217 C216 1.336 . S
C217 H232 0.929 . S
C218 C208 1.386 . S
C218 C211 1.357 . S
C218 H231 0.928 . S
H219 C195 0.931 . S
H220 C197 0.930 . S
H221 C199 0.929 . S
H222 C200 0.931 . S
H223 C202 0.930 . S
H224 C206 0.931 . S
H225 C204 0.931 . S
H226 C208 0.931 . S
H227 C209 0.929 . S
H228 C210 0.930 . S
H229 C213 0.930 . S
H230 C214 0.931 . S
H231 C218 0.928 . S
H232 C217 0.929 . S
H233 C215 0.932 . S
C234 C235 1.386 . S
C234 C236 1.397 . S
C234 H258 0.931 . S
C235 C234 1.386 . S
C235 C239 1.397 . S
C236 C234 1.397 . S
C236 C237 1.384 . S
C236 H259 0.930 . S
C237 C236 1.384 . S
C237 C238 1.377 . S
C237 C240 1.481 . S
C238 C237 1.377 . S
C238 C239 1.389 . S
C238 H260 0.929 . S
C239 C235 1.397 . S
C239 C238 1.389 . S
C239 H261 0.931 . S
C240 C237 1.481 . S
C240 C241 1.387 . S
C240 C245 1.390 . S
C241 C240 1.387 . S
C241 C242 1.401 . S
C241 H262 0.930 . S
C242 C241 1.401 . S
C242 C243 1.376 . S
C242 C251 1.511 . S
C243 C242 1.376 . S
C243 C244 1.392 . S
C243 H264 0.931 . S
C244 C243 1.392 . S
C244 C245 1.361 . S
C244 C246 1.500 . S
C245 C240 1.390 . S
C245 C244 1.361 . S
C245 H263 0.931 . S
C246 C244 1.500 . S
C246 C247 1.371 . S
C246 C248 1.365 . S
C247 C246 1.371 . S
C247 C257 1.386 . S
C247 H265 0.931 . S
C248 C246 1.365 . S
C248 C249 1.409 . S
C248 H266 0.929 . S
C249 C248 1.409 . S
C249 C250 1.380 . S
C249 H267 0.930 . S
C250 C249 1.380 . S
C250 C257 1.357 . S
C251 C242 1.511 . S
C251 C252 1.341 . S
C251 C253 1.371 . S
C252 C251 1.341 . S
C252 C256 1.394 . S
C252 H268 0.930 . S
C253 C251 1.371 . S
C253 C254 1.392 . S
C253 H269 0.931 . S
C254 C253 1.392 . S
C254 C255 1.331 . S
C254 H272 0.932 . S
C255 C254 1.331 . S
C255 C256 1.336 . S
C256 C252 1.394 . S
C256 C255 1.336 . S
C256 H271 0.929 . S
C257 C247 1.386 . S
C257 C250 1.357 . S
C257 H270 0.928 . S
H258 C234 0.931 . S
H259 C236 0.930 . S
H260 C238 0.929 . S
H261 C239 0.931 . S
H262 C241 0.930 . S
H263 C245 0.931 . S
H264 C243 0.931 . S
H265 C247 0.931 . S
H266 C248 0.929 . S
H267 C249 0.930 . S
H268 C252 0.930 . S
H269 C253 0.931 . S
H270 C257 0.928 . S
H271 C256 0.929 . S
H272 C254 0.932 . S
C273 C274 1.386 . S
C273 C275 1.397 . S
C273 H297 0.931 . S
C274 C273 1.386 . S
C274 C278 1.397 . S
C275 C273 1.397 . S
C275 C276 1.384 . S
C275 H298 0.930 . S
C276 C275 1.384 . S
C276 C277 1.377 . S
C276 C279 1.481 . S
C277 C276 1.377 . S
C277 C278 1.389 . S
C277 H299 0.929 . S
C278 C274 1.397 . S
C278 C277 1.389 . S
C278 H300 0.931 . S
C279 C276 1.481 . S
C279 C280 1.387 . S
C279 C284 1.390 . S
C280 C279 1.387 . S
C280 C281 1.401 . S
C280 H301 0.930 . S
C281 C280 1.401 . S
C281 C282 1.376 . S
C281 C290 1.511 . S
C282 C281 1.376 . S
C282 C283 1.392 . S
C282 H303 0.931 . S
C283 C282 1.392 . S
C283 C284 1.361 . S
C283 C285 1.500 . S
C284 C279 1.390 . S
C284 C283 1.361 . S
C284 H302 0.931 . S
C285 C283 1.500 . S
C285 C286 1.371 . S
C285 C287 1.365 . S
C286 C285 1.371 . S
C286 C296 1.386 . S
C286 H304 0.931 . S
C287 C285 1.365 . S
C287 C288 1.409 . S
C287 H305 0.929 . S
C288 C287 1.409 . S
C288 C289 1.380 . S
C288 H306 0.930 . S
C289 C288 1.380 . S
C289 C296 1.357 . S
C290 C281 1.511 . S
C290 C291 1.341 . S
C290 C292 1.371 . S
C291 C290 1.341 . S
C291 C295 1.394 . S
C291 H307 0.930 . S
C292 C290 1.371 . S
C292 C293 1.392 . S
C292 H308 0.931 . S
C293 C292 1.392 . S
C293 C294 1.331 . S
C293 H311 0.932 . S
C294 C293 1.331 . S
C294 C295 1.336 . S
C295 C291 1.394 . S
C295 C294 1.336 . S
C295 H310 0.929 . S
C296 C286 1.386 . S
C296 C289 1.357 . S
C296 H309 0.928 . S
H297 C273 0.931 . S
H298 C275 0.930 . S
H299 C277 0.929 . S
H300 C278 0.931 . S
H301 C280 0.930 . S
H302 C284 0.931 . S
H303 C282 0.931 . S
H304 C286 0.931 . S
H305 C287 0.929 . S
H306 C288 0.930 . S
H307 C291 0.930 . S
H308 C292 0.931 . S
H309 C296 0.928 . S
H310 C295 0.929 . S
H311 C293 0.932 . S
C312 O314 1.247 . S
C312 O316 1.258 . S
C313 O320 1.247 . S
C313 O321 1.258 . S
O314 C312 1.247 . S
O314 Zn315 2.028 1_655 S
Zn315 O314 2.028 1_455 S
Zn315 O319 2.035 . S
Zn315 O321 2.035 . S
Zn315 O322 2.028 1_455 S
O316 C312 1.258 . S
O316 Zn317 2.035 1_655 S
Zn317 O316 2.035 1_455 S
Zn317 O318 2.028 . S
Zn317 O320 2.028 . S
Zn317 O323 2.035 1_455 S
O318 Zn317 2.028 . S
O318 C324 1.247 . S
O319 Zn315 2.035 . S
O319 C324 1.258 . S
O320 C313 1.247 . S
O320 Zn317 2.028 . S
O321 C313 1.258 . S
O321 Zn315 2.035 . S
O322 Zn315 2.028 1_655 S
O322 C325 1.247 . S
O323 Zn317 2.035 1_655 S
O323 C325 1.258 . S
C324 O318 1.247 . S
C324 O319 1.258 . S
C325 O322 1.247 . S
C325 O323 1.258 . S
C326 O328 1.247 . S
C326 O330 1.258 . S
C327 O334 1.247 . S
C327 O335 1.258 . S
O328 C326 1.247 . S
O328 Zn329 2.028 1_655 S
Zn329 O328 2.028 1_455 S
Zn329 O333 2.035 . S
Zn329 O335 2.035 . S
Zn329 O336 2.028 1_455 S
O330 C326 1.258 . S
O330 Zn331 2.035 1_655 S
Zn331 O330 2.035 1_455 S
Zn331 O332 2.028 . S
Zn331 O334 2.028 . S
Zn331 O337 2.035 1_455 S
O332 Zn331 2.028 . S
O332 C338 1.247 . S
O333 Zn329 2.035 . S
O333 C338 1.258 . S
O334 C327 1.247 . S
O334 Zn331 2.028 . S
O335 C327 1.258 . S
O335 Zn329 2.035 . S
O336 Zn329 2.028 1_655 S
O336 C339 1.247 . S
O337 Zn331 2.035 1_655 S
O337 C339 1.258 . S
C338 O332 1.247 . S
C338 O333 1.258 . S
C339 O336 1.247 . S
C339 O337 1.258 . S
C340 O342 1.247 . S
C340 O344 1.258 . S
C341 O348 1.247 . S
C341 O349 1.258 . S
O342 C340 1.247 . S
O342 Zn343 2.028 1_565 S
Zn343 O342 2.028 1_545 S
Zn343 O347 2.035 . S
Zn343 O349 2.035 . S
Zn343 O350 2.028 1_545 S
O344 C340 1.258 . S
O344 Zn345 2.035 1_565 S
Zn345 O344 2.035 1_545 S
Zn345 O346 2.028 . S
Zn345 O348 2.028 . S
Zn345 O351 2.035 1_545 S
O346 Zn345 2.028 . S
O346 C352 1.247 . S
O347 Zn343 2.035 . S
O347 C352 1.258 . S
O348 C341 1.247 . S
O348 Zn345 2.028 . S
O349 C341 1.258 . S
O349 Zn343 2.035 . S
O350 Zn343 2.028 1_565 S
O350 C353 1.247 . S
O351 Zn345 2.035 1_565 S
O351 C353 1.258 . S
C352 O346 1.247 . S
C352 O347 1.258 . S
C353 O350 1.247 . S
C353 O351 1.258 . S
C354 O356 1.247 . S
C354 O358 1.258 . S
C355 O362 1.247 . S
C355 O363 1.258 . S
O356 C354 1.247 . S
O356 Zn357 2.047 . S
Zn357 O356 2.047 . S
Zn357 O361 2.054 . S
Zn357 O363 2.016 1_554 S
Zn357 O364 2.009 1_554 S
O358 C354 1.258 . S
O358 Zn359 2.035 . S
Zn359 O358 2.035 . S
Zn359 O360 2.028 . S
Zn359 O362 2.028 1_554 S
Zn359 O365 2.035 1_554 S
O360 Zn359 2.028 . S
O360 C366 1.247 . S
O361 Zn357 2.054 . S
O361 C366 1.258 . S
O362 C355 1.247 . S
O362 Zn359 2.028 1_556 S
O363 C355 1.258 . S
O363 Zn357 2.016 1_556 S
O364 Zn357 2.009 1_556 S
O364 C367 1.247 . S
O365 Zn359 2.035 1_556 S
O365 C367 1.258 . S
C366 O360 1.247 . S
C366 O361 1.258 . S
C367 O364 1.247 . S
C367 O365 1.258 . S
C368 O370 1.247 . S
C368 O372 1.258 . S
C369 O376 1.247 . S
C369 O377 1.258 . S
O370 C368 1.247 . S
O370 Zn371 2.028 1_565 S
Zn371 O370 2.028 1_545 S
Zn371 O375 2.035 . S
Zn371 O377 2.035 . S
Zn371 O378 2.028 1_545 S
O372 C368 1.258 . S
O372 Zn373 2.035 1_565 S
Zn373 O372 2.035 1_545 S
Zn373 O374 2.028 . S
Zn373 O376 2.028 . S
Zn373 O379 2.035 1_545 S
O374 Zn373 2.028 . S
O374 C380 1.247 . S
O375 Zn371 2.035 . S
O375 C380 1.258 . S
O376 C369 1.247 . S
O376 Zn373 2.028 . S
O377 C369 1.258 . S
O377 Zn371 2.035 . S
O378 Zn371 2.028 1_565 S
O378 C381 1.247 . S
O379 Zn373 2.035 1_565 S
O379 C381 1.258 . S
C380 O374 1.247 . S
C380 O375 1.258 . S
C381 O378 1.247 . S
C381 O379 1.258 . S
C382 O384 1.247 . S
C382 O386 1.258 . S
C383 O390 1.247 . S
C383 O391 1.258 . S
O384 C382 1.247 . S
O384 Zn385 2.028 . S
Zn385 O384 2.028 . S
Zn385 O389 2.035 . S
Zn385 O391 2.035 1_554 S
Zn385 O392 2.028 1_554 S
O386 C382 1.258 . S
O386 Zn387 2.035 . S
Zn387 O386 2.035 . S
Zn387 O388 2.028 . S
Zn387 O390 2.028 1_554 S
Zn387 O393 2.035 1_554 S
O388 Zn387 2.028 . S
O388 C394 1.247 . S
O389 Zn385 2.035 . S
O389 C394 1.258 . S
O390 C383 1.247 . S
O390 Zn387 2.028 1_556 S
O391 C383 1.258 . S
O391 Zn385 2.035 1_556 S
O392 Zn385 2.028 1_556 S
O392 C395 1.247 . S
O393 Zn387 2.035 1_556 S
O393 C395 1.258 . S
C394 O388 1.247 . S
C394 O389 1.258 . S
C395 O392 1.247 . S
C395 O393 1.258 . S
C396 C397 1.369 . S
C396 C398 1.419 . S
C396 H400 0.930 . S
C397 C396 1.369 . S
C397 C406 1.429 . S
C398 C396 1.419 . S
C398 C399 1.363 . S
C398 H401 0.929 . S
C399 C398 1.363 . S
C399 C405 1.428 . S
H400 C396 0.930 . S
H401 C398 0.929 . S
S402 N403 1.613 . S
S402 N404 1.610 . S
N403 S402 1.613 . S
N403 C406 1.350 . S
N404 S402 1.610 . S
N404 C405 1.351 . S
C405 C399 1.428 . S
C405 N404 1.351 . S
C405 C406 1.434 . S
C406 C397 1.429 . S
C406 N403 1.350 . S
C406 C405 1.434 . S
C407 C408 1.369 . S
C407 C409 1.419 . S
C407 H411 0.930 . S
C408 C407 1.369 . S
C408 C417 1.429 . S
C409 C407 1.419 . S
C409 C410 1.363 . S
C409 H412 0.929 . S
C410 C409 1.363 . S
C410 C416 1.428 . S
H411 C407 0.930 . S
H412 C409 0.929 . S
S413 N414 1.613 . S
S413 N415 1.610 . S
N414 S413 1.613 . S
N414 C417 1.350 . S
N415 S413 1.610 . S
N415 C416 1.351 . S
C416 C410 1.428 . S
C416 N415 1.351 . S
C416 C417 1.434 . S
C417 C408 1.429 . S
C417 N414 1.350 . S
C417 C416 1.434 . S
C418 C419 1.369 . S
C418 C420 1.419 . S
C418 H422 0.930 . S
C419 C418 1.369 . S
C419 C428 1.429 . S
C420 C418 1.419 . S
C420 C421 1.363 . S
C420 H423 0.929 . S
C421 C420 1.363 . S
C421 C427 1.428 . S
H422 C418 0.930 . S
H423 C420 0.929 . S
S424 N425 1.613 . S
S424 N426 1.610 . S
N425 S424 1.613 . S
N425 C428 1.350 . S
N426 S424 1.610 . S
N426 C427 1.351 . S
C427 C421 1.428 . S
C427 N426 1.351 . S
C427 C428 1.434 . S
C428 C419 1.429 . S
C428 N425 1.350 . S
C428 C427 1.434 . S
C429 C430 1.369 . S
C429 C431 1.419 . S
C429 H433 0.930 . S
C430 C429 1.369 . S
C430 C439 1.429 . S
C431 C429 1.419 . S
C431 C432 1.363 . S
C431 H434 0.929 . S
C432 C431 1.363 . S
C432 C438 1.428 . S
H433 C429 0.930 . S
H434 C431 0.929 . S
S435 N436 1.613 . S
S435 N437 1.610 . S
N436 S435 1.613 . S
N436 C439 1.350 . S
N437 S435 1.610 . S
N437 C438 1.351 . S
C438 C432 1.428 . S
C438 N437 1.351 . S
C438 C439 1.434 . S
C439 C430 1.429 . S
C439 N436 1.350 . S
C439 C438 1.434 . S
C440 C441 1.369 . S
C440 C442 1.419 . S
C440 H444 0.930 . S
C441 C440 1.369 . S
C441 C450 1.429 . S
C442 C440 1.419 . S
C442 C443 1.363 . S
C442 H445 0.929 . S
C443 C442 1.363 . S
C443 C449 1.428 . S
H444 C440 0.930 . S
H445 C442 0.929 . S
S446 N447 1.613 . S
S446 N448 1.610 . S
N447 S446 1.613 . S
N447 C450 1.350 . S
N448 S446 1.610 . S
N448 C449 1.351 . S
C449 C443 1.428 . S
C449 N448 1.351 . S
C449 C450 1.434 . S
C450 C441 1.429 . S
C450 N447 1.350 . S
C450 C449 1.434 . S
C451 C452 1.369 . S
C451 C453 1.419 . S
C451 H455 0.930 . S
C452 C451 1.369 . S
C452 C461 1.429 . S
C453 C451 1.419 . S
C453 C454 1.363 . S
C453 H456 0.929 . S
C454 C453 1.363 . S
C454 C460 1.428 . S
H455 C451 0.930 . S
H456 C453 0.929 . S
S457 N458 1.613 . S
S457 N459 1.610 . S
N458 S457 1.613 . S
N458 C461 1.350 . S
N459 S457 1.610 . S
N459 C460 1.351 . S
C460 C454 1.428 . S
C460 N459 1.351 . S
C460 C461 1.434 . S
C461 C452 1.429 . S
C461 N458 1.350 . S
C461 C460 1.434 . S
C462 C463 1.369 . S
C462 C464 1.419 . S
C462 H466 0.930 . S
C463 C462 1.369 . S
C463 C472 1.429 . S
C464 C462 1.419 . S
C464 C465 1.363 . S
C464 H467 0.929 . S
C465 C464 1.363 . S
C465 C471 1.428 . S
H466 C462 0.930 . S
H467 C464 0.929 . S
S468 N469 1.613 . S
S468 N470 1.610 . S
N469 S468 1.613 . S
N469 C472 1.350 . S
N470 S468 1.610 . S
N470 C471 1.351 . S
C471 C465 1.428 . S
C471 N470 1.351 . S
C471 C472 1.434 . S
C472 C463 1.429 . S
C472 N469 1.350 . S
C472 C471 1.434 . S
C473 C474 1.369 . S
C473 C475 1.419 . S
C473 H477 0.930 . S
C474 C473 1.369 . S
C474 C483 1.429 . S
C475 C473 1.419 . S
C475 C476 1.363 . S
C475 H478 0.929 . S
C476 C475 1.363 . S
C476 C482 1.428 . S
H477 C473 0.930 . S
H478 C475 0.929 . S
S479 N480 1.613 . S
S479 N481 1.610 . S
N480 S479 1.613 . S
N480 C483 1.350 . S
N481 S479 1.610 . S
N481 C482 1.351 . S
C482 C476 1.428 . S
C482 N481 1.351 . S
C482 C483 1.434 . S
C483 C474 1.429 . S
C483 N480 1.350 . S
C483 C482 1.434 . S
C484 C485 1.369 . S
C484 C486 1.419 . S
C484 H488 0.930 . S
C485 C484 1.369 . S
C485 C494 1.429 . S
C486 C484 1.419 . S
C486 C487 1.363 . S
C486 H489 0.929 . S
C487 C486 1.363 . S
C487 C493 1.428 . S
H488 C484 0.930 . S
H489 C486 0.929 . S
S490 N491 1.613 . S
S490 N492 1.610 . S
N491 S490 1.613 . S
N491 C494 1.350 . S
N492 S490 1.610 . S
N492 C493 1.351 . S
C493 C487 1.428 . S
C493 N492 1.351 . S
C493 C494 1.434 . S
C494 C485 1.429 . S
C494 N491 1.350 . S
C494 C493 1.434 . S
C495 C496 1.369 . S
C495 C497 1.419 . S
C495 H499 0.930 . S
C496 C495 1.369 . S
C496 C505 1.429 . S
C497 C495 1.419 . S
C497 C498 1.363 . S
C497 H500 0.929 . S
C498 C497 1.363 . S
C498 C504 1.428 . S
H499 C495 0.930 . S
H500 C497 0.929 . S
S501 N502 1.613 . S
S501 N503 1.610 . S
N502 S501 1.613 . S
N502 C505 1.350 . S
N503 S501 1.610 . S
N503 C504 1.351 . S
C504 C498 1.428 . S
C504 N503 1.351 . S
C504 C505 1.434 . S
C505 C496 1.429 . S
C505 N502 1.350 . S
C505 C504 1.434 . S
C506 C507 1.369 . S
C506 C508 1.419 . S
C506 H510 0.930 . S
C507 C506 1.369 . S
C507 C516 1.429 . S
C508 C506 1.419 . S
C508 C509 1.363 . S
C508 H511 0.929 . S
C509 C508 1.363 . S
C509 C515 1.428 . S
H510 C506 0.930 . S
H511 C508 0.929 . S
S512 N513 1.613 . S
S512 N514 1.610 . S
N513 S512 1.613 . S
N513 C516 1.350 . S
N514 S512 1.610 . S
N514 C515 1.351 . S
C515 C509 1.428 . S
C515 N514 1.351 . S
C515 C516 1.434 . S
C516 C507 1.429 . S
C516 N513 1.350 . S
C516 C515 1.434 . S
C517 C518 1.369 . S
C517 C519 1.419 . S
C517 H521 0.930 . S
C518 C517 1.369 . S
C518 C527 1.429 . S
C519 C517 1.419 . S
C519 C520 1.363 . S
C519 H522 0.929 . S
C520 C519 1.363 . S
C520 C526 1.428 . S
H521 C517 0.930 . S
H522 C519 0.929 . S
S523 N524 1.613 . S
S523 N525 1.610 . S
N524 S523 1.613 . S
N524 C527 1.350 . S
N525 S523 1.610 . S
N525 C526 1.351 . S
C526 C520 1.428 . S
C526 N525 1.351 . S
C526 C527 1.434 . S
C527 C518 1.429 . S
C527 N524 1.350 . S
C527 C526 1.434 . S
C528 C529 1.369 . S
C528 C530 1.419 . S
C528 H532 0.930 . S
C529 C528 1.369 . S
C529 C538 1.429 . S
C530 C528 1.419 . S
C530 C531 1.363 . S
C530 H533 0.929 . S
C531 C530 1.363 . S
C531 C537 1.428 . S
H532 C528 0.930 . S
H533 C530 0.929 . S
S534 N535 1.613 . S
S534 N536 1.610 . S
N535 S534 1.613 . S
N535 C538 1.350 . S
N536 S534 1.610 . S
N536 C537 1.351 . S
C537 C531 1.428 . S
C537 N536 1.351 . S
C537 C538 1.434 . S
C538 C529 1.429 . S
C538 N535 1.350 . S
C538 C537 1.434 . S
C539 C540 1.369 . S
C539 C541 1.419 . S
C539 H543 0.930 . S
C540 C539 1.369 . S
C540 C549 1.429 . S
C541 C539 1.419 . S
C541 C542 1.363 . S
C541 H544 0.929 . S
C542 C541 1.363 . S
C542 C548 1.428 . S
H543 C539 0.930 . S
H544 C541 0.929 . S
S545 N546 1.613 . S
S545 N547 1.610 . S
N546 S545 1.613 . S
N546 C549 1.350 . S
N547 S545 1.610 . S
N547 C548 1.351 . S
C548 C542 1.428 . S
C548 N547 1.351 . S
C548 C549 1.434 . S
C549 C540 1.429 . S
C549 N546 1.350 . S
C549 C548 1.434 . S
C550 C551 1.369 . S
C550 C552 1.419 . S
C550 H554 0.930 . S
C551 C550 1.369 . S
C551 C560 1.429 . S
C552 C550 1.419 . S
C552 C553 1.363 . S
C552 H555 0.929 . S
C553 C552 1.363 . S
C553 C559 1.428 . S
H554 C550 0.930 . S
H555 C552 0.929 . S
S556 N557 1.613 . S
S556 N558 1.610 . S
N557 S556 1.613 . S
N557 C560 1.350 . S
N558 S556 1.610 . S
N558 C559 1.351 . S
C559 C553 1.428 . S
C559 N558 1.351 . S
C559 C560 1.434 . S
C560 C551 1.429 . S
C560 N557 1.350 . S
C560 C559 1.434 . S
C561 C562 1.369 . S
C561 C563 1.419 . S
C561 H565 0.930 . S
C562 C561 1.369 . S
C562 C571 1.429 . S
C563 C561 1.419 . S
C563 C564 1.363 . S
C563 H566 0.929 . S
C564 C563 1.363 . S
C564 C570 1.428 . S
H565 C561 0.930 . S
H566 C563 0.929 . S
S567 N568 1.613 . S
S567 N569 1.610 . S
N568 S567 1.613 . S
N568 C571 1.350 . S
N569 S567 1.610 . S
N569 C570 1.351 . S
C570 C564 1.428 . S
C570 N569 1.351 . S
C570 C571 1.434 . S
C571 C562 1.429 . S
C571 N568 1.350 . S
C571 C570 1.434 . S
C572 C573 1.369 . S
C572 C574 1.419 . S
C572 H576 0.930 . S
C573 C572 1.369 . S
C573 C582 1.429 . S
C574 C572 1.419 . S
C574 C575 1.363 . S
C574 H577 0.929 . S
C575 C574 1.363 . S
C575 C581 1.428 . S
H576 C572 0.930 . S
H577 C574 0.929 . S
S578 N579 1.613 . S
S578 N580 1.610 . S
N579 S578 1.613 . S
N579 C582 1.350 . S
N580 S578 1.610 . S
N580 C581 1.351 . S
C581 C575 1.428 . S
C581 N580 1.351 . S
C581 C582 1.434 . S
C582 C573 1.429 . S
C582 N579 1.350 . S
C582 C581 1.434 . S
C583 C584 1.369 . S
C583 C585 1.419 . S
C583 H587 0.930 . S
C584 C583 1.369 . S
C584 C593 1.429 . S
C585 C583 1.419 . S
C585 C586 1.363 . S
C585 H588 0.929 . S
C586 C585 1.363 . S
C586 C592 1.428 . S
H587 C583 0.930 . S
H588 C585 0.929 . S
S589 N590 1.613 . S
S589 N591 1.610 . S
N590 S589 1.613 . S
N590 C593 1.350 . S
N591 S589 1.610 . S
N591 C592 1.351 . S
C592 C586 1.428 . S
C592 N591 1.351 . S
C592 C593 1.434 . S
C593 C584 1.429 . S
C593 N590 1.350 . S
C593 C592 1.434 . S
C594 C595 1.369 . S
C594 C596 1.419 . S
C594 H598 0.930 . S
C595 C594 1.369 . S
C595 C604 1.429 . S
C596 C594 1.419 . S
C596 C597 1.363 . S
C596 H599 0.929 . S
C597 C596 1.363 . S
C597 C603 1.428 . S
H598 C594 0.930 . S
H599 C596 0.929 . S
S600 N601 1.613 . S
S600 N602 1.610 . S
N601 S600 1.613 . S
N601 C604 1.350 . S
N602 S600 1.610 . S
N602 C603 1.351 . S
C603 C597 1.428 . S
C603 N602 1.351 . S
C603 C604 1.434 . S
C604 C595 1.429 . S
C604 N601 1.350 . S
C604 C603 1.434 . S
C605 C606 1.369 . S
C605 C607 1.419 . S
C605 H609 0.930 . S
C606 C605 1.369 . S
C606 C615 1.429 . S
C607 C605 1.419 . S
C607 C608 1.363 . S
C607 H610 0.929 . S
C608 C607 1.363 . S
C608 C614 1.428 . S
H609 C605 0.930 . S
H610 C607 0.929 . S
S611 N612 1.613 . S
S611 N613 1.610 . S
N612 S611 1.613 . S
N612 C615 1.350 . S
N613 S611 1.610 . S
N613 C614 1.351 . S
C614 C608 1.428 . S
C614 N613 1.351 . S
C614 C615 1.434 . S
C615 C606 1.429 . S
C615 N612 1.350 . S
C615 C614 1.434 . S
C616 C617 1.369 . S
C616 C618 1.419 . S
C616 H620 0.930 . S
C617 C616 1.369 . S
C617 C626 1.429 . S
C618 C616 1.419 . S
C618 C619 1.363 . S
C618 H621 0.929 . S
C619 C618 1.363 . S
C619 C625 1.428 . S
H620 C616 0.930 . S
H621 C618 0.929 . S
S622 N623 1.613 . S
S622 N624 1.610 . S
N623 S622 1.613 . S
N623 C626 1.350 . S
N624 S622 1.610 . S
N624 C625 1.351 . S
C625 C619 1.428 . S
C625 N624 1.351 . S
C625 C626 1.434 . S
C626 C617 1.429 . S
C626 N623 1.350 . S
C626 C625 1.434 . S
C627 C628 1.369 . S
C627 C629 1.419 . S
C627 H631 0.930 . S
C628 C627 1.369 . S
C628 C637 1.429 . S
C629 C627 1.419 . S
C629 C630 1.363 . S
C629 H632 0.929 . S
C630 C629 1.363 . S
C630 C636 1.428 . S
H631 C627 0.930 . S
H632 C629 0.929 . S
S633 N634 1.613 . S
S633 N635 1.610 . S
N634 S633 1.613 . S
N634 C637 1.350 . S
N635 S633 1.610 . S
N635 C636 1.351 . S
C636 C630 1.428 . S
C636 N635 1.351 . S
C636 C637 1.434 . S
C637 C628 1.429 . S
C637 N634 1.350 . S
C637 C636 1.434 . S
C638 C639 1.369 . S
C638 C640 1.419 . S
C638 H642 0.930 . S
C639 C638 1.369 . S
C639 C648 1.429 . S
C640 C638 1.419 . S
C640 C641 1.363 . S
C640 H643 0.929 . S
C641 C640 1.363 . S
C641 C647 1.428 . S
H642 C638 0.930 . S
H643 C640 0.929 . S
S644 N645 1.613 . S
S644 N646 1.610 . S
N645 S644 1.613 . S
N645 C648 1.350 . S
N646 S644 1.610 . S
N646 C647 1.351 . S
C647 C641 1.428 . S
C647 N646 1.351 . S
C647 C648 1.434 . S
C648 C639 1.429 . S
C648 N645 1.350 . S
C648 C647 1.434 . S
C649 C650 1.369 . S
C649 C651 1.419 . S
C649 H653 0.930 . S
C650 C649 1.369 . S
C650 C659 1.429 . S
C651 C649 1.419 . S
C651 C652 1.363 . S
C651 H654 0.929 . S
C652 C651 1.363 . S
C652 C658 1.428 . S
H653 C649 0.930 . S
H654 C651 0.929 . S
S655 N656 1.613 . S
S655 N657 1.610 . S
N656 S655 1.613 . S
N656 C659 1.350 . S
N657 S655 1.610 . S
N657 C658 1.351 . S
C658 C652 1.428 . S
C658 N657 1.351 . S
C658 C659 1.434 . S
C659 C650 1.429 . S
C659 N656 1.350 . S
C659 C658 1.434 . S
C399 C324 1.516 . S
C397 C16 1.517 . S
C410 C327 1.504 . S
C408 C55 1.506 . S
C421 C325 1.509 . S
C419 C99 1.511 . S
C432 C326 1.500 . S
C430 C138 1.500 . S
C443 C341 1.509 . S
C441 C1 1.512 . S
C454 C355 1.501 . S
C452 C40 1.505 . S
C463 C94 1.505 . S
C465 C381 1.506 . S
C476 C395 1.502 . S
C474 C133 1.504 . S
C487 C340 1.501 . S
C485 C60 1.500 . S
C496 C79 1.511 . S
C498 C354 1.507 . S
C509 C380 1.500 . S
C507 C118 1.500 . S
C520 C394 1.508 . S
C518 C21 1.510 . S
C529 C177 1.506 . S
C531 C339 1.502 . S
C542 C312 1.509 . S
C540 C211 1.510 . S
C551 C255 1.503 . S
C553 C338 1.504 . S
C562 C289 1.514 . S
C564 C313 1.513 . S
C575 C368 1.501 . S
C573 C157 1.502 . S
C586 C382 1.508 . S
C584 C196 1.510 . S
C597 C352 1.505 . S
C595 C250 1.506 . S
C606 C294 1.506 . S
C608 C366 1.503 . S
C619 C369 1.502 . S
C617 C216 1.504 . S
C630 C383 1.504 . S
C628 C235 1.504 . S
C641 C353 1.510 . S
C639 C274 1.510 . S
C650 C172 1.508 . S
C652 C367 1.505 . S
