# Generated by pormake.
# Topology llk, (3,12)-cn, num edge types: 1
# Building blocks:
#     Node 0, Type 0, BuildingBlock: MIDCAF_clean_linker_0, # of connection points: 3
#     Node 1, Type 0, BuildingBlock: MIDCAF_clean_linker_0, # of connection points: 3
#     Node 2, Type 0, BuildingBlock: MIDCAF_clean_linker_0, # of connection points: 3
#     Node 3, Type 0, BuildingBlock: MIDCAF_clean_linker_0, # of connection points: 3
#     Node 4, Type 0, BuildingBlock: MIDCAF_clean_linker_0, # of connection points: 3
#     Node 5, Type 0, BuildingBlock: MIDCAF_clean_linker_0, # of connection points: 3
#     Node 6, Type 0, BuildingBlock: MIDCAF_clean_linker_0, # of connection points: 3
#     Node 7, Type 0, BuildingBlock: MIDCAF_clean_linker_0, # of connection points: 3
#     Node 8, Type 0, BuildingBlock: MIDCAF_clean_linker_0, # of connection points: 3
#     Node 9, Type 0, BuildingBlock: MIDCAF_clean_linker_0, # of connection points: 3
#     Node 10, Type 0, BuildingBlock: MIDCAF_clean_linker_0, # of connection points: 3
#     Node 11, Type 0, BuildingBlock: MIDCAF_clean_linker_0, # of connection points: 3
#     Node 12, Type 0, BuildingBlock: MIDCAF_clean_linker_0, # of connection points: 3
#     Node 13, Type 0, BuildingBlock: MIDCAF_clean_linker_0, # of connection points: 3
#     Node 14, Type 0, BuildingBlock: MIDCAF_clean_linker_0, # of connection points: 3
#     Node 15, Type 0, BuildingBlock: MIDCAF_clean_linker_0, # of connection points: 3
#     Node 16, Type 0, BuildingBlock: MIDCAF_clean_linker_0, # of connection points: 3
#     Node 17, Type 0, BuildingBlock: MIDCAF_clean_linker_0, # of connection points: 3
#     Node 18, Type 0, BuildingBlock: MIDCAF_clean_linker_0, # of connection points: 3
#     Node 19, Type 0, BuildingBlock: MIDCAF_clean_linker_0, # of connection points: 3
#     Node 20, Type 0, BuildingBlock: MIDCAF_clean_linker_0, # of connection points: 3
#     Node 21, Type 0, BuildingBlock: MIDCAF_clean_linker_0, # of connection points: 3
#     Node 22, Type 0, BuildingBlock: MIDCAF_clean_linker_0, # of connection points: 3
#     Node 23, Type 0, BuildingBlock: MIDCAF_clean_linker_0, # of connection points: 3
#     Node 24, Type 1, BuildingBlock: EZIPEK_clean_sbu_0, # of connection points: 12
#     Node 25, Type 1, BuildingBlock: EZIPEK_clean_sbu_0, # of connection points: 12
#     Node 26, Type 1, BuildingBlock: EZIPEK_clean_sbu_0, # of connection points: 12
#     Node 27, Type 1, BuildingBlock: EZIPEK_clean_sbu_0, # of connection points: 12
#     Node 28, Type 1, BuildingBlock: EZIPEK_clean_sbu_0, # of connection points: 12
#     Node 29, Type 1, BuildingBlock: EZIPEK_clean_sbu_0, # of connection points: 12
#     Edge 30, Type (0, 1), BuildingBlock: ZUJKAS_clean_linker_0, # of connection points: 2
#     Edge 31, Type (0, 1), BuildingBlock: ZUJKAS_clean_linker_0, # of connection points: 2
#     Edge 32, Type (0, 1), BuildingBlock: ZUJKAS_clean_linker_0, # of connection points: 2
#     Edge 33, Type (0, 1), BuildingBlock: ZUJKAS_clean_linker_0, # of connection points: 2
#     Edge 34, Type (0, 1), BuildingBlock: ZUJKAS_clean_linker_0, # of connection points: 2
#     Edge 35, Type (0, 1), BuildingBlock: ZUJKAS_clean_linker_0, # of connection points: 2
#     Edge 36, Type (0, 1), BuildingBlock: ZUJKAS_clean_linker_0, # of connection points: 2
#     Edge 37, Type (0, 1), BuildingBlock: ZUJKAS_clean_linker_0, # of connection points: 2
#     Edge 38, Type (0, 1), BuildingBlock: ZUJKAS_clean_linker_0, # of connection points: 2
#     Edge 39, Type (0, 1), BuildingBlock: ZUJKAS_clean_linker_0, # of connection points: 2
#     Edge 40, Type (0, 1), BuildingBlock: ZUJKAS_clean_linker_0, # of connection points: 2
#     Edge 41, Type (0, 1), BuildingBlock: ZUJKAS_clean_linker_0, # of connection points: 2
#     Edge 42, Type (0, 1), BuildingBlock: ZUJKAS_clean_linker_0, # of connection points: 2
#     Edge 43, Type (0, 1), BuildingBlock: ZUJKAS_clean_linker_0, # of connection points: 2
#     Edge 44, Type (0, 1), BuildingBlock: ZUJKAS_clean_linker_0, # of connection points: 2
#     Edge 45, Type (0, 1), BuildingBlock: ZUJKAS_clean_linker_0, # of connection points: 2
#     Edge 46, Type (0, 1), BuildingBlock: ZUJKAS_clean_linker_0, # of connection points: 2
#     Edge 47, Type (0, 1), BuildingBlock: ZUJKAS_clean_linker_0, # of connection points: 2
#     Edge 48, Type (0, 1), BuildingBlock: ZUJKAS_clean_linker_0, # of connection points: 2
#     Edge 49, Type (0, 1), BuildingBlock: ZUJKAS_clean_linker_0, # of connection points: 2
#     Edge 50, Type (0, 1), BuildingBlock: ZUJKAS_clean_linker_0, # of connection points: 2
#     Edge 51, Type (0, 1), BuildingBlock: ZUJKAS_clean_linker_0, # of connection points: 2
#     Edge 52, Type (0, 1), BuildingBlock: ZUJKAS_clean_linker_0, # of connection points: 2
#     Edge 53, Type (0, 1), BuildingBlock: ZUJKAS_clean_linker_0, # of connection points: 2
#     Edge 54, Type (0, 1), BuildingBlock: ZUJKAS_clean_linker_0, # of connection points: 2
#     Edge 55, Type (0, 1), BuildingBlock: ZUJKAS_clean_linker_0, # of connection points: 2
#     Edge 56, Type (0, 1), BuildingBlock: ZUJKAS_clean_linker_0, # of connection points: 2
#     Edge 57, Type (0, 1), BuildingBlock: ZUJKAS_clean_linker_0, # of connection points: 2
#     Edge 58, Type (0, 1), BuildingBlock: ZUJKAS_clean_linker_0, # of connection points: 2
#     Edge 59, Type (0, 1), BuildingBlock: ZUJKAS_clean_linker_0, # of connection points: 2
#     Edge 60, Type (0, 1), BuildingBlock: ZUJKAS_clean_linker_0, # of connection points: 2
#     Edge 61, Type (0, 1), BuildingBlock: ZUJKAS_clean_linker_0, # of connection points: 2
#     Edge 62, Type (0, 1), BuildingBlock: ZUJKAS_clean_linker_0, # of connection points: 2
#     Edge 63, Type (0, 1), BuildingBlock: ZUJKAS_clean_linker_0, # of connection points: 2
#     Edge 64, Type (0, 1), BuildingBlock: ZUJKAS_clean_linker_0, # of connection points: 2
#     Edge 65, Type (0, 1), BuildingBlock: ZUJKAS_clean_linker_0, # of connection points: 2
#     Edge 66, Type (0, 1), BuildingBlock: ZUJKAS_clean_linker_0, # of connection points: 2
#     Edge 67, Type (0, 1), BuildingBlock: ZUJKAS_clean_linker_0, # of connection points: 2
#     Edge 68, Type (0, 1), BuildingBlock: ZUJKAS_clean_linker_0, # of connection points: 2
#     Edge 69, Type (0, 1), BuildingBlock: ZUJKAS_clean_linker_0, # of connection points: 2
#     Edge 70, Type (0, 1), BuildingBlock: ZUJKAS_clean_linker_0, # of connection points: 2
#     Edge 71, Type (0, 1), BuildingBlock: ZUJKAS_clean_linker_0, # of connection points: 2
#     Edge 72, Type (0, 1), BuildingBlock: ZUJKAS_clean_linker_0, # of connection points: 2
#     Edge 73, Type (0, 1), BuildingBlock: ZUJKAS_clean_linker_0, # of connection points: 2
#     Edge 74, Type (0, 1), BuildingBlock: ZUJKAS_clean_linker_0, # of connection points: 2
#     Edge 75, Type (0, 1), BuildingBlock: ZUJKAS_clean_linker_0, # of connection points: 2
#     Edge 76, Type (0, 1), BuildingBlock: ZUJKAS_clean_linker_0, # of connection points: 2
#     Edge 77, Type (0, 1), BuildingBlock: ZUJKAS_clean_linker_0, # of connection points: 2
#     Edge 78, Type (0, 1), BuildingBlock: ZUJKAS_clean_linker_0, # of connection points: 2
#     Edge 79, Type (0, 1), BuildingBlock: ZUJKAS_clean_linker_0, # of connection points: 2
#     Edge 80, Type (0, 1), BuildingBlock: ZUJKAS_clean_linker_0, # of connection points: 2
#     Edge 81, Type (0, 1), BuildingBlock: ZUJKAS_clean_linker_0, # of connection points: 2
#     Edge 82, Type (0, 1), BuildingBlock: ZUJKAS_clean_linker_0, # of connection points: 2
#     Edge 83, Type (0, 1), BuildingBlock: ZUJKAS_clean_linker_0, # of connection points: 2
#     Edge 84, Type (0, 1), BuildingBlock: ZUJKAS_clean_linker_0, # of connection points: 2
#     Edge 85, Type (0, 1), BuildingBlock: ZUJKAS_clean_linker_0, # of connection points: 2
#     Edge 86, Type (0, 1), BuildingBlock: ZUJKAS_clean_linker_0, # of connection points: 2
#     Edge 87, Type (0, 1), BuildingBlock: ZUJKAS_clean_linker_0, # of connection points: 2
#     Edge 88, Type (0, 1), BuildingBlock: ZUJKAS_clean_linker_0, # of connection points: 2
#     Edge 89, Type (0, 1), BuildingBlock: ZUJKAS_clean_linker_0, # of connection points: 2
#     Edge 90, Type (0, 1), BuildingBlock: ZUJKAS_clean_linker_0, # of connection points: 2
#     Edge 91, Type (0, 1), BuildingBlock: ZUJKAS_clean_linker_0, # of connection points: 2
#     Edge 92, Type (0, 1), BuildingBlock: ZUJKAS_clean_linker_0, # of connection points: 2
#     Edge 93, Type (0, 1), BuildingBlock: ZUJKAS_clean_linker_0, # of connection points: 2
#     Edge 94, Type (0, 1), BuildingBlock: ZUJKAS_clean_linker_0, # of connection points: 2
#     Edge 95, Type (0, 1), BuildingBlock: ZUJKAS_clean_linker_0, # of connection points: 2
#     Edge 96, Type (0, 1), BuildingBlock: ZUJKAS_clean_linker_0, # of connection points: 2
#     Edge 97, Type (0, 1), BuildingBlock: ZUJKAS_clean_linker_0, # of connection points: 2
#     Edge 98, Type (0, 1), BuildingBlock: ZUJKAS_clean_linker_0, # of connection points: 2
#     Edge 99, Type (0, 1), BuildingBlock: ZUJKAS_clean_linker_0, # of connection points: 2
#     Edge 100, Type (0, 1), BuildingBlock: ZUJKAS_clean_linker_0, # of connection points: 2
#     Edge 101, Type (0, 1), BuildingBlock: ZUJKAS_clean_linker_0, # of connection points: 2
# Relax obj value: 0.107
# Max RMSD: 0.161
# Mean RMSD: 0.134
data_MOF--net-llk--node1-EZIPEK_clean_sbu_0--node2-MIDCAF_clean_linker_0--edge1-ZUJKAS_clean_linker_0
_symmetry_space_group_name_H-M    P1
_symmetry_Int_Tables_number       1
_symmetry_cell_setting            triclinic
loop_
_symmetry_equiv_pos_as_xyz
'x, y, z'
_cell_length_a     68.672079
_cell_length_b     68.677862
_cell_length_c     68.650173
_cell_angle_alpha  89.990926
_cell_angle_beta   89.986496
_cell_angle_gamma 90.018649
loop_
_atom_site_label
_atom_site_type_symbol
_atom_site_fract_x
_atom_site_fract_y
_atom_site_fract_z
_atom_type_partial_charge
C0 C 0.98152 0.29069 0.19258 0.0
C1 C 0.99942 0.29281 0.18287 0.0
C2 C 0.01519 0.28104 0.18881 0.0
C3 C 0.01334 0.26835 0.2048 0.0
H4 H 0.03411 0.2238 0.27495 0.0
H5 H 0.03872 0.19603 0.29671 0.0
H6 H 0.98208 0.17406 0.28042 0.0
H7 H 0.97779 0.20175 0.25841 0.0
H8 H 0.98556 0.25738 0.30736 0.0
H9 H 0.98147 0.28071 0.33369 0.0
H10 H 0.97653 0.32731 0.29171 0.0
H11 H 0.98025 0.30402 0.26529 0.0
H12 H 0.96613 0.278 0.21653 0.0
H13 H 0.96912 0.2996 0.18864 0.0
H14 H 0.02914 0.28216 0.18155 0.0
H15 H 0.026 0.26041 0.20984 0.0
N16 N 1.00084 0.2406 0.23951 0.0
N17 N 0.99405 0.24672 0.2726 0.0
N18 N 0.98893 0.27116 0.24962 0.0
C19 C 1.00007 0.23438 0.25844 0.0
C20 C 0.98847 0.26511 0.26836 0.0
C21 C 0.99502 0.25917 0.23514 0.0
C22 C 0.00581 0.21465 0.26465 0.0
C23 C 0.02312 0.21248 0.27529 0.0
C24 C 0.02556 0.19676 0.28806 0.0
C25 C 0.01061 0.18296 0.29066 0.0
C26 C 0.99395 0.1843 0.27875 0.0
C27 C 0.99154 0.20006 0.26595 0.0
C28 C 0.98352 0.27885 0.28419 0.0
C29 C 0.98335 0.27256 0.30368 0.0
C30 C 0.98108 0.28592 0.3188 0.0
C31 C 0.97892 0.30585 0.31476 0.0
C32 C 0.97804 0.31202 0.29527 0.0
C33 C 0.98029 0.29865 0.28013 0.0
C34 C 0.99576 0.26739 0.21522 0.0
C35 C 0.97977 0.27826 0.20859 0.0
C36 C 0.71019 0.02089 0.20457 0.0
C37 C 0.71019 0.0081 0.18854 0.0
C38 C 0.72444 0.99334 0.18786 0.0
C39 C 0.7372 0.99045 0.20357 0.0
H40 H 0.79026 0.96224 0.27928 0.0
H41 H 0.81845 0.96704 0.30014 0.0
H42 H 0.81945 0.02803 0.28473 0.0
H43 H 0.79088 0.02305 0.26373 0.0
H44 H 0.74255 0.96626 0.30581 0.0
H45 H 0.71822 0.96009 0.33085 0.0
H46 H 0.67246 0.97233 0.28946 0.0
H47 H 0.69665 0.97819 0.26431 0.0
H48 H 0.72141 0.02702 0.23306 0.0
H49 H 0.69972 0.03264 0.20545 0.0
H50 H 0.72481 0.98313 0.17585 0.0
H51 H 0.74684 0.97796 0.20343 0.0
N52 N 0.76268 0.99701 0.24441 0.0
N53 N 0.75515 0.98163 0.27415 0.0
N54 N 0.73059 0.98699 0.25134 0.0
C55 C 0.76845 0.98997 0.26215 0.0
C56 C 0.73622 0.98013 0.26894 0.0
C57 C 0.74361 0.99519 0.23896 0.0
C58 C 0.78849 0.99223 0.26976 0.0
C59 C 0.79692 0.97654 0.27981 0.0
C60 C 0.8131 0.97932 0.29181 0.0
C61 C 0.82118 0.99797 0.2943 0.0
C62 C 0.81346 0.01351 0.2833 0.0
C63 C 0.79731 0.01063 0.27104 0.0
C64 C 0.72158 0.97311 0.28312 0.0
C65 C 0.7273 0.9673 0.30191 0.0
C66 C 0.71338 0.9638 0.3163 0.0
C67 C 0.69347 0.966 0.31218 0.0
C68 C 0.6877 0.97041 0.29306 0.0
C69 C 0.70161 0.97391 0.27866 0.0
C70 C 0.73605 1.00232 0.22017 0.0
C71 C 0.72286 0.01792 0.22025 0.0
C72 C 0.98404 0.70566 0.2075 0.0
C73 C 0.99286 0.71022 0.18958 0.0
C74 C 0.00315 0.72796 0.18804 0.0
C75 C 0.00552 0.74016 0.20433 0.0
H76 H 0.97425 0.78634 0.27141 0.0
H77 H 0.96926 0.8142 0.29329 0.0
H78 H 0.03132 0.82421 0.29442 0.0
H79 H 0.03616 0.79638 0.27286 0.0
H80 H 0.03327 0.74603 0.30787 0.0
H81 H 0.04095 0.72246 0.33323 0.0
H82 H 0.03454 0.67565 0.2917 0.0
H83 H 0.02722 0.69908 0.26627 0.0
H84 H 0.98072 0.71303 0.23762 0.0
H85 H 0.97623 0.69209 0.20942 0.0
H86 H 0.00997 0.73205 0.17442 0.0
H87 H 0.01456 0.75303 0.20308 0.0
N88 N 1.00223 0.76271 0.24557 0.0
N89 N 0.01856 0.75718 0.27526 0.0
N90 N 0.01424 0.73156 0.25342 0.0
C91 C 0.00922 0.76951 0.26298 0.0
C92 C 0.02113 0.73821 0.27063 0.0
C93 C 0.00503 0.74357 0.24075 0.0
C94 C 0.00556 0.78947 0.27014 0.0
C95 C 0.98668 0.79507 0.27568 0.0
C96 C 0.98389 0.8108 0.28847 0.0
C97 C 0.99991 0.82136 0.29577 0.0
C98 C 0.01864 0.81657 0.28899 0.0
C99 C 0.02143 0.80069 0.27652 0.0
C100 C 0.02922 0.72443 0.28509 0.0
C101 C 0.03388 0.73075 0.30401 0.0
C102 C 0.03823 0.71726 0.31858 0.0
C103 C 0.03807 0.69721 0.31451 0.0
C104 C 0.03488 0.69101 0.29528 0.0
C105 C 0.03052 0.70447 0.28072 0.0
C106 C 0.99775 0.73478 0.22247 0.0
C107 C 0.98656 0.7177 0.22371 0.0
C108 C 0.28181 0.99493 0.188 0.0
C109 C 0.29522 0.01046 0.1884 0.0
C110 C 0.29404 0.02395 0.2038 0.0
C111 C 0.28098 0.02106 0.21919 0.0
H112 H 0.20991 0.96675 0.27282 0.0
H113 H 0.18178 0.97148 0.29401 0.0
H114 H 0.18924 0.03378 0.28988 0.0
H115 H 0.21741 0.02889 0.26834 0.0
H116 H 0.25991 0.96712 0.30425 0.0
H117 H 0.2836 0.95945 0.3295 0.0
H118 H 0.33034 0.97452 0.2901 0.0
H119 H 0.30683 0.98163 0.26477 0.0
H120 H 0.25973 0.97911 0.20358 0.0
H121 H 0.28237 0.98414 0.17652 0.0
H122 H 0.30388 0.03626 0.20444 0.0
H123 H 0.2815 0.03081 0.2316 0.0
N124 N 0.2417 1.00091 0.24358 0.0
N125 N 0.2483 0.98532 0.27343 0.0
N126 N 0.27321 0.98938 0.25068 0.0
C127 C 0.23551 0.99422 0.2613 0.0
C128 C 0.26718 0.98292 0.2683 0.0
C129 C 0.26067 0.99813 0.23821 0.0
C130 C 0.21558 0.99746 0.26869 0.0
C131 C 0.20501 0.98146 0.27578 0.0
C132 C 0.18895 0.98419 0.288 0.0
C133 C 0.18334 0.00301 0.29378 0.0
C134 C 0.19328 0.01909 0.28579 0.0
C135 C 0.2092 0.01633 0.27324 0.0
C136 C 0.28143 0.97531 0.28256 0.0
C137 C 0.27525 0.96847 0.30085 0.0
C138 C 0.28882 0.96414 0.31536 0.0
C139 C 0.30884 0.96663 0.31191 0.0
C140 C 0.31504 0.97227 0.29323 0.0
C141 C 0.3015 0.97649 0.2787 0.0
C142 C 0.2686 0.00481 0.21942 0.0
C143 C 0.2687 0.99209 0.20343 0.0
C144 C 0.00818 0.72909 0.82285 0.0
C145 C 0.99242 0.71595 0.82376 0.0
C146 C 0.97742 0.71782 0.80991 0.0
C147 C 0.97903 0.73111 0.79454 0.0
H148 H 0.97483 0.80009 0.74858 0.0
H149 H 0.97203 0.82872 0.72729 0.0
H150 H 0.03284 0.82311 0.71214 0.0
H151 H 0.03548 0.7949 0.73336 0.0
H152 H 0.02573 0.74778 0.70486 0.0
H153 H 0.03042 0.72335 0.67959 0.0
H154 H 0.01089 0.67857 0.7193 0.0
H155 H 0.00669 0.70279 0.74469 0.0
H156 H 0.02288 0.75108 0.80606 0.0
H157 H 0.02007 0.72804 0.83315 0.0
H158 H 0.96489 0.70825 0.81034 0.0
H159 H 0.96808 0.73096 0.78317 0.0
N160 N 1.00049 0.76973 0.7683 0.0
N161 N 0.01126 0.76131 0.7368 0.0
N162 N 0.00586 0.73692 0.75978 0.0
C163 C 0.00593 0.77513 0.74987 0.0
C164 C 0.01119 0.74221 0.74158 0.0
C165 C 1.00069 0.75041 0.77323 0.0
C166 C 0.00544 0.79547 0.74282 0.0
C167 C 0.98774 0.80558 0.74134 0.0
C168 C 0.98609 0.82176 0.72887 0.0
C169 C 1.00216 0.82816 0.71776 0.0
C170 C 0.02018 0.81883 0.72052 0.0
C171 C 0.02175 0.80265 0.73277 0.0
C172 C 0.01568 0.72727 0.72676 0.0
C173 C 0.02262 0.73269 0.70827 0.0
C174 C 0.02524 0.71872 0.69376 0.0
C175 C 0.02091 0.69906 0.6974 0.0
C176 C 0.01461 0.69356 0.71609 0.0
C177 C 0.01208 0.7075 0.73062 0.0
C178 C 0.99551 0.74308 0.79276 0.0
C179 C 0.00973 0.74247 0.80744 0.0
C180 C 0.18931 0.98666 0.71968 0.0
C181 C 0.18464 0.00544 0.713 0.0
C182 C 0.19539 0.02136 0.72023 0.0
C183 C 0.21118 0.0184 0.73291 0.0
H184 H 0.25281 0.98991 0.80612 0.0
H185 H 0.27384 0.99485 0.83467 0.0
H186 H 0.31317 0.02909 0.79941 0.0
H187 H 0.29214 0.02428 0.77134 0.0
H188 H 0.30345 0.96741 0.74655 0.0
H189 H 0.32843 0.95865 0.72295 0.0
H190 H 0.28829 0.97098 0.67603 0.0
H191 H 0.26317 0.97895 0.69956 0.0
H192 H 0.20941 0.96893 0.73568 0.0
H193 H 0.1815 0.97406 0.71429 0.0
H194 H 0.19209 0.03602 0.71545 0.0
H195 H 0.22002 0.03074 0.73719 0.0
N196 N 0.24311 0.00267 0.76321 0.0
N197 N 0.27405 0.98967 0.75617 0.0
N198 N 0.24876 0.98581 0.73383 0.0
C199 C 0.26206 0.99943 0.76844 0.0
C200 C 0.26755 0.98276 0.73891 0.0
C201 C 0.23645 0.9956 0.74579 0.0
C202 C 0.27072 0.00698 0.78664 0.0
C203 C 0.26553 0.99915 0.8048 0.0
C204 C 0.27777 1.00172 0.82103 0.0
C205 C 0.29537 0.01223 0.81937 0.0
C206 C 0.29971 0.02112 0.80143 0.0
C207 C 0.28761 0.01842 0.78529 0.0
C208 C 0.28144 0.97418 0.72491 0.0
C209 C 0.29985 0.96786 0.73119 0.0
C210 C 0.3142 0.96293 0.71767 0.0
C211 C 0.3105 0.96445 0.69758 0.0
C212 C 0.29164 0.96947 0.69136 0.0
C213 C 0.27722 0.97416 0.70489 0.0
C214 C 0.21662 0.99946 0.73838 0.0
C215 C 0.20524 0.9837 0.73203 0.0
C216 C 0.99052 0.28565 0.81981 0.0
C217 C 0.00901 0.29355 0.82374 0.0
C218 C 0.025 0.28705 0.81265 0.0
C219 C 0.02232 0.27396 0.79717 0.0
H220 H 0.0354 0.22404 0.733 0.0
H221 H 0.04006 0.19693 0.71029 0.0
H222 H 0.98148 0.17725 0.72211 0.0
H223 H 0.97709 0.20425 0.74486 0.0
H224 H 0.97966 0.25971 0.70276 0.0
H225 H 0.97359 0.28403 0.67772 0.0
H226 H 0.97486 0.32934 0.72134 0.0
H227 H 0.98057 0.30509 0.74648 0.0
H228 H 0.97319 0.26823 0.80052 0.0
H229 H 0.97785 0.29047 0.82788 0.0
H230 H 0.03945 0.29274 0.8154 0.0
H231 H 0.03462 0.2703 0.78799 0.0
N232 N 0.00479 0.24117 0.76713 0.0
N233 N 0.99266 0.24793 0.73576 0.0
N234 N 0.99134 0.27188 0.75981 0.0
C235 C 1.00094 0.23533 0.74849 0.0
C236 C 0.98787 0.26623 0.74124 0.0
C237 C 0.99965 0.25955 0.77281 0.0
C238 C 0.00607 0.2159 0.74102 0.0
C239 C 0.02392 0.21333 0.7314 0.0
C240 C 0.02642 0.19801 0.71813 0.0
C241 C 0.01105 0.18502 0.71414 0.0
C242 C 0.9937 0.18682 0.72492 0.0
C243 C 0.9912 0.20219 0.7381 0.0
C244 C 0.98096 0.28047 0.72662 0.0
C245 C 0.97832 0.27481 0.70711 0.0
C246 C 0.9749 0.28874 0.69272 0.0
C247 C 0.97404 0.30859 0.69754 0.0
C248 C 0.97534 0.31413 0.71719 0.0
C249 C 0.97875 0.30021 0.73159 0.0
C250 C 0.00361 0.26723 0.79247 0.0
C251 C 0.98784 0.2728 0.80421 0.0
C252 C 0.82063 0.0131 0.72834 0.0
C253 C 0.82475 0.99683 0.71651 0.0
C254 C 0.81417 0.97958 0.71967 0.0
C255 C 0.79868 0.97915 0.73287 0.0
H256 H 0.73378 0.03588 0.7887 0.0
H257 H 0.71122 0.03833 0.81608 0.0
H258 H 0.72502 0.97925 0.83259 0.0
H259 H 0.74789 0.97709 0.80528 0.0
H260 H 0.70057 0.99947 0.74812 0.0
H261 H 0.6752 0.99827 0.72343 0.0
H262 H 0.71873 0.98895 0.67896 0.0
H263 H 0.74415 0.98977 0.70359 0.0
H264 H 0.80103 0.02587 0.74924 0.0
H265 H 0.82845 0.02664 0.72627 0.0
H266 H 0.81719 0.96666 0.71114 0.0
H267 H 0.78981 0.96613 0.73374 0.0
N268 N 0.7687 1.00121 0.76981 0.0
N269 N 0.73542 1.00044 0.76141 0.0
N270 N 0.75887 0.99494 0.73752 0.0
C271 C 0.74951 0.00266 0.77505 0.0
C272 C 0.73994 0.99656 0.74265 0.0
C273 C 0.77329 0.99726 0.75079 0.0
C274 C 0.7429 0.00646 0.79514 0.0
C275 C 0.73271 0.02379 0.7988 0.0
C276 C 0.71949 0.02503 0.81426 0.0
C277 C 0.71594 0.00885 0.82633 0.0
C278 C 0.72741 0.99204 0.82367 0.0
C279 C 0.7407 0.99083 0.80815 0.0
C280 C 0.72444 0.99483 0.72784 0.0
C281 C 0.70477 0.99704 0.73311 0.0
C282 C 0.69022 0.99645 0.71897 0.0
C283 C 0.69501 0.99362 0.69929 0.0
C284 C 0.7146 0.99096 0.69406 0.0
C285 C 0.72917 0.99155 0.70819 0.0
C286 C 0.79347 0.99586 0.74344 0.0
C287 C 0.80506 0.01263 0.74167 0.0
C288 C 0.19899 0.29251 0.0247 0.0
C289 C 0.18422 0.29433 0.01059 0.0
C290 C 0.18436 0.28137 0.99467 0.0
C291 C 0.19982 0.26824 0.99204 0.0
H292 H 0.27488 0.21678 0.96327 0.0
H293 H 0.29716 0.18935 0.96597 0.0
H294 H 0.28367 0.1844 0.0272 0.0
H295 H 0.26098 0.21197 0.02431 0.0
H296 H 0.30057 0.26431 0.96817 0.0
H297 H 0.3253 0.289 0.96224 0.0
H298 H 0.28608 0.33336 0.98354 0.0
H299 H 0.2612 0.30887 0.98899 0.0
H300 H 0.22644 0.27965 0.03225 0.0
H301 H 0.19921 0.30195 0.03734 0.0
H302 H 0.17335 0.28239 0.98343 0.0
H303 H 0.2005 0.25979 0.97872 0.0
N304 N 0.2402 0.24159 0.99951 0.0
N305 N 0.27034 0.25048 0.98572 0.0
N306 N 0.24706 0.27436 0.99189 0.0
C307 C 0.25828 0.23651 0.99275 0.0
C308 C 0.26493 0.2694 0.98531 0.0
C309 C 0.23458 0.26071 0.99878 0.0
C310 C 0.2661 0.21644 0.99355 0.0
C311 C 0.27612 0.20938 0.97716 0.0
C312 C 0.28911 0.19383 0.97878 0.0
C313 C 0.2926 0.18497 0.9969 0.0
C314 C 0.28134 0.19092 0.01303 0.0
C315 C 0.2682 0.20658 0.01136 0.0
C316 C 0.27898 0.28456 0.97931 0.0
C317 C 0.29711 0.27937 0.97133 0.0
C318 C 0.31132 0.2935 0.96799 0.0
C319 C 0.30773 0.3131 0.97262 0.0
C320 C 0.28926 0.31842 0.97962 0.0
C321 C 0.27501 0.30432 0.98287 0.0
C322 C 0.21533 0.26767 0.00534 0.0
C323 C 0.21441 0.27944 0.02203 0.0
C324 C 0.18627 0.72786 0.01281 0.0
C325 C 0.18154 0.716 0.99671 0.0
C326 C 0.19161 0.71898 0.97913 0.0
C327 C 0.20715 0.73206 0.97815 0.0
H328 H 0.2729 0.78614 0.03476 0.0
H329 H 0.2951 0.81363 0.0388 0.0
H330 H 0.27962 0.83436 0.98146 0.0
H331 H 0.25714 0.80693 0.97774 0.0
H332 H 0.3058 0.74965 0.99223 0.0
H333 H 0.33151 0.72544 0.98948 0.0
H334 H 0.28841 0.68065 0.97979 0.0
H335 H 0.26266 0.70481 0.98216 0.0
H336 H 0.20635 0.74877 0.02483 0.0
H337 H 0.17882 0.72593 0.02658 0.0
H338 H 0.18809 0.71046 0.96633 0.0
H339 H 0.21554 0.73288 0.9648 0.0
N340 N 0.23748 0.76917 1.00045 0.0
N341 N 0.27079 0.76191 0.99643 0.0
N342 N 0.24756 0.7379 0.99054 0.0
C343 C 0.25659 0.77485 1.00089 0.0
C344 C 0.26643 0.74343 0.99124 0.0
C345 C 0.23303 0.75048 0.99508 0.0
C346 C 0.26297 0.79467 0.00613 0.0
C347 C 0.27352 0.79715 0.02347 0.0
C348 C 0.28653 0.8127 0.02559 0.0
C349 C 0.2895 0.82603 0.01029 0.0
C350 C 0.27768 0.82446 0.99359 0.0
C351 C 0.2646 0.80887 0.9915 0.0
C352 C 0.28212 0.72916 0.98763 0.0
C353 C 0.30177 0.73469 0.98929 0.0
C354 C 0.31652 0.72082 0.9878 0.0
C355 C 0.31194 0.70115 0.9846 0.0
C356 C 0.29238 0.69574 0.98211 0.0
C357 C 0.27762 0.70959 0.98359 0.0
C358 C 0.21296 0.74269 0.99464 0.0
C359 C 0.2019 0.74109 0.01178 0.0
C360 C 0.82003 0.27982 0.01167 0.0
C361 C 0.82519 0.2908 0.99509 0.0
C362 C 0.81559 0.28688 0.97743 0.0
C363 C 0.8 0.27381 0.97677 0.0
H364 H 0.73133 0.22221 0.03299 0.0
H365 H 0.70884 0.19487 0.03628 0.0
H366 H 0.72575 0.17432 0.97928 0.0
H367 H 0.74856 0.20161 0.97631 0.0
H368 H 0.70067 0.26089 0.99217 0.0
H369 H 0.67591 0.28617 0.99032 0.0
H370 H 0.72069 0.32962 0.98235 0.0
H371 H 0.74555 0.30448 0.98442 0.0
H372 H 0.7995 0.25976 0.02432 0.0
H373 H 0.82708 0.2825 0.02551 0.0
H374 H 0.81943 0.29474 0.9643 0.0
H375 H 0.79186 0.27238 0.96332 0.0
N376 N 0.76833 0.23842 0.99908 0.0
N377 N 0.73525 0.24719 0.99622 0.0
N378 N 0.75933 0.27042 0.9906 0.0
C379 C 0.74901 0.23351 0.99985 0.0
C380 C 0.74026 0.26565 0.99156 0.0
C381 C 0.77341 0.25711 0.99431 0.0
C382 C 0.74197 0.21377 0.00459 0.0
C383 C 0.73091 0.21129 0.0216 0.0
C384 C 0.71775 0.19582 0.0233 0.0
C385 C 0.71513 0.18259 0.00787 0.0
C386 C 0.72741 0.18416 0.99149 0.0
C387 C 0.74066 0.19968 0.98984 0.0
C388 C 0.72513 0.28066 0.98865 0.0
C389 C 0.70527 0.2758 0.98985 0.0
C390 C 0.69106 0.29025 0.98868 0.0
C391 C 0.69641 0.30984 0.98632 0.0
C392 C 0.71619 0.31464 0.98444 0.0
C393 C 0.73041 0.3002 0.98555 0.0
C394 C 0.79373 0.26414 0.99367 0.0
C395 C 0.80437 0.26663 0.01097 0.0
C396 C 0.71539 0.81465 0.98013 0.0
C397 C 0.71287 0.82342 0.99847 0.0
C398 C 0.72425 0.81664 0.01418 0.0
C399 C 0.73695 0.80073 0.01181 0.0
H400 H 0.78045 0.73043 0.03079 0.0
H401 H 0.80792 0.70837 0.03583 0.0
H402 H 0.83156 0.72538 0.98005 0.0
H403 H 0.80418 0.74766 0.97535 0.0
H404 H 0.7481 0.6997 0.97912 0.0
H405 H 0.72448 0.67367 0.97471 0.0
H406 H 0.67817 0.7161 0.97152 0.0
H407 H 0.70172 0.7422 0.97554 0.0
H408 H 0.72839 0.7915 0.96383 0.0
H409 H 0.70678 0.81924 0.96774 0.0
H410 H 0.72282 0.82317 0.02846 0.0
H411 H 0.74458 0.79503 0.02438 0.0
N412 N 0.76483 0.76659 0.99834 0.0
N413 N 0.75877 0.73394 0.98969 0.0
N414 N 0.7346 0.75729 0.98503 0.0
C415 C 0.771 0.74771 0.99677 0.0
C416 C 0.74056 0.73856 0.98381 0.0
C417 C 0.74648 0.77136 0.99218 0.0
C418 C 0.79047 0.74109 0.00292 0.0
C419 C 0.79207 0.73015 0.02011 0.0
C420 C 0.80761 0.71723 0.02278 0.0
C421 C 0.82182 0.71478 0.00818 0.0
C422 C 0.82101 0.72694 0.99167 0.0
C423 C 0.80542 0.73988 0.98902 0.0
C424 C 0.72678 0.72305 0.97804 0.0
C425 C 0.73293 0.70355 0.97716 0.0
C426 C 0.7194 0.6886 0.97469 0.0
C427 C 0.69947 0.69283 0.97306 0.0
C428 C 0.69346 0.71238 0.97263 0.0
C429 C 0.70698 0.72735 0.97507 0.0
C430 C 0.7383 0.79124 0.99375 0.0
C431 C 0.72783 0.79872 0.97786 0.0
C432 C 0.52049 0.7993 0.70544 0.0
C433 C 0.51042 0.79561 0.68799 0.0
C434 C 0.49894 0.7786 0.68676 0.0
C435 C 0.49656 0.76639 0.70303 0.0
H436 H 0.46529 0.71142 0.77001 0.0
H437 H 0.46792 0.68359 0.79192 0.0
H438 H 0.53021 0.69203 0.79489 0.0
H439 H 0.52744 0.71951 0.7723 0.0
H440 H 0.47817 0.76448 0.80854 0.0
H441 H 0.47081 0.78954 0.83236 0.0
H442 H 0.46214 0.83119 0.78595 0.0
H443 H 0.4702 0.80625 0.76208 0.0
H444 H 0.52477 0.79132 0.73528 0.0
H445 H 0.52925 0.8123 0.70711 0.0
H446 H 0.49115 0.77518 0.67348 0.0
H447 H 0.48655 0.75422 0.70213 0.0
N448 N 0.50046 0.74368 0.74437 0.0
N449 N 0.4849 0.75028 0.77427 0.0
N450 N 0.48962 0.77534 0.75185 0.0
C451 C 0.49357 0.73744 0.76201 0.0
C452 C 0.48285 0.76922 0.7693 0.0
C453 C 0.49827 0.76282 0.73929 0.0
C454 C 0.49619 0.71737 0.76922 0.0
C455 C 0.47962 0.70674 0.77468 0.0
C456 C 0.48112 0.69103 0.78755 0.0
C457 C 0.49922 0.6858 0.79563 0.0
C458 C 0.51603 0.69554 0.78896 0.0
C459 C 0.51451 0.7112 0.77587 0.0
C460 C 0.47512 0.78346 0.78344 0.0
C461 C 0.47436 0.77889 0.80337 0.0
C462 C 0.47001 0.79326 0.81705 0.0
C463 C 0.46612 0.81245 0.81107 0.0
C464 C 0.46551 0.81665 0.79104 0.0
C465 C 0.47006 0.80234 0.77737 0.0
C466 C 0.50555 0.77102 0.72078 0.0
C467 C 0.51799 0.78722 0.72162 0.0
C468 C 0.22105 0.51837 0.69343 0.0
C469 C 0.21411 0.50118 0.68459 0.0
C470 C 0.22219 0.48328 0.6905 0.0
C471 C 0.23532 0.48242 0.70605 0.0
H472 H 0.28084 0.53537 0.77935 0.0
H473 H 0.30806 0.5399 0.80183 0.0
H474 H 0.33212 0.48476 0.78347 0.0
H475 H 0.305 0.48061 0.76071 0.0
H476 H 0.24447 0.49122 0.80811 0.0
H477 H 0.21933 0.48564 0.83229 0.0
H478 H 0.17918 0.46877 0.78686 0.0
H479 H 0.2042 0.47487 0.76248 0.0
H480 H 0.2381 0.53074 0.71661 0.0
H481 H 0.21512 0.5324 0.68939 0.0
H482 H 0.21759 0.46978 0.68377 0.0
H483 H 0.23996 0.46829 0.71133 0.0
N484 N 0.26655 0.5035 0.74147 0.0
N485 N 0.25883 0.49533 0.77391 0.0
N486 N 0.23566 0.49084 0.74949 0.0
C487 C 0.27181 0.50205 0.76064 0.0
C488 C 0.24076 0.48966 0.76848 0.0
C489 C 0.24831 0.49769 0.73595 0.0
C490 C 0.2911 0.50788 0.768 0.0
C491 C 0.29248 0.52472 0.77948 0.0
C492 C 0.30789 0.5271 0.79262 0.0
C493 C 0.32213 0.51252 0.79478 0.0
C494 C 0.32152 0.49635 0.78215 0.0
C495 C 0.30609 0.49402 0.76895 0.0
C496 C 0.22629 0.48377 0.7833 0.0
C497 C 0.23038 0.48607 0.80323 0.0
C498 C 0.21598 0.48274 0.81716 0.0
C499 C 0.19721 0.4769 0.81148 0.0
C500 C 0.19341 0.4736 0.79165 0.0
C501 C 0.20779 0.47703 0.77769 0.0
C502 C 0.24103 0.49942 0.71582 0.0
C503 C 0.23437 0.51747 0.70894 0.0
C504 C 0.5146 0.22141 0.69444 0.0
C505 C 0.49759 0.21462 0.68513 0.0
C506 C 0.47958 0.22254 0.69091 0.0
C507 C 0.4784 0.23532 0.70673 0.0
H508 H 0.48697 0.30689 0.75462 0.0
H509 H 0.4913 0.33543 0.77579 0.0
H510 H 0.52863 0.30153 0.81342 0.0
H511 H 0.52443 0.27349 0.79225 0.0
H512 H 0.48421 0.2413 0.80899 0.0
H513 H 0.47723 0.21543 0.83193 0.0
H514 H 0.45962 0.17794 0.78453 0.0
H515 H 0.46717 0.20373 0.76136 0.0
H516 H 0.52652 0.23799 0.71821 0.0
H517 H 0.52873 0.21562 0.69052 0.0
H518 H 0.46621 0.2181 0.68383 0.0
H519 H 0.46417 0.2398 0.71186 0.0
N520 N 0.49998 0.26515 0.74378 0.0
N521 N 0.49059 0.2565 0.77563 0.0
N522 N 0.48499 0.2349 0.75006 0.0
C523 C 0.49851 0.26961 0.76316 0.0
C524 C 0.48371 0.2392 0.76924 0.0
C525 C 0.49306 0.24761 0.73727 0.0
C526 C 0.50559 0.28809 0.77166 0.0
C527 C 0.49674 0.30591 0.76696 0.0
C528 C 0.49897 0.32211 0.7793 0.0
C529 C 0.51017 0.3208 0.7965 0.0
C530 C 0.52008 0.30328 0.80028 0.0
C531 C 0.51773 0.28716 0.7881 0.0
C532 C 0.47658 0.2245 0.78328 0.0
C533 C 0.47857 0.22767 0.8034 0.0
C534 C 0.4744 0.21284 0.81662 0.0
C535 C 0.46802 0.19455 0.81004 0.0
C536 C 0.46485 0.19177 0.79001 0.0
C537 C 0.46913 0.20658 0.77675 0.0
C538 C 0.4952 0.24086 0.71696 0.0
C539 C 0.5134 0.2344 0.71022 0.0
C540 C 0.7854 0.4888 0.69073 0.0
C541 C 0.79226 0.50753 0.6861 0.0
C542 C 0.78521 0.52349 0.69692 0.0
C543 C 0.77259 0.52059 0.71277 0.0
H544 H 0.70005 0.49128 0.75553 0.0
H545 H 0.67174 0.49586 0.77696 0.0
H546 H 0.70693 0.53111 0.81544 0.0
H547 H 0.73477 0.52663 0.79401 0.0
H548 H 0.76089 0.4711 0.8058 0.0
H549 H 0.78515 0.46263 0.83022 0.0
H550 H 0.83093 0.47344 0.78835 0.0
H551 H 0.80672 0.4812 0.7638 0.0
H552 H 0.76935 0.47116 0.71089 0.0
H553 H 0.79065 0.47618 0.68287 0.0
H554 H 0.79012 0.53811 0.69364 0.0
H555 H 0.7685 0.53295 0.72168 0.0
N556 N 0.74252 0.5047 0.74503 0.0
N557 N 0.75028 0.49212 0.77599 0.0
N558 N 0.77224 0.48837 0.75035 0.0
C559 C 0.73766 0.50156 0.76411 0.0
C560 C 0.76753 0.48543 0.76926 0.0
C561 C 0.75993 0.49785 0.73815 0.0
C562 C 0.71947 0.50885 0.77299 0.0
C563 C 0.70139 0.50065 0.76815 0.0
C564 C 0.68531 0.50303 0.78062 0.0
C565 C 0.68704 0.51371 0.7981 0.0
C566 C 0.70487 0.52298 0.80208 0.0
C567 C 0.72087 0.52047 0.78976 0.0
C568 C 0.78189 0.47713 0.78296 0.0
C569 C 0.77612 0.47131 0.80171 0.0
C570 C 0.79003 0.46653 0.81574 0.0
C571 C 0.80999 0.46769 0.81136 0.0
C572 C 0.81568 0.47223 0.79221 0.0
C573 C 0.80177 0.4768 0.77813 0.0
C574 C 0.76699 0.50169 0.7182 0.0
C575 C 0.77309 0.48591 0.70671 0.0
C576 C 0.49293 0.22609 0.31978 0.0
C577 C 0.50929 0.21518 0.32565 0.0
C578 C 0.52735 0.2192 0.31689 0.0
C579 C 0.52868 0.23231 0.3014 0.0
H580 H 0.52886 0.30569 0.24947 0.0
H581 H 0.52471 0.33295 0.22688 0.0
H582 H 0.46876 0.30991 0.20967 0.0
H583 H 0.47329 0.28254 0.23193 0.0
H584 H 0.51805 0.24634 0.20151 0.0
H585 H 0.52168 0.2212 0.1768 0.0
H586 H 0.53236 0.17847 0.2217 0.0
H587 H 0.52851 0.20345 0.24651 0.0
H588 H 0.48117 0.24619 0.29877 0.0
H589 H 0.47879 0.22332 0.32621 0.0
H590 H 0.54032 0.21139 0.32132 0.0
H591 H 0.5425 0.23386 0.29393 0.0
N592 N 0.50664 0.26759 0.26898 0.0
N593 N 0.51245 0.25969 0.23605 0.0
N594 N 0.51808 0.23648 0.26016 0.0
C595 C 0.5069 0.2728 0.24973 0.0
C596 C 0.51807 0.24152 0.24113 0.0
C597 C 0.51244 0.24924 0.27413 0.0
C598 C 0.50121 0.29227 0.24272 0.0
C599 C 0.51529 0.30704 0.24154 0.0
C600 C 0.51295 0.32256 0.22843 0.0
C601 C 0.49654 0.32348 0.21613 0.0
C602 C 0.48175 0.30949 0.21859 0.0
C603 C 0.48414 0.294 0.23163 0.0
C604 C 0.5227 0.22688 0.22603 0.0
C605 C 0.52141 0.23165 0.20615 0.0
C606 C 0.52361 0.21727 0.19196 0.0
C607 C 0.52712 0.19787 0.19736 0.0
C608 C 0.52936 0.19327 0.21716 0.0
C609 C 0.52721 0.20763 0.23135 0.0
C610 C 0.51205 0.24189 0.29436 0.0
C611 C 0.49429 0.23934 0.3042 0.0
C612 C 0.68526 0.4944 0.2293 0.0
C613 C 0.68035 0.51092 0.21815 0.0
C614 C 0.6902 0.52848 0.22187 0.0
C615 C 0.70582 0.52905 0.23489 0.0
H616 H 0.77534 0.47204 0.28548 0.0
H617 H 0.79765 0.46872 0.31294 0.0
H618 H 0.77907 0.52476 0.33463 0.0
H619 H 0.75638 0.5277 0.30725 0.0
H620 H 0.80433 0.50588 0.24521 0.0
H621 H 0.82849 0.5084 0.21947 0.0
H622 H 0.7847 0.53121 0.18044 0.0
H623 H 0.76036 0.52825 0.20602 0.0
H624 H 0.70565 0.48166 0.24942 0.0
H625 H 0.678 0.48063 0.22677 0.0
H626 H 0.68654 0.54157 0.21387 0.0
H627 H 0.71416 0.54239 0.23615 0.0
N628 N 0.73742 0.50609 0.27011 0.0
N629 N 0.77045 0.50847 0.26104 0.0
N630 N 0.74627 0.51503 0.23817 0.0
C631 C 0.75676 0.50488 0.27481 0.0
C632 C 0.76535 0.51361 0.24273 0.0
C633 C 0.73225 0.51127 0.25156 0.0
C634 C 0.76387 0.49994 0.29447 0.0
C635 C 0.77537 0.48319 0.29665 0.0
C636 C 0.78843 0.48149 0.31219 0.0
C637 C 0.79053 0.49667 0.32581 0.0
C638 C 0.77782 0.51274 0.3245 0.0
C639 C 0.76465 0.51437 0.30893 0.0
C640 C 0.78036 0.5167 0.22764 0.0
C641 C 0.79986 0.5116 0.23121 0.0
C642 C 0.81375 0.51314 0.21648 0.0
C643 C 0.80847 0.51992 0.1979 0.0
C644 C 0.78913 0.52563 0.19452 0.0
C645 C 0.77521 0.524 0.20922 0.0
C646 C 0.71189 0.51216 0.24469 0.0
C647 C 0.70097 0.49501 0.24244 0.0
C648 C 0.48604 0.80083 0.3019 0.0
C649 C 0.49452 0.79612 0.31993 0.0
C650 C 0.50487 0.77843 0.32152 0.0
C651 C 0.50771 0.76646 0.30514 0.0
H652 H 0.48096 0.71562 0.24492 0.0
H653 H 0.47624 0.68675 0.2243 0.0
H654 H 0.53773 0.68662 0.21091 0.0
H655 H 0.54226 0.71503 0.23146 0.0
H656 H 0.53805 0.76196 0.20227 0.0
H657 H 0.5454 0.78554 0.17681 0.0
H658 H 0.53505 0.83253 0.21733 0.0
H659 H 0.52802 0.8091 0.24287 0.0
H660 H 0.48345 0.79382 0.27164 0.0
H661 H 0.47819 0.81436 0.29996 0.0
H662 H 0.51142 0.77424 0.33524 0.0
H663 H 0.51682 0.75366 0.30643 0.0
N664 N 0.5066 0.74428 0.26407 0.0
N665 N 0.52301 0.75048 0.23456 0.0
N666 N 0.51684 0.77602 0.25601 0.0
C667 C 0.51422 0.73773 0.24684 0.0
C668 C 0.52438 0.76961 0.23899 0.0
C669 C 0.50816 0.7636 0.26869 0.0
C670 C 0.512 0.71744 0.23991 0.0
C671 C 0.49352 0.70886 0.23819 0.0
C672 C 0.4908 0.69253 0.22611 0.0
C673 C 0.50657 0.68442 0.21572 0.0
C674 C 0.52525 0.69224 0.21875 0.0
C675 C 0.52789 0.70856 0.23059 0.0
C676 C 0.53206 0.78363 0.22454 0.0
C677 C 0.5377 0.77731 0.20589 0.0
C678 C 0.54187 0.7908 0.19127 0.0
C679 C 0.54054 0.81086 0.19502 0.0
C680 C 0.53631 0.81716 0.21401 0.0
C681 C 0.53212 0.80369 0.22863 0.0
C682 C 0.50037 0.77206 0.2869 0.0
C683 C 0.48903 0.78902 0.28561 0.0
C684 C 0.31157 0.52521 0.21896 0.0
C685 C 0.32569 0.51038 0.21938 0.0
C686 C 0.32391 0.49571 0.2337 0.0
C687 C 0.30765 0.49511 0.24617 0.0
H688 H 0.24728 0.52666 0.3041 0.0
H689 H 0.22441 0.52627 0.33156 0.0
H690 H 0.2116 0.46585 0.3198 0.0
H691 H 0.23412 0.46648 0.29233 0.0
H692 H 0.20137 0.49228 0.24797 0.0
H693 H 0.17613 0.49158 0.22312 0.0
H694 H 0.21932 0.50282 0.17876 0.0
H695 H 0.24458 0.50389 0.20354 0.0
H696 H 0.28406 0.53537 0.22948 0.0
H697 H 0.31216 0.53663 0.2081 0.0
H698 H 0.33462 0.48419 0.23469 0.0
H699 H 0.30587 0.48284 0.25592 0.0
N700 N 0.26836 0.50267 0.27094 0.0
N701 N 0.23572 0.49702 0.2619 0.0
N702 N 0.25885 0.5036 0.23797 0.0
C703 C 0.24947 0.49862 0.27597 0.0
C704 C 0.24025 0.49951 0.24291 0.0
C705 C 0.27298 0.5051 0.25167 0.0
C706 C 0.2427 0.49652 0.29629 0.0
C707 C 0.2403 0.51308 0.30805 0.0
C708 C 0.22701 0.51288 0.32365 0.0
C709 C 0.21581 0.49613 0.32764 0.0
C710 C 0.21964 0.47911 0.31691 0.0
C711 C 0.23282 0.47935 0.30138 0.0
C712 C 0.22501 0.49825 0.22778 0.0
C713 C 0.20554 0.49455 0.23293 0.0
C714 C 0.19107 0.49403 0.21869 0.0
C715 C 0.19577 0.49721 0.19904 0.0
C716 C 0.21525 0.5006 0.19384 0.0
C717 C 0.22973 0.50111 0.20806 0.0
C718 C 0.2929 0.50916 0.24454 0.0
C719 C 0.29541 0.52456 0.23131 0.0
C720 C 0.69612 0.79111 0.51968 0.0
C721 C 0.68422 0.79484 0.50338 0.0
C722 C 0.68746 0.78399 0.48627 0.0
C723 C 0.70317 0.77104 0.48496 0.0
H724 H 0.76615 0.70782 0.4713 0.0
H725 H 0.78835 0.68033 0.47566 0.0
H726 H 0.79548 0.69585 0.5362 0.0
H727 H 0.77321 0.72337 0.53165 0.0
H728 H 0.80483 0.76248 0.47393 0.0
H729 H 0.82963 0.78694 0.46728 0.0
H730 H 0.78738 0.83246 0.47739 0.0
H731 H 0.76251 0.80814 0.48344 0.0
H732 H 0.72177 0.77685 0.53053 0.0
H733 H 0.69421 0.79928 0.53303 0.0
H734 H 0.67843 0.78621 0.47354 0.0
H735 H 0.70625 0.76413 0.47111 0.0
N736 N 0.74135 0.74252 0.50097 0.0
N737 N 0.77282 0.75015 0.48958 0.0
N738 N 0.7487 0.77406 0.48968 0.0
C739 C 0.76008 0.73701 0.49701 0.0
C740 C 0.76728 0.76871 0.48592 0.0
C741 C 0.73568 0.76119 0.49704 0.0
C742 C 0.76761 0.71737 0.50126 0.0
C743 C 0.77178 0.70476 0.48573 0.0
C744 C 0.78462 0.68911 0.48822 0.0
C745 C 0.79388 0.68597 0.50624 0.0
C746 C 0.78876 0.69796 0.52208 0.0
C747 C 0.77576 0.71351 0.5196 0.0
C748 C 0.78173 0.78333 0.47948 0.0
C749 C 0.80076 0.7777 0.47446 0.0
C750 C 0.815 0.79172 0.47072 0.0
C751 C 0.81055 0.81165 0.47201 0.0
C752 C 0.79128 0.81725 0.47605 0.0
C753 C 0.77702 0.80325 0.47966 0.0
C754 C 0.71583 0.76844 0.50078 0.0
C755 C 0.71183 0.77813 0.51833 0.0
C756 C 0.70519 0.20487 0.51962 0.0
C757 C 0.68713 0.2097 0.51126 0.0
C758 C 0.68546 0.22766 0.50139 0.0
C759 C 0.70176 0.23987 0.49898 0.0
H760 H 0.76886 0.28565 0.53081 0.0
H761 H 0.79029 0.31379 0.53617 0.0
H762 H 0.79083 0.32498 0.47429 0.0
H763 H 0.76971 0.29687 0.46907 0.0
H764 H 0.80728 0.24418 0.47862 0.0
H765 H 0.83166 0.21986 0.47072 0.0
H766 H 0.78619 0.17767 0.45994 0.0
H767 H 0.76176 0.20186 0.46855 0.0
H768 H 0.73538 0.21208 0.52255 0.0
H769 H 0.70721 0.19113 0.52709 0.0
H770 H 0.67174 0.23196 0.49493 0.0
H771 H 0.70039 0.25296 0.49029 0.0
N772 N 0.74295 0.26237 0.50234 0.0
N773 N 0.77275 0.25731 0.48605 0.0
N774 N 0.75091 0.23154 0.48959 0.0
C775 C 0.76036 0.26938 0.49558 0.0
C776 C 0.76814 0.2384 0.48297 0.0
C777 C 0.73819 0.24329 0.49909 0.0
C778 C 0.76733 0.28935 0.49957 0.0
C779 C 0.77291 0.29467 0.51851 0.0
C780 C 0.78543 0.31058 0.52151 0.0
C781 C 0.79243 0.32156 0.50564 0.0
C782 C 0.78562 0.317 0.48686 0.0
C783 C 0.7734 0.30096 0.48386 0.0
C784 C 0.78259 0.22485 0.47459 0.0
C785 C 0.80243 0.22984 0.4742 0.0
C786 C 0.81645 0.21588 0.46955 0.0
C787 C 0.8109 0.19671 0.46498 0.0
C788 C 0.79096 0.19218 0.46386 0.0
C789 C 0.77696 0.20607 0.46872 0.0
C790 C 0.72 0.23425 0.50629 0.0
C791 C 0.72139 0.21692 0.51705 0.0
C792 C 0.31866 0.7788 0.51107 0.0
C793 C 0.32271 0.79113 0.49514 0.0
C794 C 0.31193 0.78866 0.47791 0.0
C795 C 0.29635 0.77561 0.47721 0.0
H796 H 0.23243 0.71949 0.53448 0.0
H797 H 0.21061 0.69163 0.53805 0.0
H798 H 0.2255 0.67275 0.47992 0.0
H799 H 0.24763 0.70053 0.47666 0.0
H800 H 0.19842 0.75712 0.49506 0.0
H801 H 0.17242 0.78111 0.49323 0.0
H802 H 0.21482 0.82638 0.48266 0.0
H803 H 0.24085 0.80244 0.48412 0.0
H804 H 0.29911 0.75751 0.52329 0.0
H805 H 0.32665 0.78034 0.52457 0.0
H806 H 0.31491 0.79756 0.46522 0.0
H807 H 0.28741 0.77518 0.4642 0.0
N808 N 0.26711 0.73774 0.49958 0.0
N809 N 0.23363 0.74496 0.49734 0.0
N810 N 0.25648 0.76927 0.4912 0.0
C811 C 0.24807 0.73195 0.50072 0.0
C812 C 0.23768 0.76362 0.49257 0.0
C813 C 0.27124 0.75662 0.49467 0.0
C814 C 0.24202 0.71191 0.50547 0.0
C815 C 0.23178 0.7088 0.52289 0.0
C816 C 0.21899 0.69304 0.52475 0.0
C817 C 0.21594 0.68015 0.50911 0.0
C818 C 0.22752 0.68231 0.49229 0.0
C819 C 0.24038 0.69811 0.49047 0.0
C820 C 0.22177 0.77786 0.48991 0.0
C821 C 0.20223 0.77215 0.49217 0.0
C822 C 0.18732 0.78589 0.4912 0.0
C823 C 0.19161 0.80561 0.48794 0.0
C824 C 0.21106 0.81124 0.48501 0.0
C825 C 0.22599 0.79751 0.48598 0.0
C826 C 0.29125 0.7645 0.4936 0.0
C827 C 0.303 0.76559 0.5103 0.0
C828 C 0.20219 0.29781 0.52048 0.0
C829 C 0.20722 0.31626 0.51316 0.0
C830 C 0.22533 0.31842 0.50368 0.0
C831 C 0.23751 0.30225 0.50059 0.0
H832 H 0.28365 0.23696 0.52983 0.0
H833 H 0.3117 0.21555 0.53577 0.0
H834 H 0.32159 0.21161 0.47378 0.0
H835 H 0.29365 0.23272 0.468 0.0
H836 H 0.24132 0.19793 0.47572 0.0
H837 H 0.21677 0.17419 0.4668 0.0
H838 H 0.17591 0.22068 0.45523 0.0
H839 H 0.20034 0.24447 0.46498 0.0
H840 H 0.20925 0.26749 0.52187 0.0
H841 H 0.18833 0.29545 0.52762 0.0
H842 H 0.22974 0.33246 0.49802 0.0
H843 H 0.25073 0.30405 0.49217 0.0
N844 N 0.25974 0.2609 0.50207 0.0
N845 N 0.25493 0.23217 0.48392 0.0
N846 N 0.22916 0.25384 0.48823 0.0
C847 C 0.26685 0.24393 0.49442 0.0
C848 C 0.23611 0.23701 0.48074 0.0
C849 C 0.24076 0.26592 0.4987 0.0
C850 C 0.28669 0.23668 0.49848 0.0
C851 C 0.29236 0.23213 0.51759 0.0
C852 C 0.30822 0.21965 0.52094 0.0
C853 C 0.3188 0.21172 0.50524 0.0
C854 C 0.31393 0.21755 0.48622 0.0
C855 C 0.29796 0.22972 0.48289 0.0
C856 C 0.22265 0.22306 0.47145 0.0
C857 C 0.22725 0.20314 0.47088 0.0
C858 C 0.21314 0.18949 0.46563 0.0
C859 C 0.19422 0.19549 0.46059 0.0
C860 C 0.19019 0.21554 0.45952 0.0
C861 C 0.20421 0.22918 0.46503 0.0
C862 C 0.23169 0.28367 0.50679 0.0
C863 C 0.21421 0.28173 0.51722 0.0
C864 C 1.00059 0.95905 0.55255 0.0
C865 C 1.0013 0.95658 0.45728 0.0
C866 C 0.00424 0.05309 0.55021 0.0
C867 C 0.00409 0.05079 0.45495 0.0
C868 C 0.95706 0.05352 0.5003 0.0
C869 C 0.95396 0.95922 0.50233 0.0
C870 C 0.05137 0.05045 0.49981 0.0
C871 C 0.04825 0.95624 0.50411 0.0
C872 C 0.04972 0.00271 0.45615 0.0
C873 C 0.95549 0.00565 0.45619 0.0
C874 C 0.04985 0.00496 0.55124 0.0
C875 C 0.95574 0.00717 0.55151 0.0
Eu876 Eu 1.00139 0.96785 0.50464 0.0
O877 O 0.98472 0.98775 0.48703 0.0
O878 O 0.01951 0.98738 0.52129 0.0
Eu879 Eu 0.96555 0.00608 0.5038 0.0
Eu880 Eu 0.03969 0.00378 0.50369 0.0
O881 O 0.98465 0.98846 0.52141 0.0
O882 O 0.01944 0.98655 0.48697 0.0
Eu883 Eu 0.00273 0.00581 0.54021 0.0
Eu884 Eu 0.00262 0.00395 0.46714 0.0
O885 O 0.98579 0.0234 0.52053 0.0
O886 O 0.986 0.02225 0.48632 0.0
O887 O 0.02041 0.02121 0.48619 0.0
O888 O 0.02074 0.02231 0.52054 0.0
Eu889 Eu 0.00391 0.04203 0.50283 0.0
O890 O 1.00037 0.95233 0.53421 0.0
O891 O 1.00076 0.95082 0.47593 0.0
O892 O 0.00466 0.05897 0.53159 0.0
O893 O 0.00463 0.05748 0.47328 0.0
O894 O 0.95044 0.0353 0.50189 0.0
O895 O 0.94855 0.97789 0.50241 0.0
O896 O 0.05672 0.0318 0.50089 0.0
O897 O 0.05482 0.97455 0.50391 0.0
O898 O 0.0311 0.00287 0.4506 0.0
O899 O 0.9741 0.00461 0.4507 0.0
O900 O 0.03122 0.00505 0.55679 0.0
O901 O 0.9744 0.00725 0.55687 0.0
O902 O 0.03314 0.05713 0.50083 0.0
O903 O 0.97574 0.05892 0.50063 0.0
O904 O 0.02958 0.95087 0.50457 0.0
O905 O 0.97221 0.95266 0.50358 0.0
O906 O 1.00207 0.97505 0.45131 0.0
O907 O 0.00326 0.03204 0.44991 0.0
O908 O 1.0015 0.97782 0.55752 0.0
O909 O 0.00349 0.0346 0.5561 0.0
O910 O 0.94935 0.00653 0.53306 0.0
O911 O 0.94928 0.00632 0.47468 0.0
O912 O 0.05606 0.00484 0.53273 0.0
O913 O 0.05596 0.00298 0.47463 0.0
C914 C 0.50563 0.95714 0.05151 0.0
C915 C 0.50485 0.05154 0.05071 0.0
C916 C 0.49889 0.95636 0.95729 0.0
C917 C 0.50051 0.05069 0.9563 0.0
C918 C 0.54984 0.00264 0.95626 0.0
C919 C 0.55082 0.00461 0.05038 0.0
C920 C 0.45456 0.00471 0.95752 0.0
C921 C 0.45571 0.00438 0.05181 0.0
C922 C 0.45534 0.05129 0.00527 0.0
C923 C 0.55064 0.05064 0.00247 0.0
C924 C 0.45468 0.95718 0.00507 0.0
C925 C 0.54991 0.95648 0.00391 0.0
Eu926 Eu 0.50311 0.00425 0.04104 0.0
O927 O 0.52003 0.02126 0.0208 0.0
O928 O 0.48546 0.98658 0.02195 0.0
Eu929 Eu 0.53912 0.00365 0.00339 0.0
Eu930 Eu 0.4662 0.00416 0.00457 0.0
O931 O 0.51976 0.98671 0.02111 0.0
O932 O 0.48584 0.02171 0.02149 0.0
Eu933 Eu 0.50237 0.9668 0.00432 0.0
Eu934 Eu 0.50291 0.0411 0.0036 0.0
O935 O 0.51957 0.98605 0.98631 0.0
O936 O 0.51983 0.02124 0.98602 0.0
O937 O 0.48558 0.02113 0.98677 0.0
O938 O 0.48538 0.98671 0.98709 0.0
Eu939 Eu 0.50232 0.00362 0.9668 0.0
O940 O 0.50487 0.97566 0.0574 0.0
O941 O 0.50435 0.03309 0.05683 0.0
O942 O 0.50011 0.97475 0.95105 0.0
O943 O 0.50139 0.03217 0.95048 0.0
O944 O 0.55543 0.00257 0.97485 0.0
O945 O 0.55609 0.00415 0.03167 0.0
O946 O 0.4493 0.00464 0.97625 0.0
O947 O 0.44999 0.004 0.03324 0.0
O948 O 0.47383 0.0575 0.00448 0.0
O949 O 0.53222 0.05711 0.00284 0.0
O950 O 0.47311 0.95077 0.0058 0.0
O951 O 0.53139 0.95032 0.00353 0.0
O952 O 0.47296 0.0044 0.95103 0.0
O953 O 0.53131 0.00323 0.95012 0.0
O954 O 0.47428 0.00463 0.05779 0.0
O955 O 0.53242 0.00478 0.05685 0.0
O956 O 0.50428 0.0574 0.03218 0.0
O957 O 0.50097 0.05689 0.97473 0.0
O958 O 0.50462 0.95103 0.03309 0.0
O959 O 0.49971 0.95054 0.97582 0.0
O960 O 0.55546 0.9751 0.00411 0.0
O961 O 0.55592 0.03195 0.00252 0.0
O962 O 0.4494 0.97585 0.00424 0.0
O963 O 0.44978 0.03268 0.00543 0.0
C964 C 0.00253 0.4565 0.05042 0.0
C965 C 0.00379 0.45676 0.95625 0.0
C966 C 1.00105 0.55176 0.0505 0.0
C967 C 0.00254 0.55198 0.95628 0.0
C968 C 0.95509 0.55155 0.00237 0.0
C969 C 0.95557 0.45628 0.00355 0.0
C970 C 0.04925 0.55206 0.00458 0.0
C971 C 0.04965 0.45675 0.00437 0.0
C972 C 0.05041 0.50281 0.95693 0.0
C973 C 0.9561 0.50109 0.95533 0.0
C974 C 0.04874 0.50411 0.05138 0.0
C975 C 0.95438 0.50463 0.04976 0.0
Eu976 Eu 0.00254 0.46775 0.00337 0.0
O977 O 0.98548 0.48709 0.98569 0.0
O978 O 0.01955 0.48718 0.02101 0.0
Eu979 Eu 0.96525 0.50396 0.0027 0.0
Eu980 Eu 0.03952 0.50438 0.00397 0.0
O981 O 0.98466 0.48688 0.02055 0.0
O982 O 0.02005 0.48729 0.98633 0.0
Eu983 Eu 1.00174 0.50413 0.04046 0.0
Eu984 Eu 0.00305 0.50432 0.96621 0.0
O985 O 0.98472 0.52114 0.02033 0.0
O986 O 0.98511 0.52136 0.98558 0.0
O987 O 0.02016 0.52159 0.98613 0.0
O988 O 0.01938 0.5214 0.02104 0.0
Eu989 Eu 1.00224 0.5407 0.00334 0.0
O990 O 0.00283 0.45113 0.03175 0.0
O991 O 0.00271 0.45126 0.97486 0.0
O992 O 1.00136 0.55724 0.03184 0.0
O993 O 0.00288 0.55736 0.97495 0.0
O994 O 0.94888 0.53304 1.0023 0.0
O995 O 0.94915 0.4747 0.00297 0.0
O996 O 0.05565 0.53363 0.00399 0.0
O997 O 0.05586 0.47526 0.00491 0.0
O998 O 0.03206 0.50385 0.95061 0.0
O999 O 0.97468 0.50184 0.94968 0.0
O1000 O 0.03014 0.50413 0.05701 0.0
O1001 O 0.97277 0.50444 0.05602 0.0
O1002 O 0.03058 0.55741 0.00458 0.0
O1003 O 0.97371 0.55711 0.00267 0.0
O1004 O 0.03103 0.45127 0.00353 0.0
O1005 O 0.97424 0.45096 0.00377 0.0
O1006 O 0.00443 0.47523 0.94999 0.0
O1007 O 0.00227 0.53351 0.94994 0.0
O1008 O 1.00196 0.47496 0.05673 0.0
O1009 O 1.00116 0.53326 0.05673 0.0
O1010 O 0.94867 0.50438 0.03117 0.0
O1011 O 0.94972 0.5022 0.97368 0.0
O1012 O 0.05507 0.50432 0.03299 0.0
O1013 O 0.05606 0.50288 0.97554 0.0
C1014 C 0.50213 0.45658 0.0528 0.0
C1015 C 0.50203 0.55071 0.05331 0.0
C1016 C 0.50277 0.45698 0.95752 0.0
C1017 C 0.50338 0.55117 0.95798 0.0
C1018 C 0.54989 0.50431 0.95802 0.0
C1019 C 0.54937 0.50305 0.05328 0.0
C1020 C 0.45568 0.5049 0.95767 0.0
C1021 C 0.45541 0.50322 0.05299 0.0
C1022 C 0.45575 0.55151 0.00431 0.0
C1023 C 0.55017 0.5508 0.00432 0.0
C1024 C 0.45498 0.45716 0.00279 0.0
C1025 C 0.54944 0.45641 0.00472 0.0
Eu1026 Eu 0.50243 0.50368 0.04183 0.0
O1027 O 0.52015 0.52126 0.02284 0.0
O1028 O 0.48489 0.48644 0.02243 0.0
Eu1029 Eu 0.53966 0.50369 0.00561 0.0
Eu1030 Eu 0.46546 0.50424 0.00534 0.0
O1031 O 0.51976 0.48625 0.02248 0.0
O1032 O 0.48522 0.52144 0.02262 0.0
Eu1033 Eu 0.50227 0.46673 0.00521 0.0
Eu1034 Eu 0.50288 0.54107 0.00562 0.0
O1035 O 0.5199 0.48646 0.98827 0.0
O1036 O 0.52003 0.52116 0.98851 0.0
O1037 O 0.48549 0.52146 0.98834 0.0
O1038 O 0.48516 0.48679 0.98819 0.0
Eu1039 Eu 0.50273 0.50402 0.96891 0.0
O1040 O 0.50261 0.4752 0.0583 0.0
O1041 O 0.50203 0.53201 0.05861 0.0
O1042 O 0.50258 0.47566 0.95217 0.0
O1043 O 0.50315 0.53253 0.9525 0.0
O1044 O 0.55606 0.50425 0.97654 0.0
O1045 O 0.5558 0.50356 0.03485 0.0
O1046 O 0.44934 0.50517 0.97614 0.0
O1047 O 0.44908 0.50401 0.03452 0.0
O1048 O 0.4743 0.55734 0.00459 0.0
O1049 O 0.53174 0.55697 0.00486 0.0
O1050 O 0.47339 0.45095 0.00357 0.0
O1051 O 0.53091 0.4505 0.0051 0.0
O1052 O 0.47434 0.50432 0.95228 0.0
O1053 O 0.53127 0.50408 0.95248 0.0
O1054 O 0.47405 0.5029 0.0584 0.0
O1055 O 0.53069 0.50303 0.05861 0.0
O1056 O 0.50243 0.55712 0.03486 0.0
O1057 O 0.5033 0.5574 0.97649 0.0
O1058 O 0.50164 0.45035 0.0343 0.0
O1059 O 0.50287 0.45061 0.97598 0.0
O1060 O 0.55551 0.47487 0.00484 0.0
O1061 O 0.55595 0.53225 0.00476 0.0
O1062 O 0.44918 0.4757 0.0035 0.0
O1063 O 0.44962 0.53307 0.00483 0.0
C1064 C 0.99945 0.45678 0.55325 0.0
C1065 C 1.00043 0.45508 0.45885 0.0
C1066 C 0.00398 0.55106 0.55171 0.0
C1067 C 0.00542 0.54952 0.45732 0.0
C1068 C 0.95546 0.55097 0.50432 0.0
C1069 C 0.95407 0.45671 0.50587 0.0
C1070 C 0.05066 0.54933 0.50452 0.0
C1071 C 0.04917 0.45526 0.50635 0.0
C1072 C 0.05004 0.50193 0.45816 0.0
C1073 C 0.95472 0.50356 0.45802 0.0
C1074 C 0.04996 0.50305 0.55229 0.0
C1075 C 0.95472 0.50492 0.55227 0.0
Eu1076 Eu 1.00177 0.46609 0.50588 0.0
O1077 O 0.98498 0.48578 0.48812 0.0
O1078 O 0.01929 0.48565 0.5231 0.0
Eu1079 Eu 0.9658 0.50371 0.50513 0.0
Eu1080 Eu 0.03876 0.50245 0.50522 0.0
O1081 O 0.985 0.48647 0.52278 0.0
O1082 O 0.01928 0.48504 0.48794 0.0
Eu1083 Eu 0.00233 0.50374 0.54238 0.0
Eu1084 Eu 0.00235 0.50247 0.468 0.0
O1085 O 0.98537 0.52108 0.5224 0.0
O1086 O 0.98541 0.52059 0.48737 0.0
O1087 O 0.01952 0.51976 0.48772 0.0
O1088 O 0.0197 0.52046 0.52231 0.0
Eu1089 Eu 0.00287 0.54019 0.50469 0.0
O1090 O 1.00008 0.45051 0.53485 0.0
O1091 O 1.00078 0.44949 0.47747 0.0
O1092 O 0.00343 0.55677 0.53313 0.0
O1093 O 0.00474 0.55572 0.47574 0.0
O1094 O 0.94967 0.53242 0.50456 0.0
O1095 O 0.94879 0.47541 0.50517 0.0
O1096 O 0.05581 0.5306 0.50448 0.0
O1097 O 0.0549 0.47381 0.50566 0.0
O1098 O 0.03158 0.5014 0.45182 0.0
O1099 O 0.97319 0.50305 0.45172 0.0
O1100 O 0.03149 0.50315 0.55862 0.0
O1101 O 0.9732 0.50537 0.55853 0.0
O1102 O 0.0323 0.55593 0.50488 0.0
O1103 O 0.97404 0.55694 0.50439 0.0
O1104 O 0.03059 0.44929 0.50665 0.0
O1105 O 0.97246 0.45026 0.5064 0.0
O1106 O 1.00104 0.47344 0.45247 0.0
O1107 O 0.0044 0.53098 0.45152 0.0
O1108 O 1.00035 0.47534 0.55896 0.0
O1109 O 0.00377 0.53267 0.55798 0.0
O1110 O 0.94922 0.50403 0.53364 0.0
O1111 O 0.94927 0.50383 0.47667 0.0
O1112 O 0.05534 0.50289 0.53362 0.0
O1113 O 0.05542 0.50243 0.47682 0.0
C1114 C 0.50199 0.95628 0.55188 0.0
C1115 C 0.50101 0.95545 0.45766 0.0
C1116 C 0.50075 0.05158 0.55098 0.0
C1117 C 0.49989 0.05065 0.45679 0.0
C1118 C 0.45333 0.05042 0.50465 0.0
C1119 C 0.45458 0.95525 0.50498 0.0
C1120 C 0.5476 0.05158 0.50396 0.0
C1121 C 0.54871 0.95642 0.50495 0.0
C1122 C 0.54815 1.00119 0.45704 0.0
C1123 C 0.4538 1.00043 0.45718 0.0
C1124 C 0.54827 0.00402 0.55144 0.0
C1125 C 0.45387 1.00054 0.55156 0.0
Eu1126 Eu 0.50149 0.96698 0.5047 0.0
O1127 O 0.48395 0.98604 0.48721 0.0
O1128 O 0.51862 0.98671 0.52192 0.0
Eu1129 Eu 0.46393 0.00297 0.50437 0.0
Eu1130 Eu 0.53808 0.00386 0.50423 0.0
O1131 O 0.48395 0.98635 0.52186 0.0
O1132 O 0.51852 0.9864 0.48707 0.0
Eu1133 Eu 0.50103 0.00381 0.54151 0.0
Eu1134 Eu 0.50098 0.00314 0.46717 0.0
O1135 O 0.48335 0.02062 0.52169 0.0
O1136 O 0.48331 0.02029 0.48668 0.0
O1137 O 0.51829 0.02077 0.4866 0.0
O1138 O 0.51811 0.02089 0.52147 0.0
Eu1139 Eu 0.50056 0.03995 0.50395 0.0
O1140 O 0.5017 0.95069 0.53328 0.0
O1141 O 0.50136 0.95016 0.47636 0.0
O1142 O 0.50072 0.0568 0.53225 0.0
O1143 O 0.49968 0.05628 0.47539 0.0
O1144 O 0.44728 0.03187 0.505 0.0
O1145 O 0.44806 0.97363 0.50427 0.0
O1146 O 0.55402 0.03316 0.50409 0.0
O1147 O 0.55474 0.97498 0.5048 0.0
O1148 O 0.52967 1.00178 0.45105 0.0
O1149 O 0.47228 1.00114 0.45118 0.0
O1150 O 0.5298 0.0041 0.55748 0.0
O1151 O 0.4723 1.00195 0.55763 0.0
O1152 O 0.52888 0.05687 0.50374 0.0
O1153 O 0.4719 0.05613 0.5041 0.0
O1154 O 0.53013 0.95075 0.50487 0.0
O1155 O 0.47328 0.95004 0.50537 0.0
O1156 O 0.50082 0.97386 0.45122 0.0
O1157 O 0.50064 0.03214 0.45064 0.0
O1158 O 0.50203 0.97481 0.55802 0.0
O1159 O 0.5007 0.03316 0.55746 0.0
O1160 O 0.44794 1.0009 0.53305 0.0
O1161 O 0.44779 1.00145 0.47566 0.0
O1162 O 0.55419 0.00401 0.53292 0.0
O1163 O 0.55415 1.00212 0.47552 0.0
H1164 H 0.19559 0.15891 0.44427 0.0
H1165 H 0.17098 0.13325 0.44723 0.0
H1166 H 0.13238 0.1734 0.47615 0.0
H1167 H 0.15693 0.19884 0.47396 0.0
H1168 H 0.1564 0.12238 0.4862 0.0
H1169 H 0.09767 0.14434 0.43505 0.0
H1170 H 0.12262 0.15228 0.4323 0.0
H1171 H 0.1072 0.16344 0.45022 0.0
C1172 C 0.18178 0.16235 0.45107 0.0
C1173 C 0.1783 0.18095 0.45895 0.0
C1174 C 0.16773 0.14771 0.45262 0.0
C1175 C 0.14989 0.15155 0.46177 0.0
C1176 C 0.14596 0.1703 0.46873 0.0
H1177 H 0.04961 0.09004 0.50402 0.0
H1178 H 0.0744 0.11385 0.49476 0.0
C1179 C 0.16002 0.18486 0.46737 0.0
C1180 C 0.13624 0.13558 0.46616 0.0
H1181 H 0.08973 0.12009 0.45848 0.0
C1182 C 0.14189 0.12166 0.47998 0.0
C1183 C 0.11733 0.13497 0.45815 0.0
C1184 C 0.11081 0.14945 0.44299 0.0
C1185 C 0.12883 0.10742 0.48655 0.0
C1186 C 0.10981 0.10687 0.47867 0.0
C1187 C 0.10431 0.1206 0.46453 0.0
C1188 C 0.09528 0.09234 0.48505 0.0
C1189 C 0.13528 0.09363 0.50241 0.0
C1190 C 0.09889 0.07238 0.48273 0.0
C1191 C 0.08487 0.05874 0.48821 0.0
C1192 C 0.06685 0.06483 0.49583 0.0
C1193 C 0.06333 0.08485 0.49822 0.0
C1194 C 0.07744 0.09848 0.49289 0.0
H1195 H 0.14807 0.09935 0.5105 0.0
H1196 H 0.12333 0.09086 0.51296 0.0
H1197 H 0.13953 0.07952 0.49578 0.0
H1198 H 0.11238 0.06736 0.47628 0.0
H1199 H 0.08795 0.04345 0.48587 0.0
H1200 H 0.80856 0.15979 0.47949 0.0
H1201 H 0.83447 0.13565 0.48153 0.0
H1202 H 0.87327 0.17424 0.45078 0.0
H1203 H 0.84718 0.19845 0.44808 0.0
H1204 H 0.86077 0.11856 0.44998 0.0
H1205 H 0.89714 0.16309 0.50733 0.0
H1206 H 0.87174 0.16618 0.50126 0.0
H1207 H 0.89018 0.17499 0.48501 0.0
C1208 C 0.82238 0.16299 0.4726 0.0
C1209 C 0.8258 0.18112 0.46367 0.0
C1210 C 0.8372 0.1492 0.47392 0.0
C1211 C 0.85572 0.15333 0.46649 0.0
C1212 C 0.85904 0.17096 0.45675 0.0
H1213 H 0.96371 0.09076 0.4878 0.0
H1214 H 0.93955 0.11507 0.4785 0.0
C1215 C 0.84416 0.18476 0.4553 0.0
C1216 C 0.87182 0.1397 0.47029 0.0
H1217 H 0.91118 0.13287 0.49976 0.0
C1218 C 0.87191 0.12168 0.46073 0.0
C1219 C 0.88624 0.14395 0.48434 0.0
C1220 C 0.88641 0.16304 0.49522 0.0
C1221 C 0.88612 0.10764 0.46495 0.0
C1222 C 0.90019 0.11163 0.47948 0.0
C1223 C 0.90031 0.12985 0.48871 0.0
C1224 C 0.91472 0.09699 0.48557 0.0
C1225 C 0.88601 0.08875 0.45371 0.0
C1226 C 0.90873 0.079 0.49316 0.0
C1227 C 0.92249 0.06502 0.49847 0.0
C1228 C 0.9425 0.06892 0.49651 0.0
C1229 C 0.94843 0.08727 0.48958 0.0
C1230 C 0.93465 0.10117 0.48416 0.0
H1231 H 0.87829 0.09029 0.43957 0.0
H1232 H 0.90106 0.08356 0.45085 0.0
H1233 H 0.87831 0.07747 0.46235 0.0
H1234 H 0.8934 0.07572 0.49488 0.0
H1235 H 0.91741 0.05112 0.50391 0.0
H1236 H 0.84711 0.80949 0.48748 0.0
H1237 H 0.87138 0.83538 0.48941 0.0
H1238 H 0.83348 0.87369 0.45726 0.0
H1239 H 0.80919 0.84766 0.45471 0.0
H1240 H 0.88877 0.86076 0.45688 0.0
H1241 H 0.84467 0.89901 0.51333 0.0
H1242 H 0.84153 0.87342 0.5081 0.0
H1243 H 0.8326 0.89134 0.49134 0.0
C1244 C 0.8441 0.82322 0.48033 0.0
C1245 C 0.82616 0.82654 0.471 0.0
C1246 C 0.85794 0.83802 0.48157 0.0
C1247 C 0.85404 0.85638 0.47365 0.0
C1248 C 0.83658 0.85959 0.46361 0.0
H1249 H 0.91658 0.96525 0.48993 0.0
H1250 H 0.8922 0.9406 0.48204 0.0
C1251 C 0.82273 0.84475 0.46225 0.0
C1252 C 0.86781 0.87247 0.47701 0.0
H1253 H 0.87474 0.91298 0.50486 0.0
C1254 C 0.88573 0.87227 0.46727 0.0
C1255 C 0.86363 0.88738 0.49054 0.0
C1256 C 0.84462 0.88789 0.50157 0.0
C1257 C 0.89974 0.8867 0.47077 0.0
C1258 C 0.89581 0.90132 0.48476 0.0
C1259 C 0.8777 0.90169 0.49421 0.0
C1260 C 0.91042 0.91619 0.49006 0.0
C1261 C 0.91851 0.88626 0.45933 0.0
C1262 C 0.9285 0.9106 0.49772 0.0
C1263 C 0.9425 0.92462 0.50221 0.0
C1264 C 0.93854 0.94451 0.49936 0.0
C1265 C 0.9201 0.95008 0.49238 0.0
C1266 C 0.90617 0.93602 0.48777 0.0
H1267 H 0.91688 0.87793 0.44555 0.0
H1268 H 0.92354 0.90122 0.45578 0.0
H1269 H 0.92994 0.87903 0.46816 0.0
H1270 H 0.93184 0.89537 0.50011 0.0
H1271 H 0.95647 0.91983 0.50774 0.0
H1272 H 0.18634 0.83665 0.46354 0.0
H1273 H 0.16177 0.86236 0.46628 0.0
H1274 H 0.13704 0.83355 0.51634 0.0
H1275 H 0.1618 0.8081 0.51404 0.0
H1276 H 0.12023 0.85919 0.4661 0.0
H1277 H 0.14916 0.8895 0.53536 0.0
H1278 H 0.16307 0.87324 0.52008 0.0
H1279 H 0.14438 0.86378 0.53577 0.0
C1280 C 0.1757 0.83585 0.47515 0.0
C1281 C 0.17602 0.82044 0.48863 0.0
C1282 C 0.16165 0.85045 0.47663 0.0
C1283 C 0.14785 0.84991 0.49167 0.0
C1284 C 0.14779 0.83431 0.50481 0.0
H1285 H 0.04192 0.91685 0.50331 0.0
H1286 H 0.0662 0.89112 0.5002 0.0
C1287 C 0.1618 0.8197 0.50334 0.0
C1288 C 0.13356 0.86577 0.49371 0.0
H1289 H 0.11891 0.90201 0.52434 0.0
C1290 C 0.11992 0.86861 0.47879 0.0
C1291 C 0.13346 0.8781 0.51019 0.0
C1292 C 0.14839 0.87618 0.52621 0.0
C1293 C 0.10587 0.88334 0.48008 0.0
C1294 C 0.10541 0.89528 0.49685 0.0
C1295 C 0.11926 0.89265 0.51161 0.0
C1296 C 0.09079 0.91079 0.49923 0.0
C1297 C 0.09183 0.88619 0.46342 0.0
C1298 C 0.09671 0.93028 0.50029 0.0
C1299 C 0.08292 0.94505 0.50219 0.0
C1300 C 0.06295 0.94055 0.50314 0.0
C1301 C 0.05714 0.9209 0.50252 0.0
C1302 C 0.07097 0.90615 0.50062 0.0
H1303 H 0.09701 0.87901 0.44987 0.0
H1304 H 0.07754 0.87974 0.46735 0.0
H1305 H 0.08957 0.90192 0.46042 0.0
H1306 H 0.112 0.93406 0.49936 0.0
H1307 H 0.08796 0.95999 0.50267 0.0
H1308 H 0.50852 0.16298 0.19957 0.0
H1309 H 0.50612 0.138 0.17434 0.0
H1310 H 0.54197 0.17275 0.13622 0.0
H1311 H 0.54473 0.19779 0.16157 0.0
H1312 H 0.49081 0.14559 0.13539 0.0
H1313 H 0.56652 0.11656 0.13593 0.0
H1314 H 0.5563 0.12978 0.15626 0.0
H1315 H 0.56387 0.14261 0.13479 0.0
C1316 C 0.51622 0.16514 0.18597 0.0
C1317 C 0.52691 0.18226 0.18254 0.0
C1318 C 0.51472 0.15094 0.17156 0.0
C1319 C 0.52397 0.15356 0.15357 0.0
C1320 C 0.53491 0.17046 0.15015 0.0
H1321 H 0.50151 0.09102 0.0461 0.0
H1322 H 0.50597 0.11613 0.07092 0.0
C1323 C 0.53636 0.18475 0.16454 0.0
C1324 C 0.52133 0.13896 0.1381 0.0
H1325 H 0.54515 0.10412 0.11197 0.0
C1326 C 0.50266 0.13652 0.1302 0.0
C1327 C 0.53686 0.12717 0.13159 0.0
C1328 C 0.55703 0.12897 0.14012 0.0
C1329 C 0.49909 0.12253 0.11581 0.0
C1330 C 0.51466 0.11086 0.10916 0.0
C1331 C 0.53332 0.11324 0.1171 0.0
C1332 C 0.51174 0.09576 0.09424 0.0
C1333 C 0.47868 0.12004 0.10806 0.0
C1334 C 0.51368 0.07608 0.09923 0.0
C1335 C 0.51113 0.06169 0.08515 0.0
C1336 C 0.50675 0.06677 0.06578 0.0
C1337 C 0.50484 0.08658 0.06087 0.0
C1338 C 0.50732 0.10095 0.07501 0.0
H1339 H 0.46773 0.1276 0.11726 0.0
H1340 H 0.47786 0.12619 0.09313 0.0
H1341 H 0.4748 0.10436 0.10717 0.0
H1342 H 0.51715 0.07188 0.11404 0.0
H1343 H 0.51286 0.04661 0.08943 0.0
H1344 H 0.84674 0.53095 0.19959 0.0
H1345 H 0.87104 0.52883 0.17357 0.0
H1346 H 0.82718 0.50734 0.13412 0.0
H1347 H 0.80289 0.50895 0.16008 0.0
H1348 H 0.87959 0.4924 0.15224 0.0
H1349 H 0.85507 0.5534 0.1048 0.0
H1350 H 0.84878 0.5519 0.13032 0.0
H1351 H 0.83662 0.53666 0.11293 0.0
C1352 C 0.84227 0.52578 0.18538 0.0
C1353 C 0.8229 0.52012 0.18188 0.0
C1354 C 0.85612 0.52468 0.17055 0.0
C1355 C 0.85076 0.5181 0.15199 0.0
C1356 C 0.83143 0.51275 0.14832 0.0
H1357 H 0.91512 0.4993 0.04499 0.0
H1358 H 0.88982 0.50164 0.06992 0.0
C1359 C 0.81759 0.51375 0.16314 0.0
C1360 C 0.86564 0.5158 0.13675 0.0
H1361 H 0.88042 0.53348 0.09278 0.0
C1362 C 0.87986 0.50139 0.13925 0.0
C1363 C 0.86569 0.52747 0.11982 0.0
C1364 C 0.85083 0.54334 0.11675 0.0
C1365 C 0.89419 0.4982 0.12509 0.0
C1366 C 0.89447 0.51009 0.10827 0.0
C1367 C 0.88012 0.52442 0.10572 0.0
C1368 C 0.90981 0.50821 0.09337 0.0
C1369 C 0.90865 0.48193 0.12809 0.0
C1370 C 0.92935 0.51131 0.09835 0.0
C1371 C 0.94385 0.50989 0.08422 0.0
C1372 C 0.93902 0.50558 0.06478 0.0
C1373 C 0.91936 0.50264 0.05982 0.0
C1374 C 0.90488 0.50397 0.07401 0.0
H1375 H 0.90311 0.47088 0.13854 0.0
H1376 H 0.91213 0.47456 0.11412 0.0
H1377 H 0.92233 0.48803 0.13414 0.0
H1378 H 0.93337 0.51507 0.11313 0.0
H1379 H 0.9588 0.51249 0.08853 0.0
H1380 H 0.52301 0.80762 0.15967 0.0
H1381 H 0.51966 0.83278 0.1348 0.0
H1382 H 0.55486 0.87179 0.16918 0.0
H1383 H 0.55861 0.84649 0.19413 0.0
H1384 H 0.50264 0.87081 0.14528 0.0
H1385 H 0.57619 0.87542 0.11131 0.0
H1386 H 0.56774 0.85382 0.12376 0.0
H1387 H 0.57493 0.87482 0.13751 0.0
C1388 C 0.53055 0.82133 0.16171 0.0
C1389 C 0.54112 0.82509 0.17884 0.0
C1390 C 0.52848 0.83572 0.14755 0.0
C1391 C 0.53705 0.85403 0.15021 0.0
C1392 C 0.54829 0.85763 0.16687 0.0
H1393 H 0.50496 0.96154 0.09123 0.0
H1394 H 0.51257 0.93691 0.11582 0.0
C1395 C 0.55032 0.84324 0.18111 0.0
C1396 C 0.53269 0.8698 0.13636 0.0
H1397 H 0.55255 0.89802 0.10064 0.0
C1398 C 0.51353 0.87684 0.13554 0.0
C1399 C 0.54698 0.87747 0.12373 0.0
C1400 C 0.56763 0.86999 0.12392 0.0
C1401 C 0.50823 0.89138 0.12227 0.0
C1402 C 0.52252 0.89907 0.10965 0.0
C1403 C 0.5417 0.89208 0.11048 0.0
C1404 C 0.51763 0.91389 0.09494 0.0
C1405 C 0.48734 0.89813 0.1215 0.0
C1406 C 0.51799 0.90897 0.07516 0.0
C1407 C 0.51359 0.92291 0.06108 0.0
C1408 C 0.5089 0.9421 0.06656 0.0
C1409 C 0.50845 0.94691 0.08649 0.0
C1410 C 0.51278 0.93289 0.10057 0.0
H1411 H 0.4775 0.88847 0.12997 0.0
H1412 H 0.48632 0.91304 0.12765 0.0
H1413 H 0.48215 0.89874 0.10619 0.0
H1414 H 0.52172 0.89432 0.07062 0.0
H1415 H 0.51424 0.91867 0.0459 0.0
H1416 H 0.19147 0.52303 0.16919 0.0
H1417 H 0.1658 0.52363 0.14454 0.0
H1418 H 0.13932 0.473 0.17066 0.0
H1419 H 0.16528 0.47195 0.1951 0.0
H1420 H 0.14322 0.47125 0.12957 0.0
H1421 H 0.10882 0.54011 0.15434 0.0
H1422 H 0.13458 0.54181 0.15008 0.0
H1423 H 0.1256 0.52646 0.16929 0.0
C1424 C 0.18028 0.51192 0.16958 0.0
C1425 C 0.18033 0.49745 0.18406 0.0
C1426 C 0.16554 0.51242 0.15565 0.0
C1427 C 0.15059 0.49854 0.15605 0.0
C1428 C 0.15071 0.48391 0.17029 0.0
H1429 H 0.04285 0.50336 0.09083 0.0
H1430 H 0.06747 0.50131 0.11634 0.0
C1431 C 0.16545 0.48341 0.18425 0.0
C1432 C 0.13499 0.49911 0.14135 0.0
H1433 H 0.09821 0.52748 0.12389 0.0
C1434 C 0.1333 0.48347 0.12835 0.0
C1435 C 0.122 0.51501 0.14005 0.0
C1436 C 0.12266 0.53174 0.15428 0.0
C1437 C 0.11912 0.48351 0.11368 0.0
C1438 C 0.1066 0.49974 0.11193 0.0
C1439 C 0.10801 0.51517 0.12522 0.0
C1440 C 0.09186 0.50097 0.09642 0.0
C1441 C 0.11754 0.46614 0.1003 0.0
C1442 C 0.09756 0.50174 0.07683 0.0
C1443 C 0.08356 0.50291 0.06217 0.0
C1444 C 0.06363 0.50343 0.0669 0.0
C1445 C 0.05805 0.50295 0.08662 0.0
C1446 C 0.07207 0.50178 0.10124 0.0
H1447 H 0.12482 0.4531 0.10652 0.0
H1448 H 0.10206 0.46253 0.09733 0.0
H1449 H 0.12467 0.46962 0.08622 0.0
H1450 H 0.11283 0.5015 0.0729 0.0
H1451 H 0.08842 0.50334 0.04717 0.0
H1452 H 0.48167 0.84894 0.8085 0.0
H1453 H 0.48347 0.87355 0.83402 0.0
H1454 H 0.45075 0.83638 0.87261 0.0
H1455 H 0.44826 0.81174 0.8469 0.0
H1456 H 0.45041 0.89121 0.85976 0.0
H1457 H 0.50786 0.84753 0.89701 0.0
H1458 H 0.50252 0.84459 0.87142 0.0
H1459 H 0.4859 0.83539 0.88933 0.0
C1460 C 0.47431 0.84616 0.82218 0.0
C1461 C 0.46486 0.82831 0.82567 0.0
C1462 C 0.47549 0.86022 0.83677 0.0
C1463 C 0.46738 0.85661 0.85512 0.0
C1464 C 0.45719 0.83926 0.85849 0.0
H1465 H 0.48662 0.91898 0.96334 0.0
H1466 H 0.47789 0.89485 0.9388 0.0
C1467 C 0.45588 0.82521 0.84384 0.0
C1468 C 0.47095 0.87045 0.87108 0.0
H1469 H 0.49989 0.87781 0.91072 0.0
C1470 C 0.46111 0.88831 0.87102 0.0
C1471 C 0.48492 0.86646 0.88562 0.0
C1472 C 0.49605 0.84751 0.88595 0.0
C1473 C 0.46493 0.90243 0.88526 0.0
C1474 C 0.47935 0.89868 0.89951 0.0
C1475 C 0.48892 0.88064 0.89972 0.0
C1476 C 0.48489 0.91333 0.91425 0.0
C1477 C 0.45336 0.92111 0.88504 0.0
C1478 C 0.49218 0.93154 0.90854 0.0
C1479 C 0.49715 0.94543 0.92252 0.0
C1480 C 0.49515 0.94122 0.94247 0.0
C1481 C 0.48843 0.9227 0.94812 0.0
C1482 C 0.48334 0.9089 0.93412 0.0
H1483 H 0.43938 0.91935 0.87709 0.0
H1484 H 0.45018 0.9262 0.90006 0.0
H1485 H 0.46191 0.93256 0.8775 0.0
H1486 H 0.49401 0.93502 0.89326 0.0
H1487 H 0.50244 0.95947 0.91766 0.0
H1488 H 0.15977 0.48962 0.80739 0.0
H1489 H 0.13466 0.4915 0.83252 0.0
H1490 H 0.17364 0.4648 0.87384 0.0
H1491 H 0.1988 0.46236 0.84865 0.0
H1492 H 0.11868 0.45987 0.85906 0.0
H1493 H 0.15785 0.52076 0.89572 0.0
H1494 H 0.16236 0.51421 0.87064 0.0
H1495 H 0.17169 0.49927 0.88993 0.0
C1496 C 0.16288 0.48367 0.82167 0.0
C1497 C 0.18132 0.47591 0.82606 0.0
C1498 C 0.14855 0.48488 0.83601 0.0
C1499 C 0.15248 0.47848 0.85497 0.0
C1500 C 0.17052 0.46999 0.85927 0.0
H1501 H 0.08853 0.49278 0.9627 0.0
H1502 H 0.11315 0.48625 0.93794 0.0
C1503 C 0.18485 0.46868 0.84491 0.0
C1504 C 0.13802 0.48172 0.87046 0.0
H1505 H 0.12856 0.51019 0.91001 0.0
C1506 C 0.12079 0.47081 0.87027 0.0
C1507 C 0.14097 0.49602 0.88495 0.0
C1508 C 0.15915 0.50838 0.88538 0.0
C1509 C 0.10635 0.47374 0.8844 0.0
C1510 C 0.10914 0.48831 0.89872 0.0
C1511 C 0.12649 0.49908 0.89897 0.0
C1512 C 0.09422 0.49264 0.91358 0.0
C1513 C 0.08843 0.46102 0.88408 0.0
C1514 C 0.07558 0.49886 0.90804 0.0
C1515 C 0.06142 0.50257 0.92214 0.0
C1516 C 0.06576 0.50034 0.94204 0.0
C1517 C 0.08468 0.4947 0.94752 0.0
C1518 C 0.09877 0.49089 0.9334 0.0
H1519 H 0.09098 0.44732 0.87586 0.0
H1520 H 0.08366 0.45727 0.89907 0.0
H1521 H 0.0764 0.46898 0.87679 0.0
H1522 H 0.07197 0.5008 0.89281 0.0
H1523 H 0.04707 0.50705 0.9174 0.0
H1524 H 0.48002 0.15716 0.8041 0.0
H1525 H 0.48255 0.13121 0.8282 0.0
H1526 H 0.45726 0.16887 0.87166 0.0
H1527 H 0.4538 0.19465 0.84738 0.0
H1528 H 0.50521 0.13483 0.86048 0.0
H1529 H 0.42918 0.11791 0.88194 0.0
H1530 H 0.43507 0.1313 0.86007 0.0
H1531 H 0.43496 0.14336 0.88333 0.0
C1532 C 0.47433 0.15973 0.81859 0.0
C1533 C 0.46673 0.178 0.82384 0.0
C1534 C 0.47596 0.14492 0.83238 0.0
C1535 C 0.47 0.1481 0.85166 0.0
C1536 C 0.46164 0.16601 0.85678 0.0
H1537 H 0.48901 0.08856 0.96083 0.0
H1538 H 0.48212 0.11226 0.93518 0.0
C1539 C 0.45989 0.1808 0.84295 0.0
C1540 C 0.47448 0.13348 0.86678 0.0
H1541 H 0.4543 0.10562 0.90264 0.0
C1542 C 0.49406 0.1283 0.86958 0.0
C1543 C 0.4599 0.12512 0.87867 0.0
C1544 C 0.43858 0.12955 0.87576 0.0
C1545 C 0.4995 0.11517 0.8842 0.0
C1546 C 0.48495 0.10697 0.89618 0.0
C1547 C 0.46538 0.11208 0.8934 0.0
C1548 C 0.48979 0.09287 0.91158 0.0
C1549 C 0.52077 0.11042 0.887 0.0
C1550 C 0.49645 0.07424 0.90667 0.0
C1551 C 0.50041 0.06065 0.92124 0.0
C1552 C 0.49778 0.06553 0.94097 0.0
C1553 C 0.49137 0.08437 0.94581 0.0
C1554 C 0.48731 0.0979 0.9312 0.0
H1555 H 0.5304 0.12078 0.87913 0.0
H1556 H 0.52462 0.11062 0.90271 0.0
H1557 H 0.52369 0.09555 0.88138 0.0
H1558 H 0.49828 0.07011 0.89155 0.0
H1559 H 0.50532 0.04628 0.91699 0.0
H1560 H 0.80735 0.48222 0.84827 0.0
H1561 H 0.83304 0.48419 0.87267 0.0
H1562 H 0.87217 0.45352 0.83437 0.0
H1563 H 0.84629 0.45086 0.80991 0.0
H1564 H 0.85953 0.45188 0.88955 0.0
H1565 H 0.89548 0.51059 0.84643 0.0
H1566 H 0.87005 0.50461 0.84337 0.0
H1567 H 0.8884 0.48858 0.83402 0.0
C1568 C 0.82119 0.47534 0.84518 0.0
C1569 C 0.82477 0.46642 0.82707 0.0
C1570 C 0.83589 0.47661 0.85912 0.0
C1571 C 0.85443 0.46916 0.85515 0.0
C1572 C 0.8579 0.45948 0.83753 0.0
H1573 H 0.96241 0.48964 0.9177 0.0
H1574 H 0.93805 0.48089 0.89338 0.0
C1575 C 0.84316 0.45806 0.82359 0.0
C1576 C 0.8704 0.47285 0.86896 0.0
H1577 H 0.90951 0.50247 0.87653 0.0
C1578 C 0.87057 0.46282 0.88673 0.0
C1579 C 0.88467 0.48714 0.86508 0.0
C1580 C 0.88474 0.49849 0.84625 0.0
C1581 C 0.88477 0.46677 0.90086 0.0
C1582 C 0.89873 0.4815 0.89723 0.0
C1583 C 0.89873 0.49125 0.87928 0.0
C1584 C 0.91337 0.48719 0.91194 0.0
C1585 C 0.8848 0.455 0.91943 0.0
C1586 C 0.90752 0.49414 0.93024 0.0
C1587 C 0.9214 0.49912 0.94423 0.0
C1588 C 0.94138 0.49748 0.94004 0.0
C1589 C 0.94716 0.49116 0.92142 0.0
C1590 C 0.93326 0.48606 0.90751 0.0
H1591 H 0.87714 0.44087 0.91753 0.0
H1592 H 0.89988 0.45208 0.92448 0.0
H1593 H 0.8771 0.46327 0.93098 0.0
H1594 H 0.89222 0.49565 0.93373 0.0
H1595 H 0.91643 0.5041 0.95835 0.0
H1596 H 0.69959 0.66124 0.99695 0.0
H1597 H 0.67411 0.63677 1.00076 0.0
H1598 H 0.64031 0.66468 0.95579 0.0
H1599 H 0.66604 0.68907 0.95151 0.0
H1600 H 0.63483 0.64628 0.01109 0.0
H1601 H 0.64025 0.60574 0.9411 0.0
H1602 H 0.6598 0.62075 0.9503 0.0
H1603 H 0.63885 0.63184 0.9393 0.0
C1604 C 0.68698 0.66191 0.9875 0.0
C1605 C 0.68485 0.67701 0.97384 0.0
C1606 C 0.67238 0.64802 0.98983 0.0
C1607 C 0.65545 0.64892 0.97848 0.0
C1608 C 0.65341 0.66367 0.96451 0.0
H1609 H 0.54588 0.59051 0.00343 0.0
H1610 H 0.57114 0.61483 0.99741 0.0
C1611 C 0.66802 0.67763 0.96219 0.0
C1612 C 0.63952 0.63503 0.98219 0.0
H1613 H 0.61444 0.59711 0.96223 0.0
C1614 C 0.63031 0.63554 1.00043 0.0
C1615 C 0.63385 0.62104 0.96823 0.0
C1616 C 0.64375 0.61961 0.94866 0.0
C1617 C 0.61551 0.62231 0.00512 0.0
C1618 C 0.60973 0.60842 0.99111 0.0
C1619 C 0.61892 0.60791 0.97286 0.0
C1620 C 0.59454 0.59386 0.99532 0.0
C1621 C 0.60646 0.62299 0.02514 0.0
C1622 C 0.59942 0.57408 0.99604 0.0
C1623 C 0.58508 0.56013 0.99947 0.0
C1624 C 0.56554 0.56573 1.00211 0.0
C1625 C 0.56076 0.58566 1.00155 0.0
C1626 C 0.57516 0.5996 0.99815 0.0
H1627 H 0.6152 0.63191 0.03544 0.0
H1628 H 0.59171 0.62951 0.0241 0.0
H1629 H 0.60488 0.60809 0.03122 0.0
H1630 H 0.61434 0.56944 0.99386 0.0
H1631 H 0.58933 0.54495 0.99972 0.0
H1632 H 0.31654 0.66985 0.96036 0.0
H1633 H 0.34069 0.64373 0.96317 0.0
H1634 H 0.36628 0.6726 0.01274 0.0
H1635 H 0.34198 0.69845 0.01037 0.0
H1636 H 0.38243 0.64619 0.9628 0.0
H1637 H 0.35313 0.61703 0.03238 0.0
H1638 H 0.33944 0.63331 0.01692 0.0
H1639 H 0.35817 0.6427 0.0326 0.0
C1640 C 0.3273 0.67059 0.97187 0.0
C1641 C 0.32735 0.68614 0.98518 0.0
C1642 C 0.34109 0.65574 0.97339 0.0
C1643 C 0.355 0.65619 0.98833 0.0
C1644 C 0.35544 0.67193 1.00129 0.0
H1645 H 0.46114 0.59098 1.00217 0.0
H1646 H 0.4363 0.61598 0.99784 0.0
C1647 C 0.3417 0.68677 0.99977 0.0
C1648 C 0.36903 0.64012 0.9905 0.0
H1649 H 0.38365 0.60453 0.02189 0.0
C1650 C 0.38268 0.63699 0.97565 0.0
C1651 C 0.36904 0.62806 0.00719 0.0
C1652 C 0.35406 0.63027 0.02312 0.0
C1653 C 0.39678 0.62234 0.97729 0.0
C1654 C 0.39727 0.61079 0.99433 0.0
C1655 C 0.38329 0.6136 0.00895 0.0
C1656 C 0.41221 0.5957 0.99729 0.0
C1657 C 0.41092 0.61923 0.96076 0.0
C1658 C 0.40673 0.57612 0.99898 0.0
C1659 C 0.42085 0.56176 1.00158 0.0
C1660 C 0.4407 0.56679 0.00262 0.0
C1661 C 0.44604 0.58654 1.00134 0.0
C1662 C 0.43189 0.60086 0.99874 0.0
H1663 H 0.40563 0.62589 0.94699 0.0
H1664 H 0.42507 0.62609 0.96451 0.0
H1665 H 0.4135 0.60347 0.95826 0.0
H1666 H 0.39155 0.57193 0.99803 0.0
H1667 H 0.41617 0.54673 0.00254 0.0
H1668 H 0.34557 0.30809 0.98366 0.0
H1669 H 0.37084 0.33297 0.9863 0.0
H1670 H 0.33116 0.37599 0.96361 0.0
H1671 H 0.30581 0.35108 0.96045 0.0
H1672 H 0.38627 0.36109 0.95651 0.0
H1673 H 0.34837 0.39454 0.01998 0.0
H1674 H 0.34334 0.37004 0.01187 0.0
H1675 H 0.33407 0.39041 0.99841 0.0
C1676 C 0.34233 0.32272 0.97874 0.0
C1677 C 0.32365 0.32765 0.97192 0.0
C1678 C 0.35675 0.33691 0.98038 0.0
C1679 C 0.35269 0.35625 0.97536 0.0
C1680 C 0.3344 0.36112 0.96776 0.0
H1681 H 0.41675 0.46307 0.99333 0.0
H1682 H 0.39219 0.43847 0.98614 0.0
C1683 C 0.31996 0.34691 0.96603 0.0
C1684 C 0.36729 0.37147 0.97918 0.0
H1685 H 0.37735 0.40953 0.00941 0.0
C1686 C 0.38437 0.37174 0.96802 0.0
C1687 C 0.36464 0.38521 0.99425 0.0
C1688 C 0.3467 0.38508 0.00696 0.0
C1689 C 0.39891 0.38566 0.97143 0.0
C1690 C 0.39638 0.39927 0.98669 0.0
C1691 C 0.37921 0.39903 0.99776 0.0
C1692 C 0.41131 0.414 0.99139 0.0
C1693 C 0.41667 0.38588 0.95846 0.0
C1694 C 0.43005 0.40832 0.99717 0.0
C1695 C 0.44418 0.42233 1.00126 0.0
C1696 C 0.43972 0.44227 0.99985 0.0
C1697 C 0.42071 0.44786 0.99463 0.0
C1698 C 0.40665 0.43384 0.99044 0.0
H1699 H 0.41397 0.37818 0.94449 0.0
H1700 H 0.42131 0.40103 0.95521 0.0
H1701 H 0.42884 0.37839 0.966 0.0
H1702 H 0.43375 0.39304 0.99847 0.0
H1703 H 0.45861 0.41751 0.00541 0.0
H1704 H 0.66111 0.31049 0.9679 0.0
H1705 H 0.6358 0.33553 0.97058 0.0
H1706 H 0.67276 0.36894 0.00882 0.0
H1707 H 0.69795 0.34389 0.00651 0.0
H1708 H 0.63319 0.36196 0.02229 0.0
H1709 H 0.63738 0.3919 0.94704 0.0
H1710 H 0.63548 0.36585 0.94912 0.0
H1711 H 0.65692 0.37799 0.95784 0.0
C1712 C 0.66382 0.3232 0.97684 0.0
C1713 C 0.6815 0.32532 0.98693 0.0
C1714 C 0.64945 0.3375 0.97824 0.0
C1715 C 0.65258 0.35406 0.98975 0.0
C1716 C 0.67021 0.35626 0.99978 0.0
H1717 H 0.58849 0.46131 0.99846 0.0
H1718 H 0.61325 0.43604 0.99538 0.0
C1719 C 0.68459 0.34204 0.99833 0.0
C1720 C 0.63723 0.36884 0.99195 0.0
H1721 H 0.61237 0.40407 0.96736 0.0
C1722 C 0.62858 0.37118 0.01031 0.0
C1723 C 0.63149 0.38084 0.97627 0.0
C1724 C 0.64085 0.37921 0.95646 0.0
C1725 C 0.61415 0.38524 0.0134 0.0
C1726 C 0.60823 0.39707 0.99766 0.0
C1727 C 0.61695 0.39482 0.97933 0.0
C1728 C 0.59323 0.41218 1.00002 0.0
C1729 C 0.60556 0.3876 0.03349 0.0
C1730 C 0.57383 0.40699 0.00362 0.0
C1731 C 0.55959 0.42137 0.00539 0.0
C1732 C 0.56457 0.44117 0.00357 0.0
C1733 C 0.58412 0.44624 1.00006 0.0
C1734 C 0.5983 0.43185 0.99822 0.0
H1735 H 0.61432 0.37999 0.04477 0.0
H1736 H 0.60449 0.40325 0.03742 0.0
H1737 H 0.59063 0.38141 0.03367 0.0
H1738 H 0.56968 0.39182 0.00483 0.0
H1739 H 0.5447 0.41692 0.00807 0.0
H1740 H 0.0341 0.66149 0.69934 0.0
H1741 H 0.03231 0.63663 0.67385 0.0
H1742 H 0.00792 0.67877 0.63421 0.0
H1743 H 0.00916 0.70359 0.65967 0.0
H1744 H 0.99526 0.62652 0.65412 0.0
H1745 H 0.05373 0.6515 0.6038 0.0
H1746 H 0.05308 0.65828 0.62923 0.0
H1747 H 0.03688 0.66971 0.61222 0.0
C1748 C 0.02841 0.66548 0.68518 0.0
C1749 C 0.02175 0.68449 0.68152 0.0
C1750 C 0.0275 0.65132 0.67065 0.0
C1751 C 0.02014 0.65601 0.65221 0.0
C1752 C 0.01393 0.67503 0.64832 0.0
H1753 H 0.99807 0.59021 0.54706 0.0
H1754 H 1.00127 0.61563 0.57173 0.0
C1755 C 0.01473 0.68918 0.66285 0.0
C1756 C 0.0177 0.64069 0.63743 0.0
H1757 H 0.03384 0.62554 0.59301 0.0
C1758 C 0.00373 0.62619 0.64078 0.0
C1759 C 0.02867 0.64057 0.62005 0.0
C1760 C 0.04405 0.65575 0.61605 0.0
C1761 C 1.00024 0.61157 0.627 0.0
C1762 C 0.0114 0.61127 0.60969 0.0
C1763 C 0.02534 0.62584 0.60633 0.0
C1764 C 0.00901 0.59581 0.59497 0.0
C1765 C 0.98436 0.59688 0.6309 0.0
C1766 C 0.01244 0.57631 0.59991 0.0
C1767 C 0.01051 0.56173 0.58592 0.0
C1768 C 0.00537 0.56645 0.56665 0.0
C1769 C 1.00207 0.58606 0.56174 0.0
C1770 C 0.00389 0.60061 0.5758 0.0
H1771 H 0.97371 0.60234 0.64179 0.0
H1772 H 0.97642 0.59312 0.61732 0.0
H1773 H 0.99096 0.58336 0.6368 0.0
H1774 H 0.01686 0.57238 0.61453 0.0
H1775 H 0.01341 0.54682 0.59016 0.0
H1776 H 0.30984 0.94869 0.66076 0.0
H1777 H 0.33495 0.95191 0.63562 0.0
H1778 H 0.37271 0.98052 0.6768 0.0
H1779 H 0.34764 0.97805 0.70176 0.0
H1780 H 0.35003 0.99129 0.6256 0.0
H1781 H 0.40771 0.93905 0.648 0.0
H1782 H 0.38252 0.93633 0.6552 0.0
H1783 H 0.39766 0.95409 0.66697 0.0
C1784 C 0.32356 0.95549 0.66453 0.0
C1785 C 0.32667 0.96317 0.68328 0.0
C1786 C 0.3379 0.9572 0.6502 0.0
C1787 C 0.35565 0.96632 0.65448 0.0
C1788 C 0.35919 0.97314 0.67336 0.0
H1789 H 0.45702 0.00515 0.59109 0.0
H1790 H 0.43259 0.99721 0.61577 0.0
C1791 C 0.34484 0.97161 0.68764 0.0
C1792 C 0.36963 0.97072 0.63881 0.0
H1793 H 0.41591 0.96175 0.62328 0.0
C1794 C 0.36438 0.98472 0.62492 0.0
C1795 C 0.38835 0.96229 0.63827 0.0
C1796 C 0.39445 0.94699 0.65281 0.0
C1797 C 0.37759 0.99088 0.61064 0.0
C1798 C 0.39634 0.98239 0.61001 0.0
C1799 C 0.40152 0.96825 0.62384 0.0
C1800 C 0.41078 0.98789 0.59502 0.0
C1801 C 0.37154 0.00686 0.59679 0.0
C1802 C 0.40656 0.98528 0.57522 0.0
C1803 C 0.42036 0.98999 0.56109 0.0
C1804 C 0.43879 0.99711 0.56652 0.0
C1805 C 0.44297 0.99973 0.5864 0.0
C1806 C 0.42906 0.99516 0.60053 0.0
H1807 H 0.35925 0.01555 0.60272 0.0
H1808 H 0.38387 0.01684 0.59363 0.0
H1809 H 0.36666 1.00026 0.58287 0.0
H1810 H 0.39271 0.97924 0.57069 0.0
H1811 H 0.41673 0.98749 0.54594 0.0
H1812 H 0.99534 0.30881 0.66411 0.0
H1813 H 0.99783 0.3349 0.64009 0.0
H1814 H 0.95575 0.36872 0.67216 0.0
H1815 H 0.95284 0.34241 0.6962 0.0
H1816 H 0.95102 0.36747 0.6294 0.0
H1817 H 0.02546 0.38758 0.65399 0.0
H1818 H 0.022 0.36216 0.64876 0.0
H1819 H 0.00906 0.37315 0.66866 0.0
C1820 C 0.98629 0.32161 0.66587 0.0
C1821 C 0.97388 0.32359 0.68204 0.0
C1822 C 0.9879 0.33656 0.65225 0.0
C1823 C 0.97719 0.35375 0.6546 0.0
C1824 C 0.96422 0.35555 0.67026 0.0
H1825 H 1.0003 0.46191 0.59284 0.0
H1826 H 0.99397 0.43752 0.61797 0.0
C1827 C 0.96263 0.34058 0.68396 0.0
C1828 C 0.98006 0.37003 0.64091 0.0
H1829 H 0.01432 0.40208 0.62461 0.0
C1830 C 0.96478 0.37516 0.6284 0.0
C1831 C 0.99797 0.38011 0.63991 0.0
C1832 C 0.01454 0.37564 0.65364 0.0
C1833 C 0.9672 0.3898 0.61437 0.0
C1834 C 0.9854 0.3993 0.61282 0.0
C1835 C 1.00045 0.39459 0.62577 0.0
C1836 C 0.98925 0.41396 0.59761 0.0
C1837 C 0.9503 0.39501 0.60133 0.0
C1838 C 0.98908 0.4086 0.57792 0.0
C1839 C 0.99274 0.42243 0.56351 0.0
C1840 C 0.99671 0.44189 0.56857 0.0
C1841 C 0.99723 0.4471 0.5884 0.0
C1842 C 0.99361 0.43321 0.60279 0.0
H1843 H 0.93621 0.38996 0.60749 0.0
H1844 H 0.94953 0.41099 0.59899 0.0
H1845 H 0.9523 0.38793 0.58694 0.0
H1846 H 0.98611 0.39369 0.57371 0.0
H1847 H 0.99221 0.41787 0.54842 0.0
H1848 H 0.6908 0.96932 0.66806 0.0
H1849 H 0.66619 0.9712 0.64231 0.0
H1850 H 0.63994 0.02057 0.6709 0.0
H1851 H 0.66475 0.01915 0.69638 0.0
H1852 H 0.62506 0.96921 0.64606 0.0
H1853 H 0.64993 0.03951 0.61464 0.0
H1854 H 0.66483 0.02516 0.63088 0.0
H1855 H 0.64555 0.04004 0.64044 0.0
C1856 C 0.67986 0.98065 0.66876 0.0
C1857 C 0.67971 0.99413 0.68416 0.0
C1858 C 0.6658 0.98164 0.65414 0.0
C1859 C 0.6515 0.99619 0.65465 0.0
C1860 C 0.65108 0.00944 0.67015 0.0
H1861 H 0.54338 0.00259 0.59103 0.0
H1862 H 0.56868 1.0005 0.61587 0.0
C1863 C 0.66512 0.00846 0.68478 0.0
C1864 C 0.63686 0.9974 0.63903 0.0
H1865 H 0.61976 0.0271 0.6031 0.0
C1866 C 0.62391 0.98181 0.6366 0.0
C1867 C 0.63565 0.01379 0.62664 0.0
C1868 C 0.64983 0.03052 0.6281 0.0
C1869 C 0.60943 0.98234 0.62225 0.0
C1870 C 0.6078 0.99902 0.6103 0.0
C1871 C 0.621 0.01444 0.61247 0.0
C1872 C 0.59256 1.00068 0.59532 0.0
C1873 C 0.59614 0.96501 0.61984 0.0
C1874 C 0.59774 1.00202 0.57563 0.0
C1875 C 0.58335 0.00334 0.56136 0.0
C1876 C 0.56354 0.00342 0.56659 0.0
C1877 C 0.55847 0.00247 0.58643 0.0
C1878 C 0.57288 1.00115 0.60067 0.0
H1879 H 0.60223 0.95174 0.62682 0.0
H1880 H 0.5819 0.96821 0.62678 0.0
H1881 H 0.59349 0.9619 0.60418 0.0
H1882 H 0.61291 1.0018 0.5713 0.0
H1883 H 0.58783 0.00412 0.54625 0.0
H1884 H 0.00285 0.30629 0.34635 0.0
H1885 H 0.0052 0.3313 0.37152 0.0
H1886 H 0.9589 0.36358 0.34398 0.0
H1887 H 0.95609 0.3383 0.31894 0.0
H1888 H 0.01372 0.37104 0.36388 0.0
H1889 H 0.94309 0.36121 0.40231 0.0
H1890 H 0.95341 0.34274 0.38668 0.0
H1891 H 0.9416 0.3636 0.37627 0.0
C1892 C 0.99285 0.31847 0.34589 0.0
C1893 C 0.9792 0.3203 0.33074 0.0
C1894 C 0.99433 0.3328 0.36017 0.0
C1895 C 0.98213 0.34914 0.35963 0.0
C1896 C 0.96826 0.35091 0.34475 0.0
H1897 H 1.00021 0.45905 0.41909 0.0
H1898 H 0.996 0.43342 0.39482 0.0
C1899 C 0.96678 0.33657 0.3304 0.0
C1900 C 0.98473 0.36479 0.37408 0.0
H1901 H 0.96229 0.38833 0.41161 0.0
C1902 C 0.00251 0.37485 0.37434 0.0
C1903 C 0.97008 0.36952 0.38772 0.0
C1904 C 0.951 0.35863 0.38843 0.0
C1905 C 0.00601 0.38968 0.38789 0.0
C1906 C 0.99124 0.39465 0.40131 0.0
C1907 C 0.9735 0.3845 0.40115 0.0
C1908 C 0.99406 0.41011 0.41592 0.0
C1909 C 0.02558 0.39969 0.38798 0.0
C1910 C 0.99414 0.40542 0.43577 0.0
C1911 C 0.99651 0.41999 0.44971 0.0
C1912 C 0.99871 0.43955 0.44402 0.0
C1913 C 0.99863 0.44416 0.42403 0.0
C1914 C 0.99629 0.42954 0.41011 0.0
H1915 H 0.03667 0.39135 0.37966 0.0
H1916 H 0.02413 0.41428 0.38117 0.0
H1917 H 0.03089 0.40176 0.40312 0.0
H1918 H 0.99238 0.39045 0.44047 0.0
H1919 H 0.99641 0.41587 0.46494 0.0
H1920 H 0.65711 0.94941 0.31246 0.0
H1921 H 0.6317 0.95378 0.33725 0.0
H1922 H 0.67157 0.98723 0.37236 0.0
H1923 H 0.69686 0.98325 0.34769 0.0
H1924 H 0.63325 0.94609 0.38128 0.0
H1925 H 0.62268 0.0232 0.35867 0.0
H1926 H 0.63391 0.00527 0.34304 0.0
H1927 H 0.64742 0.01564 0.36286 0.0
C1928 C 0.66049 0.95752 0.32556 0.0
C1929 C 0.67894 0.96603 0.32812 0.0
C1930 C 0.64603 0.95993 0.33969 0.0
C1931 C 0.64982 0.97098 0.35642 0.0
C1932 C 0.66843 0.97874 0.35943 0.0
H1933 H 0.58647 0.99167 0.4625 0.0
H1934 H 0.61058 0.98394 0.43755 0.0
C1935 C 0.68289 0.9763 0.3454 0.0
C1936 C 0.63409 0.97543 0.37029 0.0
H1937 H 0.60611 0.01285 0.38709 0.0
C1938 C 0.62721 0.96063 0.38254 0.0
C1939 C 0.62621 0.99438 0.37163 0.0
C1940 C 0.63277 0.01056 0.35828 0.0
C1941 C 0.61288 0.96448 0.39657 0.0
C1942 C 0.60547 0.98361 0.39836 0.0
C1943 C 0.61199 0.99826 0.38573 0.0
C1944 C 0.59101 0.98876 0.41336 0.0
C1945 C 0.60569 0.9481 0.40934 0.0
C1946 C 0.57225 0.99461 0.40788 0.0
C1947 C 0.55842 0.99914 0.42207 0.0
C1948 C 0.56321 0.99805 0.44197 0.0
C1949 C 0.58226 0.99272 0.44733 0.0
C1950 C 0.59603 0.98811 0.43312 0.0
H1951 H 0.60959 0.93361 0.4033 0.0
H1952 H 0.6124 0.94942 0.42398 0.0
H1953 H 0.58963 0.94885 0.41114 0.0
H1954 H 0.56823 0.99535 0.39264 0.0
H1955 H 0.54393 0.00326 0.41741 0.0
H1956 H 0.01915 0.69911 0.34925 0.0
H1957 H 0.01614 0.6735 0.3737 0.0
H1958 H 0.05423 0.63662 0.34007 0.0
H1959 H 0.05766 0.66241 0.31557 0.0
H1960 H 1.00122 0.63502 0.3628 0.0
H1961 H 0.0742 0.6333 0.39819 0.0
H1962 H 0.0652 0.65451 0.38547 0.0
H1963 H 0.0735 0.63376 0.37197 0.0
C1964 C 0.02738 0.68579 0.34731 0.0
C1965 C 0.0387 0.68277 0.33051 0.0
C1966 C 0.02549 0.67113 0.36121 0.0
C1967 C 0.03499 0.65328 0.35864 0.0
C1968 C 0.04693 0.65042 0.34232 0.0
H1969 H 0.00527 0.54477 0.41761 0.0
H1970 H 0.01252 0.56936 0.39287 0.0
C1971 C 0.04879 0.66508 0.32833 0.0
C1972 C 0.03103 0.63719 0.37227 0.0
H1973 H 0.05128 0.60973 0.40834 0.0
C1974 C 0.01215 0.6294 0.37272 0.0
C1975 C 0.04537 0.63006 0.38514 0.0
C1976 C 0.06571 0.63835 0.38537 0.0
C1977 C 0.00715 0.61466 0.38591 0.0
C1978 C 0.02148 0.60753 0.39881 0.0
C1979 C 0.04041 0.61524 0.39829 0.0
C1980 C 0.01684 0.59269 0.41359 0.0
C1981 C 0.9865 0.60714 0.38633 0.0
C1982 C 0.01693 0.59777 0.43333 0.0
C1983 C 0.01274 0.58384 0.4475 0.0
C1984 C 0.00854 0.5645 0.44215 0.0
C1985 C 0.00837 0.55951 0.42226 0.0
C1986 C 0.0125 0.57352 0.4081 0.0
H1987 H 0.97647 0.61646 0.3777 0.0
H1988 H 0.98613 0.59222 0.38015 0.0
H1989 H 0.98107 0.60633 0.40155 0.0
H1990 H 0.02026 0.61254 0.43778 0.0
H1991 H 0.01314 0.58823 0.46264 0.0
H1992 H 0.30427 0.97982 0.34914 0.0
H1993 H 0.32916 0.98242 0.37437 0.0
H1994 H 0.37075 0.95453 0.33653 0.0
H1995 H 0.34577 0.95134 0.31125 0.0
H1996 H 0.35655 0.9518 0.39171 0.0
H1997 H 0.39132 0.01191 0.34965 0.0
H1998 H 0.36637 0.00458 0.34567 0.0
H1999 H 0.38591 0.9897 0.33681 0.0
C2000 C 0.31852 0.97369 0.34634 0.0
C2001 C 0.32307 0.96546 0.32812 0.0
C2002 C 0.33274 0.97531 0.36074 0.0
C2003 C 0.35174 0.96887 0.35713 0.0
C2004 C 0.35614 0.95974 0.33941 0.0
H2005 H 0.45939 0.98927 0.41936 0.0
H2006 H 0.43459 0.98095 0.39537 0.0
C2007 C 0.3419 0.95801 0.32501 0.0
C2008 C 0.36723 0.97309 0.37135 0.0
H2009 H 0.40592 0.00315 0.37935 0.0
C2010 C 0.36742 0.96296 0.38906 0.0
C2011 C 0.38126 0.98768 0.36771 0.0
C2012 C 0.38127 0.99924 0.349 0.0
C2013 C 0.38152 0.96696 0.40329 0.0
C2014 C 0.39538 0.98182 0.39979 0.0
C2015 C 0.39523 0.99182 0.38198 0.0
C2016 C 0.41025 0.98721 0.41438 0.0
C2017 C 0.38165 0.95502 0.42175 0.0
C2018 C 0.40474 0.99396 0.43286 0.0
C2019 C 0.41888 0.9987 0.44668 0.0
C2020 C 0.43879 0.99702 0.44214 0.0
C2021 C 0.44421 0.99084 0.42336 0.0
C2022 C 0.43006 0.98599 0.40963 0.0
H2023 H 0.37385 0.94097 0.41983 0.0
H2024 H 0.39677 0.95193 0.42658 0.0
H2025 H 0.37418 0.96327 0.43347 0.0
H2026 H 0.3895 0.99551 0.43662 0.0
H2027 H 0.41419 0.00355 0.46094 0.0
H2028 H 0.0234 0.18936 0.32787 0.0
H2029 H 0.02305 0.16696 0.3555 0.0
H2030 H 0.99839 0.12219 0.31907 0.0
H2031 H 0.99902 0.14447 0.29113 0.0
H2032 H 0.98985 0.1482 0.37173 0.0
H2033 H 0.04482 0.09475 0.346 0.0
H2034 H 0.04255 0.1188 0.33559 0.0
H2035 H 0.02556 0.10001 0.32907 0.0
C2036 C 0.01827 0.17463 0.32556 0.0
C2037 C 0.01144 0.1687 0.30713 0.0
C2038 C 0.01792 0.16188 0.34147 0.0
C2039 C 0.01088 0.14282 0.33937 0.0
C2040 C 0.00416 0.13675 0.32101 0.0
H2041 H 0.99575 0.04418 0.41653 0.0
H2042 H 0.99716 0.06701 0.38944 0.0
C2043 C 0.0044 0.14955 0.30506 0.0
C2044 C 0.01 0.1296 0.35658 0.0
H2045 H 0.02758 0.08673 0.37475 0.0
C2046 C 0.99815 0.13479 0.37244 0.0
C2047 C 0.02082 0.1121 0.3575 0.0
C2048 C 0.0343 0.10608 0.34123 0.0
C2049 C 0.99647 0.12276 0.38898 0.0
C2050 C 0.00732 0.10524 0.38994 0.0
C2051 C 0.01927 0.10013 0.37409 0.0
C2052 C 0.00609 0.09166 0.4069 0.0
C2053 C 0.98261 0.12866 0.40498 0.0
C2054 C 0.01069 0.09779 0.42592 0.0
C2055 C 0.00977 0.0847 0.44163 0.0
C2056 C 0.0045 0.06512 0.43861 0.0
C2057 C 0.99997 0.05908 0.41952 0.0
C2058 C 1.00077 0.07216 0.40392 0.0
H2059 H 0.97163 0.13933 0.39974 0.0
H2060 H 0.97485 0.11581 0.41101 0.0
H2061 H 0.99095 0.13561 0.41694 0.0
H2062 H 0.01528 0.11263 0.4286 0.0
H2063 H 0.01353 0.08986 0.45606 0.0
H2064 H 0.82364 0.02798 0.32059 0.0
H2065 H 0.84593 0.03106 0.34823 0.0
H2066 H 0.87481 0.97808 0.33098 0.0
H2067 H 0.85262 0.97492 0.30328 0.0
H2068 H 0.86497 0.97823 0.36994 0.0
H2069 H 0.90309 0.0468 0.35047 0.0
H2070 H 0.87701 0.04866 0.35078 0.0
H2071 H 0.8887 0.03325 0.33314 0.0
C2072 C 0.83503 0.01723 0.32238 0.0
C2073 C 0.83632 1.00121 0.30963 0.0
C2074 C 0.84775 0.01899 0.33826 0.0
C2075 C 0.86217 0.00487 0.34168 0.0
C2076 C 0.86379 0.98914 0.32871 0.0
H2077 H 0.96228 0.00746 0.41692 0.0
H2078 H 0.93874 0.00765 0.39049 0.0
C2079 C 0.85108 0.98735 0.31286 0.0
C2080 C 0.87498 0.00594 0.3592 0.0
H2081 H 0.90945 0.03387 0.38182 0.0
C2082 C 0.87468 0.99042 0.37255 0.0
C2083 C 0.88774 0.02178 0.36258 0.0
C2084 C 0.88935 0.0385 0.34842 0.0
C2085 C 0.88679 0.99026 0.3891 0.0
C2086 C 0.89939 0.0062 0.39259 0.0
C2087 C 0.89965 0.02175 0.37927 0.0
C2088 C 0.91343 0.00639 0.40917 0.0
C2089 C 0.88644 0.97274 0.40236 0.0
C2090 C 0.9071 0.00582 0.42866 0.0
C2091 C 0.92063 0.00566 0.44402 0.0
C2092 C 0.94078 0.00611 0.44018 0.0
C2093 C 0.94695 0.00696 0.4206 0.0
C2094 C 0.93347 0.00715 0.40536 0.0
H2095 H 0.87919 0.96005 0.39542 0.0
H2096 H 0.90143 0.96845 0.40661 0.0
H2097 H 0.87828 0.97641 0.41582 0.0
H2098 H 0.89169 0.00557 0.43201 0.0
H2099 H 0.91529 0.00509 0.45885 0.0
H2100 H 0.97775 0.81818 0.32881 0.0
H2101 H 0.97634 0.84062 0.35657 0.0
H2102 H 0.01571 0.87964 0.32714 0.0
H2103 H 0.01721 0.85728 0.29931 0.0
H2104 H 0.01163 0.85446 0.3788 0.0
H2105 H 0.96775 0.91392 0.34576 0.0
H2106 H 0.96717 0.88922 0.33669 0.0
H2107 H 0.9876 0.90462 0.33138 0.0
C2108 C 0.98582 0.83171 0.32807 0.0
C2109 C 0.99751 0.83597 0.31175 0.0
C2110 C 0.98512 0.84444 0.34403 0.0
C2111 C 0.99585 0.86184 0.34392 0.0
C2112 C 0.0072 0.86636 0.3275 0.0
H2113 H 0.01357 0.96046 0.41966 0.0
H2114 H 0.01205 0.93668 0.39341 0.0
C2115 C 0.00808 0.85354 0.31162 0.0
C2116 C 0.99577 0.87496 0.36122 0.0
H2117 H 0.98169 0.92012 0.3766 0.0
C2118 C 0.00498 0.86878 0.37841 0.0
C2119 C 0.98717 0.89363 0.36065 0.0
C2120 C 0.97672 0.90081 0.34271 0.0
C2121 C 0.00635 0.88102 0.39484 0.0
C2122 C 0.99777 0.89979 0.39429 0.0
C2123 C 0.98828 0.90578 0.37713 0.0
C2124 C 0.99916 0.91385 0.4109 0.0
C2125 C 0.01765 0.87397 0.41232 0.0
C2126 C 0.99248 0.90907 0.42971 0.0
C2127 C 0.99355 0.92269 0.44497 0.0
C2128 C 1.00099 0.9415 0.44165 0.0
C2129 C 0.00763 0.94619 0.42281 0.0
C2130 C 0.00676 0.93256 0.4077 0.0
H2131 H 0.02771 0.8619 0.40846 0.0
H2132 H 0.02628 0.88595 0.41892 0.0
H2133 H 0.00733 0.86841 0.42344 0.0
H2134 H 0.98609 0.89494 0.43254 0.0
H2135 H 0.9881 0.91865 0.45921 0.0
H2136 H 0.14804 0.98468 0.29771 0.0
H2137 H 0.12564 0.98617 0.32544 0.0
H2138 H 0.1635 0.02748 0.35381 0.0
H2139 H 0.18565 0.02638 0.32595 0.0
H2140 H 0.13207 0.97558 0.36197 0.0
H2141 H 0.11227 0.05377 0.36203 0.0
H2142 H 0.12478 0.04249 0.34187 0.0
H2143 H 0.13807 0.04995 0.36321 0.0
C2144 C 0.15142 0.99431 0.30973 0.0
C2145 C 0.16856 0.00553 0.30952 0.0
C2146 C 0.13862 0.99513 0.32561 0.0
C2147 C 0.14267 0.00713 0.34171 0.0
C2148 C 0.15968 0.01853 0.34141 0.0
H2149 H 0.08818 0.01412 0.45754 0.0
H2150 H 0.11159 0.01509 0.43043 0.0
C2151 C 0.17238 0.01787 0.32544 0.0
C2152 C 0.12973 0.00675 0.35921 0.0
H2153 H 0.10301 0.03545 0.39003 0.0
C2154 C 0.12568 0.98869 0.36801 0.0
C2155 C 0.12136 0.02384 0.36724 0.0
C2156 C 0.12417 0.04358 0.35799 0.0
C2157 C 0.11364 0.98728 0.38452 0.0
C2158 C 0.1054 0.00434 0.39253 0.0
C2159 C 0.10953 0.02241 0.38394 0.0
C2160 C 0.09151 0.00349 0.40912 0.0
C2161 C 0.10975 0.96756 0.39337 0.0
C2162 C 0.07252 0.99666 0.4061 0.0
C2163 C 0.05913 0.9962 0.42144 0.0
C2164 C 0.06446 0.00245 0.44024 0.0
C2165 C 0.08362 0.00906 0.44331 0.0
C2166 C 0.09699 0.00972 0.42783 0.0
H2167 H 0.11965 0.9562 0.38748 0.0
H2168 H 0.11143 0.96816 0.40945 0.0
H2169 H 0.09452 0.96319 0.39018 0.0
H2170 H 0.06798 0.99185 0.39177 0.0
H2171 H 0.04455 0.99093 0.41851 0.0
H2172 H 0.97196 0.8325 0.69186 0.0
H2173 H 0.97031 0.85414 0.66358 0.0
H2174 H 0.02585 0.87888 0.6791 0.0
H2175 H 0.02757 0.85742 0.7075 0.0
H2176 H 0.97118 0.8944 0.6593 0.0
H2177 H 0.03498 0.86072 0.62309 0.0
H2178 H 0.02299 0.84971 0.64374 0.0
H2179 H 0.03999 0.86931 0.64727 0.0
C2180 C 0.98368 0.84279 0.68951 0.0
C2181 C 0.99997 0.84306 0.70198 0.0
C2182 C 0.98277 0.85507 0.6732 0.0
C2183 C 0.99817 0.86784 0.6689 0.0
C2184 C 0.01403 0.86879 0.68178 0.0
H2185 H 1.00059 0.96694 0.59169 0.0
H2186 H 0.99907 0.94421 0.61877 0.0
C2187 C 0.01496 0.85653 0.69808 0.0
C2188 C 0.99773 0.88003 0.65089 0.0
H2189 H 0.02294 0.89004 0.60905 0.0
C2190 C 0.98245 0.89337 0.64828 0.0
C2191 C 0.01222 0.87847 0.63626 0.0
C2192 C 0.02838 0.86365 0.63757 0.0
C2193 C 0.98162 0.9056 0.63183 0.0
C2194 C 0.99661 0.90468 0.61766 0.0
C2195 C 0.01154 0.8909 0.61995 0.0
C2196 C 0.99746 0.9184 0.6008 0.0
C2197 C 0.96459 0.91932 0.62973 0.0
C2198 C 0.99765 0.91152 0.5815 0.0
C2199 C 0.99864 0.92459 0.56576 0.0
C2200 C 0.99964 0.94482 0.56901 0.0
C2201 C 0.99971 0.95154 0.58843 0.0
C2202 C 0.9987 0.93852 0.60406 0.0
H2203 H 0.9518 0.91426 0.63826 0.0
H2204 H 0.96879 0.93389 0.6353 0.0
H2205 H 0.96021 0.92088 0.61423 0.0
H2206 H 0.99687 0.89604 0.57861 0.0
H2207 H 0.99862 0.91881 0.55108 0.0
H2208 H 0.18784 0.02741 0.67986 0.0
H2209 H 0.16526 0.02885 0.65221 0.0
H2210 H 0.12592 0.99023 0.6822 0.0
H2211 H 0.14844 0.98866 0.70991 0.0
H2212 H 0.15027 0.99173 0.6312 0.0
H2213 H 0.09311 0.04 0.66231 0.0
H2214 H 0.11808 0.0406 0.67063 0.0
H2215 H 0.10249 0.02084 0.67759 0.0
C2216 C 0.17422 0.01952 0.68075 0.0
C2217 C 0.16992 0.00798 0.69717 0.0
C2218 C 0.1614 0.02024 0.66486 0.0
C2219 C 0.1439 0.00969 0.66516 0.0
C2220 C 0.13931 0.99856 0.6817 0.0
H2221 H 0.04454 0.99496 0.58941 0.0
H2222 H 0.06805 0.99611 0.61595 0.0
C2223 C 0.15221 0.99764 0.6975 0.0
C2224 C 0.13078 0.00965 0.6479 0.0
H2225 H 0.0866 0.02577 0.63174 0.0
C2226 C 0.13639 0.99925 0.63122 0.0
C2227 C 0.11266 0.01936 0.64804 0.0
C2228 C 0.10614 0.03096 0.66552 0.0
C2229 C 0.1241 0.99786 0.61484 0.0
C2230 C 0.10592 0.00765 0.6149 0.0
C2231 C 0.10049 0.01827 0.63158 0.0
C2232 C 0.09194 0.00653 0.59822 0.0
C2233 C 0.13045 0.9853 0.59796 0.0
C2234 C 0.09739 0.012 0.57921 0.0
C2235 C 0.08394 0.01112 0.56382 0.0
C2236 C 0.06462 0.00512 0.56716 0.0
C2237 C 0.05923 0.99976 0.58622 0.0
C2238 C 0.0727 1.00042 0.6015 0.0
H2239 H 0.14171 0.97456 0.60242 0.0
H2240 H 0.11794 0.97728 0.5916 0.0
H2241 H 0.13688 0.99467 0.58647 0.0
H2242 H 0.11196 0.01726 0.57631 0.0
H2243 H 0.08855 0.01557 0.5494 0.0
H2244 H 0.02646 0.19147 0.67788 0.0
H2245 H 0.02565 0.16998 0.64953 0.0
H2246 H 0.99734 0.12566 0.68385 0.0
H2247 H 0.99799 0.14716 0.71231 0.0
H2248 H 0.04063 0.13411 0.642 0.0
H2249 H 0.96008 0.13092 0.63857 0.0
H2250 H 0.97285 0.14799 0.65393 0.0
H2251 H 0.96964 0.12314 0.66161 0.0
C2252 C 0.02032 0.17704 0.67953 0.0
C2253 C 0.01224 0.17109 0.69744 0.0
C2254 C 0.01975 0.1648 0.66322 0.0
C2255 C 0.01105 0.14633 0.66437 0.0
C2256 C 0.00364 0.14004 0.68241 0.0
H2257 H 0.99443 0.04821 0.58846 0.0
H2258 H 0.99638 0.07177 0.61488 0.0
C2259 C 0.0041 0.15232 0.69871 0.0
C2260 C 0.00963 0.13376 0.64669 0.0
H2261 H 0.97731 0.10896 0.61801 0.0
C2262 C 0.02677 0.12874 0.63667 0.0
C2263 C 0.99153 0.12686 0.63958 0.0
C2264 C 0.97246 0.13265 0.64885 0.0
C2265 C 0.02634 0.11653 0.62019 0.0
C2266 C 0.00829 0.10928 0.61341 0.0
C2267 C 0.99114 0.11452 0.62323 0.0
C2268 C 0.00696 0.09532 0.59686 0.0
C2269 C 0.04526 0.11094 0.61051 0.0
C2270 C 0.01197 0.10078 0.57776 0.0
C2271 C 0.0108 0.08727 0.56243 0.0
C2272 C 0.00469 0.06802 0.56597 0.0
C2273 C 0.9994 0.0628 0.58511 0.0
C2274 C 1.00044 0.07629 0.60031 0.0
H2275 H 0.0581 0.11498 0.61948 0.0
H2276 H 0.04568 0.09502 0.60767 0.0
H2277 H 0.04642 0.11853 0.59629 0.0
H2278 H 0.01678 0.11549 0.57471 0.0
H2279 H 0.01497 0.09182 0.54791 0.0
H2280 H 0.86104 0.01412 0.71496 0.0
H2281 H 0.88283 0.0167 0.68662 0.0
H2282 H 0.84111 0.98556 0.65159 0.0
H2283 H 0.81931 0.98306 0.67959 0.0
H2284 H 0.89798 0.98393 0.6625 0.0
H2285 H 0.85326 0.03653 0.62027 0.0
H2286 H 0.85058 0.03333 0.64626 0.0
H2287 H 0.84056 0.01568 0.62978 0.0
C2288 C 0.8565 0.00789 0.7012 0.0
C2289 C 0.83846 0.99826 0.69964 0.0
C2290 C 0.86898 0.00932 0.68503 0.0
C2291 C 0.86352 1.00148 0.66692 0.0
C2292 C 0.84556 0.99189 0.66534 0.0
H2293 H 0.91679 0.99696 0.5508 0.0
H2294 H 0.89425 0.99534 0.57859 0.0
C2295 C 0.8332 0.9903 0.68146 0.0
C2296 C 0.87665 0.00293 0.64969 0.0
H2297 H 0.88046 0.02281 0.60415 0.0
C2298 C 0.89423 0.99252 0.64979 0.0
C2299 C 0.8716 0.01392 0.63299 0.0
C2300 C 0.85305 0.02564 0.63224 0.0
C2301 C 0.90677 0.99261 0.63357 0.0
C2302 C 0.90191 0.00387 0.61694 0.0
C2303 C 0.88424 0.0142 0.61683 0.0
C2304 C 0.91523 0.00553 0.59981 0.0
C2305 C 0.92489 0.98018 0.63424 0.0
C2306 C 0.93433 0.01235 0.6023 0.0
C2307 C 0.94719 0.01319 0.58654 0.0
C2308 C 0.94127 0.00749 0.56773 0.0
C2309 C 0.92187 1.00143 0.56505 0.0
C2310 C 0.90899 1.00045 0.58095 0.0
H2311 H 0.92341 0.96809 0.64491 0.0
H2312 H 0.92824 0.97387 0.61973 0.0
H2313 H 0.93742 0.98929 0.63885 0.0
H2314 H 0.93936 0.01696 0.61651 0.0
H2315 H 0.96189 0.01829 0.58919 0.0
H2316 H 0.33342 0.01962 0.19535 0.0
H2317 H 0.36062 0.01964 0.17244 0.0
H2318 H 0.32185 0.00247 0.12616 0.0
H2319 H 0.29435 0.00292 0.14893 0.0
H2320 H 0.3745 0.98817 0.15057 0.0
H2321 H 0.35129 0.04876 0.10238 0.0
H2322 H 0.34074 0.04476 0.12614 0.0
H2323 H 0.33331 0.03007 0.10579 0.0
C2324 C 0.33052 0.01626 0.18022 0.0
C2325 C 0.31156 0.01148 0.174 0.0
C2326 C 0.34618 0.01609 0.16716 0.0
C2327 C 0.3433 0.01127 0.14751 0.0
C2328 C 0.32441 0.00656 0.14118 0.0
H2329 H 0.41673 0.99834 0.04609 0.0
H2330 H 0.39051 0.99982 0.06988 0.0
C2331 C 0.30871 0.00666 0.15426 0.0
C2332 C 0.3602 0.01052 0.13389 0.0
H2333 H 0.37843 0.03016 0.09194 0.0
C2334 C 0.37542 0.99742 0.1378 0.0
C2335 C 0.36141 0.02258 0.11723 0.0
C2336 C 0.34592 0.03747 0.11266 0.0
C2337 C 0.39156 0.9957 0.12525 0.0
C2338 C 0.39275 0.00772 0.10853 0.0
C2339 C 0.37757 0.02094 0.10474 0.0
C2340 C 0.40919 0.0064 0.09436 0.0
C2341 C 0.40686 0.98059 0.12972 0.0
C2342 C 0.42859 0.00964 0.10011 0.0
C2343 C 0.44381 0.0087 0.08646 0.0
C2344 C 0.43991 0.00472 0.06672 0.0
C2345 C 0.42042 1.00151 0.06109 0.0
C2346 C 0.40531 1.00236 0.07471 0.0
H2347 H 0.40135 0.9693 0.13992 0.0
H2348 H 0.41194 0.9733 0.1162 0.0
H2349 H 0.41956 0.98777 0.13666 0.0
H2350 H 0.43196 0.0132 0.11509 0.0
H2351 H 0.45856 0.01141 0.09133 0.0
H2352 H 0.0302 0.31794 0.17811 0.0
H2353 H 0.03219 0.34622 0.15645 0.0
H2354 H 0.976 0.33188 0.13243 0.0
H2355 H 0.97392 0.30357 0.15396 0.0
H2356 H 0.03099 0.35065 0.11638 0.0
H2357 H 0.96813 0.38794 0.15057 0.0
H2358 H 0.97977 0.36704 0.16144 0.0
H2359 H 0.96248 0.36389 0.14201 0.0
C2360 C 0.0184 0.32058 0.16799 0.0
C2361 C 1.00182 0.3085 0.16793 0.0
C2362 C 0.0195 0.33687 0.1557 0.0
C2363 C 0.00403 0.3415 0.14313 0.0
C2364 C 0.98788 0.32897 0.14238 0.0
H2365 H 1.00157 0.41727 0.04333 0.0
H2366 H 0.00296 0.39064 0.06656 0.0
C2367 C 0.98675 0.31271 0.15466 0.0
C2368 C 0.00467 0.35949 0.13093 0.0
H2369 H 0.97987 0.40151 0.12082 0.0
C2370 C 0.01987 0.36182 0.11744 0.0
C2371 C 0.9904 0.37431 0.13254 0.0
C2372 C 0.97438 0.37332 0.14755 0.0
C2373 C 0.02079 0.37815 0.10507 0.0
C2374 C 0.00594 0.39246 0.10599 0.0
C2375 C 0.99114 0.39049 0.11996 0.0
C2376 C 0.00506 0.40907 0.092 0.0
C2377 C 0.03772 0.37995 0.09117 0.0
C2378 C 0.00513 0.42849 0.09852 0.0
C2379 C 0.00422 0.44399 0.08517 0.0
C2380 C 0.00306 0.44035 0.065 0.0
C2381 C 0.00264 0.42082 0.05866 0.0
C2382 C 0.00356 0.40545 0.07196 0.0
H2383 H 0.05049 0.37142 0.09625 0.0
H2384 H 0.03337 0.37419 0.07671 0.0
H2385 H 0.04219 0.39538 0.08935 0.0
H2386 H 0.0061 0.43166 0.11395 0.0
H2387 H 0.00453 0.45877 0.09064 0.0
H2388 H 0.67143 0.01509 0.19482 0.0
H2389 H 0.64487 0.01483 0.17124 0.0
H2390 H 0.68567 0.00244 0.12516 0.0
H2391 H 0.71248 0.00268 0.14875 0.0
H2392 H 0.63779 0.03694 0.13886 0.0
H2393 H 0.64585 0.9593 0.11805 0.0
H2394 H 0.65806 0.96964 0.13889 0.0
H2395 H 0.66758 0.97347 0.11478 0.0
C2396 C 0.67488 0.01257 0.17964 0.0
C2397 C 0.6942 0.00896 0.17374 0.0
C2398 C 0.65959 0.0123 0.16616 0.0
C2399 C 0.66315 0.00831 0.14644 0.0
C2400 C 0.68245 0.0051 0.14037 0.0
H2401 H 0.58997 1.00037 0.04376 0.0
H2402 H 0.61651 1.00163 0.06728 0.0
C2403 C 0.6978 0.0053 0.15388 0.0
C2404 C 0.64661 0.00757 0.13236 0.0
H2405 H 0.62323 0.97795 0.09983 0.0
C2406 C 0.63458 0.02401 0.13038 0.0
C2407 C 0.64231 0.99068 0.12131 0.0
C2408 C 0.654 0.9722 0.12345 0.0
C2409 C 0.61867 0.02416 0.11744 0.0
C2410 C 0.61444 0.0073 0.10636 0.0
C2411 C 0.62645 0.99086 0.10833 0.0
C2412 C 0.59796 0.00657 0.09224 0.0
C2413 C 0.60678 0.04252 0.11541 0.0
C2414 C 0.57855 0.00869 0.09843 0.0
C2415 C 0.56319 0.00795 0.08495 0.0
C2416 C 0.56692 0.00506 0.06499 0.0
C2417 C 0.58641 0.00274 0.05895 0.0
C2418 C 0.60169 0.00341 0.07241 0.0
H2419 H 0.61453 0.05541 0.12138 0.0
H2420 H 0.60318 0.04536 0.0999 0.0
H2421 H 0.59292 0.0408 0.12354 0.0
H2422 H 0.57527 0.01079 0.11371 0.0
H2423 H 0.54843 0.00975 0.0902 0.0
H2424 H 0.0229 0.70012 0.16516 0.0
H2425 H 0.02371 0.67385 0.14108 0.0
H2426 H 0.96388 0.65996 0.15407 0.0
H2427 H 0.96274 0.68659 0.17768 0.0
H2428 H 0.01837 0.6347 0.14755 0.0
H2429 H 0.96328 0.66148 0.09498 0.0
H2430 H 0.97375 0.67689 0.11352 0.0
H2431 H 0.9545 0.66018 0.11958 0.0
C2432 C 0.00974 0.69183 0.16256 0.0
C2433 C 0.99272 0.69561 0.17338 0.0
C2434 C 0.01029 0.67664 0.14891 0.0
C2435 C 0.99382 0.66495 0.1456 0.0
C2436 C 0.97671 0.66891 0.15609 0.0
H2437 H 0.99514 0.54923 0.09027 0.0
H2438 H 0.99334 0.57605 0.1138 0.0
C2439 C 0.97613 0.68408 0.16974 0.0
C2440 C 0.99481 0.64813 0.13182 0.0
H2441 H 0.97401 0.62886 0.09087 0.0
C2442 C 0.00869 0.63345 0.13513 0.0
C2443 C 0.98231 0.64651 0.1155 0.0
C2444 C 0.96774 0.66218 0.11052 0.0
C2445 C 0.01031 0.6172 0.12271 0.0
C2446 C 0.99749 0.61535 0.10665 0.0
C2447 C 0.98371 0.63011 0.10327 0.0
C2448 C 0.99872 0.59878 0.0926 0.0
C2449 C 0.02608 0.60241 0.12663 0.0
C2450 C 1.00197 0.60253 0.07277 0.0
C2451 C 0.00286 0.58728 0.0593 0.0
C2452 C 1.00047 0.56777 0.06523 0.0
C2453 C 0.99721 0.564 0.08514 0.0
C2454 C 0.99626 0.57935 0.09865 0.0
H2455 H 0.0376 0.60834 0.13632 0.0
H2456 H 0.01958 0.58953 0.13391 0.0
H2457 H 0.03294 0.59748 0.11284 0.0
H2458 H 0.0039 0.61734 0.06769 0.0
H2459 H 0.00546 0.5909 0.04416 0.0
H2460 H 0.31891 0.0425 0.83109 0.0
H2461 H 0.34596 0.04141 0.85423 0.0
H2462 H 0.33228 0.98162 0.86757 0.0
H2463 H 0.30567 0.98234 0.84392 0.0
H2464 H 0.3482 0.03423 0.89321 0.0
H2465 H 0.38942 0.97787 0.85274 0.0
H2466 H 0.3687 0.99031 0.84244 0.0
H2467 H 0.3652 0.97043 0.85914 0.0
C2468 C 0.32164 0.02908 0.8389 0.0
C2469 C 0.31013 0.01245 0.83543 0.0
C2470 C 0.3371 0.02851 0.85222 0.0
C2471 C 0.34151 0.0113 0.86235 0.0
C2472 C 0.32952 0.99494 0.8596 0.0
H2473 H 0.41545 1.00045 0.96422 0.0
H2474 H 0.3888 0.0024 0.94094 0.0
C2475 C 0.31406 0.99548 0.84626 0.0
C2476 C 0.35869 0.01048 0.87566 0.0
H2477 H 0.40133 0.98613 0.88421 0.0
C2478 C 0.35983 0.02374 0.8912 0.0
C2479 C 0.37412 0.99706 0.87287 0.0
C2480 C 0.37446 0.98323 0.85579 0.0
C2481 C 0.37565 0.02365 0.90423 0.0
C2482 C 0.39066 0.00966 0.90193 0.0
C2483 C 0.38977 0.99672 0.88613 0.0
C2484 C 0.40718 0.00805 0.91598 0.0
C2485 C 0.37626 0.03875 0.92018 0.0
C2486 C 0.42659 0.00985 0.90968 0.0
C2487 C 0.44205 0.00857 0.92302 0.0
C2488 C 0.43841 0.00539 0.94297 0.0
C2489 C 0.41893 0.00317 0.94908 0.0
C2490 C 0.40357 0.00439 0.93576 0.0
H2491 H 0.36717 0.05163 0.91653 0.0
H2492 H 0.37045 0.03232 0.93383 0.0
H2493 H 0.3914 0.04373 0.92295 0.0
H2494 H 0.42978 0.01252 0.89446 0.0
H2495 H 0.4568 0.01032 0.91773 0.0
H2496 H 0.99277 0.29694 0.86019 0.0
H2497 H 0.99359 0.32532 0.8819 0.0
H2498 H 0.03025 0.35571 0.841 0.0
H2499 H 0.02946 0.32748 0.81919 0.0
H2500 H 0.02932 0.34666 0.89751 0.0
H2501 H 0.98038 0.39139 0.85084 0.0
H2502 H 0.981 0.36513 0.84939 0.0
H2503 H 1.00049 0.37923 0.83921 0.0
C2504 C 1.0011 0.30962 0.85587 0.0
C2505 C 0.01107 0.3099 0.83794 0.0
C2506 C 1.00158 0.32581 0.8683 0.0
C2507 C 0.0118 0.34269 0.86296 0.0
C2508 C 0.02214 0.34288 0.84533 0.0
H2509 H 0.01597 0.45834 0.91795 0.0
H2510 H 0.01895 0.4311 0.89495 0.0
C2511 C 0.02183 0.32664 0.83297 0.0
C2512 C 0.01139 0.3602 0.87571 0.0
H2513 H 0.99242 0.40609 0.8794 0.0
C2514 C 0.02129 0.35967 0.89356 0.0
C2515 C 1.00107 0.37723 0.87043 0.0
C2516 C 0.99 0.37841 0.85149 0.0
C2517 C 0.02114 0.37572 0.90631 0.0
C2518 C 0.01029 0.39258 0.90134 0.0
C2519 C 1.00068 0.3932 0.88328 0.0
C2520 C 0.00812 0.40932 0.91503 0.0
C2521 C 0.0329 0.37452 0.92484 0.0
C2522 C 1.00054 0.40632 0.93377 0.0
C2523 C 0.99894 0.42177 0.94693 0.0
C2524 C 0.00458 0.44076 0.94161 0.0
C2525 C 0.0115 0.44393 0.92256 0.0
C2526 C 0.01325 0.42835 0.90941 0.0
H2527 H 0.04504 0.36391 0.92345 0.0
H2528 H 0.03907 0.38892 0.92885 0.0
H2529 H 0.02337 0.3695 0.93688 0.0
H2530 H 0.99585 0.39196 0.93829 0.0
H2531 H 0.99324 0.41875 0.96133 0.0
H2532 H 0.67938 0.02334 0.81996 0.0
H2533 H 0.65113 0.02238 0.84158 0.0
H2534 H 0.68521 0.99259 0.88505 0.0
H2535 H 0.71377 0.99376 0.86355 0.0
H2536 H 0.63272 0.98865 0.85784 0.0
H2537 H 0.6603 0.03882 0.915 0.0
H2538 H 0.6709 0.03759 0.89095 0.0
H2539 H 0.67633 0.01912 0.90865 0.0
C2540 C 0.68104 0.01688 0.83425 0.0
C2541 C 0.69901 0.00885 0.84007 0.0
C2542 C 0.66477 0.01619 0.84654 0.0
C2543 C 0.66605 0.0076 0.86503 0.0
C2544 C 0.68392 0.99954 0.87095 0.0
H2545 H 0.58746 0.99125 0.96199 0.0
H2546 H 0.61449 0.99211 0.9391 0.0
C2547 C 0.70022 1.00011 0.85859 0.0
C2548 C 0.64856 0.00679 0.87789 0.0
H2549 H 0.63056 0.02275 0.92146 0.0
C2550 C 0.63219 0.99615 0.87174 0.0
C2551 C 0.64786 0.0166 0.89599 0.0
C2552 C 0.66469 0.02883 0.90305 0.0
C2553 C 0.61537 0.99462 0.88341 0.0
C2554 C 0.61467 0.00442 0.90156 0.0
C2555 C 0.63101 0.01522 0.90758 0.0
C2556 C 0.59754 0.00313 0.91496 0.0
C2557 C 0.59878 0.98201 0.87644 0.0
C2558 C 0.57876 0.00893 0.90909 0.0
C2559 C 0.56304 0.00831 0.92223 0.0
C2560 C 0.56586 1.00217 0.94158 0.0
C2561 C 0.58466 0.99623 0.94728 0.0
C2562 C 0.60023 0.99671 0.93417 0.0
H2563 H 0.6036 0.97149 0.86513 0.0
H2564 H 0.59219 0.97377 0.8887 0.0
H2565 H 0.58736 0.99139 0.86992 0.0
H2566 H 0.57631 0.01436 0.8945 0.0
H2567 H 0.54884 0.01315 0.91738 0.0
H2568 H 0.0037 0.71535 0.86238 0.0
H2569 H 0.00547 0.68708 0.88422 0.0
H2570 H 0.98336 0.65024 0.83847 0.0
H2571 H 0.98191 0.67817 0.81653 0.0
H2572 H 0.97487 0.6608 0.89593 0.0
H2573 H 0.03369 0.62235 0.8559 0.0
H2574 H 0.02841 0.64784 0.85221 0.0
H2575 H 0.01322 0.62955 0.84128 0.0
C2576 C 0.99927 0.70123 0.85695 0.0
C2577 C 0.99259 0.69914 0.83766 0.0
C2578 C 1.00023 0.68508 0.86947 0.0
C2579 C 0.99481 0.66646 0.86292 0.0
C2580 C 0.9879 0.66438 0.8438 0.0
H2581 H 0.99412 0.55037 0.91689 0.0
H2582 H 0.99175 0.57779 0.89401 0.0
C2583 C 0.98684 0.68047 0.83133 0.0
C2584 C 0.99614 0.64921 0.87607 0.0
H2585 H 0.01861 0.60508 0.88169 0.0
C2586 C 0.98449 0.64866 0.89286 0.0
C2587 C 0.00855 0.63325 0.87198 0.0
C2588 C 0.02182 0.63324 0.85446 0.0
C2589 C 0.98474 0.63254 0.90554 0.0
C2590 C 0.99737 0.61667 0.90162 0.0
C2591 C 0.00892 0.61717 0.88472 0.0
C2592 C 0.9993 0.59982 0.91525 0.0
C2593 C 0.97113 0.63251 0.9228 0.0
C2594 C 0.00484 0.60294 0.93467 0.0
C2595 C 0.00613 0.58738 0.94774 0.0
C2596 C 1.00214 0.56816 0.94174 0.0
C2597 C 0.99725 0.56493 0.92208 0.0
C2598 C 0.99586 0.58062 0.90897 0.0
H2599 H 0.95851 0.64235 0.92043 0.0
H2600 H 0.96557 0.61764 0.92588 0.0
H2601 H 0.97908 0.63777 0.93585 0.0
H2602 H 0.00817 0.61748 0.93978 0.0
H2603 H 0.01024 0.59053 0.96264 0.0
H2604 H 0.14505 0.2945 1.00144 0.0
H2605 H 0.12285 0.32251 1.00085 0.0
H2606 H 0.16916 0.35977 0.02096 0.0
H2607 H 0.19147 0.33211 0.0212 0.0
H2608 H 0.11209 0.34874 0.03178 0.0
H2609 H 0.1495 0.3874 0.97135 0.0
H2610 H 0.15365 0.36196 0.97657 0.0
H2611 H 0.16495 0.38042 0.99128 0.0
C2612 C 0.15053 0.30865 0.0057 0.0
C2613 C 0.1701 0.31094 0.01141 0.0
C2614 C 0.1378 0.32465 0.00542 0.0
C2615 C 0.14439 0.34333 0.01059 0.0
C2616 C 0.16378 0.34559 0.01663 0.0
H2617 H 0.08913 0.45883 0.01222 0.0
H2618 H 0.11234 0.4317 0.01444 0.0
C2619 C 0.17648 0.32964 0.017 0.0
C2620 C 0.13105 0.36046 0.00976 0.0
H2621 H 0.1241 0.40441 0.98728 0.0
C2622 C 0.11468 0.36088 0.02201 0.0
C2623 C 0.1345 0.37641 0.99712 0.0
C2624 C 0.1515 0.37656 0.9832 0.0
C2625 C 0.10181 0.37684 0.02212 0.0
C2626 C 0.10509 0.39269 0.00927 0.0
C2627 C 0.12157 0.39234 0.99714 0.0
C2628 C 0.09118 0.40933 0.00768 0.0
C2629 C 0.08502 0.37672 0.03631 0.0
C2630 C 0.07167 0.40593 0.00267 0.0
C2631 C 0.05841 0.42133 1.00144 0.0
C2632 C 0.0643 0.44068 0.00497 0.0
C2633 C 0.08401 0.44417 0.00944 0.0
C2634 C 0.09731 0.42865 0.01075 0.0
H2635 H 0.08793 0.36697 0.04889 0.0
H2636 H 0.08195 0.39158 0.0419 0.0
H2637 H 0.07178 0.37127 0.02882 0.0
H2638 H 0.06665 0.39129 0.99965 0.0
H2639 H 0.04347 0.41796 0.99767 0.0
H2640 H 0.18618 0.67898 0.98303 0.0
H2641 H 0.16379 0.65146 0.98559 0.0
H2642 H 0.1233 0.68716 0.0176 0.0
H2643 H 0.14568 0.71502 0.01492 0.0
H2644 H 0.14795 0.6339 0.02081 0.0
H2645 H 0.09091 0.66355 0.97154 0.0
H2646 H 0.11555 0.67277 0.97174 0.0
H2647 H 0.09898 0.67928 0.99088 0.0
C2648 C 0.17242 0.68111 0.99043 0.0
C2649 C 0.16763 0.69935 0.99853 0.0
C2650 C 0.1597 0.66528 0.99202 0.0
C2651 C 0.14178 0.66727 1.0016 0.0
C2652 C 0.13697 0.68535 0.00993 0.0
H2653 H 0.04309 0.58965 0.01597 0.0
H2654 H 0.06601 0.61669 0.01604 0.0
C2655 C 0.1498 0.70123 0.00849 0.0
C2656 C 0.12827 0.65032 0.0028 0.0
H2657 H 0.08438 0.63342 0.98657 0.0
C2658 C 0.13403 0.63377 0.01335 0.0
C2659 C 0.11014 0.65016 0.99304 0.0
C2660 C 0.10348 0.6673 0.98102 0.0
C2661 C 0.122 0.61719 0.01469 0.0
C2662 C 0.10392 0.61692 0.00475 0.0
C2663 C 0.09821 0.63353 0.99419 0.0
C2664 C 0.09041 0.59985 0.00541 0.0
C2665 C 0.1286 0.60037 0.02719 0.0
C2666 C 0.09638 0.58116 0.99944 0.0
C2667 C 0.08325 0.56546 0.99955 0.0
C2668 C 0.06377 0.5682 0.00529 0.0
C2669 C 0.05791 0.58693 0.01129 0.0
C2670 C 0.07104 0.60249 0.01136 0.0
H2671 H 0.13962 0.60501 0.03809 0.0
H2672 H 0.11614 0.59363 0.035 0.0
H2673 H 0.13539 0.58913 0.01779 0.0
H2674 H 0.1111 0.57877 0.99432 0.0
H2675 H 0.08823 0.55131 0.99468 0.0
H2676 H 0.32925 0.18842 0.98192 0.0
H2677 H 0.35657 0.16583 0.9848 0.0
H2678 H 0.32142 0.12759 0.02005 0.0
H2679 H 0.29377 0.1502 0.01712 0.0
H2680 H 0.37494 0.1513 0.02064 0.0
H2681 H 0.34319 0.09283 0.9744 0.0
H2682 H 0.33453 0.11765 0.97362 0.0
H2683 H 0.32809 0.10219 0.99367 0.0
C2684 C 0.3272 0.17511 0.99014 0.0
C2685 C 0.30917 0.17101 0.99907 0.0
C2686 C 0.34292 0.16228 0.99189 0.0
C2687 C 0.34102 0.14492 0.00247 0.0
C2688 C 0.32316 0.14081 0.01163 0.0
H2689 H 0.418 0.0458 0.0178 0.0
H2690 H 0.39117 0.06896 0.01794 0.0
C2691 C 0.3074 0.15378 0.01004 0.0
C2692 C 0.35781 0.13123 0.00376 0.0
H2693 H 0.37377 0.08663 0.98856 0.0
C2694 C 0.37471 0.13713 0.01367 0.0
C2695 C 0.3575 0.11278 0.99463 0.0
C2696 C 0.33995 0.10592 0.98334 0.0
C2697 C 0.39118 0.12497 0.01497 0.0
C2698 C 0.39099 0.10657 0.00561 0.0
C2699 C 0.37403 0.1007 0.99571 0.0
C2700 C 0.40795 0.09291 0.00621 0.0
C2701 C 0.40839 0.13177 0.02679 0.0
C2702 C 0.42655 0.09853 0.9996 0.0
C2703 C 0.44214 0.08526 0.99969 0.0
C2704 C 0.43936 0.06598 0.00604 0.0
C2705 C 0.42074 0.06046 0.01266 0.0
C2706 C 0.40529 0.07373 0.01276 0.0
H2707 H 0.40415 0.14315 0.03749 0.0
H2708 H 0.41524 0.11949 0.03478 0.0
H2709 H 0.41943 0.1382 0.01689 0.0
H2710 H 0.42895 0.11307 0.994 0.0
H2711 H 0.4562 0.08997 0.9943 0.0
H2712 H 0.82086 0.32705 0.97932 0.0
H2713 H 0.8428 0.35495 0.98161 0.0
H2714 H 0.8823 0.32121 0.0168 0.0
H2715 H 0.86039 0.29297 0.01443 0.0
H2716 H 0.85678 0.374 0.01705 0.0
H2717 H 0.91635 0.34377 0.97124 0.0
H2718 H 0.89184 0.33424 0.9706 0.0
H2719 H 0.90759 0.32848 0.99064 0.0
C2720 C 0.83434 0.32541 0.98734 0.0
C2721 C 0.83897 0.30762 0.99647 0.0
C2722 C 0.84679 0.34147 0.98877 0.0
C2723 C 0.86428 0.34015 0.99921 0.0
C2724 C 0.86897 0.3225 0.00848 0.0
H2725 H 0.96137 0.41903 0.01607 0.0
H2726 H 0.93864 0.39184 0.01564 0.0
C2727 C 0.85639 0.3064 0.00719 0.0
C2728 C 0.87746 0.35736 1.00041 0.0
H2729 H 0.92185 0.37437 0.98573 0.0
C2730 C 0.87103 0.37411 0.01022 0.0
C2731 C 0.896 0.3575 0.99146 0.0
C2732 C 0.9034 0.34012 0.98025 0.0
C2733 C 0.88279 0.39087 0.01167 0.0
C2734 C 0.90132 0.3911 0.00257 0.0
C2735 C 0.90768 0.3743 0.9927 0.0
C2736 C 0.91467 0.40828 0.00351 0.0
C2737 C 0.87545 0.40792 0.02341 0.0
C2738 C 0.90887 0.42682 0.99689 0.0
C2739 C 0.92189 0.44262 0.99731 0.0
C2740 C 0.94109 0.44011 0.00402 0.0
C2741 C 0.94677 0.42155 0.01066 0.0
C2742 C 0.93375 0.4059 0.01043 0.0
H2743 H 0.86393 0.40344 0.03387 0.0
H2744 H 0.88745 0.41495 0.03166 0.0
H2745 H 0.86905 0.41888 0.01341 0.0
H2746 H 0.89441 0.429 0.99102 0.0
H2747 H 0.91708 0.45663 0.9919 0.0
H2748 H 0.68707 0.82669 0.02889 0.0
H2749 H 0.6588 0.8483 0.03134 0.0
H2750 H 0.6744 0.87502 0.97671 0.0
H2751 H 0.70271 0.85358 0.97419 0.0
H2752 H 0.65459 0.88848 0.03196 0.0
H2753 H 0.61841 0.85742 0.96684 0.0
H2754 H 0.639 0.8459 0.97842 0.0
H2755 H 0.64262 0.86607 0.9621 0.0
C2756 C 0.68471 0.83739 0.01755 0.0
C2757 C 0.69715 0.83825 1.00125 0.0
C2758 C 0.66842 0.84965 0.0189 0.0
C2759 C 0.66415 0.86297 0.00397 0.0
C2760 C 0.67704 0.86449 0.98815 0.0
H2761 H 0.58923 0.96322 0.00387 0.0
H2762 H 0.61561 0.9397 0.00493 0.0
C2763 C 0.69329 0.85225 0.98677 0.0
C2764 C 0.6462 0.87519 0.00483 0.0
H2765 H 0.60474 0.88666 0.97966 0.0
C2766 C 0.64364 0.88798 0.02058 0.0
C2767 C 0.63166 0.87431 0.9902 0.0
C2768 C 0.6329 0.86005 0.97353 0.0
C2769 C 0.62737 0.9004 0.02171 0.0
C2770 C 0.61336 0.90024 0.00656 0.0
C2771 C 0.61554 0.88694 0.99119 0.0
C2772 C 0.5969 0.9144 0.00595 0.0
C2773 C 0.6253 0.91355 0.03919 0.0
C2774 C 0.57741 0.90807 0.00558 0.0
C2775 C 0.56206 0.9216 0.00487 0.0
C2776 C 0.56591 0.94174 0.00434 0.0
C2777 C 0.58551 0.9479 0.00441 0.0
C2778 C 0.60074 0.93443 0.00514 0.0
H2779 H 0.63363 0.90794 0.05187 0.0
H2780 H 0.63112 0.92818 0.03553 0.0
H2781 H 0.60979 0.91519 0.04348 0.0
H2782 H 0.57408 0.89266 0.00602 0.0
H2783 H 0.54723 0.91626 0.00481 0.0
H2784 H 0.815 0.67742 0.02033 0.0
H2785 H 0.83734 0.64975 0.02016 0.0
H2786 H 0.88279 0.68641 0.99713 0.0
H2787 H 0.86059 0.71437 0.99761 0.0
H2788 H 0.85676 0.63383 0.9874 0.0
H2789 H 0.90918 0.65889 0.04364 0.0
H2790 H 0.88526 0.66945 0.0409 0.0
H2791 H 0.90451 0.67606 0.02445 0.0
C2792 C 0.82986 0.67976 0.01561 0.0
C2793 C 0.83601 0.69827 0.00918 0.0
C2794 C 0.84258 0.66383 0.01535 0.0
C2795 C 0.86182 0.66599 0.00882 0.0
C2796 C 0.8681 0.68443 0.00251 0.0
H2797 H 0.96109 0.59001 0.99401 0.0
H2798 H 0.93784 0.61671 0.99531 0.0
C2799 C 0.85534 0.70039 0.00267 0.0
C2800 C 0.87504 0.64878 0.00801 0.0
H2801 H 0.91774 0.63057 0.02593 0.0
C2802 C 0.87006 0.63305 0.99589 0.0
C2803 C 0.89238 0.64776 0.01908 0.0
C2804 C 0.89814 0.66384 0.0329 0.0
C2805 C 0.88218 0.6166 0.99415 0.0
C2806 C 0.89958 0.61559 0.00519 0.0
C2807 C 0.90444 0.63127 0.01745 0.0
C2808 C 0.91335 0.5988 0.00379 0.0
C2809 C 0.87653 0.60076 0.98001 0.0
C2810 C 0.90743 0.57965 0.00808 0.0
C2811 C 0.92077 0.56415 0.00722 0.0
C2812 C 0.94038 0.56754 1.00231 0.0
C2813 C 0.94618 0.58675 0.99797 0.0
C2814 C 0.93286 0.60213 0.99871 0.0
H2815 H 0.86587 0.60604 0.96904 0.0
H2816 H 0.88949 0.595 0.97224 0.0
H2817 H 0.86967 0.5886 0.98814 0.0
H2818 H 0.89257 0.5767 0.01247 0.0
H2819 H 0.91581 0.54962 0.01083 0.0
H2820 H 0.32649 0.81922 0.02347 0.0
H2821 H 0.35446 0.8412 0.02313 0.0
H2822 H 0.31907 0.88609 0.99726 0.0
H2823 H 0.29078 0.86423 0.99785 0.0
H2824 H 0.37158 0.85954 0.98995 0.0
H2825 H 0.34536 0.91354 0.04417 0.0
H2826 H 0.33481 0.88955 0.04188 0.0
H2827 H 0.32872 0.90827 0.02465 0.0
C2828 C 0.32448 0.83389 0.01805 0.0
C2829 C 0.30623 0.83999 0.01091 0.0
C2830 C 0.34059 0.84639 0.0177 0.0
C2831 C 0.33887 0.86537 0.01036 0.0
C2832 C 0.3207 0.87159 0.00325 0.0
H2833 H 0.41642 0.9635 0.99609 0.0
H2834 H 0.38944 0.94059 0.99713 0.0
C2835 C 0.30456 0.85903 0.00348 0.0
C2836 C 0.35624 0.8784 0.00972 0.0
H2837 H 0.37446 0.92119 0.02741 0.0
C2838 C 0.37226 0.873 0.99819 0.0
C2839 C 0.35714 0.89594 0.02048 0.0
C2840 C 0.34069 0.90217 0.03364 0.0
C2841 C 0.38893 0.88488 0.99673 0.0
C2842 C 0.38984 0.90246 0.00749 0.0
C2843 C 0.37384 0.90774 0.01916 0.0
C2844 C 0.40684 0.91602 0.00636 0.0
C2845 C 0.40511 0.87877 0.98318 0.0
C2846 C 0.42583 0.90996 0.01118 0.0
C2847 C 0.44151 0.92311 0.01047 0.0
C2848 C 0.43847 0.94269 0.00519 0.0
C2849 C 0.41943 0.94862 1.00036 0.0
C2850 C 0.40388 0.93549 1.00094 0.0
H2851 H 0.40001 0.86802 0.97222 0.0
H2852 H 0.41132 0.89151 0.97539 0.0
H2853 H 0.41691 0.87186 0.99178 0.0
H2854 H 0.42849 0.89513 0.01583 0.0
H2855 H 0.4559 0.91803 0.01442 0.0
H2856 H 0.71404 0.14435 0.99548 0.0
H2857 H 0.68571 0.12251 0.99443 0.0
H2858 H 0.64991 0.16756 0.01944 0.0
H2859 H 0.67789 0.18949 0.02025 0.0
H2860 H 0.66064 0.1103 0.02642 0.0
H2861 H 0.62007 0.15109 0.96954 0.0
H2862 H 0.64582 0.15447 0.97371 0.0
H2863 H 0.62837 0.16538 0.98984 0.0
C2864 C 0.70013 0.14962 1.00071 0.0
C2865 C 0.69833 0.16869 0.00803 0.0
C2866 C 0.68396 0.1371 1.00016 0.0
C2867 C 0.66561 0.14348 0.00662 0.0
C2868 C 0.66383 0.16239 0.01413 0.0
H2869 H 0.54952 0.08995 0.0111 0.0
H2870 H 0.57712 0.11269 0.01255 0.0
C2871 C 0.67996 0.17484 0.0148 0.0
C2872 C 0.64833 0.13036 0.00576 0.0
H2873 H 0.60341 0.12506 0.98484 0.0
C2874 C 0.64816 0.11347 0.01727 0.0
C2875 C 0.63195 0.13461 0.99397 0.0
C2876 C 0.63151 0.15228 0.98092 0.0
C2877 C 0.632 0.10085 0.01749 0.0
C2878 C 0.61571 0.10493 0.00547 0.0
C2879 C 0.61584 0.12191 0.99406 0.0
C2880 C 0.59874 0.09139 0.00407 0.0
C2881 C 0.6324 0.0835 0.03098 0.0
C2882 C 0.60156 0.072 0.9983 0.0
C2883 C 0.5859 0.05901 0.99753 0.0
C2884 C 0.56688 0.06509 1.00227 0.0
C2885 C 0.56392 0.08472 0.00737 0.0
C2886 C 0.57971 0.09774 0.00825 0.0
H2887 H 0.6427 0.08574 0.04325 0.0
H2888 H 0.61773 0.08044 0.03706 0.0
H2889 H 0.63731 0.07049 0.02274 0.0
H2890 H 0.61594 0.06684 0.9944 0.0
H2891 H 0.58879 0.04412 0.99322 0.0
H2892 H 0.52719 0.65787 0.80335 0.0
H2893 H 0.52863 0.63549 0.83121 0.0
H2894 H 0.47517 0.65962 0.85351 0.0
H2895 H 0.47371 0.68207 0.82607 0.0
H2896 H 0.52946 0.64355 0.87188 0.0
H2897 H 0.46382 0.60098 0.85174 0.0
H2898 H 0.47599 0.61703 0.83484 0.0
H2899 H 0.45981 0.62679 0.85297 0.0
C2900 C 0.51575 0.65843 0.81419 0.0
C2901 C 0.50017 0.67163 0.8122 0.0
C2902 C 0.51658 0.6456 0.83011 0.0
C2903 C 0.50183 0.64564 0.84432 0.0
C2904 C 0.48647 0.65897 0.84253 0.0
H2905 H 0.50342 0.59141 0.96046 0.0
H2906 H 0.50355 0.61488 0.93348 0.0
C2907 C 0.48563 0.67177 0.8267 0.0
C2908 C 0.50244 0.63188 0.86111 0.0
H2909 H 0.47696 0.59522 0.88316 0.0
C2910 C 0.51802 0.63294 0.87434 0.0
C2911 C 0.48759 0.61792 0.86425 0.0
C2912 C 0.47093 0.61543 0.85012 0.0
C2913 C 0.519 0.6206 0.89072 0.0
C2914 C 0.50388 0.60699 0.8941 0.0
C2915 C 0.48844 0.6058 0.88073 0.0
C2916 C 0.50425 0.59304 0.91076 0.0
C2917 C 0.53641 0.62196 0.90405 0.0
C2918 C 0.50427 0.57297 0.90704 0.0
C2919 C 0.50408 0.55957 0.92235 0.0
C2920 C 0.50376 0.56583 0.94191 0.0
C2921 C 0.50373 0.586 0.94565 0.0
C2922 C 0.50392 0.59946 0.93022 0.0
H2923 H 0.54869 0.62991 0.89713 0.0
H2924 H 0.53222 0.6299 0.91748 0.0
H2925 H 0.54152 0.60723 0.90834 0.0
H2926 H 0.50447 0.56762 0.89219 0.0
H2927 H 0.50413 0.54423 0.91872 0.0
H2928 H 0.36097 0.50221 0.79522 0.0
H2929 H 0.383 0.5013 0.82337 0.0
H2930 H 0.33714 0.52329 0.86014 0.0
H2931 H 0.31499 0.52386 0.83234 0.0
H2932 H 0.39439 0.53238 0.84926 0.0
H2933 H 0.35527 0.47332 0.88836 0.0
H2934 H 0.35144 0.47833 0.86282 0.0
H2935 H 0.3404 0.49355 0.88101 0.0
C2936 C 0.35556 0.50682 0.80931 0.0
C2937 C 0.33617 0.51315 0.81143 0.0
C2938 C 0.36819 0.50635 0.82537 0.0
C2939 C 0.36164 0.51196 0.84394 0.0
C2940 C 0.34245 0.51862 0.84604 0.0
H2941 H 0.41642 0.51354 0.95955 0.0
H2942 H 0.39335 0.51589 0.9323 0.0
C2943 C 0.32986 0.51917 0.83002 0.0
C2944 C 0.37486 0.51094 0.86112 0.0
H2945 H 0.38106 0.48868 0.90528 0.0
C2946 C 0.39151 0.52279 0.86148 0.0
C2947 C 0.37102 0.49854 0.87716 0.0
C2948 C 0.35366 0.48507 0.87736 0.0
C2949 C 0.40432 0.52272 0.87749 0.0
C2950 C 0.40065 0.51009 0.89342 0.0
C2951 C 0.38389 0.49837 0.89313 0.0
C2952 C 0.41444 0.50832 0.91012 0.0
C2953 C 0.42146 0.53648 0.87732 0.0
C2954 C 0.43383 0.5028 0.90685 0.0
C2955 C 0.447 0.50151 0.9223 0.0
C2956 C 0.44112 0.50548 0.94157 0.0
C2957 C 0.4215 0.51042 0.94495 0.0
C2958 C 0.4083 0.5118 0.92937 0.0
H2959 H 0.4189 0.54903 0.86742 0.0
H2960 H 0.42459 0.54213 0.89214 0.0
H2961 H 0.43453 0.52861 0.872 0.0
H2962 H 0.43882 0.49946 0.89226 0.0
H2963 H 0.46187 0.49736 0.91906 0.0
H2964 H 0.4795 0.34362 0.80828 0.0
H2965 H 0.47865 0.36712 0.83505 0.0
H2966 H 0.53948 0.35657 0.84638 0.0
H2967 H 0.54064 0.33363 0.8192 0.0
H2968 H 0.4855 0.36046 0.87369 0.0
H2969 H 0.53777 0.41543 0.8461 0.0
H2970 H 0.52764 0.39668 0.83074 0.0
H2971 H 0.54761 0.39124 0.8468 0.0
C2972 C 0.49285 0.34665 0.81611 0.0
C2973 C 0.51017 0.33671 0.81143 0.0
C2974 C 0.49228 0.35996 0.83159 0.0
C2975 C 0.50903 0.36379 0.84272 0.0
C2976 C 0.52642 0.35416 0.83788 0.0
H2977 H 0.50927 0.41727 0.95945 0.0
H2978 H 0.51079 0.39411 0.93227 0.0
C2979 C 0.52701 0.34088 0.82239 0.0
C2980 C 0.50809 0.37722 0.85982 0.0
H2981 H 0.52811 0.41849 0.8792 0.0
C2982 C 0.49479 0.37318 0.87487 0.0
C2983 C 0.52008 0.39393 0.86135 0.0
C2984 C 0.53395 0.39973 0.84531 0.0
C2985 C 0.49324 0.38527 0.89139 0.0
C2986 C 0.50557 0.40171 0.89314 0.0
C2987 C 0.51879 0.4058 0.87802 0.0
C2988 C 0.50438 0.41547 0.90996 0.0
C2989 C 0.47804 0.38058 0.90655 0.0
C2990 C 0.50061 0.43525 0.90656 0.0
C2991 C 0.49991 0.44852 0.922 0.0
C2992 C 0.503 0.4424 0.94136 0.0
C2993 C 0.50668 0.42253 0.9448 0.0
C2994 C 0.50747 0.40922 0.92925 0.0
H2995 H 0.46663 0.37067 0.90076 0.0
H2996 H 0.48512 0.37323 0.91908 0.0
H2997 H 0.47091 0.39404 0.91198 0.0
H2998 H 0.49817 0.44049 0.89188 0.0
H2999 H 0.49694 0.46363 0.91864 0.0
H3000 H 0.67505 0.54397 0.8215 0.0
H3001 H 0.65233 0.54266 0.84893 0.0
H3002 H 0.64013 0.48244 0.83611 0.0
H3003 H 0.66334 0.4834 0.80911 0.0
H3004 H 0.61355 0.53462 0.85173 0.0
H3005 H 0.65578 0.47972 0.89314 0.0
H3006 H 0.66554 0.49217 0.87215 0.0
H3007 H 0.64932 0.47183 0.86907 0.0
C3008 C 0.66757 0.53041 0.82451 0.0
C3009 C 0.67122 0.51375 0.81311 0.0
C3010 C 0.65451 0.52972 0.84018 0.0
C3011 C 0.64483 0.51233 0.84493 0.0
C3012 C 0.64776 0.49591 0.83307 0.0
H3013 H 0.54374 0.49909 0.91898 0.0
H3014 H 0.56713 0.50149 0.89249 0.0
C3015 C 0.66084 0.49658 0.8174 0.0
C3016 C 0.63176 0.5114 0.86229 0.0
H3017 H 0.62415 0.48721 0.90523 0.0
C3018 C 0.61592 0.52429 0.86344 0.0
C3019 C 0.63502 0.49821 0.87784 0.0
C3020 C 0.65244 0.48483 0.87815 0.0
C3021 C 0.60301 0.52398 0.87937 0.0
C3022 C 0.60576 0.51017 0.89447 0.0
C3023 C 0.6219 0.49766 0.8936 0.0
C3024 C 0.59173 0.50819 0.91096 0.0
C3025 C 0.58666 0.53865 0.87996 0.0
C3026 C 0.59784 0.5104 0.9304 0.0
C3027 C 0.58442 0.50887 0.94579 0.0
C3028 C 0.56463 0.50502 0.94205 0.0
C3029 C 0.55876 0.50233 0.92255 0.0
C3030 C 0.57213 0.5038 0.90727 0.0
H3031 H 0.58993 0.55157 0.87078 0.0
H3032 H 0.57318 0.53181 0.87423 0.0
H3033 H 0.58379 0.54362 0.89508 0.0
H3034 H 0.61293 0.51363 0.93365 0.0
H3035 H 0.58952 0.51102 0.96057 0.0
H3036 H 0.50776 0.36207 0.21537 0.0
H3037 H 0.50818 0.38414 0.18727 0.0
H3038 H 0.48488 0.33852 0.15098 0.0
H3039 H 0.48437 0.3165 0.17882 0.0
H3040 H 0.52802 0.38074 0.15291 0.0
H3041 H 0.44882 0.38296 0.13758 0.0
H3042 H 0.45855 0.37332 0.16001 0.0
H3043 H 0.45847 0.3587 0.13825 0.0
C3044 C 0.5026 0.35678 0.20143 0.0
C3045 C 0.49579 0.33754 0.1995 0.0
C3046 C 0.50282 0.36943 0.18537 0.0
C3047 C 0.49622 0.36315 0.16702 0.0
C3048 C 0.48951 0.34395 0.16505 0.0
H3049 H 0.49368 0.41726 0.05098 0.0
H3050 H 0.49286 0.3939 0.0781 0.0
C3051 C 0.48921 0.33134 0.18107 0.0
C3052 C 0.49713 0.37635 0.14976 0.0
H3053 H 0.46963 0.39658 0.11343 0.0
C3054 C 0.51522 0.38426 0.14436 0.0
C3055 C 0.48047 0.38091 0.13846 0.0
C3056 C 0.46045 0.37369 0.14395 0.0
C3057 C 0.51712 0.39639 0.12794 0.0
C3058 C 0.50047 0.40095 0.11669 0.0
C3059 C 0.48241 0.39295 0.12197 0.0
C3060 C 0.50134 0.41486 0.10005 0.0
C3061 C 0.53702 0.40406 0.12262 0.0
C3062 C 0.50621 0.43439 0.10338 0.0
C3063 C 0.50662 0.44774 0.08801 0.0
C3064 C 0.50213 0.44192 0.06883 0.0
C3065 C 0.49731 0.42227 0.06549 0.0
C3066 C 0.49678 0.4089 0.08099 0.0
H3067 H 0.54882 0.39532 0.12941 0.0
H3068 H 0.53912 0.40409 0.10658 0.0
H3069 H 0.53843 0.41927 0.12789 0.0
H3070 H 0.50949 0.43942 0.11797 0.0
H3071 H 0.51045 0.46269 0.09126 0.0
H3072 H 0.64473 0.49236 0.21617 0.0
H3073 H 0.62291 0.48997 0.18783 0.0
H3074 H 0.66337 0.52371 0.15371 0.0
H3075 H 0.68517 0.52606 0.1817 0.0
H3076 H 0.60674 0.52334 0.16497 0.0
H3077 H 0.65251 0.47334 0.12074 0.0
H3078 H 0.65515 0.4756 0.14683 0.0
H3079 H 0.66474 0.4941 0.13103 0.0
C3080 C 0.64898 0.49921 0.20261 0.0
C3081 C 0.66664 0.50953 0.20129 0.0
C3082 C 0.6365 0.49787 0.18645 0.0
C3083 C 0.64161 0.50651 0.16859 0.0
C3084 C 0.65921 0.51677 0.16726 0.0
H3085 H 0.58811 0.51392 0.05289 0.0
H3086 H 0.61064 0.51492 0.08071 0.0
C3087 C 0.67156 0.51827 0.18338 0.0
C3088 C 0.62843 0.50529 0.15142 0.0
H3089 H 0.62492 0.48696 0.10522 0.0
C3090 C 0.61063 0.51529 0.15195 0.0
C3091 C 0.63367 0.49501 0.13434 0.0
C3092 C 0.65249 0.48376 0.13312 0.0
C3093 C 0.59804 0.51552 0.13577 0.0
C3094 C 0.60311 0.50497 0.11874 0.0
C3095 C 0.62098 0.49503 0.11822 0.0
C3096 C 0.58981 0.50371 0.10158 0.0
C3097 C 0.57968 0.52754 0.13695 0.0
C3098 C 0.57081 0.49655 0.10385 0.0
C3099 C 0.55793 0.49612 0.08809 0.0
C3100 C 0.56378 0.50254 0.06949 0.0
C3101 C 0.5831 0.50893 0.06699 0.0
C3102 C 0.59598 0.50953 0.0829 0.0
H3103 H 0.58097 0.53927 0.14801 0.0
H3104 H 0.57614 0.53427 0.12268 0.0
H3105 H 0.56737 0.51802 0.1413 0.0
H3106 H 0.56584 0.49136 0.11789 0.0
H3107 H 0.54331 0.49072 0.09056 0.0
H3108 H 0.52968 0.65285 0.20718 0.0
H3109 H 0.52724 0.631 0.17916 0.0
H3110 H 0.47445 0.65972 0.16111 0.0
H3111 H 0.47688 0.68184 0.18898 0.0
H3112 H 0.4728 0.61873 0.15787 0.0
H3113 H 0.53936 0.64842 0.12301 0.0
H3114 H 0.54297 0.64023 0.14759 0.0
H3115 H 0.52716 0.66055 0.1429 0.0
C3116 C 0.51751 0.65453 0.1973 0.0
C3117 C 0.50358 0.66928 0.20033 0.0
C3118 C 0.51616 0.64203 0.18123 0.0
C3119 C 0.5009 0.64398 0.16776 0.0
C3120 C 0.48644 0.65802 0.17123 0.0
H3121 H 0.50174 0.59092 0.05098 0.0
H3122 H 0.50028 0.6143 0.07799 0.0
C3123 C 0.48778 0.67057 0.18729 0.0
C3124 C 0.50026 0.6316 0.14993 0.0
H3125 H 0.52607 0.61964 0.10902 0.0
C3126 C 0.4844 0.619 0.14714 0.0
C3127 C 0.5152 0.6322 0.13571 0.0
C3128 C 0.53206 0.6462 0.13729 0.0
C3129 C 0.48342 0.60652 0.1309 0.0
C3130 C 0.49883 0.60646 0.11716 0.0
C3131 C 0.51435 0.61954 0.1196 0.0
C3132 C 0.49949 0.59238 0.10063 0.0
C3133 C 0.46583 0.59356 0.12856 0.0
C3134 C 0.49987 0.57231 0.10432 0.0
C3135 C 0.50073 0.55895 0.08899 0.0
C3136 C 0.50136 0.56527 0.06945 0.0
C3137 C 0.50122 0.58545 0.06577 0.0
C3138 C 0.50038 0.59886 0.08121 0.0
H3139 H 0.45308 0.59932 0.13671 0.0
H3140 H 0.46177 0.59198 0.11299 0.0
H3141 H 0.46922 0.5789 0.13443 0.0
H3142 H 0.49967 0.56692 0.11915 0.0
H3143 H 0.50092 0.54359 0.09257 0.0
H3144 H 0.33992 0.47792 0.20067 0.0
H3145 H 0.36217 0.47656 0.17292 0.0
H3146 H 0.36693 0.53915 0.17351 0.0
H3147 H 0.34557 0.54059 0.20188 0.0
H3148 H 0.35762 0.49095 0.13695 0.0
H3149 H 0.42319 0.52448 0.1697 0.0
H3150 H 0.40267 0.51678 0.18418 0.0
H3151 H 0.40214 0.5398 0.17162 0.0
C3152 C 0.34611 0.49139 0.1953 0.0
C3153 C 0.34091 0.50937 0.20372 0.0
C3154 C 0.35868 0.4906 0.17921 0.0
C3155 C 0.36644 0.50773 0.17111 0.0
C3156 C 0.3615 0.52567 0.17963 0.0
H3157 H 0.41711 0.51567 0.05307 0.0
H3158 H 0.39475 0.51684 0.081 0.0
C3159 C 0.34905 0.52647 0.19579 0.0
C3160 C 0.37908 0.50685 0.15338 0.0
H3161 H 0.42333 0.52078 0.13526 0.0
C3162 C 0.37203 0.49741 0.13662 0.0
C3163 C 0.39798 0.51511 0.15289 0.0
C3164 C 0.40704 0.52444 0.17062 0.0
C3165 C 0.38324 0.49608 0.11946 0.0
C3166 C 0.40191 0.50483 0.11881 0.0
C3167 C 0.40896 0.51422 0.1356 0.0
C3168 C 0.4149 0.50359 0.10135 0.0
C3169 C 0.37516 0.48482 0.10241 0.0
C3170 C 0.43377 0.49603 0.10339 0.0
C3171 C 0.44659 0.4956 0.08759 0.0
C3172 C 0.44093 0.50269 0.06918 0.0
C3173 C 0.42189 0.50993 0.06696 0.0
C3174 C 0.40906 0.51053 0.08294 0.0
H3175 H 0.36336 0.47472 0.10697 0.0
H3176 H 0.36894 0.49517 0.09168 0.0
H3177 H 0.38674 0.47626 0.09507 0.0
H3178 H 0.43868 0.49051 0.11734 0.0
H3179 H 0.46105 0.48975 0.08988 0.0
H3180 H 0.82555 0.52921 0.68947 0.0
H3181 H 0.85331 0.53043 0.66703 0.0
H3182 H 0.82321 0.4921 0.62751 0.0
H3183 H 0.79537 0.49078 0.64989 0.0
H3184 H 0.87449 0.49424 0.65278 0.0
H3185 H 0.84329 0.54049 0.59405 0.0
H3186 H 0.83432 0.54112 0.6188 0.0
H3187 H 0.82822 0.52108 0.60321 0.0
C3188 C 0.82466 0.52134 0.67583 0.0
C3189 C 0.80816 0.50997 0.67144 0.0
C3190 C 0.84061 0.52194 0.6631 0.0
C3191 C 0.84031 0.51142 0.64558 0.0
C3192 C 0.8237 0.50044 0.6409 0.0
H3193 H 0.91675 0.49411 0.54727 0.0
H3194 H 0.89012 0.49579 0.57064 0.0
C3195 C 0.80783 0.49966 0.65372 0.0
C3196 C 0.85765 0.51123 0.63257 0.0
H3197 H 0.87388 0.52606 0.58793 0.0
C3198 C 0.87445 0.50129 0.63863 0.0
C3199 C 0.85751 0.52033 0.61411 0.0
C3200 C 0.83995 0.5315 0.60709 0.0
C3201 C 0.89093 0.49973 0.6265 0.0
C3202 C 0.89084 0.50888 0.60798 0.0
C3203 C 0.87405 0.51905 0.60208 0.0
C3204 C 0.90758 0.50747 0.59412 0.0
C3205 C 0.90795 0.48766 0.63338 0.0
C3206 C 0.92647 0.51346 0.5994 0.0
C3207 C 0.94193 0.5123 0.58604 0.0
C3208 C 0.93875 0.50547 0.56697 0.0
C3209 C 0.91981 0.49957 0.56175 0.0
C3210 C 0.90448 0.50052 0.57514 0.0
H3211 H 0.90361 0.47731 0.64505 0.0
H3212 H 0.91446 0.47925 0.6212 0.0
H3213 H 0.9193 0.49744 0.63944 0.0
H3214 H 0.92922 0.51935 0.61377 0.0
H3215 H 0.95625 0.51717 0.59051 0.0
H3216 H 0.47963 0.80782 0.66562 0.0
H3217 H 0.47882 0.83468 0.64223 0.0
H3218 H 0.53995 0.84515 0.65196 0.0
H3219 H 0.54106 0.81787 0.6748 0.0
H3220 H 0.48646 0.87321 0.64926 0.0
H3221 H 0.53712 0.84513 0.593 0.0
H3222 H 0.52703 0.8298 0.61182 0.0
H3223 H 0.54735 0.84547 0.61705 0.0
C3224 C 0.49304 0.81547 0.66242 0.0
C3225 C 0.51044 0.81053 0.67209 0.0
C3226 C 0.4925 0.831 0.64918 0.0
C3227 C 0.50934 0.84192 0.64518 0.0
C3228 C 0.52681 0.83681 0.65452 0.0
H3229 H 0.5099 0.95851 0.59132 0.0
H3230 H 0.51182 0.93149 0.61467 0.0
C3231 C 0.52738 0.82127 0.66774 0.0
C3232 C 0.50842 0.85909 0.63189 0.0
H3233 H 0.52765 0.87825 0.59014 0.0
C3234 C 0.49545 0.8743 0.63631 0.0
C3235 C 0.52003 0.86049 0.6149 0.0
C3236 C 0.53354 0.84429 0.60876 0.0
C3237 C 0.49382 0.89084 0.62429 0.0
C3238 C 0.50573 0.89242 0.60753 0.0
C3239 C 0.51866 0.87718 0.60309 0.0
C3240 C 0.50428 0.90915 0.59372 0.0
C3241 C 0.47897 0.90621 0.62937 0.0
C3242 C 0.49969 0.90565 0.57413 0.0
C3243 C 0.49875 0.92097 0.56078 0.0
C3244 C 0.5024 0.94031 0.56661 0.0
C3245 C 0.50685 0.94387 0.58631 0.0
C3246 C 0.50789 0.92842 0.59971 0.0
H3247 H 0.46786 0.90065 0.63974 0.0
H3248 H 0.48645 0.91873 0.63632 0.0
H3249 H 0.47144 0.91158 0.6161 0.0
H3250 H 0.49682 0.89097 0.56912 0.0
H3251 H 0.49514 0.91755 0.5458 0.0
H3252 H 0.20611 0.52774 0.65542 0.0
H3253 H 0.17759 0.52865 0.63392 0.0
H3254 H 0.15523 0.47674 0.66125 0.0
H3255 H 0.18342 0.47579 0.68278 0.0
H3256 H 0.15323 0.47479 0.62151 0.0
H3257 H 0.12188 0.5445 0.64768 0.0
H3258 H 0.14675 0.54623 0.63974 0.0
H3259 H 0.1408 0.53173 0.66072 0.0
C3260 C 0.19507 0.51658 0.65693 0.0
C3261 C 0.19722 0.50163 0.67081 0.0
C3262 C 0.17872 0.51715 0.64466 0.0
C3263 C 0.16408 0.5029 0.64612 0.0
C3264 C 0.16629 0.4879 0.65982 0.0
H3265 H 0.0477 0.50476 0.59253 0.0
H3266 H 0.07482 0.50448 0.61589 0.0
C3267 C 0.18257 0.48731 0.67204 0.0
C3268 C 0.14668 0.50317 0.63311 0.0
H3269 H 0.10717 0.5304 0.61965 0.0
C3270 C 0.14315 0.48694 0.62116 0.0
C3271 C 0.1333 0.51887 0.63284 0.0
C3272 C 0.1357 0.53625 0.64605 0.0
C3273 C 0.12692 0.48615 0.6087 0.0
C3274 C 0.11392 0.50214 0.60792 0.0
C3275 C 0.11718 0.5182 0.62017 0.0
C3276 C 0.09735 0.50268 0.59392 0.0
C3277 C 0.12372 0.46808 0.59661 0.0
C3278 C 0.10098 0.50208 0.57384 0.0
C3279 C 0.08561 0.50221 0.56051 0.0
C3280 C 0.0661 0.50306 0.56687 0.0
C3281 C 0.06247 0.50398 0.58705 0.0
C3282 C 0.07796 0.50388 0.60044 0.0
H3283 H 0.13152 0.45532 0.60278 0.0
H3284 H 0.10799 0.46451 0.59551 0.0
H3285 H 0.12938 0.47061 0.58168 0.0
H3286 H 0.11579 0.50154 0.56843 0.0
H3287 H 0.08916 0.50161 0.54516 0.0
H3288 H 0.52497 0.20711 0.65651 0.0
H3289 H 0.52609 0.17931 0.63406 0.0
H3290 H 0.47329 0.15666 0.65932 0.0
H3291 H 0.47215 0.18405 0.68184 0.0
H3292 H 0.52755 0.13884 0.64193 0.0
H3293 H 0.46058 0.15794 0.60106 0.0
H3294 H 0.47285 0.17501 0.61684 0.0
H3295 H 0.45716 0.15664 0.62695 0.0
C3296 C 0.51359 0.19622 0.6573 0.0
C3297 C 0.4983 0.1981 0.67086 0.0
C3298 C 0.51425 0.18033 0.64443 0.0
C3299 C 0.4996 0.16602 0.64475 0.0
C3300 C 0.48451 0.16772 0.65843 0.0
H3301 H 0.5018 0.04959 0.59126 0.0
H3302 H 0.50197 0.07681 0.61443 0.0
C3303 C 0.48385 0.18352 0.67127 0.0
C3304 C 0.50007 0.14919 0.63099 0.0
H3305 H 0.47392 0.12662 0.59512 0.0
C3306 C 0.51586 0.13619 0.63165 0.0
C3307 C 0.4849 0.14579 0.61745 0.0
C3308 C 0.46799 0.15966 0.61534 0.0
C3309 C 0.51674 0.11978 0.61934 0.0
C3310 C 0.5013 0.1161 0.60617 0.0
C3311 C 0.48565 0.12926 0.60536 0.0
C3312 C 0.50147 0.09931 0.59235 0.0
C3313 C 0.53438 0.10674 0.62026 0.0
C3314 C 0.50074 0.10279 0.57223 0.0
C3315 C 0.50053 0.08733 0.55899 0.0
C3316 C 0.50092 0.06784 0.56546 0.0
C3317 C 0.50155 0.06434 0.58568 0.0
C3318 C 0.50178 0.07992 0.59897 0.0
H3319 H 0.54682 0.11395 0.6277 0.0
H3320 H 0.53068 0.09336 0.62854 0.0
H3321 H 0.53906 0.10232 0.60542 0.0
H3322 H 0.50043 0.11757 0.56672 0.0
H3323 H 0.50002 0.09078 0.54361 0.0
H3324 H 0.82809 0.48518 0.31904 0.0
H3325 H 0.8558 0.48605 0.34128 0.0
H3326 H 0.81913 0.50987 0.38631 0.0
H3327 H 0.79108 0.50864 0.36421 0.0
H3328 H 0.87198 0.51877 0.36007 0.0
H3329 H 0.8463 0.4638 0.41356 0.0
H3330 H 0.83568 0.46627 0.38963 0.0
H3331 H 0.82939 0.48314 0.40861 0.0
C3332 C 0.82575 0.49026 0.33379 0.0
C3333 C 0.80719 0.4966 0.33987 0.0
C3334 C 0.84171 0.49092 0.34644 0.0
C3335 C 0.83956 0.49781 0.36555 0.0
C3336 C 0.82111 0.5042 0.37173 0.0
H3337 H 0.91652 0.51288 0.46414 0.0
H3338 H 0.88963 0.51182 0.4411 0.0
C3339 C 0.8051 0.50362 0.35902 0.0
C3340 C 0.85678 0.49872 0.37877 0.0
H3341 H 0.87498 0.48111 0.42162 0.0
C3342 C 0.87268 0.51049 0.3735 0.0
C3343 C 0.85772 0.48789 0.39627 0.0
C3344 C 0.84146 0.47442 0.40235 0.0
C3345 C 0.88926 0.5121 0.38548 0.0
C3346 C 0.8902 0.50128 0.40302 0.0
C3347 C 0.87433 0.48941 0.40819 0.0
C3348 C 0.90714 0.50253 0.41663 0.0
C3349 C 0.90534 0.52582 0.37949 0.0
C3350 C 0.92614 0.49769 0.41064 0.0
C3351 C 0.94176 0.49839 0.42386 0.0
C3352 C 0.93863 0.50369 0.44342 0.0
C3353 C 0.91957 0.50859 0.44927 0.0
C3354 C 0.90409 0.508 0.43608 0.0
H3355 H 0.90022 0.53672 0.36867 0.0
H3356 H 0.91135 0.53367 0.39228 0.0
H3357 H 0.9173 0.51735 0.37268 0.0
H3358 H 0.92886 0.49301 0.39583 0.0
H3359 H 0.95616 0.49436 0.41886 0.0
H3360 H 0.52414 0.80616 0.34482 0.0
H3361 H 0.52461 0.8325 0.36881 0.0
H3362 H 0.46495 0.84628 0.35498 0.0
H3363 H 0.46413 0.81955 0.33149 0.0
H3364 H 0.51941 0.8715 0.36181 0.0
H3365 H 0.46362 0.8454 0.41403 0.0
H3366 H 0.47424 0.82978 0.39576 0.0
H3367 H 0.45512 0.84648 0.38933 0.0
C3368 C 0.51093 0.81443 0.34724 0.0
C3369 C 0.49407 0.81061 0.33621 0.0
C3370 C 0.5113 0.82966 0.36083 0.0
C3371 C 0.49479 0.84135 0.36385 0.0
C3372 C 0.4778 0.83732 0.35319 0.0
H3373 H 0.49534 0.95757 0.41786 0.0
H3374 H 0.49381 0.9305 0.3946 0.0
C3375 C 0.47741 0.82209 0.33961 0.0
C3376 C 0.49564 0.8583 0.37743 0.0
H3377 H 0.47437 0.87807 0.41789 0.0
C3378 C 0.50959 0.87291 0.37411 0.0
C3379 C 0.48293 0.86012 0.39357 0.0
C3380 C 0.46825 0.84453 0.39855 0.0
C3381 C 0.5111 0.8893 0.38635 0.0
C3382 C 0.49808 0.89134 0.40221 0.0
C3383 C 0.48422 0.87665 0.40561 0.0
C3384 C 0.49918 0.90804 0.41608 0.0
C3385 C 0.52693 0.90403 0.38246 0.0
C3386 C 0.50237 0.9045 0.43594 0.0
C3387 C 0.50313 0.91988 0.44925 0.0
C3388 C 0.50066 0.9393 0.4431 0.0
C3389 C 0.49747 0.94286 0.42315 0.0
C3390 C 0.49667 0.92738 0.40979 0.0
H3391 H 0.53852 0.89802 0.37289 0.0
H3392 H 0.52053 0.91688 0.37506 0.0
H3393 H 0.5337 0.90902 0.39627 0.0
H3394 H 0.50435 0.88975 0.44118 0.0
H3395 H 0.50566 0.91643 0.46444 0.0
H3396 H 0.17948 0.48085 0.32212 0.0
H3397 H 0.15121 0.48268 0.34354 0.0
H3398 H 0.18501 0.51484 0.38557 0.0
H3399 H 0.21343 0.51331 0.36394 0.0
H3400 H 0.14463 0.46901 0.37907 0.0
H3401 H 0.13814 0.54939 0.38123 0.0
H3402 H 0.15409 0.53705 0.36439 0.0
H3403 H 0.16148 0.54088 0.38926 0.0
C3404 C 0.18101 0.48819 0.33599 0.0
C3405 C 0.19884 0.49686 0.34131 0.0
C3406 C 0.16474 0.48932 0.34821 0.0
C3407 C 0.16575 0.49917 0.36611 0.0
C3408 C 0.18361 0.5076 0.37164 0.0
H3409 H 0.0879 0.51265 0.46409 0.0
H3410 H 0.11491 0.51196 0.44106 0.0
C3411 C 0.19992 0.50662 0.3593 0.0
C3412 C 0.14819 0.50018 0.37898 0.0
H3413 H 0.11818 0.53165 0.40338 0.0
C3414 C 0.13879 0.48274 0.38424 0.0
C3415 C 0.1404 0.51807 0.38572 0.0
C3416 C 0.14891 0.53742 0.37971 0.0
C3417 C 0.12222 0.48268 0.39633 0.0
C3418 C 0.11468 0.50053 0.40331 0.0
C3419 C 0.12396 0.51797 0.39801 0.0
C3420 C 0.09777 0.50131 0.41692 0.0
C3421 C 0.11315 0.46348 0.40199 0.0
C3422 C 0.07895 0.49581 0.41096 0.0
C3423 C 0.06328 0.49627 0.42415 0.0
C3424 C 0.06619 0.50209 0.4436 0.0
C3425 C 0.08505 0.50785 0.44933 0.0
C3426 C 0.10057 0.50756 0.43614 0.0
H3427 H 0.12257 0.45092 0.3981 0.0
H3428 H 0.11022 0.46307 0.4179 0.0
H3429 H 0.09903 0.46179 0.39433 0.0
H3430 H 0.07639 0.49114 0.39611 0.0
H3431 H 0.049 0.49177 0.41919 0.0
H3432 H 0.52502 0.17898 0.32143 0.0
H3433 H 0.52194 0.15089 0.34293 0.0
H3434 H 0.48628 0.18462 0.38211 0.0
H3435 H 0.48903 0.21285 0.36031 0.0
H3436 H 0.53343 0.14547 0.37931 0.0
H3437 H 0.45324 0.13675 0.3764 0.0
H3438 H 0.46623 0.15278 0.36013 0.0
H3439 H 0.46068 0.16042 0.38459 0.0
C3440 C 0.51659 0.18051 0.33468 0.0
C3441 C 0.50737 0.19826 0.3392 0.0
C3442 C 0.51476 0.16436 0.34694 0.0
C3443 C 0.50366 0.16544 0.36407 0.0
C3444 C 0.49452 0.18319 0.36875 0.0
H3445 H 0.48766 0.0881 0.46213 0.0
H3446 H 0.48834 0.11499 0.43893 0.0
C3447 C 0.4962 0.19938 0.35634 0.0
C3448 C 0.50224 0.14808 0.37713 0.0
H3449 H 0.47009 0.1174 0.39974 0.0
C3450 C 0.51955 0.13928 0.38363 0.0
C3451 C 0.48416 0.13987 0.38279 0.0
C3452 C 0.46502 0.14781 0.37547 0.0
C3453 C 0.51929 0.12281 0.39583 0.0
C3454 C 0.50124 0.11481 0.40167 0.0
C3455 C 0.48392 0.12354 0.3952 0.0
C3456 C 0.50011 0.09795 0.41525 0.0
C3457 C 0.53831 0.11433 0.4028 0.0
C3458 C 0.5062 0.07925 0.40954 0.0
C3459 C 0.50573 0.06367 0.4228 0.0
C3460 C 0.49934 0.06658 0.44206 0.0
C3461 C 0.49289 0.08529 0.44751 0.0
C3462 C 0.49318 0.10073 0.43424 0.0
H3463 H 0.55087 0.12398 0.39949 0.0
H3464 H 0.53782 0.1117 0.41875 0.0
H3465 H 0.54079 0.10011 0.39553 0.0
H3466 H 0.51143 0.07675 0.39487 0.0
H3467 H 0.5108 0.0495 0.4181 0.0
H3468 H 0.67706 0.82133 0.47444 0.0
H3469 H 0.65507 0.84922 0.47504 0.0
H3470 H 0.6371 0.83399 0.53326 0.0
H3471 H 0.65919 0.80595 0.5328 0.0
H3472 H 0.61612 0.85151 0.47888 0.0
H3473 H 0.65127 0.8909 0.53995 0.0
H3474 H 0.66256 0.87037 0.52803 0.0
H3475 H 0.64397 0.86656 0.54611 0.0
C3476 C 0.66828 0.82371 0.48732 0.0
C3477 C 0.6699 0.81126 0.50356 0.0
C3478 C 0.65579 0.83981 0.48769 0.0
C3479 C 0.64463 0.84399 0.50431 0.0
C3480 C 0.64591 0.83141 0.52044 0.0
H3481 H 0.54239 0.91722 0.50852 0.0
H3482 H 0.56612 0.89098 0.50813 0.0
C3483 C 0.65849 0.81531 0.52012 0.0
C3484 C 0.63141 0.86125 0.50447 0.0
H3485 H 0.62078 0.90332 0.52901 0.0
C3486 C 0.61721 0.86285 0.48982 0.0
C3487 C 0.63299 0.8763 0.51851 0.0
C3488 C 0.64864 0.87611 0.53393 0.0
C3489 C 0.60433 0.87876 0.48908 0.0
C3490 C 0.60537 0.89337 0.5036 0.0
C3491 C 0.61986 0.89205 0.51798 0.0
C3492 C 0.59112 0.90974 0.50439 0.0
C3493 C 0.58985 0.87986 0.47259 0.0
C3494 C 0.59726 0.92924 0.50304 0.0
C3495 C 0.58363 0.9445 0.50335 0.0
C3496 C 0.56357 0.94055 0.50512 0.0
C3497 C 0.55763 0.92097 0.5069 0.0
C3498 C 0.57121 0.90583 0.50661 0.0
H3499 H 0.59456 0.87098 0.45991 0.0
H3500 H 0.57561 0.87412 0.47763 0.0
H3501 H 0.58772 0.89513 0.4677 0.0
H3502 H 0.61259 0.93264 0.50145 0.0
H3503 H 0.5888 0.95934 0.502 0.0
H3504 H 0.67571 0.1856 0.5412 0.0
H3505 H 0.65218 0.15889 0.53997 0.0
H3506 H 0.63785 0.17411 0.48077 0.0
H3507 H 0.66185 0.20043 0.48163 0.0
H3508 H 0.61294 0.15736 0.53344 0.0
H3509 H 0.65198 0.11682 0.47554 0.0
H3510 H 0.66275 0.13712 0.48829 0.0
H3511 H 0.64576 0.1413 0.4688 0.0
C3512 C 0.66759 0.18328 0.52788 0.0
C3513 C 0.67088 0.19514 0.51145 0.0
C3514 C 0.65405 0.16802 0.52723 0.0
C3515 C 0.64352 0.16414 0.51013 0.0
C3516 C 0.64611 0.17647 0.49399 0.0
H3517 H 0.54094 0.09076 0.50009 0.0
H3518 H 0.56433 0.11734 0.50182 0.0
C3519 C 0.65966 0.19175 0.49462 0.0
C3520 C 0.62998 0.14713 0.5092 0.0
H3521 H 0.62067 0.10493 0.48434 0.0
C3522 C 0.61467 0.14589 0.52272 0.0
C3523 C 0.6324 0.1319 0.49547 0.0
C3524 C 0.64921 0.13168 0.48132 0.0
C3525 C 0.60151 0.13017 0.5226 0.0
C3526 C 0.60346 0.11535 0.50836 0.0
C3527 C 0.61903 0.11635 0.49513 0.0
C3528 C 0.58933 0.09887 0.50683 0.0
C3529 C 0.58582 0.12943 0.53798 0.0
C3530 C 0.5956 0.07944 0.50835 0.0
C3531 C 0.58219 0.06402 0.5072 0.0
C3532 C 0.56221 0.06771 0.50442 0.0
C3533 C 0.55612 0.08722 0.50246 0.0
C3534 C 0.5695 0.10255 0.50356 0.0
H3535 H 0.5897 0.13838 0.55089 0.0
H3536 H 0.57208 0.13532 0.53183 0.0
H3537 H 0.5831 0.11425 0.54285 0.0
H3538 H 0.61085 0.07619 0.51073 0.0
H3539 H 0.58748 0.04924 0.50875 0.0
H3540 H 0.79582 0.64878 0.49145 0.0
H3541 H 0.82362 0.62643 0.49211 0.0
H3542 H 0.85691 0.66872 0.52446 0.0
H3543 H 0.82915 0.69092 0.52413 0.0
H3544 H 0.8591 0.63079 0.47671 0.0
H3545 H 0.86732 0.62105 0.55638 0.0
H3546 H 0.8461 0.63228 0.54573 0.0
H3547 H 0.8681 0.64613 0.54917 0.0
C3548 C 0.809 0.65323 0.49888 0.0
C3549 C 0.81014 0.67159 0.50791 0.0
C3550 C 0.82491 0.64043 0.49925 0.0
C3551 C 0.84235 0.64568 0.50861 0.0
C3552 C 0.8435 0.66401 0.51764 0.0
H3553 H 0.95757 0.5899 0.51408 0.0
H3554 H 0.93079 0.61366 0.51471 0.0
C3555 C 0.82756 0.67673 0.51743 0.0
C3556 C 0.85961 0.63243 0.50804 0.0
H3557 H 0.89319 0.60913 0.5366 0.0
C3558 C 0.86646 0.62601 0.48984 0.0
C3559 C 0.86937 0.62618 0.52514 0.0
C3560 C 0.86224 0.6316 0.54521 0.0
C3561 C 0.88276 0.61369 0.48826 0.0
C3562 C 0.89249 0.60751 0.50533 0.0
C3563 C 0.88582 0.61403 0.52352 0.0
C3564 C 0.90891 0.59338 0.5046 0.0
C3565 C 0.88956 0.60745 0.46832 0.0
C3566 C 0.90549 0.57411 0.49881 0.0
C3567 C 0.92065 0.56053 0.49854 0.0
C3568 C 0.9397 0.56588 0.50402 0.0
C3569 C 0.94316 0.58529 0.50966 0.0
C3570 C 0.92785 0.59887 0.5101 0.0
H3571 H 0.88338 0.61678 0.45664 0.0
H3572 H 0.9057 0.60789 0.46738 0.0
H3573 H 0.88483 0.59223 0.46563 0.0
H3574 H 0.89098 0.56949 0.49469 0.0
H3575 H 0.91738 0.54578 0.49403 0.0
H3576 H 0.31761 0.82848 0.4825 0.0
H3577 H 0.34 0.85597 0.48511 0.0
H3578 H 0.38148 0.81957 0.51498 0.0
H3579 H 0.35914 0.79172 0.51219 0.0
H3580 H 0.35634 0.8728 0.51987 0.0
H3581 H 0.41295 0.84448 0.46936 0.0
H3582 H 0.38847 0.83488 0.46993 0.0
H3583 H 0.40554 0.82832 0.48861 0.0
C3584 C 0.3316 0.82618 0.48941 0.0
C3585 C 0.33667 0.80775 0.49688 0.0
C3586 C 0.34432 0.842 0.49103 0.0
C3587 C 0.36251 0.83982 0.50003 0.0
C3588 C 0.36761 0.82154 0.50773 0.0
H3589 H 0.46081 0.91752 0.51591 0.0
H3590 H 0.438 0.89039 0.51539 0.0
C3591 C 0.35479 0.80566 0.50623 0.0
C3592 C 0.37595 0.8568 0.5014 0.0
H3593 H 0.41969 0.87418 0.48521 0.0
C3594 C 0.37021 0.87313 0.51231 0.0
C3595 C 0.394 0.85723 0.49149 0.0
C3596 C 0.40064 0.84039 0.47904 0.0
C3597 C 0.38217 0.88972 0.51387 0.0
C3598 C 0.40019 0.89023 0.50382 0.0
C3599 C 0.40589 0.87386 0.4929 0.0
C3600 C 0.41364 0.90731 0.50477 0.0
C3601 C 0.37559 0.9063 0.52669 0.0
C3602 C 0.40765 0.92604 0.499 0.0
C3603 C 0.42072 0.94178 0.49943 0.0
C3604 C 0.44015 0.93904 0.50533 0.0
C3605 C 0.44603 0.92025 0.51113 0.0
C3606 C 0.43296 0.90464 0.51086 0.0
H3607 H 0.36453 0.90149 0.53748 0.0
H3608 H 0.38806 0.91283 0.53465 0.0
H3609 H 0.36888 0.91777 0.5175 0.0
H3610 H 0.39296 0.92845 0.4938 0.0
H3611 H 0.41572 0.95597 0.49469 0.0
H3612 H 0.19816 0.34242 0.48435 0.0
H3613 H 0.1718 0.36638 0.48407 0.0
H3614 H 0.15604 0.34992 0.54258 0.0
H3615 H 0.18274 0.32636 0.54322 0.0
H3616 H 0.13243 0.35893 0.48794 0.0
H3617 H 0.15718 0.40904 0.54624 0.0
H3618 H 0.1731 0.3913 0.53518 0.0
H3619 H 0.15601 0.38399 0.55363 0.0
C3620 C 0.18944 0.34423 0.49736 0.0
C3621 C 0.19268 0.33246 0.51384 0.0
C3622 C 0.17421 0.35781 0.4971 0.0
C3623 C 0.16196 0.36008 0.51334 0.0
C3624 C 0.16543 0.34868 0.52996 0.0
H3625 H 0.04619 0.41536 0.51114 0.0
H3626 H 0.07284 0.39163 0.51299 0.0
C3627 C 0.18063 0.33508 0.53024 0.0
C3628 C 0.14507 0.37371 0.51254 0.0
H3629 H 0.12496 0.41355 0.53457 0.0
C3630 C 0.13081 0.37089 0.49812 0.0
C3631 C 0.14299 0.38941 0.52573 0.0
C3632 C 0.15821 0.39378 0.54096 0.0
C3633 C 0.11453 0.38326 0.49659 0.0
C3634 C 0.11225 0.39873 0.51003 0.0
C3635 C 0.12656 0.40158 0.52439 0.0
C3636 C 0.09579 0.41284 0.50879 0.0
C3637 C 0.1002 0.37997 0.48027 0.0
C3638 C 0.09975 0.4327 0.50616 0.0
C3639 C 0.08463 0.44627 0.50522 0.0
C3640 C 0.06502 0.4404 0.50697 0.0
C3641 C 0.06104 0.42045 0.50961 0.0
C3642 C 0.07628 0.40683 0.51058 0.0
H3643 H 0.10637 0.37058 0.46862 0.0
H3644 H 0.08705 0.37264 0.48614 0.0
H3645 H 0.09561 0.39402 0.47369 0.0
H3646 H 0.11464 0.43773 0.50474 0.0
H3647 H 0.08843 0.46143 0.50314 0.0
H3648 H 0.35461 0.20761 0.48788 0.0
H3649 H 0.37675 0.17965 0.48994 0.0
H3650 H 0.33816 0.15192 0.53094 0.0
H3651 H 0.31591 0.17978 0.52896 0.0
H3652 H 0.39303 0.15996 0.52907 0.0
H3653 H 0.34724 0.11424 0.48008 0.0
H3654 H 0.34686 0.14052 0.47883 0.0
H3655 H 0.33564 0.12831 0.49898 0.0
C3656 C 0.35091 0.19564 0.49747 0.0
C3657 C 0.33348 0.19596 0.50827 0.0
C3658 C 0.36359 0.1797 0.49865 0.0
C3659 C 0.359 0.16366 0.51047 0.0
C3660 C 0.34193 0.16413 0.52168 0.0
H3661 H 0.41475 0.04843 0.51582 0.0
H3662 H 0.39146 0.07545 0.51838 0.0
C3663 C 0.32932 0.18015 0.52065 0.0
C3664 C 0.37182 0.14623 0.51059 0.0
H3665 H 0.37632 0.1004 0.4917 0.0
C3666 C 0.38939 0.1469 0.52096 0.0
C3667 C 0.3669 0.12916 0.50019 0.0
C3668 C 0.34818 0.12785 0.48878 0.0
C3669 C 0.40226 0.13096 0.52112 0.0
C3670 C 0.39771 0.11408 0.5101 0.0
C3671 C 0.37989 0.1133 0.50007 0.0
C3672 C 0.4116 0.09747 0.5082 0.0
C3673 C 0.42048 0.13231 0.53333 0.0
C3674 C 0.4305 0.10067 0.50111 0.0
C3675 C 0.44382 0.08535 0.49974 0.0
C3676 C 0.43853 0.06627 0.50515 0.0
C3677 C 0.41935 0.0629 0.51156 0.0
C3678 C 0.40602 0.07836 0.51308 0.0
H3679 H 0.41868 0.14285 0.54548 0.0
H3680 H 0.42449 0.11793 0.53954 0.0
H3681 H 0.43269 0.1375 0.52411 0.0
H3682 H 0.43501 0.1151 0.49661 0.0
H3683 H 0.45832 0.08852 0.4944 0.0
H3684 H 0.82568 0.31847 0.52744 0.0
H3685 H 0.85313 0.34127 0.52898 0.0
H3686 H 0.82276 0.38062 0.4907 0.0
H3687 H 0.79523 0.35789 0.48905 0.0
H3688 H 0.87438 0.35617 0.49296 0.0
H3689 H 0.84202 0.41398 0.53956 0.0
H3690 H 0.83345 0.38909 0.53998 0.0
H3691 H 0.82724 0.4047 0.51999 0.0
C3692 C 0.82466 0.33215 0.51965 0.0
C3693 C 0.80817 0.33638 0.5082 0.0
C3694 C 0.84044 0.34509 0.52042 0.0
C3695 C 0.83998 0.36268 0.51002 0.0
C3696 C 0.82339 0.36719 0.49895 0.0
H3697 H 0.9161 0.46202 0.49504 0.0
H3698 H 0.88943 0.43861 0.49606 0.0
C3699 C 0.80768 0.35416 0.49798 0.0
C3700 C 0.85715 0.37594 0.51006 0.0
H3701 H 0.87274 0.42055 0.52561 0.0
C3702 C 0.87411 0.37021 0.50017 0.0
C3703 C 0.8567 0.39428 0.51937 0.0
C3704 C 0.83896 0.40095 0.53046 0.0
C3705 C 0.89046 0.38255 0.49892 0.0
C3706 C 0.8901 0.40093 0.50833 0.0
C3707 C 0.87313 0.40651 0.5184 0.0
C3708 C 0.9068 0.4149 0.50742 0.0
C3709 C 0.90766 0.37601 0.4869 0.0
C3710 C 0.92563 0.40954 0.51351 0.0
C3711 C 0.94109 0.42292 0.51271 0.0
C3712 C 0.93799 0.44209 0.50615 0.0
C3713 C 0.91909 0.44744 0.50024 0.0
C3714 C 0.90375 0.43403 0.50083 0.0
H3715 H 0.90349 0.36457 0.47625 0.0
H3716 H 0.91422 0.3884 0.47883 0.0
H3717 H 0.9189 0.36977 0.49668 0.0
H3718 H 0.92835 0.39508 0.51916 0.0
H3719 H 0.95536 0.41835 0.51762 0.0
H3720 H 0.17908 0.68644 0.52279 0.0
H3721 H 0.15122 0.66433 0.52219 0.0
H3722 H 0.1866 0.62026 0.49492 0.0
H3723 H 0.21478 0.64226 0.49574 0.0
H3724 H 0.13407 0.64655 0.48844 0.0
H3725 H 0.16075 0.59183 0.54176 0.0
H3726 H 0.17103 0.61597 0.53995 0.0
H3727 H 0.17726 0.59771 0.5223 0.0
C3728 C 0.18111 0.67191 0.51699 0.0
C3729 C 0.19932 0.66608 0.50954 0.0
C3730 C 0.16507 0.65935 0.5165 0.0
C3731 C 0.16682 0.64057 0.50869 0.0
C3732 C 0.18495 0.6346 0.50126 0.0
H3733 H 0.08865 0.54267 0.49471 0.0
H3734 H 0.11585 0.56539 0.49528 0.0
C3735 C 0.20102 0.64724 0.50163 0.0
C3736 C 0.14952 0.62748 0.50792 0.0
H3737 H 0.13139 0.58456 0.52539 0.0
C3738 C 0.13344 0.63301 0.49655 0.0
C3739 C 0.1487 0.60984 0.51851 0.0
C3740 C 0.16526 0.60347 0.53146 0.0
C3741 C 0.11675 0.62116 0.49512 0.0
C3742 C 0.11589 0.6035 0.50576 0.0
C3743 C 0.13197 0.59807 0.51723 0.0
C3744 C 0.09878 0.59008 0.50481 0.0
C3745 C 0.10048 0.62741 0.48174 0.0
C3746 C 0.07993 0.5963 0.50994 0.0
C3747 C 0.06415 0.58328 0.50949 0.0
C3748 C 0.06695 0.56368 0.50419 0.0
C3749 C 0.08585 0.55758 0.49902 0.0
C3750 C 0.10151 0.57059 0.49933 0.0
H3751 H 0.10556 0.63814 0.47074 0.0
H3752 H 0.09409 0.61473 0.47401 0.0
H3753 H 0.08883 0.63441 0.49048 0.0
H3754 H 0.07746 0.61114 0.51465 0.0
H3755 H 0.04986 0.58846 0.51372 0.0
loop_
_geom_bond_atom_site_label_1
_geom_bond_atom_site_label_2
_geom_bond_distance
_geom_bond_site_symmetry_2
_ccdc_geom_bond_type
C0 C1 1.381 1_455 S
C0 H13 0.949 . S
C0 C35 1.382 . S
C1 C0 1.381 1_655 S
C1 C2 1.386 . S
C2 C1 1.386 . S
C2 C3 1.378 . S
C2 H14 0.952 . S
C3 C2 1.378 . S
C3 H15 0.950 . S
C3 C34 1.383 . S
H4 C23 0.947 . S
H5 C24 0.954 . S
H6 C26 0.953 . S
H7 C27 0.945 . S
H8 C29 0.951 1_455 S
H9 C30 0.958 . S
H10 C32 0.950 . S
H11 C33 0.948 . S
H12 C35 0.951 . S
H13 C0 0.949 . S
H14 C2 0.952 . S
H15 C3 0.950 . S
N16 C19 1.382 . S
N16 C21 1.363 . S
N17 C19 1.371 . S
N17 C20 1.372 . S
N18 C20 1.361 . S
N18 C21 1.377 . S
C19 N16 1.382 . S
C19 N17 1.371 . S
C19 C22 1.480 . S
C20 N17 1.372 . S
C20 N18 1.361 . S
C20 C28 1.457 . S
C21 N16 1.363 . S
C21 N18 1.377 . S
C21 C34 1.479 . S
C22 C19 1.480 . S
C22 C23 1.383 . S
C22 C27 1.385 . S
C23 H4 0.947 . S
C23 C22 1.383 . S
C23 C24 1.385 1_655 S
C24 H5 0.954 . S
C24 C23 1.385 1_455 S
C24 C25 1.381 1_455 S
C25 C24 1.381 1_655 S
C25 C26 1.377 . S
C26 H6 0.953 . S
C26 C25 1.377 . S
C26 C27 1.369 . S
C27 H7 0.945 . S
C27 C22 1.385 . S
C27 C26 1.369 . S
C28 C20 1.457 . S
C28 C29 1.374 . S
C28 C33 1.364 . S
C29 H8 0.951 1_655 S
C29 C28 1.374 . S
C29 C30 1.387 1_655 S
C30 H9 0.958 . S
C30 C29 1.387 1_455 S
C30 C31 1.382 1_455 S
C31 C30 1.382 1_655 S
C31 C32 1.372 . S
C32 H10 0.950 . S
C32 C31 1.372 . S
C32 C33 1.379 . S
C33 H11 0.948 . S
C33 C28 1.364 . S
C33 C32 1.379 . S
C34 C3 1.383 . S
C34 C21 1.479 . S
C34 C35 1.398 1_655 S
C35 C0 1.382 . S
C35 H12 0.951 . S
C35 C34 1.398 1_455 S
C36 C37 1.383 1_545 S
C36 H49 0.948 . S
C36 C71 1.382 1_545 S
C37 C36 1.383 1_565 S
C37 C38 1.378 . S
C38 C37 1.378 . S
C38 C39 1.378 . S
C38 H50 0.952 . S
C39 C38 1.378 . S
C39 H51 0.950 . S
C39 C70 1.383 . S
H40 C59 0.947 . S
H41 C60 0.952 . S
H42 C62 0.953 . S
H43 C63 0.945 . S
H44 C65 0.950 1_545 S
H45 C66 0.957 . S
H46 C68 0.950 . S
H47 C69 0.948 . S
H48 C71 0.952 1_545 S
H49 C36 0.948 . S
H50 C38 0.952 . S
H51 C39 0.950 . S
N52 C55 1.382 . S
N52 C57 1.363 . S
N53 C55 1.371 . S
N53 C56 1.372 . S
N54 C56 1.361 . S
N54 C57 1.377 . S
C55 N52 1.382 . S
C55 N53 1.371 . S
C55 C58 1.480 . S
C56 N53 1.372 . S
C56 N54 1.361 . S
C56 C64 1.457 . S
C57 N52 1.363 . S
C57 N54 1.377 . S
C57 C70 1.479 . S
C58 C55 1.480 . S
C58 C59 1.383 . S
C58 C63 1.385 . S
C59 H40 0.947 . S
C59 C58 1.383 . S
C59 C60 1.385 1_565 S
C60 H41 0.952 . S
C60 C59 1.385 1_545 S
C60 C61 1.381 1_545 S
C61 C60 1.381 1_565 S
C61 C62 1.377 . S
C62 H42 0.953 . S
C62 C61 1.377 . S
C62 C63 1.369 . S
C63 H43 0.945 . S
C63 C58 1.385 . S
C63 C62 1.369 . S
C64 C56 1.457 . S
C64 C65 1.375 . S
C64 C69 1.364 . S
C65 H44 0.950 1_565 S
C65 C64 1.375 . S
C65 C66 1.387 1_565 S
C66 H45 0.957 . S
C66 C65 1.387 1_545 S
C66 C67 1.383 1_545 S
C67 C66 1.383 1_565 S
C67 C68 1.372 . S
C68 H46 0.950 . S
C68 C67 1.372 . S
C68 C69 1.379 . S
C69 H47 0.948 . S
C69 C64 1.364 . S
C69 C68 1.379 . S
C70 C39 1.383 . S
C70 C57 1.479 . S
C70 C71 1.397 . S
C71 C36 1.382 1_565 S
C71 H48 0.952 1_565 S
C71 C70 1.397 . S
C72 C73 1.384 . S
C72 H85 0.944 1_455 S
C72 C107 1.382 . S
C73 C72 1.384 . S
C73 C74 1.378 . S
C74 C73 1.378 . S
C74 C75 1.378 . S
C74 H86 0.952 . S
C75 C74 1.378 . S
C75 H87 0.950 . S
C75 C106 1.383 . S
H76 C95 0.947 . S
H77 C96 0.946 . S
H78 C98 0.953 . S
H79 C99 0.945 . S
H80 C101 0.946 1_655 S
H81 C102 0.952 . S
H82 C104 0.950 . S
H83 C105 0.948 . S
H84 C107 0.949 1_655 S
H85 C72 0.944 1_655 S
H86 C74 0.952 . S
H87 C75 0.950 . S
N88 C91 1.382 . S
N88 C93 1.363 . S
N89 C91 1.371 . S
N89 C92 1.372 . S
N90 C92 1.361 . S
N90 C93 1.377 . S
C91 N88 1.382 . S
C91 N89 1.371 . S
C91 C94 1.480 . S
C92 N89 1.372 . S
C92 N90 1.361 . S
C92 C100 1.457 . S
C93 N88 1.363 . S
C93 N90 1.377 . S
C93 C106 1.479 . S
C94 C91 1.480 . S
C94 C95 1.383 . S
C94 C99 1.385 . S
C95 H76 0.947 . S
C95 C94 1.383 . S
C95 C96 1.388 1_455 S
C96 H77 0.946 . S
C96 C95 1.388 1_655 S
C96 C97 1.383 1_655 S
C97 C96 1.383 1_455 S
C97 C98 1.377 . S
C98 H78 0.953 . S
C98 C97 1.377 . S
C98 C99 1.369 . S
C99 H79 0.945 . S
C99 C94 1.385 . S
C99 C98 1.369 . S
C100 C92 1.457 . S
C100 C101 1.381 . S
C100 C105 1.364 . S
C101 H80 0.946 1_455 S
C101 C100 1.381 . S
C101 C102 1.387 1_455 S
C102 H81 0.952 . S
C102 C101 1.387 1_655 S
C102 C103 1.385 1_655 S
C103 C102 1.385 1_455 S
C103 C104 1.372 . S
C104 H82 0.950 . S
C104 C103 1.372 . S
C104 C105 1.379 . S
C105 H83 0.948 . S
C105 C100 1.364 . S
C105 C104 1.379 . S
C106 C75 1.383 . S
C106 C93 1.479 . S
C106 C107 1.401 . S
C107 C72 1.382 . S
C107 H84 0.949 1_455 S
C107 C106 1.401 . S
C108 C109 1.384 . S
C108 H121 0.947 1_545 S
C108 C143 1.382 . S
C109 C108 1.384 . S
C109 C110 1.378 . S
C110 C109 1.378 . S
C110 C111 1.378 . S
C110 H122 0.952 . S
C111 C110 1.378 . S
C111 H123 0.950 . S
C111 C142 1.383 . S
H112 C131 0.947 . S
H113 C132 0.948 . S
H114 C134 0.953 . S
H115 C135 0.945 . S
H116 C137 0.947 1_565 S
H117 C138 0.953 . S
H118 C140 0.950 . S
H119 C141 0.948 . S
H120 C143 0.950 1_565 S
H121 C108 0.947 1_565 S
H122 C110 0.952 . S
H123 C111 0.950 . S
N124 C127 1.382 . S
N124 C129 1.363 . S
N125 C127 1.371 . S
N125 C128 1.372 . S
N126 C128 1.361 . S
N126 C129 1.377 . S
C127 N124 1.382 . S
C127 N125 1.371 . S
C127 C130 1.480 . S
C128 N125 1.372 . S
C128 N126 1.361 . S
C128 C136 1.457 . S
C129 N124 1.363 . S
C129 N126 1.377 . S
C129 C142 1.479 . S
C130 C127 1.480 . S
C130 C131 1.383 . S
C130 C135 1.385 . S
C131 H112 0.947 . S
C131 C130 1.383 . S
C131 C132 1.387 1_545 S
C132 H113 0.948 . S
C132 C131 1.387 1_565 S
C132 C133 1.383 1_565 S
C133 C132 1.383 1_545 S
C133 C134 1.377 . S
C134 H114 0.953 . S
C134 C133 1.377 . S
C134 C135 1.369 . S
C135 H115 0.945 . S
C135 C130 1.385 . S
C135 C134 1.369 . S
C136 C128 1.457 . S
C136 C137 1.380 . S
C136 C141 1.364 . S
C137 H116 0.947 1_545 S
C137 C136 1.380 . S
C137 C138 1.387 1_545 S
C138 H117 0.953 . S
C138 C137 1.387 1_565 S
C138 C139 1.384 1_565 S
C139 C138 1.384 1_545 S
C139 C140 1.372 . S
C140 H118 0.950 . S
C140 C139 1.372 . S
C140 C141 1.379 . S
C141 H119 0.948 . S
C141 C136 1.364 . S
C141 C140 1.379 . S
C142 C111 1.383 . S
C142 C129 1.479 . S
C142 C143 1.400 . S
C143 C108 1.382 . S
C143 H120 0.950 1_545 S
C143 C142 1.400 . S
C144 C145 1.381 1_455 S
C144 H157 0.949 . S
C144 C179 1.382 . S
C145 C144 1.381 1_655 S
C145 C146 1.386 . S
C146 C145 1.386 . S
C146 C147 1.378 . S
C146 H158 0.952 . S
C147 C146 1.378 . S
C147 H159 0.950 . S
C147 C178 1.383 . S
H148 C167 0.947 . S
H149 C168 0.954 . S
H150 C170 0.953 . S
H151 C171 0.945 . S
H152 C173 0.951 1_455 S
H153 C174 0.958 . S
H154 C176 0.950 . S
H155 C177 0.948 . S
H156 C179 0.951 . S
H157 C144 0.949 . S
H158 C146 0.952 . S
H159 C147 0.950 . S
N160 C163 1.382 . S
N160 C165 1.363 . S
N161 C163 1.371 . S
N161 C164 1.372 . S
N162 C164 1.361 . S
N162 C165 1.377 . S
C163 N160 1.382 . S
C163 N161 1.371 . S
C163 C166 1.480 . S
C164 N161 1.372 . S
C164 N162 1.361 . S
C164 C172 1.457 . S
C165 N160 1.363 . S
C165 N162 1.377 . S
C165 C178 1.479 . S
C166 C163 1.480 . S
C166 C167 1.383 . S
C166 C171 1.385 . S
C167 H148 0.947 . S
C167 C166 1.383 . S
C167 C168 1.385 1_655 S
C168 H149 0.954 . S
C168 C167 1.385 1_455 S
C168 C169 1.381 1_455 S
C169 C168 1.381 1_655 S
C169 C170 1.377 . S
C170 H150 0.953 . S
C170 C169 1.377 . S
C170 C171 1.369 . S
C171 H151 0.945 . S
C171 C166 1.385 . S
C171 C170 1.369 . S
C172 C164 1.457 . S
C172 C173 1.374 . S
C172 C177 1.364 . S
C173 H152 0.951 1_655 S
C173 C172 1.374 . S
C173 C174 1.387 1_655 S
C174 H153 0.958 . S
C174 C173 1.387 1_455 S
C174 C175 1.382 1_455 S
C175 C174 1.382 1_655 S
C175 C176 1.372 . S
C176 H154 0.950 . S
C176 C175 1.372 . S
C176 C177 1.379 . S
C177 H155 0.948 . S
C177 C172 1.364 . S
C177 C176 1.379 . S
C178 C147 1.383 . S
C178 C165 1.479 . S
C178 C179 1.398 1_655 S
C179 C144 1.382 . S
C179 H156 0.951 . S
C179 C178 1.398 1_455 S
C180 C181 1.384 . S
C180 H193 0.947 1_545 S
C180 C215 1.382 . S
C181 C180 1.384 . S
C181 C182 1.378 . S
C182 C181 1.378 . S
C182 C183 1.378 . S
C182 H194 0.952 . S
C183 C182 1.378 . S
C183 H195 0.950 . S
C183 C214 1.383 . S
H184 C203 0.947 . S
H185 C204 0.948 . S
H186 C206 0.953 . S
H187 C207 0.945 . S
H188 C209 0.947 1_565 S
H189 C210 0.953 . S
H190 C212 0.950 . S
H191 C213 0.948 . S
H192 C215 0.950 1_565 S
H193 C180 0.947 1_565 S
H194 C182 0.952 . S
H195 C183 0.950 . S
N196 C199 1.382 . S
N196 C201 1.363 . S
N197 C199 1.371 . S
N197 C200 1.372 . S
N198 C200 1.361 . S
N198 C201 1.377 . S
C199 N196 1.382 . S
C199 N197 1.371 . S
C199 C202 1.480 . S
C200 N197 1.372 . S
C200 N198 1.361 . S
C200 C208 1.457 . S
C201 N196 1.363 . S
C201 N198 1.377 . S
C201 C214 1.479 . S
C202 C199 1.480 . S
C202 C203 1.383 . S
C202 C207 1.385 . S
C203 H184 0.947 . S
C203 C202 1.383 . S
C203 C204 1.387 1_545 S
C204 H185 0.948 . S
C204 C203 1.387 1_565 S
C204 C205 1.383 1_565 S
C205 C204 1.383 1_545 S
C205 C206 1.377 . S
C206 H186 0.953 . S
C206 C205 1.377 . S
C206 C207 1.369 . S
C207 H187 0.945 . S
C207 C202 1.385 . S
C207 C206 1.369 . S
C208 C200 1.457 . S
C208 C209 1.379 . S
C208 C213 1.364 . S
C209 H188 0.947 1_545 S
C209 C208 1.379 . S
C209 C210 1.387 1_545 S
C210 H189 0.953 . S
C210 C209 1.387 1_565 S
C210 C211 1.384 1_565 S
C211 C210 1.384 1_545 S
C211 C212 1.372 . S
C212 H190 0.950 . S
C212 C211 1.372 . S
C212 C213 1.379 . S
C213 H191 0.948 . S
C213 C208 1.364 . S
C213 C212 1.379 . S
C214 C183 1.383 . S
C214 C201 1.479 . S
C214 C215 1.400 . S
C215 C180 1.382 . S
C215 H192 0.950 1_545 S
C215 C214 1.400 . S
C216 C217 1.384 . S
C216 H229 0.947 1_455 S
C216 C251 1.382 . S
C217 C216 1.384 . S
C217 C218 1.378 . S
C218 C217 1.378 . S
C218 C219 1.378 . S
C218 H230 0.952 . S
C219 C218 1.378 . S
C219 H231 0.950 . S
C219 C250 1.383 . S
H220 C239 0.947 . S
H221 C240 0.947 . S
H222 C242 0.953 . S
H223 C243 0.945 . S
H224 C245 0.946 1_655 S
H225 C246 0.952 . S
H226 C248 0.950 . S
H227 C249 0.948 . S
H228 C251 0.949 1_655 S
H229 C216 0.947 1_655 S
H230 C218 0.952 . S
H231 C219 0.950 . S
N232 C235 1.382 . S
N232 C237 1.363 . S
N233 C235 1.371 . S
N233 C236 1.372 . S
N234 C236 1.361 . S
N234 C237 1.377 . S
C235 N232 1.382 . S
C235 N233 1.371 . S
C235 C238 1.480 . S
C236 N233 1.372 . S
C236 N234 1.361 . S
C236 C244 1.457 . S
C237 N232 1.363 . S
C237 N234 1.377 . S
C237 C250 1.479 . S
C238 C235 1.480 . S
C238 C239 1.383 . S
C238 C243 1.385 . S
C239 H220 0.947 . S
C239 C238 1.383 . S
C239 C240 1.388 1_455 S
C240 H221 0.947 . S
C240 C239 1.388 1_655 S
C240 C241 1.383 1_655 S
C241 C240 1.383 1_455 S
C241 C242 1.377 . S
C242 H222 0.953 . S
C242 C241 1.377 . S
C242 C243 1.369 . S
C243 H223 0.945 . S
C243 C238 1.385 . S
C243 C242 1.369 . S
C244 C236 1.457 . S
C244 C245 1.381 . S
C244 C249 1.364 . S
C245 H224 0.946 1_455 S
C245 C244 1.381 . S
C245 C246 1.387 1_455 S
C246 H225 0.952 . S
C246 C245 1.387 1_655 S
C246 C247 1.385 1_655 S
C247 C246 1.385 1_455 S
C247 C248 1.372 . S
C248 H226 0.950 . S
C248 C247 1.372 . S
C248 C249 1.379 . S
C249 H227 0.948 . S
C249 C244 1.364 . S
C249 C248 1.379 . S
C250 C219 1.383 . S
C250 C237 1.479 . S
C250 C251 1.401 . S
C251 C216 1.382 . S
C251 H228 0.949 1_455 S
C251 C250 1.401 . S
C252 C253 1.383 1_545 S
C252 H265 0.948 . S
C252 C287 1.382 1_545 S
C253 C252 1.383 1_565 S
C253 C254 1.378 . S
C254 C253 1.378 . S
C254 C255 1.378 . S
C254 H266 0.952 . S
C255 C254 1.378 . S
C255 H267 0.950 . S
C255 C286 1.383 . S
H256 C275 0.947 . S
H257 C276 0.952 . S
H258 C278 0.953 . S
H259 C279 0.945 . S
H260 C281 0.949 1_545 S
H261 C282 0.957 . S
H262 C284 0.950 . S
H263 C285 0.948 . S
H264 C287 0.952 1_545 S
H265 C252 0.948 . S
H266 C254 0.952 . S
H267 C255 0.950 . S
N268 C271 1.382 . S
N268 C273 1.363 . S
N269 C271 1.371 . S
N269 C272 1.372 . S
N270 C272 1.361 . S
N270 C273 1.377 . S
C271 N268 1.382 . S
C271 N269 1.371 . S
C271 C274 1.480 . S
C272 N269 1.372 . S
C272 N270 1.361 . S
C272 C280 1.457 . S
C273 N268 1.363 . S
C273 N270 1.377 . S
C273 C286 1.479 . S
C274 C271 1.480 . S
C274 C275 1.383 . S
C274 C279 1.385 . S
C275 H256 0.947 . S
C275 C274 1.383 . S
C275 C276 1.386 1_565 S
C276 H257 0.952 . S
C276 C275 1.386 1_545 S
C276 C277 1.381 1_545 S
C277 C276 1.381 1_565 S
C277 C278 1.377 . S
C278 H258 0.953 . S
C278 C277 1.377 . S
C278 C279 1.369 . S
C279 H259 0.945 . S
C279 C274 1.385 . S
C279 C278 1.369 . S
C280 C272 1.457 . S
C280 C281 1.375 . S
C280 C285 1.364 . S
C281 H260 0.949 1_565 S
C281 C280 1.375 . S
C281 C282 1.387 1_565 S
C282 H261 0.957 . S
C282 C281 1.387 1_545 S
C282 C283 1.383 1_545 S
C283 C282 1.383 1_565 S
C283 C284 1.372 . S
C284 H262 0.950 . S
C284 C283 1.372 . S
C284 C285 1.379 . S
C285 H263 0.948 . S
C285 C280 1.364 . S
C285 C284 1.379 . S
C286 C255 1.383 . S
C286 C273 1.479 . S
C286 C287 1.397 . S
C287 C252 1.382 1_565 S
C287 H264 0.952 1_565 S
C287 C286 1.397 . S
C288 C289 1.385 . S
C288 H301 0.944 1_554 S
C288 C323 1.382 . S
C289 C288 1.385 . S
C289 C290 1.378 . S
C290 C289 1.378 . S
C290 C291 1.378 . S
C290 H302 0.952 . S
C291 C290 1.378 . S
C291 H303 0.950 . S
C291 C322 1.383 . S
H292 C311 0.947 . S
H293 C312 0.946 1_556 S
H294 C314 0.953 . S
H295 C315 0.945 . S
H296 C317 0.945 1_556 S
H297 C318 0.949 . S
H298 C320 0.950 . S
H299 C321 0.948 . S
H300 C323 0.946 1_556 S
H301 C288 0.944 1_556 S
H302 C290 0.952 . S
H303 C291 0.950 . S
N304 C307 1.382 . S
N304 C309 1.363 . S
N305 C307 1.371 . S
N305 C308 1.372 . S
N306 C308 1.361 . S
N306 C309 1.377 . S
C307 N304 1.382 . S
C307 N305 1.371 . S
C307 C310 1.480 . S
C308 N305 1.372 . S
C308 N306 1.361 . S
C308 C316 1.457 . S
C309 N304 1.363 . S
C309 N306 1.377 . S
C309 C322 1.479 . S
C310 C307 1.480 . S
C310 C311 1.383 . S
C310 C315 1.385 . S
C311 H292 0.947 . S
C311 C310 1.383 . S
C311 C312 1.388 . S
C312 H293 0.946 1_554 S
C312 C311 1.388 . S
C312 C313 1.384 . S
C313 C312 1.384 . S
C313 C314 1.377 . S
C314 H294 0.953 . S
C314 C313 1.377 . S
C314 C315 1.369 . S
C315 H295 0.945 . S
C315 C310 1.385 . S
C315 C314 1.369 . S
C316 C308 1.457 . S
C316 C317 1.385 . S
C316 C321 1.364 . S
C317 H296 0.945 1_554 S
C317 C316 1.385 . S
C317 C318 1.387 1_554 S
C318 H297 0.949 . S
C318 C317 1.387 1_556 S
C318 C319 1.386 1_556 S
C319 C318 1.386 1_554 S
C319 C320 1.372 . S
C320 H298 0.950 . S
C320 C319 1.372 . S
C320 C321 1.379 . S
C321 H299 0.948 . S
C321 C316 1.364 . S
C321 C320 1.379 . S
C322 C291 1.383 . S
C322 C309 1.479 . S
C322 C323 1.403 . S
C323 C288 1.382 . S
C323 H300 0.946 1_554 S
C323 C322 1.403 . S
C324 C325 1.381 1_554 S
C324 H337 0.950 . S
C324 C359 1.382 . S
C325 C324 1.381 1_556 S
C325 C326 1.384 . S
C326 C325 1.384 . S
C326 C327 1.378 . S
C326 H338 0.952 . S
C327 C326 1.378 . S
C327 H339 0.950 . S
C327 C358 1.383 . S
H328 C347 0.947 . S
H329 C348 0.959 . S
H330 C350 0.953 . S
H331 C351 0.945 . S
H332 C353 0.951 . S
H333 C354 0.949 . S
H334 C356 0.950 . S
H335 C357 0.948 . S
H336 C359 0.953 . S
H337 C324 0.950 . S
H338 C326 0.952 . S
H339 C327 0.950 . S
N340 C343 1.382 . S
N340 C345 1.363 . S
N341 C343 1.371 . S
N341 C344 1.372 . S
N342 C344 1.361 . S
N342 C345 1.377 . S
C343 N340 1.382 . S
C343 N341 1.371 . S
C343 C346 1.480 . S
C344 N341 1.372 . S
C344 N342 1.361 . S
C344 C352 1.457 . S
C345 N340 1.363 . S
C345 N342 1.377 . S
C345 C358 1.479 . S
C346 C343 1.480 . S
C346 C347 1.383 . S
C346 C351 1.385 . S
C347 H328 0.947 . S
C347 C346 1.383 . S
C347 C348 1.384 1_556 S
C348 H329 0.959 . S
C348 C347 1.384 1_554 S
C348 C349 1.380 1_554 S
C349 C348 1.380 1_556 S
C349 C350 1.377 . S
C350 H330 0.953 . S
C350 C349 1.377 . S
C350 C351 1.369 . S
C351 H331 0.945 . S
C351 C346 1.385 . S
C351 C350 1.369 . S
C352 C344 1.457 . S
C352 C353 1.373 1_556 S
C352 C357 1.364 . S
C353 H332 0.951 . S
C353 C352 1.373 1_554 S
C353 C354 1.388 . S
C354 H333 0.949 . S
C354 C353 1.388 . S
C354 C355 1.381 1_554 S
C355 C354 1.381 1_556 S
C355 C356 1.383 . S
C356 H334 0.950 . S
C356 C355 1.383 . S
C356 C357 1.379 . S
C357 H335 0.948 . S
C357 C352 1.364 . S
C357 C356 1.379 . S
C358 C327 1.383 . S
C358 C345 1.479 . S
C358 C359 1.396 1_556 S
C359 C324 1.382 . S
C359 H336 0.953 . S
C359 C358 1.396 1_554 S
C360 C361 1.381 1_554 S
C360 H373 0.950 . S
C360 C395 1.382 . S
C361 C360 1.381 1_556 S
C361 C362 1.384 . S
C362 C361 1.384 . S
C362 C363 1.378 . S
C362 H374 0.952 . S
C363 C362 1.378 . S
C363 H375 0.950 . S
C363 C394 1.383 . S
H364 C383 0.947 . S
H365 C384 0.959 . S
H366 C386 0.953 . S
H367 C387 0.945 . S
H368 C389 0.951 . S
H369 C390 0.949 . S
H370 C392 0.950 . S
H371 C393 0.948 . S
H372 C395 0.953 . S
H373 C360 0.950 . S
H374 C362 0.952 . S
H375 C363 0.950 . S
N376 C379 1.382 . S
N376 C381 1.363 . S
N377 C379 1.371 . S
N377 C380 1.372 . S
N378 C380 1.361 . S
N378 C381 1.377 . S
C379 N376 1.382 . S
C379 N377 1.371 . S
C379 C382 1.480 . S
C380 N377 1.372 . S
C380 N378 1.361 . S
C380 C388 1.457 . S
C381 N376 1.363 . S
C381 N378 1.377 . S
C381 C394 1.479 . S
C382 C379 1.480 . S
C382 C383 1.383 . S
C382 C387 1.385 . S
C383 H364 0.947 . S
C383 C382 1.383 . S
C383 C384 1.384 1_556 S
C384 H365 0.959 . S
C384 C383 1.384 1_554 S
C384 C385 1.380 1_554 S
C385 C384 1.380 1_556 S
C385 C386 1.377 . S
C386 H366 0.953 . S
C386 C385 1.377 . S
C386 C387 1.369 . S
C387 H367 0.945 . S
C387 C382 1.385 . S
C387 C386 1.369 . S
C388 C380 1.457 . S
C388 C389 1.373 1_556 S
C388 C393 1.364 . S
C389 H368 0.951 . S
C389 C388 1.373 1_554 S
C389 C390 1.388 . S
C390 H369 0.949 . S
C390 C389 1.388 . S
C390 C391 1.381 1_554 S
C391 C390 1.381 1_556 S
C391 C392 1.383 . S
C392 H370 0.950 . S
C392 C391 1.383 . S
C392 C393 1.379 . S
C393 H371 0.948 . S
C393 C388 1.364 . S
C393 C392 1.379 . S
C394 C363 1.383 . S
C394 C381 1.479 . S
C394 C395 1.396 1_556 S
C395 C360 1.382 . S
C395 H372 0.953 . S
C395 C394 1.396 1_554 S
C396 C397 1.381 1_554 S
C396 H409 0.951 . S
C396 C431 1.382 . S
C397 C396 1.381 1_556 S
C397 C398 1.383 . S
C398 C397 1.383 . S
C398 C399 1.378 . S
C398 H410 0.952 . S
C399 C398 1.378 . S
C399 H411 0.950 . S
C399 C430 1.383 . S
H400 C419 0.947 . S
H401 C420 0.958 . S
H402 C422 0.953 . S
H403 C423 0.945 . S
H404 C425 0.951 . S
H405 C426 0.949 . S
H406 C428 0.950 . S
H407 C429 0.948 . S
H408 C431 0.953 . S
H409 C396 0.951 . S
H410 C398 0.952 . S
H411 C399 0.950 . S
N412 C415 1.382 . S
N412 C417 1.363 . S
N413 C415 1.371 . S
N413 C416 1.372 . S
N414 C416 1.361 . S
N414 C417 1.377 . S
C415 N412 1.382 . S
C415 N413 1.371 . S
C415 C418 1.480 . S
C416 N413 1.372 . S
C416 N414 1.361 . S
C416 C424 1.457 . S
C417 N412 1.363 . S
C417 N414 1.377 . S
C417 C430 1.479 . S
C418 C415 1.480 . S
C418 C419 1.383 . S
C418 C423 1.385 . S
C419 H400 0.947 . S
C419 C418 1.383 . S
C419 C420 1.384 1_556 S
C420 H401 0.958 . S
C420 C419 1.384 1_554 S
C420 C421 1.380 1_554 S
C421 C420 1.380 1_556 S
C421 C422 1.377 . S
C422 H402 0.953 . S
C422 C421 1.377 . S
C422 C423 1.369 . S
C423 H403 0.945 . S
C423 C418 1.385 . S
C423 C422 1.369 . S
C424 C416 1.457 . S
C424 C425 1.373 1_556 S
C424 C429 1.364 . S
C425 H404 0.951 . S
C425 C424 1.373 1_554 S
C425 C426 1.388 . S
C426 H405 0.949 . S
C426 C425 1.388 . S
C426 C427 1.381 1_554 S
C427 C426 1.381 1_556 S
C427 C428 1.383 . S
C428 H406 0.950 . S
C428 C427 1.383 . S
C428 C429 1.379 . S
C429 H407 0.948 . S
C429 C424 1.364 . S
C429 C428 1.379 . S
C430 C399 1.383 . S
C430 C417 1.479 . S
C430 C431 1.396 1_556 S
C431 C396 1.382 . S
C431 H408 0.953 . S
C431 C430 1.396 1_554 S
C432 C433 1.384 . S
C432 H445 0.947 . S
C432 C467 1.382 . S
C433 C432 1.384 . S
C433 C434 1.378 . S
C434 C433 1.378 . S
C434 C435 1.378 . S
C434 H446 0.952 . S
C435 C434 1.378 . S
C435 H447 0.950 . S
C435 C466 1.383 . S
H436 C455 0.947 . S
H437 C456 0.946 . S
H438 C458 0.953 . S
H439 C459 0.945 . S
H440 C461 0.952 . S
H441 C462 0.949 . S
H442 C464 0.950 . S
H443 C465 0.948 . S
H444 C467 0.951 . S
H445 C432 0.947 . S
H446 C434 0.952 . S
H447 C435 0.950 . S
N448 C451 1.382 . S
N448 C453 1.363 . S
N449 C451 1.371 . S
N449 C452 1.372 . S
N450 C452 1.361 . S
N450 C453 1.377 . S
C451 N448 1.382 . S
C451 N449 1.371 . S
C451 C454 1.480 . S
C452 N449 1.372 . S
C452 N450 1.361 . S
C452 C460 1.457 . S
C453 N448 1.363 . S
C453 N450 1.377 . S
C453 C466 1.479 . S
C454 C451 1.480 . S
C454 C455 1.383 . S
C454 C459 1.385 . S
C455 H436 0.947 . S
C455 C454 1.383 . S
C455 C456 1.388 . S
C456 H437 0.946 . S
C456 C455 1.388 . S
C456 C457 1.384 . S
C457 C456 1.384 . S
C457 C458 1.377 . S
C458 H438 0.953 . S
C458 C457 1.377 . S
C458 C459 1.369 . S
C459 H439 0.945 . S
C459 C454 1.385 . S
C459 C458 1.369 . S
C460 C452 1.457 . S
C460 C461 1.372 . S
C460 C465 1.364 . S
C461 H440 0.952 . S
C461 C460 1.372 . S
C461 C462 1.389 . S
C462 H441 0.949 . S
C462 C461 1.389 . S
C462 C463 1.387 . S
C463 C462 1.387 . S
C463 C464 1.372 . S
C464 H442 0.950 . S
C464 C463 1.372 . S
C464 C465 1.379 . S
C465 H443 0.948 . S
C465 C460 1.364 . S
C465 C464 1.379 . S
C466 C435 1.383 . S
C466 C453 1.479 . S
C466 C467 1.398 . S
C467 C432 1.382 . S
C467 H444 0.951 . S
C467 C466 1.398 . S
C468 C469 1.384 . S
C468 H481 0.947 . S
C468 C503 1.382 . S
C469 C468 1.384 . S
C469 C470 1.378 . S
C470 C469 1.378 . S
C470 C471 1.378 . S
C470 H482 0.952 . S
C471 C470 1.378 . S
C471 H483 0.950 . S
C471 C502 1.383 . S
H472 C491 0.947 . S
H473 C492 0.946 . S
H474 C494 0.953 . S
H475 C495 0.945 . S
H476 C497 0.952 . S
H477 C498 0.949 . S
H478 C500 0.950 . S
H479 C501 0.948 . S
H480 C503 0.951 . S
H481 C468 0.947 . S
H482 C470 0.952 . S
H483 C471 0.950 . S
N484 C487 1.382 . S
N484 C489 1.363 . S
N485 C487 1.371 . S
N485 C488 1.372 . S
N486 C488 1.361 . S
N486 C489 1.377 . S
C487 N484 1.382 . S
C487 N485 1.371 . S
C487 C490 1.480 . S
C488 N485 1.372 . S
C488 N486 1.361 . S
C488 C496 1.457 . S
C489 N484 1.363 . S
C489 N486 1.377 . S
C489 C502 1.479 . S
C490 C487 1.480 . S
C490 C491 1.383 . S
C490 C495 1.385 . S
C491 H472 0.947 . S
C491 C490 1.383 . S
C491 C492 1.388 . S
C492 H473 0.946 . S
C492 C491 1.388 . S
C492 C493 1.384 . S
C493 C492 1.384 . S
C493 C494 1.377 . S
C494 H474 0.953 . S
C494 C493 1.377 . S
C494 C495 1.369 . S
C495 H475 0.945 . S
C495 C490 1.385 . S
C495 C494 1.369 . S
C496 C488 1.457 . S
C496 C497 1.372 . S
C496 C501 1.364 . S
C497 H476 0.952 . S
C497 C496 1.372 . S
C497 C498 1.389 . S
C498 H477 0.949 . S
C498 C497 1.389 . S
C498 C499 1.387 . S
C499 C498 1.387 . S
C499 C500 1.372 . S
C500 H478 0.950 . S
C500 C499 1.372 . S
C500 C501 1.379 . S
C501 H479 0.948 . S
C501 C496 1.364 . S
C501 C500 1.379 . S
C502 C471 1.383 . S
C502 C489 1.479 . S
C502 C503 1.398 . S
C503 C468 1.382 . S
C503 H480 0.951 . S
C503 C502 1.398 . S
C504 C505 1.384 . S
C504 H517 0.947 . S
C504 C539 1.382 . S
C505 C504 1.384 . S
C505 C506 1.378 . S
C506 C505 1.378 . S
C506 C507 1.378 . S
C506 H518 0.952 . S
C507 C506 1.378 . S
C507 H519 0.950 . S
C507 C538 1.383 . S
H508 C527 0.947 . S
H509 C528 0.946 . S
H510 C530 0.953 . S
H511 C531 0.945 . S
H512 C533 0.952 . S
H513 C534 0.949 . S
H514 C536 0.950 . S
H515 C537 0.948 . S
H516 C539 0.951 . S
H517 C504 0.947 . S
H518 C506 0.952 . S
H519 C507 0.950 . S
N520 C523 1.382 . S
N520 C525 1.363 . S
N521 C523 1.371 . S
N521 C524 1.372 . S
N522 C524 1.361 . S
N522 C525 1.377 . S
C523 N520 1.382 . S
C523 N521 1.371 . S
C523 C526 1.480 . S
C524 N521 1.372 . S
C524 N522 1.361 . S
C524 C532 1.457 . S
C525 N520 1.363 . S
C525 N522 1.377 . S
C525 C538 1.479 . S
C526 C523 1.480 . S
C526 C527 1.383 . S
C526 C531 1.385 . S
C527 H508 0.947 . S
C527 C526 1.383 . S
C527 C528 1.388 . S
C528 H509 0.946 . S
C528 C527 1.388 . S
C528 C529 1.384 . S
C529 C528 1.384 . S
C529 C530 1.377 . S
C530 H510 0.953 . S
C530 C529 1.377 . S
C530 C531 1.369 . S
C531 H511 0.945 . S
C531 C526 1.385 . S
C531 C530 1.369 . S
C532 C524 1.457 . S
C532 C533 1.372 . S
C532 C537 1.364 . S
C533 H512 0.952 . S
C533 C532 1.372 . S
C533 C534 1.389 . S
C534 H513 0.949 . S
C534 C533 1.389 . S
C534 C535 1.387 . S
C535 C534 1.387 . S
C535 C536 1.372 . S
C536 H514 0.950 . S
C536 C535 1.372 . S
C536 C537 1.379 . S
C537 H515 0.948 . S
C537 C532 1.364 . S
C537 C536 1.379 . S
C538 C507 1.383 . S
C538 C525 1.479 . S
C538 C539 1.398 . S
C539 C504 1.382 . S
C539 H516 0.951 . S
C539 C538 1.398 . S
C540 C541 1.384 . S
C540 H553 0.947 . S
C540 C575 1.382 . S
C541 C540 1.384 . S
C541 C542 1.378 . S
C542 C541 1.378 . S
C542 C543 1.378 . S
C542 H554 0.952 . S
C543 C542 1.378 . S
C543 H555 0.950 . S
C543 C574 1.383 . S
H544 C563 0.947 . S
H545 C564 0.946 . S
H546 C566 0.953 . S
H547 C567 0.945 . S
H548 C569 0.952 . S
H549 C570 0.949 . S
H550 C572 0.950 . S
H551 C573 0.948 . S
H552 C575 0.951 . S
H553 C540 0.947 . S
H554 C542 0.952 . S
H555 C543 0.950 . S
N556 C559 1.382 . S
N556 C561 1.363 . S
N557 C559 1.371 . S
N557 C560 1.372 . S
N558 C560 1.361 . S
N558 C561 1.377 . S
C559 N556 1.382 . S
C559 N557 1.371 . S
C559 C562 1.480 . S
C560 N557 1.372 . S
C560 N558 1.361 . S
C560 C568 1.457 . S
C561 N556 1.363 . S
C561 N558 1.377 . S
C561 C574 1.479 . S
C562 C559 1.480 . S
C562 C563 1.383 . S
C562 C567 1.385 . S
C563 H544 0.947 . S
C563 C562 1.383 . S
C563 C564 1.388 . S
C564 H545 0.946 . S
C564 C563 1.388 . S
C564 C565 1.384 . S
C565 C564 1.384 . S
C565 C566 1.377 . S
C566 H546 0.953 . S
C566 C565 1.377 . S
C566 C567 1.369 . S
C567 H547 0.945 . S
C567 C562 1.385 . S
C567 C566 1.369 . S
C568 C560 1.457 . S
C568 C569 1.372 . S
C568 C573 1.364 . S
C569 H548 0.952 . S
C569 C568 1.372 . S
C569 C570 1.389 . S
C570 H549 0.949 . S
C570 C569 1.389 . S
C570 C571 1.387 . S
C571 C570 1.387 . S
C571 C572 1.372 . S
C572 H550 0.950 . S
C572 C571 1.372 . S
C572 C573 1.379 . S
C573 H551 0.948 . S
C573 C568 1.364 . S
C573 C572 1.379 . S
C574 C543 1.383 . S
C574 C561 1.479 . S
C574 C575 1.398 . S
C575 C540 1.382 . S
C575 H552 0.951 . S
C575 C574 1.398 . S
C576 C577 1.384 . S
C576 H589 0.947 . S
C576 C611 1.382 . S
C577 C576 1.384 . S
C577 C578 1.378 . S
C578 C577 1.378 . S
C578 C579 1.378 . S
C578 H590 0.952 . S
C579 C578 1.378 . S
C579 H591 0.950 . S
C579 C610 1.383 . S
H580 C599 0.947 . S
H581 C600 0.946 . S
H582 C602 0.953 . S
H583 C603 0.945 . S
H584 C605 0.952 . S
H585 C606 0.949 . S
H586 C608 0.950 . S
H587 C609 0.948 . S
H588 C611 0.951 . S
H589 C576 0.947 . S
H590 C578 0.952 . S
H591 C579 0.950 . S
N592 C595 1.382 . S
N592 C597 1.363 . S
N593 C595 1.371 . S
N593 C596 1.372 . S
N594 C596 1.361 . S
N594 C597 1.377 . S
C595 N592 1.382 . S
C595 N593 1.371 . S
C595 C598 1.480 . S
C596 N593 1.372 . S
C596 N594 1.361 . S
C596 C604 1.457 . S
C597 N592 1.363 . S
C597 N594 1.377 . S
C597 C610 1.479 . S
C598 C595 1.480 . S
C598 C599 1.383 . S
C598 C603 1.385 . S
C599 H580 0.947 . S
C599 C598 1.383 . S
C599 C600 1.388 . S
C600 H581 0.946 . S
C600 C599 1.388 . S
C600 C601 1.384 . S
C601 C600 1.384 . S
C601 C602 1.377 . S
C602 H582 0.953 . S
C602 C601 1.377 . S
C602 C603 1.369 . S
C603 H583 0.945 . S
C603 C598 1.385 . S
C603 C602 1.369 . S
C604 C596 1.457 . S
C604 C605 1.372 . S
C604 C609 1.364 . S
C605 H584 0.952 . S
C605 C604 1.372 . S
C605 C606 1.389 . S
C606 H585 0.949 . S
C606 C605 1.389 . S
C606 C607 1.387 . S
C607 C606 1.387 . S
C607 C608 1.372 . S
C608 H586 0.950 . S
C608 C607 1.372 . S
C608 C609 1.379 . S
C609 H587 0.948 . S
C609 C604 1.364 . S
C609 C608 1.379 . S
C610 C579 1.383 . S
C610 C597 1.479 . S
C610 C611 1.398 . S
C611 C576 1.382 . S
C611 H588 0.951 . S
C611 C610 1.398 . S
C612 C613 1.384 . S
C612 H625 0.947 . S
C612 C647 1.382 . S
C613 C612 1.384 . S
C613 C614 1.378 . S
C614 C613 1.378 . S
C614 C615 1.378 . S
C614 H626 0.952 . S
C615 C614 1.378 . S
C615 H627 0.950 . S
C615 C646 1.383 . S
H616 C635 0.947 . S
H617 C636 0.946 . S
H618 C638 0.953 . S
H619 C639 0.945 . S
H620 C641 0.952 . S
H621 C642 0.949 . S
H622 C644 0.950 . S
H623 C645 0.948 . S
H624 C647 0.951 . S
H625 C612 0.947 . S
H626 C614 0.952 . S
H627 C615 0.950 . S
N628 C631 1.382 . S
N628 C633 1.363 . S
N629 C631 1.371 . S
N629 C632 1.372 . S
N630 C632 1.361 . S
N630 C633 1.377 . S
C631 N628 1.382 . S
C631 N629 1.371 . S
C631 C634 1.480 . S
C632 N629 1.372 . S
C632 N630 1.361 . S
C632 C640 1.457 . S
C633 N628 1.363 . S
C633 N630 1.377 . S
C633 C646 1.479 . S
C634 C631 1.480 . S
C634 C635 1.383 . S
C634 C639 1.385 . S
C635 H616 0.947 . S
C635 C634 1.383 . S
C635 C636 1.388 . S
C636 H617 0.946 . S
C636 C635 1.388 . S
C636 C637 1.384 . S
C637 C636 1.384 . S
C637 C638 1.377 . S
C638 H618 0.953 . S
C638 C637 1.377 . S
C638 C639 1.369 . S
C639 H619 0.945 . S
C639 C634 1.385 . S
C639 C638 1.369 . S
C640 C632 1.457 . S
C640 C641 1.372 . S
C640 C645 1.364 . S
C641 H620 0.952 . S
C641 C640 1.372 . S
C641 C642 1.389 . S
C642 H621 0.949 . S
C642 C641 1.389 . S
C642 C643 1.387 . S
C643 C642 1.387 . S
C643 C644 1.372 . S
C644 H622 0.950 . S
C644 C643 1.372 . S
C644 C645 1.379 . S
C645 H623 0.948 . S
C645 C640 1.364 . S
C645 C644 1.379 . S
C646 C615 1.383 . S
C646 C633 1.479 . S
C646 C647 1.398 . S
C647 C612 1.382 . S
C647 H624 0.951 . S
C647 C646 1.398 . S
C648 C649 1.384 . S
C648 H661 0.947 . S
C648 C683 1.382 . S
C649 C648 1.384 . S
C649 C650 1.378 . S
C650 C649 1.378 . S
C650 C651 1.378 . S
C650 H662 0.952 . S
C651 C650 1.378 . S
C651 H663 0.950 . S
C651 C682 1.383 . S
H652 C671 0.947 . S
H653 C672 0.946 . S
H654 C674 0.953 . S
H655 C675 0.945 . S
H656 C677 0.952 . S
H657 C678 0.949 . S
H658 C680 0.950 . S
H659 C681 0.948 . S
H660 C683 0.951 . S
H661 C648 0.947 . S
H662 C650 0.952 . S
H663 C651 0.950 . S
N664 C667 1.382 . S
N664 C669 1.363 . S
N665 C667 1.371 . S
N665 C668 1.372 . S
N666 C668 1.361 . S
N666 C669 1.377 . S
C667 N664 1.382 . S
C667 N665 1.371 . S
C667 C670 1.480 . S
C668 N665 1.372 . S
C668 N666 1.361 . S
C668 C676 1.457 . S
C669 N664 1.363 . S
C669 N666 1.377 . S
C669 C682 1.479 . S
C670 C667 1.480 . S
C670 C671 1.383 . S
C670 C675 1.385 . S
C671 H652 0.947 . S
C671 C670 1.383 . S
C671 C672 1.388 . S
C672 H653 0.946 . S
C672 C671 1.388 . S
C672 C673 1.384 . S
C673 C672 1.384 . S
C673 C674 1.377 . S
C674 H654 0.953 . S
C674 C673 1.377 . S
C674 C675 1.369 . S
C675 H655 0.945 . S
C675 C670 1.385 . S
C675 C674 1.369 . S
C676 C668 1.457 . S
C676 C677 1.372 . S
C676 C681 1.364 . S
C677 H656 0.952 . S
C677 C676 1.372 . S
C677 C678 1.389 . S
C678 H657 0.949 . S
C678 C677 1.389 . S
C678 C679 1.387 . S
C679 C678 1.387 . S
C679 C680 1.372 . S
C680 H658 0.950 . S
C680 C679 1.372 . S
C680 C681 1.379 . S
C681 H659 0.948 . S
C681 C676 1.364 . S
C681 C680 1.379 . S
C682 C651 1.383 . S
C682 C669 1.479 . S
C682 C683 1.398 . S
C683 C648 1.382 . S
C683 H660 0.951 . S
C683 C682 1.398 . S
C684 C685 1.384 . S
C684 H697 0.947 . S
C684 C719 1.382 . S
C685 C684 1.384 . S
C685 C686 1.378 . S
C686 C685 1.378 . S
C686 C687 1.378 . S
C686 H698 0.952 . S
C687 C686 1.378 . S
C687 H699 0.950 . S
C687 C718 1.383 . S
H688 C707 0.947 . S
H689 C708 0.946 . S
H690 C710 0.953 . S
H691 C711 0.945 . S
H692 C713 0.952 . S
H693 C714 0.949 . S
H694 C716 0.950 . S
H695 C717 0.948 . S
H696 C719 0.951 . S
H697 C684 0.947 . S
H698 C686 0.952 . S
H699 C687 0.950 . S
N700 C703 1.382 . S
N700 C705 1.363 . S
N701 C703 1.371 . S
N701 C704 1.372 . S
N702 C704 1.361 . S
N702 C705 1.377 . S
C703 N700 1.382 . S
C703 N701 1.371 . S
C703 C706 1.480 . S
C704 N701 1.372 . S
C704 N702 1.361 . S
C704 C712 1.457 . S
C705 N700 1.363 . S
C705 N702 1.377 . S
C705 C718 1.479 . S
C706 C703 1.480 . S
C706 C707 1.383 . S
C706 C711 1.385 . S
C707 H688 0.947 . S
C707 C706 1.383 . S
C707 C708 1.388 . S
C708 H689 0.946 . S
C708 C707 1.388 . S
C708 C709 1.384 . S
C709 C708 1.384 . S
C709 C710 1.377 . S
C710 H690 0.953 . S
C710 C709 1.377 . S
C710 C711 1.369 . S
C711 H691 0.945 . S
C711 C706 1.385 . S
C711 C710 1.369 . S
C712 C704 1.457 . S
C712 C713 1.372 . S
C712 C717 1.364 . S
C713 H692 0.952 . S
C713 C712 1.372 . S
C713 C714 1.389 . S
C714 H693 0.949 . S
C714 C713 1.389 . S
C714 C715 1.387 . S
C715 C714 1.387 . S
C715 C716 1.372 . S
C716 H694 0.950 . S
C716 C715 1.372 . S
C716 C717 1.379 . S
C717 H695 0.948 . S
C717 C712 1.364 . S
C717 C716 1.379 . S
C718 C687 1.383 . S
C718 C705 1.479 . S
C718 C719 1.398 . S
C719 C684 1.382 . S
C719 H696 0.951 . S
C719 C718 1.398 . S
C720 C721 1.384 . S
C720 H733 0.947 . S
C720 C755 1.382 . S
C721 C720 1.384 . S
C721 C722 1.378 . S
C722 C721 1.378 . S
C722 C723 1.378 . S
C722 H734 0.952 . S
C723 C722 1.378 . S
C723 H735 0.950 . S
C723 C754 1.383 . S
H724 C743 0.947 . S
H725 C744 0.946 . S
H726 C746 0.953 . S
H727 C747 0.945 . S
H728 C749 0.952 . S
H729 C750 0.949 . S
H730 C752 0.950 . S
H731 C753 0.948 . S
H732 C755 0.951 . S
H733 C720 0.947 . S
H734 C722 0.952 . S
H735 C723 0.950 . S
N736 C739 1.382 . S
N736 C741 1.363 . S
N737 C739 1.371 . S
N737 C740 1.372 . S
N738 C740 1.361 . S
N738 C741 1.377 . S
C739 N736 1.382 . S
C739 N737 1.371 . S
C739 C742 1.480 . S
C740 N737 1.372 . S
C740 N738 1.361 . S
C740 C748 1.457 . S
C741 N736 1.363 . S
C741 N738 1.377 . S
C741 C754 1.479 . S
C742 C739 1.480 . S
C742 C743 1.383 . S
C742 C747 1.385 . S
C743 H724 0.947 . S
C743 C742 1.383 . S
C743 C744 1.388 . S
C744 H725 0.946 . S
C744 C743 1.388 . S
C744 C745 1.384 . S
C745 C744 1.384 . S
C745 C746 1.377 . S
C746 H726 0.953 . S
C746 C745 1.377 . S
C746 C747 1.369 . S
C747 H727 0.945 . S
C747 C742 1.385 . S
C747 C746 1.369 . S
C748 C740 1.457 . S
C748 C749 1.372 . S
C748 C753 1.364 . S
C749 H728 0.952 . S
C749 C748 1.372 . S
C749 C750 1.389 . S
C750 H729 0.949 . S
C750 C749 1.389 . S
C750 C751 1.387 . S
C751 C750 1.387 . S
C751 C752 1.372 . S
C752 H730 0.950 . S
C752 C751 1.372 . S
C752 C753 1.379 . S
C753 H731 0.948 . S
C753 C748 1.364 . S
C753 C752 1.379 . S
C754 C723 1.383 . S
C754 C741 1.479 . S
C754 C755 1.398 . S
C755 C720 1.382 . S
C755 H732 0.951 . S
C755 C754 1.398 . S
C756 C757 1.384 . S
C756 H769 0.947 . S
C756 C791 1.382 . S
C757 C756 1.384 . S
C757 C758 1.378 . S
C758 C757 1.378 . S
C758 C759 1.378 . S
C758 H770 0.952 . S
C759 C758 1.378 . S
C759 H771 0.950 . S
C759 C790 1.383 . S
H760 C779 0.947 . S
H761 C780 0.946 . S
H762 C782 0.953 . S
H763 C783 0.945 . S
H764 C785 0.952 . S
H765 C786 0.949 . S
H766 C788 0.950 . S
H767 C789 0.948 . S
H768 C791 0.951 . S
H769 C756 0.947 . S
H770 C758 0.952 . S
H771 C759 0.950 . S
N772 C775 1.382 . S
N772 C777 1.363 . S
N773 C775 1.371 . S
N773 C776 1.372 . S
N774 C776 1.361 . S
N774 C777 1.377 . S
C775 N772 1.382 . S
C775 N773 1.371 . S
C775 C778 1.480 . S
C776 N773 1.372 . S
C776 N774 1.361 . S
C776 C784 1.457 . S
C777 N772 1.363 . S
C777 N774 1.377 . S
C777 C790 1.479 . S
C778 C775 1.480 . S
C778 C779 1.383 . S
C778 C783 1.385 . S
C779 H760 0.947 . S
C779 C778 1.383 . S
C779 C780 1.388 . S
C780 H761 0.946 . S
C780 C779 1.388 . S
C780 C781 1.384 . S
C781 C780 1.384 . S
C781 C782 1.377 . S
C782 H762 0.953 . S
C782 C781 1.377 . S
C782 C783 1.369 . S
C783 H763 0.945 . S
C783 C778 1.385 . S
C783 C782 1.369 . S
C784 C776 1.457 . S
C784 C785 1.372 . S
C784 C789 1.364 . S
C785 H764 0.952 . S
C785 C784 1.372 . S
C785 C786 1.389 . S
C786 H765 0.949 . S
C786 C785 1.389 . S
C786 C787 1.387 . S
C787 C786 1.387 . S
C787 C788 1.372 . S
C788 H766 0.950 . S
C788 C787 1.372 . S
C788 C789 1.379 . S
C789 H767 0.948 . S
C789 C784 1.364 . S
C789 C788 1.379 . S
C790 C759 1.383 . S
C790 C777 1.479 . S
C790 C791 1.398 . S
C791 C756 1.382 . S
C791 H768 0.951 . S
C791 C790 1.398 . S
C792 C793 1.384 . S
C792 H805 0.947 . S
C792 C827 1.382 . S
C793 C792 1.384 . S
C793 C794 1.378 . S
C794 C793 1.378 . S
C794 C795 1.378 . S
C794 H806 0.952 . S
C795 C794 1.378 . S
C795 H807 0.950 . S
C795 C826 1.383 . S
H796 C815 0.947 . S
H797 C816 0.946 . S
H798 C818 0.953 . S
H799 C819 0.945 . S
H800 C821 0.952 . S
H801 C822 0.949 . S
H802 C824 0.950 . S
H803 C825 0.948 . S
H804 C827 0.951 . S
H805 C792 0.947 . S
H806 C794 0.952 . S
H807 C795 0.950 . S
N808 C811 1.382 . S
N808 C813 1.363 . S
N809 C811 1.371 . S
N809 C812 1.372 . S
N810 C812 1.361 . S
N810 C813 1.377 . S
C811 N808 1.382 . S
C811 N809 1.371 . S
C811 C814 1.480 . S
C812 N809 1.372 . S
C812 N810 1.361 . S
C812 C820 1.457 . S
C813 N808 1.363 . S
C813 N810 1.377 . S
C813 C826 1.479 . S
C814 C811 1.480 . S
C814 C815 1.383 . S
C814 C819 1.385 . S
C815 H796 0.947 . S
C815 C814 1.383 . S
C815 C816 1.388 . S
C816 H797 0.946 . S
C816 C815 1.388 . S
C816 C817 1.384 . S
C817 C816 1.384 . S
C817 C818 1.377 . S
C818 H798 0.953 . S
C818 C817 1.377 . S
C818 C819 1.369 . S
C819 H799 0.945 . S
C819 C814 1.385 . S
C819 C818 1.369 . S
C820 C812 1.457 . S
C820 C821 1.372 . S
C820 C825 1.364 . S
C821 H800 0.952 . S
C821 C820 1.372 . S
C821 C822 1.389 . S
C822 H801 0.949 . S
C822 C821 1.389 . S
C822 C823 1.387 . S
C823 C822 1.387 . S
C823 C824 1.372 . S
C824 H802 0.950 . S
C824 C823 1.372 . S
C824 C825 1.379 . S
C825 H803 0.948 . S
C825 C820 1.364 . S
C825 C824 1.379 . S
C826 C795 1.383 . S
C826 C813 1.479 . S
C826 C827 1.398 . S
C827 C792 1.382 . S
C827 H804 0.951 . S
C827 C826 1.398 . S
C828 C829 1.384 . S
C828 H841 0.947 . S
C828 C863 1.382 . S
C829 C828 1.384 . S
C829 C830 1.378 . S
C830 C829 1.378 . S
C830 C831 1.378 . S
C830 H842 0.952 . S
C831 C830 1.378 . S
C831 H843 0.950 . S
C831 C862 1.383 . S
H832 C851 0.947 . S
H833 C852 0.946 . S
H834 C854 0.953 . S
H835 C855 0.945 . S
H836 C857 0.952 . S
H837 C858 0.949 . S
H838 C860 0.950 . S
H839 C861 0.948 . S
H840 C863 0.951 . S
H841 C828 0.947 . S
H842 C830 0.952 . S
H843 C831 0.950 . S
N844 C847 1.382 . S
N844 C849 1.363 . S
N845 C847 1.371 . S
N845 C848 1.372 . S
N846 C848 1.361 . S
N846 C849 1.377 . S
C847 N844 1.382 . S
C847 N845 1.371 . S
C847 C850 1.480 . S
C848 N845 1.372 . S
C848 N846 1.361 . S
C848 C856 1.457 . S
C849 N844 1.363 . S
C849 N846 1.377 . S
C849 C862 1.479 . S
C850 C847 1.480 . S
C850 C851 1.383 . S
C850 C855 1.385 . S
C851 H832 0.947 . S
C851 C850 1.383 . S
C851 C852 1.388 . S
C852 H833 0.946 . S
C852 C851 1.388 . S
C852 C853 1.384 . S
C853 C852 1.384 . S
C853 C854 1.377 . S
C854 H834 0.953 . S
C854 C853 1.377 . S
C854 C855 1.369 . S
C855 H835 0.945 . S
C855 C850 1.385 . S
C855 C854 1.369 . S
C856 C848 1.457 . S
C856 C857 1.372 . S
C856 C861 1.364 . S
C857 H836 0.952 . S
C857 C856 1.372 . S
C857 C858 1.389 . S
C858 H837 0.949 . S
C858 C857 1.389 . S
C858 C859 1.387 . S
C859 C858 1.387 . S
C859 C860 1.372 . S
C860 H838 0.950 . S
C860 C859 1.372 . S
C860 C861 1.379 . S
C861 H839 0.948 . S
C861 C856 1.364 . S
C861 C860 1.379 . S
C862 C831 1.383 . S
C862 C849 1.479 . S
C862 C863 1.398 . S
C863 C828 1.382 . S
C863 H840 0.951 . S
C863 C862 1.398 . S
C864 O890 1.283 . S
C864 O908 1.283 . S
C865 O891 1.283 . S
C865 O906 1.283 . S
C866 O892 1.283 . S
C866 O909 1.283 . S
C867 O893 1.283 . S
C867 O907 1.283 . S
C868 O894 1.283 . S
C868 O903 1.283 . S
C869 O895 1.283 . S
C869 O905 1.283 . S
C870 O896 1.283 . S
C870 O902 1.283 . S
C871 O897 1.283 . S
C871 O904 1.283 . S
C872 O898 1.283 . S
C872 O913 1.283 . S
C873 O899 1.283 . S
C873 O911 1.283 . S
C874 O900 1.283 . S
C874 O912 1.283 . S
C875 O901 1.283 . S
C875 O910 1.283 . S
Eu876 O877 2.366 1_455 S
Eu876 O878 2.374 . S
Eu876 O881 2.366 1_455 S
Eu876 O882 2.374 . S
Eu876 O890 2.363 . S
Eu876 O891 2.363 . S
Eu876 O904 2.370 . S
Eu876 O905 2.356 1_455 S
O877 Eu876 2.366 1_655 S
O877 Eu879 2.368 1_565 S
O877 Eu884 2.364 1_665 S
O878 Eu876 2.374 . S
O878 Eu880 2.368 1_565 S
O878 Eu883 2.372 1_565 S
Eu879 O877 2.368 1_545 S
Eu879 O881 2.368 1_545 S
Eu879 O885 2.372 . S
Eu879 O886 2.372 . S
Eu879 O894 2.367 . S
Eu879 O895 2.359 1_545 S
Eu879 O910 2.363 . S
Eu879 O911 2.363 . S
Eu880 O878 2.368 1_545 S
Eu880 O882 2.368 1_545 S
Eu880 O887 2.373 . S
Eu880 O888 2.373 . S
Eu880 O896 2.367 . S
Eu880 O897 2.359 1_545 S
Eu880 O912 2.363 . S
Eu880 O913 2.363 . S
O881 Eu876 2.366 1_655 S
O881 Eu879 2.368 1_565 S
O881 Eu883 2.364 1_665 S
O882 Eu876 2.374 . S
O882 Eu880 2.368 1_565 S
O882 Eu884 2.372 1_565 S
Eu883 O878 2.372 1_545 S
Eu883 O881 2.364 1_445 S
Eu883 O885 2.369 1_455 S
Eu883 O888 2.377 . S
Eu883 O900 2.370 . S
Eu883 O901 2.356 1_455 S
Eu883 O908 2.359 1_545 S
Eu883 O909 2.367 . S
Eu884 O877 2.364 1_445 S
Eu884 O882 2.372 1_545 S
Eu884 O886 2.369 1_455 S
Eu884 O887 2.377 . S
Eu884 O898 2.370 . S
Eu884 O899 2.356 1_455 S
Eu884 O906 2.359 1_545 S
Eu884 O907 2.367 . S
O885 Eu879 2.372 . S
O885 Eu883 2.369 1_655 S
O885 Eu889 2.366 1_655 S
O886 Eu879 2.372 . S
O886 Eu884 2.369 1_655 S
O886 Eu889 2.366 1_655 S
O887 Eu880 2.373 . S
O887 Eu884 2.377 . S
O887 Eu889 2.374 . S
O888 Eu880 2.373 . S
O888 Eu883 2.377 . S
O888 Eu889 2.374 . S
Eu889 O885 2.366 1_455 S
Eu889 O886 2.366 1_455 S
Eu889 O887 2.374 . S
Eu889 O888 2.374 . S
Eu889 O892 2.363 . S
Eu889 O893 2.363 . S
Eu889 O902 2.369 . S
Eu889 O903 2.356 1_455 S
O890 C864 1.283 . S
O890 Eu876 2.363 . S
O891 C865 1.283 . S
O891 Eu876 2.363 . S
O892 C866 1.283 . S
O892 Eu889 2.363 . S
O893 C867 1.283 . S
O893 Eu889 2.363 . S
O894 C868 1.283 . S
O894 Eu879 2.367 . S
O895 C869 1.283 . S
O895 Eu879 2.359 1_565 S
O896 C870 1.283 . S
O896 Eu880 2.367 . S
O897 C871 1.283 . S
O897 Eu880 2.359 1_565 S
O898 C872 1.283 . S
O898 Eu884 2.370 . S
O899 C873 1.283 . S
O899 Eu884 2.356 1_655 S
O900 C874 1.283 . S
O900 Eu883 2.370 . S
O901 C875 1.283 . S
O901 Eu883 2.356 1_655 S
O902 C870 1.283 . S
O902 Eu889 2.369 . S
O903 C868 1.283 . S
O903 Eu889 2.356 1_655 S
O904 C871 1.283 . S
O904 Eu876 2.370 . S
O905 C869 1.283 . S
O905 Eu876 2.356 1_655 S
O906 C865 1.283 . S
O906 Eu884 2.359 1_565 S
O907 C867 1.283 . S
O907 Eu884 2.367 . S
O908 C864 1.283 . S
O908 Eu883 2.359 1_565 S
O909 C866 1.283 . S
O909 Eu883 2.367 . S
O910 C875 1.283 . S
O910 Eu879 2.363 . S
O911 C873 1.283 . S
O911 Eu879 2.363 . S
O912 C874 1.283 . S
O912 Eu880 2.363 . S
O913 C872 1.283 . S
O913 Eu880 2.363 . S
C914 O940 1.283 . S
C914 O958 1.283 . S
C915 O941 1.283 . S
C915 O956 1.283 . S
C916 O942 1.283 . S
C916 O959 1.283 . S
C917 O943 1.283 . S
C917 O957 1.283 . S
C918 O944 1.283 . S
C918 O953 1.283 . S
C919 O945 1.283 . S
C919 O955 1.283 . S
C920 O946 1.283 . S
C920 O952 1.283 . S
C921 O947 1.283 . S
C921 O954 1.283 . S
C922 O948 1.283 . S
C922 O963 1.283 . S
C923 O949 1.283 . S
C923 O961 1.283 . S
C924 O950 1.283 . S
C924 O962 1.283 . S
C925 O951 1.283 . S
C925 O960 1.283 . S
Eu926 O927 2.370 . S
Eu926 O928 2.370 1_545 S
Eu926 O931 2.370 1_545 S
Eu926 O932 2.370 . S
Eu926 O940 2.363 1_545 S
Eu926 O941 2.363 . S
Eu926 O954 2.363 . S
Eu926 O955 2.363 . S
O927 Eu926 2.370 . S
O927 Eu929 2.387 . S
O927 Eu934 2.387 . S
O928 Eu926 2.370 1_565 S
O928 Eu930 2.387 1_565 S
O928 Eu933 2.387 . S
Eu929 O927 2.387 . S
Eu929 O931 2.387 1_545 S
Eu929 O935 2.353 1_544 S
Eu929 O936 2.353 1_554 S
Eu929 O944 2.334 1_554 S
Eu929 O945 2.391 . S
Eu929 O960 2.363 1_545 S
Eu929 O961 2.363 . S
Eu930 O928 2.387 1_545 S
Eu930 O932 2.387 . S
Eu930 O937 2.353 1_554 S
Eu930 O938 2.353 1_544 S
Eu930 O946 2.334 1_554 S
Eu930 O947 2.391 . S
Eu930 O962 2.363 1_545 S
Eu930 O963 2.363 . S
O931 Eu926 2.370 1_565 S
O931 Eu929 2.387 1_565 S
O931 Eu933 2.387 . S
O932 Eu926 2.370 . S
O932 Eu930 2.387 . S
O932 Eu934 2.387 . S
Eu933 O928 2.387 . S
Eu933 O931 2.387 . S
Eu933 O935 2.353 1_554 S
Eu933 O938 2.353 1_554 S
Eu933 O950 2.363 . S
Eu933 O951 2.363 . S
Eu933 O958 2.391 . S
Eu933 O959 2.334 1_554 S
Eu934 O927 2.387 . S
Eu934 O932 2.387 . S
Eu934 O936 2.353 1_554 S
Eu934 O937 2.353 1_554 S
Eu934 O948 2.363 . S
Eu934 O949 2.363 . S
Eu934 O956 2.391 . S
Eu934 O957 2.334 1_554 S
O935 Eu929 2.353 1_566 S
O935 Eu933 2.353 1_556 S
O935 Eu939 2.370 1_565 S
O936 Eu929 2.353 1_556 S
O936 Eu934 2.353 1_556 S
O936 Eu939 2.370 . S
O937 Eu930 2.353 1_556 S
O937 Eu934 2.353 1_556 S
O937 Eu939 2.370 . S
O938 Eu930 2.353 1_566 S
O938 Eu933 2.353 1_556 S
O938 Eu939 2.370 1_565 S
Eu939 O935 2.370 1_545 S
Eu939 O936 2.370 . S
Eu939 O937 2.370 . S
Eu939 O938 2.370 1_545 S
Eu939 O942 2.363 1_545 S
Eu939 O943 2.363 . S
Eu939 O952 2.363 . S
Eu939 O953 2.363 . S
O940 C914 1.283 . S
O940 Eu926 2.363 1_565 S
O941 C915 1.283 . S
O941 Eu926 2.363 . S
O942 C916 1.283 . S
O942 Eu939 2.363 1_565 S
O943 C917 1.283 . S
O943 Eu939 2.363 . S
O944 C918 1.283 . S
O944 Eu929 2.334 1_556 S
O945 C919 1.283 . S
O945 Eu929 2.391 . S
O946 C920 1.283 . S
O946 Eu930 2.334 1_556 S
O947 C921 1.283 . S
O947 Eu930 2.391 . S
O948 C922 1.283 . S
O948 Eu934 2.363 . S
O949 C923 1.283 . S
O949 Eu934 2.363 . S
O950 C924 1.283 . S
O950 Eu933 2.363 . S
O951 C925 1.283 . S
O951 Eu933 2.363 . S
O952 C920 1.283 . S
O952 Eu939 2.363 . S
O953 C918 1.283 . S
O953 Eu939 2.363 . S
O954 C921 1.283 . S
O954 Eu926 2.363 . S
O955 C919 1.283 . S
O955 Eu926 2.363 . S
O956 C915 1.283 . S
O956 Eu934 2.391 . S
O957 C917 1.283 . S
O957 Eu934 2.334 1_556 S
O958 C914 1.283 . S
O958 Eu933 2.391 . S
O959 C916 1.283 . S
O959 Eu933 2.334 1_556 S
O960 C925 1.283 . S
O960 Eu929 2.363 1_565 S
O961 C923 1.283 . S
O961 Eu929 2.363 . S
O962 C924 1.283 . S
O962 Eu930 2.363 1_565 S
O963 C922 1.283 . S
O963 Eu930 2.363 . S
C964 O990 1.283 . S
C964 O1008 1.283 . S
C965 O991 1.283 . S
C965 O1006 1.283 . S
C966 O992 1.283 . S
C966 O1009 1.283 . S
C967 O993 1.283 . S
C967 O1007 1.283 . S
C968 O994 1.283 . S
C968 O1003 1.283 . S
C969 O995 1.283 . S
C969 O1005 1.283 . S
C970 O996 1.283 . S
C970 O1002 1.283 . S
C971 O997 1.283 . S
C971 O1004 1.283 . S
C972 O998 1.283 . S
C972 O1013 1.283 . S
C973 O999 1.283 . S
C973 O1011 1.283 . S
C974 O1000 1.283 . S
C974 O1012 1.283 . S
C975 O1001 1.283 . S
C975 O1010 1.283 . S
Eu976 O977 2.352 1_454 S
Eu976 O978 2.388 . S
Eu976 O981 2.375 1_455 S
Eu976 O982 2.365 1_554 S
Eu976 O990 2.383 . S
Eu976 O991 2.343 1_554 S
Eu976 O1004 2.374 . S
Eu976 O1005 2.352 1_455 S
O977 Eu976 2.352 1_656 S
O977 Eu979 2.359 1_556 S
O977 Eu984 2.364 1_655 S
O978 Eu976 2.388 . S
O978 Eu980 2.382 . S
O978 Eu983 2.377 . S
Eu979 O977 2.359 1_554 S
Eu979 O981 2.382 . S
Eu979 O985 2.382 . S
Eu979 O986 2.359 1_554 S
Eu979 O994 2.363 . S
Eu979 O995 2.363 . S
Eu979 O1010 2.383 . S
Eu979 O1011 2.343 1_554 S
Eu980 O978 2.382 . S
Eu980 O982 2.359 1_554 S
Eu980 O987 2.359 1_554 S
Eu980 O988 2.382 . S
Eu980 O996 2.363 . S
Eu980 O997 2.363 . S
Eu980 O1012 2.383 . S
Eu980 O1013 2.343 1_554 S
O981 Eu976 2.375 1_655 S
O981 Eu979 2.382 . S
O981 Eu983 2.364 1_655 S
O982 Eu976 2.365 1_556 S
O982 Eu980 2.359 1_556 S
O982 Eu984 2.377 . S
Eu983 O978 2.377 . S
Eu983 O981 2.364 1_455 S
Eu983 O985 2.364 1_455 S
Eu983 O988 2.377 . S
Eu983 O1000 2.374 . S
Eu983 O1001 2.352 1_455 S
Eu983 O1008 2.363 . S
Eu983 O1009 2.363 . S
Eu984 O977 2.364 1_455 S
Eu984 O982 2.377 . S
Eu984 O986 2.364 1_455 S
Eu984 O987 2.377 . S
Eu984 O998 2.374 . S
Eu984 O999 2.352 1_455 S
Eu984 O1006 2.363 . S
Eu984 O1007 2.363 . S
O985 Eu979 2.382 . S
O985 Eu983 2.364 1_655 S
O985 Eu989 2.375 1_655 S
O986 Eu979 2.359 1_556 S
O986 Eu984 2.364 1_655 S
O986 Eu989 2.352 1_656 S
O987 Eu980 2.359 1_556 S
O987 Eu984 2.377 . S
O987 Eu989 2.365 1_556 S
O988 Eu980 2.382 . S
O988 Eu983 2.377 . S
O988 Eu989 2.388 . S
Eu989 O985 2.375 1_455 S
Eu989 O986 2.352 1_454 S
Eu989 O987 2.365 1_554 S
Eu989 O988 2.388 . S
Eu989 O992 2.383 . S
Eu989 O993 2.343 1_554 S
Eu989 O1002 2.374 . S
Eu989 O1003 2.352 1_455 S
O990 C964 1.283 . S
O990 Eu976 2.383 . S
O991 C965 1.283 . S
O991 Eu976 2.343 1_556 S
O992 C966 1.283 . S
O992 Eu989 2.383 . S
O993 C967 1.283 . S
O993 Eu989 2.343 1_556 S
O994 C968 1.283 . S
O994 Eu979 2.363 . S
O995 C969 1.283 . S
O995 Eu979 2.363 . S
O996 C970 1.283 . S
O996 Eu980 2.363 . S
O997 C971 1.283 . S
O997 Eu980 2.363 . S
O998 C972 1.283 . S
O998 Eu984 2.374 . S
O999 C973 1.283 . S
O999 Eu984 2.352 1_655 S
O1000 C974 1.283 . S
O1000 Eu983 2.374 . S
O1001 C975 1.283 . S
O1001 Eu983 2.352 1_655 S
O1002 C970 1.283 . S
O1002 Eu989 2.374 . S
O1003 C968 1.283 . S
O1003 Eu989 2.352 1_655 S
O1004 C971 1.283 . S
O1004 Eu976 2.374 . S
O1005 C969 1.283 . S
O1005 Eu976 2.352 1_655 S
O1006 C965 1.283 . S
O1006 Eu984 2.363 . S
O1007 C967 1.283 . S
O1007 Eu984 2.363 . S
O1008 C964 1.283 . S
O1008 Eu983 2.363 . S
O1009 C966 1.283 . S
O1009 Eu983 2.363 . S
O1010 C975 1.283 . S
O1010 Eu979 2.383 . S
O1011 C973 1.283 . S
O1011 Eu979 2.343 1_556 S
O1012 C974 1.283 . S
O1012 Eu980 2.383 . S
O1013 C972 1.283 . S
O1013 Eu980 2.343 1_556 S
C1014 O1040 1.283 . S
C1014 O1058 1.283 . S
C1015 O1041 1.283 . S
C1015 O1056 1.283 . S
C1016 O1042 1.283 . S
C1016 O1059 1.283 . S
C1017 O1043 1.283 . S
C1017 O1057 1.283 . S
C1018 O1044 1.283 . S
C1018 O1053 1.283 . S
C1019 O1045 1.283 . S
C1019 O1055 1.283 . S
C1020 O1046 1.283 . S
C1020 O1052 1.283 . S
C1021 O1047 1.283 . S
C1021 O1054 1.283 . S
C1022 O1048 1.283 . S
C1022 O1063 1.283 . S
C1023 O1049 1.283 . S
C1023 O1061 1.283 . S
C1024 O1050 1.283 . S
C1024 O1062 1.283 . S
C1025 O1051 1.283 . S
C1025 O1060 1.283 . S
Eu1026 O1027 2.370 . S
Eu1026 O1028 2.370 . S
Eu1026 O1031 2.370 . S
Eu1026 O1032 2.370 . S
Eu1026 O1040 2.363 . S
Eu1026 O1041 2.363 . S
Eu1026 O1054 2.363 . S
Eu1026 O1055 2.363 . S
O1027 Eu1026 2.370 . S
O1027 Eu1029 2.385 . S
O1027 Eu1034 2.385 . S
O1028 Eu1026 2.370 . S
O1028 Eu1030 2.385 . S
O1028 Eu1033 2.385 . S
Eu1029 O1027 2.385 . S
Eu1029 O1031 2.385 . S
Eu1029 O1035 2.356 1_554 S
Eu1029 O1036 2.356 1_554 S
Eu1029 O1044 2.338 1_554 S
Eu1029 O1045 2.387 . S
Eu1029 O1060 2.363 . S
Eu1029 O1061 2.363 . S
Eu1030 O1028 2.385 . S
Eu1030 O1032 2.385 . S
Eu1030 O1037 2.356 1_554 S
Eu1030 O1038 2.356 1_554 S
Eu1030 O1046 2.338 1_554 S
Eu1030 O1047 2.387 . S
Eu1030 O1062 2.363 . S
Eu1030 O1063 2.363 . S
O1031 Eu1026 2.370 . S
O1031 Eu1029 2.385 . S
O1031 Eu1033 2.385 . S
O1032 Eu1026 2.370 . S
O1032 Eu1030 2.385 . S
O1032 Eu1034 2.385 . S
Eu1033 O1028 2.385 . S
Eu1033 O1031 2.385 . S
Eu1033 O1035 2.356 1_554 S
Eu1033 O1038 2.356 1_554 S
Eu1033 O1050 2.363 . S
Eu1033 O1051 2.363 . S
Eu1033 O1058 2.387 . S
Eu1033 O1059 2.338 1_554 S
Eu1034 O1027 2.385 . S
Eu1034 O1032 2.385 . S
Eu1034 O1036 2.356 1_554 S
Eu1034 O1037 2.356 1_554 S
Eu1034 O1048 2.363 . S
Eu1034 O1049 2.363 . S
Eu1034 O1056 2.387 . S
Eu1034 O1057 2.338 1_554 S
O1035 Eu1029 2.356 1_556 S
O1035 Eu1033 2.356 1_556 S
O1035 Eu1039 2.370 . S
O1036 Eu1029 2.356 1_556 S
O1036 Eu1034 2.356 1_556 S
O1036 Eu1039 2.370 . S
O1037 Eu1030 2.356 1_556 S
O1037 Eu1034 2.356 1_556 S
O1037 Eu1039 2.370 . S
O1038 Eu1030 2.356 1_556 S
O1038 Eu1033 2.356 1_556 S
O1038 Eu1039 2.370 . S
Eu1039 O1035 2.370 . S
Eu1039 O1036 2.370 . S
Eu1039 O1037 2.370 . S
Eu1039 O1038 2.370 . S
Eu1039 O1042 2.363 . S
Eu1039 O1043 2.363 . S
Eu1039 O1052 2.363 . S
Eu1039 O1053 2.363 . S
O1040 C1014 1.283 . S
O1040 Eu1026 2.363 . S
O1041 C1015 1.283 . S
O1041 Eu1026 2.363 . S
O1042 C1016 1.283 . S
O1042 Eu1039 2.363 . S
O1043 C1017 1.283 . S
O1043 Eu1039 2.363 . S
O1044 C1018 1.283 . S
O1044 Eu1029 2.338 1_556 S
O1045 C1019 1.283 . S
O1045 Eu1029 2.387 . S
O1046 C1020 1.283 . S
O1046 Eu1030 2.338 1_556 S
O1047 C1021 1.283 . S
O1047 Eu1030 2.387 . S
O1048 C1022 1.283 . S
O1048 Eu1034 2.363 . S
O1049 C1023 1.283 . S
O1049 Eu1034 2.363 . S
O1050 C1024 1.283 . S
O1050 Eu1033 2.363 . S
O1051 C1025 1.283 . S
O1051 Eu1033 2.363 . S
O1052 C1020 1.283 . S
O1052 Eu1039 2.363 . S
O1053 C1018 1.283 . S
O1053 Eu1039 2.363 . S
O1054 C1021 1.283 . S
O1054 Eu1026 2.363 . S
O1055 C1019 1.283 . S
O1055 Eu1026 2.363 . S
O1056 C1015 1.283 . S
O1056 Eu1034 2.387 . S
O1057 C1017 1.283 . S
O1057 Eu1034 2.338 1_556 S
O1058 C1014 1.283 . S
O1058 Eu1033 2.387 . S
O1059 C1016 1.283 . S
O1059 Eu1033 2.338 1_556 S
O1060 C1025 1.283 . S
O1060 Eu1029 2.363 . S
O1061 C1023 1.283 . S
O1061 Eu1029 2.363 . S
O1062 C1024 1.283 . S
O1062 Eu1030 2.363 . S
O1063 C1022 1.283 . S
O1063 Eu1030 2.363 . S
C1064 O1090 1.283 . S
C1064 O1108 1.283 . S
C1065 O1091 1.283 . S
C1065 O1106 1.283 . S
C1066 O1092 1.283 . S
C1066 O1109 1.283 . S
C1067 O1093 1.283 . S
C1067 O1107 1.283 . S
C1068 O1094 1.283 . S
C1068 O1103 1.283 . S
C1069 O1095 1.283 . S
C1069 O1105 1.283 . S
C1070 O1096 1.283 . S
C1070 O1102 1.283 . S
C1071 O1097 1.283 . S
C1071 O1104 1.283 . S
C1072 O1098 1.283 . S
C1072 O1113 1.283 . S
C1073 O1099 1.283 . S
C1073 O1111 1.283 . S
C1074 O1100 1.283 . S
C1074 O1112 1.283 . S
C1075 O1101 1.283 . S
C1075 O1110 1.283 . S
Eu1076 O1077 2.365 1_455 S
Eu1076 O1078 2.375 . S
Eu1076 O1081 2.365 1_455 S
Eu1076 O1082 2.375 . S
Eu1076 O1090 2.363 . S
Eu1076 O1091 2.363 . S
Eu1076 O1104 2.372 . S
Eu1076 O1105 2.354 1_455 S
O1077 Eu1076 2.365 1_655 S
O1077 Eu1079 2.370 . S
O1077 Eu1084 2.365 1_655 S
O1078 Eu1076 2.375 . S
O1078 Eu1080 2.370 . S
O1078 Eu1083 2.375 . S
Eu1079 O1077 2.370 . S
Eu1079 O1081 2.370 . S
Eu1079 O1085 2.370 . S
Eu1079 O1086 2.370 . S
Eu1079 O1094 2.363 . S
Eu1079 O1095 2.363 . S
Eu1079 O1110 2.363 . S
Eu1079 O1111 2.363 . S
Eu1080 O1078 2.370 . S
Eu1080 O1082 2.370 . S
Eu1080 O1087 2.370 . S
Eu1080 O1088 2.370 . S
Eu1080 O1096 2.363 . S
Eu1080 O1097 2.363 . S
Eu1080 O1112 2.363 . S
Eu1080 O1113 2.363 . S
O1081 Eu1076 2.365 1_655 S
O1081 Eu1079 2.370 . S
O1081 Eu1083 2.365 1_655 S
O1082 Eu1076 2.375 . S
O1082 Eu1080 2.370 . S
O1082 Eu1084 2.375 . S
Eu1083 O1078 2.375 . S
Eu1083 O1081 2.365 1_455 S
Eu1083 O1085 2.365 1_455 S
Eu1083 O1088 2.375 . S
Eu1083 O1100 2.372 . S
Eu1083 O1101 2.354 1_455 S
Eu1083 O1108 2.363 . S
Eu1083 O1109 2.363 . S
Eu1084 O1077 2.365 1_455 S
Eu1084 O1082 2.375 . S
Eu1084 O1086 2.365 1_455 S
Eu1084 O1087 2.375 . S
Eu1084 O1098 2.372 . S
Eu1084 O1099 2.354 1_455 S
Eu1084 O1106 2.363 . S
Eu1084 O1107 2.363 . S
O1085 Eu1079 2.370 . S
O1085 Eu1083 2.365 1_655 S
O1085 Eu1089 2.365 1_655 S
O1086 Eu1079 2.370 . S
O1086 Eu1084 2.365 1_655 S
O1086 Eu1089 2.365 1_655 S
O1087 Eu1080 2.370 . S
O1087 Eu1084 2.375 . S
O1087 Eu1089 2.376 . S
O1088 Eu1080 2.370 . S
O1088 Eu1083 2.375 . S
O1088 Eu1089 2.376 . S
Eu1089 O1085 2.365 1_455 S
Eu1089 O1086 2.365 1_455 S
Eu1089 O1087 2.376 . S
Eu1089 O1088 2.376 . S
Eu1089 O1092 2.363 . S
Eu1089 O1093 2.363 . S
Eu1089 O1102 2.372 . S
Eu1089 O1103 2.354 1_455 S
O1090 C1064 1.283 . S
O1090 Eu1076 2.363 . S
O1091 C1065 1.283 . S
O1091 Eu1076 2.363 . S
O1092 C1066 1.283 . S
O1092 Eu1089 2.363 . S
O1093 C1067 1.283 . S
O1093 Eu1089 2.363 . S
O1094 C1068 1.283 . S
O1094 Eu1079 2.363 . S
O1095 C1069 1.283 . S
O1095 Eu1079 2.363 . S
O1096 C1070 1.283 . S
O1096 Eu1080 2.363 . S
O1097 C1071 1.283 . S
O1097 Eu1080 2.363 . S
O1098 C1072 1.283 . S
O1098 Eu1084 2.372 . S
O1099 C1073 1.283 . S
O1099 Eu1084 2.354 1_655 S
O1100 C1074 1.283 . S
O1100 Eu1083 2.372 . S
O1101 C1075 1.283 . S
O1101 Eu1083 2.354 1_655 S
O1102 C1070 1.283 . S
O1102 Eu1089 2.372 . S
O1103 C1068 1.283 . S
O1103 Eu1089 2.354 1_655 S
O1104 C1071 1.283 . S
O1104 Eu1076 2.372 . S
O1105 C1069 1.283 . S
O1105 Eu1076 2.354 1_655 S
O1106 C1065 1.283 . S
O1106 Eu1084 2.363 . S
O1107 C1067 1.283 . S
O1107 Eu1084 2.363 . S
O1108 C1064 1.283 . S
O1108 Eu1083 2.363 . S
O1109 C1066 1.283 . S
O1109 Eu1083 2.363 . S
O1110 C1075 1.283 . S
O1110 Eu1079 2.363 . S
O1111 C1073 1.283 . S
O1111 Eu1079 2.363 . S
O1112 C1074 1.283 . S
O1112 Eu1080 2.363 . S
O1113 C1072 1.283 . S
O1113 Eu1080 2.363 . S
C1114 O1140 1.283 . S
C1114 O1158 1.283 . S
C1115 O1141 1.283 . S
C1115 O1156 1.283 . S
C1116 O1142 1.283 . S
C1116 O1159 1.283 . S
C1117 O1143 1.283 . S
C1117 O1157 1.283 . S
C1118 O1144 1.283 . S
C1118 O1153 1.283 . S
C1119 O1145 1.283 . S
C1119 O1155 1.283 . S
C1120 O1146 1.283 . S
C1120 O1152 1.283 . S
C1121 O1147 1.283 . S
C1121 O1154 1.283 . S
C1122 O1148 1.283 . S
C1122 O1163 1.283 . S
C1123 O1149 1.283 . S
C1123 O1161 1.283 . S
C1124 O1150 1.283 . S
C1124 O1162 1.283 . S
C1125 O1151 1.283 . S
C1125 O1160 1.283 . S
Eu1126 O1127 2.370 . S
Eu1126 O1128 2.370 . S
Eu1126 O1131 2.370 . S
Eu1126 O1132 2.370 . S
Eu1126 O1140 2.363 . S
Eu1126 O1141 2.363 . S
Eu1126 O1154 2.363 . S
Eu1126 O1155 2.363 . S
O1127 Eu1126 2.370 . S
O1127 Eu1129 2.369 1_565 S
O1127 Eu1134 2.369 1_565 S
O1128 Eu1126 2.370 . S
O1128 Eu1130 2.369 1_565 S
O1128 Eu1133 2.369 1_565 S
Eu1129 O1127 2.369 1_545 S
Eu1129 O1131 2.369 1_545 S
Eu1129 O1135 2.371 . S
Eu1129 O1136 2.371 . S
Eu1129 O1144 2.365 . S
Eu1129 O1145 2.361 1_545 S
Eu1129 O1160 2.363 . S
Eu1129 O1161 2.363 . S
Eu1130 O1128 2.369 1_545 S
Eu1130 O1132 2.369 1_545 S
Eu1130 O1137 2.371 . S
Eu1130 O1138 2.371 . S
Eu1130 O1146 2.365 . S
Eu1130 O1147 2.361 1_545 S
Eu1130 O1162 2.363 . S
Eu1130 O1163 2.363 . S
O1131 Eu1126 2.370 . S
O1131 Eu1129 2.369 1_565 S
O1131 Eu1133 2.369 1_565 S
O1132 Eu1126 2.370 . S
O1132 Eu1130 2.369 1_565 S
O1132 Eu1134 2.369 1_565 S
Eu1133 O1128 2.369 1_545 S
Eu1133 O1131 2.369 1_545 S
Eu1133 O1135 2.371 . S
Eu1133 O1138 2.371 . S
Eu1133 O1150 2.363 . S
Eu1133 O1151 2.363 . S
Eu1133 O1158 2.361 1_545 S
Eu1133 O1159 2.365 . S
Eu1134 O1127 2.369 1_545 S
Eu1134 O1132 2.369 1_545 S
Eu1134 O1136 2.371 . S
Eu1134 O1137 2.371 . S
Eu1134 O1148 2.363 . S
Eu1134 O1149 2.363 . S
Eu1134 O1156 2.361 1_545 S
Eu1134 O1157 2.365 . S
O1135 Eu1129 2.371 . S
O1135 Eu1133 2.371 . S
O1135 Eu1139 2.370 . S
O1136 Eu1129 2.371 . S
O1136 Eu1134 2.371 . S
O1136 Eu1139 2.370 . S
O1137 Eu1130 2.371 . S
O1137 Eu1134 2.371 . S
O1137 Eu1139 2.370 . S
O1138 Eu1130 2.371 . S
O1138 Eu1133 2.371 . S
O1138 Eu1139 2.370 . S
Eu1139 O1135 2.370 . S
Eu1139 O1136 2.370 . S
Eu1139 O1137 2.370 . S
Eu1139 O1138 2.370 . S
Eu1139 O1142 2.363 . S
Eu1139 O1143 2.363 . S
Eu1139 O1152 2.363 . S
Eu1139 O1153 2.363 . S
O1140 C1114 1.283 . S
O1140 Eu1126 2.363 . S
O1141 C1115 1.283 . S
O1141 Eu1126 2.363 . S
O1142 C1116 1.283 . S
O1142 Eu1139 2.363 . S
O1143 C1117 1.283 . S
O1143 Eu1139 2.363 . S
O1144 C1118 1.283 . S
O1144 Eu1129 2.365 . S
O1145 C1119 1.283 . S
O1145 Eu1129 2.361 1_565 S
O1146 C1120 1.283 . S
O1146 Eu1130 2.365 . S
O1147 C1121 1.283 . S
O1147 Eu1130 2.361 1_565 S
O1148 C1122 1.283 . S
O1148 Eu1134 2.363 . S
O1149 C1123 1.283 . S
O1149 Eu1134 2.363 . S
O1150 C1124 1.283 . S
O1150 Eu1133 2.363 . S
O1151 C1125 1.283 . S
O1151 Eu1133 2.363 . S
O1152 C1120 1.283 . S
O1152 Eu1139 2.363 . S
O1153 C1118 1.283 . S
O1153 Eu1139 2.363 . S
O1154 C1121 1.283 . S
O1154 Eu1126 2.363 . S
O1155 C1119 1.283 . S
O1155 Eu1126 2.363 . S
O1156 C1115 1.283 . S
O1156 Eu1134 2.361 1_565 S
O1157 C1117 1.283 . S
O1157 Eu1134 2.365 . S
O1158 C1114 1.283 . S
O1158 Eu1133 2.361 1_565 S
O1159 C1116 1.283 . S
O1159 Eu1133 2.365 . S
O1160 C1125 1.283 . S
O1160 Eu1129 2.363 . S
O1161 C1123 1.283 . S
O1161 Eu1129 2.363 . S
O1162 C1124 1.283 . S
O1162 Eu1130 2.363 . S
O1163 C1122 1.283 . S
O1163 Eu1130 2.363 . S
H1164 C1172 0.929 . S
H1165 C1174 0.930 . S
H1166 C1176 0.930 . S
H1167 C1179 0.929 . S
H1168 C1182 0.930 . S
H1169 C1184 0.960 . S
H1170 C1184 0.960 . S
H1171 C1184 0.960 . S
C1172 H1164 0.929 . S
C1172 C1173 1.377 . S
C1172 C1174 1.384 . S
C1173 C1172 1.377 . S
C1173 C1179 1.390 . S
C1174 H1165 0.930 . S
C1174 C1172 1.384 . S
C1174 C1175 1.372 . S
C1175 C1174 1.372 . S
C1175 C1176 1.400 . S
C1175 C1180 1.490 . S
C1176 H1166 0.930 . S
C1176 C1175 1.400 . S
C1176 C1179 1.386 . S
H1177 C1193 0.930 . S
H1178 C1194 0.931 . S
C1179 H1167 0.929 . S
C1179 C1173 1.390 . S
C1179 C1176 1.386 . S
C1180 C1175 1.490 . S
C1180 C1182 1.395 . S
C1180 C1183 1.403 . S
H1181 C1187 0.930 . S
C1182 H1168 0.930 . S
C1182 C1180 1.395 . S
C1182 C1185 1.403 . S
C1183 C1180 1.403 . S
C1183 C1184 1.524 . S
C1183 C1187 1.400 . S
C1184 H1169 0.960 . S
C1184 H1170 0.960 . S
C1184 H1171 0.960 . S
C1184 C1183 1.524 . S
C1185 C1182 1.403 . S
C1185 C1186 1.392 . S
C1185 C1189 1.495 . S
C1186 C1185 1.392 . S
C1186 C1187 1.385 . S
C1186 C1188 1.478 . S
C1187 H1181 0.930 . S
C1187 C1183 1.400 . S
C1187 C1186 1.385 . S
C1188 C1186 1.478 . S
C1188 C1190 1.381 . S
C1188 C1194 1.383 . S
C1189 C1185 1.495 . S
C1189 H1195 0.959 . S
C1189 H1196 0.961 . S
C1189 H1197 0.960 . S
C1190 C1188 1.381 . S
C1190 C1191 1.394 . S
C1190 H1198 0.930 . S
C1191 C1190 1.394 . S
C1191 C1192 1.383 . S
C1191 H1199 0.929 . S
C1192 C1191 1.383 . S
C1192 C1193 1.377 . S
C1193 H1177 0.930 . S
C1193 C1192 1.377 . S
C1193 C1194 1.379 . S
C1194 H1178 0.931 . S
C1194 C1188 1.383 . S
C1194 C1193 1.379 . S
H1195 C1189 0.959 . S
H1196 C1189 0.961 . S
H1197 C1189 0.960 . S
H1198 C1190 0.930 . S
H1199 C1191 0.929 . S
H1200 C1208 0.929 . S
H1201 C1210 0.930 . S
H1202 C1212 0.930 . S
H1203 C1215 0.929 . S
H1204 C1218 0.930 . S
H1205 C1220 0.960 . S
H1206 C1220 0.960 . S
H1207 C1220 0.960 . S
C1208 H1200 0.929 . S
C1208 C1209 1.377 . S
C1208 C1210 1.384 . S
C1209 C1208 1.377 . S
C1209 C1215 1.390 . S
C1210 H1201 0.930 . S
C1210 C1208 1.384 . S
C1210 C1211 1.372 . S
C1211 C1210 1.372 . S
C1211 C1212 1.400 . S
C1211 C1216 1.490 . S
C1212 H1202 0.930 . S
C1212 C1211 1.400 . S
C1212 C1215 1.386 . S
H1213 C1229 0.930 . S
H1214 C1230 0.931 . S
C1215 H1203 0.929 . S
C1215 C1209 1.390 . S
C1215 C1212 1.386 . S
C1216 C1211 1.490 . S
C1216 C1218 1.395 . S
C1216 C1219 1.403 . S
H1217 C1223 0.930 . S
C1218 H1204 0.930 . S
C1218 C1216 1.395 . S
C1218 C1221 1.403 . S
C1219 C1216 1.403 . S
C1219 C1220 1.524 . S
C1219 C1223 1.400 . S
C1220 H1205 0.960 . S
C1220 H1206 0.960 . S
C1220 H1207 0.960 . S
C1220 C1219 1.524 . S
C1221 C1218 1.403 . S
C1221 C1222 1.392 . S
C1221 C1225 1.495 . S
C1222 C1221 1.392 . S
C1222 C1223 1.385 . S
C1222 C1224 1.478 . S
C1223 H1217 0.930 . S
C1223 C1219 1.400 . S
C1223 C1222 1.385 . S
C1224 C1222 1.478 . S
C1224 C1226 1.381 . S
C1224 C1230 1.383 . S
C1225 C1221 1.495 . S
C1225 H1231 0.959 . S
C1225 H1232 0.961 . S
C1225 H1233 0.960 . S
C1226 C1224 1.381 . S
C1226 C1227 1.394 . S
C1226 H1234 0.930 . S
C1227 C1226 1.394 . S
C1227 C1228 1.383 . S
C1227 H1235 0.929 . S
C1228 C1227 1.383 . S
C1228 C1229 1.377 . S
C1229 H1213 0.930 . S
C1229 C1228 1.377 . S
C1229 C1230 1.379 . S
C1230 H1214 0.931 . S
C1230 C1224 1.383 . S
C1230 C1229 1.379 . S
H1231 C1225 0.959 . S
H1232 C1225 0.961 . S
H1233 C1225 0.960 . S
H1234 C1226 0.930 . S
H1235 C1227 0.929 . S
H1236 C1244 0.929 . S
H1237 C1246 0.930 . S
H1238 C1248 0.930 . S
H1239 C1251 0.929 . S
H1240 C1254 0.930 . S
H1241 C1256 0.960 . S
H1242 C1256 0.960 . S
H1243 C1256 0.960 . S
C1244 H1236 0.929 . S
C1244 C1245 1.377 . S
C1244 C1246 1.384 . S
C1245 C1244 1.377 . S
C1245 C1251 1.390 . S
C1246 H1237 0.930 . S
C1246 C1244 1.384 . S
C1246 C1247 1.372 . S
C1247 C1246 1.372 . S
C1247 C1248 1.400 . S
C1247 C1252 1.490 . S
C1248 H1238 0.930 . S
C1248 C1247 1.400 . S
C1248 C1251 1.386 . S
H1249 C1265 0.930 . S
H1250 C1266 0.931 . S
C1251 H1239 0.929 . S
C1251 C1245 1.390 . S
C1251 C1248 1.386 . S
C1252 C1247 1.490 . S
C1252 C1254 1.395 . S
C1252 C1255 1.403 . S
H1253 C1259 0.930 . S
C1254 H1240 0.930 . S
C1254 C1252 1.395 . S
C1254 C1257 1.403 . S
C1255 C1252 1.403 . S
C1255 C1256 1.524 . S
C1255 C1259 1.400 . S
C1256 H1241 0.960 . S
C1256 H1242 0.960 . S
C1256 H1243 0.960 . S
C1256 C1255 1.524 . S
C1257 C1254 1.403 . S
C1257 C1258 1.392 . S
C1257 C1261 1.495 . S
C1258 C1257 1.392 . S
C1258 C1259 1.385 . S
C1258 C1260 1.478 . S
C1259 H1253 0.930 . S
C1259 C1255 1.400 . S
C1259 C1258 1.385 . S
C1260 C1258 1.478 . S
C1260 C1262 1.381 . S
C1260 C1266 1.383 . S
C1261 C1257 1.495 . S
C1261 H1267 0.959 . S
C1261 H1268 0.961 . S
C1261 H1269 0.960 . S
C1262 C1260 1.381 . S
C1262 C1263 1.394 . S
C1262 H1270 0.930 . S
C1263 C1262 1.394 . S
C1263 C1264 1.383 . S
C1263 H1271 0.929 . S
C1264 C1263 1.383 . S
C1264 C1265 1.377 . S
C1265 H1249 0.930 . S
C1265 C1264 1.377 . S
C1265 C1266 1.379 . S
C1266 H1250 0.931 . S
C1266 C1260 1.383 . S
C1266 C1265 1.379 . S
H1267 C1261 0.959 . S
H1268 C1261 0.961 . S
H1269 C1261 0.960 . S
H1270 C1262 0.930 . S
H1271 C1263 0.929 . S
H1272 C1280 0.929 . S
H1273 C1282 0.930 . S
H1274 C1284 0.930 . S
H1275 C1287 0.929 . S
H1276 C1290 0.930 . S
H1277 C1292 0.960 . S
H1278 C1292 0.960 . S
H1279 C1292 0.960 . S
C1280 H1272 0.929 . S
C1280 C1281 1.377 . S
C1280 C1282 1.384 . S
C1281 C1280 1.377 . S
C1281 C1287 1.390 . S
C1282 H1273 0.930 . S
C1282 C1280 1.384 . S
C1282 C1283 1.372 . S
C1283 C1282 1.372 . S
C1283 C1284 1.400 . S
C1283 C1288 1.490 . S
C1284 H1274 0.930 . S
C1284 C1283 1.400 . S
C1284 C1287 1.386 . S
H1285 C1301 0.930 . S
H1286 C1302 0.931 . S
C1287 H1275 0.929 . S
C1287 C1281 1.390 . S
C1287 C1284 1.386 . S
C1288 C1283 1.490 . S
C1288 C1290 1.395 . S
C1288 C1291 1.403 . S
H1289 C1295 0.930 . S
C1290 H1276 0.930 . S
C1290 C1288 1.395 . S
C1290 C1293 1.403 . S
C1291 C1288 1.403 . S
C1291 C1292 1.524 . S
C1291 C1295 1.400 . S
C1292 H1277 0.960 . S
C1292 H1278 0.960 . S
C1292 H1279 0.960 . S
C1292 C1291 1.524 . S
C1293 C1290 1.403 . S
C1293 C1294 1.392 . S
C1293 C1297 1.495 . S
C1294 C1293 1.392 . S
C1294 C1295 1.385 . S
C1294 C1296 1.478 . S
C1295 H1289 0.930 . S
C1295 C1291 1.400 . S
C1295 C1294 1.385 . S
C1296 C1294 1.478 . S
C1296 C1298 1.381 . S
C1296 C1302 1.383 . S
C1297 C1293 1.495 . S
C1297 H1303 0.959 . S
C1297 H1304 0.961 . S
C1297 H1305 0.960 . S
C1298 C1296 1.381 . S
C1298 C1299 1.394 . S
C1298 H1306 0.930 . S
C1299 C1298 1.394 . S
C1299 C1300 1.383 . S
C1299 H1307 0.929 . S
C1300 C1299 1.383 . S
C1300 C1301 1.377 . S
C1301 H1285 0.930 . S
C1301 C1300 1.377 . S
C1301 C1302 1.379 . S
C1302 H1286 0.931 . S
C1302 C1296 1.383 . S
C1302 C1301 1.379 . S
H1303 C1297 0.959 . S
H1304 C1297 0.961 . S
H1305 C1297 0.960 . S
H1306 C1298 0.930 . S
H1307 C1299 0.929 . S
H1308 C1316 0.929 . S
H1309 C1318 0.930 . S
H1310 C1320 0.930 . S
H1311 C1323 0.929 . S
H1312 C1326 0.930 . S
H1313 C1328 0.960 . S
H1314 C1328 0.960 . S
H1315 C1328 0.960 . S
C1316 H1308 0.929 . S
C1316 C1317 1.377 . S
C1316 C1318 1.384 . S
C1317 C1316 1.377 . S
C1317 C1323 1.390 . S
C1318 H1309 0.930 . S
C1318 C1316 1.384 . S
C1318 C1319 1.372 . S
C1319 C1318 1.372 . S
C1319 C1320 1.400 . S
C1319 C1324 1.490 . S
C1320 H1310 0.930 . S
C1320 C1319 1.400 . S
C1320 C1323 1.386 . S
H1321 C1337 0.930 . S
H1322 C1338 0.931 . S
C1323 H1311 0.929 . S
C1323 C1317 1.390 . S
C1323 C1320 1.386 . S
C1324 C1319 1.490 . S
C1324 C1326 1.395 . S
C1324 C1327 1.403 . S
H1325 C1331 0.930 . S
C1326 H1312 0.930 . S
C1326 C1324 1.395 . S
C1326 C1329 1.403 . S
C1327 C1324 1.403 . S
C1327 C1328 1.524 . S
C1327 C1331 1.400 . S
C1328 H1313 0.960 . S
C1328 H1314 0.960 . S
C1328 H1315 0.960 . S
C1328 C1327 1.524 . S
C1329 C1326 1.403 . S
C1329 C1330 1.392 . S
C1329 C1333 1.495 . S
C1330 C1329 1.392 . S
C1330 C1331 1.385 . S
C1330 C1332 1.478 . S
C1331 H1325 0.930 . S
C1331 C1327 1.400 . S
C1331 C1330 1.385 . S
C1332 C1330 1.478 . S
C1332 C1334 1.381 . S
C1332 C1338 1.383 . S
C1333 C1329 1.495 . S
C1333 H1339 0.959 . S
C1333 H1340 0.961 . S
C1333 H1341 0.960 . S
C1334 C1332 1.381 . S
C1334 C1335 1.394 . S
C1334 H1342 0.930 . S
C1335 C1334 1.394 . S
C1335 C1336 1.383 . S
C1335 H1343 0.929 . S
C1336 C1335 1.383 . S
C1336 C1337 1.377 . S
C1337 H1321 0.930 . S
C1337 C1336 1.377 . S
C1337 C1338 1.379 . S
C1338 H1322 0.931 . S
C1338 C1332 1.383 . S
C1338 C1337 1.379 . S
H1339 C1333 0.959 . S
H1340 C1333 0.961 . S
H1341 C1333 0.960 . S
H1342 C1334 0.930 . S
H1343 C1335 0.929 . S
H1344 C1352 0.929 . S
H1345 C1354 0.930 . S
H1346 C1356 0.930 . S
H1347 C1359 0.929 . S
H1348 C1362 0.930 . S
H1349 C1364 0.960 . S
H1350 C1364 0.960 . S
H1351 C1364 0.960 . S
C1352 H1344 0.929 . S
C1352 C1353 1.377 . S
C1352 C1354 1.384 . S
C1353 C1352 1.377 . S
C1353 C1359 1.390 . S
C1354 H1345 0.930 . S
C1354 C1352 1.384 . S
C1354 C1355 1.372 . S
C1355 C1354 1.372 . S
C1355 C1356 1.400 . S
C1355 C1360 1.490 . S
C1356 H1346 0.930 . S
C1356 C1355 1.400 . S
C1356 C1359 1.386 . S
H1357 C1373 0.930 . S
H1358 C1374 0.931 . S
C1359 H1347 0.929 . S
C1359 C1353 1.390 . S
C1359 C1356 1.386 . S
C1360 C1355 1.490 . S
C1360 C1362 1.395 . S
C1360 C1363 1.403 . S
H1361 C1367 0.930 . S
C1362 H1348 0.930 . S
C1362 C1360 1.395 . S
C1362 C1365 1.403 . S
C1363 C1360 1.403 . S
C1363 C1364 1.524 . S
C1363 C1367 1.400 . S
C1364 H1349 0.960 . S
C1364 H1350 0.960 . S
C1364 H1351 0.960 . S
C1364 C1363 1.524 . S
C1365 C1362 1.403 . S
C1365 C1366 1.392 . S
C1365 C1369 1.495 . S
C1366 C1365 1.392 . S
C1366 C1367 1.385 . S
C1366 C1368 1.478 . S
C1367 H1361 0.930 . S
C1367 C1363 1.400 . S
C1367 C1366 1.385 . S
C1368 C1366 1.478 . S
C1368 C1370 1.381 . S
C1368 C1374 1.383 . S
C1369 C1365 1.495 . S
C1369 H1375 0.959 . S
C1369 H1376 0.961 . S
C1369 H1377 0.960 . S
C1370 C1368 1.381 . S
C1370 C1371 1.394 . S
C1370 H1378 0.930 . S
C1371 C1370 1.394 . S
C1371 C1372 1.383 . S
C1371 H1379 0.929 . S
C1372 C1371 1.383 . S
C1372 C1373 1.377 . S
C1373 H1357 0.930 . S
C1373 C1372 1.377 . S
C1373 C1374 1.379 . S
C1374 H1358 0.931 . S
C1374 C1368 1.383 . S
C1374 C1373 1.379 . S
H1375 C1369 0.959 . S
H1376 C1369 0.961 . S
H1377 C1369 0.960 . S
H1378 C1370 0.930 . S
H1379 C1371 0.929 . S
H1380 C1388 0.929 . S
H1381 C1390 0.930 . S
H1382 C1392 0.930 . S
H1383 C1395 0.929 . S
H1384 C1398 0.930 . S
H1385 C1400 0.960 . S
H1386 C1400 0.960 . S
H1387 C1400 0.960 . S
C1388 H1380 0.929 . S
C1388 C1389 1.377 . S
C1388 C1390 1.384 . S
C1389 C1388 1.377 . S
C1389 C1395 1.390 . S
C1390 H1381 0.930 . S
C1390 C1388 1.384 . S
C1390 C1391 1.372 . S
C1391 C1390 1.372 . S
C1391 C1392 1.400 . S
C1391 C1396 1.490 . S
C1392 H1382 0.930 . S
C1392 C1391 1.400 . S
C1392 C1395 1.386 . S
H1393 C1409 0.930 . S
H1394 C1410 0.931 . S
C1395 H1383 0.929 . S
C1395 C1389 1.390 . S
C1395 C1392 1.386 . S
C1396 C1391 1.490 . S
C1396 C1398 1.395 . S
C1396 C1399 1.403 . S
H1397 C1403 0.930 . S
C1398 H1384 0.930 . S
C1398 C1396 1.395 . S
C1398 C1401 1.403 . S
C1399 C1396 1.403 . S
C1399 C1400 1.524 . S
C1399 C1403 1.400 . S
C1400 H1385 0.960 . S
C1400 H1386 0.960 . S
C1400 H1387 0.960 . S
C1400 C1399 1.524 . S
C1401 C1398 1.403 . S
C1401 C1402 1.392 . S
C1401 C1405 1.495 . S
C1402 C1401 1.392 . S
C1402 C1403 1.385 . S
C1402 C1404 1.478 . S
C1403 H1397 0.930 . S
C1403 C1399 1.400 . S
C1403 C1402 1.385 . S
C1404 C1402 1.478 . S
C1404 C1406 1.381 . S
C1404 C1410 1.383 . S
C1405 C1401 1.495 . S
C1405 H1411 0.959 . S
C1405 H1412 0.961 . S
C1405 H1413 0.960 . S
C1406 C1404 1.381 . S
C1406 C1407 1.394 . S
C1406 H1414 0.930 . S
C1407 C1406 1.394 . S
C1407 C1408 1.383 . S
C1407 H1415 0.929 . S
C1408 C1407 1.383 . S
C1408 C1409 1.377 . S
C1409 H1393 0.930 . S
C1409 C1408 1.377 . S
C1409 C1410 1.379 . S
C1410 H1394 0.931 . S
C1410 C1404 1.383 . S
C1410 C1409 1.379 . S
H1411 C1405 0.959 . S
H1412 C1405 0.961 . S
H1413 C1405 0.960 . S
H1414 C1406 0.930 . S
H1415 C1407 0.929 . S
H1416 C1424 0.929 . S
H1417 C1426 0.930 . S
H1418 C1428 0.930 . S
H1419 C1431 0.929 . S
H1420 C1434 0.930 . S
H1421 C1436 0.960 . S
H1422 C1436 0.960 . S
H1423 C1436 0.960 . S
C1424 H1416 0.929 . S
C1424 C1425 1.377 . S
C1424 C1426 1.384 . S
C1425 C1424 1.377 . S
C1425 C1431 1.390 . S
C1426 H1417 0.930 . S
C1426 C1424 1.384 . S
C1426 C1427 1.372 . S
C1427 C1426 1.372 . S
C1427 C1428 1.400 . S
C1427 C1432 1.490 . S
C1428 H1418 0.930 . S
C1428 C1427 1.400 . S
C1428 C1431 1.386 . S
H1429 C1445 0.930 . S
H1430 C1446 0.931 . S
C1431 H1419 0.929 . S
C1431 C1425 1.390 . S
C1431 C1428 1.386 . S
C1432 C1427 1.490 . S
C1432 C1434 1.395 . S
C1432 C1435 1.403 . S
H1433 C1439 0.930 . S
C1434 H1420 0.930 . S
C1434 C1432 1.395 . S
C1434 C1437 1.403 . S
C1435 C1432 1.403 . S
C1435 C1436 1.524 . S
C1435 C1439 1.400 . S
C1436 H1421 0.960 . S
C1436 H1422 0.960 . S
C1436 H1423 0.960 . S
C1436 C1435 1.524 . S
C1437 C1434 1.403 . S
C1437 C1438 1.392 . S
C1437 C1441 1.495 . S
C1438 C1437 1.392 . S
C1438 C1439 1.385 . S
C1438 C1440 1.478 . S
C1439 H1433 0.930 . S
C1439 C1435 1.400 . S
C1439 C1438 1.385 . S
C1440 C1438 1.478 . S
C1440 C1442 1.381 . S
C1440 C1446 1.383 . S
C1441 C1437 1.495 . S
C1441 H1447 0.959 . S
C1441 H1448 0.961 . S
C1441 H1449 0.960 . S
C1442 C1440 1.381 . S
C1442 C1443 1.394 . S
C1442 H1450 0.930 . S
C1443 C1442 1.394 . S
C1443 C1444 1.383 . S
C1443 H1451 0.929 . S
C1444 C1443 1.383 . S
C1444 C1445 1.377 . S
C1445 H1429 0.930 . S
C1445 C1444 1.377 . S
C1445 C1446 1.379 . S
C1446 H1430 0.931 . S
C1446 C1440 1.383 . S
C1446 C1445 1.379 . S
H1447 C1441 0.959 . S
H1448 C1441 0.961 . S
H1449 C1441 0.960 . S
H1450 C1442 0.930 . S
H1451 C1443 0.929 . S
H1452 C1460 0.929 . S
H1453 C1462 0.930 . S
H1454 C1464 0.930 . S
H1455 C1467 0.929 . S
H1456 C1470 0.930 . S
H1457 C1472 0.960 . S
H1458 C1472 0.960 . S
H1459 C1472 0.960 . S
C1460 H1452 0.929 . S
C1460 C1461 1.377 . S
C1460 C1462 1.384 . S
C1461 C1460 1.377 . S
C1461 C1467 1.390 . S
C1462 H1453 0.930 . S
C1462 C1460 1.384 . S
C1462 C1463 1.372 . S
C1463 C1462 1.372 . S
C1463 C1464 1.400 . S
C1463 C1468 1.490 . S
C1464 H1454 0.930 . S
C1464 C1463 1.400 . S
C1464 C1467 1.386 . S
H1465 C1481 0.930 . S
H1466 C1482 0.931 . S
C1467 H1455 0.929 . S
C1467 C1461 1.390 . S
C1467 C1464 1.386 . S
C1468 C1463 1.490 . S
C1468 C1470 1.395 . S
C1468 C1471 1.403 . S
H1469 C1475 0.930 . S
C1470 H1456 0.930 . S
C1470 C1468 1.395 . S
C1470 C1473 1.403 . S
C1471 C1468 1.403 . S
C1471 C1472 1.524 . S
C1471 C1475 1.400 . S
C1472 H1457 0.960 . S
C1472 H1458 0.960 . S
C1472 H1459 0.960 . S
C1472 C1471 1.524 . S
C1473 C1470 1.403 . S
C1473 C1474 1.392 . S
C1473 C1477 1.495 . S
C1474 C1473 1.392 . S
C1474 C1475 1.385 . S
C1474 C1476 1.478 . S
C1475 H1469 0.930 . S
C1475 C1471 1.400 . S
C1475 C1474 1.385 . S
C1476 C1474 1.478 . S
C1476 C1478 1.381 . S
C1476 C1482 1.383 . S
C1477 C1473 1.495 . S
C1477 H1483 0.959 . S
C1477 H1484 0.961 . S
C1477 H1485 0.960 . S
C1478 C1476 1.381 . S
C1478 C1479 1.394 . S
C1478 H1486 0.930 . S
C1479 C1478 1.394 . S
C1479 C1480 1.383 . S
C1479 H1487 0.929 . S
C1480 C1479 1.383 . S
C1480 C1481 1.377 . S
C1481 H1465 0.930 . S
C1481 C1480 1.377 . S
C1481 C1482 1.379 . S
C1482 H1466 0.931 . S
C1482 C1476 1.383 . S
C1482 C1481 1.379 . S
H1483 C1477 0.959 . S
H1484 C1477 0.961 . S
H1485 C1477 0.960 . S
H1486 C1478 0.930 . S
H1487 C1479 0.929 . S
H1488 C1496 0.929 . S
H1489 C1498 0.930 . S
H1490 C1500 0.930 . S
H1491 C1503 0.929 . S
H1492 C1506 0.930 . S
H1493 C1508 0.960 . S
H1494 C1508 0.960 . S
H1495 C1508 0.960 . S
C1496 H1488 0.929 . S
C1496 C1497 1.377 . S
C1496 C1498 1.384 . S
C1497 C1496 1.377 . S
C1497 C1503 1.390 . S
C1498 H1489 0.930 . S
C1498 C1496 1.384 . S
C1498 C1499 1.372 . S
C1499 C1498 1.372 . S
C1499 C1500 1.400 . S
C1499 C1504 1.490 . S
C1500 H1490 0.930 . S
C1500 C1499 1.400 . S
C1500 C1503 1.386 . S
H1501 C1517 0.930 . S
H1502 C1518 0.931 . S
C1503 H1491 0.929 . S
C1503 C1497 1.390 . S
C1503 C1500 1.386 . S
C1504 C1499 1.490 . S
C1504 C1506 1.395 . S
C1504 C1507 1.403 . S
H1505 C1511 0.930 . S
C1506 H1492 0.930 . S
C1506 C1504 1.395 . S
C1506 C1509 1.403 . S
C1507 C1504 1.403 . S
C1507 C1508 1.524 . S
C1507 C1511 1.400 . S
C1508 H1493 0.960 . S
C1508 H1494 0.960 . S
C1508 H1495 0.960 . S
C1508 C1507 1.524 . S
C1509 C1506 1.403 . S
C1509 C1510 1.392 . S
C1509 C1513 1.495 . S
C1510 C1509 1.392 . S
C1510 C1511 1.385 . S
C1510 C1512 1.478 . S
C1511 H1505 0.930 . S
C1511 C1507 1.400 . S
C1511 C1510 1.385 . S
C1512 C1510 1.478 . S
C1512 C1514 1.381 . S
C1512 C1518 1.383 . S
C1513 C1509 1.495 . S
C1513 H1519 0.959 . S
C1513 H1520 0.961 . S
C1513 H1521 0.960 . S
C1514 C1512 1.381 . S
C1514 C1515 1.394 . S
C1514 H1522 0.930 . S
C1515 C1514 1.394 . S
C1515 C1516 1.383 . S
C1515 H1523 0.929 . S
C1516 C1515 1.383 . S
C1516 C1517 1.377 . S
C1517 H1501 0.930 . S
C1517 C1516 1.377 . S
C1517 C1518 1.379 . S
C1518 H1502 0.931 . S
C1518 C1512 1.383 . S
C1518 C1517 1.379 . S
H1519 C1513 0.959 . S
H1520 C1513 0.961 . S
H1521 C1513 0.960 . S
H1522 C1514 0.930 . S
H1523 C1515 0.929 . S
H1524 C1532 0.929 . S
H1525 C1534 0.930 . S
H1526 C1536 0.930 . S
H1527 C1539 0.929 . S
H1528 C1542 0.930 . S
H1529 C1544 0.960 . S
H1530 C1544 0.960 . S
H1531 C1544 0.960 . S
C1532 H1524 0.929 . S
C1532 C1533 1.377 . S
C1532 C1534 1.384 . S
C1533 C1532 1.377 . S
C1533 C1539 1.390 . S
C1534 H1525 0.930 . S
C1534 C1532 1.384 . S
C1534 C1535 1.372 . S
C1535 C1534 1.372 . S
C1535 C1536 1.400 . S
C1535 C1540 1.490 . S
C1536 H1526 0.930 . S
C1536 C1535 1.400 . S
C1536 C1539 1.386 . S
H1537 C1553 0.930 . S
H1538 C1554 0.931 . S
C1539 H1527 0.929 . S
C1539 C1533 1.390 . S
C1539 C1536 1.386 . S
C1540 C1535 1.490 . S
C1540 C1542 1.395 . S
C1540 C1543 1.403 . S
H1541 C1547 0.930 . S
C1542 H1528 0.930 . S
C1542 C1540 1.395 . S
C1542 C1545 1.403 . S
C1543 C1540 1.403 . S
C1543 C1544 1.524 . S
C1543 C1547 1.400 . S
C1544 H1529 0.960 . S
C1544 H1530 0.960 . S
C1544 H1531 0.960 . S
C1544 C1543 1.524 . S
C1545 C1542 1.403 . S
C1545 C1546 1.392 . S
C1545 C1549 1.495 . S
C1546 C1545 1.392 . S
C1546 C1547 1.385 . S
C1546 C1548 1.478 . S
C1547 H1541 0.930 . S
C1547 C1543 1.400 . S
C1547 C1546 1.385 . S
C1548 C1546 1.478 . S
C1548 C1550 1.381 . S
C1548 C1554 1.383 . S
C1549 C1545 1.495 . S
C1549 H1555 0.959 . S
C1549 H1556 0.961 . S
C1549 H1557 0.960 . S
C1550 C1548 1.381 . S
C1550 C1551 1.394 . S
C1550 H1558 0.930 . S
C1551 C1550 1.394 . S
C1551 C1552 1.383 . S
C1551 H1559 0.929 . S
C1552 C1551 1.383 . S
C1552 C1553 1.377 . S
C1553 H1537 0.930 . S
C1553 C1552 1.377 . S
C1553 C1554 1.379 . S
C1554 H1538 0.931 . S
C1554 C1548 1.383 . S
C1554 C1553 1.379 . S
H1555 C1549 0.959 . S
H1556 C1549 0.961 . S
H1557 C1549 0.960 . S
H1558 C1550 0.930 . S
H1559 C1551 0.929 . S
H1560 C1568 0.929 . S
H1561 C1570 0.930 . S
H1562 C1572 0.930 . S
H1563 C1575 0.929 . S
H1564 C1578 0.930 . S
H1565 C1580 0.960 . S
H1566 C1580 0.960 . S
H1567 C1580 0.960 . S
C1568 H1560 0.929 . S
C1568 C1569 1.377 . S
C1568 C1570 1.384 . S
C1569 C1568 1.377 . S
C1569 C1575 1.390 . S
C1570 H1561 0.930 . S
C1570 C1568 1.384 . S
C1570 C1571 1.372 . S
C1571 C1570 1.372 . S
C1571 C1572 1.400 . S
C1571 C1576 1.490 . S
C1572 H1562 0.930 . S
C1572 C1571 1.400 . S
C1572 C1575 1.386 . S
H1573 C1589 0.930 . S
H1574 C1590 0.931 . S
C1575 H1563 0.929 . S
C1575 C1569 1.390 . S
C1575 C1572 1.386 . S
C1576 C1571 1.490 . S
C1576 C1578 1.395 . S
C1576 C1579 1.403 . S
H1577 C1583 0.930 . S
C1578 H1564 0.930 . S
C1578 C1576 1.395 . S
C1578 C1581 1.403 . S
C1579 C1576 1.403 . S
C1579 C1580 1.524 . S
C1579 C1583 1.400 . S
C1580 H1565 0.960 . S
C1580 H1566 0.960 . S
C1580 H1567 0.960 . S
C1580 C1579 1.524 . S
C1581 C1578 1.403 . S
C1581 C1582 1.392 . S
C1581 C1585 1.495 . S
C1582 C1581 1.392 . S
C1582 C1583 1.385 . S
C1582 C1584 1.478 . S
C1583 H1577 0.930 . S
C1583 C1579 1.400 . S
C1583 C1582 1.385 . S
C1584 C1582 1.478 . S
C1584 C1586 1.381 . S
C1584 C1590 1.383 . S
C1585 C1581 1.495 . S
C1585 H1591 0.959 . S
C1585 H1592 0.961 . S
C1585 H1593 0.960 . S
C1586 C1584 1.381 . S
C1586 C1587 1.394 . S
C1586 H1594 0.930 . S
C1587 C1586 1.394 . S
C1587 C1588 1.383 . S
C1587 H1595 0.929 . S
C1588 C1587 1.383 . S
C1588 C1589 1.377 . S
C1589 H1573 0.930 . S
C1589 C1588 1.377 . S
C1589 C1590 1.379 . S
C1590 H1574 0.931 . S
C1590 C1584 1.383 . S
C1590 C1589 1.379 . S
H1591 C1585 0.959 . S
H1592 C1585 0.961 . S
H1593 C1585 0.960 . S
H1594 C1586 0.930 . S
H1595 C1587 0.929 . S
H1596 C1604 0.929 . S
H1597 C1606 0.930 . S
H1598 C1608 0.930 . S
H1599 C1611 0.929 . S
H1600 C1614 0.930 . S
H1601 C1616 0.960 . S
H1602 C1616 0.960 . S
H1603 C1616 0.960 . S
C1604 H1596 0.929 . S
C1604 C1605 1.409 . S
C1604 C1606 1.384 . S
C1605 C1604 1.409 . S
C1605 C1611 1.359 1_554 S
C1606 H1597 0.930 . S
C1606 C1604 1.384 . S
C1606 C1607 1.372 . S
C1607 C1606 1.372 . S
C1607 C1608 1.400 1_554 S
C1607 C1612 1.490 . S
C1608 H1598 0.930 . S
C1608 C1607 1.400 1_556 S
C1608 C1611 1.386 . S
H1609 C1625 0.930 . S
H1610 C1626 0.931 . S
C1611 H1599 0.929 . S
C1611 C1605 1.359 1_556 S
C1611 C1608 1.386 . S
C1612 C1607 1.490 . S
C1612 C1614 1.395 . S
C1612 C1615 1.403 1_554 S
H1613 C1619 0.930 . S
C1614 H1600 0.930 . S
C1614 C1612 1.395 . S
C1614 C1617 1.403 . S
C1615 C1612 1.403 1_556 S
C1615 C1616 1.524 . S
C1615 C1619 1.400 . S
C1616 H1601 0.960 . S
C1616 H1602 0.960 . S
C1616 H1603 0.960 . S
C1616 C1615 1.524 . S
C1617 C1614 1.403 . S
C1617 C1618 1.392 . S
C1617 C1621 1.495 . S
C1618 C1617 1.392 . S
C1618 C1619 1.385 1_554 S
C1618 C1620 1.478 . S
C1619 H1613 0.930 . S
C1619 C1615 1.400 . S
C1619 C1618 1.385 1_556 S
C1620 C1618 1.478 . S
C1620 C1622 1.381 . S
C1620 C1626 1.383 1_554 S
C1621 C1617 1.495 . S
C1621 H1627 0.959 . S
C1621 H1628 0.961 . S
C1621 H1629 0.960 . S
C1622 C1620 1.381 . S
C1622 C1623 1.394 . S
C1622 H1630 0.930 . S
C1623 C1622 1.394 . S
C1623 C1624 1.383 . S
C1623 H1631 0.929 . S
C1624 C1623 1.383 . S
C1624 C1625 1.377 1_554 S
C1625 H1609 0.930 . S
C1625 C1624 1.377 1_556 S
C1625 C1626 1.379 . S
C1626 H1610 0.931 . S
C1626 C1620 1.383 1_556 S
C1626 C1625 1.379 . S
H1627 C1621 0.959 . S
H1628 C1621 0.961 . S
H1629 C1621 0.960 . S
H1630 C1622 0.930 . S
H1631 C1623 0.929 . S
H1632 C1640 0.929 . S
H1633 C1642 0.930 . S
H1634 C1644 0.930 . S
H1635 C1647 0.929 . S
H1636 C1650 0.930 . S
H1637 C1652 0.960 . S
H1638 C1652 0.960 . S
H1639 C1652 0.960 . S
C1640 H1632 0.929 . S
C1640 C1641 1.366 1_556 S
C1640 C1642 1.384 . S
C1641 C1640 1.366 1_554 S
C1641 C1647 1.401 . S
C1642 H1633 0.930 . S
C1642 C1640 1.384 . S
C1642 C1643 1.401 . S
C1643 C1642 1.401 . S
C1643 C1644 1.370 1_556 S
C1643 C1648 1.490 . S
C1644 H1634 0.930 . S
C1644 C1643 1.370 1_554 S
C1644 C1647 1.386 . S
H1645 C1661 0.930 . S
H1646 C1662 0.931 . S
C1647 H1635 0.929 . S
C1647 C1641 1.401 . S
C1647 C1644 1.386 . S
C1648 C1643 1.490 . S
C1648 C1650 1.418 . S
C1648 C1651 1.383 1_556 S
H1649 C1655 0.930 . S
C1650 H1636 0.930 . S
C1650 C1648 1.418 . S
C1650 C1653 1.403 . S
C1651 C1648 1.383 1_554 S
C1651 C1652 1.524 . S
C1651 C1655 1.400 . S
C1652 H1637 0.960 . S
C1652 H1638 0.960 . S
C1652 H1639 0.960 . S
C1652 C1651 1.524 . S
C1653 C1650 1.403 . S
C1653 C1654 1.392 . S
C1653 C1657 1.495 . S
C1654 C1653 1.392 . S
C1654 C1655 1.385 1_556 S
C1654 C1656 1.478 . S
C1655 H1649 0.930 . S
C1655 C1651 1.400 . S
C1655 C1654 1.385 1_554 S
C1656 C1654 1.478 . S
C1656 C1658 1.381 . S
C1656 C1662 1.383 1_556 S
C1657 C1653 1.495 . S
C1657 H1663 0.959 . S
C1657 H1664 0.961 . S
C1657 H1665 0.960 . S
C1658 C1656 1.381 . S
C1658 C1659 1.394 . S
C1658 H1666 0.930 . S
C1659 C1658 1.394 . S
C1659 C1660 1.380 . S
C1659 H1667 0.929 . S
C1660 C1659 1.380 . S
C1660 C1661 1.380 1_556 S
C1661 H1645 0.930 . S
C1661 C1660 1.380 1_554 S
C1661 C1662 1.379 . S
C1662 H1646 0.931 . S
C1662 C1656 1.383 1_554 S
C1662 C1661 1.379 . S
H1663 C1657 0.959 . S
H1664 C1657 0.961 . S
H1665 C1657 0.960 . S
H1666 C1658 0.930 . S
H1667 C1659 0.929 . S
H1668 C1676 0.929 . S
H1669 C1678 0.930 . S
H1670 C1680 0.930 . S
H1671 C1683 0.929 . S
H1672 C1686 0.930 . S
H1673 C1688 0.960 . S
H1674 C1688 0.960 1_554 S
H1675 C1688 0.960 . S
C1676 H1668 0.929 . S
C1676 C1677 1.414 . S
C1676 C1678 1.384 . S
C1677 C1676 1.414 . S
C1677 C1683 1.354 1_554 S
C1678 H1669 0.930 . S
C1678 C1676 1.384 . S
C1678 C1679 1.372 . S
C1679 C1678 1.372 . S
C1679 C1680 1.400 1_554 S
C1679 C1684 1.490 . S
C1680 H1670 0.930 . S
C1680 C1679 1.400 1_556 S
C1680 C1683 1.386 . S
H1681 C1697 0.930 . S
H1682 C1698 0.931 . S
C1683 H1671 0.929 . S
C1683 C1677 1.354 1_556 S
C1683 C1680 1.386 . S
C1684 C1679 1.490 . S
C1684 C1686 1.395 . S
C1684 C1687 1.403 1_554 S
H1685 C1691 0.930 . S
C1686 H1672 0.930 . S
C1686 C1684 1.395 . S
C1686 C1689 1.403 . S
C1687 C1684 1.403 1_556 S
C1687 C1688 1.524 . S
C1687 C1691 1.400 . S
C1688 H1673 0.960 . S
C1688 H1674 0.960 1_556 S
C1688 H1675 0.960 . S
C1688 C1687 1.524 . S
C1689 C1686 1.403 . S
C1689 C1690 1.392 . S
C1689 C1693 1.495 . S
C1690 C1689 1.392 . S
C1690 C1691 1.385 1_554 S
C1690 C1692 1.478 . S
C1691 H1685 0.930 . S
C1691 C1687 1.400 . S
C1691 C1690 1.385 1_556 S
C1692 C1690 1.478 . S
C1692 C1694 1.381 . S
C1692 C1698 1.383 1_554 S
C1693 C1689 1.495 . S
C1693 H1699 0.959 . S
C1693 H1700 0.961 1_554 S
C1693 H1701 0.960 . S
C1694 C1692 1.381 . S
C1694 C1695 1.394 . S
C1694 H1702 0.930 . S
C1695 C1694 1.394 . S
C1695 C1696 1.416 . S
C1695 H1703 0.929 . S
C1696 C1695 1.416 . S
C1696 C1697 1.345 1_554 S
C1697 H1681 0.930 . S
C1697 C1696 1.345 1_556 S
C1697 C1698 1.379 . S
C1698 H1682 0.931 . S
C1698 C1692 1.383 1_556 S
C1698 C1697 1.379 . S
H1699 C1693 0.959 . S
H1700 C1693 0.961 1_556 S
H1701 C1693 0.960 . S
H1702 C1694 0.930 . S
H1703 C1695 0.929 . S
H1704 C1712 0.929 . S
H1705 C1714 0.930 . S
H1706 C1716 0.930 . S
H1707 C1719 0.934 . S
H1708 C1722 0.930 . S
H1709 C1724 0.960 . S
H1710 C1724 0.960 . S
H1711 C1724 0.960 . S
C1712 H1704 0.929 . S
C1712 C1713 1.378 . S
C1712 C1714 1.384 . S
C1713 C1712 1.378 . S
C1713 C1719 1.387 1_554 S
C1714 H1705 0.930 . S
C1714 C1712 1.384 . S
C1714 C1715 1.373 . S
C1715 C1714 1.373 . S
C1715 C1716 1.399 1_554 S
C1715 C1720 1.489 . S
C1716 H1706 0.930 . S
C1716 C1715 1.399 1_556 S
C1716 C1719 1.387 . S
H1717 C1733 0.930 . S
H1718 C1734 0.931 . S
C1719 H1707 0.934 . S
C1719 C1713 1.387 1_556 S
C1719 C1716 1.387 . S
C1720 C1715 1.489 . S
C1720 C1722 1.444 . S
C1720 C1723 1.357 1_554 S
H1721 C1727 0.930 . S
C1722 H1708 0.930 . S
C1722 C1720 1.444 . S
C1722 C1725 1.403 . S
C1723 C1720 1.357 1_556 S
C1723 C1724 1.524 . S
C1723 C1727 1.400 . S
C1724 H1709 0.960 . S
C1724 H1710 0.960 . S
C1724 H1711 0.960 . S
C1724 C1723 1.524 . S
C1725 C1722 1.403 . S
C1725 C1726 1.392 . S
C1725 C1729 1.495 . S
C1726 C1725 1.392 . S
C1726 C1727 1.385 1_554 S
C1726 C1728 1.478 . S
C1727 H1721 0.930 . S
C1727 C1723 1.400 . S
C1727 C1726 1.385 1_556 S
C1728 C1726 1.478 . S
C1728 C1730 1.381 . S
C1728 C1734 1.383 . S
C1729 C1725 1.495 . S
C1729 H1735 0.959 . S
C1729 H1736 0.961 . S
C1729 H1737 0.960 . S
C1730 C1728 1.381 . S
C1730 C1731 1.394 . S
C1730 H1738 0.930 . S
C1731 C1730 1.394 . S
C1731 C1732 1.383 . S
C1731 H1739 0.931 . S
C1732 C1731 1.383 . S
C1732 C1733 1.377 . S
C1733 H1717 0.930 . S
C1733 C1732 1.377 . S
C1733 C1734 1.379 . S
C1734 H1718 0.931 . S
C1734 C1728 1.383 . S
C1734 C1733 1.379 . S
H1735 C1729 0.959 . S
H1736 C1729 0.961 . S
H1737 C1729 0.960 . S
H1738 C1730 0.930 . S
H1739 C1731 0.931 . S
H1740 C1748 0.929 . S
H1741 C1750 0.930 . S
H1742 C1752 0.930 . S
H1743 C1755 0.929 . S
H1744 C1758 0.930 . S
H1745 C1760 0.960 . S
H1746 C1760 0.960 . S
H1747 C1760 0.960 . S
C1748 H1740 0.929 . S
C1748 C1749 1.394 . S
C1748 C1750 1.384 . S
C1749 C1748 1.394 . S
C1749 C1755 1.374 1_455 S
C1750 H1741 0.930 . S
C1750 C1748 1.384 . S
C1750 C1751 1.372 . S
C1751 C1750 1.372 . S
C1751 C1752 1.400 1_455 S
C1751 C1756 1.491 . S
C1752 H1742 0.930 . S
C1752 C1751 1.400 1_655 S
C1752 C1755 1.386 . S
H1753 C1769 0.930 . S
H1754 C1770 0.931 . S
C1755 H1743 0.929 . S
C1755 C1749 1.374 1_655 S
C1755 C1752 1.386 . S
C1756 C1751 1.491 . S
C1756 C1758 1.379 1_455 S
C1756 C1759 1.419 . S
H1757 C1763 0.930 . S
C1758 H1744 0.930 . S
C1758 C1756 1.379 1_655 S
C1758 C1761 1.403 . S
C1759 C1756 1.419 . S
C1759 C1760 1.524 . S
C1759 C1763 1.400 . S
C1760 H1745 0.960 . S
C1760 H1746 0.960 . S
C1760 H1747 0.960 . S
C1760 C1759 1.524 . S
C1761 C1758 1.403 . S
C1761 C1762 1.408 . S
C1761 C1765 1.495 . S
C1762 C1761 1.408 . S
C1762 C1763 1.369 1_655 S
C1762 C1764 1.479 . S
C1763 H1757 0.930 . S
C1763 C1759 1.400 . S
C1763 C1762 1.369 1_455 S
C1764 C1762 1.479 . S
C1764 C1766 1.381 1_655 S
C1764 C1770 1.383 . S
C1765 C1761 1.495 . S
C1765 H1771 0.959 . S
C1765 H1772 0.961 . S
C1765 H1773 0.960 . S
C1766 C1764 1.381 1_455 S
C1766 C1767 1.394 . S
C1766 H1774 0.930 . S
C1767 C1766 1.394 . S
C1767 C1768 1.369 1_455 S
C1767 H1775 0.929 . S
C1768 C1767 1.369 1_655 S
C1768 C1769 1.392 . S
C1769 H1753 0.930 . S
C1769 C1768 1.392 . S
C1769 C1770 1.379 . S
C1770 H1754 0.931 . S
C1770 C1764 1.383 . S
C1770 C1769 1.379 . S
H1771 C1765 0.959 . S
H1772 C1765 0.961 . S
H1773 C1765 0.960 . S
H1774 C1766 0.930 . S
H1775 C1767 0.929 . S
H1776 C1784 0.929 . S
H1777 C1786 0.930 . S
H1778 C1788 0.930 . S
H1779 C1791 0.929 . S
H1780 C1794 0.930 . S
H1781 C1796 0.960 . S
H1782 C1796 0.960 . S
H1783 C1796 0.960 . S
C1784 H1776 0.929 . S
C1784 C1785 1.379 . S
C1784 C1786 1.384 . S
C1785 C1784 1.379 . S
C1785 C1791 1.388 1_565 S
C1786 H1777 0.930 . S
C1786 C1784 1.384 . S
C1786 C1787 1.382 . S
C1787 C1786 1.382 . S
C1787 C1788 1.390 1_565 S
C1787 C1792 1.490 . S
C1788 H1778 0.930 . S
C1788 C1787 1.390 1_545 S
C1788 C1791 1.386 . S
H1789 C1805 0.930 . S
H1790 C1806 0.931 . S
C1791 H1779 0.929 . S
C1791 C1785 1.388 1_545 S
C1791 C1788 1.386 . S
C1792 C1787 1.490 . S
C1792 C1794 1.395 1_565 S
C1792 C1795 1.402 . S
H1793 C1799 0.930 . S
C1794 H1780 0.930 . S
C1794 C1792 1.395 1_545 S
C1794 C1797 1.403 . S
C1795 C1792 1.402 . S
C1795 C1796 1.524 . S
C1795 C1799 1.400 . S
C1796 H1781 0.960 . S
C1796 H1782 0.960 . S
C1796 H1783 0.960 . S
C1796 C1795 1.524 . S
C1797 C1794 1.403 . S
C1797 C1798 1.392 . S
C1797 C1801 1.495 . S
C1798 C1797 1.392 . S
C1798 C1799 1.385 1_545 S
C1798 C1800 1.478 . S
C1799 H1793 0.930 . S
C1799 C1795 1.400 . S
C1799 C1798 1.385 1_565 S
C1800 C1798 1.478 . S
C1800 C1802 1.381 1_545 S
C1800 C1806 1.383 . S
C1801 C1797 1.495 . S
C1801 H1807 0.959 . S
C1801 H1808 0.961 . S
C1801 H1809 0.960 . S
C1802 C1800 1.381 1_565 S
C1802 C1803 1.394 . S
C1802 H1810 0.930 . S
C1803 C1802 1.394 . S
C1803 C1804 1.383 1_565 S
C1803 H1811 0.929 . S
C1804 C1803 1.383 1_545 S
C1804 C1805 1.377 . S
C1805 H1789 0.930 . S
C1805 C1804 1.377 . S
C1805 C1806 1.379 . S
C1806 H1790 0.931 . S
C1806 C1800 1.383 . S
C1806 C1805 1.379 . S
H1807 C1801 0.959 . S
H1808 C1801 0.961 . S
H1809 C1801 0.960 . S
H1810 C1802 0.930 . S
H1811 C1803 0.929 . S
H1812 C1820 0.929 . S
H1813 C1822 0.932 . S
H1814 C1824 0.930 . S
H1815 C1827 0.929 . S
H1816 C1830 0.930 . S
H1817 C1832 0.960 . S
H1818 C1832 0.960 . S
H1819 C1832 0.960 . S
C1820 H1812 0.929 . S
C1820 C1821 1.377 1_655 S
C1820 C1822 1.384 . S
C1821 C1820 1.377 1_455 S
C1821 C1827 1.391 . S
C1822 H1813 0.932 . S
C1822 C1820 1.384 . S
C1822 C1823 1.371 1_655 S
C1823 C1822 1.371 1_455 S
C1823 C1824 1.401 . S
C1823 C1828 1.489 1_455 S
C1824 H1814 0.930 . S
C1824 C1823 1.401 . S
C1824 C1827 1.386 . S
H1825 C1841 0.930 . S
H1826 C1842 0.931 . S
C1827 H1815 0.929 . S
C1827 C1821 1.391 . S
C1827 C1824 1.386 . S
C1828 C1823 1.489 1_655 S
C1828 C1830 1.403 . S
C1828 C1831 1.395 1_655 S
H1829 C1835 0.930 . S
C1830 H1816 0.930 . S
C1830 C1828 1.403 . S
C1830 C1833 1.403 . S
C1831 C1828 1.395 1_455 S
C1831 C1832 1.524 . S
C1831 C1835 1.400 . S
C1832 H1817 0.960 . S
C1832 H1818 0.960 . S
C1832 H1819 0.960 . S
C1832 C1831 1.524 . S
C1833 C1830 1.403 . S
C1833 C1834 1.392 . S
C1833 C1837 1.495 . S
C1834 C1833 1.392 . S
C1834 C1835 1.385 1_655 S
C1834 C1836 1.478 . S
C1835 H1829 0.930 . S
C1835 C1831 1.400 . S
C1835 C1834 1.385 1_455 S
C1836 C1834 1.478 . S
C1836 C1838 1.381 . S
C1836 C1842 1.383 . S
C1837 C1833 1.495 . S
C1837 H1843 0.959 . S
C1837 H1844 0.961 . S
C1837 H1845 0.960 . S
C1838 C1836 1.381 . S
C1838 C1839 1.397 . S
C1838 H1846 0.930 . S
C1839 C1838 1.397 . S
C1839 C1840 1.385 . S
C1839 H1847 0.926 1_655 S
C1840 C1839 1.385 . S
C1840 C1841 1.377 . S
C1841 H1825 0.930 . S
C1841 C1840 1.377 . S
C1841 C1842 1.379 . S
C1842 H1826 0.931 . S
C1842 C1836 1.383 . S
C1842 C1841 1.379 . S
H1843 C1837 0.959 . S
H1844 C1837 0.961 . S
H1845 C1837 0.960 . S
H1846 C1838 0.930 . S
H1847 C1839 0.926 1_455 S
H1848 C1856 0.929 . S
H1849 C1858 0.930 . S
H1850 C1860 0.930 . S
H1851 C1863 0.929 . S
H1852 C1866 0.930 . S
H1853 C1868 0.960 . S
H1854 C1868 0.960 . S
H1855 C1868 0.960 . S
C1856 H1848 0.929 . S
C1856 C1857 1.379 1_565 S
C1856 C1858 1.384 . S
C1857 C1856 1.379 1_545 S
C1857 C1863 1.388 . S
C1858 H1849 0.930 . S
C1858 C1856 1.384 . S
C1858 C1859 1.406 . S
C1859 C1858 1.406 . S
C1859 C1860 1.365 1_565 S
C1859 C1864 1.492 . S
C1860 H1850 0.930 . S
C1860 C1859 1.365 1_545 S
C1860 C1863 1.386 . S
H1861 C1877 0.930 . S
H1862 C1878 0.931 . S
C1863 H1851 0.929 . S
C1863 C1857 1.388 . S
C1863 C1860 1.386 . S
C1864 C1859 1.492 . S
C1864 C1866 1.395 . S
C1864 C1867 1.403 1_565 S
H1865 C1871 0.930 . S
C1866 H1852 0.930 . S
C1866 C1864 1.395 . S
C1866 C1869 1.403 . S
C1867 C1864 1.403 1_545 S
C1867 C1868 1.524 . S
C1867 C1871 1.400 . S
C1868 H1853 0.960 . S
C1868 H1854 0.960 . S
C1868 H1855 0.960 . S
C1868 C1867 1.524 . S
C1869 C1866 1.403 . S
C1869 C1870 1.392 . S
C1869 C1873 1.495 . S
C1870 C1869 1.392 . S
C1870 C1871 1.385 1_565 S
C1870 C1872 1.478 . S
C1871 H1865 0.930 . S
C1871 C1867 1.400 . S
C1871 C1870 1.385 1_545 S
C1872 C1870 1.478 . S
C1872 C1874 1.381 . S
C1872 C1878 1.383 1_565 S
C1873 C1869 1.495 . S
C1873 H1879 0.959 . S
C1873 H1880 0.961 . S
C1873 H1881 0.960 . S
C1874 C1872 1.381 . S
C1874 C1875 1.394 . S
C1874 H1882 0.930 . S
C1875 C1874 1.394 . S
C1875 C1876 1.430 . S
C1875 H1883 0.929 . S
C1876 C1875 1.430 . S
C1876 C1877 1.334 1_565 S
C1877 H1861 0.930 . S
C1877 C1876 1.334 1_545 S
C1877 C1878 1.379 . S
C1878 H1862 0.931 . S
C1878 C1872 1.383 1_545 S
C1878 C1877 1.379 . S
H1879 C1873 0.959 . S
H1880 C1873 0.961 . S
H1881 C1873 0.960 . S
H1882 C1874 0.930 . S
H1883 C1875 0.929 . S
H1884 C1892 0.929 . S
H1885 C1894 0.930 . S
H1886 C1896 0.930 . S
H1887 C1899 0.929 . S
H1888 C1902 0.930 . S
H1889 C1904 0.960 . S
H1890 C1904 0.960 . S
H1891 C1904 0.960 . S
C1892 H1884 0.929 . S
C1892 C1893 1.389 . S
C1892 C1894 1.384 . S
C1893 C1892 1.389 . S
C1893 C1899 1.379 1_455 S
C1894 H1885 0.930 . S
C1894 C1892 1.384 . S
C1894 C1895 1.372 . S
C1895 C1894 1.372 . S
C1895 C1896 1.400 1_455 S
C1895 C1900 1.490 . S
C1896 H1886 0.930 . S
C1896 C1895 1.400 1_655 S
C1896 C1899 1.386 . S
H1897 C1913 0.930 . S
H1898 C1914 0.931 . S
C1899 H1887 0.929 . S
C1899 C1893 1.379 1_655 S
C1899 C1896 1.386 . S
C1900 C1895 1.490 . S
C1900 C1902 1.395 . S
C1900 C1903 1.403 1_455 S
H1901 C1907 0.930 . S
C1902 H1888 0.930 . S
C1902 C1900 1.395 . S
C1902 C1905 1.403 . S
C1903 C1900 1.403 1_655 S
C1903 C1904 1.524 . S
C1903 C1907 1.400 . S
C1904 H1889 0.960 . S
C1904 H1890 0.960 . S
C1904 H1891 0.960 . S
C1904 C1903 1.524 . S
C1905 C1902 1.403 . S
C1905 C1906 1.392 . S
C1905 C1909 1.495 . S
C1906 C1905 1.392 . S
C1906 C1907 1.385 1_455 S
C1906 C1908 1.478 . S
C1907 H1901 0.930 . S
C1907 C1903 1.400 . S
C1907 C1906 1.385 1_655 S
C1908 C1906 1.478 . S
C1908 C1910 1.381 . S
C1908 C1914 1.383 1_455 S
C1909 C1905 1.495 . S
C1909 H1915 0.959 . S
C1909 H1916 0.961 . S
C1909 H1917 0.960 . S
C1910 C1908 1.381 . S
C1910 C1911 1.394 . S
C1910 H1918 0.930 . S
C1911 C1910 1.394 . S
C1911 C1912 1.383 . S
C1911 H1919 0.929 . S
C1912 C1911 1.383 . S
C1912 C1913 1.377 1_455 S
C1913 H1897 0.930 . S
C1913 C1912 1.377 1_655 S
C1913 C1914 1.379 . S
C1914 H1898 0.931 . S
C1914 C1908 1.383 1_655 S
C1914 C1913 1.379 . S
H1915 C1909 0.959 . S
H1916 C1909 0.961 . S
H1917 C1909 0.960 . S
H1918 C1910 0.930 . S
H1919 C1911 0.929 . S
H1920 C1928 0.929 . S
H1921 C1930 0.930 . S
H1922 C1932 0.930 . S
H1923 C1935 0.929 . S
H1924 C1938 0.930 . S
H1925 C1940 0.960 . S
H1926 C1940 0.960 . S
H1927 C1940 0.960 . S
C1928 H1920 0.929 . S
C1928 C1929 1.375 . S
C1928 C1930 1.384 . S
C1929 C1928 1.375 . S
C1929 C1935 1.392 1_565 S
C1930 H1921 0.930 . S
C1930 C1928 1.384 . S
C1930 C1931 1.421 . S
C1931 C1930 1.421 . S
C1931 C1932 1.350 1_565 S
C1931 C1936 1.492 . S
C1932 H1922 0.930 . S
C1932 C1931 1.350 1_545 S
C1932 C1935 1.386 . S
H1933 C1949 0.930 . S
H1934 C1950 0.931 . S
C1935 H1923 0.929 . S
C1935 C1929 1.392 1_545 S
C1935 C1932 1.386 . S
C1936 C1931 1.492 . S
C1936 C1938 1.395 . S
C1936 C1939 1.403 1_565 S
H1937 C1943 0.930 . S
C1938 H1924 0.930 . S
C1938 C1936 1.395 . S
C1938 C1941 1.403 . S
C1939 C1936 1.403 1_545 S
C1939 C1940 1.524 . S
C1939 C1943 1.400 . S
C1940 H1925 0.960 . S
C1940 H1926 0.960 . S
C1940 H1927 0.960 . S
C1940 C1939 1.524 . S
C1941 C1938 1.403 . S
C1941 C1942 1.392 . S
C1941 C1945 1.495 . S
C1942 C1941 1.392 . S
C1942 C1943 1.385 1_565 S
C1942 C1944 1.478 . S
C1943 H1937 0.930 . S
C1943 C1939 1.400 . S
C1943 C1942 1.385 1_545 S
C1944 C1942 1.478 . S
C1944 C1946 1.381 . S
C1944 C1950 1.383 1_565 S
C1945 C1941 1.495 . S
C1945 H1951 0.959 . S
C1945 H1952 0.961 . S
C1945 H1953 0.960 . S
C1946 C1944 1.381 . S
C1946 C1947 1.394 . S
C1946 H1954 0.930 . S
C1947 C1946 1.394 . S
C1947 C1948 1.406 . S
C1947 H1955 0.929 . S
C1948 C1947 1.406 . S
C1948 C1949 1.355 1_565 S
C1949 H1933 0.930 . S
C1949 C1948 1.355 1_545 S
C1949 C1950 1.379 . S
C1950 H1934 0.931 . S
C1950 C1944 1.383 1_545 S
C1950 C1949 1.379 . S
H1951 C1945 0.959 . S
H1952 C1945 0.961 . S
H1953 C1945 0.960 . S
H1954 C1946 0.930 . S
H1955 C1947 0.929 . S
H1956 C1964 0.929 . S
H1957 C1966 0.930 . S
H1958 C1968 0.930 . S
H1959 C1971 0.929 . S
H1960 C1974 0.930 . S
H1961 C1976 0.960 . S
H1962 C1976 0.960 . S
H1963 C1976 0.960 . S
C1964 H1956 0.929 . S
C1964 C1965 1.375 1_655 S
C1964 C1966 1.384 . S
C1965 C1964 1.375 1_455 S
C1965 C1971 1.392 . S
C1966 H1957 0.930 . S
C1966 C1964 1.384 . S
C1966 C1967 1.407 . S
C1967 C1966 1.407 . S
C1967 C1968 1.364 1_655 S
C1967 C1972 1.492 . S
C1968 H1958 0.930 . S
C1968 C1967 1.364 1_455 S
C1968 C1971 1.386 . S
H1969 C1985 0.930 . S
H1970 C1986 0.931 . S
C1971 H1959 0.929 . S
C1971 C1965 1.392 . S
C1971 C1968 1.386 . S
C1972 C1967 1.492 . S
C1972 C1974 1.395 . S
C1972 C1975 1.403 1_655 S
H1973 C1979 0.930 . S
C1974 H1960 0.930 . S
C1974 C1972 1.395 . S
C1974 C1977 1.403 . S
C1975 C1972 1.403 1_455 S
C1975 C1976 1.524 . S
C1975 C1979 1.400 . S
C1976 H1961 0.960 . S
C1976 H1962 0.960 . S
C1976 H1963 0.960 . S
C1976 C1975 1.524 . S
C1977 C1974 1.403 . S
C1977 C1978 1.392 . S
C1977 C1981 1.495 . S
C1978 C1977 1.392 . S
C1978 C1979 1.385 1_655 S
C1978 C1980 1.478 . S
C1979 H1973 0.930 . S
C1979 C1975 1.400 . S
C1979 C1978 1.385 1_455 S
C1980 C1978 1.478 . S
C1980 C1982 1.381 . S
C1980 C1986 1.383 1_655 S
C1981 C1977 1.495 . S
C1981 H1987 0.959 . S
C1981 H1988 0.961 . S
C1981 H1989 0.960 . S
C1982 C1980 1.381 . S
C1982 C1983 1.394 . S
C1982 H1990 0.930 . S
C1983 C1982 1.394 . S
C1983 C1984 1.417 . S
C1983 H1991 0.929 . S
C1984 C1983 1.417 . S
C1984 C1985 1.346 1_655 S
C1985 H1969 0.930 . S
C1985 C1984 1.346 1_455 S
C1985 C1986 1.379 . S
C1986 H1970 0.931 . S
C1986 C1980 1.383 1_455 S
C1986 C1985 1.379 . S
H1987 C1981 0.959 . S
H1988 C1981 0.961 . S
H1989 C1981 0.960 . S
H1990 C1982 0.930 . S
H1991 C1983 0.929 . S
H1992 C2000 0.929 . S
H1993 C2002 0.930 . S
H1994 C2004 0.930 . S
H1995 C2007 0.929 . S
H1996 C2010 0.929 . S
H1997 C2012 0.960 . S
H1998 C2012 0.960 . S
H1999 C2012 0.960 1_565 S
C2000 H1992 0.929 . S
C2000 C2001 1.394 . S
C2000 C2002 1.384 . S
C2001 C2000 1.394 . S
C2001 C2007 1.374 1_545 S
C2002 H1993 0.930 . S
C2002 C2000 1.384 . S
C2002 C2003 1.372 . S
C2003 C2002 1.372 . S
C2003 C2004 1.400 1_545 S
C2003 C2008 1.490 . S
C2004 H1994 0.930 . S
C2004 C2003 1.400 1_565 S
C2004 C2007 1.386 . S
H2005 C2021 0.930 . S
H2006 C2022 0.931 . S
C2007 H1995 0.929 . S
C2007 C2001 1.374 1_565 S
C2007 C2004 1.386 . S
C2008 C2003 1.490 . S
C2008 C2010 1.394 1_545 S
C2008 C2011 1.403 . S
H2009 C2015 0.930 . S
C2010 H1996 0.929 . S
C2010 C2008 1.394 1_565 S
C2010 C2013 1.403 . S
C2011 C2008 1.403 . S
C2011 C2012 1.524 . S
C2011 C2015 1.400 . S
C2012 H1997 0.960 . S
C2012 H1998 0.960 . S
C2012 H1999 0.960 1_545 S
C2012 C2011 1.524 . S
C2013 C2010 1.403 . S
C2013 C2014 1.391 1_565 S
C2013 C2017 1.498 . S
C2014 C2013 1.391 1_545 S
C2014 C2015 1.387 . S
C2014 C2016 1.477 1_545 S
C2015 H2009 0.930 . S
C2015 C2011 1.400 . S
C2015 C2014 1.387 . S
C2016 C2014 1.477 1_565 S
C2016 C2018 1.381 1_565 S
C2016 C2022 1.383 . S
C2017 C2013 1.498 . S
C2017 H2023 0.959 . S
C2017 H2024 0.961 . S
C2017 H2025 0.960 1_565 S
C2018 C2016 1.381 1_545 S
C2018 C2019 1.394 . S
C2018 H2026 0.930 . S
C2019 C2018 1.394 . S
C2019 C2020 1.383 1_545 S
C2019 H2027 0.929 . S
C2020 C2019 1.383 1_565 S
C2020 C2021 1.377 . S
C2021 H2005 0.930 . S
C2021 C2020 1.377 . S
C2021 C2022 1.379 . S
C2022 H2006 0.931 . S
C2022 C2016 1.383 . S
C2022 C2021 1.379 . S
H2023 C2017 0.959 . S
H2024 C2017 0.961 . S
H2025 C2017 0.960 1_545 S
H2026 C2018 0.930 . S
H2027 C2019 0.929 . S
H2028 C2036 0.929 . S
H2029 C2038 0.930 . S
H2030 C2040 0.930 . S
H2031 C2043 0.929 . S
H2032 C2046 0.930 . S
H2033 C2048 0.961 . S
H2034 C2048 0.952 1_455 S
H2035 C2048 0.968 . S
C2036 H2028 0.929 . S
C2036 C2037 1.399 . S
C2036 C2038 1.384 . S
C2037 C2036 1.399 . S
C2037 C2043 1.369 1_455 S
C2038 H2029 0.930 . S
C2038 C2036 1.384 . S
C2038 C2039 1.372 . S
C2039 C2038 1.372 . S
C2039 C2040 1.400 1_455 S
C2039 C2044 1.490 . S
C2040 H2030 0.930 . S
C2040 C2039 1.400 1_655 S
C2040 C2043 1.386 . S
H2041 C2057 0.930 . S
H2042 C2058 0.931 . S
C2043 H2031 0.929 . S
C2043 C2037 1.369 1_655 S
C2043 C2040 1.386 . S
C2044 C2039 1.490 . S
C2044 C2046 1.395 . S
C2044 C2047 1.403 . S
H2045 C2051 0.930 . S
C2046 H2032 0.930 . S
C2046 C2044 1.395 . S
C2046 C2049 1.403 . S
C2047 C2044 1.403 . S
C2047 C2048 1.523 1_455 S
C2047 C2051 1.400 1_455 S
C2048 H2033 0.961 . S
C2048 H2034 0.952 1_655 S
C2048 H2035 0.968 . S
C2048 C2047 1.523 1_655 S
C2049 C2046 1.403 . S
C2049 C2050 1.392 . S
C2049 C2053 1.495 . S
C2050 C2049 1.392 . S
C2050 C2051 1.385 1_455 S
C2050 C2052 1.479 . S
C2051 H2045 0.930 . S
C2051 C2047 1.400 1_655 S
C2051 C2050 1.385 1_655 S
C2052 C2050 1.479 . S
C2052 C2054 1.406 . S
C2052 C2058 1.357 1_455 S
C2053 C2049 1.495 . S
C2053 H2059 0.959 . S
C2053 H2060 0.961 1_455 S
C2053 H2061 0.960 . S
C2054 C2052 1.406 . S
C2054 C2055 1.394 . S
C2054 H2062 0.930 . S
C2055 C2054 1.394 . S
C2055 C2056 1.388 . S
C2055 H2063 0.929 . S
C2056 C2055 1.388 . S
C2056 C2057 1.373 1_455 S
C2057 H2041 0.930 . S
C2057 C2056 1.373 1_655 S
C2057 C2058 1.379 . S
C2058 H2042 0.931 . S
C2058 C2052 1.357 1_655 S
C2058 C2057 1.379 . S
H2059 C2053 0.959 . S
H2060 C2053 0.961 1_655 S
H2061 C2053 0.960 . S
H2062 C2054 0.930 . S
H2063 C2055 0.929 . S
H2064 C2072 0.929 . S
H2065 C2074 0.930 . S
H2066 C2076 0.930 . S
H2067 C2079 0.929 . S
H2068 C2082 0.930 . S
H2069 C2084 0.960 . S
H2070 C2084 0.960 . S
H2071 C2084 0.960 . S
C2072 H2064 0.929 . S
C2072 C2073 1.373 1_565 S
C2072 C2074 1.384 . S
C2073 C2072 1.373 1_545 S
C2073 C2079 1.394 . S
C2074 H2065 0.930 . S
C2074 C2072 1.384 . S
C2074 C2075 1.372 . S
C2075 C2074 1.372 . S
C2075 C2076 1.400 1_565 S
C2075 C2080 1.489 . S
C2076 H2066 0.930 . S
C2076 C2075 1.400 1_545 S
C2076 C2079 1.386 . S
H2077 C2093 0.930 . S
H2078 C2094 0.931 . S
C2079 H2067 0.929 . S
C2079 C2073 1.394 . S
C2079 C2076 1.386 . S
C2080 C2075 1.489 . S
C2080 C2082 1.437 . S
C2080 C2083 1.363 1_565 S
H2081 C2087 0.930 . S
C2082 H2068 0.930 . S
C2082 C2080 1.437 . S
C2082 C2085 1.403 . S
C2083 C2080 1.363 1_545 S
C2083 C2084 1.524 . S
C2083 C2087 1.400 . S
C2084 H2069 0.960 . S
C2084 H2070 0.960 . S
C2084 H2071 0.960 . S
C2084 C2083 1.524 . S
C2085 C2082 1.403 . S
C2085 C2086 1.392 . S
C2085 C2089 1.495 . S
C2086 C2085 1.392 . S
C2086 C2087 1.385 1_565 S
C2086 C2088 1.478 . S
C2087 H2081 0.930 . S
C2087 C2083 1.400 . S
C2087 C2086 1.385 1_545 S
C2088 C2086 1.478 . S
C2088 C2090 1.381 . S
C2088 C2094 1.383 1_565 S
C2089 C2085 1.495 . S
C2089 H2095 0.959 . S
C2089 H2096 0.961 . S
C2089 H2097 0.960 . S
C2090 C2088 1.381 . S
C2090 C2091 1.394 . S
C2090 H2098 0.930 . S
C2091 C2090 1.394 . S
C2091 C2092 1.383 . S
C2091 H2099 0.929 . S
C2092 C2091 1.383 . S
C2092 C2093 1.377 1_565 S
C2093 H2077 0.930 . S
C2093 C2092 1.377 1_545 S
C2093 C2094 1.379 . S
C2094 H2078 0.931 . S
C2094 C2088 1.383 1_545 S
C2094 C2093 1.379 . S
H2095 C2089 0.959 . S
H2096 C2089 0.961 . S
H2097 C2089 0.960 . S
H2098 C2090 0.930 . S
H2099 C2091 0.929 . S
H2100 C2108 0.929 . S
H2101 C2110 0.930 . S
H2102 C2112 0.930 . S
H2103 C2115 0.929 . S
H2104 C2118 0.930 . S
H2105 C2120 0.960 . S
H2106 C2120 0.960 1_655 S
H2107 C2120 0.960 . S
C2108 H2100 0.929 . S
C2108 C2109 1.372 . S
C2108 C2110 1.384 . S
C2109 C2108 1.372 . S
C2109 C2115 1.395 1_655 S
C2110 H2101 0.930 . S
C2110 C2108 1.384 . S
C2110 C2111 1.414 . S
C2111 C2110 1.414 . S
C2111 C2112 1.357 1_655 S
C2111 C2116 1.491 . S
C2112 H2102 0.930 . S
C2112 C2111 1.357 1_455 S
C2112 C2115 1.386 . S
H2113 C2129 0.930 . S
H2114 C2130 0.931 . S
C2115 H2103 0.929 . S
C2115 C2109 1.395 1_455 S
C2115 C2112 1.386 . S
C2116 C2111 1.491 . S
C2116 C2118 1.395 . S
C2116 C2119 1.403 1_655 S
H2117 C2123 0.930 . S
C2118 H2104 0.930 . S
C2118 C2116 1.395 . S
C2118 C2121 1.403 . S
C2119 C2116 1.403 1_455 S
C2119 C2120 1.524 . S
C2119 C2123 1.400 . S
C2120 H2105 0.960 . S
C2120 H2106 0.960 1_455 S
C2120 H2107 0.960 . S
C2120 C2119 1.524 . S
C2121 C2118 1.403 . S
C2121 C2122 1.392 . S
C2121 C2125 1.495 . S
C2122 C2121 1.392 . S
C2122 C2123 1.385 1_655 S
C2122 C2124 1.479 . S
C2123 H2117 0.930 . S
C2123 C2119 1.400 . S
C2123 C2122 1.385 1_455 S
C2124 C2122 1.479 . S
C2124 C2126 1.416 . S
C2124 C2130 1.347 1_655 S
C2125 C2121 1.495 . S
C2125 H2131 0.959 . S
C2125 H2132 0.961 1_655 S
C2125 H2133 0.960 . S
C2126 C2124 1.416 . S
C2126 C2127 1.394 . S
C2126 H2134 0.930 . S
C2127 C2126 1.394 . S
C2127 C2128 1.388 1_655 S
C2127 H2135 0.929 . S
C2128 C2127 1.388 1_455 S
C2128 C2129 1.372 . S
C2129 H2113 0.930 . S
C2129 C2128 1.372 . S
C2129 C2130 1.379 . S
C2130 H2114 0.931 . S
C2130 C2124 1.347 1_455 S
C2130 C2129 1.379 . S
H2131 C2125 0.959 . S
H2132 C2125 0.961 1_455 S
H2133 C2125 0.960 . S
H2134 C2126 0.930 . S
H2135 C2127 0.929 . S
H2136 C2144 0.929 . S
H2137 C2146 0.930 . S
H2138 C2148 0.930 . S
H2139 C2151 0.929 . S
H2140 C2154 0.930 . S
H2141 C2156 0.960 . S
H2142 C2156 0.960 . S
H2143 C2156 0.960 . S
C2144 H2136 0.929 . S
C2144 C2145 1.384 . S
C2144 C2146 1.384 . S
C2145 C2144 1.384 . S
C2145 C2151 1.384 1_545 S
C2146 H2137 0.930 . S
C2146 C2144 1.384 . S
C2146 C2147 1.384 . S
C2147 C2146 1.384 . S
C2147 C2148 1.389 1_545 S
C2147 C2152 1.490 . S
C2148 H2138 0.930 . S
C2148 C2147 1.389 1_565 S
C2148 C2151 1.386 . S
H2149 C2165 0.930 . S
H2150 C2166 0.931 . S
C2151 H2139 0.929 . S
C2151 C2145 1.384 1_565 S
C2151 C2148 1.386 . S
C2152 C2147 1.490 . S
C2152 C2154 1.390 1_545 S
C2152 C2155 1.407 . S
H2153 C2159 0.930 . S
C2154 H2140 0.930 . S
C2154 C2152 1.390 1_565 S
C2154 C2157 1.403 . S
C2155 C2152 1.407 . S
C2155 C2156 1.524 . S
C2155 C2159 1.400 . S
C2156 H2141 0.960 . S
C2156 H2142 0.960 . S
C2156 H2143 0.960 . S
C2156 C2155 1.524 . S
C2157 C2154 1.403 . S
C2157 C2158 1.392 . S
C2157 C2161 1.495 . S
C2158 C2157 1.392 . S
C2158 C2159 1.385 1_565 S
C2158 C2160 1.478 . S
C2159 H2153 0.930 . S
C2159 C2155 1.400 . S
C2159 C2158 1.385 1_545 S
C2160 C2158 1.478 . S
C2160 C2162 1.381 1_565 S
C2160 C2166 1.383 . S
C2161 C2157 1.495 . S
C2161 H2167 0.959 . S
C2161 H2168 0.961 . S
C2161 H2169 0.960 . S
C2162 C2160 1.381 1_545 S
C2162 C2163 1.394 . S
C2162 H2170 0.930 . S
C2163 C2162 1.394 . S
C2163 C2164 1.365 1_545 S
C2163 H2171 0.929 . S
C2164 C2163 1.365 1_565 S
C2164 C2165 1.399 . S
C2165 H2149 0.930 . S
C2165 C2164 1.399 . S
C2165 C2166 1.379 . S
C2166 H2150 0.931 . S
C2166 C2160 1.383 . S
C2166 C2165 1.379 . S
H2167 C2161 0.959 . S
H2168 C2161 0.961 . S
H2169 C2161 0.960 . S
H2170 C2162 0.930 . S
H2171 C2163 0.929 . S
H2172 C2180 0.929 . S
H2173 C2182 0.930 . S
H2174 C2184 0.930 . S
H2175 C2187 0.929 . S
H2176 C2190 0.930 . S
H2177 C2192 0.960 . S
H2178 C2192 0.960 . S
H2179 C2192 0.960 . S
C2180 H2172 0.929 . S
C2180 C2181 1.371 1_655 S
C2180 C2182 1.384 . S
C2181 C2180 1.371 1_455 S
C2181 C2187 1.396 . S
C2182 H2173 0.930 . S
C2182 C2180 1.384 . S
C2182 C2183 1.389 . S
C2183 C2182 1.389 . S
C2183 C2184 1.382 1_655 S
C2183 C2188 1.491 . S
C2184 H2174 0.930 . S
C2184 C2183 1.382 1_455 S
C2184 C2187 1.386 . S
H2185 C2201 0.930 . S
H2186 C2202 0.931 . S
C2187 H2175 0.929 . S
C2187 C2181 1.396 . S
C2187 C2184 1.386 . S
C2188 C2183 1.491 . S
C2188 C2190 1.395 . S
C2188 C2191 1.403 1_655 S
H2189 C2195 0.930 . S
C2190 H2176 0.930 . S
C2190 C2188 1.395 . S
C2190 C2193 1.403 . S
C2191 C2188 1.403 1_455 S
C2191 C2192 1.524 . S
C2191 C2195 1.400 . S
C2192 H2177 0.960 . S
C2192 H2178 0.960 . S
C2192 H2179 0.960 . S
C2192 C2191 1.524 . S
C2193 C2190 1.403 . S
C2193 C2194 1.392 . S
C2193 C2197 1.495 . S
C2194 C2193 1.392 . S
C2194 C2195 1.385 1_655 S
C2194 C2196 1.478 . S
C2195 H2189 0.930 . S
C2195 C2191 1.400 . S
C2195 C2194 1.385 1_455 S
C2196 C2194 1.478 . S
C2196 C2198 1.381 . S
C2196 C2202 1.383 1_655 S
C2197 C2193 1.495 . S
C2197 H2203 0.959 . S
C2197 H2204 0.961 . S
C2197 H2205 0.960 . S
C2198 C2196 1.381 . S
C2198 C2199 1.394 . S
C2198 H2206 0.930 . S
C2199 C2198 1.394 . S
C2199 C2200 1.383 . S
C2199 H2207 0.929 . S
C2200 C2199 1.383 . S
C2200 C2201 1.377 1_655 S
C2201 H2185 0.930 . S
C2201 C2200 1.377 1_455 S
C2201 C2202 1.379 . S
C2202 H2186 0.931 . S
C2202 C2196 1.383 1_455 S
C2202 C2201 1.379 . S
H2203 C2197 0.959 . S
H2204 C2197 0.961 . S
H2205 C2197 0.960 . S
H2206 C2198 0.930 . S
H2207 C2199 0.929 . S
H2208 C2216 0.929 . S
H2209 C2218 0.930 . S
H2210 C2220 0.930 . S
H2211 C2223 0.929 . S
H2212 C2226 0.932 . S
H2213 C2228 0.960 . S
H2214 C2228 0.960 . S
H2215 C2228 0.960 1_565 S
C2216 H2208 0.929 . S
C2216 C2217 1.395 . S
C2216 C2218 1.384 . S
C2217 C2216 1.395 . S
C2217 C2223 1.373 1_545 S
C2218 H2209 0.930 . S
C2218 C2216 1.384 . S
C2218 C2219 1.372 . S
C2219 C2218 1.372 . S
C2219 C2220 1.400 1_545 S
C2219 C2224 1.490 . S
C2220 H2210 0.930 . S
C2220 C2219 1.400 1_565 S
C2220 C2223 1.386 . S
H2221 C2237 0.930 . S
H2222 C2238 0.931 . S
C2223 H2211 0.929 . S
C2223 C2217 1.373 1_565 S
C2223 C2220 1.386 . S
C2224 C2219 1.490 . S
C2224 C2226 1.396 . S
C2224 C2227 1.403 . S
H2225 C2231 0.932 . S
C2226 H2212 0.932 . S
C2226 C2224 1.396 . S
C2226 C2229 1.403 . S
C2227 C2224 1.403 . S
C2227 C2228 1.524 . S
C2227 C2231 1.400 . S
C2228 H2213 0.960 . S
C2228 H2214 0.960 . S
C2228 H2215 0.960 1_545 S
C2228 C2227 1.524 . S
C2229 C2226 1.403 . S
C2229 C2230 1.392 . S
C2229 C2233 1.495 . S
C2230 C2229 1.392 . S
C2230 C2231 1.386 . S
C2230 C2232 1.477 . S
C2231 H2225 0.932 . S
C2231 C2227 1.400 . S
C2231 C2230 1.386 . S
C2232 C2230 1.477 . S
C2232 C2234 1.384 . S
C2232 C2238 1.379 1_545 S
C2233 C2229 1.495 . S
C2233 H2239 0.959 . S
C2233 H2240 0.961 1_545 S
C2233 H2241 0.959 . S
C2234 C2232 1.384 . S
C2234 C2235 1.394 . S
C2234 H2242 0.930 . S
C2235 C2234 1.394 . S
C2235 C2236 1.378 . S
C2235 H2243 0.929 . S
C2236 C2235 1.378 . S
C2236 C2237 1.382 1_545 S
C2237 H2221 0.930 . S
C2237 C2236 1.382 1_565 S
C2237 C2238 1.379 . S
C2238 H2222 0.931 . S
C2238 C2232 1.379 1_565 S
C2238 C2237 1.379 . S
H2239 C2233 0.959 . S
H2240 C2233 0.961 1_565 S
H2241 C2233 0.959 . S
H2242 C2234 0.930 . S
H2243 C2235 0.929 . S
H2244 C2252 0.929 . S
H2245 C2254 0.930 . S
H2246 C2256 0.930 . S
H2247 C2259 0.929 . S
H2248 C2262 0.930 . S
H2249 C2264 0.960 . S
H2250 C2264 0.960 . S
H2251 C2264 0.960 . S
C2252 H2244 0.929 . S
C2252 C2253 1.378 . S
C2252 C2254 1.384 . S
C2253 C2252 1.378 . S
C2253 C2259 1.389 1_455 S
C2254 H2245 0.930 . S
C2254 C2252 1.384 . S
C2254 C2255 1.390 . S
C2255 C2254 1.390 . S
C2255 C2256 1.382 1_455 S
C2255 C2260 1.492 . S
C2256 H2246 0.930 . S
C2256 C2255 1.382 1_655 S
C2256 C2259 1.386 . S
H2257 C2273 0.930 . S
H2258 C2274 0.931 . S
C2259 H2247 0.929 . S
C2259 C2253 1.389 1_655 S
C2259 C2256 1.386 . S
C2260 C2255 1.492 . S
C2260 C2262 1.395 . S
C2260 C2263 1.403 1_455 S
H2261 C2267 0.930 . S
C2262 H2248 0.930 . S
C2262 C2260 1.395 . S
C2262 C2265 1.403 . S
C2263 C2260 1.403 1_655 S
C2263 C2264 1.524 . S
C2263 C2267 1.400 . S
C2264 H2249 0.960 . S
C2264 H2250 0.960 . S
C2264 H2251 0.960 . S
C2264 C2263 1.524 . S
C2265 C2262 1.403 . S
C2265 C2266 1.392 . S
C2265 C2269 1.495 . S
C2266 C2265 1.392 . S
C2266 C2267 1.385 1_455 S
C2266 C2268 1.478 . S
C2267 H2261 0.930 . S
C2267 C2263 1.400 . S
C2267 C2266 1.385 1_655 S
C2268 C2266 1.478 . S
C2268 C2270 1.381 . S
C2268 C2274 1.383 1_455 S
C2269 C2265 1.495 . S
C2269 H2275 0.959 . S
C2269 H2276 0.961 . S
C2269 H2277 0.960 . S
C2270 C2268 1.381 . S
C2270 C2271 1.394 . S
C2270 H2278 0.930 . S
C2271 C2270 1.394 . S
C2271 C2272 1.383 . S
C2271 H2279 0.929 . S
C2272 C2271 1.383 . S
C2272 C2273 1.377 1_455 S
C2273 H2257 0.930 . S
C2273 C2272 1.377 1_655 S
C2273 C2274 1.379 . S
C2274 H2258 0.931 . S
C2274 C2268 1.383 1_655 S
C2274 C2273 1.379 . S
H2275 C2269 0.959 . S
H2276 C2269 0.961 . S
H2277 C2269 0.960 . S
H2278 C2270 0.930 . S
H2279 C2271 0.929 . S
H2280 C2288 0.929 . S
H2281 C2290 0.930 . S
H2282 C2292 0.930 . S
H2283 C2295 0.929 . S
H2284 C2298 0.930 . S
H2285 C2300 0.960 . S
H2286 C2300 0.960 1_545 S
H2287 C2300 0.960 . S
C2288 H2280 0.929 . S
C2288 C2289 1.394 . S
C2288 C2290 1.384 . S
C2289 C2288 1.394 . S
C2289 C2295 1.374 1_545 S
C2290 H2281 0.930 . S
C2290 C2288 1.384 . S
C2290 C2291 1.372 . S
C2291 C2290 1.372 . S
C2291 C2292 1.400 1_545 S
C2291 C2296 1.490 . S
C2292 H2282 0.930 . S
C2292 C2291 1.400 1_565 S
C2292 C2295 1.386 . S
H2293 C2309 0.930 . S
H2294 C2310 0.931 . S
C2295 H2283 0.929 . S
C2295 C2289 1.374 1_565 S
C2295 C2292 1.386 . S
C2296 C2291 1.490 . S
C2296 C2298 1.395 . S
C2296 C2299 1.403 1_545 S
H2297 C2303 0.930 . S
C2298 H2284 0.930 . S
C2298 C2296 1.395 . S
C2298 C2301 1.403 . S
C2299 C2296 1.403 1_565 S
C2299 C2300 1.524 . S
C2299 C2303 1.400 . S
C2300 H2285 0.960 . S
C2300 H2286 0.960 1_565 S
C2300 H2287 0.960 . S
C2300 C2299 1.524 . S
C2301 C2298 1.403 . S
C2301 C2302 1.392 . S
C2301 C2305 1.495 . S
C2302 C2301 1.392 . S
C2302 C2303 1.385 1_545 S
C2302 C2304 1.478 . S
C2303 H2297 0.930 . S
C2303 C2299 1.400 . S
C2303 C2302 1.385 1_565 S
C2304 C2302 1.478 . S
C2304 C2306 1.381 . S
C2304 C2310 1.383 1_545 S
C2305 C2301 1.495 . S
C2305 H2311 0.959 . S
C2305 H2312 0.938 1_545 S
C2305 H2313 0.960 . S
C2306 C2304 1.381 . S
C2306 C2307 1.394 . S
C2306 H2314 0.930 . S
C2307 C2306 1.394 . S
C2307 C2308 1.400 . S
C2307 H2315 0.929 . S
C2308 C2307 1.400 . S
C2308 C2309 1.361 1_545 S
C2309 H2293 0.930 . S
C2309 C2308 1.361 1_565 S
C2309 C2310 1.379 . S
C2310 H2294 0.931 . S
C2310 C2304 1.383 1_565 S
C2310 C2309 1.379 . S
H2311 C2305 0.959 . S
H2312 C2305 0.938 1_565 S
H2313 C2305 0.960 . S
H2314 C2306 0.930 . S
H2315 C2307 0.929 . S
H2316 C2324 0.929 . S
H2317 C2326 0.930 . S
H2318 C2328 0.930 . S
H2319 C2331 0.929 . S
H2320 C2334 0.930 . S
H2321 C2336 0.965 . S
H2322 C2336 0.920 1_545 S
H2323 C2336 0.998 . S
C2324 H2316 0.929 . S
C2324 C2325 1.394 . S
C2324 C2326 1.384 . S
C2325 C2324 1.394 . S
C2325 C2331 1.373 1_545 S
C2326 H2317 0.930 . S
C2326 C2324 1.384 . S
C2326 C2327 1.372 . S
C2327 C2326 1.372 . S
C2327 C2328 1.400 1_545 S
C2327 C2332 1.490 . S
C2328 H2318 0.930 . S
C2328 C2327 1.400 1_565 S
C2328 C2331 1.386 . S
H2329 C2345 0.930 . S
H2330 C2346 0.931 . S
C2331 H2319 0.929 . S
C2331 C2325 1.373 1_565 S
C2331 C2328 1.386 . S
C2332 C2327 1.490 . S
C2332 C2334 1.395 . S
C2332 C2335 1.403 1_545 S
H2333 C2339 0.932 . S
C2334 H2320 0.930 . S
C2334 C2332 1.395 . S
C2334 C2337 1.403 . S
C2335 C2332 1.403 1_565 S
C2335 C2336 1.523 . S
C2335 C2339 1.400 . S
C2336 H2321 0.965 . S
C2336 H2322 0.920 1_565 S
C2336 H2323 0.998 . S
C2336 C2335 1.523 . S
C2337 C2334 1.403 . S
C2337 C2338 1.392 . S
C2337 C2341 1.495 . S
C2338 C2337 1.392 . S
C2338 C2339 1.384 1_545 S
C2338 C2340 1.478 . S
C2339 H2333 0.932 . S
C2339 C2335 1.400 . S
C2339 C2338 1.384 1_565 S
C2340 C2338 1.478 . S
C2340 C2342 1.404 . S
C2340 C2346 1.360 1_545 S
C2341 C2337 1.495 . S
C2341 H2347 0.959 . S
C2341 H2348 0.961 1_545 S
C2341 H2349 0.960 . S
C2342 C2340 1.404 . S
C2342 C2343 1.394 . S
C2342 H2350 0.930 . S
C2343 C2342 1.394 . S
C2343 C2344 1.383 . S
C2343 H2351 0.929 . S
C2344 C2343 1.383 . S
C2344 C2345 1.377 1_545 S
C2345 H2329 0.930 . S
C2345 C2344 1.377 1_565 S
C2345 C2346 1.379 . S
C2346 H2330 0.931 . S
C2346 C2340 1.360 1_565 S
C2346 C2345 1.379 . S
H2347 C2341 0.959 . S
H2348 C2341 0.961 1_565 S
H2349 C2341 0.960 . S
H2350 C2342 0.930 . S
H2351 C2343 0.929 . S
H2352 C2360 0.929 . S
H2353 C2362 0.930 . S
H2354 C2364 0.930 . S
H2355 C2367 0.929 . S
H2356 C2370 0.930 . S
H2357 C2372 0.960 . S
H2358 C2372 0.960 . S
H2359 C2372 0.960 . S
C2360 H2352 0.929 . S
C2360 C2361 1.381 . S
C2360 C2362 1.384 . S
C2361 C2360 1.381 . S
C2361 C2367 1.386 1_455 S
C2362 H2353 0.930 . S
C2362 C2360 1.384 . S
C2362 C2363 1.401 . S
C2363 C2362 1.401 . S
C2363 C2364 1.370 1_455 S
C2363 C2368 1.492 . S
C2364 H2354 0.930 . S
C2364 C2363 1.370 1_655 S
C2364 C2367 1.386 . S
H2365 C2381 0.930 . S
H2366 C2382 0.931 . S
C2367 H2355 0.929 . S
C2367 C2361 1.386 1_655 S
C2367 C2364 1.386 . S
C2368 C2363 1.492 . S
C2368 C2370 1.395 . S
C2368 C2371 1.403 1_455 S
H2369 C2375 0.930 . S
C2370 H2356 0.930 . S
C2370 C2368 1.395 . S
C2370 C2373 1.403 . S
C2371 C2368 1.403 1_655 S
C2371 C2372 1.524 . S
C2371 C2375 1.400 . S
C2372 H2357 0.960 . S
C2372 H2358 0.960 . S
C2372 H2359 0.960 . S
C2372 C2371 1.524 . S
C2373 C2370 1.403 . S
C2373 C2374 1.392 . S
C2373 C2377 1.495 . S
C2374 C2373 1.392 . S
C2374 C2375 1.385 1_455 S
C2374 C2376 1.478 . S
C2375 H2369 0.930 . S
C2375 C2371 1.400 . S
C2375 C2374 1.385 1_655 S
C2376 C2374 1.478 . S
C2376 C2378 1.381 . S
C2376 C2382 1.383 1_455 S
C2377 C2373 1.495 . S
C2377 H2383 0.959 . S
C2377 H2384 0.961 . S
C2377 H2385 0.960 . S
C2378 C2376 1.381 . S
C2378 C2379 1.394 . S
C2378 H2386 0.930 . S
C2379 C2378 1.394 . S
C2379 C2380 1.383 . S
C2379 H2387 0.929 . S
C2380 C2379 1.383 . S
C2380 C2381 1.377 1_455 S
C2381 H2365 0.930 . S
C2381 C2380 1.377 1_655 S
C2381 C2382 1.379 . S
C2382 H2366 0.931 . S
C2382 C2376 1.383 1_655 S
C2382 C2381 1.379 . S
H2383 C2377 0.959 . S
H2384 C2377 0.961 . S
H2385 C2377 0.960 . S
H2386 C2378 0.930 . S
H2387 C2379 0.929 . S
H2388 C2396 0.929 . S
H2389 C2398 0.930 . S
H2390 C2400 0.930 . S
H2391 C2403 0.929 . S
H2392 C2406 0.930 . S
H2393 C2408 0.960 . S
H2394 C2408 0.960 . S
H2395 C2408 0.960 . S
C2396 H2388 0.929 . S
C2396 C2397 1.379 . S
C2396 C2398 1.384 . S
C2397 C2396 1.379 . S
C2397 C2403 1.389 1_565 S
C2398 H2389 0.930 . S
C2398 C2396 1.384 . S
C2398 C2399 1.378 . S
C2399 C2398 1.378 . S
C2399 C2400 1.394 1_565 S
C2399 C2404 1.490 1_565 S
C2400 H2390 0.930 . S
C2400 C2399 1.394 1_545 S
C2400 C2403 1.386 . S
H2401 C2417 0.930 . S
H2402 C2418 0.931 . S
C2403 H2391 0.929 . S
C2403 C2397 1.389 1_545 S
C2403 C2400 1.386 . S
C2404 C2399 1.490 1_545 S
C2404 C2406 1.393 . S
C2404 C2407 1.404 1_545 S
H2405 C2411 0.930 . S
C2406 H2392 0.930 . S
C2406 C2404 1.393 . S
C2406 C2409 1.403 . S
C2407 C2404 1.404 1_565 S
C2407 C2408 1.524 . S
C2407 C2411 1.400 . S
C2408 H2393 0.960 . S
C2408 H2394 0.960 . S
C2408 H2395 0.960 . S
C2408 C2407 1.524 . S
C2409 C2406 1.403 . S
C2409 C2410 1.392 . S
C2409 C2413 1.495 . S
C2410 C2409 1.392 . S
C2410 C2411 1.385 1_545 S
C2410 C2412 1.478 . S
C2411 H2405 0.930 . S
C2411 C2407 1.400 . S
C2411 C2410 1.385 1_565 S
C2412 C2410 1.478 . S
C2412 C2414 1.381 1_545 S
C2412 C2418 1.383 . S
C2413 C2409 1.495 . S
C2413 H2419 0.959 . S
C2413 H2420 0.961 . S
C2413 H2421 0.960 . S
C2414 C2412 1.381 1_565 S
C2414 C2415 1.394 . S
C2414 H2422 0.930 . S
C2415 C2414 1.394 . S
C2415 C2416 1.383 1_565 S
C2415 H2423 0.929 . S
C2416 C2415 1.383 1_545 S
C2416 C2417 1.377 . S
C2417 H2401 0.930 . S
C2417 C2416 1.377 . S
C2417 C2418 1.379 . S
C2418 H2402 0.931 . S
C2418 C2412 1.383 . S
C2418 C2417 1.379 . S
H2419 C2413 0.959 . S
H2420 C2413 0.961 . S
H2421 C2413 0.960 . S
H2422 C2414 0.930 . S
H2423 C2415 0.929 . S
H2424 C2432 0.929 . S
H2425 C2434 0.930 . S
H2426 C2436 0.930 . S
H2427 C2439 0.929 . S
H2428 C2442 0.930 . S
H2429 C2444 0.960 . S
H2430 C2444 0.960 . S
H2431 C2444 0.960 . S
C2432 H2424 0.929 . S
C2432 C2433 1.397 . S
C2432 C2434 1.384 . S
C2433 C2432 1.397 . S
C2433 C2439 1.370 1_455 S
C2434 H2425 0.930 . S
C2434 C2432 1.384 . S
C2434 C2435 1.372 . S
C2435 C2434 1.372 . S
C2435 C2436 1.400 1_455 S
C2435 C2440 1.490 . S
C2436 H2426 0.930 . S
C2436 C2435 1.400 1_655 S
C2436 C2439 1.386 . S
H2437 C2453 0.930 . S
H2438 C2454 0.931 . S
C2439 H2427 0.929 . S
C2439 C2433 1.370 1_655 S
C2439 C2436 1.386 . S
C2440 C2435 1.490 . S
C2440 C2442 1.395 . S
C2440 C2443 1.403 1_455 S
H2441 C2447 0.930 . S
C2442 H2428 0.930 . S
C2442 C2440 1.395 . S
C2442 C2445 1.403 . S
C2443 C2440 1.403 1_655 S
C2443 C2444 1.524 . S
C2443 C2447 1.400 . S
C2444 H2429 0.960 . S
C2444 H2430 0.960 . S
C2444 H2431 0.960 . S
C2444 C2443 1.524 . S
C2445 C2442 1.403 . S
C2445 C2446 1.392 . S
C2445 C2449 1.495 . S
C2446 C2445 1.392 . S
C2446 C2447 1.385 1_455 S
C2446 C2448 1.478 . S
C2447 H2441 0.930 . S
C2447 C2443 1.400 . S
C2447 C2446 1.385 1_655 S
C2448 C2446 1.478 . S
C2448 C2450 1.381 . S
C2448 C2454 1.383 1_455 S
C2449 C2445 1.495 . S
C2449 H2455 0.959 . S
C2449 H2456 0.961 . S
C2449 H2457 0.960 . S
C2450 C2448 1.381 . S
C2450 C2451 1.394 . S
C2450 H2458 0.930 . S
C2451 C2450 1.394 . S
C2451 C2452 1.433 . S
C2451 H2459 0.929 . S
C2452 C2451 1.433 . S
C2452 C2453 1.330 1_455 S
C2453 H2437 0.930 . S
C2453 C2452 1.330 1_655 S
C2453 C2454 1.379 . S
C2454 H2438 0.931 . S
C2454 C2448 1.383 1_655 S
C2454 C2453 1.379 . S
H2455 C2449 0.959 . S
H2456 C2449 0.961 . S
H2457 C2449 0.960 . S
H2458 C2450 0.930 . S
H2459 C2451 0.929 . S
H2460 C2468 0.929 . S
H2461 C2470 0.930 . S
H2462 C2472 0.930 . S
H2463 C2475 0.929 . S
H2464 C2478 0.930 . S
H2465 C2480 0.960 . S
H2466 C2480 0.960 . S
H2467 C2480 0.960 . S
C2468 H2460 0.929 . S
C2468 C2469 1.387 . S
C2468 C2470 1.384 . S
C2469 C2468 1.387 . S
C2469 C2475 1.380 1_545 S
C2470 H2461 0.930 . S
C2470 C2468 1.384 . S
C2470 C2471 1.372 . S
C2471 C2470 1.372 . S
C2471 C2472 1.400 1_545 S
C2471 C2476 1.490 . S
C2472 H2462 0.930 . S
C2472 C2471 1.400 1_565 S
C2472 C2475 1.386 . S
H2473 C2489 0.930 . S
H2474 C2490 0.931 . S
C2475 H2463 0.929 . S
C2475 C2469 1.380 1_565 S
C2475 C2472 1.386 . S
C2476 C2471 1.490 . S
C2476 C2478 1.395 . S
C2476 C2479 1.403 1_545 S
H2477 C2483 0.930 . S
C2478 H2464 0.930 . S
C2478 C2476 1.395 . S
C2478 C2481 1.403 . S
C2479 C2476 1.403 1_565 S
C2479 C2480 1.524 . S
C2479 C2483 1.400 . S
C2480 H2465 0.960 . S
C2480 H2466 0.960 . S
C2480 H2467 0.960 . S
C2480 C2479 1.524 . S
C2481 C2478 1.403 . S
C2481 C2482 1.392 . S
C2481 C2485 1.495 . S
C2482 C2481 1.392 . S
C2482 C2483 1.385 1_545 S
C2482 C2484 1.478 . S
C2483 H2477 0.930 . S
C2483 C2479 1.400 . S
C2483 C2482 1.385 1_565 S
C2484 C2482 1.478 . S
C2484 C2486 1.381 . S
C2484 C2490 1.383 1_545 S
C2485 C2481 1.495 . S
C2485 H2491 0.959 . S
C2485 H2492 0.961 . S
C2485 H2493 0.960 . S
C2486 C2484 1.381 . S
C2486 C2487 1.394 . S
C2486 H2494 0.930 . S
C2487 C2486 1.394 . S
C2487 C2488 1.432 . S
C2487 H2495 0.929 . S
C2488 C2487 1.432 . S
C2488 C2489 1.332 1_545 S
C2489 H2473 0.930 . S
C2489 C2488 1.332 1_565 S
C2489 C2490 1.379 . S
C2490 H2474 0.931 . S
C2490 C2484 1.383 1_565 S
C2490 C2489 1.379 . S
H2491 C2485 0.959 . S
H2492 C2485 0.961 . S
H2493 C2485 0.960 . S
H2494 C2486 0.930 . S
H2495 C2487 0.929 . S
H2496 C2504 0.929 . S
H2497 C2506 0.930 . S
H2498 C2508 0.930 . S
H2499 C2511 0.929 . S
H2500 C2514 0.930 . S
H2501 C2516 0.959 1_455 S
H2502 C2516 0.978 . S
H2503 C2516 0.944 1_455 S
C2504 H2496 0.929 . S
C2504 C2505 1.374 . S
C2504 C2506 1.384 . S
C2505 C2504 1.374 . S
C2505 C2511 1.393 1_655 S
C2506 H2497 0.930 . S
C2506 C2504 1.384 . S
C2506 C2507 1.408 . S
C2507 C2506 1.408 . S
C2507 C2508 1.363 1_655 S
C2507 C2512 1.490 . S
C2508 H2498 0.930 . S
C2508 C2507 1.363 1_455 S
C2508 C2511 1.386 . S
H2509 C2525 0.930 . S
H2510 C2526 0.931 . S
C2511 H2499 0.929 . S
C2511 C2505 1.393 1_455 S
C2511 C2508 1.386 . S
C2512 C2507 1.490 . S
C2512 C2514 1.397 . S
C2512 C2515 1.402 . S
H2513 C2519 0.929 . S
C2514 H2500 0.930 . S
C2514 C2512 1.397 . S
C2514 C2517 1.403 . S
C2515 C2512 1.402 . S
C2515 C2516 1.524 . S
C2515 C2519 1.400 1_655 S
C2516 H2501 0.959 1_655 S
C2516 H2502 0.978 . S
C2516 H2503 0.944 1_655 S
C2516 C2515 1.524 . S
C2517 C2514 1.403 . S
C2517 C2518 1.394 . S
C2517 C2521 1.495 . S
C2518 C2517 1.394 . S
C2518 C2519 1.384 1_655 S
C2518 C2520 1.477 1_655 S
C2519 H2513 0.929 . S
C2519 C2515 1.400 1_455 S
C2519 C2518 1.384 1_455 S
C2520 C2518 1.477 1_455 S
C2520 C2522 1.384 1_455 S
C2520 C2526 1.380 . S
C2521 C2517 1.495 . S
C2521 H2527 0.959 . S
C2521 H2528 0.961 1_655 S
C2521 H2529 0.960 . S
C2522 C2520 1.384 1_655 S
C2522 C2523 1.394 . S
C2522 H2530 0.930 . S
C2523 C2522 1.394 . S
C2523 C2524 1.369 1_655 S
C2523 H2531 0.929 . S
C2524 C2523 1.369 1_455 S
C2524 C2525 1.391 . S
C2525 H2509 0.930 . S
C2525 C2524 1.391 . S
C2525 C2526 1.379 . S
C2526 H2510 0.931 . S
C2526 C2520 1.380 . S
C2526 C2525 1.379 . S
H2527 C2521 0.959 . S
H2528 C2521 0.961 1_455 S
H2529 C2521 0.960 . S
H2530 C2522 0.930 . S
H2531 C2523 0.929 . S
H2532 C2540 0.929 . S
H2533 C2542 0.930 . S
H2534 C2544 0.930 . S
H2535 C2547 0.929 . S
H2536 C2550 0.930 . S
H2537 C2552 0.960 . S
H2538 C2552 0.960 . S
H2539 C2552 0.960 1_565 S
C2540 H2532 0.929 . S
C2540 C2541 1.393 . S
C2540 C2542 1.384 . S
C2541 C2540 1.393 . S
C2541 C2547 1.374 1_545 S
C2542 H2533 0.930 . S
C2542 C2540 1.384 . S
C2542 C2543 1.372 . S
C2543 C2542 1.372 . S
C2543 C2544 1.400 1_545 S
C2543 C2548 1.490 . S
C2544 H2534 0.930 . S
C2544 C2543 1.400 1_565 S
C2544 C2547 1.386 . S
H2545 C2561 0.930 . S
H2546 C2562 0.931 . S
C2547 H2535 0.929 . S
C2547 C2541 1.374 1_565 S
C2547 C2544 1.386 . S
C2548 C2543 1.490 . S
C2548 C2550 1.395 . S
C2548 C2551 1.403 . S
H2549 C2555 0.930 . S
C2550 H2536 0.930 . S
C2550 C2548 1.395 . S
C2550 C2553 1.405 . S
C2551 C2548 1.403 . S
C2551 C2552 1.524 . S
C2551 C2555 1.402 . S
C2552 H2537 0.960 . S
C2552 H2538 0.960 . S
C2552 H2539 0.960 1_545 S
C2552 C2551 1.524 . S
C2553 C2550 1.405 . S
C2553 C2554 1.392 . S
C2553 C2557 1.495 . S
C2554 C2553 1.392 . S
C2554 C2555 1.385 . S
C2554 C2556 1.477 . S
C2555 H2549 0.930 . S
C2555 C2551 1.402 . S
C2555 C2554 1.385 . S
C2556 C2554 1.477 . S
C2556 C2558 1.382 . S
C2556 C2562 1.381 1_545 S
C2557 C2553 1.495 . S
C2557 H2563 0.959 . S
C2557 H2564 0.953 1_545 S
C2557 H2565 0.968 . S
C2558 C2556 1.382 . S
C2558 C2559 1.394 . S
C2558 H2566 0.930 . S
C2559 C2558 1.394 . S
C2559 C2560 1.386 1_545 S
C2559 H2567 0.929 . S
C2560 C2559 1.386 1_565 S
C2560 C2561 1.374 . S
C2561 H2545 0.930 . S
C2561 C2560 1.374 . S
C2561 C2562 1.379 . S
C2562 H2546 0.931 . S
C2562 C2556 1.381 1_565 S
C2562 C2561 1.379 . S
H2563 C2557 0.959 . S
H2564 C2557 0.953 1_565 S
H2565 C2557 0.968 . S
H2566 C2558 0.930 . S
H2567 C2559 0.929 . S
H2568 C2576 0.929 . S
H2569 C2578 0.930 . S
H2570 C2580 0.930 . S
H2571 C2583 0.929 . S
H2572 C2586 0.930 . S
H2573 C2588 0.962 . S
H2574 C2588 0.960 . S
H2575 C2588 0.960 1_655 S
C2576 H2568 0.929 . S
C2576 C2577 1.401 . S
C2576 C2578 1.384 . S
C2577 C2576 1.401 . S
C2577 C2583 1.367 1_455 S
C2578 H2569 0.930 . S
C2578 C2576 1.384 . S
C2578 C2579 1.372 . S
C2579 C2578 1.372 . S
C2579 C2580 1.400 1_455 S
C2579 C2584 1.490 . S
C2580 H2570 0.930 . S
C2580 C2579 1.400 1_655 S
C2580 C2583 1.386 . S
H2581 C2597 0.930 . S
H2582 C2598 0.931 . S
C2583 H2571 0.929 . S
C2583 C2577 1.367 1_655 S
C2583 C2580 1.386 . S
C2584 C2579 1.490 . S
C2584 C2586 1.395 . S
C2584 C2587 1.405 . S
H2585 C2591 0.929 1_655 S
C2586 H2572 0.930 . S
C2586 C2584 1.395 . S
C2586 C2589 1.403 . S
C2587 C2584 1.405 . S
C2587 C2588 1.525 . S
C2587 C2591 1.400 . S
C2588 H2573 0.962 . S
C2588 H2574 0.960 . S
C2588 H2575 0.960 1_455 S
C2588 C2587 1.525 . S
C2589 C2586 1.403 . S
C2589 C2590 1.396 . S
C2589 C2593 1.495 . S
C2590 C2589 1.396 . S
C2590 C2591 1.385 . S
C2590 C2592 1.477 . S
C2591 H2585 0.929 1_455 S
C2591 C2587 1.400 . S
C2591 C2590 1.385 . S
C2592 C2590 1.477 . S
C2592 C2594 1.401 . S
C2592 C2598 1.363 1_455 S
C2593 C2589 1.495 . S
C2593 H2599 0.959 . S
C2593 H2600 0.961 1_455 S
C2593 H2601 0.960 . S
C2594 C2592 1.401 . S
C2594 C2595 1.394 . S
C2594 H2602 0.930 . S
C2595 C2594 1.394 . S
C2595 C2596 1.388 . S
C2595 H2603 0.929 . S
C2596 C2595 1.388 . S
C2596 C2597 1.372 1_455 S
C2597 H2581 0.930 . S
C2597 C2596 1.372 1_655 S
C2597 C2598 1.379 . S
C2598 H2582 0.931 . S
C2598 C2592 1.363 1_655 S
C2598 C2597 1.379 . S
H2599 C2593 0.959 . S
H2600 C2593 0.961 1_655 S
H2601 C2593 0.960 . S
H2602 C2594 0.930 . S
H2603 C2595 0.929 . S
H2604 C2612 0.929 . S
H2605 C2614 0.930 . S
H2606 C2616 0.930 . S
H2607 C2619 0.929 . S
H2608 C2622 0.930 . S
H2609 C2624 0.960 . S
H2610 C2624 0.960 . S
H2611 C2624 0.960 . S
C2612 H2604 0.929 . S
C2612 C2613 1.379 . S
C2612 C2614 1.384 . S
C2613 C2612 1.379 . S
C2613 C2619 1.388 1_554 S
C2614 H2605 0.930 . S
C2614 C2612 1.384 . S
C2614 C2615 1.375 . S
C2615 C2614 1.375 . S
C2615 C2616 1.397 1_554 S
C2615 C2620 1.491 . S
C2616 H2606 0.930 . S
C2616 C2615 1.397 1_556 S
C2616 C2619 1.386 . S
H2617 C2633 0.934 . S
H2618 C2634 0.931 . S
C2619 H2607 0.929 . S
C2619 C2613 1.388 1_556 S
C2619 C2616 1.386 . S
C2620 C2615 1.491 . S
C2620 C2622 1.395 . S
C2620 C2623 1.403 1_554 S
H2621 C2627 0.930 . S
C2622 H2608 0.930 . S
C2622 C2620 1.395 . S
C2622 C2625 1.403 . S
C2623 C2620 1.403 1_556 S
C2623 C2624 1.524 . S
C2623 C2627 1.400 . S
C2624 H2609 0.960 . S
C2624 H2610 0.960 . S
C2624 H2611 0.960 . S
C2624 C2623 1.524 . S
C2625 C2622 1.403 . S
C2625 C2626 1.392 . S
C2625 C2629 1.495 . S
C2626 C2625 1.392 . S
C2626 C2627 1.385 1_554 S
C2626 C2628 1.478 . S
C2627 H2621 0.930 . S
C2627 C2623 1.400 . S
C2627 C2626 1.385 1_556 S
C2628 C2626 1.478 . S
C2628 C2630 1.381 . S
C2628 C2634 1.383 . S
C2629 C2625 1.495 . S
C2629 H2635 0.959 . S
C2629 H2636 0.961 . S
C2629 H2637 0.960 . S
C2630 C2628 1.381 . S
C2630 C2631 1.394 . S
C2630 H2638 0.930 . S
C2631 C2630 1.394 . S
C2631 C2632 1.383 . S
C2631 H2639 0.929 . S
C2632 C2631 1.383 . S
C2632 C2633 1.377 . S
C2633 H2617 0.934 . S
C2633 C2632 1.377 . S
C2633 C2634 1.379 . S
C2634 H2618 0.931 . S
C2634 C2628 1.383 . S
C2634 C2633 1.379 . S
H2635 C2629 0.959 . S
H2636 C2629 0.961 . S
H2637 C2629 0.960 . S
H2638 C2630 0.930 . S
H2639 C2631 0.929 . S
H2640 C2648 0.929 . S
H2641 C2650 0.930 . S
H2642 C2652 0.930 . S
H2643 C2655 0.929 . S
H2644 C2658 0.930 . S
H2645 C2660 0.960 . S
H2646 C2660 0.960 . S
H2647 C2660 0.960 1_554 S
C2648 H2640 0.929 . S
C2648 C2649 1.375 1_556 S
C2648 C2650 1.384 . S
C2649 C2648 1.375 1_554 S
C2649 C2655 1.392 . S
C2650 H2641 0.930 . S
C2650 C2648 1.384 . S
C2650 C2651 1.389 . S
C2651 C2650 1.389 . S
C2651 C2652 1.382 1_556 S
C2651 C2656 1.490 . S
C2652 H2642 0.930 . S
C2652 C2651 1.382 1_554 S
C2652 C2655 1.386 . S
H2653 C2669 0.930 . S
H2654 C2670 0.931 . S
C2655 H2643 0.929 . S
C2655 C2649 1.392 . S
C2655 C2652 1.386 . S
C2656 C2651 1.490 . S
C2656 C2658 1.392 1_556 S
C2656 C2659 1.406 . S
H2657 C2663 0.930 . S
C2658 H2644 0.930 . S
C2658 C2656 1.392 1_554 S
C2658 C2661 1.403 . S
C2659 C2656 1.406 . S
C2659 C2660 1.524 . S
C2659 C2663 1.400 . S
C2660 H2645 0.960 . S
C2660 H2646 0.960 . S
C2660 H2647 0.960 1_556 S
C2660 C2659 1.524 . S
C2661 C2658 1.403 . S
C2661 C2662 1.399 . S
C2661 C2665 1.495 . S
C2662 C2661 1.399 . S
C2662 C2663 1.379 1_554 S
C2662 C2664 1.479 . S
C2663 H2657 0.930 . S
C2663 C2659 1.400 . S
C2663 C2662 1.379 1_556 S
C2664 C2662 1.479 . S
C2664 C2666 1.381 1_554 S
C2664 C2670 1.383 . S
C2665 C2661 1.495 . S
C2665 H2671 0.959 . S
C2665 H2672 0.961 . S
C2665 H2673 0.960 1_554 S
C2666 C2664 1.381 1_556 S
C2666 C2667 1.394 . S
C2666 H2674 0.930 . S
C2667 C2666 1.394 . S
C2667 C2668 1.348 1_556 S
C2667 H2675 0.929 . S
C2668 C2667 1.348 1_554 S
C2668 C2669 1.414 . S
C2669 H2653 0.930 . S
C2669 C2668 1.414 . S
C2669 C2670 1.379 . S
C2670 H2654 0.931 . S
C2670 C2664 1.383 . S
C2670 C2669 1.379 . S
H2671 C2665 0.959 . S
H2672 C2665 0.961 . S
H2673 C2665 0.960 1_556 S
H2674 C2666 0.930 . S
H2675 C2667 0.929 . S
H2676 C2684 0.929 . S
H2677 C2686 0.930 . S
H2678 C2688 0.930 . S
H2679 C2691 0.929 . S
H2680 C2694 0.930 . S
H2681 C2696 0.960 . S
H2682 C2696 0.960 . S
H2683 C2696 0.960 1_554 S
C2684 H2676 0.929 . S
C2684 C2685 1.372 1_556 S
C2684 C2686 1.384 . S
C2685 C2684 1.372 1_554 S
C2685 C2691 1.395 . S
C2686 H2677 0.930 . S
C2686 C2684 1.384 . S
C2686 C2687 1.389 . S
C2687 C2686 1.389 . S
C2687 C2688 1.383 1_556 S
C2687 C2692 1.490 . S
C2688 H2678 0.930 . S
C2688 C2687 1.383 1_554 S
C2688 C2691 1.386 . S
H2689 C2705 0.930 . S
H2690 C2706 0.931 . S
C2691 H2679 0.929 . S
C2691 C2685 1.395 . S
C2691 C2688 1.386 . S
C2692 C2687 1.490 . S
C2692 C2694 1.393 1_556 S
C2692 C2695 1.405 . S
H2693 C2699 0.930 . S
C2694 H2680 0.930 . S
C2694 C2692 1.393 1_554 S
C2694 C2697 1.403 . S
C2695 C2692 1.405 . S
C2695 C2696 1.524 . S
C2695 C2699 1.400 . S
C2696 H2681 0.960 . S
C2696 H2682 0.960 . S
C2696 H2683 0.960 1_556 S
C2696 C2695 1.524 . S
C2697 C2694 1.403 . S
C2697 C2698 1.395 . S
C2697 C2701 1.495 . S
C2698 C2697 1.395 . S
C2698 C2699 1.382 1_554 S
C2698 C2700 1.477 . S
C2699 H2693 0.930 . S
C2699 C2695 1.400 . S
C2699 C2698 1.382 1_556 S
C2700 C2698 1.477 . S
C2700 C2702 1.336 1_554 S
C2700 C2706 1.429 . S
C2701 C2697 1.495 . S
C2701 H2707 0.959 . S
C2701 H2708 0.961 . S
C2701 H2709 0.960 1_554 S
C2702 C2700 1.336 1_556 S
C2702 C2703 1.394 . S
C2702 H2710 0.930 . S
C2703 C2702 1.394 . S
C2703 C2704 1.344 1_556 S
C2703 H2711 0.929 . S
C2704 C2703 1.344 1_554 S
C2704 C2705 1.416 . S
C2705 H2689 0.930 . S
C2705 C2704 1.416 . S
C2705 C2706 1.379 . S
C2706 H2690 0.931 . S
C2706 C2700 1.429 . S
C2706 C2705 1.379 . S
H2707 C2701 0.959 . S
H2708 C2701 0.961 . S
H2709 C2701 0.960 1_556 S
H2710 C2702 0.930 . S
H2711 C2703 0.929 . S
H2712 C2720 0.929 . S
H2713 C2722 0.930 . S
H2714 C2724 0.930 . S
H2715 C2727 0.929 . S
H2716 C2730 0.930 . S
H2717 C2732 0.960 . S
H2718 C2732 0.960 . S
H2719 C2732 0.960 . S
C2720 H2712 0.929 . S
C2720 C2721 1.368 1_556 S
C2720 C2722 1.384 . S
C2721 C2720 1.368 1_554 S
C2721 C2727 1.399 . S
C2722 H2713 0.930 . S
C2722 C2720 1.384 . S
C2722 C2723 1.403 . S
C2723 C2722 1.403 . S
C2723 C2724 1.368 1_556 S
C2723 C2728 1.490 . S
C2724 H2714 0.930 . S
C2724 C2723 1.368 1_554 S
C2724 C2727 1.386 . S
H2725 C2741 0.930 . S
H2726 C2742 0.931 . S
C2727 H2715 0.929 . S
C2727 C2721 1.399 . S
C2727 C2724 1.386 . S
C2728 C2723 1.490 . S
C2728 C2730 1.417 . S
C2728 C2731 1.384 1_556 S
H2729 C2735 0.930 . S
C2730 H2716 0.930 . S
C2730 C2728 1.417 . S
C2730 C2733 1.403 . S
C2731 C2728 1.384 1_554 S
C2731 C2732 1.524 . S
C2731 C2735 1.400 . S
C2732 H2717 0.960 . S
C2732 H2718 0.960 . S
C2732 H2719 0.960 . S
C2732 C2731 1.524 . S
C2733 C2730 1.403 . S
C2733 C2734 1.392 . S
C2733 C2737 1.495 . S
C2734 C2733 1.392 . S
C2734 C2735 1.385 1_556 S
C2734 C2736 1.478 . S
C2735 H2729 0.930 . S
C2735 C2731 1.400 . S
C2735 C2734 1.385 1_554 S
C2736 C2734 1.478 . S
C2736 C2738 1.381 . S
C2736 C2742 1.383 1_556 S
C2737 C2733 1.495 . S
C2737 H2743 0.959 . S
C2737 H2744 0.961 . S
C2737 H2745 0.960 . S
C2738 C2736 1.381 . S
C2738 C2739 1.394 . S
C2738 H2746 0.930 . S
C2739 C2738 1.394 . S
C2739 C2740 1.381 . S
C2739 H2747 0.929 . S
C2740 C2739 1.381 . S
C2740 C2741 1.379 1_556 S
C2741 H2725 0.930 . S
C2741 C2740 1.379 1_554 S
C2741 C2742 1.379 . S
C2742 H2726 0.931 . S
C2742 C2736 1.383 1_554 S
C2742 C2741 1.379 . S
H2743 C2737 0.959 . S
H2744 C2737 0.961 . S
H2745 C2737 0.960 . S
H2746 C2738 0.930 . S
H2747 C2739 0.929 . S
H2748 C2756 0.929 . S
H2749 C2758 0.930 . S
H2750 C2760 0.930 . S
H2751 C2763 0.929 . S
H2752 C2766 0.930 . S
H2753 C2768 0.960 . S
H2754 C2768 0.960 . S
H2755 C2768 0.960 . S
C2756 H2748 0.929 . S
C2756 C2757 1.389 . S
C2756 C2758 1.384 . S
C2757 C2756 1.389 . S
C2757 C2763 1.378 1_554 S
C2758 H2749 0.930 . S
C2758 C2756 1.384 . S
C2758 C2759 1.405 . S
C2759 C2758 1.405 . S
C2759 C2760 1.368 1_554 S
C2759 C2764 1.493 . S
C2760 H2750 0.930 . S
C2760 C2759 1.368 1_556 S
C2760 C2763 1.386 . S
H2761 C2777 0.930 . S
H2762 C2778 0.931 . S
C2763 H2751 0.929 . S
C2763 C2757 1.378 1_556 S
C2763 C2760 1.386 . S
C2764 C2759 1.493 . S
C2764 C2766 1.395 . S
C2764 C2767 1.403 1_554 S
H2765 C2771 0.930 . S
C2766 H2752 0.930 . S
C2766 C2764 1.395 . S
C2766 C2769 1.403 . S
C2767 C2764 1.403 1_556 S
C2767 C2768 1.524 . S
C2767 C2771 1.400 . S
C2768 H2753 0.960 . S
C2768 H2754 0.960 . S
C2768 H2755 0.960 . S
C2768 C2767 1.524 . S
C2769 C2766 1.403 . S
C2769 C2770 1.392 . S
C2769 C2773 1.495 . S
C2770 C2769 1.392 . S
C2770 C2771 1.385 1_554 S
C2770 C2772 1.478 . S
C2771 H2765 0.930 . S
C2771 C2767 1.400 . S
C2771 C2770 1.385 1_556 S
C2772 C2770 1.478 . S
C2772 C2774 1.381 . S
C2772 C2778 1.383 1_554 S
C2773 C2769 1.495 . S
C2773 H2779 0.959 . S
C2773 H2780 0.961 . S
C2773 H2781 0.960 . S
C2774 C2772 1.381 . S
C2774 C2775 1.394 . S
C2774 H2782 0.930 . S
C2775 C2774 1.394 . S
C2775 C2776 1.383 . S
C2775 H2783 0.929 . S
C2776 C2775 1.383 . S
C2776 C2777 1.377 1_554 S
C2777 H2761 0.930 . S
C2777 C2776 1.377 1_556 S
C2777 C2778 1.379 . S
C2778 H2762 0.931 . S
C2778 C2772 1.383 1_556 S
C2778 C2777 1.379 . S
H2779 C2773 0.959 . S
H2780 C2773 0.961 . S
H2781 C2773 0.960 . S
H2782 C2774 0.930 . S
H2783 C2775 0.929 . S
H2784 C2792 0.929 . S
H2785 C2794 0.930 . S
H2786 C2796 0.930 . S
H2787 C2799 0.929 . S
H2788 C2802 0.930 . S
H2789 C2804 0.960 . S
H2790 C2804 0.960 . S
H2791 C2804 0.960 1_556 S
C2792 H2784 0.929 . S
C2792 C2793 1.409 . S
C2792 C2794 1.384 . S
C2793 C2792 1.409 . S
C2793 C2799 1.360 1_554 S
C2794 H2785 0.930 . S
C2794 C2792 1.384 . S
C2794 C2795 1.372 . S
C2795 C2794 1.372 . S
C2795 C2796 1.400 1_554 S
C2795 C2800 1.490 . S
C2796 H2786 0.930 . S
C2796 C2795 1.400 1_556 S
C2796 C2799 1.386 . S
H2797 C2813 0.930 . S
H2798 C2814 0.931 . S
C2799 H2787 0.929 . S
C2799 C2793 1.360 1_556 S
C2799 C2796 1.386 . S
C2800 C2795 1.490 . S
C2800 C2802 1.395 1_554 S
C2800 C2803 1.403 . S
H2801 C2807 0.930 . S
C2802 H2788 0.930 . S
C2802 C2800 1.395 1_556 S
C2802 C2805 1.403 . S
C2803 C2800 1.403 . S
C2803 C2804 1.524 . S
C2803 C2807 1.400 . S
C2804 H2789 0.960 . S
C2804 H2790 0.960 . S
C2804 H2791 0.960 1_554 S
C2804 C2803 1.524 . S
C2805 C2802 1.403 . S
C2805 C2806 1.390 1_556 S
C2805 C2809 1.495 . S
C2806 C2805 1.390 1_554 S
C2806 C2807 1.389 . S
C2806 C2808 1.477 1_554 S
C2807 H2801 0.930 . S
C2807 C2803 1.400 . S
C2807 C2806 1.389 . S
C2808 C2806 1.477 1_556 S
C2808 C2810 1.383 1_556 S
C2808 C2814 1.381 . S
C2809 C2805 1.495 . S
C2809 H2815 0.959 . S
C2809 H2816 0.961 . S
C2809 H2817 0.960 1_556 S
C2810 C2808 1.383 1_554 S
C2810 C2811 1.394 . S
C2810 H2818 0.930 . S
C2811 C2810 1.394 . S
C2811 C2812 1.382 . S
C2811 H2819 0.929 . S
C2812 C2811 1.382 . S
C2812 C2813 1.378 1_554 S
C2813 H2797 0.930 . S
C2813 C2812 1.378 1_556 S
C2813 C2814 1.379 . S
C2814 H2798 0.931 . S
C2814 C2808 1.381 . S
C2814 C2813 1.379 . S
H2815 C2809 0.959 . S
H2816 C2809 0.961 . S
H2817 C2809 0.960 1_554 S
H2818 C2810 0.930 . S
H2819 C2811 0.929 . S
H2820 C2828 0.929 . S
H2821 C2830 0.930 . S
H2822 C2832 0.930 . S
H2823 C2835 0.929 . S
H2824 C2838 0.929 1_556 S
H2825 C2840 0.960 . S
H2826 C2840 0.960 . S
H2827 C2840 0.960 1_556 S
C2828 H2820 0.929 . S
C2828 C2829 1.412 . S
C2828 C2830 1.384 . S
C2829 C2828 1.412 . S
C2829 C2835 1.356 1_554 S
C2830 H2821 0.930 . S
C2830 C2828 1.384 . S
C2830 C2831 1.372 . S
C2831 C2830 1.372 . S
C2831 C2832 1.400 1_554 S
C2831 C2836 1.490 . S
C2832 H2822 0.930 . S
C2832 C2831 1.400 1_556 S
C2832 C2835 1.386 . S
H2833 C2849 0.930 . S
H2834 C2850 0.931 . S
C2835 H2823 0.929 . S
C2835 C2829 1.356 1_556 S
C2835 C2832 1.386 . S
C2836 C2831 1.490 . S
C2836 C2838 1.395 . S
C2836 C2839 1.403 . S
H2837 C2843 0.930 . S
C2838 H2824 0.929 1_554 S
C2838 C2836 1.395 . S
C2838 C2841 1.403 1_554 S
C2839 C2836 1.403 . S
C2839 C2840 1.524 . S
C2839 C2843 1.400 . S
C2840 H2825 0.960 . S
C2840 H2826 0.960 . S
C2840 H2827 0.960 1_554 S
C2840 C2839 1.524 . S
C2841 C2838 1.403 1_556 S
C2841 C2842 1.391 1_556 S
C2841 C2845 1.496 . S
C2842 C2841 1.391 1_554 S
C2842 C2843 1.389 . S
C2842 C2844 1.477 . S
C2843 H2837 0.930 . S
C2843 C2839 1.400 . S
C2843 C2842 1.389 . S
C2844 C2842 1.477 . S
C2844 C2846 1.391 . S
C2844 C2850 1.373 1_554 S
C2845 C2841 1.496 . S
C2845 H2851 0.959 . S
C2845 H2852 0.961 . S
C2845 H2853 0.960 1_556 S
C2846 C2844 1.391 . S
C2846 C2847 1.394 . S
C2846 H2854 0.930 . S
C2847 C2846 1.394 . S
C2847 C2848 1.394 . S
C2847 H2855 0.929 . S
C2848 C2847 1.394 . S
C2848 C2849 1.366 1_554 S
C2849 H2833 0.930 . S
C2849 C2848 1.366 1_556 S
C2849 C2850 1.379 . S
C2850 H2834 0.931 . S
C2850 C2844 1.373 1_556 S
C2850 C2849 1.379 . S
H2851 C2845 0.959 . S
H2852 C2845 0.961 . S
H2853 C2845 0.960 1_554 S
H2854 C2846 0.930 . S
H2855 C2847 0.929 . S
H2856 C2864 0.929 . S
H2857 C2866 0.930 . S
H2858 C2868 0.930 . S
H2859 C2871 0.929 . S
H2860 C2874 0.930 . S
H2861 C2876 0.960 . S
H2862 C2876 0.960 . S
H2863 C2876 0.960 1_554 S
C2864 H2856 0.929 . S
C2864 C2865 1.372 1_556 S
C2864 C2866 1.384 . S
C2865 C2864 1.372 1_554 S
C2865 C2871 1.395 . S
C2866 H2857 0.930 . S
C2866 C2864 1.384 . S
C2866 C2867 1.389 . S
C2867 C2866 1.389 . S
C2867 C2868 1.382 1_556 S
C2867 C2872 1.490 . S
C2868 H2858 0.930 . S
C2868 C2867 1.382 1_554 S
C2868 C2871 1.386 . S
H2869 C2885 0.930 . S
H2870 C2886 0.931 . S
C2871 H2859 0.929 . S
C2871 C2865 1.395 . S
C2871 C2868 1.386 . S
C2872 C2867 1.490 . S
C2872 C2874 1.393 1_556 S
C2872 C2875 1.405 . S
H2873 C2879 0.930 . S
C2874 H2860 0.930 . S
C2874 C2872 1.393 1_554 S
C2874 C2877 1.403 . S
C2875 C2872 1.405 . S
C2875 C2876 1.524 . S
C2875 C2879 1.400 . S
C2876 H2861 0.960 . S
C2876 H2862 0.960 . S
C2876 H2863 0.960 1_556 S
C2876 C2875 1.524 . S
C2877 C2874 1.403 . S
C2877 C2878 1.395 . S
C2877 C2881 1.495 . S
C2878 C2877 1.395 . S
C2878 C2879 1.382 1_554 S
C2878 C2880 1.477 . S
C2879 H2873 0.930 . S
C2879 C2875 1.400 . S
C2879 C2878 1.382 1_556 S
C2880 C2878 1.477 . S
C2880 C2882 1.336 1_554 S
C2880 C2886 1.428 . S
C2881 C2877 1.495 . S
C2881 H2887 0.959 . S
C2881 H2888 0.961 . S
C2881 H2889 0.960 1_554 S
C2882 C2880 1.336 1_556 S
C2882 C2883 1.394 . S
C2882 H2890 0.930 . S
C2883 C2882 1.394 . S
C2883 C2884 1.344 1_556 S
C2883 H2891 0.929 . S
C2884 C2883 1.344 1_554 S
C2884 C2885 1.416 . S
C2885 H2869 0.930 . S
C2885 C2884 1.416 . S
C2885 C2886 1.379 . S
C2886 H2870 0.931 . S
C2886 C2880 1.428 . S
C2886 C2885 1.379 . S
H2887 C2881 0.959 . S
H2888 C2881 0.961 . S
H2889 C2881 0.960 1_556 S
H2890 C2882 0.930 . S
H2891 C2883 0.929 . S
H2892 C2900 0.929 . S
H2893 C2902 0.930 . S
H2894 C2904 0.930 . S
H2895 C2907 0.929 . S
H2896 C2910 0.930 . S
H2897 C2912 0.960 . S
H2898 C2912 0.960 . S
H2899 C2912 0.960 . S
C2900 H2892 0.929 . S
C2900 C2901 1.377 . S
C2900 C2902 1.384 . S
C2901 C2900 1.377 . S
C2901 C2907 1.390 . S
C2902 H2893 0.930 . S
C2902 C2900 1.384 . S
C2902 C2903 1.372 . S
C2903 C2902 1.372 . S
C2903 C2904 1.400 . S
C2903 C2908 1.490 . S
C2904 H2894 0.930 . S
C2904 C2903 1.400 . S
C2904 C2907 1.386 . S
H2905 C2921 0.930 . S
H2906 C2922 0.931 . S
C2907 H2895 0.929 . S
C2907 C2901 1.390 . S
C2907 C2904 1.386 . S
C2908 C2903 1.490 . S
C2908 C2910 1.395 . S
C2908 C2911 1.403 . S
H2909 C2915 0.930 . S
C2910 H2896 0.930 . S
C2910 C2908 1.395 . S
C2910 C2913 1.403 . S
C2911 C2908 1.403 . S
C2911 C2912 1.524 . S
C2911 C2915 1.400 . S
C2912 H2897 0.960 . S
C2912 H2898 0.960 . S
C2912 H2899 0.960 . S
C2912 C2911 1.524 . S
C2913 C2910 1.403 . S
C2913 C2914 1.392 . S
C2913 C2917 1.495 . S
C2914 C2913 1.392 . S
C2914 C2915 1.385 . S
C2914 C2916 1.478 . S
C2915 H2909 0.930 . S
C2915 C2911 1.400 . S
C2915 C2914 1.385 . S
C2916 C2914 1.478 . S
C2916 C2918 1.381 . S
C2916 C2922 1.383 . S
C2917 C2913 1.495 . S
C2917 H2923 0.959 . S
C2917 H2924 0.961 . S
C2917 H2925 0.960 . S
C2918 C2916 1.381 . S
C2918 C2919 1.394 . S
C2918 H2926 0.930 . S
C2919 C2918 1.394 . S
C2919 C2920 1.383 . S
C2919 H2927 0.929 . S
C2920 C2919 1.383 . S
C2920 C2921 1.377 . S
C2921 H2905 0.930 . S
C2921 C2920 1.377 . S
C2921 C2922 1.379 . S
C2922 H2906 0.931 . S
C2922 C2916 1.383 . S
C2922 C2921 1.379 . S
H2923 C2917 0.959 . S
H2924 C2917 0.961 . S
H2925 C2917 0.960 . S
H2926 C2918 0.930 . S
H2927 C2919 0.929 . S
H2928 C2936 0.929 . S
H2929 C2938 0.930 . S
H2930 C2940 0.930 . S
H2931 C2943 0.929 . S
H2932 C2946 0.930 . S
H2933 C2948 0.960 . S
H2934 C2948 0.960 . S
H2935 C2948 0.960 . S
C2936 H2928 0.929 . S
C2936 C2937 1.377 . S
C2936 C2938 1.384 . S
C2937 C2936 1.377 . S
C2937 C2943 1.390 . S
C2938 H2929 0.930 . S
C2938 C2936 1.384 . S
C2938 C2939 1.372 . S
C2939 C2938 1.372 . S
C2939 C2940 1.400 . S
C2939 C2944 1.490 . S
C2940 H2930 0.930 . S
C2940 C2939 1.400 . S
C2940 C2943 1.386 . S
H2941 C2957 0.930 . S
H2942 C2958 0.931 . S
C2943 H2931 0.929 . S
C2943 C2937 1.390 . S
C2943 C2940 1.386 . S
C2944 C2939 1.490 . S
C2944 C2946 1.395 . S
C2944 C2947 1.403 . S
H2945 C2951 0.930 . S
C2946 H2932 0.930 . S
C2946 C2944 1.395 . S
C2946 C2949 1.403 . S
C2947 C2944 1.403 . S
C2947 C2948 1.524 . S
C2947 C2951 1.400 . S
C2948 H2933 0.960 . S
C2948 H2934 0.960 . S
C2948 H2935 0.960 . S
C2948 C2947 1.524 . S
C2949 C2946 1.403 . S
C2949 C2950 1.392 . S
C2949 C2953 1.495 . S
C2950 C2949 1.392 . S
C2950 C2951 1.385 . S
C2950 C2952 1.478 . S
C2951 H2945 0.930 . S
C2951 C2947 1.400 . S
C2951 C2950 1.385 . S
C2952 C2950 1.478 . S
C2952 C2954 1.381 . S
C2952 C2958 1.383 . S
C2953 C2949 1.495 . S
C2953 H2959 0.959 . S
C2953 H2960 0.961 . S
C2953 H2961 0.960 . S
C2954 C2952 1.381 . S
C2954 C2955 1.394 . S
C2954 H2962 0.930 . S
C2955 C2954 1.394 . S
C2955 C2956 1.383 . S
C2955 H2963 0.929 . S
C2956 C2955 1.383 . S
C2956 C2957 1.377 . S
C2957 H2941 0.930 . S
C2957 C2956 1.377 . S
C2957 C2958 1.379 . S
C2958 H2942 0.931 . S
C2958 C2952 1.383 . S
C2958 C2957 1.379 . S
H2959 C2953 0.959 . S
H2960 C2953 0.961 . S
H2961 C2953 0.960 . S
H2962 C2954 0.930 . S
H2963 C2955 0.929 . S
H2964 C2972 0.929 . S
H2965 C2974 0.930 . S
H2966 C2976 0.930 . S
H2967 C2979 0.929 . S
H2968 C2982 0.930 . S
H2969 C2984 0.960 . S
H2970 C2984 0.960 . S
H2971 C2984 0.960 . S
C2972 H2964 0.929 . S
C2972 C2973 1.377 . S
C2972 C2974 1.384 . S
C2973 C2972 1.377 . S
C2973 C2979 1.390 . S
C2974 H2965 0.930 . S
C2974 C2972 1.384 . S
C2974 C2975 1.372 . S
C2975 C2974 1.372 . S
C2975 C2976 1.400 . S
C2975 C2980 1.490 . S
C2976 H2966 0.930 . S
C2976 C2975 1.400 . S
C2976 C2979 1.386 . S
H2977 C2993 0.930 . S
H2978 C2994 0.931 . S
C2979 H2967 0.929 . S
C2979 C2973 1.390 . S
C2979 C2976 1.386 . S
C2980 C2975 1.490 . S
C2980 C2982 1.395 . S
C2980 C2983 1.403 . S
H2981 C2987 0.930 . S
C2982 H2968 0.930 . S
C2982 C2980 1.395 . S
C2982 C2985 1.403 . S
C2983 C2980 1.403 . S
C2983 C2984 1.524 . S
C2983 C2987 1.400 . S
C2984 H2969 0.960 . S
C2984 H2970 0.960 . S
C2984 H2971 0.960 . S
C2984 C2983 1.524 . S
C2985 C2982 1.403 . S
C2985 C2986 1.392 . S
C2985 C2989 1.495 . S
C2986 C2985 1.392 . S
C2986 C2987 1.385 . S
C2986 C2988 1.478 . S
C2987 H2981 0.930 . S
C2987 C2983 1.400 . S
C2987 C2986 1.385 . S
C2988 C2986 1.478 . S
C2988 C2990 1.381 . S
C2988 C2994 1.383 . S
C2989 C2985 1.495 . S
C2989 H2995 0.959 . S
C2989 H2996 0.961 . S
C2989 H2997 0.960 . S
C2990 C2988 1.381 . S
C2990 C2991 1.394 . S
C2990 H2998 0.930 . S
C2991 C2990 1.394 . S
C2991 C2992 1.383 . S
C2991 H2999 0.929 . S
C2992 C2991 1.383 . S
C2992 C2993 1.377 . S
C2993 H2977 0.930 . S
C2993 C2992 1.377 . S
C2993 C2994 1.379 . S
C2994 H2978 0.931 . S
C2994 C2988 1.383 . S
C2994 C2993 1.379 . S
H2995 C2989 0.959 . S
H2996 C2989 0.961 . S
H2997 C2989 0.960 . S
H2998 C2990 0.930 . S
H2999 C2991 0.929 . S
H3000 C3008 0.929 . S
H3001 C3010 0.930 . S
H3002 C3012 0.930 . S
H3003 C3015 0.929 . S
H3004 C3018 0.930 . S
H3005 C3020 0.960 . S
H3006 C3020 0.960 . S
H3007 C3020 0.960 . S
C3008 H3000 0.929 . S
C3008 C3009 1.377 . S
C3008 C3010 1.384 . S
C3009 C3008 1.377 . S
C3009 C3015 1.390 . S
C3010 H3001 0.930 . S
C3010 C3008 1.384 . S
C3010 C3011 1.372 . S
C3011 C3010 1.372 . S
C3011 C3012 1.400 . S
C3011 C3016 1.490 . S
C3012 H3002 0.930 . S
C3012 C3011 1.400 . S
C3012 C3015 1.386 . S
H3013 C3029 0.930 . S
H3014 C3030 0.931 . S
C3015 H3003 0.929 . S
C3015 C3009 1.390 . S
C3015 C3012 1.386 . S
C3016 C3011 1.490 . S
C3016 C3018 1.395 . S
C3016 C3019 1.403 . S
H3017 C3023 0.930 . S
C3018 H3004 0.930 . S
C3018 C3016 1.395 . S
C3018 C3021 1.403 . S
C3019 C3016 1.403 . S
C3019 C3020 1.524 . S
C3019 C3023 1.400 . S
C3020 H3005 0.960 . S
C3020 H3006 0.960 . S
C3020 H3007 0.960 . S
C3020 C3019 1.524 . S
C3021 C3018 1.403 . S
C3021 C3022 1.392 . S
C3021 C3025 1.495 . S
C3022 C3021 1.392 . S
C3022 C3023 1.385 . S
C3022 C3024 1.478 . S
C3023 H3017 0.930 . S
C3023 C3019 1.400 . S
C3023 C3022 1.385 . S
C3024 C3022 1.478 . S
C3024 C3026 1.381 . S
C3024 C3030 1.383 . S
C3025 C3021 1.495 . S
C3025 H3031 0.959 . S
C3025 H3032 0.961 . S
C3025 H3033 0.960 . S
C3026 C3024 1.381 . S
C3026 C3027 1.394 . S
C3026 H3034 0.930 . S
C3027 C3026 1.394 . S
C3027 C3028 1.383 . S
C3027 H3035 0.929 . S
C3028 C3027 1.383 . S
C3028 C3029 1.377 . S
C3029 H3013 0.930 . S
C3029 C3028 1.377 . S
C3029 C3030 1.379 . S
C3030 H3014 0.931 . S
C3030 C3024 1.383 . S
C3030 C3029 1.379 . S
H3031 C3025 0.959 . S
H3032 C3025 0.961 . S
H3033 C3025 0.960 . S
H3034 C3026 0.930 . S
H3035 C3027 0.929 . S
H3036 C3044 0.929 . S
H3037 C3046 0.930 . S
H3038 C3048 0.930 . S
H3039 C3051 0.929 . S
H3040 C3054 0.930 . S
H3041 C3056 0.960 . S
H3042 C3056 0.960 . S
H3043 C3056 0.960 . S
C3044 H3036 0.929 . S
C3044 C3045 1.377 . S
C3044 C3046 1.384 . S
C3045 C3044 1.377 . S
C3045 C3051 1.390 . S
C3046 H3037 0.930 . S
C3046 C3044 1.384 . S
C3046 C3047 1.372 . S
C3047 C3046 1.372 . S
C3047 C3048 1.400 . S
C3047 C3052 1.490 . S
C3048 H3038 0.930 . S
C3048 C3047 1.400 . S
C3048 C3051 1.386 . S
H3049 C3065 0.930 . S
H3050 C3066 0.931 . S
C3051 H3039 0.929 . S
C3051 C3045 1.390 . S
C3051 C3048 1.386 . S
C3052 C3047 1.490 . S
C3052 C3054 1.395 . S
C3052 C3055 1.403 . S
H3053 C3059 0.930 . S
C3054 H3040 0.930 . S
C3054 C3052 1.395 . S
C3054 C3057 1.403 . S
C3055 C3052 1.403 . S
C3055 C3056 1.524 . S
C3055 C3059 1.400 . S
C3056 H3041 0.960 . S
C3056 H3042 0.960 . S
C3056 H3043 0.960 . S
C3056 C3055 1.524 . S
C3057 C3054 1.403 . S
C3057 C3058 1.392 . S
C3057 C3061 1.495 . S
C3058 C3057 1.392 . S
C3058 C3059 1.385 . S
C3058 C3060 1.478 . S
C3059 H3053 0.930 . S
C3059 C3055 1.400 . S
C3059 C3058 1.385 . S
C3060 C3058 1.478 . S
C3060 C3062 1.381 . S
C3060 C3066 1.383 . S
C3061 C3057 1.495 . S
C3061 H3067 0.959 . S
C3061 H3068 0.961 . S
C3061 H3069 0.960 . S
C3062 C3060 1.381 . S
C3062 C3063 1.394 . S
C3062 H3070 0.930 . S
C3063 C3062 1.394 . S
C3063 C3064 1.383 . S
C3063 H3071 0.929 . S
C3064 C3063 1.383 . S
C3064 C3065 1.377 . S
C3065 H3049 0.930 . S
C3065 C3064 1.377 . S
C3065 C3066 1.379 . S
C3066 H3050 0.931 . S
C3066 C3060 1.383 . S
C3066 C3065 1.379 . S
H3067 C3061 0.959 . S
H3068 C3061 0.961 . S
H3069 C3061 0.960 . S
H3070 C3062 0.930 . S
H3071 C3063 0.929 . S
H3072 C3080 0.929 . S
H3073 C3082 0.930 . S
H3074 C3084 0.930 . S
H3075 C3087 0.929 . S
H3076 C3090 0.930 . S
H3077 C3092 0.960 . S
H3078 C3092 0.960 . S
H3079 C3092 0.960 . S
C3080 H3072 0.929 . S
C3080 C3081 1.377 . S
C3080 C3082 1.384 . S
C3081 C3080 1.377 . S
C3081 C3087 1.390 . S
C3082 H3073 0.930 . S
C3082 C3080 1.384 . S
C3082 C3083 1.372 . S
C3083 C3082 1.372 . S
C3083 C3084 1.400 . S
C3083 C3088 1.490 . S
C3084 H3074 0.930 . S
C3084 C3083 1.400 . S
C3084 C3087 1.386 . S
H3085 C3101 0.930 . S
H3086 C3102 0.931 . S
C3087 H3075 0.929 . S
C3087 C3081 1.390 . S
C3087 C3084 1.386 . S
C3088 C3083 1.490 . S
C3088 C3090 1.395 . S
C3088 C3091 1.403 . S
H3089 C3095 0.930 . S
C3090 H3076 0.930 . S
C3090 C3088 1.395 . S
C3090 C3093 1.403 . S
C3091 C3088 1.403 . S
C3091 C3092 1.524 . S
C3091 C3095 1.400 . S
C3092 H3077 0.960 . S
C3092 H3078 0.960 . S
C3092 H3079 0.960 . S
C3092 C3091 1.524 . S
C3093 C3090 1.403 . S
C3093 C3094 1.392 . S
C3093 C3097 1.495 . S
C3094 C3093 1.392 . S
C3094 C3095 1.385 . S
C3094 C3096 1.478 . S
C3095 H3089 0.930 . S
C3095 C3091 1.400 . S
C3095 C3094 1.385 . S
C3096 C3094 1.478 . S
C3096 C3098 1.381 . S
C3096 C3102 1.383 . S
C3097 C3093 1.495 . S
C3097 H3103 0.959 . S
C3097 H3104 0.961 . S
C3097 H3105 0.960 . S
C3098 C3096 1.381 . S
C3098 C3099 1.394 . S
C3098 H3106 0.930 . S
C3099 C3098 1.394 . S
C3099 C3100 1.383 . S
C3099 H3107 0.929 . S
C3100 C3099 1.383 . S
C3100 C3101 1.377 . S
C3101 H3085 0.930 . S
C3101 C3100 1.377 . S
C3101 C3102 1.379 . S
C3102 H3086 0.931 . S
C3102 C3096 1.383 . S
C3102 C3101 1.379 . S
H3103 C3097 0.959 . S
H3104 C3097 0.961 . S
H3105 C3097 0.960 . S
H3106 C3098 0.930 . S
H3107 C3099 0.929 . S
H3108 C3116 0.929 . S
H3109 C3118 0.930 . S
H3110 C3120 0.930 . S
H3111 C3123 0.929 . S
H3112 C3126 0.930 . S
H3113 C3128 0.960 . S
H3114 C3128 0.960 . S
H3115 C3128 0.960 . S
C3116 H3108 0.929 . S
C3116 C3117 1.377 . S
C3116 C3118 1.384 . S
C3117 C3116 1.377 . S
C3117 C3123 1.390 . S
C3118 H3109 0.930 . S
C3118 C3116 1.384 . S
C3118 C3119 1.372 . S
C3119 C3118 1.372 . S
C3119 C3120 1.400 . S
C3119 C3124 1.490 . S
C3120 H3110 0.930 . S
C3120 C3119 1.400 . S
C3120 C3123 1.386 . S
H3121 C3137 0.930 . S
H3122 C3138 0.931 . S
C3123 H3111 0.929 . S
C3123 C3117 1.390 . S
C3123 C3120 1.386 . S
C3124 C3119 1.490 . S
C3124 C3126 1.395 . S
C3124 C3127 1.403 . S
H3125 C3131 0.930 . S
C3126 H3112 0.930 . S
C3126 C3124 1.395 . S
C3126 C3129 1.403 . S
C3127 C3124 1.403 . S
C3127 C3128 1.524 . S
C3127 C3131 1.400 . S
C3128 H3113 0.960 . S
C3128 H3114 0.960 . S
C3128 H3115 0.960 . S
C3128 C3127 1.524 . S
C3129 C3126 1.403 . S
C3129 C3130 1.392 . S
C3129 C3133 1.495 . S
C3130 C3129 1.392 . S
C3130 C3131 1.385 . S
C3130 C3132 1.478 . S
C3131 H3125 0.930 . S
C3131 C3127 1.400 . S
C3131 C3130 1.385 . S
C3132 C3130 1.478 . S
C3132 C3134 1.381 . S
C3132 C3138 1.383 . S
C3133 C3129 1.495 . S
C3133 H3139 0.959 . S
C3133 H3140 0.961 . S
C3133 H3141 0.960 . S
C3134 C3132 1.381 . S
C3134 C3135 1.394 . S
C3134 H3142 0.930 . S
C3135 C3134 1.394 . S
C3135 C3136 1.383 . S
C3135 H3143 0.929 . S
C3136 C3135 1.383 . S
C3136 C3137 1.377 . S
C3137 H3121 0.930 . S
C3137 C3136 1.377 . S
C3137 C3138 1.379 . S
C3138 H3122 0.931 . S
C3138 C3132 1.383 . S
C3138 C3137 1.379 . S
H3139 C3133 0.959 . S
H3140 C3133 0.961 . S
H3141 C3133 0.960 . S
H3142 C3134 0.930 . S
H3143 C3135 0.929 . S
H3144 C3152 0.929 . S
H3145 C3154 0.930 . S
H3146 C3156 0.930 . S
H3147 C3159 0.929 . S
H3148 C3162 0.930 . S
H3149 C3164 0.960 . S
H3150 C3164 0.960 . S
H3151 C3164 0.960 . S
C3152 H3144 0.929 . S
C3152 C3153 1.377 . S
C3152 C3154 1.384 . S
C3153 C3152 1.377 . S
C3153 C3159 1.390 . S
C3154 H3145 0.930 . S
C3154 C3152 1.384 . S
C3154 C3155 1.372 . S
C3155 C3154 1.372 . S
C3155 C3156 1.400 . S
C3155 C3160 1.490 . S
C3156 H3146 0.930 . S
C3156 C3155 1.400 . S
C3156 C3159 1.386 . S
H3157 C3173 0.930 . S
H3158 C3174 0.931 . S
C3159 H3147 0.929 . S
C3159 C3153 1.390 . S
C3159 C3156 1.386 . S
C3160 C3155 1.490 . S
C3160 C3162 1.395 . S
C3160 C3163 1.403 . S
H3161 C3167 0.930 . S
C3162 H3148 0.930 . S
C3162 C3160 1.395 . S
C3162 C3165 1.403 . S
C3163 C3160 1.403 . S
C3163 C3164 1.524 . S
C3163 C3167 1.400 . S
C3164 H3149 0.960 . S
C3164 H3150 0.960 . S
C3164 H3151 0.960 . S
C3164 C3163 1.524 . S
C3165 C3162 1.403 . S
C3165 C3166 1.392 . S
C3165 C3169 1.495 . S
C3166 C3165 1.392 . S
C3166 C3167 1.385 . S
C3166 C3168 1.478 . S
C3167 H3161 0.930 . S
C3167 C3163 1.400 . S
C3167 C3166 1.385 . S
C3168 C3166 1.478 . S
C3168 C3170 1.381 . S
C3168 C3174 1.383 . S
C3169 C3165 1.495 . S
C3169 H3175 0.959 . S
C3169 H3176 0.961 . S
C3169 H3177 0.960 . S
C3170 C3168 1.381 . S
C3170 C3171 1.394 . S
C3170 H3178 0.930 . S
C3171 C3170 1.394 . S
C3171 C3172 1.383 . S
C3171 H3179 0.929 . S
C3172 C3171 1.383 . S
C3172 C3173 1.377 . S
C3173 H3157 0.930 . S
C3173 C3172 1.377 . S
C3173 C3174 1.379 . S
C3174 H3158 0.931 . S
C3174 C3168 1.383 . S
C3174 C3173 1.379 . S
H3175 C3169 0.959 . S
H3176 C3169 0.961 . S
H3177 C3169 0.960 . S
H3178 C3170 0.930 . S
H3179 C3171 0.929 . S
H3180 C3188 0.929 . S
H3181 C3190 0.930 . S
H3182 C3192 0.930 . S
H3183 C3195 0.929 . S
H3184 C3198 0.930 . S
H3185 C3200 0.960 . S
H3186 C3200 0.960 . S
H3187 C3200 0.960 . S
C3188 H3180 0.929 . S
C3188 C3189 1.377 . S
C3188 C3190 1.384 . S
C3189 C3188 1.377 . S
C3189 C3195 1.390 . S
C3190 H3181 0.930 . S
C3190 C3188 1.384 . S
C3190 C3191 1.372 . S
C3191 C3190 1.372 . S
C3191 C3192 1.400 . S
C3191 C3196 1.490 . S
C3192 H3182 0.930 . S
C3192 C3191 1.400 . S
C3192 C3195 1.386 . S
H3193 C3209 0.930 . S
H3194 C3210 0.931 . S
C3195 H3183 0.929 . S
C3195 C3189 1.390 . S
C3195 C3192 1.386 . S
C3196 C3191 1.490 . S
C3196 C3198 1.395 . S
C3196 C3199 1.403 . S
H3197 C3203 0.930 . S
C3198 H3184 0.930 . S
C3198 C3196 1.395 . S
C3198 C3201 1.403 . S
C3199 C3196 1.403 . S
C3199 C3200 1.524 . S
C3199 C3203 1.400 . S
C3200 H3185 0.960 . S
C3200 H3186 0.960 . S
C3200 H3187 0.960 . S
C3200 C3199 1.524 . S
C3201 C3198 1.403 . S
C3201 C3202 1.392 . S
C3201 C3205 1.495 . S
C3202 C3201 1.392 . S
C3202 C3203 1.385 . S
C3202 C3204 1.478 . S
C3203 H3197 0.930 . S
C3203 C3199 1.400 . S
C3203 C3202 1.385 . S
C3204 C3202 1.478 . S
C3204 C3206 1.381 . S
C3204 C3210 1.383 . S
C3205 C3201 1.495 . S
C3205 H3211 0.959 . S
C3205 H3212 0.961 . S
C3205 H3213 0.960 . S
C3206 C3204 1.381 . S
C3206 C3207 1.394 . S
C3206 H3214 0.930 . S
C3207 C3206 1.394 . S
C3207 C3208 1.383 . S
C3207 H3215 0.929 . S
C3208 C3207 1.383 . S
C3208 C3209 1.377 . S
C3209 H3193 0.930 . S
C3209 C3208 1.377 . S
C3209 C3210 1.379 . S
C3210 H3194 0.931 . S
C3210 C3204 1.383 . S
C3210 C3209 1.379 . S
H3211 C3205 0.959 . S
H3212 C3205 0.961 . S
H3213 C3205 0.960 . S
H3214 C3206 0.930 . S
H3215 C3207 0.929 . S
H3216 C3224 0.929 . S
H3217 C3226 0.930 . S
H3218 C3228 0.930 . S
H3219 C3231 0.929 . S
H3220 C3234 0.930 . S
H3221 C3236 0.960 . S
H3222 C3236 0.960 . S
H3223 C3236 0.960 . S
C3224 H3216 0.929 . S
C3224 C3225 1.377 . S
C3224 C3226 1.384 . S
C3225 C3224 1.377 . S
C3225 C3231 1.390 . S
C3226 H3217 0.930 . S
C3226 C3224 1.384 . S
C3226 C3227 1.372 . S
C3227 C3226 1.372 . S
C3227 C3228 1.400 . S
C3227 C3232 1.490 . S
C3228 H3218 0.930 . S
C3228 C3227 1.400 . S
C3228 C3231 1.386 . S
H3229 C3245 0.930 . S
H3230 C3246 0.931 . S
C3231 H3219 0.929 . S
C3231 C3225 1.390 . S
C3231 C3228 1.386 . S
C3232 C3227 1.490 . S
C3232 C3234 1.395 . S
C3232 C3235 1.403 . S
H3233 C3239 0.930 . S
C3234 H3220 0.930 . S
C3234 C3232 1.395 . S
C3234 C3237 1.403 . S
C3235 C3232 1.403 . S
C3235 C3236 1.524 . S
C3235 C3239 1.400 . S
C3236 H3221 0.960 . S
C3236 H3222 0.960 . S
C3236 H3223 0.960 . S
C3236 C3235 1.524 . S
C3237 C3234 1.403 . S
C3237 C3238 1.392 . S
C3237 C3241 1.495 . S
C3238 C3237 1.392 . S
C3238 C3239 1.385 . S
C3238 C3240 1.478 . S
C3239 H3233 0.930 . S
C3239 C3235 1.400 . S
C3239 C3238 1.385 . S
C3240 C3238 1.478 . S
C3240 C3242 1.381 . S
C3240 C3246 1.383 . S
C3241 C3237 1.495 . S
C3241 H3247 0.959 . S
C3241 H3248 0.961 . S
C3241 H3249 0.960 . S
C3242 C3240 1.381 . S
C3242 C3243 1.394 . S
C3242 H3250 0.930 . S
C3243 C3242 1.394 . S
C3243 C3244 1.383 . S
C3243 H3251 0.929 . S
C3244 C3243 1.383 . S
C3244 C3245 1.377 . S
C3245 H3229 0.930 . S
C3245 C3244 1.377 . S
C3245 C3246 1.379 . S
C3246 H3230 0.931 . S
C3246 C3240 1.383 . S
C3246 C3245 1.379 . S
H3247 C3241 0.959 . S
H3248 C3241 0.961 . S
H3249 C3241 0.960 . S
H3250 C3242 0.930 . S
H3251 C3243 0.929 . S
H3252 C3260 0.929 . S
H3253 C3262 0.930 . S
H3254 C3264 0.930 . S
H3255 C3267 0.929 . S
H3256 C3270 0.930 . S
H3257 C3272 0.960 . S
H3258 C3272 0.960 . S
H3259 C3272 0.960 . S
C3260 H3252 0.929 . S
C3260 C3261 1.377 . S
C3260 C3262 1.384 . S
C3261 C3260 1.377 . S
C3261 C3267 1.390 . S
C3262 H3253 0.930 . S
C3262 C3260 1.384 . S
C3262 C3263 1.372 . S
C3263 C3262 1.372 . S
C3263 C3264 1.400 . S
C3263 C3268 1.490 . S
C3264 H3254 0.930 . S
C3264 C3263 1.400 . S
C3264 C3267 1.386 . S
H3265 C3281 0.930 . S
H3266 C3282 0.931 . S
C3267 H3255 0.929 . S
C3267 C3261 1.390 . S
C3267 C3264 1.386 . S
C3268 C3263 1.490 . S
C3268 C3270 1.395 . S
C3268 C3271 1.403 . S
H3269 C3275 0.930 . S
C3270 H3256 0.930 . S
C3270 C3268 1.395 . S
C3270 C3273 1.403 . S
C3271 C3268 1.403 . S
C3271 C3272 1.524 . S
C3271 C3275 1.400 . S
C3272 H3257 0.960 . S
C3272 H3258 0.960 . S
C3272 H3259 0.960 . S
C3272 C3271 1.524 . S
C3273 C3270 1.403 . S
C3273 C3274 1.392 . S
C3273 C3277 1.495 . S
C3274 C3273 1.392 . S
C3274 C3275 1.385 . S
C3274 C3276 1.478 . S
C3275 H3269 0.930 . S
C3275 C3271 1.400 . S
C3275 C3274 1.385 . S
C3276 C3274 1.478 . S
C3276 C3278 1.381 . S
C3276 C3282 1.383 . S
C3277 C3273 1.495 . S
C3277 H3283 0.959 . S
C3277 H3284 0.961 . S
C3277 H3285 0.960 . S
C3278 C3276 1.381 . S
C3278 C3279 1.394 . S
C3278 H3286 0.930 . S
C3279 C3278 1.394 . S
C3279 C3280 1.383 . S
C3279 H3287 0.929 . S
C3280 C3279 1.383 . S
C3280 C3281 1.377 . S
C3281 H3265 0.930 . S
C3281 C3280 1.377 . S
C3281 C3282 1.379 . S
C3282 H3266 0.931 . S
C3282 C3276 1.383 . S
C3282 C3281 1.379 . S
H3283 C3277 0.959 . S
H3284 C3277 0.961 . S
H3285 C3277 0.960 . S
H3286 C3278 0.930 . S
H3287 C3279 0.929 . S
H3288 C3296 0.929 . S
H3289 C3298 0.930 . S
H3290 C3300 0.930 . S
H3291 C3303 0.929 . S
H3292 C3306 0.930 . S
H3293 C3308 0.960 . S
H3294 C3308 0.960 . S
H3295 C3308 0.960 . S
C3296 H3288 0.929 . S
C3296 C3297 1.377 . S
C3296 C3298 1.384 . S
C3297 C3296 1.377 . S
C3297 C3303 1.390 . S
C3298 H3289 0.930 . S
C3298 C3296 1.384 . S
C3298 C3299 1.372 . S
C3299 C3298 1.372 . S
C3299 C3300 1.400 . S
C3299 C3304 1.490 . S
C3300 H3290 0.930 . S
C3300 C3299 1.400 . S
C3300 C3303 1.386 . S
H3301 C3317 0.930 . S
H3302 C3318 0.931 . S
C3303 H3291 0.929 . S
C3303 C3297 1.390 . S
C3303 C3300 1.386 . S
C3304 C3299 1.490 . S
C3304 C3306 1.395 . S
C3304 C3307 1.403 . S
H3305 C3311 0.930 . S
C3306 H3292 0.930 . S
C3306 C3304 1.395 . S
C3306 C3309 1.403 . S
C3307 C3304 1.403 . S
C3307 C3308 1.524 . S
C3307 C3311 1.400 . S
C3308 H3293 0.960 . S
C3308 H3294 0.960 . S
C3308 H3295 0.960 . S
C3308 C3307 1.524 . S
C3309 C3306 1.403 . S
C3309 C3310 1.392 . S
C3309 C3313 1.495 . S
C3310 C3309 1.392 . S
C3310 C3311 1.385 . S
C3310 C3312 1.478 . S
C3311 H3305 0.930 . S
C3311 C3307 1.400 . S
C3311 C3310 1.385 . S
C3312 C3310 1.478 . S
C3312 C3314 1.381 . S
C3312 C3318 1.383 . S
C3313 C3309 1.495 . S
C3313 H3319 0.959 . S
C3313 H3320 0.961 . S
C3313 H3321 0.960 . S
C3314 C3312 1.381 . S
C3314 C3315 1.394 . S
C3314 H3322 0.930 . S
C3315 C3314 1.394 . S
C3315 C3316 1.383 . S
C3315 H3323 0.929 . S
C3316 C3315 1.383 . S
C3316 C3317 1.377 . S
C3317 H3301 0.930 . S
C3317 C3316 1.377 . S
C3317 C3318 1.379 . S
C3318 H3302 0.931 . S
C3318 C3312 1.383 . S
C3318 C3317 1.379 . S
H3319 C3313 0.959 . S
H3320 C3313 0.961 . S
H3321 C3313 0.960 . S
H3322 C3314 0.930 . S
H3323 C3315 0.929 . S
H3324 C3332 0.929 . S
H3325 C3334 0.930 . S
H3326 C3336 0.930 . S
H3327 C3339 0.929 . S
H3328 C3342 0.930 . S
H3329 C3344 0.960 . S
H3330 C3344 0.960 . S
H3331 C3344 0.960 . S
C3332 H3324 0.929 . S
C3332 C3333 1.377 . S
C3332 C3334 1.384 . S
C3333 C3332 1.377 . S
C3333 C3339 1.390 . S
C3334 H3325 0.930 . S
C3334 C3332 1.384 . S
C3334 C3335 1.372 . S
C3335 C3334 1.372 . S
C3335 C3336 1.400 . S
C3335 C3340 1.490 . S
C3336 H3326 0.930 . S
C3336 C3335 1.400 . S
C3336 C3339 1.386 . S
H3337 C3353 0.930 . S
H3338 C3354 0.931 . S
C3339 H3327 0.929 . S
C3339 C3333 1.390 . S
C3339 C3336 1.386 . S
C3340 C3335 1.490 . S
C3340 C3342 1.395 . S
C3340 C3343 1.403 . S
H3341 C3347 0.930 . S
C3342 H3328 0.930 . S
C3342 C3340 1.395 . S
C3342 C3345 1.403 . S
C3343 C3340 1.403 . S
C3343 C3344 1.524 . S
C3343 C3347 1.400 . S
C3344 H3329 0.960 . S
C3344 H3330 0.960 . S
C3344 H3331 0.960 . S
C3344 C3343 1.524 . S
C3345 C3342 1.403 . S
C3345 C3346 1.392 . S
C3345 C3349 1.495 . S
C3346 C3345 1.392 . S
C3346 C3347 1.385 . S
C3346 C3348 1.478 . S
C3347 H3341 0.930 . S
C3347 C3343 1.400 . S
C3347 C3346 1.385 . S
C3348 C3346 1.478 . S
C3348 C3350 1.381 . S
C3348 C3354 1.383 . S
C3349 C3345 1.495 . S
C3349 H3355 0.959 . S
C3349 H3356 0.961 . S
C3349 H3357 0.960 . S
C3350 C3348 1.381 . S
C3350 C3351 1.394 . S
C3350 H3358 0.930 . S
C3351 C3350 1.394 . S
C3351 C3352 1.383 . S
C3351 H3359 0.929 . S
C3352 C3351 1.383 . S
C3352 C3353 1.377 . S
C3353 H3337 0.930 . S
C3353 C3352 1.377 . S
C3353 C3354 1.379 . S
C3354 H3338 0.931 . S
C3354 C3348 1.383 . S
C3354 C3353 1.379 . S
H3355 C3349 0.959 . S
H3356 C3349 0.961 . S
H3357 C3349 0.960 . S
H3358 C3350 0.930 . S
H3359 C3351 0.929 . S
H3360 C3368 0.929 . S
H3361 C3370 0.930 . S
H3362 C3372 0.930 . S
H3363 C3375 0.929 . S
H3364 C3378 0.930 . S
H3365 C3380 0.960 . S
H3366 C3380 0.960 . S
H3367 C3380 0.960 . S
C3368 H3360 0.929 . S
C3368 C3369 1.377 . S
C3368 C3370 1.384 . S
C3369 C3368 1.377 . S
C3369 C3375 1.390 . S
C3370 H3361 0.930 . S
C3370 C3368 1.384 . S
C3370 C3371 1.372 . S
C3371 C3370 1.372 . S
C3371 C3372 1.400 . S
C3371 C3376 1.490 . S
C3372 H3362 0.930 . S
C3372 C3371 1.400 . S
C3372 C3375 1.386 . S
H3373 C3389 0.930 . S
H3374 C3390 0.931 . S
C3375 H3363 0.929 . S
C3375 C3369 1.390 . S
C3375 C3372 1.386 . S
C3376 C3371 1.490 . S
C3376 C3378 1.395 . S
C3376 C3379 1.403 . S
H3377 C3383 0.930 . S
C3378 H3364 0.930 . S
C3378 C3376 1.395 . S
C3378 C3381 1.403 . S
C3379 C3376 1.403 . S
C3379 C3380 1.524 . S
C3379 C3383 1.400 . S
C3380 H3365 0.960 . S
C3380 H3366 0.960 . S
C3380 H3367 0.960 . S
C3380 C3379 1.524 . S
C3381 C3378 1.403 . S
C3381 C3382 1.392 . S
C3381 C3385 1.495 . S
C3382 C3381 1.392 . S
C3382 C3383 1.385 . S
C3382 C3384 1.478 . S
C3383 H3377 0.930 . S
C3383 C3379 1.400 . S
C3383 C3382 1.385 . S
C3384 C3382 1.478 . S
C3384 C3386 1.381 . S
C3384 C3390 1.383 . S
C3385 C3381 1.495 . S
C3385 H3391 0.959 . S
C3385 H3392 0.961 . S
C3385 H3393 0.960 . S
C3386 C3384 1.381 . S
C3386 C3387 1.394 . S
C3386 H3394 0.930 . S
C3387 C3386 1.394 . S
C3387 C3388 1.383 . S
C3387 H3395 0.929 . S
C3388 C3387 1.383 . S
C3388 C3389 1.377 . S
C3389 H3373 0.930 . S
C3389 C3388 1.377 . S
C3389 C3390 1.379 . S
C3390 H3374 0.931 . S
C3390 C3384 1.383 . S
C3390 C3389 1.379 . S
H3391 C3385 0.959 . S
H3392 C3385 0.961 . S
H3393 C3385 0.960 . S
H3394 C3386 0.930 . S
H3395 C3387 0.929 . S
H3396 C3404 0.929 . S
H3397 C3406 0.930 . S
H3398 C3408 0.930 . S
H3399 C3411 0.929 . S
H3400 C3414 0.930 . S
H3401 C3416 0.960 . S
H3402 C3416 0.960 . S
H3403 C3416 0.960 . S
C3404 H3396 0.929 . S
C3404 C3405 1.377 . S
C3404 C3406 1.384 . S
C3405 C3404 1.377 . S
C3405 C3411 1.390 . S
C3406 H3397 0.930 . S
C3406 C3404 1.384 . S
C3406 C3407 1.372 . S
C3407 C3406 1.372 . S
C3407 C3408 1.400 . S
C3407 C3412 1.490 . S
C3408 H3398 0.930 . S
C3408 C3407 1.400 . S
C3408 C3411 1.386 . S
H3409 C3425 0.930 . S
H3410 C3426 0.931 . S
C3411 H3399 0.929 . S
C3411 C3405 1.390 . S
C3411 C3408 1.386 . S
C3412 C3407 1.490 . S
C3412 C3414 1.395 . S
C3412 C3415 1.403 . S
H3413 C3419 0.930 . S
C3414 H3400 0.930 . S
C3414 C3412 1.395 . S
C3414 C3417 1.403 . S
C3415 C3412 1.403 . S
C3415 C3416 1.524 . S
C3415 C3419 1.400 . S
C3416 H3401 0.960 . S
C3416 H3402 0.960 . S
C3416 H3403 0.960 . S
C3416 C3415 1.524 . S
C3417 C3414 1.403 . S
C3417 C3418 1.392 . S
C3417 C3421 1.495 . S
C3418 C3417 1.392 . S
C3418 C3419 1.385 . S
C3418 C3420 1.478 . S
C3419 H3413 0.930 . S
C3419 C3415 1.400 . S
C3419 C3418 1.385 . S
C3420 C3418 1.478 . S
C3420 C3422 1.381 . S
C3420 C3426 1.383 . S
C3421 C3417 1.495 . S
C3421 H3427 0.959 . S
C3421 H3428 0.961 . S
C3421 H3429 0.960 . S
C3422 C3420 1.381 . S
C3422 C3423 1.394 . S
C3422 H3430 0.930 . S
C3423 C3422 1.394 . S
C3423 C3424 1.383 . S
C3423 H3431 0.929 . S
C3424 C3423 1.383 . S
C3424 C3425 1.377 . S
C3425 H3409 0.930 . S
C3425 C3424 1.377 . S
C3425 C3426 1.379 . S
C3426 H3410 0.931 . S
C3426 C3420 1.383 . S
C3426 C3425 1.379 . S
H3427 C3421 0.959 . S
H3428 C3421 0.961 . S
H3429 C3421 0.960 . S
H3430 C3422 0.930 . S
H3431 C3423 0.929 . S
H3432 C3440 0.929 . S
H3433 C3442 0.930 . S
H3434 C3444 0.930 . S
H3435 C3447 0.929 . S
H3436 C3450 0.930 . S
H3437 C3452 0.960 . S
H3438 C3452 0.960 . S
H3439 C3452 0.960 . S
C3440 H3432 0.929 . S
C3440 C3441 1.377 . S
C3440 C3442 1.384 . S
C3441 C3440 1.377 . S
C3441 C3447 1.390 . S
C3442 H3433 0.930 . S
C3442 C3440 1.384 . S
C3442 C3443 1.372 . S
C3443 C3442 1.372 . S
C3443 C3444 1.400 . S
C3443 C3448 1.490 . S
C3444 H3434 0.930 . S
C3444 C3443 1.400 . S
C3444 C3447 1.386 . S
H3445 C3461 0.930 . S
H3446 C3462 0.931 . S
C3447 H3435 0.929 . S
C3447 C3441 1.390 . S
C3447 C3444 1.386 . S
C3448 C3443 1.490 . S
C3448 C3450 1.395 . S
C3448 C3451 1.403 . S
H3449 C3455 0.930 . S
C3450 H3436 0.930 . S
C3450 C3448 1.395 . S
C3450 C3453 1.403 . S
C3451 C3448 1.403 . S
C3451 C3452 1.524 . S
C3451 C3455 1.400 . S
C3452 H3437 0.960 . S
C3452 H3438 0.960 . S
C3452 H3439 0.960 . S
C3452 C3451 1.524 . S
C3453 C3450 1.403 . S
C3453 C3454 1.392 . S
C3453 C3457 1.495 . S
C3454 C3453 1.392 . S
C3454 C3455 1.385 . S
C3454 C3456 1.478 . S
C3455 H3449 0.930 . S
C3455 C3451 1.400 . S
C3455 C3454 1.385 . S
C3456 C3454 1.478 . S
C3456 C3458 1.381 . S
C3456 C3462 1.383 . S
C3457 C3453 1.495 . S
C3457 H3463 0.959 . S
C3457 H3464 0.961 . S
C3457 H3465 0.960 . S
C3458 C3456 1.381 . S
C3458 C3459 1.394 . S
C3458 H3466 0.930 . S
C3459 C3458 1.394 . S
C3459 C3460 1.383 . S
C3459 H3467 0.929 . S
C3460 C3459 1.383 . S
C3460 C3461 1.377 . S
C3461 H3445 0.930 . S
C3461 C3460 1.377 . S
C3461 C3462 1.379 . S
C3462 H3446 0.931 . S
C3462 C3456 1.383 . S
C3462 C3461 1.379 . S
H3463 C3457 0.959 . S
H3464 C3457 0.961 . S
H3465 C3457 0.960 . S
H3466 C3458 0.930 . S
H3467 C3459 0.929 . S
H3468 C3476 0.929 . S
H3469 C3478 0.930 . S
H3470 C3480 0.930 . S
H3471 C3483 0.929 . S
H3472 C3486 0.930 . S
H3473 C3488 0.960 . S
H3474 C3488 0.960 . S
H3475 C3488 0.960 . S
C3476 H3468 0.929 . S
C3476 C3477 1.377 . S
C3476 C3478 1.384 . S
C3477 C3476 1.377 . S
C3477 C3483 1.390 . S
C3478 H3469 0.930 . S
C3478 C3476 1.384 . S
C3478 C3479 1.372 . S
C3479 C3478 1.372 . S
C3479 C3480 1.400 . S
C3479 C3484 1.490 . S
C3480 H3470 0.930 . S
C3480 C3479 1.400 . S
C3480 C3483 1.386 . S
H3481 C3497 0.930 . S
H3482 C3498 0.931 . S
C3483 H3471 0.929 . S
C3483 C3477 1.390 . S
C3483 C3480 1.386 . S
C3484 C3479 1.490 . S
C3484 C3486 1.395 . S
C3484 C3487 1.403 . S
H3485 C3491 0.930 . S
C3486 H3472 0.930 . S
C3486 C3484 1.395 . S
C3486 C3489 1.403 . S
C3487 C3484 1.403 . S
C3487 C3488 1.524 . S
C3487 C3491 1.400 . S
C3488 H3473 0.960 . S
C3488 H3474 0.960 . S
C3488 H3475 0.960 . S
C3488 C3487 1.524 . S
C3489 C3486 1.403 . S
C3489 C3490 1.392 . S
C3489 C3493 1.495 . S
C3490 C3489 1.392 . S
C3490 C3491 1.385 . S
C3490 C3492 1.478 . S
C3491 H3485 0.930 . S
C3491 C3487 1.400 . S
C3491 C3490 1.385 . S
C3492 C3490 1.478 . S
C3492 C3494 1.381 . S
C3492 C3498 1.383 . S
C3493 C3489 1.495 . S
C3493 H3499 0.959 . S
C3493 H3500 0.961 . S
C3493 H3501 0.960 . S
C3494 C3492 1.381 . S
C3494 C3495 1.394 . S
C3494 H3502 0.930 . S
C3495 C3494 1.394 . S
C3495 C3496 1.383 . S
C3495 H3503 0.929 . S
C3496 C3495 1.383 . S
C3496 C3497 1.377 . S
C3497 H3481 0.930 . S
C3497 C3496 1.377 . S
C3497 C3498 1.379 . S
C3498 H3482 0.931 . S
C3498 C3492 1.383 . S
C3498 C3497 1.379 . S
H3499 C3493 0.959 . S
H3500 C3493 0.961 . S
H3501 C3493 0.960 . S
H3502 C3494 0.930 . S
H3503 C3495 0.929 . S
H3504 C3512 0.929 . S
H3505 C3514 0.930 . S
H3506 C3516 0.930 . S
H3507 C3519 0.929 . S
H3508 C3522 0.930 . S
H3509 C3524 0.960 . S
H3510 C3524 0.960 . S
H3511 C3524 0.960 . S
C3512 H3504 0.929 . S
C3512 C3513 1.377 . S
C3512 C3514 1.384 . S
C3513 C3512 1.377 . S
C3513 C3519 1.390 . S
C3514 H3505 0.930 . S
C3514 C3512 1.384 . S
C3514 C3515 1.372 . S
C3515 C3514 1.372 . S
C3515 C3516 1.400 . S
C3515 C3520 1.490 . S
C3516 H3506 0.930 . S
C3516 C3515 1.400 . S
C3516 C3519 1.386 . S
H3517 C3533 0.930 . S
H3518 C3534 0.931 . S
C3519 H3507 0.929 . S
C3519 C3513 1.390 . S
C3519 C3516 1.386 . S
C3520 C3515 1.490 . S
C3520 C3522 1.395 . S
C3520 C3523 1.403 . S
H3521 C3527 0.930 . S
C3522 H3508 0.930 . S
C3522 C3520 1.395 . S
C3522 C3525 1.403 . S
C3523 C3520 1.403 . S
C3523 C3524 1.524 . S
C3523 C3527 1.400 . S
C3524 H3509 0.960 . S
C3524 H3510 0.960 . S
C3524 H3511 0.960 . S
C3524 C3523 1.524 . S
C3525 C3522 1.403 . S
C3525 C3526 1.392 . S
C3525 C3529 1.495 . S
C3526 C3525 1.392 . S
C3526 C3527 1.385 . S
C3526 C3528 1.478 . S
C3527 H3521 0.930 . S
C3527 C3523 1.400 . S
C3527 C3526 1.385 . S
C3528 C3526 1.478 . S
C3528 C3530 1.381 . S
C3528 C3534 1.383 . S
C3529 C3525 1.495 . S
C3529 H3535 0.959 . S
C3529 H3536 0.961 . S
C3529 H3537 0.960 . S
C3530 C3528 1.381 . S
C3530 C3531 1.394 . S
C3530 H3538 0.930 . S
C3531 C3530 1.394 . S
C3531 C3532 1.383 . S
C3531 H3539 0.929 . S
C3532 C3531 1.383 . S
C3532 C3533 1.377 . S
C3533 H3517 0.930 . S
C3533 C3532 1.377 . S
C3533 C3534 1.379 . S
C3534 H3518 0.931 . S
C3534 C3528 1.383 . S
C3534 C3533 1.379 . S
H3535 C3529 0.959 . S
H3536 C3529 0.961 . S
H3537 C3529 0.960 . S
H3538 C3530 0.930 . S
H3539 C3531 0.929 . S
H3540 C3548 0.929 . S
H3541 C3550 0.930 . S
H3542 C3552 0.930 . S
H3543 C3555 0.929 . S
H3544 C3558 0.930 . S
H3545 C3560 0.960 . S
H3546 C3560 0.960 . S
H3547 C3560 0.960 . S
C3548 H3540 0.929 . S
C3548 C3549 1.377 . S
C3548 C3550 1.384 . S
C3549 C3548 1.377 . S
C3549 C3555 1.390 . S
C3550 H3541 0.930 . S
C3550 C3548 1.384 . S
C3550 C3551 1.372 . S
C3551 C3550 1.372 . S
C3551 C3552 1.400 . S
C3551 C3556 1.490 . S
C3552 H3542 0.930 . S
C3552 C3551 1.400 . S
C3552 C3555 1.386 . S
H3553 C3569 0.930 . S
H3554 C3570 0.931 . S
C3555 H3543 0.929 . S
C3555 C3549 1.390 . S
C3555 C3552 1.386 . S
C3556 C3551 1.490 . S
C3556 C3558 1.395 . S
C3556 C3559 1.403 . S
H3557 C3563 0.930 . S
C3558 H3544 0.930 . S
C3558 C3556 1.395 . S
C3558 C3561 1.403 . S
C3559 C3556 1.403 . S
C3559 C3560 1.524 . S
C3559 C3563 1.400 . S
C3560 H3545 0.960 . S
C3560 H3546 0.960 . S
C3560 H3547 0.960 . S
C3560 C3559 1.524 . S
C3561 C3558 1.403 . S
C3561 C3562 1.392 . S
C3561 C3565 1.495 . S
C3562 C3561 1.392 . S
C3562 C3563 1.385 . S
C3562 C3564 1.478 . S
C3563 H3557 0.930 . S
C3563 C3559 1.400 . S
C3563 C3562 1.385 . S
C3564 C3562 1.478 . S
C3564 C3566 1.381 . S
C3564 C3570 1.383 . S
C3565 C3561 1.495 . S
C3565 H3571 0.959 . S
C3565 H3572 0.961 . S
C3565 H3573 0.960 . S
C3566 C3564 1.381 . S
C3566 C3567 1.394 . S
C3566 H3574 0.930 . S
C3567 C3566 1.394 . S
C3567 C3568 1.383 . S
C3567 H3575 0.929 . S
C3568 C3567 1.383 . S
C3568 C3569 1.377 . S
C3569 H3553 0.930 . S
C3569 C3568 1.377 . S
C3569 C3570 1.379 . S
C3570 H3554 0.931 . S
C3570 C3564 1.383 . S
C3570 C3569 1.379 . S
H3571 C3565 0.959 . S
H3572 C3565 0.961 . S
H3573 C3565 0.960 . S
H3574 C3566 0.930 . S
H3575 C3567 0.929 . S
H3576 C3584 0.929 . S
H3577 C3586 0.930 . S
H3578 C3588 0.930 . S
H3579 C3591 0.929 . S
H3580 C3594 0.930 . S
H3581 C3596 0.960 . S
H3582 C3596 0.960 . S
H3583 C3596 0.960 . S
C3584 H3576 0.929 . S
C3584 C3585 1.377 . S
C3584 C3586 1.384 . S
C3585 C3584 1.377 . S
C3585 C3591 1.390 . S
C3586 H3577 0.930 . S
C3586 C3584 1.384 . S
C3586 C3587 1.372 . S
C3587 C3586 1.372 . S
C3587 C3588 1.400 . S
C3587 C3592 1.490 . S
C3588 H3578 0.930 . S
C3588 C3587 1.400 . S
C3588 C3591 1.386 . S
H3589 C3605 0.930 . S
H3590 C3606 0.931 . S
C3591 H3579 0.929 . S
C3591 C3585 1.390 . S
C3591 C3588 1.386 . S
C3592 C3587 1.490 . S
C3592 C3594 1.395 . S
C3592 C3595 1.403 . S
H3593 C3599 0.930 . S
C3594 H3580 0.930 . S
C3594 C3592 1.395 . S
C3594 C3597 1.403 . S
C3595 C3592 1.403 . S
C3595 C3596 1.524 . S
C3595 C3599 1.400 . S
C3596 H3581 0.960 . S
C3596 H3582 0.960 . S
C3596 H3583 0.960 . S
C3596 C3595 1.524 . S
C3597 C3594 1.403 . S
C3597 C3598 1.392 . S
C3597 C3601 1.495 . S
C3598 C3597 1.392 . S
C3598 C3599 1.385 . S
C3598 C3600 1.478 . S
C3599 H3593 0.930 . S
C3599 C3595 1.400 . S
C3599 C3598 1.385 . S
C3600 C3598 1.478 . S
C3600 C3602 1.381 . S
C3600 C3606 1.383 . S
C3601 C3597 1.495 . S
C3601 H3607 0.959 . S
C3601 H3608 0.961 . S
C3601 H3609 0.960 . S
C3602 C3600 1.381 . S
C3602 C3603 1.394 . S
C3602 H3610 0.930 . S
C3603 C3602 1.394 . S
C3603 C3604 1.383 . S
C3603 H3611 0.929 . S
C3604 C3603 1.383 . S
C3604 C3605 1.377 . S
C3605 H3589 0.930 . S
C3605 C3604 1.377 . S
C3605 C3606 1.379 . S
C3606 H3590 0.931 . S
C3606 C3600 1.383 . S
C3606 C3605 1.379 . S
H3607 C3601 0.959 . S
H3608 C3601 0.961 . S
H3609 C3601 0.960 . S
H3610 C3602 0.930 . S
H3611 C3603 0.929 . S
H3612 C3620 0.929 . S
H3613 C3622 0.930 . S
H3614 C3624 0.930 . S
H3615 C3627 0.929 . S
H3616 C3630 0.930 . S
H3617 C3632 0.960 . S
H3618 C3632 0.960 . S
H3619 C3632 0.960 . S
C3620 H3612 0.929 . S
C3620 C3621 1.377 . S
C3620 C3622 1.384 . S
C3621 C3620 1.377 . S
C3621 C3627 1.390 . S
C3622 H3613 0.930 . S
C3622 C3620 1.384 . S
C3622 C3623 1.372 . S
C3623 C3622 1.372 . S
C3623 C3624 1.400 . S
C3623 C3628 1.490 . S
C3624 H3614 0.930 . S
C3624 C3623 1.400 . S
C3624 C3627 1.386 . S
H3625 C3641 0.930 . S
H3626 C3642 0.931 . S
C3627 H3615 0.929 . S
C3627 C3621 1.390 . S
C3627 C3624 1.386 . S
C3628 C3623 1.490 . S
C3628 C3630 1.395 . S
C3628 C3631 1.403 . S
H3629 C3635 0.930 . S
C3630 H3616 0.930 . S
C3630 C3628 1.395 . S
C3630 C3633 1.403 . S
C3631 C3628 1.403 . S
C3631 C3632 1.524 . S
C3631 C3635 1.400 . S
C3632 H3617 0.960 . S
C3632 H3618 0.960 . S
C3632 H3619 0.960 . S
C3632 C3631 1.524 . S
C3633 C3630 1.403 . S
C3633 C3634 1.392 . S
C3633 C3637 1.495 . S
C3634 C3633 1.392 . S
C3634 C3635 1.385 . S
C3634 C3636 1.478 . S
C3635 H3629 0.930 . S
C3635 C3631 1.400 . S
C3635 C3634 1.385 . S
C3636 C3634 1.478 . S
C3636 C3638 1.381 . S
C3636 C3642 1.383 . S
C3637 C3633 1.495 . S
C3637 H3643 0.959 . S
C3637 H3644 0.961 . S
C3637 H3645 0.960 . S
C3638 C3636 1.381 . S
C3638 C3639 1.394 . S
C3638 H3646 0.930 . S
C3639 C3638 1.394 . S
C3639 C3640 1.383 . S
C3639 H3647 0.929 . S
C3640 C3639 1.383 . S
C3640 C3641 1.377 . S
C3641 H3625 0.930 . S
C3641 C3640 1.377 . S
C3641 C3642 1.379 . S
C3642 H3626 0.931 . S
C3642 C3636 1.383 . S
C3642 C3641 1.379 . S
H3643 C3637 0.959 . S
H3644 C3637 0.961 . S
H3645 C3637 0.960 . S
H3646 C3638 0.930 . S
H3647 C3639 0.929 . S
H3648 C3656 0.929 . S
H3649 C3658 0.930 . S
H3650 C3660 0.930 . S
H3651 C3663 0.929 . S
H3652 C3666 0.930 . S
H3653 C3668 0.960 . S
H3654 C3668 0.960 . S
H3655 C3668 0.960 . S
C3656 H3648 0.929 . S
C3656 C3657 1.377 . S
C3656 C3658 1.384 . S
C3657 C3656 1.377 . S
C3657 C3663 1.390 . S
C3658 H3649 0.930 . S
C3658 C3656 1.384 . S
C3658 C3659 1.372 . S
C3659 C3658 1.372 . S
C3659 C3660 1.400 . S
C3659 C3664 1.490 . S
C3660 H3650 0.930 . S
C3660 C3659 1.400 . S
C3660 C3663 1.386 . S
H3661 C3677 0.930 . S
H3662 C3678 0.931 . S
C3663 H3651 0.929 . S
C3663 C3657 1.390 . S
C3663 C3660 1.386 . S
C3664 C3659 1.490 . S
C3664 C3666 1.395 . S
C3664 C3667 1.403 . S
H3665 C3671 0.930 . S
C3666 H3652 0.930 . S
C3666 C3664 1.395 . S
C3666 C3669 1.403 . S
C3667 C3664 1.403 . S
C3667 C3668 1.524 . S
C3667 C3671 1.400 . S
C3668 H3653 0.960 . S
C3668 H3654 0.960 . S
C3668 H3655 0.960 . S
C3668 C3667 1.524 . S
C3669 C3666 1.403 . S
C3669 C3670 1.392 . S
C3669 C3673 1.495 . S
C3670 C3669 1.392 . S
C3670 C3671 1.385 . S
C3670 C3672 1.478 . S
C3671 H3665 0.930 . S
C3671 C3667 1.400 . S
C3671 C3670 1.385 . S
C3672 C3670 1.478 . S
C3672 C3674 1.381 . S
C3672 C3678 1.383 . S
C3673 C3669 1.495 . S
C3673 H3679 0.959 . S
C3673 H3680 0.961 . S
C3673 H3681 0.960 . S
C3674 C3672 1.381 . S
C3674 C3675 1.394 . S
C3674 H3682 0.930 . S
C3675 C3674 1.394 . S
C3675 C3676 1.383 . S
C3675 H3683 0.929 . S
C3676 C3675 1.383 . S
C3676 C3677 1.377 . S
C3677 H3661 0.930 . S
C3677 C3676 1.377 . S
C3677 C3678 1.379 . S
C3678 H3662 0.931 . S
C3678 C3672 1.383 . S
C3678 C3677 1.379 . S
H3679 C3673 0.959 . S
H3680 C3673 0.961 . S
H3681 C3673 0.960 . S
H3682 C3674 0.930 . S
H3683 C3675 0.929 . S
H3684 C3692 0.929 . S
H3685 C3694 0.930 . S
H3686 C3696 0.930 . S
H3687 C3699 0.929 . S
H3688 C3702 0.930 . S
H3689 C3704 0.960 . S
H3690 C3704 0.960 . S
H3691 C3704 0.960 . S
C3692 H3684 0.929 . S
C3692 C3693 1.377 . S
C3692 C3694 1.384 . S
C3693 C3692 1.377 . S
C3693 C3699 1.390 . S
C3694 H3685 0.930 . S
C3694 C3692 1.384 . S
C3694 C3695 1.372 . S
C3695 C3694 1.372 . S
C3695 C3696 1.400 . S
C3695 C3700 1.490 . S
C3696 H3686 0.930 . S
C3696 C3695 1.400 . S
C3696 C3699 1.386 . S
H3697 C3713 0.930 . S
H3698 C3714 0.931 . S
C3699 H3687 0.929 . S
C3699 C3693 1.390 . S
C3699 C3696 1.386 . S
C3700 C3695 1.490 . S
C3700 C3702 1.395 . S
C3700 C3703 1.403 . S
H3701 C3707 0.930 . S
C3702 H3688 0.930 . S
C3702 C3700 1.395 . S
C3702 C3705 1.403 . S
C3703 C3700 1.403 . S
C3703 C3704 1.524 . S
C3703 C3707 1.400 . S
C3704 H3689 0.960 . S
C3704 H3690 0.960 . S
C3704 H3691 0.960 . S
C3704 C3703 1.524 . S
C3705 C3702 1.403 . S
C3705 C3706 1.392 . S
C3705 C3709 1.495 . S
C3706 C3705 1.392 . S
C3706 C3707 1.385 . S
C3706 C3708 1.478 . S
C3707 H3701 0.930 . S
C3707 C3703 1.400 . S
C3707 C3706 1.385 . S
C3708 C3706 1.478 . S
C3708 C3710 1.381 . S
C3708 C3714 1.383 . S
C3709 C3705 1.495 . S
C3709 H3715 0.959 . S
C3709 H3716 0.961 . S
C3709 H3717 0.960 . S
C3710 C3708 1.381 . S
C3710 C3711 1.394 . S
C3710 H3718 0.930 . S
C3711 C3710 1.394 . S
C3711 C3712 1.383 . S
C3711 H3719 0.929 . S
C3712 C3711 1.383 . S
C3712 C3713 1.377 . S
C3713 H3697 0.930 . S
C3713 C3712 1.377 . S
C3713 C3714 1.379 . S
C3714 H3698 0.931 . S
C3714 C3708 1.383 . S
C3714 C3713 1.379 . S
H3715 C3709 0.959 . S
H3716 C3709 0.961 . S
H3717 C3709 0.960 . S
H3718 C3710 0.930 . S
H3719 C3711 0.929 . S
H3720 C3728 0.929 . S
H3721 C3730 0.930 . S
H3722 C3732 0.930 . S
H3723 C3735 0.929 . S
H3724 C3738 0.930 . S
H3725 C3740 0.960 . S
H3726 C3740 0.960 . S
H3727 C3740 0.960 . S
C3728 H3720 0.929 . S
C3728 C3729 1.377 . S
C3728 C3730 1.384 . S
C3729 C3728 1.377 . S
C3729 C3735 1.390 . S
C3730 H3721 0.930 . S
C3730 C3728 1.384 . S
C3730 C3731 1.372 . S
C3731 C3730 1.372 . S
C3731 C3732 1.400 . S
C3731 C3736 1.490 . S
C3732 H3722 0.930 . S
C3732 C3731 1.400 . S
C3732 C3735 1.386 . S
H3733 C3749 0.930 . S
H3734 C3750 0.931 . S
C3735 H3723 0.929 . S
C3735 C3729 1.390 . S
C3735 C3732 1.386 . S
C3736 C3731 1.490 . S
C3736 C3738 1.395 . S
C3736 C3739 1.403 . S
H3737 C3743 0.930 . S
C3738 H3724 0.930 . S
C3738 C3736 1.395 . S
C3738 C3741 1.403 . S
C3739 C3736 1.403 . S
C3739 C3740 1.524 . S
C3739 C3743 1.400 . S
C3740 H3725 0.960 . S
C3740 H3726 0.960 . S
C3740 H3727 0.960 . S
C3740 C3739 1.524 . S
C3741 C3738 1.403 . S
C3741 C3742 1.392 . S
C3741 C3745 1.495 . S
C3742 C3741 1.392 . S
C3742 C3743 1.385 . S
C3742 C3744 1.478 . S
C3743 H3737 0.930 . S
C3743 C3739 1.400 . S
C3743 C3742 1.385 . S
C3744 C3742 1.478 . S
C3744 C3746 1.381 . S
C3744 C3750 1.383 . S
C3745 C3741 1.495 . S
C3745 H3751 0.959 . S
C3745 H3752 0.961 . S
C3745 H3753 0.960 . S
C3746 C3744 1.381 . S
C3746 C3747 1.394 . S
C3746 H3754 0.930 . S
C3747 C3746 1.394 . S
C3747 C3748 1.383 . S
C3747 H3755 0.929 . S
C3748 C3747 1.383 . S
C3748 C3749 1.377 . S
C3749 H3733 0.930 . S
C3749 C3748 1.377 . S
C3749 C3750 1.379 . S
C3750 H3734 0.931 . S
C3750 C3744 1.383 . S
C3750 C3749 1.379 . S
H3751 C3745 0.959 . S
H3752 C3745 0.961 . S
H3753 C3745 0.960 . S
H3754 C3746 0.930 . S
H3755 C3747 0.929 . S
C1192 C870 0.938 . S
C1173 C859 0.935 . S
C1209 C787 0.939 . S
C1228 C868 0.936 . S
C1264 C869 0.938 . S
C1245 C751 0.935 . S
C1281 C823 0.936 . S
C1300 C871 0.939 . S
C1336 C915 0.937 . S
C1317 C607 0.935 . S
C1372 C975 0.938 . S
C1353 C643 0.936 . S
C1389 C679 0.936 . S
C1408 C914 0.935 . S
C1444 C974 0.937 . S
C1425 C715 0.939 . S
C1461 C463 0.939 . S
C1480 C916 0.938 . S
C1516 C972 0.934 . S
C1497 C499 0.937 . S
C1533 C535 0.939 . S
C1552 C917 0.939 . S
C1569 C571 0.933 . S
C1588 C973 0.936 . S
C1624 C1023 0.939 . S
C1605 C427 0.933 1_554 S
C1641 C355 0.930 1_554 S
C1660 C1022 0.936 1_556 S
C1677 C319 0.940 . S
C1696 C1024 0.938 . S
C1732 C1025 0.942 . S
C1713 C391 0.934 1_554 S
C1749 C175 0.935 1_455 S
C1768 C1066 0.935 1_655 S
C1785 C211 0.940 1_565 S
C1804 C1125 0.938 . S
C1821 C247 0.936 . S
C1840 C1064 0.934 1_655 S
C1857 C283 0.936 1_545 S
C1876 C1124 0.934 1_565 S
C1912 C1065 0.939 . S
C1893 C31 0.937 1_455 S
C1948 C1122 0.934 1_565 S
C1929 C67 0.932 . S
C1965 C103 0.941 . S
C1984 C1067 0.937 1_655 S
C2020 C1123 0.936 1_565 S
C2001 C139 0.935 . S
C2056 C867 1.864 . S
C2037 C25 1.739 1_455 S
C2073 C61 1.727 1_545 S
C2092 C873 1.853 1_565 S
C2109 C97 1.743 1_655 S
C2128 C865 1.865 . S
C2145 C133 1.736 . S
C2164 C872 1.849 1_565 S
C2181 C169 1.730 1_455 S
C2200 C864 1.854 1_655 S
C2236 C874 1.863 . S
C2217 C181 1.783 . S
C2253 C241 1.731 . S
C2272 C866 1.856 . S
C2308 C875 1.848 . S
C2289 C253 1.776 1_545 S
C2344 C921 1.861 . S
C2325 C109 1.781 . S
C2361 C1 1.775 1_455 S
C2380 C964 1.856 . S
C2416 C919 1.859 . S
C2397 C37 1.776 . S
C2452 C966 1.863 . S
C2433 C73 1.787 . S
C2469 C205 1.729 . S
C2488 C920 1.849 . S
C2524 C965 1.848 . S
C2505 C217 1.778 1_655 S
C2560 C918 1.862 1_565 S
C2541 C277 1.737 1_545 S
C2596 C967 1.849 . S
C2577 C145 1.776 1_455 S
C2632 C971 1.857 . S
C2613 C289 1.786 . S
C2649 C325 1.780 1_554 S
C2668 C970 1.863 . S
C2704 C922 1.864 . S
C2685 C313 1.741 . S
C2740 C969 1.864 1_556 S
C2721 C361 1.784 1_554 S
C2757 C397 1.776 1_554 S
C2776 C925 1.859 . S
C2793 C421 1.737 1_554 S
C2812 C968 1.863 . S
C2848 C924 1.864 . S
C2829 C349 1.737 1_554 S
C2884 C923 1.852 . S
C2865 C385 1.735 1_554 S
C2920 C1017 1.859 . S
C2901 C457 1.742 . S
C2956 C1020 1.847 . S
C2937 C493 1.728 . S
C2973 C529 1.744 . S
C2992 C1016 1.864 . S
C3028 C1018 1.849 . S
C3009 C565 1.729 . S
C3064 C1014 1.853 . S
C3045 C601 1.737 . S
C3081 C613 1.778 . S
C3100 C1019 1.850 . S
C3117 C673 1.731 . S
C3136 C1015 1.850 . S
C3172 C1021 1.861 . S
C3153 C685 1.783 . S
C3208 C1075 1.861 . S
C3189 C541 1.780 . S
C3225 C433 1.786 . S
C3244 C1114 1.863 . S
C3280 C1074 1.849 . S
C3261 C469 1.780 . S
C3316 C1116 1.860 . S
C3297 C505 1.788 . S
C3352 C1073 1.862 . S
C3333 C637 1.740 . S
C3369 C649 1.784 . S
C3388 C1115 1.858 . S
C3424 C1072 1.859 . S
C3405 C709 1.733 . S
C3460 C1117 1.854 . S
C3441 C577 1.775 . S
C3496 C1121 1.854 . S
C3477 C721 1.776 . S
C3513 C757 1.777 . S
C3532 C1120 1.851 . S
C3568 C1068 1.854 . S
C3549 C745 1.739 . S
C3585 C793 1.785 . S
C3604 C1119 1.864 . S
C3640 C1071 1.862 . S
C3621 C829 1.787 . S
C3676 C1118 1.851 . S
C3657 C853 1.731 . S
C3712 C1069 1.864 . S
C3693 C781 1.742 . S
C3729 C817 1.743 . S
C3748 C1070 1.865 . S
