# Generated by pormake.
# Topology zzz, (3,6)-cn, num edge types: 1
# Building blocks:
#     Node 0, Type 0, BuildingBlock: BETDAH_clean_linker_0, # of connection points: 3
#     Node 1, Type 0, BuildingBlock: BETDAH_clean_linker_0, # of connection points: 3
#     Node 2, Type 0, BuildingBlock: BETDAH_clean_linker_0, # of connection points: 3
#     Node 3, Type 0, BuildingBlock: BETDAH_clean_linker_0, # of connection points: 3
#     Node 4, Type 0, BuildingBlock: BETDAH_clean_linker_0, # of connection points: 3
#     Node 5, Type 0, BuildingBlock: BETDAH_clean_linker_0, # of connection points: 3
#     Node 6, Type 0, BuildingBlock: BETDAH_clean_linker_0, # of connection points: 3
#     Node 7, Type 0, BuildingBlock: BETDAH_clean_linker_0, # of connection points: 3
#     Node 8, Type 1, BuildingBlock: JUFBIX_clean_sbu_0, # of connection points: 6
#     Node 9, Type 1, BuildingBlock: JUFBIX_clean_sbu_0, # of connection points: 6
#     Node 10, Type 1, BuildingBlock: JUFBIX_clean_sbu_0, # of connection points: 6
#     Node 11, Type 1, BuildingBlock: JUFBIX_clean_sbu_0, # of connection points: 6
#     Edge 12, Type (0, 1), BuildingBlock: KIFKEQ_clean_linker_1, # of connection points: 2
#     Edge 13, Type (0, 1), BuildingBlock: KIFKEQ_clean_linker_1, # of connection points: 2
#     Edge 14, Type (0, 1), BuildingBlock: KIFKEQ_clean_linker_1, # of connection points: 2
#     Edge 15, Type (0, 1), BuildingBlock: KIFKEQ_clean_linker_1, # of connection points: 2
#     Edge 16, Type (0, 1), BuildingBlock: KIFKEQ_clean_linker_1, # of connection points: 2
#     Edge 17, Type (0, 1), BuildingBlock: KIFKEQ_clean_linker_1, # of connection points: 2
#     Edge 18, Type (0, 1), BuildingBlock: KIFKEQ_clean_linker_1, # of connection points: 2
#     Edge 19, Type (0, 1), BuildingBlock: KIFKEQ_clean_linker_1, # of connection points: 2
#     Edge 20, Type (0, 1), BuildingBlock: KIFKEQ_clean_linker_1, # of connection points: 2
#     Edge 21, Type (0, 1), BuildingBlock: KIFKEQ_clean_linker_1, # of connection points: 2
#     Edge 22, Type (0, 1), BuildingBlock: KIFKEQ_clean_linker_1, # of connection points: 2
#     Edge 23, Type (0, 1), BuildingBlock: KIFKEQ_clean_linker_1, # of connection points: 2
#     Edge 24, Type (0, 1), BuildingBlock: KIFKEQ_clean_linker_1, # of connection points: 2
#     Edge 25, Type (0, 1), BuildingBlock: KIFKEQ_clean_linker_1, # of connection points: 2
#     Edge 26, Type (0, 1), BuildingBlock: KIFKEQ_clean_linker_1, # of connection points: 2
#     Edge 27, Type (0, 1), BuildingBlock: KIFKEQ_clean_linker_1, # of connection points: 2
#     Edge 28, Type (0, 1), BuildingBlock: KIFKEQ_clean_linker_1, # of connection points: 2
#     Edge 29, Type (0, 1), BuildingBlock: KIFKEQ_clean_linker_1, # of connection points: 2
#     Edge 30, Type (0, 1), BuildingBlock: KIFKEQ_clean_linker_1, # of connection points: 2
#     Edge 31, Type (0, 1), BuildingBlock: KIFKEQ_clean_linker_1, # of connection points: 2
#     Edge 32, Type (0, 1), BuildingBlock: KIFKEQ_clean_linker_1, # of connection points: 2
#     Edge 33, Type (0, 1), BuildingBlock: KIFKEQ_clean_linker_1, # of connection points: 2
#     Edge 34, Type (0, 1), BuildingBlock: KIFKEQ_clean_linker_1, # of connection points: 2
#     Edge 35, Type (0, 1), BuildingBlock: KIFKEQ_clean_linker_1, # of connection points: 2
# Relax obj value: 0.121
# Max RMSD: 0.177
# Mean RMSD: 0.086
data_MOF--net-zzz--node1-JUFBIX_clean_sbu_0--node2-BETDAH_clean_linker_0--edge1-KIFKEQ_clean_linker_1
_symmetry_space_group_name_H-M    P1
_symmetry_Int_Tables_number       1
_symmetry_cell_setting            triclinic
loop_
_symmetry_equiv_pos_as_xyz
'x, y, z'
_cell_length_a     52.824688
_cell_length_b     52.625812
_cell_length_c     17.919807
_cell_angle_alpha  81.54332
_cell_angle_beta   89.713931
_cell_angle_gamma 91.46569
loop_
_atom_site_label
_atom_site_type_symbol
_atom_site_fract_x
_atom_site_fract_y
_atom_site_fract_z
_atom_type_partial_charge
H0 H 0.86127 0.49155 0.26718 0.0
H1 H 0.79098 0.50695 0.15285 0.0
H2 H 0.79927 0.51975 0.38429 0.0
C3 C 0.84164 0.4971 0.26859 0.0
C4 C 0.83196 0.50497 0.33396 0.0
C5 C 0.82708 0.49769 0.20347 0.0
C6 C 0.8021 0.50615 0.20371 0.0
C7 C 0.79182 0.51381 0.2696 0.0
C8 C 0.80702 0.51357 0.33401 0.0
N9 N 0.76649 0.52211 0.27296 0.0
C10 C 0.74852 0.5202 0.21738 0.0
H11 H 0.01557 0.83092 0.26569 0.0
H12 H 1.00484 0.76585 0.14894 0.0
H13 H 0.97633 0.76327 0.37631 0.0
C14 C 0.00914 0.81116 0.2657 0.0
C15 C 0.99611 0.79833 0.32876 0.0
C16 C 0.01211 0.79972 0.20054 0.0
C17 C 1.00275 0.77455 0.1997 0.0
C18 C 0.99032 0.761 0.264 0.0
C19 C 0.98662 0.77325 0.32776 0.0
N20 N 0.98078 0.7354 0.26589 0.0
C21 C 0.98456 0.72055 0.2088 0.0
H22 H 0.68946 0.00929 0.16958 0.0
H23 H 0.75755 1.00208 0.04237 0.0
H24 H 0.75454 0.97565 0.28232 0.0
C25 C 0.70919 1.00409 0.16769 0.0
C26 C 0.72054 0.99252 0.23369 0.0
C27 C 0.72224 0.00747 0.09857 0.0
C28 C 0.74755 0.99983 0.09594 0.0
C29 C 0.75953 0.98882 0.16292 0.0
C30 C 0.74569 0.98481 0.23124 0.0
N31 N 0.78504 0.98071 0.16408 0.0
C32 C 0.80276 0.9864 0.10571 0.0
H33 H 0.50941 0.66197 0.17944 0.0
H34 H 0.52427 0.73732 0.05686 0.0
H35 H 0.53149 0.72368 0.29947 0.0
C36 C 0.51414 0.68216 0.17961 0.0
C37 C 0.51964 0.69082 0.24788 0.0
C38 C 0.51567 0.69865 0.11097 0.0
C39 C 0.52279 0.72461 0.11011 0.0
C40 C 0.52829 0.73379 0.17866 0.0
C41 C 0.5271 0.71667 0.24698 0.0
N42 N 0.53548 0.75985 0.1815 0.0
C43 C 0.53203 0.78032 0.12399 0.0
H44 H 0.16325 0.512 0.29644 0.0
H45 H 0.23555 0.51303 0.40449 0.0
H46 H 0.22977 0.49401 0.17841 0.0
C47 C 0.18363 0.50989 0.2946 0.0
C48 C 0.19473 0.50245 0.23073 0.0
C49 C 0.19819 0.51401 0.35683 0.0
C50 C 0.22441 0.51032 0.35556 0.0
C51 C 0.23601 0.50333 0.29054 0.0
C52 C 0.22102 0.49966 0.22808 0.0
N53 N 0.26249 0.49952 0.28613 0.0
C54 C 0.27925 0.5006 0.34531 0.0
H55 H 0.01224 0.18026 0.30165 0.0
H56 H 0.02599 0.24497 0.41755 0.0
H57 H 0.04813 0.24875 0.18364 0.0
C58 C 0.01869 0.20007 0.30062 0.0
C59 C 0.0298 0.21328 0.23469 0.0
C60 C 0.01745 0.21122 0.3667 0.0
C61 C 0.02677 0.23646 0.36614 0.0
C62 C 0.03739 0.25037 0.29941 0.0
C63 C 0.03937 0.23841 0.23438 0.0
N64 N 0.04658 0.27614 0.2961 0.0
C65 C 0.04259 0.2912 0.35255 0.0
H66 H 0.34323 0.99469 0.40606 0.0
H67 H 0.27658 0.00952 0.52963 0.0
H68 H 0.27915 0.02799 0.28662 0.0
C69 C 0.32377 1.00084 0.40649 0.0
C70 C 0.31257 0.01076 0.33834 0.0
C71 C 0.31117 1.00052 0.47552 0.0
C72 C 0.28629 0.00944 0.47628 0.0
C73 C 0.27439 0.01885 0.40762 0.0
C74 C 0.28793 0.02006 0.33917 0.0
N75 N 0.24928 0.02808 0.40484 0.0
C76 C 0.23124 0.0232 0.46259 0.0
H77 H 0.5075 0.35428 0.39573 0.0
H78 H 0.51342 0.277 0.51036 0.0
H79 H 0.50331 0.29125 0.26879 0.0
C80 C 0.50738 0.33375 0.39375 0.0
C81 C 0.50454 0.32487 0.32456 0.0
C82 C 0.51084 0.31677 0.46037 0.0
C83 C 0.51082 0.29013 0.45866 0.0
C84 C 0.50802 0.28085 0.38896 0.0
C85 C 0.50527 0.29837 0.3223 0.0
N86 N 0.5083 0.25426 0.38246 0.0
C87 C 0.50785 0.23382 0.44151 0.0
Co88 Co 0.02428 0.01373 0.83274 0.0
C89 C 0.97221 1.00101 0.84065 0.0
Co90 Co 0.00967 0.99644 0.73525 0.0
C91 C 0.04008 0.05416 0.91856 0.0
C92 C 0.03462 0.01777 0.98824 0.0
N93 N 0.03495 0.02899 0.91547 0.0
N94 N 0.04228 0.05909 0.99009 0.0
C95 C 0.03908 0.03616 0.03401 0.0
H96 H 0.04024 0.06899 0.86989 0.0
H97 H 0.02971 0.99781 0.0075 0.0
C98 C 0.06171 0.00918 0.72733 0.0
N99 N 0.99868 0.98096 0.6535 0.0
C100 C 0.99142 0.95609 0.6541 0.0
C101 C 0.99896 0.99118 0.57989 0.0
N102 N 0.98758 0.95029 0.58408 0.0
C103 C 0.99208 0.97243 0.53719 0.0
C104 C 0.00688 0.04932 0.71455 0.0
O105 O 0.05772 0.01692 0.79039 0.0
O106 O 0.04324 0.99976 0.69391 0.0
O107 O 1.00209 0.02959 0.68327 0.0
O108 O 0.01654 0.04645 0.7798 0.0
O109 O 0.97622 0.99327 0.77766 0.0
H110 H 1.00498 0.01068 0.55818 0.0
H111 H 0.98968 0.94219 0.70481 0.0
O112 O 0.99068 0.0104 0.87402 0.0
O113 O 0.03186 0.98057 0.88444 0.0
O114 O 0.01746 0.9637 0.78809 0.0
C115 C 0.02714 0.96083 0.85324 0.0
H116 H 0.03857 0.0331 0.09509 0.0
H117 H 0.99195 0.97456 0.47618 0.0
Co118 Co 0.50968 0.01255 0.83814 0.0
C119 C 0.52055 0.96018 0.84543 0.0
Co120 Co 0.52484 1.00163 0.73188 0.0
C121 C 0.47138 0.0244 0.94433 0.0
C122 C 0.50732 0.01712 0.99642 0.0
N123 N 0.49582 0.01983 0.92875 0.0
N124 N 0.46709 0.02399 0.01886 0.0
C125 C 0.48978 0.01966 0.05165 0.0
H126 H 0.45655 0.0262 0.90268 0.0
H127 H 0.52685 0.01201 0.00597 0.0
C128 C 0.51393 0.05395 0.72436 0.0
N129 N 0.53886 0.99404 0.64213 0.0
C130 C 0.56289 0.98712 0.63045 0.0
C131 C 0.5283 0.99697 0.57311 0.0
N132 N 0.56786 0.98599 0.55707 0.0
C133 C 0.54603 0.99195 0.52085 0.0
C134 C 0.47262 0.9976 0.74092 0.0
O135 O 0.50729 0.04766 0.7932 0.0
O136 O 0.52195 0.03672 0.68776 0.0
O137 O 0.49139 0.99424 0.699 0.0
O138 O 0.47669 1.00545 0.80352 0.0
O139 O 0.52755 0.96668 0.77706 0.0
H140 H 0.5093 1.00346 0.56089 0.0
H141 H 0.57676 0.98355 0.67467 0.0
O142 O 0.51221 0.97729 0.88194 0.0
O143 O 0.54311 0.0196 0.87117 0.0
O144 O 0.55786 0.0091 0.76594 0.0
C145 C 0.56189 0.01663 0.82897 0.0
H146 H 0.49328 0.01731 0.11171 0.0
H147 H 0.54344 0.99394 0.4604 0.0
Co148 Co 0.53353 0.50806 0.79123 0.0
C149 C 0.50918 0.4757 0.90782 0.0
Co150 Co 0.49178 0.50717 0.78209 0.0
C151 C 0.58237 0.51043 0.8621 0.0
C152 C 0.5857 0.50722 0.74483 0.0
N153 N 0.56853 0.50868 0.79979 0.0
N154 N 0.60756 0.51006 0.84838 0.0
C155 C 0.60966 0.50804 0.77444 0.0
H156 H 0.57403 0.51156 0.91675 0.0
H157 H 0.58108 0.50565 0.68691 0.0
C158 C 0.51578 0.5397 0.66586 0.0
N159 N 0.45679 0.50659 0.77345 0.0
C160 C 0.443 0.50516 0.71084 0.0
C161 C 0.43957 0.50801 0.82831 0.0
N162 N 0.41782 0.50572 0.72423 0.0
C163 C 0.41564 0.5075 0.79831 0.0
C164 C 0.51048 0.54637 0.85575 0.0
O165 O 0.53593 0.53178 0.69925 0.0
O166 O 0.49452 0.53039 0.69146 0.0
O167 O 0.49026 0.53588 0.83505 0.0
O168 O 0.53165 0.53651 0.84478 0.0
O169 O 0.48931 0.48387 0.87352 0.0
H170 H 0.44413 0.50941 0.88637 0.0
H171 H 0.4514 0.50421 0.65615 0.0
O172 O 0.5307 0.48451 0.88259 0.0
O173 O 0.53508 0.47947 0.73782 0.0
O174 O 0.49367 0.47859 0.72884 0.0
C175 C 0.51488 0.46887 0.71737 0.0
H176 H 0.62723 0.50752 0.74351 0.0
H177 H 0.39804 0.50811 0.82904 0.0
Co178 Co 0.01279 0.52557 0.78462 0.0
C179 C 0.04662 0.50013 0.88725 0.0
Co180 Co 0.01378 0.48355 0.78474 0.0
C181 C 0.00905 0.57157 0.85292 0.0
C182 C 0.01241 0.58019 0.73279 0.0
N183 N 0.01151 0.56047 0.79003 0.0
N184 N 0.0083 0.59747 0.83746 0.0
C185 C 0.01048 0.60294 0.76171 0.0
H186 H 0.00798 0.56075 0.90912 0.0
H187 H 0.01411 0.57814 0.67381 0.0
C188 C 0.97975 0.50857 0.68286 0.0
N189 N 0.0151 0.44867 0.77906 0.0
C190 C 0.01786 0.43783 0.71582 0.0
C191 C 0.01402 0.42876 0.83573 0.0
N192 N 0.01863 0.41192 0.73048 0.0
C193 C 0.01614 0.40616 0.80609 0.0
C194 C 0.97687 0.49685 0.87874 0.0
O195 O 0.98799 0.52886 0.70644 0.0
O196 O 0.98943 0.48716 0.70774 0.0
O197 O 0.98682 0.47754 0.85624 0.0
O198 O 0.98613 0.5192 0.85633 0.0
O199 O 0.03816 0.48016 0.86249 0.0
H200 H 0.01206 0.43059 0.89481 0.0
H201 H 0.01911 0.44884 0.65991 0.0
O202 O 0.03746 0.52183 0.86238 0.0
O203 O 0.03956 0.53161 0.71278 0.0
O204 O 0.0406 0.48997 0.71321 0.0
C205 C 0.04966 0.51238 0.69038 0.0
H206 H 0.01015 0.62195 0.72918 0.0
H207 H 0.01635 0.38704 0.83802 0.0
H208 H 0.21214 0.0572 0.5457 0.0
H209 H 0.20053 0.98112 0.48828 0.0
H210 H 0.1717 0.0532 0.61468 0.0
H211 H 0.16029 0.97671 0.55806 0.0
H212 H 0.07658 0.99238 0.597 0.0
H213 H 0.11869 0.9947 0.54034 0.0
H214 H 0.14791 0.03129 0.72374 0.0
H215 H 0.10552 0.02931 0.78015 0.0
C216 C 0.20112 0.0394 0.54943 0.0
C217 C 0.20936 0.01939 0.51242 0.0
C218 C 0.17798 0.03706 0.58892 0.0
C219 C 0.16255 0.0147 0.59157 0.0
C220 C 0.17143 0.99436 0.55628 0.0
C221 C 0.19457 0.99672 0.51699 0.0
C222 C 0.09195 1.00093 0.62544 0.0
C223 C 0.08757 0.01069 0.69321 0.0
C224 C 0.11621 1.00207 0.59316 0.0
C225 C 0.13683 0.01305 0.62756 0.0
C226 C 0.13247 0.02288 0.69533 0.0
C227 C 0.10816 0.02166 0.72785 0.0
H228 H 0.52728 0.22091 0.58247 0.0
H229 H 0.48619 0.19098 0.40581 0.0
H230 H 0.52806 0.17742 0.65525 0.0
H231 H 0.48672 0.14782 0.47774 0.0
H232 H 0.522 0.07216 0.57538 0.0
H233 H 0.51968 0.11617 0.51196 0.0
H234 H 0.5002 0.14138 0.72309 0.0
H235 H 0.50266 0.09705 0.78726 0.0
C236 C 0.51815 0.20504 0.55992 0.0
C237 C 0.50665 0.20906 0.48894 0.0
C238 C 0.51853 0.18021 0.60141 0.0
C239 C 0.50765 0.15909 0.57196 0.0
C240 C 0.49562 0.16353 0.50157 0.0
C241 C 0.49514 0.18824 0.46061 0.0
C242 C 0.51721 0.08701 0.60854 0.0
C243 C 0.51243 0.08098 0.68649 0.0
C244 C 0.51574 0.11228 0.572 0.0
C245 C 0.50958 0.13231 0.61231 0.0
C246 C 0.50511 0.12642 0.69049 0.0
C247 C 0.50639 0.101 0.72713 0.0
H248 H 0.31073 0.46268 0.3954 0.0
H249 H 0.29019 0.5394 0.42407 0.0
H250 H 0.34409 0.46356 0.48938 0.0
H251 H 0.32389 0.54074 0.51718 0.0
H252 H 0.37051 0.52423 0.73283 0.0
H253 H 0.33616 0.52232 0.64353 0.0
H254 H 0.38486 0.48433 0.50277 0.0
H255 H 0.41888 0.48532 0.59353 0.0
C256 C 0.31342 0.4797 0.42224 0.0
C257 C 0.29807 0.50094 0.40323 0.0
C258 C 0.3326 0.48032 0.47551 0.0
C259 C 0.33679 0.50227 0.51066 0.0
C260 C 0.32103 0.52343 0.49189 0.0
C261 C 0.30184 0.52276 0.43851 0.0
C262 C 0.37385 0.51522 0.68331 0.0
C263 C 0.39754 0.50488 0.67069 0.0
C264 C 0.35421 0.5144 0.63157 0.0
C265 C 0.3577 0.50317 0.56587 0.0
C266 C 0.38138 0.49285 0.55318 0.0
C267 C 0.40104 0.4937 0.60487 0.0
H268 H 0.02878 0.34042 0.32511 0.0
H269 H 0.04734 0.27983 0.5038 0.0
H270 H 0.02241 0.36962 0.41757 0.0
H271 H 0.0415 0.30904 0.59696 0.0
H272 H 1.00358 0.36164 0.74593 0.0
H273 H 0.00905 0.33197 0.65493 0.0
H274 H 0.0468 0.39235 0.50188 0.0
H275 H 0.04135 0.42194 0.59265 0.0
C276 C 0.03151 0.33346 0.38443 0.0
C277 C 0.03852 0.30808 0.40788 0.0
C278 C 0.02804 0.35016 0.43734 0.0
C279 C 0.03154 0.34174 0.51481 0.0
C280 C 0.03838 0.3161 0.53794 0.0
C281 C 0.04186 0.29941 0.48482 0.0
C282 C 0.01321 0.36855 0.69315 0.0
C283 C 0.02192 0.39427 0.67672 0.0
C284 C 0.01636 0.35151 0.64091 0.0
C285 C 0.0283 0.35976 0.57088 0.0
C286 C 0.03711 0.38544 0.55464 0.0
C287 C 0.03396 0.40245 0.60681 0.0
H288 H 0.82161 0.95301 0.02026 0.0
H289 H 0.83349 0.02854 0.08148 0.0
H290 H 0.862 0.95726 0.95114 0.0
H291 H 0.87369 0.03322 0.01148 0.0
H292 H 0.95737 0.01749 0.97152 0.0
H293 H 0.91523 0.0152 0.02802 0.0
H294 H 0.88592 0.97939 0.8432 0.0
H295 H 0.92833 0.98132 0.78702 0.0
C296 C 0.83267 0.97077 0.01726 0.0
C297 C 0.82451 0.99054 0.05541 0.0
C298 C 0.85579 0.97325 0.97771 0.0
C299 C 0.8713 0.99552 0.97607 0.0
C300 C 0.8625 0.01564 0.01244 0.0
C301 C 0.83937 0.01313 0.05184 0.0
C302 C 0.94197 0.00912 0.94273 0.0
C303 C 0.94633 0.99954 0.87466 0.0
C304 C 0.91769 0.008 0.97492 0.0
C305 C 0.89703 0.99724 0.94009 0.0
C306 C 0.90138 0.98763 0.87197 0.0
C307 C 0.92571 0.98881 0.83958 0.0
H308 H 0.56602 0.80455 0.02273 0.0
H309 H 0.49125 0.81011 0.11514 0.0
H310 H 0.56271 0.84774 0.95087 0.0
H311 H 0.48757 0.8531 0.04287 0.0
H312 H 0.50452 0.93977 0.98746 0.0
H313 H 0.50641 0.89538 0.04849 0.0
H314 H 0.54085 0.8743 0.84806 0.0
H315 H 0.53928 0.91895 0.78703 0.0
C316 C 0.54869 0.81489 0.02626 0.0
C317 C 0.52882 0.80416 0.07376 0.0
C318 C 0.54674 0.83959 0.98518 0.0
C319 C 0.52494 0.85403 0.99146 0.0
C320 C 0.50478 0.84272 0.03754 0.0
C321 C 0.50674 0.81805 0.07834 0.0
C322 C 0.5125 0.92572 0.95622 0.0
C323 C 0.52176 0.933 0.88226 0.0
C324 C 0.5134 0.90016 0.9911 0.0
C325 C 0.52365 0.88116 0.95313 0.0
C326 C 0.533 0.88845 0.87919 0.0
C327 C 0.532 0.91404 0.84409 0.0
H328 H 0.75278 0.52731 0.0653 0.0
H329 H 0.69944 0.50902 0.2493 0.0
H330 H 0.71845 0.52503 0.97467 0.0
H331 H 0.66508 0.50623 0.15949 0.0
H332 H 0.60654 0.53126 0.97776 0.0
H333 H 0.64091 0.5336 0.06679 0.0
H334 H 0.68939 0.49434 0.92877 0.0
H335 H 0.65503 0.49198 0.83979 0.0
C336 C 0.73366 0.52266 0.08604 0.0
C337 C 0.72853 0.51833 0.16368 0.0
C338 C 0.71404 0.52123 0.03441 0.0
C339 C 0.68895 0.51549 0.05974 0.0
C340 C 0.68406 0.51106 0.13794 0.0
C341 C 0.70369 0.51247 0.18938 0.0
C342 C 0.62442 0.52291 0.96664 0.0
C343 C 0.62792 0.51142 0.90139 0.0
C344 C 0.64418 0.52426 0.01777 0.0
C345 C 0.66796 0.51416 0.00504 0.0
C346 C 0.67147 0.50268 0.9398 0.0
C347 C 0.65172 0.50132 0.88869 0.0
H348 H 0.95112 0.68493 0.17375 0.0
H349 H 0.02542 0.71839 0.11897 0.0
H350 H 0.95683 0.65531 0.0821 0.0
H351 H 0.0316 0.68847 0.02803 0.0
H352 H 0.02309 0.64787 0.81911 0.0
H353 H 0.01694 0.67835 0.90725 0.0
H354 H 0.98113 0.61822 0.06577 0.0
H355 H 0.98637 0.58804 0.97659 0.0
C356 C 0.96867 0.68587 0.14177 0.0
C357 C 0.98784 0.70378 0.15275 0.0
C358 C 0.97206 0.66883 0.08976 0.0
C359 C 0.99474 0.66938 0.04783 0.0
C360 C 0.01381 0.68767 0.05868 0.0
C361 C 0.01038 0.70471 0.11082 0.0
C362 C 0.0137 0.64118 0.87244 0.0
C363 C 1.0052 0.61543 0.89045 0.0
C364 C 0.01043 0.65862 0.92341 0.0
C365 C 0.99851 0.65079 0.99368 0.0
C366 C 0.99011 0.62503 0.01182 0.0
C367 C 0.99341 0.60759 0.96093 0.0
H368 H 0.97307 0.18387 0.39128 0.0
H369 H 0.04354 0.20025 0.49732 0.0
H370 H 0.96529 0.14665 0.48799 0.0
H371 H 0.03614 0.1628 0.59337 0.0
H372 H 0.01481 0.0951 0.76707 0.0
H373 H 0.01172 0.13826 0.69703 0.0
H374 H 0.98667 0.10588 0.50111 0.0
H375 H 0.9894 0.06282 0.57127 0.0
C376 C 0.98645 0.17995 0.4369 0.0
C377 C 0.00898 0.19472 0.43678 0.0
C378 C 0.98216 0.15852 0.49173 0.0
C379 C 1.00038 0.15141 0.54724 0.0
C380 C 0.02168 0.16776 0.5515 0.0
C381 C 0.02592 0.1893 0.4967 0.0
C382 C 0.00835 0.09719 0.7093 0.0
C383 C 1.00259 0.07548 0.67445 0.0
C384 C 1.00662 0.12195 0.66922 0.0
C385 C 0.99899 0.12555 0.59352 0.0
C386 C 0.99223 0.10385 0.55973 0.0
C387 C 0.99399 0.0791 0.59975 0.0
H388 H 0.32345 0.03099 0.58061 0.0
H389 H 0.33455 0.95559 0.52102 0.0
H390 H 0.36102 0.02643 0.66006 0.0
H391 H 0.37203 0.95086 0.60061 0.0
H392 H 0.45659 0.97815 0.61512 0.0
H393 H 0.41324 0.97416 0.57133 0.0
H394 H 0.38544 1.00374 0.76776 0.0
H395 H 0.42878 0.00779 0.81166 0.0
C396 C 0.33316 0.01292 0.58772 0.0
C397 C 0.32621 0.99368 0.54467 0.0
C398 C 0.35483 0.01036 0.63267 0.0
C399 C 0.36984 0.98853 0.63501 0.0
C400 C 0.36116 0.96812 0.5986 0.0
C401 C 0.33951 0.97065 0.55398 0.0
C402 C 0.44124 0.98354 0.64941 0.0
C403 C 0.44622 0.99343 0.71662 0.0
C404 C 0.41635 0.98106 0.62468 0.0
C405 C 0.39587 0.98855 0.66631 0.0
C406 C 0.4008 0.99791 0.73434 0.0
C407 C 0.42568 1.00019 0.75943 0.0
H408 H 0.55397 0.33928 0.50043 0.0
H409 H 0.47618 0.32309 0.56806 0.0
H410 H 0.55591 0.3745 0.57416 0.0
H411 H 0.47815 0.35773 0.64523 0.0
H412 H 0.477 0.44473 0.64926 0.0
H413 H 0.47768 0.40275 0.60793 0.0
H414 H 0.55491 0.39376 0.68424 0.0
H415 H 0.55449 0.43629 0.72258 0.0
C416 C 0.53775 0.34235 0.53499 0.0
C417 C 0.51501 0.32843 0.52928 0.0
C418 C 0.53873 0.36272 0.57689 0.0
C419 C 0.51696 0.36948 0.61425 0.0
C420 C 0.49506 0.35354 0.61541 0.0
C421 C 0.49405 0.33329 0.57277 0.0
C422 C 0.49417 0.43385 0.65676 0.0
C423 C 0.51577 0.44399 0.68832 0.0
C424 C 0.49446 0.40954 0.63418 0.0
C425 C 0.51627 0.39459 0.64346 0.0
C426 C 0.53785 0.40475 0.67551 0.0
C427 C 0.53764 0.42921 0.69728 0.0
H428 H 0.19517 0.48567 0.49629 0.0
H429 H 0.16932 0.5553 0.36482 0.0
H430 H 0.16125 0.48786 0.58851 0.0
H431 H 0.13518 0.55735 0.45546 0.0
H432 H 0.07786 0.55656 0.6463 0.0
H433 H 0.11894 0.56058 0.58155 0.0
H434 H 0.11616 0.47915 0.56973 0.0
H435 H 0.07554 0.47504 0.63496 0.0
C436 C 0.18288 0.50201 0.48899 0.0
C437 C 0.18466 0.52026 0.4237 0.0
C438 C 0.16324 0.50308 0.54094 0.0
C439 C 0.14516 0.52243 0.52816 0.0
C440 C 0.14874 0.54221 0.46703 0.0
C441 C 0.16832 0.5411 0.41519 0.0
C442 C 0.08599 0.53956 0.62946 0.0
C443 C 0.07337 0.5155 0.64543 0.0
C444 C 0.10957 0.54185 0.5928 0.0
C445 C 0.12101 0.52012 0.57164 0.0
C446 C 0.10822 0.49615 0.58708 0.0
C447 C 0.08471 0.49387 0.6235 0.0
H448 H 0.05675 0.82701 0.18351 0.0
H449 H 0.98892 0.81018 0.06504 0.0
H450 H 0.06638 0.86382 0.08688 0.0
H451 H 0.99802 0.84727 0.96938 0.0
H452 H 0.0205 0.91507 0.79972 0.0
H453 H 0.02334 0.87192 0.8701 0.0
H454 H 0.04569 0.90448 0.06838 0.0
H455 H 0.0434 0.94746 0.99779 0.0
C456 C 0.04437 0.83075 0.13532 0.0
C457 C 0.02202 0.81597 0.13177 0.0
C458 C 0.0497 0.85195 0.08048 0.0
C459 C 0.03264 0.85888 0.02146 0.0
C460 C 0.01162 0.84248 0.01391 0.0
C461 C 1.0064 0.82114 0.06858 0.0
C462 C 0.02637 0.91299 0.85809 0.0
C463 C 0.03146 0.93471 0.89347 0.0
C464 C 0.02795 0.88825 0.89839 0.0
C465 C 0.03466 0.88469 0.97492 0.0
C466 C 0.04085 0.90643 0.00919 0.0
C467 C 0.03931 0.93115 0.9689 0.0
H468 H 0.71074 0.98076 0.98406 0.0
H469 H 0.6986 0.05283 0.06428 0.0
H470 H 0.67361 0.98754 0.90353 0.0
H471 H 0.66169 0.05994 0.9831 0.0
H472 H 0.57755 0.03371 0.95856 0.0
H473 H 0.6207 0.03691 0.004 0.0
H474 H 0.64918 0.012 0.80103 0.0
H475 H 0.60592 0.0086 0.75561 0.0
C476 C 0.7009 0.99868 0.98133 0.0
C477 C 0.70743 0.01625 0.03028 0.0
C478 C 0.6795 1.00252 0.93566 0.0
C479 C 0.66434 0.024 0.93839 0.0
C480 C 0.67264 0.04294 0.98105 0.0
C481 C 0.69397 0.03908 0.02664 0.0
C482 C 0.593 0.02921 0.92316 0.0
C483 C 0.58822 0.02071 0.85377 0.0
C484 C 0.6178 0.03126 0.94888 0.0
C485 C 0.63844 0.02479 0.90596 0.0
C486 C 0.63371 0.01699 0.83556 0.0
C487 C 0.60889 0.01508 0.80959 0.0
H488 H 0.55025 0.69216 0.00303 0.0
H489 H 0.47226 0.67652 0.06963 0.0
H490 H 0.54804 0.65766 0.92534 0.0
H491 H 0.47009 0.64151 0.99529 0.0
H492 H 0.47122 0.57942 0.8484 0.0
H493 H 0.47117 0.62218 0.88528 0.0
H494 H 0.54808 0.61254 0.96393 0.0
H495 H 0.5484 0.57031 0.92415 0.0
C496 C 0.53231 0.68211 -0.00188 0.0
C497 C 0.51142 0.6869 0.04206 0.0
C498 C 0.53115 0.66196 0.95509 0.0
C499 C 0.50913 0.6462 0.95593 0.0
C500 C 0.48738 0.6531 0.99302 0.0
C501 C 0.48852 0.67332 0.03539 0.0
C502 C 0.48807 0.58642 0.87394 0.0
C503 C 0.50974 0.57137 0.88409 0.0
C504 C 0.48808 0.61101 0.8948 0.0
C505 C 0.50968 0.62104 0.92709 0.0
C506 C 0.5313 0.60584 0.93747 0.0
C507 C 0.53137 0.58139 0.91581 0.0
H508 H 0.85158 0.45426 0.18552 0.0
H509 H 0.83289 0.52903 0.06937 0.0
H510 H 0.88604 0.45187 0.09631 0.0
H511 H 0.86694 0.52643 0.97813 0.0
H512 H 0.95314 0.53377 0.94217 0.0
H513 H 0.91186 0.53085 0.00319 0.0
H514 H 0.9041 0.45116 0.97185 0.0
H515 H 0.94592 0.45396 0.91154 0.0
C516 C 0.85414 0.46963 0.13852 0.0
C517 C 0.83989 0.49197 0.13465 0.0
C518 C 0.87392 0.46831 0.08746 0.0
C519 C 0.87969 0.4893 0.0315 0.0
C520 C 0.86335 0.51025 0.02203 0.0
C521 C 0.84358 0.51158 0.07335 0.0
C522 C 0.94274 0.51555 0.94855 0.0
C523 C 0.9529 0.49405 0.92241 0.0
C524 C 0.91885 0.51399 0.9825 0.0
C525 C 0.90442 0.49091 0.99103 0.0
C526 C 0.91472 0.46924 0.96594 0.0
C527 C 0.93873 0.47079 0.93191 0.0
H528 H 0.07341 0.20051 0.16841 0.0
H529 H 0.99206 0.1928 0.15919 0.0
H530 H 0.07743 0.16518 0.09379 0.0
H531 H 0.99601 0.15768 0.08509 0.0
H532 H 0.01648 0.07176 0.10868 0.0
H533 H 0.01413 0.11396 0.14787 0.0
H534 H 0.06466 0.14561 0.96583 0.0
H535 H 0.06688 0.10285 0.92574 0.0
C536 C 0.05646 0.19207 0.14736 0.0
C537 C 0.03243 0.19921 0.16955 0.0
C538 C 0.05875 0.1718 0.1051 0.0
C539 C 0.03701 0.15847 0.08505 0.0
C540 C 0.01304 0.16745 0.10073 0.0
C541 C 0.01078 0.18764 0.14254 0.0
C542 C 0.0273 0.0876 0.07733 0.0
C543 C 0.04202 0.08397 0.0145 0.0
C544 C 0.0257 0.11184 0.09916 0.0
C545 C 0.03898 0.13308 0.05928 0.0
C546 C 0.05415 0.12953 0.99721 0.0
C547 C 0.0554 0.10518 0.97437 0.0
H548 H 0.33464 0.97171 0.28185 0.0
H549 H 0.32691 0.05395 0.24169 0.0
H550 H 0.37021 0.97536 0.19319 0.0
H551 H 0.36281 0.05774 0.15273 0.0
H552 H 0.4245 0.04856 0.96775 0.0
H553 H 0.38276 0.04539 0.03033 0.0
H554 H 0.41316 0.99414 0.21672 0.0
H555 H 0.45432 0.99711 0.15467 0.0
C556 C 0.34006 0.9905 0.25195 0.0
C557 C 0.32814 0.01256 0.26866 0.0
C558 C 0.36056 0.99263 0.20181 0.0
C559 C 0.36964 0.01688 0.16735 0.0
C560 C 0.35623 0.0388 0.17852 0.0
C561 C 0.33561 0.03665 0.22902 0.0
C562 C 0.42215 0.03664 0.02207 0.0
C563 C 0.44277 0.02321 0.05641 0.0
C564 C 0.39833 0.03488 0.05787 0.0
C565 C 0.39462 0.01927 0.12795 0.0
C566 C 0.41529 0.006 0.16217 0.0
C567 C 0.43902 0.008 0.12706 0.0
H568 H 0.47127 0.36371 0.30224 0.0
H569 H 0.53215 0.32967 0.1934 0.0
H570 H 0.47167 0.39996 0.20049 0.0
H571 H 0.53231 0.36585 0.09013 0.0
H572 H 0.548 0.45006 0.98333 0.0
H573 H 0.54501 0.41178 0.07826 0.0
H574 H 0.46339 0.41321 0.06704 0.0
H575 H 0.46631 0.45168 0.97293 0.0
C576 C 0.4844 0.36379 0.25555 0.0
C577 C 0.50175 0.34397 0.25572 0.0
C578 C 0.48459 0.38451 0.19716 0.0
C579 C 0.50221 0.38595 0.13762 0.0
C580 C 0.51878 0.36548 0.1359 0.0
C581 C 0.51847 0.34461 0.19433 0.0
C582 C 0.5294 0.44237 0.00164 0.0
C583 C 0.50739 0.45403 0.97076 0.0
C584 C 0.5277 0.42023 0.05534 0.0
C585 C 0.50397 0.40928 0.07964 0.0
C586 C 0.48196 0.42122 0.0498 0.0
C587 C 0.48365 0.44331 0.99593 0.0
H588 H 0.19152 0.52994 0.09005 0.0
H589 H 0.15904 0.46459 0.23549 0.0
H590 H 0.15647 0.52782 0.00158 0.0
H591 H 0.12399 0.46246 0.14823 0.0
H592 H 0.07158 0.45713 0.94844 0.0
H593 H 0.11048 0.45516 0.02184 0.0
H594 H 0.11109 0.53767 0.01213 0.0
H595 H 0.07242 0.53973 0.93822 0.0
C596 C 0.1773 0.51465 0.10163 0.0
C597 C 0.17792 0.49731 0.16888 0.0
C598 C 0.15709 0.51362 0.0518 0.0
C599 C 0.13729 0.49517 0.06849 0.0
C600 C 0.13897 0.47678 0.13345 0.0
C601 C 0.15903 0.47794 0.18331 0.0
C602 C 0.07991 0.47484 0.96242 0.0
C603 C 0.06881 0.49858 0.93773 0.0
C604 C 0.10224 0.4737 0.00427 0.0
C605 C 0.11403 0.49628 0.02199 0.0
C606 C 0.10277 0.51997 -0.00197 0.0
C607 C 0.0804 0.52111 0.95653 0.0
H608 H 0.95092 0.81617 0.36796 0.0
H609 H 0.03009 0.81486 0.42494 0.0
H610 H 0.94469 0.85053 0.44461 0.0
H611 H 0.02402 0.84893 0.50189 0.0
H612 H 0.96277 0.93827 0.46184 0.0
H613 H 0.96106 0.89656 0.41728 0.0
H614 H 1.00247 0.86342 0.61337 0.0
H615 H 1.00438 0.90517 0.65746 0.0
C616 C 0.96671 0.82253 0.39952 0.0
C617 C 0.99091 0.81282 0.39148 0.0
C618 C 0.96325 0.84236 0.44255 0.0
C619 C 0.98391 0.85256 0.47875 0.0
C620 C 0.00768 0.84134 0.47532 0.0
C621 C 0.01119 0.8218 0.43152 0.0
C622 C 0.97121 0.92199 0.4958 0.0
C623 C 0.98382 0.92508 0.56284 0.0
C624 C 0.97002 0.89804 0.47078 0.0
C625 C 0.98165 0.8767 0.51187 0.0
C626 C 0.9934 0.87953 0.58044 0.0
C627 C 0.99434 0.90343 0.6059 0.0
H628 H 0.70824 0.02591 0.32901 0.0
H629 H 0.69538 0.94806 0.28742 0.0
H630 H 0.67296 0.02098 0.41954 0.0
H631 H 0.65996 0.94296 0.37776 0.0
H632 H 0.57679 0.96511 0.43059 0.0
H633 H 0.61744 0.96324 0.36629 0.0
H634 H 0.65479 0.99781 0.54168 0.0
H635 H 0.61407 0.9999 0.60558 0.0
C636 C 0.69844 0.00742 0.34173 0.0
C637 C 0.70468 0.98721 0.30258 0.0
C638 C 0.67819 1.00459 0.39321 0.0
C639 C 0.66353 0.98163 0.40534 0.0
C640 C 0.67077 0.96093 0.36914 0.0
C641 C 0.6912 0.9637 0.31829 0.0
C642 C 0.59371 0.97211 0.45567 0.0
C643 C 0.59216 0.98271 0.52301 0.0
C644 C 0.61704 0.97081 0.4193 0.0
C645 C 0.63936 0.98034 0.44899 0.0
C646 C 0.63792 0.99038 0.51733 0.0
C647 C 0.61461 0.99139 0.5542 0.0
H648 H 0.55406 0.68222 0.36306 0.0
H649 H 0.48124 0.65649 0.29043 0.0
H650 H 0.5533 0.64643 0.46761 0.0
H651 H 0.48103 0.62029 0.39072 0.0
H652 H 0.47611 0.56815 0.61025 0.0
H653 H 0.47687 0.60694 0.51916 0.0
H654 H 0.55767 0.60072 0.48999 0.0
H655 H 0.55704 0.56224 0.58516 0.0
C656 C 0.53776 0.66915 0.37015 0.0
C657 C 0.51778 0.67206 0.31839 0.0
C658 C 0.53749 0.6484 0.42918 0.0
C659 C 0.51723 0.6302 0.43743 0.0
C660 C 0.49684 0.63392 0.38719 0.0
C661 C 0.49703 0.65464 0.32907 0.0
C662 C 0.49406 0.57486 0.58408 0.0
C663 C 0.51649 0.56188 0.60442 0.0
C664 C 0.4945 0.5972 0.53154 0.0
C665 C 0.51731 0.60704 0.49653 0.0
C666 C 0.5398 0.59397 0.5165 0.0
C667 C 0.53941 0.5717 0.57026 0.0
H668 H 0.84198 0.54366 0.41813 0.0
H669 H 0.86102 0.46589 0.39571 0.0
H670 H 0.8762 0.54524 0.50953 0.0
H671 H 0.89574 0.46778 0.48221 0.0
H672 H 0.94709 0.46874 0.67501 0.0
H673 H 0.90819 0.4683 0.60472 0.0
H674 H 0.92138 0.54824 0.51243 0.0
H675 H 0.95996 0.54899 0.58765 0.0
C676 C 0.85316 0.52677 0.4339 0.0
C677 C 0.84894 0.50469 0.39973 0.0
C678 C 0.87304 0.5278 0.48515 0.0
C679 C 0.88901 0.50674 0.50295 0.0
C680 C 0.88379 0.48429 0.47117 0.0
C681 C 0.86392 0.48322 0.42095 0.0
C682 C 0.94183 0.48624 0.63939 0.0
C683 C 0.95687 0.50879 0.63566 0.0
C684 C 0.91943 0.48599 0.59887 0.0
C685 C 0.91167 0.50812 0.55173 0.0
C686 C 0.92657 0.53088 0.54866 0.0
C687 C 0.94885 0.53127 0.59089 0.0
loop_
_geom_bond_atom_site_label_1
_geom_bond_atom_site_label_2
_geom_bond_distance
_geom_bond_site_symmetry_2
_ccdc_geom_bond_type
H0 C3 0.929 . S
H1 C6 0.929 . S
H2 C8 0.930 . S
C3 H0 0.929 . S
C3 C4 1.398 . S
C3 C5 1.396 . S
C4 C3 1.398 . S
C4 C8 1.407 . S
C5 C3 1.396 . S
C5 C6 1.394 . S
C6 H1 0.929 . S
C6 C5 1.394 . S
C6 C7 1.382 . S
C7 C6 1.382 . S
C7 C8 1.392 . S
C7 N9 1.420 . S
C8 H2 0.930 . S
C8 C4 1.407 . S
C8 C7 1.392 . S
N9 C7 1.420 . S
N9 C10 1.244 . S
C10 N9 1.244 . S
H11 C14 0.929 . S
H12 C17 0.929 . S
H13 C19 0.930 . S
C14 H11 0.929 . S
C14 C15 1.398 . S
C14 C16 1.396 . S
C15 C14 1.398 . S
C15 C19 1.407 . S
C16 C14 1.396 . S
C16 C17 1.394 . S
C17 H12 0.929 . S
C17 C16 1.394 . S
C17 C18 1.382 . S
C18 C17 1.382 . S
C18 C19 1.392 . S
C18 N20 1.420 . S
C19 H13 0.930 . S
C19 C15 1.407 . S
C19 C18 1.392 . S
N20 C18 1.420 . S
N20 C21 1.244 . S
C21 N20 1.244 . S
H22 C25 0.929 . S
H23 C28 0.929 1_556 S
H24 C30 0.930 . S
C25 H22 0.929 . S
C25 C26 1.392 1_565 S
C25 C27 1.397 1_565 S
C26 C25 1.392 1_545 S
C26 C30 1.412 . S
C27 C25 1.397 1_545 S
C27 C28 1.396 . S
C28 H23 0.929 1_554 S
C28 C27 1.396 . S
C28 C29 1.382 . S
C29 C28 1.382 . S
C29 C30 1.392 . S
C29 N31 1.420 . S
C30 H24 0.930 . S
C30 C26 1.412 . S
C30 C29 1.392 . S
N31 C29 1.420 . S
N31 C32 1.228 1_545 S
C32 N31 1.228 1_565 S
H33 C36 0.929 . S
H34 C39 0.929 . S
H35 C41 0.930 . S
C36 H33 0.929 . S
C36 C37 1.398 . S
C36 C38 1.396 . S
C37 C36 1.398 . S
C37 C41 1.407 . S
C38 C36 1.396 . S
C38 C39 1.394 . S
C39 H34 0.929 . S
C39 C38 1.394 . S
C39 C40 1.382 . S
C40 C39 1.382 . S
C40 C41 1.392 . S
C40 N42 1.420 . S
C41 H35 0.930 . S
C41 C37 1.407 . S
C41 C40 1.392 . S
N42 C40 1.420 . S
N42 C43 1.244 . S
C43 N42 1.244 . S
H44 C47 0.929 . S
H45 C50 0.929 . S
H46 C52 0.930 . S
C47 H44 0.929 . S
C47 C48 1.398 . S
C47 C49 1.396 . S
C48 C47 1.398 . S
C48 C52 1.407 . S
C49 C47 1.396 . S
C49 C50 1.394 . S
C50 H45 0.929 . S
C50 C49 1.394 . S
C50 C51 1.382 . S
C51 C50 1.382 . S
C51 C52 1.392 . S
C51 N53 1.420 . S
C52 H46 0.930 . S
C52 C48 1.407 . S
C52 C51 1.392 . S
N53 C51 1.420 . S
N53 C54 1.244 . S
C54 N53 1.244 . S
H55 C58 0.929 . S
H56 C61 0.929 . S
H57 C63 0.930 . S
C58 H55 0.929 . S
C58 C59 1.398 . S
C58 C60 1.396 . S
C59 C58 1.398 . S
C59 C63 1.407 . S
C60 C58 1.396 . S
C60 C61 1.394 . S
C61 H56 0.929 . S
C61 C60 1.394 . S
C61 C62 1.382 . S
C62 C61 1.382 . S
C62 C63 1.392 . S
C62 N64 1.420 . S
C63 H57 0.930 . S
C63 C59 1.407 . S
C63 C62 1.392 . S
N64 C62 1.420 . S
N64 C65 1.244 . S
C65 N64 1.244 . S
H66 C69 0.929 . S
H67 C72 0.929 . S
H68 C74 0.930 . S
C69 H66 0.929 . S
C69 C70 1.399 1_565 S
C69 C71 1.390 1_565 S
C70 C69 1.399 1_545 S
C70 C74 1.418 . S
C71 C69 1.390 1_545 S
C71 C72 1.400 . S
C72 H67 0.929 . S
C72 C71 1.400 . S
C72 C73 1.382 . S
C73 C72 1.382 . S
C73 C74 1.392 . S
C73 N75 1.420 . S
C74 H68 0.930 . S
C74 C70 1.418 . S
C74 C73 1.392 . S
N75 C73 1.420 . S
N75 C76 1.239 1_545 S
C76 N75 1.239 1_565 S
H77 C80 0.929 . S
H78 C83 0.929 . S
H79 C85 0.930 . S
C80 H77 0.929 . S
C80 C81 1.398 . S
C80 C82 1.396 . S
C81 C80 1.398 . S
C81 C85 1.407 . S
C82 C80 1.396 . S
C82 C83 1.394 . S
C83 H78 0.929 . S
C83 C82 1.394 . S
C83 C84 1.382 . S
C84 C83 1.382 . S
C84 C85 1.392 . S
C84 N86 1.420 . S
C85 H79 0.930 . S
C85 C81 1.407 . S
C85 C84 1.392 . S
N86 C84 1.420 . S
N86 C87 1.244 . S
C87 N86 1.244 . S
Co88 N93 2.057 . S
Co88 O105 2.021 . S
Co88 O108 2.062 . S
Co88 O112 2.117 1_455 S
Co88 O113 2.020 1_545 S
C89 O109 1.259 1_545 S
C89 O112 1.258 . S
Co90 N99 2.057 . S
Co90 O106 2.071 1_655 S
Co90 O107 2.015 1_665 S
Co90 O109 2.065 . S
Co90 O114 2.063 . S
C91 N93 1.316 . S
C91 N94 1.347 1_556 S
C91 H96 0.931 . S
C92 N93 1.375 1_655 S
C92 C95 1.350 1_656 S
C92 H97 0.930 . S
N93 Co88 2.057 . S
N93 C91 1.316 . S
N93 C92 1.375 1_455 S
N94 C91 1.347 1_554 S
N94 C95 1.373 . S
C95 C92 1.350 1_454 S
C95 N94 1.373 . S
C95 H116 0.931 1_455 S
H96 C91 0.931 . S
H97 C92 0.930 . S
C98 O105 1.259 1_565 S
C98 O106 1.258 . S
N99 Co90 2.057 . S
N99 C100 1.316 . S
N99 C101 1.375 1_655 S
C100 N99 1.316 . S
C100 N102 1.347 . S
C100 H111 0.931 . S
C101 N99 1.375 1_455 S
C101 C103 1.350 . S
C101 H110 0.930 . S
N102 C100 1.347 . S
N102 C103 1.373 1_655 S
C103 C101 1.350 . S
C103 N102 1.373 1_455 S
C103 H117 0.931 . S
C104 O107 1.256 . S
C104 O108 1.255 . S
O105 Co88 2.021 . S
O105 C98 1.259 1_545 S
O106 Co90 2.071 1_455 S
O106 C98 1.258 . S
O107 Co90 2.015 1_445 S
O107 C104 1.256 . S
O108 Co88 2.062 . S
O108 C104 1.255 . S
O109 C89 1.259 1_565 S
O109 Co90 2.065 . S
H110 C101 0.930 . S
H111 C100 0.931 . S
O112 Co88 2.117 1_655 S
O112 C89 1.258 . S
O113 Co88 2.020 1_565 S
O113 C115 1.256 . S
O114 Co90 2.063 . S
O114 C115 1.255 1_655 S
C115 O113 1.256 . S
C115 O114 1.255 1_455 S
H116 C95 0.931 1_655 S
H117 C103 0.931 . S
Co118 N123 2.057 1_545 S
Co118 O135 2.021 . S
Co118 O138 2.067 . S
Co118 O142 2.117 1_545 S
Co118 O143 2.020 . S
C119 O139 1.259 . S
C119 O142 1.258 . S
Co120 N129 2.057 1_565 S
Co120 O136 2.117 1_565 S
Co120 O137 2.020 . S
Co120 O139 2.021 . S
Co120 O144 2.065 . S
C121 N123 1.316 1_545 S
C121 N124 1.347 1_556 S
C121 H126 0.931 . S
C122 N123 1.375 1_554 S
C122 C125 1.350 . S
C122 H127 0.930 1_554 S
N123 Co118 2.057 1_565 S
N123 C121 1.316 1_565 S
N123 C122 1.375 1_556 S
N124 C121 1.347 1_554 S
N124 C125 1.373 1_545 S
C125 C122 1.350 . S
C125 N124 1.373 1_565 S
C125 H146 0.931 . S
H126 C121 0.931 . S
H127 C122 0.930 1_556 S
C128 O135 1.259 . S
C128 O136 1.258 . S
N129 Co120 2.057 1_545 S
N129 C130 1.316 1_545 S
N129 C131 1.375 . S
C130 N129 1.316 1_565 S
C130 N132 1.347 . S
C130 H141 0.931 . S
C131 N129 1.375 . S
C131 C133 1.350 . S
C131 H140 0.930 . S
N132 C130 1.347 . S
N132 C133 1.373 1_565 S
C133 C131 1.350 . S
C133 N132 1.373 1_545 S
C133 H147 0.931 . S
C134 O137 1.256 . S
C134 O138 1.245 1_565 S
O135 Co118 2.021 . S
O135 C128 1.259 . S
O136 Co120 2.117 1_545 S
O136 C128 1.258 . S
O137 Co120 2.020 . S
O137 C134 1.256 . S
O138 Co118 2.067 . S
O138 C134 1.245 1_545 S
O139 C119 1.259 . S
O139 Co120 2.021 . S
H140 C131 0.930 . S
H141 C130 0.931 . S
O142 Co118 2.117 1_565 S
O142 C119 1.258 . S
O143 Co118 2.020 . S
O143 C145 1.256 . S
O144 Co120 2.065 . S
O144 C145 1.249 1_565 S
C145 O143 1.256 . S
C145 O144 1.249 1_545 S
H146 C125 0.931 . S
H147 C133 0.931 . S
Co148 N153 2.057 . S
Co148 O165 2.021 . S
Co148 O168 2.062 . S
Co148 O172 2.117 . S
Co148 O173 2.020 . S
C149 O169 1.259 . S
C149 O172 1.258 . S
Co150 N159 2.057 . S
Co150 O166 2.117 . S
Co150 O167 2.020 . S
Co150 O169 2.021 . S
Co150 O174 2.062 . S
C151 N153 1.316 . S
C151 N154 1.347 . S
C151 H156 0.931 . S
C152 N153 1.375 . S
C152 C155 1.350 . S
C152 H157 0.930 . S
N153 Co148 2.057 . S
N153 C151 1.316 . S
N153 C152 1.375 . S
N154 C151 1.347 . S
N154 C155 1.373 . S
C155 C152 1.350 . S
C155 N154 1.373 . S
C155 H176 0.931 . S
H156 C151 0.931 . S
H157 C152 0.930 . S
C158 O165 1.259 . S
C158 O166 1.258 . S
N159 Co150 2.057 . S
N159 C160 1.316 . S
N159 C161 1.375 . S
C160 N159 1.316 . S
C160 N162 1.347 . S
C160 H171 0.931 . S
C161 N159 1.375 . S
C161 C163 1.350 . S
C161 H170 0.930 . S
N162 C160 1.347 . S
N162 C163 1.373 . S
C163 C161 1.350 . S
C163 N162 1.373 . S
C163 H177 0.931 . S
C164 O167 1.256 . S
C164 O168 1.255 . S
O165 Co148 2.021 . S
O165 C158 1.259 . S
O166 Co150 2.117 . S
O166 C158 1.258 . S
O167 Co150 2.020 . S
O167 C164 1.256 . S
O168 Co148 2.062 . S
O168 C164 1.255 . S
O169 C149 1.259 . S
O169 Co150 2.021 . S
H170 C161 0.930 . S
H171 C160 0.931 . S
O172 Co148 2.117 . S
O172 C149 1.258 . S
O173 Co148 2.020 . S
O173 C175 1.256 . S
O174 Co150 2.062 . S
O174 C175 1.255 . S
C175 O173 1.256 . S
C175 O174 1.255 . S
H176 C155 0.931 . S
H177 C163 0.931 . S
Co178 N183 2.057 . S
Co178 O195 2.021 1_455 S
Co178 O198 2.062 1_455 S
Co178 O202 2.117 . S
Co178 O203 2.020 . S
C179 O199 1.259 . S
C179 O202 1.258 . S
Co180 N189 2.057 . S
Co180 O196 2.117 1_455 S
Co180 O197 2.020 1_455 S
Co180 O199 2.021 . S
Co180 O204 2.062 . S
C181 N183 1.316 1_655 S
C181 N184 1.347 1_655 S
C181 H186 0.931 . S
C182 N183 1.375 . S
C182 C185 1.350 . S
C182 H187 0.930 . S
N183 Co178 2.057 . S
N183 C181 1.316 1_455 S
N183 C182 1.375 . S
N184 C181 1.347 1_455 S
N184 C185 1.373 . S
C185 C182 1.350 . S
C185 N184 1.373 . S
C185 H206 0.931 . S
H186 C181 0.931 . S
H187 C182 0.930 . S
C188 O195 1.259 . S
C188 O196 1.258 . S
N189 Co180 2.057 . S
N189 C190 1.316 . S
N189 C191 1.375 1_455 S
C190 N189 1.316 . S
C190 N192 1.347 . S
C190 H201 0.931 . S
C191 N189 1.375 1_655 S
C191 C193 1.350 . S
C191 H200 0.930 . S
N192 C190 1.347 . S
N192 C193 1.373 1_455 S
C193 C191 1.350 . S
C193 N192 1.373 1_655 S
C193 H207 0.931 . S
C194 O197 1.256 . S
C194 O198 1.255 . S
O195 Co178 2.021 1_655 S
O195 C188 1.259 . S
O196 Co180 2.117 1_655 S
O196 C188 1.258 . S
O197 Co180 2.020 1_655 S
O197 C194 1.256 . S
O198 Co178 2.062 1_655 S
O198 C194 1.255 . S
O199 C179 1.259 . S
O199 Co180 2.021 . S
H200 C191 0.930 . S
H201 C190 0.931 . S
O202 Co178 2.117 . S
O202 C179 1.258 . S
O203 Co178 2.020 . S
O203 C205 1.256 . S
O204 Co180 2.062 . S
O204 C205 1.255 . S
C205 O203 1.256 . S
C205 O204 1.255 . S
H206 C185 0.931 . S
H207 C193 0.931 . S
H208 C216 0.947 . S
H209 C221 0.952 . S
H210 C218 0.950 . S
H211 C220 0.952 . S
H212 C222 0.950 . S
H213 C224 0.950 . S
H214 C226 0.950 . S
H215 C227 0.950 . S
C216 H208 0.947 . S
C216 C217 1.388 . S
C216 C218 1.391 1_545 S
C217 C216 1.388 . S
C217 C221 1.392 . S
C218 H210 0.950 . S
C218 C216 1.391 1_565 S
C218 C219 1.400 . S
C219 C218 1.400 . S
C219 C220 1.396 . S
C219 C225 1.491 . S
C220 H211 0.952 . S
C220 C219 1.396 . S
C220 C221 1.392 1_565 S
C221 H209 0.952 . S
C221 C217 1.392 . S
C221 C220 1.392 1_545 S
C222 H212 0.950 . S
C222 C223 1.386 . S
C222 C224 1.391 . S
C223 C222 1.386 . S
C223 C227 1.393 . S
C224 H213 0.950 . S
C224 C222 1.391 . S
C224 C225 1.400 . S
C225 C219 1.491 . S
C225 C224 1.400 . S
C225 C226 1.398 . S
C226 H214 0.950 . S
C226 C225 1.398 . S
C226 C227 1.391 . S
C227 H215 0.950 . S
C227 C223 1.393 . S
C227 C226 1.391 . S
H228 C236 0.950 . S
H229 C241 0.950 . S
H230 C238 0.950 . S
H231 C240 0.950 . S
H232 C242 0.950 . S
H233 C244 0.950 . S
H234 C246 0.950 . S
H235 C247 0.950 . S
C236 H228 0.950 . S
C236 C237 1.386 . S
C236 C238 1.391 . S
C237 C236 1.386 . S
C237 C241 1.393 . S
C238 H230 0.950 . S
C238 C236 1.391 . S
C238 C239 1.400 . S
C239 C238 1.400 . S
C239 C240 1.398 . S
C239 C245 1.491 . S
C240 H231 0.950 . S
C240 C239 1.398 . S
C240 C241 1.391 . S
C241 H229 0.950 . S
C241 C237 1.393 . S
C241 C240 1.391 . S
C242 H232 0.950 . S
C242 C243 1.386 . S
C242 C244 1.391 . S
C243 C242 1.386 . S
C243 C247 1.393 . S
C244 H233 0.950 . S
C244 C242 1.391 . S
C244 C245 1.400 . S
C245 C239 1.491 . S
C245 C244 1.400 . S
C245 C246 1.398 . S
C246 H234 0.950 . S
C246 C245 1.398 . S
C246 C247 1.391 . S
C247 H235 0.950 . S
C247 C243 1.393 . S
C247 C246 1.391 . S
H248 C256 0.950 . S
H249 C261 0.950 . S
H250 C258 0.950 . S
H251 C260 0.950 . S
H252 C262 0.950 . S
H253 C264 0.950 . S
H254 C266 0.950 . S
H255 C267 0.950 . S
C256 H248 0.950 . S
C256 C257 1.386 . S
C256 C258 1.391 . S
C257 C256 1.386 . S
C257 C261 1.393 . S
C258 H250 0.950 . S
C258 C256 1.391 . S
C258 C259 1.400 . S
C259 C258 1.400 . S
C259 C260 1.398 . S
C259 C265 1.491 . S
C260 H251 0.950 . S
C260 C259 1.398 . S
C260 C261 1.391 . S
C261 H249 0.950 . S
C261 C257 1.393 . S
C261 C260 1.391 . S
C262 H252 0.950 . S
C262 C263 1.386 . S
C262 C264 1.391 . S
C263 C262 1.386 . S
C263 C267 1.393 . S
C264 H253 0.950 . S
C264 C262 1.391 . S
C264 C265 1.400 . S
C265 C259 1.491 . S
C265 C264 1.400 . S
C265 C266 1.398 . S
C266 H254 0.950 . S
C266 C265 1.398 . S
C266 C267 1.391 . S
C267 H255 0.950 . S
C267 C263 1.393 . S
C267 C266 1.391 . S
H268 C276 0.950 . S
H269 C281 0.950 . S
H270 C278 0.950 . S
H271 C280 0.950 . S
H272 C282 0.950 . S
H273 C284 0.950 . S
H274 C286 0.950 . S
H275 C287 0.950 . S
C276 H268 0.950 . S
C276 C277 1.386 . S
C276 C278 1.391 . S
C277 C276 1.386 . S
C277 C281 1.393 . S
C278 H270 0.950 . S
C278 C276 1.391 . S
C278 C279 1.400 . S
C279 C278 1.400 . S
C279 C280 1.398 . S
C279 C285 1.491 . S
C280 H271 0.950 . S
C280 C279 1.398 . S
C280 C281 1.391 . S
C281 H269 0.950 . S
C281 C277 1.393 . S
C281 C280 1.391 . S
C282 H272 0.950 . S
C282 C283 1.386 . S
C282 C284 1.391 . S
C283 C282 1.386 . S
C283 C287 1.393 . S
C284 H273 0.950 . S
C284 C282 1.391 . S
C284 C285 1.400 . S
C285 C279 1.491 . S
C285 C284 1.400 . S
C285 C286 1.398 . S
C286 H274 0.950 . S
C286 C285 1.398 . S
C286 C287 1.391 . S
C287 H275 0.950 . S
C287 C283 1.393 . S
C287 C286 1.391 . S
H288 C296 0.950 1_554 S
H289 C301 0.950 . S
H290 C298 0.950 . S
H291 C300 0.950 . S
H292 C302 0.950 . S
H293 C304 0.950 . S
H294 C306 0.950 . S
H295 C307 0.950 . S
C296 H288 0.950 1_556 S
C296 C297 1.363 1_565 S
C296 C298 1.391 . S
C297 C296 1.363 1_545 S
C297 C301 1.414 . S
C298 H290 0.950 . S
C298 C296 1.391 . S
C298 C299 1.400 1_565 S
C299 C298 1.400 1_545 S
C299 C300 1.398 . S
C299 C305 1.491 . S
C300 H291 0.950 . S
C300 C299 1.398 . S
C300 C301 1.391 . S
C301 H289 0.950 . S
C301 C297 1.414 . S
C301 C300 1.391 . S
C302 H292 0.950 . S
C302 C303 1.386 . S
C302 C304 1.391 . S
C303 C302 1.386 . S
C303 C307 1.393 1_545 S
C304 H293 0.950 . S
C304 C302 1.391 . S
C304 C305 1.400 . S
C305 C299 1.491 . S
C305 C304 1.400 . S
C305 C306 1.398 1_545 S
C306 H294 0.950 . S
C306 C305 1.398 1_565 S
C306 C307 1.391 . S
C307 H295 0.950 . S
C307 C303 1.393 1_565 S
C307 C306 1.391 . S
H308 C316 0.950 . S
H309 C321 0.950 . S
H310 C318 0.950 . S
H311 C320 0.950 . S
H312 C322 0.950 . S
H313 C324 0.950 . S
H314 C326 0.950 . S
H315 C327 0.950 . S
C316 H308 0.950 . S
C316 C317 1.386 1_556 S
C316 C318 1.391 . S
C317 C316 1.386 1_554 S
C317 C321 1.393 . S
C318 H310 0.950 . S
C318 C316 1.391 . S
C318 C319 1.400 . S
C319 C318 1.400 . S
C319 C320 1.398 1_556 S
C319 C325 1.491 . S
C320 H311 0.950 . S
C320 C319 1.398 1_554 S
C320 C321 1.391 . S
C321 H309 0.950 . S
C321 C317 1.393 . S
C321 C320 1.391 . S
C322 H312 0.950 . S
C322 C323 1.386 . S
C322 C324 1.391 . S
C323 C322 1.386 . S
C323 C327 1.393 . S
C324 H313 0.950 . S
C324 C322 1.391 . S
C324 C325 1.400 . S
C325 C319 1.491 . S
C325 C324 1.400 . S
C325 C326 1.398 . S
C326 H314 0.950 . S
C326 C325 1.398 . S
C326 C327 1.391 . S
C327 H315 0.950 . S
C327 C323 1.393 . S
C327 C326 1.391 . S
H328 C336 0.950 . S
H329 C341 0.950 . S
H330 C338 0.950 . S
H331 C340 0.950 . S
H332 C342 0.950 . S
H333 C344 0.950 1_554 S
H334 C346 0.950 . S
H335 C347 0.950 . S
C336 H328 0.950 . S
C336 C337 1.386 . S
C336 C338 1.391 1_554 S
C337 C336 1.386 . S
C337 C341 1.393 . S
C338 H330 0.950 . S
C338 C336 1.391 1_556 S
C338 C339 1.400 1_556 S
C339 C338 1.400 1_554 S
C339 C340 1.398 . S
C339 C345 1.491 1_554 S
C340 H331 0.950 . S
C340 C339 1.398 . S
C340 C341 1.391 . S
C341 H329 0.950 . S
C341 C337 1.393 . S
C341 C340 1.391 . S
C342 H332 0.950 . S
C342 C343 1.386 . S
C342 C344 1.391 . S
C343 C342 1.386 . S
C343 C347 1.393 . S
C344 H333 0.950 1_556 S
C344 C342 1.391 . S
C344 C345 1.400 . S
C345 C339 1.491 1_556 S
C345 C344 1.400 . S
C345 C346 1.398 . S
C346 H334 0.950 . S
C346 C345 1.398 . S
C346 C347 1.391 . S
C347 H335 0.950 . S
C347 C343 1.393 . S
C347 C346 1.391 . S
H348 C356 0.950 . S
H349 C361 0.950 . S
H350 C358 0.950 . S
H351 C360 0.950 1_455 S
H352 C362 0.950 . S
H353 C364 0.950 . S
H354 C366 0.950 . S
H355 C367 0.950 . S
C356 H348 0.950 . S
C356 C357 1.386 . S
C356 C358 1.391 1_554 S
C357 C356 1.386 . S
C357 C361 1.393 . S
C358 H350 0.950 . S
C358 C356 1.391 1_556 S
C358 C359 1.400 . S
C359 C358 1.400 . S
C359 C360 1.398 . S
C359 C365 1.491 . S
C360 H351 0.950 1_655 S
C360 C359 1.398 . S
C360 C361 1.391 1_556 S
C361 H349 0.950 . S
C361 C357 1.393 . S
C361 C360 1.391 1_554 S
C362 H352 0.950 . S
C362 C363 1.386 1_455 S
C362 C364 1.391 . S
C363 C362 1.386 1_655 S
C363 C367 1.393 . S
C364 H353 0.950 . S
C364 C362 1.391 . S
C364 C365 1.400 1_455 S
C365 C359 1.491 . S
C365 C364 1.400 1_655 S
C365 C366 1.398 . S
C366 H354 0.950 . S
C366 C365 1.398 . S
C366 C367 1.391 . S
C367 H355 0.950 . S
C367 C363 1.393 . S
C367 C366 1.391 . S
H368 C376 0.950 . S
H369 C381 0.950 . S
H370 C378 0.950 . S
H371 C380 0.950 . S
H372 C382 0.950 . S
H373 C384 0.950 . S
H374 C386 0.950 . S
H375 C387 0.950 . S
C376 H368 0.950 . S
C376 C377 1.386 . S
C376 C378 1.391 . S
C377 C376 1.386 . S
C377 C381 1.393 . S
C378 H370 0.950 . S
C378 C376 1.391 . S
C378 C379 1.400 . S
C379 C378 1.400 . S
C379 C380 1.398 . S
C379 C385 1.491 . S
C380 H371 0.950 . S
C380 C379 1.398 . S
C380 C381 1.391 . S
C381 H369 0.950 . S
C381 C377 1.393 . S
C381 C380 1.391 . S
C382 H372 0.950 . S
C382 C383 1.386 . S
C382 C384 1.391 . S
C383 C382 1.386 . S
C383 C387 1.393 . S
C384 H373 0.950 . S
C384 C382 1.391 . S
C384 C385 1.400 . S
C385 C379 1.491 . S
C385 C384 1.400 . S
C385 C386 1.398 . S
C386 H374 0.950 . S
C386 C385 1.398 . S
C386 C387 1.391 . S
C387 H375 0.950 . S
C387 C383 1.393 . S
C387 C386 1.391 . S
H388 C396 0.950 . S
H389 C401 0.950 . S
H390 C398 0.950 . S
H391 C400 0.950 . S
H392 C402 0.950 . S
H393 C404 0.950 . S
H394 C406 0.950 . S
H395 C407 0.950 . S
C396 H388 0.950 . S
C396 C397 1.371 1_545 S
C396 C398 1.391 . S
C397 C396 1.371 1_565 S
C397 C401 1.409 . S
C398 H390 0.950 . S
C398 C396 1.391 . S
C398 C399 1.400 1_545 S
C399 C398 1.400 1_565 S
C399 C400 1.398 . S
C399 C405 1.491 . S
C400 H391 0.950 . S
C400 C399 1.398 . S
C400 C401 1.391 . S
C401 H389 0.950 . S
C401 C397 1.409 . S
C401 C400 1.391 . S
C402 H392 0.950 . S
C402 C403 1.386 . S
C402 C404 1.391 . S
C403 C402 1.386 . S
C403 C407 1.393 1_565 S
C404 H393 0.950 . S
C404 C402 1.391 . S
C404 C405 1.400 . S
C405 C399 1.491 . S
C405 C404 1.400 . S
C405 C406 1.398 1_565 S
C406 H394 0.950 . S
C406 C405 1.398 1_545 S
C406 C407 1.391 . S
C407 H395 0.950 . S
C407 C403 1.393 1_545 S
C407 C406 1.391 . S
H408 C416 0.950 . S
H409 C421 0.950 . S
H410 C418 0.950 . S
H411 C420 0.950 . S
H412 C422 0.950 . S
H413 C424 0.950 . S
H414 C426 0.950 . S
H415 C427 0.950 . S
C416 H408 0.950 . S
C416 C417 1.386 . S
C416 C418 1.391 . S
C417 C416 1.386 . S
C417 C421 1.393 . S
C418 H410 0.950 . S
C418 C416 1.391 . S
C418 C419 1.400 . S
C419 C418 1.400 . S
C419 C420 1.398 . S
C419 C425 1.491 . S
C420 H411 0.950 . S
C420 C419 1.398 . S
C420 C421 1.391 . S
C421 H409 0.950 . S
C421 C417 1.393 . S
C421 C420 1.391 . S
C422 H412 0.950 . S
C422 C423 1.386 . S
C422 C424 1.391 . S
C423 C422 1.386 . S
C423 C427 1.393 . S
C424 H413 0.950 . S
C424 C422 1.391 . S
C424 C425 1.400 . S
C425 C419 1.491 . S
C425 C424 1.400 . S
C425 C426 1.398 . S
C426 H414 0.950 . S
C426 C425 1.398 . S
C426 C427 1.391 . S
C427 H415 0.950 . S
C427 C423 1.393 . S
C427 C426 1.391 . S
H428 C436 0.950 . S
H429 C441 0.950 . S
H430 C438 0.950 . S
H431 C440 0.950 . S
H432 C442 0.950 . S
H433 C444 0.950 . S
H434 C446 0.950 . S
H435 C447 0.950 . S
C436 H428 0.950 . S
C436 C437 1.386 . S
C436 C438 1.391 . S
C437 C436 1.386 . S
C437 C441 1.393 . S
C438 H430 0.950 . S
C438 C436 1.391 . S
C438 C439 1.400 . S
C439 C438 1.400 . S
C439 C440 1.398 . S
C439 C445 1.491 . S
C440 H431 0.950 . S
C440 C439 1.398 . S
C440 C441 1.391 . S
C441 H429 0.950 . S
C441 C437 1.393 . S
C441 C440 1.391 . S
C442 H432 0.950 . S
C442 C443 1.386 . S
C442 C444 1.391 . S
C443 C442 1.386 . S
C443 C447 1.393 . S
C444 H433 0.950 . S
C444 C442 1.391 . S
C444 C445 1.400 . S
C445 C439 1.491 . S
C445 C444 1.400 . S
C445 C446 1.398 . S
C446 H434 0.950 . S
C446 C445 1.398 . S
C446 C447 1.391 . S
C447 H435 0.950 . S
C447 C443 1.393 . S
C447 C446 1.391 . S
H448 C456 0.950 . S
H449 C461 0.950 . S
H450 C458 0.950 . S
H451 C460 0.950 . S
H452 C462 0.950 . S
H453 C464 0.950 . S
H454 C466 0.951 1_454 S
H455 C467 0.950 . S
C456 H448 0.950 . S
C456 C457 1.386 . S
C456 C458 1.391 . S
C457 C456 1.386 . S
C457 C461 1.393 1_554 S
C458 H450 0.950 . S
C458 C456 1.391 . S
C458 C459 1.400 1_554 S
C459 C458 1.400 1_556 S
C459 C460 1.398 . S
C459 C465 1.491 . S
C460 H451 0.950 . S
C460 C459 1.398 . S
C460 C461 1.391 . S
C461 H449 0.950 . S
C461 C457 1.393 1_556 S
C461 C460 1.391 . S
C462 H452 0.950 . S
C462 C463 1.386 1_655 S
C462 C464 1.391 . S
C463 C462 1.386 1_455 S
C463 C467 1.393 . S
C464 H453 0.950 . S
C464 C462 1.391 . S
C464 C465 1.400 . S
C465 C459 1.491 . S
C465 C464 1.400 . S
C465 C466 1.397 . S
C466 H454 0.951 1_656 S
C466 C465 1.397 . S
C466 C467 1.392 1_655 S
C467 H455 0.950 . S
C467 C463 1.393 . S
C467 C466 1.392 1_455 S
H468 C476 0.950 . S
H469 C481 0.950 1_554 S
H470 C478 0.950 . S
H471 C480 0.950 . S
H472 C482 0.950 . S
H473 C484 0.950 . S
H474 C486 0.950 . S
H475 C487 0.950 . S
C476 H468 0.950 . S
C476 C477 1.387 . S
C476 C478 1.391 . S
C477 C476 1.387 . S
C477 C481 1.392 1_565 S
C478 H470 0.950 . S
C478 C476 1.391 . S
C478 C479 1.400 1_565 S
C479 C478 1.400 1_545 S
C479 C480 1.398 . S
C479 C485 1.491 . S
C480 H471 0.950 . S
C480 C479 1.398 . S
C480 C481 1.391 . S
C481 H469 0.950 1_556 S
C481 C477 1.392 1_545 S
C481 C480 1.391 . S
C482 H472 0.950 . S
C482 C483 1.386 . S
C482 C484 1.391 . S
C483 C482 1.386 . S
C483 C487 1.393 1_545 S
C484 H473 0.950 . S
C484 C482 1.391 . S
C484 C485 1.400 . S
C485 C479 1.491 . S
C485 C484 1.400 . S
C485 C486 1.398 1_545 S
C486 H474 0.950 . S
C486 C485 1.398 1_565 S
C486 C487 1.391 . S
C487 H475 0.950 . S
C487 C483 1.393 1_565 S
C487 C486 1.391 . S
H488 C496 0.950 . S
H489 C501 0.950 . S
H490 C498 0.950 . S
H491 C500 0.950 . S
H492 C502 0.950 . S
H493 C504 0.950 . S
H494 C506 0.950 1_554 S
H495 C507 0.950 . S
C496 H488 0.950 . S
C496 C497 1.386 . S
C496 C498 1.391 . S
C497 C496 1.386 . S
C497 C501 1.393 1_554 S
C498 H490 0.950 . S
C498 C496 1.391 . S
C498 C499 1.400 1_554 S
C499 C498 1.400 1_556 S
C499 C500 1.398 . S
C499 C505 1.491 . S
C500 H491 0.950 . S
C500 C499 1.398 . S
C500 C501 1.391 . S
C501 H489 0.950 . S
C501 C497 1.393 1_556 S
C501 C500 1.391 . S
C502 H492 0.950 . S
C502 C503 1.386 . S
C502 C504 1.391 . S
C503 C502 1.386 . S
C503 C507 1.393 . S
C504 H493 0.950 . S
C504 C502 1.391 . S
C504 C505 1.400 . S
C505 C499 1.491 . S
C505 C504 1.400 . S
C505 C506 1.398 . S
C506 H494 0.950 1_556 S
C506 C505 1.398 . S
C506 C507 1.391 . S
C507 H495 0.950 . S
C507 C503 1.393 . S
C507 C506 1.391 . S
H508 C516 0.950 . S
H509 C521 0.950 . S
H510 C518 0.950 1_556 S
H511 C520 0.950 . S
H512 C522 0.950 . S
H513 C524 0.950 1_554 S
H514 C526 0.950 . S
H515 C527 0.950 . S
C516 H508 0.950 . S
C516 C517 1.386 . S
C516 C518 1.391 . S
C517 C516 1.386 . S
C517 C521 1.393 . S
C518 H510 0.950 1_554 S
C518 C516 1.391 . S
C518 C519 1.400 . S
C519 C518 1.400 . S
C519 C520 1.398 . S
C519 C525 1.491 1_554 S
C520 H511 0.950 . S
C520 C519 1.398 . S
C520 C521 1.391 . S
C521 H509 0.950 . S
C521 C517 1.393 . S
C521 C520 1.391 . S
C522 H512 0.950 . S
C522 C523 1.386 . S
C522 C524 1.391 . S
C523 C522 1.386 . S
C523 C527 1.393 . S
C524 H513 0.950 1_556 S
C524 C522 1.391 . S
C524 C525 1.400 . S
C525 C519 1.491 1_556 S
C525 C524 1.400 . S
C525 C526 1.398 . S
C526 H514 0.950 . S
C526 C525 1.398 . S
C526 C527 1.391 . S
C527 H515 0.950 . S
C527 C523 1.393 . S
C527 C526 1.391 . S
H528 C536 0.950 . S
H529 C541 0.950 . S
H530 C538 0.950 . S
H531 C540 0.950 . S
H532 C542 0.950 . S
H533 C544 0.950 . S
H534 C546 0.950 . S
H535 C547 0.950 . S
C536 H528 0.950 . S
C536 C537 1.386 . S
C536 C538 1.391 . S
C537 C536 1.386 . S
C537 C541 1.393 . S
C538 H530 0.950 . S
C538 C536 1.391 . S
C538 C539 1.400 . S
C539 C538 1.400 . S
C539 C540 1.398 . S
C539 C545 1.491 . S
C540 H531 0.950 . S
C540 C539 1.398 . S
C540 C541 1.391 . S
C541 H529 0.950 . S
C541 C537 1.393 . S
C541 C540 1.391 . S
C542 H532 0.950 . S
C542 C543 1.386 . S
C542 C544 1.391 . S
C543 C542 1.386 . S
C543 C547 1.393 . S
C544 H533 0.950 . S
C544 C542 1.391 . S
C544 C545 1.400 . S
C545 C539 1.491 . S
C545 C544 1.400 . S
C545 C546 1.398 . S
C546 H534 0.950 . S
C546 C545 1.398 . S
C546 C547 1.391 . S
C547 H535 0.950 . S
C547 C543 1.393 . S
C547 C546 1.391 . S
H548 C556 0.950 . S
H549 C561 0.950 . S
H550 C558 0.950 . S
H551 C560 0.950 . S
H552 C562 0.950 . S
H553 C564 0.950 . S
H554 C566 0.950 . S
H555 C567 0.950 . S
C556 H548 0.950 . S
C556 C557 1.357 1_565 S
C556 C558 1.391 . S
C557 C556 1.357 1_545 S
C557 C561 1.420 . S
C558 H550 0.950 . S
C558 C556 1.391 . S
C558 C559 1.400 1_565 S
C559 C558 1.400 1_545 S
C559 C560 1.398 . S
C559 C565 1.491 . S
C560 H551 0.950 . S
C560 C559 1.398 . S
C560 C561 1.391 . S
C561 H549 0.950 . S
C561 C557 1.420 . S
C561 C560 1.391 . S
C562 H552 0.950 . S
C562 C563 1.386 . S
C562 C564 1.391 . S
C563 C562 1.386 . S
C563 C567 1.393 1_545 S
C564 H553 0.950 . S
C564 C562 1.391 . S
C564 C565 1.400 . S
C565 C559 1.491 . S
C565 C564 1.400 . S
C565 C566 1.398 1_545 S
C566 H554 0.950 . S
C566 C565 1.398 1_565 S
C566 C567 1.391 . S
C567 H555 0.950 . S
C567 C563 1.393 1_565 S
C567 C566 1.391 . S
H568 C576 0.950 . S
H569 C581 0.950 . S
H570 C578 0.950 . S
H571 C580 0.950 . S
H572 C582 0.950 . S
H573 C584 0.950 . S
H574 C586 0.950 . S
H575 C587 0.950 . S
C576 H568 0.950 . S
C576 C577 1.386 . S
C576 C578 1.391 . S
C577 C576 1.386 . S
C577 C581 1.393 . S
C578 H570 0.950 . S
C578 C576 1.391 . S
C578 C579 1.400 . S
C579 C578 1.400 . S
C579 C580 1.398 . S
C579 C585 1.491 . S
C580 H571 0.950 . S
C580 C579 1.398 . S
C580 C581 1.391 . S
C581 H569 0.950 . S
C581 C577 1.393 . S
C581 C580 1.391 . S
C582 H572 0.950 . S
C582 C583 1.386 1_554 S
C582 C584 1.391 . S
C583 C582 1.386 1_556 S
C583 C587 1.393 . S
C584 H573 0.950 . S
C584 C582 1.391 . S
C584 C585 1.400 . S
C585 C579 1.491 . S
C585 C584 1.400 . S
C585 C586 1.398 . S
C586 H574 0.950 . S
C586 C585 1.398 . S
C586 C587 1.391 1_554 S
C587 H575 0.950 . S
C587 C583 1.393 . S
C587 C586 1.391 1_556 S
H588 C596 0.950 . S
H589 C601 0.950 . S
H590 C598 0.950 . S
H591 C600 0.950 . S
H592 C602 0.950 . S
H593 C604 0.950 1_556 S
H594 C606 0.950 . S
H595 C607 0.950 . S
C596 H588 0.950 . S
C596 C597 1.386 . S
C596 C598 1.391 . S
C597 C596 1.386 . S
C597 C601 1.393 . S
C598 H590 0.950 . S
C598 C596 1.391 . S
C598 C599 1.400 . S
C599 C598 1.400 . S
C599 C600 1.398 . S
C599 C605 1.491 . S
C600 H591 0.950 . S
C600 C599 1.398 . S
C600 C601 1.391 . S
C601 H589 0.950 . S
C601 C597 1.393 . S
C601 C600 1.391 . S
C602 H592 0.950 . S
C602 C603 1.386 . S
C602 C604 1.391 1_556 S
C603 C602 1.386 . S
C603 C607 1.393 1_556 S
C604 H593 0.950 1_554 S
C604 C602 1.391 1_554 S
C604 C605 1.400 . S
C605 C599 1.491 . S
C605 C604 1.400 . S
C605 C606 1.398 . S
C606 H594 0.950 . S
C606 C605 1.398 . S
C606 C607 1.391 . S
C607 H595 0.950 . S
C607 C603 1.393 1_554 S
C607 C606 1.391 . S
H608 C616 0.950 . S
H609 C621 0.950 . S
H610 C618 0.950 . S
H611 C620 0.950 . S
H612 C622 0.950 . S
H613 C624 0.950 . S
H614 C626 0.950 . S
H615 C627 0.950 . S
C616 H608 0.950 . S
C616 C617 1.386 . S
C616 C618 1.391 . S
C617 C616 1.386 . S
C617 C621 1.393 . S
C618 H610 0.950 . S
C618 C616 1.391 . S
C618 C619 1.400 . S
C619 C618 1.400 . S
C619 C620 1.398 . S
C619 C625 1.491 . S
C620 H611 0.950 . S
C620 C619 1.398 . S
C620 C621 1.391 . S
C621 H609 0.950 . S
C621 C617 1.393 . S
C621 C620 1.391 . S
C622 H612 0.950 . S
C622 C623 1.386 . S
C622 C624 1.391 . S
C623 C622 1.386 . S
C623 C627 1.393 . S
C624 H613 0.950 . S
C624 C622 1.391 . S
C624 C625 1.400 . S
C625 C619 1.491 . S
C625 C624 1.400 . S
C625 C626 1.398 . S
C626 H614 0.950 . S
C626 C625 1.398 . S
C626 C627 1.391 . S
C627 H615 0.950 . S
C627 C623 1.393 . S
C627 C626 1.391 . S
H628 C636 0.950 . S
H629 C641 0.950 . S
H630 C638 0.950 . S
H631 C640 0.950 . S
H632 C642 0.950 . S
H633 C644 0.950 . S
H634 C646 0.950 . S
H635 C647 0.950 . S
C636 H628 0.950 . S
C636 C637 1.379 1_545 S
C636 C638 1.391 . S
C637 C636 1.379 1_565 S
C637 C641 1.399 . S
C638 H630 0.950 . S
C638 C636 1.391 . S
C638 C639 1.400 1_545 S
C639 C638 1.400 1_565 S
C639 C640 1.398 . S
C639 C645 1.491 . S
C640 H631 0.950 . S
C640 C639 1.398 . S
C640 C641 1.391 . S
C641 H629 0.950 . S
C641 C637 1.399 . S
C641 C640 1.391 . S
C642 H632 0.950 . S
C642 C643 1.386 . S
C642 C644 1.391 . S
C643 C642 1.386 . S
C643 C647 1.393 1_565 S
C644 H633 0.950 . S
C644 C642 1.391 . S
C644 C645 1.400 . S
C645 C639 1.491 . S
C645 C644 1.400 . S
C645 C646 1.398 1_565 S
C646 H634 0.950 . S
C646 C645 1.398 1_545 S
C646 C647 1.391 . S
C647 H635 0.950 . S
C647 C643 1.393 1_545 S
C647 C646 1.391 . S
H648 C656 0.950 . S
H649 C661 0.950 . S
H650 C658 0.950 . S
H651 C660 0.950 . S
H652 C662 0.950 . S
H653 C664 0.950 . S
H654 C666 0.950 . S
H655 C667 0.950 . S
C656 H648 0.950 . S
C656 C657 1.386 . S
C656 C658 1.391 . S
C657 C656 1.386 . S
C657 C661 1.393 . S
C658 H650 0.950 . S
C658 C656 1.391 . S
C658 C659 1.400 . S
C659 C658 1.400 . S
C659 C660 1.398 . S
C659 C665 1.491 . S
C660 H651 0.950 . S
C660 C659 1.398 . S
C660 C661 1.391 . S
C661 H649 0.950 . S
C661 C657 1.393 . S
C661 C660 1.391 . S
C662 H652 0.950 . S
C662 C663 1.386 . S
C662 C664 1.391 . S
C663 C662 1.386 . S
C663 C667 1.393 . S
C664 H653 0.950 . S
C664 C662 1.391 . S
C664 C665 1.400 . S
C665 C659 1.491 . S
C665 C664 1.400 . S
C665 C666 1.398 . S
C666 H654 0.950 . S
C666 C665 1.398 . S
C666 C667 1.391 . S
C667 H655 0.950 . S
C667 C663 1.393 . S
C667 C666 1.391 . S
H668 C676 0.950 . S
H669 C681 0.950 . S
H670 C678 0.950 . S
H671 C680 0.950 . S
H672 C682 0.950 . S
H673 C684 0.950 . S
H674 C686 0.950 . S
H675 C687 0.950 . S
C676 H668 0.950 . S
C676 C677 1.386 . S
C676 C678 1.391 . S
C677 C676 1.386 . S
C677 C681 1.393 . S
C678 H670 0.950 . S
C678 C676 1.391 . S
C678 C679 1.400 . S
C679 C678 1.400 . S
C679 C680 1.398 . S
C679 C685 1.491 . S
C680 H671 0.950 . S
C680 C679 1.398 . S
C680 C681 1.391 . S
C681 H669 0.950 . S
C681 C677 1.393 . S
C681 C680 1.391 . S
C682 H672 0.950 . S
C682 C683 1.386 . S
C682 C684 1.391 . S
C683 C682 1.386 . S
C683 C687 1.393 . S
C684 H673 0.950 . S
C684 C682 1.391 . S
C684 C685 1.400 . S
C685 C679 1.491 . S
C685 C684 1.400 . S
C685 C686 1.398 . S
C686 H674 0.950 . S
C686 C685 1.398 . S
C686 C687 1.391 . S
C687 H675 0.950 . S
C687 C683 1.393 . S
C687 C686 1.391 . S
C217 C76 1.660 1_545 S
C223 C98 1.675 . S
C243 C128 1.804 . S
C237 C87 1.773 . S
C263 N162 1.373 . S
C257 C54 1.400 . S
C283 N192 1.415 . S
C277 C65 1.404 . S
C303 C89 1.671 . S
C297 C32 1.658 1_546 S
C317 C43 1.780 . S
C323 C119 1.806 . S
C337 C10 1.396 . S
C343 N154 1.381 . S
C357 C21 1.403 . S
C363 N184 1.390 1_655 S
C383 C104 0.445 . S
C377 C60 0.523 . S
C403 C134 0.742 . S
C397 C71 0.758 1_565 S
C423 C175 1.024 . S
C417 C82 1.000 . S
C437 C49 0.592 . S
C443 C205 0.586 . S
C457 C16 0.527 . S
C463 C115 0.403 . S
C483 C145 0.741 . S
C477 C27 0.717 1_566 S
C503 C164 1.023 . S
C497 C38 0.994 . S
C517 C5 0.597 . S
C523 C194 0.586 . S
C537 C59 1.456 . S
C543 N94 1.463 . S
C557 C70 1.437 . S
C563 N124 1.426 . S
C583 C149 1.655 . S
C577 C81 1.615 . S
C603 C179 1.594 . S
C597 C48 1.561 . S
C617 C15 1.449 . S
C623 N102 1.487 . S
C643 N132 1.434 . S
C637 C26 1.425 1_565 S
C663 C158 1.659 . S
C657 C37 1.628 . S
C677 C4 1.561 . S
C683 C188 1.594 . S
