# Generated by pormake.
# Topology cml, (3,6)-cn, num edge types: 1
# Building blocks:
#     Node 0, Type 0, BuildingBlock: QEWDON_clean_linker_0, # of connection points: 3
#     Node 1, Type 0, BuildingBlock: QEWDON_clean_linker_0, # of connection points: 3
#     Node 2, Type 0, BuildingBlock: QEWDON_clean_linker_0, # of connection points: 3
#     Node 3, Type 0, BuildingBlock: QEWDON_clean_linker_0, # of connection points: 3
#     Node 4, Type 0, BuildingBlock: QEWDON_clean_linker_0, # of connection points: 3
#     Node 5, Type 0, BuildingBlock: QEWDON_clean_linker_0, # of connection points: 3
#     Node 6, Type 0, BuildingBlock: QEWDON_clean_linker_0, # of connection points: 3
#     Node 7, Type 0, BuildingBlock: QEWDON_clean_linker_0, # of connection points: 3
#     Node 8, Type 1, BuildingBlock: OJICUG_clean_sbu_0, # of connection points: 6
#     Node 9, Type 1, BuildingBlock: OJICUG_clean_sbu_0, # of connection points: 6
#     Node 10, Type 1, BuildingBlock: OJICUG_clean_sbu_0, # of connection points: 6
#     Node 11, Type 1, BuildingBlock: OJICUG_clean_sbu_0, # of connection points: 6
#     Edge 12, Type (0, 1), BuildingBlock: CIFDUS_clean_linker_0, # of connection points: 2
#     Edge 13, Type (0, 1), BuildingBlock: CIFDUS_clean_linker_0, # of connection points: 2
#     Edge 14, Type (0, 1), BuildingBlock: CIFDUS_clean_linker_0, # of connection points: 2
#     Edge 15, Type (0, 1), BuildingBlock: CIFDUS_clean_linker_0, # of connection points: 2
#     Edge 16, Type (0, 1), BuildingBlock: CIFDUS_clean_linker_0, # of connection points: 2
#     Edge 17, Type (0, 1), BuildingBlock: CIFDUS_clean_linker_0, # of connection points: 2
#     Edge 18, Type (0, 1), BuildingBlock: CIFDUS_clean_linker_0, # of connection points: 2
#     Edge 19, Type (0, 1), BuildingBlock: CIFDUS_clean_linker_0, # of connection points: 2
#     Edge 20, Type (0, 1), BuildingBlock: CIFDUS_clean_linker_0, # of connection points: 2
#     Edge 21, Type (0, 1), BuildingBlock: CIFDUS_clean_linker_0, # of connection points: 2
#     Edge 22, Type (0, 1), BuildingBlock: CIFDUS_clean_linker_0, # of connection points: 2
#     Edge 23, Type (0, 1), BuildingBlock: CIFDUS_clean_linker_0, # of connection points: 2
#     Edge 24, Type (0, 1), BuildingBlock: CIFDUS_clean_linker_0, # of connection points: 2
#     Edge 25, Type (0, 1), BuildingBlock: CIFDUS_clean_linker_0, # of connection points: 2
#     Edge 26, Type (0, 1), BuildingBlock: CIFDUS_clean_linker_0, # of connection points: 2
#     Edge 27, Type (0, 1), BuildingBlock: CIFDUS_clean_linker_0, # of connection points: 2
#     Edge 28, Type (0, 1), BuildingBlock: CIFDUS_clean_linker_0, # of connection points: 2
#     Edge 29, Type (0, 1), BuildingBlock: CIFDUS_clean_linker_0, # of connection points: 2
#     Edge 30, Type (0, 1), BuildingBlock: CIFDUS_clean_linker_0, # of connection points: 2
#     Edge 31, Type (0, 1), BuildingBlock: CIFDUS_clean_linker_0, # of connection points: 2
#     Edge 32, Type (0, 1), BuildingBlock: CIFDUS_clean_linker_0, # of connection points: 2
#     Edge 33, Type (0, 1), BuildingBlock: CIFDUS_clean_linker_0, # of connection points: 2
#     Edge 34, Type (0, 1), BuildingBlock: CIFDUS_clean_linker_0, # of connection points: 2
#     Edge 35, Type (0, 1), BuildingBlock: CIFDUS_clean_linker_0, # of connection points: 2
# Relax obj value: 0.005
# Max RMSD: 0.107
# Mean RMSD: 0.079
data_MOF--net-cml--node1-OJICUG_clean_sbu_0--node2-QEWDON_clean_linker_0--edge1-CIFDUS_clean_linker_0
_symmetry_space_group_name_H-M    P1
_symmetry_Int_Tables_number       1
_symmetry_cell_setting            triclinic
loop_
_symmetry_equiv_pos_as_xyz
'x, y, z'
_cell_length_a     37.810351
_cell_length_b     35.736414
_cell_length_c     31.588045
_cell_angle_alpha  90.080048
_cell_angle_beta   90.005061
_cell_angle_gamma 89.717189
loop_
_atom_site_label
_atom_site_type_symbol
_atom_site_fract_x
_atom_site_fract_y
_atom_site_fract_z
_atom_type_partial_charge
H0 H 0.27457 0.44858 0.96423 0.0
C1 C 0.28772 0.43206 0.98838 0.0
C2 C 0.32413 0.43643 0.99507 0.0
C3 C 0.26814 0.40686 0.01315 0.0
H4 H 0.36868 0.42037 0.03355 0.0
C5 C 0.34086 0.41577 0.02699 0.0
C6 C 0.3214 0.39169 0.05296 0.0
C7 C 0.2851 0.38677 0.04563 0.0
C8 C 0.22942 0.40446 0.00737 0.0
H9 H 0.26983 0.3689 0.06639 0.0
C10 C 0.2132 0.37066 0.9954 0.0
C11 C 0.17669 0.36984 0.98657 0.0
C12 C 0.20871 0.43693 0.01201 0.0
H13 H 0.22073 0.46315 0.02133 0.0
C14 C 0.1724 0.43588 0.00459 0.0
H15 H 0.22916 0.34566 0.99103 0.0
C16 C 0.15648 0.40267 0.99163 0.0
H17 H 0.12831 0.40263 0.98534 0.0
H18 H 0.15661 0.46102 0.0083 0.0
H19 H 0.72716 0.55969 0.45855 0.0
C20 C 0.71837 0.57123 0.48855 0.0
C21 C 0.68289 0.56757 0.50083 0.0
C22 C 0.74322 0.58692 0.5164 0.0
H23 H 0.64495 0.57824 0.5505 0.0
C24 C 0.67223 0.58131 0.5405 0.0
C25 C 0.69681 0.59684 0.56857 0.0
C26 C 0.73243 0.59944 0.5566 0.0
C27 C 0.78108 0.58484 0.5057 0.0
H28 H 0.75181 0.60991 0.57891 0.0
C29 C 0.79768 0.61375 0.4832 0.0
C30 C 0.83332 0.61002 0.4708 0.0
C31 C 0.80026 0.55252 0.51633 0.0
H32 H 0.78772 0.52997 0.53352 0.0
C33 C 0.83561 0.54885 0.50438 0.0
H34 H 0.78277 0.63861 0.47468 0.0
C35 C 0.85205 0.5773 0.48158 0.0
H36 H 0.87957 0.57393 0.47276 0.0
H37 H 0.85028 0.52382 0.51263 0.0
H38 H 0.71563 0.38562 0.94776 0.0
C39 C 0.7059 0.38523 0.98001 0.0
C40 C 0.68789 0.41657 0.9967 0.0
C41 C 0.70889 0.35205 0.00354 0.0
H42 H 0.66245 0.43894 0.0522 0.0
C43 C 0.67567 0.41488 0.03874 0.0
C44 C 0.67735 0.38153 0.06237 0.0
C45 C 0.69426 0.35022 0.04429 0.0
C46 C 0.72062 0.31722 0.9825 0.0
H47 H 0.69437 0.3236 0.06068 0.0
C48 C 0.75665 0.30943 0.97518 0.0
C49 C 0.76667 0.2763 0.95396 0.0
C50 C 0.6949 0.29165 0.96903 0.0
H51 H 0.66707 0.29726 0.97446 0.0
C52 C 0.70479 0.25892 0.94802 0.0
H53 H 0.77663 0.32908 0.98553 0.0
C54 C 0.74041 0.25132 0.94034 0.0
H55 H 0.74754 0.22565 0.92408 0.0
H56 H 0.68478 0.23942 0.93757 0.0
H57 H 0.30059 0.62893 0.4432 0.0
C58 C 0.31197 0.63166 0.47453 0.0
C59 C 0.33314 0.60269 0.49133 0.0
C60 C 0.30729 0.66529 0.49694 0.0
H61 H 0.36721 0.58689 0.54304 0.0
C62 C 0.34894 0.60786 0.53123 0.0
C63 C 0.34429 0.64125 0.55419 0.0
C64 C 0.32301 0.66968 0.53685 0.0
C65 C 0.29228 0.69852 0.47569 0.0
H66 H 0.31979 0.69602 0.55348 0.0
C67 C 0.25557 0.70519 0.47387 0.0
C68 C 0.24269 0.73885 0.45636 0.0
C69 C 0.3157 0.7251 0.45908 0.0
H70 H 0.34402 0.72039 0.46038 0.0
C71 C 0.30287 0.7581 0.44119 0.0
H72 H 0.23734 0.68497 0.48699 0.0
C73 C 0.26659 0.7651 0.44008 0.0
H74 H 0.25709 0.79108 0.42641 0.0
H75 H 0.32111 0.77848 0.42856 0.0
H76 H 0.77492 0.95726 0.96251 0.0
C77 C 0.78642 0.94272 0.98934 0.0
C78 C 0.82227 0.94766 -0.00083 0.0
C79 C 0.76512 0.92004 0.015 0.0
H80 H 0.86405 0.93502 0.04341 0.0
C81 C 0.83671 0.92991 0.03479 0.0
C82 C 0.81532 0.90829 0.06138 0.0
C83 C 0.77956 0.90317 0.05125 0.0
C84 C 0.72685 0.91756 0.00696 0.0
H85 H 0.76269 0.88741 0.07243 0.0
C86 C 0.71245 0.88639 0.98607 0.0
C87 C 0.67563 0.8835 0.98085 0.0
C88 C 0.70443 0.94604 0.02187 0.0
H89 H 0.71521 0.97017 0.03808 0.0
C90 C 0.6679 0.94324 0.01658 0.0
H91 H 0.72971 0.86425 0.97469 0.0
C92 C 0.6535 0.91204 0.99644 0.0
H93 H 0.62506 0.91025 0.99277 0.0
H94 H 0.65068 0.96518 0.02837 0.0
H95 H 0.22738 0.04447 0.46501 0.0
C96 C 0.21549 0.06351 0.48773 0.0
C97 C 0.17903 0.06182 0.49527 0.0
C98 C 0.23655 0.08992 0.50895 0.0
H99 H 0.13557 0.08445 0.53129 0.0
C100 C 0.16358 0.08662 0.52427 0.0
C101 C 0.18441 0.11211 0.54685 0.0
C102 C 0.22088 0.11398 0.53893 0.0
C103 C 0.27497 0.09151 0.50019 0.0
H104 H 0.2371 0.13326 0.55688 0.0
C105 C 0.29119 0.12564 0.48977 0.0
C106 C 0.32692 0.12638 0.47752 0.0
C107 C 0.29521 0.05842 0.49988 0.0
H108 H 0.28335 0.03187 0.50812 0.0
C109 C 0.3309 0.05927 0.48877 0.0
H110 H 0.27566 0.15123 0.48921 0.0
C111 C 0.34664 0.09296 0.47725 0.0
H112 H 0.37426 0.09298 0.46811 0.0
H113 H 0.34629 0.03365 0.48856 0.0
H114 H 0.21535 0.91061 0.96009 0.0
C115 C 0.20508 0.90274 0.99081 0.0
C116 C 0.18394 0.928 0.0141 0.0
C117 C 0.21089 0.86603 0.0052 0.0
H118 H 0.15186 0.93411 0.06996 0.0
C119 C 0.17023 0.91614 0.05316 0.0
C120 C 0.17664 0.87987 0.06875 0.0
C121 C 0.19723 0.85494 0.04449 0.0
C122 C 0.22317 0.83737 0.97476 0.0
H123 H 0.20089 0.82627 0.05483 0.0
C124 C 0.25771 0.82236 0.97575 0.0
C125 C 0.26842 0.79622 0.94466 0.0
C126 C 0.19936 0.82541 0.94352 0.0
H127 H 0.17268 0.83661 0.94245 0.0
C128 C 0.20963 0.799 0.91347 0.0
H129 H 0.2763 0.83178 -0.00044 0.0
C130 C 0.24391 0.78458 0.91387 0.0
H131 H 0.25133 0.7642 0.89 0.0
H132 H 0.19104 0.78987 0.88958 0.0
H133 H 0.79174 0.12075 0.43287 0.0
C134 C 0.80206 0.12124 0.46487 0.0
C135 C 0.81964 0.08963 0.48146 0.0
C136 C 0.79985 0.15449 0.48845 0.0
H137 H 0.84639 0.06731 0.53612 0.0
C138 C 0.83301 0.09144 0.52301 0.0
C139 C 0.83199 0.12487 0.54659 0.0
C140 C 0.81505 0.15624 0.5289 0.0
C141 C 0.78707 0.18936 0.46859 0.0
H142 H 0.81522 0.18282 0.54545 0.0
C143 C 0.75071 0.1973 0.4649 0.0
C144 C 0.73951 0.2322 0.4491 0.0
C145 C 0.81191 0.21602 0.45551 0.0
H146 H 0.83999 0.21034 0.45832 0.0
C147 C 0.80074 0.25033 0.43918 0.0
H148 H 0.73139 0.17702 0.47542 0.0
C149 C 0.76473 0.25853 0.43625 0.0
H150 H 0.75648 0.28551 0.42401 0.0
H151 H 0.82004 0.27079 0.42925 0.0
Sc152 Sc 0.9929 0.80935 0.31171 0.0
Sc153 Sc 0.98204 0.90756 0.31443 0.0
Sc154 Sc 0.98923 0.85757 0.40961 0.0
O155 O 0.98788 0.85807 0.34525 0.0
C156 C 0.94216 0.78571 0.38809 0.0
C157 C 0.93665 0.85338 0.25511 0.0
C158 C 0.92847 0.91877 0.39083 0.0
C159 C 0.04184 0.86588 0.26016 0.0
C160 C 0.04806 0.79596 0.38719 0.0
C161 C 0.03295 0.93136 0.39039 0.0
O162 O 0.95425 0.78114 0.35075 0.0
O163 O 0.94492 0.88525 0.26973 0.0
O164 O 0.94466 0.89583 0.415 0.0
O165 O 0.0324 0.83286 0.27004 0.0
O166 O 0.03423 0.82 0.41197 0.0
O167 O 0.01805 0.93701 0.35497 0.0
O168 O 0.03566 0.78907 0.35063 0.0
O169 O 0.02619 0.89512 0.27377 0.0
O170 O 0.02654 0.90303 0.41337 0.0
O171 O 0.95139 0.82318 0.26719 0.0
O172 O 0.95232 0.81189 0.41253 0.0
O173 O 0.93805 0.92492 0.3529 0.0
Sc174 Sc 0.00973 0.1848 0.79752 0.0
Sc175 Sc 0.02168 0.08765 0.80491 0.0
Sc176 Sc 0.01324 0.14134 0.89828 0.0
O177 O 0.0149 0.13797 0.83367 0.0
C178 C 0.05709 0.21454 0.87501 0.0
C179 C 0.07204 0.14057 0.75084 0.0
C180 C 0.07246 0.07815 0.88512 0.0
C181 C 0.96783 0.12641 0.74061 0.0
C182 C 0.95196 0.19857 0.86952 0.0
C183 C 0.96762 0.06768 0.87867 0.0
O184 O 0.04447 0.21648 0.83773 0.0
O185 O 0.06349 0.10893 0.76597 0.0
O186 O 0.05858 0.10397 0.90764 0.0
O187 O 0.97378 0.1596 0.75293 0.0
O188 O 0.96729 0.17837 0.89731 0.0
O189 O 0.981 0.06166 0.8423 0.0
O190 O 0.96408 0.20292 0.83234 0.0
O191 O 0.98335 0.09807 0.75617 0.0
O192 O 0.97678 0.09489 0.90234 0.0
O193 O 0.05483 0.1706 0.75822 0.0
O194 O 0.04922 0.18839 0.90065 0.0
O195 O 0.06112 0.07006 0.84855 0.0
Sc196 Sc 0.49434 0.32188 0.30541 0.0
Sc197 Sc 0.48882 0.41914 0.32247 0.0
Sc198 Sc 0.48811 0.35781 0.40936 0.0
O199 O 0.49036 0.3662 0.34573 0.0
C200 C 0.44214 0.28915 0.37569 0.0
C201 C 0.43764 0.37521 0.2597 0.0
C202 C 0.43435 0.42574 0.40015 0.0
C203 C 0.54247 0.38055 0.25728 0.0
C204 C 0.54751 0.29898 0.37978 0.0
C205 C 0.53906 0.42935 0.40181 0.0
O206 O 0.45484 0.29014 0.33846 0.0
O207 O 0.4467 0.40465 0.27966 0.0
O208 O 0.4435 0.39543 0.41836 0.0
O209 O 0.53484 0.34713 0.26705 0.0
O210 O 0.53317 0.32015 0.40744 0.0
O211 O 0.53085 0.43787 0.36389 0.0
O212 O 0.53599 0.29628 0.34204 0.0
O213 O 0.52735 0.40878 0.2738 0.0
O214 O 0.52453 0.40258 0.42173 0.0
O215 O 0.45309 0.3437 0.26449 0.0
O216 O 0.45149 0.31183 0.40461 0.0
O217 O 0.44954 0.43756 0.36696 0.0
Sc218 Sc 0.51682 0.68962 0.8148 0.0
Sc219 Sc 0.52472 0.59139 0.81758 0.0
Sc220 Sc 0.50924 0.64157 0.91201 0.0
O221 O 0.51706 0.64089 0.84818 0.0
C222 C 0.55828 0.71351 0.8985 0.0
C223 C 0.57665 0.64468 0.76497 0.0
C224 C 0.57162 0.58057 0.90031 0.0
C225 C 0.47174 0.63453 0.75579 0.0
C226 C 0.454 0.70371 0.88155 0.0
C227 C 0.46745 0.56758 0.8869 0.0
O228 O 0.55201 0.7171 0.85908 0.0
O229 O 0.56598 0.61286 0.77735 0.0
O230 O 0.55379 0.60378 0.92262 0.0
O231 O 0.48129 0.6671 0.76751 0.0
O232 O 0.46402 0.67914 0.90819 0.0
O233 O 0.48488 0.56211 0.85309 0.0
O234 O 0.47095 0.71036 0.84766 0.0
O235 O 0.48478 0.60465 0.77134 0.0
O236 O 0.47241 0.59567 0.91081 0.0
O237 O 0.56209 0.6751 0.7766 0.0
O238 O 0.54442 0.68802 0.92105 0.0
O239 O 0.56472 0.57392 0.86161 0.0
H240 H 0.13821 0.36424 0.91523 0.0
H241 H 0.17683 0.29918 0.02034 0.0
H242 H 0.14379 0.24453 0.99487 0.0
H243 H 0.10138 0.21648 0.94406 0.0
H244 H 0.06496 0.28268 0.83813 0.0
H245 H 0.09964 0.33547 0.86257 0.0
C246 C 0.13944 0.33801 0.93246 0.0
C247 C 0.1595 0.3357 0.96977 0.0
C248 C 0.12065 0.30695 0.91755 0.0
C249 C 0.16148 0.30149 0.9915 0.0
C250 C 0.14248 0.27038 0.97704 0.0
C251 C 0.10116 0.24241 0.92627 0.0
C252 C 0.0803 0.24549 0.88941 0.0
C253 C 0.12156 0.27293 0.94034 0.0
C254 C 0.08069 0.27927 0.86654 0.0
C255 C 0.10048 0.30966 0.88053 0.0
H256 H 0.83629 0.68391 0.49053 0.0
H257 H 0.87144 0.60301 0.39815 0.0
H258 H 0.90608 0.65105 0.36219 0.0
H259 H 0.92957 0.71494 0.35992 0.0
H260 H 0.89687 0.79511 0.45466 0.0
H261 H 0.85796 0.7487 0.48649 0.0
C262 C 0.85114 0.67705 0.46215 0.0
C263 C 0.85143 0.64007 0.447 0.0
C264 C 0.87163 0.70462 0.44222 0.0
C265 C 0.87108 0.6313 0.41052 0.0
C266 C 0.89085 0.65873 0.38996 0.0
C267 C 0.9136 0.72242 0.3872 0.0
C268 C 0.91629 0.75843 0.40492 0.0
C269 C 0.89183 0.69534 0.40596 0.0
C270 C 0.89557 0.76751 0.44052 0.0
C271 C 0.87326 0.74099 0.45877 0.0
H272 H 0.79641 0.26275 0.87799 0.0
H273 H 0.82055 0.26854 0.01104 0.0
H274 H 0.88066 0.24511 0.99718 0.0
H275 H 0.92521 0.21952 0.94695 0.0
H276 H 0.90033 0.21664 0.81354 0.0
H277 H 0.84183 0.24226 0.82776 0.0
C278 C 0.81505 0.25923 0.90383 0.0
C279 C 0.80425 0.26713 0.94541 0.0
C280 C 0.84934 0.24597 0.89557 0.0
C281 C 0.82851 0.26279 0.97872 0.0
C282 C 0.86272 0.24916 0.97081 0.0
C283 C 0.90699 0.22466 0.92107 0.0
C284 C 0.91718 0.21596 0.87928 0.0
C285 C 0.87327 0.24005 0.92937 0.0
C286 C 0.89336 0.22318 0.846 0.0
C287 C 0.85978 0.23777 0.85406 0.0
H288 H 0.19281 0.7082 0.40574 0.0
H289 H 0.20829 0.79118 0.50282 0.0
H290 H 0.14773 0.8142 0.49287 0.0
H291 H 0.09267 0.81465 0.45169 0.0
H292 H 0.07847 0.73395 0.35134 0.0
H293 H 0.1359 0.70604 0.36747 0.0
C294 C 0.18245 0.7307 0.42528 0.0
C295 C 0.20454 0.74782 0.45523 0.0
C296 C 0.14801 0.74451 0.41839 0.0
C297 C 0.1914 0.77748 0.47989 0.0
C298 C 0.15693 0.79074 0.47401 0.0
C299 C 0.10185 0.79061 0.43373 0.0
C300 C 0.08124 0.77665 0.40016 0.0
C301 C 0.13529 0.77509 0.44261 0.0
C302 C 0.09381 0.74555 0.37713 0.0
C303 C 0.1267 0.7295 0.38633 0.0
H304 H 0.63088 0.83388 0.01558 0.0
H305 H 0.6849 0.86006 0.89944 0.0
H306 H 0.65389 0.809 0.86313 0.0
H307 H 0.60888 0.75889 0.86407 0.0
H308 H 0.55744 0.7316 0.98204 0.0
H309 H 0.59006 0.78081 0.018 0.0
C310 C 0.63599 0.82808 0.9824 0.0
C311 C 0.65979 0.85058 0.95998 0.0
C312 C 0.61844 0.79859 0.96208 0.0
C313 C 0.66663 0.84286 0.91717 0.0
C314 C 0.64882 0.81385 0.89646 0.0
C315 C 0.605 0.76362 0.89767 0.0
C316 C 0.58054 0.74171 0.92018 0.0
C317 C 0.62426 0.79183 0.91848 0.0
C318 C 0.57612 0.74792 0.96387 0.0
C319 C 0.59467 0.77619 0.98453 0.0
H320 H 0.35934 0.13847 0.40289 0.0
H321 H 0.33128 0.19275 0.52008 0.0
H322 H 0.36296 0.24928 0.49805 0.0
H323 H 0.4017 0.28147 0.447 0.0
H324 H 0.42792 0.2268 0.32891 0.0
H325 H 0.39358 0.17243 0.34958 0.0
C326 C 0.36012 0.1628 0.42345 0.0
C327 C 0.34354 0.16152 0.46317 0.0
C328 C 0.37802 0.19506 0.41043 0.0
C329 C 0.34403 0.19327 0.48937 0.0
C330 C 0.36218 0.22544 0.47683 0.0
C331 C 0.39966 0.25781 0.42562 0.0
C332 C 0.41775 0.25822 0.38661 0.0
C333 C 0.37974 0.22644 0.43765 0.0
C334 C 0.41442 0.2274 0.35914 0.0
C335 C 0.39488 0.19612 0.37098 0.0
H336 H 0.31114 0.79551 0.87655 0.0
H337 H 0.30767 0.7634 0.00784 0.0
H338 H 0.36543 0.73213 0.00063 0.0
H339 H 0.41534 0.71086 0.95514 0.0
H340 H 0.4172 0.74453 0.82377 0.0
H341 H 0.36168 0.77788 0.83287 0.0
C342 C 0.32316 0.78182 0.90366 0.0
C343 C 0.30514 0.78142 0.94253 0.0
C344 C 0.35597 0.76386 0.89913 0.0
C345 C 0.32117 0.76415 0.97761 0.0
C346 C 0.35402 0.74605 0.97336 0.0
C347 C 0.40362 0.72557 0.92857 0.0
C348 C 0.42055 0.72488 0.88876 0.0
C349 C 0.37142 0.74516 0.934 0.0
C350 C 0.40502 0.74447 0.85481 0.0
C351 C 0.37313 0.76361 0.8599 0.0
H352 H 0.69177 0.20937 0.39091 0.0
H353 H 0.70384 0.27919 0.50108 0.0
H354 H 0.64373 0.30379 0.49174 0.0
H355 H 0.59004 0.30948 0.44851 0.0
H356 H 0.57927 0.24205 0.33573 0.0
H357 H 0.63628 0.21237 0.34984 0.0
C358 C 0.68077 0.22939 0.41323 0.0
C359 C 0.70171 0.24233 0.4468 0.0
C360 C 0.64662 0.24412 0.4069 0.0
C361 C 0.6878 0.26875 0.47525 0.0
C362 C 0.6536 0.2829 0.46976 0.0
C363 C 0.59987 0.28791 0.42731 0.0
C364 C 0.58036 0.27825 0.39097 0.0
C365 C 0.63305 0.27141 0.43515 0.0
C366 C 0.59375 0.25033 0.36378 0.0
C367 C 0.62641 0.23328 0.3718 0.0
H368 H 0.38093 0.42592 0.9442 0.0
H369 H 0.3128 0.5114 0.99596 0.0
H370 H 0.3508 0.56015 0.96628 0.0
H371 H 0.40567 0.57819 0.92945 0.0
H372 H 0.47181 0.4925 0.87406 0.0
H373 H 0.43235 0.44408 0.90096 0.0
C374 C 0.37427 0.45527 0.94833 0.0
C375 C 0.34434 0.46529 0.97213 0.0
C376 C 0.396 0.483 0.93081 0.0
C377 C 0.33568 0.50325 0.97741 0.0
C378 C 0.35749 0.53104 0.96071 0.0
C379 C 0.41124 0.54891 0.9231 0.0
C380 C 0.44175 0.53887 0.90022 0.0
C381 C 0.38808 0.52124 0.93799 0.0
C382 C 0.44845 0.5009 0.89159 0.0
C383 C 0.42599 0.47319 0.90708 0.0
H384 H 0.64212 0.51111 0.52812 0.0
H385 H 0.6685 0.57323 0.41576 0.0
H386 H 0.6265 0.5357 0.37445 0.0
H387 H 0.58139 0.4856 0.37115 0.0
H388 H 0.55709 0.42369 0.48495 0.0
H389 H 0.59903 0.46091 0.52467 0.0
C390 C 0.63842 0.51669 0.49464 0.0
C391 C 0.65787 0.54522 0.47509 0.0
C392 C 0.61462 0.49499 0.47133 0.0
C393 C 0.65362 0.55147 0.43148 0.0
C394 C 0.62961 0.53008 0.40795 0.0
C395 C 0.58531 0.48023 0.40461 0.0
C396 C 0.56583 0.45184 0.42486 0.0
C397 C 0.60982 0.50179 0.42763 0.0
C398 C 0.57153 0.44523 0.46828 0.0
C399 C 0.59554 0.46657 0.49122 0.0
H400 H 0.6775 0.49099 0.01722 0.0
H401 H 0.66931 0.41316 0.91271 0.0
H402 H 0.63706 0.45947 0.87196 0.0
H403 H 0.60309 0.51763 0.86965 0.0
H404 H 0.60397 0.59243 0.9771 0.0
H405 H 0.64593 0.55116 0.01336 0.0
C406 C 0.66868 0.48394 0.98557 0.0
C407 C 0.67564 0.44797 0.96877 0.0
C408 C 0.64793 0.50992 0.96303 0.0
C409 C 0.66503 0.4404 0.92686 0.0
C410 C 0.64591 0.46679 0.90354 0.0
C411 C 0.61275 0.52532 0.90078 0.0
C412 C 0.60002 0.55802 0.92072 0.0
C413 C 0.636 0.50096 0.92193 0.0
C414 C 0.61297 0.5673 0.96112 0.0
C415 C 0.63703 0.54371 0.98185 0.0
H416 H 0.34218 0.53023 0.51758 0.0
H417 H 0.34825 0.6004 0.4066 0.0
H418 H 0.37538 0.54937 0.36702 0.0
H419 H 0.40476 0.48844 0.36654 0.0
H420 H 0.40335 0.41944 0.47865 0.0
H421 H 0.36712 0.46639 0.51501 0.0
C422 C 0.34917 0.53428 0.48462 0.0
C423 C 0.34339 0.56942 0.46538 0.0
C424 C 0.36609 0.50517 0.46233 0.0
C425 C 0.35194 0.57376 0.42233 0.0
C426 C 0.36791 0.54465 0.3997 0.0
C427 C 0.39624 0.4833 0.39879 0.0
C428 C 0.40736 0.45059 0.41998 0.0
C429 C 0.37621 0.51076 0.41981 0.0
C430 C 0.39546 0.44437 0.46155 0.0
C431 C 0.37485 0.47133 0.48246 0.0
H432 H 0.87387 0.93302 0.94197 0.0
H433 H 0.81917 0.02294 0.0054 0.0
H434 H 0.85916 0.06865 0.97334 0.0
H435 H 0.91165 0.08248 0.93004 0.0
H436 H 0.96445 0.99282 0.8634 0.0
H437 H 0.9233 0.94754 0.89359 0.0
C438 C 0.87059 0.9627 0.94813 0.0
C439 C 0.84385 0.9749 0.97573 0.0
C440 C 0.89345 0.98873 0.92928 0.0
C441 C 0.8396 0.01324 0.9839 0.0
C442 C 0.86251 0.03925 0.96579 0.0
C443 C 0.914 0.05304 0.92206 0.0
C444 C 0.94119 0.04093 0.89488 0.0
C445 C 0.88986 0.02726 0.93891 0.0
C446 C 0.94367 1.0028 0.88422 0.0
C447 C 0.92024 0.97688 0.90156 0.0
H448 H 0.12072 0.07227 0.44727 0.0
H449 H 0.18825 0.98644 0.49919 0.0
H450 H 0.14867 0.93791 0.47189 0.0
H451 H 0.09347 0.92024 0.43529 0.0
H452 H 0.02822 0.00641 0.37959 0.0
H453 H 0.06812 0.05453 0.40631 0.0
C454 C 0.12678 0.04289 0.45221 0.0
C455 C 0.15709 0.03272 0.47515 0.0
C456 C 0.1042 0.01532 0.43603 0.0
C457 C 0.16505 0.9947 0.4813 0.0
C458 C 0.14236 0.96705 0.46596 0.0
C459 C 0.0881 0.94957 0.4291 0.0
C460 C 0.05788 0.95988 0.4059 0.0
C461 C 0.11163 0.97706 0.44368 0.0
C462 C 0.05139 0.99788 0.39739 0.0
C463 C 0.07412 0.02539 0.41268 0.0
H464 H 0.1708 0.94325 0.93076 0.0
H465 H 0.16742 0.9946 0.0546 0.0
H466 H 0.13432 0.04747 0.02559 0.0
H467 H 0.10036 0.07553 0.96606 0.0
H468 H 0.10939 0.02498 0.84204 0.0
H469 H 0.14735 0.97646 0.87023 0.0
C470 C 0.16416 0.96639 0.95152 0.0
C471 C 0.1711 0.96405 0.99519 0.0
C472 C 0.14574 0.99708 0.93461 0.0
C473 C 0.16151 0.9947 0.02107 0.0
C474 C 0.14268 0.0252 0.00447 0.0
C475 C 0.11117 0.05433 0.94509 0.0
C476 C 0.10099 0.0536 0.90218 0.0
C477 C 0.13355 0.02609 0.96145 0.0
C478 C 0.11586 0.02607 0.87543 0.0
C479 C 0.13773 0.99809 0.89146 0.0
H480 H 0.8249 0.01528 0.50286 0.0
H481 H 0.83862 0.09104 0.3977 0.0
H482 H 0.86858 0.04214 0.35781 0.0
H483 H 0.89973 0.98203 0.35718 0.0
H484 H 0.89245 0.90872 0.46535 0.0
H485 H 0.85195 0.95272 0.49978 0.0
C486 C 0.83426 0.02114 0.47113 0.0
C487 C 0.82987 0.05728 0.45388 0.0
C488 C 0.85343 0.99349 0.44911 0.0
C489 C 0.84118 0.06367 0.41204 0.0
C490 C 0.85889 0.03577 0.38927 0.0
C491 C 0.88885 0.97524 0.38798 0.0
C492 C 0.89958 0.94224 0.40882 0.0
C493 C 0.8665 1.00119 0.40819 0.0
C494 C 0.88504 0.93406 0.44872 0.0
C495 C 0.86186 0.95925 0.46846 0.0
H496 H 0.32019 0.42371 0.12937 0.0
H497 H 0.36249 0.32923 0.06126 0.0
H498 H 0.40006 0.31301 0.12207 0.0
H499 H 0.42538 0.3303 0.19135 0.0
H500 H 0.38568 0.42816 0.25648 0.0
H501 H 0.34246 0.43846 0.20037 0.0
C502 C 0.33701 0.39902 0.12851 0.0
C503 C 0.33841 0.37724 0.09159 0.0
C504 C 0.35932 0.3909 0.16278 0.0
C505 C 0.36078 0.34588 0.08989 0.0
C506 C 0.38239 0.33688 0.12443 0.0
C507 C 0.40688 0.35351 0.19359 0.0
C508 C 0.40896 0.37858 0.22794 0.0
C509 C 0.38259 0.35984 0.16061 0.0
C510 C 0.38492 0.40867 0.2302 0.0
C511 C 0.36014 0.41457 0.19815 0.0
H512 H 0.66366 0.65957 0.59633 0.0
H513 H 0.70218 0.55184 0.63672 0.0
H514 H 0.67098 0.55868 0.70428 0.0
H515 H 0.62663 0.59179 0.74742 0.0
H516 H 0.58845 0.70009 0.70734 0.0
H517 H 0.62606 0.69701 0.64462 0.0
C518 C 0.66595 0.63823 0.62059 0.0
C519 C 0.68517 0.60538 0.61207 0.0
C520 C 0.6477 0.64229 0.65912 0.0
C521 C 0.68777 0.57751 0.64314 0.0
C522 C 0.66972 0.5813 0.68151 0.0
C523 C 0.62701 0.615 0.72534 0.0
C524 C 0.60436 0.64585 0.73179 0.0
C525 C 0.64865 0.61302 0.68923 0.0
C526 C 0.60554 0.67595 0.70317 0.0
C527 C 0.62691 0.67413 0.66709 0.0
H528 H 0.61618 0.41737 0.08546 0.0
H529 H 0.69321 0.33764 0.13209 0.0
H530 H 0.65814 0.32949 0.19632 0.0
H531 H 0.60454 0.34449 0.23883 0.0
H532 H 0.53326 0.43063 0.19466 0.0
H533 H 0.56834 0.43806 0.13054 0.0
C534 C 0.62644 0.39915 0.10997 0.0
C535 C 0.65774 0.37835 0.1034 0.0
C536 C 0.60714 0.39587 0.14756 0.0
C537 C 0.66903 0.35367 0.13552 0.0
C538 C 0.64911 0.34919 0.17256 0.0
C539 C 0.59706 0.36511 0.21526 0.0
C540 C 0.56639 0.38692 0.22124 0.0
C541 C 0.61794 0.36997 0.17879 0.0
C542 C 0.55694 0.41375 0.1908 0.0
C543 C 0.57684 0.41785 0.15405 0.0
H544 H 0.35908 0.59114 0.61693 0.0
H545 H 0.37703 0.70579 0.57997 0.0
H546 H 0.41578 0.71456 0.64074 0.0
H547 H 0.44834 0.68844 0.70128 0.0
H548 H 0.43362 0.57246 0.73497 0.0
H549 H 0.39059 0.5654 0.67811 0.0
C550 C 0.3715 0.61806 0.62205 0.0
C551 C 0.36502 0.64766 0.59368 0.0
C552 C 0.39481 0.6226 0.65625 0.0
C553 C 0.38091 0.68257 0.60148 0.0
C554 C 0.40348 0.68754 0.63604 0.0
C555 C 0.43556 0.66167 0.6964 0.0
C556 C 0.44447 0.631 0.72227 0.0
C557 C 0.41114 0.65757 0.66318 0.0
C558 C 0.42761 0.5965 0.71535 0.0
C559 C 0.40288 0.59242 0.68288 0.0
H560 H 0.86056 0.85085 0.07819 0.0
H561 H 0.80191 0.9407 0.13662 0.0
H562 H 0.83212 0.92934 0.20396 0.0
H563 H 0.87976 0.89835 0.24359 0.0
H564 H 0.93734 0.80688 0.18655 0.0
H565 H 0.90261 0.81366 0.12154 0.0
C566 C 0.854 0.86725 0.10605 0.0
C567 C 0.82926 0.89654 0.10287 0.0
C568 C 0.87137 0.86037 0.14468 0.0
C569 C 0.82081 0.91789 0.13878 0.0
C570 C 0.83818 0.91152 0.17709 0.0
C571 C 0.88421 0.87947 0.21717 0.0
C572 C 0.91124 0.85243 0.2196 0.0
C573 C 0.86416 0.88351 0.18007 0.0
C574 C 0.91657 0.82784 0.18541 0.0
C575 C 0.89693 0.83191 0.14813 0.0
H576 H 0.19649 0.09946 0.62908 0.0
H577 H 0.13419 0.16692 0.54412 0.0
H578 H 0.09668 0.18758 0.60312 0.0
H579 H 0.07602 0.17775 0.6763 0.0
H580 H 0.13437 0.10354 0.75838 0.0
H581 H 0.1793 0.09448 0.70367 0.0
C582 C 0.17543 0.1197 0.62397 0.0
C583 C 0.16816 0.13212 0.58278 0.0
C584 C 0.15296 0.12967 0.6575 0.0
C585 C 0.14032 0.1575 0.57588 0.0
C586 C 0.11876 0.16897 0.60949 0.0
C587 C 0.09912 0.16046 0.68245 0.0
C588 C 0.10201 0.14127 0.72108 0.0
C589 C 0.12395 0.15401 0.6501 0.0
C590 C 0.13165 0.11842 0.72867 0.0
C591 C 0.15726 0.11318 0.69742 0.0
H592 H 0.16507 0.91904 0.14125 0.0
H593 H 0.14363 0.81255 0.08221 0.0
H594 H 0.10274 0.79697 0.13923 0.0
H595 H 0.06732 0.81703 0.20091 0.0
H596 H 0.0849 0.92635 0.25507 0.0
H597 H 0.13231 0.93765 0.20449 0.0
C598 C 0.1516 0.89231 0.14093 0.0
C599 C 0.15723 0.86726 0.10717 0.0
C600 C 0.1268 0.88432 0.17258 0.0
C601 C 0.14017 0.83234 0.10787 0.0
C602 C 0.11635 0.82358 0.14024 0.0
C603 C 0.08183 0.84312 0.2019 0.0
C604 C 0.07231 0.87096 0.23138 0.0
C605 C 0.10859 0.84987 0.17198 0.0
C606 C 0.09132 0.90467 0.23227 0.0
C607 C 0.11855 0.91113 0.20348 0.0
H608 H 0.89384 0.08989 0.5682 0.0
H609 H 0.81602 0.16781 0.61695 0.0
H610 H 0.85151 0.17616 0.68083 0.0
H611 H 0.90546 0.16175 0.72261 0.0
H612 H 0.97843 0.07808 0.67617 0.0
H613 H 0.94308 0.0705 0.61219 0.0
C614 C 0.8837 0.10785 0.59309 0.0
C615 C 0.85197 0.12806 0.5873 0.0
C616 C 0.90342 0.11145 0.63037 0.0
C617 C 0.84055 0.15227 0.61986 0.0
C618 C 0.86071 0.15689 0.65666 0.0
C619 C 0.91335 0.14175 0.69849 0.0
C620 C 0.9445 0.12061 0.70385 0.0
C621 C 0.89236 0.13681 0.66213 0.0
C622 C 0.95442 0.09448 0.67275 0.0
C623 C 0.93433 0.09027 0.63611 0.0
loop_
_geom_bond_atom_site_label_1
_geom_bond_atom_site_label_2
_geom_bond_distance
_geom_bond_site_symmetry_2
_ccdc_geom_bond_type
H0 C1 0.949 . S
C1 H0 0.949 . S
C1 C2 1.395 . S
C1 C3 1.391 1_556 S
C2 C1 1.395 . S
C2 C5 1.390 1_556 S
C3 C1 1.391 1_554 S
C3 C7 1.387 . S
C3 C8 1.491 . S
H4 C5 0.950 . S
C5 C2 1.390 1_554 S
C5 H4 0.950 . S
C5 C6 1.378 . S
C6 C5 1.378 . S
C6 C7 1.409 . S
C7 C3 1.387 . S
C7 C6 1.409 . S
C7 H9 0.951 . S
C8 C3 1.491 . S
C8 C10 1.382 1_554 S
C8 C12 1.404 . S
H9 C7 0.951 . S
C10 C8 1.382 1_556 S
C10 C11 1.390 . S
C10 H15 0.949 . S
C11 C10 1.390 . S
C11 C16 1.399 1_556 S
C12 C8 1.404 . S
C12 H13 0.950 . S
C12 C14 1.375 . S
H13 C12 0.950 . S
C14 C12 1.375 . S
C14 C16 1.382 . S
C14 H18 0.950 . S
H15 C10 0.949 . S
C16 C11 1.399 1_554 S
C16 C14 1.382 . S
C16 H17 0.952 . S
H17 C16 0.952 . S
H18 C14 0.950 . S
H19 C20 0.949 . S
C20 H19 0.949 . S
C20 C21 1.395 . S
C20 C22 1.391 . S
C21 C20 1.395 . S
C21 C24 1.390 . S
C22 C20 1.391 . S
C22 C26 1.387 . S
C22 C27 1.491 . S
H23 C24 0.950 . S
C24 C21 1.390 . S
C24 H23 0.950 . S
C24 C25 1.378 . S
C25 C24 1.378 . S
C25 C26 1.409 . S
C26 C22 1.387 . S
C26 C25 1.409 . S
C26 H28 0.951 . S
C27 C22 1.491 . S
C27 C29 1.382 . S
C27 C31 1.404 . S
H28 C26 0.951 . S
C29 C27 1.382 . S
C29 C30 1.390 . S
C29 H34 0.949 . S
C30 C29 1.390 . S
C30 C35 1.399 . S
C31 C27 1.404 . S
C31 H32 0.950 . S
C31 C33 1.375 . S
H32 C31 0.950 . S
C33 C31 1.375 . S
C33 C35 1.382 . S
C33 H37 0.950 . S
H34 C29 0.949 . S
C35 C30 1.399 . S
C35 C33 1.382 . S
C35 H36 0.952 . S
H36 C35 0.952 . S
H37 C33 0.950 . S
H38 C39 0.949 . S
C39 H38 0.949 . S
C39 C40 1.395 . S
C39 C41 1.391 1_556 S
C40 C39 1.395 . S
C40 C43 1.390 1_556 S
C41 C39 1.391 1_554 S
C41 C45 1.387 . S
C41 C46 1.491 . S
H42 C43 0.950 . S
C43 C40 1.390 1_554 S
C43 H42 0.950 . S
C43 C44 1.378 . S
C44 C43 1.378 . S
C44 C45 1.409 . S
C45 C41 1.387 . S
C45 C44 1.409 . S
C45 H47 0.951 . S
C46 C41 1.491 . S
C46 C48 1.382 1_554 S
C46 C50 1.404 . S
H47 C45 0.951 . S
C48 C46 1.382 1_556 S
C48 C49 1.390 . S
C48 H53 0.949 . S
C49 C48 1.390 . S
C49 C54 1.399 . S
C50 C46 1.404 . S
C50 H51 0.950 . S
C50 C52 1.375 . S
H51 C50 0.950 . S
C52 C50 1.375 . S
C52 C54 1.382 1_554 S
C52 H56 0.950 . S
H53 C48 0.949 . S
C54 C49 1.399 . S
C54 C52 1.382 1_556 S
C54 H55 0.952 . S
H55 C54 0.952 . S
H56 C52 0.950 . S
H57 C58 0.949 . S
C58 H57 0.949 . S
C58 C59 1.395 . S
C58 C60 1.391 . S
C59 C58 1.395 . S
C59 C62 1.390 . S
C60 C58 1.391 . S
C60 C64 1.387 . S
C60 C65 1.491 . S
H61 C62 0.950 . S
C62 C59 1.390 . S
C62 H61 0.950 . S
C62 C63 1.378 . S
C63 C62 1.378 . S
C63 C64 1.409 . S
C64 C60 1.387 . S
C64 C63 1.409 . S
C64 H66 0.951 . S
C65 C60 1.491 . S
C65 C67 1.382 . S
C65 C69 1.404 . S
H66 C64 0.951 . S
C67 C65 1.382 . S
C67 C68 1.390 . S
C67 H72 0.949 . S
C68 C67 1.390 . S
C68 C73 1.399 . S
C69 C65 1.404 . S
C69 H70 0.950 . S
C69 C71 1.375 . S
H70 C69 0.950 . S
C71 C69 1.375 . S
C71 C73 1.382 . S
C71 H75 0.950 . S
H72 C67 0.949 . S
C73 C68 1.399 . S
C73 C71 1.382 . S
C73 H74 0.952 . S
H74 C73 0.952 . S
H75 C71 0.950 . S
H76 C77 0.949 . S
C77 H76 0.949 . S
C77 C78 1.395 . S
C77 C79 1.391 1_556 S
C78 C77 1.395 . S
C78 C81 1.390 1_556 S
C79 C77 1.391 1_554 S
C79 C83 1.387 . S
C79 C84 1.491 . S
H80 C81 0.950 . S
C81 C78 1.390 1_554 S
C81 H80 0.950 . S
C81 C82 1.378 . S
C82 C81 1.378 . S
C82 C83 1.409 . S
C83 C79 1.387 . S
C83 C82 1.409 . S
C83 H85 0.951 . S
C84 C79 1.491 . S
C84 C86 1.382 1_554 S
C84 C88 1.404 . S
H85 C83 0.951 . S
C86 C84 1.382 1_556 S
C86 C87 1.390 . S
C86 H91 0.949 . S
C87 C86 1.390 . S
C87 C92 1.399 1_556 S
C88 C84 1.404 . S
C88 H89 0.950 . S
C88 C90 1.375 . S
H89 C88 0.950 . S
C90 C88 1.375 . S
C90 C92 1.382 . S
C90 H94 0.950 . S
H91 C86 0.949 . S
C92 C87 1.399 1_554 S
C92 C90 1.382 . S
C92 H93 0.952 . S
H93 C92 0.952 . S
H94 C90 0.950 . S
H95 C96 0.949 . S
C96 H95 0.949 . S
C96 C97 1.395 . S
C96 C98 1.391 . S
C97 C96 1.395 . S
C97 C100 1.390 . S
C98 C96 1.391 . S
C98 C102 1.387 . S
C98 C103 1.491 . S
H99 C100 0.950 . S
C100 C97 1.390 . S
C100 H99 0.950 . S
C100 C101 1.378 . S
C101 C100 1.378 . S
C101 C102 1.409 . S
C102 C98 1.387 . S
C102 C101 1.409 . S
C102 H104 0.951 . S
C103 C98 1.491 . S
C103 C105 1.382 . S
C103 C107 1.404 . S
H104 C102 0.951 . S
C105 C103 1.382 . S
C105 C106 1.390 . S
C105 H110 0.949 . S
C106 C105 1.390 . S
C106 C111 1.399 . S
C107 C103 1.404 . S
C107 H108 0.950 . S
C107 C109 1.375 . S
H108 C107 0.950 . S
C109 C107 1.375 . S
C109 C111 1.382 . S
C109 H113 0.950 . S
H110 C105 0.949 . S
C111 C106 1.399 . S
C111 C109 1.382 . S
C111 H112 0.952 . S
H112 C111 0.952 . S
H113 C109 0.950 . S
H114 C115 0.949 . S
C115 H114 0.949 . S
C115 C116 1.395 . S
C115 C117 1.391 1_556 S
C116 C115 1.395 . S
C116 C119 1.390 1_556 S
C117 C115 1.391 1_554 S
C117 C121 1.387 . S
C117 C122 1.491 . S
H118 C119 0.950 . S
C119 C116 1.390 1_554 S
C119 H118 0.950 . S
C119 C120 1.378 . S
C120 C119 1.378 . S
C120 C121 1.409 . S
C121 C117 1.387 . S
C121 C120 1.409 . S
C121 H123 0.951 . S
C122 C117 1.491 . S
C122 C124 1.382 1_554 S
C122 C126 1.404 . S
H123 C121 0.951 . S
C124 C122 1.382 1_556 S
C124 C125 1.390 . S
C124 H129 0.949 . S
C125 C124 1.390 . S
C125 C130 1.399 . S
C126 C122 1.404 . S
C126 H127 0.950 . S
C126 C128 1.375 . S
H127 C126 0.950 . S
C128 C126 1.375 . S
C128 C130 1.382 1_554 S
C128 H132 0.950 . S
H129 C124 0.949 . S
C130 C125 1.399 . S
C130 C128 1.382 1_556 S
C130 H131 0.952 . S
H131 C130 0.952 . S
H132 C128 0.950 . S
H133 C134 0.949 . S
C134 H133 0.949 . S
C134 C135 1.395 . S
C134 C136 1.391 . S
C135 C134 1.395 . S
C135 C138 1.390 . S
C136 C134 1.391 . S
C136 C140 1.387 . S
C136 C141 1.491 . S
H137 C138 0.950 . S
C138 C135 1.390 . S
C138 H137 0.950 . S
C138 C139 1.378 . S
C139 C138 1.378 . S
C139 C140 1.409 . S
C140 C136 1.387 . S
C140 C139 1.409 . S
C140 H142 0.951 . S
C141 C136 1.491 . S
C141 C143 1.382 . S
C141 C145 1.404 . S
H142 C140 0.951 . S
C143 C141 1.382 . S
C143 C144 1.390 . S
C143 H148 0.949 . S
C144 C143 1.390 . S
C144 C149 1.399 . S
C145 C141 1.404 . S
C145 H146 0.950 . S
C145 C147 1.375 . S
H146 C145 0.950 . S
C147 C145 1.375 . S
C147 C149 1.382 . S
C147 H151 0.950 . S
H148 C143 0.949 . S
C149 C144 1.399 . S
C149 C147 1.382 . S
C149 H150 0.952 . S
H150 C149 0.952 . S
H151 C147 0.950 . S
Sc152 O155 2.025 . S
Sc152 O162 2.105 1_455 S
Sc152 O165 2.105 . S
Sc152 O168 2.105 . S
Sc152 O171 2.105 1_455 S
Sc153 O155 2.025 . S
Sc153 O163 2.105 1_455 S
Sc153 O167 2.105 . S
Sc153 O169 2.105 . S
Sc153 O173 2.105 1_455 S
Sc154 O155 2.025 . S
Sc154 O164 2.105 1_455 S
Sc154 O166 2.105 . S
Sc154 O170 2.105 . S
Sc154 O172 2.105 1_455 S
O155 Sc152 2.025 . S
O155 Sc153 2.025 . S
O155 Sc154 2.025 . S
C156 O162 1.268 . S
C156 O172 1.268 . S
C157 O163 1.268 . S
C157 O171 1.268 . S
C158 O164 1.268 . S
C158 O173 1.268 . S
C159 O165 1.268 . S
C159 O169 1.268 . S
C160 O166 1.268 . S
C160 O168 1.268 . S
C161 O167 1.268 . S
C161 O170 1.268 . S
O162 Sc152 2.105 1_655 S
O162 C156 1.268 . S
O163 Sc153 2.105 1_655 S
O163 C157 1.268 . S
O164 Sc154 2.105 1_655 S
O164 C158 1.268 . S
O165 Sc152 2.105 . S
O165 C159 1.268 . S
O166 Sc154 2.105 . S
O166 C160 1.268 . S
O167 Sc153 2.105 . S
O167 C161 1.268 . S
O168 Sc152 2.105 . S
O168 C160 1.268 . S
O169 Sc153 2.105 . S
O169 C159 1.268 . S
O170 Sc154 2.105 . S
O170 C161 1.268 . S
O171 Sc152 2.105 1_655 S
O171 C157 1.268 . S
O172 Sc154 2.105 1_655 S
O172 C156 1.268 . S
O173 Sc153 2.105 1_655 S
O173 C158 1.268 . S
Sc174 O177 2.025 . S
Sc174 O184 2.105 . S
Sc174 O187 2.105 1_455 S
Sc174 O190 2.105 1_455 S
Sc174 O193 2.105 . S
Sc175 O177 2.025 . S
Sc175 O185 2.105 . S
Sc175 O189 2.105 1_455 S
Sc175 O191 2.105 1_455 S
Sc175 O195 2.105 . S
Sc176 O177 2.025 . S
Sc176 O186 2.105 . S
Sc176 O188 2.105 1_455 S
Sc176 O192 2.105 1_455 S
Sc176 O194 2.105 . S
O177 Sc174 2.025 . S
O177 Sc175 2.025 . S
O177 Sc176 2.025 . S
C178 O184 1.268 . S
C178 O194 1.268 . S
C179 O185 1.268 . S
C179 O193 1.268 . S
C180 O186 1.268 . S
C180 O195 1.268 . S
C181 O187 1.268 . S
C181 O191 1.268 . S
C182 O188 1.268 . S
C182 O190 1.268 . S
C183 O189 1.268 . S
C183 O192 1.268 . S
O184 Sc174 2.105 . S
O184 C178 1.268 . S
O185 Sc175 2.105 . S
O185 C179 1.268 . S
O186 Sc176 2.105 . S
O186 C180 1.268 . S
O187 Sc174 2.105 1_655 S
O187 C181 1.268 . S
O188 Sc176 2.105 1_655 S
O188 C182 1.268 . S
O189 Sc175 2.105 1_655 S
O189 C183 1.268 . S
O190 Sc174 2.105 1_655 S
O190 C182 1.268 . S
O191 Sc175 2.105 1_655 S
O191 C181 1.268 . S
O192 Sc176 2.105 1_655 S
O192 C183 1.268 . S
O193 Sc174 2.105 . S
O193 C179 1.268 . S
O194 Sc176 2.105 . S
O194 C178 1.268 . S
O195 Sc175 2.105 . S
O195 C180 1.268 . S
Sc196 O199 2.025 . S
Sc196 O206 2.105 . S
Sc196 O209 2.105 . S
Sc196 O212 2.105 . S
Sc196 O215 2.105 . S
Sc197 O199 2.025 . S
Sc197 O207 2.105 . S
Sc197 O211 2.105 . S
Sc197 O213 2.105 . S
Sc197 O217 2.105 . S
Sc198 O199 2.025 . S
Sc198 O208 2.105 . S
Sc198 O210 2.105 . S
Sc198 O214 2.105 . S
Sc198 O216 2.105 . S
O199 Sc196 2.025 . S
O199 Sc197 2.025 . S
O199 Sc198 2.025 . S
C200 O206 1.268 . S
C200 O216 1.268 . S
C201 O207 1.268 . S
C201 O215 1.268 . S
C202 O208 1.268 . S
C202 O217 1.268 . S
C203 O209 1.268 . S
C203 O213 1.268 . S
C204 O210 1.268 . S
C204 O212 1.268 . S
C205 O211 1.268 . S
C205 O214 1.268 . S
O206 Sc196 2.105 . S
O206 C200 1.268 . S
O207 Sc197 2.105 . S
O207 C201 1.268 . S
O208 Sc198 2.105 . S
O208 C202 1.268 . S
O209 Sc196 2.105 . S
O209 C203 1.268 . S
O210 Sc198 2.105 . S
O210 C204 1.268 . S
O211 Sc197 2.105 . S
O211 C205 1.268 . S
O212 Sc196 2.105 . S
O212 C204 1.268 . S
O213 Sc197 2.105 . S
O213 C203 1.268 . S
O214 Sc198 2.105 . S
O214 C205 1.268 . S
O215 Sc196 2.105 . S
O215 C201 1.268 . S
O216 Sc198 2.105 . S
O216 C200 1.268 . S
O217 Sc197 2.105 . S
O217 C202 1.268 . S
Sc218 O221 2.025 . S
Sc218 O228 2.105 . S
Sc218 O231 2.105 . S
Sc218 O234 2.105 . S
Sc218 O237 2.105 . S
Sc219 O221 2.025 . S
Sc219 O229 2.105 . S
Sc219 O233 2.105 . S
Sc219 O235 2.105 . S
Sc219 O239 2.105 . S
Sc220 O221 2.025 . S
Sc220 O230 2.105 . S
Sc220 O232 2.105 . S
Sc220 O236 2.105 . S
Sc220 O238 2.105 . S
O221 Sc218 2.025 . S
O221 Sc219 2.025 . S
O221 Sc220 2.025 . S
C222 O228 1.268 . S
C222 O238 1.268 . S
C223 O229 1.268 . S
C223 O237 1.268 . S
C224 O230 1.268 . S
C224 O239 1.268 . S
C225 O231 1.268 . S
C225 O235 1.268 . S
C226 O232 1.268 . S
C226 O234 1.268 . S
C227 O233 1.268 . S
C227 O236 1.268 . S
O228 Sc218 2.105 . S
O228 C222 1.268 . S
O229 Sc219 2.105 . S
O229 C223 1.268 . S
O230 Sc220 2.105 . S
O230 C224 1.268 . S
O231 Sc218 2.105 . S
O231 C225 1.268 . S
O232 Sc220 2.105 . S
O232 C226 1.268 . S
O233 Sc219 2.105 . S
O233 C227 1.268 . S
O234 Sc218 2.105 . S
O234 C226 1.268 . S
O235 Sc219 2.105 . S
O235 C225 1.268 . S
O236 Sc220 2.105 . S
O236 C227 1.268 . S
O237 Sc218 2.105 . S
O237 C223 1.268 . S
O238 Sc220 2.105 . S
O238 C222 1.268 . S
O239 Sc219 2.105 . S
O239 C224 1.268 . S
H240 C246 0.930 . S
H241 C249 0.930 . S
H242 C250 0.930 . S
H243 C251 0.930 . S
H244 C254 0.930 . S
H245 C255 0.930 . S
C246 H240 0.930 . S
C246 C247 1.355 . S
C246 C248 1.415 . S
C247 C246 1.355 . S
C247 C249 1.419 . S
C248 C246 1.415 . S
C248 C253 1.425 . S
C248 C255 1.409 . S
C249 H241 0.930 . S
C249 C247 1.419 . S
C249 C250 1.362 . S
C250 H242 0.930 . S
C250 C249 1.362 . S
C250 C253 1.409 . S
C251 H243 0.930 . S
C251 C252 1.355 . S
C251 C253 1.415 . S
C252 C251 1.355 . S
C252 C254 1.419 . S
C253 C248 1.425 . S
C253 C250 1.409 . S
C253 C251 1.415 . S
C254 H244 0.930 . S
C254 C252 1.419 . S
C254 C255 1.362 . S
C255 H245 0.930 . S
C255 C248 1.409 . S
C255 C254 1.362 . S
H256 C262 0.930 . S
H257 C265 0.930 . S
H258 C266 0.930 . S
H259 C267 0.930 . S
H260 C270 0.930 . S
H261 C271 0.930 . S
C262 H256 0.930 . S
C262 C263 1.355 . S
C262 C264 1.415 . S
C263 C262 1.355 . S
C263 C265 1.419 . S
C264 C262 1.415 . S
C264 C269 1.425 . S
C264 C271 1.409 . S
C265 H257 0.930 . S
C265 C263 1.419 . S
C265 C266 1.362 . S
C266 H258 0.930 . S
C266 C265 1.362 . S
C266 C269 1.409 . S
C267 H259 0.930 . S
C267 C268 1.355 . S
C267 C269 1.415 . S
C268 C267 1.355 . S
C268 C270 1.419 . S
C269 C264 1.425 . S
C269 C266 1.409 . S
C269 C267 1.415 . S
C270 H260 0.930 . S
C270 C268 1.419 . S
C270 C271 1.362 . S
C271 H261 0.930 . S
C271 C264 1.409 . S
C271 C270 1.362 . S
H272 C278 0.930 . S
H273 C281 0.930 1_554 S
H274 C282 0.918 1_554 S
H275 C283 0.930 . S
H276 C286 0.930 . S
H277 C287 0.930 . S
C278 H272 0.930 . S
C278 C279 1.355 . S
C278 C280 1.415 . S
C279 C278 1.355 . S
C279 C281 1.419 . S
C280 C278 1.415 . S
C280 C285 1.425 . S
C280 C287 1.409 . S
C281 H273 0.930 1_556 S
C281 C279 1.419 . S
C281 C282 1.362 . S
C282 H274 0.918 1_556 S
C282 C281 1.362 . S
C282 C285 1.409 . S
C283 H275 0.930 . S
C283 C284 1.355 . S
C283 C285 1.415 . S
C284 C283 1.355 . S
C284 C286 1.419 . S
C285 C280 1.425 . S
C285 C282 1.409 . S
C285 C283 1.415 . S
C286 H276 0.930 . S
C286 C284 1.419 . S
C286 C287 1.362 . S
C287 H277 0.930 . S
C287 C280 1.409 . S
C287 C286 1.362 . S
H288 C294 0.930 . S
H289 C297 0.930 . S
H290 C298 0.930 . S
H291 C299 0.930 . S
H292 C302 0.930 . S
H293 C303 0.930 . S
C294 H288 0.930 . S
C294 C295 1.355 . S
C294 C296 1.415 . S
C295 C294 1.355 . S
C295 C297 1.419 . S
C296 C294 1.415 . S
C296 C301 1.425 . S
C296 C303 1.409 . S
C297 H289 0.930 . S
C297 C295 1.419 . S
C297 C298 1.362 . S
C298 H290 0.930 . S
C298 C297 1.362 . S
C298 C301 1.409 . S
C299 H291 0.930 . S
C299 C300 1.355 . S
C299 C301 1.415 . S
C300 C299 1.355 . S
C300 C302 1.419 . S
C301 C296 1.425 . S
C301 C298 1.409 . S
C301 C299 1.415 . S
C302 H292 0.930 . S
C302 C300 1.419 . S
C302 C303 1.362 . S
C303 H293 0.930 . S
C303 C296 1.409 . S
C303 C302 1.362 . S
H304 C310 0.930 . S
H305 C313 0.930 . S
H306 C314 0.930 . S
H307 C315 0.930 . S
H308 C318 0.930 . S
H309 C319 0.930 . S
C310 H304 0.930 . S
C310 C311 1.355 . S
C310 C312 1.415 . S
C311 C310 1.355 . S
C311 C313 1.419 . S
C312 C310 1.415 . S
C312 C317 1.425 . S
C312 C319 1.409 . S
C313 H305 0.930 . S
C313 C311 1.419 . S
C313 C314 1.362 . S
C314 H306 0.930 . S
C314 C313 1.362 . S
C314 C317 1.409 . S
C315 H307 0.930 . S
C315 C316 1.355 . S
C315 C317 1.415 . S
C316 C315 1.355 . S
C316 C318 1.419 . S
C317 C312 1.425 . S
C317 C314 1.409 . S
C317 C315 1.415 . S
C318 H308 0.930 . S
C318 C316 1.419 . S
C318 C319 1.362 . S
C319 H309 0.930 . S
C319 C312 1.409 . S
C319 C318 1.362 . S
H320 C326 0.930 . S
H321 C329 0.930 . S
H322 C330 0.930 . S
H323 C331 0.930 . S
H324 C334 0.930 . S
H325 C335 0.930 . S
C326 H320 0.930 . S
C326 C327 1.355 . S
C326 C328 1.415 . S
C327 C326 1.355 . S
C327 C329 1.419 . S
C328 C326 1.415 . S
C328 C333 1.425 . S
C328 C335 1.409 . S
C329 H321 0.930 . S
C329 C327 1.419 . S
C329 C330 1.362 . S
C330 H322 0.930 . S
C330 C329 1.362 . S
C330 C333 1.409 . S
C331 H323 0.930 . S
C331 C332 1.355 . S
C331 C333 1.415 . S
C332 C331 1.355 . S
C332 C334 1.419 . S
C333 C328 1.425 . S
C333 C330 1.409 . S
C333 C331 1.415 . S
C334 H324 0.930 . S
C334 C332 1.419 . S
C334 C335 1.362 . S
C335 H325 0.930 . S
C335 C328 1.409 . S
C335 C334 1.362 . S
H336 C342 0.930 . S
H337 C345 0.930 . S
H338 C346 0.930 . S
H339 C347 0.930 . S
H340 C350 0.930 . S
H341 C351 0.930 . S
C342 H336 0.930 . S
C342 C343 1.355 . S
C342 C344 1.415 . S
C343 C342 1.355 . S
C343 C345 1.419 . S
C344 C342 1.415 . S
C344 C349 1.425 . S
C344 C351 1.409 . S
C345 H337 0.930 . S
C345 C343 1.419 . S
C345 C346 1.362 . S
C346 H338 0.930 . S
C346 C345 1.362 . S
C346 C349 1.409 . S
C347 H339 0.930 . S
C347 C348 1.355 . S
C347 C349 1.415 . S
C348 C347 1.355 . S
C348 C350 1.419 . S
C349 C344 1.425 . S
C349 C346 1.409 . S
C349 C347 1.415 . S
C350 H340 0.930 . S
C350 C348 1.419 . S
C350 C351 1.362 . S
C351 H341 0.930 . S
C351 C344 1.409 . S
C351 C350 1.362 . S
H352 C358 0.930 . S
H353 C361 0.930 . S
H354 C362 0.930 . S
H355 C363 0.930 . S
H356 C366 0.930 . S
H357 C367 0.930 . S
C358 H352 0.930 . S
C358 C359 1.355 . S
C358 C360 1.415 . S
C359 C358 1.355 . S
C359 C361 1.419 . S
C360 C358 1.415 . S
C360 C365 1.425 . S
C360 C367 1.409 . S
C361 H353 0.930 . S
C361 C359 1.419 . S
C361 C362 1.362 . S
C362 H354 0.930 . S
C362 C361 1.362 . S
C362 C365 1.409 . S
C363 H355 0.930 . S
C363 C364 1.355 . S
C363 C365 1.415 . S
C364 C363 1.355 . S
C364 C366 1.419 . S
C365 C360 1.425 . S
C365 C362 1.409 . S
C365 C363 1.415 . S
C366 H356 0.930 . S
C366 C364 1.419 . S
C366 C367 1.362 . S
C367 H357 0.930 . S
C367 C360 1.409 . S
C367 C366 1.362 . S
H368 C374 0.930 . S
H369 C377 0.944 . S
H370 C378 0.930 1_554 S
H371 C379 0.930 . S
H372 C382 0.930 . S
H373 C383 0.930 . S
C374 H368 0.930 . S
C374 C375 1.355 . S
C374 C376 1.415 . S
C375 C374 1.355 . S
C375 C377 1.409 1_556 S
C376 C374 1.415 . S
C376 C381 1.425 . S
C376 C383 1.409 . S
C377 H369 0.944 . S
C377 C375 1.409 1_554 S
C377 C378 1.358 1_554 S
C378 H370 0.930 1_556 S
C378 C377 1.358 1_556 S
C378 C381 1.409 . S
C379 H371 0.930 . S
C379 C380 1.355 . S
C379 C381 1.415 . S
C380 C379 1.355 . S
C380 C382 1.419 . S
C381 C376 1.425 . S
C381 C378 1.409 . S
C381 C379 1.415 . S
C382 H372 0.930 . S
C382 C380 1.419 . S
C382 C383 1.362 . S
C383 H373 0.930 . S
C383 C376 1.409 . S
C383 C382 1.362 . S
H384 C390 0.930 . S
H385 C393 0.930 . S
H386 C394 0.930 . S
H387 C395 0.930 . S
H388 C398 0.930 . S
H389 C399 0.930 . S
C390 H384 0.930 . S
C390 C391 1.355 . S
C390 C392 1.415 . S
C391 C390 1.355 . S
C391 C393 1.419 . S
C392 C390 1.415 . S
C392 C397 1.425 . S
C392 C399 1.409 . S
C393 H385 0.930 . S
C393 C391 1.419 . S
C393 C394 1.362 . S
C394 H386 0.930 . S
C394 C393 1.362 . S
C394 C397 1.409 . S
C395 H387 0.930 . S
C395 C396 1.355 . S
C395 C397 1.415 . S
C396 C395 1.355 . S
C396 C398 1.419 . S
C397 C392 1.425 . S
C397 C394 1.409 . S
C397 C395 1.415 . S
C398 H388 0.930 . S
C398 C396 1.419 . S
C398 C399 1.362 . S
C399 H389 0.930 . S
C399 C392 1.409 . S
C399 C398 1.362 . S
H400 C406 0.930 . S
H401 C409 0.930 . S
H402 C410 0.930 . S
H403 C411 0.930 . S
H404 C414 0.930 . S
H405 C415 0.930 . S
C406 H400 0.930 . S
C406 C407 1.355 . S
C406 C408 1.415 . S
C407 C406 1.355 . S
C407 C409 1.419 . S
C408 C406 1.415 . S
C408 C413 1.425 . S
C408 C415 1.409 . S
C409 H401 0.930 . S
C409 C407 1.419 . S
C409 C410 1.362 . S
C410 H402 0.930 . S
C410 C409 1.362 . S
C410 C413 1.409 . S
C411 H403 0.930 . S
C411 C412 1.355 . S
C411 C413 1.415 . S
C412 C411 1.355 . S
C412 C414 1.419 . S
C413 C408 1.425 . S
C413 C410 1.409 . S
C413 C411 1.415 . S
C414 H404 0.930 . S
C414 C412 1.419 . S
C414 C415 1.362 . S
C415 H405 0.930 . S
C415 C408 1.409 . S
C415 C414 1.362 . S
H416 C422 0.930 . S
H417 C425 0.930 . S
H418 C426 0.930 . S
H419 C427 0.930 . S
H420 C430 0.930 . S
H421 C431 0.930 . S
C422 H416 0.930 . S
C422 C423 1.355 . S
C422 C424 1.415 . S
C423 C422 1.355 . S
C423 C425 1.419 . S
C424 C422 1.415 . S
C424 C429 1.425 . S
C424 C431 1.409 . S
C425 H417 0.930 . S
C425 C423 1.419 . S
C425 C426 1.362 . S
C426 H418 0.930 . S
C426 C425 1.362 . S
C426 C429 1.409 . S
C427 H419 0.930 . S
C427 C428 1.355 . S
C427 C429 1.415 . S
C428 C427 1.355 . S
C428 C430 1.419 . S
C429 C424 1.425 . S
C429 C426 1.409 . S
C429 C427 1.415 . S
C430 H420 0.930 . S
C430 C428 1.419 . S
C430 C431 1.362 . S
C431 H421 0.930 . S
C431 C424 1.409 . S
C431 C430 1.362 . S
H432 C438 0.930 . S
H433 C441 0.930 . S
H434 C442 0.930 . S
H435 C443 0.930 . S
H436 C446 0.930 . S
H437 C447 0.930 . S
C438 H432 0.930 . S
C438 C439 1.355 . S
C438 C440 1.415 . S
C439 C438 1.355 . S
C439 C441 1.419 . S
C440 C438 1.415 . S
C440 C445 1.417 1_565 S
C440 C447 1.409 . S
C441 H433 0.930 . S
C441 C439 1.419 . S
C441 C442 1.362 1_565 S
C442 H434 0.930 . S
C442 C441 1.362 1_545 S
C442 C445 1.411 . S
C443 H435 0.930 . S
C443 C444 1.355 . S
C443 C445 1.421 . S
C444 C443 1.355 . S
C444 C446 1.419 1_545 S
C445 C440 1.417 1_545 S
C445 C442 1.411 . S
C445 C443 1.421 . S
C446 H436 0.930 . S
C446 C444 1.419 1_565 S
C446 C447 1.362 . S
C447 H437 0.930 . S
C447 C440 1.409 . S
C447 C446 1.362 . S
H448 C454 0.930 . S
H449 C457 0.930 . S
H450 C458 0.930 . S
H451 C459 0.930 . S
H452 C462 0.930 . S
H453 C463 0.930 . S
C454 H448 0.930 . S
C454 C455 1.355 . S
C454 C456 1.415 . S
C455 C454 1.355 . S
C455 C457 1.419 . S
C456 C454 1.415 . S
C456 C461 1.403 1_545 S
C456 C463 1.409 . S
C457 H449 0.930 . S
C457 C455 1.419 . S
C457 C458 1.362 1_545 S
C458 H450 0.930 . S
C458 C457 1.362 1_565 S
C458 C461 1.414 . S
C459 H451 0.930 . S
C459 C460 1.355 . S
C459 C461 1.432 . S
C460 C459 1.355 . S
C460 C462 1.419 1_565 S
C461 C456 1.403 1_565 S
C461 C458 1.414 . S
C461 C459 1.432 . S
C462 H452 0.930 . S
C462 C460 1.419 1_545 S
C462 C463 1.362 . S
C463 H453 0.930 . S
C463 C456 1.409 . S
C463 C462 1.362 . S
H464 C470 0.930 . S
H465 C473 0.930 1_554 S
H466 C474 0.921 1_544 S
H467 C475 0.930 . S
H468 C478 0.930 . S
H469 C479 0.930 . S
C470 H464 0.930 . S
C470 C471 1.355 . S
C470 C472 1.415 . S
C471 C470 1.355 . S
C471 C473 1.419 . S
C472 C470 1.415 . S
C472 C477 1.425 . S
C472 C479 1.409 . S
C473 H465 0.930 1_556 S
C473 C471 1.419 . S
C473 C474 1.371 . S
C474 H466 0.921 1_566 S
C474 C473 1.371 . S
C474 C477 1.410 . S
C475 H467 0.930 . S
C475 C476 1.355 . S
C475 C477 1.415 1_545 S
C476 C475 1.355 . S
C476 C478 1.419 1_545 S
C477 C472 1.425 . S
C477 C474 1.410 . S
C477 C475 1.415 1_565 S
C478 H468 0.930 . S
C478 C476 1.419 1_565 S
C478 C479 1.362 . S
C479 H469 0.930 . S
C479 C472 1.409 . S
C479 C478 1.362 . S
H480 C486 0.930 . S
H481 C489 0.930 . S
H482 C490 0.930 . S
H483 C491 0.930 . S
H484 C494 0.930 . S
H485 C495 0.930 . S
C486 H480 0.930 . S
C486 C487 1.355 . S
C486 C488 1.415 . S
C487 C486 1.355 . S
C487 C489 1.419 . S
C488 C486 1.415 . S
C488 C493 1.425 . S
C488 C495 1.409 1_545 S
C489 H481 0.930 . S
C489 C487 1.419 . S
C489 C490 1.362 . S
C490 H482 0.930 . S
C490 C489 1.362 . S
C490 C493 1.409 . S
C491 H483 0.930 . S
C491 C492 1.355 1_545 S
C491 C493 1.415 . S
C492 C491 1.355 1_565 S
C492 C494 1.419 . S
C493 C488 1.425 . S
C493 C490 1.409 . S
C493 C491 1.415 . S
C494 H484 0.930 . S
C494 C492 1.419 . S
C494 C495 1.362 . S
C495 H485 0.930 . S
C495 C488 1.409 1_565 S
C495 C494 1.362 . S
H496 C502 0.930 . S
H497 C505 0.930 . S
H498 C506 0.930 . S
H499 C507 0.930 . S
H500 C510 0.930 . S
H501 C511 0.930 . S
C502 H496 0.930 . S
C502 C503 1.355 . S
C502 C504 1.415 . S
C503 C502 1.355 . S
C503 C505 1.419 . S
C504 C502 1.415 . S
C504 C509 1.425 . S
C504 C511 1.409 . S
C505 H497 0.930 . S
C505 C503 1.419 . S
C505 C506 1.362 . S
C506 H498 0.930 . S
C506 C505 1.362 . S
C506 C509 1.409 . S
C507 H499 0.930 . S
C507 C508 1.355 . S
C507 C509 1.415 . S
C508 C507 1.355 . S
C508 C510 1.419 . S
C509 C504 1.425 . S
C509 C506 1.409 . S
C509 C507 1.415 . S
C510 H500 0.930 . S
C510 C508 1.419 . S
C510 C511 1.362 . S
C511 H501 0.930 . S
C511 C504 1.409 . S
C511 C510 1.362 . S
H512 C518 0.930 . S
H513 C521 0.930 . S
H514 C522 0.930 . S
H515 C523 0.930 . S
H516 C526 0.930 . S
H517 C527 0.930 . S
C518 H512 0.930 . S
C518 C519 1.355 . S
C518 C520 1.415 . S
C519 C518 1.355 . S
C519 C521 1.419 . S
C520 C518 1.415 . S
C520 C525 1.425 . S
C520 C527 1.409 . S
C521 H513 0.930 . S
C521 C519 1.419 . S
C521 C522 1.362 . S
C522 H514 0.930 . S
C522 C521 1.362 . S
C522 C525 1.409 . S
C523 H515 0.930 . S
C523 C524 1.355 . S
C523 C525 1.415 . S
C524 C523 1.355 . S
C524 C526 1.419 . S
C525 C520 1.425 . S
C525 C522 1.409 . S
C525 C523 1.415 . S
C526 H516 0.930 . S
C526 C524 1.419 . S
C526 C527 1.362 . S
C527 H517 0.930 . S
C527 C520 1.409 . S
C527 C526 1.362 . S
H528 C534 0.930 . S
H529 C537 0.930 . S
H530 C538 0.930 . S
H531 C539 0.930 . S
H532 C542 0.930 . S
H533 C543 0.930 . S
C534 H528 0.930 . S
C534 C535 1.355 . S
C534 C536 1.415 . S
C535 C534 1.355 . S
C535 C537 1.419 . S
C536 C534 1.415 . S
C536 C541 1.425 . S
C536 C543 1.409 . S
C537 H529 0.930 . S
C537 C535 1.419 . S
C537 C538 1.362 . S
C538 H530 0.930 . S
C538 C537 1.362 . S
C538 C541 1.409 . S
C539 H531 0.930 . S
C539 C540 1.355 . S
C539 C541 1.415 . S
C540 C539 1.355 . S
C540 C542 1.419 . S
C541 C536 1.425 . S
C541 C538 1.409 . S
C541 C539 1.415 . S
C542 H532 0.930 . S
C542 C540 1.419 . S
C542 C543 1.362 . S
C543 H533 0.930 . S
C543 C536 1.409 . S
C543 C542 1.362 . S
H544 C550 0.930 . S
H545 C553 0.930 . S
H546 C554 0.930 . S
H547 C555 0.930 . S
H548 C558 0.930 . S
H549 C559 0.930 . S
C550 H544 0.930 . S
C550 C551 1.355 . S
C550 C552 1.415 . S
C551 C550 1.355 . S
C551 C553 1.419 . S
C552 C550 1.415 . S
C552 C557 1.425 . S
C552 C559 1.409 . S
C553 H545 0.930 . S
C553 C551 1.419 . S
C553 C554 1.362 . S
C554 H546 0.930 . S
C554 C553 1.362 . S
C554 C557 1.409 . S
C555 H547 0.930 . S
C555 C556 1.355 . S
C555 C557 1.415 . S
C556 C555 1.355 . S
C556 C558 1.419 . S
C557 C552 1.425 . S
C557 C554 1.409 . S
C557 C555 1.415 . S
C558 H548 0.930 . S
C558 C556 1.419 . S
C558 C559 1.362 . S
C559 H549 0.930 . S
C559 C552 1.409 . S
C559 C558 1.362 . S
H560 C566 0.930 . S
H561 C569 0.930 . S
H562 C570 0.930 . S
H563 C571 0.930 . S
H564 C574 0.930 . S
H565 C575 0.930 . S
C566 H560 0.930 . S
C566 C567 1.355 . S
C566 C568 1.415 . S
C567 C566 1.355 . S
C567 C569 1.419 . S
C568 C566 1.415 . S
C568 C573 1.425 . S
C568 C575 1.409 . S
C569 H561 0.930 . S
C569 C567 1.419 . S
C569 C570 1.362 . S
C570 H562 0.930 . S
C570 C569 1.362 . S
C570 C573 1.409 . S
C571 H563 0.930 . S
C571 C572 1.355 . S
C571 C573 1.415 . S
C572 C571 1.355 . S
C572 C574 1.419 . S
C573 C568 1.425 . S
C573 C570 1.409 . S
C573 C571 1.415 . S
C574 H564 0.930 . S
C574 C572 1.419 . S
C574 C575 1.362 . S
C575 H565 0.930 . S
C575 C568 1.409 . S
C575 C574 1.362 . S
H576 C582 0.930 . S
H577 C585 0.930 . S
H578 C586 0.930 . S
H579 C587 0.930 . S
H580 C590 0.930 . S
H581 C591 0.930 . S
C582 H576 0.930 . S
C582 C583 1.355 . S
C582 C584 1.415 . S
C583 C582 1.355 . S
C583 C585 1.419 . S
C584 C582 1.415 . S
C584 C589 1.425 . S
C584 C591 1.409 . S
C585 H577 0.930 . S
C585 C583 1.419 . S
C585 C586 1.362 . S
C586 H578 0.930 . S
C586 C585 1.362 . S
C586 C589 1.409 . S
C587 H579 0.930 . S
C587 C588 1.355 . S
C587 C589 1.415 . S
C588 C587 1.355 . S
C588 C590 1.419 . S
C589 C584 1.425 . S
C589 C586 1.409 . S
C589 C587 1.415 . S
C590 H580 0.930 . S
C590 C588 1.419 . S
C590 C591 1.362 . S
C591 H581 0.930 . S
C591 C584 1.409 . S
C591 C590 1.362 . S
H592 C598 0.930 . S
H593 C601 0.930 . S
H594 C602 0.930 . S
H595 C603 0.930 . S
H596 C606 0.930 . S
H597 C607 0.930 . S
C598 H592 0.930 . S
C598 C599 1.355 . S
C598 C600 1.415 . S
C599 C598 1.355 . S
C599 C601 1.419 . S
C600 C598 1.415 . S
C600 C605 1.425 . S
C600 C607 1.409 . S
C601 H593 0.930 . S
C601 C599 1.419 . S
C601 C602 1.362 . S
C602 H594 0.930 . S
C602 C601 1.362 . S
C602 C605 1.409 . S
C603 H595 0.930 . S
C603 C604 1.355 . S
C603 C605 1.415 . S
C604 C603 1.355 . S
C604 C606 1.419 . S
C605 C600 1.425 . S
C605 C602 1.409 . S
C605 C603 1.415 . S
C606 H596 0.930 . S
C606 C604 1.419 . S
C606 C607 1.362 . S
C607 H597 0.930 . S
C607 C600 1.409 . S
C607 C606 1.362 . S
H608 C614 0.930 . S
H609 C617 0.930 . S
H610 C618 0.930 . S
H611 C619 0.930 . S
H612 C622 0.930 . S
H613 C623 0.930 . S
C614 H608 0.930 . S
C614 C615 1.355 . S
C614 C616 1.415 . S
C615 C614 1.355 . S
C615 C617 1.419 . S
C616 C614 1.415 . S
C616 C621 1.425 . S
C616 C623 1.409 . S
C617 H609 0.930 . S
C617 C615 1.419 . S
C617 C618 1.362 . S
C618 H610 0.930 . S
C618 C617 1.362 . S
C618 C621 1.409 . S
C619 H611 0.930 . S
C619 C620 1.355 . S
C619 C621 1.415 . S
C620 C619 1.355 . S
C620 C622 1.419 . S
C621 C616 1.425 . S
C621 C618 1.409 . S
C621 C619 1.415 . S
C622 H612 0.930 . S
C622 C620 1.419 . S
C622 C623 1.362 . S
C623 H613 0.930 . S
C623 C616 1.409 . S
C623 C622 1.362 . S
C247 C11 1.475 . S
C252 C178 1.502 . S
C268 C156 1.556 . S
C263 C30 1.466 . S
C284 C182 1.523 . S
C279 C49 1.329 . S
C300 C160 1.509 . S
C295 C68 1.313 . S
C316 C222 1.509 . S
C311 C87 1.503 . S
C332 C200 1.534 . S
C327 C106 1.422 . S
C343 C125 1.420 . S
C348 C226 1.557 . S
C364 C204 1.521 . S
C359 C144 1.324 . S
C375 C2 1.504 . S
C380 C227 1.585 . S
C396 C205 1.563 . S
C391 C21 1.555 . S
C407 C40 1.496 . S
C412 C224 1.590 . S
C423 C59 1.497 . S
C428 C202 1.589 . S
C444 C183 1.561 . S
C439 C78 1.554 . S
C455 C97 1.552 . S
C460 C161 1.560 . S
C476 C180 1.574 . S
C471 C116 1.523 . S
C492 C158 1.588 . S
C487 C135 1.504 . S
C508 C201 1.527 . S
C503 C6 1.502 . S
C524 C223 1.491 . S
C519 C25 1.528 . S
C535 C44 1.530 . S
C540 C203 1.487 . S
C556 C225 1.522 . S
C551 C63 1.497 . S
C572 C157 1.490 . S
C567 C82 1.530 . S
C583 C101 1.501 . S
C588 C179 1.525 . S
C599 C120 1.494 . S
C604 C159 1.525 . S
C615 C139 1.530 . S
C620 C181 1.490 . S
