# Generated by pormake.
# Topology zzz, (3,6)-cn, num edge types: 1
# Building blocks:
#     Node 0, Type 0, BuildingBlock: BETDIP_clean_linker_0, # of connection points: 3
#     Node 1, Type 0, BuildingBlock: BETDIP_clean_linker_0, # of connection points: 3
#     Node 2, Type 0, BuildingBlock: BETDIP_clean_linker_0, # of connection points: 3
#     Node 3, Type 0, BuildingBlock: BETDIP_clean_linker_0, # of connection points: 3
#     Node 4, Type 0, BuildingBlock: BETDIP_clean_linker_0, # of connection points: 3
#     Node 5, Type 0, BuildingBlock: BETDIP_clean_linker_0, # of connection points: 3
#     Node 6, Type 0, BuildingBlock: BETDIP_clean_linker_0, # of connection points: 3
#     Node 7, Type 0, BuildingBlock: BETDIP_clean_linker_0, # of connection points: 3
#     Node 8, Type 1, BuildingBlock: KUMBOL_clean_sbu_1, # of connection points: 6
#     Node 9, Type 1, BuildingBlock: KUMBOL_clean_sbu_1, # of connection points: 6
#     Node 10, Type 1, BuildingBlock: KUMBOL_clean_sbu_1, # of connection points: 6
#     Node 11, Type 1, BuildingBlock: KUMBOL_clean_sbu_1, # of connection points: 6
#     Edge 12, Type (0, 1), BuildingBlock: EZIPEK_clean_linker_0, # of connection points: 2
#     Edge 13, Type (0, 1), BuildingBlock: EZIPEK_clean_linker_0, # of connection points: 2
#     Edge 14, Type (0, 1), BuildingBlock: EZIPEK_clean_linker_0, # of connection points: 2
#     Edge 15, Type (0, 1), BuildingBlock: EZIPEK_clean_linker_0, # of connection points: 2
#     Edge 16, Type (0, 1), BuildingBlock: EZIPEK_clean_linker_0, # of connection points: 2
#     Edge 17, Type (0, 1), BuildingBlock: EZIPEK_clean_linker_0, # of connection points: 2
#     Edge 18, Type (0, 1), BuildingBlock: EZIPEK_clean_linker_0, # of connection points: 2
#     Edge 19, Type (0, 1), BuildingBlock: EZIPEK_clean_linker_0, # of connection points: 2
#     Edge 20, Type (0, 1), BuildingBlock: EZIPEK_clean_linker_0, # of connection points: 2
#     Edge 21, Type (0, 1), BuildingBlock: EZIPEK_clean_linker_0, # of connection points: 2
#     Edge 22, Type (0, 1), BuildingBlock: EZIPEK_clean_linker_0, # of connection points: 2
#     Edge 23, Type (0, 1), BuildingBlock: EZIPEK_clean_linker_0, # of connection points: 2
#     Edge 24, Type (0, 1), BuildingBlock: EZIPEK_clean_linker_0, # of connection points: 2
#     Edge 25, Type (0, 1), BuildingBlock: EZIPEK_clean_linker_0, # of connection points: 2
#     Edge 26, Type (0, 1), BuildingBlock: EZIPEK_clean_linker_0, # of connection points: 2
#     Edge 27, Type (0, 1), BuildingBlock: EZIPEK_clean_linker_0, # of connection points: 2
#     Edge 28, Type (0, 1), BuildingBlock: EZIPEK_clean_linker_0, # of connection points: 2
#     Edge 29, Type (0, 1), BuildingBlock: EZIPEK_clean_linker_0, # of connection points: 2
#     Edge 30, Type (0, 1), BuildingBlock: EZIPEK_clean_linker_0, # of connection points: 2
#     Edge 31, Type (0, 1), BuildingBlock: EZIPEK_clean_linker_0, # of connection points: 2
#     Edge 32, Type (0, 1), BuildingBlock: EZIPEK_clean_linker_0, # of connection points: 2
#     Edge 33, Type (0, 1), BuildingBlock: EZIPEK_clean_linker_0, # of connection points: 2
#     Edge 34, Type (0, 1), BuildingBlock: EZIPEK_clean_linker_0, # of connection points: 2
#     Edge 35, Type (0, 1), BuildingBlock: EZIPEK_clean_linker_0, # of connection points: 2
# Relax obj value: 0.246
# Max RMSD: 0.126
# Mean RMSD: 0.085
data_MOF--net-zzz--node1-KUMBOL_clean_sbu_1--node2-BETDIP_clean_linker_0--edge1-EZIPEK_clean_linker_0
_symmetry_space_group_name_H-M    P1
_symmetry_Int_Tables_number       1
_symmetry_cell_setting            triclinic
loop_
_symmetry_equiv_pos_as_xyz
'x, y, z'
_cell_length_a     36.601989
_cell_length_b     36.889075
_cell_length_c     11.666618
_cell_angle_alpha  90.455909
_cell_angle_beta   89.744101
_cell_angle_gamma 89.958939
loop_
_atom_site_label
_atom_site_type_symbol
_atom_site_fract_x
_atom_site_fract_y
_atom_site_fract_z
_atom_type_partial_charge
H0 H 0.77135 0.51454 0.47591 0.0
H1 H 0.74144 0.58534 0.20043 0.0
H2 H 0.8442 0.59933 0.37121 0.0
H3 H 0.68235 0.57842 0.3065 0.0
C4 C 0.68473 0.55054 0.27676 0.0
C5 C 0.77722 0.53782 0.42306 0.0
C6 C 0.81142 0.55669 0.43633 0.0
C7 C 0.75074 0.54964 0.34005 0.0
C8 C 0.76018 0.57815 0.26761 0.0
C9 C 0.79498 0.59366 0.26851 0.0
C10 C 0.81824 0.58566 0.36217 0.0
N11 N 0.71662 0.53112 0.31696 0.0
H12 H 1.01943 0.78247 0.5261 0.0
H13 H 0.03165 0.75522 0.16778 0.0
H14 H 0.03993 0.86578 0.27429 0.0
H15 H 0.96835 0.70794 0.30871 0.0
C16 C 0.99717 0.70224 0.29683 0.0
C17 C 0.02262 0.79104 0.43812 0.0
C18 C 0.02745 0.82918 0.41329 0.0
C19 C 0.02233 0.76412 0.3469 0.0
C20 C 0.02871 0.77537 0.23551 0.0
C21 C 0.03726 0.81113 0.21256 0.0
C22 C 0.03412 0.83797 0.29762 0.0
N23 N 1.0209 0.72546 0.36383 0.0
H24 H 0.78259 0.05939 0.49258 0.0
H25 H 0.81072 0.9749 0.25046 0.0
H26 H 0.71615 0.96387 0.465 0.0
H27 H 0.87176 0.98908 0.3473 0.0
C28 C 0.86885 1.01542 0.30713 0.0
C29 C 0.77713 0.03306 0.4549 0.0
C30 C 0.74448 1.01361 0.48665 0.0
C31 C 0.80296 1.01749 0.37446 0.0
C32 C 0.79357 0.98483 0.31958 0.0
C33 C 0.76045 0.96721 0.3426 0.0
C34 C 0.73975 0.97923 0.43774 0.0
N35 N 0.83611 0.03558 0.33732 0.0
H36 H 0.5194 0.77104 0.45243 0.0
H37 H 0.56709 0.78464 0.11822 0.0
H38 H 0.57815 0.68336 0.29273 0.0
H39 H 0.58299 0.83949 0.19485 0.0
C40 C 0.55437 0.84657 0.20638 0.0
C41 C 0.53593 0.76063 0.3824 0.0
C42 C 0.54847 0.7235 0.38435 0.0
C43 C 0.54494 0.78387 0.28717 0.0
C44 C 0.56344 0.76838 0.19362 0.0
C45 C 0.57394 0.732 0.18999 0.0
C46 C 0.56917 0.71122 0.29042 0.0
N47 N 0.53349 0.8215 0.27668 0.0
H48 H 0.27584 0.48696 1.00497 0.0
H49 H 0.29884 0.53667 0.33395 0.0
H50 H 0.19379 0.55053 0.1844 0.0
H51 H 0.32561 0.47268 0.35343 0.0
C52 C 0.34437 0.48308 0.28912 0.0
C53 C 0.26703 0.5026 0.07894 0.0
C54 C 0.23063 0.518 0.08169 0.0
C55 C 0.29173 0.50787 0.17419 0.0
C56 C 0.28026 0.53017 0.26465 0.0
C57 C 0.24557 0.54531 0.26663 0.0
C58 C 0.22076 0.53833 0.179 0.0
N59 N 0.32844 0.49322 0.18009 0.0
H60 H 0.05096 0.29259 1.00697 0.0
H61 H 1.00174 0.30659 0.34223 0.0
H62 H 0.99194 0.20493 0.1688 0.0
H63 H 0.06695 0.33691 0.3633 0.0
C64 C 0.05377 0.35573 0.3054 0.0
C65 C 0.03616 0.2816 0.07924 0.0
C66 C 0.02253 0.24464 0.07374 0.0
C67 C 0.0303 0.30401 0.18062 0.0
C68 C 1.00889 0.28981 0.26878 0.0
C69 C 0.99495 0.25485 0.26237 0.0
C70 C 1.00299 0.23224 0.16923 0.0
N71 N 0.04281 0.34119 0.19427 0.0
H72 H 0.26554 0.04043 1.01121 0.0
H73 H 0.25326 0.10622 0.31692 0.0
H74 H 0.35736 0.09842 0.14937 0.0
H75 H 0.19142 0.11314 0.20692 0.0
C76 C 0.18889 0.08518 0.23217 0.0
C77 C 0.27666 0.05971 0.07212 0.0
C78 C 0.31444 0.07031 0.063 0.0
C79 C 0.25371 0.0738 0.16301 0.0
C80 C 0.26945 0.09703 0.24446 0.0
C81 C 0.30683 0.10427 0.24352 0.0
C82 C 0.32827 0.09294 0.14929 0.0
N83 N 0.21673 0.06153 0.18407 0.0
H84 H 0.48365 0.28273 0.06202 0.0
H85 H 0.56489 0.23842 0.28867 0.0
H86 H 0.58429 0.34025 0.12618 0.0
H87 H 0.48648 0.21235 0.24809 0.0
C88 C 0.49517 0.2144 0.33573 0.0
C89 C 0.51045 0.28421 0.10049 0.0
C90 C 0.53371 0.31477 0.07682 0.0
C91 C 0.52181 0.2564 0.17899 0.0
C92 C 0.55612 0.25905 0.22905 0.0
C93 C 0.57725 0.29003 0.21549 0.0
C94 C 0.56706 0.31655 0.1361 0.0
N95 N 0.49808 0.22616 0.2158 0.0
C96 C 0.12641 0.08824 0.92012 0.0
C97 C 0.10517 0.11985 0.0913 0.0
C98 C 0.10079 0.09245 1.00735 0.0
C99 C 0.1355 0.14298 0.08606 0.0
C100 C 0.15766 0.11068 0.91735 0.0
C101 C 0.16179 0.13829 0.99973 0.0
N102 N 0.12114 0.06197 0.83921 0.0
C103 C 0.14784 0.05493 0.7596 0.0
C104 C 0.18395 0.1047 0.832 0.0
C105 C 0.17921 0.0764 0.7537 0.0
Gd106 Gd 0.98433 0.04331 0.65032 0.0
Gd107 Gd 0.06639 0.02814 0.85543 0.0
N108 N 0.07104 0.07035 1.00844 0.0
C109 C 0.07882 0.12339 0.1778 0.0
C110 C 0.0462 0.07266 0.09616 0.0
C111 C 0.04942 0.09943 0.18091 0.0
H112 H 0.0231 0.05476 0.09884 0.0
H113 H 0.02901 0.1018 0.24795 0.0
H114 H 0.02981 0.05141 0.39049 0.0
H115 H 0.14567 0.0323 0.70152 0.0
H116 H 0.04305 1.01225 0.22533 0.0
H117 H 0.08107 0.14433 0.243 0.0
H118 H 0.13914 0.16433 0.14931 0.0
H119 H 0.92137 0.99814 0.79987 0.0
H120 H 0.20833 0.12129 0.82727 0.0
H121 H 0.19989 0.07086 0.68929 0.0
H122 H 0.95966 0.91372 0.26125 0.0
H123 H 0.1854 0.15599 0.99807 0.0
H124 H 0.88653 0.90663 0.60113 0.0
H125 H 0.88218 0.94412 0.77742 0.0
N126 N 0.9485 0.99054 0.63997 0.0
C127 C 0.95006 0.97138 0.54 0.0
C128 C 0.92374 0.9817 0.72331 0.0
C129 C 0.90374 0.93034 0.61054 0.0
C130 C 0.90133 0.95131 0.71041 0.0
C131 C 0.92825 0.94022 0.52382 0.0
H132 H 0.91546 0.8956 0.40903 0.0
N133 N 0.99435 1.01322 0.47183 0.0
C134 C 0.97442 0.98234 0.45535 0.0
C135 C 1.00356 0.97216 0.2715 0.0
C136 C 0.97822 0.96135 0.35406 0.0
C137 C 1.01656 0.02544 0.38569 0.0
C138 C 0.02296 1.00415 0.28795 0.0
O139 O 0.04145 0.08527 0.8687 0.0
O140 O 1.00754 0.0987 0.70802 0.0
O141 O 0.95311 0.07104 0.51802 0.0
O142 O 0.92856 0.05926 0.68186 0.0
O143 O 1.0102 1.01457 0.93426 0.0
O144 O 0.9699 0.05158 0.83978 0.0
O145 O 0.99878 0.98577 0.71117 0.0
O146 O 0.05988 0.98658 0.70678 0.0
O147 O 0.06392 0.97894 0.95609 0.0
O148 O 0.11556 1.00657 0.93259 0.0
O149 O 0.03994 0.06501 0.58074 0.0
O150 O 0.08184 0.02853 0.66771 0.0
C151 C 0.02447 0.10889 0.80335 0.0
C152 C 0.97842 0.03176 0.92936 0.0
C153 C 0.90578 0.11003 0.59006 0.0
C154 C 0.90361 0.17433 0.55006 0.0
C155 C 0.85587 0.14714 0.66446 0.0
C156 C 0.8729 0.11338 0.65225 0.0
C157 C 0.87129 0.17775 0.61403 0.0
C158 C 0.92083 0.14061 0.53865 0.0
C159 C 0.92434 0.07474 0.58365 0.0
C160 C 0.95697 0.93004 0.33849 0.0
C161 C 0.93179 0.91973 0.42257 0.0
H162 H 1.00813 0.9562 0.19434 0.0
C163 C 0.02933 0.96893 0.68441 0.0
C164 C 0.07357 0.05114 0.58577 0.0
C165 C 0.11432 0.94366 0.90024 0.0
C166 C 0.11159 0.87845 0.87608 0.0
C167 C 0.14362 0.91434 0.73573 0.0
C168 C 0.1349 0.94579 0.79806 0.0
C169 C 0.13185 0.88053 0.77436 0.0
C170 C 0.10313 0.9099 0.93872 0.0
C171 C 0.09949 0.97624 0.9572 0.0
H172 H 0.83075 0.14955 0.71327 0.0
H173 H 0.86066 0.08994 0.69251 0.0
H174 H 0.85803 0.20386 0.62373 0.0
H175 H 0.94609 0.13845 0.49007 0.0
H176 H 0.15907 0.91627 0.65669 0.0
H177 H 0.14344 0.97168 0.76466 0.0
H178 H 0.13843 0.85626 0.72566 0.0
H179 H 0.08677 0.90807 0.01636 0.0
C180 C 0.5215 0.91254 0.65319 0.0
C181 C 0.46351 0.88661 0.7122 0.0
C182 C 0.48499 0.91719 0.68461 0.0
C183 C 0.47947 0.85198 0.71309 0.0
C184 C 0.53719 0.87758 0.65025 0.0
C185 C 0.51617 0.84747 0.68211 0.0
N186 N 0.54164 0.9422 0.62471 0.0
C187 C 0.57625 0.93837 0.58224 0.0
C188 C 0.57345 0.87379 0.61347 0.0
C189 C 0.59288 0.90426 0.57793 0.0
Gd190 Gd 0.54199 0.05582 0.89303 0.0
Gd191 Gd 0.51126 0.99818 0.63367 0.0
N192 N 0.47012 0.95116 0.68359 0.0
C193 C 0.42633 0.89152 0.7354 0.0
C194 C 0.43316 0.95545 0.69823 0.0
C195 C 0.41101 0.92596 0.72645 0.0
H196 H 0.41991 0.98112 0.68478 0.0
H197 H 0.38197 0.92977 0.73962 0.0
H198 H 0.63375 0.06179 0.88423 0.0
H199 H 0.59118 0.96149 0.55119 0.0
H200 H 0.68062 0.10904 0.89241 0.0
H201 H 0.40899 0.86873 0.75677 0.0
H202 H 0.46343 0.82836 0.7353 0.0
H203 H 0.45899 0.10185 0.93175 0.0
H204 H 0.5864 0.84738 0.60972 0.0
H205 H 0.62061 0.90142 0.54655 0.0
H206 H 0.61347 0.21923 0.9456 0.0
H207 H 0.52787 0.82047 0.68103 0.0
H208 H 0.48346 0.21373 0.96084 0.0
H209 H 0.4388 0.16379 0.95391 0.0
N210 N 0.51615 0.11437 0.9208 0.0
C211 C 0.5413 0.1417 0.92723 0.0
C212 C 0.47969 0.12227 0.93196 0.0
C213 C 0.49297 0.18608 0.9501 0.0
C214 C 0.4677 0.15799 0.94584 0.0
C215 C 0.53021 0.17819 0.94232 0.0
H216 H 0.54839 0.23386 0.95788 0.0
N217 N 0.58896 0.09873 0.89657 0.0
C218 C 0.5785 0.13358 0.91678 0.0
C219 C 0.64186 0.15249 0.91394 0.0
C220 C 0.60485 0.16148 0.92427 0.0
C221 C 0.62513 0.08968 0.89031 0.0
C222 C 0.65203 0.1164 0.8976 0.0
O223 O 0.53886 0.97013 0.78674 0.0
O224 O 0.51351 1.00195 0.93083 0.0
O225 O 0.56785 0.02207 0.01597 0.0
O226 O 0.55101 0.07572 0.06806 0.0
O227 O 0.46166 0.02634 0.72175 0.0
O228 O 0.48074 0.04476 0.90122 0.0
O229 O 0.54612 0.08616 0.7213 0.0
O230 O 0.50165 0.05959 0.6121 0.0
O231 O 0.47532 0.97751 0.50152 0.0
O232 O 0.52698 1.00092 0.45387 0.0
O233 O 0.58828 0.02715 0.79303 0.0
O234 O 0.56912 0.02184 0.6071 0.0
C235 C 0.5254 0.9706 0.89151 0.0
C236 C 0.4543 0.03714 0.82834 0.0
C237 C 0.60617 0.05104 0.14402 0.0
C238 C 0.6645 0.02199 0.18049 0.0
C239 C 0.65868 0.0875 0.19567 0.0
C240 C 0.62159 0.08504 0.16855 0.0
C241 C 0.68022 0.05617 0.20024 0.0
C242 C 0.62764 1.01978 0.15326 0.0
C243 C 0.56955 0.0469 0.09504 0.0
C244 C 0.59362 0.1975 0.94046 0.0
C245 C 0.55648 0.20582 0.94823 0.0
H246 H 0.66281 0.17316 0.91955 0.0
C247 C 0.52446 0.08688 0.63074 0.0
C248 C 0.5958 0.02623 0.68215 0.0
C249 C 0.47517 1.01886 0.35249 0.0
C250 C 0.42777 0.06502 0.34 0.0
C251 C 0.46822 0.05298 0.17891 0.0
C252 C 0.48543 0.02543 0.23925 0.0
C253 C 0.43894 0.07194 0.22698 0.0
C254 C 0.44765 0.04014 0.40448 0.0
C255 C 0.49451 0.99177 0.41995 0.0
H256 H 0.6709 0.11378 0.21122 0.0
H257 H 0.60557 0.10962 0.16198 0.0
H258 H 0.70905 0.0585 0.21937 0.0
H259 H 0.61586 0.99342 0.13639 0.0
H260 H 0.47762 0.05987 0.09497 0.0
H261 H 0.50741 1.01018 0.19925 0.0
H262 H 0.425 0.09191 0.1755 0.0
H263 H 0.44053 0.03632 0.49384 0.0
C264 C 0.44579 0.47186 0.9548 0.0
C265 C 0.46823 0.46991 0.1491 0.0
C266 C 0.46776 0.48608 0.04035 0.0
C267 C 0.44809 0.43813 0.16827 0.0
C268 C 0.42321 0.44169 0.9765 0.0
C269 C 0.4251 0.4244 0.08293 0.0
N270 N 0.44652 0.48762 0.84999 0.0
C271 C 0.42116 0.4781 0.76936 0.0
C272 C 0.39941 0.42987 0.89057 0.0
C273 C 0.39777 0.44873 0.78755 0.0
Gd274 Gd 0.57164 0.50336 0.62376 0.0
Gd275 Gd 0.49049 0.53388 0.82623 0.0
N276 N 0.48876 0.51566 0.01761 0.0
C277 C 0.48948 0.48597 0.23449 0.0
C278 C 0.5062 0.53356 0.10402 0.0
C279 C 0.5061 0.51926 0.21407 0.0
H280 H 0.52005 0.55886 0.08822 0.0
H281 H 0.51862 0.53393 0.2828 0.0
H282 H 0.57072 0.53052 0.35602 0.0
H283 H 0.41852 0.49294 0.69099 0.0
H284 H 0.58713 0.58448 0.24378 0.0
H285 H 0.49289 0.47317 0.3165 0.0
H286 H 0.44977 0.42415 0.24919 0.0
H287 H 0.64707 0.48475 0.78639 0.0
H288 H 0.3815 0.4069 0.90411 0.0
H289 H 0.37845 0.44073 0.72208 0.0
H290 H 0.66469 0.65188 0.49938 0.0
H291 H 0.40879 0.40056 0.10032 0.0
H292 H 0.71259 0.58063 0.80317 0.0
H293 H 0.7008 0.51739 0.86184 0.0
N294 N 0.62637 0.53035 0.69587 0.0
C295 C 0.63498 0.5634 0.65286 0.0
C296 C 0.6514 0.51272 0.76261 0.0
C297 C 0.68858 0.56671 0.77214 0.0
C298 C 0.68211 0.53097 0.80474 0.0
C299 C 0.66575 0.58288 0.6916 0.0
H300 H 0.69753 0.63206 0.67171 0.0
N301 N 0.59256 0.55115 0.50951 0.0
C302 C 0.61705 0.57438 0.55579 0.0
C303 C 0.61537 0.61057 0.38458 0.0
C304 C 0.62868 0.60529 0.49558 0.0
C305 C 0.5845 0.55294 0.39599 0.0
C306 C 0.59452 0.58325 0.3328 0.0
O307 O 0.49849 0.47211 0.79185 0.0
O308 O 0.55957 0.4617 0.76464 0.0
O309 O 0.57572 0.44967 0.54163 0.0
O310 O 0.6158 0.49045 0.50758 0.0
O311 O 0.54786 0.546 0.90084 0.0
O312 O 0.58293 0.50153 0.8167 0.0
O313 O 0.53935 0.55465 0.57726 0.0
O314 O 0.52744 0.57862 0.75119 0.0
O315 O 0.45568 0.56414 0.94387 0.0
O316 O 0.4508 0.57266 0.76257 0.0
O317 O 0.51369 0.49413 0.54088 0.0
O318 O 0.47108 0.52763 0.64562 0.0
C319 C 0.5277 0.45146 0.80711 0.0
C320 C 0.57742 0.52507 0.9006 0.0
C321 C 0.63769 0.431 0.51265 0.0
C322 C 0.66318 0.37088 0.48073 0.0
C323 C 0.69937 0.41657 0.57656 0.0
C324 C 0.67086 0.44152 0.56414 0.0
C325 C 0.69551 0.3811 0.53566 0.0
C326 C 0.63438 0.39582 0.47003 0.0
C327 C 0.60733 0.45679 0.4957 0.0
C328 C 0.6559 0.62754 0.54291 0.0
C329 C 0.67459 0.61624 0.64102 0.0
H330 H 0.62406 0.63366 0.33491 0.0
C331 C 0.53322 0.58381 0.64057 0.0
C332 C 0.47998 0.50799 0.55574 0.0
C333 C 0.44433 0.62299 0.88404 0.0
C334 C 0.48376 0.67309 0.93783 0.0
C335 C 0.41782 0.68078 0.93909 0.0
C336 C 0.41347 0.64464 0.90397 0.0
C337 C 0.45285 0.69484 0.95816 0.0
C338 C 0.47911 0.63796 0.89553 0.0
C339 C 0.44132 0.58392 0.86426 0.0
H340 H 0.7246 0.42488 0.61703 0.0
H341 H 0.67515 0.46904 0.5931 0.0
H342 H 0.71767 0.36191 0.54536 0.0
H343 H 0.60935 0.38778 0.42723 0.0
H344 H 0.39403 0.69748 0.95566 0.0
H345 H 0.38628 0.63341 0.89539 0.0
H346 H 0.45579 0.72219 0.99134 0.0
H347 H 0.50285 0.62105 0.88381 0.0
C348 C 0.05281 0.42441 0.93102 0.0
C349 C 0.09159 0.438 0.09397 0.0
C350 C 0.06476 0.44851 0.01427 0.0
C351 C 0.10645 0.40295 0.08773 0.0
C352 C 0.06726 0.38893 0.92579 0.0
C353 C 0.09439 0.3785 1.00368 0.0
N354 N 0.02656 0.43535 0.85675 0.0
C355 C 1.01196 0.41112 0.78019 0.0
C356 C 0.05371 0.36478 0.84337 0.0
C357 C 0.02567 0.37584 0.77104 0.0
Gd358 Gd 0.03385 0.57479 0.67619 0.0
Gd359 Gd 1.00558 0.49585 0.87704 0.0
N360 N 0.05059 0.48257 0.01604 0.0
C361 C 0.10281 0.46309 0.17723 0.0
C362 C 0.06024 0.50651 0.10085 0.0
C363 C 0.08677 0.49738 0.18144 0.0
H364 H 0.04889 0.53339 0.10107 0.0
H365 H 0.09506 0.51693 0.24591 0.0
H366 H 0.0434 0.53209 0.41434 0.0
H367 H 0.98907 0.41859 0.72734 0.0
H368 H 1.00832 0.52935 0.23707 0.0
H369 H 0.1237 0.45624 0.23887 0.0
H370 H 0.12722 0.39444 0.14768 0.0
H371 H 0.99641 0.64258 0.82487 0.0
H372 H 0.06413 0.33734 0.83652 0.0
H373 H 1.01426 0.35705 0.70912 0.0
H374 H 0.93178 0.63343 0.2555 0.0
H375 H 0.10586 0.35142 1.00062 0.0
H376 H 0.91659 0.69412 0.61569 0.0
H377 H 0.94875 0.68927 0.80105 0.0
N378 N 0.9873 0.61799 0.66316 0.0
C379 C 0.97201 0.62171 0.55824 0.0
C380 C 0.98062 0.64295 0.74759 0.0
C381 C 0.93652 0.67278 0.62792 0.0
C382 C 0.95441 0.67002 0.73274 0.0
C383 C 0.9458 0.649 0.53837 0.0
H384 H 0.91119 0.67382 0.41104 0.0
N385 N 1.00932 0.57303 0.4905 0.0
C386 C 0.98292 0.59831 0.47045 0.0
C387 C 0.9767 0.57642 0.2764 0.0
C388 C 0.96718 0.60157 0.36137 0.0
C389 C 1.02087 0.55051 0.404 0.0
C390 C 1.00277 0.5502 0.29928 0.0
O391 O 0.06694 0.50988 0.88025 0.0
O392 O 0.0858 0.5449 0.72828 0.0
O393 O 0.06776 0.6035 0.55255 0.0
O394 O 0.05751 0.62648 0.72043 0.0
O395 O 0.99534 0.55403 0.94724 0.0
O396 O 0.04157 0.5865 0.86716 0.0
O397 O 0.97205 0.56735 0.71521 0.0
O398 O 0.96396 0.50674 0.73152 0.0
O399 O 0.97079 0.50462 0.02436 0.0
O400 O 0.96784 0.45365 0.93301 0.0
O401 O 0.04775 0.51704 0.60432 0.0
O402 O 1.00517 0.48032 0.68852 0.0
C403 C 0.09307 0.52574 0.82054 0.0
C404 C 1.01756 0.58239 0.94995 0.0
C405 C 0.11285 0.64249 0.6356 0.0
C406 C 0.17708 0.63733 0.58732 0.0
C407 C 0.15745 0.68223 0.72653 0.0
C408 C 0.12125 0.67101 0.71191 0.0
C409 C 0.1855 0.66527 0.66475 0.0
C410 C 0.14094 0.62603 0.57297 0.0
C411 C 0.07493 0.62992 0.62417 0.0
C412 C 0.94214 0.62945 0.34064 0.0
C413 C 0.93081 0.65262 0.42901 0.0
H414 H 0.96387 0.57664 0.19318 0.0
C415 C 0.95189 0.53836 0.69465 0.0
C416 C 0.02951 0.48572 0.60725 0.0
C417 C 0.91285 0.47738 1.00867 0.0
C418 C 0.85955 0.51652 0.02388 0.0
C419 C 0.85342 0.45155 0.05061 0.0
C420 C 0.89102 0.44721 0.03347 0.0
C421 C 0.83783 0.48618 0.04884 0.0
C422 C 0.89637 0.51137 0.99537 0.0
C423 C 0.95292 0.47442 1.01017 0.0
H424 H 0.16373 0.70394 0.78615 0.0
H425 H 0.09987 0.68435 0.76102 0.0
H426 H 0.21352 0.67384 0.67688 0.0
H427 H 0.13497 0.60407 0.51358 0.0
H428 H 0.83669 0.42831 0.07141 0.0
H429 H 0.90319 0.42064 0.04312 0.0
H430 H 0.80931 0.48945 0.07201 0.0
H431 H 0.91316 0.53485 0.97848 0.0
C432 C 0.14774 0.03984 0.34341 0.0
C433 C 0.15929 0.07578 0.32181 0.0
C434 C 0.11083 0.09606 0.46045 0.0
C435 C 0.10334 0.05966 0.49455 0.0
N436 N 0.13105 0.99905 0.49292 0.0
N437 N 0.15686 0.13791 0.39202 0.0
C438 C 0.1265 0.03213 0.4438 0.0
C439 C 0.1421 0.10388 0.38893 0.0
N440 N 0.15576 1.01261 0.26769 0.0
N441 N 0.08948 0.1239 0.49979 0.0
H442 H 0.18122 0.14488 0.35166 0.0
H443 H 0.14755 0.1582 0.44754 0.0
H444 H 0.0691 0.12095 0.56126 0.0
H445 H 0.0909 0.14993 0.46593 0.0
H446 H 0.14546 0.98643 0.27747 0.0
H447 H 0.16807 1.01718 0.18852 0.0
H448 H 0.15012 0.98029 0.46192 0.0
H449 H 0.11969 0.99136 0.57035 0.0
C450 C 0.51702 0.1857 0.51914 0.0
C451 C 0.50982 0.18117 0.39977 0.0
C452 C 0.5229 0.11526 0.42582 0.0
C453 C 0.52492 0.11974 0.54726 0.0
N454 N 0.55297 0.16287 0.67388 0.0
N455 N 0.50997 0.14028 0.23711 0.0
C456 C 0.52989 0.15599 0.58568 0.0
C457 C 0.51464 0.14564 0.35181 0.0
N458 N 0.51214 0.21872 0.57094 0.0
N459 N 0.53424 0.0831 0.38036 0.0
H460 H 0.50684 0.16121 0.17929 0.0
H461 H 0.50824 0.11488 0.19884 0.0
H462 H 0.5452 0.06298 0.43174 0.0
H463 H 0.53819 0.07848 0.29338 0.0
H464 H 0.51352 0.22213 0.65972 0.0
H465 H 0.50456 0.24204 0.52696 0.0
H466 H 0.55988 0.18906 0.70006 0.0
H467 H 0.57136 0.14323 0.70019 0.0
C468 C 0.40061 0.4591 0.39342 0.0
C469 C 0.38388 0.48776 0.3305 0.0
C470 C 0.42855 0.52979 0.41896 0.0
C471 C 0.44828 0.50072 0.47173 0.0
N472 N 0.45267 0.4363 0.50082 0.0
N473 N 0.38916 0.54916 0.26412 0.0
C474 C 0.43419 0.46495 0.45561 0.0
C475 C 0.40051 0.52247 0.33595 0.0
N476 N 0.38407 0.4259 0.39476 0.0
N477 N 0.43401 0.56474 0.45399 0.0
H478 H 0.36879 0.54529 0.20337 0.0
H479 H 0.40287 0.5738 0.25647 0.0
H480 H 0.45157 0.57206 0.51979 0.0
H481 H 0.41778 0.58625 0.42697 0.0
H482 H 0.39131 0.40524 0.45053 0.0
H483 H 0.36193 0.41943 0.34243 0.0
H484 H 0.44684 0.40934 0.48132 0.0
H485 H 0.47552 0.43947 0.55255 0.0
C486 C 1.01165 0.40704 0.38123 0.0
C487 C 0.04727 0.394 0.356 0.0
C488 C 0.07177 0.44395 0.48129 0.0
C489 C 0.0357 0.45492 0.5163 0.0
N490 N 0.97047 0.44115 0.50038 0.0
N491 N 0.11054 0.39678 0.39277 0.0
C492 C 1.00567 0.43488 0.46637 0.0
C493 C 0.07707 0.41222 0.40862 0.0
N494 N 0.98192 0.39213 0.32965 0.0
N495 N 0.10135 0.46295 0.51973 0.0
H496 H 0.13447 0.40512 0.4333 0.0
H497 H 0.13447 0.40512 0.4333 0.0
H498 H 0.10012 0.48207 0.58548 0.0
H499 H 0.12722 0.4609 0.4829 0.0
H500 H 0.98324 0.3721 0.26607 0.0
H501 H 0.98324 0.3721 0.26607 0.0
H502 H 0.94819 0.42743 0.46527 0.0
H503 H 0.96284 0.45837 0.56661 0.0
C504 C 0.90538 0.99206 0.13772 0.0
C505 C 0.89492 0.02239 0.20593 0.0
C506 C 0.93861 0.05965 0.09259 0.0
C507 C 0.95056 0.02847 0.02829 0.0
N508 N 0.94905 0.96343 1.00801 0.0
N509 N 0.90632 0.08424 0.26026 0.0
C510 C 0.935 0.99422 0.05658 0.0
C511 C 0.9126 0.05612 0.18589 0.0
N512 N 0.88506 0.96137 0.14986 0.0
N513 N 0.95278 0.09276 0.06618 0.0
H514 H 0.88799 0.08238 0.32858 0.0
H515 H 0.92104 0.10836 0.26001 0.0
H516 H 0.9742 0.0959 1.00812 0.0
H517 H 0.94258 0.11715 0.0984 0.0
H518 H 0.88764 0.93817 0.0989 0.0
H519 H 0.88764 0.93817 0.0989 0.0
H520 H 0.94301 0.9374 0.03606 0.0
H521 H 0.96939 0.96389 0.94582 0.0
C522 C 0.57041 0.90602 0.11211 0.0
C523 C 0.54251 0.88035 0.13866 0.0
C524 C 0.50169 0.91555 1.00967 0.0
C525 C 0.53108 0.93859 0.97425 0.0
N526 N 0.59607 0.94806 0.97555 0.0
N527 N 0.4824 0.85804 0.09181 0.0
C528 C 0.56616 0.93129 0.02034 0.0
C529 C 0.50818 0.88456 0.08257 0.0
N530 N 0.60115 0.90731 0.17792 0.0
N531 N 0.46732 0.92275 0.97209 0.0
H532 H 0.48575 0.83524 0.1424 0.0
H533 H 0.4589 0.85716 0.04189 0.0
H534 H 0.46224 0.94259 0.91157 0.0
H535 H 0.44397 0.91045 1.00503 0.0
H536 H 0.62177 0.92617 0.16535 0.0
H537 H 0.60425 0.89233 0.25276 0.0
H538 H 0.6228 0.94001 0.99248 0.0
H539 H 0.59408 0.96845 0.91535 0.0
C540 C 0.64409 0.50675 0.15684 0.0
C541 C 0.66114 0.54089 0.17238 0.0
C542 C 0.62586 0.56383 1.00494 0.0
C543 C 0.60769 0.52983 0.99188 0.0
N544 N 0.61585 0.46529 0.02306 0.0
N545 N 0.675 0.59872 0.09827 0.0
C546 C 0.6215 0.50015 0.05818 0.0
C547 C 0.65369 0.56852 0.09148 0.0
N548 N 0.6483 0.48064 0.23786 0.0
N549 N 0.61793 0.59085 0.92972 0.0
H550 H 0.67454 0.62028 0.04124 0.0
H551 H 0.67454 0.62028 0.04124 0.0
H552 H 0.60119 0.5866 0.8593 0.0
H553 H 0.62823 0.61704 0.93302 0.0
H554 H 0.63314 0.45672 0.23786 0.0
H555 H 0.66461 0.48428 0.31005 0.0
H556 H 0.62826 0.44314 0.06192 0.0
H557 H 0.60251 0.45845 0.94766 0.0
C558 C 0.03782 0.65003 0.20631 0.0
C559 C 1.00709 0.67399 0.20273 0.0
C560 C 0.98156 0.63441 0.04893 0.0
C561 C 1.01372 0.61272 0.04214 0.0
N562 N 0.07597 0.60559 0.10601 0.0
N563 N 0.95414 0.69157 0.09016 0.0
C564 C 0.04301 0.62253 0.11771 0.0
C565 C 0.98083 0.66712 0.11485 0.0
N566 N 0.06104 0.65164 0.29731 0.0
N567 N 0.95107 0.62457 0.99008 0.0
H568 H 0.95243 0.71754 0.12591 0.0
H569 H 0.95243 0.71754 0.12591 0.0
H570 H 0.95 0.60102 0.94145 0.0
H571 H 0.92671 0.63929 0.99429 0.0
H572 H 0.08128 0.63234 0.31158 0.0
H573 H 0.05797 0.67023 0.36418 0.0
H574 H 0.09931 0.61392 0.14968 0.0
H575 H 0.08063 0.58499 0.04614 0.0
C576 C 0.9315 0.2378 0.31531 0.0
C577 C 0.96839 0.24262 0.34872 0.0
C578 C 0.95445 0.21797 0.5365 0.0
C579 C 0.92067 0.2055 0.49325 0.0
N580 N 0.87613 0.20304 0.34164 0.0
N581 N 1.01594 0.23698 0.49042 0.0
C582 C 0.90848 0.21591 0.38345 0.0
C583 C 0.98009 0.23333 0.46015 0.0
N584 N 0.91872 0.25411 0.21865 0.0
N585 N 0.96192 0.21436 0.65019 0.0
H586 H 0.03566 0.24801 0.43622 0.0
H587 H 0.02664 0.22675 0.56618 0.0
H588 H 0.9428 0.20351 0.70682 0.0
H589 H 0.98492 0.22548 0.68919 0.0
H590 H 0.8913 0.25394 0.19518 0.0
H591 H 0.93498 0.27091 0.16813 0.0
H592 H 0.86815 0.20597 0.25663 0.0
H593 H 0.85808 0.18766 0.39058 0.0
C594 C 0.35591 0.13566 0.34728 0.0
C595 C 0.32573 0.11219 0.35333 0.0
C596 C 0.36301 0.06298 0.41936 0.0
C597 C 0.39446 0.0832 0.38616 0.0
N598 N 0.42111 0.14269 0.37805 0.0
N599 N 0.29967 0.06802 0.4793 0.0
C600 C 0.39096 0.1213 0.37208 0.0
C601 C 0.32921 0.08137 0.4225 0.0
N602 N 0.35123 0.16932 0.30284 0.0
N603 N 0.364 0.02639 0.43549 0.0
H604 H 0.27482 0.08191 0.4805 0.0
H605 H 0.30142 0.04591 0.53419 0.0
H606 H 0.3874 1.01064 0.42751 0.0
H607 H 0.34037 1.01115 0.44852 0.0
H608 H 0.37273 0.18677 0.28368 0.0
H609 H 0.32511 0.17872 0.28256 0.0
H610 H 0.42034 0.17083 0.37186 0.0
H611 H 0.44612 0.13167 0.4017 0.0
C612 C 0.64257 0.30613 0.25028 0.0
C613 C 0.60766 0.29751 0.29557 0.0
C614 C 0.62912 0.31462 0.48595 0.0
C615 C 0.65747 0.33416 0.43382 0.0
N616 N 0.69595 0.34461 0.27037 0.0
N617 N 0.56669 0.29647 0.46115 0.0
C618 C 0.66647 0.32767 0.31764 0.0
C619 C 0.60084 0.30118 0.41571 0.0
N620 N 0.65206 0.2947 0.14263 0.0
N621 N 0.62731 0.31312 0.60255 0.0
H622 H 0.54361 0.29059 0.41289 0.0
H623 H 0.56036 0.30231 0.54645 0.0
H624 H 0.64761 0.32482 0.65352 0.0
H625 H 0.60811 0.29752 0.64628 0.0
H626 H 0.67804 0.29829 0.10775 0.0
H627 H 0.63472 0.27863 0.09279 0.0
H628 H 0.70151 0.34463 0.18274 0.0
H629 H 0.7142 0.35964 0.32008 0.0
C630 C 0.23456 0.60836 0.3354 0.0
C631 C 0.23566 0.57074 0.35908 0.0
C632 C 0.21349 0.58203 0.55286 0.0
C633 C 0.20545 0.61808 0.52125 0.0
N634 N 0.20803 0.66664 0.38463 0.0
N635 N 0.22593 0.52079 0.48814 0.0
C636 C 0.2166 0.63187 0.41387 0.0
C637 C 0.22573 0.55727 0.46808 0.0
N638 N 0.25068 0.62138 0.23815 0.0
N639 N 0.20859 0.57166 0.66378 0.0
H640 H 0.23492 0.50172 0.42782 0.0
H641 H 0.21496 0.50913 0.56161 0.0
H642 H 0.19953 0.58991 0.72622 0.0
H643 H 0.21665 0.5466 0.69547 0.0
H644 H 0.25358 0.6489 0.22114 0.0
H645 H 0.26413 0.60467 0.17897 0.0
H646 H 0.21123 0.67685 0.30225 0.0
H647 H 0.19597 0.68492 0.44203 0.0
C648 C 0.04007 0.82594 1.00361 0.0
C649 C 0.05823 0.81842 0.10756 0.0
C650 C 0.11745 0.83108 0.01964 0.0
C651 C 0.09861 0.84404 0.92331 0.0
N652 N 0.0466 0.84006 0.80145 0.0
N653 N 0.1141 0.80225 0.20523 0.0
C654 C 0.06132 0.83626 0.90762 0.0
C655 C 0.09705 0.8168 0.11215 0.0
N656 N 1.00279 0.8251 0.99888 0.0
N657 N 0.15442 0.83565 0.02527 0.0
H658 H 0.1 0.79234 0.27619 0.0
H659 H 0.14211 0.79773 0.20961 0.0
H660 H 0.16941 0.84504 0.95515 0.0
H661 H 0.16997 0.83105 0.09815 0.0
H662 H 0.98786 0.83388 0.92858 0.0
H663 H 0.98663 0.81707 0.06807 0.0
H664 H 1.02017 0.83196 0.78099 0.0
H665 H 0.06265 0.848 0.73181 0.0
C666 C 0.74528 0.95935 0.14119 0.0
C667 C 0.74254 0.94407 0.25111 0.0
C668 C 0.67945 0.96039 0.2636 0.0
C669 C 0.68692 0.98856 0.18341 0.0
N670 N 0.72179 1.00639 0.01606 0.0
N671 N 0.70078 0.90226 0.33601 0.0
C672 C 0.71806 0.98502 0.11019 0.0
C673 C 0.70668 0.93339 0.27754 0.0
N674 N 0.77395 0.95029 0.07228 0.0
N675 N 0.6502 0.96193 0.33642 0.0
H676 H 0.72247 0.88485 0.35445 0.0
H677 H 0.67461 0.89337 0.35767 0.0
H678 H 0.63125 0.98299 0.33694 0.0
H679 H 0.64653 0.94334 0.40223 0.0
H680 H 0.77691 0.95949 0.98858 0.0
H681 H 0.79351 0.93164 0.09973 0.0
H682 H 0.74533 1.00684 0.96562 0.0
H683 H 0.701 0.02377 0.98951 0.0
C684 C 0.56899 0.73115 0.97598 0.0
C685 C 0.58204 0.71402 0.07561 0.0
C686 C 0.54263 0.66363 0.04566 0.0
C687 C 0.52094 0.6852 0.97081 0.0
N688 N 0.51969 0.73513 0.83711 0.0
N689 N 0.60409 0.65519 0.1181 0.0
C690 C 0.53622 0.71769 0.92555 0.0
C691 C 0.57757 0.6766 0.0746 0.0
N692 N 0.5885 0.75907 0.93105 0.0
N693 N 0.52888 0.63402 0.10008 0.0
H694 H 0.62889 0.66624 0.14538 0.0
H695 H 0.60152 0.6272 0.11999 0.0
H696 H 0.50161 0.62617 0.09525 0.0
H697 H 0.54369 0.6202 0.16191 0.0
H698 H 0.582 0.77182 0.8545 0.0
H699 H 0.61261 0.76776 0.97032 0.0
H700 H 0.5281 0.76028 0.80705 0.0
H701 H 0.49732 0.72415 0.79397 0.0
C702 C 0.79479 0.59663 0.05557 0.0
C703 C 0.81006 0.60981 0.15887 0.0
C704 C 0.86443 0.57683 0.12677 0.0
C705 C 0.84575 0.55376 0.04766 0.0
N706 N 0.79649 0.54848 0.91079 0.0
N707 N 0.86711 0.63741 0.2048 0.0
C708 C 0.81198 0.56612 1.00135 0.0
C709 C 0.84804 0.61018 0.15503 0.0
N710 N 0.76462 0.61316 1.01303 0.0
N711 N 0.89245 0.56472 0.19237 0.0
H712 H 0.85435 0.66084 0.2362 0.0
H713 H 0.85435 0.66084 0.2362 0.0
H714 H 0.90329 0.53868 0.18801 0.0
H715 H 0.90013 0.57901 0.2653 0.0
H716 H 0.75306 0.60643 0.93448 0.0
H717 H 0.75283 0.63516 0.05649 0.0
H718 H 0.77066 0.55466 0.87955 0.0
H719 H 0.80999 0.52749 0.86742 0.0
C720 C 0.99102 0.20183 0.93108 0.0
C721 C 0.0244 0.21731 0.97215 0.0
C722 C 0.05697 0.1682 0.86451 0.0
C723 C 0.02372 0.14877 0.84542 0.0
N724 N 0.95803 0.14901 0.859 0.0
N725 N 0.08996 0.21474 0.97257 0.0
C726 C 0.99044 0.16645 0.87696 0.0
C727 C 0.05762 0.20058 0.93568 0.0
N728 N 0.95962 0.22154 0.9437 0.0
N729 N 0.08795 0.15626 0.81085 0.0
H730 H 0.09141 0.23805 0.02332 0.0
H731 H 0.11523 0.20282 0.9566 0.0
H732 H 0.08813 0.13333 0.75795 0.0
H733 H 0.11232 0.17076 0.80968 0.0
H734 H 0.93441 0.21371 0.91103 0.0
H735 H 0.95967 0.2478 0.97771 0.0
H736 H 0.93314 0.15798 0.89206 0.0
H737 H 0.95614 0.12419 0.81638 0.0
C738 C 0.36552 0.0258 0.01603 0.0
C739 C 0.34318 0.05482 0.979 0.0
C740 C 0.38929 0.06629 0.82397 0.0
C741 C 0.41435 0.04094 0.87273 0.0
N742 N 0.4255 0.99863 0.0261 0.0
N743 N 0.33435 0.1036 0.84748 0.0
C744 C 0.40195 0.02111 0.97105 0.0
C745 C 0.35511 0.07494 0.8817 0.0
N746 N 0.35186 1.00263 0.09637 0.0
N747 N 0.39834 0.08286 0.72349 0.0
H748 H 0.30885 0.10926 0.88393 0.0
H749 H 0.34285 0.1225 0.78723 0.0
H750 H 0.42351 0.07925 0.68294 0.0
H751 H 0.38012 0.09835 0.67625 0.0
H752 H 0.36454 0.9785 0.1193 0.0
H753 H 0.32579 1.00569 0.13167 0.0
H754 H 0.42013 0.98695 0.10532 0.0
H755 H 0.452 0.99431 0.99847 0.0
C756 C 0.52406 0.38288 0.0607 0.0
C757 C 0.52367 0.34837 1.00526 0.0
C758 C 0.52063 0.38125 0.81849 0.0
C759 C 0.52508 0.41559 0.87462 0.0
N760 N 0.54001 0.44627 0.0507 0.0
N761 N 0.52483 0.31506 0.82746 0.0
C762 C 0.5291 0.41546 0.99611 0.0
C763 C 0.5224 0.34771 0.88283 0.0
N764 N 0.5196 0.38455 0.17706 0.0
N765 N 0.51517 0.38061 0.70289 0.0
H766 H 0.52525 0.29054 0.87117 0.0
H767 H 0.52834 0.31224 0.7393 0.0
H768 H 0.51615 0.40402 0.65358 0.0
H769 H 0.50786 0.35744 0.65699 0.0
H770 H 0.51797 0.40869 0.22356 0.0
H771 H 0.51407 0.36164 0.22614 0.0
H772 H 0.54923 0.44679 0.13506 0.0
H773 H 0.54293 0.47075 1.00833 0.0
C774 C 0.18893 0.55142 0.94401 0.0
C775 C 0.20184 0.51747 0.98563 0.0
C776 C 0.14861 0.48851 0.88891 0.0
C777 C 0.13252 0.52297 0.86541 0.0
N778 N 0.1377 0.58808 0.88118 0.0
N779 N 0.1916 0.45339 1.00254 0.0
C780 C 0.15305 0.55463 0.89469 0.0
C781 C 0.18119 0.48587 0.95807 0.0
N782 N 0.21129 0.58098 0.95315 0.0
N783 N 0.13331 0.45815 0.842 0.0
H784 H 0.21527 0.45038 0.05093 0.0
H785 H 0.17578 0.43001 0.99695 0.0
H786 H 0.11034 0.45923 0.78948 0.0
H787 H 0.14521 0.43255 0.84619 0.0
H788 H 0.20513 0.60642 0.92055 0.0
H789 H 0.23792 0.57909 0.98422 0.0
H790 H 0.14901 0.6119 0.91352 0.0
H791 H 0.11208 0.59205 0.84542 0.0
C792 C 0.05857 0.88669 0.49148 0.0
C793 C 0.02957 0.86104 0.50123 0.0
C794 C 1.0036 0.90285 0.65071 0.0
C795 C 0.02911 0.93109 0.62341 0.0
N796 N 0.0705 0.95043 0.47593 0.0
N797 N 0.97009 0.84968 0.58308 0.0
C798 C 0.05404 0.92301 0.53308 0.0
C799 C 1.00077 0.87054 0.57907 0.0
N800 N 0.09076 0.87676 0.441 0.0
N801 N 0.9828 0.90594 0.74724 0.0
H802 H 0.9668 0.82655 0.53236 0.0
H803 H 0.94686 0.85716 0.62955 0.0
H804 H 0.98575 0.92756 0.80392 0.0
H805 H 0.96593 0.88525 0.7768 0.0
H806 H 0.11318 0.8942 0.43764 0.0
H807 H 0.09601 0.85014 0.41481 0.0
H808 H 0.08615 0.946 0.4021 0.0
H809 H 0.06384 0.97739 0.49256 0.0
C810 C 0.69989 1.00309 0.65174 0.0
C811 C 0.71204 0.02636 0.56241 0.0
C812 C 0.64997 0.05435 0.56678 0.0
C813 C 0.63615 0.02694 0.64182 0.0
N814 N 0.64921 0.97116 0.73922 0.0
N815 N 0.69883 0.07956 0.45193 0.0
C816 C 0.66174 1.00067 0.68154 0.0
C817 C 0.68714 0.05353 0.52562 0.0
N818 N 0.72527 0.98264 0.70719 0.0
N819 N 0.62826 0.08196 0.53142 0.0
H820 H 0.72553 0.08067 0.42107 0.0
H821 H 0.68201 0.10069 0.42522 0.0
H822 H 0.6012 0.08544 0.55746 0.0
H823 H 0.6012 0.08544 0.55746 0.0
H824 H 0.71937 0.96747 0.77991 0.0
H825 H 0.75305 0.98417 0.68699 0.0
H826 H 0.66561 0.94928 0.76166 0.0
H827 H 0.6215 0.96642 0.751 0.0
C828 C 0.55705 0.6869 0.57235 0.0
C829 C 0.53734 0.69347 0.46965 0.0
C830 C 0.51715 0.62904 0.47431 0.0
C831 C 0.53375 0.6225 0.58419 0.0
N832 N 0.56678 0.65027 0.74197 0.0
N833 N 0.49067 0.67244 0.34236 0.0
C834 C 0.55244 0.65317 0.63488 0.0
C835 C 0.51465 0.66509 0.42854 0.0
N836 N 0.5814 0.71255 0.60834 0.0
N837 N 0.50532 0.60095 0.40752 0.0
H838 H 0.48831 0.6982 0.30665 0.0
H839 H 0.47064 0.65422 0.3155 0.0
H840 H 0.50552 0.57408 0.43166 0.0
H841 H 0.49786 0.60403 0.32205 0.0
H842 H 0.60058 0.70833 0.67248 0.0
H843 H 0.58375 0.73767 0.56848 0.0
H844 H 0.57884 0.67164 0.78631 0.0
H845 H 0.56443 0.62724 0.79121 0.0
C846 C 0.84969 0.56496 0.62071 0.0
C847 C 0.84345 0.54601 0.51545 0.0
C848 C 0.9084 0.52537 0.52248 0.0
C849 C 0.91413 0.54144 0.63288 0.0
N850 N 0.88805 0.57614 0.78778 0.0
N851 N 0.86635 0.50344 0.37599 0.0
C852 C 0.88398 0.56113 0.68175 0.0
C853 C 0.87266 0.52461 0.4704 0.0
N854 N 0.82286 0.58753 0.66107 0.0
N855 N 0.93793 0.51358 0.46152 0.0
H856 H 0.84111 0.50269 0.33483 0.0
H857 H 0.88498 0.48436 0.34484 0.0
H858 H 0.96423 0.5149 0.49449 0.0
H859 H 0.93688 0.50574 0.37564 0.0
H860 H 0.82614 0.60567 0.72892 0.0
H861 H 0.79719 0.5891 0.62281 0.0
H862 H 0.86736 0.58888 0.8342 0.0
H863 H 0.91235 0.57401 0.83216 0.0
loop_
_geom_bond_atom_site_label_1
_geom_bond_atom_site_label_2
_geom_bond_distance
_geom_bond_site_symmetry_2
_ccdc_geom_bond_type
H0 C5 0.930 . S
H1 C8 0.930 . S
H2 C10 0.930 . S
H3 C4 1.016 . S
C4 H3 1.016 . S
C4 N11 1.286 . S
C5 H0 0.930 . S
C5 C6 1.397 . S
C5 C7 1.361 . S
C6 C5 1.397 . S
C6 C10 1.390 . S
C7 C5 1.361 . S
C7 C8 1.393 . S
C7 N11 1.413 . S
C8 H1 0.930 . S
C8 C7 1.393 . S
C8 C9 1.399 . S
C9 C8 1.399 . S
C9 C10 1.381 . S
C10 H2 0.930 . S
C10 C6 1.390 . S
C10 C9 1.381 . S
N11 C4 1.286 . S
N11 C7 1.413 . S
H12 C17 0.930 . S
H13 C20 0.930 . S
H14 C22 0.930 . S
H15 C16 1.016 . S
C16 H15 1.016 . S
C16 N23 1.272 1_655 S
C17 H12 0.930 . S
C17 C18 1.397 . S
C17 C19 1.361 . S
C18 C17 1.397 . S
C18 C22 1.390 . S
C19 C17 1.361 . S
C19 C20 1.393 . S
C19 N23 1.409 1_655 S
C20 H13 0.930 . S
C20 C19 1.393 . S
C20 C21 1.399 . S
C21 C20 1.399 . S
C21 C22 1.381 . S
C22 H14 0.930 . S
C22 C18 1.390 . S
C22 C21 1.381 . S
N23 C16 1.272 1_455 S
N23 C19 1.409 1_455 S
H24 C29 0.930 . S
H25 C32 0.930 . S
H26 C34 0.930 . S
H27 C28 1.016 . S
C28 H27 1.016 . S
C28 N35 1.286 1_565 S
C29 H24 0.930 . S
C29 C30 1.397 . S
C29 C31 1.361 . S
C30 C29 1.397 . S
C30 C34 1.390 . S
C31 C29 1.361 . S
C31 C32 1.393 . S
C31 N35 1.413 1_565 S
C32 H25 0.930 . S
C32 C31 1.393 . S
C32 C33 1.399 . S
C33 C32 1.399 . S
C33 C34 1.381 . S
C34 H26 0.930 . S
C34 C30 1.390 . S
C34 C33 1.381 . S
N35 C28 1.286 1_545 S
N35 C31 1.413 1_545 S
H36 C41 0.930 . S
H37 C44 0.930 . S
H38 C46 0.930 . S
H39 C40 1.016 . S
C40 H39 1.016 . S
C40 N47 1.286 . S
C41 H36 0.930 . S
C41 C42 1.397 . S
C41 C43 1.361 . S
C42 C41 1.397 . S
C42 C46 1.390 . S
C43 C41 1.361 . S
C43 C44 1.393 . S
C43 N47 1.413 . S
C44 H37 0.930 . S
C44 C43 1.393 . S
C44 C45 1.399 . S
C45 C44 1.399 . S
C45 C46 1.381 . S
C46 H38 0.930 . S
C46 C42 1.390 . S
C46 C45 1.381 . S
N47 C40 1.286 . S
N47 C43 1.413 . S
H48 C53 0.930 . S
H49 C56 0.930 . S
H50 C58 0.930 . S
H51 C52 1.016 . S
C52 H51 1.016 . S
C52 N59 1.286 . S
C53 H48 0.930 . S
C53 C54 1.397 . S
C53 C55 1.361 1_556 S
C54 C53 1.397 . S
C54 C58 1.390 1_556 S
C55 C53 1.361 1_554 S
C55 C56 1.393 . S
C55 N59 1.413 . S
C56 H49 0.930 . S
C56 C55 1.393 . S
C56 C57 1.399 . S
C57 C56 1.399 . S
C57 C58 1.381 . S
C58 H50 0.930 . S
C58 C54 1.390 1_554 S
C58 C57 1.381 . S
N59 C52 1.286 . S
N59 C55 1.413 . S
H60 C65 0.930 . S
H61 C68 0.930 . S
H62 C70 0.930 . S
H63 C64 1.016 . S
C64 H63 1.016 . S
C64 N71 1.286 . S
C65 H60 0.930 . S
C65 C66 1.397 . S
C65 C67 1.361 1_556 S
C66 C65 1.397 . S
C66 C70 1.390 1_556 S
C67 C65 1.361 1_554 S
C67 C68 1.393 . S
C67 N71 1.413 . S
C68 H61 0.930 . S
C68 C67 1.393 . S
C68 C69 1.399 . S
C69 C68 1.399 . S
C69 C70 1.381 . S
C70 H62 0.930 . S
C70 C66 1.390 1_554 S
C70 C69 1.381 . S
N71 C64 1.286 . S
N71 C67 1.413 . S
H72 C77 0.930 . S
H73 C80 0.930 . S
H74 C82 0.930 . S
H75 C76 1.016 . S
C76 H75 1.016 . S
C76 N83 1.286 . S
C77 H72 0.930 . S
C77 C78 1.397 . S
C77 C79 1.361 1_556 S
C78 C77 1.397 . S
C78 C82 1.390 1_556 S
C79 C77 1.361 1_554 S
C79 C80 1.393 . S
C79 N83 1.413 . S
C80 H73 0.930 . S
C80 C79 1.393 . S
C80 C81 1.399 . S
C81 C80 1.399 . S
C81 C82 1.381 . S
C82 H74 0.930 . S
C82 C78 1.390 1_554 S
C82 C81 1.381 . S
N83 C76 1.286 . S
N83 C79 1.413 . S
H84 C89 0.930 . S
H85 C92 0.930 . S
H86 C94 0.930 . S
H87 C88 1.016 . S
C88 H87 1.016 . S
C88 N95 1.286 . S
C89 H84 0.930 . S
C89 C90 1.397 . S
C89 C91 1.361 1_556 S
C90 C89 1.397 . S
C90 C94 1.390 1_556 S
C91 C89 1.361 1_554 S
C91 C92 1.393 . S
C91 N95 1.413 . S
C92 H85 0.930 . S
C92 C91 1.393 . S
C92 C93 1.399 . S
C93 C92 1.399 . S
C93 C94 1.381 . S
C94 H86 0.930 . S
C94 C90 1.390 1_554 S
C94 C93 1.381 . S
N95 C88 1.286 . S
N95 C91 1.413 . S
C96 C98 1.422 . S
C96 C100 1.415 . S
C96 N102 1.369 1_554 S
C97 C98 1.421 . S
C97 C99 1.417 . S
C97 C109 1.422 . S
C98 C96 1.422 . S
C98 C97 1.421 . S
C98 N108 1.359 . S
C99 C97 1.417 . S
C99 C101 1.329 . S
C99 H118 0.930 . S
C100 C96 1.415 . S
C100 C101 1.437 . S
C100 C104 1.413 1_554 S
C101 C99 1.329 . S
C101 C100 1.437 . S
C101 H123 0.929 . S
N102 C96 1.369 1_556 S
N102 C103 1.338 . S
N102 Gd107 2.622 1_545 S
C103 N102 1.338 . S
C103 C105 1.378 . S
C103 H115 0.929 1_545 S
C104 C100 1.413 1_556 S
C104 C105 1.348 . S
C104 H120 0.931 . S
C105 C103 1.378 . S
C105 C104 1.348 . S
C105 H121 0.930 . S
Gd106 N126 2.622 . S
Gd106 N133 2.570 . S
Gd106 O140 2.353 1_655 S
Gd106 O141 2.468 . S
Gd106 O142 2.427 . S
Gd106 O144 2.388 . S
Gd106 O145 2.386 1_545 S
Gd106 O149 2.307 1_655 S
Gd106 C159 2.805 . S
Gd107 N102 2.622 1_565 S
Gd107 N108 2.570 1_566 S
Gd107 O139 2.386 1_565 S
Gd107 O143 2.307 1_465 S
Gd107 O146 2.353 . S
Gd107 O147 2.468 . S
Gd107 O148 2.427 . S
Gd107 O150 2.388 . S
Gd107 C171 2.805 . S
N108 C98 1.359 . S
N108 Gd107 2.570 1_544 S
N108 C110 1.343 . S
C109 C97 1.422 . S
C109 C111 1.321 . S
C109 H117 0.931 . S
C110 N108 1.343 . S
C110 C111 1.390 . S
C110 H112 0.952 . S
C111 C109 1.321 . S
C111 C110 1.390 . S
C111 H113 0.930 . S
H112 C110 0.952 . S
H113 C111 0.930 . S
H114 C137 0.931 1_455 S
H115 C103 0.929 1_565 S
H116 C138 0.930 1_455 S
H117 C109 0.931 . S
H118 C99 0.930 . S
H119 C128 0.929 . S
H120 C104 0.931 . S
H121 C105 0.930 . S
H122 C160 0.930 . S
H123 C101 0.929 . S
H124 C129 0.931 . S
H125 C130 0.930 . S
N126 Gd106 2.622 . S
N126 C127 1.369 1_545 S
N126 C128 1.338 . S
C127 N126 1.369 1_565 S
C127 C131 1.415 . S
C127 C134 1.422 . S
C128 H119 0.929 . S
C128 N126 1.338 . S
C128 C130 1.378 . S
C129 H124 0.931 . S
C129 C130 1.348 1_565 S
C129 C131 1.413 . S
C130 H125 0.930 . S
C130 C128 1.378 . S
C130 C129 1.348 1_545 S
C131 C127 1.415 . S
C131 C129 1.413 . S
C131 C161 1.437 . S
H132 C161 0.929 . S
N133 Gd106 2.570 . S
N133 C134 1.359 1_545 S
N133 C137 1.343 . S
C134 C127 1.422 . S
C134 N133 1.359 1_565 S
C134 C136 1.421 . S
C135 C136 1.422 . S
C135 C138 1.321 . S
C135 H162 0.931 . S
C136 C134 1.421 . S
C136 C135 1.422 . S
C136 C160 1.417 . S
C137 H114 0.931 1_655 S
C137 N133 1.343 . S
C137 C138 1.390 1_545 S
C138 H116 0.930 1_655 S
C138 C135 1.321 . S
C138 C137 1.390 1_565 S
O139 Gd107 2.386 1_545 S
O139 C151 1.265 . S
O140 Gd106 2.353 1_455 S
O140 C151 1.242 . S
O141 Gd106 2.468 . S
O141 C159 1.263 . S
O142 Gd106 2.427 . S
O142 C159 1.252 . S
O143 Gd107 2.307 1_645 S
O143 C152 1.261 . S
O144 Gd106 2.388 . S
O144 C152 1.252 . S
O145 Gd106 2.386 1_565 S
O145 C163 1.265 . S
O146 Gd107 2.353 . S
O146 C163 1.242 1_455 S
O147 Gd107 2.468 . S
O147 C171 1.263 . S
O148 Gd107 2.427 . S
O148 C171 1.252 . S
O149 Gd106 2.307 1_455 S
O149 C164 1.261 . S
O150 Gd107 2.388 . S
O150 C164 1.252 1_565 S
C151 O139 1.265 . S
C151 O140 1.242 . S
C152 O143 1.261 . S
C152 O144 1.252 . S
C153 C156 1.394 . S
C153 C158 1.370 . S
C153 C159 1.500 . S
C154 C157 1.383 . S
C154 C158 1.395 . S
C155 C156 1.396 . S
C155 C157 1.365 . S
C155 H172 0.929 . S
C156 C153 1.394 . S
C156 C155 1.396 . S
C156 H173 0.930 . S
C157 C154 1.383 . S
C157 C155 1.365 . S
C157 H174 0.931 . S
C158 C153 1.370 . S
C158 C154 1.395 . S
C158 H175 0.930 1_655 S
C159 Gd106 2.805 . S
C159 O141 1.263 . S
C159 O142 1.252 . S
C159 C153 1.500 . S
C160 H122 0.930 . S
C160 C136 1.417 . S
C160 C161 1.329 . S
C161 C131 1.437 . S
C161 H132 0.929 . S
C161 C160 1.329 . S
H162 C135 0.931 . S
C163 O145 1.265 . S
C163 O146 1.242 1_655 S
C164 O149 1.261 . S
C164 O150 1.252 1_545 S
C165 C168 1.394 . S
C165 C170 1.370 . S
C165 C171 1.500 1_554 S
C166 C169 1.383 . S
C166 C170 1.395 . S
C167 C168 1.396 . S
C167 C169 1.365 . S
C167 H176 0.929 . S
C168 C165 1.394 . S
C168 C167 1.396 . S
C168 H177 0.930 1_554 S
C169 C166 1.383 . S
C169 C167 1.365 . S
C169 H178 0.931 . S
C170 C165 1.370 . S
C170 C166 1.395 . S
C170 H179 0.930 . S
C171 Gd107 2.805 . S
C171 O147 1.263 . S
C171 O148 1.252 . S
C171 C165 1.500 1_556 S
H172 C155 0.929 . S
H173 C156 0.930 . S
H174 C157 0.931 . S
H175 C158 0.930 1_455 S
H176 C167 0.929 . S
H177 C168 0.930 1_556 S
H178 C169 0.931 . S
H179 C170 0.930 . S
C180 C182 1.422 . S
C180 C184 1.415 . S
C180 N186 1.369 . S
C181 C182 1.421 . S
C181 C183 1.417 . S
C181 C193 1.422 . S
C182 C180 1.422 . S
C182 C181 1.421 . S
C182 N192 1.359 . S
C183 C181 1.417 . S
C183 C185 1.329 . S
C183 H202 0.930 . S
C184 C180 1.415 . S
C184 C185 1.437 . S
C184 C188 1.413 . S
C185 C183 1.329 . S
C185 C184 1.437 . S
C185 H207 0.929 . S
N186 C180 1.369 . S
N186 C187 1.338 . S
N186 Gd191 2.622 . S
C187 N186 1.338 . S
C187 C189 1.378 . S
C187 H199 0.929 . S
C188 C184 1.413 . S
C188 C189 1.348 . S
C188 H204 0.931 . S
C189 C187 1.378 . S
C189 C188 1.348 . S
C189 H205 0.930 . S
Gd190 N210 2.622 . S
Gd190 N217 2.570 . S
Gd190 O224 2.353 1_545 S
Gd190 O225 2.468 . S
Gd190 O226 2.427 1_556 S
Gd190 O228 2.388 . S
Gd190 O229 2.386 . S
Gd190 O233 2.307 . S
Gd190 C243 2.805 1_556 S
Gd191 N186 2.622 . S
Gd191 N192 2.570 . S
Gd191 O223 2.386 . S
Gd191 O227 2.307 1_565 S
Gd191 O230 2.353 1_565 S
Gd191 O231 2.468 . S
Gd191 O232 2.427 . S
Gd191 O234 2.388 . S
Gd191 C255 2.805 . S
N192 C182 1.359 . S
N192 Gd191 2.570 . S
N192 C194 1.343 . S
C193 C181 1.422 . S
C193 C195 1.321 . S
C193 H201 0.931 . S
C194 N192 1.343 . S
C194 C195 1.390 . S
C194 H196 0.931 . S
C195 C193 1.321 . S
C195 C194 1.390 . S
C195 H197 0.930 . S
H196 C194 0.931 . S
H197 C195 0.930 . S
H198 C221 0.931 . S
H199 C187 0.929 . S
H200 C222 0.930 . S
H201 C193 0.931 . S
H202 C183 0.930 . S
H203 C212 0.929 . S
H204 C188 0.931 . S
H205 C189 0.930 . S
H206 C244 0.930 . S
H207 C185 0.929 . S
H208 C213 0.931 1_554 S
H209 C214 0.930 . S
N210 Gd190 2.622 . S
N210 C211 1.369 . S
N210 C212 1.338 1_556 S
C211 N210 1.369 . S
C211 C215 1.415 . S
C211 C218 1.422 . S
C212 H203 0.929 . S
C212 N210 1.338 1_554 S
C212 C214 1.378 . S
C213 H208 0.931 1_556 S
C213 C214 1.348 1_556 S
C213 C215 1.413 . S
C214 H209 0.930 . S
C214 C212 1.378 . S
C214 C213 1.348 1_554 S
C215 C211 1.415 . S
C215 C213 1.413 . S
C215 C245 1.437 . S
H216 C245 0.929 . S
N217 Gd190 2.570 . S
N217 C218 1.359 . S
N217 C221 1.343 . S
C218 C211 1.422 . S
C218 N217 1.359 . S
C218 C220 1.421 . S
C219 C220 1.422 . S
C219 C222 1.321 . S
C219 H246 0.931 . S
C220 C218 1.421 . S
C220 C219 1.422 . S
C220 C244 1.417 . S
C221 H198 0.931 . S
C221 N217 1.343 . S
C221 C222 1.390 . S
C222 H200 0.930 . S
C222 C219 1.321 . S
C222 C221 1.390 . S
O223 Gd191 2.386 . S
O223 C235 1.265 . S
O224 Gd190 2.353 1_565 S
O224 C235 1.242 . S
O225 Gd190 2.468 . S
O225 C243 1.263 1_556 S
O226 Gd190 2.427 1_554 S
O226 C243 1.252 . S
O227 Gd191 2.307 1_545 S
O227 C236 1.261 . S
O228 Gd190 2.388 . S
O228 C236 1.252 . S
O229 Gd190 2.386 . S
O229 C247 1.265 . S
O230 Gd191 2.353 1_545 S
O230 C247 1.242 . S
O231 Gd191 2.468 . S
O231 C255 1.263 . S
O232 Gd191 2.427 . S
O232 C255 1.252 . S
O233 Gd190 2.307 . S
O233 C248 1.271 . S
O234 Gd191 2.388 . S
O234 C248 1.245 1_565 S
C235 O223 1.265 . S
C235 O224 1.242 . S
C236 O227 1.261 . S
C236 O228 1.252 . S
C237 C240 1.394 . S
C237 C242 1.370 . S
C237 C243 1.500 . S
C238 C241 1.383 . S
C238 C242 1.395 . S
C239 C240 1.396 . S
C239 C241 1.365 . S
C239 H256 0.929 . S
C240 C237 1.394 . S
C240 C239 1.396 . S
C240 H257 0.930 . S
C241 C238 1.383 . S
C241 C239 1.365 . S
C241 H258 0.931 . S
C242 C237 1.370 . S
C242 C238 1.395 . S
C242 H259 0.930 . S
C243 Gd190 2.805 1_554 S
C243 O225 1.263 1_554 S
C243 O226 1.252 . S
C243 C237 1.500 . S
C244 H206 0.930 . S
C244 C220 1.417 . S
C244 C245 1.329 . S
C245 C215 1.437 . S
C245 H216 0.929 . S
C245 C244 1.329 . S
H246 C219 0.931 . S
C247 O229 1.265 . S
C247 O230 1.242 . S
C248 O233 1.271 . S
C248 O234 1.245 1_545 S
C249 C252 1.394 . S
C249 C254 1.370 . S
C249 C255 1.500 . S
C250 C253 1.383 . S
C250 C254 1.395 . S
C251 C252 1.396 . S
C251 C253 1.365 . S
C251 H260 0.929 . S
C252 C249 1.394 . S
C252 C251 1.396 . S
C252 H261 0.930 . S
C253 C250 1.383 . S
C253 C251 1.365 . S
C253 H262 0.931 . S
C254 C249 1.370 . S
C254 C250 1.395 . S
C254 H263 0.930 1_565 S
C255 Gd191 2.805 . S
C255 O231 1.263 . S
C255 O232 1.252 . S
C255 C249 1.500 . S
H256 C239 0.929 . S
H257 C240 0.930 . S
H258 C241 0.931 . S
H259 C242 0.930 . S
H260 C251 0.929 . S
H261 C252 0.930 . S
H262 C253 0.931 . S
H263 C254 0.930 1_545 S
C264 C266 1.422 . S
C264 C268 1.415 . S
C264 N270 1.369 1_554 S
C265 C266 1.421 . S
C265 C267 1.417 . S
C265 C277 1.422 . S
C266 C264 1.422 . S
C266 C265 1.421 . S
C266 N276 1.359 . S
C267 C265 1.417 . S
C267 C269 1.329 . S
C267 H286 0.930 . S
C268 C264 1.415 . S
C268 C269 1.437 . S
C268 C272 1.413 1_554 S
C269 C267 1.329 . S
C269 C268 1.437 . S
C269 H291 0.929 . S
N270 C264 1.369 1_556 S
N270 C271 1.338 . S
N270 Gd275 2.622 . S
C271 N270 1.338 . S
C271 C273 1.378 . S
C271 H283 0.929 . S
C272 C268 1.413 1_556 S
C272 C273 1.348 . S
C272 H288 0.931 . S
C273 C271 1.378 . S
C273 C272 1.348 . S
C273 H289 0.930 . S
Gd274 N294 2.622 . S
Gd274 N301 2.570 . S
Gd274 O308 2.353 . S
Gd274 O309 2.468 . S
Gd274 O310 2.427 . S
Gd274 O312 2.388 . S
Gd274 O313 2.386 . S
Gd274 O317 2.307 . S
Gd274 C327 2.805 . S
Gd275 N270 2.622 . S
Gd275 N276 2.570 1_556 S
Gd275 O307 2.386 . S
Gd275 O311 2.307 . S
Gd275 O314 2.353 . S
Gd275 O315 2.468 . S
Gd275 O316 2.427 . S
Gd275 O318 2.388 . S
Gd275 C339 2.805 . S
N276 C266 1.359 . S
N276 Gd275 2.570 1_554 S
N276 C278 1.343 . S
C277 C265 1.422 . S
C277 C279 1.321 . S
C277 H285 0.931 . S
C278 N276 1.343 . S
C278 C279 1.390 . S
C278 H280 0.931 . S
C279 C277 1.321 . S
C279 C278 1.390 . S
C279 H281 0.930 . S
H280 C278 0.931 . S
H281 C279 0.930 . S
H282 C305 0.931 . S
H283 C271 0.929 . S
H284 C306 0.930 . S
H285 C277 0.931 . S
H286 C267 0.930 . S
H287 C296 0.929 . S
H288 C272 0.931 . S
H289 C273 0.930 . S
H290 C328 0.930 . S
H291 C269 0.929 . S
H292 C297 0.931 . S
H293 C298 0.930 . S
N294 Gd274 2.622 . S
N294 C295 1.369 . S
N294 C296 1.338 . S
C295 N294 1.369 . S
C295 C299 1.415 . S
C295 C302 1.422 . S
C296 H287 0.929 . S
C296 N294 1.338 . S
C296 C298 1.378 . S
C297 H292 0.931 . S
C297 C298 1.348 . S
C297 C299 1.413 . S
C298 H293 0.930 . S
C298 C296 1.378 . S
C298 C297 1.348 . S
C299 C295 1.415 . S
C299 C297 1.413 . S
C299 C329 1.437 . S
H300 C329 0.929 . S
N301 Gd274 2.570 . S
N301 C302 1.359 . S
N301 C305 1.343 . S
C302 C295 1.422 . S
C302 N301 1.359 . S
C302 C304 1.421 . S
C303 C304 1.422 . S
C303 C306 1.321 . S
C303 H330 0.931 . S
C304 C302 1.421 . S
C304 C303 1.422 . S
C304 C328 1.417 . S
C305 H282 0.931 . S
C305 N301 1.343 . S
C305 C306 1.390 . S
C306 H284 0.930 . S
C306 C303 1.321 . S
C306 C305 1.390 . S
O307 Gd275 2.386 . S
O307 C319 1.265 . S
O308 Gd274 2.353 . S
O308 C319 1.242 . S
O309 Gd274 2.468 . S
O309 C327 1.263 . S
O310 Gd274 2.427 . S
O310 C327 1.252 . S
O311 Gd275 2.307 . S
O311 C320 1.261 . S
O312 Gd274 2.388 . S
O312 C320 1.252 . S
O313 Gd274 2.386 . S
O313 C331 1.265 . S
O314 Gd275 2.353 . S
O314 C331 1.242 . S
O315 Gd275 2.468 . S
O315 C339 1.263 . S
O316 Gd275 2.427 . S
O316 C339 1.252 . S
O317 Gd274 2.307 . S
O317 C332 1.261 . S
O318 Gd275 2.388 . S
O318 C332 1.252 . S
C319 O307 1.265 . S
C319 O308 1.242 . S
C320 O311 1.261 . S
C320 O312 1.252 . S
C321 C324 1.394 . S
C321 C326 1.370 . S
C321 C327 1.500 . S
C322 C325 1.383 . S
C322 C326 1.395 . S
C323 C324 1.396 . S
C323 C325 1.365 . S
C323 H340 0.929 . S
C324 C321 1.394 . S
C324 C323 1.396 . S
C324 H341 0.930 . S
C325 C322 1.383 . S
C325 C323 1.365 . S
C325 H342 0.931 . S
C326 C321 1.370 . S
C326 C322 1.395 . S
C326 H343 0.930 . S
C327 Gd274 2.805 . S
C327 O309 1.263 . S
C327 O310 1.252 . S
C327 C321 1.500 . S
C328 H290 0.930 . S
C328 C304 1.417 . S
C328 C329 1.329 . S
C329 C299 1.437 . S
C329 H300 0.929 . S
C329 C328 1.329 . S
H330 C303 0.931 . S
C331 O313 1.265 . S
C331 O314 1.242 . S
C332 O317 1.261 . S
C332 O318 1.252 . S
C333 C336 1.394 . S
C333 C338 1.370 . S
C333 C339 1.500 1_554 S
C334 C337 1.383 . S
C334 C338 1.395 . S
C335 C336 1.396 . S
C335 C337 1.365 . S
C335 H344 0.929 . S
C336 C333 1.394 . S
C336 C335 1.396 . S
C336 H345 0.930 1_554 S
C337 C334 1.383 . S
C337 C335 1.365 . S
C337 H346 0.931 . S
C338 C333 1.370 . S
C338 C334 1.395 . S
C338 H347 0.930 . S
C339 Gd275 2.805 . S
C339 O315 1.263 . S
C339 O316 1.252 . S
C339 C333 1.500 1_556 S
H340 C323 0.929 . S
H341 C324 0.930 . S
H342 C325 0.931 . S
H343 C326 0.930 . S
H344 C335 0.929 . S
H345 C336 0.930 1_556 S
H346 C337 0.931 . S
H347 C338 0.930 . S
C348 C350 1.422 . S
C348 C352 1.415 . S
C348 N354 1.369 1_554 S
C349 C350 1.421 . S
C349 C351 1.417 . S
C349 C361 1.422 . S
C350 C348 1.422 . S
C350 C349 1.421 . S
C350 N360 1.359 . S
C351 C349 1.417 . S
C351 C353 1.329 . S
C351 H370 0.930 . S
C352 C348 1.415 . S
C352 C353 1.437 . S
C352 C356 1.413 1_554 S
C353 C351 1.329 . S
C353 C352 1.437 . S
C353 H375 0.929 . S
N354 C348 1.369 1_556 S
N354 C355 1.341 . S
N354 Gd359 2.622 1_455 S
C355 N354 1.341 . S
C355 C357 1.389 . S
C355 H367 0.915 1_455 S
C356 C352 1.413 1_556 S
C356 C357 1.348 . S
C356 H372 0.931 . S
C357 C355 1.389 . S
C357 C356 1.348 . S
C357 H373 0.930 . S
Gd358 N378 2.622 . S
Gd358 N385 2.570 . S
Gd358 O392 2.353 . S
Gd358 O393 2.468 . S
Gd358 O394 2.427 . S
Gd358 O396 2.388 . S
Gd358 O397 2.386 1_455 S
Gd358 O401 2.307 . S
Gd358 C411 2.805 . S
Gd359 N354 2.622 1_655 S
Gd359 N360 2.570 1_656 S
Gd359 O391 2.386 1_655 S
Gd359 O395 2.307 1_655 S
Gd359 O398 2.353 . S
Gd359 O399 2.468 . S
Gd359 O400 2.427 . S
Gd359 O402 2.388 . S
Gd359 C423 2.805 . S
N360 C350 1.359 . S
N360 Gd359 2.570 1_454 S
N360 C362 1.343 . S
C361 C349 1.422 . S
C361 C363 1.321 . S
C361 H369 0.931 . S
C362 N360 1.343 . S
C362 C363 1.390 . S
C362 H364 0.931 . S
C363 C361 1.321 . S
C363 C362 1.390 . S
C363 H365 0.930 . S
H364 C362 0.931 . S
H365 C363 0.930 . S
H366 C389 0.931 . S
H367 C355 0.915 1_655 S
H368 C390 0.930 . S
H369 C361 0.931 . S
H370 C351 0.930 . S
H371 C380 0.929 . S
H372 C356 0.931 . S
H373 C357 0.930 . S
H374 C412 0.930 . S
H375 C353 0.929 . S
H376 C381 0.931 . S
H377 C382 0.930 . S
N378 Gd358 2.622 . S
N378 C379 1.369 1_455 S
N378 C380 1.338 . S
C379 N378 1.369 1_655 S
C379 C383 1.415 . S
C379 C386 1.422 . S
C380 H371 0.929 . S
C380 N378 1.338 . S
C380 C382 1.378 . S
C381 H376 0.931 . S
C381 C382 1.348 1_655 S
C381 C383 1.413 . S
C382 H377 0.930 . S
C382 C380 1.378 . S
C382 C381 1.348 1_455 S
C383 C379 1.415 . S
C383 C381 1.413 . S
C383 C413 1.437 . S
H384 C413 0.929 . S
N385 Gd358 2.570 . S
N385 C386 1.359 1_455 S
N385 C389 1.343 . S
C386 C379 1.422 . S
C386 N385 1.359 1_655 S
C386 C388 1.421 . S
C387 C388 1.422 . S
C387 C390 1.321 . S
C387 H414 0.931 . S
C388 C386 1.421 . S
C388 C387 1.422 . S
C388 C412 1.417 . S
C389 H366 0.931 . S
C389 N385 1.343 . S
C389 C390 1.390 1_455 S
C390 H368 0.930 . S
C390 C387 1.321 . S
C390 C389 1.390 1_655 S
O391 Gd359 2.386 1_455 S
O391 C403 1.265 . S
O392 Gd358 2.353 . S
O392 C403 1.242 . S
O393 Gd358 2.468 . S
O393 C411 1.263 . S
O394 Gd358 2.427 . S
O394 C411 1.252 . S
O395 Gd359 2.307 1_455 S
O395 C404 1.261 . S
O396 Gd358 2.388 . S
O396 C404 1.252 . S
O397 Gd358 2.386 1_655 S
O397 C415 1.265 . S
O398 Gd359 2.353 . S
O398 C415 1.242 . S
O399 Gd359 2.468 . S
O399 C423 1.263 . S
O400 Gd359 2.427 . S
O400 C423 1.252 . S
O401 Gd358 2.307 . S
O401 C416 1.261 . S
O402 Gd359 2.388 . S
O402 C416 1.252 1_655 S
C403 O391 1.265 . S
C403 O392 1.242 . S
C404 O395 1.261 . S
C404 O396 1.252 . S
C405 C408 1.394 . S
C405 C410 1.370 . S
C405 C411 1.500 . S
C406 C409 1.383 . S
C406 C410 1.395 . S
C407 C408 1.396 . S
C407 C409 1.365 . S
C407 H424 0.929 . S
C408 C405 1.394 . S
C408 C407 1.396 . S
C408 H425 0.930 . S
C409 C406 1.383 . S
C409 C407 1.365 . S
C409 H426 0.931 . S
C410 C405 1.370 . S
C410 C406 1.395 . S
C410 H427 0.930 . S
C411 Gd358 2.805 . S
C411 O393 1.263 . S
C411 O394 1.252 . S
C411 C405 1.500 . S
C412 H374 0.930 . S
C412 C388 1.417 . S
C412 C413 1.329 . S
C413 C383 1.437 . S
C413 H384 0.929 . S
C413 C412 1.329 . S
H414 C387 0.931 . S
C415 O397 1.265 . S
C415 O398 1.242 . S
C416 O401 1.261 . S
C416 O402 1.252 1_455 S
C417 C420 1.394 . S
C417 C422 1.370 . S
C417 C423 1.500 1_554 S
C418 C421 1.383 . S
C418 C422 1.395 . S
C419 C420 1.396 . S
C419 C421 1.365 . S
C419 H428 0.929 . S
C420 C417 1.394 . S
C420 C419 1.396 . S
C420 H429 0.930 1_554 S
C421 C418 1.383 . S
C421 C419 1.365 . S
C421 H430 0.931 . S
C422 C417 1.370 . S
C422 C418 1.395 . S
C422 H431 0.930 . S
C423 Gd359 2.805 . S
C423 O399 1.263 . S
C423 O400 1.252 . S
C423 C417 1.500 1_556 S
H424 C407 0.929 . S
H425 C408 0.930 . S
H426 C409 0.931 . S
H427 C410 0.930 . S
H428 C419 0.929 . S
H429 C420 0.930 1_556 S
H430 C421 0.931 . S
H431 C422 0.930 . S
C432 C433 1.363 . S
C432 C438 1.379 . S
C432 N440 1.356 1_545 S
C433 C432 1.363 . S
C433 C439 1.363 . S
C434 C435 1.363 . S
C434 C439 1.379 . S
C434 N441 1.356 . S
C435 C434 1.363 . S
C435 C438 1.363 . S
N436 C438 1.356 1_565 S
N436 H448 0.984 . S
N436 H449 0.985 . S
N437 C439 1.356 . S
N437 H442 0.984 . S
N437 H443 0.985 . S
C438 C432 1.379 . S
C438 C435 1.363 . S
C438 N436 1.356 1_545 S
C439 C433 1.363 . S
C439 C434 1.379 . S
C439 N437 1.356 . S
N440 C432 1.356 1_565 S
N440 H446 0.984 . S
N440 H447 0.990 . S
N441 C434 1.356 . S
N441 H444 0.984 . S
N441 H445 0.985 . S
H442 N437 0.984 . S
H443 N437 0.985 . S
H444 N441 0.984 . S
H445 N441 0.985 . S
H446 N440 0.984 . S
H447 N440 0.990 . S
H448 N436 0.984 . S
H449 N436 0.985 . S
C450 C451 1.363 . S
C450 C456 1.379 . S
C450 N458 1.356 . S
C451 C450 1.363 . S
C451 C457 1.363 . S
C452 C453 1.363 . S
C452 C457 1.379 . S
C452 N459 1.356 . S
C453 C452 1.363 . S
C453 C456 1.363 . S
N454 C456 1.356 . S
N454 H466 0.984 . S
N454 H467 0.985 . S
N455 C457 1.356 . S
N455 H460 0.984 . S
N455 H461 0.985 . S
C456 C450 1.379 . S
C456 C453 1.363 . S
C456 N454 1.356 . S
C457 C451 1.363 . S
C457 C452 1.379 . S
C457 N455 1.356 . S
N458 C450 1.356 . S
N458 H464 0.984 . S
N458 H465 0.984 . S
N459 C452 1.356 . S
N459 H462 0.984 . S
N459 H463 0.985 . S
H460 N455 0.984 . S
H461 N455 0.985 . S
H462 N459 0.984 . S
H463 N459 0.985 . S
H464 N458 0.984 . S
H465 N458 0.984 . S
H466 N454 0.984 . S
H467 N454 0.985 . S
C468 C469 1.363 . S
C468 C474 1.379 . S
C468 N476 1.356 . S
C469 C468 1.363 . S
C469 C475 1.363 . S
C470 C471 1.363 . S
C470 C475 1.379 . S
C470 N477 1.356 . S
C471 C470 1.363 . S
C471 C474 1.363 . S
N472 C474 1.356 . S
N472 H484 0.984 . S
N472 H485 0.985 . S
N473 C475 1.356 . S
N473 H478 0.984 . S
N473 H479 0.985 . S
C474 C468 1.379 . S
C474 C471 1.363 . S
C474 N472 1.356 . S
C475 C469 1.363 . S
C475 C470 1.379 . S
C475 N473 1.356 . S
N476 C468 1.356 . S
N476 H482 0.984 . S
N476 H483 0.984 . S
N477 C470 1.356 . S
N477 H480 0.984 . S
N477 H481 0.985 . S
H478 N473 0.984 . S
H479 N473 0.985 . S
H480 N477 0.984 . S
H481 N477 0.985 . S
H482 N476 0.984 . S
H483 N476 0.984 . S
H484 N472 0.984 . S
H485 N472 0.985 . S
C486 C487 1.363 . S
C486 C492 1.379 . S
C486 N494 1.356 . S
C487 C486 1.363 . S
C487 C493 1.363 . S
C488 C489 1.363 . S
C488 C493 1.379 . S
C488 N495 1.356 . S
C489 C488 1.363 . S
C489 C492 1.363 . S
N490 C492 1.356 1_655 S
N490 H502 0.984 . S
N490 H503 0.985 . S
N491 C493 1.356 . S
N491 H496 0.984 . S
N491 H497 0.985 . S
C492 C486 1.379 . S
C492 C489 1.363 . S
C492 N490 1.356 1_455 S
C493 C487 1.363 . S
C493 C488 1.379 . S
C493 N491 1.356 . S
N494 C486 1.356 . S
N494 H500 0.984 1_455 S
N494 H501 0.984 . S
N495 C488 1.356 . S
N495 H498 0.984 . S
N495 H499 0.985 . S
H496 N491 0.984 . S
H497 N491 0.985 . S
H498 N495 0.984 . S
H499 N495 0.985 . S
H500 N494 0.984 1_655 S
H501 N494 0.984 . S
H502 N490 0.984 . S
H503 N490 0.985 . S
C504 C505 1.363 . S
C504 C510 1.379 . S
C504 N512 1.356 . S
C505 C504 1.363 . S
C505 C511 1.363 1_565 S
C506 C507 1.352 1_545 S
C506 C511 1.379 . S
C506 N513 1.356 1_554 S
C507 C506 1.352 1_565 S
C507 C510 1.376 . S
N508 C510 1.356 . S
N508 H520 0.984 . S
N508 H521 0.985 1_554 S
N509 C511 1.356 . S
N509 H514 0.984 . S
N509 H515 0.985 . S
C510 C504 1.379 . S
C510 C507 1.376 . S
C510 N508 1.356 . S
C511 C505 1.363 1_545 S
C511 C506 1.379 . S
C511 N509 1.356 . S
N512 C504 1.356 . S
N512 H518 0.984 . S
N512 H519 0.984 . S
N513 C506 1.356 1_556 S
N513 H516 0.984 . S
N513 H517 0.985 . S
H514 N509 0.984 . S
H515 N509 0.985 . S
H516 N513 0.984 . S
H517 N513 0.985 . S
H518 N512 0.984 . S
H519 N512 0.984 . S
H520 N508 0.984 . S
H521 N508 0.985 1_556 S
C522 C523 1.363 . S
C522 C528 1.379 . S
C522 N530 1.356 . S
C523 C522 1.363 . S
C523 C529 1.363 . S
C524 C525 1.363 . S
C524 C529 1.379 . S
C524 N531 1.356 . S
C525 C524 1.363 . S
C525 C528 1.363 . S
N526 C528 1.356 1_556 S
N526 H538 0.984 . S
N526 H539 0.985 . S
N527 C529 1.356 . S
N527 H532 0.984 . S
N527 H533 0.985 . S
C528 C522 1.379 . S
C528 C525 1.363 . S
C528 N526 1.356 1_554 S
C529 C523 1.363 . S
C529 C524 1.379 . S
C529 N527 1.356 . S
N530 C522 1.356 . S
N530 H536 0.984 . S
N530 H537 0.984 . S
N531 C524 1.356 . S
N531 H534 0.984 1_554 S
N531 H535 0.985 . S
H532 N527 0.984 . S
H533 N527 0.985 . S
H534 N531 0.984 1_556 S
H535 N531 0.985 . S
H536 N530 0.984 . S
H537 N530 0.984 . S
H538 N526 0.984 . S
H539 N526 0.985 . S
C540 C541 1.363 . S
C540 C546 1.379 . S
C540 N548 1.356 . S
C541 C540 1.363 . S
C541 C547 1.363 . S
C542 C543 1.363 . S
C542 C547 1.379 . S
C542 N549 1.356 . S
C543 C542 1.363 . S
C543 C546 1.363 . S
N544 C546 1.356 1_556 S
N544 H556 0.984 . S
N544 H557 0.985 . S
N545 C547 1.356 . S
N545 H550 0.984 . S
N545 H551 0.985 . S
C546 C540 1.379 . S
C546 C543 1.363 . S
C546 N544 1.356 1_554 S
C547 C541 1.363 . S
C547 C542 1.379 . S
C547 N545 1.356 . S
N548 C540 1.356 . S
N548 H554 0.984 . S
N548 H555 0.984 . S
N549 C542 1.356 . S
N549 H552 0.984 1_554 S
N549 H553 0.985 . S
H550 N545 0.984 . S
H551 N545 0.985 . S
H552 N549 0.984 1_556 S
H553 N549 0.985 . S
H554 N548 0.984 . S
H555 N548 0.984 . S
H556 N544 0.984 . S
H557 N544 0.985 . S
C558 C559 1.363 1_455 S
C558 C564 1.379 . S
C558 N566 1.356 . S
C559 C558 1.363 1_655 S
C559 C565 1.363 . S
C560 C561 1.363 . S
C560 C565 1.379 . S
C560 N567 1.356 1_554 S
C561 C560 1.363 . S
C561 C564 1.363 1_655 S
N562 C564 1.356 . S
N562 H574 0.984 . S
N562 H575 0.985 1_554 S
N563 C565 1.356 . S
N563 H568 0.984 . S
N563 H569 0.985 . S
C564 C558 1.379 . S
C564 C561 1.363 1_455 S
C564 N562 1.356 . S
C565 C559 1.363 . S
C565 C560 1.379 . S
C565 N563 1.356 . S
N566 C558 1.356 . S
N566 H572 0.984 . S
N566 H573 0.984 . S
N567 C560 1.356 1_556 S
N567 H570 0.984 . S
N567 H571 0.985 . S
H568 N563 0.984 . S
H569 N563 0.985 . S
H570 N567 0.984 . S
H571 N567 0.985 . S
H572 N566 0.984 . S
H573 N566 0.984 . S
H574 N562 0.984 . S
H575 N562 0.985 1_556 S
C576 C577 1.363 . S
C576 C582 1.379 1_455 S
C576 N584 1.356 . S
C577 C576 1.363 . S
C577 C583 1.363 . S
C578 C579 1.363 1_455 S
C578 C583 1.379 . S
C578 N585 1.356 . S
C579 C578 1.363 1_655 S
C579 C582 1.363 . S
N580 C582 1.356 . S
N580 H592 0.984 . S
N580 H593 0.985 . S
N581 C583 1.356 . S
N581 H586 0.984 . S
N581 H587 0.985 . S
C582 C576 1.379 1_655 S
C582 C579 1.363 . S
C582 N580 1.356 . S
C583 C577 1.363 . S
C583 C578 1.379 . S
C583 N581 1.356 . S
N584 C576 1.356 . S
N584 H590 0.993 1_554 S
N584 H591 0.984 . S
N585 C578 1.356 . S
N585 H588 0.996 . S
N585 H589 0.985 . S
H586 N581 0.984 . S
H587 N581 0.985 . S
H588 N585 0.996 . S
H589 N585 0.985 . S
H590 N584 0.993 1_556 S
H591 N584 0.984 . S
H592 N580 0.984 . S
H593 N580 0.985 . S
C594 C595 1.363 . S
C594 C600 1.379 . S
C594 N602 1.356 . S
C595 C594 1.363 . S
C595 C601 1.363 . S
C596 C597 1.363 1_565 S
C596 C601 1.379 1_565 S
C596 N603 1.356 . S
C597 C596 1.363 1_545 S
C597 C600 1.363 . S
N598 C600 1.356 . S
N598 H610 0.984 . S
N598 H611 0.985 . S
N599 C601 1.356 1_565 S
N599 H604 0.984 1_565 S
N599 H605 0.985 . S
C600 C594 1.379 . S
C600 C597 1.363 . S
C600 N598 1.356 . S
C601 C595 1.363 . S
C601 C596 1.379 1_545 S
C601 N599 1.356 1_545 S
N602 C594 1.356 . S
N602 H608 0.984 . S
N602 H609 0.984 . S
N603 C596 1.356 . S
N603 H606 0.984 . S
N603 H607 0.985 . S
H604 N599 0.984 1_545 S
H605 N599 0.985 . S
H606 N603 0.984 . S
H607 N603 0.985 . S
H608 N602 0.984 . S
H609 N602 0.984 . S
H610 N598 0.984 . S
H611 N598 0.985 . S
C612 C613 1.363 . S
C612 C618 1.379 . S
C612 N620 1.356 . S
C613 C612 1.363 . S
C613 C619 1.363 . S
C614 C615 1.363 . S
C614 C619 1.379 . S
C614 N621 1.356 . S
C615 C614 1.363 . S
C615 C618 1.363 . S
N616 C618 1.356 . S
N616 H628 0.984 . S
N616 H629 0.985 . S
N617 C619 1.356 . S
N617 H622 0.984 . S
N617 H623 0.985 . S
C618 C612 1.379 . S
C618 C615 1.363 . S
C618 N616 1.356 . S
C619 C613 1.363 . S
C619 C614 1.379 . S
C619 N617 1.356 . S
N620 C612 1.356 . S
N620 H626 0.984 1_554 S
N620 H627 0.984 . S
N621 C614 1.356 . S
N621 H624 0.984 . S
N621 H625 0.985 . S
H622 N617 0.984 . S
H623 N617 0.985 . S
H624 N621 0.984 . S
H625 N621 0.985 . S
H626 N620 0.984 1_556 S
H627 N620 0.984 . S
H628 N616 0.984 . S
H629 N616 0.985 . S
C630 C631 1.363 . S
C630 C636 1.379 . S
C630 N638 1.356 . S
C631 C630 1.363 . S
C631 C637 1.363 . S
C632 C633 1.363 . S
C632 C637 1.379 . S
C632 N639 1.356 . S
C633 C632 1.363 . S
C633 C636 1.363 . S
N634 C636 1.356 . S
N634 H646 0.984 . S
N634 H647 0.985 . S
N635 C637 1.356 . S
N635 H640 0.984 . S
N635 H641 0.985 . S
C636 C630 1.379 . S
C636 C633 1.363 . S
C636 N634 1.356 . S
C637 C631 1.363 . S
C637 C632 1.379 . S
C637 N635 1.356 . S
N638 C630 1.356 . S
N638 H644 0.984 . S
N638 H645 0.984 . S
N639 C632 1.356 . S
N639 H642 0.984 . S
N639 H643 0.985 . S
H640 N635 0.984 . S
H641 N635 0.985 . S
H642 N639 0.984 . S
H643 N639 0.985 . S
H644 N638 0.984 . S
H645 N638 0.984 . S
H646 N634 0.984 . S
H647 N634 0.985 . S
C648 C649 1.363 . S
C648 C654 1.379 . S
C648 N656 1.356 . S
C649 C648 1.363 . S
C649 C655 1.363 1_655 S
C650 C651 1.363 . S
C650 C655 1.379 . S
C650 N657 1.356 . S
C651 C650 1.363 . S
C651 C654 1.363 1_455 S
N652 C654 1.356 . S
N652 H664 0.984 1_554 S
N652 H665 0.985 1_655 S
N653 C655 1.356 . S
N653 H658 0.984 1_455 S
N653 H659 0.985 . S
C654 C648 1.379 . S
C654 C651 1.363 1_655 S
C654 N652 1.356 . S
C655 C649 1.363 1_455 S
C655 C650 1.379 . S
C655 N653 1.356 . S
N656 C648 1.356 . S
N656 H662 0.984 . S
N656 H663 0.984 . S
N657 C650 1.356 . S
N657 H660 0.984 . S
N657 H661 0.985 . S
H658 N653 0.984 1_655 S
H659 N653 0.985 . S
H660 N657 0.984 . S
H661 N657 0.985 . S
H662 N656 0.984 . S
H663 N656 0.984 . S
H664 N652 0.984 1_556 S
H665 N652 0.985 1_455 S
C666 C667 1.363 1_545 S
C666 C672 1.379 . S
C666 N674 1.354 1_545 S
C667 C666 1.363 1_565 S
C667 C673 1.363 . S
C668 C669 1.363 . S
C668 C673 1.379 1_545 S
C668 N675 1.356 . S
C669 C668 1.363 . S
C669 C672 1.363 . S
N670 C672 1.356 . S
N670 H682 0.984 . S
N670 H683 0.985 . S
N671 C673 1.356 . S
N671 H676 0.984 . S
N671 H677 0.985 . S
C672 C666 1.379 . S
C672 C669 1.363 . S
C672 N670 1.356 . S
C673 C667 1.363 . S
C673 C668 1.379 1_565 S
C673 N671 1.356 . S
N674 C666 1.354 1_565 S
N674 H680 0.980 1_565 S
N674 H681 0.991 . S
N675 C668 1.356 . S
N675 H678 0.984 . S
N675 H679 0.985 . S
H676 N671 0.984 . S
H677 N671 0.985 . S
H678 N675 0.984 . S
H679 N675 0.985 . S
H680 N674 0.980 1_545 S
H681 N674 0.991 . S
H682 N670 0.984 . S
H683 N670 0.985 . S
C684 C685 1.363 . S
C684 C690 1.379 . S
C684 N692 1.356 . S
C685 C684 1.363 . S
C685 C691 1.363 . S
C686 C687 1.363 . S
C686 C691 1.379 . S
C686 N693 1.356 . S
C687 C686 1.363 . S
C687 C690 1.363 . S
N688 C690 1.356 . S
N688 H700 0.984 . S
N688 H701 0.985 . S
N689 C691 1.356 . S
N689 H694 0.984 . S
N689 H695 0.985 . S
C690 C684 1.379 . S
C690 C687 1.363 . S
C690 N688 1.356 . S
C691 C685 1.363 . S
C691 C686 1.379 . S
C691 N689 1.356 . S
N692 C684 1.356 . S
N692 H698 0.984 . S
N692 H699 0.984 . S
N693 C686 1.356 . S
N693 H696 0.984 . S
N693 H697 0.985 . S
H694 N689 0.984 . S
H695 N689 0.985 . S
H696 N693 0.984 . S
H697 N693 0.985 . S
H698 N692 0.984 . S
H699 N692 0.984 . S
H700 N688 0.984 . S
H701 N688 0.985 . S
C702 C703 1.363 . S
C702 C708 1.379 . S
C702 N710 1.356 . S
C703 C702 1.363 . S
C703 C709 1.363 . S
C704 C705 1.363 . S
C704 C709 1.379 . S
C704 N711 1.356 . S
C705 C704 1.363 . S
C705 C708 1.363 . S
N706 C708 1.356 . S
N706 H718 0.984 1_554 S
N706 H719 0.985 . S
N707 C709 1.356 . S
N707 H712 0.984 . S
N707 H713 0.985 . S
C708 C702 1.379 . S
C708 C705 1.363 . S
C708 N706 1.356 . S
C709 C703 1.363 . S
C709 C704 1.379 . S
C709 N707 1.356 . S
N710 C702 1.356 . S
N710 H716 0.984 . S
N710 H717 0.984 . S
N711 C704 1.356 . S
N711 H714 0.984 . S
N711 H715 0.985 . S
H712 N707 0.984 . S
H713 N707 0.985 . S
H714 N711 0.984 . S
H715 N711 0.985 . S
H716 N710 0.984 . S
H717 N710 0.984 . S
H718 N706 0.984 1_556 S
H719 N706 0.985 . S
C720 C721 1.363 . S
C720 C726 1.379 . S
C720 N728 1.356 1_455 S
C721 C720 1.363 . S
C721 C727 1.363 . S
C722 C723 1.363 . S
C722 C727 1.379 . S
C722 N729 1.356 . S
C723 C722 1.363 . S
C723 C726 1.363 . S
N724 C726 1.356 1_655 S
N724 H736 0.984 . S
N724 H737 0.990 . S
N725 C727 1.356 1_554 S
N725 H730 0.984 1_554 S
N725 H731 0.985 . S
C726 C720 1.379 . S
C726 C723 1.363 . S
C726 N724 1.356 1_455 S
C727 C721 1.363 . S
C727 C722 1.379 . S
C727 N725 1.356 1_556 S
N728 C720 1.356 1_655 S
N728 H734 0.984 . S
N728 H735 0.984 1_655 S
N729 C722 1.356 . S
N729 H732 0.984 . S
N729 H733 0.985 1_556 S
H730 N725 0.984 1_556 S
H731 N725 0.985 . S
H732 N729 0.984 . S
H733 N729 0.985 1_554 S
H734 N728 0.984 . S
H735 N728 0.984 1_455 S
H736 N724 0.984 . S
H737 N724 0.990 . S
C738 C739 1.363 . S
C738 C744 1.379 . S
C738 N746 1.356 1_545 S
C739 C738 1.363 . S
C739 C745 1.363 . S
C740 C741 1.363 . S
C740 C745 1.379 . S
C740 N747 1.356 . S
C741 C740 1.363 . S
C741 C744 1.363 . S
N742 C744 1.356 1_565 S
N742 H754 0.984 . S
N742 H755 0.985 . S
N743 C745 1.356 . S
N743 H748 0.984 . S
N743 H749 0.985 . S
C744 C738 1.379 . S
C744 C741 1.363 . S
C744 N742 1.356 1_545 S
C745 C739 1.363 . S
C745 C740 1.379 . S
C745 N743 1.356 . S
N746 C738 1.356 1_565 S
N746 H752 0.984 . S
N746 H753 0.984 . S
N747 C740 1.356 . S
N747 H750 0.984 . S
N747 H751 0.985 . S
H748 N743 0.984 . S
H749 N743 0.985 . S
H750 N747 0.984 . S
H751 N747 0.985 . S
H752 N746 0.984 . S
H753 N746 0.984 . S
H754 N742 0.984 . S
H755 N742 0.985 . S
C756 C757 1.363 . S
C756 C762 1.379 . S
C756 N764 1.356 1_556 S
C757 C756 1.363 . S
C757 C763 1.363 . S
C758 C759 1.363 . S
C758 C763 1.379 . S
C758 N765 1.356 . S
C759 C758 1.363 . S
C759 C762 1.363 . S
N760 C762 1.356 1_554 S
N760 H772 0.984 . S
N760 H773 0.985 1_554 S
N761 C763 1.356 . S
N761 H766 0.984 . S
N761 H767 0.985 . S
C762 C756 1.379 . S
C762 C759 1.363 . S
C762 N760 1.356 1_556 S
C763 C757 1.363 . S
C763 C758 1.379 . S
C763 N761 1.356 . S
N764 C756 1.356 1_554 S
N764 H770 0.984 . S
N764 H771 0.984 . S
N765 C758 1.356 . S
N765 H768 0.984 . S
N765 H769 0.985 . S
H766 N761 0.984 . S
H767 N761 0.985 . S
H768 N765 0.984 . S
H769 N765 0.985 . S
H770 N764 0.984 . S
H771 N764 0.984 . S
H772 N760 0.984 . S
H773 N760 0.985 1_556 S
C774 C775 1.363 . S
C774 C780 1.379 . S
C774 N782 1.356 . S
C775 C774 1.363 . S
C775 C781 1.363 . S
C776 C777 1.363 . S
C776 C781 1.379 . S
C776 N783 1.356 . S
C777 C776 1.363 . S
C777 C780 1.363 . S
N778 C780 1.356 . S
N778 H790 0.984 . S
N778 H791 0.985 . S
N779 C781 1.356 . S
N779 H784 0.984 . S
N779 H785 0.985 . S
C780 C774 1.379 . S
C780 C777 1.363 . S
C780 N778 1.356 . S
C781 C775 1.363 . S
C781 C776 1.379 . S
C781 N779 1.356 . S
N782 C774 1.356 . S
N782 H788 0.984 . S
N782 H789 0.984 . S
N783 C776 1.356 . S
N783 H786 0.984 . S
N783 H787 0.985 . S
H784 N779 0.984 . S
H785 N779 0.985 . S
H786 N783 0.984 . S
H787 N783 0.985 . S
H788 N782 0.984 . S
H789 N782 0.984 . S
H790 N778 0.984 . S
H791 N778 0.985 . S
C792 C793 1.363 1_455 S
C792 C798 1.379 . S
C792 N800 1.356 . S
C793 C792 1.363 1_655 S
C793 C799 1.363 . S
C794 C795 1.363 . S
C794 C799 1.379 . S
C794 N801 1.356 . S
C795 C794 1.363 . S
C795 C798 1.363 1_655 S
N796 C798 1.356 . S
N796 H808 0.984 . S
N796 H809 0.985 . S
N797 C799 1.356 . S
N797 H802 0.984 . S
N797 H803 0.985 . S
C798 C792 1.379 . S
C798 C795 1.363 1_455 S
C798 N796 1.356 . S
C799 C793 1.363 . S
C799 C794 1.379 . S
C799 N797 1.356 . S
N800 C792 1.356 . S
N800 H806 0.984 . S
N800 H807 0.984 . S
N801 C794 1.356 . S
N801 H804 0.984 . S
N801 H805 0.985 . S
H802 N797 0.984 . S
H803 N797 0.985 . S
H804 N801 0.984 . S
H805 N801 0.985 . S
H806 N800 0.984 . S
H807 N800 0.984 . S
H808 N796 0.984 . S
H809 N796 0.985 . S
C810 C811 1.363 . S
C810 C816 1.379 . S
C810 N818 1.356 . S
C811 C810 1.363 . S
C811 C817 1.360 1_565 S
C812 C813 1.363 1_545 S
C812 C817 1.379 . S
C812 N819 1.356 . S
C813 C812 1.363 1_565 S
C813 C816 1.363 . S
N814 C816 1.356 . S
N814 H826 0.984 . S
N814 H827 0.985 . S
N815 C817 1.358 . S
N815 H820 0.984 . S
N815 H821 0.985 . S
C816 C810 1.379 . S
C816 C813 1.363 . S
C816 N814 1.356 . S
C817 C811 1.360 1_545 S
C817 C812 1.379 . S
C817 N815 1.358 . S
N818 C810 1.356 . S
N818 H824 0.984 . S
N818 H825 0.984 . S
N819 C812 1.356 . S
N819 H822 0.984 . S
N819 H823 0.985 . S
H820 N815 0.984 . S
H821 N815 0.985 . S
H822 N819 0.984 . S
H823 N819 0.985 . S
H824 N818 0.984 . S
H825 N818 0.984 . S
H826 N814 0.984 . S
H827 N814 0.985 . S
C828 C829 1.363 . S
C828 C834 1.379 . S
C828 N836 1.356 . S
C829 C828 1.363 . S
C829 C835 1.363 . S
C830 C831 1.363 . S
C830 C835 1.379 . S
C830 N837 1.356 . S
C831 C830 1.363 . S
C831 C834 1.363 . S
N832 C834 1.356 . S
N832 H844 0.984 . S
N832 H845 0.985 . S
N833 C835 1.356 . S
N833 H838 0.984 . S
N833 H839 0.985 . S
C834 C828 1.379 . S
C834 C831 1.363 . S
C834 N832 1.356 . S
C835 C829 1.363 . S
C835 C830 1.379 . S
C835 N833 1.356 . S
N836 C828 1.356 . S
N836 H842 0.984 . S
N836 H843 0.984 . S
N837 C830 1.356 . S
N837 H840 0.984 . S
N837 H841 0.985 . S
H838 N833 0.984 . S
H839 N833 0.985 . S
H840 N837 0.984 . S
H841 N837 0.985 . S
H842 N836 0.984 . S
H843 N836 0.984 . S
H844 N832 0.984 . S
H845 N832 0.985 . S
C846 C847 1.363 . S
C846 C852 1.379 . S
C846 N854 1.356 . S
C847 C846 1.363 . S
C847 C853 1.363 . S
C848 C849 1.363 . S
C848 C853 1.379 . S
C848 N855 1.356 . S
C849 C848 1.363 . S
C849 C852 1.363 . S
N850 C852 1.356 . S
N850 H862 0.984 . S
N850 H863 0.985 . S
N851 C853 1.356 . S
N851 H856 0.984 . S
N851 H857 0.985 . S
C852 C846 1.379 . S
C852 C849 1.363 . S
C852 N850 1.356 . S
C853 C847 1.363 . S
C853 C848 1.379 . S
C853 N851 1.356 . S
N854 C846 1.356 . S
N854 H860 0.984 . S
N854 H861 0.984 . S
N855 C848 1.356 . S
N855 H858 0.984 . S
N855 H859 0.985 . S
H856 N851 0.984 . S
H857 N851 0.985 . S
H858 N855 0.984 . S
H859 N855 0.985 . S
H860 N854 0.984 . S
H861 N854 0.984 . S
H862 N850 0.984 . S
H863 N850 0.985 . S
C433 C76 1.954 . S
C435 C164 2.191 . S
C453 C247 2.197 . S
C451 C88 1.955 . S
C471 C332 2.191 . S
C469 C52 1.952 . S
C489 C416 2.177 . S
C487 C64 1.943 . S
C507 C152 2.188 1_564 S
C505 C28 1.961 . S
C523 C40 1.961 . S
C525 C235 2.197 1_554 S
C541 C4 1.958 . S
C543 C320 2.191 1_554 S
C559 C16 1.949 . S
C561 C404 2.178 1_654 S
C579 C154 0.760 . S
C577 C69 0.759 . S
C597 C250 0.746 1_545 S
C595 C81 0.746 . S
C615 C322 0.767 . S
C613 C93 0.766 . S
C631 C57 0.747 . S
C633 C406 0.746 . S
C649 C21 0.758 . S
C651 C166 0.759 . S
C669 C238 0.746 . S
C667 C33 0.746 . S
C687 C334 0.767 . S
C685 C45 0.765 . S
C703 C9 0.746 . S
C705 C418 0.746 . S
C721 C66 2.044 . S
C723 C151 2.302 . S
C739 C78 2.049 . S
C741 C236 2.348 . S
C759 C319 2.319 . S
C757 C90 2.058 . S
C777 C403 2.322 . S
C775 C54 2.063 . S
C793 C18 2.040 . S
C795 C163 2.302 . S
C813 C248 2.346 1_565 S
C811 C30 2.044 . S
C831 C331 2.318 . S
C829 C42 2.053 . S
C847 C6 2.058 . S
C849 C415 2.322 . S
