# Generated by pormake.
# Topology pyr, (3,6)-cn, num edge types: 1
# Building blocks:
#     Node 0, Type 0, BuildingBlock: CUQRIR_clean_linker_1, # of connection points: 3
#     Node 1, Type 0, BuildingBlock: CUQRIR_clean_linker_1, # of connection points: 3
#     Node 2, Type 0, BuildingBlock: CUQRIR_clean_linker_1, # of connection points: 3
#     Node 3, Type 0, BuildingBlock: CUQRIR_clean_linker_1, # of connection points: 3
#     Node 4, Type 0, BuildingBlock: CUQRIR_clean_linker_1, # of connection points: 3
#     Node 5, Type 0, BuildingBlock: CUQRIR_clean_linker_1, # of connection points: 3
#     Node 6, Type 0, BuildingBlock: CUQRIR_clean_linker_1, # of connection points: 3
#     Node 7, Type 0, BuildingBlock: CUQRIR_clean_linker_1, # of connection points: 3
#     Node 8, Type 1, BuildingBlock: BETDEL_clean_sbu_0, # of connection points: 6
#     Node 9, Type 1, BuildingBlock: BETDEL_clean_sbu_0, # of connection points: 6
#     Node 10, Type 1, BuildingBlock: BETDEL_clean_sbu_0, # of connection points: 6
#     Node 11, Type 1, BuildingBlock: BETDEL_clean_sbu_0, # of connection points: 6
#     Edge 12, Type (0, 1), BuildingBlock: XIVTED_clean_linker_0, # of connection points: 2
#     Edge 13, Type (0, 1), BuildingBlock: XIVTED_clean_linker_0, # of connection points: 2
#     Edge 14, Type (0, 1), BuildingBlock: XIVTED_clean_linker_0, # of connection points: 2
#     Edge 15, Type (0, 1), BuildingBlock: XIVTED_clean_linker_0, # of connection points: 2
#     Edge 16, Type (0, 1), BuildingBlock: XIVTED_clean_linker_0, # of connection points: 2
#     Edge 17, Type (0, 1), BuildingBlock: XIVTED_clean_linker_0, # of connection points: 2
#     Edge 18, Type (0, 1), BuildingBlock: XIVTED_clean_linker_0, # of connection points: 2
#     Edge 19, Type (0, 1), BuildingBlock: XIVTED_clean_linker_0, # of connection points: 2
#     Edge 20, Type (0, 1), BuildingBlock: XIVTED_clean_linker_0, # of connection points: 2
#     Edge 21, Type (0, 1), BuildingBlock: XIVTED_clean_linker_0, # of connection points: 2
#     Edge 22, Type (0, 1), BuildingBlock: XIVTED_clean_linker_0, # of connection points: 2
#     Edge 23, Type (0, 1), BuildingBlock: XIVTED_clean_linker_0, # of connection points: 2
#     Edge 24, Type (0, 1), BuildingBlock: XIVTED_clean_linker_0, # of connection points: 2
#     Edge 25, Type (0, 1), BuildingBlock: XIVTED_clean_linker_0, # of connection points: 2
#     Edge 26, Type (0, 1), BuildingBlock: XIVTED_clean_linker_0, # of connection points: 2
#     Edge 27, Type (0, 1), BuildingBlock: XIVTED_clean_linker_0, # of connection points: 2
#     Edge 28, Type (0, 1), BuildingBlock: XIVTED_clean_linker_0, # of connection points: 2
#     Edge 29, Type (0, 1), BuildingBlock: XIVTED_clean_linker_0, # of connection points: 2
#     Edge 30, Type (0, 1), BuildingBlock: XIVTED_clean_linker_0, # of connection points: 2
#     Edge 31, Type (0, 1), BuildingBlock: XIVTED_clean_linker_0, # of connection points: 2
#     Edge 32, Type (0, 1), BuildingBlock: XIVTED_clean_linker_0, # of connection points: 2
#     Edge 33, Type (0, 1), BuildingBlock: XIVTED_clean_linker_0, # of connection points: 2
#     Edge 34, Type (0, 1), BuildingBlock: XIVTED_clean_linker_0, # of connection points: 2
#     Edge 35, Type (0, 1), BuildingBlock: XIVTED_clean_linker_0, # of connection points: 2
# Relax obj value: 0.101
# Max RMSD: 0.229
# Mean RMSD: 0.155
data_MOF--net-pyr--node1-BETDEL_clean_sbu_0--node2-CUQRIR_clean_linker_1--edge1-XIVTED_clean_linker_0
_symmetry_space_group_name_H-M    P1
_symmetry_Int_Tables_number       1
_symmetry_cell_setting            triclinic
loop_
_symmetry_equiv_pos_as_xyz
'x, y, z'
_cell_length_a     34.133941
_cell_length_b     35.685071
_cell_length_c     32.128973
_cell_angle_alpha  90.16947
_cell_angle_beta   90.685691
_cell_angle_gamma 99.338678
loop_
_atom_site_label
_atom_site_type_symbol
_atom_site_fract_x
_atom_site_fract_y
_atom_site_fract_z
_atom_type_partial_charge
C0 C 0.22936 0.27685 0.19855 0.0
N1 N 0.25072 0.24848 0.20454 0.0
N2 N 0.23637 0.29259 0.16056 0.0
C3 C 0.19781 0.28596 0.22761 0.0
C4 C 0.26301 0.27299 0.14368 0.0
N5 N 0.27149 0.246 0.17027 0.0
C6 C 0.27797 0.27814 0.09994 0.0
H7 H 0.17334 0.26138 0.22888 0.0
H8 H 0.18571 0.31158 0.21765 0.0
H9 H 0.21037 0.29106 0.25947 0.0
H10 H 0.28079 0.30833 0.09059 0.0
H11 H 0.25634 0.26107 0.07848 0.0
H12 H 0.30718 0.26862 0.09691 0.0
C13 C 0.31464 0.85997 0.62887 0.0
N14 N 0.30304 0.8866 0.65396 0.0
N15 N 0.3461 0.84655 0.64561 0.0
C16 C 0.29611 0.84768 0.58728 0.0
C17 C 0.35359 0.86609 0.68169 0.0
N18 N 0.32751 0.89056 0.68675 0.0
C19 C 0.38416 0.85868 0.71353 0.0
H20 H 0.27094 0.82424 0.59189 0.0
H21 H 0.318 0.8372 0.56681 0.0
H22 H 0.28465 0.87155 0.57181 0.0
H23 H 0.41353 0.86037 0.69868 0.0
H24 H 0.37585 0.82947 0.72579 0.0
H25 H 0.38708 0.87925 0.73974 0.0
C26 C 0.61977 0.33414 0.83479 0.0
N27 N 0.64256 0.32886 0.86845 0.0
N28 N 0.6273 0.37073 0.82213 0.0
C29 C 0.58817 0.30436 0.81609 0.0
C30 C 0.65535 0.38755 0.8493 0.0
N31 N 0.6642 0.36226 0.87786 0.0
C32 C 0.67668 0.42777 0.84557 0.0
H33 H 0.60199 0.28751 0.79303 0.0
H34 H 0.56491 0.3175 0.79998 0.0
H35 H 0.57415 0.28478 0.84041 0.0
H36 H 0.66226 0.44637 0.86613 0.0
H37 H 0.67549 0.43816 0.81315 0.0
H38 H 0.70824 0.42996 0.85544 0.0
C39 C 0.82566 0.66838 0.31515 0.0
N40 N 0.86075 0.69141 0.30835 0.0
N41 N 0.80889 0.67806 0.35086 0.0
C42 C 0.80795 0.63612 0.28694 0.0
C43 C 0.83526 0.70778 0.36571 0.0
N44 N 0.86689 0.71578 0.34018 0.0
C45 C 0.83039 0.72878 0.40562 0.0
H46 H 0.77522 0.62983 0.28992 0.0
H47 H 0.82065 0.61042 0.29546 0.0
H48 H 0.8151 0.64271 0.25396 0.0
H49 H 0.81256 0.71005 0.4283 0.0
H50 H 0.81499 0.75316 0.39859 0.0
H51 H 0.85941 0.74008 0.42034 0.0
C52 C 0.76418 0.83189 0.86414 0.0
N53 N 0.79585 0.82726 0.84112 0.0
N54 N 0.74654 0.8601 0.84852 0.0
C55 C 0.75256 0.81124 0.90397 0.0
C56 C 0.76868 0.87262 0.81522 0.0
N57 N 0.79844 0.85221 0.81037 0.0
C58 C 0.76376 0.90714 0.79012 0.0
H59 H 0.76062 0.78234 0.90339 0.0
H60 H 0.72023 0.8091 0.90927 0.0
H61 H 0.76865 0.82733 0.93031 0.0
H62 H 0.74048 0.92212 0.80287 0.0
H63 H 0.75539 0.89835 0.75766 0.0
H64 H 0.7924 0.92694 0.78918 0.0
C65 C 0.7408 0.22733 0.42898 0.0
N66 N 0.75421 0.20137 0.40405 0.0
N67 N 0.70799 0.23846 0.41206 0.0
C68 C 0.75998 0.24243 0.46927 0.0
C69 C 0.70215 0.21899 0.37592 0.0
N70 N 0.73028 0.19678 0.3709 0.0
C71 C 0.66917 0.22252 0.34523 0.0
H72 H 0.74583 0.22504 0.49525 0.0
H73 H 0.75568 0.2722 0.4746 0.0
H74 H 0.79219 0.2409 0.46951 0.0
H75 H 0.67332 0.25192 0.33295 0.0
H76 H 0.6402 0.21743 0.36123 0.0
H77 H 0.66783 0.20217 0.31894 0.0
C78 C 0.3301 0.67766 0.18578 0.0
N79 N 0.3656 0.69863 0.19611 0.0
N80 N 0.30923 0.6974 0.16035 0.0
C81 C 0.3154 0.63824 0.20123 0.0
C82 C 0.33302 0.73101 0.15528 0.0
N83 N 0.36726 0.73192 0.17714 0.0
C84 C 0.32391 0.76202 0.12677 0.0
H85 H 0.33005 0.61777 0.1835 0.0
H86 H 0.28277 0.63056 0.19704 0.0
H87 H 0.32331 0.63591 0.23463 0.0
H88 H 0.29148 0.76085 0.12234 0.0
H89 H 0.33707 0.75835 0.09591 0.0
H90 H 0.33706 0.79038 0.1392 0.0
C91 C 0.12957 0.35971 0.70093 0.0
N92 N 0.15404 0.35211 0.66994 0.0
N93 N 0.14439 0.39265 0.72071 0.0
C94 C 0.09117 0.33485 0.71217 0.0
C95 C 0.17898 0.40474 0.701 0.0
N96 N 0.18528 0.37995 0.67056 0.0
C97 C 0.20684 0.44084 0.71144 0.0
H98 H 0.06702 0.34199 0.69177 0.0
H99 H 0.08288 0.33926 0.7448 0.0
H100 H 0.09333 0.30442 0.70764 0.0
H101 H 0.2324 0.43371 0.72968 0.0
H102 H 0.19246 0.46067 0.73027 0.0
H103 H 0.21849 0.45523 0.68249 0.0
Dy104 Dy 0.05362 0.04002 0.46261 0.0
C105 C 0.99052 0.9781 0.61254 0.0
C106 C 0.09029 0.07783 0.39666 0.0
Dy107 Dy 0.0115 0.01449 0.53993 0.0
O108 O 0.08948 0.04206 0.4041 0.0
O109 O 0.06994 0.09253 0.4243 0.0
O110 O 0.09182 0.99487 0.47295 0.0
O111 O 0.07366 0.02361 0.52402 0.0
C112 C 0.09225 0.99774 0.51309 0.0
C113 C 0.95857 0.04589 0.49554 0.0
O114 O 0.0432 0.07116 0.56349 0.0
O115 O 0.07278 0.09233 0.50142 0.0
O116 O 0.987 0.01298 0.60432 0.0
O117 O 0.00677 0.96331 0.58146 0.0
O118 O 0.95175 0.02926 0.53101 0.0
O119 O 0.99347 0.0437 0.48351 0.0
O120 O 0.009 0.9931 0.43588 0.0
O121 O 1.00157 0.96219 0.49865 0.0
C122 C 0.06486 0.0978 0.54098 0.0
C123 C 0.99752 0.96191 0.45755 0.0
Dy124 Dy 0.54374 0.05142 0.07902 0.0
C125 C 0.42223 0.99838 0.95247 0.0
C126 C 0.60772 0.08444 0.12461 0.0
Dy127 Dy 0.48218 0.02327 0.00772 0.0
O128 O 0.60053 0.04909 0.11348 0.0
O129 O 0.58008 0.10234 0.11034 0.0
O130 O 0.52564 1.00602 0.12634 0.0
O131 O 0.49682 1.00362 0.06872 0.0
C132 C 0.49934 0.98608 0.10238 0.0
C133 C 0.54073 0.08059 0.98854 0.0
O134 O 0.44554 0.05125 0.05185 0.0
O135 O 0.49416 0.081 0.09848 0.0
O136 O 0.43818 0.03358 0.95834 0.0
O137 O 0.43841 0.97661 0.97766 0.0
O138 O 0.52526 0.05447 0.96235 0.0
O139 O 0.52277 0.07594 0.02256 0.0
O140 O 0.57761 0.02393 0.03138 0.0
O141 O 0.52502 0.9835 1.00083 0.0
C142 C 0.45714 0.07441 0.08373 0.0
C143 C 0.56339 0.99377 0.00833 0.0
Dy144 Dy 0.50026 0.49312 0.47614 0.0
C145 C 0.4554 0.61485 0.5656 0.0
C146 C 0.54063 0.43977 0.44397 0.0
Dy147 Dy 0.48602 0.55772 0.52801 0.0
O148 O 0.50237 0.43505 0.44872 0.0
O149 O 0.55613 0.4739 0.45507 0.0
O150 O 0.43482 0.47111 0.47216 0.0
O151 O 0.45899 0.49783 0.52714 0.0
C152 C 0.42709 0.48275 0.50915 0.0
C153 C 0.55944 0.56698 0.4959 0.0
O154 O 0.50142 0.52185 0.58043 0.0
O155 O 0.53005 0.48259 0.53721 0.0
O156 O 0.49286 0.61295 0.56293 0.0
O157 O 0.43441 0.585 0.5486 0.0
O158 O 0.55133 0.57904 0.53241 0.0
O159 O 0.52763 0.55264 0.4775 0.0
O160 O 0.48371 0.52937 0.42367 0.0
O161 O 0.45726 0.57015 0.46734 0.0
C162 C 0.52333 0.49496 0.57495 0.0
C163 C 0.46383 0.55797 0.42944 0.0
Dy164 Dy 1.00264 0.5039 0.03018 0.0
C165 C 0.93294 0.62577 0.95364 0.0
C166 C 0.04777 0.44903 0.0432 0.0
Dy167 Dy 0.97072 0.57083 0.98573 0.0
O168 O 0.01144 0.44726 0.05602 0.0
O169 O 0.05885 0.48026 0.02296 0.0
O170 O 0.99019 0.51897 0.09719 0.0
O171 O 0.97555 0.55199 0.04877 0.0
C172 C 0.97507 0.5491 0.08778 0.0
C173 C 0.01624 0.5324 0.93897 0.0
O174 O 0.02553 0.60189 0.01636 0.0
O175 O 0.05588 0.54854 0.02379 0.0
O176 O 0.95201 0.62825 0.98906 0.0
O177 O 0.93386 0.59307 0.93626 0.0
O178 O 0.01518 0.56843 0.93546 0.0
O179 O 0.99099 0.51815 0.9654 0.0
O180 O 0.94402 0.47393 0.00712 0.0
O181 O 0.91553 0.52812 0.99514 0.0
C182 C 0.05708 0.58572 0.02403 0.0
C183 C 0.91289 0.49071 0.99891 0.0
H184 H 0.25824 0.2536 0.28796 0.0
H185 H 0.12624 0.05197 0.32928 0.0
H186 H 0.21796 0.17626 0.18757 0.0
H187 H 0.1161 0.15362 0.39862 0.0
H188 H 0.17462 0.08995 0.28358 0.0
H189 H 0.2228 0.20809 0.3373 0.0
C190 C 0.2429 0.22647 0.27667 0.0
C191 C 0.24053 0.21849 0.23401 0.0
C192 C 0.16173 0.10371 0.30891 0.0
C193 C 0.20035 0.16682 0.2894 0.0
C194 C 0.1341 0.08226 0.33467 0.0
C195 C 0.11695 0.09998 0.36715 0.0
C196 C 0.17278 0.14271 0.31671 0.0
C197 C 0.12829 0.1391 0.37342 0.0
C198 C 0.22257 0.20077 0.30454 0.0
C199 C 0.22058 0.18305 0.22042 0.0
N200 N 0.15574 0.15919 0.34852 0.0
N201 N 0.20075 0.1585 0.24807 0.0
H202 H 0.35529 0.96446 0.69977 0.0
H203 H 0.38408 0.92621 0.93672 0.0
H204 H 0.29562 0.86345 0.75859 0.0
H205 H 0.40066 0.03996 0.88764 0.0
H206 H 0.34825 0.90325 0.87269 0.0
H207 H 0.36794 0.99468 0.76836 0.0
C208 C 0.34328 0.94942 0.72719 0.0
C209 C 0.32373 0.91193 0.72391 0.0
C210 C 0.35905 0.93335 0.87625 0.0
C211 C 0.33991 0.94501 0.80228 0.0
C212 C 0.37954 0.9464 0.91274 0.0
C213 C 0.39547 0.98493 0.91727 0.0
C214 C 0.35521 0.95895 0.84384 0.0
C215 C 0.38888 0.00997 0.88528 0.0
C216 C 0.35091 0.96634 0.76632 0.0
C217 C 0.31014 0.89274 0.76024 0.0
N218 N 0.36984 0.99646 0.84959 0.0
N219 N 0.3192 0.90918 0.79808 0.0
H220 H 0.59131 0.43259 0.82341 0.0
H221 H 0.56357 0.43455 0.57554 0.0
H222 H 0.62543 0.34794 0.74185 0.0
H223 H 0.51844 0.51306 0.65773 0.0
H224 H 0.5878 0.40355 0.63592 0.0
H225 H 0.56546 0.46342 0.76312 0.0
C226 C 0.59315 0.42057 0.79265 0.0
C227 C 0.61035 0.38786 0.78725 0.0
C228 C 0.57259 0.42754 0.64079 0.0
C229 C 0.58112 0.42266 0.71833 0.0
C230 C 0.5588 0.44539 0.60627 0.0
C231 C 0.5389 0.47655 0.61149 0.0
C232 C 0.56664 0.44096 0.68097 0.0
C233 C 0.53359 0.48915 0.65217 0.0
C234 C 0.57842 0.43802 0.75833 0.0
C235 C 0.61204 0.37301 0.74705 0.0
N236 N 0.54742 0.47135 0.68533 0.0
N237 N 0.59773 0.3906 0.71404 0.0
H238 H 0.9215 0.65315 0.31974 0.0
H239 H 0.93777 0.61161 0.07456 0.0
H240 H 0.86075 0.70877 0.22645 0.0
H241 H 0.98425 0.54779 0.17185 0.0
H242 H 0.91674 0.65372 0.12798 0.0
H243 H 0.95415 0.62223 0.26465 0.0
C244 C 0.91641 0.66002 0.28752 0.0
C245 C 0.88908 0.68404 0.27755 0.0
C246 C 0.93175 0.63062 0.13757 0.0
C247 C 0.9248 0.6475 0.21395 0.0
C248 C 0.94371 0.60656 0.10707 0.0
C249 C 0.9626 0.57595 0.11872 0.0
C250 C 0.93902 0.6242 0.18003 0.0
C251 C 0.96958 0.57084 0.16136 0.0
C252 C 0.93442 0.64187 0.25599 0.0
C253 C 0.88233 0.69103 0.23527 0.0
N254 N 0.95781 0.59454 0.19027 0.0
N255 N 0.89962 0.67253 0.20503 0.0
H256 H 0.26018 0.19454 0.10802 0.0
H257 H 0.46611 0.12267 0.15124 0.0
H258 H 0.33484 0.23115 0.21409 0.0
H259 H 0.38043 0.07394 0.05793 0.0
H260 H 0.41805 0.16091 0.17678 0.0
H261 H 0.30327 0.14832 0.0908 0.0
C262 C 0.28586 0.19267 0.12754 0.0
C263 C 0.29486 0.21692 0.1618 0.0
C264 C 0.40971 0.14156 0.15097 0.0
C265 C 0.34403 0.1643 0.14288 0.0
C266 C 0.43715 0.11975 0.13632 0.0
C267 C 0.42747 0.09525 0.10214 0.0
C268 C 0.3725 0.13905 0.13108 0.0
C269 C 0.38939 0.09253 0.08421 0.0
C270 C 0.31028 0.16625 0.118 0.0
C271 C 0.32757 0.21301 0.18711 0.0
N272 N 0.36349 0.1144 0.09867 0.0
N273 N 0.35141 0.18745 0.17687 0.0
H274 H 0.30023 0.96191 0.64865 0.0
H275 H 0.11472 0.9285 0.50483 0.0
H276 H 0.22781 0.85142 0.64263 0.0
H277 H 0.13083 0.02806 0.58346 0.0
H278 H 0.16223 0.9014 0.5489 0.0
H279 H 0.24382 0.98993 0.62118 0.0
C280 C 0.27208 0.9438 0.6428 0.0
C281 C 0.26848 0.90439 0.64764 0.0
C282 C 0.15504 0.92904 0.55666 0.0
C283 C 0.20503 0.93564 0.61471 0.0
C284 C 0.1282 0.94451 0.53148 0.0
C285 C 0.11903 0.98042 0.54066 0.0
C286 C 0.17373 0.9502 0.59037 0.0
C287 C 0.13716 1.00014 0.57557 0.0
C288 C 0.24012 0.95965 0.6268 0.0
C289 C 0.23169 0.8819 0.63872 0.0
N290 N 0.16431 0.98507 0.59884 0.0
N291 N 0.20165 0.89767 0.6217 0.0
H292 H 0.73018 0.3299 0.88423 0.0
H293 H 0.83971 0.51205 1.002 0.0
H294 H 0.66889 0.41302 0.94026 0.0
H295 H 0.89723 0.41504 0.97859 0.0
H296 H 0.77604 0.47382 0.9835 0.0
H297 H 0.79051 0.35643 0.92378 0.0
C298 C 0.72921 0.35288 0.90607 0.0
C299 C 0.69501 0.36966 0.90905 0.0
C300 C 0.80247 0.46066 0.98292 0.0
C301 C 0.76352 0.40082 0.9531 0.0
C302 C 0.83889 0.48259 0.99328 0.0
C303 C 0.87386 0.4668 0.99152 0.0
C304 C 0.80098 0.42281 0.96995 0.0
C305 C 0.87097 0.42835 0.98032 0.0
C306 C 0.76359 0.36827 0.9283 0.0
C307 C 0.69501 0.39967 0.93718 0.0
N308 N 0.83521 0.40779 0.96933 0.0
N309 N 0.72897 0.41482 0.95754 0.0
H310 H 0.784 0.60287 0.36465 0.0
H311 H 0.61398 0.62859 0.51739 0.0
H312 H 0.74983 0.71312 0.37979 0.0
H313 H 0.58937 0.54013 0.42448 0.0
H314 H 0.67413 0.65524 0.4799 0.0
H315 H 0.72172 0.574 0.39784 0.0
C316 C 0.76328 0.62093 0.37464 0.0
C317 C 0.77206 0.66047 0.36943 0.0
C318 C 0.65561 0.62986 0.46796 0.0
C319 C 0.70206 0.6279 0.40885 0.0
C320 C 0.62144 0.61449 0.48937 0.0
C321 C 0.59672 0.58193 0.47413 0.0
C322 C 0.66585 0.61194 0.43175 0.0
C323 C 0.60775 0.56508 0.43742 0.0
C324 C 0.72799 0.60449 0.39369 0.0
C325 C 0.74456 0.68265 0.38383 0.0
N326 N 0.64185 0.58002 0.41765 0.0
N327 N 0.71109 0.66615 0.40345 0.0
H328 H 0.25497 0.36333 0.12962 0.0
H329 H 0.02957 0.38067 0.08232 0.0
H330 H 0.15968 0.26913 0.14128 0.0
H331 H 0.12716 0.45758 0.03032 0.0
H332 H 0.07659 0.34017 0.10667 0.0
H333 H 0.20868 0.40002 0.09527 0.0
C334 C 0.22431 0.35048 0.12446 0.0
C335 C 0.21066 0.31362 0.13819 0.0
C336 C 0.08763 0.36571 0.08954 0.0
C337 C 0.15783 0.35481 0.09992 0.0
C338 C 0.06084 0.38875 0.0757 0.0
C339 C 0.07465 0.42239 0.05447 0.0
C340 C 0.12844 0.37685 0.08257 0.0
C341 C 0.1154 0.43178 0.04665 0.0
C342 C 0.19798 0.37119 0.10502 0.0
C343 C 0.17083 0.29776 0.13124 0.0
N344 N 0.14099 0.40931 0.06112 0.0
N345 N 0.14562 0.31859 0.11293 0.0
H346 H 0.6252 0.31819 0.94978 0.0
H347 H 0.58138 0.09375 0.9166 0.0
H348 H 0.65496 0.26106 0.83933 0.0
H349 H 0.55745 0.14799 0.03155 0.0
H350 H 0.61632 0.15442 0.8916 0.0
H351 H 0.6088 0.25637 0.98454 0.0
C352 C 0.6292 0.29256 0.93336 0.0
C353 C 0.64098 0.29429 0.89172 0.0
C354 C 0.60388 0.15312 0.9225 0.0
C355 C 0.62179 0.22385 0.93049 0.0
C356 C 0.58392 0.11844 0.93676 0.0
C357 C 0.56622 0.11603 0.97595 0.0
C358 C 0.6058 0.18581 0.94744 0.0
C359 C 0.57057 0.14878 1.00099 0.0
C360 C 0.6196 0.25735 0.95295 0.0
C361 C 0.6455 0.26056 0.87137 0.0
N362 N 0.5895 0.1825 0.98607 0.0
N363 N 0.63542 0.22667 0.89075 0.0
H364 H 0.93063 0.72341 0.39156 0.0
H365 H 0.96866 0.95119 0.37708 0.0
H366 H 0.86929 0.78367 0.30306 0.0
H367 H 0.99153 0.88925 0.48743 0.0
H368 H 0.94362 0.89062 0.34188 0.0
H369 H 0.96679 0.7843 0.4178 0.0
C370 C 0.92625 0.7495 0.3764 0.0
C371 C 0.89754 0.7486 0.34467 0.0
C372 C 0.95426 0.89035 0.37375 0.0
C373 C 0.93765 0.8185 0.37525 0.0
C374 C 0.96854 0.92493 0.39392 0.0
C375 C 0.98197 0.9255 0.43551 0.0
C376 C 0.95409 0.85591 0.39495 0.0
C377 C 0.98114 0.89039 0.45557 0.0
C378 C 0.94621 0.78427 0.39188 0.0
C379 C 0.8918 0.78325 0.32698 0.0
N380 N 0.96762 0.85718 0.43513 0.0
N381 N 0.91135 0.81681 0.3427 0.0
H382 H 0.30455 0.77646 0.63541 0.0
H383 H 0.49735 0.68256 0.59101 0.0
H384 H 0.42227 0.84097 0.62834 0.0
H385 H 0.37776 0.62322 0.57311 0.0
H386 H 0.47081 0.73972 0.61049 0.0
H387 H 0.33099 0.71884 0.61692 0.0
C388 C 0.33599 0.77831 0.62962 0.0
C389 C 0.36143 0.81312 0.63331 0.0
C390 C 0.45036 0.71418 0.60245 0.0
C391 C 0.39205 0.74773 0.613 0.0
C392 C 0.46546 0.68153 0.59159 0.0
C393 C 0.4396 0.64826 0.58059 0.0
C394 C 0.4091 0.71339 0.60251 0.0
C395 C 0.39862 0.64838 0.58152 0.0
C396 C 0.35111 0.74556 0.61932 0.0
C397 C 0.40198 0.81438 0.62622 0.0
N398 N 0.38458 0.68051 0.5923 0.0
N399 N 0.41615 0.78205 0.61647 0.0
H400 H 0.7948 0.85142 0.72689 0.0
H401 H 0.99251 0.90412 0.63352 0.0
H402 H 0.87526 0.87532 0.83133 0.0
H403 H 0.94142 1.00248 0.66861 0.0
H404 H 0.94926 0.86618 0.68425 0.0
H405 H 0.84869 0.87843 0.68008 0.0
C406 C 0.82416 0.86145 0.73961 0.0
C407 C 0.8311 0.86112 0.78259 0.0
C408 C 0.94833 0.89623 0.68103 0.0
C409 C 0.89189 0.89142 0.73013 0.0
C410 C 0.97284 0.91782 0.65243 0.0
C411 C 0.97043 0.95639 0.6471 0.0
C412 C 0.92156 0.91359 0.70392 0.0
C413 C 0.94433 0.97288 0.67204 0.0
C414 C 0.85461 0.87663 0.71317 0.0
C415 C 0.8693 0.87468 0.79817 0.0
N416 N 0.92045 0.95121 0.69915 0.0
N417 N 0.89841 0.89001 0.77188 0.0
H418 H 0.70779 0.12144 0.36189 0.0
H419 H 0.63509 0.15883 0.14297 0.0
H420 H 0.75768 0.22307 0.29747 0.0
H421 H 0.65021 0.0447 0.17507 0.0
H422 H 0.6809 0.18296 0.19982 0.0
H423 H 0.68928 0.09025 0.29452 0.0
C424 C 0.71656 0.13637 0.33334 0.0
C425 C 0.73421 0.17454 0.33459 0.0
C426 C 0.67484 0.15268 0.19379 0.0
C427 C 0.71176 0.14039 0.25841 0.0
C428 C 0.6486 0.13899 0.1616 0.0
C429 C 0.63891 0.09987 0.15467 0.0
C430 C 0.69047 0.12691 0.2197 0.0
C431 C 0.65703 0.07515 0.17959 0.0
C432 C 0.7057 0.11889 0.29505 0.0
C433 C 0.7443 0.19342 0.29716 0.0
N434 N 0.68136 0.08903 0.2117 0.0
N435 N 0.73183 0.17655 0.26043 0.0
H436 H 0.41092 0.64436 0.18577 0.0
H437 H 0.42798 0.62107 0.43174 0.0
H438 H 0.37955 0.72456 0.27434 0.0
H439 H 0.47435 0.54696 0.34522 0.0
H440 H 0.41296 0.66038 0.374 0.0
H441 H 0.43973 0.61113 0.24246 0.0
C442 C 0.41168 0.65578 0.21709 0.0
C443 C 0.39356 0.68749 0.22554 0.0
C444 C 0.42649 0.6356 0.36748 0.0
C445 C 0.42464 0.64891 0.29075 0.0
C446 C 0.43488 0.61282 0.40054 0.0
C447 C 0.45234 0.58031 0.39351 0.0
C448 C 0.43527 0.62595 0.32666 0.0
C449 C 0.46068 0.57154 0.35221 0.0
C450 C 0.42753 0.63657 0.24949 0.0
C451 C 0.39406 0.7007 0.26662 0.0
N452 N 0.45192 0.59413 0.32034 0.0
N453 N 0.40877 0.68105 0.29779 0.0
H454 H 0.13074 0.36915 0.80013 0.0
H455 H 0.05392 0.55979 0.86885 0.0
H456 H 0.11699 0.45927 0.71533 0.0
H457 H 0.02447 0.45632 0.93885 0.0
H458 H 0.08509 0.52529 0.81642 0.0
H459 H 0.09913 0.402 0.85503 0.0
C460 C 0.12093 0.39586 0.79323 0.0
C461 C 0.12626 0.41163 0.75334 0.0
C462 C 0.07186 0.51002 0.84319 0.0
C463 C 0.09094 0.4496 0.81574 0.0
C464 C 0.05413 0.52975 0.87332 0.0
C465 C 0.03635 0.51092 0.9083 0.0
C466 C 0.07252 0.47107 0.84808 0.0
C467 C 0.03769 0.47193 0.9123 0.0
C468 C 0.10297 0.41454 0.82441 0.0
C469 C 0.11347 0.44638 0.74579 0.0
N470 N 0.05561 0.45328 0.88261 0.0
N471 N 0.09665 0.46429 0.7767 0.0
H472 H 0.6677 0.83894 0.85344 0.0
H473 H 0.64457 0.00994 0.00822 0.0
H474 H 0.765 0.92396 0.89335 0.0
H475 H 0.54554 0.92983 0.96037 0.0
H476 H 0.68963 0.9769 0.96926 0.0
H477 H 0.62221 0.87056 0.89459 0.0
C478 C 0.67909 0.86455 0.87076 0.0
C479 C 0.71947 0.87945 0.87015 0.0
C480 C 0.65803 0.96653 0.96738 0.0
C481 C 0.66873 0.9153 0.91728 0.0
C482 C 0.6323 0.98529 0.98973 0.0
C483 C 0.59123 0.97275 0.98735 0.0
C484 C 0.64253 0.93502 0.94257 0.0
C485 C 0.57699 0.94064 0.96294 0.0
C486 C 0.65346 0.88248 0.89425 0.0
C487 C 0.73369 0.91225 0.89312 0.0
N488 N 0.60263 0.92294 0.94138 0.0
N489 N 0.70828 0.92919 0.91591 0.0
H490 H 0.81688 0.19013 0.3561 0.0
H491 H 0.90229 0.07284 0.5381 0.0
H492 H 0.76089 0.16129 0.47363 0.0
H493 H 0.95238 0.07567 0.41525 0.0
H494 H 0.8546 0.11096 0.51411 0.0
H495 H 0.86914 0.15251 0.37515 0.0
C496 C 0.81559 0.17578 0.3858 0.0
C497 C 0.78491 0.17914 0.41369 0.0
C498 C 0.87563 0.10323 0.49197 0.0
C499 C 0.84434 0.13673 0.43574 0.0
C500 C 0.9031 0.08128 0.50571 0.0
C501 C 0.93112 0.07043 0.47853 0.0
C502 C 0.87541 0.11464 0.45029 0.0
C503 C 0.93109 0.08322 0.43717 0.0
C504 C 0.8454 0.15451 0.39668 0.0
C505 C 0.78451 0.16018 0.45174 0.0
N506 N 0.90334 0.10457 0.42411 0.0
N507 N 0.81373 0.14006 0.46163 0.0
H508 H 0.23836 0.71844 0.17391 0.0
H509 H 0.13018 0.57127 0.00586 0.0
H510 H 0.29868 0.6473 0.09754 0.0
H511 H 0.06994 0.65139 0.06986 0.0
H512 H 0.19295 0.60212 0.03593 0.0
H513 H 0.17641 0.69646 0.1348 0.0
C514 C 0.23818 0.6981 0.14881 0.0
C515 C 0.27284 0.68412 0.13873 0.0
C516 C 0.16619 0.61339 0.04307 0.0
C517 C 0.20335 0.6594 0.09388 0.0
C518 C 0.1304 0.59585 0.02581 0.0
C519 C 0.09507 0.60885 0.03565 0.0
C520 C 0.16654 0.64375 0.07099 0.0
C521 C 0.09676 0.64079 0.06144 0.0
C522 C 0.2032 0.68579 0.1264 0.0
C523 C 0.27204 0.65812 0.10611 0.0
N524 N 0.132 0.65691 0.07884 0.0
N525 N 0.23771 0.64647 0.08479 0.0
H526 H 0.18594 0.38964 0.58672 0.0
H527 H 0.41596 0.47963 0.59342 0.0
H528 H 0.26189 0.38354 0.69337 0.0
H529 H 0.35496 0.44892 0.47694 0.0
H530 H 0.35717 0.44926 0.6306 0.0
H531 H 0.24509 0.41341 0.54499 0.0
C532 C 0.21518 0.39234 0.60094 0.0
C533 C 0.21922 0.38465 0.64343 0.0
C534 C 0.35656 0.44912 0.59689 0.0
C535 C 0.28658 0.41308 0.59676 0.0
C536 C 0.39007 0.46675 0.57563 0.0
C537 C 0.39044 0.46683 0.53195 0.0
C538 C 0.32271 0.43183 0.57449 0.0
C539 C 0.35596 0.44948 0.51063 0.0
C540 C 0.24884 0.40629 0.57737 0.0
C541 C 0.25764 0.3893 0.66073 0.0
N542 N 0.32344 0.43285 0.53205 0.0
N543 N 0.28967 0.40369 0.63761 0.0
H544 H 0.84685 0.83523 0.9057 0.0
H545 H 0.8939 0.62441 0.87907 0.0
H546 H 0.80694 0.76396 0.80044 0.0
H547 H 0.93318 0.6971 0.98403 0.0
H548 H 0.86643 0.67659 0.84665 0.0
H549 H 0.88513 0.7873 0.93096 0.0
C550 C 0.84704 0.80959 0.88762 0.0
C551 C 0.82409 0.80304 0.85123 0.0
C552 C 0.88116 0.68118 0.87669 0.0
C553 C 0.8665 0.74787 0.87997 0.0
C554 C 0.89665 0.65139 0.89527 0.0
C555 C 0.91549 0.65655 0.93434 0.0
C556 C 0.88461 0.71628 0.89743 0.0
C557 C 0.91858 0.69199 0.95397 0.0
C558 C 0.86852 0.7822 0.90202 0.0
C559 C 0.82466 0.76966 0.8286 0.0
N560 N 0.90318 0.72052 0.93533 0.0
N561 N 0.84519 0.74292 0.84362 0.0
H562 H 0.38873 0.78743 0.2333 0.0
H563 H 0.4678 0.92694 0.05065 0.0
H564 H 0.41616 0.74676 0.11283 0.0
H565 H 0.48724 0.95853 0.17982 0.0
H566 H 0.44362 0.86115 0.0723 0.0
H567 H 0.42395 0.85074 0.21551 0.0
C568 C 0.40406 0.79153 0.20395 0.0
C569 C 0.40039 0.76204 0.17472 0.0
C570 C 0.45315 0.88262 0.09581 0.0
C571 C 0.43809 0.83436 0.1529 0.0
C572 C 0.46629 0.92011 0.08348 0.0
C573 C 0.47914 0.94798 0.11357 0.0
C574 C 0.45248 0.87342 0.13843 0.0
C575 C 0.4774 0.93774 0.15571 0.0
C576 C 0.42335 0.82772 0.19336 0.0
C577 C 0.41924 0.76889 0.13632 0.0
N578 N 0.46417 0.90134 0.16693 0.0
N579 N 0.43649 0.8046 0.12602 0.0
H580 H 0.20334 0.3006 0.65605 0.0
H581 H 0.02869 0.13882 0.59652 0.0
H582 H 0.0887 0.32783 0.62296 0.0
H583 H 0.13715 0.14205 0.52827 0.0
H584 H 0.05364 0.20307 0.62328 0.0
H585 H 0.18413 0.23773 0.62234 0.0
C586 C 0.17453 0.29365 0.64096 0.0
C587 C 0.14731 0.31917 0.64277 0.0
C588 C 0.07201 0.18948 0.60266 0.0
C589 C 0.12468 0.24728 0.60625 0.0
C590 C 0.05795 0.15282 0.58768 0.0
C591 C 0.08088 0.13514 0.56016 0.0
C592 C 0.10975 0.20812 0.59113 0.0
C593 C 0.11851 0.15479 0.54934 0.0
C594 C 0.16347 0.25778 0.6222 0.0
C595 C 0.11016 0.30862 0.62307 0.0
N596 N 0.13201 0.19011 0.56517 0.0
N597 N 0.09956 0.27324 0.60659 0.0
H598 H 0.73398 0.31358 0.41135 0.0
H599 H 0.51515 0.36294 0.44112 0.0
H600 H 0.63266 0.22944 0.43893 0.0
H601 H 0.62006 0.44779 0.43159 0.0
H602 H 0.55705 0.31326 0.43794 0.0
H603 H 0.6928 0.36347 0.4191 0.0
C604 C 0.70322 0.30593 0.42022 0.0
C605 C 0.68657 0.26778 0.42515 0.0
C606 C 0.57087 0.34276 0.43634 0.0
C607 C 0.63888 0.32398 0.43244 0.0
C608 C 0.54693 0.37103 0.4377 0.0
C609 C 0.56423 0.4094 0.43636 0.0
C610 C 0.61231 0.35305 0.43345 0.0
C611 C 0.60556 0.41848 0.43254 0.0
C612 C 0.67958 0.33418 0.42412 0.0
C613 C 0.64638 0.25878 0.43538 0.0
N614 N 0.62819 0.39053 0.43125 0.0
N615 N 0.62372 0.28667 0.43837 0.0
loop_
_geom_bond_atom_site_label_1
_geom_bond_atom_site_label_2
_geom_bond_distance
_geom_bond_site_symmetry_2
_ccdc_geom_bond_type
C0 N1 1.317 . S
C0 N2 1.348 . S
C0 C3 1.485 . S
N1 C0 1.317 . S
N1 N5 1.370 . S
N2 C0 1.348 . S
N2 C4 1.346 . S
C3 C0 1.485 . S
C3 H7 0.960 . S
C3 H8 0.961 . S
C3 H9 0.960 . S
C4 N2 1.346 . S
C4 N5 1.307 . S
C4 C6 1.486 . S
N5 N1 1.370 . S
N5 C4 1.307 . S
C6 C4 1.486 . S
C6 H10 0.960 . S
C6 H11 0.960 . S
C6 H12 0.959 . S
H7 C3 0.960 . S
H8 C3 0.961 . S
H9 C3 0.960 . S
H10 C6 0.960 . S
H11 C6 0.960 . S
H12 C6 0.959 . S
C13 N14 1.317 . S
C13 N15 1.348 . S
C13 C16 1.485 . S
N14 C13 1.317 . S
N14 N18 1.370 . S
N15 C13 1.348 . S
N15 C17 1.346 . S
C16 C13 1.485 . S
C16 H20 0.960 . S
C16 H21 0.961 . S
C16 H22 0.960 . S
C17 N15 1.346 . S
C17 N18 1.307 . S
C17 C19 1.486 . S
N18 N14 1.370 . S
N18 C17 1.307 . S
C19 C17 1.486 . S
C19 H23 0.960 . S
C19 H24 0.960 . S
C19 H25 0.959 . S
H20 C16 0.960 . S
H21 C16 0.961 . S
H22 C16 0.960 . S
H23 C19 0.960 . S
H24 C19 0.960 . S
H25 C19 0.959 . S
C26 N27 1.317 . S
C26 N28 1.348 . S
C26 C29 1.485 . S
N27 C26 1.317 . S
N27 N31 1.370 . S
N28 C26 1.348 . S
N28 C30 1.346 . S
C29 C26 1.485 . S
C29 H33 0.960 . S
C29 H34 0.961 . S
C29 H35 0.960 . S
C30 N28 1.346 . S
C30 N31 1.307 . S
C30 C32 1.486 . S
N31 N27 1.370 . S
N31 C30 1.307 . S
C32 C30 1.486 . S
C32 H36 0.960 . S
C32 H37 0.960 . S
C32 H38 0.959 . S
H33 C29 0.960 . S
H34 C29 0.961 . S
H35 C29 0.960 . S
H36 C32 0.960 . S
H37 C32 0.960 . S
H38 C32 0.959 . S
C39 N40 1.317 . S
C39 N41 1.348 . S
C39 C42 1.485 . S
N40 C39 1.317 . S
N40 N44 1.370 . S
N41 C39 1.348 . S
N41 C43 1.346 . S
C42 C39 1.485 . S
C42 H46 0.960 . S
C42 H47 0.961 . S
C42 H48 0.960 . S
C43 N41 1.346 . S
C43 N44 1.307 . S
C43 C45 1.486 . S
N44 N40 1.370 . S
N44 C43 1.307 . S
C45 C43 1.486 . S
C45 H49 0.960 . S
C45 H50 0.960 . S
C45 H51 0.959 . S
H46 C42 0.960 . S
H47 C42 0.961 . S
H48 C42 0.960 . S
H49 C45 0.960 . S
H50 C45 0.960 . S
H51 C45 0.959 . S
C52 N53 1.317 . S
C52 N54 1.348 . S
C52 C55 1.485 . S
N53 C52 1.317 . S
N53 N57 1.370 . S
N54 C52 1.348 . S
N54 C56 1.346 . S
C55 C52 1.485 . S
C55 H59 0.960 . S
C55 H60 0.961 . S
C55 H61 0.960 . S
C56 N54 1.346 . S
C56 N57 1.307 . S
C56 C58 1.486 . S
N57 N53 1.370 . S
N57 C56 1.307 . S
C58 C56 1.486 . S
C58 H62 0.960 . S
C58 H63 0.960 . S
C58 H64 0.959 . S
H59 C55 0.960 . S
H60 C55 0.961 . S
H61 C55 0.960 . S
H62 C58 0.960 . S
H63 C58 0.960 . S
H64 C58 0.959 . S
C65 N66 1.317 . S
C65 N67 1.348 . S
C65 C68 1.485 . S
N66 C65 1.317 . S
N66 N70 1.370 . S
N67 C65 1.348 . S
N67 C69 1.346 . S
C68 C65 1.485 . S
C68 H72 0.960 . S
C68 H73 0.961 . S
C68 H74 0.960 . S
C69 N67 1.346 . S
C69 N70 1.307 . S
C69 C71 1.486 . S
N70 N66 1.370 . S
N70 C69 1.307 . S
C71 C69 1.486 . S
C71 H75 0.960 . S
C71 H76 0.960 . S
C71 H77 0.959 . S
H72 C68 0.960 . S
H73 C68 0.961 . S
H74 C68 0.960 . S
H75 C71 0.960 . S
H76 C71 0.960 . S
H77 C71 0.959 . S
C78 N79 1.317 . S
C78 N80 1.348 . S
C78 C81 1.485 . S
N79 C78 1.317 . S
N79 N83 1.370 . S
N80 C78 1.348 . S
N80 C82 1.346 . S
C81 C78 1.485 . S
C81 H85 0.960 . S
C81 H86 0.961 . S
C81 H87 0.960 . S
C82 N80 1.346 . S
C82 N83 1.307 . S
C82 C84 1.486 . S
N83 N79 1.370 . S
N83 C82 1.307 . S
C84 C82 1.486 . S
C84 H88 0.960 . S
C84 H89 0.960 . S
C84 H90 0.959 . S
H85 C81 0.960 . S
H86 C81 0.961 . S
H87 C81 0.960 . S
H88 C84 0.960 . S
H89 C84 0.960 . S
H90 C84 0.959 . S
C91 N92 1.317 . S
C91 N93 1.348 . S
C91 C94 1.485 . S
N92 C91 1.317 . S
N92 N96 1.370 . S
N93 C91 1.348 . S
N93 C95 1.346 . S
C94 C91 1.485 . S
C94 H98 0.960 . S
C94 H99 0.961 . S
C94 H100 0.960 . S
C95 N93 1.346 . S
C95 N96 1.307 . S
C95 C97 1.486 . S
N96 N92 1.370 . S
N96 C95 1.307 . S
C97 C95 1.486 . S
C97 H101 0.960 . S
C97 H102 0.960 . S
C97 H103 0.959 . S
H98 C94 0.960 . S
H99 C94 0.961 . S
H100 C94 0.960 . S
H101 C97 0.960 . S
H102 C97 0.960 . S
H103 C97 0.959 . S
Dy104 O108 2.398 . S
Dy104 O109 2.491 . S
Dy104 O110 2.404 1_545 S
Dy104 O111 2.664 1_545 S
Dy104 O115 2.326 . S
Dy104 O119 2.310 . S
Dy104 O120 2.351 1_545 S
C105 O116 1.185 . S
C105 O117 1.355 1_655 S
C106 O108 1.185 . S
C106 O109 1.355 . S
Dy107 O111 2.310 1_545 S
Dy107 O114 2.351 . S
Dy107 O116 2.398 1_445 S
Dy107 O117 2.491 1_545 S
Dy107 O118 2.403 1_455 S
Dy107 O119 2.664 . S
Dy107 O121 2.326 1_445 S
O108 Dy104 2.398 . S
O108 C106 1.185 . S
O109 Dy104 2.491 . S
O109 C106 1.355 . S
O110 Dy104 2.404 1_565 S
O110 C112 1.254 . S
O111 Dy104 2.664 1_565 S
O111 Dy107 2.310 1_565 S
O111 C112 1.268 . S
C112 O110 1.254 . S
C112 O111 1.268 . S
C113 O118 1.254 . S
C113 O119 1.268 1_655 S
O114 Dy107 2.351 . S
O114 C122 1.249 . S
O115 Dy104 2.326 . S
O115 C122 1.267 . S
O116 C105 1.185 . S
O116 Dy107 2.398 1_665 S
O117 C105 1.355 1_455 S
O117 Dy107 2.491 1_565 S
O118 Dy107 2.403 1_655 S
O118 C113 1.254 . S
O119 Dy104 2.310 . S
O119 Dy107 2.664 . S
O119 C113 1.268 1_455 S
O120 Dy104 2.351 1_565 S
O120 C123 1.234 1_455 S
O121 Dy107 2.326 1_665 S
O121 C123 1.280 . S
C122 O114 1.249 . S
C122 O115 1.267 . S
C123 O120 1.234 1_655 S
C123 O121 1.280 . S
Dy124 O128 2.398 . S
Dy124 O129 2.491 . S
Dy124 O130 2.403 1_545 S
Dy124 O131 2.664 1_545 S
Dy124 O135 2.326 . S
Dy124 O139 2.310 . S
Dy124 O140 2.351 1_545 S
C125 O136 1.185 1_565 S
C125 O137 1.355 . S
C126 O128 1.185 . S
C126 O129 1.355 . S
Dy127 O131 2.310 1_546 S
Dy127 O134 2.351 1_556 S
Dy127 O136 2.398 . S
Dy127 O137 2.491 1_545 S
Dy127 O138 2.403 . S
Dy127 O139 2.664 1_556 S
Dy127 O141 2.326 . S
O128 Dy124 2.398 . S
O128 C126 1.185 . S
O129 Dy124 2.491 . S
O129 C126 1.355 . S
O130 Dy124 2.403 1_565 S
O130 C132 1.254 . S
O131 Dy124 2.664 1_565 S
O131 Dy127 2.310 1_564 S
O131 C132 1.268 . S
C132 O130 1.254 . S
C132 O131 1.268 . S
C133 O138 1.254 . S
C133 O139 1.268 1_556 S
O134 Dy127 2.351 1_554 S
O134 C142 1.249 . S
O135 Dy124 2.326 . S
O135 C142 1.267 . S
O136 C125 1.185 1_545 S
O136 Dy127 2.398 . S
O137 C125 1.355 . S
O137 Dy127 2.491 1_565 S
O138 Dy127 2.403 . S
O138 C133 1.254 . S
O139 Dy124 2.310 . S
O139 Dy127 2.664 1_554 S
O139 C133 1.268 1_554 S
O140 Dy124 2.351 1_565 S
O140 C143 1.249 1_554 S
O141 Dy127 2.326 . S
O141 C143 1.267 1_545 S
C142 O134 1.249 . S
C142 O135 1.267 . S
C143 O140 1.249 1_556 S
C143 O141 1.267 1_565 S
Dy144 O148 2.398 . S
Dy144 O149 2.491 . S
Dy144 O150 2.403 . S
Dy144 O151 2.664 . S
Dy144 O155 2.326 . S
Dy144 O159 2.310 . S
Dy144 O160 2.351 . S
C145 O156 1.185 . S
C145 O157 1.355 . S
C146 O148 1.185 . S
C146 O149 1.355 . S
Dy147 O151 2.310 . S
Dy147 O154 2.351 . S
Dy147 O156 2.398 . S
Dy147 O157 2.491 . S
Dy147 O158 2.403 . S
Dy147 O159 2.664 . S
Dy147 O161 2.326 . S
O148 Dy144 2.398 . S
O148 C146 1.185 . S
O149 Dy144 2.491 . S
O149 C146 1.355 . S
O150 Dy144 2.403 . S
O150 C152 1.254 . S
O151 Dy144 2.664 . S
O151 Dy147 2.310 . S
O151 C152 1.268 . S
C152 O150 1.254 . S
C152 O151 1.268 . S
C153 O158 1.254 . S
C153 O159 1.268 . S
O154 Dy147 2.351 . S
O154 C162 1.249 . S
O155 Dy144 2.326 . S
O155 C162 1.267 . S
O156 C145 1.185 . S
O156 Dy147 2.398 . S
O157 C145 1.355 . S
O157 Dy147 2.491 . S
O158 Dy147 2.403 . S
O158 C153 1.254 . S
O159 Dy144 2.310 . S
O159 Dy147 2.664 . S
O159 C153 1.268 . S
O160 Dy144 2.351 . S
O160 C163 1.249 . S
O161 Dy147 2.326 . S
O161 C163 1.267 . S
C162 O154 1.249 . S
C162 O155 1.267 . S
C163 O160 1.249 . S
C163 O161 1.267 . S
Dy164 O168 2.398 . S
Dy164 O169 2.491 . S
Dy164 O170 2.403 1_455 S
Dy164 O171 2.664 1_455 S
Dy164 O175 2.326 . S
Dy164 O179 2.310 1_554 S
Dy164 O180 2.351 1_454 S
C165 O176 1.185 . S
C165 O177 1.355 . S
C166 O168 1.185 . S
C166 O169 1.355 . S
Dy167 O171 2.310 1_556 S
Dy167 O174 2.351 1_656 S
Dy167 O176 2.398 . S
Dy167 O177 2.491 . S
Dy167 O178 2.403 1_655 S
Dy167 O179 2.664 1_655 S
Dy167 O181 2.326 . S
O168 Dy164 2.398 . S
O168 C166 1.185 . S
O169 Dy164 2.491 . S
O169 C166 1.355 . S
O170 Dy164 2.403 1_655 S
O170 C172 1.254 . S
O171 Dy164 2.664 1_655 S
O171 Dy167 2.310 1_554 S
O171 C172 1.268 . S
C172 O170 1.254 . S
C172 O171 1.268 . S
C173 O178 1.254 . S
C173 O179 1.268 . S
O174 Dy167 2.351 1_454 S
O174 C182 1.249 . S
O175 Dy164 2.326 . S
O175 C182 1.267 . S
O176 C165 1.185 . S
O176 Dy167 2.398 . S
O177 C165 1.355 . S
O177 Dy167 2.491 . S
O178 Dy167 2.403 1_455 S
O178 C173 1.254 . S
O179 Dy164 2.310 1_556 S
O179 Dy167 2.664 1_455 S
O179 C173 1.268 . S
O180 Dy164 2.351 1_656 S
O180 C183 1.249 . S
O181 Dy167 2.326 . S
O181 C183 1.267 . S
C182 O174 1.249 . S
C182 O175 1.267 . S
C183 O180 1.249 . S
C183 O181 1.267 . S
H184 C190 0.930 . S
H185 C194 0.930 . S
H186 C199 0.929 . S
H187 C197 0.929 . S
H188 C192 0.929 . S
H189 C198 0.929 . S
C190 H184 0.930 . S
C190 C191 1.367 . S
C190 C198 1.378 . S
C191 C190 1.367 . S
C191 C199 1.433 . S
C192 H188 0.929 . S
C192 C194 1.378 . S
C192 C196 1.350 . S
C193 C196 1.463 . S
C193 C198 1.350 . S
C193 N201 1.427 . S
C194 H185 0.930 . S
C194 C192 1.378 . S
C194 C195 1.367 . S
C195 C194 1.367 . S
C195 C197 1.433 . S
C196 C192 1.350 . S
C196 C193 1.463 . S
C196 N200 1.427 . S
C197 H187 0.929 . S
C197 C195 1.433 . S
C197 N200 1.384 . S
C198 H189 0.929 . S
C198 C190 1.378 . S
C198 C193 1.350 . S
C199 H186 0.929 . S
C199 C191 1.433 . S
C199 N201 1.384 . S
N200 C196 1.427 . S
N200 C197 1.384 . S
N201 C193 1.427 . S
N201 C199 1.384 . S
H202 C208 0.930 . S
H203 C212 0.930 . S
H204 C217 0.929 . S
H205 C215 0.929 1_545 S
H206 C210 0.929 . S
H207 C216 0.929 . S
C208 H202 0.930 . S
C208 C209 1.367 . S
C208 C216 1.378 . S
C209 C208 1.367 . S
C209 C217 1.433 . S
C210 H206 0.929 . S
C210 C212 1.378 . S
C210 C214 1.350 . S
C211 C214 1.463 . S
C211 C216 1.350 . S
C211 N219 1.427 . S
C212 H203 0.930 . S
C212 C210 1.378 . S
C212 C213 1.367 . S
C213 C212 1.367 . S
C213 C215 1.433 . S
C214 C210 1.350 . S
C214 C211 1.463 . S
C214 N218 1.427 . S
C215 H205 0.929 1_565 S
C215 C213 1.433 . S
C215 N218 1.384 . S
C216 H207 0.929 . S
C216 C208 1.378 . S
C216 C211 1.350 . S
C217 H204 0.929 . S
C217 C209 1.433 . S
C217 N219 1.384 . S
N218 C214 1.427 . S
N218 C215 1.384 . S
N219 C211 1.427 . S
N219 C217 1.384 . S
H220 C226 0.930 . S
H221 C230 0.930 . S
H222 C235 0.929 . S
H223 C233 0.929 . S
H224 C228 0.929 . S
H225 C234 0.929 . S
C226 H220 0.930 . S
C226 C227 1.367 . S
C226 C234 1.378 . S
C227 C226 1.367 . S
C227 C235 1.433 . S
C228 H224 0.929 . S
C228 C230 1.378 . S
C228 C232 1.350 . S
C229 C232 1.463 . S
C229 C234 1.350 . S
C229 N237 1.427 . S
C230 H221 0.930 . S
C230 C228 1.378 . S
C230 C231 1.367 . S
C231 C230 1.367 . S
C231 C233 1.433 . S
C232 C228 1.350 . S
C232 C229 1.463 . S
C232 N236 1.427 . S
C233 H223 0.929 . S
C233 C231 1.433 . S
C233 N236 1.384 . S
C234 H225 0.929 . S
C234 C226 1.378 . S
C234 C229 1.350 . S
C235 H222 0.929 . S
C235 C227 1.433 . S
C235 N237 1.384 . S
N236 C232 1.427 . S
N236 C233 1.384 . S
N237 C229 1.427 . S
N237 C235 1.384 . S
H238 C244 0.930 . S
H239 C248 0.930 . S
H240 C253 0.929 . S
H241 C251 0.929 . S
H242 C246 0.929 . S
H243 C252 0.929 . S
C244 H238 0.930 . S
C244 C245 1.367 . S
C244 C252 1.378 . S
C245 C244 1.367 . S
C245 C253 1.433 . S
C246 H242 0.929 . S
C246 C248 1.378 . S
C246 C250 1.350 . S
C247 C250 1.463 . S
C247 C252 1.350 . S
C247 N255 1.427 . S
C248 H239 0.930 . S
C248 C246 1.378 . S
C248 C249 1.367 . S
C249 C248 1.367 . S
C249 C251 1.433 . S
C250 C246 1.350 . S
C250 C247 1.463 . S
C250 N254 1.427 . S
C251 H241 0.929 . S
C251 C249 1.433 . S
C251 N254 1.384 . S
C252 H243 0.929 . S
C252 C244 1.378 . S
C252 C247 1.350 . S
C253 H240 0.929 . S
C253 C245 1.433 . S
C253 N255 1.384 . S
N254 C250 1.427 . S
N254 C251 1.384 . S
N255 C247 1.427 . S
N255 C253 1.384 . S
H256 C262 0.930 . S
H257 C266 0.930 . S
H258 C271 0.929 . S
H259 C269 0.929 . S
H260 C264 0.929 . S
H261 C270 0.929 . S
C262 H256 0.930 . S
C262 C263 1.367 . S
C262 C270 1.378 . S
C263 C262 1.367 . S
C263 C271 1.433 . S
C264 H260 0.929 . S
C264 C266 1.378 . S
C264 C268 1.350 . S
C265 C268 1.463 . S
C265 C270 1.350 . S
C265 N273 1.427 . S
C266 H257 0.930 . S
C266 C264 1.378 . S
C266 C267 1.367 . S
C267 C266 1.367 . S
C267 C269 1.433 . S
C268 C264 1.350 . S
C268 C265 1.463 . S
C268 N272 1.427 . S
C269 H259 0.929 . S
C269 C267 1.433 . S
C269 N272 1.384 . S
C270 H261 0.929 . S
C270 C262 1.378 . S
C270 C265 1.350 . S
C271 H258 0.929 . S
C271 C263 1.433 . S
C271 N273 1.384 . S
N272 C268 1.427 . S
N272 C269 1.384 . S
N273 C265 1.427 . S
N273 C271 1.384 . S
H274 C280 0.930 . S
H275 C284 0.930 . S
H276 C289 0.929 . S
H277 C287 0.929 1_545 S
H278 C282 0.929 . S
H279 C288 0.929 . S
C280 H274 0.930 . S
C280 C281 1.367 . S
C280 C288 1.378 . S
C281 C280 1.367 . S
C281 C289 1.433 . S
C282 H278 0.929 . S
C282 C284 1.378 . S
C282 C286 1.350 . S
C283 C286 1.463 . S
C283 C288 1.350 . S
C283 N291 1.427 . S
C284 H275 0.930 . S
C284 C282 1.378 . S
C284 C285 1.367 . S
C285 C284 1.367 . S
C285 C287 1.433 . S
C286 C282 1.350 . S
C286 C283 1.463 . S
C286 N290 1.427 . S
C287 H277 0.929 1_565 S
C287 C285 1.433 . S
C287 N290 1.384 . S
C288 H279 0.929 . S
C288 C280 1.378 . S
C288 C283 1.350 . S
C289 H276 0.929 . S
C289 C281 1.433 . S
C289 N291 1.384 . S
N290 C286 1.427 . S
N290 C287 1.384 . S
N291 C283 1.427 . S
N291 C289 1.384 . S
H292 C298 0.930 . S
H293 C302 0.930 . S
H294 C307 0.929 . S
H295 C305 0.929 . S
H296 C300 0.929 . S
H297 C306 0.929 . S
C298 H292 0.930 . S
C298 C299 1.367 . S
C298 C306 1.378 . S
C299 C298 1.367 . S
C299 C307 1.433 . S
C300 H296 0.929 . S
C300 C302 1.378 . S
C300 C304 1.350 . S
C301 C304 1.463 . S
C301 C306 1.350 . S
C301 N309 1.427 . S
C302 H293 0.930 . S
C302 C300 1.378 . S
C302 C303 1.367 . S
C303 C302 1.367 . S
C303 C305 1.433 . S
C304 C300 1.350 . S
C304 C301 1.463 . S
C304 N308 1.427 . S
C305 H295 0.929 . S
C305 C303 1.433 . S
C305 N308 1.384 . S
C306 H297 0.929 . S
C306 C298 1.378 . S
C306 C301 1.350 . S
C307 H294 0.929 . S
C307 C299 1.433 . S
C307 N309 1.384 . S
N308 C304 1.427 . S
N308 C305 1.384 . S
N309 C301 1.427 . S
N309 C307 1.384 . S
H310 C316 0.930 . S
H311 C320 0.930 . S
H312 C325 0.929 . S
H313 C323 0.929 . S
H314 C318 0.929 . S
H315 C324 0.929 . S
C316 H310 0.930 . S
C316 C317 1.367 . S
C316 C324 1.378 . S
C317 C316 1.367 . S
C317 C325 1.433 . S
C318 H314 0.929 . S
C318 C320 1.378 . S
C318 C322 1.350 . S
C319 C322 1.463 . S
C319 C324 1.350 . S
C319 N327 1.427 . S
C320 H311 0.930 . S
C320 C318 1.378 . S
C320 C321 1.367 . S
C321 C320 1.367 . S
C321 C323 1.433 . S
C322 C318 1.350 . S
C322 C319 1.463 . S
C322 N326 1.427 . S
C323 H313 0.929 . S
C323 C321 1.433 . S
C323 N326 1.384 . S
C324 H315 0.929 . S
C324 C316 1.378 . S
C324 C319 1.350 . S
C325 H312 0.929 . S
C325 C317 1.433 . S
C325 N327 1.384 . S
N326 C322 1.427 . S
N326 C323 1.384 . S
N327 C319 1.427 . S
N327 C325 1.384 . S
H328 C334 0.930 . S
H329 C338 0.930 . S
H330 C343 0.929 . S
H331 C341 0.929 . S
H332 C336 0.929 . S
H333 C342 0.929 . S
C334 H328 0.930 . S
C334 C335 1.367 . S
C334 C342 1.378 . S
C335 C334 1.367 . S
C335 C343 1.433 . S
C336 H332 0.929 . S
C336 C338 1.378 . S
C336 C340 1.350 . S
C337 C340 1.463 . S
C337 C342 1.350 . S
C337 N345 1.427 . S
C338 H329 0.930 . S
C338 C336 1.378 . S
C338 C339 1.367 . S
C339 C338 1.367 . S
C339 C341 1.433 . S
C340 C336 1.350 . S
C340 C337 1.463 . S
C340 N344 1.427 . S
C341 H331 0.929 . S
C341 C339 1.433 . S
C341 N344 1.384 . S
C342 H333 0.929 . S
C342 C334 1.378 . S
C342 C337 1.350 . S
C343 H330 0.929 . S
C343 C335 1.433 . S
C343 N345 1.384 . S
N344 C340 1.427 . S
N344 C341 1.384 . S
N345 C337 1.427 . S
N345 C343 1.384 . S
H346 C352 0.930 . S
H347 C356 0.930 . S
H348 C361 0.929 . S
H349 C359 0.929 1_554 S
H350 C354 0.929 . S
H351 C360 0.929 . S
C352 H346 0.930 . S
C352 C353 1.367 . S
C352 C360 1.378 . S
C353 C352 1.367 . S
C353 C361 1.433 . S
C354 H350 0.929 . S
C354 C356 1.378 . S
C354 C358 1.350 . S
C355 C358 1.463 . S
C355 C360 1.350 . S
C355 N363 1.427 . S
C356 H347 0.930 . S
C356 C354 1.378 . S
C356 C357 1.367 . S
C357 C356 1.367 . S
C357 C359 1.433 . S
C358 C354 1.350 . S
C358 C355 1.463 . S
C358 N362 1.427 . S
C359 H349 0.929 1_556 S
C359 C357 1.433 . S
C359 N362 1.384 . S
C360 H351 0.929 . S
C360 C352 1.378 . S
C360 C355 1.350 . S
C361 H348 0.929 . S
C361 C353 1.433 . S
C361 N363 1.384 . S
N362 C358 1.427 . S
N362 C359 1.384 . S
N363 C355 1.427 . S
N363 C361 1.384 . S
H364 C370 0.930 . S
H365 C374 0.930 . S
H366 C379 0.929 . S
H367 C377 0.929 . S
H368 C372 0.929 . S
H369 C378 0.929 . S
C370 H364 0.930 . S
C370 C371 1.367 . S
C370 C378 1.378 . S
C371 C370 1.367 . S
C371 C379 1.433 . S
C372 H368 0.929 . S
C372 C374 1.378 . S
C372 C376 1.350 . S
C373 C376 1.463 . S
C373 C378 1.350 . S
C373 N381 1.427 . S
C374 H365 0.930 . S
C374 C372 1.378 . S
C374 C375 1.367 . S
C375 C374 1.367 . S
C375 C377 1.433 . S
C376 C372 1.350 . S
C376 C373 1.463 . S
C376 N380 1.427 . S
C377 H367 0.929 . S
C377 C375 1.433 . S
C377 N380 1.384 . S
C378 H369 0.929 . S
C378 C370 1.378 . S
C378 C373 1.350 . S
C379 H366 0.929 . S
C379 C371 1.433 . S
C379 N381 1.384 . S
N380 C376 1.427 . S
N380 C377 1.384 . S
N381 C373 1.427 . S
N381 C379 1.384 . S
H382 C388 0.930 . S
H383 C392 0.930 . S
H384 C397 0.929 . S
H385 C395 0.929 . S
H386 C390 0.929 . S
H387 C396 0.929 . S
C388 H382 0.930 . S
C388 C389 1.367 . S
C388 C396 1.378 . S
C389 C388 1.367 . S
C389 C397 1.433 . S
C390 H386 0.929 . S
C390 C392 1.378 . S
C390 C394 1.350 . S
C391 C394 1.463 . S
C391 C396 1.350 . S
C391 N399 1.427 . S
C392 H383 0.930 . S
C392 C390 1.378 . S
C392 C393 1.367 . S
C393 C392 1.367 . S
C393 C395 1.433 . S
C394 C390 1.350 . S
C394 C391 1.463 . S
C394 N398 1.427 . S
C395 H385 0.929 . S
C395 C393 1.433 . S
C395 N398 1.384 . S
C396 H387 0.929 . S
C396 C388 1.378 . S
C396 C391 1.350 . S
C397 H384 0.929 . S
C397 C389 1.433 . S
C397 N399 1.384 . S
N398 C394 1.427 . S
N398 C395 1.384 . S
N399 C391 1.427 . S
N399 C397 1.384 . S
H400 C406 0.930 . S
H401 C410 0.930 . S
H402 C415 0.929 . S
H403 C413 0.929 . S
H404 C408 0.929 . S
H405 C414 0.929 . S
C406 H400 0.930 . S
C406 C407 1.367 . S
C406 C414 1.378 . S
C407 C406 1.367 . S
C407 C415 1.433 . S
C408 H404 0.929 . S
C408 C410 1.378 . S
C408 C412 1.350 . S
C409 C412 1.463 . S
C409 C414 1.350 . S
C409 N417 1.427 . S
C410 H401 0.930 . S
C410 C408 1.378 . S
C410 C411 1.367 . S
C411 C410 1.367 . S
C411 C413 1.433 . S
C412 C408 1.350 . S
C412 C409 1.463 . S
C412 N416 1.427 . S
C413 H403 0.929 . S
C413 C411 1.433 . S
C413 N416 1.384 . S
C414 H405 0.929 . S
C414 C406 1.378 . S
C414 C409 1.350 . S
C415 H402 0.929 . S
C415 C407 1.433 . S
C415 N417 1.384 . S
N416 C412 1.427 . S
N416 C413 1.384 . S
N417 C409 1.427 . S
N417 C415 1.384 . S
H418 C424 0.930 . S
H419 C428 0.930 . S
H420 C433 0.929 . S
H421 C431 0.929 . S
H422 C426 0.929 . S
H423 C432 0.929 . S
C424 H418 0.930 . S
C424 C425 1.367 . S
C424 C432 1.378 . S
C425 C424 1.367 . S
C425 C433 1.433 . S
C426 H422 0.929 . S
C426 C428 1.378 . S
C426 C430 1.350 . S
C427 C430 1.463 . S
C427 C432 1.350 . S
C427 N435 1.427 . S
C428 H419 0.930 . S
C428 C426 1.378 . S
C428 C429 1.367 . S
C429 C428 1.367 . S
C429 C431 1.433 . S
C430 C426 1.350 . S
C430 C427 1.463 . S
C430 N434 1.427 . S
C431 H421 0.929 . S
C431 C429 1.433 . S
C431 N434 1.384 . S
C432 H423 0.929 . S
C432 C424 1.378 . S
C432 C427 1.350 . S
C433 H420 0.929 . S
C433 C425 1.433 . S
C433 N435 1.384 . S
N434 C430 1.427 . S
N434 C431 1.384 . S
N435 C427 1.427 . S
N435 C433 1.384 . S
H436 C442 0.930 . S
H437 C446 0.930 . S
H438 C451 0.929 . S
H439 C449 0.929 . S
H440 C444 0.929 . S
H441 C450 0.929 . S
C442 H436 0.930 . S
C442 C443 1.367 . S
C442 C450 1.378 . S
C443 C442 1.367 . S
C443 C451 1.433 . S
C444 H440 0.929 . S
C444 C446 1.378 . S
C444 C448 1.350 . S
C445 C448 1.463 . S
C445 C450 1.350 . S
C445 N453 1.427 . S
C446 H437 0.930 . S
C446 C444 1.378 . S
C446 C447 1.367 . S
C447 C446 1.367 . S
C447 C449 1.433 . S
C448 C444 1.350 . S
C448 C445 1.463 . S
C448 N452 1.427 . S
C449 H439 0.929 . S
C449 C447 1.433 . S
C449 N452 1.384 . S
C450 H441 0.929 . S
C450 C442 1.378 . S
C450 C445 1.350 . S
C451 H438 0.929 . S
C451 C443 1.433 . S
C451 N453 1.384 . S
N452 C448 1.427 . S
N452 C449 1.384 . S
N453 C445 1.427 . S
N453 C451 1.384 . S
H454 C460 0.930 . S
H455 C464 0.930 . S
H456 C469 0.929 . S
H457 C467 0.929 . S
H458 C462 0.929 . S
H459 C468 0.929 . S
C460 H454 0.930 . S
C460 C461 1.367 . S
C460 C468 1.378 . S
C461 C460 1.367 . S
C461 C469 1.433 . S
C462 H458 0.929 . S
C462 C464 1.378 . S
C462 C466 1.350 . S
C463 C466 1.463 . S
C463 C468 1.350 . S
C463 N471 1.427 . S
C464 H455 0.930 . S
C464 C462 1.378 . S
C464 C465 1.367 . S
C465 C464 1.367 . S
C465 C467 1.433 . S
C466 C462 1.350 . S
C466 C463 1.463 . S
C466 N470 1.427 . S
C467 H457 0.929 . S
C467 C465 1.433 . S
C467 N470 1.384 . S
C468 H459 0.929 . S
C468 C460 1.378 . S
C468 C463 1.350 . S
C469 H456 0.929 . S
C469 C461 1.433 . S
C469 N471 1.384 . S
N470 C466 1.427 . S
N470 C467 1.384 . S
N471 C463 1.427 . S
N471 C469 1.384 . S
H472 C478 0.930 . S
H473 C482 0.930 . S
H474 C487 0.929 . S
H475 C485 0.929 . S
H476 C480 0.929 . S
H477 C486 0.929 . S
C478 H472 0.930 . S
C478 C479 1.367 . S
C478 C486 1.378 . S
C479 C478 1.367 . S
C479 C487 1.433 . S
C480 H476 0.929 . S
C480 C482 1.378 . S
C480 C484 1.350 . S
C481 C484 1.463 . S
C481 C486 1.350 . S
C481 N489 1.427 . S
C482 H473 0.930 . S
C482 C480 1.378 . S
C482 C483 1.367 . S
C483 C482 1.367 . S
C483 C485 1.433 . S
C484 C480 1.350 . S
C484 C481 1.463 . S
C484 N488 1.427 . S
C485 H475 0.929 . S
C485 C483 1.433 . S
C485 N488 1.384 . S
C486 H477 0.929 . S
C486 C478 1.378 . S
C486 C481 1.350 . S
C487 H474 0.929 . S
C487 C479 1.433 . S
C487 N489 1.384 . S
N488 C484 1.427 . S
N488 C485 1.384 . S
N489 C481 1.427 . S
N489 C487 1.384 . S
H490 C496 0.930 . S
H491 C500 0.930 . S
H492 C505 0.929 . S
H493 C503 0.929 . S
H494 C498 0.929 . S
H495 C504 0.929 . S
C496 H490 0.930 . S
C496 C497 1.367 . S
C496 C504 1.378 . S
C497 C496 1.367 . S
C497 C505 1.433 . S
C498 H494 0.929 . S
C498 C500 1.378 . S
C498 C502 1.350 . S
C499 C502 1.463 . S
C499 C504 1.350 . S
C499 N507 1.427 . S
C500 H491 0.930 . S
C500 C498 1.378 . S
C500 C501 1.367 . S
C501 C500 1.367 . S
C501 C503 1.433 . S
C502 C498 1.350 . S
C502 C499 1.463 . S
C502 N506 1.427 . S
C503 H493 0.929 . S
C503 C501 1.433 . S
C503 N506 1.384 . S
C504 H495 0.929 . S
C504 C496 1.378 . S
C504 C499 1.350 . S
C505 H492 0.929 . S
C505 C497 1.433 . S
C505 N507 1.384 . S
N506 C502 1.427 . S
N506 C503 1.384 . S
N507 C499 1.427 . S
N507 C505 1.384 . S
H508 C514 0.930 . S
H509 C518 0.930 1_556 S
H510 C523 0.929 . S
H511 C521 0.929 . S
H512 C516 0.929 . S
H513 C522 0.929 . S
C514 H508 0.930 . S
C514 C515 1.367 . S
C514 C522 1.378 . S
C515 C514 1.367 . S
C515 C523 1.433 . S
C516 H512 0.929 . S
C516 C518 1.378 . S
C516 C520 1.350 . S
C517 C520 1.463 . S
C517 C522 1.350 . S
C517 N525 1.427 . S
C518 H509 0.930 1_554 S
C518 C516 1.378 . S
C518 C519 1.367 . S
C519 C518 1.367 . S
C519 C521 1.433 . S
C520 C516 1.350 . S
C520 C517 1.463 . S
C520 N524 1.427 . S
C521 H511 0.929 . S
C521 C519 1.433 . S
C521 N524 1.384 . S
C522 H513 0.929 . S
C522 C514 1.378 . S
C522 C517 1.350 . S
C523 H510 0.929 . S
C523 C515 1.433 . S
C523 N525 1.384 . S
N524 C520 1.427 . S
N524 C521 1.384 . S
N525 C517 1.427 . S
N525 C523 1.384 . S
H526 C532 0.930 . S
H527 C536 0.930 . S
H528 C541 0.929 . S
H529 C539 0.929 . S
H530 C534 0.929 . S
H531 C540 0.929 . S
C532 H526 0.930 . S
C532 C533 1.367 . S
C532 C540 1.378 . S
C533 C532 1.367 . S
C533 C541 1.433 . S
C534 H530 0.929 . S
C534 C536 1.378 . S
C534 C538 1.350 . S
C535 C538 1.463 . S
C535 C540 1.350 . S
C535 N543 1.427 . S
C536 H527 0.930 . S
C536 C534 1.378 . S
C536 C537 1.367 . S
C537 C536 1.367 . S
C537 C539 1.433 . S
C538 C534 1.350 . S
C538 C535 1.463 . S
C538 N542 1.427 . S
C539 H529 0.929 . S
C539 C537 1.433 . S
C539 N542 1.384 . S
C540 H531 0.929 . S
C540 C532 1.378 . S
C540 C535 1.350 . S
C541 H528 0.929 . S
C541 C533 1.433 . S
C541 N543 1.384 . S
N542 C538 1.427 . S
N542 C539 1.384 . S
N543 C535 1.427 . S
N543 C541 1.384 . S
H544 C550 0.930 . S
H545 C554 0.930 . S
H546 C559 0.929 . S
H547 C557 0.929 . S
H548 C552 0.929 . S
H549 C558 0.929 . S
C550 H544 0.930 . S
C550 C551 1.367 . S
C550 C558 1.378 . S
C551 C550 1.367 . S
C551 C559 1.433 . S
C552 H548 0.929 . S
C552 C554 1.378 . S
C552 C556 1.350 . S
C553 C556 1.463 . S
C553 C558 1.350 . S
C553 N561 1.427 . S
C554 H545 0.930 . S
C554 C552 1.378 . S
C554 C555 1.367 . S
C555 C554 1.367 . S
C555 C557 1.433 . S
C556 C552 1.350 . S
C556 C553 1.463 . S
C556 N560 1.427 . S
C557 H547 0.929 . S
C557 C555 1.433 . S
C557 N560 1.384 . S
C558 H549 0.929 . S
C558 C550 1.378 . S
C558 C553 1.350 . S
C559 H546 0.929 . S
C559 C551 1.433 . S
C559 N561 1.384 . S
N560 C556 1.427 . S
N560 C557 1.384 . S
N561 C553 1.427 . S
N561 C559 1.384 . S
H562 C568 0.930 . S
H563 C572 0.930 . S
H564 C577 0.929 . S
H565 C575 0.929 . S
H566 C570 0.929 . S
H567 C576 0.929 . S
C568 H562 0.930 . S
C568 C569 1.367 . S
C568 C576 1.378 . S
C569 C568 1.367 . S
C569 C577 1.433 . S
C570 H566 0.929 . S
C570 C572 1.378 . S
C570 C574 1.350 . S
C571 C574 1.463 . S
C571 C576 1.350 . S
C571 N579 1.427 . S
C572 H563 0.930 . S
C572 C570 1.378 . S
C572 C573 1.367 . S
C573 C572 1.367 . S
C573 C575 1.433 . S
C574 C570 1.350 . S
C574 C571 1.463 . S
C574 N578 1.427 . S
C575 H565 0.929 . S
C575 C573 1.433 . S
C575 N578 1.384 . S
C576 H567 0.929 . S
C576 C568 1.378 . S
C576 C571 1.350 . S
C577 H564 0.929 . S
C577 C569 1.433 . S
C577 N579 1.384 . S
N578 C574 1.427 . S
N578 C575 1.384 . S
N579 C571 1.427 . S
N579 C577 1.384 . S
H580 C586 0.930 . S
H581 C590 0.930 . S
H582 C595 0.929 . S
H583 C593 0.929 . S
H584 C588 0.929 . S
H585 C594 0.929 . S
C586 H580 0.930 . S
C586 C587 1.367 . S
C586 C594 1.378 . S
C587 C586 1.367 . S
C587 C595 1.433 . S
C588 H584 0.929 . S
C588 C590 1.378 . S
C588 C592 1.350 . S
C589 C592 1.463 . S
C589 C594 1.350 . S
C589 N597 1.427 . S
C590 H581 0.930 . S
C590 C588 1.378 . S
C590 C591 1.367 . S
C591 C590 1.367 . S
C591 C593 1.433 . S
C592 C588 1.350 . S
C592 C589 1.463 . S
C592 N596 1.427 . S
C593 H583 0.929 . S
C593 C591 1.433 . S
C593 N596 1.384 . S
C594 H585 0.929 . S
C594 C586 1.378 . S
C594 C589 1.350 . S
C595 H582 0.929 . S
C595 C587 1.433 . S
C595 N597 1.384 . S
N596 C592 1.427 . S
N596 C593 1.384 . S
N597 C589 1.427 . S
N597 C595 1.384 . S
H598 C604 0.930 . S
H599 C608 0.930 . S
H600 C613 0.929 . S
H601 C611 0.929 . S
H602 C606 0.929 . S
H603 C612 0.929 . S
C604 H598 0.930 . S
C604 C605 1.367 . S
C604 C612 1.378 . S
C605 C604 1.367 . S
C605 C613 1.433 . S
C606 H602 0.929 . S
C606 C608 1.378 . S
C606 C610 1.350 . S
C607 C610 1.463 . S
C607 C612 1.350 . S
C607 N615 1.427 . S
C608 H599 0.930 . S
C608 C606 1.378 . S
C608 C609 1.367 . S
C609 C608 1.367 . S
C609 C611 1.433 . S
C610 C606 1.350 . S
C610 C607 1.463 . S
C610 N614 1.427 . S
C611 H601 0.929 . S
C611 C609 1.433 . S
C611 N614 1.384 . S
C612 H603 0.929 . S
C612 C604 1.378 . S
C612 C607 1.350 . S
C613 H600 0.929 . S
C613 C605 1.433 . S
C613 N615 1.384 . S
N614 C610 1.427 . S
N614 C611 1.384 . S
N615 C607 1.427 . S
N615 C613 1.384 . S
C191 N1 1.338 . S
C195 C106 1.357 . S
C209 N18 1.545 . S
C213 C125 1.558 . S
C231 C162 1.381 . S
C227 N28 1.407 . S
C245 N40 1.844 . S
C249 C172 1.843 . S
C267 C142 2.147 . S
C263 N5 2.125 . S
C285 C112 1.442 . S
C281 N14 1.476 . S
C303 C183 1.600 . S
C299 N31 1.592 . S
C321 C153 1.124 . S
C317 N41 1.152 . S
C335 N2 1.513 . S
C339 C166 1.513 . S
C357 C133 1.786 . S
C353 N27 1.833 . S
C371 N44 1.793 . S
C375 C123 1.822 . S
C389 N15 1.095 . S
C393 C145 1.077 . S
C411 C105 1.653 . S
C407 N57 1.675 . S
C425 N70 1.232 . S
C429 C126 1.242 . S
C443 N79 1.624 . S
C447 C163 1.652 . S
C461 N93 1.635 . S
C465 C173 1.611 . S
C479 N54 1.675 . S
C483 C143 1.700 . S
C501 C113 1.832 . S
C497 N66 1.917 . S
C519 C182 1.042 . S
C515 N80 1.053 . S
C537 C152 1.462 . S
C533 N96 1.469 . S
C551 N53 1.525 . S
C555 C165 1.552 . S
C573 C132 1.629 . S
C569 N83 1.629 . S
C591 C122 1.948 . S
C587 N92 1.925 . S
C605 N67 1.183 . S
C609 C146 1.198 . S
