# Generated by pormake.
# Topology pto, (3,4)-cn, num edge types: 1
# Building blocks:
#     Node 0, Type 0, BuildingBlock: VETTIZ_charged_linker_0, # of connection points: 3
#     Node 1, Type 0, BuildingBlock: VETTIZ_charged_linker_0, # of connection points: 3
#     Node 2, Type 0, BuildingBlock: VETTIZ_charged_linker_0, # of connection points: 3
#     Node 3, Type 0, BuildingBlock: VETTIZ_charged_linker_0, # of connection points: 3
#     Node 4, Type 0, BuildingBlock: VETTIZ_charged_linker_0, # of connection points: 3
#     Node 5, Type 0, BuildingBlock: VETTIZ_charged_linker_0, # of connection points: 3
#     Node 6, Type 0, BuildingBlock: VETTIZ_charged_linker_0, # of connection points: 3
#     Node 7, Type 0, BuildingBlock: VETTIZ_charged_linker_0, # of connection points: 3
#     Node 8, Type 1, BuildingBlock: NAWXER_clean_sbu_0, # of connection points: 4
#     Node 9, Type 1, BuildingBlock: NAWXER_clean_sbu_0, # of connection points: 4
#     Node 10, Type 1, BuildingBlock: NAWXER_clean_sbu_0, # of connection points: 4
#     Node 11, Type 1, BuildingBlock: NAWXER_clean_sbu_0, # of connection points: 4
#     Node 12, Type 1, BuildingBlock: NAWXER_clean_sbu_0, # of connection points: 4
#     Node 13, Type 1, BuildingBlock: NAWXER_clean_sbu_0, # of connection points: 4
#     Edge 14, Type (0, 1), BuildingBlock: XIVTED_clean_linker_0, # of connection points: 2
#     Edge 15, Type (0, 1), BuildingBlock: XIVTED_clean_linker_0, # of connection points: 2
#     Edge 16, Type (0, 1), BuildingBlock: XIVTED_clean_linker_0, # of connection points: 2
#     Edge 17, Type (0, 1), BuildingBlock: XIVTED_clean_linker_0, # of connection points: 2
#     Edge 18, Type (0, 1), BuildingBlock: XIVTED_clean_linker_0, # of connection points: 2
#     Edge 19, Type (0, 1), BuildingBlock: XIVTED_clean_linker_0, # of connection points: 2
#     Edge 20, Type (0, 1), BuildingBlock: XIVTED_clean_linker_0, # of connection points: 2
#     Edge 21, Type (0, 1), BuildingBlock: XIVTED_clean_linker_0, # of connection points: 2
#     Edge 22, Type (0, 1), BuildingBlock: XIVTED_clean_linker_0, # of connection points: 2
#     Edge 23, Type (0, 1), BuildingBlock: XIVTED_clean_linker_0, # of connection points: 2
#     Edge 24, Type (0, 1), BuildingBlock: XIVTED_clean_linker_0, # of connection points: 2
#     Edge 25, Type (0, 1), BuildingBlock: XIVTED_clean_linker_0, # of connection points: 2
#     Edge 26, Type (0, 1), BuildingBlock: XIVTED_clean_linker_0, # of connection points: 2
#     Edge 27, Type (0, 1), BuildingBlock: XIVTED_clean_linker_0, # of connection points: 2
#     Edge 28, Type (0, 1), BuildingBlock: XIVTED_clean_linker_0, # of connection points: 2
#     Edge 29, Type (0, 1), BuildingBlock: XIVTED_clean_linker_0, # of connection points: 2
#     Edge 30, Type (0, 1), BuildingBlock: XIVTED_clean_linker_0, # of connection points: 2
#     Edge 31, Type (0, 1), BuildingBlock: XIVTED_clean_linker_0, # of connection points: 2
#     Edge 32, Type (0, 1), BuildingBlock: XIVTED_clean_linker_0, # of connection points: 2
#     Edge 33, Type (0, 1), BuildingBlock: XIVTED_clean_linker_0, # of connection points: 2
#     Edge 34, Type (0, 1), BuildingBlock: XIVTED_clean_linker_0, # of connection points: 2
#     Edge 35, Type (0, 1), BuildingBlock: XIVTED_clean_linker_0, # of connection points: 2
#     Edge 36, Type (0, 1), BuildingBlock: XIVTED_clean_linker_0, # of connection points: 2
#     Edge 37, Type (0, 1), BuildingBlock: XIVTED_clean_linker_0, # of connection points: 2
# Relax obj value: 0.000
# Max RMSD: 0.000
# Mean RMSD: 0.000
data_MOF--net-pto--node1-NAWXER_clean_sbu_0--node2-VETTIZ_charged_linker_0--edge1-XIVTED_clean_linker_0
_symmetry_space_group_name_H-M    P1
_symmetry_Int_Tables_number       1
_symmetry_cell_setting            triclinic
loop_
_symmetry_equiv_pos_as_xyz
'x, y, z'
_cell_length_a     53.906899
_cell_length_b     50.590306
_cell_length_c     47.277891
_cell_angle_alpha  89.975626
_cell_angle_beta   89.979411
_cell_angle_gamma 89.935033
loop_
_atom_site_label
_atom_site_type_symbol
_atom_site_fract_x
_atom_site_fract_y
_atom_site_fract_z
_atom_type_partial_charge
C0 C 0.21303 0.18811 0.30849 0.0
C1 C 0.22691 0.16471 0.3055 0.0
C2 C 0.24409 0.16269 0.2831 0.0
C3 C 0.23524 0.20769 0.26905 0.0
C4 C 0.21746 0.20926 0.29003 0.0
C5 C 0.20483 0.23578 0.29055 0.0
H6 H 0.19355 0.35937 0.23745 0.0
C7 C 0.23645 0.23355 0.25473 0.0
C8 C 0.21852 0.25004 0.26696 0.0
H9 H 0.14882 0.32131 0.30167 0.0
H10 H 0.17409 0.28229 0.29848 0.0
H11 H 0.19665 0.30939 0.19593 0.0
H12 H 0.24725 0.33633 0.26051 0.0
H13 H 0.26461 0.32682 0.23071 0.0
H14 H 0.24297 0.35389 0.22786 0.0
H15 H 0.21457 0.33909 0.19211 0.0
H16 H 0.22712 0.30725 0.18272 0.0
C17 C 0.17701 0.2316 0.28348 0.0
C18 C 0.20973 0.24865 0.31976 0.0
C19 C 0.30373 0.24941 0.18189 0.0
C20 C 0.31091 0.27153 0.16591 0.0
C21 C 0.29676 0.29497 0.16808 0.0
C22 C 0.27615 0.29642 0.18623 0.0
C23 C 0.26957 0.27422 0.20247 0.0
C24 C 0.2832 0.25119 0.19987 0.0
C25 C 0.27383 0.22955 0.21876 0.0
C26 C 0.25248 0.24343 0.23344 0.0
C27 C 0.25002 0.26962 0.22395 0.0
C28 C 0.2648 0.20641 0.19985 0.0
C29 C 0.2949 0.22219 0.23968 0.0
C30 C 0.18917 0.34261 0.2508 0.0
C31 C 0.16906 0.34356 0.26987 0.0
C32 C 0.16433 0.32138 0.28711 0.0
C33 C 0.17889 0.29854 0.28499 0.0
C34 C 0.19844 0.29767 0.26538 0.0
C35 C 0.2035 0.31953 0.24884 0.0
C36 C 0.22496 0.31478 0.22901 0.0
C37 C 0.23145 0.28624 0.23588 0.0
C38 C 0.21587 0.27646 0.25731 0.0
C39 C 0.21556 0.31791 0.19825 0.0
C40 C 0.24611 0.33399 0.23714 0.0
H41 H 0.262 0.18134 0.2487 0.0
H42 H 0.19969 0.19035 0.32546 0.0
H43 H 0.2291 0.2448 0.32678 0.0
H44 H 0.20791 0.27038 0.31949 0.0
H45 H 0.19707 0.24051 0.33612 0.0
H46 H 0.17428 0.21401 0.2697 0.0
H47 H 0.16588 0.22849 0.30297 0.0
H48 H 0.16899 0.24818 0.27127 0.0
H49 H 0.3143 0.23121 0.18115 0.0
H50 H 0.30161 0.31223 0.15572 0.0
H51 H 0.26623 0.3148 0.18704 0.0
H52 H 0.25858 0.21357 0.17875 0.0
H53 H 0.27981 0.19173 0.19627 0.0
H54 H 0.24838 0.19623 0.20872 0.0
H55 H 0.3049 0.24021 0.24686 0.0
H56 H 0.28815 0.21277 0.25926 0.0
H57 H 0.30868 0.20889 0.22954 0.0
H58 H 0.25459 0.14468 0.27987 0.0
C59 C 0.24833 0.18401 0.26493 0.0
C60 C 0.19184 0.65666 0.7497 0.0
C61 C 0.17068 0.65544 0.73223 0.0
C62 C 0.16444 0.67769 0.71572 0.0
C63 C 0.19948 0.70181 0.7347 0.0
C64 C 0.20586 0.67997 0.75067 0.0
C65 C 0.22838 0.68496 0.76878 0.0
H66 H 0.31964 0.76885 0.81017 0.0
C67 C 0.21742 0.72304 0.74096 0.0
C68 C 0.23447 0.71335 0.7609 0.0
H69 H 0.3064 0.68895 0.83906 0.0
H70 H 0.27087 0.68565 0.80828 0.0
H71 H 0.2613 0.7868 0.81141 0.0
H72 H 0.31035 0.75833 0.74642 0.0
H73 H 0.29096 0.7817 0.73019 0.0
H74 H 0.31128 0.79192 0.7585 0.0
H75 H 0.28664 0.80583 0.79758 0.0
H76 H 0.2565 0.80634 0.78115 0.0
C77 C 0.22063 0.68234 0.80022 0.0
C78 C 0.24906 0.66557 0.75948 0.0
C79 C 0.20899 0.81172 0.69155 0.0
C80 C 0.22374 0.83467 0.69132 0.0
C81 C 0.24501 0.83551 0.70875 0.0
C82 C 0.25145 0.81402 0.72591 0.0
C83 C 0.23669 0.79119 0.72557 0.0
C84 C 0.21594 0.79027 0.70848 0.0
C85 C 0.20315 0.76391 0.70977 0.0
C86 C 0.21957 0.74927 0.73064 0.0
C87 C 0.23902 0.76543 0.74 0.0
C88 C 0.17666 0.76833 0.72161 0.0
C89 C 0.20405 0.75136 0.67984 0.0
C90 C 0.30892 0.75075 0.81021 0.0
C91 C 0.31597 0.72915 0.82711 0.0
C92 C 0.30166 0.7058 0.82599 0.0
C93 C 0.28091 0.70394 0.8082 0.0
C94 C 0.27426 0.72566 0.79129 0.0
C95 C 0.28813 0.7486 0.79261 0.0
C96 C 0.2784 0.7697 0.77319 0.0
C97 C 0.25632 0.75574 0.76011 0.0
C98 C 0.25399 0.7299 0.77066 0.0
C99 C 0.27038 0.7936 0.79156 0.0
C100 C 0.29873 0.77602 0.75096 0.0
H101 H 0.17274 0.71704 0.70398 0.0
H102 H 0.19734 0.63991 0.76252 0.0
H103 H 0.24926 0.66338 0.73606 0.0
H104 H 0.26783 0.67246 0.76507 0.0
H105 H 0.2461 0.64565 0.76878 0.0
H106 H 0.20136 0.68964 0.80351 0.0
H107 H 0.22129 0.6614 0.80726 0.0
H108 H 0.23213 0.69444 0.81454 0.0
H109 H 0.19244 0.81029 0.67868 0.0
H110 H 0.25716 0.85253 0.70863 0.0
H111 H 0.26792 0.81591 0.73847 0.0
H112 H 0.17673 0.78373 0.73842 0.0
H113 H 0.16379 0.77503 0.70471 0.0
H114 H 0.16887 0.75059 0.73188 0.0
H115 H 0.221 0.75757 0.66816 0.0
H116 H 0.20517 0.72955 0.68037 0.0
H117 H 0.18775 0.75738 0.667 0.0
H118 H 0.14804 0.6776 0.70249 0.0
C119 C 0.1787 0.70077 0.71683 0.0
C120 C 0.81645 0.68518 0.26384 0.0
C121 C 0.82017 0.66393 0.24531 0.0
C122 C 0.80297 0.6594 0.22343 0.0
C123 C 0.77918 0.69779 0.23824 0.0
C124 C 0.79578 0.70154 0.26018 0.0
C125 C 0.78863 0.72421 0.27897 0.0
H126 H 0.70821 0.82202 0.31134 0.0
C127 C 0.75986 0.71855 0.24039 0.0
C128 C 0.76519 0.73377 0.26453 0.0
H129 H 0.77577 0.80031 0.35515 0.0
H130 H 0.78302 0.7655 0.32156 0.0
H131 H 0.68913 0.76313 0.29707 0.0
H132 H 0.73183 0.82119 0.25257 0.0
H133 H 0.71592 0.80404 0.22601 0.0
H134 H 0.6986 0.82195 0.25253 0.0
H135 H 0.67642 0.79315 0.28292 0.0
H136 H 0.67831 0.76343 0.26199 0.0
C137 C 0.78337 0.71309 0.30895 0.0
C138 C 0.80958 0.74514 0.27771 0.0
C139 C 0.69327 0.72907 0.16431 0.0
C140 C 0.6736 0.74725 0.1611 0.0
C141 C 0.66965 0.76638 0.18229 0.0
C142 C 0.68501 0.76766 0.206 0.0
C143 C 0.70466 0.74964 0.2088 0.0
C144 C 0.70858 0.73067 0.18829 0.0
C145 C 0.73034 0.71305 0.19541 0.0
C146 C 0.73915 0.72522 0.22309 0.0
C147 C 0.72384 0.74652 0.23073 0.0
C148 C 0.72064 0.68452 0.1996 0.0
C149 C 0.7499 0.71581 0.17167 0.0
C150 C 0.72465 0.8099 0.31373 0.0
C151 C 0.74125 0.81392 0.33625 0.0
C152 C 0.76229 0.79739 0.33847 0.0
C153 C 0.76663 0.77726 0.31874 0.0
C154 C 0.74991 0.77366 0.29631 0.0
C155 C 0.72947 0.78998 0.29401 0.0
C156 C 0.71435 0.78421 0.26809 0.0
C157 C 0.72879 0.76127 0.25556 0.0
C158 C 0.74946 0.75507 0.27223 0.0
C159 C 0.68807 0.77568 0.27778 0.0
C160 C 0.71495 0.80905 0.24876 0.0
H161 H 0.77018 0.67218 0.20245 0.0
H162 H 0.82926 0.68879 0.28107 0.0
H163 H 0.81787 0.74609 0.25617 0.0
H164 H 0.80291 0.76541 0.28191 0.0
H165 H 0.82471 0.74031 0.29281 0.0
H166 H 0.77491 0.69306 0.30775 0.0
H167 H 0.80074 0.71135 0.32145 0.0
H168 H 0.76982 0.72501 0.32096 0.0
H169 H 0.6968 0.71408 0.14846 0.0
H170 H 0.65431 0.78016 0.18084 0.0
H171 H 0.68083 0.78262 0.2213 0.0
H172 H 0.70162 0.68458 0.20875 0.0
H173 H 0.71985 0.67372 0.17917 0.0
H174 H 0.73191 0.67306 0.21481 0.0
H175 H 0.75264 0.73698 0.16612 0.0
H176 H 0.76833 0.7083 0.1778 0.0
H177 H 0.74385 0.70528 0.15225 0.0
H178 H 0.8056 0.64302 0.20898 0.0
C179 C 0.78254 0.67635 0.21966 0.0
C180 C 0.69229 0.26794 0.83886 0.0
C181 C 0.67286 0.24936 0.84087 0.0
C182 C 0.6687 0.23205 0.81799 0.0
C183 C 0.70241 0.25212 0.7918 0.0
C184 C 0.70668 0.26905 0.81417 0.0
C185 C 0.72756 0.28805 0.80812 0.0
H186 H 0.81836 0.32894 0.71869 0.0
C187 C 0.7201 0.25871 0.76904 0.0
C188 C 0.73485 0.27988 0.77831 0.0
H189 H 0.80142 0.35924 0.80204 0.0
H190 H 0.76684 0.32913 0.80577 0.0
H191 H 0.76239 0.32714 0.69705 0.0
H192 H 0.81046 0.2685 0.7336 0.0
H193 H 0.79487 0.2535 0.70524 0.0
H194 H 0.81464 0.28146 0.69857 0.0
H195 H 0.78612 0.31101 0.67679 0.0
H196 H 0.75532 0.29728 0.67999 0.0
C197 C 0.71705 0.31654 0.80902 0.0
C198 C 0.74857 0.2827 0.82969 0.0
C199 C 0.72194 0.20289 0.67987 0.0
C200 C 0.73696 0.2035 0.65557 0.0
C201 C 0.75385 0.22451 0.65202 0.0
C202 C 0.75662 0.24384 0.67294 0.0
C203 C 0.74241 0.24218 0.69777 0.0
C204 C 0.72499 0.22235 0.70061 0.0
C205 C 0.71134 0.22393 0.72828 0.0
C206 C 0.72395 0.24756 0.74187 0.0
C207 C 0.74224 0.25799 0.724 0.0
C208 C 0.68358 0.22939 0.72189 0.0
C209 C 0.71635 0.19804 0.7449 0.0
C210 C 0.80702 0.32947 0.73759 0.0
C211 C 0.81283 0.34648 0.76013 0.0
C212 C 0.79768 0.34606 0.78451 0.0
C213 C 0.77752 0.32861 0.78662 0.0
C214 C 0.77239 0.31129 0.76415 0.0
C215 C 0.78688 0.31219 0.74004 0.0
C216 C 0.77891 0.29234 0.71827 0.0
C217 C 0.75736 0.2792 0.73334 0.0
C218 C 0.75364 0.29022 0.76028 0.0
C219 C 0.77037 0.30752 0.69147 0.0
C220 C 0.80078 0.27293 0.71335 0.0
H221 H 0.67903 0.2197 0.77693 0.0
H222 H 0.69619 0.28143 0.85606 0.0
H223 H 0.7507 0.26111 0.83354 0.0
H224 H 0.76692 0.28935 0.82223 0.0
H225 H 0.7445 0.29226 0.85033 0.0
H226 H 0.69799 0.31721 0.80002 0.0
H227 H 0.71604 0.324 0.83108 0.0
H228 H 0.7279 0.33056 0.7961 0.0
H229 H 0.70887 0.18697 0.68334 0.0
H230 H 0.76529 0.22573 0.63323 0.0
H231 H 0.77014 0.25899 0.66921 0.0
H232 H 0.68129 0.24064 0.70182 0.0
H233 H 0.673 0.21068 0.71973 0.0
H234 H 0.67464 0.24194 0.73812 0.0
H235 H 0.7359 0.19149 0.74203 0.0
H236 H 0.71403 0.20025 0.76797 0.0
H237 H 0.70413 0.18182 0.73743 0.0
H238 H 0.65364 0.21791 0.81858 0.0
C239 C 0.68333 0.23332 0.79358 0.0
C240 C 0.78531 0.80499 0.68741 0.0
C241 C 0.76612 0.82328 0.68194 0.0
C242 C 0.74364 0.82076 0.69707 0.0
C243 C 0.75923 0.78208 0.72157 0.0
C244 C 0.78149 0.78469 0.70729 0.0
C245 C 0.79983 0.76358 0.71573 0.0
H246 H 0.82829 0.6598 0.8008 0.0
C247 C 0.7611 0.759 0.74069 0.0
C248 C 0.78499 0.74818 0.7376 0.0
H249 H 0.87327 0.69352 0.73395 0.0
H250 H 0.84111 0.7252 0.72395 0.0
H251 H 0.80462 0.71371 0.8252 0.0
H252 H 0.78123 0.65671 0.76344 0.0
H253 H 0.75402 0.66752 0.78009 0.0
H254 H 0.77762 0.65097 0.80064 0.0
H255 H 0.79479 0.68084 0.83405 0.0
H256 H 0.77289 0.70764 0.83098 0.0
C257 C 0.82268 0.77729 0.72897 0.0
C258 C 0.80581 0.7466 0.68932 0.0
C259 C 0.68667 0.73102 0.80023 0.0
C260 C 0.68316 0.71089 0.82051 0.0
C261 C 0.70334 0.69421 0.82712 0.0
C262 C 0.72638 0.69736 0.81385 0.0
C263 C 0.72953 0.71746 0.79365 0.0
C264 C 0.70992 0.73398 0.78722 0.0
C265 C 0.71699 0.75469 0.76575 0.0
C266 C 0.74389 0.74738 0.75985 0.0
C267 C 0.75105 0.72557 0.77628 0.0
C268 C 0.71462 0.78225 0.77987 0.0
C269 C 0.70043 0.7509 0.73931 0.0
C270 C 0.83138 0.67373 0.7838 0.0
C271 C 0.85378 0.67394 0.76844 0.0
C272 C 0.85665 0.69302 0.74678 0.0
C273 C 0.83777 0.71134 0.74071 0.0
C274 C 0.8155 0.71055 0.75612 0.0
C275 C 0.81254 0.6917 0.777 0.0
C276 C 0.78707 0.69233 0.78987 0.0
C277 C 0.77534 0.71501 0.7737 0.0
C278 C 0.79213 0.72594 0.7542 0.0
C279 C 0.78979 0.69878 0.82176 0.0
C280 C 0.77422 0.66553 0.78348 0.0
H281 H 0.72251 0.79955 0.72724 0.0
H282 H 0.80276 0.80612 0.67614 0.0
H283 H 0.78937 0.74502 0.6752 0.0
H284 H 0.81058 0.72596 0.6947 0.0
H285 H 0.82116 0.75542 0.67681 0.0
H286 H 0.81675 0.79335 0.74356 0.0
H287 H 0.83458 0.78626 0.71236 0.0
H288 H 0.83413 0.76385 0.74189 0.0
H289 H 0.67166 0.74418 0.79445 0.0
H290 H 0.70151 0.67896 0.84306 0.0
H291 H 0.74092 0.68408 0.82003 0.0
H292 H 0.71771 0.78104 0.80311 0.0
H293 H 0.69588 0.79083 0.77646 0.0
H294 H 0.72879 0.79637 0.77232 0.0
H295 H 0.6986 0.72954 0.73412 0.0
H296 H 0.70815 0.76018 0.72013 0.0
H297 H 0.6815 0.75888 0.74301 0.0
H298 H 0.7287 0.83478 0.69397 0.0
C299 C 0.74009 0.80033 0.71666 0.0
C300 C 0.7929 0.19566 0.30691 0.0
C301 C 0.77394 0.17776 0.31437 0.0
C302 C 0.74981 0.18218 0.30369 0.0
C303 C 0.76383 0.22095 0.27818 0.0
C304 C 0.78743 0.21703 0.28887 0.0
C305 C 0.80527 0.23799 0.27883 0.0
H306 H 0.82415 0.35181 0.20547 0.0
C307 C 0.76422 0.24476 0.25997 0.0
C308 C 0.7885 0.25493 0.2603 0.0
H309 H 0.8781 0.30784 0.25395 0.0
H310 H 0.84723 0.27432 0.26439 0.0
H311 H 0.77902 0.34529 0.24821 0.0
H312 H 0.80197 0.30265 0.17421 0.0
H313 H 0.76947 0.30143 0.17394 0.0
H314 H 0.78495 0.33303 0.17179 0.0
H315 H 0.7768 0.35834 0.21299 0.0
H316 H 0.75217 0.33897 0.22826 0.0
C317 C 0.81472 0.25332 0.30501 0.0
C318 C 0.826 0.2244 0.26144 0.0
C319 C 0.68593 0.27404 0.20779 0.0
C320 C 0.68111 0.29473 0.18849 0.0
C321 C 0.70037 0.31265 0.18218 0.0
C322 C 0.72386 0.30994 0.19446 0.0
C323 C 0.72847 0.28897 0.21323 0.0
C324 C 0.70968 0.27147 0.21971 0.0
C325 C 0.71829 0.25007 0.23966 0.0
C326 C 0.74542 0.25748 0.24373 0.0
C327 C 0.75113 0.28035 0.22828 0.0
C328 C 0.7033 0.25259 0.26749 0.0
C329 C 0.71541 0.22311 0.22448 0.0
C330 C 0.82931 0.33498 0.21839 0.0
C331 C 0.85345 0.33257 0.22916 0.0
C332 C 0.85959 0.31008 0.24537 0.0
C333 C 0.84159 0.29078 0.25158 0.0
C334 C 0.81724 0.29395 0.24131 0.0
C335 C 0.81168 0.31558 0.22459 0.0
C336 C 0.78524 0.31563 0.21474 0.0
C337 C 0.77551 0.29085 0.2289 0.0
C338 C 0.79421 0.27818 0.24459 0.0
C339 C 0.7725 0.34089 0.22638 0.0
C340 C 0.7852 0.31325 0.182 0.0
H341 H 0.72598 0.20561 0.27839 0.0
H342 H 0.81165 0.19294 0.31458 0.0
H343 H 0.81832 0.20792 0.24857 0.0
H344 H 0.8348 0.23781 0.246 0.0
H345 H 0.84053 0.21603 0.2755 0.0
H346 H 0.79933 0.25682 0.32025 0.0
H347 H 0.82942 0.24201 0.31619 0.0
H348 H 0.8219 0.27312 0.29977 0.0
H349 H 0.67161 0.26001 0.21345 0.0
H350 H 0.69758 0.32844 0.16706 0.0
H351 H 0.73763 0.32418 0.18853 0.0
H352 H 0.6991 0.27366 0.27229 0.0
H353 H 0.68535 0.24192 0.26602 0.0
H354 H 0.7136 0.2454 0.28616 0.0
H355 H 0.72035 0.22488 0.2017 0.0
H356 H 0.72791 0.20771 0.23286 0.0
H357 H 0.69598 0.21591 0.22574 0.0
H358 H 0.73465 0.16925 0.30951 0.0
C359 C 0.74471 0.20351 0.28571 0.0
C360 C 0.2785 0.20068 0.68945 0.0
C361 C 0.25836 0.19436 0.67169 0.0
C362 C 0.23662 0.20992 0.6735 0.0
C363 C 0.25458 0.23604 0.71131 0.0
C364 C 0.27621 0.22149 0.70896 0.0
C365 C 0.2957 0.23057 0.72962 0.0
H366 H 0.32723 0.30676 0.84189 0.0
C367 C 0.2577 0.25527 0.73466 0.0
C368 C 0.28184 0.25218 0.74544 0.0
H369 H 0.37399 0.25279 0.79488 0.0
H370 H 0.34012 0.24307 0.76336 0.0
H371 H 0.28046 0.27269 0.8433 0.0
H372 H 0.30198 0.33361 0.78486 0.0
H373 H 0.27067 0.33879 0.79378 0.0
H374 H 0.2939 0.33978 0.8211 0.0
H375 H 0.27653 0.30705 0.85151 0.0
H376 H 0.25287 0.28849 0.83317 0.0
C377 C 0.30233 0.20704 0.74917 0.0
C378 C 0.31795 0.24169 0.71259 0.0
C379 C 0.18623 0.31584 0.7635 0.0
C380 C 0.18301 0.33383 0.78606 0.0
C381 C 0.20249 0.33666 0.80581 0.0
C382 C 0.22482 0.32281 0.80268 0.0
C383 C 0.22787 0.30548 0.77977 0.0
C384 C 0.20859 0.30175 0.76099 0.0
C385 C 0.2147 0.28105 0.7391 0.0
C386 C 0.24112 0.27372 0.74735 0.0
C387 C 0.24875 0.28837 0.77101 0.0
C388 C 0.19649 0.25765 0.74309 0.0
C389 C 0.21363 0.29412 0.70951 0.0
C390 C 0.33039 0.29317 0.82457 0.0
C391 C 0.35342 0.28041 0.82121 0.0
C392 C 0.35638 0.26257 0.79846 0.0
C393 C 0.3367 0.25702 0.77999 0.0
C394 C 0.3137 0.2695 0.78406 0.0
C395 C 0.31098 0.28754 0.80579 0.0
C396 C 0.28539 0.29936 0.80657 0.0
C397 C 0.27322 0.28549 0.7817 0.0
C398 C 0.28979 0.2678 0.76875 0.0
C399 C 0.27308 0.29178 0.83511 0.0
C400 C 0.2879 0.32951 0.80151 0.0
H401 H 0.21756 0.24151 0.69346 0.0
H402 H 0.29549 0.18927 0.68876 0.0
H403 H 0.31185 0.24995 0.69191 0.0
H404 H 0.32712 0.25842 0.72339 0.0
H405 H 0.3319 0.22606 0.70815 0.0
H406 H 0.28523 0.19647 0.75594 0.0
H407 H 0.31443 0.19261 0.73806 0.0
H408 H 0.3116 0.21316 0.76889 0.0
H409 H 0.17187 0.31294 0.74782 0.0
H410 H 0.20053 0.34948 0.82399 0.0
H411 H 0.23884 0.32611 0.81836 0.0
H412 H 0.19163 0.25499 0.76579 0.0
H413 H 0.17895 0.26105 0.7313 0.0
H414 H 0.20447 0.23848 0.73664 0.0
H415 H 0.22173 0.31433 0.71017 0.0
H416 H 0.22457 0.28334 0.69348 0.0
H417 H 0.19418 0.29593 0.702 0.0
H418 H 0.22103 0.20614 0.65966 0.0
C419 C 0.23464 0.2306 0.69312 0.0
C420 C 0.18554 0.69671 0.2438 0.0
C421 C 0.18226 0.67568 0.22459 0.0
C422 C 0.2023 0.66835 0.20707 0.0
C423 C 0.22812 0.7023 0.22806 0.0
C424 C 0.20855 0.70964 0.24519 0.0
C425 C 0.21538 0.73202 0.26473 0.0
H426 H 0.3025 0.81647 0.31531 0.0
C427 C 0.24953 0.71941 0.23489 0.0
C428 C 0.24224 0.73693 0.25634 0.0
H429 H 0.22564 0.80873 0.34059 0.0
H430 H 0.21953 0.77489 0.30582 0.0
H431 H 0.29052 0.81459 0.24855 0.0
H432 H 0.31404 0.75297 0.30577 0.0
H433 H 0.33243 0.75216 0.27486 0.0
H434 H 0.333 0.78101 0.29704 0.0
H435 H 0.322 0.81224 0.26066 0.0
H436 H 0.31124 0.79399 0.23023 0.0
C437 C 0.19855 0.75598 0.2577 0.0
C438 C 0.21312 0.72188 0.29555 0.0
C439 C 0.33017 0.70653 0.18138 0.0
C440 C 0.35288 0.72021 0.18083 0.0
C441 C 0.35614 0.74157 0.19979 0.0
C442 C 0.33722 0.74911 0.21863 0.0
C443 C 0.31455 0.73543 0.21844 0.0
C444 C 0.31134 0.71464 0.19985 0.0
C445 C 0.28571 0.70316 0.20131 0.0
C446 C 0.274 0.7204 0.2239 0.0
C447 C 0.291 0.7391 0.23422 0.0
C448 C 0.27317 0.70702 0.17204 0.0
C449 C 0.288 0.67399 0.21102 0.0
C450 C 0.28433 0.80759 0.31331 0.0
C451 C 0.26471 0.81512 0.33141 0.0
C452 C 0.24136 0.80293 0.32776 0.0
C453 C 0.23773 0.78331 0.3073 0.0
C454 C 0.25755 0.77564 0.28989 0.0
C455 C 0.28031 0.78791 0.29276 0.0
C456 C 0.29894 0.77766 0.27157 0.0
C457 C 0.28376 0.75675 0.25622 0.0
C458 C 0.2595 0.75567 0.26712 0.0
C459 C 0.30632 0.80072 0.25173 0.0
C460 C 0.32092 0.76538 0.28799 0.0
H461 H 0.23956 0.67473 0.19489 0.0
H462 H 0.17055 0.70305 0.25746 0.0
H463 H 0.21941 0.70097 0.29717 0.0
H464 H 0.22495 0.73279 0.31057 0.0
H465 H 0.19358 0.72273 0.303 0.0
H466 H 0.1944 0.75683 0.23466 0.0
H467 H 0.18058 0.75473 0.26913 0.0
H468 H 0.20741 0.77515 0.26248 0.0
H469 H 0.32685 0.68981 0.16762 0.0
H470 H 0.37312 0.75297 0.19971 0.0
H471 H 0.34085 0.76553 0.23238 0.0
H472 H 0.2801 0.72515 0.16132 0.0
H473 H 0.27698 0.69002 0.15782 0.0
H474 H 0.2529 0.71004 0.17355 0.0
H475 H 0.30308 0.67169 0.2269 0.0
H476 H 0.27117 0.66663 0.22175 0.0
H477 H 0.29239 0.66081 0.1929 0.0
H478 H 0.20059 0.65196 0.19248 0.0
C479 C 0.2251 0.6815 0.20868 0.0
C480 C 0.97482 0.48141 0.21714 0.0
C481 C 0.03617 0.55301 0.22081 0.0
O482 O 0.98013 0.48922 0.24214 0.0
Zn483 Zn 0.00381 0.51651 0.26288 0.0
O484 O 0.98567 0.4917 0.19592 0.0
Zn485 Zn 0.00573 0.51713 0.21724 0.0
O486 O 0.03173 0.49197 0.23745 0.0
O487 O 0.02655 0.49338 0.28368 0.0
O488 O 0.02777 0.54209 0.19852 0.0
O489 O 0.02851 0.54522 0.24511 0.0
O490 O 0.97932 0.5382 0.2822 0.0
O491 O 0.97865 0.54287 0.23565 0.0
C492 C 0.03811 0.48442 0.26224 0.0
C493 C 0.97026 0.54898 0.26017 0.0
C494 C 0.96718 0.45765 0.75038 0.0
C495 C 0.0394 0.51618 0.74302 0.0
O496 O 0.97613 0.46484 0.77425 0.0
Zn497 Zn 0.00492 0.48913 0.7905 0.0
O498 O 0.97716 0.4659 0.72764 0.0
Zn499 Zn 0.00336 0.48692 0.74511 0.0
O500 O 0.02642 0.45777 0.76511 0.0
O501 O 0.02569 0.4645 0.81128 0.0
O502 O 0.02756 0.50617 0.72232 0.0
O503 O 0.03244 0.51121 0.76838 0.0
O504 O 0.98614 0.51653 0.81005 0.0
O505 O 0.98311 0.51897 0.76352 0.0
C506 C 0.03362 0.4515 0.79008 0.0
C507 C 0.97786 0.52808 0.78808 0.0
C508 C 0.21917 0.97228 0.54256 0.0
C509 C 0.22489 0.03043 0.46101 0.0
O510 O 0.20134 0.9807 0.52743 0.0
Zn511 Zn 0.22135 1.00103 0.50165 0.0
O512 O 0.2416 0.97853 0.53642 0.0
Zn513 Zn 0.261 1.00131 0.5051 0.0
O514 O 0.27721 0.02822 0.5283 0.0
O515 O 0.23639 0.03119 0.52865 0.0
O516 O 0.24605 0.02433 0.47149 0.0
O517 O 0.20522 0.0213 0.47213 0.0
O518 O 0.23985 0.97034 0.47874 0.0
O519 O 0.28026 0.97472 0.48429 0.0
C520 C 0.25758 0.0396 0.53707 0.0
C521 C 0.26197 0.96238 0.47359 0.0
C522 C 0.53785 0.73896 0.0168 0.0
C523 C 0.4663 0.73586 0.95269 0.0
O524 O 0.53093 0.71567 0.00971 0.0
Zn525 Zn 0.50374 0.69643 0.98435 0.0
O526 O 0.52611 0.75899 0.00735 0.0
Zn527 Zn 0.5019 0.73923 0.9852 0.0
O528 O 0.48181 0.7199 0.0179 0.0
O529 O 0.48457 0.67661 0.01248 0.0
O530 O 0.47578 0.75664 0.96329 0.0
O531 O 0.47536 0.71323 0.9591 0.0
O532 O 0.52499 0.67921 0.95624 0.0
O533 O 0.52525 0.72277 0.95336 0.0
C534 C 0.47646 0.6965 0.02616 0.0
C535 C 0.53282 0.70026 0.94442 0.0
C536 C 0.77372 0.97209 0.54015 0.0
C537 C 0.78003 0.03433 0.45994 0.0
O538 O 0.75285 0.98009 0.5303 0.0
Zn539 Zn 0.73856 0.00603 0.49828 0.0
O540 O 0.79375 0.98129 0.52977 0.0
Zn541 Zn 0.77839 0.00383 0.50087 0.0
O542 O 0.76164 0.0342 0.52535 0.0
O543 O 0.72102 0.03284 0.51971 0.0
O544 O 0.79811 0.02453 0.47376 0.0
O545 O 0.75778 0.02861 0.46718 0.0
O546 O 0.72022 0.98167 0.47484 0.0
O547 O 0.76077 0.97455 0.47512 0.0
C548 C 0.74003 0.04348 0.53079 0.0
C549 C 0.73889 0.9681 0.46706 0.0
C550 C 0.53365 0.29886 0.06029 0.0
C551 C 0.47881 0.29791 0.97684 0.0
O552 O 0.52661 0.27591 0.05219 0.0
Zn553 Zn 0.50444 0.25768 0.02059 0.0
O554 O 0.52596 0.31929 0.04713 0.0
Zn555 Zn 0.50568 0.30069 0.01903 0.0
O556 O 0.47673 0.28456 0.04403 0.0
O557 O 0.47802 0.24097 0.04252 0.0
O558 O 0.4869 0.31873 0.98887 0.0
O559 O 0.48433 0.27524 0.98707 0.0
O560 O 0.52929 0.23741 0.99957 0.0
O561 O 0.53367 0.28067 0.99567 0.0
C562 C 0.46782 0.26213 0.05137 0.0
C563 C 0.54103 0.25724 0.98973 0.0
H564 H 0.14632 0.36662 0.316 0.0
H565 H 0.06828 0.46694 0.22021 0.0
H566 H 0.15253 0.37315 0.22521 0.0
H567 H 0.05572 0.45874 0.31001 0.0
H568 H 0.10156 0.43492 0.22317 0.0
H569 H 0.11553 0.40229 0.31559 0.0
C570 C 0.1413 0.37557 0.29599 0.0
C571 C 0.15204 0.36673 0.27056 0.0
C572 C 0.09164 0.44005 0.24232 0.0
C573 C 0.11696 0.40768 0.27004 0.0
C574 C 0.07251 0.4584 0.24067 0.0
C575 C 0.05896 0.46546 0.2649 0.0
C576 C 0.09745 0.42839 0.2684 0.0
C577 C 0.0656 0.45381 0.29079 0.0
C578 C 0.12378 0.39599 0.29582 0.0
C579 C 0.14509 0.37942 0.24538 0.0
N580 N 0.08435 0.4357 0.29185 0.0
N581 N 0.12796 0.39909 0.24578 0.0
H582 H 0.15778 0.62458 0.77748 0.0
H583 H 0.05604 0.53998 0.69383 0.0
H584 H 0.14571 0.63259 0.68759 0.0
H585 H 0.0721 0.53253 0.78296 0.0
H586 H 0.09046 0.57165 0.68962 0.0
H587 H 0.12841 0.5882 0.77842 0.0
C588 C 0.14925 0.61847 0.75782 0.0
C589 C 0.15424 0.63183 0.73244 0.0
C590 C 0.08647 0.56289 0.71001 0.0
C591 C 0.1199 0.59032 0.73347 0.0
C592 C 0.06688 0.54481 0.7124 0.0
C593 C 0.061 0.5338 0.73882 0.0
C594 C 0.1002 0.56984 0.73421 0.0
C595 C 0.07568 0.54072 0.7622 0.0
C596 C 0.13225 0.59776 0.7584 0.0
C597 C 0.14213 0.6232 0.70775 0.0
N598 N 0.09444 0.55832 0.75935 0.0
N599 N 0.12539 0.60311 0.7089 0.0
H600 H 0.82181 0.61104 0.25712 0.0
H601 H 0.96508 0.59441 0.23051 0.0
H602 H 0.86849 0.67863 0.24174 0.0
H603 H 0.92822 0.54595 0.29262 0.0
H604 H 0.92855 0.62322 0.22866 0.0
H605 H 0.85923 0.58377 0.26421 0.0
C606 C 0.83997 0.62001 0.2551 0.0
C607 C 0.84226 0.64696 0.24874 0.0
C608 C 0.92857 0.60645 0.24292 0.0
C609 C 0.88473 0.61617 0.25655 0.0
C610 C 0.94934 0.59007 0.244 0.0
C611 C 0.94961 0.56799 0.26191 0.0
C612 C 0.90762 0.60022 0.25919 0.0
C613 C 0.92875 0.56303 0.27883 0.0
C614 C 0.86119 0.60459 0.25938 0.0
C615 C 0.86608 0.65787 0.24658 0.0
N616 N 0.90834 0.57882 0.27674 0.0
N617 N 0.88643 0.64237 0.25016 0.0
H618 H 0.84588 0.35777 0.80243 0.0
H619 H 0.93753 0.44344 0.70519 0.0
H620 H 0.83121 0.37397 0.71433 0.0
H621 H 0.94597 0.43277 0.7953 0.0
H622 H 0.89961 0.41655 0.70699 0.0
H623 H 0.88337 0.38439 0.79935 0.0
C624 C 0.85036 0.36716 0.78248 0.0
C625 C 0.83522 0.36364 0.75865 0.0
C626 C 0.90985 0.42012 0.72631 0.0
C627 C 0.87865 0.39388 0.75478 0.0
C628 C 0.93153 0.43536 0.72527 0.0
C629 C 0.94495 0.44045 0.75013 0.0
C630 C 0.90167 0.40984 0.75235 0.0
C631 C 0.93624 0.42953 0.77558 0.0
C632 C 0.87195 0.38222 0.78066 0.0
C633 C 0.84243 0.37587 0.73319 0.0
N634 N 0.91523 0.41482 0.77601 0.0
N635 N 0.86363 0.39041 0.73192 0.0
H636 H 0.18499 0.14518 0.33169 0.0
H637 H 0.26371 0.04657 0.4288 0.0
H638 H 0.26454 0.13562 0.32813 0.0
H639 H 0.18427 0.05487 0.43686 0.0
H640 H 0.26321 0.0775 0.38971 0.0
H641 H 0.18326 0.11092 0.36841 0.0
C642 C 0.20205 0.13586 0.33855 0.0
C643 C 0.22494 0.1432 0.3267 0.0
C644 C 0.24581 0.07261 0.39989 0.0
C645 C 0.22306 0.10406 0.36844 0.0
C646 C 0.24608 0.05489 0.42232 0.0
C647 C 0.224 0.04825 0.4363 0.0
C648 C 0.22331 0.08402 0.39128 0.0
C649 C 0.20172 0.05952 0.42669 0.0
C650 C 0.20103 0.11626 0.35939 0.0
C651 C 0.24642 0.13031 0.3362 0.0
N652 N 0.20195 0.07704 0.40481 0.0
N653 N 0.24494 0.11149 0.35649 0.0
H654 H 0.35085 0.69077 0.83646 0.0
H655 H 0.43608 0.77831 0.93917 0.0
H656 H 0.3326 0.77118 0.85896 0.0
H657 H 0.44743 0.6954 0.92172 0.0
H658 H 0.39953 0.77762 0.908 0.0
H659 H 0.38761 0.69343 0.86616 0.0
C660 C 0.35445 0.70895 0.84783 0.0
C661 C 0.33845 0.7307 0.8453 0.0
C662 C 0.41012 0.75965 0.91103 0.0
C663 C 0.38097 0.73408 0.8792 0.0
C664 C 0.431 0.76006 0.92873 0.0
C665 C 0.4448 0.73687 0.93319 0.0
C666 C 0.40319 0.73593 0.89766 0.0
C667 C 0.43734 0.71375 0.91914 0.0
C668 C 0.37559 0.71053 0.86468 0.0
C669 C 0.3445 0.75396 0.86008 0.0
N670 N 0.41712 0.71389 0.90212 0.0
N671 N 0.36526 0.75503 0.87643 0.0
H672 H 0.72164 0.86335 0.32628 0.0
H673 H 0.76663 0.9237 0.46984 0.0
H674 H 0.75138 0.81445 0.39321 0.0
H675 H 0.70461 0.95813 0.4254 0.0
H676 H 0.76389 0.88474 0.43962 0.0
H677 H 0.71711 0.89956 0.36 0.0
C678 C 0.72691 0.86001 0.34809 0.0
C679 C 0.73711 0.83572 0.35679 0.0
C680 C 0.75072 0.90069 0.43663 0.0
C681 C 0.73251 0.87743 0.39517 0.0
C682 C 0.75237 0.92297 0.4537 0.0
C683 C 0.7359 0.94412 0.44988 0.0
C684 C 0.73286 0.89982 0.41512 0.0
C685 C 0.71761 0.94214 0.42893 0.0
C686 C 0.72436 0.88078 0.36726 0.0
C687 C 0.74402 0.83293 0.38528 0.0
N688 N 0.7168 0.92045 0.41193 0.0
N689 N 0.74187 0.85363 0.40335 0.0
H690 H 0.65173 0.20622 0.86721 0.0
H691 H 0.57338 0.29563 0.97422 0.0
H692 H 0.65535 0.29141 0.87149 0.0
H693 H 0.55877 0.21242 0.96273 0.0
H694 H 0.60738 0.29261 0.94087 0.0
H695 H 0.62134 0.20658 0.90573 0.0
C696 C 0.64622 0.225 0.87624 0.0
C697 C 0.65608 0.24886 0.86588 0.0
C698 C 0.59686 0.27492 0.9456 0.0
C699 C 0.62156 0.24929 0.91022 0.0
C700 C 0.57735 0.27661 0.96472 0.0
C701 C 0.56294 0.25428 0.97108 0.0
C702 C 0.60216 0.25073 0.93247 0.0
C703 C 0.56932 0.23014 0.95833 0.0
C704 C 0.62894 0.22513 0.89831 0.0
C705 C 0.64858 0.27249 0.87887 0.0
N706 N 0.5884 0.22903 0.93941 0.0
N707 N 0.63174 0.27208 0.90021 0.0
H708 H 0.23061 0.88791 0.70045 0.0
H709 H 0.18341 0.93427 0.54845 0.0
H710 H 0.20338 0.83277 0.63792 0.0
H711 H 0.24494 0.9707 0.59173 0.0
H712 H 0.17998 0.90205 0.5873 0.0
H713 H 0.22538 0.92367 0.66624 0.0
C714 C 0.22346 0.88324 0.67965 0.0
C715 C 0.21787 0.85706 0.67201 0.0
C716 C 0.19397 0.91737 0.58834 0.0
C717 C 0.21108 0.89815 0.63322 0.0
C718 C 0.19585 0.93575 0.56636 0.0
C719 C 0.21462 0.95489 0.56693 0.0
C720 C 0.21059 0.91872 0.61115 0.0
C721 C 0.2304 0.95599 0.59045 0.0
C722 C 0.22031 0.90372 0.66027 0.0
C723 C 0.20783 0.85254 0.64498 0.0
N724 N 0.22804 0.93813 0.61167 0.0
N725 N 0.20487 0.87287 0.6265 0.0
H726 H 0.65443 0.70325 0.13528 0.0
H727 H 0.55891 0.78439 0.03868 0.0
H728 H 0.65346 0.7885 0.13105 0.0
H729 H 0.5661 0.69934 0.03859 0.0
H730 H 0.59419 0.7869 0.07146 0.0
H731 H 0.62316 0.70184 0.09805 0.0
C732 C 0.64791 0.72168 0.12627 0.0
C733 C 0.65646 0.74602 0.13652 0.0
C734 C 0.58805 0.76773 0.06409 0.0
C735 C 0.62019 0.74461 0.09419 0.0
C736 C 0.5679 0.7663 0.04545 0.0
C737 C 0.55941 0.74164 0.03597 0.0
C738 C 0.59966 0.74432 0.0733 0.0
C739 C 0.57184 0.71883 0.04538 0.0
C740 C 0.62988 0.72089 0.10513 0.0
C741 C 0.64703 0.76928 0.12421 0.0
N742 N 0.59119 0.72074 0.06353 0.0
N743 N 0.62928 0.76801 0.10385 0.0
H744 H 0.7766 0.17961 0.63058 0.0
H745 H 0.69783 0.06987 0.54824 0.0
H746 H 0.69666 0.17615 0.63486 0.0
H747 H 0.77775 0.07099 0.55488 0.0
H748 H 0.69611 0.1099 0.57765 0.0
H749 H 0.77647 0.14141 0.59954 0.0
C750 C 0.75895 0.17103 0.62467 0.0
C751 C 0.7366 0.1812 0.63524 0.0
C752 C 0.71396 0.10126 0.57262 0.0
C753 C 0.73633 0.13684 0.60005 0.0
C754 C 0.71496 0.07845 0.55591 0.0
C755 C 0.73795 0.06704 0.5491 0.0
C756 C 0.73613 0.11269 0.58237 0.0
C757 C 0.75957 0.07899 0.55954 0.0
C758 C 0.7589 0.14899 0.60713 0.0
C759 C 0.71434 0.16879 0.62734 0.0
N760 N 0.7581 0.10111 0.57555 0.0
N761 N 0.71475 0.14719 0.6102 0.0
H762 H 0.34611 0.30995 0.15828 0.0
H763 H 0.43652 0.22036 0.06345 0.0
H764 H 0.32794 0.2302 0.13328 0.0
H765 H 0.44774 0.30338 0.08021 0.0
H766 H 0.39794 0.2222 0.09116 0.0
H767 H 0.38438 0.30691 0.13106 0.0
C768 C 0.34999 0.29188 0.14682 0.0
C769 C 0.33367 0.27034 0.1481 0.0
C770 C 0.40894 0.23996 0.08876 0.0
C771 C 0.37792 0.26648 0.11722 0.0
C772 C 0.431 0.23887 0.07309 0.0
C773 C 0.44534 0.26175 0.06939 0.0
C774 C 0.40136 0.26404 0.10091 0.0
C775 C 0.43725 0.28525 0.08228 0.0
C776 C 0.37201 0.29006 0.13144 0.0
C777 C 0.34009 0.24722 0.13323 0.0
N778 N 0.41587 0.28577 0.09737 0.0
N779 N 0.36172 0.24588 0.11847 0.0
H780 H 0.90468 0.67889 0.76238 0.0
H781 H 0.9402 0.53803 0.82564 0.0
H782 H 0.84859 0.62275 0.78828 0.0
H783 H 0.97901 0.57141 0.75434 0.0
H784 H 0.91059 0.57518 0.8237 0.0
H785 H 0.93626 0.64497 0.77012 0.0
C786 C 0.89883 0.65959 0.76963 0.0
C787 C 0.87362 0.65392 0.77443 0.0
C788 C 0.92582 0.57443 0.80878 0.0
C789 C 0.91009 0.61539 0.7845 0.0
C790 C 0.94274 0.55344 0.81 0.0
C791 C 0.96192 0.55173 0.79005 0.0
C792 C 0.92862 0.59405 0.78797 0.0
C793 C 0.96433 0.57201 0.76998 0.0
C794 C 0.91699 0.64034 0.7743 0.0
C795 C 0.86763 0.62854 0.78472 0.0
N796 N 0.94792 0.5924 0.76949 0.0
N797 N 0.88571 0.6103 0.78947 0.0
H798 H 0.90207 0.32945 0.21138 0.0
H799 H 0.93105 0.47958 0.24449 0.0
H800 H 0.84576 0.38519 0.23687 0.0
H801 H 0.97521 0.43662 0.18392 0.0
H802 H 0.90108 0.4435 0.24497 0.0
H803 H 0.93112 0.3665 0.20447 0.0
C804 C 0.89587 0.34944 0.21552 0.0
C805 C 0.8715 0.35431 0.22469 0.0
C806 C 0.91714 0.44201 0.23129 0.0
C807 C 0.90443 0.39647 0.21698 0.0
C808 C 0.93423 0.46259 0.231 0.0
C809 C 0.95548 0.46105 0.21402 0.0
C810 C 0.9216 0.4193 0.21502 0.0
C811 C 0.95885 0.43859 0.19705 0.0
C812 C 0.91232 0.37052 0.21134 0.0
C813 C 0.86431 0.38058 0.22957 0.0
N814 N 0.94221 0.4183 0.19827 0.0
N815 N 0.88073 0.40059 0.2259 0.0
H816 H 0.17759 0.38409 0.8079 0.0
H817 H 0.04109 0.40844 0.7565 0.0
H818 H 0.13494 0.3206 0.77082 0.0
H819 H 0.0701 0.4479 0.83024 0.0
H820 H 0.07628 0.37775 0.75788 0.0
H821 H 0.13967 0.40981 0.81276 0.0
C822 C 0.16033 0.37527 0.80108 0.0
C823 C 0.15975 0.34982 0.78904 0.0
C824 C 0.07474 0.39289 0.77398 0.0
C825 C 0.11616 0.37994 0.79378 0.0
C826 C 0.05471 0.4104 0.77321 0.0
C827 C 0.0527 0.43071 0.79331 0.0
C828 C 0.09325 0.39617 0.79452 0.0
C829 C 0.07087 0.43241 0.81447 0.0
C830 C 0.13865 0.39015 0.80378 0.0
C831 C 0.13664 0.34018 0.77978 0.0
N832 N 0.09065 0.41564 0.81424 0.0
N833 N 0.11584 0.35534 0.78209 0.0
H834 H 0.15208 0.66123 0.26873 0.0
H835 H 0.06175 0.57172 0.1743 0.0
H836 H 0.1583 0.65553 0.17788 0.0
H837 H 0.05478 0.58181 0.26463 0.0
H838 H 0.09571 0.60404 0.17431 0.0
H839 H 0.1148 0.6341 0.26683 0.0
C840 C 0.14547 0.65457 0.24831 0.0
C841 C 0.15852 0.66064 0.22345 0.0
C842 C 0.0866 0.59926 0.19407 0.0
C843 C 0.11587 0.62898 0.22116 0.0
C844 C 0.06719 0.58084 0.19406 0.0
C845 C 0.05547 0.57386 0.21951 0.0
C846 C 0.09431 0.61072 0.21971 0.0
C847 C 0.06333 0.58636 0.2445 0.0
C848 C 0.12422 0.63887 0.24726 0.0
C849 C 0.14915 0.65099 0.19767 0.0
N850 N 0.08226 0.604 0.24396 0.0
N851 N 0.1285 0.63554 0.19721 0.0
H852 H 0.80772 0.85325 0.66941 0.0
H853 H 0.73361 0.94732 0.56287 0.0
H854 H 0.73123 0.84237 0.64502 0.0
H855 H 0.81359 0.94855 0.56762 0.0
H856 H 0.73286 0.91135 0.59674 0.0
H857 H 0.81085 0.88966 0.63516 0.0
C858 C 0.79163 0.85833 0.65681 0.0
C859 C 0.76906 0.84477 0.66047 0.0
C860 C 0.75063 0.91939 0.59047 0.0
C861 C 0.77249 0.88671 0.62158 0.0
C862 C 0.75111 0.94013 0.57112 0.0
C863 C 0.77373 0.95109 0.5622 0.0
C864 C 0.77293 0.90933 0.60137 0.0
C865 C 0.79572 0.94074 0.57384 0.0
C866 C 0.79344 0.87922 0.63737 0.0
C867 C 0.74885 0.85252 0.64362 0.0
N868 N 0.79478 0.92042 0.59286 0.0
N869 N 0.75103 0.87294 0.62515 0.0
H870 H 0.65578 0.33987 0.17249 0.0
H871 H 0.54731 0.25943 0.09611 0.0
H872 H 0.65059 0.25469 0.17031 0.0
H873 H 0.56189 0.34158 0.07781 0.0
H874 H 0.58079 0.25959 0.13042 0.0
H875 H 0.61782 0.3426 0.14423 0.0
C876 C 0.64672 0.32172 0.16617 0.0
C877 C 0.6567 0.29696 0.17371 0.0
C878 C 0.57665 0.27767 0.11907 0.0
C879 C 0.61287 0.30011 0.1418 0.0
C880 C 0.55743 0.27765 0.09944 0.0
C881 C 0.55191 0.30048 0.08371 0.0
C882 C 0.59065 0.30067 0.12321 0.0
C883 C 0.56556 0.32351 0.08936 0.0
C884 C 0.62496 0.32337 0.15015 0.0
C885 C 0.64364 0.27423 0.16542 0.0
N886 N 0.58448 0.32298 0.10852 0.0
N887 N 0.62254 0.27638 0.14989 0.0
H888 H 0.2982 0.17611 0.64024 0.0
H889 H 0.21874 0.06307 0.56412 0.0
H890 H 0.22123 0.15953 0.65819 0.0
H891 H 0.29837 0.06784 0.55589 0.0
H892 H 0.21964 0.10014 0.59673 0.0
H893 H 0.29904 0.13814 0.608 0.0
C894 C 0.2815 0.1645 0.63756 0.0
C895 C 0.25953 0.17131 0.65193 0.0
C896 C 0.23698 0.09314 0.5879 0.0
C897 C 0.26036 0.12795 0.61472 0.0
C898 C 0.23649 0.07192 0.56913 0.0
C899 C 0.25853 0.06222 0.55713 0.0
C900 C 0.25966 0.10511 0.5948 0.0
C901 C 0.28093 0.0746 0.56464 0.0
C902 C 0.282 0.14287 0.61903 0.0
C903 C 0.23846 0.15558 0.64723 0.0
N904 N 0.28092 0.09548 0.58294 0.0
N905 N 0.23941 0.1348 0.62907 0.0
H906 H 0.40383 0.72345 0.18671 0.0
H907 H 0.43635 0.66391 0.03442 0.0
H908 H 0.34734 0.69986 0.12696 0.0
H909 H 0.48075 0.72358 0.07516 0.0
H910 H 0.40682 0.66609 0.07424 0.0
H911 H 0.43542 0.71348 0.15118 0.0
C912 C 0.39794 0.71622 0.16625 0.0
C913 C 0.37263 0.71278 0.16 0.0
C914 C 0.42327 0.67835 0.07457 0.0
C915 C 0.409 0.7004 0.11956 0.0
C916 C 0.44016 0.67694 0.05206 0.0
C917 C 0.46088 0.69364 0.05162 0.0
C918 C 0.42757 0.69615 0.09689 0.0
C919 C 0.46489 0.71048 0.07474 0.0
C920 C 0.41607 0.71029 0.14608 0.0
C921 C 0.36647 0.70252 0.13318 0.0
N922 N 0.4484 0.71132 0.09644 0.0
N923 N 0.38449 0.69672 0.11401 0.0
H924 H 0.75479 0.12772 0.3103 0.0
H925 H 0.81776 0.07043 0.45126 0.0
H926 H 0.80448 0.17455 0.36136 0.0
H927 H 0.75025 0.04059 0.41429 0.0
H928 H 0.81955 0.10434 0.41375 0.0
H929 H 0.75951 0.09126 0.34351 0.0
C930 C 0.76669 0.13042 0.32852 0.0
C931 C 0.77883 0.15458 0.33323 0.0
C932 C 0.80452 0.09015 0.41379 0.0
C933 C 0.78469 0.11239 0.37132 0.0
C934 C 0.8036 0.07072 0.43501 0.0
C935 C 0.78376 0.05277 0.43593 0.0
C936 C 0.78573 0.0912 0.39316 0.0
C937 C 0.76577 0.05416 0.41453 0.0
C938 C 0.76947 0.10947 0.34743 0.0
C939 C 0.7947 0.15637 0.35681 0.0
N940 N 0.76719 0.07298 0.39412 0.0
N941 N 0.79704 0.13563 0.3751 0.0
H942 H 0.38636 0.24387 0.84163 0.0
H943 H 0.4505 0.33925 0.95537 0.0
H944 H 0.36695 0.32645 0.84882 0.0
H945 H 0.47071 0.25791 0.94007 0.0
H946 H 0.42117 0.33672 0.91539 0.0
H947 H 0.41865 0.25022 0.87663 0.0
C948 C 0.38905 0.26348 0.85026 0.0
C949 C 0.37384 0.28464 0.84202 0.0
C950 C 0.43222 0.31956 0.92077 0.0
C951 C 0.41079 0.29201 0.88308 0.0
C952 C 0.449 0.32103 0.94347 0.0
C953 C 0.46287 0.29868 0.9513 0.0
C954 C 0.4295 0.29561 0.9059 0.0
C955 C 0.46018 0.27556 0.93516 0.0
C956 C 0.40748 0.26708 0.87053 0.0
C957 C 0.37799 0.30944 0.85472 0.0
N958 N 0.44381 0.27463 0.91347 0.0
N959 N 0.396 0.31243 0.8747 0.0
H960 H 0.2934 0.86059 0.33038 0.0
H961 H 0.23056 0.921 0.46739 0.0
H962 H 0.24402 0.8163 0.38448 0.0
H963 H 0.30081 0.95065 0.43747 0.0
H964 H 0.23391 0.88408 0.43451 0.0
H965 H 0.29579 0.89504 0.36685 0.0
C966 C 0.28326 0.85789 0.34994 0.0
C967 C 0.26813 0.83554 0.354 0.0
C968 C 0.24874 0.89849 0.43522 0.0
C969 C 0.27051 0.8752 0.39557 0.0
C970 C 0.24681 0.91964 0.45396 0.0
C971 C 0.26543 0.93895 0.45517 0.0
C972 C 0.26922 0.89674 0.41697 0.0
C973 C 0.28611 0.9361 0.4373 0.0
C974 C 0.2846 0.87765 0.37071 0.0
C975 C 0.25532 0.83341 0.37983 0.0
N976 N 0.28731 0.91555 0.41862 0.0
N977 N 0.25659 0.85305 0.39937 0.0
H978 H 0.66001 0.66488 0.83748 0.0
H979 H 0.54697 0.74111 0.91075 0.0
H980 H 0.65092 0.74971 0.83798 0.0
H981 H 0.56238 0.65868 0.92662 0.0
H982 H 0.58159 0.74262 0.87792 0.0
H983 H 0.62161 0.66067 0.86475 0.0
C984 C 0.65002 0.68265 0.84328 0.0
C985 C 0.65895 0.70775 0.83547 0.0
C986 C 0.57739 0.72412 0.88841 0.0
C987 C 0.61467 0.70292 0.8663 0.0
C988 C 0.55752 0.72319 0.90718 0.0
C989 C 0.55187 0.69977 0.92178 0.0
C990 C 0.59193 0.70148 0.88405 0.0
C991 C 0.56612 0.67716 0.91591 0.0
C992 C 0.628 0.68016 0.85873 0.0
C993 C 0.64477 0.72993 0.84311 0.0
N994 N 0.58567 0.67863 0.89765 0.0
N995 N 0.62346 0.72698 0.85812 0.0
loop_
_geom_bond_atom_site_label_1
_geom_bond_atom_site_label_2
_geom_bond_distance
_geom_bond_site_symmetry_2
_ccdc_geom_bond_type
C0 C1 1.391 . S
C0 C4 1.391 . S
C0 H42 0.948 . S
C1 C0 1.391 . S
C1 C2 1.391 . S
C2 C1 1.391 . S
C2 H58 0.947 . S
C2 C59 1.392 . S
C3 C4 1.391 . S
C3 C7 1.397 . S
C3 C59 1.419 . S
C4 C0 1.391 . S
C4 C3 1.391 . S
C4 C5 1.399 . S
C5 C4 1.399 . S
C5 C8 1.396 . S
C5 C17 1.453 . S
C5 C18 1.684 . S
H6 C30 0.948 . S
C7 C3 1.397 . S
C7 C8 1.394 . S
C7 C26 1.723 . S
C8 C5 1.396 . S
C8 C7 1.394 . S
C8 C38 1.723 . S
H9 C32 0.947 . S
H10 C33 0.948 . S
H11 C39 0.982 . S
H12 C40 0.979 . S
H13 C40 0.980 . S
H14 C40 0.983 . S
H15 C39 0.979 . S
H16 C39 0.977 . S
C17 C5 1.453 . S
C17 H46 0.982 . S
C17 H47 0.979 . S
C17 H48 0.977 . S
C18 C5 1.684 . S
C18 H43 0.979 . S
C18 H44 0.980 . S
C18 H45 0.983 . S
C19 C20 1.391 . S
C19 C24 1.391 . S
C19 H49 0.948 . S
C20 C19 1.391 . S
C20 C21 1.391 . S
C21 C20 1.391 . S
C21 C22 1.392 . S
C21 H50 0.947 . S
C22 C21 1.392 . S
C22 C23 1.419 . S
C22 H51 0.948 . S
C23 C22 1.419 . S
C23 C24 1.391 . S
C23 C27 1.397 . S
C24 C19 1.391 . S
C24 C23 1.391 . S
C24 C25 1.399 . S
C25 C24 1.399 . S
C25 C26 1.396 . S
C25 C28 1.453 . S
C25 C29 1.684 . S
C26 C7 1.723 . S
C26 C25 1.396 . S
C26 C27 1.394 . S
C27 C23 1.397 . S
C27 C26 1.394 . S
C27 C37 1.723 . S
C28 C25 1.453 . S
C28 H52 0.982 . S
C28 H53 0.979 . S
C28 H54 0.977 . S
C29 C25 1.684 . S
C29 H55 0.979 . S
C29 H56 0.980 . S
C29 H57 0.983 . S
C30 H6 0.948 . S
C30 C31 1.391 . S
C30 C35 1.391 . S
C31 C30 1.391 . S
C31 C32 1.391 . S
C32 H9 0.947 . S
C32 C31 1.391 . S
C32 C33 1.392 . S
C33 H10 0.948 . S
C33 C32 1.392 . S
C33 C34 1.419 . S
C34 C33 1.419 . S
C34 C35 1.391 . S
C34 C38 1.397 . S
C35 C30 1.391 . S
C35 C34 1.391 . S
C35 C36 1.399 . S
C36 C35 1.399 . S
C36 C37 1.396 . S
C36 C39 1.453 . S
C36 C40 1.684 . S
C37 C27 1.723 . S
C37 C36 1.396 . S
C37 C38 1.394 . S
C38 C8 1.723 . S
C38 C34 1.397 . S
C38 C37 1.394 . S
C39 H11 0.982 . S
C39 H15 0.979 . S
C39 H16 0.977 . S
C39 C36 1.453 . S
C40 H12 0.979 . S
C40 H13 0.980 . S
C40 H14 0.983 . S
C40 C36 1.684 . S
H41 C59 0.948 . S
H42 C0 0.948 . S
H43 C18 0.979 . S
H44 C18 0.980 . S
H45 C18 0.983 . S
H46 C17 0.982 . S
H47 C17 0.979 . S
H48 C17 0.977 . S
H49 C19 0.948 . S
H50 C21 0.947 . S
H51 C22 0.948 . S
H52 C28 0.982 . S
H53 C28 0.979 . S
H54 C28 0.977 . S
H55 C29 0.979 . S
H56 C29 0.980 . S
H57 C29 0.983 . S
H58 C2 0.947 . S
C59 C2 1.392 . S
C59 C3 1.419 . S
C59 H41 0.948 . S
C60 C61 1.391 . S
C60 C64 1.391 . S
C60 H102 0.948 . S
C61 C60 1.391 . S
C61 C62 1.391 . S
C62 C61 1.391 . S
C62 H118 0.947 . S
C62 C119 1.392 . S
C63 C64 1.391 . S
C63 C67 1.397 . S
C63 C119 1.419 . S
C64 C60 1.391 . S
C64 C63 1.391 . S
C64 C65 1.399 . S
C65 C64 1.399 . S
C65 C68 1.396 . S
C65 C77 1.453 . S
C65 C78 1.684 . S
H66 C90 0.948 . S
C67 C63 1.397 . S
C67 C68 1.394 . S
C67 C86 1.723 . S
C68 C65 1.396 . S
C68 C67 1.394 . S
C68 C98 1.723 . S
H69 C92 0.947 . S
H70 C93 0.948 . S
H71 C99 0.982 . S
H72 C100 0.979 . S
H73 C100 0.980 . S
H74 C100 0.983 . S
H75 C99 0.979 . S
H76 C99 0.977 . S
C77 C65 1.453 . S
C77 H106 0.982 . S
C77 H107 0.979 . S
C77 H108 0.977 . S
C78 C65 1.684 . S
C78 H103 0.979 . S
C78 H104 0.980 . S
C78 H105 0.983 . S
C79 C80 1.391 . S
C79 C84 1.391 . S
C79 H109 0.948 . S
C80 C79 1.391 . S
C80 C81 1.391 . S
C81 C80 1.391 . S
C81 C82 1.392 . S
C81 H110 0.947 . S
C82 C81 1.392 . S
C82 C83 1.419 . S
C82 H111 0.948 . S
C83 C82 1.419 . S
C83 C84 1.391 . S
C83 C87 1.397 . S
C84 C79 1.391 . S
C84 C83 1.391 . S
C84 C85 1.399 . S
C85 C84 1.399 . S
C85 C86 1.396 . S
C85 C88 1.453 . S
C85 C89 1.684 . S
C86 C67 1.723 . S
C86 C85 1.396 . S
C86 C87 1.394 . S
C87 C83 1.397 . S
C87 C86 1.394 . S
C87 C97 1.723 . S
C88 C85 1.453 . S
C88 H112 0.982 . S
C88 H113 0.979 . S
C88 H114 0.977 . S
C89 C85 1.684 . S
C89 H115 0.979 . S
C89 H116 0.980 . S
C89 H117 0.983 . S
C90 H66 0.948 . S
C90 C91 1.391 . S
C90 C95 1.391 . S
C91 C90 1.391 . S
C91 C92 1.391 . S
C92 H69 0.947 . S
C92 C91 1.391 . S
C92 C93 1.392 . S
C93 H70 0.948 . S
C93 C92 1.392 . S
C93 C94 1.419 . S
C94 C93 1.419 . S
C94 C95 1.391 . S
C94 C98 1.397 . S
C95 C90 1.391 . S
C95 C94 1.391 . S
C95 C96 1.399 . S
C96 C95 1.399 . S
C96 C97 1.396 . S
C96 C99 1.453 . S
C96 C100 1.684 . S
C97 C87 1.723 . S
C97 C96 1.396 . S
C97 C98 1.394 . S
C98 C68 1.723 . S
C98 C94 1.397 . S
C98 C97 1.394 . S
C99 H71 0.982 . S
C99 H75 0.979 . S
C99 H76 0.977 . S
C99 C96 1.453 . S
C100 H72 0.979 . S
C100 H73 0.980 . S
C100 H74 0.983 . S
C100 C96 1.684 . S
H101 C119 0.948 . S
H102 C60 0.948 . S
H103 C78 0.979 . S
H104 C78 0.980 . S
H105 C78 0.983 . S
H106 C77 0.982 . S
H107 C77 0.979 . S
H108 C77 0.977 . S
H109 C79 0.948 . S
H110 C81 0.947 . S
H111 C82 0.948 . S
H112 C88 0.982 . S
H113 C88 0.979 . S
H114 C88 0.977 . S
H115 C89 0.979 . S
H116 C89 0.980 . S
H117 C89 0.983 . S
H118 C62 0.947 . S
C119 C62 1.392 . S
C119 C63 1.419 . S
C119 H101 0.948 . S
C120 C121 1.391 . S
C120 C124 1.391 . S
C120 H162 0.948 . S
C121 C120 1.391 . S
C121 C122 1.391 . S
C122 C121 1.391 . S
C122 H178 0.947 . S
C122 C179 1.392 . S
C123 C124 1.391 . S
C123 C127 1.397 . S
C123 C179 1.419 . S
C124 C120 1.391 . S
C124 C123 1.391 . S
C124 C125 1.399 . S
C125 C124 1.399 . S
C125 C128 1.396 . S
C125 C137 1.453 . S
C125 C138 1.684 . S
H126 C150 0.948 . S
C127 C123 1.397 . S
C127 C128 1.394 . S
C127 C146 1.723 . S
C128 C125 1.396 . S
C128 C127 1.394 . S
C128 C158 1.723 . S
H129 C152 0.947 . S
H130 C153 0.948 . S
H131 C159 0.982 . S
H132 C160 0.979 . S
H133 C160 0.980 . S
H134 C160 0.983 . S
H135 C159 0.979 . S
H136 C159 0.977 . S
C137 C125 1.453 . S
C137 H166 0.982 . S
C137 H167 0.979 . S
C137 H168 0.977 . S
C138 C125 1.684 . S
C138 H163 0.979 . S
C138 H164 0.980 . S
C138 H165 0.983 . S
C139 C140 1.391 . S
C139 C144 1.391 . S
C139 H169 0.948 . S
C140 C139 1.391 . S
C140 C141 1.391 . S
C141 C140 1.391 . S
C141 C142 1.392 . S
C141 H170 0.947 . S
C142 C141 1.392 . S
C142 C143 1.419 . S
C142 H171 0.948 . S
C143 C142 1.419 . S
C143 C144 1.391 . S
C143 C147 1.397 . S
C144 C139 1.391 . S
C144 C143 1.391 . S
C144 C145 1.399 . S
C145 C144 1.399 . S
C145 C146 1.396 . S
C145 C148 1.453 . S
C145 C149 1.684 . S
C146 C127 1.723 . S
C146 C145 1.396 . S
C146 C147 1.394 . S
C147 C143 1.397 . S
C147 C146 1.394 . S
C147 C157 1.723 . S
C148 C145 1.453 . S
C148 H172 0.982 . S
C148 H173 0.979 . S
C148 H174 0.977 . S
C149 C145 1.684 . S
C149 H175 0.979 . S
C149 H176 0.980 . S
C149 H177 0.983 . S
C150 H126 0.948 . S
C150 C151 1.391 . S
C150 C155 1.391 . S
C151 C150 1.391 . S
C151 C152 1.391 . S
C152 H129 0.947 . S
C152 C151 1.391 . S
C152 C153 1.392 . S
C153 H130 0.948 . S
C153 C152 1.392 . S
C153 C154 1.419 . S
C154 C153 1.419 . S
C154 C155 1.391 . S
C154 C158 1.397 . S
C155 C150 1.391 . S
C155 C154 1.391 . S
C155 C156 1.399 . S
C156 C155 1.399 . S
C156 C157 1.396 . S
C156 C159 1.453 . S
C156 C160 1.684 . S
C157 C147 1.723 . S
C157 C156 1.396 . S
C157 C158 1.394 . S
C158 C128 1.723 . S
C158 C154 1.397 . S
C158 C157 1.394 . S
C159 H131 0.982 . S
C159 H135 0.979 . S
C159 H136 0.977 . S
C159 C156 1.453 . S
C160 H132 0.979 . S
C160 H133 0.980 . S
C160 H134 0.983 . S
C160 C156 1.684 . S
H161 C179 0.948 . S
H162 C120 0.948 . S
H163 C138 0.979 . S
H164 C138 0.980 . S
H165 C138 0.983 . S
H166 C137 0.982 . S
H167 C137 0.979 . S
H168 C137 0.977 . S
H169 C139 0.948 . S
H170 C141 0.947 . S
H171 C142 0.948 . S
H172 C148 0.982 . S
H173 C148 0.979 . S
H174 C148 0.977 . S
H175 C149 0.979 . S
H176 C149 0.980 . S
H177 C149 0.983 . S
H178 C122 0.947 . S
C179 C122 1.392 . S
C179 C123 1.419 . S
C179 H161 0.948 . S
C180 C181 1.391 . S
C180 C184 1.391 . S
C180 H222 0.948 . S
C181 C180 1.391 . S
C181 C182 1.391 . S
C182 C181 1.391 . S
C182 H238 0.947 . S
C182 C239 1.392 . S
C183 C184 1.391 . S
C183 C187 1.397 . S
C183 C239 1.419 . S
C184 C180 1.391 . S
C184 C183 1.391 . S
C184 C185 1.399 . S
C185 C184 1.399 . S
C185 C188 1.396 . S
C185 C197 1.453 . S
C185 C198 1.684 . S
H186 C210 0.948 . S
C187 C183 1.397 . S
C187 C188 1.394 . S
C187 C206 1.723 . S
C188 C185 1.396 . S
C188 C187 1.394 . S
C188 C218 1.723 . S
H189 C212 0.947 . S
H190 C213 0.948 . S
H191 C219 0.982 . S
H192 C220 0.979 . S
H193 C220 0.980 . S
H194 C220 0.983 . S
H195 C219 0.979 . S
H196 C219 0.977 . S
C197 C185 1.453 . S
C197 H226 0.982 . S
C197 H227 0.979 . S
C197 H228 0.977 . S
C198 C185 1.684 . S
C198 H223 0.979 . S
C198 H224 0.980 . S
C198 H225 0.983 . S
C199 C200 1.391 . S
C199 C204 1.391 . S
C199 H229 0.948 . S
C200 C199 1.391 . S
C200 C201 1.391 . S
C201 C200 1.391 . S
C201 C202 1.392 . S
C201 H230 0.947 . S
C202 C201 1.392 . S
C202 C203 1.419 . S
C202 H231 0.948 . S
C203 C202 1.419 . S
C203 C204 1.391 . S
C203 C207 1.397 . S
C204 C199 1.391 . S
C204 C203 1.391 . S
C204 C205 1.399 . S
C205 C204 1.399 . S
C205 C206 1.396 . S
C205 C208 1.453 . S
C205 C209 1.684 . S
C206 C187 1.723 . S
C206 C205 1.396 . S
C206 C207 1.394 . S
C207 C203 1.397 . S
C207 C206 1.394 . S
C207 C217 1.723 . S
C208 C205 1.453 . S
C208 H232 0.982 . S
C208 H233 0.979 . S
C208 H234 0.977 . S
C209 C205 1.684 . S
C209 H235 0.979 . S
C209 H236 0.980 . S
C209 H237 0.983 . S
C210 H186 0.948 . S
C210 C211 1.391 . S
C210 C215 1.391 . S
C211 C210 1.391 . S
C211 C212 1.391 . S
C212 H189 0.947 . S
C212 C211 1.391 . S
C212 C213 1.392 . S
C213 H190 0.948 . S
C213 C212 1.392 . S
C213 C214 1.419 . S
C214 C213 1.419 . S
C214 C215 1.391 . S
C214 C218 1.397 . S
C215 C210 1.391 . S
C215 C214 1.391 . S
C215 C216 1.399 . S
C216 C215 1.399 . S
C216 C217 1.396 . S
C216 C219 1.453 . S
C216 C220 1.684 . S
C217 C207 1.723 . S
C217 C216 1.396 . S
C217 C218 1.394 . S
C218 C188 1.723 . S
C218 C214 1.397 . S
C218 C217 1.394 . S
C219 H191 0.982 . S
C219 H195 0.979 . S
C219 H196 0.977 . S
C219 C216 1.453 . S
C220 H192 0.979 . S
C220 H193 0.980 . S
C220 H194 0.983 . S
C220 C216 1.684 . S
H221 C239 0.948 . S
H222 C180 0.948 . S
H223 C198 0.979 . S
H224 C198 0.980 . S
H225 C198 0.983 . S
H226 C197 0.982 . S
H227 C197 0.979 . S
H228 C197 0.977 . S
H229 C199 0.948 . S
H230 C201 0.947 . S
H231 C202 0.948 . S
H232 C208 0.982 . S
H233 C208 0.979 . S
H234 C208 0.977 . S
H235 C209 0.979 . S
H236 C209 0.980 . S
H237 C209 0.983 . S
H238 C182 0.947 . S
C239 C182 1.392 . S
C239 C183 1.419 . S
C239 H221 0.948 . S
C240 C241 1.391 . S
C240 C244 1.391 . S
C240 H282 0.948 . S
C241 C240 1.391 . S
C241 C242 1.391 . S
C242 C241 1.391 . S
C242 H298 0.947 . S
C242 C299 1.392 . S
C243 C244 1.391 . S
C243 C247 1.397 . S
C243 C299 1.419 . S
C244 C240 1.391 . S
C244 C243 1.391 . S
C244 C245 1.399 . S
C245 C244 1.399 . S
C245 C248 1.396 . S
C245 C257 1.453 . S
C245 C258 1.684 . S
H246 C270 0.948 . S
C247 C243 1.397 . S
C247 C248 1.394 . S
C247 C266 1.723 . S
C248 C245 1.396 . S
C248 C247 1.394 . S
C248 C278 1.723 . S
H249 C272 0.947 . S
H250 C273 0.948 . S
H251 C279 0.982 . S
H252 C280 0.979 . S
H253 C280 0.980 . S
H254 C280 0.983 . S
H255 C279 0.979 . S
H256 C279 0.977 . S
C257 C245 1.453 . S
C257 H286 0.982 . S
C257 H287 0.979 . S
C257 H288 0.977 . S
C258 C245 1.684 . S
C258 H283 0.979 . S
C258 H284 0.980 . S
C258 H285 0.983 . S
C259 C260 1.391 . S
C259 C264 1.391 . S
C259 H289 0.948 . S
C260 C259 1.391 . S
C260 C261 1.391 . S
C261 C260 1.391 . S
C261 C262 1.392 . S
C261 H290 0.947 . S
C262 C261 1.392 . S
C262 C263 1.419 . S
C262 H291 0.948 . S
C263 C262 1.419 . S
C263 C264 1.391 . S
C263 C267 1.397 . S
C264 C259 1.391 . S
C264 C263 1.391 . S
C264 C265 1.399 . S
C265 C264 1.399 . S
C265 C266 1.396 . S
C265 C268 1.453 . S
C265 C269 1.684 . S
C266 C247 1.723 . S
C266 C265 1.396 . S
C266 C267 1.394 . S
C267 C263 1.397 . S
C267 C266 1.394 . S
C267 C277 1.723 . S
C268 C265 1.453 . S
C268 H292 0.982 . S
C268 H293 0.979 . S
C268 H294 0.977 . S
C269 C265 1.684 . S
C269 H295 0.979 . S
C269 H296 0.980 . S
C269 H297 0.983 . S
C270 H246 0.948 . S
C270 C271 1.391 . S
C270 C275 1.391 . S
C271 C270 1.391 . S
C271 C272 1.391 . S
C272 H249 0.947 . S
C272 C271 1.391 . S
C272 C273 1.392 . S
C273 H250 0.948 . S
C273 C272 1.392 . S
C273 C274 1.419 . S
C274 C273 1.419 . S
C274 C275 1.391 . S
C274 C278 1.397 . S
C275 C270 1.391 . S
C275 C274 1.391 . S
C275 C276 1.399 . S
C276 C275 1.399 . S
C276 C277 1.396 . S
C276 C279 1.453 . S
C276 C280 1.684 . S
C277 C267 1.723 . S
C277 C276 1.396 . S
C277 C278 1.394 . S
C278 C248 1.723 . S
C278 C274 1.397 . S
C278 C277 1.394 . S
C279 H251 0.982 . S
C279 H255 0.979 . S
C279 H256 0.977 . S
C279 C276 1.453 . S
C280 H252 0.979 . S
C280 H253 0.980 . S
C280 H254 0.983 . S
C280 C276 1.684 . S
H281 C299 0.948 . S
H282 C240 0.948 . S
H283 C258 0.979 . S
H284 C258 0.980 . S
H285 C258 0.983 . S
H286 C257 0.982 . S
H287 C257 0.979 . S
H288 C257 0.977 . S
H289 C259 0.948 . S
H290 C261 0.947 . S
H291 C262 0.948 . S
H292 C268 0.982 . S
H293 C268 0.979 . S
H294 C268 0.977 . S
H295 C269 0.979 . S
H296 C269 0.980 . S
H297 C269 0.983 . S
H298 C242 0.947 . S
C299 C242 1.392 . S
C299 C243 1.419 . S
C299 H281 0.948 . S
C300 C301 1.391 . S
C300 C304 1.391 . S
C300 H342 0.948 . S
C301 C300 1.391 . S
C301 C302 1.391 . S
C302 C301 1.391 . S
C302 H358 0.947 . S
C302 C359 1.392 . S
C303 C304 1.391 . S
C303 C307 1.397 . S
C303 C359 1.419 . S
C304 C300 1.391 . S
C304 C303 1.391 . S
C304 C305 1.399 . S
C305 C304 1.399 . S
C305 C308 1.396 . S
C305 C317 1.453 . S
C305 C318 1.684 . S
H306 C330 0.948 . S
C307 C303 1.397 . S
C307 C308 1.394 . S
C307 C326 1.723 . S
C308 C305 1.396 . S
C308 C307 1.394 . S
C308 C338 1.723 . S
H309 C332 0.947 . S
H310 C333 0.948 . S
H311 C339 0.982 . S
H312 C340 0.979 . S
H313 C340 0.980 . S
H314 C340 0.983 . S
H315 C339 0.979 . S
H316 C339 0.977 . S
C317 C305 1.453 . S
C317 H346 0.982 . S
C317 H347 0.979 . S
C317 H348 0.977 . S
C318 C305 1.684 . S
C318 H343 0.979 . S
C318 H344 0.980 . S
C318 H345 0.983 . S
C319 C320 1.391 . S
C319 C324 1.391 . S
C319 H349 0.948 . S
C320 C319 1.391 . S
C320 C321 1.391 . S
C321 C320 1.391 . S
C321 C322 1.392 . S
C321 H350 0.947 . S
C322 C321 1.392 . S
C322 C323 1.419 . S
C322 H351 0.948 . S
C323 C322 1.419 . S
C323 C324 1.391 . S
C323 C327 1.397 . S
C324 C319 1.391 . S
C324 C323 1.391 . S
C324 C325 1.399 . S
C325 C324 1.399 . S
C325 C326 1.396 . S
C325 C328 1.453 . S
C325 C329 1.684 . S
C326 C307 1.723 . S
C326 C325 1.396 . S
C326 C327 1.394 . S
C327 C323 1.397 . S
C327 C326 1.394 . S
C327 C337 1.723 . S
C328 C325 1.453 . S
C328 H352 0.982 . S
C328 H353 0.979 . S
C328 H354 0.977 . S
C329 C325 1.684 . S
C329 H355 0.979 . S
C329 H356 0.980 . S
C329 H357 0.983 . S
C330 H306 0.948 . S
C330 C331 1.391 . S
C330 C335 1.391 . S
C331 C330 1.391 . S
C331 C332 1.391 . S
C332 H309 0.947 . S
C332 C331 1.391 . S
C332 C333 1.392 . S
C333 H310 0.948 . S
C333 C332 1.392 . S
C333 C334 1.419 . S
C334 C333 1.419 . S
C334 C335 1.391 . S
C334 C338 1.397 . S
C335 C330 1.391 . S
C335 C334 1.391 . S
C335 C336 1.399 . S
C336 C335 1.399 . S
C336 C337 1.396 . S
C336 C339 1.453 . S
C336 C340 1.684 . S
C337 C327 1.723 . S
C337 C336 1.396 . S
C337 C338 1.394 . S
C338 C308 1.723 . S
C338 C334 1.397 . S
C338 C337 1.394 . S
C339 H311 0.982 . S
C339 H315 0.979 . S
C339 H316 0.977 . S
C339 C336 1.453 . S
C340 H312 0.979 . S
C340 H313 0.980 . S
C340 H314 0.983 . S
C340 C336 1.684 . S
H341 C359 0.948 . S
H342 C300 0.948 . S
H343 C318 0.979 . S
H344 C318 0.980 . S
H345 C318 0.983 . S
H346 C317 0.982 . S
H347 C317 0.979 . S
H348 C317 0.977 . S
H349 C319 0.948 . S
H350 C321 0.947 . S
H351 C322 0.948 . S
H352 C328 0.982 . S
H353 C328 0.979 . S
H354 C328 0.977 . S
H355 C329 0.979 . S
H356 C329 0.980 . S
H357 C329 0.983 . S
H358 C302 0.947 . S
C359 C302 1.392 . S
C359 C303 1.419 . S
C359 H341 0.948 . S
C360 C361 1.391 . S
C360 C364 1.391 . S
C360 H402 0.948 . S
C361 C360 1.391 . S
C361 C362 1.391 . S
C362 C361 1.391 . S
C362 H418 0.947 . S
C362 C419 1.392 . S
C363 C364 1.391 . S
C363 C367 1.397 . S
C363 C419 1.419 . S
C364 C360 1.391 . S
C364 C363 1.391 . S
C364 C365 1.399 . S
C365 C364 1.399 . S
C365 C368 1.396 . S
C365 C377 1.453 . S
C365 C378 1.684 . S
H366 C390 0.948 . S
C367 C363 1.397 . S
C367 C368 1.394 . S
C367 C386 1.723 . S
C368 C365 1.396 . S
C368 C367 1.394 . S
C368 C398 1.723 . S
H369 C392 0.947 . S
H370 C393 0.948 . S
H371 C399 0.982 . S
H372 C400 0.979 . S
H373 C400 0.980 . S
H374 C400 0.983 . S
H375 C399 0.979 . S
H376 C399 0.977 . S
C377 C365 1.453 . S
C377 H406 0.982 . S
C377 H407 0.979 . S
C377 H408 0.977 . S
C378 C365 1.684 . S
C378 H403 0.979 . S
C378 H404 0.980 . S
C378 H405 0.983 . S
C379 C380 1.391 . S
C379 C384 1.391 . S
C379 H409 0.948 . S
C380 C379 1.391 . S
C380 C381 1.391 . S
C381 C380 1.391 . S
C381 C382 1.392 . S
C381 H410 0.947 . S
C382 C381 1.392 . S
C382 C383 1.419 . S
C382 H411 0.948 . S
C383 C382 1.419 . S
C383 C384 1.391 . S
C383 C387 1.397 . S
C384 C379 1.391 . S
C384 C383 1.391 . S
C384 C385 1.399 . S
C385 C384 1.399 . S
C385 C386 1.396 . S
C385 C388 1.453 . S
C385 C389 1.684 . S
C386 C367 1.723 . S
C386 C385 1.396 . S
C386 C387 1.394 . S
C387 C383 1.397 . S
C387 C386 1.394 . S
C387 C397 1.723 . S
C388 C385 1.453 . S
C388 H412 0.982 . S
C388 H413 0.979 . S
C388 H414 0.977 . S
C389 C385 1.684 . S
C389 H415 0.979 . S
C389 H416 0.980 . S
C389 H417 0.983 . S
C390 H366 0.948 . S
C390 C391 1.391 . S
C390 C395 1.391 . S
C391 C390 1.391 . S
C391 C392 1.391 . S
C392 H369 0.947 . S
C392 C391 1.391 . S
C392 C393 1.392 . S
C393 H370 0.948 . S
C393 C392 1.392 . S
C393 C394 1.419 . S
C394 C393 1.419 . S
C394 C395 1.391 . S
C394 C398 1.397 . S
C395 C390 1.391 . S
C395 C394 1.391 . S
C395 C396 1.399 . S
C396 C395 1.399 . S
C396 C397 1.396 . S
C396 C399 1.453 . S
C396 C400 1.684 . S
C397 C387 1.723 . S
C397 C396 1.396 . S
C397 C398 1.394 . S
C398 C368 1.723 . S
C398 C394 1.397 . S
C398 C397 1.394 . S
C399 H371 0.982 . S
C399 H375 0.979 . S
C399 H376 0.977 . S
C399 C396 1.453 . S
C400 H372 0.979 . S
C400 H373 0.980 . S
C400 H374 0.983 . S
C400 C396 1.684 . S
H401 C419 0.948 . S
H402 C360 0.948 . S
H403 C378 0.979 . S
H404 C378 0.980 . S
H405 C378 0.983 . S
H406 C377 0.982 . S
H407 C377 0.979 . S
H408 C377 0.977 . S
H409 C379 0.948 . S
H410 C381 0.947 . S
H411 C382 0.948 . S
H412 C388 0.982 . S
H413 C388 0.979 . S
H414 C388 0.977 . S
H415 C389 0.979 . S
H416 C389 0.980 . S
H417 C389 0.983 . S
H418 C362 0.947 . S
C419 C362 1.392 . S
C419 C363 1.419 . S
C419 H401 0.948 . S
C420 C421 1.391 . S
C420 C424 1.391 . S
C420 H462 0.948 . S
C421 C420 1.391 . S
C421 C422 1.391 . S
C422 C421 1.391 . S
C422 H478 0.947 . S
C422 C479 1.392 . S
C423 C424 1.391 . S
C423 C427 1.397 . S
C423 C479 1.419 . S
C424 C420 1.391 . S
C424 C423 1.391 . S
C424 C425 1.399 . S
C425 C424 1.399 . S
C425 C428 1.396 . S
C425 C437 1.453 . S
C425 C438 1.684 . S
H426 C450 0.948 . S
C427 C423 1.397 . S
C427 C428 1.394 . S
C427 C446 1.723 . S
C428 C425 1.396 . S
C428 C427 1.394 . S
C428 C458 1.723 . S
H429 C452 0.947 . S
H430 C453 0.948 . S
H431 C459 0.982 . S
H432 C460 0.979 . S
H433 C460 0.980 . S
H434 C460 0.983 . S
H435 C459 0.979 . S
H436 C459 0.977 . S
C437 C425 1.453 . S
C437 H466 0.982 . S
C437 H467 0.979 . S
C437 H468 0.977 . S
C438 C425 1.684 . S
C438 H463 0.979 . S
C438 H464 0.980 . S
C438 H465 0.983 . S
C439 C440 1.391 . S
C439 C444 1.391 . S
C439 H469 0.948 . S
C440 C439 1.391 . S
C440 C441 1.391 . S
C441 C440 1.391 . S
C441 C442 1.392 . S
C441 H470 0.947 . S
C442 C441 1.392 . S
C442 C443 1.419 . S
C442 H471 0.948 . S
C443 C442 1.419 . S
C443 C444 1.391 . S
C443 C447 1.397 . S
C444 C439 1.391 . S
C444 C443 1.391 . S
C444 C445 1.399 . S
C445 C444 1.399 . S
C445 C446 1.396 . S
C445 C448 1.453 . S
C445 C449 1.684 . S
C446 C427 1.723 . S
C446 C445 1.396 . S
C446 C447 1.394 . S
C447 C443 1.397 . S
C447 C446 1.394 . S
C447 C457 1.723 . S
C448 C445 1.453 . S
C448 H472 0.982 . S
C448 H473 0.979 . S
C448 H474 0.977 . S
C449 C445 1.684 . S
C449 H475 0.979 . S
C449 H476 0.980 . S
C449 H477 0.983 . S
C450 H426 0.948 . S
C450 C451 1.391 . S
C450 C455 1.391 . S
C451 C450 1.391 . S
C451 C452 1.391 . S
C452 H429 0.947 . S
C452 C451 1.391 . S
C452 C453 1.392 . S
C453 H430 0.948 . S
C453 C452 1.392 . S
C453 C454 1.419 . S
C454 C453 1.419 . S
C454 C455 1.391 . S
C454 C458 1.397 . S
C455 C450 1.391 . S
C455 C454 1.391 . S
C455 C456 1.399 . S
C456 C455 1.399 . S
C456 C457 1.396 . S
C456 C459 1.453 . S
C456 C460 1.684 . S
C457 C447 1.723 . S
C457 C456 1.396 . S
C457 C458 1.394 . S
C458 C428 1.723 . S
C458 C454 1.397 . S
C458 C457 1.394 . S
C459 H431 0.982 . S
C459 H435 0.979 . S
C459 H436 0.977 . S
C459 C456 1.453 . S
C460 H432 0.979 . S
C460 H433 0.980 . S
C460 H434 0.983 . S
C460 C456 1.684 . S
H461 C479 0.948 . S
H462 C420 0.948 . S
H463 C438 0.979 . S
H464 C438 0.980 . S
H465 C438 0.983 . S
H466 C437 0.982 . S
H467 C437 0.979 . S
H468 C437 0.977 . S
H469 C439 0.948 . S
H470 C441 0.947 . S
H471 C442 0.948 . S
H472 C448 0.982 . S
H473 C448 0.979 . S
H474 C448 0.977 . S
H475 C449 0.979 . S
H476 C449 0.980 . S
H477 C449 0.983 . S
H478 C422 0.947 . S
C479 C422 1.392 . S
C479 C423 1.419 . S
C479 H461 0.948 . S
C480 O482 1.247 . S
C480 O484 1.258 . S
C481 O488 1.247 . S
C481 O489 1.258 . S
O482 C480 1.247 . S
O482 Zn483 2.030 1_655 S
Zn483 O482 2.030 1_455 S
Zn483 O487 2.033 . S
Zn483 O489 2.033 . S
Zn483 O490 2.030 1_455 S
O484 C480 1.258 . S
O484 Zn485 2.022 1_655 S
Zn485 O484 2.022 1_455 S
Zn485 O486 2.041 . S
Zn485 O488 2.041 . S
Zn485 O491 2.022 1_455 S
O486 Zn485 2.041 . S
O486 C492 1.247 . S
O487 Zn483 2.033 . S
O487 C492 1.258 . S
O488 C481 1.247 . S
O488 Zn485 2.041 . S
O489 C481 1.258 . S
O489 Zn483 2.033 . S
O490 Zn483 2.030 1_655 S
O490 C493 1.247 . S
O491 Zn485 2.022 1_655 S
O491 C493 1.258 . S
C492 O486 1.247 . S
C492 O487 1.258 . S
C493 O490 1.247 . S
C493 O491 1.258 . S
C494 O496 1.247 . S
C494 O498 1.258 . S
C495 O502 1.247 . S
C495 O503 1.258 . S
O496 C494 1.247 . S
O496 Zn497 2.030 1_655 S
Zn497 O496 2.030 1_455 S
Zn497 O501 2.034 . S
Zn497 O503 2.034 . S
Zn497 O504 2.030 1_455 S
O498 C494 1.258 . S
O498 Zn499 2.022 1_655 S
Zn499 O498 2.022 1_455 S
Zn499 O500 2.041 . S
Zn499 O502 2.041 . S
Zn499 O505 2.022 1_455 S
O500 Zn499 2.041 . S
O500 C506 1.247 . S
O501 Zn497 2.034 . S
O501 C506 1.258 . S
O502 C495 1.247 . S
O502 Zn499 2.041 . S
O503 C495 1.258 . S
O503 Zn497 2.034 . S
O504 Zn497 2.030 1_655 S
O504 C507 1.247 . S
O505 Zn499 2.022 1_655 S
O505 C507 1.258 . S
C506 O500 1.247 . S
C506 O501 1.258 . S
C507 O504 1.247 . S
C507 O505 1.258 . S
C508 O510 1.247 . S
C508 O512 1.258 . S
C509 O516 1.247 . S
C509 O517 1.258 . S
O510 C508 1.247 . S
O510 Zn511 2.028 . S
Zn511 O510 2.028 . S
Zn511 O515 2.035 1_565 S
Zn511 O517 2.035 1_565 S
Zn511 O518 2.028 . S
O512 C508 1.258 . S
O512 Zn513 2.028 1_565 S
Zn513 O512 2.028 1_545 S
Zn513 O514 2.035 . S
Zn513 O516 2.035 . S
Zn513 O519 2.028 1_545 S
O514 Zn513 2.035 . S
O514 C520 1.247 . S
O515 Zn511 2.035 1_545 S
O515 C520 1.258 . S
O516 C509 1.247 . S
O516 Zn513 2.035 . S
O517 C509 1.258 . S
O517 Zn511 2.035 1_545 S
O518 Zn511 2.028 . S
O518 C521 1.247 . S
O519 Zn513 2.028 1_565 S
O519 C521 1.258 . S
C520 O514 1.247 . S
C520 O515 1.258 . S
C521 O518 1.247 . S
C521 O519 1.258 . S
C522 O524 1.247 . S
C522 O526 1.258 . S
C523 O530 1.247 . S
C523 O531 1.258 . S
O524 C522 1.247 . S
O524 Zn525 2.028 . S
Zn525 O524 2.028 . S
Zn525 O529 2.035 . S
Zn525 O531 2.035 1_554 S
Zn525 O532 2.028 1_554 S
O526 C522 1.258 . S
O526 Zn527 2.035 . S
Zn527 O526 2.035 . S
Zn527 O528 2.028 . S
Zn527 O530 2.028 1_554 S
Zn527 O533 2.035 1_554 S
O528 Zn527 2.028 . S
O528 C534 1.247 . S
O529 Zn525 2.035 . S
O529 C534 1.258 . S
O530 C523 1.247 . S
O530 Zn527 2.028 1_556 S
O531 C523 1.258 . S
O531 Zn525 2.035 1_556 S
O532 Zn525 2.028 1_556 S
O532 C535 1.247 . S
O533 Zn527 2.035 1_556 S
O533 C535 1.258 . S
C534 O528 1.247 . S
C534 O529 1.258 . S
C535 O532 1.247 . S
C535 O533 1.258 . S
C536 O538 1.247 . S
C536 O540 1.258 . S
C537 O544 1.247 . S
C537 O545 1.258 . S
O538 C536 1.247 . S
O538 Zn539 2.028 . S
Zn539 O538 2.028 . S
Zn539 O543 2.035 1_565 S
Zn539 O545 2.035 1_565 S
Zn539 O546 2.028 . S
O540 C536 1.258 . S
O540 Zn541 2.028 1_565 S
Zn541 O540 2.028 1_545 S
Zn541 O542 2.035 . S
Zn541 O544 2.035 . S
Zn541 O547 2.028 1_545 S
O542 Zn541 2.035 . S
O542 C548 1.247 . S
O543 Zn539 2.035 1_545 S
O543 C548 1.258 . S
O544 C537 1.247 . S
O544 Zn541 2.035 . S
O545 C537 1.258 . S
O545 Zn539 2.035 1_545 S
O546 Zn539 2.028 . S
O546 C549 1.247 . S
O547 Zn541 2.028 1_565 S
O547 C549 1.258 . S
C548 O542 1.247 . S
C548 O543 1.258 . S
C549 O546 1.247 . S
C549 O547 1.258 . S
C550 O552 1.247 . S
C550 O554 1.258 . S
C551 O558 1.247 . S
C551 O559 1.258 . S
O552 C550 1.247 . S
O552 Zn553 2.028 . S
Zn553 O552 2.028 . S
Zn553 O557 2.035 . S
Zn553 O559 2.035 1_554 S
Zn553 O560 2.028 1_554 S
O554 C550 1.258 . S
O554 Zn555 2.035 . S
Zn555 O554 2.035 . S
Zn555 O556 2.028 . S
Zn555 O558 2.028 1_554 S
Zn555 O561 2.035 1_554 S
O556 Zn555 2.028 . S
O556 C562 1.247 . S
O557 Zn553 2.035 . S
O557 C562 1.258 . S
O558 C551 1.247 . S
O558 Zn555 2.028 1_556 S
O559 C551 1.258 . S
O559 Zn553 2.035 1_556 S
O560 Zn553 2.028 1_556 S
O560 C563 1.247 . S
O561 Zn555 2.035 1_556 S
O561 C563 1.258 . S
C562 O556 1.247 . S
C562 O557 1.258 . S
C563 O560 1.247 . S
C563 O561 1.258 . S
H564 C570 0.930 . S
H565 C574 0.930 . S
H566 C579 0.929 . S
H567 C577 0.929 . S
H568 C572 0.929 . S
H569 C578 0.929 . S
C570 H564 0.930 . S
C570 C571 1.367 . S
C570 C578 1.378 . S
C571 C570 1.367 . S
C571 C579 1.433 . S
C572 H568 0.929 . S
C572 C574 1.378 . S
C572 C576 1.350 . S
C573 C576 1.463 . S
C573 C578 1.350 . S
C573 N581 1.427 . S
C574 H565 0.930 . S
C574 C572 1.378 . S
C574 C575 1.367 . S
C575 C574 1.367 . S
C575 C577 1.433 . S
C576 C572 1.350 . S
C576 C573 1.463 . S
C576 N580 1.427 . S
C577 H567 0.929 . S
C577 C575 1.433 . S
C577 N580 1.384 . S
C578 H569 0.929 . S
C578 C570 1.378 . S
C578 C573 1.350 . S
C579 H566 0.929 . S
C579 C571 1.433 . S
C579 N581 1.384 . S
N580 C576 1.427 . S
N580 C577 1.384 . S
N581 C573 1.427 . S
N581 C579 1.384 . S
H582 C588 0.930 . S
H583 C592 0.930 . S
H584 C597 0.929 . S
H585 C595 0.929 . S
H586 C590 0.929 . S
H587 C596 0.929 . S
C588 H582 0.930 . S
C588 C589 1.367 . S
C588 C596 1.378 . S
C589 C588 1.367 . S
C589 C597 1.433 . S
C590 H586 0.929 . S
C590 C592 1.378 . S
C590 C594 1.350 . S
C591 C594 1.463 . S
C591 C596 1.350 . S
C591 N599 1.427 . S
C592 H583 0.930 . S
C592 C590 1.378 . S
C592 C593 1.367 . S
C593 C592 1.367 . S
C593 C595 1.433 . S
C594 C590 1.350 . S
C594 C591 1.463 . S
C594 N598 1.427 . S
C595 H585 0.929 . S
C595 C593 1.433 . S
C595 N598 1.384 . S
C596 H587 0.929 . S
C596 C588 1.378 . S
C596 C591 1.350 . S
C597 H584 0.929 . S
C597 C589 1.433 . S
C597 N599 1.384 . S
N598 C594 1.427 . S
N598 C595 1.384 . S
N599 C591 1.427 . S
N599 C597 1.384 . S
H600 C606 0.930 . S
H601 C610 0.930 . S
H602 C615 0.929 . S
H603 C613 0.929 . S
H604 C608 0.929 . S
H605 C614 0.929 . S
C606 H600 0.930 . S
C606 C607 1.367 . S
C606 C614 1.378 . S
C607 C606 1.367 . S
C607 C615 1.433 . S
C608 H604 0.929 . S
C608 C610 1.378 . S
C608 C612 1.350 . S
C609 C612 1.463 . S
C609 C614 1.350 . S
C609 N617 1.427 . S
C610 H601 0.930 . S
C610 C608 1.378 . S
C610 C611 1.367 . S
C611 C610 1.367 . S
C611 C613 1.433 . S
C612 C608 1.350 . S
C612 C609 1.463 . S
C612 N616 1.427 . S
C613 H603 0.929 . S
C613 C611 1.433 . S
C613 N616 1.384 . S
C614 H605 0.929 . S
C614 C606 1.378 . S
C614 C609 1.350 . S
C615 H602 0.929 . S
C615 C607 1.433 . S
C615 N617 1.384 . S
N616 C612 1.427 . S
N616 C613 1.384 . S
N617 C609 1.427 . S
N617 C615 1.384 . S
H618 C624 0.930 . S
H619 C628 0.930 . S
H620 C633 0.929 . S
H621 C631 0.929 . S
H622 C626 0.929 . S
H623 C632 0.929 . S
C624 H618 0.930 . S
C624 C625 1.367 . S
C624 C632 1.378 . S
C625 C624 1.367 . S
C625 C633 1.433 . S
C626 H622 0.929 . S
C626 C628 1.378 . S
C626 C630 1.350 . S
C627 C630 1.463 . S
C627 C632 1.350 . S
C627 N635 1.427 . S
C628 H619 0.930 . S
C628 C626 1.378 . S
C628 C629 1.367 . S
C629 C628 1.367 . S
C629 C631 1.433 . S
C630 C626 1.350 . S
C630 C627 1.463 . S
C630 N634 1.427 . S
C631 H621 0.929 . S
C631 C629 1.433 . S
C631 N634 1.384 . S
C632 H623 0.929 . S
C632 C624 1.378 . S
C632 C627 1.350 . S
C633 H620 0.929 . S
C633 C625 1.433 . S
C633 N635 1.384 . S
N634 C630 1.427 . S
N634 C631 1.384 . S
N635 C627 1.427 . S
N635 C633 1.384 . S
H636 C642 0.930 . S
H637 C646 0.930 . S
H638 C651 0.929 . S
H639 C649 0.929 . S
H640 C644 0.929 . S
H641 C650 0.929 . S
C642 H636 0.930 . S
C642 C643 1.367 . S
C642 C650 1.378 . S
C643 C642 1.367 . S
C643 C651 1.433 . S
C644 H640 0.929 . S
C644 C646 1.378 . S
C644 C648 1.350 . S
C645 C648 1.463 . S
C645 C650 1.350 . S
C645 N653 1.427 . S
C646 H637 0.930 . S
C646 C644 1.378 . S
C646 C647 1.367 . S
C647 C646 1.367 . S
C647 C649 1.433 . S
C648 C644 1.350 . S
C648 C645 1.463 . S
C648 N652 1.427 . S
C649 H639 0.929 . S
C649 C647 1.433 . S
C649 N652 1.384 . S
C650 H641 0.929 . S
C650 C642 1.378 . S
C650 C645 1.350 . S
C651 H638 0.929 . S
C651 C643 1.433 . S
C651 N653 1.384 . S
N652 C648 1.427 . S
N652 C649 1.384 . S
N653 C645 1.427 . S
N653 C651 1.384 . S
H654 C660 0.930 . S
H655 C664 0.930 . S
H656 C669 0.929 . S
H657 C667 0.929 . S
H658 C662 0.929 . S
H659 C668 0.929 . S
C660 H654 0.930 . S
C660 C661 1.367 . S
C660 C668 1.378 . S
C661 C660 1.367 . S
C661 C669 1.433 . S
C662 H658 0.929 . S
C662 C664 1.378 . S
C662 C666 1.350 . S
C663 C666 1.463 . S
C663 C668 1.350 . S
C663 N671 1.427 . S
C664 H655 0.930 . S
C664 C662 1.378 . S
C664 C665 1.367 . S
C665 C664 1.367 . S
C665 C667 1.433 . S
C666 C662 1.350 . S
C666 C663 1.463 . S
C666 N670 1.427 . S
C667 H657 0.929 . S
C667 C665 1.433 . S
C667 N670 1.384 . S
C668 H659 0.929 . S
C668 C660 1.378 . S
C668 C663 1.350 . S
C669 H656 0.929 . S
C669 C661 1.433 . S
C669 N671 1.384 . S
N670 C666 1.427 . S
N670 C667 1.384 . S
N671 C663 1.427 . S
N671 C669 1.384 . S
H672 C678 0.930 . S
H673 C682 0.930 . S
H674 C687 0.929 . S
H675 C685 0.929 . S
H676 C680 0.929 . S
H677 C686 0.929 . S
C678 H672 0.930 . S
C678 C679 1.367 . S
C678 C686 1.378 . S
C679 C678 1.367 . S
C679 C687 1.433 . S
C680 H676 0.929 . S
C680 C682 1.378 . S
C680 C684 1.350 . S
C681 C684 1.463 . S
C681 C686 1.350 . S
C681 N689 1.427 . S
C682 H673 0.930 . S
C682 C680 1.378 . S
C682 C683 1.367 . S
C683 C682 1.367 . S
C683 C685 1.433 . S
C684 C680 1.350 . S
C684 C681 1.463 . S
C684 N688 1.427 . S
C685 H675 0.929 . S
C685 C683 1.433 . S
C685 N688 1.384 . S
C686 H677 0.929 . S
C686 C678 1.378 . S
C686 C681 1.350 . S
C687 H674 0.929 . S
C687 C679 1.433 . S
C687 N689 1.384 . S
N688 C684 1.427 . S
N688 C685 1.384 . S
N689 C681 1.427 . S
N689 C687 1.384 . S
H690 C696 0.930 . S
H691 C700 0.930 . S
H692 C705 0.929 . S
H693 C703 0.929 . S
H694 C698 0.929 . S
H695 C704 0.929 . S
C696 H690 0.930 . S
C696 C697 1.367 . S
C696 C704 1.378 . S
C697 C696 1.367 . S
C697 C705 1.433 . S
C698 H694 0.929 . S
C698 C700 1.378 . S
C698 C702 1.350 . S
C699 C702 1.463 . S
C699 C704 1.350 . S
C699 N707 1.427 . S
C700 H691 0.930 . S
C700 C698 1.378 . S
C700 C701 1.367 . S
C701 C700 1.367 . S
C701 C703 1.433 . S
C702 C698 1.350 . S
C702 C699 1.463 . S
C702 N706 1.427 . S
C703 H693 0.929 . S
C703 C701 1.433 . S
C703 N706 1.384 . S
C704 H695 0.929 . S
C704 C696 1.378 . S
C704 C699 1.350 . S
C705 H692 0.929 . S
C705 C697 1.433 . S
C705 N707 1.384 . S
N706 C702 1.427 . S
N706 C703 1.384 . S
N707 C699 1.427 . S
N707 C705 1.384 . S
H708 C714 0.930 . S
H709 C718 0.930 . S
H710 C723 0.929 . S
H711 C721 0.929 . S
H712 C716 0.929 . S
H713 C722 0.929 . S
C714 H708 0.930 . S
C714 C715 1.367 . S
C714 C722 1.378 . S
C715 C714 1.367 . S
C715 C723 1.433 . S
C716 H712 0.929 . S
C716 C718 1.378 . S
C716 C720 1.350 . S
C717 C720 1.463 . S
C717 C722 1.350 . S
C717 N725 1.427 . S
C718 H709 0.930 . S
C718 C716 1.378 . S
C718 C719 1.367 . S
C719 C718 1.367 . S
C719 C721 1.433 . S
C720 C716 1.350 . S
C720 C717 1.463 . S
C720 N724 1.427 . S
C721 H711 0.929 . S
C721 C719 1.433 . S
C721 N724 1.384 . S
C722 H713 0.929 . S
C722 C714 1.378 . S
C722 C717 1.350 . S
C723 H710 0.929 . S
C723 C715 1.433 . S
C723 N725 1.384 . S
N724 C720 1.427 . S
N724 C721 1.384 . S
N725 C717 1.427 . S
N725 C723 1.384 . S
H726 C732 0.930 . S
H727 C736 0.930 . S
H728 C741 0.929 . S
H729 C739 0.929 . S
H730 C734 0.929 . S
H731 C740 0.929 . S
C732 H726 0.930 . S
C732 C733 1.367 . S
C732 C740 1.378 . S
C733 C732 1.367 . S
C733 C741 1.433 . S
C734 H730 0.929 . S
C734 C736 1.378 . S
C734 C738 1.350 . S
C735 C738 1.463 . S
C735 C740 1.350 . S
C735 N743 1.427 . S
C736 H727 0.930 . S
C736 C734 1.378 . S
C736 C737 1.367 . S
C737 C736 1.367 . S
C737 C739 1.433 . S
C738 C734 1.350 . S
C738 C735 1.463 . S
C738 N742 1.427 . S
C739 H729 0.929 . S
C739 C737 1.433 . S
C739 N742 1.384 . S
C740 H731 0.929 . S
C740 C732 1.378 . S
C740 C735 1.350 . S
C741 H728 0.929 . S
C741 C733 1.433 . S
C741 N743 1.384 . S
N742 C738 1.427 . S
N742 C739 1.384 . S
N743 C735 1.427 . S
N743 C741 1.384 . S
H744 C750 0.930 . S
H745 C754 0.930 . S
H746 C759 0.929 . S
H747 C757 0.929 . S
H748 C752 0.929 . S
H749 C758 0.929 . S
C750 H744 0.930 . S
C750 C751 1.367 . S
C750 C758 1.378 . S
C751 C750 1.367 . S
C751 C759 1.433 . S
C752 H748 0.929 . S
C752 C754 1.378 . S
C752 C756 1.350 . S
C753 C756 1.463 . S
C753 C758 1.350 . S
C753 N761 1.427 . S
C754 H745 0.930 . S
C754 C752 1.378 . S
C754 C755 1.367 . S
C755 C754 1.367 . S
C755 C757 1.433 . S
C756 C752 1.350 . S
C756 C753 1.463 . S
C756 N760 1.427 . S
C757 H747 0.929 . S
C757 C755 1.433 . S
C757 N760 1.384 . S
C758 H749 0.929 . S
C758 C750 1.378 . S
C758 C753 1.350 . S
C759 H746 0.929 . S
C759 C751 1.433 . S
C759 N761 1.384 . S
N760 C756 1.427 . S
N760 C757 1.384 . S
N761 C753 1.427 . S
N761 C759 1.384 . S
H762 C768 0.930 . S
H763 C772 0.930 . S
H764 C777 0.929 . S
H765 C775 0.929 . S
H766 C770 0.929 . S
H767 C776 0.929 . S
C768 H762 0.930 . S
C768 C769 1.367 . S
C768 C776 1.378 . S
C769 C768 1.367 . S
C769 C777 1.433 . S
C770 H766 0.929 . S
C770 C772 1.378 . S
C770 C774 1.350 . S
C771 C774 1.463 . S
C771 C776 1.350 . S
C771 N779 1.427 . S
C772 H763 0.930 . S
C772 C770 1.378 . S
C772 C773 1.367 . S
C773 C772 1.367 . S
C773 C775 1.433 . S
C774 C770 1.350 . S
C774 C771 1.463 . S
C774 N778 1.427 . S
C775 H765 0.929 . S
C775 C773 1.433 . S
C775 N778 1.384 . S
C776 H767 0.929 . S
C776 C768 1.378 . S
C776 C771 1.350 . S
C777 H764 0.929 . S
C777 C769 1.433 . S
C777 N779 1.384 . S
N778 C774 1.427 . S
N778 C775 1.384 . S
N779 C771 1.427 . S
N779 C777 1.384 . S
H780 C786 0.930 . S
H781 C790 0.930 . S
H782 C795 0.929 . S
H783 C793 0.929 . S
H784 C788 0.929 . S
H785 C794 0.929 . S
C786 H780 0.930 . S
C786 C787 1.367 . S
C786 C794 1.378 . S
C787 C786 1.367 . S
C787 C795 1.433 . S
C788 H784 0.929 . S
C788 C790 1.378 . S
C788 C792 1.350 . S
C789 C792 1.463 . S
C789 C794 1.350 . S
C789 N797 1.427 . S
C790 H781 0.930 . S
C790 C788 1.378 . S
C790 C791 1.367 . S
C791 C790 1.367 . S
C791 C793 1.433 . S
C792 C788 1.350 . S
C792 C789 1.463 . S
C792 N796 1.427 . S
C793 H783 0.929 . S
C793 C791 1.433 . S
C793 N796 1.384 . S
C794 H785 0.929 . S
C794 C786 1.378 . S
C794 C789 1.350 . S
C795 H782 0.929 . S
C795 C787 1.433 . S
C795 N797 1.384 . S
N796 C792 1.427 . S
N796 C793 1.384 . S
N797 C789 1.427 . S
N797 C795 1.384 . S
H798 C804 0.930 . S
H799 C808 0.930 . S
H800 C813 0.929 . S
H801 C811 0.929 . S
H802 C806 0.929 . S
H803 C812 0.929 . S
C804 H798 0.930 . S
C804 C805 1.367 . S
C804 C812 1.378 . S
C805 C804 1.367 . S
C805 C813 1.433 . S
C806 H802 0.929 . S
C806 C808 1.378 . S
C806 C810 1.350 . S
C807 C810 1.463 . S
C807 C812 1.350 . S
C807 N815 1.427 . S
C808 H799 0.930 . S
C808 C806 1.378 . S
C808 C809 1.367 . S
C809 C808 1.367 . S
C809 C811 1.433 . S
C810 C806 1.350 . S
C810 C807 1.463 . S
C810 N814 1.427 . S
C811 H801 0.929 . S
C811 C809 1.433 . S
C811 N814 1.384 . S
C812 H803 0.929 . S
C812 C804 1.378 . S
C812 C807 1.350 . S
C813 H800 0.929 . S
C813 C805 1.433 . S
C813 N815 1.384 . S
N814 C810 1.427 . S
N814 C811 1.384 . S
N815 C807 1.427 . S
N815 C813 1.384 . S
H816 C822 0.930 . S
H817 C826 0.930 . S
H818 C831 0.929 . S
H819 C829 0.929 . S
H820 C824 0.929 . S
H821 C830 0.929 . S
C822 H816 0.930 . S
C822 C823 1.367 . S
C822 C830 1.378 . S
C823 C822 1.367 . S
C823 C831 1.433 . S
C824 H820 0.929 . S
C824 C826 1.378 . S
C824 C828 1.350 . S
C825 C828 1.463 . S
C825 C830 1.350 . S
C825 N833 1.427 . S
C826 H817 0.930 . S
C826 C824 1.378 . S
C826 C827 1.367 . S
C827 C826 1.367 . S
C827 C829 1.433 . S
C828 C824 1.350 . S
C828 C825 1.463 . S
C828 N832 1.427 . S
C829 H819 0.929 . S
C829 C827 1.433 . S
C829 N832 1.384 . S
C830 H821 0.929 . S
C830 C822 1.378 . S
C830 C825 1.350 . S
C831 H818 0.929 . S
C831 C823 1.433 . S
C831 N833 1.384 . S
N832 C828 1.427 . S
N832 C829 1.384 . S
N833 C825 1.427 . S
N833 C831 1.384 . S
H834 C840 0.930 . S
H835 C844 0.930 . S
H836 C849 0.929 . S
H837 C847 0.929 . S
H838 C842 0.929 . S
H839 C848 0.929 . S
C840 H834 0.930 . S
C840 C841 1.367 . S
C840 C848 1.378 . S
C841 C840 1.367 . S
C841 C849 1.433 . S
C842 H838 0.929 . S
C842 C844 1.378 . S
C842 C846 1.350 . S
C843 C846 1.463 . S
C843 C848 1.350 . S
C843 N851 1.427 . S
C844 H835 0.930 . S
C844 C842 1.378 . S
C844 C845 1.367 . S
C845 C844 1.367 . S
C845 C847 1.433 . S
C846 C842 1.350 . S
C846 C843 1.463 . S
C846 N850 1.427 . S
C847 H837 0.929 . S
C847 C845 1.433 . S
C847 N850 1.384 . S
C848 H839 0.929 . S
C848 C840 1.378 . S
C848 C843 1.350 . S
C849 H836 0.929 . S
C849 C841 1.433 . S
C849 N851 1.384 . S
N850 C846 1.427 . S
N850 C847 1.384 . S
N851 C843 1.427 . S
N851 C849 1.384 . S
H852 C858 0.930 . S
H853 C862 0.930 . S
H854 C867 0.929 . S
H855 C865 0.929 . S
H856 C860 0.929 . S
H857 C866 0.929 . S
C858 H852 0.930 . S
C858 C859 1.367 . S
C858 C866 1.378 . S
C859 C858 1.367 . S
C859 C867 1.433 . S
C860 H856 0.929 . S
C860 C862 1.378 . S
C860 C864 1.350 . S
C861 C864 1.463 . S
C861 C866 1.350 . S
C861 N869 1.427 . S
C862 H853 0.930 . S
C862 C860 1.378 . S
C862 C863 1.367 . S
C863 C862 1.367 . S
C863 C865 1.433 . S
C864 C860 1.350 . S
C864 C861 1.463 . S
C864 N868 1.427 . S
C865 H855 0.929 . S
C865 C863 1.433 . S
C865 N868 1.384 . S
C866 H857 0.929 . S
C866 C858 1.378 . S
C866 C861 1.350 . S
C867 H854 0.929 . S
C867 C859 1.433 . S
C867 N869 1.384 . S
N868 C864 1.427 . S
N868 C865 1.384 . S
N869 C861 1.427 . S
N869 C867 1.384 . S
H870 C876 0.930 . S
H871 C880 0.930 . S
H872 C885 0.929 . S
H873 C883 0.929 . S
H874 C878 0.929 . S
H875 C884 0.929 . S
C876 H870 0.930 . S
C876 C877 1.367 . S
C876 C884 1.378 . S
C877 C876 1.367 . S
C877 C885 1.433 . S
C878 H874 0.929 . S
C878 C880 1.378 . S
C878 C882 1.350 . S
C879 C882 1.463 . S
C879 C884 1.350 . S
C879 N887 1.427 . S
C880 H871 0.930 . S
C880 C878 1.378 . S
C880 C881 1.367 . S
C881 C880 1.367 . S
C881 C883 1.433 . S
C882 C878 1.350 . S
C882 C879 1.463 . S
C882 N886 1.427 . S
C883 H873 0.929 . S
C883 C881 1.433 . S
C883 N886 1.384 . S
C884 H875 0.929 . S
C884 C876 1.378 . S
C884 C879 1.350 . S
C885 H872 0.929 . S
C885 C877 1.433 . S
C885 N887 1.384 . S
N886 C882 1.427 . S
N886 C883 1.384 . S
N887 C879 1.427 . S
N887 C885 1.384 . S
H888 C894 0.930 . S
H889 C898 0.930 . S
H890 C903 0.929 . S
H891 C901 0.929 . S
H892 C896 0.929 . S
H893 C902 0.929 . S
C894 H888 0.930 . S
C894 C895 1.367 . S
C894 C902 1.378 . S
C895 C894 1.367 . S
C895 C903 1.433 . S
C896 H892 0.929 . S
C896 C898 1.378 . S
C896 C900 1.350 . S
C897 C900 1.463 . S
C897 C902 1.350 . S
C897 N905 1.427 . S
C898 H889 0.930 . S
C898 C896 1.378 . S
C898 C899 1.367 . S
C899 C898 1.367 . S
C899 C901 1.433 . S
C900 C896 1.350 . S
C900 C897 1.463 . S
C900 N904 1.427 . S
C901 H891 0.929 . S
C901 C899 1.433 . S
C901 N904 1.384 . S
C902 H893 0.929 . S
C902 C894 1.378 . S
C902 C897 1.350 . S
C903 H890 0.929 . S
C903 C895 1.433 . S
C903 N905 1.384 . S
N904 C900 1.427 . S
N904 C901 1.384 . S
N905 C897 1.427 . S
N905 C903 1.384 . S
H906 C912 0.930 . S
H907 C916 0.930 . S
H908 C921 0.929 . S
H909 C919 0.929 . S
H910 C914 0.929 . S
H911 C920 0.929 . S
C912 H906 0.930 . S
C912 C913 1.367 . S
C912 C920 1.378 . S
C913 C912 1.367 . S
C913 C921 1.433 . S
C914 H910 0.929 . S
C914 C916 1.378 . S
C914 C918 1.350 . S
C915 C918 1.463 . S
C915 C920 1.350 . S
C915 N923 1.427 . S
C916 H907 0.930 . S
C916 C914 1.378 . S
C916 C917 1.367 . S
C917 C916 1.367 . S
C917 C919 1.433 . S
C918 C914 1.350 . S
C918 C915 1.463 . S
C918 N922 1.427 . S
C919 H909 0.929 . S
C919 C917 1.433 . S
C919 N922 1.384 . S
C920 H911 0.929 . S
C920 C912 1.378 . S
C920 C915 1.350 . S
C921 H908 0.929 . S
C921 C913 1.433 . S
C921 N923 1.384 . S
N922 C918 1.427 . S
N922 C919 1.384 . S
N923 C915 1.427 . S
N923 C921 1.384 . S
H924 C930 0.930 . S
H925 C934 0.930 . S
H926 C939 0.929 . S
H927 C937 0.929 . S
H928 C932 0.929 . S
H929 C938 0.929 . S
C930 H924 0.930 . S
C930 C931 1.367 . S
C930 C938 1.378 . S
C931 C930 1.367 . S
C931 C939 1.433 . S
C932 H928 0.929 . S
C932 C934 1.378 . S
C932 C936 1.350 . S
C933 C936 1.463 . S
C933 C938 1.350 . S
C933 N941 1.427 . S
C934 H925 0.930 . S
C934 C932 1.378 . S
C934 C935 1.367 . S
C935 C934 1.367 . S
C935 C937 1.433 . S
C936 C932 1.350 . S
C936 C933 1.463 . S
C936 N940 1.427 . S
C937 H927 0.929 . S
C937 C935 1.433 . S
C937 N940 1.384 . S
C938 H929 0.929 . S
C938 C930 1.378 . S
C938 C933 1.350 . S
C939 H926 0.929 . S
C939 C931 1.433 . S
C939 N941 1.384 . S
N940 C936 1.427 . S
N940 C937 1.384 . S
N941 C933 1.427 . S
N941 C939 1.384 . S
H942 C948 0.930 . S
H943 C952 0.930 . S
H944 C957 0.929 . S
H945 C955 0.929 . S
H946 C950 0.929 . S
H947 C956 0.929 . S
C948 H942 0.930 . S
C948 C949 1.367 . S
C948 C956 1.378 . S
C949 C948 1.367 . S
C949 C957 1.433 . S
C950 H946 0.929 . S
C950 C952 1.378 . S
C950 C954 1.350 . S
C951 C954 1.463 . S
C951 C956 1.350 . S
C951 N959 1.427 . S
C952 H943 0.930 . S
C952 C950 1.378 . S
C952 C953 1.367 . S
C953 C952 1.367 . S
C953 C955 1.433 . S
C954 C950 1.350 . S
C954 C951 1.463 . S
C954 N958 1.427 . S
C955 H945 0.929 . S
C955 C953 1.433 . S
C955 N958 1.384 . S
C956 H947 0.929 . S
C956 C948 1.378 . S
C956 C951 1.350 . S
C957 H944 0.929 . S
C957 C949 1.433 . S
C957 N959 1.384 . S
N958 C954 1.427 . S
N958 C955 1.384 . S
N959 C951 1.427 . S
N959 C957 1.384 . S
H960 C966 0.930 . S
H961 C970 0.930 . S
H962 C975 0.929 . S
H963 C973 0.929 . S
H964 C968 0.929 . S
H965 C974 0.929 . S
C966 H960 0.930 . S
C966 C967 1.367 . S
C966 C974 1.378 . S
C967 C966 1.367 . S
C967 C975 1.433 . S
C968 H964 0.929 . S
C968 C970 1.378 . S
C968 C972 1.350 . S
C969 C972 1.463 . S
C969 C974 1.350 . S
C969 N977 1.427 . S
C970 H961 0.930 . S
C970 C968 1.378 . S
C970 C971 1.367 . S
C971 C970 1.367 . S
C971 C973 1.433 . S
C972 C968 1.350 . S
C972 C969 1.463 . S
C972 N976 1.427 . S
C973 H963 0.929 . S
C973 C971 1.433 . S
C973 N976 1.384 . S
C974 H965 0.929 . S
C974 C966 1.378 . S
C974 C969 1.350 . S
C975 H962 0.929 . S
C975 C967 1.433 . S
C975 N977 1.384 . S
N976 C972 1.427 . S
N976 C973 1.384 . S
N977 C969 1.427 . S
N977 C975 1.384 . S
H978 C984 0.930 . S
H979 C988 0.930 . S
H980 C993 0.929 . S
H981 C991 0.929 . S
H982 C986 0.929 . S
H983 C992 0.929 . S
C984 H978 0.930 . S
C984 C985 1.367 . S
C984 C992 1.378 . S
C985 C984 1.367 . S
C985 C993 1.433 . S
C986 H982 0.929 . S
C986 C988 1.378 . S
C986 C990 1.350 . S
C987 C990 1.463 . S
C987 C992 1.350 . S
C987 N995 1.427 . S
C988 H979 0.930 . S
C988 C986 1.378 . S
C988 C989 1.367 . S
C989 C988 1.367 . S
C989 C991 1.433 . S
C990 C986 1.350 . S
C990 C987 1.463 . S
C990 N994 1.427 . S
C991 H981 0.929 . S
C991 C989 1.433 . S
C991 N994 1.384 . S
C992 H983 0.929 . S
C992 C984 1.378 . S
C992 C987 1.350 . S
C993 H980 0.929 . S
C993 C985 1.433 . S
C993 N995 1.384 . S
N994 C990 1.427 . S
N994 C991 1.384 . S
N995 C987 1.427 . S
N995 C993 1.384 . S
C575 C492 1.506 . S
C571 C31 1.488 . S
C593 C495 1.506 . S
C589 C61 1.491 . S
C611 C493 1.506 . S
C607 C121 1.481 . S
C629 C494 1.506 . S
C625 C211 1.473 . S
C647 C509 1.503 . S
C643 C1 1.490 . S
C665 C523 1.505 . S
C661 C91 1.480 . S
C679 C151 1.480 . S
C683 C549 1.505 . S
C701 C563 1.506 . S
C697 C181 1.480 . S
C719 C508 1.505 . S
C715 C80 1.485 . S
C733 C140 1.487 . S
C737 C522 1.506 . S
C755 C548 1.503 . S
C751 C200 1.472 . S
C773 C562 1.507 . S
C769 C20 1.484 . S
C787 C271 1.486 . S
C791 C507 1.508 . S
C809 C480 1.507 . S
C805 C331 1.477 . S
C823 C380 1.481 . S
C827 C506 1.504 . S
C841 C421 1.488 . S
C845 C481 1.507 . S
C863 C536 1.503 . S
C859 C241 1.490 . S
C881 C550 1.504 . S
C877 C320 1.476 . S
C899 C520 1.504 . S
C895 C361 1.484 . S
C913 C440 1.484 . S
C917 C534 1.507 . S
C935 C537 1.505 . S
C931 C301 1.475 . S
C953 C551 1.507 . S
C949 C391 1.486 . S
C971 C521 1.505 . S
C967 C451 1.488 . S
C985 C260 1.480 . S
C989 C535 1.506 . S
