# Generated by pormake.
# Topology eea, (3,6)-cn, num edge types: 1
# Building blocks:
#     Node 0, Type 0, BuildingBlock: VETTIZ_charged_linker_0, # of connection points: 3
#     Node 1, Type 0, BuildingBlock: VETTIZ_charged_linker_0, # of connection points: 3
#     Node 2, Type 0, BuildingBlock: VETTIZ_charged_linker_0, # of connection points: 3
#     Node 3, Type 0, BuildingBlock: VETTIZ_charged_linker_0, # of connection points: 3
#     Node 4, Type 0, BuildingBlock: VETTIZ_charged_linker_0, # of connection points: 3
#     Node 5, Type 0, BuildingBlock: VETTIZ_charged_linker_0, # of connection points: 3
#     Node 6, Type 0, BuildingBlock: VETTIZ_charged_linker_0, # of connection points: 3
#     Node 7, Type 0, BuildingBlock: VETTIZ_charged_linker_0, # of connection points: 3
#     Node 8, Type 0, BuildingBlock: VETTIZ_charged_linker_0, # of connection points: 3
#     Node 9, Type 0, BuildingBlock: VETTIZ_charged_linker_0, # of connection points: 3
#     Node 10, Type 0, BuildingBlock: VETTIZ_charged_linker_0, # of connection points: 3
#     Node 11, Type 0, BuildingBlock: VETTIZ_charged_linker_0, # of connection points: 3
#     Node 12, Type 0, BuildingBlock: VETTIZ_charged_linker_0, # of connection points: 3
#     Node 13, Type 0, BuildingBlock: VETTIZ_charged_linker_0, # of connection points: 3
#     Node 14, Type 0, BuildingBlock: VETTIZ_charged_linker_0, # of connection points: 3
#     Node 15, Type 0, BuildingBlock: VETTIZ_charged_linker_0, # of connection points: 3
#     Node 16, Type 0, BuildingBlock: VETTIZ_charged_linker_0, # of connection points: 3
#     Node 17, Type 0, BuildingBlock: VETTIZ_charged_linker_0, # of connection points: 3
#     Node 18, Type 1, BuildingBlock: KUMBUR_clean_sbu_0, # of connection points: 6
#     Node 19, Type 1, BuildingBlock: KUMBUR_clean_sbu_0, # of connection points: 6
#     Node 20, Type 1, BuildingBlock: KUMBUR_clean_sbu_0, # of connection points: 6
#     Node 21, Type 1, BuildingBlock: KUMBUR_clean_sbu_0, # of connection points: 6
#     Node 22, Type 1, BuildingBlock: KUMBUR_clean_sbu_0, # of connection points: 6
#     Node 23, Type 1, BuildingBlock: KUMBUR_clean_sbu_0, # of connection points: 6
#     Node 24, Type 1, BuildingBlock: KUMBUR_clean_sbu_0, # of connection points: 6
#     Node 25, Type 1, BuildingBlock: KUMBUR_clean_sbu_0, # of connection points: 6
#     Node 26, Type 1, BuildingBlock: KUMBUR_clean_sbu_0, # of connection points: 6
#     Edge 27, Type (0, 1), BuildingBlock: AJUNOK_clean_linker_0, # of connection points: 2
#     Edge 28, Type (0, 1), BuildingBlock: AJUNOK_clean_linker_0, # of connection points: 2
#     Edge 29, Type (0, 1), BuildingBlock: AJUNOK_clean_linker_0, # of connection points: 2
#     Edge 30, Type (0, 1), BuildingBlock: AJUNOK_clean_linker_0, # of connection points: 2
#     Edge 31, Type (0, 1), BuildingBlock: AJUNOK_clean_linker_0, # of connection points: 2
#     Edge 32, Type (0, 1), BuildingBlock: AJUNOK_clean_linker_0, # of connection points: 2
#     Edge 33, Type (0, 1), BuildingBlock: AJUNOK_clean_linker_0, # of connection points: 2
#     Edge 34, Type (0, 1), BuildingBlock: AJUNOK_clean_linker_0, # of connection points: 2
#     Edge 35, Type (0, 1), BuildingBlock: AJUNOK_clean_linker_0, # of connection points: 2
#     Edge 36, Type (0, 1), BuildingBlock: AJUNOK_clean_linker_0, # of connection points: 2
#     Edge 37, Type (0, 1), BuildingBlock: AJUNOK_clean_linker_0, # of connection points: 2
#     Edge 38, Type (0, 1), BuildingBlock: AJUNOK_clean_linker_0, # of connection points: 2
#     Edge 39, Type (0, 1), BuildingBlock: AJUNOK_clean_linker_0, # of connection points: 2
#     Edge 40, Type (0, 1), BuildingBlock: AJUNOK_clean_linker_0, # of connection points: 2
#     Edge 41, Type (0, 1), BuildingBlock: AJUNOK_clean_linker_0, # of connection points: 2
#     Edge 42, Type (0, 1), BuildingBlock: AJUNOK_clean_linker_0, # of connection points: 2
#     Edge 43, Type (0, 1), BuildingBlock: AJUNOK_clean_linker_0, # of connection points: 2
#     Edge 44, Type (0, 1), BuildingBlock: AJUNOK_clean_linker_0, # of connection points: 2
#     Edge 45, Type (0, 1), BuildingBlock: AJUNOK_clean_linker_0, # of connection points: 2
#     Edge 46, Type (0, 1), BuildingBlock: AJUNOK_clean_linker_0, # of connection points: 2
#     Edge 47, Type (0, 1), BuildingBlock: AJUNOK_clean_linker_0, # of connection points: 2
#     Edge 48, Type (0, 1), BuildingBlock: AJUNOK_clean_linker_0, # of connection points: 2
#     Edge 49, Type (0, 1), BuildingBlock: AJUNOK_clean_linker_0, # of connection points: 2
#     Edge 50, Type (0, 1), BuildingBlock: AJUNOK_clean_linker_0, # of connection points: 2
#     Edge 51, Type (0, 1), BuildingBlock: AJUNOK_clean_linker_0, # of connection points: 2
#     Edge 52, Type (0, 1), BuildingBlock: AJUNOK_clean_linker_0, # of connection points: 2
#     Edge 53, Type (0, 1), BuildingBlock: AJUNOK_clean_linker_0, # of connection points: 2
#     Edge 54, Type (0, 1), BuildingBlock: AJUNOK_clean_linker_0, # of connection points: 2
#     Edge 55, Type (0, 1), BuildingBlock: AJUNOK_clean_linker_0, # of connection points: 2
#     Edge 56, Type (0, 1), BuildingBlock: AJUNOK_clean_linker_0, # of connection points: 2
#     Edge 57, Type (0, 1), BuildingBlock: AJUNOK_clean_linker_0, # of connection points: 2
#     Edge 58, Type (0, 1), BuildingBlock: AJUNOK_clean_linker_0, # of connection points: 2
#     Edge 59, Type (0, 1), BuildingBlock: AJUNOK_clean_linker_0, # of connection points: 2
#     Edge 60, Type (0, 1), BuildingBlock: AJUNOK_clean_linker_0, # of connection points: 2
#     Edge 61, Type (0, 1), BuildingBlock: AJUNOK_clean_linker_0, # of connection points: 2
#     Edge 62, Type (0, 1), BuildingBlock: AJUNOK_clean_linker_0, # of connection points: 2
#     Edge 63, Type (0, 1), BuildingBlock: AJUNOK_clean_linker_0, # of connection points: 2
#     Edge 64, Type (0, 1), BuildingBlock: AJUNOK_clean_linker_0, # of connection points: 2
#     Edge 65, Type (0, 1), BuildingBlock: AJUNOK_clean_linker_0, # of connection points: 2
#     Edge 66, Type (0, 1), BuildingBlock: AJUNOK_clean_linker_0, # of connection points: 2
#     Edge 67, Type (0, 1), BuildingBlock: AJUNOK_clean_linker_0, # of connection points: 2
#     Edge 68, Type (0, 1), BuildingBlock: AJUNOK_clean_linker_0, # of connection points: 2
#     Edge 69, Type (0, 1), BuildingBlock: AJUNOK_clean_linker_0, # of connection points: 2
#     Edge 70, Type (0, 1), BuildingBlock: AJUNOK_clean_linker_0, # of connection points: 2
#     Edge 71, Type (0, 1), BuildingBlock: AJUNOK_clean_linker_0, # of connection points: 2
#     Edge 72, Type (0, 1), BuildingBlock: AJUNOK_clean_linker_0, # of connection points: 2
#     Edge 73, Type (0, 1), BuildingBlock: AJUNOK_clean_linker_0, # of connection points: 2
#     Edge 74, Type (0, 1), BuildingBlock: AJUNOK_clean_linker_0, # of connection points: 2
#     Edge 75, Type (0, 1), BuildingBlock: AJUNOK_clean_linker_0, # of connection points: 2
#     Edge 76, Type (0, 1), BuildingBlock: AJUNOK_clean_linker_0, # of connection points: 2
#     Edge 77, Type (0, 1), BuildingBlock: AJUNOK_clean_linker_0, # of connection points: 2
#     Edge 78, Type (0, 1), BuildingBlock: AJUNOK_clean_linker_0, # of connection points: 2
#     Edge 79, Type (0, 1), BuildingBlock: AJUNOK_clean_linker_0, # of connection points: 2
#     Edge 80, Type (0, 1), BuildingBlock: AJUNOK_clean_linker_0, # of connection points: 2
# Relax obj value: 0.008
# Max RMSD: 0.091
# Mean RMSD: 0.071
data_MOF--net-eea--node1-KUMBUR_clean_sbu_0--node2-VETTIZ_charged_linker_0--edge1-AJUNOK_clean_linker_0
_symmetry_space_group_name_H-M    P1
_symmetry_Int_Tables_number       1
_symmetry_cell_setting            triclinic
loop_
_symmetry_equiv_pos_as_xyz
'x, y, z'
_cell_length_a     47.698569
_cell_length_b     49.204514
_cell_length_c     71.299434
_cell_angle_alpha  89.844204
_cell_angle_beta   89.996375
_cell_angle_gamma 119.85439
loop_
_atom_site_label
_atom_site_type_symbol
_atom_site_fract_x
_atom_site_fract_y
_atom_site_fract_z
_atom_type_partial_charge
C0 C 0.22701 0.18946 0.39128 0.0
C1 C 0.23015 0.21658 0.3997 0.0
C2 C 0.24283 0.22445 0.418 0.0
C3 C 0.249 0.17844 0.41913 0.0
C4 C 0.23656 0.17088 0.40117 0.0
C5 C 0.23429 0.14106 0.39426 0.0
H6 H 0.25055 0.01458 0.41113 0.0
C7 C 0.25582 0.15375 0.4256 0.0
C8 C 0.24717 0.13179 0.41105 0.0
H9 H 0.21746 0.03758 0.36027 0.0
H10 H 0.22578 0.08573 0.37425 0.0
H11 H 0.3106 0.08278 0.4173 0.0
H12 H 0.21405 0.03534 0.43951 0.0
H13 H 0.23969 0.05629 0.45818 0.0
H14 H 0.24452 0.02626 0.4467 0.0
H15 H 0.29846 0.05392 0.43555 0.0
H16 H 0.31394 0.09485 0.4407 0.0
C17 C 0.25667 0.14899 0.37691 0.0
C18 C 0.1982 0.1172 0.39046 0.0
C19 C 0.30258 0.15894 0.49066 0.0
C20 C 0.3104 0.13863 0.50033 0.0
C21 C 0.30534 0.11097 0.49154 0.0
C22 C 0.29251 0.10344 0.47345 0.0
C23 C 0.28469 0.12381 0.46394 0.0
C24 C 0.28962 0.15099 0.47253 0.0
C25 C 0.27946 0.1695 0.4602 0.0
C26 C 0.26817 0.14915 0.44274 0.0
C27 C 0.27136 0.12249 0.44509 0.0
C28 C 0.30954 0.20185 0.45624 0.0
C29 C 0.25138 0.17109 0.47008 0.0
C30 C 0.24566 0.03027 0.40288 0.0
C31 C 0.2337 0.02254 0.38452 0.0
C32 C 0.22672 0.04313 0.37445 0.0
C33 C 0.23162 0.07106 0.38259 0.0
C34 C 0.24349 0.07839 0.40103 0.0
C35 C 0.25055 0.05824 0.41076 0.0
C36 C 0.2633 0.06987 0.43009 0.0
C37 C 0.26248 0.10028 0.43044 0.0
C38 C 0.2507 0.10504 0.41346 0.0
C39 C 0.2983 0.07552 0.43117 0.0
C40 C 0.23945 0.04575 0.44449 0.0
H41 H 0.26188 0.21278 0.44161 0.0
H42 H 0.21675 0.1825 0.37738 0.0
H43 H 0.18239 0.11957 0.40103 0.0
H44 H 0.19246 0.09259 0.39163 0.0
H45 H 0.19073 0.12101 0.37639 0.0
H46 H 0.27848 0.1726 0.37828 0.0
H47 H 0.24398 0.14902 0.36385 0.0
H48 H 0.26631 0.13287 0.37519 0.0
H49 H 0.30627 0.18037 0.49712 0.0
H50 H 0.31182 0.09534 0.49859 0.0
H51 H 0.28932 0.08206 0.46756 0.0
H52 H 0.33123 0.19941 0.45384 0.0
H53 H 0.3148 0.21795 0.46829 0.0
H54 H 0.30715 0.21316 0.44343 0.0
H55 H 0.23566 0.14902 0.4779 0.0
H56 H 0.23499 0.1735 0.46015 0.0
H57 H 0.26071 0.19068 0.48029 0.0
H58 H 0.24551 0.24533 0.42472 0.0
C59 C 0.25236 0.20557 0.42774 0.0
C60 C 0.98607 0.18728 0.38907 0.0
C61 C 1.00785 0.21749 0.39561 0.0
C62 C 1.00317 0.22654 0.41354 0.0
C63 C 0.95498 0.17604 0.41802 0.0
C64 C 0.95969 0.16707 0.40043 0.0
C65 C 0.93309 0.13471 0.39535 0.0
H66 H 0.79266 0.00421 0.41876 0.0
C67 C 0.92496 0.15 0.42608 0.0
C68 C 0.91197 0.1257 0.41281 0.0
H69 H 0.84575 0.02351 0.3667 0.0
H70 H 0.88674 0.07366 0.37871 0.0
H71 H 0.85312 0.03066 0.44588 0.0
H72 H 0.80003 0.07199 0.42239 0.0
H73 H 0.80853 0.08468 0.44573 0.0
H74 H 0.78425 0.04337 0.44086 0.0
H75 H 0.81407 0.02161 0.45449 0.0
H76 H 0.85073 0.05421 0.46353 0.0
C77 C 0.94829 0.11358 0.39261 0.0
C78 C 0.91543 0.13746 0.37782 0.0
C79 C 0.88626 0.16016 0.49116 0.0
C80 C 0.85922 0.13965 0.50209 0.0
C81 C 0.83754 0.1097 0.49497 0.0
C82 C 0.84231 0.10039 0.47728 0.0
C83 C 0.8691 0.1212 0.46641 0.0
C84 C 0.89069 0.15045 0.47342 0.0
C85 C 0.91787 0.16922 0.45982 0.0
C86 C 0.90891 0.1464 0.44354 0.0
C87 C 0.88023 0.11842 0.44751 0.0
C88 C 0.94998 0.17599 0.4692 0.0
C89 C 0.91635 0.19892 0.45424 0.0
C90 C 0.81289 0.01939 0.40983 0.0
C91 C 0.81571 0.01007 0.39164 0.0
C92 C 0.843 0.03017 0.38075 0.0
C93 C 0.86669 0.05935 0.38772 0.0
C94 C 0.86309 0.06861 0.4058 0.0
C95 C 0.83654 0.04865 0.41652 0.0
C96 C 0.8363 0.06234 0.43528 0.0
C97 C 0.86701 0.09393 0.43408 0.0
C98 C 0.88272 0.09752 0.41682 0.0
C99 C 0.83842 0.04116 0.45071 0.0
C100 C 0.80567 0.06568 0.43633 0.0
H101 H 0.97474 0.2144 0.43825 0.0
H102 H 0.98901 0.17992 0.37525 0.0
H103 H 0.91484 0.15979 0.37797 0.0
H104 H 0.88979 0.11895 0.37718 0.0
H105 H 0.92777 0.13704 0.3647 0.0
H106 H 0.96717 0.11879 0.40339 0.0
H107 H 0.9599 0.11749 0.37861 0.0
H108 H 0.93068 0.08841 0.3943 0.0
H109 H 0.90366 0.18315 0.49634 0.0
H110 H 0.81645 0.09355 0.50301 0.0
H111 H 0.82473 0.07736 0.4727 0.0
H112 H 0.94655 0.15551 0.47765 0.0
H113 H 0.95909 0.19645 0.47875 0.0
H114 H 0.96907 0.18008 0.45896 0.0
H115 H 0.89084 0.19365 0.45323 0.0
H116 H 0.9268 0.20809 0.44026 0.0
H117 H 0.92871 0.21778 0.46479 0.0
H118 H 0.01983 0.24973 0.41882 0.0
C119 C 0.97699 0.20601 0.42479 0.0
C120 C 0.98366 0.79935 0.39032 0.0
C121 C 1.00775 0.79323 0.39715 0.0
C122 C 1.00259 0.77771 0.41455 0.0
C123 C 0.95083 0.77547 0.41825 0.0
C124 C 0.95545 0.79018 0.40103 0.0
C125 C 0.92721 0.79447 0.39583 0.0
H126 H 0.77734 0.77079 0.41694 0.0
C127 C 0.91932 0.76943 0.42602 0.0
C128 C 0.90524 0.78045 0.41285 0.0
H129 H 0.83344 0.81436 0.36712 0.0
H130 H 0.8776 0.80826 0.37934 0.0
H131 H 0.79561 0.71557 0.42094 0.0
H132 H 0.8338 0.80721 0.44501 0.0
H133 H 0.83859 0.78435 0.46225 0.0
H134 H 0.79845 0.77398 0.45441 0.0
H135 H 0.774 0.72593 0.43739 0.0
H136 H 0.801 0.71258 0.44513 0.0
C137 C 0.91169 0.77542 0.3778 0.0
C138 C 0.93957 0.82998 0.39382 0.0
C139 C 0.88066 0.71668 0.49028 0.0
C140 C 0.85257 0.70835 0.50096 0.0
C141 C 0.83003 0.71649 0.494 0.0
C142 C 0.83445 0.73122 0.47653 0.0
C143 C 0.86195 0.7384 0.46573 0.0
C144 C 0.88483 0.73167 0.47277 0.0
C145 C 0.91296 0.74197 0.45942 0.0
C146 C 0.903 0.7557 0.44323 0.0
C147 C 0.87291 0.75323 0.447 0.0
C148 C 0.91457 0.71257 0.45336 0.0
C149 C 0.94378 0.76725 0.46937 0.0
C150 C 0.79905 0.77877 0.4086 0.0
C151 C 0.80175 0.79257 0.39092 0.0
C152 C 0.83076 0.80348 0.38073 0.0
C153 C 0.85626 0.79977 0.38783 0.0
C154 C 0.85289 0.78523 0.40541 0.0
C155 C 0.82472 0.77547 0.41555 0.0
C156 C 0.82549 0.76158 0.43422 0.0
C157 C 0.85833 0.76366 0.4335 0.0
C158 C 0.87438 0.7774 0.41656 0.0
C159 C 0.79752 0.72714 0.43464 0.0
C160 C 0.82378 0.78258 0.44987 0.0
H161 H 0.97232 0.75743 0.43827 0.0
H162 H 0.98662 0.81085 0.3769 0.0
H163 H 0.95783 0.84341 0.40481 0.0
H164 H 0.9203 0.83592 0.39578 0.0
H165 H 0.95117 0.83888 0.37994 0.0
H166 H 0.911 0.75248 0.37833 0.0
H167 H 0.92575 0.78822 0.36517 0.0
H168 H 0.88634 0.76952 0.37594 0.0
H169 H 0.89863 0.71104 0.49525 0.0
H170 H 0.80875 0.71137 0.50212 0.0
H171 H 0.81605 0.73626 0.47205 0.0
H172 H 0.88985 0.692 0.45185 0.0
H173 H 0.92766 0.70641 0.46389 0.0
H174 H 0.92598 0.71528 0.43949 0.0
H175 H 0.93833 0.78301 0.47786 0.0
H176 H 0.96289 0.7829 0.4595 0.0
H177 H 0.95373 0.75636 0.479 0.0
H178 H 0.02074 0.77287 0.42021 0.0
C179 C 0.97448 0.76892 0.4251 0.0
C180 C 0.18959 0.20202 0.64 0.0
C181 C 0.21984 0.20878 0.63258 0.0
C182 C 0.22833 0.22162 0.61441 0.0
C183 C 0.17776 0.22183 0.61142 0.0
C184 C 0.16904 0.20899 0.62922 0.0
C185 C 0.13661 0.2049 0.63499 0.0
H186 H 0.01015 0.22863 0.6154 0.0
C187 C 0.15195 0.22742 0.60407 0.0
C188 C 0.12768 0.21772 0.61785 0.0
H189 H 0.0231 0.18569 0.66504 0.0
H190 H 0.07297 0.19142 0.65218 0.0
H191 H 0.08409 0.28327 0.6109 0.0
H192 H 0.03092 0.19147 0.58619 0.0
H193 H 0.05528 0.21765 0.56859 0.0
H194 H 0.02431 0.22305 0.57954 0.0
H195 H 0.05335 0.27373 0.59352 0.0
H196 H 0.09466 0.28666 0.58704 0.0
C197 C 0.14168 0.22503 0.65263 0.0
C198 C 0.11286 0.16953 0.63792 0.0
C199 C 0.16518 0.27636 0.53913 0.0
C200 C 0.14707 0.28678 0.5288 0.0
C201 C 0.11776 0.28213 0.5366 0.0
C202 C 0.10714 0.26815 0.55436 0.0
C203 C 0.12596 0.25862 0.56467 0.0
C204 C 0.15442 0.26276 0.55696 0.0
C205 C 0.17188 0.25217 0.57008 0.0
C206 C 0.14905 0.24059 0.58685 0.0
C207 C 0.12211 0.24432 0.58362 0.0
C208 C 0.20501 0.2811 0.57501 0.0
C209 C 0.17415 0.22512 0.56049 0.0
C210 C 0.02387 0.22067 0.62356 0.0
C211 C 0.01291 0.20711 0.6414 0.0
C212 C 0.03107 0.19631 0.65132 0.0
C213 C 0.06009 0.19979 0.64384 0.0
C214 C 0.07107 0.21402 0.62613 0.0
C215 C 0.05266 0.22375 0.61623 0.0
C216 C 0.06722 0.23745 0.5974 0.0
C217 C 0.09764 0.23484 0.59764 0.0
C218 C 0.1001 0.2213 0.61458 0.0
C219 C 0.07514 0.27204 0.597 0.0
C220 C 0.04327 0.21661 0.58202 0.0
H221 H 0.21568 0.23777 0.59011 0.0
H222 H 0.18252 0.19234 0.65399 0.0
H223 H 0.11674 0.15545 0.62712 0.0
H224 H 0.08734 0.16334 0.63642 0.0
H225 H 0.11633 0.16165 0.65191 0.0
H226 H 0.16382 0.24839 0.65112 0.0
H227 H 0.14462 0.21357 0.66534 0.0
H228 H 0.12179 0.2299 0.65507 0.0
H229 H 0.18742 0.27881 0.53354 0.0
H230 H 0.10331 0.28998 0.52912 0.0
H231 H 0.08484 0.26567 0.55949 0.0
H232 H 0.20401 0.30319 0.57419 0.0
H233 H 0.22424 0.2835 0.56523 0.0
H234 H 0.21258 0.28047 0.58959 0.0
H235 H 0.15128 0.20926 0.553 0.0
H236 H 0.17758 0.20992 0.57054 0.0
H237 H 0.19407 0.23431 0.55003 0.0
H238 H 0.25136 0.22687 0.60838 0.0
C239 C 0.20753 0.22798 0.60381 0.0
C240 C 0.80122 0.82007 0.63441 0.0
C241 C 0.79331 0.79069 0.62703 0.0
C242 C 0.77595 0.781 0.61003 0.0
C243 C 0.77598 0.83019 0.60773 0.0
C244 C 0.79236 0.83931 0.6246 0.0
C245 C 0.79896 0.87117 0.63061 0.0
H246 H 0.78622 0.99994 0.61441 0.0
C247 C 0.77105 0.85598 0.60099 0.0
C248 C 0.78446 0.88 0.6144 0.0
H249 H 0.82769 0.97947 0.66255 0.0
H250 H 0.81617 0.93023 0.6488 0.0
H251 H 0.81829 0.97798 0.58406 0.0
H252 H 0.7245 0.92984 0.61003 0.0
H253 H 0.71938 0.92246 0.58577 0.0
H254 H 0.73698 0.96213 0.59405 0.0
H255 H 0.78586 0.98375 0.5763 0.0
H256 H 0.79182 0.95295 0.56684 0.0
C257 C 0.83608 0.89296 0.63181 0.0
C258 C 0.7806 0.86742 0.64927 0.0
C259 C 0.71374 0.84674 0.53896 0.0
C260 C 0.70686 0.86756 0.52907 0.0
C261 C 0.7179 0.89782 0.53635 0.0
C262 C 0.73427 0.90681 0.55349 0.0
C263 C 0.7401 0.8855 0.56348 0.0
C264 C 0.73044 0.85623 0.55605 0.0
C265 C 0.74014 0.83731 0.56835 0.0
C266 C 0.75666 0.8599 0.58448 0.0
C267 C 0.75625 0.88794 0.58157 0.0
C268 C 0.76403 0.83085 0.55716 0.0
C269 C 0.70906 0.80744 0.57481 0.0
C270 C 0.79291 0.98483 0.6219 0.0
C271 C 0.80749 0.9933 0.63966 0.0
C272 C 0.81586 0.9731 0.64902 0.0
C273 C 0.80927 0.94459 0.64096 0.0
C274 C 0.79415 0.93616 0.62333 0.0
C275 C 0.78639 0.95622 0.61407 0.0
C276 C 0.77039 0.94335 0.59549 0.0
C277 C 0.76939 0.91201 0.59527 0.0
C278 C 0.78338 0.90801 0.61159 0.0
C279 C 0.79243 0.96561 0.57977 0.0
C280 C 0.73605 0.93932 0.59617 0.0
H281 H 0.75425 0.79194 0.58745 0.0
H282 H 0.81447 0.82817 0.64745 0.0
H283 H 0.75794 0.84433 0.64998 0.0
H284 H 0.77251 0.88479 0.65083 0.0
H285 H 0.79561 0.86894 0.66156 0.0
H286 H 0.84852 0.88776 0.62034 0.0
H287 H 0.84565 0.8898 0.64535 0.0
H288 H 0.84367 0.91798 0.63001 0.0
H289 H 0.70592 0.82345 0.53364 0.0
H290 H 0.71403 0.91472 0.5287 0.0
H291 H 0.74171 0.93005 0.55829 0.0
H292 H 0.78032 0.85144 0.54833 0.0
H293 H 0.75091 0.81044 0.54769 0.0
H294 H 0.78038 0.82687 0.56624 0.0
H295 H 0.6894 0.81276 0.5778 0.0
H296 H 0.71233 0.7976 0.58802 0.0
H297 H 0.70023 0.78908 0.56381 0.0
H298 H 0.76883 0.7581 0.60429 0.0
C299 C 0.76734 0.8006 0.60032 0.0
C300 C 0.03158 0.81387 0.63765 0.0
C301 C 0.00992 0.78331 0.63149 0.0
C302 C 0.01535 0.77341 0.61401 0.0
C303 C 0.06344 0.82397 0.6091 0.0
C304 C 0.05826 0.83363 0.62633 0.0
C305 C 0.08466 0.86626 0.63111 0.0
H306 H 0.22913 0.99336 0.60965 0.0
C307 C 0.09356 0.84986 0.60093 0.0
C308 C 0.10624 0.87467 0.61385 0.0
H309 H 0.16993 0.97831 0.65882 0.0
H310 H 0.12944 0.92832 0.6467 0.0
H311 H 0.21603 0.92225 0.60517 0.0
H312 H 0.17063 0.97091 0.58098 0.0
H313 H 0.17002 0.94528 0.56372 0.0
H314 H 0.20833 0.97629 0.57225 0.0
H315 H 0.23592 0.95429 0.58893 0.0
H316 H 0.21131 0.91467 0.58088 0.0
C317 C 0.10189 0.86421 0.64904 0.0
C318 C 0.06929 0.88741 0.63302 0.0
C319 C 0.13222 0.83735 0.53642 0.0
C320 C 0.15882 0.85747 0.52512 0.0
C321 C 0.18075 0.88766 0.53186 0.0
C322 C 0.17642 0.89762 0.54951 0.0
C323 C 0.14981 0.87725 0.56069 0.0
C324 C 0.12806 0.84778 0.554 0.0
C325 C 0.10093 0.82953 0.5677 0.0
C326 C 0.10991 0.85291 0.58365 0.0
C327 C 0.13878 0.88072 0.57954 0.0
C328 C 0.1024 0.80001 0.5738 0.0
C329 C 0.06882 0.82247 0.5582 0.0
C330 C 0.20727 0.97958 0.61772 0.0
C331 C 0.20292 0.99005 0.63529 0.0
C332 C 0.17424 0.97079 0.64539 0.0
C333 C 0.15061 0.94175 0.63828 0.0
C334 C 0.15545 0.93159 0.62079 0.0
C335 C 0.18321 0.95063 0.61069 0.0
C336 C 0.18363 0.93657 0.59202 0.0
C337 C 0.15205 0.90554 0.59284 0.0
C338 C 0.13574 0.90264 0.6098 0.0
C339 C 0.21333 0.93176 0.59154 0.0
C340 C 0.18337 0.95833 0.57633 0.0
H341 H 0.04448 0.78454 0.58962 0.0
H342 H 0.02821 0.82191 0.65115 0.0
H343 H 0.04949 0.88068 0.62265 0.0
H344 H 0.08653 0.91233 0.63004 0.0
H345 H 0.05883 0.8853 0.64723 0.0
H346 H 0.10366 0.8425 0.64901 0.0
H347 H 0.08842 0.86374 0.66186 0.0
H348 H 0.12709 0.88349 0.65019 0.0
H349 H 0.11497 0.814 0.53166 0.0
H350 H 0.20175 0.90338 0.52361 0.0
H351 H 0.19418 0.92074 0.55387 0.0
H352 H 0.12782 0.80491 0.5743 0.0
H353 H 0.089 0.78038 0.56385 0.0
H354 H 0.09302 0.79206 0.58813 0.0
H355 H 0.07212 0.84297 0.54981 0.0
H356 H 0.04949 0.81795 0.56834 0.0
H357 H 0.06011 0.80216 0.54856 0.0
H358 H 0.99892 0.74997 0.609 0.0
C359 C 0.0418 0.79355 0.60277 0.0
C360 C 0.87697 0.51136 0.73073 0.0
C361 C 0.8827 0.53979 0.73865 0.0
C362 C 0.89381 0.54667 0.75732 0.0
C363 C 0.89525 0.49822 0.75939 0.0
C364 C 0.88328 0.491 0.74132 0.0
C365 C 0.87855 0.45989 0.73498 0.0
H366 H 0.89391 0.33269 0.75192 0.0
C367 C 0.89987 0.4724 0.76636 0.0
C368 C 0.88978 0.44972 0.75217 0.0
H369 H 0.85585 0.35362 0.70236 0.0
H370 H 0.86396 0.40149 0.7165 0.0
H371 H 0.95282 0.4037 0.75882 0.0
H372 H 0.85634 0.35066 0.78097 0.0
H373 H 0.88044 0.37456 0.79933 0.0
H374 H 0.88867 0.34539 0.78955 0.0
H375 H 0.94001 0.37069 0.77425 0.0
H376 H 0.95477 0.40961 0.7832 0.0
C377 C 0.90086 0.46572 0.71784 0.0
C378 C 0.84205 0.4379 0.73109 0.0
C379 C 0.95267 0.481 0.82982 0.0
C380 C 0.95973 0.46052 0.83996 0.0
C381 C 0.95059 0.43083 0.83235 0.0
C382 C 0.93535 0.42191 0.81487 0.0
C383 C 0.92903 0.44282 0.80477 0.0
C384 C 0.93704 0.47155 0.81243 0.0
C385 C 0.92706 0.49007 0.8 0.0
C386 C 0.91265 0.46806 0.78341 0.0
C387 C 0.91425 0.44061 0.78623 0.0
C388 C 0.95782 0.52095 0.79444 0.0
C389 C 0.90136 0.49473 0.81058 0.0
C390 C 0.88724 0.34758 0.74417 0.0
C391 C 0.87471 0.33968 0.72591 0.0
C392 C 0.86626 0.35961 0.71627 0.0
C393 C 0.87077 0.38728 0.72458 0.0
C394 C 0.88381 0.39512 0.74274 0.0
C395 C 0.89157 0.37528 0.75227 0.0
C396 C 0.90486 0.38722 0.7715 0.0
C397 C 0.90396 0.41762 0.7719 0.0
C398 C 0.89175 0.42216 0.755 0.0
C399 C 0.93989 0.39301 0.77218 0.0
C400 C 0.88167 0.36327 0.7862 0.0
H401 H 0.90898 0.53286 0.78173 0.0
H402 H 0.86828 0.50531 0.71647 0.0
H403 H 0.82691 0.44315 0.74063 0.0
H404 H 0.83414 0.41297 0.73375 0.0
H405 H 0.83578 0.44062 0.71646 0.0
H406 H 0.92441 0.48768 0.71964 0.0
H407 H 0.88964 0.4681 0.70474 0.0
H408 H 0.90724 0.44722 0.71589 0.0
H409 H 0.9597 0.50414 0.83507 0.0
H410 H 0.95529 0.41443 0.83995 0.0
H411 H 0.92927 0.3991 0.80984 0.0
H412 H 0.9777 0.51637 0.7906 0.0
H413 H 0.96639 0.53785 0.80626 0.0
H414 H 0.95432 0.53241 0.78206 0.0
H415 H 0.88733 0.4752 0.82061 0.0
H416 H 0.88294 0.49455 0.80108 0.0
H417 H 0.91279 0.51687 0.81873 0.0
H418 H 0.89749 0.56797 0.76395 0.0
C419 C 0.90023 0.52613 0.76768 0.0
C420 C 0.65604 0.52121 0.72031 0.0
C421 C 0.67884 0.55067 0.72742 0.0
C422 C 0.67495 0.55878 0.74579 0.0
C423 C 0.62574 0.50879 0.74964 0.0
C424 C 0.62958 0.50077 0.73159 0.0
C425 C 0.60205 0.46918 0.72599 0.0
H426 H 0.46258 0.3374 0.74943 0.0
C427 C 0.59552 0.48269 0.75757 0.0
C428 C 0.58151 0.45936 0.74372 0.0
H429 H 0.5109 0.36105 0.6956 0.0
H430 H 0.55276 0.41027 0.70807 0.0
H431 H 0.52598 0.36439 0.7753 0.0
H432 H 0.468 0.40272 0.75517 0.0
H433 H 0.48025 0.41791 0.77778 0.0
H434 H 0.45563 0.37608 0.77465 0.0
H435 H 0.486 0.35209 0.78385 0.0
H436 H 0.52115 0.38479 0.79408 0.0
C437 C 0.61603 0.4474 0.72184 0.0
C438 C 0.58424 0.47385 0.7092 0.0
C439 C 0.55905 0.48973 0.82399 0.0
C440 C 0.5321 0.46888 0.83488 0.0
C441 C 0.50984 0.43953 0.82724 0.0
C442 C 0.51423 0.43096 0.80924 0.0
C443 C 0.54105 0.45201 0.79849 0.0
C444 C 0.56309 0.48077 0.8059 0.0
C445 C 0.59006 0.5 0.79225 0.0
C446 C 0.58023 0.47818 0.77539 0.0
C447 C 0.55145 0.45017 0.77919 0.0
C448 C 0.62217 0.50551 0.801 0.0
C449 C 0.58921 0.5304 0.78778 0.0
C450 C 0.48179 0.35332 0.74017 0.0
C451 C 0.48304 0.34529 0.72139 0.0
C452 C 0.50929 0.3665 0.71013 0.0
C453 C 0.53353 0.39519 0.71737 0.0
C454 C 0.53155 0.40303 0.73609 0.0
C455 C 0.50584 0.38226 0.74707 0.0
C456 C 0.50672 0.39487 0.76636 0.0
C457 C 0.53733 0.42658 0.76524 0.0
C458 C 0.55205 0.4312 0.74755 0.0
C459 C 0.5099 0.37293 0.78078 0.0
C460 C 0.47607 0.39794 0.76882 0.0
H461 H 0.6471 0.5457 0.77076 0.0
H462 H 0.65832 0.5146 0.70615 0.0
H463 H 0.5853 0.49693 0.70999 0.0
H464 H 0.55815 0.45648 0.70897 0.0
H465 H 0.59528 0.47303 0.69564 0.0
H466 H 0.63417 0.45036 0.73263 0.0
H467 H 0.62825 0.45293 0.70795 0.0
H468 H 0.59758 0.42233 0.7222 0.0
H469 H 0.57653 0.51251 0.82941 0.0
H470 H 0.48844 0.42336 0.83504 0.0
H471 H 0.49625 0.40834 0.80433 0.0
H472 H 0.61847 0.48435 0.80881 0.0
H473 H 0.63194 0.52538 0.81103 0.0
H474 H 0.64084 0.50984 0.79042 0.0
H475 H 0.56386 0.52565 0.78704 0.0
H476 H 0.59979 0.54053 0.77398 0.0
H477 H 0.60185 0.54837 0.79878 0.0
H478 H 0.69232 0.58139 0.75148 0.0
C479 C 0.64868 0.53803 0.75693 0.0
C480 C 0.65044 0.124 0.72229 0.0
C481 C 0.67355 0.11686 0.72956 0.0
C482 C 0.66837 0.10314 0.74753 0.0
C483 C 0.61787 0.10351 0.75069 0.0
C484 C 0.62268 0.11686 0.73302 0.0
C485 C 0.59478 0.12144 0.72728 0.0
H486 H 0.44527 0.10077 0.74686 0.0
C487 C 0.58654 0.09846 0.75812 0.0
C488 C 0.57265 0.1087 0.74438 0.0
H489 H 0.5029 0.1432 0.69735 0.0
H490 H 0.54591 0.13573 0.71 0.0
H491 H 0.46235 0.04474 0.75207 0.0
H492 H 0.50248 0.1374 0.77513 0.0
H493 H 0.50406 0.1137 0.79303 0.0
H494 H 0.46535 0.10527 0.78371 0.0
H495 H 0.44117 0.05563 0.76851 0.0
H496 H 0.4683 0.04235 0.77624 0.0
C497 C 0.57905 0.1015 0.70958 0.0
C498 C 0.60781 0.15692 0.72447 0.0
C499 C 0.54901 0.05178 0.82371 0.0
C500 C 0.52121 0.0444 0.83441 0.0
C501 C 0.49736 0.04981 0.82642 0.0
C502 C 0.50111 0.06248 0.80831 0.0
C503 C 0.52902 0.06987 0.79783 0.0
C504 C 0.55246 0.06459 0.80558 0.0
C505 C 0.58045 0.07382 0.79231 0.0
C506 C 0.57012 0.08582 0.77545 0.0
C507 C 0.53986 0.08327 0.77873 0.0
C508 C 0.58229 0.04402 0.78756 0.0
C509 C 0.61126 0.10024 0.80167 0.0
C510 C 0.46705 0.10814 0.73868 0.0
C511 C 0.47061 0.12227 0.72102 0.0
C512 C 0.49962 0.1322 0.71098 0.0
C513 C 0.52449 0.12777 0.71835 0.0
C514 C 0.52053 0.11348 0.73605 0.0
C515 C 0.49224 0.10431 0.74597 0.0
C516 C 0.49266 0.09105 0.76493 0.0
C517 C 0.52544 0.09296 0.76468 0.0
C518 C 0.54174 0.10589 0.74767 0.0
C519 C 0.4646 0.05669 0.76568 0.0
C520 C 0.49082 0.11268 0.78009 0.0
H521 H 0.63864 0.08621 0.77166 0.0
H522 H 0.65357 0.13424 0.70844 0.0
H523 H 0.62627 0.17076 0.73527 0.0
H524 H 0.58891 0.16345 0.72607 0.0
H525 H 0.61936 0.16482 0.71048 0.0
H526 H 0.5773 0.07817 0.7109 0.0
H527 H 0.5936 0.11316 0.69686 0.0
H528 H 0.55407 0.09652 0.7073 0.0
H529 H 0.56774 0.0478 0.82935 0.0
H530 H 0.47534 0.04362 0.83406 0.0
H531 H 0.4819 0.06577 0.8031 0.0
H532 H 0.55785 0.02277 0.78774 0.0
H533 H 0.59747 0.0402 0.79786 0.0
H534 H 0.59153 0.04462 0.77326 0.0
H535 H 0.6058 0.11701 0.80901 0.0
H536 H 0.63049 0.1146 0.79151 0.0
H537 H 0.62107 0.09053 0.81223 0.0
H538 H 0.68581 0.09755 0.75346 0.0
C539 C 0.64092 0.0966 0.7581 0.0
C540 C 0.86115 0.54693 0.97561 0.0
C541 C 0.89193 0.55465 0.96865 0.0
C542 C 0.90133 0.56883 0.95083 0.0
C543 C 0.84997 0.56733 0.94709 0.0
C544 C 0.84074 0.55376 0.96468 0.0
C545 C 0.80772 0.54835 0.97008 0.0
H546 H 0.67797 0.56581 0.94958 0.0
C547 C 0.82356 0.57165 0.93936 0.0
C548 C 0.79874 0.56085 0.95285 0.0
H549 H 0.69272 0.52407 0.9992 0.0
H550 H 0.74376 0.53245 0.9867 0.0
H551 H 0.75162 0.62272 0.94469 0.0
H552 H 0.70091 0.53009 0.92088 0.0
H553 H 0.72523 0.55589 0.90314 0.0
H554 H 0.69344 0.56077 0.91342 0.0
H555 H 0.71997 0.61137 0.92769 0.0
H556 H 0.7613 0.62568 0.92068 0.0
C557 C 0.81152 0.56803 0.98778 0.0
C558 C 0.78488 0.5127 0.97272 0.0
C559 C 0.83465 0.61724 0.87356 0.0
C560 C 0.8149 0.62486 0.86259 0.0
C561 C 0.7854 0.61972 0.87037 0.0
C562 C 0.77561 0.60695 0.88846 0.0
C563 C 0.79555 0.59933 0.89916 0.0
C564 C 0.82458 0.60461 0.89166 0.0
C565 C 0.84311 0.59594 0.90523 0.0
C566 C 0.82016 0.58399 0.92194 0.0
C567 C 0.79231 0.58604 0.91834 0.0
C568 C 0.87529 0.62607 0.91002 0.0
C569 C 0.84736 0.56961 0.89624 0.0
C570 C 0.69235 0.55867 0.95777 0.0
C571 C 0.68146 0.54447 0.97546 0.0
C572 C 0.70058 0.535 0.98555 0.0
C573 C 0.73026 0.54001 0.97828 0.0
C574 C 0.74098 0.55449 0.96062 0.0
C575 C 0.72181 0.56313 0.95058 0.0
C576 C 0.73615 0.57684 0.9317 0.0
C577 C 0.76747 0.5758 0.93218 0.0
C578 C 0.77042 0.56292 0.94925 0.0
C579 C 0.74249 0.61089 0.93095 0.0
C580 C 0.71279 0.55506 0.91637 0.0
H581 H 0.88925 0.58567 0.92656 0.0
H582 H 0.85338 0.53627 0.98933 0.0
H583 H 0.79023 0.49922 0.9622 0.0
H584 H 0.75921 0.50553 0.97052 0.0
H585 H 0.78777 0.50494 0.98688 0.0
H586 H 0.83362 0.5915 0.98672 0.0
H587 H 0.81377 0.55634 1.00058 0.0
H588 H 0.79142 0.57277 0.98973 0.0
H589 H 0.85756 0.62104 0.86817 0.0
H590 H 0.7701 0.62623 0.86263 0.0
H591 H 0.75299 0.60382 0.89349 0.0
H592 H 0.87282 0.64734 0.90882 0.0
H593 H 0.89502 0.62925 0.90039 0.0
H594 H 0.88297 0.62632 0.92468 0.0
H595 H 0.82467 0.55219 0.88917 0.0
H596 H 0.85261 0.55602 0.90658 0.0
H597 H 0.8669 0.57928 0.88553 0.0
H598 H 0.92478 0.57482 0.94514 0.0
C599 C 0.88058 0.57505 0.94003 0.0
C600 C 0.47189 0.156 0.96809 0.0
C601 C 0.46579 0.12716 0.96068 0.0
C602 C 0.45003 0.11745 0.9432 0.0
C603 C 0.44759 0.16538 0.94065 0.0
C604 C 0.46262 0.1746 0.95791 0.0
C605 C 0.46733 0.20583 0.9639 0.0
H606 H 0.44765 0.33038 0.94679 0.0
C607 C 0.44125 0.19022 0.93377 0.0
C608 C 0.4527 0.21389 0.94742 0.0
H609 H 0.49316 0.31432 0.99469 0.0
H610 H 0.4824 0.2648 0.98172 0.0
H611 H 0.48174 0.3092 0.9166 0.0
H612 H 0.38852 0.26056 0.94319 0.0
H613 H 0.38267 0.24935 0.91951 0.0
H614 H 0.39841 0.28999 0.9255 0.0
H615 H 0.44921 0.31564 0.91002 0.0
H616 H 0.45449 0.28526 0.89934 0.0
C617 C 0.50414 0.22893 0.96569 0.0
C618 C 0.44782 0.20093 0.98222 0.0
C619 C 0.38869 0.18064 0.86997 0.0
C620 C 0.38052 0.20052 0.86007 0.0
C621 C 0.38613 0.22867 0.86848 0.0
C622 C 0.4002 0.23726 0.88625 0.0
C623 C 0.40873 0.21749 0.89587 0.0
C624 C 0.40286 0.18964 0.88779 0.0
C625 C 0.41345 0.17163 0.90027 0.0
C626 C 0.42689 0.19345 0.91703 0.0
C627 C 0.42396 0.22021 0.91432 0.0
C628 C 0.44004 0.16827 0.88985 0.0
C629 C 0.38322 0.14007 0.90553 0.0
C630 C 0.45566 0.31637 0.95437 0.0
C631 C 0.47156 0.32638 0.9717 0.0
C632 C 0.48079 0.30704 0.98134 0.0
C633 C 0.47463 0.27836 0.97373 0.0
C634 C 0.45907 0.26886 0.95627 0.0
C635 C 0.44996 0.28783 0.94689 0.0
C636 C 0.43431 0.27434 0.92834 0.0
C637 C 0.43528 0.24397 0.9282 0.0
C638 C 0.44967 0.24086 0.94461 0.0
C639 C 0.45572 0.29721 0.91266 0.0
C640 C 0.39919 0.26836 0.92896 0.0
H641 H 0.42916 0.12777 0.91992 0.0
H642 H 0.48395 0.16411 0.98147 0.0
H643 H 0.42484 0.17809 0.98201 0.0
H644 H 0.44027 0.21861 0.9842 0.0
H645 H 0.46179 0.20095 0.99469 0.0
H646 H 0.51796 0.22377 0.95508 0.0
H647 H 0.51317 0.22728 0.97976 0.0
H648 H 0.51077 0.25352 0.96295 0.0
H649 H 0.38446 0.15877 0.86388 0.0
H650 H 0.37928 0.24395 0.86134 0.0
H651 H 0.40382 0.25899 0.89182 0.0
H652 H 0.45671 0.19033 0.8823 0.0
H653 H 0.4293 0.14915 0.87934 0.0
H654 H 0.45563 0.16393 0.89937 0.0
H655 H 0.36164 0.14294 0.90719 0.0
H656 H 0.38567 0.13073 0.91915 0.0
H657 H 0.37762 0.1222 0.8945 0.0
H658 H 0.44436 0.09497 0.93739 0.0
C659 C 0.441 0.13642 0.93314 0.0
C660 C 0.70182 0.14165 0.97718 0.0
C661 C 0.67929 0.1124 0.96971 0.0
C662 C 0.68474 0.10416 0.95171 0.0
C663 C 0.73423 0.15418 0.9487 0.0
C664 C 0.72918 0.16198 0.96653 0.0
C665 C 0.75628 0.19343 0.97263 0.0
H666 H 0.89486 0.32749 0.95176 0.0
C667 C 0.76474 0.18058 0.94129 0.0
C668 C 0.77788 0.20358 0.95534 0.0
H669 H 0.84349 0.30064 1.0046 0.0
H670 H 0.80432 0.25082 0.99158 0.0
H671 H 0.89101 0.26131 0.94527 0.0
H672 H 0.83312 0.2998 0.92503 0.0
H673 H 0.83862 0.28001 0.90617 0.0
H674 H 0.87335 0.31276 0.9167 0.0
H675 H 0.90466 0.29022 0.92697 0.0
H676 H 0.8811 0.24886 0.92197 0.0
C677 C 0.77306 0.18845 0.98988 0.0
C678 C 0.74195 0.21507 0.97633 0.0
C679 C 0.80259 0.17699 0.87474 0.0
C680 C 0.82933 0.19862 0.86404 0.0
C681 C 0.85133 0.22771 0.87207 0.0
C682 C 0.84684 0.23524 0.89034 0.0
C683 C 0.82009 0.21347 0.90088 0.0
C684 C 0.79837 0.18496 0.89305 0.0
C685 C 0.77132 0.16489 0.90643 0.0
C686 C 0.78065 0.18593 0.92361 0.0
C687 C 0.8093 0.21432 0.92023 0.0
C688 C 0.77251 0.13451 0.91038 0.0
C689 C 0.73921 0.15938 0.89767 0.0
C690 C 0.87531 0.31078 0.96056 0.0
C691 C 0.87189 0.3184 0.97911 0.0
C692 C 0.84616 0.29581 0.9901 0.0
C693 C 0.82353 0.26675 0.98255 0.0
C694 C 0.82674 0.25985 0.96383 0.0
C695 C 0.85263 0.28149 0.95328 0.0
C696 C 0.85283 0.26964 0.93389 0.0
C697 C 0.82268 0.23747 0.93449 0.0
C698 C 0.80728 0.23198 0.952 0.0
C699 C 0.88404 0.26752 0.93171 0.0
C700 C 0.84955 0.29167 0.91957 0.0
H701 H 0.71459 0.11726 0.92752 0.0
H702 H 0.69843 0.14831 0.99111 0.0
H703 H 0.72482 0.21258 0.96499 0.0
H704 H 0.76039 0.24015 0.97655 0.0
H705 H 0.7285 0.20898 0.98982 0.0
H706 H 0.77053 0.16471 0.98981 0.0
H707 H 0.76244 0.19084 1.00321 0.0
H708 H 0.79946 0.20474 0.99 0.0
H709 H 0.78532 0.15441 0.86898 0.0
H710 H 0.87252 0.24446 0.86434 0.0
H711 H 0.86459 0.25772 0.8956 0.0
H712 H 0.79791 0.13934 0.91066 0.0
H713 H 0.75946 0.11666 0.89938 0.0
H714 H 0.76255 0.12423 0.92427 0.0
H715 H 0.74258 0.1811 0.89075 0.0
H716 H 0.71994 0.15331 0.90813 0.0
H717 H 0.7304 0.14067 0.88689 0.0
H718 H 0.66765 0.08169 0.94574 0.0
C719 C 0.71194 0.12489 0.94115 0.0
C720 C 0.54469 0.84416 0.06392 0.0
C721 C 0.54914 0.87215 0.07182 0.0
C722 C 0.56224 0.88043 0.09004 0.0
C723 C 0.56614 0.83321 0.09207 0.0
C724 C 0.55306 0.82507 0.07428 0.0
C725 C 0.5493 0.79438 0.06793 0.0
H726 H 0.56835 0.66931 0.08438 0.0
C727 C 0.5725 0.80833 0.09885 0.0
C728 C 0.56243 0.78545 0.08478 0.0
H729 H 0.52726 0.6886 0.03558 0.0
H730 H 0.5361 0.73683 0.04945 0.0
H731 H 0.62722 0.73958 0.08957 0.0
H732 H 0.53265 0.68965 0.11461 0.0
H733 H 0.55958 0.71235 0.13238 0.0
H734 H 0.56463 0.68229 0.12106 0.0
H735 H 0.61657 0.70926 0.10675 0.0
H736 H 0.63166 0.74949 0.11344 0.0
C737 C 0.57069 0.80062 0.05028 0.0
C738 C 0.51277 0.7712 0.06487 0.0
C739 C 0.62658 0.81858 0.16209 0.0
C740 C 0.63591 0.79934 0.17172 0.0
C741 C 0.62901 0.77051 0.16373 0.0
C742 C 0.6137 0.76122 0.14628 0.0
C743 C 0.60507 0.78092 0.13665 0.0
C744 C 0.61125 0.80894 0.14463 0.0
C745 C 0.59993 0.8266 0.1324 0.0
C746 C 0.5864 0.80476 0.11567 0.0
C747 C 0.58958 0.77809 0.11825 0.0
C748 C 0.62975 0.85837 0.127 0.0
C749 C 0.57328 0.82948 0.14311 0.0
C750 C 0.5612 0.68396 0.07676 0.0
C751 C 0.54748 0.67544 0.05878 0.0
C752 C 0.53849 0.69505 0.04928 0.0
C753 C 0.54343 0.72293 0.05743 0.0
C754 C 0.55744 0.73132 0.07534 0.0
C755 C 0.56599 0.71193 0.08472 0.0
C756 C 0.58054 0.72468 0.10363 0.0
C757 C 0.57919 0.75488 0.10406 0.0
C758 C 0.5657 0.75859 0.08744 0.0
C759 C 0.61578 0.73097 0.10355 0.0
C760 C 0.55851 0.70109 0.11882 0.0
H761 H 0.5806 0.86872 0.11396 0.0
H762 H 0.53533 0.83741 0.04984 0.0
H763 H 0.4977 0.77605 0.07472 0.0
H764 H 0.50595 0.74659 0.06774 0.0
H765 H 0.50528 0.77305 0.05039 0.0
H766 H 0.59356 0.82343 0.05142 0.0
H767 H 0.55802 0.80149 0.03742 0.0
H768 H 0.57849 0.78312 0.04834 0.0
H769 H 0.63101 0.84059 0.16805 0.0
H770 H 0.63602 0.75535 0.17088 0.0
H771 H 0.60941 0.73914 0.14092 0.0
H772 H 0.65085 0.85532 0.12379 0.0
H773 H 0.63676 0.87543 0.13867 0.0
H774 H 0.62598 0.86886 0.11424 0.0
H775 H 0.55853 0.80836 0.15192 0.0
H776 H 0.5557 0.8309 0.13366 0.0
H777 H 0.58395 0.85017 0.15252 0.0
H778 H 0.56578 0.90183 0.09646 0.0
C779 C 0.57074 0.86113 0.10019 0.0
C780 C 0.32166 0.8566 0.05572 0.0
C781 C 0.34351 0.88672 0.06239 0.0
C782 C 0.33901 0.89537 0.08049 0.0
C783 C 0.29102 0.84462 0.08489 0.0
C784 C 0.29546 0.83609 0.06712 0.0
C785 C 0.26885 0.8038 0.06191 0.0
H786 H 0.12883 0.67258 0.08521 0.0
C787 C 0.26121 0.81829 0.09299 0.0
C788 C 0.24801 0.7943 0.07951 0.0
H789 H 0.18082 0.69307 0.03269 0.0
H790 H 0.22218 0.74289 0.04494 0.0
H791 H 0.1912 0.6996 0.11211 0.0
H792 H 0.13523 0.73865 0.08971 0.0
H793 H 0.14565 0.75313 0.1126 0.0
H794 H 0.1212 0.71143 0.10893 0.0
H795 H 0.1513 0.68838 0.1203 0.0
H796 H 0.18671 0.72125 0.13022 0.0
C797 C 0.28409 0.78283 0.05865 0.0
C798 C 0.25083 0.80687 0.04466 0.0
C799 C 0.22403 0.82636 0.159 0.0
C800 C 0.19713 0.80559 0.16995 0.0
C801 C 0.17478 0.77623 0.16234 0.0
C802 C 0.17922 0.76746 0.14441 0.0
C803 C 0.20617 0.78832 0.13368 0.0
C804 C 0.22808 0.81722 0.14097 0.0
C805 C 0.25495 0.83641 0.12727 0.0
C806 C 0.24553 0.81418 0.11064 0.0
C807 C 0.2169 0.78609 0.11454 0.0
C808 C 0.28724 0.8427 0.13617 0.0
C809 C 0.2535 0.8664 0.12239 0.0
C810 C 0.1489 0.68793 0.07624 0.0
C811 C 0.15125 0.67907 0.05784 0.0
C812 C 0.17839 0.69938 0.0469 0.0
C813 C 0.20229 0.72837 0.05401 0.0
C814 C 0.19908 0.73724 0.07229 0.0
C815 C 0.17275 0.717 0.08306 0.0
C816 C 0.17283 0.73027 0.10203 0.0
C817 C 0.20346 0.76194 0.10089 0.0
C818 C 0.21887 0.76596 0.08347 0.0
C819 C 0.17541 0.70881 0.11707 0.0
C820 C 0.14212 0.73343 0.10361 0.0
H821 H 0.31098 0.88259 0.10539 0.0
H822 H 0.32448 0.84949 0.0418 0.0
H823 H 0.24999 0.82905 0.04521 0.0
H824 H 0.22526 0.7882 0.04402 0.0
H825 H 0.26309 0.80699 0.03138 0.0
H826 H 0.30308 0.78776 0.06929 0.0
H827 H 0.29556 0.78718 0.04457 0.0
H828 H 0.26653 0.7576 0.06011 0.0
H829 H 0.24153 0.84919 0.16435 0.0
H830 H 0.15333 0.76017 0.17014 0.0
H831 H 0.16121 0.74481 0.13954 0.0
H832 H 0.28407 0.82153 0.14372 0.0
H833 H 0.29612 0.86217 0.14645 0.0
H834 H 0.30637 0.84811 0.1257 0.0
H835 H 0.22809 0.86154 0.12226 0.0
H836 H 0.26281 0.8755 0.10821 0.0
H837 H 0.26699 0.88518 0.13283 0.0
H838 H 0.35575 0.91842 0.08591 0.0
C839 C 0.31304 0.87452 0.09177 0.0
C840 C 0.31685 0.46428 0.05437 0.0
C841 C 0.34011 0.45696 0.0612 0.0
C842 C 0.3359 0.44385 0.07928 0.0
C843 C 0.28582 0.44468 0.08336 0.0
C844 C 0.28976 0.45768 0.06564 0.0
C845 C 0.26169 0.46241 0.0605 0.0
H846 H 0.11325 0.44191 0.08349 0.0
C847 C 0.25493 0.43985 0.09137 0.0
C848 C 0.24044 0.45007 0.07798 0.0
H849 H 0.16698 0.48301 0.03262 0.0
H850 H 0.21143 0.47676 0.04431 0.0
H851 H 0.12994 0.38662 0.08728 0.0
H852 H 0.17229 0.47911 0.11072 0.0
H853 H 0.1745 0.45523 0.12829 0.0
H854 H 0.13546 0.4471 0.11971 0.0
H855 H 0.11043 0.39726 0.10498 0.0
H856 H 0.13807 0.38365 0.11099 0.0
C857 C 0.2449 0.44229 0.04303 0.0
C858 C 0.27477 0.49785 0.05757 0.0
C859 C 0.21935 0.39165 0.15681 0.0
C860 C 0.19151 0.38339 0.16771 0.0
C861 C 0.16783 0.38968 0.16041 0.0
C862 C 0.17137 0.4033 0.14263 0.0
C863 C 0.19896 0.41089 0.13178 0.0
C864 C 0.2225 0.40525 0.13895 0.0
C865 C 0.25008 0.41475 0.12533 0.0
C866 C 0.23927 0.42715 0.10887 0.0
C867 C 0.20924 0.42469 0.11274 0.0
C868 C 0.25168 0.385 0.12004 0.0
C869 C 0.2812 0.44094 0.13457 0.0
C870 C 0.13449 0.44933 0.07479 0.0
C871 C 0.13642 0.46245 0.05699 0.0
C872 C 0.16488 0.47264 0.04634 0.0
C873 C 0.19055 0.46887 0.05313 0.0
C874 C 0.18791 0.455 0.07087 0.0
C875 C 0.16028 0.44597 0.08143 0.0
C876 C 0.16163 0.43268 0.10017 0.0
C877 C 0.1943 0.43453 0.09914 0.0
C878 C 0.20976 0.44742 0.0819 0.0
C879 C 0.13352 0.39831 0.10111 0.0
C880 C 0.1607 0.45436 0.11563 0.0
H881 H 0.30758 0.42781 0.10396 0.0
H882 H 0.3193 0.47413 0.04046 0.0
H883 H 0.29329 0.51173 0.06833 0.0
H884 H 0.25589 0.50442 0.05912 0.0
H885 H 0.28625 0.50558 0.04355 0.0
H886 H 0.24257 0.41872 0.04439 0.0
H887 H 0.25907 0.45347 0.03012 0.0
H888 H 0.22007 0.43793 0.04108 0.0
H889 H 0.23834 0.38769 0.16203 0.0
H890 H 0.14607 0.38342 0.16836 0.0
H891 H 0.15221 0.40707 0.13793 0.0
H892 H 0.22719 0.36382 0.12021 0.0
H893 H 0.26698 0.38082 0.13006 0.0
H894 H 0.26064 0.38593 0.10563 0.0
H895 H 0.27593 0.45732 0.14252 0.0
H896 H 0.29992 0.45581 0.12427 0.0
H897 H 0.29159 0.43097 0.14456 0.0
H898 H 0.35349 0.43817 0.08487 0.0
C899 C 0.30916 0.43785 0.09037 0.0
C900 C 0.52407 0.87029 0.30841 0.0
C901 C 0.55386 0.87618 0.3008 0.0
C902 C 0.56163 0.88729 0.28224 0.0
C903 C 0.51132 0.88798 0.27931 0.0
C904 C 0.50326 0.87653 0.29743 0.0
C905 C 0.4713 0.87322 0.30339 0.0
H906 H 0.34018 0.88839 0.28261 0.0
C907 C 0.48535 0.89325 0.27187 0.0
C908 C 0.46169 0.88461 0.28591 0.0
H909 H 0.36073 0.85685 0.33462 0.0
H910 H 0.41083 0.86356 0.32161 0.0
H911 H 0.41192 0.94569 0.27705 0.0
H912 H 0.36583 0.85242 0.25391 0.0
H913 H 0.38674 0.87972 0.23589 0.0
H914 H 0.35399 0.88073 0.24783 0.0
H915 H 0.38233 0.93385 0.25874 0.0
H916 H 0.42455 0.94867 0.25364 0.0
C917 C 0.47744 0.89503 0.32038 0.0
C918 C 0.44758 0.83817 0.30744 0.0
C919 C 0.49731 0.9398 0.20643 0.0
C920 C 0.47903 0.94983 0.19596 0.0
C921 C 0.44931 0.94449 0.2035 0.0
C922 C 0.4386 0.93046 0.22126 0.0
C923 C 0.45778 0.92165 0.2318 0.0
C924 C 0.48652 0.92625 0.22424 0.0
C925 C 0.50435 0.91637 0.23753 0.0
C926 C 0.48174 0.90519 0.25437 0.0
C927 C 0.45434 0.90815 0.25097 0.0
C928 C 0.53733 0.94568 0.24217 0.0
C929 C 0.50689 0.8892 0.2283 0.0
C930 C 0.35545 0.88272 0.29106 0.0
C931 C 0.34654 0.8718 0.30957 0.0
C932 C 0.36716 0.86514 0.32031 0.0
C933 C 0.3962 0.86909 0.31271 0.0
C934 C 0.405 0.8802 0.29419 0.0
C935 C 0.38477 0.88696 0.28373 0.0
C936 C 0.39862 0.8998 0.2646 0.0
C937 C 0.43013 0.89908 0.26512 0.0
C938 C 0.43377 0.88747 0.2825 0.0
C939 C 0.40455 0.9337 0.26324 0.0
C940 C 0.37512 0.87723 0.24965 0.0
H941 H 0.54821 0.90173 0.2575 0.0
H942 H 0.51762 0.86194 0.3227 0.0
H943 H 0.45021 0.82318 0.29673 0.0
H944 H 0.422 0.83207 0.30676 0.0
H945 H 0.45236 0.83125 0.3214 0.0
H946 H 0.50104 0.91707 0.31894 0.0
H947 H 0.47799 0.88353 0.3337 0.0
H948 H 0.45938 0.90274 0.3216 0.0
H949 H 0.51982 0.94266 0.20099 0.0
H950 H 0.43466 0.95191 0.19585 0.0
H951 H 0.41597 0.92742 0.22622 0.0
H952 H 0.53536 0.96729 0.24216 0.0
H953 H 0.55605 0.94909 0.23169 0.0
H954 H 0.54617 0.94483 0.25635 0.0
H955 H 0.48459 0.87365 0.22024 0.0
H956 H 0.50908 0.8736 0.23863 0.0
H957 H 0.52762 0.89826 0.2184 0.0
H958 H 0.58437 0.89185 0.27611 0.0
C959 C 0.54059 0.89307 0.27147 0.0
C960 C 0.12079 0.48386 0.30644 0.0
C961 C 0.1179 0.45722 0.29751 0.0
C962 C 0.10448 0.44968 0.27934 0.0
C963 C 0.09884 0.49602 0.27899 0.0
C964 C 0.1114 0.50292 0.29694 0.0
C965 C 0.11444 0.53284 0.30423 0.0
H966 H 0.10072 0.66124 0.28987 0.0
C967 C 0.09292 0.52147 0.27283 0.0
C968 C 0.10223 0.54314 0.28758 0.0
H969 H 0.13725 0.63726 0.33895 0.0
H970 H 0.12568 0.58841 0.32467 0.0
H971 H 0.13709 0.64489 0.26172 0.0
H972 H 0.0392 0.58917 0.28118 0.0
H973 H 0.03944 0.58695 0.25652 0.0
H974 H 0.05368 0.62438 0.26753 0.0
H975 H 0.10493 0.64912 0.2518 0.0
H976 H 0.11545 0.62107 0.24274 0.0
C977 C 0.15068 0.55592 0.30829 0.0
C978 C 0.09186 0.52478 0.32148 0.0
C979 C 0.04515 0.51861 0.20832 0.0
C980 C 0.0389 0.54008 0.19867 0.0
C981 C 0.04815 0.56929 0.20705 0.0
C982 C 0.06143 0.57625 0.22508 0.0
C983 C 0.06627 0.55412 0.23483 0.0
C984 C 0.05903 0.52621 0.22628 0.0
C985 C 0.06826 0.50669 0.23837 0.0
C986 C 0.08103 0.52704 0.2558 0.0
C987 C 0.07937 0.55458 0.25366 0.0
C988 C 0.09505 0.50342 0.22807 0.0
C989 C 0.03739 0.47514 0.24265 0.0
C990 C 0.10604 0.64535 0.29759 0.0
C991 C 0.1196 0.65299 0.31566 0.0
C992 C 0.12614 0.63166 0.32521 0.0
C993 C 0.11977 0.60346 0.31677 0.0
C994 C 0.10712 0.59665 0.29847 0.0
C995 C 0.10028 0.61736 0.28925 0.0
C996 C 0.08809 0.60692 0.26965 0.0
C997 C 0.08852 0.57632 0.26865 0.0
C998 C 0.09968 0.57048 0.28554 0.0
C999 C 0.11236 0.63173 0.25566 0.0
C1000 C 0.05332 0.60167 0.26847 0.0
H1001 H 0.08507 0.46211 0.2562 0.0
H1002 H 0.13026 0.48987 0.32056 0.0
H1003 H 0.06916 0.50206 0.31945 0.0
H1004 H 0.08381 0.542 0.3239 0.0
H1005 H 0.1037 0.5227 0.33439 0.0
H1006 H 0.16652 0.55229 0.29837 0.0
H1007 H 0.15729 0.55264 0.32272 0.0
H1008 H 0.15744 0.58072 0.30632 0.0
H1009 H 0.03893 0.4962 0.20216 0.0
H1010 H 0.04513 0.5869 0.19965 0.0
H1011 H 0.06739 0.59867 0.23071 0.0
H1012 H 0.1104 0.5245 0.21935 0.0
H1013 H 0.08448 0.48278 0.21863 0.0
H1014 H 0.11214 0.50173 0.2378 0.0
H1015 H 0.01695 0.47901 0.24622 0.0
H1016 H 0.04016 0.46279 0.25482 0.0
H1017 H 0.0301 0.45935 0.2303 0.0
H1018 H 0.1019 0.42915 0.27221 0.0
C1019 C 0.09491 0.46892 0.27004 0.0
C1020 C 0.36039 0.481 0.30857 0.0
C1021 C 0.33846 0.45085 0.30199 0.0
C1022 C 0.34335 0.4417 0.28413 0.0
C1023 C 0.39209 0.49189 0.27987 0.0
C1024 C 0.38717 0.50097 0.29737 0.0
C1025 C 0.41398 0.53316 0.30257 0.0
H1026 H 0.55932 0.65966 0.28172 0.0
C1027 C 0.42266 0.51756 0.27205 0.0
C1028 C 0.43573 0.54178 0.28539 0.0
H1029 H 0.50021 0.64519 0.33081 0.0
H1030 H 0.45962 0.59489 0.31886 0.0
H1031 H 0.54668 0.58945 0.27821 0.0
H1032 H 0.50247 0.63832 0.2532 0.0
H1033 H 0.50142 0.61257 0.23592 0.0
H1034 H 0.53992 0.64284 0.24467 0.0
H1035 H 0.56619 0.61952 0.26076 0.0
H1036 H 0.54055 0.57903 0.25439 0.0
C1037 C 0.43073 0.53008 0.32041 0.0
C1038 C 0.39931 0.55484 0.30484 0.0
C1039 C 0.4617 0.50788 0.20689 0.0
C1040 C 0.48919 0.52827 0.19623 0.0
C1041 C 0.51227 0.55701 0.20415 0.0
C1042 C 0.50791 0.5657 0.22211 0.0
C1043 C 0.48019 0.54544 0.23248 0.0
C1044 C 0.45764 0.51702 0.22491 0.0
C1045 C 0.42987 0.49852 0.23824 0.0
C1046 C 0.43926 0.52085 0.25482 0.0
C1047 C 0.46885 0.54817 0.25132 0.0
C1048 C 0.42979 0.4679 0.24346 0.0
C1049 C 0.39842 0.49336 0.22874 0.0
C1050 C 0.53746 0.64594 0.28981 0.0
C1051 C 0.53294 0.65664 0.30719 0.0
C1052 C 0.50441 0.63746 0.31743 0.0
C1053 C 0.48078 0.6083 0.31042 0.0
C1054 C 0.48561 0.59808 0.29294 0.0
C1055 C 0.51349 0.61699 0.28291 0.0
C1056 C 0.51416 0.60304 0.26432 0.0
C1057 C 0.4823 0.57239 0.26492 0.0
C1058 C 0.46575 0.5694 0.28178 0.0
C1059 C 0.54348 0.59757 0.26421 0.0
C1060 C 0.51475 0.62526 0.24862 0.0
H1061 H 0.37228 0.45357 0.25962 0.0
H1062 H 0.35727 0.48849 0.3223 0.0
H1063 H 0.37958 0.54877 0.29451 0.0
H1064 H 0.41696 0.57973 0.30205 0.0
H1065 H 0.38893 0.55259 0.31909 0.0
H1066 H 0.43267 0.50847 0.31984 0.0
H1067 H 0.41681 0.52867 0.33322 0.0
H1068 H 0.4558 0.54942 0.32202 0.0
H1069 H 0.44368 0.4855 0.20125 0.0
H1070 H 0.53409 0.5727 0.1965 0.0
H1071 H 0.52648 0.58788 0.22724 0.0
H1072 H 0.45483 0.47174 0.24388 0.0
H1073 H 0.41598 0.44916 0.23305 0.0
H1074 H 0.41996 0.4592 0.25762 0.0
H1075 H 0.40266 0.51497 0.22126 0.0
H1076 H 0.37882 0.48813 0.23883 0.0
H1077 H 0.38964 0.47415 0.21829 0.0
H1078 H 0.32657 0.41859 0.2788 0.0
C1079 C 0.3699 0.46202 0.27303 0.0
Tb1080 Tb 0.49572 0.97734 0.99457 0.0
C1081 C 0.56434 0.09728 0.04214 0.0
C1082 C 0.6207 0.11231 0.03936 0.0
C1083 C 0.60554 0.15227 0.04381 0.0
C1084 C 0.58772 0.08915 0.03948 0.0
C1085 C 0.57287 0.12883 0.04484 0.0
C1086 C 0.62946 0.14401 0.04105 0.0
C1087 C 0.51662 0.11123 0.05105 0.0
N1088 N 0.53321 0.07388 0.04311 0.0
C1089 C 0.50947 0.08028 0.04834 0.0
C1090 C 0.54841 0.13568 0.04902 0.0
Tb1091 Tb 0.52331 0.02402 0.0371 0.0
N1092 N 0.57811 0.05829 0.03801 0.0
C1093 C 0.60068 0.04885 0.03818 0.0
C1094 C 0.6438 0.10281 0.03813 0.0
C1095 C 0.63374 0.07089 0.0379 0.0
H1096 H 0.48479 0.06165 0.04991 0.0
H1097 H 0.6514 0.06321 0.03741 0.0
H1098 H 0.65464 0.1622 0.04077 0.0
H1099 H 0.4976 0.1162 0.0547 0.0
H1100 H 0.59353 0.02437 0.03784 0.0
H1101 H 0.36915 0.9439 0.99158 0.0
H1102 H 0.6694 0.11984 0.03792 0.0
H1103 H 0.53218 0.93636 0.98574 0.0
H1104 H 0.42754 0.98079 0.99213 0.0
H1105 H 0.51689 0.88084 0.98197 0.0
H1106 H 0.61262 0.17671 0.04563 0.0
H1107 H 0.34861 0.88676 0.99151 0.0
H1108 H 0.36074 0.84252 0.99005 0.0
H1109 H 0.55391 0.15963 0.05119 0.0
H1110 H 0.40102 0.8253 0.98718 0.0
N1111 N 0.44067 0.94518 0.99292 0.0
C1112 C 0.41927 0.95603 0.99201 0.0
C1113 C 0.37442 0.90291 0.99174 0.0
C1114 C 0.39642 0.89195 0.99144 0.0
C1115 C 0.38594 0.93512 0.99172 0.0
C1116 C 0.42975 0.91399 0.99187 0.0
H1117 H 0.45936 0.83948 0.98381 0.0
N1118 N 0.48384 0.9266 0.99006 0.0
C1119 C 0.49843 0.88711 0.98438 0.0
C1120 C 0.45218 0.90433 0.99031 0.0
C1121 C 0.50699 0.91858 0.98647 0.0
C1122 C 0.46594 0.86383 0.98545 0.0
C1123 C 0.44228 0.87233 0.98821 0.0
O1124 O 0.52022 0.98178 0.96912 0.0
O1125 O 0.53429 0.01785 1.00841 0.0
O1126 O 0.51601 0.05316 0.01673 0.0
O1127 O 0.48447 0.01567 0.9941 0.0
O1128 O 0.54686 0.99154 0.99218 0.0
O1129 O 0.47977 0.98964 0.97012 0.0
O1130 O 0.49705 0.01356 0.06244 0.0
O1131 O 0.48491 0.98422 0.02285 0.0
O1132 O 0.49922 0.94803 0.01658 0.0
O1133 O 0.53692 0.98732 0.03591 0.0
O1134 O 0.47199 0.00937 0.03967 0.0
O1135 O 0.54198 0.0138 0.06129 0.0
C1136 C 0.55839 0.01665 1.00201 0.0
C1137 C 0.49075 0.97383 0.94097 0.0
C1138 C 0.49118 0.97838 0.90664 0.0
C1139 C 0.50113 0.99228 0.9245 0.0
C1140 C 0.4709 0.94569 0.90562 0.0
C1141 C 0.47039 0.94137 0.93952 0.0
C1142 C 0.4606 0.92743 0.92192 0.0
C1143 C 0.49735 0.044 1.00164 0.0
C1144 C 0.50154 0.98885 0.95947 0.0
C1145 C 0.40916 0.85005 0.98856 0.0
C1146 C 0.38624 0.85986 0.9902 0.0
C1147 C 0.46063 0.98513 0.02906 0.0
C1148 C 0.52648 0.02476 0.09068 0.0
C1149 C 0.51632 0.00601 0.10706 0.0
C1150 C 0.52353 0.01992 0.12504 0.0
C1151 C 0.54036 0.05285 0.12622 0.0
C1152 C 0.54379 0.05745 0.09235 0.0
C1153 C 0.55053 0.07136 0.11002 0.0
C1154 C 0.52069 0.95772 0.03036 0.0
C1155 C 0.51817 0.00998 0.07198 0.0
H1156 H 0.51724 0.01734 0.92561 0.0
H1157 H 0.46261 0.93426 0.89217 0.0
H1158 H 0.46211 0.92683 0.95197 0.0
H1159 H 0.44486 0.90232 0.9209 0.0
H1160 H 0.50307 0.98071 0.10581 0.0
H1161 H 0.54539 0.06441 0.1397 0.0
H1162 H 0.55185 0.07222 0.08 0.0
H1163 H 0.56356 0.09664 0.11119 0.0
Tb1164 Tb 0.02976 0.50741 0.99701 0.0
C1165 C 0.90748 0.46115 0.04514 0.0
C1166 C 0.89004 0.49887 0.03934 0.0
C1167 C 0.85065 0.44548 0.04817 0.0
C1168 C 0.91465 0.49095 0.04014 0.0
C1169 C 0.8756 0.43833 0.04992 0.0
C1170 C 0.85784 0.4757 0.04278 0.0
C1171 C 0.89595 0.4041 0.05915 0.0
N1172 N 0.93236 0.45536 0.0468 0.0
C1173 C 0.92717 0.42755 0.05427 0.0
C1174 C 0.87 0.40941 0.05685 0.0
Tb1175 Tb 0.98294 0.49568 0.03933 0.0
N1176 N 0.94614 0.51278 0.03755 0.0
C1177 C 0.95486 0.54366 0.03571 0.0
C1178 C 0.89871 0.5301 0.03595 0.0
C1179 C 0.93135 0.55269 0.03448 0.0
H1180 H 0.947 0.42316 0.05621 0.0
H1181 H 0.93846 0.57707 0.03236 0.0
H1182 H 0.83853 0.48122 0.04201 0.0
H1183 H 0.89195 0.38197 0.06474 0.0
H1184 H 0.97991 0.56138 0.03442 0.0
H1185 H 0.06877 0.42121 1.0001 0.0
H1186 H 0.88055 0.53715 0.03511 0.0
H1187 H 0.06969 0.58218 0.98362 0.0
H1188 H 0.02926 0.43922 0.99945 0.0
H1189 H 0.12613 0.62314 0.97814 0.0
H1190 H 0.82589 0.42811 0.05146 0.0
H1191 H 0.12723 0.45946 0.99799 0.0
H1192 H 0.17131 0.5154 0.99368 0.0
H1193 H 0.84586 0.39125 0.06071 0.0
H1194 H 0.187 0.57053 0.98773 0.0
N1195 N 0.06456 0.48772 0.99721 0.0
C1196 C 0.0545 0.4564 0.99829 0.0
C1197 C 0.1099 0.4676 0.99758 0.0
C1198 C 0.12003 0.49943 0.99546 0.0
C1199 C 0.07694 0.44596 0.99872 0.0
C1200 C 0.09645 0.50876 0.99515 0.0
H1201 H 0.17026 0.61088 0.98166 0.0
N1202 N 0.08147 0.54692 0.99076 0.0
C1203 C 0.12062 0.59973 0.98208 0.0
C1204 C 0.10527 0.53954 0.99187 0.0
C1205 C 0.08857 0.57634 0.98516 0.0
C1206 C 0.14547 0.59275 0.98413 0.0
C1207 C 0.13791 0.5622 0.98876 0.0
O1208 O 0.02196 0.52088 0.97039 0.0
O1209 O 0.98792 0.50679 1.00962 0.0
O1210 O 0.95254 0.45659 0.02079 0.0
O1211 O 0.99176 0.45768 1.00066 0.0
O1212 O 0.01476 0.54189 0.99107 0.0
O1213 O 0.0183 0.47588 0.97455 0.0
O1214 O 0.99272 0.48565 0.06648 0.0
O1215 O 0.02381 0.49607 0.02626 0.0
O1216 O 0.06068 0.54366 0.01696 0.0
O1217 O 0.02125 0.54528 0.03545 0.0
O1218 O 1.00127 0.46378 0.04672 0.0
O1219 O 0.99172 0.52809 0.06098 0.0
C1220 C 0.98927 0.53023 1.00132 0.0
C1221 C 0.03421 0.49929 0.94453 0.0
C1222 C 0.0319 0.49657 0.91032 0.0
C1223 C 0.0163 0.49088 0.92784 0.0
C1224 C 0.06576 0.51019 0.90986 0.0
C1225 C 0.06789 0.51271 0.94378 0.0
C1226 C 0.08355 0.51805 0.92649 0.0
C1227 C 0.96205 0.44357 1.00786 0.0
C1228 C 0.01732 0.49524 0.96243 0.0
C1229 C 0.16173 0.55342 0.98989 0.0
C1230 C 0.1528 0.52204 0.99325 0.0
C1231 C 0.02512 0.47463 0.0352 0.0
C1232 C 0.97615 0.50573 0.09132 0.0
C1233 C 0.99238 0.51387 0.10865 0.0
C1234 C 0.9749 0.50786 0.12558 0.0
C1235 C 0.94093 0.49267 0.12485 0.0
C1236 C 0.94242 0.49192 0.09101 0.0
C1237 C 0.92491 0.48514 0.10767 0.0
C1238 C 0.05148 0.55793 0.0292 0.0
C1239 C 0.99447 0.51063 0.07378 0.0
H1240 H 0.99019 0.4798 0.92857 0.0
H1241 H 0.07854 0.51504 0.89662 0.0
H1242 H 0.08207 0.51924 0.95646 0.0
H1243 H 0.10959 0.52856 0.92598 0.0
H1244 H 0.01853 0.52506 0.10893 0.0
H1245 H 0.92665 0.48648 0.13758 0.0
H1246 H 0.92952 0.48615 0.07796 0.0
H1247 H 0.8988 0.47389 0.10726 0.0
Tb1248 Tb 0.52204 0.49301 0.03698 0.0
C1249 C 0.45207 0.53979 0.98606 0.0
C1250 C 0.39625 0.49979 0.99015 0.0
C1251 C 0.40978 0.55344 0.98348 0.0
C1252 C 0.42943 0.50925 0.98993 0.0
C1253 C 0.44258 0.56213 0.98213 0.0
C1254 C 0.3866 0.52226 0.98752 0.0
C1255 C 0.49789 0.59845 0.97352 0.0
N1256 N 0.48331 0.54696 0.98469 0.0
C1257 C 0.50595 0.5753 0.97747 0.0
C1258 C 0.46617 0.59205 0.97622 0.0
Tb1259 Tb 0.49502 0.50858 0.99279 0.0
N1260 N 0.43989 0.4884 0.99215 0.0
C1261 C 0.41794 0.45699 0.99279 0.0
C1262 C 0.37383 0.46793 0.99226 0.0
C1263 C 0.38472 0.44638 0.99317 0.0
H1264 H 0.5305 0.58038 0.9753 0.0
H1265 H 0.36756 0.42157 0.9943 0.0
H1266 H 0.36126 0.51557 0.98791 0.0
H1267 H 0.51614 0.62117 0.96836 0.0
H1268 H 0.42571 0.43988 0.9937 0.0
H1269 H 0.64923 0.58083 0.03644 0.0
H1270 H 0.34811 0.45966 0.99257 0.0
H1271 H 0.48619 0.41977 0.05242 0.0
H1272 H 0.59101 0.56205 0.03649 0.0
H1273 H 0.50104 0.37922 0.05897 0.0
H1274 H 0.40198 0.57034 0.98079 0.0
H1275 H 0.66914 0.5431 0.0383 0.0
H1276 H 0.65642 0.48729 0.04257 0.0
H1277 H 0.45992 0.60992 0.97305 0.0
H1278 H 0.6159 0.43211 0.04878 0.0
N1279 N 0.57719 0.51361 0.03795 0.0
C1280 C 0.59894 0.54507 0.03747 0.0
C1281 C 0.64337 0.53462 0.0384 0.0
C1282 C 0.62111 0.50266 0.04023 0.0
C1283 C 0.63222 0.55596 0.03741 0.0
C1284 C 0.58786 0.4929 0.04016 0.0
H1285 H 0.55782 0.39162 0.05531 0.0
N1286 N 0.53386 0.45443 0.04446 0.0
C1287 C 0.51936 0.4024 0.05451 0.0
C1288 C 0.5653 0.46209 0.04353 0.0
C1289 C 0.51105 0.42545 0.05084 0.0
C1290 C 0.5514 0.40945 0.05237 0.0
C1291 C 0.575 0.43982 0.04721 0.0
O1292 O 0.49695 0.4775 0.06263 0.0
O1293 O 0.48398 0.49606 0.02212 0.0
O1294 O 0.50422 0.54787 1.01081 0.0
O1295 O 0.53439 0.54238 0.03503 0.0
O1296 O 0.47057 0.45923 0.04003 0.0
O1297 O 0.53986 0.52257 0.0605 0.0
O1298 O 0.52025 0.52283 0.9671 0.0
O1299 O 0.53307 0.5059 1.00775 0.0
O1300 O 0.51432 0.4548 0.01851 0.0
O1301 O 0.48239 0.4591 0.99502 0.0
O1302 O 0.5466 0.54215 0.9894 0.0
O1303 O 0.4765 0.47852 0.96952 0.0
C1304 C 0.45952 0.47262 0.0292 0.0
C1305 C 0.52808 0.49727 0.09005 0.0
C1306 C 0.52508 0.49799 0.12431 0.0
C1307 C 0.51521 0.50256 0.1065 0.0
C1308 C 0.54753 0.4874 0.12535 0.0
C1309 C 0.5507 0.48707 0.09145 0.0
C1310 C 0.5602 0.48201 0.10902 0.0
C1311 C 0.523 0.55823 0.0258 0.0
C1312 C 0.5175 0.50243 0.07165 0.0
C1313 C 0.60795 0.44893 0.04626 0.0
C1314 C 0.631 0.48034 0.04274 0.0
C1315 C 0.55761 0.52908 1.00053 0.0
C1316 C 0.48941 0.50261 0.93961 0.0
C1317 C 0.50264 0.49664 0.92356 0.0
C1318 C 0.49338 0.50069 0.90545 0.0
C1319 C 0.47109 0.51141 0.90374 0.0
C1320 C 0.46706 0.51302 0.93755 0.0
C1321 C 0.45809 0.51751 0.91968 0.0
C1322 C 0.4951 0.44398 1.00377 0.0
C1323 C 0.49931 0.49783 0.9583 0.0
H1324 H 0.49744 0.5101 0.10539 0.0
H1325 H 0.55576 0.48386 0.13881 0.0
H1326 H 0.56106 0.48311 0.07901 0.0
H1327 H 0.57767 0.47412 0.10999 0.0
H1328 H 0.52028 0.48903 0.92522 0.0
H1329 H 0.46328 0.51456 0.89004 0.0
H1330 H 0.45651 0.51759 0.94971 0.0
H1331 H 0.44081 0.52554 0.91816 0.0
Tb1332 Tb 0.15882 0.31159 0.32677 0.0
C1333 C 0.22434 0.43144 0.37425 0.0
C1334 C 0.28119 0.44782 0.37281 0.0
C1335 C 0.26437 0.48676 0.3763 0.0
C1336 C 0.24846 0.42407 0.37235 0.0
C1337 C 0.23188 0.46277 0.37665 0.0
C1338 C 0.28901 0.47929 0.37436 0.0
C1339 C 0.17487 0.44402 0.38078 0.0
N1340 N 0.19338 0.40756 0.37453 0.0
C1341 C 0.16868 0.4133 0.37839 0.0
C1342 C 0.20659 0.46892 0.37971 0.0
Tb1343 Tb 0.18539 0.35817 0.36946 0.0
N1344 N 0.23979 0.3934 0.37107 0.0
C1345 C 0.26294 0.38473 0.37181 0.0
C1346 C 0.30498 0.43913 0.37227 0.0
C1347 C 0.29578 0.40741 0.37208 0.0
H1348 H 0.14403 0.39433 0.37914 0.0
H1349 H 0.31396 0.40037 0.37206 0.0
H1350 H 0.31401 0.49792 0.37454 0.0
H1351 H 0.15517 0.44846 0.3834 0.0
H1352 H 0.25643 0.36038 0.37155 0.0
H1353 H 0.02965 0.2672 0.32639 0.0
H1354 H 0.33042 0.45664 0.37251 0.0
H1355 H 0.19935 0.27701 0.31229 0.0
H1356 H 0.08692 0.3078 0.32569 0.0
H1357 H 0.18924 0.22328 0.30766 0.0
H1358 H 0.27069 0.51105 0.37792 0.0
H1359 H 0.01411 0.21114 0.32647 0.0
H1360 H 0.0314 0.17051 0.32385 0.0
H1361 H 0.21134 0.49268 0.38159 0.0
H1362 H 0.07512 0.15843 0.31862 0.0
N1363 N 0.10443 0.2755 0.32601 0.0
C1364 C 0.08084 0.2836 0.32561 0.0
C1365 C 0.03944 0.22895 0.32618 0.0
C1366 C 0.06358 0.22078 0.3251 0.0
C1367 C 0.04812 0.26055 0.32605 0.0
C1368 C 0.09615 0.24494 0.32486 0.0
H1369 H 0.13419 0.17806 0.3122 0.0
N1370 N 0.15095 0.26255 0.32047 0.0
C1371 C 0.16966 0.22709 0.31184 0.0
C1372 C 0.12042 0.23817 0.32193 0.0
C1373 C 0.17532 0.25757 0.31456 0.0
C1374 C 0.13859 0.20163 0.31445 0.0
C1375 C 0.1133 0.20704 0.31916 0.0
O1376 O 0.18436 0.32206 0.30115 0.0
O1377 O 0.19643 0.35219 0.34099 0.0
O1378 O 0.17966 0.3866 0.34776 0.0
O1379 O 0.14302 0.3467 0.32825 0.0
O1380 O 0.21046 0.32818 0.32381 0.0
O1381 O 0.1396 0.32216 0.30303 0.0
O1382 O 0.16013 0.35041 0.39498 0.0
O1383 O 0.14801 0.31717 0.35546 0.0
O1384 O 0.16771 0.28353 0.34723 0.0
O1385 O 0.20011 0.3223 0.36904 0.0
O1386 O 0.13377 0.34156 0.37222 0.0
O1387 O 0.20331 0.34714 0.39364 0.0
C1388 C 0.22108 0.35221 0.33453 0.0
C1389 C 0.15363 0.31069 0.27341 0.0
C1390 C 0.15749 0.31495 0.23908 0.0
C1391 C 0.1658 0.329 0.25698 0.0
C1392 C 0.1364 0.28239 0.23798 0.0
C1393 C 0.13292 0.27829 0.27188 0.0
C1394 C 0.12435 0.26428 0.25424 0.0
C1395 C 0.15776 0.37612 0.3342 0.0
C1396 C 0.16292 0.32568 0.29199 0.0
C1397 C 0.08111 0.18258 0.32048 0.0
C1398 C 0.05624 0.18946 0.32347 0.0
C1399 C 0.12332 0.31704 0.36194 0.0
C1400 C 0.19004 0.36029 0.42304 0.0
C1401 C 0.18075 0.3417 0.43949 0.0
C1402 C 0.18933 0.35576 0.45741 0.0
C1403 C 0.20674 0.3887 0.45846 0.0
C1404 C 0.20787 0.39298 0.42456 0.0
C1405 C 0.21605 0.40704 0.44219 0.0
C1406 C 0.18776 0.29388 0.36172 0.0
C1407 C 0.1804 0.34532 0.40444 0.0
H1408 H 0.18191 0.35406 0.25814 0.0
H1409 H 0.12876 0.27093 0.2245 0.0
H1410 H 0.12327 0.26386 0.2843 0.0
H1411 H 0.10814 0.23927 0.25316 0.0
H1412 H 0.16707 0.31639 0.43833 0.0
H1413 H 0.21284 0.4004 0.47191 0.0
H1414 H 0.21522 0.40762 0.41215 0.0
H1415 H 0.2295 0.43233 0.44326 0.0
Tb1416 Tb 0.69829 0.84028 0.32942 0.0
C1417 C 0.57313 0.79003 0.37439 0.0
C1418 C 0.55599 0.82803 0.36893 0.0
C1419 C 0.51589 0.77345 0.37452 0.0
C1420 C 0.58064 0.82025 0.37042 0.0
C1421 C 0.54077 0.76636 0.37706 0.0
C1422 C 0.5235 0.80428 0.37044 0.0
C1423 C 0.56039 0.73175 0.38673 0.0
N1424 N 0.59796 0.78443 0.377 0.0
C1425 C 0.59212 0.75615 0.38403 0.0
C1426 C 0.53455 0.73671 0.38292 0.0
Tb1427 Tb 0.64913 0.82528 0.37121 0.0
N1428 N 0.61231 0.84242 0.36938 0.0
C1429 C 0.62097 0.87339 0.36852 0.0
C1430 C 0.5648 0.85954 0.36672 0.0
C1431 C 0.59747 0.88238 0.36688 0.0
H1432 H 0.61187 0.75201 0.387 0.0
H1433 H 0.60462 0.90691 0.36556 0.0
H1434 H 0.50417 0.8097 0.3691 0.0
H1435 H 0.5559 0.70915 0.39175 0.0
H1436 H 0.64603 0.89127 0.36826 0.0
H1437 H 0.73505 0.75242 0.33143 0.0
H1438 H 0.54664 0.86653 0.36544 0.0
H1439 H 0.73969 0.91564 0.318 0.0
H1440 H 0.6962 0.7713 0.3304 0.0
H1441 H 0.79679 0.95649 0.31401 0.0
H1442 H 0.4908 0.75553 0.37628 0.0
H1443 H 0.79379 0.79012 0.33097 0.0
H1444 H 0.83875 0.84608 0.32828 0.0
H1445 H 0.51002 0.71784 0.38513 0.0
H1446 H 0.85564 0.90177 0.32352 0.0
N1447 N 0.73227 0.81973 0.32971 0.0
C1448 C 0.72163 0.78826 0.33003 0.0
C1449 C 0.77679 0.79865 0.33043 0.0
C1450 C 0.78754 0.83071 0.32901 0.0
C1451 C 0.74367 0.77732 0.33064 0.0
C1452 C 0.76437 0.84053 0.3285 0.0
H1453 H 0.84011 0.94316 0.3179 0.0
N1454 N 0.7505 0.87958 0.32458 0.0
C1455 C 0.79069 0.93272 0.31742 0.0
C1456 C 0.77386 0.87165 0.32588 0.0
C1457 C 0.75833 0.90946 0.31963 0.0
C1458 C 0.81507 0.92513 0.31968 0.0
C1459 C 0.80678 0.89415 0.32366 0.0
O1460 O 0.69411 0.85688 0.30294 0.0
O1461 O 0.65605 0.83848 0.34192 0.0
O1462 O 0.61989 0.78751 0.35178 0.0
O1463 O 0.65938 0.79076 0.33084 0.0
O1464 O 0.68268 0.87455 0.32398 0.0
O1465 O 0.68691 0.81025 0.30625 0.0
O1466 O 0.65757 0.81314 0.39809 0.0
O1467 O 0.69082 0.82681 0.35841 0.0
O1468 O 0.72779 0.87513 0.35035 0.0
O1469 O 0.68734 0.87523 0.36864 0.0
O1470 O 0.6668 0.79265 0.37773 0.0
O1471 O 0.65662 0.8559 0.39368 0.0
C1472 C 0.65693 0.86191 0.33406 0.0
C1473 C 0.70591 0.83503 0.27689 0.0
C1474 C 0.70533 0.83271 0.24271 0.0
C1475 C 0.68909 0.82858 0.25986 0.0
C1476 C 0.73864 0.8431 0.24287 0.0
C1477 C 0.73912 0.84542 0.27681 0.0
C1478 C 0.75537 0.8494 0.25984 0.0
C1479 C 0.62985 0.77612 0.33817 0.0
C1480 C 0.6883 0.83119 0.29448 0.0
C1481 C 0.83016 0.88481 0.32499 0.0
C1482 C 0.82055 0.85311 0.32768 0.0
C1483 C 0.69139 0.80445 0.36671 0.0
C1484 C 0.63994 0.83137 0.42334 0.0
C1485 C 0.65591 0.83936 0.4407 0.0
C1486 C 0.63825 0.83249 0.45757 0.0
C1487 C 0.60428 0.81692 0.45676 0.0
C1488 C 0.60612 0.81667 0.42285 0.0
C1489 C 0.58841 0.80934 0.43949 0.0
C1490 C 0.71782 0.8885 0.36274 0.0
C1491 C 0.65888 0.83752 0.406 0.0
H1492 H 0.66341 0.82064 0.25994 0.0
H1493 H 0.75162 0.8459 0.22989 0.0
H1494 H 0.75243 0.85039 0.28978 0.0
H1495 H 0.78099 0.85731 0.25985 0.0
H1496 H 0.6821 0.8511 0.44105 0.0
H1497 H 0.58992 0.81036 0.46946 0.0
H1498 H 0.59339 0.81065 0.40968 0.0
H1499 H 0.56228 0.79757 0.439 0.0
Tb1500 Tb 0.19097 0.83298 0.37379 0.0
C1501 C 0.12228 0.8751 0.32264 0.0
C1502 C 0.06658 0.83531 0.32781 0.0
C1503 C 0.07984 0.88854 0.32003 0.0
C1504 C 0.09972 0.84471 0.3271 0.0
C1505 C 0.11263 0.89723 0.31847 0.0
C1506 C 0.05683 0.8576 0.32472 0.0
C1507 C 0.16778 0.93344 0.30939 0.0
N1508 N 0.15355 0.88234 0.32114 0.0
C1509 C 0.17602 0.91048 0.31355 0.0
C1510 C 0.13604 0.92697 0.31218 0.0
Tb1511 Tb 0.16489 0.84354 0.32879 0.0
N1512 N 0.11019 0.82398 0.32987 0.0
C1513 C 0.08848 0.79285 0.33231 0.0
C1514 C 0.04431 0.8037 0.33116 0.0
C1515 C 0.05529 0.7823 0.33312 0.0
H1516 H 0.2006 0.91556 0.3114 0.0
H1517 H 0.03825 0.75772 0.33546 0.0
H1518 H 0.03152 0.85096 0.32544 0.0
H1519 H 0.18588 0.95604 0.30401 0.0
H1520 H 0.09663 0.77612 0.33411 0.0
H1521 H 0.24196 0.92272 0.42683 0.0
H1522 H 0.01863 0.79551 0.33189 0.0
H1523 H 0.22025 0.79162 0.35336 0.0
H1524 H 0.19867 0.88334 0.40671 0.0
H1525 H 0.27238 0.79302 0.35106 0.0
H1526 H 0.07193 0.9053 0.31712 0.0
H1527 H 0.29778 0.93202 0.42395 0.0
H1528 H 0.33606 0.91678 0.40934 0.0
H1529 H 0.12965 0.9447 0.30883 0.0
H1530 H 0.34428 0.88122 0.38875 0.0
N1531 N 0.23003 0.87168 0.39191 0.0
C1532 C 0.22303 0.88746 0.40524 0.0
C1533 C 0.27892 0.91488 0.41502 0.0
C1534 C 0.2854 0.89707 0.40231 0.0
C1535 C 0.24745 0.9097 0.41668 0.0
C1536 C 0.25995 0.87501 0.39107 0.0
H1537 H 0.32053 0.83463 0.36718 0.0
N1538 N 0.23848 0.83253 0.37034 0.0
C1539 C 0.27049 0.81058 0.3592 0.0
C1540 C 0.26437 0.85476 0.37981 0.0
C1541 C 0.24086 0.80987 0.36057 0.0
C1542 C 0.29763 0.83414 0.36826 0.0
C1543 C 0.29467 0.85632 0.37902 0.0
O1544 O 0.19002 0.79638 0.38966 0.0
O1545 O 0.14942 0.82511 0.35695 0.0
O1546 O 0.17745 0.88498 0.34593 0.0
O1547 O 0.21234 0.88351 0.36849 0.0
O1548 O 0.15574 0.84604 0.38275 0.0
O1549 O 0.16564 0.82019 0.39952 0.0
O1550 O 0.18932 0.85563 0.30278 0.0
O1551 O 0.20173 0.83887 0.34403 0.0
O1552 O 0.16807 0.78676 0.36034 0.0
O1553 O 0.1549 0.79542 0.33023 0.0
O1554 O 0.21659 0.8754 0.32538 0.0
O1555 O 0.14268 0.81469 0.30539 0.0
C1556 C 0.13692 0.83575 0.3685 0.0
C1557 C 0.19135 0.80553 0.42258 0.0
C1558 C 0.19378 0.81794 0.45608 0.0
C1559 C 0.1792 0.81387 0.43831 0.0
C1560 C 0.22058 0.81357 0.45795 0.0
C1561 C 0.21838 0.80156 0.4249 0.0
C1562 C 0.23281 0.80558 0.44246 0.0
C1563 C 0.20001 0.89835 0.35899 0.0
C1564 C 0.17584 0.801 0.40389 0.0
C1565 C 0.32071 0.87941 0.38933 0.0
C1566 C 0.31606 0.89971 0.40101 0.0
C1567 C 0.22667 0.86176 0.3367 0.0
C1568 C 0.15719 0.83886 0.27551 0.0
C1569 C 0.16996 0.83295 0.25922 0.0
C1570 C 0.16107 0.83814 0.24126 0.0
C1571 C 0.13985 0.85018 0.23996 0.0
C1572 C 0.13589 0.85059 0.27384 0.0
C1573 C 0.12746 0.85639 0.25613 0.0
C1574 C 0.15684 0.7773 0.34322 0.0
C1575 C 0.16613 0.83216 0.29401 0.0
H1576 H 0.1583 0.81689 0.43678 0.0
H1577 H 0.23233 0.81672 0.47141 0.0
H1578 H 0.22848 0.79535 0.41317 0.0
H1579 H 0.25363 0.8025 0.44407 0.0
H1580 H 0.18682 0.82435 0.26059 0.0
H1581 H 0.13232 0.85424 0.22641 0.0
H1582 H 0.12562 0.85507 0.28615 0.0
H1583 H 0.11095 0.8654 0.25493 0.0
Tb1584 Tb 0.83163 0.6443 0.6603 0.0
C1585 C 0.89396 0.76579 0.70687 0.0
C1586 C 0.95109 0.78485 0.70316 0.0
C1587 C 0.93194 0.82176 0.70803 0.0
C1588 C 0.91886 0.75999 0.70373 0.0
C1589 C 0.90012 0.79665 0.70955 0.0
C1590 C 0.95743 0.81586 0.70482 0.0
C1591 C 0.84354 0.77521 0.71679 0.0
N1592 N 0.86374 0.74083 0.70834 0.0
C1593 C 0.83875 0.74504 0.71407 0.0
C1594 C 0.87427 0.80119 0.71423 0.0
Tb1595 Tb 0.85763 0.6923 0.70229 0.0
N1596 N 0.91156 0.72973 0.70234 0.0
C1597 C 0.93587 0.72263 0.70215 0.0
C1598 C 0.97592 0.7777 0.70157 0.0
C1599 C 0.96827 0.7464 0.70143 0.0
H1600 H 0.81484 0.72526 0.7161 0.0
H1601 H 0.98728 0.74051 0.70062 0.0
H1602 H 0.98198 0.83533 0.7042 0.0
H1603 H 0.8235 0.77839 0.72085 0.0
H1604 H 0.93047 0.69868 0.70171 0.0
H1605 H 0.7038 0.60558 0.65662 0.0
H1606 H 1.001 0.79608 0.70102 0.0
H1607 H 0.87109 0.60573 0.65273 0.0
H1608 H 0.7617 0.64437 0.65706 0.0
H1609 H 0.85824 0.5507 0.65023 0.0
H1610 H 0.93719 0.8457 0.70983 0.0
H1611 H 0.68568 0.54894 0.65756 0.0
H1612 H 0.70035 0.50636 0.6573 0.0
H1613 H 0.87794 0.82452 0.71642 0.0
H1614 H 0.74245 0.49136 0.65543 0.0
N1615 N 0.77694 0.61033 0.65871 0.0
C1616 C 0.75449 0.61984 0.65736 0.0
C1617 C 0.71129 0.56592 0.65773 0.0
C1618 C 0.73436 0.55629 0.65794 0.0
C1619 C 0.72143 0.59785 0.65714 0.0
C1620 C 0.76736 0.57938 0.65826 0.0
H1621 H 0.80146 0.50777 0.65253 0.0
N1622 N 0.82213 0.59412 0.65686 0.0
C1623 C 0.83904 0.55606 0.6523 0.0
C1624 C 0.79083 0.57094 0.65727 0.0
C1625 C 0.84622 0.58723 0.65366 0.0
C1626 C 0.80697 0.53189 0.65364 0.0
C1627 C 0.78231 0.53919 0.65587 0.0
O1628 O 0.85741 0.64988 0.63524 0.0
O1629 O 0.86898 0.68639 0.67359 0.0
O1630 O 0.84742 0.71945 0.68193 0.0
O1631 O 0.81816 0.68113 0.65918 0.0
O1632 O 0.88321 0.66049 0.65817 0.0
O1633 O 0.81402 0.65295 0.63513 0.0
O1634 O 0.83203 0.68027 0.72792 0.0
O1635 O 0.82031 0.65127 0.6884 0.0
O1636 O 0.83651 0.61667 0.68285 0.0
O1637 O 0.87389 0.65741 0.70145 0.0
O1638 O 0.80579 0.67505 0.70528 0.0
O1639 O 0.87913 0.68518 0.72628 0.0
C1640 C 0.89371 0.68616 0.66737 0.0
C1641 C 0.82834 0.63772 0.60675 0.0
C1642 C 0.8273 0.63999 0.57235 0.0
C1643 C 0.835 0.65516 0.58994 0.0
C1644 C 0.81363 0.60719 0.57195 0.0
C1645 C 0.81411 0.60505 0.6059 0.0
C1646 C 0.80697 0.58995 0.58858 0.0
C1647 C 0.82907 0.70926 0.66674 0.0
C1648 C 0.83727 0.65401 0.62498 0.0
C1649 C 0.74953 0.51593 0.65631 0.0
C1650 C 0.72557 0.52448 0.65737 0.0
C1651 C 0.79539 0.65089 0.69468 0.0
C1652 C 0.86265 0.69455 0.75581 0.0
C1653 C 0.85186 0.6761 0.77229 0.0
C1654 C 0.85832 0.69028 0.79019 0.0
C1655 C 0.87596 0.72322 0.79118 0.0
C1656 C 0.8802 0.72726 0.75729 0.0
C1657 C 0.88681 0.74145 0.77489 0.0
C1658 C 0.85853 0.62755 0.69632 0.0
C1659 C 0.85494 0.67937 0.73723 0.0
H1660 H 0.84588 0.68042 0.59055 0.0
H1661 H 0.80826 0.59482 0.55873 0.0
H1662 H 0.80884 0.59126 0.61859 0.0
H1663 H 0.79632 0.56474 0.58802 0.0
H1664 H 0.83878 0.65079 0.77111 0.0
H1665 H 0.88111 0.73499 0.8046 0.0
H1666 H 0.88876 0.74181 0.74486 0.0
H1667 H 0.90029 0.76675 0.77592 0.0
Tb1668 Tb 0.36691 0.17375 0.65918 0.0
C1669 C 0.24357 0.1219 0.70629 0.0
C1670 C 0.22533 0.15916 0.70123 0.0
C1671 C 0.18617 0.10456 0.70755 0.0
C1672 C 0.25039 0.15187 0.70221 0.0
C1673 C 0.2115 0.09798 0.70954 0.0
C1674 C 0.19309 0.13515 0.70338 0.0
C1675 C 0.23234 0.06404 0.71848 0.0
N1676 N 0.26879 0.11676 0.70828 0.0
C1677 C 0.26374 0.08866 0.71519 0.0
C1678 C 0.20604 0.06855 0.71535 0.0
Tb1679 Tb 0.31936 0.15784 0.70143 0.0
N1680 N 0.28185 0.17427 0.70039 0.0
C1681 C 0.28999 0.2051 0.6993 0.0
C1682 C 0.23353 0.19045 0.69879 0.0
C1683 C 0.26605 0.2136 0.6982 0.0
H1684 H 0.28383 0.08481 0.71759 0.0
H1685 H 0.27274 0.23799 0.69671 0.0
H1686 H 0.17345 0.14018 0.70243 0.0
H1687 H 0.22846 0.04161 0.72342 0.0
H1688 H 0.31488 0.2233 0.69843 0.0
H1689 H 0.40763 0.08886 0.66164 0.0
H1690 H 0.21503 0.19707 0.6979 0.0
H1691 H 0.40571 0.24815 0.6456 0.0
H1692 H 0.36736 0.10604 0.66054 0.0
H1693 H 0.46215 0.28996 0.64049 0.0
H1694 H 0.1613 0.08642 0.70976 0.0
H1695 H 0.46598 0.12792 0.66101 0.0
H1696 H 0.50959 0.18433 0.6577 0.0
H1697 H 0.18175 0.0495 0.71799 0.0
H1698 H 0.52453 0.23929 0.65185 0.0
N1699 N 0.40227 0.1548 0.65967 0.0
C1700 C 0.39262 0.12354 0.66009 0.0
C1701 C 0.44836 0.13569 0.66044 0.0
C1702 C 0.45808 0.16749 0.65876 0.0
C1703 C 0.41546 0.11358 0.66075 0.0
C1704 C 0.43413 0.1763 0.6582 0.0
H1705 H 0.50693 0.27885 0.64502 0.0
N1706 N 0.4184 0.21385 0.65343 0.0
C1707 C 0.45699 0.26676 0.64466 0.0
C1708 C 0.44253 0.20701 0.65498 0.0
C1709 C 0.42502 0.24297 0.64751 0.0
C1710 C 0.4822 0.26042 0.64729 0.0
C1711 C 0.4751 0.23008 0.65217 0.0
O1712 O 0.36104 0.1892 0.63269 0.0
O1713 O 0.324 0.17013 0.67202 0.0
O1714 O 0.29014 0.11894 0.68256 0.0
O1715 O 0.32893 0.12385 0.66056 0.0
O1716 O 0.34909 0.20639 0.6539 0.0
O1717 O 0.35707 0.14386 0.63611 0.0
O1718 O 0.32838 0.14568 0.72819 0.0
O1719 O 0.36189 0.16107 0.68842 0.0
O1720 O 0.39609 0.21087 0.67894 0.0
O1721 O 0.35598 0.20834 0.69872 0.0
O1722 O 0.3379 0.12578 0.70718 0.0
O1723 O 0.32854 0.189 0.72378 0.0
C1724 C 0.32353 0.19295 0.66411 0.0
C1725 C 0.37504 0.16893 0.60679 0.0
C1726 C 0.37477 0.16743 0.57264 0.0
C1727 C 0.35847 0.16325 0.58975 0.0
C1728 C 0.40813 0.1781 0.57281 0.0
C1729 C 0.40822 0.17916 0.60677 0.0
C1730 C 0.4247 0.18387 0.58981 0.0
C1731 C 0.29983 0.10828 0.66838 0.0
C1732 C 0.35704 0.16408 0.62431 0.0
C1733 C 0.4993 0.22185 0.65372 0.0
C1734 C 0.49079 0.19056 0.65704 0.0
C1735 C 0.3628 0.13857 0.69644 0.0
C1736 C 0.31338 0.16572 0.75378 0.0
C1737 C 0.33052 0.1724 0.77071 0.0
C1738 C 0.31454 0.16808 0.78798 0.0
C1739 C 0.28096 0.1563 0.78806 0.0
C1740 C 0.27997 0.15435 0.75411 0.0
C1741 C 0.26385 0.14954 0.7712 0.0
C1742 C 0.38595 0.22315 0.69193 0.0
C1743 C 0.33091 0.1706 0.73603 0.0
H1744 H 0.33287 0.15568 0.58983 0.0
H1745 H 0.42124 0.18144 0.55981 0.0
H1746 H 0.42133 0.18343 0.61975 0.0
H1747 H 0.45033 0.19182 0.58985 0.0
H1748 H 0.35629 0.18081 0.77042 0.0
H1749 H 0.26805 0.15283 0.80115 0.0
H1750 H 0.2664 0.14926 0.74123 0.0
H1751 H 0.23805 0.14072 0.77138 0.0
Tb1752 Tb 0.85892 0.16118 0.7046 0.0
C1753 C 0.78234 0.20205 0.6551 0.0
C1754 C 0.72734 0.16059 0.65996 0.0
C1755 C 0.73841 0.21352 0.65332 0.0
C1756 C 0.76077 0.17125 0.65921 0.0
C1757 C 0.77146 0.22342 0.65146 0.0
C1758 C 0.71635 0.18211 0.6576 0.0
C1759 C 0.82591 0.26124 0.64212 0.0
N1760 N 0.81387 0.21041 0.65323 0.0
C1761 C 0.83538 0.23901 0.64578 0.0
C1762 C 0.79391 0.25362 0.64532 0.0
Tb1763 Tb 0.82784 0.17339 0.66082 0.0
N1764 N 0.77248 0.15133 0.66117 0.0
C1765 C 0.75153 0.11972 0.66211 0.0
C1766 C 0.70598 0.12853 0.66234 0.0
C1767 C 0.71812 0.10794 0.66301 0.0
H1768 H 0.86013 0.245 0.64323 0.0
H1769 H 0.70178 0.08298 0.66436 0.0
H1770 H 0.6908 0.17448 0.65839 0.0
H1771 H 0.84328 0.28418 0.6368 0.0
H1772 H 0.7603 0.10335 0.66284 0.0
H1773 H 0.98438 0.25347 0.70156 0.0
H1774 H 0.68012 0.11936 0.66305 0.0
H1775 H 0.82766 0.08946 0.72173 0.0
H1776 H 0.92576 0.23209 0.70265 0.0
H1777 H 0.84547 0.05102 0.72819 0.0
H1778 H 0.72956 0.22967 0.65085 0.0
H1779 H 1.00715 0.21805 0.70338 0.0
H1780 H 0.99762 0.16337 0.70818 0.0
H1781 H 0.78657 0.27078 0.64236 0.0
H1782 H 0.9596 0.10786 0.71541 0.0
N1783 N 0.91444 0.18433 0.70464 0.0
C1784 C 0.93491 0.21605 0.70363 0.0
C1785 C 0.9812 0.2084 0.70392 0.0
C1786 C 0.96033 0.17623 0.70627 0.0
C1787 C 0.96843 0.22845 0.70297 0.0
C1788 C 0.92675 0.16492 0.70675 0.0
H1789 H 0.9027 0.06575 0.72326 0.0
N1790 N 0.87387 0.1249 0.71222 0.0
C1791 C 0.86262 0.07419 0.72308 0.0
C1792 C 0.9056 0.13394 0.71064 0.0
C1793 C 0.85259 0.09599 0.71936 0.0
C1794 C 0.89492 0.08257 0.72024 0.0
C1795 C 0.91706 0.11304 0.71437 0.0
O1796 O 0.83552 0.14582 0.73075 0.0
O1797 O 0.81888 0.1615 0.69035 0.0
O1798 O 0.83586 0.21239 0.67871 0.0
O1799 O 0.86901 0.20983 0.70213 0.0
O1800 O 0.80816 0.12578 0.70872 0.0
O1801 O 0.87636 0.19209 0.72754 0.0
O1802 O 0.8512 0.18778 0.63461 0.0
O1803 O 0.86748 0.17294 0.6752 0.0
O1804 O 0.8523 0.12307 0.68619 0.0
O1805 O 0.8175 0.12464 0.6635 0.0
O1806 O 0.87896 0.20776 0.65616 0.0
O1807 O 0.8088 0.14258 0.6379 0.0
C1808 C 0.79549 0.13775 0.69796 0.0
C1809 C 0.86772 0.16851 0.7575 0.0
C1810 C 0.86648 0.17072 0.79176 0.0
C1811 C 0.85507 0.17371 0.77406 0.0
C1812 C 0.8904 0.16198 0.79257 0.0
C1813 C 0.8918 0.16015 0.75865 0.0
C1814 C 0.90295 0.15679 0.77612 0.0
C1815 C 0.85563 0.22413 0.69317 0.0
C1816 C 0.85536 0.17173 0.7392 0.0
C1817 C 0.9503 0.12363 0.71285 0.0
C1818 C 0.97193 0.15523 0.70876 0.0
C1819 C 0.8912 0.19597 0.66738 0.0
C1820 C 0.81807 0.16676 0.60807 0.0
C1821 C 0.8315 0.16331 0.5913 0.0
C1822 C 0.82067 0.1678 0.57379 0.0
C1823 C 0.79605 0.17564 0.57336 0.0
C1824 C 0.79359 0.17462 0.60731 0.0
C1825 C 0.78272 0.17908 0.59002 0.0
C1826 C 0.83188 0.11088 0.67201 0.0
C1827 C 0.83016 0.16239 0.62617 0.0
H1828 H 0.83621 0.17985 0.77315 0.0
H1829 H 0.8998 0.15967 0.80594 0.0
H1830 H 0.902 0.15629 0.74611 0.0
H1831 H 0.92153 0.15031 0.77692 0.0
H1832 H 0.85045 0.15725 0.59188 0.0
H1833 H 0.7866 0.17846 0.56014 0.0
H1834 H 0.78276 0.17711 0.62001 0.0
H1835 H 0.76368 0.18497 0.58953 0.0
C1836 C 0.39608 0.90422 0.04549 0.0
C1837 C 0.37084 0.90971 0.05067 0.0
C1838 C 0.42464 0.92808 0.03725 0.0
C1839 C 0.42856 0.95793 0.03363 0.0
H1840 H 0.3945 0.882 0.04882 0.0
H1841 H 0.44428 0.92361 0.03465 0.0
S1842 S 0.36784 0.98255 0.04225 0.0
N1843 N 0.3504 0.94606 0.04999 0.0
N1844 N 0.40369 0.99058 0.03432 0.0
C1845 C 0.40264 0.96288 0.03769 0.0
C1846 C 0.37385 0.93884 0.04619 0.0
C1847 C 0.11224 0.49444 0.04467 0.0
C1848 C 0.1085 0.46514 0.04978 0.0
C1849 C 0.08541 0.49756 0.03956 0.0
C1850 C 0.054 0.47134 0.0389 0.0
H1851 H 0.1359 0.51525 0.04523 0.0
H1852 H 0.08929 0.5207 0.0365 0.0
S1853 S 0.03154 0.38932 0.04994 0.0
N1854 N 0.07103 0.40937 0.05324 0.0
N1855 N 0.02095 0.41519 0.04345 0.0
C1856 C 0.05012 0.44197 0.04372 0.0
C1857 C 0.07726 0.43883 0.04905 0.0
C1858 C 0.52646 0.6177 0.06035 0.0
C1859 C 0.54202 0.64589 0.05009 0.0
C1860 C 0.5206 0.5894 0.05233 0.0
C1861 C 0.52993 0.58836 0.03379 0.0
H1862 H 0.51837 0.61745 0.07458 0.0
H1863 H 0.50827 0.56808 0.06059 0.0
S1864 S 0.5747 0.65585 1.00179 0.0
N1865 N 0.5688 0.67125 0.0209 0.0
N1866 N 0.55777 0.61787 1.00596 0.0
C1867 C 0.54613 0.61631 0.02353 0.0
C1868 C 0.55216 0.64516 0.03166 0.0
C1869 C 0.92811 0.36377 0.98418 0.0
C1870 C 0.89453 0.35005 0.98681 0.0
C1871 C 0.94964 0.39381 0.99111 0.0
C1872 C 0.93855 0.4114 1.00105 0.0
H1873 H 0.9379 0.35113 0.97678 0.0
H1874 H 0.97521 0.40317 0.98864 0.0
S1875 S 0.85239 0.38668 1.01039 0.0
N1876 N 0.85099 0.35695 0.99899 0.0
N1877 N 0.89114 0.41273 1.0124 0.0
C1878 C 0.9049 0.39784 1.00365 0.0
C1879 C 0.88302 0.36741 0.99645 0.0
C1880 C 0.64532 0.56553 0.98518 0.0
C1881 C 0.65034 0.53983 0.9833 0.0
C1882 C 0.61562 0.56163 0.99152 0.0
C1883 C 0.5896 0.53187 0.99624 0.0
H1884 H 0.66446 0.58888 0.98157 0.0
H1885 H 0.61282 0.58212 0.99249 0.0
S1886 S 0.58956 0.45662 0.99229 0.0
N1887 N 0.62656 0.48343 0.98612 0.0
N1888 N 0.57047 0.47597 0.99726 0.0
C1889 C 0.59423 0.50591 0.99422 0.0
C1890 C 0.62469 0.50994 0.98802 0.0
C1891 C 0.46838 0.10122 0.99053 0.0
C1892 C 0.47557 0.10717 0.97125 0.0
C1893 C 0.47639 0.08146 1.00059 0.0
C1894 C 0.49165 0.06694 0.99165 0.0
H1895 H 0.45575 0.1113 0.99777 0.0
H1896 H 0.46964 0.07671 0.01524 0.0
S1897 S 0.5196 0.07792 0.94231 0.0
N1898 N 0.50183 0.09926 0.94424 0.0
N1899 N 0.51618 0.06168 0.9631 0.0
C1900 C 0.49995 0.07345 0.97265 0.0
C1901 C 0.49208 0.09368 0.96245 0.0
C1902 C 0.64465 0.05993 0.98451 0.0
C1903 C 0.65007 0.09013 0.98046 0.0
C1904 C 0.61553 0.03713 0.9926 0.0
C1905 C 0.59053 0.04347 0.99685 0.0
H1906 H 0.66279 0.05366 0.98094 0.0
H1907 H 0.61208 0.01389 0.99497 0.0
S1908 S 0.59275 0.11907 0.98866 0.0
N1909 N 0.62855 0.12559 0.98157 0.0
N1910 N 0.57327 0.08236 0.99604 0.0
C1911 C 0.59593 0.07384 0.99317 0.0
C1912 C 0.62588 0.09727 0.9852 0.0
C1913 C 0.9464 0.57225 0.9829 0.0
C1914 C 0.91462 0.54805 0.97954 0.0
C1915 C 0.96962 0.56606 0.99083 0.0
C1916 C 0.96215 0.53543 0.99576 0.0
H1917 H 0.95361 0.59611 0.97892 0.0
H1918 H 0.99398 0.58542 0.99271 0.0
S1919 S 0.88268 0.46371 0.98895 0.0
N1920 N 0.87685 0.49231 0.98157 0.0
N1921 N 0.92069 0.48046 0.99597 0.0
C1922 C 0.93033 0.51102 0.99265 0.0
C1923 C 0.90652 0.51743 0.98475 0.0
C1924 C 0.47119 0.35865 0.99873 0.0
C1925 C 0.47834 0.3568 0.97977 0.0
C1926 C 0.47674 0.38703 1.00653 0.0
C1927 C 0.48937 0.41434 0.99557 0.0
H1928 H 0.46073 0.33791 1.00753 0.0
H1929 H 0.47046 0.38744 0.02107 0.0
S1930 S 0.5152 0.42296 0.94589 0.0
N1931 N 0.50109 0.38551 0.95069 0.0
N1932 N 0.51078 0.43859 0.96534 0.0
C1933 C 0.49712 0.41303 0.97675 0.0
C1934 C 0.4918 0.38431 0.96884 0.0
C1935 C 0.13347 0.62848 0.04071 0.0
C1936 C 0.12541 0.64876 0.05011 0.0
C1937 C 0.10944 0.59935 0.03393 0.0
C1938 C 0.07631 0.58927 0.03623 0.0
H1939 H 0.15857 0.63489 0.0389 0.0
H1940 H 0.11702 0.58443 0.0271 0.0
S1941 S 0.04251 0.63495 0.05853 0.0
N1942 N 0.08203 0.65768 0.06032 0.0
N1943 N 0.03695 0.60291 0.0479 0.0
C1944 C 0.06798 0.60964 0.04534 0.0
C1945 C 0.09246 0.63935 0.05217 0.0
C1946 C 0.37312 0.43593 0.04657 0.0
C1947 C 0.36844 0.4616 0.04975 0.0
C1948 C 0.40201 0.43992 0.03885 0.0
C1949 C 0.42763 0.46975 0.03392 0.0
H1950 H 0.35467 0.41259 0.05075 0.0
H1951 H 0.40477 0.41947 0.03731 0.0
S1952 S 0.42755 0.54475 0.03926 0.0
N1953 N 0.39149 0.51791 0.04687 0.0
N1954 N 0.44619 0.52556 0.03286 0.0
C1955 C 0.42296 0.49561 0.03652 0.0
C1956 C 0.39324 0.49147 0.04423 0.0
C1957 C 0.56341 0.92548 0.06016 0.0
C1958 C 0.54116 0.89318 0.06092 0.0
C1959 C 0.5567 0.94594 0.04999 0.0
C1960 C 0.52752 0.93498 0.04008 0.0
H1961 H 0.58637 0.93504 0.06737 0.0
H1962 H 0.57468 0.9706 0.04993 0.0
S1963 S 0.46041 0.85259 0.0383 0.0
N1964 N 0.48819 0.85121 0.05143 0.0
N1965 N 0.47576 0.88965 0.03209 0.0
C1966 C 0.50504 0.90268 0.04065 0.0
C1967 C 0.51181 0.88181 0.05112 0.0
C1968 C 0.06094 0.23589 0.37908 0.0
C1969 C 0.03489 0.24045 0.38375 0.0
C1970 C 0.08918 0.26008 0.37073 0.0
C1971 C 0.09187 0.28929 0.36663 0.0
H1972 H 0.06018 0.21419 0.38286 0.0
H1973 H 0.10952 0.25645 0.36841 0.0
S1974 S 0.02868 0.31117 0.37371 0.0
N1975 N 0.01236 0.27504 0.38195 0.0
N1976 N 0.06508 0.32024 0.36621 0.0
C1977 C 0.06517 0.29324 0.37018 0.0
C1978 C 0.03671 0.26885 0.37869 0.0
C1979 C 0.77792 0.82465 0.37833 0.0
C1980 C 0.77411 0.79525 0.38325 0.0
C1981 C 0.75133 0.82768 0.37256 0.0
C1982 C 0.72017 0.80131 0.371 0.0
H1983 H 0.8014 0.84556 0.37952 0.0
H1984 H 0.75519 0.85087 0.36969 0.0
S1985 S 0.69777 0.71903 0.38122 0.0
N1986 N 0.73693 0.73926 0.3856 0.0
N1987 N 0.68732 0.74492 0.37452 0.0
C1988 C 0.71626 0.77184 0.37562 0.0
C1989 C 0.74314 0.76879 0.38165 0.0
C1990 C 0.19687 0.9725 0.36804 0.0
C1991 C 0.22703 0.99229 0.37634 0.0
C1992 C 0.18878 0.94249 0.3619 0.0
C1993 C 0.21043 0.93108 0.36402 0.0
H1994 H 0.17895 0.97982 0.36687 0.0
H1995 H 0.16497 0.92779 0.35603 0.0
S1996 S 0.29431 0.97565 0.38209 0.0
N1997 N 0.28002 0.99991 0.3843 0.0
N1998 N 0.26457 0.94322 0.37306 0.0
C1999 C 0.24121 0.95119 0.37147 0.0
C2000 C 0.24956 0.98186 0.37757 0.0
C2001 C 0.56729 0.69014 0.33374 0.0
C2002 C 0.55799 0.68749 0.31477 0.0
C2003 C 0.59089 0.71886 0.34122 0.0
C2004 C 0.60611 0.74588 0.32999 0.0
H2005 H 0.55654 0.66978 0.34284 0.0
H2006 H 0.59762 0.71977 0.35578 0.0
S2007 S 0.58988 0.75239 0.27989 0.0
N2008 N 0.5653 0.71516 0.28517 0.0
N2009 N 0.61013 0.76881 0.29928 0.0
C2010 C 0.59728 0.74374 0.31108 0.0
C2011 C 0.57308 0.71463 0.30345 0.0
C2012 C 0.28596 0.84299 0.31252 0.0
C2013 C 0.31619 0.86818 0.3178 0.0
C2014 C 0.25698 0.84013 0.31952 0.0
C2015 C 0.25726 0.86238 0.33202 0.0
H2016 H 0.28473 0.82563 0.30274 0.0
H2017 H 0.23416 0.82081 0.31477 0.0
S2018 S 0.32997 0.93322 0.3495 0.0
N2019 N 0.34459 0.91579 0.33613 0.0
N2020 N 0.29022 0.91104 0.34863 0.0
C2021 C 0.28729 0.88778 0.33718 0.0
C2022 C 0.31675 0.89041 0.33034 0.0
C2023 C 0.10837 0.40458 0.30757 0.0
C2024 C 0.12869 0.43724 0.30714 0.0
C2025 C 0.11792 0.38516 0.31653 0.0
C2026 C 0.14816 0.39761 0.32547 0.0
H2027 H 0.08474 0.39392 0.30106 0.0
H2028 H 0.10128 0.36017 0.31649 0.0
S2029 S 0.21116 0.4816 0.32737 0.0
N2030 N 0.18101 0.48123 0.31577 0.0
N2031 N 0.19889 0.44468 0.33271 0.0
C2032 C 0.16879 0.43026 0.32511 0.0
C2033 C 0.15908 0.45008 0.31593 0.0
C2034 C 0.28527 0.43328 0.31828 0.0
C2035 C 0.31096 0.4281 0.31371 0.0
C2036 C 0.25659 0.40935 0.32643 0.0
C2037 C 0.25307 0.37977 0.33046 0.0
H2038 H 0.2866 0.45524 0.31454 0.0
H2039 H 0.23655 0.41345 0.32857 0.0
S2040 S 0.31506 0.35622 0.32367 0.0
N2041 N 0.33226 0.3925 0.3156 0.0
N2042 N 0.27876 0.34784 0.33097 0.0
C2043 C 0.27945 0.37523 0.32708 0.0
C2044 C 0.30834 0.39934 0.31874 0.0
C2045 C 0.57298 0.84288 0.31731 0.0
C2046 C 0.57814 0.87266 0.31207 0.0
C2047 C 0.59806 0.83927 0.32524 0.0
C2048 C 0.62892 0.86541 0.32839 0.0
H2049 H 0.54993 0.82218 0.31447 0.0
H2050 H 0.59363 0.81587 0.32826 0.0
S2051 S 0.65366 0.94842 0.3187 0.0
N2052 N 0.61566 0.92866 0.31169 0.0
N2053 N 0.66244 0.92198 0.32664 0.0
C2054 C 0.6338 0.89526 0.32385 0.0
C2055 C 0.60848 0.89888 0.31577 0.0
C2056 C 0.14552 0.71087 0.31206 0.0
C2057 C 0.12932 0.68428 0.32363 0.0
C2058 C 0.15447 0.74072 0.31872 0.0
C2059 C 0.14799 0.74536 0.3373 0.0
H2060 H 0.15149 0.70865 0.29769 0.0
H2061 H 0.16679 0.76042 0.30919 0.0
S2062 S 0.10612 0.68381 0.37339 0.0
N2063 N 0.10683 0.66452 0.35463 0.0
N2064 N 0.12465 0.72119 0.3673 0.0
C2065 C 0.13246 0.71924 0.34922 0.0
C2066 C 0.12289 0.68857 0.34235 0.0
C2067 C 0.79893 0.95918 0.37524 0.0
C2068 C 0.7903 0.97947 0.38409 0.0
C2069 C 0.77533 0.9299 0.36844 0.0
C2070 C 0.74209 0.91969 0.37017 0.0
H2071 H 0.82414 0.96575 0.37383 0.0
H2072 H 0.78333 0.91503 0.36198 0.0
S2073 S 0.7069 0.96516 0.39106 0.0
N2074 N 0.74631 0.98815 0.39331 0.0
N2075 N 0.702 0.93304 0.38084 0.0
C2076 C 0.73318 0.93997 0.37883 0.0
C2077 C 0.75724 0.96984 0.38568 0.0
C2078 C 0.05049 0.78251 0.38418 0.0
C2079 C 0.03872 0.8035 0.38672 0.0
C2080 C 0.08155 0.79262 0.37683 0.0
C2081 C 0.10202 0.82405 0.37162 0.0
H2082 H 0.03594 0.75826 0.38847 0.0
H2083 H 0.09017 0.77602 0.37599 0.0
S2084 S 0.08329 0.88842 0.37535 0.0
N2085 N 0.05022 0.85722 0.38304 0.0
N2086 N 0.10865 0.8761 0.36966 0.0
C2087 C 0.09045 0.84511 0.37376 0.0
C2088 C 0.05871 0.83482 0.38103 0.0
C2089 C 0.19882 0.24492 0.39851 0.0
C2090 C 0.21943 0.23615 0.38958 0.0
C2091 C 0.1881 0.26313 0.38916 0.0
C2092 C 0.19739 0.27291 0.37057 0.0
H2093 H 0.19079 0.23749 0.41278 0.0
H2094 H 0.17249 0.26971 0.39653 0.0
S2095 S 0.25341 0.25907 0.34159 0.0
N2096 N 0.25028 0.2404 0.36146 0.0
N2097 N 0.23003 0.27475 0.34402 0.0
C2098 C 0.21827 0.2648 0.36156 0.0
C2099 C 0.22928 0.24632 0.37104 0.0
C2100 C 0.73234 0.56936 0.71128 0.0
C2101 C 0.70618 0.57385 0.71577 0.0
C2102 C 0.76081 0.59367 0.70317 0.0
C2103 C 0.76369 0.62298 0.69904 0.0
H2104 H 0.73147 0.54761 0.71501 0.0
H2105 H 0.78113 0.59 0.70108 0.0
S2106 S 0.70058 0.645 0.70612 0.0
N2107 N 0.68399 0.60871 0.71412 0.0
N2108 N 0.73703 0.65405 0.69871 0.0
C2109 C 0.73694 0.62691 0.70251 0.0
C2110 C 0.70826 0.60242 0.71085 0.0
C2111 C 0.41282 0.10143 0.71125 0.0
C2112 C 0.44424 0.12706 0.71339 0.0
C2113 C 0.38714 0.10563 0.7052 0.0
C2114 C 0.39174 0.13559 0.70101 0.0
H2115 H 0.408 0.07795 0.7144 0.0
H2116 H 0.36332 0.08519 0.7039 0.0
S2117 S 0.46877 0.21063 0.70658 0.0
N2118 N 0.47826 0.18353 0.71188 0.0
N2119 N 0.42988 0.19156 0.70137 0.0
C2120 C 0.42295 0.16147 0.70357 0.0
C2121 C 0.44922 0.15714 0.70945 0.0
C2122 C 0.85494 0.28216 0.72726 0.0
C2123 C 0.8701 0.31049 0.7171 0.0
C2124 C 0.85061 0.25431 0.71937 0.0
C2125 C 0.86104 0.25383 0.70104 0.0
H2126 H 0.8461 0.28145 0.74135 0.0
H2127 H 0.83865 0.2329 0.72757 0.0
S2128 S 0.90486 0.32177 0.66924 0.0
N2129 N 0.89747 0.33653 0.68816 0.0
N2130 N 0.88908 0.2839 0.67341 0.0
C2131 C 0.87665 0.28186 0.69082 0.0
C2132 C 0.88121 0.31029 0.69884 0.0
C2133 C 0.23626 0.0226 0.66254 0.0
C2134 C 0.22817 0.02056 0.64335 0.0
C2135 C 0.25957 0.05099 0.67058 0.0
C2136 C 0.27599 0.07834 0.65972 0.0
H2137 H 0.22471 0.00201 0.67143 0.0
H2138 H 0.26515 0.05137 0.68532 0.0
S2139 S 0.2628 0.08671 0.60932 0.0
N2140 N 0.2376 0.04939 0.61403 0.0
N2141 N 0.28203 0.10227 0.62911 0.0
C2142 C 0.26831 0.07682 0.6406 0.0
C2143 C 0.24428 0.04808 0.63243 0.0
C2144 C 0.95701 0.17563 0.65562 0.0
C2145 C 0.98281 0.20468 0.64955 0.0
C2146 C 0.92758 0.17278 0.66193 0.0
C2147 C 0.92319 0.19903 0.66283 0.0
H2148 H 0.95919 0.15478 0.65491 0.0
H2149 H 0.90799 0.14979 0.6657 0.0
S2150 S 0.98399 0.28064 0.65007 0.0
N2151 N 1.00236 0.26036 0.64584 0.0
N2152 N 0.94757 0.25506 0.65781 0.0
C2153 C 0.94907 0.22821 0.65725 0.0
C2154 C 0.97877 0.23107 0.6507 0.0
C2155 C 0.79824 0.76542 0.65656 0.0
C2156 C 0.80323 0.77032 0.63706 0.0
C2157 C 0.80722 0.74607 0.66627 0.0
C2158 C 0.82126 0.73087 0.65677 0.0
H2159 H 0.78681 0.77618 0.66432 0.0
H2160 H 0.80231 0.74231 0.68116 0.0
S2161 S 0.84291 0.73862 0.60636 0.0
N2162 N 0.82573 0.76036 0.60903 0.0
N2163 N 0.84196 0.72361 0.62724 0.0
C2164 C 0.82708 0.73609 0.63744 0.0
C2165 C 0.81821 0.75592 0.62759 0.0
C2166 C 0.97865 0.73192 0.64806 0.0
C2167 C 0.98199 0.76109 0.6432 0.0
C2168 C 0.95066 0.70877 0.65696 0.0
C2169 C 0.92473 0.71368 0.66129 0.0
H2170 H 0.9975 0.72665 0.64448 0.0
H2171 H 0.94881 0.68631 0.65991 0.0
S2172 S 0.92167 0.78632 0.65158 0.0
N2173 N 0.9576 0.79418 0.64384 0.0
N2174 N 0.90446 0.75025 0.65998 0.0
C2175 C 0.92812 0.74311 0.65695 0.0
C2176 C 0.95693 0.76693 0.64809 0.0
C2177 C 0.27474 0.22964 0.64673 0.0
C2178 C 0.24372 0.20395 0.64351 0.0
C2179 C 0.29967 0.2256 0.6542 0.0
C2180 C 0.29476 0.19571 0.65883 0.0
H2181 H 0.28006 0.25306 0.64289 0.0
H2182 H 0.32334 0.24609 0.65596 0.0
S2183 S 0.21813 0.12057 0.65254 0.0
N2184 N 0.20934 0.14749 0.64552 0.0
N2185 N 0.25642 0.13977 0.65906 0.0
C2186 C 0.26369 0.16978 0.65591 0.0
C2187 C 0.23811 0.17396 0.64846 0.0
C2188 C 0.82955 0.05122 0.63803 0.0
C2189 C 0.81388 0.02313 0.64839 0.0
C2190 C 0.83538 0.07963 0.64588 0.0
C2191 C 0.82586 0.08085 0.66434 0.0
H2192 H 0.83752 0.05125 0.62379 0.0
H2193 H 0.84757 0.10083 0.63751 0.0
S2194 S 0.78112 0.01378 0.69663 0.0
N2195 N 0.78714 0.99815 0.67766 0.0
N2196 N 0.79799 0.0517 0.69226 0.0
C2197 C 0.80973 0.05304 0.67473 0.0
C2198 C 0.80379 0.0241 0.66679 0.0
C2199 C 0.46622 0.2967 0.70234 0.0
C2200 C 0.4575 0.31469 0.71365 0.0
C2201 C 0.44291 0.26752 0.69529 0.0
C2202 C 0.40975 0.25472 0.69934 0.0
H2203 H 0.49139 0.30492 0.69914 0.0
H2204 H 0.45123 0.25475 0.68682 0.0
S2205 S 0.37383 0.29348 0.72725 0.0
N2206 N 0.41304 0.31855 0.72757 0.0
N2207 N 0.36942 0.26326 0.71494 0.0
C2208 C 0.40062 0.27266 0.71047 0.0
C2209 C 0.42439 0.30266 0.71747 0.0
C2210 C 0.70915 0.09792 0.71587 0.0
C2211 C 0.70286 0.12268 0.7187 0.0
C2212 C 0.73857 0.10316 0.70823 0.0
C2213 C 0.7631 0.13337 0.70302 0.0
H2214 H 0.69147 0.07433 0.72013 0.0
H2215 H 0.74253 0.08339 0.70684 0.0
S2216 S 0.75899 0.20643 0.70784 0.0
N2217 N 0.72345 0.17859 0.71547 0.0
N2218 N 0.77915 0.1886 0.70168 0.0
C2219 C 0.75695 0.15834 0.70546 0.0
C2220 C 0.72669 0.15292 0.71307 0.0
C2221 C 0.84903 0.55199 0.71682 0.0
C2222 C 0.87746 0.56236 0.7274 0.0
C2223 C 0.84342 0.57312 0.70645 0.0
C2224 C 0.86599 0.60544 0.70634 0.0
H2225 H 0.83066 0.52744 0.71684 0.0
H2226 H 0.82088 0.56408 0.69884 0.0
S2227 S 0.94593 0.64392 0.73004 0.0
N2228 N 0.92964 0.60659 0.7358 0.0
N2229 N 0.91896 0.6463 0.71672 0.0
C2230 C 0.89491 0.61591 0.71646 0.0
C2231 C 0.90068 0.5944 0.72689 0.0
C2232 C 0.47041 0.95949 0.16206 0.0
C2233 C 0.49128 0.96674 0.17759 0.0
C2234 C 0.48117 0.97597 0.14495 0.0
C2235 C 0.51322 1.00058 0.14266 0.0
H2236 H 0.44546 0.94097 0.16315 0.0
H2237 H 0.46399 0.96995 0.13361 0.0
S2238 S 0.57797 0.0283 0.17862 0.0
N2239 N 0.5458 1.00027 0.1893 0.0
N2240 N 0.56613 0.03025 0.15716 0.0
C2241 C 0.53451 0.00754 0.15791 0.0
C2242 C 0.52356 0.9909 0.17531 0.0
C2243 C 0.03173 0.51802 0.16602 0.0
C2244 C 0.0225 0.53216 0.18004 0.0
C2245 C 0.01667 0.51069 0.14836 0.0
C2246 C 0.99175 0.51715 0.14404 0.0
H2247 H 0.0509 0.51278 0.16866 0.0
H2248 H 0.02424 0.4994 0.13813 0.0
S2249 S 0.95877 0.55424 0.17573 0.0
N2250 N 0.9863 0.55172 0.18843 0.0
N2251 N 0.95941 0.5396 0.15505 0.0
C2252 C 0.98261 0.53164 0.15786 0.0
C2253 C 0.99761 0.53873 0.17587 0.0
C2254 C 0.4934 0.49061 0.17426 0.0
C2255 C 0.49481 0.51954 0.17717 0.0
C2256 C 0.50238 0.4835 0.15699 0.0
C2257 C 0.51286 0.5049 0.14189 0.0
H2258 H 0.48646 0.47383 0.18564 0.0
H2259 H 0.50159 0.46122 0.15553 0.0
S2260 S 0.51867 0.58299 0.14192 0.0
N2261 N 0.50551 0.56889 0.16314 0.0
N2262 N 0.52295 0.55582 0.13087 0.0
C2263 C 0.51322 0.53342 0.14442 0.0
C2264 C 0.50412 0.54067 0.162 0.0
C2265 C 1.00296 0.46397 0.86142 0.0
C2266 C 0.97757 0.47015 0.85808 0.0
C2267 C 0.02026 0.47259 0.87829 0.0
C2268 C 0.01305 0.4879 0.89253 0.0
H2269 H 0.00977 0.45257 0.85084 0.0
H2270 H 0.03929 0.46691 0.88023 0.0
S2271 S 0.94903 0.50987 0.89079 0.0
N2272 N 0.94571 0.49214 0.87061 0.0
N2273 N 0.97924 0.50967 0.90196 0.0
C2274 C 0.98788 0.49448 0.88935 0.0
C2275 C 0.97 0.4854 0.87221 0.0
C2276 C 0.52661 0.50677 0.85599 0.0
C2277 C 0.52582 0.47801 0.85369 0.0
C2278 C 0.51692 0.51424 0.87291 0.0
C2279 C 0.50624 0.49334 0.88826 0.0
H2280 H 0.53359 0.52317 0.8444 0.0
H2281 H 0.51734 0.5364 0.87387 0.0
S2282 S 0.50185 0.41589 0.88989 0.0
N2283 N 0.51558 0.42942 0.86864 0.0
N2284 N 0.49662 0.44306 0.90019 0.0
C2285 C 0.50647 0.46499 0.88636 0.0
C2286 C 0.51637 0.45741 0.86915 0.0
C2287 C 0.52029 0.00364 0.85628 0.0
C2288 C 0.51619 0.02979 0.85348 0.0
C2289 C 0.51292 0.98773 0.87359 0.0
C2290 C 0.50144 0.99743 0.88894 0.0
H2291 H 0.52827 0.99474 0.84481 0.0
H2292 H 0.5159 0.96737 0.87489 0.0
S2293 S 0.48838 0.06576 0.88937 0.0
N2294 N 0.50154 0.06571 0.86794 0.0
N2295 N 0.48729 0.03559 0.90028 0.0
C2296 C 0.49821 0.02415 0.88652 0.0
C2297 C 0.5056 0.04029 0.86887 0.0
C2298 C 0.13737 0.29612 0.49506 0.0
C2299 C 0.15886 0.30322 0.51026 0.0
C2300 C 0.14755 0.31235 0.47785 0.0
C2301 C 0.17966 0.33657 0.47509 0.0
H2302 H 0.11233 0.27794 0.4965 0.0
H2303 H 0.12988 0.30649 0.46681 0.0
S2304 S 0.24601 0.36357 0.50998 0.0
N2305 N 0.21409 0.33604 0.52111 0.0
N2306 N 0.23333 0.36557 0.48875 0.0
C2307 C 0.2016 0.3433 0.48998 0.0
C2308 C 0.19123 0.3269 0.5075 0.0
C2309 C 0.69676 0.84329 0.49704 0.0
C2310 C 0.6885 0.85803 0.51114 0.0
C2311 C 0.68049 0.83517 0.47978 0.0
C2312 C 0.65522 0.84136 0.47597 0.0
H2313 H 0.71631 0.83842 0.49924 0.0
H2314 H 0.68762 0.82376 0.46937 0.0
S2315 S 0.62387 0.87905 0.50833 0.0
N2316 N 0.65264 0.87755 0.52035 0.0
N2317 N 0.62298 0.86344 0.48773 0.0
C2318 C 0.64664 0.85597 0.48999 0.0
C2319 C 0.66306 0.86405 0.50759 0.0
C2320 C 0.16575 0.81841 0.50602 0.0
C2321 C 0.16482 0.84653 0.50683 0.0
C2322 C 0.17424 0.80894 0.48942 0.0
C2323 C 0.18162 0.82691 0.47286 0.0
H2324 H 0.16098 0.80416 0.51851 0.0
H2325 H 0.17554 0.78757 0.4896 0.0
S2326 S 0.18086 0.90145 0.46717 0.0
N2327 N 0.17065 0.89157 0.48934 0.0
N2328 N 0.18638 0.87358 0.45814 0.0
C2329 C 0.17969 0.85449 0.47328 0.0
C2330 C 0.17142 0.86436 0.49026 0.0
C2331 C 0.6423 0.78823 0.20527 0.0
C2332 C 0.65309 0.80911 0.18996 0.0
C2333 C 0.65899 0.79629 0.22238 0.0
C2334 C 0.68731 0.82539 0.22473 0.0
H2335 H 0.62081 0.76542 0.204 0.0
H2336 H 0.65003 0.77934 0.23372 0.0
S2337 S 0.72523 0.88869 0.18914 0.0
N2338 N 0.69359 0.86032 0.17834 0.0
N2339 N 0.72482 0.87557 0.21054 0.0
C2340 C 0.69812 0.84666 0.20962 0.0
C2341 C 0.68101 0.83853 0.19224 0.0
C2342 C 0.19283 0.84381 0.19142 0.0
C2343 C 0.19121 0.81472 0.18886 0.0
C2344 C 0.18388 0.85149 0.20853 0.0
C2345 C 0.17307 0.83046 0.22382 0.0
H2346 H 0.19998 0.86038 0.17991 0.0
H2347 H 0.18503 0.87397 0.20969 0.0
S2348 S 0.16654 0.75204 0.22476 0.0
N2349 N 0.18008 0.76563 0.20351 0.0
N2350 N 0.1623 0.77958 0.23536 0.0
C2351 C 0.17238 0.8017 0.22163 0.0
C2352 C 0.18161 0.79395 0.20424 0.0
C2353 C 0.17473 0.37719 0.20174 0.0
C2354 C 0.18621 0.36748 0.18638 0.0
C2355 C 0.16676 0.36091 0.21894 0.0
C2356 C 0.16963 0.33402 0.22148 0.0
H2357 H 0.17143 0.39735 0.20037 0.0
H2358 H 0.15716 0.36881 0.2301 0.0
S2359 S 0.20035 0.29979 0.1862 0.0
N2360 N 0.20112 0.32974 0.17521 0.0
N2361 N 0.18678 0.29962 0.20753 0.0
C2362 C 0.18214 0.32469 0.20647 0.0
C2363 C 0.19032 0.34129 0.18898 0.0
C2364 C 0.85769 0.66409 0.84083 0.0
C2365 C 0.82573 0.63956 0.84356 0.0
C2366 C 0.86806 0.67964 0.82349 0.0
C2367 C 0.84705 0.67141 0.80798 0.0
H2368 H 0.8747 0.67197 0.85236 0.0
H2369 H 0.89282 0.69855 0.82228 0.0
S2370 S 0.76137 0.60756 0.80727 0.0
N2371 N 0.77359 0.60656 0.8288 0.0
N2372 N 0.79279 0.63634 0.79646 0.0
C2373 C 0.81524 0.64638 0.81034 0.0
C2374 C 0.80466 0.63045 0.82803 0.0
C2375 C 0.33785 0.16244 0.83829 0.0
C2376 C 0.36546 0.19188 0.8412 0.0
C2377 C 0.32171 0.1548 0.82099 0.0
C2378 C 0.33279 0.17619 0.80592 0.0
H2379 H 0.32814 0.14551 0.84963 0.0
H2380 H 0.3003 0.132 0.81942 0.0
S2381 S 0.40488 0.25586 0.80611 0.0
N2382 N 0.404 0.24202 0.82736 0.0
N2383 N 0.37343 0.22788 0.79498 0.0
C2384 C 0.36081 0.20544 0.80853 0.0
C2385 C 0.37716 0.21323 0.82614 0.0
C2386 C 0.83574 0.16242 0.84196 0.0
C2387 C 0.83551 0.19057 0.84492 0.0
C2388 C 0.84498 0.15586 0.82461 0.0
C2389 C 0.85407 0.17704 0.80946 0.0
H2390 H 0.82985 0.14582 0.85335 0.0
H2391 H 0.84545 0.13419 0.82312 0.0
S2392 S 0.85544 0.25312 0.80955 0.0
N2393 N 0.84334 0.23897 0.83089 0.0
N2394 N 0.86111 0.22686 0.79841 0.0
C2395 C 0.85283 0.20477 0.81203 0.0
C2396 C 0.84353 0.2115 0.82971 0.0
C2397 C 0.35293 0.17544 0.52249 0.0
C2398 C 0.32486 0.14649 0.5193 0.0
C2399 C 0.36881 0.18216 0.53984 0.0
C2400 C 0.35696 0.16029 0.55464 0.0
H2401 H 0.36322 0.19264 0.51132 0.0
H2402 H 0.3906 0.20459 0.54166 0.0
S2403 S 0.28341 0.08165 0.55363 0.0
N2404 N 0.28508 0.09632 0.53253 0.0
N2405 N 0.3151 0.10875 0.56506 0.0
C2406 C 0.32846 0.13155 0.55175 0.0
C2407 C 0.31239 0.12469 0.53409 0.0
C2408 C 0.84438 0.12836 0.53612 0.0
C2409 C 0.85281 0.14904 0.52075 0.0
C2410 C 0.83515 0.13514 0.55339 0.0
C2411 C 0.83375 0.16278 0.55596 0.0
H2412 H 0.8444 0.10645 0.5347 0.0
H2413 H 0.82798 0.11807 0.56462 0.0
S2414 S 0.85531 0.22562 0.52057 0.0
N2415 N 0.86034 0.19891 0.50949 0.0
N2416 N 0.84353 0.2119 0.54202 0.0
C2417 C 0.84317 0.18417 0.54091 0.0
C2418 C 0.85265 0.17729 0.52333 0.0
C2419 C 0.86985 0.70046 0.53319 0.0
C2420 C 0.84606 0.69068 0.51909 0.0
C2421 C 0.86351 0.68451 0.55052 0.0
C2422 C 0.83325 0.6579 0.55436 0.0
H2423 H 0.89344 0.72082 0.5309 0.0
H2424 H 0.88263 0.69275 0.56086 0.0
S2425 S 0.76274 0.62265 0.5222 0.0
N2426 N 0.79115 0.65232 0.51019 0.0
N2427 N 0.77908 0.62305 0.54267 0.0
C2428 C 0.80929 0.64802 0.54039 0.0
C2429 C 0.81571 0.66418 0.52283 0.0
loop_
_geom_bond_atom_site_label_1
_geom_bond_atom_site_label_2
_geom_bond_distance
_geom_bond_site_symmetry_2
_ccdc_geom_bond_type
C0 C1 1.391 . S
C0 C4 1.391 . S
C0 H42 0.948 . S
C1 C0 1.391 . S
C1 C2 1.391 . S
C2 C1 1.391 . S
C2 H58 0.947 . S
C2 C59 1.392 . S
C3 C4 1.391 . S
C3 C7 1.397 . S
C3 C59 1.419 . S
C4 C0 1.391 . S
C4 C3 1.391 . S
C4 C5 1.399 . S
C5 C4 1.399 . S
C5 C8 1.396 . S
C5 C17 1.453 . S
C5 C18 1.684 . S
H6 C30 0.948 . S
C7 C3 1.397 . S
C7 C8 1.394 . S
C7 C26 1.723 . S
C8 C5 1.396 . S
C8 C7 1.394 . S
C8 C38 1.723 . S
H9 C32 0.947 . S
H10 C33 0.948 . S
H11 C39 0.982 . S
H12 C40 0.979 . S
H13 C40 0.980 . S
H14 C40 0.983 . S
H15 C39 0.979 . S
H16 C39 0.977 . S
C17 C5 1.453 . S
C17 H46 0.982 . S
C17 H47 0.979 . S
C17 H48 0.977 . S
C18 C5 1.684 . S
C18 H43 0.979 . S
C18 H44 0.980 . S
C18 H45 0.983 . S
C19 C20 1.391 . S
C19 C24 1.391 . S
C19 H49 0.948 . S
C20 C19 1.391 . S
C20 C21 1.391 . S
C21 C20 1.391 . S
C21 C22 1.392 . S
C21 H50 0.947 . S
C22 C21 1.392 . S
C22 C23 1.419 . S
C22 H51 0.948 . S
C23 C22 1.419 . S
C23 C24 1.391 . S
C23 C27 1.397 . S
C24 C19 1.391 . S
C24 C23 1.391 . S
C24 C25 1.399 . S
C25 C24 1.399 . S
C25 C26 1.396 . S
C25 C28 1.453 . S
C25 C29 1.684 . S
C26 C7 1.723 . S
C26 C25 1.396 . S
C26 C27 1.394 . S
C27 C23 1.397 . S
C27 C26 1.394 . S
C27 C37 1.723 . S
C28 C25 1.453 . S
C28 H52 0.982 . S
C28 H53 0.979 . S
C28 H54 0.977 . S
C29 C25 1.684 . S
C29 H55 0.979 . S
C29 H56 0.980 . S
C29 H57 0.983 . S
C30 H6 0.948 . S
C30 C31 1.391 . S
C30 C35 1.391 . S
C31 C30 1.391 . S
C31 C32 1.391 . S
C32 H9 0.947 . S
C32 C31 1.391 . S
C32 C33 1.392 . S
C33 H10 0.948 . S
C33 C32 1.392 . S
C33 C34 1.419 . S
C34 C33 1.419 . S
C34 C35 1.391 . S
C34 C38 1.397 . S
C35 C30 1.391 . S
C35 C34 1.391 . S
C35 C36 1.399 . S
C36 C35 1.399 . S
C36 C37 1.396 . S
C36 C39 1.453 . S
C36 C40 1.684 . S
C37 C27 1.723 . S
C37 C36 1.396 . S
C37 C38 1.394 . S
C38 C8 1.723 . S
C38 C34 1.397 . S
C38 C37 1.394 . S
C39 H11 0.982 . S
C39 H15 0.979 . S
C39 H16 0.977 . S
C39 C36 1.453 . S
C40 H12 0.979 . S
C40 H13 0.980 . S
C40 H14 0.983 . S
C40 C36 1.684 . S
H41 C59 0.948 . S
H42 C0 0.948 . S
H43 C18 0.979 . S
H44 C18 0.980 . S
H45 C18 0.983 . S
H46 C17 0.982 . S
H47 C17 0.979 . S
H48 C17 0.977 . S
H49 C19 0.948 . S
H50 C21 0.947 . S
H51 C22 0.948 . S
H52 C28 0.982 . S
H53 C28 0.979 . S
H54 C28 0.977 . S
H55 C29 0.979 . S
H56 C29 0.980 . S
H57 C29 0.983 . S
H58 C2 0.947 . S
C59 C2 1.392 . S
C59 C3 1.419 . S
C59 H41 0.948 . S
C60 C61 1.391 . S
C60 C64 1.391 . S
C60 H102 0.948 . S
C61 C60 1.391 . S
C61 C62 1.391 . S
C62 C61 1.391 . S
C62 H118 0.947 1_655 S
C62 C119 1.392 . S
C63 C64 1.391 . S
C63 C67 1.397 . S
C63 C119 1.419 . S
C64 C60 1.391 . S
C64 C63 1.391 . S
C64 C65 1.399 . S
C65 C64 1.399 . S
C65 C68 1.396 . S
C65 C77 1.453 . S
C65 C78 1.684 . S
H66 C90 0.948 . S
C67 C63 1.397 . S
C67 C68 1.394 . S
C67 C86 1.723 . S
C68 C65 1.396 . S
C68 C67 1.394 . S
C68 C98 1.723 . S
H69 C92 0.947 . S
H70 C93 0.948 . S
H71 C99 0.982 . S
H72 C100 0.979 . S
H73 C100 0.980 . S
H74 C100 0.983 . S
H75 C99 0.979 . S
H76 C99 0.977 . S
C77 C65 1.453 . S
C77 H106 0.982 . S
C77 H107 0.979 . S
C77 H108 0.977 . S
C78 C65 1.684 . S
C78 H103 0.979 . S
C78 H104 0.980 . S
C78 H105 0.983 . S
C79 C80 1.391 . S
C79 C84 1.391 . S
C79 H109 0.948 . S
C80 C79 1.391 . S
C80 C81 1.391 . S
C81 C80 1.391 . S
C81 C82 1.392 . S
C81 H110 0.947 . S
C82 C81 1.392 . S
C82 C83 1.419 . S
C82 H111 0.948 . S
C83 C82 1.419 . S
C83 C84 1.391 . S
C83 C87 1.397 . S
C84 C79 1.391 . S
C84 C83 1.391 . S
C84 C85 1.399 . S
C85 C84 1.399 . S
C85 C86 1.396 . S
C85 C88 1.453 . S
C85 C89 1.684 . S
C86 C67 1.723 . S
C86 C85 1.396 . S
C86 C87 1.394 . S
C87 C83 1.397 . S
C87 C86 1.394 . S
C87 C97 1.723 . S
C88 C85 1.453 . S
C88 H112 0.982 . S
C88 H113 0.979 . S
C88 H114 0.977 . S
C89 C85 1.684 . S
C89 H115 0.979 . S
C89 H116 0.980 . S
C89 H117 0.983 . S
C90 H66 0.948 . S
C90 C91 1.391 . S
C90 C95 1.391 . S
C91 C90 1.391 . S
C91 C92 1.391 . S
C92 H69 0.947 . S
C92 C91 1.391 . S
C92 C93 1.392 . S
C93 H70 0.948 . S
C93 C92 1.392 . S
C93 C94 1.419 . S
C94 C93 1.419 . S
C94 C95 1.391 . S
C94 C98 1.397 . S
C95 C90 1.391 . S
C95 C94 1.391 . S
C95 C96 1.399 . S
C96 C95 1.399 . S
C96 C97 1.396 . S
C96 C99 1.453 . S
C96 C100 1.684 . S
C97 C87 1.723 . S
C97 C96 1.396 . S
C97 C98 1.394 . S
C98 C68 1.723 . S
C98 C94 1.397 . S
C98 C97 1.394 . S
C99 H71 0.982 . S
C99 H75 0.979 . S
C99 H76 0.977 . S
C99 C96 1.453 . S
C100 H72 0.979 . S
C100 H73 0.980 . S
C100 H74 0.983 . S
C100 C96 1.684 . S
H101 C119 0.948 . S
H102 C60 0.948 . S
H103 C78 0.979 . S
H104 C78 0.980 . S
H105 C78 0.983 . S
H106 C77 0.982 . S
H107 C77 0.979 . S
H108 C77 0.977 . S
H109 C79 0.948 . S
H110 C81 0.947 . S
H111 C82 0.948 . S
H112 C88 0.982 . S
H113 C88 0.979 . S
H114 C88 0.977 . S
H115 C89 0.979 . S
H116 C89 0.980 . S
H117 C89 0.983 . S
H118 C62 0.947 1_455 S
C119 C62 1.392 . S
C119 C63 1.419 . S
C119 H101 0.948 . S
C120 C121 1.391 . S
C120 C124 1.391 . S
C120 H162 0.948 . S
C121 C120 1.391 . S
C121 C122 1.391 . S
C122 C121 1.391 . S
C122 H178 0.947 1_655 S
C122 C179 1.392 . S
C123 C124 1.391 . S
C123 C127 1.397 . S
C123 C179 1.419 . S
C124 C120 1.391 . S
C124 C123 1.391 . S
C124 C125 1.399 . S
C125 C124 1.399 . S
C125 C128 1.396 . S
C125 C137 1.453 . S
C125 C138 1.684 . S
H126 C150 0.948 . S
C127 C123 1.397 . S
C127 C128 1.394 . S
C127 C146 1.723 . S
C128 C125 1.396 . S
C128 C127 1.394 . S
C128 C158 1.723 . S
H129 C152 0.947 . S
H130 C153 0.948 . S
H131 C159 0.982 . S
H132 C160 0.979 . S
H133 C160 0.980 . S
H134 C160 0.983 . S
H135 C159 0.979 . S
H136 C159 0.977 . S
C137 C125 1.453 . S
C137 H166 0.982 . S
C137 H167 0.979 . S
C137 H168 0.977 . S
C138 C125 1.684 . S
C138 H163 0.979 . S
C138 H164 0.980 . S
C138 H165 0.983 . S
C139 C140 1.391 . S
C139 C144 1.391 . S
C139 H169 0.948 . S
C140 C139 1.391 . S
C140 C141 1.391 . S
C141 C140 1.391 . S
C141 C142 1.392 . S
C141 H170 0.947 . S
C142 C141 1.392 . S
C142 C143 1.419 . S
C142 H171 0.948 . S
C143 C142 1.419 . S
C143 C144 1.391 . S
C143 C147 1.397 . S
C144 C139 1.391 . S
C144 C143 1.391 . S
C144 C145 1.399 . S
C145 C144 1.399 . S
C145 C146 1.396 . S
C145 C148 1.453 . S
C145 C149 1.684 . S
C146 C127 1.723 . S
C146 C145 1.396 . S
C146 C147 1.394 . S
C147 C143 1.397 . S
C147 C146 1.394 . S
C147 C157 1.723 . S
C148 C145 1.453 . S
C148 H172 0.982 . S
C148 H173 0.979 . S
C148 H174 0.977 . S
C149 C145 1.684 . S
C149 H175 0.979 . S
C149 H176 0.980 . S
C149 H177 0.983 . S
C150 H126 0.948 . S
C150 C151 1.391 . S
C150 C155 1.391 . S
C151 C150 1.391 . S
C151 C152 1.391 . S
C152 H129 0.947 . S
C152 C151 1.391 . S
C152 C153 1.392 . S
C153 H130 0.948 . S
C153 C152 1.392 . S
C153 C154 1.419 . S
C154 C153 1.419 . S
C154 C155 1.391 . S
C154 C158 1.397 . S
C155 C150 1.391 . S
C155 C154 1.391 . S
C155 C156 1.399 . S
C156 C155 1.399 . S
C156 C157 1.396 . S
C156 C159 1.453 . S
C156 C160 1.684 . S
C157 C147 1.723 . S
C157 C156 1.396 . S
C157 C158 1.394 . S
C158 C128 1.723 . S
C158 C154 1.397 . S
C158 C157 1.394 . S
C159 H131 0.982 . S
C159 H135 0.979 . S
C159 H136 0.977 . S
C159 C156 1.453 . S
C160 H132 0.979 . S
C160 H133 0.980 . S
C160 H134 0.983 . S
C160 C156 1.684 . S
H161 C179 0.948 . S
H162 C120 0.948 . S
H163 C138 0.979 . S
H164 C138 0.980 . S
H165 C138 0.983 . S
H166 C137 0.982 . S
H167 C137 0.979 . S
H168 C137 0.977 . S
H169 C139 0.948 . S
H170 C141 0.947 . S
H171 C142 0.948 . S
H172 C148 0.982 . S
H173 C148 0.979 . S
H174 C148 0.977 . S
H175 C149 0.979 . S
H176 C149 0.980 . S
H177 C149 0.983 . S
H178 C122 0.947 1_455 S
C179 C122 1.392 . S
C179 C123 1.419 . S
C179 H161 0.948 . S
C180 C181 1.391 . S
C180 C184 1.391 . S
C180 H222 0.948 . S
C181 C180 1.391 . S
C181 C182 1.391 . S
C182 C181 1.391 . S
C182 H238 0.947 . S
C182 C239 1.392 . S
C183 C184 1.391 . S
C183 C187 1.397 . S
C183 C239 1.419 . S
C184 C180 1.391 . S
C184 C183 1.391 . S
C184 C185 1.399 . S
C185 C184 1.399 . S
C185 C188 1.396 . S
C185 C197 1.453 . S
C185 C198 1.684 . S
H186 C210 0.948 1_655 S
C187 C183 1.397 . S
C187 C188 1.394 . S
C187 C206 1.723 . S
C188 C185 1.396 . S
C188 C187 1.394 . S
C188 C218 1.723 . S
H189 C212 0.947 . S
H190 C213 0.948 . S
H191 C219 0.982 . S
H192 C220 0.979 . S
H193 C220 0.980 . S
H194 C220 0.983 . S
H195 C219 0.979 . S
H196 C219 0.977 . S
C197 C185 1.453 . S
C197 H226 0.982 . S
C197 H227 0.979 . S
C197 H228 0.977 . S
C198 C185 1.684 . S
C198 H223 0.979 . S
C198 H224 0.980 . S
C198 H225 0.983 . S
C199 C200 1.391 . S
C199 C204 1.391 . S
C199 H229 0.948 . S
C200 C199 1.391 . S
C200 C201 1.391 . S
C201 C200 1.391 . S
C201 C202 1.392 . S
C201 H230 0.947 . S
C202 C201 1.392 . S
C202 C203 1.419 . S
C202 H231 0.948 . S
C203 C202 1.419 . S
C203 C204 1.391 . S
C203 C207 1.397 . S
C204 C199 1.391 . S
C204 C203 1.391 . S
C204 C205 1.399 . S
C205 C204 1.399 . S
C205 C206 1.396 . S
C205 C208 1.453 . S
C205 C209 1.684 . S
C206 C187 1.723 . S
C206 C205 1.396 . S
C206 C207 1.394 . S
C207 C203 1.397 . S
C207 C206 1.394 . S
C207 C217 1.723 . S
C208 C205 1.453 . S
C208 H232 0.982 . S
C208 H233 0.979 . S
C208 H234 0.977 . S
C209 C205 1.684 . S
C209 H235 0.979 . S
C209 H236 0.980 . S
C209 H237 0.983 . S
C210 H186 0.948 1_455 S
C210 C211 1.391 . S
C210 C215 1.391 . S
C211 C210 1.391 . S
C211 C212 1.391 . S
C212 H189 0.947 . S
C212 C211 1.391 . S
C212 C213 1.392 . S
C213 H190 0.948 . S
C213 C212 1.392 . S
C213 C214 1.419 . S
C214 C213 1.419 . S
C214 C215 1.391 . S
C214 C218 1.397 . S
C215 C210 1.391 . S
C215 C214 1.391 . S
C215 C216 1.399 . S
C216 C215 1.399 . S
C216 C217 1.396 . S
C216 C219 1.453 . S
C216 C220 1.684 . S
C217 C207 1.723 . S
C217 C216 1.396 . S
C217 C218 1.394 . S
C218 C188 1.723 . S
C218 C214 1.397 . S
C218 C217 1.394 . S
C219 H191 0.982 . S
C219 H195 0.979 . S
C219 H196 0.977 . S
C219 C216 1.453 . S
C220 H192 0.979 . S
C220 H193 0.980 . S
C220 H194 0.983 . S
C220 C216 1.684 . S
H221 C239 0.948 . S
H222 C180 0.948 . S
H223 C198 0.979 . S
H224 C198 0.980 . S
H225 C198 0.983 . S
H226 C197 0.982 . S
H227 C197 0.979 . S
H228 C197 0.977 . S
H229 C199 0.948 . S
H230 C201 0.947 . S
H231 C202 0.948 . S
H232 C208 0.982 . S
H233 C208 0.979 . S
H234 C208 0.977 . S
H235 C209 0.979 . S
H236 C209 0.980 . S
H237 C209 0.983 . S
H238 C182 0.947 . S
C239 C182 1.392 . S
C239 C183 1.419 . S
C239 H221 0.948 . S
C240 C241 1.391 . S
C240 C244 1.391 . S
C240 H282 0.948 . S
C241 C240 1.391 . S
C241 C242 1.391 . S
C242 C241 1.391 . S
C242 H298 0.947 . S
C242 C299 1.392 . S
C243 C244 1.391 . S
C243 C247 1.397 . S
C243 C299 1.419 . S
C244 C240 1.391 . S
C244 C243 1.391 . S
C244 C245 1.399 . S
C245 C244 1.399 . S
C245 C248 1.396 . S
C245 C257 1.453 . S
C245 C258 1.684 . S
H246 C270 0.948 . S
C247 C243 1.397 . S
C247 C248 1.394 . S
C247 C266 1.723 . S
C248 C245 1.396 . S
C248 C247 1.394 . S
C248 C278 1.723 . S
H249 C272 0.947 . S
H250 C273 0.948 . S
H251 C279 0.982 . S
H252 C280 0.979 . S
H253 C280 0.980 . S
H254 C280 0.983 . S
H255 C279 0.979 . S
H256 C279 0.977 . S
C257 C245 1.453 . S
C257 H286 0.982 . S
C257 H287 0.979 . S
C257 H288 0.977 . S
C258 C245 1.684 . S
C258 H283 0.979 . S
C258 H284 0.980 . S
C258 H285 0.983 . S
C259 C260 1.391 . S
C259 C264 1.391 . S
C259 H289 0.948 . S
C260 C259 1.391 . S
C260 C261 1.391 . S
C261 C260 1.391 . S
C261 C262 1.392 . S
C261 H290 0.947 . S
C262 C261 1.392 . S
C262 C263 1.419 . S
C262 H291 0.948 . S
C263 C262 1.419 . S
C263 C264 1.391 . S
C263 C267 1.397 . S
C264 C259 1.391 . S
C264 C263 1.391 . S
C264 C265 1.399 . S
C265 C264 1.399 . S
C265 C266 1.396 . S
C265 C268 1.453 . S
C265 C269 1.684 . S
C266 C247 1.723 . S
C266 C265 1.396 . S
C266 C267 1.394 . S
C267 C263 1.397 . S
C267 C266 1.394 . S
C267 C277 1.723 . S
C268 C265 1.453 . S
C268 H292 0.982 . S
C268 H293 0.979 . S
C268 H294 0.977 . S
C269 C265 1.684 . S
C269 H295 0.979 . S
C269 H296 0.980 . S
C269 H297 0.983 . S
C270 H246 0.948 . S
C270 C271 1.391 . S
C270 C275 1.391 . S
C271 C270 1.391 . S
C271 C272 1.391 . S
C272 H249 0.947 . S
C272 C271 1.391 . S
C272 C273 1.392 . S
C273 H250 0.948 . S
C273 C272 1.392 . S
C273 C274 1.419 . S
C274 C273 1.419 . S
C274 C275 1.391 . S
C274 C278 1.397 . S
C275 C270 1.391 . S
C275 C274 1.391 . S
C275 C276 1.399 . S
C276 C275 1.399 . S
C276 C277 1.396 . S
C276 C279 1.453 . S
C276 C280 1.684 . S
C277 C267 1.723 . S
C277 C276 1.396 . S
C277 C278 1.394 . S
C278 C248 1.723 . S
C278 C274 1.397 . S
C278 C277 1.394 . S
C279 H251 0.982 . S
C279 H255 0.979 . S
C279 H256 0.977 . S
C279 C276 1.453 . S
C280 H252 0.979 . S
C280 H253 0.980 . S
C280 H254 0.983 . S
C280 C276 1.684 . S
H281 C299 0.948 . S
H282 C240 0.948 . S
H283 C258 0.979 . S
H284 C258 0.980 . S
H285 C258 0.983 . S
H286 C257 0.982 . S
H287 C257 0.979 . S
H288 C257 0.977 . S
H289 C259 0.948 . S
H290 C261 0.947 . S
H291 C262 0.948 . S
H292 C268 0.982 . S
H293 C268 0.979 . S
H294 C268 0.977 . S
H295 C269 0.979 . S
H296 C269 0.980 . S
H297 C269 0.983 . S
H298 C242 0.947 . S
C299 C242 1.392 . S
C299 C243 1.419 . S
C299 H281 0.948 . S
C300 C301 1.391 . S
C300 C304 1.391 . S
C300 H342 0.948 . S
C301 C300 1.391 . S
C301 C302 1.391 . S
C302 C301 1.391 . S
C302 H358 0.947 1_455 S
C302 C359 1.392 . S
C303 C304 1.391 . S
C303 C307 1.397 . S
C303 C359 1.419 . S
C304 C300 1.391 . S
C304 C303 1.391 . S
C304 C305 1.399 . S
C305 C304 1.399 . S
C305 C308 1.396 . S
C305 C317 1.453 . S
C305 C318 1.684 . S
H306 C330 0.948 . S
C307 C303 1.397 . S
C307 C308 1.394 . S
C307 C326 1.723 . S
C308 C305 1.396 . S
C308 C307 1.394 . S
C308 C338 1.723 . S
H309 C332 0.947 . S
H310 C333 0.948 . S
H311 C339 0.982 . S
H312 C340 0.979 . S
H313 C340 0.980 . S
H314 C340 0.983 . S
H315 C339 0.979 . S
H316 C339 0.977 . S
C317 C305 1.453 . S
C317 H346 0.982 . S
C317 H347 0.979 . S
C317 H348 0.977 . S
C318 C305 1.684 . S
C318 H343 0.979 . S
C318 H344 0.980 . S
C318 H345 0.983 . S
C319 C320 1.391 . S
C319 C324 1.391 . S
C319 H349 0.948 . S
C320 C319 1.391 . S
C320 C321 1.391 . S
C321 C320 1.391 . S
C321 C322 1.392 . S
C321 H350 0.947 . S
C322 C321 1.392 . S
C322 C323 1.419 . S
C322 H351 0.948 . S
C323 C322 1.419 . S
C323 C324 1.391 . S
C323 C327 1.397 . S
C324 C319 1.391 . S
C324 C323 1.391 . S
C324 C325 1.399 . S
C325 C324 1.399 . S
C325 C326 1.396 . S
C325 C328 1.453 . S
C325 C329 1.684 . S
C326 C307 1.723 . S
C326 C325 1.396 . S
C326 C327 1.394 . S
C327 C323 1.397 . S
C327 C326 1.394 . S
C327 C337 1.723 . S
C328 C325 1.453 . S
C328 H352 0.982 . S
C328 H353 0.979 . S
C328 H354 0.977 . S
C329 C325 1.684 . S
C329 H355 0.979 . S
C329 H356 0.980 . S
C329 H357 0.983 . S
C330 H306 0.948 . S
C330 C331 1.391 . S
C330 C335 1.391 . S
C331 C330 1.391 . S
C331 C332 1.391 . S
C332 H309 0.947 . S
C332 C331 1.391 . S
C332 C333 1.392 . S
C333 H310 0.948 . S
C333 C332 1.392 . S
C333 C334 1.419 . S
C334 C333 1.419 . S
C334 C335 1.391 . S
C334 C338 1.397 . S
C335 C330 1.391 . S
C335 C334 1.391 . S
C335 C336 1.399 . S
C336 C335 1.399 . S
C336 C337 1.396 . S
C336 C339 1.453 . S
C336 C340 1.684 . S
C337 C327 1.723 . S
C337 C336 1.396 . S
C337 C338 1.394 . S
C338 C308 1.723 . S
C338 C334 1.397 . S
C338 C337 1.394 . S
C339 H311 0.982 . S
C339 H315 0.979 . S
C339 H316 0.977 . S
C339 C336 1.453 . S
C340 H312 0.979 . S
C340 H313 0.980 . S
C340 H314 0.983 . S
C340 C336 1.684 . S
H341 C359 0.948 . S
H342 C300 0.948 . S
H343 C318 0.979 . S
H344 C318 0.980 . S
H345 C318 0.983 . S
H346 C317 0.982 . S
H347 C317 0.979 . S
H348 C317 0.977 . S
H349 C319 0.948 . S
H350 C321 0.947 . S
H351 C322 0.948 . S
H352 C328 0.982 . S
H353 C328 0.979 . S
H354 C328 0.977 . S
H355 C329 0.979 . S
H356 C329 0.980 . S
H357 C329 0.983 . S
H358 C302 0.947 1_655 S
C359 C302 1.392 . S
C359 C303 1.419 . S
C359 H341 0.948 . S
C360 C361 1.391 . S
C360 C364 1.391 . S
C360 H402 0.948 . S
C361 C360 1.391 . S
C361 C362 1.391 . S
C362 C361 1.391 . S
C362 H418 0.947 . S
C362 C419 1.392 . S
C363 C364 1.391 . S
C363 C367 1.397 . S
C363 C419 1.419 . S
C364 C360 1.391 . S
C364 C363 1.391 . S
C364 C365 1.399 . S
C365 C364 1.399 . S
C365 C368 1.396 . S
C365 C377 1.453 . S
C365 C378 1.684 . S
H366 C390 0.948 . S
C367 C363 1.397 . S
C367 C368 1.394 . S
C367 C386 1.723 . S
C368 C365 1.396 . S
C368 C367 1.394 . S
C368 C398 1.723 . S
H369 C392 0.947 . S
H370 C393 0.948 . S
H371 C399 0.982 . S
H372 C400 0.979 . S
H373 C400 0.980 . S
H374 C400 0.983 . S
H375 C399 0.979 . S
H376 C399 0.977 . S
C377 C365 1.453 . S
C377 H406 0.982 . S
C377 H407 0.979 . S
C377 H408 0.977 . S
C378 C365 1.684 . S
C378 H403 0.979 . S
C378 H404 0.980 . S
C378 H405 0.983 . S
C379 C380 1.391 . S
C379 C384 1.391 . S
C379 H409 0.948 . S
C380 C379 1.391 . S
C380 C381 1.391 . S
C381 C380 1.391 . S
C381 C382 1.392 . S
C381 H410 0.947 . S
C382 C381 1.392 . S
C382 C383 1.419 . S
C382 H411 0.948 . S
C383 C382 1.419 . S
C383 C384 1.391 . S
C383 C387 1.397 . S
C384 C379 1.391 . S
C384 C383 1.391 . S
C384 C385 1.399 . S
C385 C384 1.399 . S
C385 C386 1.396 . S
C385 C388 1.453 . S
C385 C389 1.684 . S
C386 C367 1.723 . S
C386 C385 1.396 . S
C386 C387 1.394 . S
C387 C383 1.397 . S
C387 C386 1.394 . S
C387 C397 1.723 . S
C388 C385 1.453 . S
C388 H412 0.982 . S
C388 H413 0.979 . S
C388 H414 0.977 . S
C389 C385 1.684 . S
C389 H415 0.979 . S
C389 H416 0.980 . S
C389 H417 0.983 . S
C390 H366 0.948 . S
C390 C391 1.391 . S
C390 C395 1.391 . S
C391 C390 1.391 . S
C391 C392 1.391 . S
C392 H369 0.947 . S
C392 C391 1.391 . S
C392 C393 1.392 . S
C393 H370 0.948 . S
C393 C392 1.392 . S
C393 C394 1.419 . S
C394 C393 1.419 . S
C394 C395 1.391 . S
C394 C398 1.397 . S
C395 C390 1.391 . S
C395 C394 1.391 . S
C395 C396 1.399 . S
C396 C395 1.399 . S
C396 C397 1.396 . S
C396 C399 1.453 . S
C396 C400 1.684 . S
C397 C387 1.723 . S
C397 C396 1.396 . S
C397 C398 1.394 . S
C398 C368 1.723 . S
C398 C394 1.397 . S
C398 C397 1.394 . S
C399 H371 0.982 . S
C399 H375 0.979 . S
C399 H376 0.977 . S
C399 C396 1.453 . S
C400 H372 0.979 . S
C400 H373 0.980 . S
C400 H374 0.983 . S
C400 C396 1.684 . S
H401 C419 0.948 . S
H402 C360 0.948 . S
H403 C378 0.979 . S
H404 C378 0.980 . S
H405 C378 0.983 . S
H406 C377 0.982 . S
H407 C377 0.979 . S
H408 C377 0.977 . S
H409 C379 0.948 . S
H410 C381 0.947 . S
H411 C382 0.948 . S
H412 C388 0.982 . S
H413 C388 0.979 . S
H414 C388 0.977 . S
H415 C389 0.979 . S
H416 C389 0.980 . S
H417 C389 0.983 . S
H418 C362 0.947 . S
C419 C362 1.392 . S
C419 C363 1.419 . S
C419 H401 0.948 . S
C420 C421 1.391 . S
C420 C424 1.391 . S
C420 H462 0.948 . S
C421 C420 1.391 . S
C421 C422 1.391 . S
C422 C421 1.391 . S
C422 H478 0.947 . S
C422 C479 1.392 . S
C423 C424 1.391 . S
C423 C427 1.397 . S
C423 C479 1.419 . S
C424 C420 1.391 . S
C424 C423 1.391 . S
C424 C425 1.399 . S
C425 C424 1.399 . S
C425 C428 1.396 . S
C425 C437 1.453 . S
C425 C438 1.684 . S
H426 C450 0.948 . S
C427 C423 1.397 . S
C427 C428 1.394 . S
C427 C446 1.723 . S
C428 C425 1.396 . S
C428 C427 1.394 . S
C428 C458 1.723 . S
H429 C452 0.947 . S
H430 C453 0.948 . S
H431 C459 0.982 . S
H432 C460 0.979 . S
H433 C460 0.980 . S
H434 C460 0.983 . S
H435 C459 0.979 . S
H436 C459 0.977 . S
C437 C425 1.453 . S
C437 H466 0.982 . S
C437 H467 0.979 . S
C437 H468 0.977 . S
C438 C425 1.684 . S
C438 H463 0.979 . S
C438 H464 0.980 . S
C438 H465 0.983 . S
C439 C440 1.391 . S
C439 C444 1.391 . S
C439 H469 0.948 . S
C440 C439 1.391 . S
C440 C441 1.391 . S
C441 C440 1.391 . S
C441 C442 1.392 . S
C441 H470 0.947 . S
C442 C441 1.392 . S
C442 C443 1.419 . S
C442 H471 0.948 . S
C443 C442 1.419 . S
C443 C444 1.391 . S
C443 C447 1.397 . S
C444 C439 1.391 . S
C444 C443 1.391 . S
C444 C445 1.399 . S
C445 C444 1.399 . S
C445 C446 1.396 . S
C445 C448 1.453 . S
C445 C449 1.684 . S
C446 C427 1.723 . S
C446 C445 1.396 . S
C446 C447 1.394 . S
C447 C443 1.397 . S
C447 C446 1.394 . S
C447 C457 1.723 . S
C448 C445 1.453 . S
C448 H472 0.982 . S
C448 H473 0.979 . S
C448 H474 0.977 . S
C449 C445 1.684 . S
C449 H475 0.979 . S
C449 H476 0.980 . S
C449 H477 0.983 . S
C450 H426 0.948 . S
C450 C451 1.391 . S
C450 C455 1.391 . S
C451 C450 1.391 . S
C451 C452 1.391 . S
C452 H429 0.947 . S
C452 C451 1.391 . S
C452 C453 1.392 . S
C453 H430 0.948 . S
C453 C452 1.392 . S
C453 C454 1.419 . S
C454 C453 1.419 . S
C454 C455 1.391 . S
C454 C458 1.397 . S
C455 C450 1.391 . S
C455 C454 1.391 . S
C455 C456 1.399 . S
C456 C455 1.399 . S
C456 C457 1.396 . S
C456 C459 1.453 . S
C456 C460 1.684 . S
C457 C447 1.723 . S
C457 C456 1.396 . S
C457 C458 1.394 . S
C458 C428 1.723 . S
C458 C454 1.397 . S
C458 C457 1.394 . S
C459 H431 0.982 . S
C459 H435 0.979 . S
C459 H436 0.977 . S
C459 C456 1.453 . S
C460 H432 0.979 . S
C460 H433 0.980 . S
C460 H434 0.983 . S
C460 C456 1.684 . S
H461 C479 0.948 . S
H462 C420 0.948 . S
H463 C438 0.979 . S
H464 C438 0.980 . S
H465 C438 0.983 . S
H466 C437 0.982 . S
H467 C437 0.979 . S
H468 C437 0.977 . S
H469 C439 0.948 . S
H470 C441 0.947 . S
H471 C442 0.948 . S
H472 C448 0.982 . S
H473 C448 0.979 . S
H474 C448 0.977 . S
H475 C449 0.979 . S
H476 C449 0.980 . S
H477 C449 0.983 . S
H478 C422 0.947 . S
C479 C422 1.392 . S
C479 C423 1.419 . S
C479 H461 0.948 . S
C480 C481 1.391 . S
C480 C484 1.391 . S
C480 H522 0.948 . S
C481 C480 1.391 . S
C481 C482 1.391 . S
C482 C481 1.391 . S
C482 H538 0.947 . S
C482 C539 1.392 . S
C483 C484 1.391 . S
C483 C487 1.397 . S
C483 C539 1.419 . S
C484 C480 1.391 . S
C484 C483 1.391 . S
C484 C485 1.399 . S
C485 C484 1.399 . S
C485 C488 1.396 . S
C485 C497 1.453 . S
C485 C498 1.684 . S
H486 C510 0.948 . S
C487 C483 1.397 . S
C487 C488 1.394 . S
C487 C506 1.723 . S
C488 C485 1.396 . S
C488 C487 1.394 . S
C488 C518 1.723 . S
H489 C512 0.947 . S
H490 C513 0.948 . S
H491 C519 0.982 . S
H492 C520 0.979 . S
H493 C520 0.980 . S
H494 C520 0.983 . S
H495 C519 0.979 . S
H496 C519 0.977 . S
C497 C485 1.453 . S
C497 H526 0.982 . S
C497 H527 0.979 . S
C497 H528 0.977 . S
C498 C485 1.684 . S
C498 H523 0.979 . S
C498 H524 0.980 . S
C498 H525 0.983 . S
C499 C500 1.391 . S
C499 C504 1.391 . S
C499 H529 0.948 . S
C500 C499 1.391 . S
C500 C501 1.391 . S
C501 C500 1.391 . S
C501 C502 1.392 . S
C501 H530 0.947 . S
C502 C501 1.392 . S
C502 C503 1.419 . S
C502 H531 0.948 . S
C503 C502 1.419 . S
C503 C504 1.391 . S
C503 C507 1.397 . S
C504 C499 1.391 . S
C504 C503 1.391 . S
C504 C505 1.399 . S
C505 C504 1.399 . S
C505 C506 1.396 . S
C505 C508 1.453 . S
C505 C509 1.684 . S
C506 C487 1.723 . S
C506 C505 1.396 . S
C506 C507 1.394 . S
C507 C503 1.397 . S
C507 C506 1.394 . S
C507 C517 1.723 . S
C508 C505 1.453 . S
C508 H532 0.982 . S
C508 H533 0.979 . S
C508 H534 0.977 . S
C509 C505 1.684 . S
C509 H535 0.979 . S
C509 H536 0.980 . S
C509 H537 0.983 . S
C510 H486 0.948 . S
C510 C511 1.391 . S
C510 C515 1.391 . S
C511 C510 1.391 . S
C511 C512 1.391 . S
C512 H489 0.947 . S
C512 C511 1.391 . S
C512 C513 1.392 . S
C513 H490 0.948 . S
C513 C512 1.392 . S
C513 C514 1.419 . S
C514 C513 1.419 . S
C514 C515 1.391 . S
C514 C518 1.397 . S
C515 C510 1.391 . S
C515 C514 1.391 . S
C515 C516 1.399 . S
C516 C515 1.399 . S
C516 C517 1.396 . S
C516 C519 1.453 . S
C516 C520 1.684 . S
C517 C507 1.723 . S
C517 C516 1.396 . S
C517 C518 1.394 . S
C518 C488 1.723 . S
C518 C514 1.397 . S
C518 C517 1.394 . S
C519 H491 0.982 . S
C519 H495 0.979 . S
C519 H496 0.977 . S
C519 C516 1.453 . S
C520 H492 0.979 . S
C520 H493 0.980 . S
C520 H494 0.983 . S
C520 C516 1.684 . S
H521 C539 0.948 . S
H522 C480 0.948 . S
H523 C498 0.979 . S
H524 C498 0.980 . S
H525 C498 0.983 . S
H526 C497 0.982 . S
H527 C497 0.979 . S
H528 C497 0.977 . S
H529 C499 0.948 . S
H530 C501 0.947 . S
H531 C502 0.948 . S
H532 C508 0.982 . S
H533 C508 0.979 . S
H534 C508 0.977 . S
H535 C509 0.979 . S
H536 C509 0.980 . S
H537 C509 0.983 . S
H538 C482 0.947 . S
C539 C482 1.392 . S
C539 C483 1.419 . S
C539 H521 0.948 . S
C540 C541 1.391 . S
C540 C544 1.391 . S
C540 H582 0.948 . S
C541 C540 1.391 . S
C541 C542 1.391 . S
C542 C541 1.391 . S
C542 H598 0.947 . S
C542 C599 1.392 . S
C543 C544 1.391 . S
C543 C547 1.397 . S
C543 C599 1.419 . S
C544 C540 1.391 . S
C544 C543 1.391 . S
C544 C545 1.399 . S
C545 C544 1.399 . S
C545 C548 1.396 . S
C545 C557 1.453 . S
C545 C558 1.684 . S
H546 C570 0.948 . S
C547 C543 1.397 . S
C547 C548 1.394 . S
C547 C566 1.723 . S
C548 C545 1.396 . S
C548 C547 1.394 . S
C548 C578 1.723 . S
H549 C572 0.947 . S
H550 C573 0.948 . S
H551 C579 0.982 . S
H552 C580 0.979 . S
H553 C580 0.980 . S
H554 C580 0.983 . S
H555 C579 0.979 . S
H556 C579 0.977 . S
C557 C545 1.453 . S
C557 H586 0.982 . S
C557 H587 0.979 . S
C557 H588 0.977 . S
C558 C545 1.684 . S
C558 H583 0.979 . S
C558 H584 0.980 . S
C558 H585 0.983 . S
C559 C560 1.391 . S
C559 C564 1.391 . S
C559 H589 0.948 . S
C560 C559 1.391 . S
C560 C561 1.391 . S
C561 C560 1.391 . S
C561 C562 1.392 . S
C561 H590 0.947 . S
C562 C561 1.392 . S
C562 C563 1.419 . S
C562 H591 0.948 . S
C563 C562 1.419 . S
C563 C564 1.391 . S
C563 C567 1.397 . S
C564 C559 1.391 . S
C564 C563 1.391 . S
C564 C565 1.399 . S
C565 C564 1.399 . S
C565 C566 1.396 . S
C565 C568 1.453 . S
C565 C569 1.684 . S
C566 C547 1.723 . S
C566 C565 1.396 . S
C566 C567 1.394 . S
C567 C563 1.397 . S
C567 C566 1.394 . S
C567 C577 1.723 . S
C568 C565 1.453 . S
C568 H592 0.982 . S
C568 H593 0.979 . S
C568 H594 0.977 . S
C569 C565 1.684 . S
C569 H595 0.979 . S
C569 H596 0.980 . S
C569 H597 0.983 . S
C570 H546 0.948 . S
C570 C571 1.391 . S
C570 C575 1.391 . S
C571 C570 1.391 . S
C571 C572 1.391 . S
C572 H549 0.947 . S
C572 C571 1.391 . S
C572 C573 1.392 . S
C573 H550 0.948 . S
C573 C572 1.392 . S
C573 C574 1.419 . S
C574 C573 1.419 . S
C574 C575 1.391 . S
C574 C578 1.397 . S
C575 C570 1.391 . S
C575 C574 1.391 . S
C575 C576 1.399 . S
C576 C575 1.399 . S
C576 C577 1.396 . S
C576 C579 1.453 . S
C576 C580 1.684 . S
C577 C567 1.723 . S
C577 C576 1.396 . S
C577 C578 1.394 . S
C578 C548 1.723 . S
C578 C574 1.397 . S
C578 C577 1.394 . S
C579 H551 0.982 . S
C579 H555 0.979 . S
C579 H556 0.977 . S
C579 C576 1.453 . S
C580 H552 0.979 . S
C580 H553 0.980 . S
C580 H554 0.983 . S
C580 C576 1.684 . S
H581 C599 0.948 . S
H582 C540 0.948 . S
H583 C558 0.979 . S
H584 C558 0.980 . S
H585 C558 0.983 . S
H586 C557 0.982 . S
H587 C557 0.979 . S
H588 C557 0.977 . S
H589 C559 0.948 . S
H590 C561 0.947 . S
H591 C562 0.948 . S
H592 C568 0.982 . S
H593 C568 0.979 . S
H594 C568 0.977 . S
H595 C569 0.979 . S
H596 C569 0.980 . S
H597 C569 0.983 . S
H598 C542 0.947 . S
C599 C542 1.392 . S
C599 C543 1.419 . S
C599 H581 0.948 . S
C600 C601 1.391 . S
C600 C604 1.391 . S
C600 H642 0.948 . S
C601 C600 1.391 . S
C601 C602 1.391 . S
C602 C601 1.391 . S
C602 H658 0.947 . S
C602 C659 1.392 . S
C603 C604 1.391 . S
C603 C607 1.397 . S
C603 C659 1.419 . S
C604 C600 1.391 . S
C604 C603 1.391 . S
C604 C605 1.399 . S
C605 C604 1.399 . S
C605 C608 1.396 . S
C605 C617 1.453 . S
C605 C618 1.684 . S
H606 C630 0.948 . S
C607 C603 1.397 . S
C607 C608 1.394 . S
C607 C626 1.723 . S
C608 C605 1.396 . S
C608 C607 1.394 . S
C608 C638 1.723 . S
H609 C632 0.947 . S
H610 C633 0.948 . S
H611 C639 0.982 . S
H612 C640 0.979 . S
H613 C640 0.980 . S
H614 C640 0.983 . S
H615 C639 0.979 . S
H616 C639 0.977 . S
C617 C605 1.453 . S
C617 H646 0.982 . S
C617 H647 0.979 . S
C617 H648 0.977 . S
C618 C605 1.684 . S
C618 H643 0.979 . S
C618 H644 0.980 . S
C618 H645 0.983 . S
C619 C620 1.391 . S
C619 C624 1.391 . S
C619 H649 0.948 . S
C620 C619 1.391 . S
C620 C621 1.391 . S
C621 C620 1.391 . S
C621 C622 1.392 . S
C621 H650 0.947 . S
C622 C621 1.392 . S
C622 C623 1.419 . S
C622 H651 0.948 . S
C623 C622 1.419 . S
C623 C624 1.391 . S
C623 C627 1.397 . S
C624 C619 1.391 . S
C624 C623 1.391 . S
C624 C625 1.399 . S
C625 C624 1.399 . S
C625 C626 1.396 . S
C625 C628 1.453 . S
C625 C629 1.684 . S
C626 C607 1.723 . S
C626 C625 1.396 . S
C626 C627 1.394 . S
C627 C623 1.397 . S
C627 C626 1.394 . S
C627 C637 1.723 . S
C628 C625 1.453 . S
C628 H652 0.982 . S
C628 H653 0.979 . S
C628 H654 0.977 . S
C629 C625 1.684 . S
C629 H655 0.979 . S
C629 H656 0.980 . S
C629 H657 0.983 . S
C630 H606 0.948 . S
C630 C631 1.391 . S
C630 C635 1.391 . S
C631 C630 1.391 . S
C631 C632 1.391 . S
C632 H609 0.947 . S
C632 C631 1.391 . S
C632 C633 1.392 . S
C633 H610 0.948 . S
C633 C632 1.392 . S
C633 C634 1.419 . S
C634 C633 1.419 . S
C634 C635 1.391 . S
C634 C638 1.397 . S
C635 C630 1.391 . S
C635 C634 1.391 . S
C635 C636 1.399 . S
C636 C635 1.399 . S
C636 C637 1.396 . S
C636 C639 1.453 . S
C636 C640 1.684 . S
C637 C627 1.723 . S
C637 C636 1.396 . S
C637 C638 1.394 . S
C638 C608 1.723 . S
C638 C634 1.397 . S
C638 C637 1.394 . S
C639 H611 0.982 . S
C639 H615 0.979 . S
C639 H616 0.977 . S
C639 C636 1.453 . S
C640 H612 0.979 . S
C640 H613 0.980 . S
C640 H614 0.983 . S
C640 C636 1.684 . S
H641 C659 0.948 . S
H642 C600 0.948 . S
H643 C618 0.979 . S
H644 C618 0.980 . S
H645 C618 0.983 . S
H646 C617 0.982 . S
H647 C617 0.979 . S
H648 C617 0.977 . S
H649 C619 0.948 . S
H650 C621 0.947 . S
H651 C622 0.948 . S
H652 C628 0.982 . S
H653 C628 0.979 . S
H654 C628 0.977 . S
H655 C629 0.979 . S
H656 C629 0.980 . S
H657 C629 0.983 . S
H658 C602 0.947 . S
C659 C602 1.392 . S
C659 C603 1.419 . S
C659 H641 0.948 . S
C660 C661 1.391 . S
C660 C664 1.391 . S
C660 H702 0.948 . S
C661 C660 1.391 . S
C661 C662 1.391 . S
C662 C661 1.391 . S
C662 H718 0.947 . S
C662 C719 1.392 . S
C663 C664 1.391 . S
C663 C667 1.397 . S
C663 C719 1.419 . S
C664 C660 1.391 . S
C664 C663 1.391 . S
C664 C665 1.399 . S
C665 C664 1.399 . S
C665 C668 1.396 . S
C665 C677 1.453 . S
C665 C678 1.684 . S
H666 C690 0.948 . S
C667 C663 1.397 . S
C667 C668 1.394 . S
C667 C686 1.723 . S
C668 C665 1.396 . S
C668 C667 1.394 . S
C668 C698 1.723 . S
H669 C692 0.947 . S
H670 C693 0.948 . S
H671 C699 0.982 . S
H672 C700 0.979 . S
H673 C700 0.980 . S
H674 C700 0.983 . S
H675 C699 0.979 . S
H676 C699 0.977 . S
C677 C665 1.453 . S
C677 H706 0.982 . S
C677 H707 0.979 . S
C677 H708 0.977 . S
C678 C665 1.684 . S
C678 H703 0.979 . S
C678 H704 0.980 . S
C678 H705 0.983 . S
C679 C680 1.391 . S
C679 C684 1.391 . S
C679 H709 0.948 . S
C680 C679 1.391 . S
C680 C681 1.391 . S
C681 C680 1.391 . S
C681 C682 1.392 . S
C681 H710 0.947 . S
C682 C681 1.392 . S
C682 C683 1.419 . S
C682 H711 0.948 . S
C683 C682 1.419 . S
C683 C684 1.391 . S
C683 C687 1.397 . S
C684 C679 1.391 . S
C684 C683 1.391 . S
C684 C685 1.399 . S
C685 C684 1.399 . S
C685 C686 1.396 . S
C685 C688 1.453 . S
C685 C689 1.684 . S
C686 C667 1.723 . S
C686 C685 1.396 . S
C686 C687 1.394 . S
C687 C683 1.397 . S
C687 C686 1.394 . S
C687 C697 1.723 . S
C688 C685 1.453 . S
C688 H712 0.982 . S
C688 H713 0.979 . S
C688 H714 0.977 . S
C689 C685 1.684 . S
C689 H715 0.979 . S
C689 H716 0.980 . S
C689 H717 0.983 . S
C690 H666 0.948 . S
C690 C691 1.391 . S
C690 C695 1.391 . S
C691 C690 1.391 . S
C691 C692 1.391 . S
C692 H669 0.947 . S
C692 C691 1.391 . S
C692 C693 1.392 . S
C693 H670 0.948 . S
C693 C692 1.392 . S
C693 C694 1.419 . S
C694 C693 1.419 . S
C694 C695 1.391 . S
C694 C698 1.397 . S
C695 C690 1.391 . S
C695 C694 1.391 . S
C695 C696 1.399 . S
C696 C695 1.399 . S
C696 C697 1.396 . S
C696 C699 1.453 . S
C696 C700 1.684 . S
C697 C687 1.723 . S
C697 C696 1.396 . S
C697 C698 1.394 . S
C698 C668 1.723 . S
C698 C694 1.397 . S
C698 C697 1.394 . S
C699 H671 0.982 . S
C699 H675 0.979 . S
C699 H676 0.977 . S
C699 C696 1.453 . S
C700 H672 0.979 . S
C700 H673 0.980 . S
C700 H674 0.983 . S
C700 C696 1.684 . S
H701 C719 0.948 . S
H702 C660 0.948 . S
H703 C678 0.979 . S
H704 C678 0.980 . S
H705 C678 0.983 . S
H706 C677 0.982 . S
H707 C677 0.979 . S
H708 C677 0.977 . S
H709 C679 0.948 . S
H710 C681 0.947 . S
H711 C682 0.948 . S
H712 C688 0.982 . S
H713 C688 0.979 . S
H714 C688 0.977 . S
H715 C689 0.979 . S
H716 C689 0.980 . S
H717 C689 0.983 . S
H718 C662 0.947 . S
C719 C662 1.392 . S
C719 C663 1.419 . S
C719 H701 0.948 . S
C720 C721 1.391 . S
C720 C724 1.391 . S
C720 H762 0.948 . S
C721 C720 1.391 . S
C721 C722 1.391 . S
C722 C721 1.391 . S
C722 H778 0.947 . S
C722 C779 1.392 . S
C723 C724 1.391 . S
C723 C727 1.397 . S
C723 C779 1.419 . S
C724 C720 1.391 . S
C724 C723 1.391 . S
C724 C725 1.399 . S
C725 C724 1.399 . S
C725 C728 1.396 . S
C725 C737 1.453 . S
C725 C738 1.684 . S
H726 C750 0.948 . S
C727 C723 1.397 . S
C727 C728 1.394 . S
C727 C746 1.723 . S
C728 C725 1.396 . S
C728 C727 1.394 . S
C728 C758 1.723 . S
H729 C752 0.947 . S
H730 C753 0.948 . S
H731 C759 0.982 . S
H732 C760 0.979 . S
H733 C760 0.980 . S
H734 C760 0.983 . S
H735 C759 0.979 . S
H736 C759 0.977 . S
C737 C725 1.453 . S
C737 H766 0.982 . S
C737 H767 0.979 . S
C737 H768 0.977 . S
C738 C725 1.684 . S
C738 H763 0.979 . S
C738 H764 0.980 . S
C738 H765 0.983 . S
C739 C740 1.391 . S
C739 C744 1.391 . S
C739 H769 0.948 . S
C740 C739 1.391 . S
C740 C741 1.391 . S
C741 C740 1.391 . S
C741 C742 1.392 . S
C741 H770 0.947 . S
C742 C741 1.392 . S
C742 C743 1.419 . S
C742 H771 0.948 . S
C743 C742 1.419 . S
C743 C744 1.391 . S
C743 C747 1.397 . S
C744 C739 1.391 . S
C744 C743 1.391 . S
C744 C745 1.399 . S
C745 C744 1.399 . S
C745 C746 1.396 . S
C745 C748 1.453 . S
C745 C749 1.684 . S
C746 C727 1.723 . S
C746 C745 1.396 . S
C746 C747 1.394 . S
C747 C743 1.397 . S
C747 C746 1.394 . S
C747 C757 1.723 . S
C748 C745 1.453 . S
C748 H772 0.982 . S
C748 H773 0.979 . S
C748 H774 0.977 . S
C749 C745 1.684 . S
C749 H775 0.979 . S
C749 H776 0.980 . S
C749 H777 0.983 . S
C750 H726 0.948 . S
C750 C751 1.391 . S
C750 C755 1.391 . S
C751 C750 1.391 . S
C751 C752 1.391 . S
C752 H729 0.947 . S
C752 C751 1.391 . S
C752 C753 1.392 . S
C753 H730 0.948 . S
C753 C752 1.392 . S
C753 C754 1.419 . S
C754 C753 1.419 . S
C754 C755 1.391 . S
C754 C758 1.397 . S
C755 C750 1.391 . S
C755 C754 1.391 . S
C755 C756 1.399 . S
C756 C755 1.399 . S
C756 C757 1.396 . S
C756 C759 1.453 . S
C756 C760 1.684 . S
C757 C747 1.723 . S
C757 C756 1.396 . S
C757 C758 1.394 . S
C758 C728 1.723 . S
C758 C754 1.397 . S
C758 C757 1.394 . S
C759 H731 0.982 . S
C759 H735 0.979 . S
C759 H736 0.977 . S
C759 C756 1.453 . S
C760 H732 0.979 . S
C760 H733 0.980 . S
C760 H734 0.983 . S
C760 C756 1.684 . S
H761 C779 0.948 . S
H762 C720 0.948 . S
H763 C738 0.979 . S
H764 C738 0.980 . S
H765 C738 0.983 . S
H766 C737 0.982 . S
H767 C737 0.979 . S
H768 C737 0.977 . S
H769 C739 0.948 . S
H770 C741 0.947 . S
H771 C742 0.948 . S
H772 C748 0.982 . S
H773 C748 0.979 . S
H774 C748 0.977 . S
H775 C749 0.979 . S
H776 C749 0.980 . S
H777 C749 0.983 . S
H778 C722 0.947 . S
C779 C722 1.392 . S
C779 C723 1.419 . S
C779 H761 0.948 . S
C780 C781 1.391 . S
C780 C784 1.391 . S
C780 H822 0.948 . S
C781 C780 1.391 . S
C781 C782 1.391 . S
C782 C781 1.391 . S
C782 H838 0.947 . S
C782 C839 1.392 . S
C783 C784 1.391 . S
C783 C787 1.397 . S
C783 C839 1.419 . S
C784 C780 1.391 . S
C784 C783 1.391 . S
C784 C785 1.399 . S
C785 C784 1.399 . S
C785 C788 1.396 . S
C785 C797 1.453 . S
C785 C798 1.684 . S
H786 C810 0.948 . S
C787 C783 1.397 . S
C787 C788 1.394 . S
C787 C806 1.723 . S
C788 C785 1.396 . S
C788 C787 1.394 . S
C788 C818 1.723 . S
H789 C812 0.947 . S
H790 C813 0.948 . S
H791 C819 0.982 . S
H792 C820 0.979 . S
H793 C820 0.980 . S
H794 C820 0.983 . S
H795 C819 0.979 . S
H796 C819 0.977 . S
C797 C785 1.453 . S
C797 H826 0.982 . S
C797 H827 0.979 . S
C797 H828 0.977 . S
C798 C785 1.684 . S
C798 H823 0.979 . S
C798 H824 0.980 . S
C798 H825 0.983 . S
C799 C800 1.391 . S
C799 C804 1.391 . S
C799 H829 0.948 . S
C800 C799 1.391 . S
C800 C801 1.391 . S
C801 C800 1.391 . S
C801 C802 1.392 . S
C801 H830 0.947 . S
C802 C801 1.392 . S
C802 C803 1.419 . S
C802 H831 0.948 . S
C803 C802 1.419 . S
C803 C804 1.391 . S
C803 C807 1.397 . S
C804 C799 1.391 . S
C804 C803 1.391 . S
C804 C805 1.399 . S
C805 C804 1.399 . S
C805 C806 1.396 . S
C805 C808 1.453 . S
C805 C809 1.684 . S
C806 C787 1.723 . S
C806 C805 1.396 . S
C806 C807 1.394 . S
C807 C803 1.397 . S
C807 C806 1.394 . S
C807 C817 1.723 . S
C808 C805 1.453 . S
C808 H832 0.982 . S
C808 H833 0.979 . S
C808 H834 0.977 . S
C809 C805 1.684 . S
C809 H835 0.979 . S
C809 H836 0.980 . S
C809 H837 0.983 . S
C810 H786 0.948 . S
C810 C811 1.391 . S
C810 C815 1.391 . S
C811 C810 1.391 . S
C811 C812 1.391 . S
C812 H789 0.947 . S
C812 C811 1.391 . S
C812 C813 1.392 . S
C813 H790 0.948 . S
C813 C812 1.392 . S
C813 C814 1.419 . S
C814 C813 1.419 . S
C814 C815 1.391 . S
C814 C818 1.397 . S
C815 C810 1.391 . S
C815 C814 1.391 . S
C815 C816 1.399 . S
C816 C815 1.399 . S
C816 C817 1.396 . S
C816 C819 1.453 . S
C816 C820 1.684 . S
C817 C807 1.723 . S
C817 C816 1.396 . S
C817 C818 1.394 . S
C818 C788 1.723 . S
C818 C814 1.397 . S
C818 C817 1.394 . S
C819 H791 0.982 . S
C819 H795 0.979 . S
C819 H796 0.977 . S
C819 C816 1.453 . S
C820 H792 0.979 . S
C820 H793 0.980 . S
C820 H794 0.983 . S
C820 C816 1.684 . S
H821 C839 0.948 . S
H822 C780 0.948 . S
H823 C798 0.979 . S
H824 C798 0.980 . S
H825 C798 0.983 . S
H826 C797 0.982 . S
H827 C797 0.979 . S
H828 C797 0.977 . S
H829 C799 0.948 . S
H830 C801 0.947 . S
H831 C802 0.948 . S
H832 C808 0.982 . S
H833 C808 0.979 . S
H834 C808 0.977 . S
H835 C809 0.979 . S
H836 C809 0.980 . S
H837 C809 0.983 . S
H838 C782 0.947 . S
C839 C782 1.392 . S
C839 C783 1.419 . S
C839 H821 0.948 . S
C840 C841 1.391 . S
C840 C844 1.391 . S
C840 H882 0.948 . S
C841 C840 1.391 . S
C841 C842 1.391 . S
C842 C841 1.391 . S
C842 H898 0.947 . S
C842 C899 1.392 . S
C843 C844 1.391 . S
C843 C847 1.397 . S
C843 C899 1.419 . S
C844 C840 1.391 . S
C844 C843 1.391 . S
C844 C845 1.399 . S
C845 C844 1.399 . S
C845 C848 1.396 . S
C845 C857 1.453 . S
C845 C858 1.684 . S
H846 C870 0.948 . S
C847 C843 1.397 . S
C847 C848 1.394 . S
C847 C866 1.723 . S
C848 C845 1.396 . S
C848 C847 1.394 . S
C848 C878 1.723 . S
H849 C872 0.947 . S
H850 C873 0.948 . S
H851 C879 0.982 . S
H852 C880 0.979 . S
H853 C880 0.980 . S
H854 C880 0.983 . S
H855 C879 0.979 . S
H856 C879 0.977 . S
C857 C845 1.453 . S
C857 H886 0.982 . S
C857 H887 0.979 . S
C857 H888 0.977 . S
C858 C845 1.684 . S
C858 H883 0.979 . S
C858 H884 0.980 . S
C858 H885 0.983 . S
C859 C860 1.391 . S
C859 C864 1.391 . S
C859 H889 0.948 . S
C860 C859 1.391 . S
C860 C861 1.391 . S
C861 C860 1.391 . S
C861 C862 1.392 . S
C861 H890 0.947 . S
C862 C861 1.392 . S
C862 C863 1.419 . S
C862 H891 0.948 . S
C863 C862 1.419 . S
C863 C864 1.391 . S
C863 C867 1.397 . S
C864 C859 1.391 . S
C864 C863 1.391 . S
C864 C865 1.399 . S
C865 C864 1.399 . S
C865 C866 1.396 . S
C865 C868 1.453 . S
C865 C869 1.684 . S
C866 C847 1.723 . S
C866 C865 1.396 . S
C866 C867 1.394 . S
C867 C863 1.397 . S
C867 C866 1.394 . S
C867 C877 1.723 . S
C868 C865 1.453 . S
C868 H892 0.982 . S
C868 H893 0.979 . S
C868 H894 0.977 . S
C869 C865 1.684 . S
C869 H895 0.979 . S
C869 H896 0.980 . S
C869 H897 0.983 . S
C870 H846 0.948 . S
C870 C871 1.391 . S
C870 C875 1.391 . S
C871 C870 1.391 . S
C871 C872 1.391 . S
C872 H849 0.947 . S
C872 C871 1.391 . S
C872 C873 1.392 . S
C873 H850 0.948 . S
C873 C872 1.392 . S
C873 C874 1.419 . S
C874 C873 1.419 . S
C874 C875 1.391 . S
C874 C878 1.397 . S
C875 C870 1.391 . S
C875 C874 1.391 . S
C875 C876 1.399 . S
C876 C875 1.399 . S
C876 C877 1.396 . S
C876 C879 1.453 . S
C876 C880 1.684 . S
C877 C867 1.723 . S
C877 C876 1.396 . S
C877 C878 1.394 . S
C878 C848 1.723 . S
C878 C874 1.397 . S
C878 C877 1.394 . S
C879 H851 0.982 . S
C879 H855 0.979 . S
C879 H856 0.977 . S
C879 C876 1.453 . S
C880 H852 0.979 . S
C880 H853 0.980 . S
C880 H854 0.983 . S
C880 C876 1.684 . S
H881 C899 0.948 . S
H882 C840 0.948 . S
H883 C858 0.979 . S
H884 C858 0.980 . S
H885 C858 0.983 . S
H886 C857 0.982 . S
H887 C857 0.979 . S
H888 C857 0.977 . S
H889 C859 0.948 . S
H890 C861 0.947 . S
H891 C862 0.948 . S
H892 C868 0.982 . S
H893 C868 0.979 . S
H894 C868 0.977 . S
H895 C869 0.979 . S
H896 C869 0.980 . S
H897 C869 0.983 . S
H898 C842 0.947 . S
C899 C842 1.392 . S
C899 C843 1.419 . S
C899 H881 0.948 . S
C900 C901 1.391 . S
C900 C904 1.391 . S
C900 H942 0.948 . S
C901 C900 1.391 . S
C901 C902 1.391 . S
C902 C901 1.391 . S
C902 H958 0.947 . S
C902 C959 1.392 . S
C903 C904 1.391 . S
C903 C907 1.397 . S
C903 C959 1.419 . S
C904 C900 1.391 . S
C904 C903 1.391 . S
C904 C905 1.399 . S
C905 C904 1.399 . S
C905 C908 1.396 . S
C905 C917 1.453 . S
C905 C918 1.684 . S
H906 C930 0.948 . S
C907 C903 1.397 . S
C907 C908 1.394 . S
C907 C926 1.723 . S
C908 C905 1.396 . S
C908 C907 1.394 . S
C908 C938 1.723 . S
H909 C932 0.947 . S
H910 C933 0.948 . S
H911 C939 0.982 . S
H912 C940 0.979 . S
H913 C940 0.980 . S
H914 C940 0.983 . S
H915 C939 0.979 . S
H916 C939 0.977 . S
C917 C905 1.453 . S
C917 H946 0.982 . S
C917 H947 0.979 . S
C917 H948 0.977 . S
C918 C905 1.684 . S
C918 H943 0.979 . S
C918 H944 0.980 . S
C918 H945 0.983 . S
C919 C920 1.391 . S
C919 C924 1.391 . S
C919 H949 0.948 . S
C920 C919 1.391 . S
C920 C921 1.391 . S
C921 C920 1.391 . S
C921 C922 1.392 . S
C921 H950 0.947 . S
C922 C921 1.392 . S
C922 C923 1.419 . S
C922 H951 0.948 . S
C923 C922 1.419 . S
C923 C924 1.391 . S
C923 C927 1.397 . S
C924 C919 1.391 . S
C924 C923 1.391 . S
C924 C925 1.399 . S
C925 C924 1.399 . S
C925 C926 1.396 . S
C925 C928 1.453 . S
C925 C929 1.684 . S
C926 C907 1.723 . S
C926 C925 1.396 . S
C926 C927 1.394 . S
C927 C923 1.397 . S
C927 C926 1.394 . S
C927 C937 1.723 . S
C928 C925 1.453 . S
C928 H952 0.982 . S
C928 H953 0.979 . S
C928 H954 0.977 . S
C929 C925 1.684 . S
C929 H955 0.979 . S
C929 H956 0.980 . S
C929 H957 0.983 . S
C930 H906 0.948 . S
C930 C931 1.391 . S
C930 C935 1.391 . S
C931 C930 1.391 . S
C931 C932 1.391 . S
C932 H909 0.947 . S
C932 C931 1.391 . S
C932 C933 1.392 . S
C933 H910 0.948 . S
C933 C932 1.392 . S
C933 C934 1.419 . S
C934 C933 1.419 . S
C934 C935 1.391 . S
C934 C938 1.397 . S
C935 C930 1.391 . S
C935 C934 1.391 . S
C935 C936 1.399 . S
C936 C935 1.399 . S
C936 C937 1.396 . S
C936 C939 1.453 . S
C936 C940 1.684 . S
C937 C927 1.723 . S
C937 C936 1.396 . S
C937 C938 1.394 . S
C938 C908 1.723 . S
C938 C934 1.397 . S
C938 C937 1.394 . S
C939 H911 0.982 . S
C939 H915 0.979 . S
C939 H916 0.977 . S
C939 C936 1.453 . S
C940 H912 0.979 . S
C940 H913 0.980 . S
C940 H914 0.983 . S
C940 C936 1.684 . S
H941 C959 0.948 . S
H942 C900 0.948 . S
H943 C918 0.979 . S
H944 C918 0.980 . S
H945 C918 0.983 . S
H946 C917 0.982 . S
H947 C917 0.979 . S
H948 C917 0.977 . S
H949 C919 0.948 . S
H950 C921 0.947 . S
H951 C922 0.948 . S
H952 C928 0.982 . S
H953 C928 0.979 . S
H954 C928 0.977 . S
H955 C929 0.979 . S
H956 C929 0.980 . S
H957 C929 0.983 . S
H958 C902 0.947 . S
C959 C902 1.392 . S
C959 C903 1.419 . S
C959 H941 0.948 . S
C960 C961 1.391 . S
C960 C964 1.391 . S
C960 H1002 0.948 . S
C961 C960 1.391 . S
C961 C962 1.391 . S
C962 C961 1.391 . S
C962 H1018 0.947 . S
C962 C1019 1.392 . S
C963 C964 1.391 . S
C963 C967 1.397 . S
C963 C1019 1.419 . S
C964 C960 1.391 . S
C964 C963 1.391 . S
C964 C965 1.399 . S
C965 C964 1.399 . S
C965 C968 1.396 . S
C965 C977 1.453 . S
C965 C978 1.684 . S
H966 C990 0.948 . S
C967 C963 1.397 . S
C967 C968 1.394 . S
C967 C986 1.723 . S
C968 C965 1.396 . S
C968 C967 1.394 . S
C968 C998 1.723 . S
H969 C992 0.947 . S
H970 C993 0.948 . S
H971 C999 0.982 . S
H972 C1000 0.979 . S
H973 C1000 0.980 . S
H974 C1000 0.983 . S
H975 C999 0.979 . S
H976 C999 0.977 . S
C977 C965 1.453 . S
C977 H1006 0.982 . S
C977 H1007 0.979 . S
C977 H1008 0.977 . S
C978 C965 1.684 . S
C978 H1003 0.979 . S
C978 H1004 0.980 . S
C978 H1005 0.983 . S
C979 C980 1.391 . S
C979 C984 1.391 . S
C979 H1009 0.948 . S
C980 C979 1.391 . S
C980 C981 1.391 . S
C981 C980 1.391 . S
C981 C982 1.392 . S
C981 H1010 0.947 . S
C982 C981 1.392 . S
C982 C983 1.419 . S
C982 H1011 0.948 . S
C983 C982 1.419 . S
C983 C984 1.391 . S
C983 C987 1.397 . S
C984 C979 1.391 . S
C984 C983 1.391 . S
C984 C985 1.399 . S
C985 C984 1.399 . S
C985 C986 1.396 . S
C985 C988 1.453 . S
C985 C989 1.684 . S
C986 C967 1.723 . S
C986 C985 1.396 . S
C986 C987 1.394 . S
C987 C983 1.397 . S
C987 C986 1.394 . S
C987 C997 1.723 . S
C988 C985 1.453 . S
C988 H1012 0.982 . S
C988 H1013 0.979 . S
C988 H1014 0.977 . S
C989 C985 1.684 . S
C989 H1015 0.979 . S
C989 H1016 0.980 . S
C989 H1017 0.983 . S
C990 H966 0.948 . S
C990 C991 1.391 . S
C990 C995 1.391 . S
C991 C990 1.391 . S
C991 C992 1.391 . S
C992 H969 0.947 . S
C992 C991 1.391 . S
C992 C993 1.392 . S
C993 H970 0.948 . S
C993 C992 1.392 . S
C993 C994 1.419 . S
C994 C993 1.419 . S
C994 C995 1.391 . S
C994 C998 1.397 . S
C995 C990 1.391 . S
C995 C994 1.391 . S
C995 C996 1.399 . S
C996 C995 1.399 . S
C996 C997 1.396 . S
C996 C999 1.453 . S
C996 C1000 1.684 . S
C997 C987 1.723 . S
C997 C996 1.396 . S
C997 C998 1.394 . S
C998 C968 1.723 . S
C998 C994 1.397 . S
C998 C997 1.394 . S
C999 H971 0.982 . S
C999 H975 0.979 . S
C999 H976 0.977 . S
C999 C996 1.453 . S
C1000 H972 0.979 . S
C1000 H973 0.980 . S
C1000 H974 0.983 . S
C1000 C996 1.684 . S
H1001 C1019 0.948 . S
H1002 C960 0.948 . S
H1003 C978 0.979 . S
H1004 C978 0.980 . S
H1005 C978 0.983 . S
H1006 C977 0.982 . S
H1007 C977 0.979 . S
H1008 C977 0.977 . S
H1009 C979 0.948 . S
H1010 C981 0.947 . S
H1011 C982 0.948 . S
H1012 C988 0.982 . S
H1013 C988 0.979 . S
H1014 C988 0.977 . S
H1015 C989 0.979 . S
H1016 C989 0.980 . S
H1017 C989 0.983 . S
H1018 C962 0.947 . S
C1019 C962 1.392 . S
C1019 C963 1.419 . S
C1019 H1001 0.948 . S
C1020 C1021 1.391 . S
C1020 C1024 1.391 . S
C1020 H1062 0.948 . S
C1021 C1020 1.391 . S
C1021 C1022 1.391 . S
C1022 C1021 1.391 . S
C1022 H1078 0.947 . S
C1022 C1079 1.392 . S
C1023 C1024 1.391 . S
C1023 C1027 1.397 . S
C1023 C1079 1.419 . S
C1024 C1020 1.391 . S
C1024 C1023 1.391 . S
C1024 C1025 1.399 . S
C1025 C1024 1.399 . S
C1025 C1028 1.396 . S
C1025 C1037 1.453 . S
C1025 C1038 1.684 . S
H1026 C1050 0.948 . S
C1027 C1023 1.397 . S
C1027 C1028 1.394 . S
C1027 C1046 1.723 . S
C1028 C1025 1.396 . S
C1028 C1027 1.394 . S
C1028 C1058 1.723 . S
H1029 C1052 0.947 . S
H1030 C1053 0.948 . S
H1031 C1059 0.982 . S
H1032 C1060 0.979 . S
H1033 C1060 0.980 . S
H1034 C1060 0.983 . S
H1035 C1059 0.979 . S
H1036 C1059 0.977 . S
C1037 C1025 1.453 . S
C1037 H1066 0.982 . S
C1037 H1067 0.979 . S
C1037 H1068 0.977 . S
C1038 C1025 1.684 . S
C1038 H1063 0.979 . S
C1038 H1064 0.980 . S
C1038 H1065 0.983 . S
C1039 C1040 1.391 . S
C1039 C1044 1.391 . S
C1039 H1069 0.948 . S
C1040 C1039 1.391 . S
C1040 C1041 1.391 . S
C1041 C1040 1.391 . S
C1041 C1042 1.392 . S
C1041 H1070 0.947 . S
C1042 C1041 1.392 . S
C1042 C1043 1.419 . S
C1042 H1071 0.948 . S
C1043 C1042 1.419 . S
C1043 C1044 1.391 . S
C1043 C1047 1.397 . S
C1044 C1039 1.391 . S
C1044 C1043 1.391 . S
C1044 C1045 1.399 . S
C1045 C1044 1.399 . S
C1045 C1046 1.396 . S
C1045 C1048 1.453 . S
C1045 C1049 1.684 . S
C1046 C1027 1.723 . S
C1046 C1045 1.396 . S
C1046 C1047 1.394 . S
C1047 C1043 1.397 . S
C1047 C1046 1.394 . S
C1047 C1057 1.723 . S
C1048 C1045 1.453 . S
C1048 H1072 0.982 . S
C1048 H1073 0.979 . S
C1048 H1074 0.977 . S
C1049 C1045 1.684 . S
C1049 H1075 0.979 . S
C1049 H1076 0.980 . S
C1049 H1077 0.983 . S
C1050 H1026 0.948 . S
C1050 C1051 1.391 . S
C1050 C1055 1.391 . S
C1051 C1050 1.391 . S
C1051 C1052 1.391 . S
C1052 H1029 0.947 . S
C1052 C1051 1.391 . S
C1052 C1053 1.392 . S
C1053 H1030 0.948 . S
C1053 C1052 1.392 . S
C1053 C1054 1.419 . S
C1054 C1053 1.419 . S
C1054 C1055 1.391 . S
C1054 C1058 1.397 . S
C1055 C1050 1.391 . S
C1055 C1054 1.391 . S
C1055 C1056 1.399 . S
C1056 C1055 1.399 . S
C1056 C1057 1.396 . S
C1056 C1059 1.453 . S
C1056 C1060 1.684 . S
C1057 C1047 1.723 . S
C1057 C1056 1.396 . S
C1057 C1058 1.394 . S
C1058 C1028 1.723 . S
C1058 C1054 1.397 . S
C1058 C1057 1.394 . S
C1059 H1031 0.982 . S
C1059 H1035 0.979 . S
C1059 H1036 0.977 . S
C1059 C1056 1.453 . S
C1060 H1032 0.979 . S
C1060 H1033 0.980 . S
C1060 H1034 0.983 . S
C1060 C1056 1.684 . S
H1061 C1079 0.948 . S
H1062 C1020 0.948 . S
H1063 C1038 0.979 . S
H1064 C1038 0.980 . S
H1065 C1038 0.983 . S
H1066 C1037 0.982 . S
H1067 C1037 0.979 . S
H1068 C1037 0.977 . S
H1069 C1039 0.948 . S
H1070 C1041 0.947 . S
H1071 C1042 0.948 . S
H1072 C1048 0.982 . S
H1073 C1048 0.979 . S
H1074 C1048 0.977 . S
H1075 C1049 0.979 . S
H1076 C1049 0.980 . S
H1077 C1049 0.983 . S
H1078 C1022 0.947 . S
C1079 C1022 1.392 . S
C1079 C1023 1.419 . S
C1079 H1061 0.948 . S
Tb1080 N1111 2.660 . S
Tb1080 N1118 2.600 . S
Tb1080 O1124 2.546 . S
Tb1080 O1125 2.610 1_565 S
Tb1080 O1127 2.320 1_565 S
Tb1080 O1128 2.552 1_565 S
Tb1080 O1129 2.413 . S
Tb1080 O1131 2.362 1_556 S
Tb1080 O1132 2.421 . S
Tb1080 C1144 2.833 . S
C1081 C1084 1.432 . S
C1081 C1085 1.414 . S
C1081 N1088 1.359 . S
C1082 C1084 1.417 . S
C1082 C1086 1.432 . S
C1082 C1094 1.410 . S
C1083 C1085 1.444 . S
C1083 C1086 1.317 . S
C1083 H1106 0.929 . S
C1084 C1081 1.432 . S
C1084 C1082 1.417 . S
C1084 N1092 1.360 . S
C1085 C1081 1.414 . S
C1085 C1083 1.444 . S
C1085 C1090 1.385 . S
C1086 C1082 1.432 . S
C1086 C1083 1.317 . S
C1086 H1098 0.930 . S
C1087 C1089 1.392 . S
C1087 C1090 1.370 . S
C1087 H1099 0.931 . S
N1088 C1081 1.359 . S
N1088 C1089 1.327 . S
N1088 Tb1091 2.600 . S
C1089 C1087 1.392 . S
C1089 N1088 1.327 . S
C1089 H1096 0.930 . S
C1090 C1085 1.385 . S
C1090 C1087 1.370 . S
C1090 H1109 0.930 . S
Tb1091 N1088 2.600 . S
Tb1091 N1092 2.660 . S
Tb1091 O1125 2.362 1_554 S
Tb1091 O1126 2.421 . S
Tb1091 O1130 2.546 . S
Tb1091 O1131 2.610 1_545 S
Tb1091 O1133 2.320 1_545 S
Tb1091 O1134 2.552 1_545 S
Tb1091 O1135 2.413 . S
Tb1091 C1155 2.833 . S
N1092 C1084 1.360 . S
N1092 Tb1091 2.660 . S
N1092 C1093 1.305 . S
C1093 N1092 1.305 . S
C1093 C1095 1.407 . S
C1093 H1100 0.930 . S
C1094 C1082 1.410 . S
C1094 C1095 1.345 . S
C1094 H1102 0.930 . S
C1095 C1093 1.407 . S
C1095 C1094 1.345 . S
C1095 H1097 0.930 . S
H1096 C1089 0.930 . S
H1097 C1095 0.930 . S
H1098 C1086 0.930 . S
H1099 C1087 0.931 . S
H1100 C1093 0.930 . S
H1101 C1115 0.930 . S
H1102 C1094 0.930 . S
H1103 C1121 0.930 . S
H1104 C1112 0.930 . S
H1105 C1119 0.931 . S
H1106 C1083 0.929 . S
H1107 C1113 0.930 . S
H1108 C1146 0.930 . S
H1109 C1090 0.930 . S
H1110 C1145 0.929 . S
N1111 Tb1080 2.660 . S
N1111 C1112 1.305 . S
N1111 C1116 1.360 . S
C1112 H1104 0.930 . S
C1112 N1111 1.305 . S
C1112 C1115 1.407 . S
C1113 H1107 0.930 . S
C1113 C1114 1.410 . S
C1113 C1115 1.345 . S
C1114 C1113 1.410 . S
C1114 C1116 1.417 . S
C1114 C1146 1.432 . S
C1115 H1101 0.930 . S
C1115 C1112 1.407 . S
C1115 C1113 1.345 . S
C1116 N1111 1.360 . S
C1116 C1114 1.417 . S
C1116 C1120 1.432 . S
H1117 C1122 0.930 . S
N1118 Tb1080 2.600 . S
N1118 C1120 1.359 . S
N1118 C1121 1.327 . S
C1119 H1105 0.931 . S
C1119 C1121 1.392 . S
C1119 C1122 1.370 . S
C1120 C1116 1.432 . S
C1120 N1118 1.359 . S
C1120 C1123 1.414 . S
C1121 H1103 0.930 . S
C1121 N1118 1.327 . S
C1121 C1119 1.392 . S
C1122 H1117 0.930 . S
C1122 C1119 1.370 . S
C1122 C1123 1.385 . S
C1123 C1120 1.414 . S
C1123 C1122 1.385 . S
C1123 C1145 1.444 . S
O1124 Tb1080 2.546 . S
O1124 C1144 1.251 . S
O1125 Tb1080 2.610 1_545 S
O1125 Tb1091 2.362 1_556 S
O1125 C1136 1.283 . S
O1126 Tb1091 2.421 . S
O1126 C1143 1.262 1_554 S
O1127 Tb1080 2.320 1_545 S
O1127 C1143 1.260 . S
O1128 Tb1080 2.552 1_545 S
O1128 C1136 1.243 . S
O1129 Tb1080 2.413 . S
O1129 C1144 1.256 . S
O1130 Tb1091 2.546 . S
O1130 C1155 1.251 . S
O1131 Tb1080 2.362 1_554 S
O1131 Tb1091 2.610 1_565 S
O1131 C1147 1.283 . S
O1132 Tb1080 2.421 . S
O1132 C1154 1.262 1_556 S
O1133 Tb1091 2.320 1_565 S
O1133 C1154 1.260 . S
O1134 Tb1091 2.552 1_565 S
O1134 C1147 1.243 . S
O1135 Tb1091 2.413 . S
O1135 C1155 1.256 . S
C1136 O1125 1.283 . S
C1136 O1128 1.243 . S
C1137 C1139 1.382 1_565 S
C1137 C1141 1.393 . S
C1137 C1144 1.500 . S
C1138 C1139 1.400 . S
C1138 C1140 1.384 1_545 S
C1139 C1137 1.382 1_545 S
C1139 C1138 1.400 . S
C1139 H1156 0.930 . S
C1140 C1138 1.384 1_565 S
C1140 C1142 1.392 . S
C1140 H1157 0.931 . S
C1141 C1137 1.393 . S
C1141 C1142 1.401 . S
C1141 H1158 0.930 . S
C1142 C1140 1.392 . S
C1142 C1141 1.401 . S
C1142 H1159 0.930 . S
C1143 O1126 1.262 1_556 S
C1143 O1127 1.260 . S
C1144 Tb1080 2.833 . S
C1144 O1124 1.251 . S
C1144 O1129 1.256 . S
C1144 C1137 1.500 . S
C1145 H1110 0.929 . S
C1145 C1123 1.444 . S
C1145 C1146 1.317 . S
C1146 H1108 0.930 . S
C1146 C1114 1.432 . S
C1146 C1145 1.317 . S
C1147 O1131 1.283 . S
C1147 O1134 1.243 . S
C1148 C1149 1.382 1_545 S
C1148 C1152 1.393 . S
C1148 C1155 1.500 . S
C1149 C1148 1.382 1_565 S
C1149 C1150 1.400 . S
C1149 H1160 0.930 . S
C1150 C1149 1.400 . S
C1150 C1151 1.384 1_565 S
C1151 C1150 1.384 1_545 S
C1151 C1153 1.392 . S
C1151 H1161 0.931 . S
C1152 C1148 1.393 . S
C1152 C1153 1.401 . S
C1152 H1162 0.930 . S
C1153 C1151 1.392 . S
C1153 C1152 1.401 . S
C1153 H1163 0.930 . S
C1154 O1132 1.262 1_554 S
C1154 O1133 1.260 . S
C1155 Tb1091 2.833 . S
C1155 O1130 1.251 . S
C1155 O1135 1.256 . S
C1155 C1148 1.500 . S
H1156 C1139 0.930 . S
H1157 C1140 0.931 . S
H1158 C1141 0.930 . S
H1159 C1142 0.930 . S
H1160 C1149 0.930 . S
H1161 C1151 0.931 . S
H1162 C1152 0.930 . S
H1163 C1153 0.930 . S
Tb1164 N1195 2.660 . S
Tb1164 N1202 2.600 . S
Tb1164 O1208 2.546 . S
Tb1164 O1209 2.610 1_455 S
Tb1164 O1211 2.320 1_455 S
Tb1164 O1212 2.552 1_455 S
Tb1164 O1213 2.413 . S
Tb1164 O1215 2.362 1_556 S
Tb1164 O1216 2.421 . S
Tb1164 C1228 2.833 . S
C1165 C1168 1.432 . S
C1165 C1169 1.414 . S
C1165 N1172 1.359 . S
C1166 C1168 1.417 . S
C1166 C1170 1.432 . S
C1166 C1178 1.410 . S
C1167 C1169 1.444 . S
C1167 C1170 1.317 . S
C1167 H1190 0.929 . S
C1168 C1165 1.432 . S
C1168 C1166 1.417 . S
C1168 N1176 1.360 . S
C1169 C1165 1.414 . S
C1169 C1167 1.444 . S
C1169 C1174 1.385 . S
C1170 C1166 1.432 . S
C1170 C1167 1.317 . S
C1170 H1182 0.930 . S
C1171 C1173 1.392 . S
C1171 C1174 1.370 . S
C1171 H1183 0.931 . S
N1172 C1165 1.359 . S
N1172 C1173 1.327 . S
N1172 Tb1175 2.600 . S
C1173 C1171 1.392 . S
C1173 N1172 1.327 . S
C1173 H1180 0.930 . S
C1174 C1169 1.385 . S
C1174 C1171 1.370 . S
C1174 H1193 0.930 . S
Tb1175 N1172 2.600 . S
Tb1175 N1176 2.660 . S
Tb1175 O1209 2.362 1_554 S
Tb1175 O1210 2.421 . S
Tb1175 O1214 2.546 . S
Tb1175 O1215 2.610 1_655 S
Tb1175 O1217 2.320 1_655 S
Tb1175 O1218 2.552 1_655 S
Tb1175 O1219 2.413 . S
Tb1175 C1239 2.833 . S
N1176 C1168 1.360 . S
N1176 Tb1175 2.660 . S
N1176 C1177 1.305 . S
C1177 N1176 1.305 . S
C1177 C1179 1.407 . S
C1177 H1184 0.930 . S
C1178 C1166 1.410 . S
C1178 C1179 1.345 . S
C1178 H1186 0.930 . S
C1179 C1177 1.407 . S
C1179 C1178 1.345 . S
C1179 H1181 0.930 . S
H1180 C1173 0.930 . S
H1181 C1179 0.930 . S
H1182 C1170 0.930 . S
H1183 C1171 0.931 . S
H1184 C1177 0.930 . S
H1185 C1199 0.930 . S
H1186 C1178 0.930 . S
H1187 C1205 0.930 . S
H1188 C1196 0.930 . S
H1189 C1203 0.931 . S
H1190 C1167 0.929 . S
H1191 C1197 0.930 . S
H1192 C1230 0.930 . S
H1193 C1174 0.930 . S
H1194 C1229 0.929 . S
N1195 Tb1164 2.660 . S
N1195 C1196 1.305 . S
N1195 C1200 1.360 . S
C1196 H1188 0.930 . S
C1196 N1195 1.305 . S
C1196 C1199 1.407 . S
C1197 H1191 0.930 . S
C1197 C1198 1.410 . S
C1197 C1199 1.345 . S
C1198 C1197 1.410 . S
C1198 C1200 1.417 . S
C1198 C1230 1.432 . S
C1199 H1185 0.930 . S
C1199 C1196 1.407 . S
C1199 C1197 1.345 . S
C1200 N1195 1.360 . S
C1200 C1198 1.417 . S
C1200 C1204 1.432 . S
H1201 C1206 0.930 . S
N1202 Tb1164 2.600 . S
N1202 C1204 1.359 . S
N1202 C1205 1.327 . S
C1203 H1189 0.931 . S
C1203 C1205 1.392 . S
C1203 C1206 1.370 . S
C1204 C1200 1.432 . S
C1204 N1202 1.359 . S
C1204 C1207 1.414 . S
C1205 H1187 0.930 . S
C1205 N1202 1.327 . S
C1205 C1203 1.392 . S
C1206 H1201 0.930 . S
C1206 C1203 1.370 . S
C1206 C1207 1.385 . S
C1207 C1204 1.414 . S
C1207 C1206 1.385 . S
C1207 C1229 1.444 . S
O1208 Tb1164 2.546 . S
O1208 C1228 1.251 . S
O1209 Tb1164 2.610 1_655 S
O1209 Tb1175 2.362 1_556 S
O1209 C1220 1.283 . S
O1210 Tb1175 2.421 . S
O1210 C1227 1.262 1_554 S
O1211 Tb1164 2.320 1_655 S
O1211 C1227 1.260 . S
O1212 Tb1164 2.552 1_655 S
O1212 C1220 1.243 . S
O1213 Tb1164 2.413 . S
O1213 C1228 1.256 . S
O1214 Tb1175 2.546 . S
O1214 C1239 1.251 . S
O1215 Tb1164 2.362 1_554 S
O1215 Tb1175 2.610 1_455 S
O1215 C1231 1.283 . S
O1216 Tb1164 2.421 . S
O1216 C1238 1.262 1_556 S
O1217 Tb1175 2.320 1_455 S
O1217 C1238 1.260 . S
O1218 Tb1175 2.552 1_455 S
O1218 C1231 1.243 . S
O1219 Tb1175 2.413 . S
O1219 C1239 1.256 . S
C1220 O1209 1.283 . S
C1220 O1212 1.243 . S
C1221 C1223 1.382 1_455 S
C1221 C1225 1.393 . S
C1221 C1228 1.500 . S
C1222 C1223 1.400 . S
C1222 C1224 1.384 1_655 S
C1223 C1221 1.382 1_655 S
C1223 C1222 1.400 . S
C1223 H1240 0.930 . S
C1224 C1222 1.384 1_455 S
C1224 C1226 1.392 . S
C1224 H1241 0.931 . S
C1225 C1221 1.393 . S
C1225 C1226 1.401 . S
C1225 H1242 0.930 . S
C1226 C1224 1.392 . S
C1226 C1225 1.401 . S
C1226 H1243 0.930 . S
C1227 O1210 1.262 1_556 S
C1227 O1211 1.260 . S
C1228 Tb1164 2.833 . S
C1228 O1208 1.251 . S
C1228 O1213 1.256 . S
C1228 C1221 1.500 . S
C1229 H1194 0.929 . S
C1229 C1207 1.444 . S
C1229 C1230 1.317 . S
C1230 H1192 0.930 . S
C1230 C1198 1.432 . S
C1230 C1229 1.317 . S
C1231 O1215 1.283 . S
C1231 O1218 1.243 . S
C1232 C1233 1.382 1_655 S
C1232 C1236 1.393 . S
C1232 C1239 1.500 . S
C1233 C1232 1.382 1_455 S
C1233 C1234 1.400 . S
C1233 H1244 0.930 . S
C1234 C1233 1.400 . S
C1234 C1235 1.384 1_455 S
C1235 C1234 1.384 1_655 S
C1235 C1237 1.392 . S
C1235 H1245 0.931 . S
C1236 C1232 1.393 . S
C1236 C1237 1.401 . S
C1236 H1246 0.930 . S
C1237 C1235 1.392 . S
C1237 C1236 1.401 . S
C1237 H1247 0.930 . S
C1238 O1216 1.262 1_554 S
C1238 O1217 1.260 . S
C1239 Tb1175 2.833 . S
C1239 O1214 1.251 . S
C1239 O1219 1.256 . S
C1239 C1232 1.500 . S
H1240 C1223 0.930 . S
H1241 C1224 0.931 . S
H1242 C1225 0.930 . S
H1243 C1226 0.930 . S
H1244 C1233 0.930 . S
H1245 C1235 0.931 . S
H1246 C1236 0.930 . S
H1247 C1237 0.930 . S
Tb1248 N1279 2.660 . S
Tb1248 N1286 2.600 . S
Tb1248 O1292 2.546 . S
Tb1248 O1293 2.610 . S
Tb1248 O1295 2.320 . S
Tb1248 O1296 2.552 . S
Tb1248 O1297 2.413 . S
Tb1248 O1299 2.362 1_554 S
Tb1248 O1300 2.421 . S
Tb1248 C1312 2.833 . S
C1249 C1252 1.432 . S
C1249 C1253 1.414 . S
C1249 N1256 1.359 . S
C1250 C1252 1.417 . S
C1250 C1254 1.432 . S
C1250 C1262 1.410 . S
C1251 C1253 1.444 . S
C1251 C1254 1.317 . S
C1251 H1274 0.929 . S
C1252 C1249 1.432 . S
C1252 C1250 1.417 . S
C1252 N1260 1.360 . S
C1253 C1249 1.414 . S
C1253 C1251 1.444 . S
C1253 C1258 1.385 . S
C1254 C1250 1.432 . S
C1254 C1251 1.317 . S
C1254 H1266 0.930 . S
C1255 C1257 1.392 . S
C1255 C1258 1.370 . S
C1255 H1267 0.931 . S
N1256 C1249 1.359 . S
N1256 C1257 1.327 . S
N1256 Tb1259 2.600 . S
C1257 C1255 1.392 . S
C1257 N1256 1.327 . S
C1257 H1264 0.930 . S
C1258 C1253 1.385 . S
C1258 C1255 1.370 . S
C1258 H1277 0.930 . S
Tb1259 N1256 2.600 . S
Tb1259 N1260 2.660 . S
Tb1259 O1293 2.362 1_556 S
Tb1259 O1294 2.421 . S
Tb1259 O1298 2.546 . S
Tb1259 O1299 2.610 . S
Tb1259 O1301 2.320 . S
Tb1259 O1302 2.552 . S
Tb1259 O1303 2.413 . S
Tb1259 C1323 2.833 . S
N1260 C1252 1.360 . S
N1260 Tb1259 2.660 . S
N1260 C1261 1.305 . S
C1261 N1260 1.305 . S
C1261 C1263 1.407 . S
C1261 H1268 0.930 . S
C1262 C1250 1.410 . S
C1262 C1263 1.345 . S
C1262 H1270 0.930 . S
C1263 C1261 1.407 . S
C1263 C1262 1.345 . S
C1263 H1265 0.930 . S
H1264 C1257 0.930 . S
H1265 C1263 0.930 . S
H1266 C1254 0.930 . S
H1267 C1255 0.931 . S
H1268 C1261 0.930 . S
H1269 C1283 0.930 . S
H1270 C1262 0.930 . S
H1271 C1289 0.930 . S
H1272 C1280 0.930 . S
H1273 C1287 0.931 . S
H1274 C1251 0.929 . S
H1275 C1281 0.930 . S
H1276 C1314 0.930 . S
H1277 C1258 0.930 . S
H1278 C1313 0.929 . S
N1279 Tb1248 2.660 . S
N1279 C1280 1.305 . S
N1279 C1284 1.360 . S
C1280 H1272 0.930 . S
C1280 N1279 1.305 . S
C1280 C1283 1.407 . S
C1281 H1275 0.930 . S
C1281 C1282 1.410 . S
C1281 C1283 1.345 . S
C1282 C1281 1.410 . S
C1282 C1284 1.417 . S
C1282 C1314 1.432 . S
C1283 H1269 0.930 . S
C1283 C1280 1.407 . S
C1283 C1281 1.345 . S
C1284 N1279 1.360 . S
C1284 C1282 1.417 . S
C1284 C1288 1.432 . S
H1285 C1290 0.930 . S
N1286 Tb1248 2.600 . S
N1286 C1288 1.359 . S
N1286 C1289 1.327 . S
C1287 H1273 0.931 . S
C1287 C1289 1.392 . S
C1287 C1290 1.370 . S
C1288 C1284 1.432 . S
C1288 N1286 1.359 . S
C1288 C1291 1.414 . S
C1289 H1271 0.930 . S
C1289 N1286 1.327 . S
C1289 C1287 1.392 . S
C1290 H1285 0.930 . S
C1290 C1287 1.370 . S
C1290 C1291 1.385 . S
C1291 C1288 1.414 . S
C1291 C1290 1.385 . S
C1291 C1313 1.444 . S
O1292 Tb1248 2.546 . S
O1292 C1312 1.251 . S
O1293 Tb1248 2.610 . S
O1293 Tb1259 2.362 1_554 S
O1293 C1304 1.283 . S
O1294 Tb1259 2.421 . S
O1294 C1311 1.262 1_556 S
O1295 Tb1248 2.320 . S
O1295 C1311 1.260 . S
O1296 Tb1248 2.552 . S
O1296 C1304 1.243 . S
O1297 Tb1248 2.413 . S
O1297 C1312 1.256 . S
O1298 Tb1259 2.546 . S
O1298 C1323 1.251 . S
O1299 Tb1248 2.362 1_556 S
O1299 Tb1259 2.610 . S
O1299 C1315 1.283 . S
O1300 Tb1248 2.421 . S
O1300 C1322 1.262 1_554 S
O1301 Tb1259 2.320 . S
O1301 C1322 1.260 . S
O1302 Tb1259 2.552 . S
O1302 C1315 1.243 . S
O1303 Tb1259 2.413 . S
O1303 C1323 1.256 . S
C1304 O1293 1.283 . S
C1304 O1296 1.243 . S
C1305 C1307 1.382 . S
C1305 C1309 1.393 . S
C1305 C1312 1.500 . S
C1306 C1307 1.400 . S
C1306 C1308 1.384 . S
C1307 C1305 1.382 . S
C1307 C1306 1.400 . S
C1307 H1324 0.930 . S
C1308 C1306 1.384 . S
C1308 C1310 1.392 . S
C1308 H1325 0.931 . S
C1309 C1305 1.393 . S
C1309 C1310 1.401 . S
C1309 H1326 0.930 . S
C1310 C1308 1.392 . S
C1310 C1309 1.401 . S
C1310 H1327 0.930 . S
C1311 O1294 1.262 1_554 S
C1311 O1295 1.260 . S
C1312 Tb1248 2.833 . S
C1312 O1292 1.251 . S
C1312 O1297 1.256 . S
C1312 C1305 1.500 . S
C1313 H1278 0.929 . S
C1313 C1291 1.444 . S
C1313 C1314 1.317 . S
C1314 H1276 0.930 . S
C1314 C1282 1.432 . S
C1314 C1313 1.317 . S
C1315 O1299 1.283 . S
C1315 O1302 1.243 . S
C1316 C1317 1.382 . S
C1316 C1320 1.393 . S
C1316 C1323 1.500 . S
C1317 C1316 1.382 . S
C1317 C1318 1.400 . S
C1317 H1328 0.930 . S
C1318 C1317 1.400 . S
C1318 C1319 1.384 . S
C1319 C1318 1.384 . S
C1319 C1321 1.392 . S
C1319 H1329 0.931 . S
C1320 C1316 1.393 . S
C1320 C1321 1.401 . S
C1320 H1330 0.930 . S
C1321 C1319 1.392 . S
C1321 C1320 1.401 . S
C1321 H1331 0.930 . S
C1322 O1300 1.262 1_556 S
C1322 O1301 1.260 . S
C1323 Tb1259 2.833 . S
C1323 O1298 1.251 . S
C1323 O1303 1.256 . S
C1323 C1316 1.500 . S
H1324 C1307 0.930 . S
H1325 C1308 0.931 . S
H1326 C1309 0.930 . S
H1327 C1310 0.930 . S
H1328 C1317 0.930 . S
H1329 C1319 0.931 . S
H1330 C1320 0.930 . S
H1331 C1321 0.930 . S
Tb1332 N1363 2.660 . S
Tb1332 N1370 2.600 . S
Tb1332 O1376 2.546 . S
Tb1332 O1377 2.610 . S
Tb1332 O1379 2.320 . S
Tb1332 O1380 2.552 . S
Tb1332 O1381 2.413 . S
Tb1332 O1383 2.362 . S
Tb1332 O1384 2.421 . S
Tb1332 C1396 2.833 . S
C1333 C1336 1.432 . S
C1333 C1337 1.414 . S
C1333 N1340 1.359 . S
C1334 C1336 1.417 . S
C1334 C1338 1.432 . S
C1334 C1346 1.410 . S
C1335 C1337 1.444 . S
C1335 C1338 1.317 . S
C1335 H1358 0.929 . S
C1336 C1333 1.432 . S
C1336 C1334 1.417 . S
C1336 N1344 1.360 . S
C1337 C1333 1.414 . S
C1337 C1335 1.444 . S
C1337 C1342 1.385 . S
C1338 C1334 1.432 . S
C1338 C1335 1.317 . S
C1338 H1350 0.930 . S
C1339 C1341 1.392 . S
C1339 C1342 1.370 . S
C1339 H1351 0.931 . S
N1340 C1333 1.359 . S
N1340 C1341 1.327 . S
N1340 Tb1343 2.600 . S
C1341 C1339 1.392 . S
C1341 N1340 1.327 . S
C1341 H1348 0.930 . S
C1342 C1337 1.385 . S
C1342 C1339 1.370 . S
C1342 H1361 0.930 . S
Tb1343 N1340 2.600 . S
Tb1343 N1344 2.660 . S
Tb1343 O1377 2.362 . S
Tb1343 O1378 2.421 . S
Tb1343 O1382 2.546 . S
Tb1343 O1383 2.610 . S
Tb1343 O1385 2.320 . S
Tb1343 O1386 2.552 . S
Tb1343 O1387 2.413 . S
Tb1343 C1407 2.833 . S
N1344 C1336 1.360 . S
N1344 Tb1343 2.660 . S
N1344 C1345 1.305 . S
C1345 N1344 1.305 . S
C1345 C1347 1.407 . S
C1345 H1352 0.930 . S
C1346 C1334 1.410 . S
C1346 C1347 1.345 . S
C1346 H1354 0.930 . S
C1347 C1345 1.407 . S
C1347 C1346 1.345 . S
C1347 H1349 0.930 . S
H1348 C1341 0.930 . S
H1349 C1347 0.930 . S
H1350 C1338 0.930 . S
H1351 C1339 0.931 . S
H1352 C1345 0.930 . S
H1353 C1367 0.930 . S
H1354 C1346 0.930 . S
H1355 C1373 0.930 . S
H1356 C1364 0.930 . S
H1357 C1371 0.931 . S
H1358 C1335 0.929 . S
H1359 C1365 0.930 . S
H1360 C1398 0.930 . S
H1361 C1342 0.930 . S
H1362 C1397 0.929 . S
N1363 Tb1332 2.660 . S
N1363 C1364 1.305 . S
N1363 C1368 1.360 . S
C1364 H1356 0.930 . S
C1364 N1363 1.305 . S
C1364 C1367 1.407 . S
C1365 H1359 0.930 . S
C1365 C1366 1.410 . S
C1365 C1367 1.345 . S
C1366 C1365 1.410 . S
C1366 C1368 1.417 . S
C1366 C1398 1.432 . S
C1367 H1353 0.930 . S
C1367 C1364 1.407 . S
C1367 C1365 1.345 . S
C1368 N1363 1.360 . S
C1368 C1366 1.417 . S
C1368 C1372 1.432 . S
H1369 C1374 0.930 . S
N1370 Tb1332 2.600 . S
N1370 C1372 1.359 . S
N1370 C1373 1.327 . S
C1371 H1357 0.931 . S
C1371 C1373 1.392 . S
C1371 C1374 1.370 . S
C1372 C1368 1.432 . S
C1372 N1370 1.359 . S
C1372 C1375 1.414 . S
C1373 H1355 0.930 . S
C1373 N1370 1.327 . S
C1373 C1371 1.392 . S
C1374 H1369 0.930 . S
C1374 C1371 1.370 . S
C1374 C1375 1.385 . S
C1375 C1372 1.414 . S
C1375 C1374 1.385 . S
C1375 C1397 1.444 . S
O1376 Tb1332 2.546 . S
O1376 C1396 1.251 . S
O1377 Tb1332 2.610 . S
O1377 Tb1343 2.362 . S
O1377 C1388 1.283 . S
O1378 Tb1343 2.421 . S
O1378 C1395 1.262 . S
O1379 Tb1332 2.320 . S
O1379 C1395 1.260 . S
O1380 Tb1332 2.552 . S
O1380 C1388 1.243 . S
O1381 Tb1332 2.413 . S
O1381 C1396 1.256 . S
O1382 Tb1343 2.546 . S
O1382 C1407 1.251 . S
O1383 Tb1332 2.362 . S
O1383 Tb1343 2.610 . S
O1383 C1399 1.283 . S
O1384 Tb1332 2.421 . S
O1384 C1406 1.262 . S
O1385 Tb1343 2.320 . S
O1385 C1406 1.260 . S
O1386 Tb1343 2.552 . S
O1386 C1399 1.243 . S
O1387 Tb1343 2.413 . S
O1387 C1407 1.256 . S
C1388 O1377 1.283 . S
C1388 O1380 1.243 . S
C1389 C1391 1.382 . S
C1389 C1393 1.393 . S
C1389 C1396 1.500 . S
C1390 C1391 1.400 . S
C1390 C1392 1.384 . S
C1391 C1389 1.382 . S
C1391 C1390 1.400 . S
C1391 H1408 0.930 . S
C1392 C1390 1.384 . S
C1392 C1394 1.392 . S
C1392 H1409 0.931 . S
C1393 C1389 1.393 . S
C1393 C1394 1.401 . S
C1393 H1410 0.930 . S
C1394 C1392 1.392 . S
C1394 C1393 1.401 . S
C1394 H1411 0.930 . S
C1395 O1378 1.262 . S
C1395 O1379 1.260 . S
C1396 Tb1332 2.833 . S
C1396 O1376 1.251 . S
C1396 O1381 1.256 . S
C1396 C1389 1.500 . S
C1397 H1362 0.929 . S
C1397 C1375 1.444 . S
C1397 C1398 1.317 . S
C1398 H1360 0.930 . S
C1398 C1366 1.432 . S
C1398 C1397 1.317 . S
C1399 O1383 1.283 . S
C1399 O1386 1.243 . S
C1400 C1401 1.382 . S
C1400 C1404 1.393 . S
C1400 C1407 1.500 . S
C1401 C1400 1.382 . S
C1401 C1402 1.400 . S
C1401 H1412 0.930 . S
C1402 C1401 1.400 . S
C1402 C1403 1.384 . S
C1403 C1402 1.384 . S
C1403 C1405 1.392 . S
C1403 H1413 0.931 . S
C1404 C1400 1.393 . S
C1404 C1405 1.401 . S
C1404 H1414 0.930 . S
C1405 C1403 1.392 . S
C1405 C1404 1.401 . S
C1405 H1415 0.930 . S
C1406 O1384 1.262 . S
C1406 O1385 1.260 . S
C1407 Tb1343 2.833 . S
C1407 O1382 1.251 . S
C1407 O1387 1.256 . S
C1407 C1400 1.500 . S
H1408 C1391 0.930 . S
H1409 C1392 0.931 . S
H1410 C1393 0.930 . S
H1411 C1394 0.930 . S
H1412 C1401 0.930 . S
H1413 C1403 0.931 . S
H1414 C1404 0.930 . S
H1415 C1405 0.930 . S
Tb1416 N1447 2.660 . S
Tb1416 N1454 2.600 . S
Tb1416 O1460 2.546 . S
Tb1416 O1461 2.610 . S
Tb1416 O1463 2.320 . S
Tb1416 O1464 2.552 . S
Tb1416 O1465 2.413 . S
Tb1416 O1467 2.362 . S
Tb1416 O1468 2.421 . S
Tb1416 C1480 2.833 . S
C1417 C1420 1.432 . S
C1417 C1421 1.414 . S
C1417 N1424 1.359 . S
C1418 C1420 1.417 . S
C1418 C1422 1.432 . S
C1418 C1430 1.410 . S
C1419 C1421 1.444 . S
C1419 C1422 1.317 . S
C1419 H1442 0.929 . S
C1420 C1417 1.432 . S
C1420 C1418 1.417 . S
C1420 N1428 1.360 . S
C1421 C1417 1.414 . S
C1421 C1419 1.444 . S
C1421 C1426 1.385 . S
C1422 C1418 1.432 . S
C1422 C1419 1.317 . S
C1422 H1434 0.930 . S
C1423 C1425 1.392 . S
C1423 C1426 1.370 . S
C1423 H1435 0.931 . S
N1424 C1417 1.359 . S
N1424 C1425 1.327 . S
N1424 Tb1427 2.600 . S
C1425 C1423 1.392 . S
C1425 N1424 1.327 . S
C1425 H1432 0.930 . S
C1426 C1421 1.385 . S
C1426 C1423 1.370 . S
C1426 H1445 0.930 . S
Tb1427 N1424 2.600 . S
Tb1427 N1428 2.660 . S
Tb1427 O1461 2.362 . S
Tb1427 O1462 2.421 . S
Tb1427 O1466 2.546 . S
Tb1427 O1467 2.610 . S
Tb1427 O1469 2.320 . S
Tb1427 O1470 2.552 . S
Tb1427 O1471 2.413 . S
Tb1427 C1491 2.833 . S
N1428 C1420 1.360 . S
N1428 Tb1427 2.660 . S
N1428 C1429 1.305 . S
C1429 N1428 1.305 . S
C1429 C1431 1.407 . S
C1429 H1436 0.930 . S
C1430 C1418 1.410 . S
C1430 C1431 1.345 . S
C1430 H1438 0.930 . S
C1431 C1429 1.407 . S
C1431 C1430 1.345 . S
C1431 H1433 0.930 . S
H1432 C1425 0.930 . S
H1433 C1431 0.930 . S
H1434 C1422 0.930 . S
H1435 C1423 0.931 . S
H1436 C1429 0.930 . S
H1437 C1451 0.930 . S
H1438 C1430 0.930 . S
H1439 C1457 0.930 . S
H1440 C1448 0.930 . S
H1441 C1455 0.931 . S
H1442 C1419 0.929 . S
H1443 C1449 0.930 . S
H1444 C1482 0.930 . S
H1445 C1426 0.930 . S
H1446 C1481 0.929 . S
N1447 Tb1416 2.660 . S
N1447 C1448 1.305 . S
N1447 C1452 1.360 . S
C1448 H1440 0.930 . S
C1448 N1447 1.305 . S
C1448 C1451 1.407 . S
C1449 H1443 0.930 . S
C1449 C1450 1.410 . S
C1449 C1451 1.345 . S
C1450 C1449 1.410 . S
C1450 C1452 1.417 . S
C1450 C1482 1.432 . S
C1451 H1437 0.930 . S
C1451 C1448 1.407 . S
C1451 C1449 1.345 . S
C1452 N1447 1.360 . S
C1452 C1450 1.417 . S
C1452 C1456 1.432 . S
H1453 C1458 0.930 . S
N1454 Tb1416 2.600 . S
N1454 C1456 1.359 . S
N1454 C1457 1.327 . S
C1455 H1441 0.931 . S
C1455 C1457 1.392 . S
C1455 C1458 1.370 . S
C1456 C1452 1.432 . S
C1456 N1454 1.359 . S
C1456 C1459 1.414 . S
C1457 H1439 0.930 . S
C1457 N1454 1.327 . S
C1457 C1455 1.392 . S
C1458 H1453 0.930 . S
C1458 C1455 1.370 . S
C1458 C1459 1.385 . S
C1459 C1456 1.414 . S
C1459 C1458 1.385 . S
C1459 C1481 1.444 . S
O1460 Tb1416 2.546 . S
O1460 C1480 1.251 . S
O1461 Tb1416 2.610 . S
O1461 Tb1427 2.362 . S
O1461 C1472 1.283 . S
O1462 Tb1427 2.421 . S
O1462 C1479 1.262 . S
O1463 Tb1416 2.320 . S
O1463 C1479 1.260 . S
O1464 Tb1416 2.552 . S
O1464 C1472 1.243 . S
O1465 Tb1416 2.413 . S
O1465 C1480 1.256 . S
O1466 Tb1427 2.546 . S
O1466 C1491 1.251 . S
O1467 Tb1416 2.362 . S
O1467 Tb1427 2.610 . S
O1467 C1483 1.283 . S
O1468 Tb1416 2.421 . S
O1468 C1490 1.262 . S
O1469 Tb1427 2.320 . S
O1469 C1490 1.260 . S
O1470 Tb1427 2.552 . S
O1470 C1483 1.243 . S
O1471 Tb1427 2.413 . S
O1471 C1491 1.256 . S
C1472 O1461 1.283 . S
C1472 O1464 1.243 . S
C1473 C1475 1.382 . S
C1473 C1477 1.393 . S
C1473 C1480 1.500 . S
C1474 C1475 1.400 . S
C1474 C1476 1.384 . S
C1475 C1473 1.382 . S
C1475 C1474 1.400 . S
C1475 H1492 0.930 . S
C1476 C1474 1.384 . S
C1476 C1478 1.392 . S
C1476 H1493 0.931 . S
C1477 C1473 1.393 . S
C1477 C1478 1.401 . S
C1477 H1494 0.930 . S
C1478 C1476 1.392 . S
C1478 C1477 1.401 . S
C1478 H1495 0.930 . S
C1479 O1462 1.262 . S
C1479 O1463 1.260 . S
C1480 Tb1416 2.833 . S
C1480 O1460 1.251 . S
C1480 O1465 1.256 . S
C1480 C1473 1.500 . S
C1481 H1446 0.929 . S
C1481 C1459 1.444 . S
C1481 C1482 1.317 . S
C1482 H1444 0.930 . S
C1482 C1450 1.432 . S
C1482 C1481 1.317 . S
C1483 O1467 1.283 . S
C1483 O1470 1.243 . S
C1484 C1485 1.382 . S
C1484 C1488 1.393 . S
C1484 C1491 1.500 . S
C1485 C1484 1.382 . S
C1485 C1486 1.400 . S
C1485 H1496 0.930 . S
C1486 C1485 1.400 . S
C1486 C1487 1.384 . S
C1487 C1486 1.384 . S
C1487 C1489 1.392 . S
C1487 H1497 0.931 . S
C1488 C1484 1.393 . S
C1488 C1489 1.401 . S
C1488 H1498 0.930 . S
C1489 C1487 1.392 . S
C1489 C1488 1.401 . S
C1489 H1499 0.930 . S
C1490 O1468 1.262 . S
C1490 O1469 1.260 . S
C1491 Tb1427 2.833 . S
C1491 O1466 1.251 . S
C1491 O1471 1.256 . S
C1491 C1484 1.500 . S
H1492 C1475 0.930 . S
H1493 C1476 0.931 . S
H1494 C1477 0.930 . S
H1495 C1478 0.930 . S
H1496 C1485 0.930 . S
H1497 C1487 0.931 . S
H1498 C1488 0.930 . S
H1499 C1489 0.930 . S
Tb1500 N1531 2.660 . S
Tb1500 N1538 2.600 . S
Tb1500 O1544 2.546 . S
Tb1500 O1545 2.610 . S
Tb1500 O1547 2.320 . S
Tb1500 O1548 2.552 . S
Tb1500 O1549 2.413 . S
Tb1500 O1551 2.362 . S
Tb1500 O1552 2.421 . S
Tb1500 C1564 2.833 . S
C1501 C1504 1.432 . S
C1501 C1505 1.414 . S
C1501 N1508 1.359 . S
C1502 C1504 1.417 . S
C1502 C1506 1.432 . S
C1502 C1514 1.410 . S
C1503 C1505 1.444 . S
C1503 C1506 1.317 . S
C1503 H1526 0.929 . S
C1504 C1501 1.432 . S
C1504 C1502 1.417 . S
C1504 N1512 1.360 . S
C1505 C1501 1.414 . S
C1505 C1503 1.444 . S
C1505 C1510 1.385 . S
C1506 C1502 1.432 . S
C1506 C1503 1.317 . S
C1506 H1518 0.930 . S
C1507 C1509 1.392 . S
C1507 C1510 1.370 . S
C1507 H1519 0.931 . S
N1508 C1501 1.359 . S
N1508 C1509 1.327 . S
N1508 Tb1511 2.600 . S
C1509 C1507 1.392 . S
C1509 N1508 1.327 . S
C1509 H1516 0.930 . S
C1510 C1505 1.385 . S
C1510 C1507 1.370 . S
C1510 H1529 0.930 . S
Tb1511 N1508 2.600 . S
Tb1511 N1512 2.660 . S
Tb1511 O1545 2.362 . S
Tb1511 O1546 2.421 . S
Tb1511 O1550 2.546 . S
Tb1511 O1551 2.610 . S
Tb1511 O1553 2.320 . S
Tb1511 O1554 2.552 . S
Tb1511 O1555 2.413 . S
Tb1511 C1575 2.833 . S
N1512 C1504 1.360 . S
N1512 Tb1511 2.660 . S
N1512 C1513 1.305 . S
C1513 N1512 1.305 . S
C1513 C1515 1.407 . S
C1513 H1520 0.930 . S
C1514 C1502 1.410 . S
C1514 C1515 1.345 . S
C1514 H1522 0.930 . S
C1515 C1513 1.407 . S
C1515 C1514 1.345 . S
C1515 H1517 0.930 . S
H1516 C1509 0.930 . S
H1517 C1515 0.930 . S
H1518 C1506 0.930 . S
H1519 C1507 0.931 . S
H1520 C1513 0.930 . S
H1521 C1535 0.930 . S
H1522 C1514 0.930 . S
H1523 C1541 0.930 . S
H1524 C1532 0.930 . S
H1525 C1539 0.931 . S
H1526 C1503 0.929 . S
H1527 C1533 0.930 . S
H1528 C1566 0.930 . S
H1529 C1510 0.930 . S
H1530 C1565 0.929 . S
N1531 Tb1500 2.660 . S
N1531 C1532 1.305 . S
N1531 C1536 1.360 . S
C1532 H1524 0.930 . S
C1532 N1531 1.305 . S
C1532 C1535 1.407 . S
C1533 H1527 0.930 . S
C1533 C1534 1.410 . S
C1533 C1535 1.345 . S
C1534 C1533 1.410 . S
C1534 C1536 1.417 . S
C1534 C1566 1.432 . S
C1535 H1521 0.930 . S
C1535 C1532 1.407 . S
C1535 C1533 1.345 . S
C1536 N1531 1.360 . S
C1536 C1534 1.417 . S
C1536 C1540 1.432 . S
H1537 C1542 0.930 . S
N1538 Tb1500 2.600 . S
N1538 C1540 1.359 . S
N1538 C1541 1.327 . S
C1539 H1525 0.931 . S
C1539 C1541 1.392 . S
C1539 C1542 1.370 . S
C1540 C1536 1.432 . S
C1540 N1538 1.359 . S
C1540 C1543 1.414 . S
C1541 H1523 0.930 . S
C1541 N1538 1.327 . S
C1541 C1539 1.392 . S
C1542 H1537 0.930 . S
C1542 C1539 1.370 . S
C1542 C1543 1.385 . S
C1543 C1540 1.414 . S
C1543 C1542 1.385 . S
C1543 C1565 1.444 . S
O1544 Tb1500 2.546 . S
O1544 C1564 1.251 . S
O1545 Tb1500 2.610 . S
O1545 Tb1511 2.362 . S
O1545 C1556 1.283 . S
O1546 Tb1511 2.421 . S
O1546 C1563 1.262 . S
O1547 Tb1500 2.320 . S
O1547 C1563 1.260 . S
O1548 Tb1500 2.552 . S
O1548 C1556 1.243 . S
O1549 Tb1500 2.413 . S
O1549 C1564 1.256 . S
O1550 Tb1511 2.546 . S
O1550 C1575 1.251 . S
O1551 Tb1500 2.362 . S
O1551 Tb1511 2.610 . S
O1551 C1567 1.283 . S
O1552 Tb1500 2.421 . S
O1552 C1574 1.262 . S
O1553 Tb1511 2.320 . S
O1553 C1574 1.260 . S
O1554 Tb1511 2.552 . S
O1554 C1567 1.243 . S
O1555 Tb1511 2.413 . S
O1555 C1575 1.256 . S
C1556 O1545 1.283 . S
C1556 O1548 1.243 . S
C1557 C1559 1.382 . S
C1557 C1561 1.393 . S
C1557 C1564 1.500 . S
C1558 C1559 1.400 . S
C1558 C1560 1.384 . S
C1559 C1557 1.382 . S
C1559 C1558 1.400 . S
C1559 H1576 0.930 . S
C1560 C1558 1.384 . S
C1560 C1562 1.392 . S
C1560 H1577 0.931 . S
C1561 C1557 1.393 . S
C1561 C1562 1.401 . S
C1561 H1578 0.930 . S
C1562 C1560 1.392 . S
C1562 C1561 1.401 . S
C1562 H1579 0.930 . S
C1563 O1546 1.262 . S
C1563 O1547 1.260 . S
C1564 Tb1500 2.833 . S
C1564 O1544 1.251 . S
C1564 O1549 1.256 . S
C1564 C1557 1.500 . S
C1565 H1530 0.929 . S
C1565 C1543 1.444 . S
C1565 C1566 1.317 . S
C1566 H1528 0.930 . S
C1566 C1534 1.432 . S
C1566 C1565 1.317 . S
C1567 O1551 1.283 . S
C1567 O1554 1.243 . S
C1568 C1569 1.382 . S
C1568 C1572 1.393 . S
C1568 C1575 1.500 . S
C1569 C1568 1.382 . S
C1569 C1570 1.400 . S
C1569 H1580 0.930 . S
C1570 C1569 1.400 . S
C1570 C1571 1.384 . S
C1571 C1570 1.384 . S
C1571 C1573 1.392 . S
C1571 H1581 0.931 . S
C1572 C1568 1.393 . S
C1572 C1573 1.401 . S
C1572 H1582 0.930 . S
C1573 C1571 1.392 . S
C1573 C1572 1.401 . S
C1573 H1583 0.930 . S
C1574 O1552 1.262 . S
C1574 O1553 1.260 . S
C1575 Tb1511 2.833 . S
C1575 O1550 1.251 . S
C1575 O1555 1.256 . S
C1575 C1568 1.500 . S
H1576 C1559 0.930 . S
H1577 C1560 0.931 . S
H1578 C1561 0.930 . S
H1579 C1562 0.930 . S
H1580 C1569 0.930 . S
H1581 C1571 0.931 . S
H1582 C1572 0.930 . S
H1583 C1573 0.930 . S
Tb1584 N1615 2.660 . S
Tb1584 N1622 2.600 . S
Tb1584 O1628 2.546 . S
Tb1584 O1629 2.610 . S
Tb1584 O1631 2.320 . S
Tb1584 O1632 2.552 . S
Tb1584 O1633 2.413 . S
Tb1584 O1635 2.362 . S
Tb1584 O1636 2.421 . S
Tb1584 C1648 2.833 . S
C1585 C1588 1.432 . S
C1585 C1589 1.414 . S
C1585 N1592 1.359 . S
C1586 C1588 1.417 . S
C1586 C1590 1.432 . S
C1586 C1598 1.410 . S
C1587 C1589 1.444 . S
C1587 C1590 1.317 . S
C1587 H1610 0.929 . S
C1588 C1585 1.432 . S
C1588 C1586 1.417 . S
C1588 N1596 1.360 . S
C1589 C1585 1.414 . S
C1589 C1587 1.444 . S
C1589 C1594 1.385 . S
C1590 C1586 1.432 . S
C1590 C1587 1.317 . S
C1590 H1602 0.930 . S
C1591 C1593 1.392 . S
C1591 C1594 1.370 . S
C1591 H1603 0.931 . S
N1592 C1585 1.359 . S
N1592 C1593 1.327 . S
N1592 Tb1595 2.600 . S
C1593 C1591 1.392 . S
C1593 N1592 1.327 . S
C1593 H1600 0.930 . S
C1594 C1589 1.385 . S
C1594 C1591 1.370 . S
C1594 H1613 0.930 . S
Tb1595 N1592 2.600 . S
Tb1595 N1596 2.660 . S
Tb1595 O1629 2.362 . S
Tb1595 O1630 2.421 . S
Tb1595 O1634 2.546 . S
Tb1595 O1635 2.610 . S
Tb1595 O1637 2.320 . S
Tb1595 O1638 2.552 . S
Tb1595 O1639 2.413 . S
Tb1595 C1659 2.833 . S
N1596 C1588 1.360 . S
N1596 Tb1595 2.660 . S
N1596 C1597 1.305 . S
C1597 N1596 1.305 . S
C1597 C1599 1.407 . S
C1597 H1604 0.930 . S
C1598 C1586 1.410 . S
C1598 C1599 1.345 . S
C1598 H1606 0.930 . S
C1599 C1597 1.407 . S
C1599 C1598 1.345 . S
C1599 H1601 0.930 . S
H1600 C1593 0.930 . S
H1601 C1599 0.930 . S
H1602 C1590 0.930 . S
H1603 C1591 0.931 . S
H1604 C1597 0.930 . S
H1605 C1619 0.930 . S
H1606 C1598 0.930 . S
H1607 C1625 0.930 . S
H1608 C1616 0.930 . S
H1609 C1623 0.931 . S
H1610 C1587 0.929 . S
H1611 C1617 0.930 . S
H1612 C1650 0.930 . S
H1613 C1594 0.930 . S
H1614 C1649 0.929 . S
N1615 Tb1584 2.660 . S
N1615 C1616 1.305 . S
N1615 C1620 1.360 . S
C1616 H1608 0.930 . S
C1616 N1615 1.305 . S
C1616 C1619 1.407 . S
C1617 H1611 0.930 . S
C1617 C1618 1.410 . S
C1617 C1619 1.345 . S
C1618 C1617 1.410 . S
C1618 C1620 1.417 . S
C1618 C1650 1.432 . S
C1619 H1605 0.930 . S
C1619 C1616 1.407 . S
C1619 C1617 1.345 . S
C1620 N1615 1.360 . S
C1620 C1618 1.417 . S
C1620 C1624 1.432 . S
H1621 C1626 0.930 . S
N1622 Tb1584 2.600 . S
N1622 C1624 1.359 . S
N1622 C1625 1.327 . S
C1623 H1609 0.931 . S
C1623 C1625 1.392 . S
C1623 C1626 1.370 . S
C1624 C1620 1.432 . S
C1624 N1622 1.359 . S
C1624 C1627 1.414 . S
C1625 H1607 0.930 . S
C1625 N1622 1.327 . S
C1625 C1623 1.392 . S
C1626 H1621 0.930 . S
C1626 C1623 1.370 . S
C1626 C1627 1.385 . S
C1627 C1624 1.414 . S
C1627 C1626 1.385 . S
C1627 C1649 1.444 . S
O1628 Tb1584 2.546 . S
O1628 C1648 1.251 . S
O1629 Tb1584 2.610 . S
O1629 Tb1595 2.362 . S
O1629 C1640 1.283 . S
O1630 Tb1595 2.421 . S
O1630 C1647 1.262 . S
O1631 Tb1584 2.320 . S
O1631 C1647 1.260 . S
O1632 Tb1584 2.552 . S
O1632 C1640 1.243 . S
O1633 Tb1584 2.413 . S
O1633 C1648 1.256 . S
O1634 Tb1595 2.546 . S
O1634 C1659 1.251 . S
O1635 Tb1584 2.362 . S
O1635 Tb1595 2.610 . S
O1635 C1651 1.283 . S
O1636 Tb1584 2.421 . S
O1636 C1658 1.262 . S
O1637 Tb1595 2.320 . S
O1637 C1658 1.260 . S
O1638 Tb1595 2.552 . S
O1638 C1651 1.243 . S
O1639 Tb1595 2.413 . S
O1639 C1659 1.256 . S
C1640 O1629 1.283 . S
C1640 O1632 1.243 . S
C1641 C1643 1.382 . S
C1641 C1645 1.393 . S
C1641 C1648 1.500 . S
C1642 C1643 1.400 . S
C1642 C1644 1.384 . S
C1643 C1641 1.382 . S
C1643 C1642 1.400 . S
C1643 H1660 0.930 . S
C1644 C1642 1.384 . S
C1644 C1646 1.392 . S
C1644 H1661 0.931 . S
C1645 C1641 1.393 . S
C1645 C1646 1.401 . S
C1645 H1662 0.930 . S
C1646 C1644 1.392 . S
C1646 C1645 1.401 . S
C1646 H1663 0.930 . S
C1647 O1630 1.262 . S
C1647 O1631 1.260 . S
C1648 Tb1584 2.833 . S
C1648 O1628 1.251 . S
C1648 O1633 1.256 . S
C1648 C1641 1.500 . S
C1649 H1614 0.929 . S
C1649 C1627 1.444 . S
C1649 C1650 1.317 . S
C1650 H1612 0.930 . S
C1650 C1618 1.432 . S
C1650 C1649 1.317 . S
C1651 O1635 1.283 . S
C1651 O1638 1.243 . S
C1652 C1653 1.382 . S
C1652 C1656 1.393 . S
C1652 C1659 1.500 . S
C1653 C1652 1.382 . S
C1653 C1654 1.400 . S
C1653 H1664 0.930 . S
C1654 C1653 1.400 . S
C1654 C1655 1.384 . S
C1655 C1654 1.384 . S
C1655 C1657 1.392 . S
C1655 H1665 0.931 . S
C1656 C1652 1.393 . S
C1656 C1657 1.401 . S
C1656 H1666 0.930 . S
C1657 C1655 1.392 . S
C1657 C1656 1.401 . S
C1657 H1667 0.930 . S
C1658 O1636 1.262 . S
C1658 O1637 1.260 . S
C1659 Tb1595 2.833 . S
C1659 O1634 1.251 . S
C1659 O1639 1.256 . S
C1659 C1652 1.500 . S
H1660 C1643 0.930 . S
H1661 C1644 0.931 . S
H1662 C1645 0.930 . S
H1663 C1646 0.930 . S
H1664 C1653 0.930 . S
H1665 C1655 0.931 . S
H1666 C1656 0.930 . S
H1667 C1657 0.930 . S
Tb1668 N1699 2.660 . S
Tb1668 N1706 2.600 . S
Tb1668 O1712 2.546 . S
Tb1668 O1713 2.610 . S
Tb1668 O1715 2.320 . S
Tb1668 O1716 2.552 . S
Tb1668 O1717 2.413 . S
Tb1668 O1719 2.362 . S
Tb1668 O1720 2.421 . S
Tb1668 C1732 2.833 . S
C1669 C1672 1.432 . S
C1669 C1673 1.414 . S
C1669 N1676 1.359 . S
C1670 C1672 1.417 . S
C1670 C1674 1.432 . S
C1670 C1682 1.410 . S
C1671 C1673 1.444 . S
C1671 C1674 1.317 . S
C1671 H1694 0.929 . S
C1672 C1669 1.432 . S
C1672 C1670 1.417 . S
C1672 N1680 1.360 . S
C1673 C1669 1.414 . S
C1673 C1671 1.444 . S
C1673 C1678 1.385 . S
C1674 C1670 1.432 . S
C1674 C1671 1.317 . S
C1674 H1686 0.930 . S
C1675 C1677 1.392 . S
C1675 C1678 1.370 . S
C1675 H1687 0.931 . S
N1676 C1669 1.359 . S
N1676 C1677 1.327 . S
N1676 Tb1679 2.600 . S
C1677 C1675 1.392 . S
C1677 N1676 1.327 . S
C1677 H1684 0.930 . S
C1678 C1673 1.385 . S
C1678 C1675 1.370 . S
C1678 H1697 0.930 . S
Tb1679 N1676 2.600 . S
Tb1679 N1680 2.660 . S
Tb1679 O1713 2.362 . S
Tb1679 O1714 2.421 . S
Tb1679 O1718 2.546 . S
Tb1679 O1719 2.610 . S
Tb1679 O1721 2.320 . S
Tb1679 O1722 2.552 . S
Tb1679 O1723 2.413 . S
Tb1679 C1743 2.833 . S
N1680 C1672 1.360 . S
N1680 Tb1679 2.660 . S
N1680 C1681 1.305 . S
C1681 N1680 1.305 . S
C1681 C1683 1.407 . S
C1681 H1688 0.930 . S
C1682 C1670 1.410 . S
C1682 C1683 1.345 . S
C1682 H1690 0.930 . S
C1683 C1681 1.407 . S
C1683 C1682 1.345 . S
C1683 H1685 0.930 . S
H1684 C1677 0.930 . S
H1685 C1683 0.930 . S
H1686 C1674 0.930 . S
H1687 C1675 0.931 . S
H1688 C1681 0.930 . S
H1689 C1703 0.930 . S
H1690 C1682 0.930 . S
H1691 C1709 0.930 . S
H1692 C1700 0.930 . S
H1693 C1707 0.931 . S
H1694 C1671 0.929 . S
H1695 C1701 0.930 . S
H1696 C1734 0.930 . S
H1697 C1678 0.930 . S
H1698 C1733 0.929 . S
N1699 Tb1668 2.660 . S
N1699 C1700 1.305 . S
N1699 C1704 1.360 . S
C1700 H1692 0.930 . S
C1700 N1699 1.305 . S
C1700 C1703 1.407 . S
C1701 H1695 0.930 . S
C1701 C1702 1.410 . S
C1701 C1703 1.345 . S
C1702 C1701 1.410 . S
C1702 C1704 1.417 . S
C1702 C1734 1.432 . S
C1703 H1689 0.930 . S
C1703 C1700 1.407 . S
C1703 C1701 1.345 . S
C1704 N1699 1.360 . S
C1704 C1702 1.417 . S
C1704 C1708 1.432 . S
H1705 C1710 0.930 . S
N1706 Tb1668 2.600 . S
N1706 C1708 1.359 . S
N1706 C1709 1.327 . S
C1707 H1693 0.931 . S
C1707 C1709 1.392 . S
C1707 C1710 1.370 . S
C1708 C1704 1.432 . S
C1708 N1706 1.359 . S
C1708 C1711 1.414 . S
C1709 H1691 0.930 . S
C1709 N1706 1.327 . S
C1709 C1707 1.392 . S
C1710 H1705 0.930 . S
C1710 C1707 1.370 . S
C1710 C1711 1.385 . S
C1711 C1708 1.414 . S
C1711 C1710 1.385 . S
C1711 C1733 1.444 . S
O1712 Tb1668 2.546 . S
O1712 C1732 1.251 . S
O1713 Tb1668 2.610 . S
O1713 Tb1679 2.362 . S
O1713 C1724 1.283 . S
O1714 Tb1679 2.421 . S
O1714 C1731 1.262 . S
O1715 Tb1668 2.320 . S
O1715 C1731 1.260 . S
O1716 Tb1668 2.552 . S
O1716 C1724 1.243 . S
O1717 Tb1668 2.413 . S
O1717 C1732 1.256 . S
O1718 Tb1679 2.546 . S
O1718 C1743 1.251 . S
O1719 Tb1668 2.362 . S
O1719 Tb1679 2.610 . S
O1719 C1735 1.283 . S
O1720 Tb1668 2.421 . S
O1720 C1742 1.262 . S
O1721 Tb1679 2.320 . S
O1721 C1742 1.260 . S
O1722 Tb1679 2.552 . S
O1722 C1735 1.243 . S
O1723 Tb1679 2.413 . S
O1723 C1743 1.256 . S
C1724 O1713 1.283 . S
C1724 O1716 1.243 . S
C1725 C1727 1.382 . S
C1725 C1729 1.393 . S
C1725 C1732 1.500 . S
C1726 C1727 1.400 . S
C1726 C1728 1.384 . S
C1727 C1725 1.382 . S
C1727 C1726 1.400 . S
C1727 H1744 0.930 . S
C1728 C1726 1.384 . S
C1728 C1730 1.392 . S
C1728 H1745 0.931 . S
C1729 C1725 1.393 . S
C1729 C1730 1.401 . S
C1729 H1746 0.930 . S
C1730 C1728 1.392 . S
C1730 C1729 1.401 . S
C1730 H1747 0.930 . S
C1731 O1714 1.262 . S
C1731 O1715 1.260 . S
C1732 Tb1668 2.833 . S
C1732 O1712 1.251 . S
C1732 O1717 1.256 . S
C1732 C1725 1.500 . S
C1733 H1698 0.929 . S
C1733 C1711 1.444 . S
C1733 C1734 1.317 . S
C1734 H1696 0.930 . S
C1734 C1702 1.432 . S
C1734 C1733 1.317 . S
C1735 O1719 1.283 . S
C1735 O1722 1.243 . S
C1736 C1737 1.382 . S
C1736 C1740 1.393 . S
C1736 C1743 1.500 . S
C1737 C1736 1.382 . S
C1737 C1738 1.400 . S
C1737 H1748 0.930 . S
C1738 C1737 1.400 . S
C1738 C1739 1.384 . S
C1739 C1738 1.384 . S
C1739 C1741 1.392 . S
C1739 H1749 0.931 . S
C1740 C1736 1.393 . S
C1740 C1741 1.401 . S
C1740 H1750 0.930 . S
C1741 C1739 1.392 . S
C1741 C1740 1.401 . S
C1741 H1751 0.930 . S
C1742 O1720 1.262 . S
C1742 O1721 1.260 . S
C1743 Tb1679 2.833 . S
C1743 O1718 1.251 . S
C1743 O1723 1.256 . S
C1743 C1736 1.500 . S
H1744 C1727 0.930 . S
H1745 C1728 0.931 . S
H1746 C1729 0.930 . S
H1747 C1730 0.930 . S
H1748 C1737 0.930 . S
H1749 C1739 0.931 . S
H1750 C1740 0.930 . S
H1751 C1741 0.930 . S
Tb1752 N1783 2.660 . S
Tb1752 N1790 2.600 . S
Tb1752 O1796 2.546 . S
Tb1752 O1797 2.610 . S
Tb1752 O1799 2.320 . S
Tb1752 O1800 2.552 . S
Tb1752 O1801 2.413 . S
Tb1752 O1803 2.362 . S
Tb1752 O1804 2.421 . S
Tb1752 C1816 2.833 . S
C1753 C1756 1.432 . S
C1753 C1757 1.414 . S
C1753 N1760 1.359 . S
C1754 C1756 1.417 . S
C1754 C1758 1.432 . S
C1754 C1766 1.410 . S
C1755 C1757 1.444 . S
C1755 C1758 1.317 . S
C1755 H1778 0.929 . S
C1756 C1753 1.432 . S
C1756 C1754 1.417 . S
C1756 N1764 1.360 . S
C1757 C1753 1.414 . S
C1757 C1755 1.444 . S
C1757 C1762 1.385 . S
C1758 C1754 1.432 . S
C1758 C1755 1.317 . S
C1758 H1770 0.930 . S
C1759 C1761 1.392 . S
C1759 C1762 1.370 . S
C1759 H1771 0.931 . S
N1760 C1753 1.359 . S
N1760 C1761 1.327 . S
N1760 Tb1763 2.600 . S
C1761 C1759 1.392 . S
C1761 N1760 1.327 . S
C1761 H1768 0.930 . S
C1762 C1757 1.385 . S
C1762 C1759 1.370 . S
C1762 H1781 0.930 . S
Tb1763 N1760 2.600 . S
Tb1763 N1764 2.660 . S
Tb1763 O1797 2.362 . S
Tb1763 O1798 2.421 . S
Tb1763 O1802 2.546 . S
Tb1763 O1803 2.610 . S
Tb1763 O1805 2.320 . S
Tb1763 O1806 2.552 . S
Tb1763 O1807 2.413 . S
Tb1763 C1827 2.833 . S
N1764 C1756 1.360 . S
N1764 Tb1763 2.660 . S
N1764 C1765 1.305 . S
C1765 N1764 1.305 . S
C1765 C1767 1.407 . S
C1765 H1772 0.930 . S
C1766 C1754 1.410 . S
C1766 C1767 1.345 . S
C1766 H1774 0.930 . S
C1767 C1765 1.407 . S
C1767 C1766 1.345 . S
C1767 H1769 0.930 . S
H1768 C1761 0.930 . S
H1769 C1767 0.930 . S
H1770 C1758 0.930 . S
H1771 C1759 0.931 . S
H1772 C1765 0.930 . S
H1773 C1787 0.930 . S
H1774 C1766 0.930 . S
H1775 C1793 0.930 . S
H1776 C1784 0.930 . S
H1777 C1791 0.931 . S
H1778 C1755 0.929 . S
H1779 C1785 0.930 . S
H1780 C1818 0.930 . S
H1781 C1762 0.930 . S
H1782 C1817 0.929 . S
N1783 Tb1752 2.660 . S
N1783 C1784 1.305 . S
N1783 C1788 1.360 . S
C1784 H1776 0.930 . S
C1784 N1783 1.305 . S
C1784 C1787 1.407 . S
C1785 H1779 0.930 . S
C1785 C1786 1.410 . S
C1785 C1787 1.345 . S
C1786 C1785 1.410 . S
C1786 C1788 1.417 . S
C1786 C1818 1.432 . S
C1787 H1773 0.930 . S
C1787 C1784 1.407 . S
C1787 C1785 1.345 . S
C1788 N1783 1.360 . S
C1788 C1786 1.417 . S
C1788 C1792 1.432 . S
H1789 C1794 0.930 . S
N1790 Tb1752 2.600 . S
N1790 C1792 1.359 . S
N1790 C1793 1.327 . S
C1791 H1777 0.931 . S
C1791 C1793 1.392 . S
C1791 C1794 1.370 . S
C1792 C1788 1.432 . S
C1792 N1790 1.359 . S
C1792 C1795 1.414 . S
C1793 H1775 0.930 . S
C1793 N1790 1.327 . S
C1793 C1791 1.392 . S
C1794 H1789 0.930 . S
C1794 C1791 1.370 . S
C1794 C1795 1.385 . S
C1795 C1792 1.414 . S
C1795 C1794 1.385 . S
C1795 C1817 1.444 . S
O1796 Tb1752 2.546 . S
O1796 C1816 1.251 . S
O1797 Tb1752 2.610 . S
O1797 Tb1763 2.362 . S
O1797 C1808 1.283 . S
O1798 Tb1763 2.421 . S
O1798 C1815 1.262 . S
O1799 Tb1752 2.320 . S
O1799 C1815 1.260 . S
O1800 Tb1752 2.552 . S
O1800 C1808 1.243 . S
O1801 Tb1752 2.413 . S
O1801 C1816 1.256 . S
O1802 Tb1763 2.546 . S
O1802 C1827 1.251 . S
O1803 Tb1752 2.362 . S
O1803 Tb1763 2.610 . S
O1803 C1819 1.283 . S
O1804 Tb1752 2.421 . S
O1804 C1826 1.262 . S
O1805 Tb1763 2.320 . S
O1805 C1826 1.260 . S
O1806 Tb1763 2.552 . S
O1806 C1819 1.243 . S
O1807 Tb1763 2.413 . S
O1807 C1827 1.256 . S
C1808 O1797 1.283 . S
C1808 O1800 1.243 . S
C1809 C1811 1.382 . S
C1809 C1813 1.393 . S
C1809 C1816 1.500 . S
C1810 C1811 1.400 . S
C1810 C1812 1.384 . S
C1811 C1809 1.382 . S
C1811 C1810 1.400 . S
C1811 H1828 0.930 . S
C1812 C1810 1.384 . S
C1812 C1814 1.392 . S
C1812 H1829 0.931 . S
C1813 C1809 1.393 . S
C1813 C1814 1.401 . S
C1813 H1830 0.930 . S
C1814 C1812 1.392 . S
C1814 C1813 1.401 . S
C1814 H1831 0.930 . S
C1815 O1798 1.262 . S
C1815 O1799 1.260 . S
C1816 Tb1752 2.833 . S
C1816 O1796 1.251 . S
C1816 O1801 1.256 . S
C1816 C1809 1.500 . S
C1817 H1782 0.929 . S
C1817 C1795 1.444 . S
C1817 C1818 1.317 . S
C1818 H1780 0.930 . S
C1818 C1786 1.432 . S
C1818 C1817 1.317 . S
C1819 O1803 1.283 . S
C1819 O1806 1.243 . S
C1820 C1821 1.382 . S
C1820 C1824 1.393 . S
C1820 C1827 1.500 . S
C1821 C1820 1.382 . S
C1821 C1822 1.400 . S
C1821 H1832 0.930 . S
C1822 C1821 1.400 . S
C1822 C1823 1.384 . S
C1823 C1822 1.384 . S
C1823 C1825 1.392 . S
C1823 H1833 0.931 . S
C1824 C1820 1.393 . S
C1824 C1825 1.401 . S
C1824 H1834 0.930 . S
C1825 C1823 1.392 . S
C1825 C1824 1.401 . S
C1825 H1835 0.930 . S
C1826 O1804 1.262 . S
C1826 O1805 1.260 . S
C1827 Tb1763 2.833 . S
C1827 O1802 1.251 . S
C1827 O1807 1.256 . S
C1827 C1820 1.500 . S
H1828 C1811 0.930 . S
H1829 C1812 0.931 . S
H1830 C1813 0.930 . S
H1831 C1814 0.930 . S
H1832 C1821 0.930 . S
H1833 C1823 0.931 . S
H1834 C1824 0.930 . S
H1835 C1825 0.930 . S
C1836 C1837 1.369 . S
C1836 C1838 1.419 . S
C1836 H1840 0.930 . S
C1837 C1836 1.369 . S
C1837 C1846 1.429 . S
C1838 C1836 1.419 . S
C1838 C1839 1.363 . S
C1838 H1841 0.929 . S
C1839 C1838 1.363 . S
C1839 C1845 1.428 . S
H1840 C1836 0.930 . S
H1841 C1838 0.929 . S
S1842 N1843 1.613 . S
S1842 N1844 1.610 . S
N1843 S1842 1.613 . S
N1843 C1846 1.350 . S
N1844 S1842 1.610 . S
N1844 C1845 1.351 . S
C1845 C1839 1.428 . S
C1845 N1844 1.351 . S
C1845 C1846 1.434 . S
C1846 C1837 1.429 . S
C1846 N1843 1.350 . S
C1846 C1845 1.434 . S
C1847 C1848 1.369 . S
C1847 C1849 1.419 . S
C1847 H1851 0.930 . S
C1848 C1847 1.369 . S
C1848 C1857 1.429 . S
C1849 C1847 1.419 . S
C1849 C1850 1.363 . S
C1849 H1852 0.929 . S
C1850 C1849 1.363 . S
C1850 C1856 1.428 . S
H1851 C1847 0.930 . S
H1852 C1849 0.929 . S
S1853 N1854 1.613 1_556 S
S1853 N1855 1.610 . S
N1854 S1853 1.613 1_554 S
N1854 C1857 1.350 . S
N1855 S1853 1.610 . S
N1855 C1856 1.351 1_556 S
C1856 C1850 1.428 . S
C1856 N1855 1.351 1_554 S
C1856 C1857 1.434 . S
C1857 C1848 1.429 . S
C1857 N1854 1.350 . S
C1857 C1856 1.434 . S
C1858 C1859 1.369 . S
C1858 C1860 1.419 . S
C1858 H1862 0.930 . S
C1859 C1858 1.369 . S
C1859 C1868 1.429 . S
C1860 C1858 1.419 . S
C1860 C1861 1.363 . S
C1860 H1863 0.929 . S
C1861 C1860 1.363 . S
C1861 C1867 1.428 . S
H1862 C1858 0.930 . S
H1863 C1860 0.929 . S
S1864 N1865 1.613 . S
S1864 N1866 1.610 . S
N1865 S1864 1.613 . S
N1865 C1868 1.350 1_556 S
N1866 S1864 1.610 . S
N1866 C1867 1.351 1_556 S
C1867 C1861 1.428 . S
C1867 N1866 1.351 1_554 S
C1867 C1868 1.434 . S
C1868 C1859 1.429 . S
C1868 N1865 1.350 1_554 S
C1868 C1867 1.434 . S
C1869 C1870 1.369 . S
C1869 C1871 1.419 . S
C1869 H1873 0.930 . S
C1870 C1869 1.369 . S
C1870 C1879 1.429 . S
C1871 C1869 1.419 . S
C1871 C1872 1.363 . S
C1871 H1874 0.929 . S
C1872 C1871 1.363 . S
C1872 C1878 1.428 . S
H1873 C1869 0.930 . S
H1874 C1871 0.929 . S
S1875 N1876 1.613 . S
S1875 N1877 1.610 . S
N1876 S1875 1.613 . S
N1876 C1879 1.350 . S
N1877 S1875 1.610 . S
N1877 C1878 1.351 . S
C1878 C1872 1.428 . S
C1878 N1877 1.351 . S
C1878 C1879 1.434 . S
C1879 C1870 1.429 . S
C1879 N1876 1.350 . S
C1879 C1878 1.434 . S
C1880 C1881 1.369 . S
C1880 C1882 1.419 . S
C1880 H1884 0.930 . S
C1881 C1880 1.369 . S
C1881 C1890 1.429 . S
C1882 C1880 1.419 . S
C1882 C1883 1.363 . S
C1882 H1885 0.929 1_556 S
C1883 C1882 1.363 . S
C1883 C1889 1.428 . S
H1884 C1880 0.930 . S
H1885 C1882 0.929 1_554 S
S1886 N1887 1.613 . S
S1886 N1888 1.610 . S
N1887 S1886 1.613 . S
N1887 C1890 1.350 . S
N1888 S1886 1.610 . S
N1888 C1889 1.351 . S
C1889 C1883 1.428 . S
C1889 N1888 1.351 . S
C1889 C1890 1.434 . S
C1890 C1881 1.429 . S
C1890 N1887 1.350 . S
C1890 C1889 1.434 . S
C1891 C1892 1.369 . S
C1891 C1893 1.419 . S
C1891 H1895 0.930 . S
C1892 C1891 1.369 . S
C1892 C1901 1.429 . S
C1893 C1891 1.419 . S
C1893 C1894 1.363 . S
C1893 H1896 0.929 . S
C1894 C1893 1.363 . S
C1894 C1900 1.428 . S
H1895 C1891 0.930 . S
H1896 C1893 0.929 . S
S1897 N1898 1.613 . S
S1897 N1899 1.610 . S
N1898 S1897 1.613 . S
N1898 C1901 1.350 . S
N1899 S1897 1.610 . S
N1899 C1900 1.351 . S
C1900 C1894 1.428 . S
C1900 N1899 1.351 . S
C1900 C1901 1.434 . S
C1901 C1892 1.429 . S
C1901 N1898 1.350 . S
C1901 C1900 1.434 . S
C1902 C1903 1.369 . S
C1902 C1904 1.419 . S
C1902 H1906 0.930 . S
C1903 C1902 1.369 . S
C1903 C1912 1.429 . S
C1904 C1902 1.419 . S
C1904 C1905 1.363 . S
C1904 H1907 0.929 . S
C1905 C1904 1.363 . S
C1905 C1911 1.428 . S
H1906 C1902 0.930 . S
H1907 C1904 0.929 . S
S1908 N1909 1.613 1_554 S
S1908 N1910 1.610 . S
N1909 S1908 1.613 1_556 S
N1909 C1912 1.350 . S
N1910 S1908 1.610 . S
N1910 C1911 1.351 1_554 S
C1911 C1905 1.428 . S
C1911 N1910 1.351 1_556 S
C1911 C1912 1.434 . S
C1912 C1903 1.429 . S
C1912 N1909 1.350 . S
C1912 C1911 1.434 . S
C1913 C1914 1.369 . S
C1913 C1915 1.419 . S
C1913 H1917 0.930 . S
C1914 C1913 1.369 . S
C1914 C1923 1.429 . S
C1915 C1913 1.419 . S
C1915 C1916 1.363 . S
C1915 H1918 0.929 . S
C1916 C1915 1.363 . S
C1916 C1922 1.428 . S
H1917 C1913 0.930 . S
H1918 C1915 0.929 . S
S1919 N1920 1.613 . S
S1919 N1921 1.610 . S
N1920 S1919 1.613 . S
N1920 C1923 1.350 . S
N1921 S1919 1.610 . S
N1921 C1922 1.351 . S
C1922 C1916 1.428 . S
C1922 N1921 1.351 . S
C1922 C1923 1.434 . S
C1923 C1914 1.429 . S
C1923 N1920 1.350 . S
C1923 C1922 1.434 . S
C1924 C1925 1.369 . S
C1924 C1926 1.419 . S
C1924 H1928 0.930 . S
C1925 C1924 1.369 . S
C1925 C1934 1.429 . S
C1926 C1924 1.419 . S
C1926 C1927 1.363 . S
C1926 H1929 0.929 1_556 S
C1927 C1926 1.363 . S
C1927 C1933 1.428 . S
H1928 C1924 0.930 . S
H1929 C1926 0.929 1_554 S
S1930 N1931 1.613 . S
S1930 N1932 1.610 . S
N1931 S1930 1.613 . S
N1931 C1934 1.350 . S
N1932 S1930 1.610 . S
N1932 C1933 1.351 . S
C1933 C1927 1.428 . S
C1933 N1932 1.351 . S
C1933 C1934 1.434 . S
C1934 C1925 1.429 . S
C1934 N1931 1.350 . S
C1934 C1933 1.434 . S
C1935 C1936 1.369 . S
C1935 C1937 1.419 . S
C1935 H1939 0.930 . S
C1936 C1935 1.369 . S
C1936 C1945 1.429 . S
C1937 C1935 1.419 . S
C1937 C1938 1.363 . S
C1937 H1940 0.929 . S
C1938 C1937 1.363 . S
C1938 C1944 1.428 . S
H1939 C1935 0.930 . S
H1940 C1937 0.929 . S
S1941 N1942 1.613 . S
S1941 N1943 1.610 . S
N1942 S1941 1.613 . S
N1942 C1945 1.350 . S
N1943 S1941 1.610 . S
N1943 C1944 1.351 . S
C1944 C1938 1.428 . S
C1944 N1943 1.351 . S
C1944 C1945 1.434 . S
C1945 C1936 1.429 . S
C1945 N1942 1.350 . S
C1945 C1944 1.434 . S
C1946 C1947 1.369 . S
C1946 C1948 1.419 . S
C1946 H1950 0.930 . S
C1947 C1946 1.369 . S
C1947 C1956 1.429 . S
C1948 C1946 1.419 . S
C1948 C1949 1.363 . S
C1948 H1951 0.865 1_554 S
C1949 C1948 1.363 . S
C1949 C1955 1.428 . S
H1950 C1946 0.930 . S
H1951 C1948 0.865 1_556 S
S1952 N1953 1.613 . S
S1952 N1954 1.610 . S
N1953 S1952 1.613 . S
N1953 C1956 1.350 . S
N1954 S1952 1.610 . S
N1954 C1955 1.351 . S
C1955 C1949 1.428 . S
C1955 N1954 1.351 . S
C1955 C1956 1.434 . S
C1956 C1947 1.429 . S
C1956 N1953 1.350 . S
C1956 C1955 1.434 . S
C1957 C1958 1.369 . S
C1957 C1959 1.419 . S
C1957 H1961 0.930 . S
C1958 C1957 1.369 . S
C1958 C1967 1.429 . S
C1959 C1957 1.419 . S
C1959 C1960 1.363 . S
C1959 H1962 0.929 . S
C1960 C1959 1.363 . S
C1960 C1966 1.428 . S
H1961 C1957 0.930 . S
H1962 C1959 0.929 . S
S1963 N1964 1.613 . S
S1963 N1965 1.610 . S
N1964 S1963 1.613 . S
N1964 C1967 1.350 . S
N1965 S1963 1.610 . S
N1965 C1966 1.351 . S
C1966 C1960 1.428 . S
C1966 N1965 1.351 . S
C1966 C1967 1.434 . S
C1967 C1958 1.429 . S
C1967 N1964 1.350 . S
C1967 C1966 1.434 . S
C1968 C1969 1.369 . S
C1968 C1970 1.419 . S
C1968 H1972 0.930 . S
C1969 C1968 1.369 . S
C1969 C1978 1.429 . S
C1970 C1968 1.419 . S
C1970 C1971 1.363 . S
C1970 H1973 0.929 . S
C1971 C1970 1.363 . S
C1971 C1977 1.428 . S
H1972 C1968 0.930 . S
H1973 C1970 0.929 . S
S1974 N1975 1.613 . S
S1974 N1976 1.610 . S
N1975 S1974 1.613 . S
N1975 C1978 1.350 . S
N1976 S1974 1.610 . S
N1976 C1977 1.351 . S
C1977 C1971 1.428 . S
C1977 N1976 1.351 . S
C1977 C1978 1.434 . S
C1978 C1969 1.429 . S
C1978 N1975 1.350 . S
C1978 C1977 1.434 . S
C1979 C1980 1.369 . S
C1979 C1981 1.419 . S
C1979 H1983 0.930 . S
C1980 C1979 1.369 . S
C1980 C1989 1.429 . S
C1981 C1979 1.419 . S
C1981 C1982 1.363 . S
C1981 H1984 0.929 . S
C1982 C1981 1.363 . S
C1982 C1988 1.428 . S
H1983 C1979 0.930 . S
H1984 C1981 0.929 . S
S1985 N1986 1.613 . S
S1985 N1987 1.610 . S
N1986 S1985 1.613 . S
N1986 C1989 1.350 . S
N1987 S1985 1.610 . S
N1987 C1988 1.351 . S
C1988 C1982 1.428 . S
C1988 N1987 1.351 . S
C1988 C1989 1.434 . S
C1989 C1980 1.429 . S
C1989 N1986 1.350 . S
C1989 C1988 1.434 . S
C1990 C1991 1.369 . S
C1990 C1992 1.419 . S
C1990 H1994 0.930 . S
C1991 C1990 1.369 . S
C1991 C2000 1.429 . S
C1992 C1990 1.419 . S
C1992 C1993 1.363 . S
C1992 H1995 0.929 . S
C1993 C1992 1.363 . S
C1993 C1999 1.428 . S
H1994 C1990 0.930 . S
H1995 C1992 0.929 . S
S1996 N1997 1.613 . S
S1996 N1998 1.610 . S
N1997 S1996 1.613 . S
N1997 C2000 1.350 . S
N1998 S1996 1.610 . S
N1998 C1999 1.351 . S
C1999 C1993 1.428 . S
C1999 N1998 1.351 . S
C1999 C2000 1.434 . S
C2000 C1991 1.429 . S
C2000 N1997 1.350 . S
C2000 C1999 1.434 . S
C2001 C2002 1.369 . S
C2001 C2003 1.419 . S
C2001 H2005 0.930 . S
C2002 C2001 1.369 . S
C2002 C2011 1.429 . S
C2003 C2001 1.419 . S
C2003 C2004 1.363 . S
C2003 H2006 0.929 . S
C2004 C2003 1.363 . S
C2004 C2010 1.428 . S
H2005 C2001 0.930 . S
H2006 C2003 0.929 . S
S2007 N2008 1.613 . S
S2007 N2009 1.610 . S
N2008 S2007 1.613 . S
N2008 C2011 1.350 . S
N2009 S2007 1.610 . S
N2009 C2010 1.351 . S
C2010 C2004 1.428 . S
C2010 N2009 1.351 . S
C2010 C2011 1.434 . S
C2011 C2002 1.429 . S
C2011 N2008 1.350 . S
C2011 C2010 1.434 . S
C2012 C2013 1.369 . S
C2012 C2014 1.419 . S
C2012 H2016 0.930 . S
C2013 C2012 1.369 . S
C2013 C2022 1.429 . S
C2014 C2012 1.419 . S
C2014 C2015 1.363 . S
C2014 H2017 0.929 . S
C2015 C2014 1.363 . S
C2015 C2021 1.428 . S
H2016 C2012 0.930 . S
H2017 C2014 0.929 . S
S2018 N2019 1.613 . S
S2018 N2020 1.610 . S
N2019 S2018 1.613 . S
N2019 C2022 1.350 . S
N2020 S2018 1.610 . S
N2020 C2021 1.351 . S
C2021 C2015 1.428 . S
C2021 N2020 1.351 . S
C2021 C2022 1.434 . S
C2022 C2013 1.429 . S
C2022 N2019 1.350 . S
C2022 C2021 1.434 . S
C2023 C2024 1.369 . S
C2023 C2025 1.419 . S
C2023 H2027 0.930 . S
C2024 C2023 1.369 . S
C2024 C2033 1.429 . S
C2025 C2023 1.419 . S
C2025 C2026 1.363 . S
C2025 H2028 0.929 . S
C2026 C2025 1.363 . S
C2026 C2032 1.428 . S
H2027 C2023 0.930 . S
H2028 C2025 0.929 . S
S2029 N2030 1.613 . S
S2029 N2031 1.610 . S
N2030 S2029 1.613 . S
N2030 C2033 1.350 . S
N2031 S2029 1.610 . S
N2031 C2032 1.351 . S
C2032 C2026 1.428 . S
C2032 N2031 1.351 . S
C2032 C2033 1.434 . S
C2033 C2024 1.429 . S
C2033 N2030 1.350 . S
C2033 C2032 1.434 . S
C2034 C2035 1.369 . S
C2034 C2036 1.419 . S
C2034 H2038 0.930 . S
C2035 C2034 1.369 . S
C2035 C2044 1.429 . S
C2036 C2034 1.419 . S
C2036 C2037 1.363 . S
C2036 H2039 0.929 . S
C2037 C2036 1.363 . S
C2037 C2043 1.428 . S
H2038 C2034 0.930 . S
H2039 C2036 0.929 . S
S2040 N2041 1.613 . S
S2040 N2042 1.610 . S
N2041 S2040 1.613 . S
N2041 C2044 1.350 . S
N2042 S2040 1.610 . S
N2042 C2043 1.351 . S
C2043 C2037 1.428 . S
C2043 N2042 1.351 . S
C2043 C2044 1.434 . S
C2044 C2035 1.429 . S
C2044 N2041 1.350 . S
C2044 C2043 1.434 . S
C2045 C2046 1.369 . S
C2045 C2047 1.419 . S
C2045 H2049 0.930 . S
C2046 C2045 1.369 . S
C2046 C2055 1.429 . S
C2047 C2045 1.419 . S
C2047 C2048 1.363 . S
C2047 H2050 0.929 . S
C2048 C2047 1.363 . S
C2048 C2054 1.428 . S
H2049 C2045 0.930 . S
H2050 C2047 0.929 . S
S2051 N2052 1.613 . S
S2051 N2053 1.610 . S
N2052 S2051 1.613 . S
N2052 C2055 1.350 . S
N2053 S2051 1.610 . S
N2053 C2054 1.351 . S
C2054 C2048 1.428 . S
C2054 N2053 1.351 . S
C2054 C2055 1.434 . S
C2055 C2046 1.429 . S
C2055 N2052 1.350 . S
C2055 C2054 1.434 . S
C2056 C2057 1.369 . S
C2056 C2058 1.419 . S
C2056 H2060 0.930 . S
C2057 C2056 1.369 . S
C2057 C2066 1.429 . S
C2058 C2056 1.419 . S
C2058 C2059 1.363 . S
C2058 H2061 0.929 . S
C2059 C2058 1.363 . S
C2059 C2065 1.428 . S
H2060 C2056 0.930 . S
H2061 C2058 0.929 . S
S2062 N2063 1.613 . S
S2062 N2064 1.610 . S
N2063 S2062 1.613 . S
N2063 C2066 1.350 . S
N2064 S2062 1.610 . S
N2064 C2065 1.351 . S
C2065 C2059 1.428 . S
C2065 N2064 1.351 . S
C2065 C2066 1.434 . S
C2066 C2057 1.429 . S
C2066 N2063 1.350 . S
C2066 C2065 1.434 . S
C2067 C2068 1.369 . S
C2067 C2069 1.419 . S
C2067 H2071 0.930 . S
C2068 C2067 1.369 . S
C2068 C2077 1.429 . S
C2069 C2067 1.419 . S
C2069 C2070 1.363 . S
C2069 H2072 0.929 . S
C2070 C2069 1.363 . S
C2070 C2076 1.428 . S
H2071 C2067 0.930 . S
H2072 C2069 0.929 . S
S2073 N2074 1.613 . S
S2073 N2075 1.610 . S
N2074 S2073 1.613 . S
N2074 C2077 1.350 . S
N2075 S2073 1.610 . S
N2075 C2076 1.351 . S
C2076 C2070 1.428 . S
C2076 N2075 1.351 . S
C2076 C2077 1.434 . S
C2077 C2068 1.429 . S
C2077 N2074 1.350 . S
C2077 C2076 1.434 . S
C2078 C2079 1.369 . S
C2078 C2080 1.419 . S
C2078 H2082 0.930 . S
C2079 C2078 1.369 . S
C2079 C2088 1.429 . S
C2080 C2078 1.419 . S
C2080 C2081 1.363 . S
C2080 H2083 0.929 . S
C2081 C2080 1.363 . S
C2081 C2087 1.428 . S
H2082 C2078 0.930 . S
H2083 C2080 0.929 . S
S2084 N2085 1.613 . S
S2084 N2086 1.610 . S
N2085 S2084 1.613 . S
N2085 C2088 1.350 . S
N2086 S2084 1.610 . S
N2086 C2087 1.351 . S
C2087 C2081 1.428 . S
C2087 N2086 1.351 . S
C2087 C2088 1.434 . S
C2088 C2079 1.429 . S
C2088 N2085 1.350 . S
C2088 C2087 1.434 . S
C2089 C2090 1.369 . S
C2089 C2091 1.419 . S
C2089 H2093 0.930 . S
C2090 C2089 1.369 . S
C2090 C2099 1.429 . S
C2091 C2089 1.419 . S
C2091 C2092 1.363 . S
C2091 H2094 0.929 . S
C2092 C2091 1.363 . S
C2092 C2098 1.428 . S
H2093 C2089 0.930 . S
H2094 C2091 0.929 . S
S2095 N2096 1.613 . S
S2095 N2097 1.610 . S
N2096 S2095 1.613 . S
N2096 C2099 1.350 . S
N2097 S2095 1.610 . S
N2097 C2098 1.351 . S
C2098 C2092 1.428 . S
C2098 N2097 1.351 . S
C2098 C2099 1.434 . S
C2099 C2090 1.429 . S
C2099 N2096 1.350 . S
C2099 C2098 1.434 . S
C2100 C2101 1.369 . S
C2100 C2102 1.419 . S
C2100 H2104 0.930 . S
C2101 C2100 1.369 . S
C2101 C2110 1.429 . S
C2102 C2100 1.419 . S
C2102 C2103 1.363 . S
C2102 H2105 0.929 . S
C2103 C2102 1.363 . S
C2103 C2109 1.428 . S
H2104 C2100 0.930 . S
H2105 C2102 0.929 . S
S2106 N2107 1.613 . S
S2106 N2108 1.610 . S
N2107 S2106 1.613 . S
N2107 C2110 1.350 . S
N2108 S2106 1.610 . S
N2108 C2109 1.351 . S
C2109 C2103 1.428 . S
C2109 N2108 1.351 . S
C2109 C2110 1.434 . S
C2110 C2101 1.429 . S
C2110 N2107 1.350 . S
C2110 C2109 1.434 . S
C2111 C2112 1.369 . S
C2111 C2113 1.419 . S
C2111 H2115 0.930 . S
C2112 C2111 1.369 . S
C2112 C2121 1.429 . S
C2113 C2111 1.419 . S
C2113 C2114 1.363 . S
C2113 H2116 0.929 . S
C2114 C2113 1.363 . S
C2114 C2120 1.428 . S
H2115 C2111 0.930 . S
H2116 C2113 0.929 . S
S2117 N2118 1.613 . S
S2117 N2119 1.610 . S
N2118 S2117 1.613 . S
N2118 C2121 1.350 . S
N2119 S2117 1.610 . S
N2119 C2120 1.351 . S
C2120 C2114 1.428 . S
C2120 N2119 1.351 . S
C2120 C2121 1.434 . S
C2121 C2112 1.429 . S
C2121 N2118 1.350 . S
C2121 C2120 1.434 . S
C2122 C2123 1.369 . S
C2122 C2124 1.419 . S
C2122 H2126 0.930 . S
C2123 C2122 1.369 . S
C2123 C2132 1.429 . S
C2124 C2122 1.419 . S
C2124 C2125 1.363 . S
C2124 H2127 0.929 . S
C2125 C2124 1.363 . S
C2125 C2131 1.428 . S
H2126 C2122 0.930 . S
H2127 C2124 0.929 . S
S2128 N2129 1.613 . S
S2128 N2130 1.610 . S
N2129 S2128 1.613 . S
N2129 C2132 1.350 . S
N2130 S2128 1.610 . S
N2130 C2131 1.351 . S
C2131 C2125 1.428 . S
C2131 N2130 1.351 . S
C2131 C2132 1.434 . S
C2132 C2123 1.429 . S
C2132 N2129 1.350 . S
C2132 C2131 1.434 . S
C2133 C2134 1.369 . S
C2133 C2135 1.419 . S
C2133 H2137 0.930 . S
C2134 C2133 1.369 . S
C2134 C2143 1.429 . S
C2135 C2133 1.419 . S
C2135 C2136 1.363 . S
C2135 H2138 0.929 . S
C2136 C2135 1.363 . S
C2136 C2142 1.428 . S
H2137 C2133 0.930 . S
H2138 C2135 0.929 . S
S2139 N2140 1.613 . S
S2139 N2141 1.610 . S
N2140 S2139 1.613 . S
N2140 C2143 1.350 . S
N2141 S2139 1.610 . S
N2141 C2142 1.351 . S
C2142 C2136 1.428 . S
C2142 N2141 1.351 . S
C2142 C2143 1.434 . S
C2143 C2134 1.429 . S
C2143 N2140 1.350 . S
C2143 C2142 1.434 . S
C2144 C2145 1.369 . S
C2144 C2146 1.419 . S
C2144 H2148 0.930 . S
C2145 C2144 1.369 . S
C2145 C2154 1.429 . S
C2146 C2144 1.419 . S
C2146 C2147 1.363 . S
C2146 H2149 0.929 . S
C2147 C2146 1.363 . S
C2147 C2153 1.428 . S
H2148 C2144 0.930 . S
H2149 C2146 0.929 . S
S2150 N2151 1.613 . S
S2150 N2152 1.610 . S
N2151 S2150 1.613 . S
N2151 C2154 1.350 . S
N2152 S2150 1.610 . S
N2152 C2153 1.351 . S
C2153 C2147 1.428 . S
C2153 N2152 1.351 . S
C2153 C2154 1.434 . S
C2154 C2145 1.429 . S
C2154 N2151 1.350 . S
C2154 C2153 1.434 . S
C2155 C2156 1.369 . S
C2155 C2157 1.419 . S
C2155 H2159 0.930 . S
C2156 C2155 1.369 . S
C2156 C2165 1.429 . S
C2157 C2155 1.419 . S
C2157 C2158 1.363 . S
C2157 H2160 0.929 . S
C2158 C2157 1.363 . S
C2158 C2164 1.428 . S
H2159 C2155 0.930 . S
H2160 C2157 0.929 . S
S2161 N2162 1.613 . S
S2161 N2163 1.610 . S
N2162 S2161 1.613 . S
N2162 C2165 1.350 . S
N2163 S2161 1.610 . S
N2163 C2164 1.351 . S
C2164 C2158 1.428 . S
C2164 N2163 1.351 . S
C2164 C2165 1.434 . S
C2165 C2156 1.429 . S
C2165 N2162 1.350 . S
C2165 C2164 1.434 . S
C2166 C2167 1.369 . S
C2166 C2168 1.419 . S
C2166 H2170 0.930 . S
C2167 C2166 1.369 . S
C2167 C2176 1.429 . S
C2168 C2166 1.419 . S
C2168 C2169 1.363 . S
C2168 H2171 0.929 . S
C2169 C2168 1.363 . S
C2169 C2175 1.428 . S
H2170 C2166 0.930 . S
H2171 C2168 0.929 . S
S2172 N2173 1.613 . S
S2172 N2174 1.610 . S
N2173 S2172 1.613 . S
N2173 C2176 1.350 . S
N2174 S2172 1.610 . S
N2174 C2175 1.351 . S
C2175 C2169 1.428 . S
C2175 N2174 1.351 . S
C2175 C2176 1.434 . S
C2176 C2167 1.429 . S
C2176 N2173 1.350 . S
C2176 C2175 1.434 . S
C2177 C2178 1.369 . S
C2177 C2179 1.419 . S
C2177 H2181 0.930 . S
C2178 C2177 1.369 . S
C2178 C2187 1.429 . S
C2179 C2177 1.419 . S
C2179 C2180 1.363 . S
C2179 H2182 0.929 . S
C2180 C2179 1.363 . S
C2180 C2186 1.428 . S
H2181 C2177 0.930 . S
H2182 C2179 0.929 . S
S2183 N2184 1.613 . S
S2183 N2185 1.610 . S
N2184 S2183 1.613 . S
N2184 C2187 1.350 . S
N2185 S2183 1.610 . S
N2185 C2186 1.351 . S
C2186 C2180 1.428 . S
C2186 N2185 1.351 . S
C2186 C2187 1.434 . S
C2187 C2178 1.429 . S
C2187 N2184 1.350 . S
C2187 C2186 1.434 . S
C2188 C2189 1.369 . S
C2188 C2190 1.419 . S
C2188 H2192 0.930 . S
C2189 C2188 1.369 . S
C2189 C2198 1.429 . S
C2190 C2188 1.419 . S
C2190 C2191 1.363 . S
C2190 H2193 0.929 . S
C2191 C2190 1.363 . S
C2191 C2197 1.428 . S
H2192 C2188 0.930 . S
H2193 C2190 0.929 . S
S2194 N2195 1.613 . S
S2194 N2196 1.610 . S
N2195 S2194 1.613 . S
N2195 C2198 1.350 . S
N2196 S2194 1.610 . S
N2196 C2197 1.351 . S
C2197 C2191 1.428 . S
C2197 N2196 1.351 . S
C2197 C2198 1.434 . S
C2198 C2189 1.429 . S
C2198 N2195 1.350 . S
C2198 C2197 1.434 . S
C2199 C2200 1.369 . S
C2199 C2201 1.419 . S
C2199 H2203 0.930 . S
C2200 C2199 1.369 . S
C2200 C2209 1.429 . S
C2201 C2199 1.419 . S
C2201 C2202 1.363 . S
C2201 H2204 0.929 . S
C2202 C2201 1.363 . S
C2202 C2208 1.428 . S
H2203 C2199 0.930 . S
H2204 C2201 0.929 . S
S2205 N2206 1.613 . S
S2205 N2207 1.610 . S
N2206 S2205 1.613 . S
N2206 C2209 1.350 . S
N2207 S2205 1.610 . S
N2207 C2208 1.351 . S
C2208 C2202 1.428 . S
C2208 N2207 1.351 . S
C2208 C2209 1.434 . S
C2209 C2200 1.429 . S
C2209 N2206 1.350 . S
C2209 C2208 1.434 . S
C2210 C2211 1.369 . S
C2210 C2212 1.419 . S
C2210 H2214 0.930 . S
C2211 C2210 1.369 . S
C2211 C2220 1.429 . S
C2212 C2210 1.419 . S
C2212 C2213 1.363 . S
C2212 H2215 0.929 . S
C2213 C2212 1.363 . S
C2213 C2219 1.428 . S
H2214 C2210 0.930 . S
H2215 C2212 0.929 . S
S2216 N2217 1.613 . S
S2216 N2218 1.610 . S
N2217 S2216 1.613 . S
N2217 C2220 1.350 . S
N2218 S2216 1.610 . S
N2218 C2219 1.351 . S
C2219 C2213 1.428 . S
C2219 N2218 1.351 . S
C2219 C2220 1.434 . S
C2220 C2211 1.429 . S
C2220 N2217 1.350 . S
C2220 C2219 1.434 . S
C2221 C2222 1.369 . S
C2221 C2223 1.419 . S
C2221 H2225 0.930 . S
C2222 C2221 1.369 . S
C2222 C2231 1.429 . S
C2223 C2221 1.419 . S
C2223 C2224 1.363 . S
C2223 H2226 0.929 . S
C2224 C2223 1.363 . S
C2224 C2230 1.428 . S
H2225 C2221 0.930 . S
H2226 C2223 0.929 . S
S2227 N2228 1.613 . S
S2227 N2229 1.610 . S
N2228 S2227 1.613 . S
N2228 C2231 1.350 . S
N2229 S2227 1.610 . S
N2229 C2230 1.351 . S
C2230 C2224 1.428 . S
C2230 N2229 1.351 . S
C2230 C2231 1.434 . S
C2231 C2222 1.429 . S
C2231 N2228 1.350 . S
C2231 C2230 1.434 . S
C2232 C2233 1.369 . S
C2232 C2234 1.419 . S
C2232 H2236 0.930 . S
C2233 C2232 1.369 . S
C2233 C2242 1.429 . S
C2234 C2232 1.419 . S
C2234 C2235 1.363 . S
C2234 H2237 0.929 . S
C2235 C2234 1.363 . S
C2235 C2241 1.428 . S
H2236 C2232 0.930 . S
H2237 C2234 0.929 . S
S2238 N2239 1.613 1_545 S
S2238 N2240 1.610 . S
N2239 S2238 1.613 1_565 S
N2239 C2242 1.350 . S
N2240 S2238 1.610 . S
N2240 C2241 1.351 1_545 S
C2241 C2235 1.428 . S
C2241 N2240 1.351 1_565 S
C2241 C2242 1.434 . S
C2242 C2233 1.429 . S
C2242 N2239 1.350 . S
C2242 C2241 1.434 . S
C2243 C2244 1.369 . S
C2243 C2245 1.419 . S
C2243 H2247 0.930 . S
C2244 C2243 1.369 . S
C2244 C2253 1.429 . S
C2245 C2243 1.419 . S
C2245 C2246 1.363 . S
C2245 H2248 0.929 . S
C2246 C2245 1.363 . S
C2246 C2252 1.428 . S
H2247 C2243 0.930 . S
H2248 C2245 0.929 . S
S2249 N2250 1.613 1_655 S
S2249 N2251 1.610 . S
N2250 S2249 1.613 1_455 S
N2250 C2253 1.350 . S
N2251 S2249 1.610 . S
N2251 C2252 1.351 1_655 S
C2252 C2246 1.428 . S
C2252 N2251 1.351 1_455 S
C2252 C2253 1.434 . S
C2253 C2244 1.429 . S
C2253 N2250 1.350 . S
C2253 C2252 1.434 . S
C2254 C2255 1.369 . S
C2254 C2256 1.419 . S
C2254 H2258 0.930 . S
C2255 C2254 1.369 . S
C2255 C2264 1.429 . S
C2256 C2254 1.419 . S
C2256 C2257 1.363 . S
C2256 H2259 0.929 . S
C2257 C2256 1.363 . S
C2257 C2263 1.428 . S
H2258 C2254 0.930 . S
H2259 C2256 0.929 . S
S2260 N2261 1.613 . S
S2260 N2262 1.610 . S
N2261 S2260 1.613 . S
N2261 C2264 1.350 . S
N2262 S2260 1.610 . S
N2262 C2263 1.351 . S
C2263 C2257 1.428 . S
C2263 N2262 1.351 . S
C2263 C2264 1.434 . S
C2264 C2255 1.429 . S
C2264 N2261 1.350 . S
C2264 C2263 1.434 . S
C2265 C2266 1.369 . S
C2265 C2267 1.419 . S
C2265 H2269 0.930 . S
C2266 C2265 1.369 . S
C2266 C2275 1.429 . S
C2267 C2265 1.419 . S
C2267 C2268 1.363 . S
C2267 H2270 0.929 . S
C2268 C2267 1.363 . S
C2268 C2274 1.428 . S
H2269 C2265 0.930 . S
H2270 C2267 0.929 . S
S2271 N2272 1.613 . S
S2271 N2273 1.610 . S
N2272 S2271 1.613 . S
N2272 C2275 1.350 . S
N2273 S2271 1.610 . S
N2273 C2274 1.351 . S
C2274 C2268 1.428 . S
C2274 N2273 1.351 . S
C2274 C2275 1.434 . S
C2275 C2266 1.429 . S
C2275 N2272 1.350 . S
C2275 C2274 1.434 . S
C2276 C2277 1.369 . S
C2276 C2278 1.419 . S
C2276 H2280 0.930 . S
C2277 C2276 1.369 . S
C2277 C2286 1.429 . S
C2278 C2276 1.419 . S
C2278 C2279 1.363 . S
C2278 H2281 0.929 . S
C2279 C2278 1.363 . S
C2279 C2285 1.428 . S
H2280 C2276 0.930 . S
H2281 C2278 0.929 . S
S2282 N2283 1.613 . S
S2282 N2284 1.610 . S
N2283 S2282 1.613 . S
N2283 C2286 1.350 . S
N2284 S2282 1.610 . S
N2284 C2285 1.351 . S
C2285 C2279 1.428 . S
C2285 N2284 1.351 . S
C2285 C2286 1.434 . S
C2286 C2277 1.429 . S
C2286 N2283 1.350 . S
C2286 C2285 1.434 . S
C2287 C2288 1.369 . S
C2287 C2289 1.419 . S
C2287 H2291 0.930 . S
C2288 C2287 1.369 . S
C2288 C2297 1.429 . S
C2289 C2287 1.419 . S
C2289 C2290 1.363 . S
C2289 H2292 0.929 . S
C2290 C2289 1.363 . S
C2290 C2296 1.428 . S
H2291 C2287 0.930 . S
H2292 C2289 0.929 . S
S2293 N2294 1.613 . S
S2293 N2295 1.610 . S
N2294 S2293 1.613 . S
N2294 C2297 1.350 . S
N2295 S2293 1.610 . S
N2295 C2296 1.351 . S
C2296 C2290 1.428 . S
C2296 N2295 1.351 . S
C2296 C2297 1.434 . S
C2297 C2288 1.429 . S
C2297 N2294 1.350 . S
C2297 C2296 1.434 . S
C2298 C2299 1.369 . S
C2298 C2300 1.419 . S
C2298 H2302 0.930 . S
C2299 C2298 1.369 . S
C2299 C2308 1.429 . S
C2300 C2298 1.419 . S
C2300 C2301 1.363 . S
C2300 H2303 0.929 . S
C2301 C2300 1.363 . S
C2301 C2307 1.428 . S
H2302 C2298 0.930 . S
H2303 C2300 0.929 . S
S2304 N2305 1.613 . S
S2304 N2306 1.610 . S
N2305 S2304 1.613 . S
N2305 C2308 1.350 . S
N2306 S2304 1.610 . S
N2306 C2307 1.351 . S
C2307 C2301 1.428 . S
C2307 N2306 1.351 . S
C2307 C2308 1.434 . S
C2308 C2299 1.429 . S
C2308 N2305 1.350 . S
C2308 C2307 1.434 . S
C2309 C2310 1.369 . S
C2309 C2311 1.419 . S
C2309 H2313 0.930 . S
C2310 C2309 1.369 . S
C2310 C2319 1.429 . S
C2311 C2309 1.419 . S
C2311 C2312 1.363 . S
C2311 H2314 0.929 . S
C2312 C2311 1.363 . S
C2312 C2318 1.428 . S
H2313 C2309 0.930 . S
H2314 C2311 0.929 . S
S2315 N2316 1.613 . S
S2315 N2317 1.610 . S
N2316 S2315 1.613 . S
N2316 C2319 1.350 . S
N2317 S2315 1.610 . S
N2317 C2318 1.351 . S
C2318 C2312 1.428 . S
C2318 N2317 1.351 . S
C2318 C2319 1.434 . S
C2319 C2310 1.429 . S
C2319 N2316 1.350 . S
C2319 C2318 1.434 . S
C2320 C2321 1.369 . S
C2320 C2322 1.419 . S
C2320 H2324 0.930 . S
C2321 C2320 1.369 . S
C2321 C2330 1.429 . S
C2322 C2320 1.419 . S
C2322 C2323 1.363 . S
C2322 H2325 0.929 . S
C2323 C2322 1.363 . S
C2323 C2329 1.428 . S
H2324 C2320 0.930 . S
H2325 C2322 0.929 . S
S2326 N2327 1.613 . S
S2326 N2328 1.610 . S
N2327 S2326 1.613 . S
N2327 C2330 1.350 . S
N2328 S2326 1.610 . S
N2328 C2329 1.351 . S
C2329 C2323 1.428 . S
C2329 N2328 1.351 . S
C2329 C2330 1.434 . S
C2330 C2321 1.429 . S
C2330 N2327 1.350 . S
C2330 C2329 1.434 . S
C2331 C2332 1.369 . S
C2331 C2333 1.419 . S
C2331 H2335 0.930 . S
C2332 C2331 1.369 . S
C2332 C2341 1.429 . S
C2333 C2331 1.419 . S
C2333 C2334 1.363 . S
C2333 H2336 0.929 . S
C2334 C2333 1.363 . S
C2334 C2340 1.428 . S
H2335 C2331 0.930 . S
H2336 C2333 0.929 . S
S2337 N2338 1.613 . S
S2337 N2339 1.610 . S
N2338 S2337 1.613 . S
N2338 C2341 1.350 . S
N2339 S2337 1.610 . S
N2339 C2340 1.351 . S
C2340 C2334 1.428 . S
C2340 N2339 1.351 . S
C2340 C2341 1.434 . S
C2341 C2332 1.429 . S
C2341 N2338 1.350 . S
C2341 C2340 1.434 . S
C2342 C2343 1.369 . S
C2342 C2344 1.419 . S
C2342 H2346 0.930 . S
C2343 C2342 1.369 . S
C2343 C2352 1.429 . S
C2344 C2342 1.419 . S
C2344 C2345 1.363 . S
C2344 H2347 0.929 . S
C2345 C2344 1.363 . S
C2345 C2351 1.428 . S
H2346 C2342 0.930 . S
H2347 C2344 0.929 . S
S2348 N2349 1.613 . S
S2348 N2350 1.610 . S
N2349 S2348 1.613 . S
N2349 C2352 1.350 . S
N2350 S2348 1.610 . S
N2350 C2351 1.351 . S
C2351 C2345 1.428 . S
C2351 N2350 1.351 . S
C2351 C2352 1.434 . S
C2352 C2343 1.429 . S
C2352 N2349 1.350 . S
C2352 C2351 1.434 . S
C2353 C2354 1.369 . S
C2353 C2355 1.419 . S
C2353 H2357 0.930 . S
C2354 C2353 1.369 . S
C2354 C2363 1.429 . S
C2355 C2353 1.419 . S
C2355 C2356 1.363 . S
C2355 H2358 0.929 . S
C2356 C2355 1.363 . S
C2356 C2362 1.428 . S
H2357 C2353 0.930 . S
H2358 C2355 0.929 . S
S2359 N2360 1.613 . S
S2359 N2361 1.610 . S
N2360 S2359 1.613 . S
N2360 C2363 1.350 . S
N2361 S2359 1.610 . S
N2361 C2362 1.351 . S
C2362 C2356 1.428 . S
C2362 N2361 1.351 . S
C2362 C2363 1.434 . S
C2363 C2354 1.429 . S
C2363 N2360 1.350 . S
C2363 C2362 1.434 . S
C2364 C2365 1.369 . S
C2364 C2366 1.419 . S
C2364 H2368 0.930 . S
C2365 C2364 1.369 . S
C2365 C2374 1.429 . S
C2366 C2364 1.419 . S
C2366 C2367 1.363 . S
C2366 H2369 0.929 . S
C2367 C2366 1.363 . S
C2367 C2373 1.428 . S
H2368 C2364 0.930 . S
H2369 C2366 0.929 . S
S2370 N2371 1.613 . S
S2370 N2372 1.610 . S
N2371 S2370 1.613 . S
N2371 C2374 1.350 . S
N2372 S2370 1.610 . S
N2372 C2373 1.351 . S
C2373 C2367 1.428 . S
C2373 N2372 1.351 . S
C2373 C2374 1.434 . S
C2374 C2365 1.429 . S
C2374 N2371 1.350 . S
C2374 C2373 1.434 . S
C2375 C2376 1.369 . S
C2375 C2377 1.419 . S
C2375 H2379 0.930 . S
C2376 C2375 1.369 . S
C2376 C2385 1.429 . S
C2377 C2375 1.419 . S
C2377 C2378 1.363 . S
C2377 H2380 0.929 . S
C2378 C2377 1.363 . S
C2378 C2384 1.428 . S
H2379 C2375 0.930 . S
H2380 C2377 0.929 . S
S2381 N2382 1.613 . S
S2381 N2383 1.610 . S
N2382 S2381 1.613 . S
N2382 C2385 1.350 . S
N2383 S2381 1.610 . S
N2383 C2384 1.351 . S
C2384 C2378 1.428 . S
C2384 N2383 1.351 . S
C2384 C2385 1.434 . S
C2385 C2376 1.429 . S
C2385 N2382 1.350 . S
C2385 C2384 1.434 . S
C2386 C2387 1.369 . S
C2386 C2388 1.419 . S
C2386 H2390 0.930 . S
C2387 C2386 1.369 . S
C2387 C2396 1.429 . S
C2388 C2386 1.419 . S
C2388 C2389 1.363 . S
C2388 H2391 0.929 . S
C2389 C2388 1.363 . S
C2389 C2395 1.428 . S
H2390 C2386 0.930 . S
H2391 C2388 0.929 . S
S2392 N2393 1.613 . S
S2392 N2394 1.610 . S
N2393 S2392 1.613 . S
N2393 C2396 1.350 . S
N2394 S2392 1.610 . S
N2394 C2395 1.351 . S
C2395 C2389 1.428 . S
C2395 N2394 1.351 . S
C2395 C2396 1.434 . S
C2396 C2387 1.429 . S
C2396 N2393 1.350 . S
C2396 C2395 1.434 . S
C2397 C2398 1.369 . S
C2397 C2399 1.419 . S
C2397 H2401 0.930 . S
C2398 C2397 1.369 . S
C2398 C2407 1.429 . S
C2399 C2397 1.419 . S
C2399 C2400 1.363 . S
C2399 H2402 0.929 . S
C2400 C2399 1.363 . S
C2400 C2406 1.428 . S
H2401 C2397 0.930 . S
H2402 C2399 0.929 . S
S2403 N2404 1.613 . S
S2403 N2405 1.610 . S
N2404 S2403 1.613 . S
N2404 C2407 1.350 . S
N2405 S2403 1.610 . S
N2405 C2406 1.351 . S
C2406 C2400 1.428 . S
C2406 N2405 1.351 . S
C2406 C2407 1.434 . S
C2407 C2398 1.429 . S
C2407 N2404 1.350 . S
C2407 C2406 1.434 . S
C2408 C2409 1.369 . S
C2408 C2410 1.419 . S
C2408 H2412 0.930 . S
C2409 C2408 1.369 . S
C2409 C2418 1.429 . S
C2410 C2408 1.419 . S
C2410 C2411 1.363 . S
C2410 H2413 0.929 . S
C2411 C2410 1.363 . S
C2411 C2417 1.428 . S
H2412 C2408 0.930 . S
H2413 C2410 0.929 . S
S2414 N2415 1.613 . S
S2414 N2416 1.610 . S
N2415 S2414 1.613 . S
N2415 C2418 1.350 . S
N2416 S2414 1.610 . S
N2416 C2417 1.351 . S
C2417 C2411 1.428 . S
C2417 N2416 1.351 . S
C2417 C2418 1.434 . S
C2418 C2409 1.429 . S
C2418 N2415 1.350 . S
C2418 C2417 1.434 . S
C2419 C2420 1.369 . S
C2419 C2421 1.419 . S
C2419 H2423 0.930 . S
C2420 C2419 1.369 . S
C2420 C2429 1.429 . S
C2421 C2419 1.419 . S
C2421 C2422 1.363 . S
C2421 H2424 0.929 . S
C2422 C2421 1.363 . S
C2422 C2428 1.428 . S
H2423 C2419 0.930 . S
H2424 C2421 0.929 . S
S2425 N2426 1.613 . S
S2425 N2427 1.610 . S
N2426 S2425 1.613 . S
N2426 C2429 1.350 . S
N2427 S2425 1.610 . S
N2427 C2428 1.351 . S
C2428 C2422 1.428 . S
C2428 N2427 1.351 . S
C2428 C2429 1.434 . S
C2429 C2420 1.429 . S
C2429 N2426 1.350 . S
C2429 C2428 1.434 . S
C1837 C781 1.470 . S
C1839 C1147 1.401 . S
C1848 C871 1.457 . S
C1850 C1231 1.421 . S
C1859 C751 1.474 . S
C1861 C1311 1.457 . S
C1870 C691 1.430 . S
C1872 C1227 1.422 . S
C1883 C1315 1.356 . S
C1881 C571 1.404 . S
C1892 C601 1.451 . S
C1894 C1143 1.406 . S
C1905 C1136 1.406 . S
C1903 C661 1.431 . S
C1916 C1220 1.425 . S
C1914 C541 1.448 . S
C1925 C631 1.525 . S
C1927 C1322 1.459 . S
C1936 C811 1.473 . S
C1938 C1238 1.417 . S
C1947 C841 1.391 . S
C1949 C1304 1.358 . S
C1960 C1154 1.407 . S
C1958 C721 1.411 . S
C1971 C1399 1.398 . S
C1969 C61 1.467 1_455 S
C1980 C151 1.458 . S
C1982 C1483 1.424 . S
C1991 C31 1.480 1_565 S
C1993 C1563 1.453 . S
C2002 C1051 1.436 . S
C2004 C1479 1.419 . S
C2013 C931 1.404 . S
C2015 C1567 1.360 . S
C2024 C961 1.455 . S
C2026 C1395 1.409 . S
C2035 C1021 1.428 . S
C2037 C1388 1.397 . S
C2046 C901 1.442 . S
C2048 C1472 1.416 . S
C2059 C1574 1.454 . S
C2057 C991 1.526 . S
C2068 C91 1.473 1_565 S
C2070 C1490 1.418 . S
C2081 C1556 1.364 . S
C2079 C121 1.399 1_455 S
C2090 C1 1.411 . S
C2092 C1406 1.402 . S
C2103 C1651 1.399 . S
C2101 C421 1.469 . S
C2112 C511 1.456 . S
C2114 C1735 1.425 . S
C2125 C1815 1.456 . S
C2123 C391 1.475 . S
C2136 C1731 1.419 . S
C2134 C331 1.434 1_545 S
C2147 C1819 1.362 . S
C2145 C211 1.402 1_655 S
C2156 C241 1.451 . S
C2158 C1647 1.407 . S
C2167 C301 1.423 1_655 S
C2169 C1640 1.400 . S
C2178 C181 1.442 . S
C2180 C1724 1.422 . S
C2191 C1826 1.455 . S
C2189 C271 1.523 1_545 S
C2200 C451 1.474 . S
C2202 C1742 1.417 . S
C2211 C481 1.397 . S
C2213 C1808 1.364 . S
C2222 C361 1.410 . S
C2224 C1658 1.402 . S
C2233 C920 1.462 . S
C2235 C1150 1.374 . S
C2246 C1234 1.365 . S
C2244 C980 1.501 . S
C2255 C1040 1.466 . S
C2257 C1306 1.367 . S
C2266 C380 1.493 . S
C2268 C1222 1.368 . S
C2277 C440 1.468 . S
C2279 C1318 1.366 . S
C2290 C1138 1.381 . S
C2288 C500 1.462 . S
C2299 C200 1.461 . S
C2301 C1402 1.371 . S
C2310 C260 1.503 . S
C2312 C1486 1.362 . S
C2321 C320 1.466 . S
C2323 C1558 1.367 . S
C2332 C740 1.494 . S
C2334 C1474 1.363 . S
C2345 C1570 1.367 . S
C2343 C800 1.469 . S
C2354 C860 1.467 . S
C2356 C1390 1.371 . S
C2365 C560 1.458 . S
C2367 C1654 1.378 . S
C2376 C620 1.501 . S
C2378 C1738 1.372 . S
C2389 C1810 1.368 . S
C2387 C680 1.466 . S
C2398 C20 1.487 . S
C2400 C1726 1.373 . S
C2409 C80 1.472 . S
C2411 C1822 1.357 . S
C2420 C140 1.464 . S
C2422 C1642 1.374 . S
