# Generated by pormake.
# Topology tsx, (6,3)-cn, num edge types: 1
# Building blocks:
#     Node 0, Type 0, BuildingBlock: VOLQOD_clean_sbu_1, # of connection points: 6
#     Node 1, Type 0, BuildingBlock: VOLQOD_clean_sbu_1, # of connection points: 6
#     Node 2, Type 1, BuildingBlock: BELTOD_clean_linker_0, # of connection points: 3
#     Node 3, Type 1, BuildingBlock: BELTOD_clean_linker_0, # of connection points: 3
#     Node 4, Type 1, BuildingBlock: BELTOD_clean_linker_0, # of connection points: 3
#     Node 5, Type 1, BuildingBlock: BELTOD_clean_linker_0, # of connection points: 3
#     Edge 6, Type (0, 1), BuildingBlock: FUNLAD_clean_linker_1, # of connection points: 2
#     Edge 7, Type (0, 1), BuildingBlock: FUNLAD_clean_linker_1, # of connection points: 2
#     Edge 8, Type (0, 1), BuildingBlock: FUNLAD_clean_linker_1, # of connection points: 2
#     Edge 9, Type (0, 1), BuildingBlock: FUNLAD_clean_linker_1, # of connection points: 2
#     Edge 10, Type (0, 1), BuildingBlock: FUNLAD_clean_linker_1, # of connection points: 2
#     Edge 11, Type (0, 1), BuildingBlock: FUNLAD_clean_linker_1, # of connection points: 2
#     Edge 12, Type (0, 1), BuildingBlock: FUNLAD_clean_linker_1, # of connection points: 2
#     Edge 13, Type (0, 1), BuildingBlock: FUNLAD_clean_linker_1, # of connection points: 2
#     Edge 14, Type (0, 1), BuildingBlock: FUNLAD_clean_linker_1, # of connection points: 2
#     Edge 15, Type (0, 1), BuildingBlock: FUNLAD_clean_linker_1, # of connection points: 2
#     Edge 16, Type (0, 1), BuildingBlock: FUNLAD_clean_linker_1, # of connection points: 2
#     Edge 17, Type (0, 1), BuildingBlock: FUNLAD_clean_linker_1, # of connection points: 2
# Relax obj value: 0.067
# Max RMSD: 0.102
# Mean RMSD: 0.074
data_MOF--net-tsx--node1-VOLQOD_clean_sbu_1--node2-BELTOD_clean_linker_0--edge1-FUNLAD_clean_linker_1
_symmetry_space_group_name_H-M    P1
_symmetry_Int_Tables_number       1
_symmetry_cell_setting            triclinic
loop_
_symmetry_equiv_pos_as_xyz
'x, y, z'
_cell_length_a     23.939144
_cell_length_b     24.792604
_cell_length_c     46.75096
_cell_angle_alpha  91.012516
_cell_angle_beta   89.904825
_cell_angle_gamma 90.225115
loop_
_atom_site_label
_atom_site_type_symbol
_atom_site_fract_x
_atom_site_fract_y
_atom_site_fract_z
_atom_type_partial_charge
O0 O 0.02258 0.01443 0.07256 0.0
Zn1 Zn 0.04389 0.00687 0.03102 0.0
O2 O 0.9785 0.00753 0.00606 0.0
Zn3 Zn 0.97257 0.93825 0.98574 0.0
Zn4 Zn 0.9114 0.01911 0.02957 0.0
Zn5 Zn 0.98701 0.06492 0.97798 0.0
O6 O 0.9716 0.94759 0.94298 0.0
O7 O 0.99249 0.03426 0.93738 0.0
O8 O 0.08999 0.94001 0.02486 0.0
O9 O 0.03977 0.89247 0.99339 0.0
O10 O 0.90507 0.89631 0.99847 0.0
O11 O 0.86261 0.95205 0.0292 0.0
O12 O 0.86679 0.08252 0.01524 0.0
O13 O 0.09373 0.06981 0.02303 0.0
O14 O 0.91983 0.11337 0.97986 0.0
O15 O 0.05528 0.11156 0.98637 0.0
C16 C 0.97718 0.02768 0.08502 0.0
C17 C 0.983 0.98719 0.92698 0.0
C18 C 0.86561 0.90675 0.016 0.0
C19 C 0.08276 0.89819 0.00914 0.0
C20 C 0.8761 0.11601 0.99537 0.0
C21 C 0.09356 0.10785 0.00511 0.0
O22 O 0.93201 0.03359 0.07108 0.0
O23 O 0.51021 0.50884 0.57129 0.0
Zn24 Zn 0.53394 0.5103 0.53006 0.0
O25 O 0.4696 0.51315 0.50439 0.0
Zn26 Zn 0.47008 0.44935 0.47897 0.0
Zn27 Zn 0.40066 0.51364 0.52713 0.0
Zn28 Zn 0.47441 0.57879 0.48163 0.0
O29 O 0.46891 0.47073 0.4375 0.0
O30 O 0.48117 0.55974 0.4394 0.0
O31 O 0.58342 0.44686 0.52096 0.0
O32 O 0.54119 0.40713 0.48387 0.0
O33 O 0.40546 0.39908 0.48752 0.0
O34 O 0.35715 0.44445 0.52067 0.0
O35 O 0.35185 0.57728 0.51726 0.0
O36 O 0.58191 0.57626 0.52629 0.0
O37 O 0.40471 0.62344 0.48702 0.0
O38 O 0.54085 0.62553 0.49323 0.0
C39 C 0.46311 0.51431 0.58368 0.0
C40 C 0.47631 0.51566 0.42517 0.0
C41 C 0.36418 0.40286 0.50471 0.0
C42 C 0.58159 0.41036 0.50153 0.0
C43 C 0.35981 0.61786 0.5014 0.0
C44 C 0.57989 0.61846 0.51124 0.0
O45 O 0.41798 0.51825 0.5695 0.0
P46 P 0.08755 0.11637 0.39957 0.0
H47 H 0.05899 0.20325 0.43993 0.0
H48 H 0.97059 0.23548 0.45924 0.0
H49 H 0.88355 0.10905 0.4122 0.0
H50 H 0.97311 0.07604 0.3937 0.0
H51 H 0.17411 0.1045 0.44316 0.0
H52 H 0.21132 0.0259 0.46748 0.0
H53 H 0.0903 0.92444 0.42349 0.0
H54 H 0.05323 0.00312 0.39981 0.0
H55 H 0.01855 0.16329 0.35495 0.0
H56 H 0.14178 0.03768 0.36089 0.0
O57 O 0.13424 0.16634 0.40238 0.0
H58 H 0.00918 0.14499 0.30397 0.0
H59 H 0.13189 0.01809 0.30969 0.0
C60 C 0.02231 0.13827 0.4148 0.0
C61 C 0.02085 0.18257 0.43376 0.0
C62 C 0.96989 0.20128 0.44458 0.0
C63 C 0.91938 0.17598 0.4364 0.0
C64 C 0.92158 0.12988 0.41852 0.0
C65 C 0.97263 0.11106 0.40787 0.0
C66 C 0.11181 0.05927 0.4192 0.0
C67 C 0.15539 0.06533 0.43896 0.0
C68 C 0.17644 0.02041 0.45296 0.0
C69 C 0.15393 0.96876 0.44769 0.0
C70 C 0.10849 0.96334 0.42867 0.0
C71 C 0.08742 0.00838 0.41476 0.0
C72 C 0.0792 0.10046 0.362 0.0
C73 C 0.04268 0.13082 0.34535 0.0
C74 C 0.03718 0.12 0.31603 0.0
C75 C 0.06861 0.07865 0.30271 0.0
C76 C 0.10641 0.0495 0.31938 0.0
C77 C 0.11187 0.06045 0.34871 0.0
P78 P 0.09649 0.90846 0.61303 0.0
H79 H 0.08306 0.81731 0.57325 0.0
H80 H 0.00095 0.77178 0.5531 0.0
H81 H 0.89444 0.88659 0.59741 0.0
H82 H 0.97652 0.9319 0.61693 0.0
H83 H 0.17073 0.99862 0.62644 0.0
H84 H 0.21202 0.06916 0.59776 0.0
H85 H 0.12483 0.00711 0.52318 0.0
H86 H 0.08373 0.93589 0.55228 0.0
H87 H 0.10281 0.85293 0.66737 0.0
H88 H 0.05343 0.00977 0.63845 0.0
O89 O 0.1472 0.86257 0.61433 0.0
H90 H 0.08333 0.88031 0.71659 0.0
H91 H 0.03314 0.03773 0.68797 0.0
C92 C 0.03577 0.87726 0.59705 0.0
C93 C 0.04195 0.8327 0.5785 0.0
C94 C 0.99498 0.80684 0.56692 0.0
C95 C 0.94092 0.82536 0.57338 0.0
C96 C 0.93504 0.87122 0.59141 0.0
C97 C 0.98218 0.89709 0.60294 0.0
C98 C 0.12232 0.9633 0.59185 0.0
C99 C 0.15928 0.001 0.6041 0.0
C100 C 0.18272 0.04166 0.58757 0.0
C101 C 0.17001 0.04516 0.55823 0.0
C102 C 0.13433 0.00621 0.54582 0.0
C103 C 0.1106 0.96566 0.56249 0.0
C104 C 0.08064 0.9296 0.64931 0.0
C105 C 0.08754 0.89333 0.67166 0.0
C106 C 0.07559 0.90897 0.6999 0.0
C107 C 0.05569 0.96123 0.7063 0.0
C108 C 0.04829 0.99724 0.68372 0.0
C109 C 0.06006 0.9814 0.65544 0.0
P110 P 0.55829 0.57546 0.90056 0.0
H111 H 0.53445 0.65562 0.94533 0.0
H112 H 0.44781 0.68931 0.96604 0.0
H113 H 0.35381 0.58088 0.91066 0.0
H114 H 0.4414 0.5463 0.89061 0.0
H115 H 0.64275 0.55541 0.94414 0.0
H116 H 0.66898 0.47491 0.96996 0.0
H117 H 0.53986 0.3842 0.92572 0.0
H118 H 0.51295 0.46583 0.90033 0.0
H119 H 0.49869 0.63237 0.85601 0.0
H120 H 0.60428 0.49249 0.86147 0.0
O121 O 0.60791 0.62239 0.90475 0.0
H122 H 0.49037 0.61816 0.80466 0.0
H123 H 0.59522 0.47699 0.80988 0.0
C124 C 0.49412 0.59993 0.91576 0.0
C125 C 0.49514 0.6395 0.93748 0.0
C126 C 0.44527 0.65898 0.94919 0.0
C127 C 0.39346 0.63906 0.93925 0.0
C128 C 0.39298 0.59756 0.91841 0.0
C129 C 0.44291 0.578 0.90683 0.0
C130 C 0.57718 0.516 0.91965 0.0
C131 C 0.62039 0.51812 0.9398 0.0
C132 C 0.63553 0.47184 0.95446 0.0
C133 C 0.60763 0.42258 0.9491 0.0
C134 C 0.5625 0.42141 0.92995 0.0
C135 C 0.54735 0.46782 0.91533 0.0
C136 C 0.55036 0.56238 0.86275 0.0
C137 C 0.51906 0.59778 0.84617 0.0
C138 C 0.51408 0.58927 0.81666 0.0
C139 C 0.54077 0.54515 0.8031 0.0
C140 C 0.57338 0.5107 0.81975 0.0
C141 C 0.57835 0.51935 0.84928 0.0
P142 P 0.6017 0.39462 0.11509 0.0
H143 H 0.59228 0.30472 0.07396 0.0
H144 H 0.51203 0.26117 0.05074 0.0
H145 H 0.40233 0.37713 0.09191 0.0
H146 H 0.48265 0.42049 0.11461 0.0
H147 H 0.67284 0.4832 0.13495 0.0
H148 H 0.71062 0.5624 0.11173 0.0
H149 H 0.62397 0.51718 0.03379 0.0
H150 H 0.58667 0.43732 0.0573 0.0
H151 H 0.59848 0.32253 0.16333 0.0
H152 H 0.55824 0.48871 0.1477 0.0
O153 O 0.65466 0.35107 0.11419 0.0
H154 H 0.57098 0.33439 0.21344 0.0
H155 H 0.5309 0.50108 0.19778 0.0
C156 C 0.54315 0.36516 0.0964 0.0
C157 C 0.55094 0.3209 0.07781 0.0
C158 C 0.50508 0.29618 0.06447 0.0
C159 C 0.45075 0.31572 0.06915 0.0
C160 C 0.44341 0.36134 0.08717 0.0
C161 C 0.48937 0.38596 0.10053 0.0
C162 C 0.6252 0.45547 0.09827 0.0
C163 C 0.66085 0.49105 0.11309 0.0
C164 C 0.68222 0.53669 0.09971 0.0
C165 C 0.66869 0.54735 0.07104 0.0
C166 C 0.63414 0.5107 0.05605 0.0
C167 C 0.61259 0.46514 0.06952 0.0
C168 C 0.58225 0.40519 0.15205 0.0
C169 C 0.58442 0.3618 0.17079 0.0
C170 C 0.56848 0.36857 0.19938 0.0
C171 C 0.55022 0.41892 0.20986 0.0
C172 C 0.5466 0.46217 0.19079 0.0
C173 C 0.56212 0.45515 0.16205 0.0
H174 H 0.13419 0.18493 0.99341 0.0
C175 C 0.13741 0.14993 0.00698 0.0
H176 H 0.182 0.1125 0.04007 0.0
H177 H 0.37344 0.2889 0.99965 0.0
H178 H 0.3731 0.24257 0.95346 0.0
H179 H 0.30382 0.17119 0.94262 0.0
H180 H 0.23394 0.14637 0.97763 0.0
C181 C 0.17957 0.14666 0.02587 0.0
C182 C 0.2199 0.19155 0.03115 0.0
C183 C 0.26123 0.20455 0.01058 0.0
C184 C 0.30265 0.24416 0.01724 0.0
C185 C 0.34229 0.2578 0.99603 0.0
C186 C 0.34235 0.23175 0.96939 0.0
C187 C 0.30324 0.19168 0.96326 0.0
C188 C 0.26313 0.17799 0.98353 0.0
H189 H 0.41029 0.2431 0.05038 0.0
C190 C 0.40292 0.28493 0.0567 0.0
H191 H 0.34188 0.34659 0.05916 0.0
H192 H 0.14384 0.1795 0.07446 0.0
H193 H 0.14518 0.22496 0.12078 0.0
H194 H 0.21901 0.2911 0.13294 0.0
H195 H 0.29186 0.3123 0.09882 0.0
C196 C 0.35122 0.30503 0.05342 0.0
C197 C 0.30392 0.26909 0.04478 0.0
C198 C 0.26141 0.25751 0.06493 0.0
C199 C 0.21932 0.2188 0.05808 0.0
C200 C 0.17738 0.20793 0.07866 0.0
C201 C 0.17748 0.23389 0.10532 0.0
C202 C 0.21902 0.27116 0.11215 0.0
C203 C 0.2606 0.28297 0.09232 0.0
H204 H 0.16778 0.86855 0.01725 0.0
C205 C 0.12818 0.85839 0.0071 0.0
H206 H 0.08493 0.80334 0.98014 0.0
H207 H 0.30311 0.73879 0.91202 0.0
H208 H 0.24661 0.78011 0.87548 0.0
H209 H 0.1564 0.8224 0.88773 0.0
H210 H 0.1225 0.82424 0.93651 0.0
C211 C 0.12392 0.81323 0.99092 0.0
C212 C 0.17448 0.78142 0.98327 0.0
C213 C 0.19324 0.78021 0.95445 0.0
C214 C 0.24507 0.75561 0.94736 0.0
C215 C 0.26373 0.75636 0.91858 0.0
C216 C 0.23181 0.78011 0.89738 0.0
C217 C 0.18108 0.804 0.90427 0.0
C218 C 0.16199 0.80453 0.93243 0.0
H219 H 0.30164 0.63733 0.94517 0.0
C220 C 0.33922 0.6608 0.94966 0.0
H221 H 0.36928 0.73588 0.96609 0.0
H222 H 0.14591 0.76854 0.03948 0.0
H223 H 0.20169 0.72546 0.07585 0.0
H224 H 0.29303 0.68519 0.06375 0.0
H225 H 0.32889 0.68732 0.01513 0.0
C226 C 0.33362 0.70982 0.96203 0.0
C227 C 0.27765 0.73189 0.96904 0.0
C228 C 0.25783 0.73103 0.99757 0.0
C229 C 0.20579 0.75526 0.00466 0.0
C230 C 0.18602 0.75227 0.03315 0.0
C231 C 0.21741 0.72729 0.05416 0.0
C232 C 0.2688 0.70454 0.04734 0.0
C233 C 0.28894 0.70614 0.01939 0.0
H234 H 0.79503 0.87255 0.0403 0.0
C235 C 0.82545 0.86383 0.02356 0.0
H236 H 0.8611 0.80363 0.99685 0.0
H237 H 0.81155 0.61465 0.0814 0.0
H238 H 0.91231 0.62282 0.08481 0.0
H239 H 0.96224 0.69744 0.06154 0.0
H240 H 0.91186 0.7642 0.03468 0.0
C241 C 0.82939 0.81334 0.01276 0.0
C242 C 0.7986 0.76768 0.02591 0.0
C243 C 0.82884 0.72894 0.04156 0.0
C244 C 0.80005 0.68627 0.05525 0.0
C245 C 0.83127 0.64817 0.07077 0.0
C246 C 0.88915 0.65232 0.07288 0.0
C247 C 0.91726 0.69428 0.05975 0.0
C248 C 0.88773 0.7323 0.04432 0.0
H249 H 0.69449 0.59199 0.03246 0.0
C250 C 0.69245 0.5943 0.05569 0.0
H251 H 0.70939 0.64365 0.09217 0.0
H252 H 0.72874 0.83166 0.99517 0.0
H253 H 0.62784 0.82337 0.99181 0.0
H254 H 0.57763 0.75099 0.01687 0.0
H255 H 0.62803 0.68618 0.04526 0.0
C256 C 0.71152 0.63916 0.06908 0.0
C257 C 0.74112 0.68225 0.05325 0.0
C258 C 0.71092 0.72028 0.03715 0.0
C259 C 0.73976 0.76282 0.02325 0.0
C260 C 0.70878 0.79942 0.00672 0.0
C261 C 0.65089 0.79495 0.00451 0.0
C262 C 0.62263 0.75413 0.01857 0.0
C263 C 0.65206 0.71714 0.03475 0.0
H264 H 0.8461 0.18655 0.97227 0.0
C265 C 0.83606 0.15949 0.98963 0.0
H266 H 0.77833 0.14201 0.02257 0.0
H267 H 0.69105 0.38517 0.02262 0.0
H268 H 0.72754 0.37785 0.07077 0.0
H269 H 0.77451 0.29473 0.08607 0.0
H270 H 0.78575 0.21861 0.05315 0.0
C271 C 0.78859 0.16727 0.00453 0.0
C272 C 0.75111 0.21298 0.99738 0.0
C273 C 0.74422 0.2566 0.01706 0.0
C274 C 0.71752 0.30466 0.00823 0.0
C275 C 0.71165 0.34799 0.02815 0.0
C276 C 0.73213 0.3442 0.05589 0.0
C277 C 0.75864 0.29742 0.06447 0.0
C278 C 0.76486 0.25405 0.04536 0.0
H279 H 0.59534 0.33887 0.96396 0.0
C280 C 0.62556 0.37157 0.9624 0.0
H281 H 0.71065 0.39338 0.96744 0.0
H282 H 0.74417 0.1318 0.95715 0.0
H283 H 0.70793 0.13891 0.90888 0.0
H284 H 0.66884 0.22465 0.89209 0.0
H285 H 0.66453 0.30313 0.92351 0.0
C286 C 0.67901 0.36222 0.96947 0.0
C287 C 0.69806 0.30902 0.97977 0.0
C288 C 0.70163 0.26407 0.96064 0.0
C289 C 0.72677 0.2155 0.96978 0.0
C290 C 0.72768 0.17035 0.9508 0.0
C291 C 0.70667 0.17377 0.92314 0.0
C292 C 0.68448 0.22197 0.91373 0.0
C293 C 0.682 0.26674 0.93211 0.0
H294 H 0.61797 0.69885 0.50438 0.0
C295 C 0.62301 0.6608 0.51527 0.0
H296 H 0.67193 0.61603 0.54385 0.0
H297 H 0.8526 0.80714 0.50729 0.0
H298 H 0.84495 0.77189 0.45869 0.0
H299 H 0.77634 0.70067 0.44648 0.0
H300 H 0.71436 0.66499 0.48259 0.0
C301 C 0.66742 0.65352 0.53238 0.0
C302 C 0.70859 0.6972 0.53901 0.0
C303 C 0.74557 0.71646 0.51769 0.0
C304 C 0.78685 0.75587 0.52497 0.0
C305 C 0.82184 0.77592 0.50311 0.0
C306 C 0.81769 0.75624 0.47511 0.0
C307 C 0.77893 0.71628 0.46822 0.0
C308 C 0.7433 0.69638 0.48916 0.0
H309 H 0.90055 0.75325 0.55389 0.0
C310 C 0.89233 0.79371 0.56224 0.0
H311 H 0.82837 0.85115 0.5702 0.0
H312 H 0.64285 0.67083 0.58479 0.0
H313 H 0.65289 0.70399 0.63358 0.0
H314 H 0.72643 0.76994 0.64643 0.0
H315 H 0.79064 0.80298 0.61056 0.0
C316 C 0.83917 0.81125 0.5622 0.0
C317 C 0.79256 0.7743 0.55372 0.0
C318 C 0.75504 0.75574 0.5749 0.0
C319 C 0.71301 0.71725 0.56754 0.0
C320 C 0.67612 0.69943 0.5892 0.0
C321 C 0.6812 0.71833 0.61731 0.0
C322 C 0.72261 0.75546 0.62454 0.0
C323 C 0.75919 0.77411 0.6037 0.0
H324 H 0.66418 0.37879 0.51339 0.0
C325 C 0.63002 0.37419 0.49822 0.0
H326 H 0.60318 0.33695 0.45961 0.0
H327 H 0.84919 0.31056 0.41266 0.0
H328 H 0.81319 0.3804 0.38218 0.0
H329 H 0.72091 0.42097 0.39149 0.0
H330 H 0.66351 0.39116 0.43095 0.0
C331 C 0.63572 0.34013 0.47574 0.0
C332 C 0.69019 0.31356 0.4697 0.0
C333 C 0.72302 0.33128 0.44638 0.0
C334 C 0.77675 0.30875 0.4414 0.0
C335 C 0.80848 0.32691 0.41779 0.0
C336 C 0.78827 0.3669 0.40004 0.0
C337 C 0.73626 0.38964 0.40524 0.0
C338 C 0.70375 0.37211 0.42802 0.0
H339 H 0.82769 0.17044 0.4425 0.0
C340 C 0.86376 0.19676 0.44551 0.0
H341 H 0.88916 0.27647 0.45626 0.0
H342 H 0.63538 0.26656 0.51425 0.0
H343 H 0.67239 0.19859 0.54573 0.0
H344 H 0.76775 0.16322 0.53884 0.0
H345 H 0.82636 0.19496 0.50022 0.0
C346 C 0.8551 0.24758 0.45503 0.0
C347 C 0.79772 0.26881 0.45984 0.0
C348 C 0.76465 0.25068 0.48301 0.0
C349 C 0.71041 0.2725 0.48764 0.0
C350 C 0.67747 0.25248 0.51031 0.0
C351 C 0.6981 0.21331 0.52845 0.0
C352 C 0.75173 0.19329 0.52451 0.0
C353 C 0.78484 0.21166 0.50214 0.0
H354 H 0.29291 0.3608 0.52436 0.0
C355 C 0.32601 0.3565 0.50853 0.0
H356 H 0.36879 0.30239 0.48093 0.0
H357 H 0.31354 0.10682 0.56206 0.0
H358 H 0.41402 0.11546 0.5674 0.0
H359 H 0.46537 0.18993 0.54477 0.0
H360 H 0.41672 0.2561 0.51665 0.0
C361 C 0.33439 0.30808 0.49585 0.0
C362 C 0.30408 0.25943 0.50612 0.0
C363 C 0.33343 0.22066 0.52216 0.0
C364 C 0.30382 0.178 0.53543 0.0
C365 C 0.33397 0.14031 0.55173 0.0
C366 C 0.39165 0.1447 0.55492 0.0
C367 C 0.42056 0.1866 0.54215 0.0
C368 C 0.39204 0.22431 0.52602 0.0
H369 H 0.19935 0.07881 0.51707 0.0
C370 C 0.19558 0.08716 0.5399 0.0
H371 H 0.2094 0.14526 0.57291 0.0
H372 H 0.23695 0.32108 0.47274 0.0
H373 H 0.13667 0.31065 0.46625 0.0
H374 H 0.08498 0.23804 0.49035 0.0
H375 H 0.13324 0.17483 0.52067 0.0
C376 C 0.21386 0.13491 0.55039 0.0
C377 C 0.24504 0.17399 0.53256 0.0
C378 C 0.21617 0.21054 0.51497 0.0
C379 C 0.24581 0.25316 0.50158 0.0
C380 C 0.21615 0.28878 0.48388 0.0
C381 C 0.15873 0.28306 0.47988 0.0
C382 C 0.12963 0.24208 0.49339 0.0
C383 C 0.15779 0.20613 0.51077 0.0
H384 H 0.2757 0.6514 0.5101 0.0
C385 C 0.31531 0.65886 0.49944 0.0
H386 H 0.36116 0.71144 0.47315 0.0
H387 H 0.16036 0.82137 0.41277 0.0
H388 H 0.18883 0.75754 0.37574 0.0
H389 H 0.25681 0.68592 0.38597 0.0
H390 H 0.29691 0.67786 0.4333 0.0
C391 C 0.32229 0.70427 0.48453 0.0
C392 C 0.27598 0.74306 0.47993 0.0
C393 C 0.25213 0.74664 0.4523 0.0
C394 C 0.21243 0.7875 0.4465 0.0
C395 C 0.19031 0.79084 0.41849 0.0
C396 C 0.20631 0.75446 0.39699 0.0
C397 C 0.24462 0.71418 0.40273 0.0
C398 C 0.26743 0.71013 0.42999 0.0
H399 H 0.22476 0.92771 0.46817 0.0
C400 C 0.18244 0.92152 0.46027 0.0
H401 H 0.11868 0.86295 0.4536 0.0
H402 H 0.31238 0.74682 0.5355 0.0
H403 H 0.28029 0.80799 0.57313 0.0
H404 H 0.20849 0.87642 0.56343 0.0
H405 H 0.1685 0.88424 0.516 0.0
C406 C 0.16072 0.87141 0.46104 0.0
C407 C 0.19668 0.82479 0.46837 0.0
C408 C 0.21802 0.81932 0.49644 0.0
C409 C 0.2583 0.77882 0.50217 0.0
C410 C 0.28078 0.77595 0.53009 0.0
C411 C 0.26282 0.81092 0.55187 0.0
C412 C 0.22244 0.8495 0.54642 0.0
C413 C 0.2001 0.85381 0.51907 0.0
H414 H 0.93788 0.05093 0.12624 0.0
C415 C 0.9767 0.03783 0.11627 0.0
H416 H 0.06178 0.01888 0.12307 0.0
H417 H 0.03627 0.17546 0.23569 0.0
H418 H 0.04872 0.24686 0.20138 0.0
H419 H 0.04925 0.22664 0.14953 0.0
H420 H 0.03735 0.13485 0.13162 0.0
C421 C 0.02264 0.03247 0.13246 0.0
C422 C 0.02158 0.04476 0.1637 0.0
C423 C 0.02856 0.0986 0.1738 0.0
C424 C 0.02837 0.11022 0.20371 0.0
C425 C 0.03579 0.16435 0.2132 0.0
C426 C 0.0431 0.20573 0.19374 0.0
C427 C 0.04341 0.19434 0.16454 0.0
C428 C 0.03638 0.14149 0.15456 0.0
H429 H 0.0983 0.0422 0.26185 0.0
C430 C 0.06484 0.06592 0.2715 0.0
H431 H 0.98725 0.10377 0.26327 0.0
H432 H 0.00811 0.93736 0.15133 0.0
H433 H 0.99449 0.86585 0.18551 0.0
H434 H 0.99172 0.88613 0.23735 0.0
H435 H 0.00299 0.97785 0.25536 0.0
C436 C 0.02198 0.08059 0.25475 0.0
C437 C 0.0217 0.06792 0.22348 0.0
C438 C 0.01419 0.01408 0.21333 0.0
C439 C 0.01472 0.00248 0.18341 0.0
C440 C 0.00776 0.94838 0.17383 0.0
C441 C 0.99985 0.90698 0.19321 0.0
C442 C 0.99837 0.9184 0.2224 0.0
C443 C 0.00524 0.97123 0.23246 0.0
H444 H 0.98149 0.93514 0.88827 0.0
C445 C 0.98812 0.97638 0.89588 0.0
H446 H 0.00923 0.05582 0.88385 0.0
H447 H 0.12087 0.90741 0.77911 0.0
H448 H 0.18953 0.88382 0.81481 0.0
H449 H 0.17878 0.91405 0.86505 0.0
H450 H 0.09887 0.96729 0.88001 0.0
C451 C 0.00332 0.01408 0.87702 0.0
C452 C 0.01221 0.99949 0.84624 0.0
C453 C 0.05943 0.96867 0.83777 0.0
C454 C 0.06604 0.95194 0.80868 0.0
C455 C 0.11356 0.92104 0.8009 0.0
C456 C 0.15344 0.90735 0.82116 0.0
C457 C 0.14733 0.92426 0.84946 0.0
C458 C 0.10105 0.95461 0.85779 0.0
H459 H 0.04565 0.02336 0.74064 0.0
C460 C 0.04456 0.98015 0.73621 0.0
H461 H 0.03012 0.9035 0.75415 0.0
H462 H 0.91923 0.06116 0.85501 0.0
H463 H 0.85078 0.08569 0.8193 0.0
H464 H 0.86087 0.05498 0.76909 0.0
H465 H 0.93953 -1e-05 0.75419 0.0
C466 C 0.03241 0.94677 0.75781 0.0
C467 C 0.02593 0.96673 0.78795 0.0
C468 C 0.97928 0.99852 0.79633 0.0
C469 C 0.97283 0.01541 0.82545 0.0
C470 C 0.92598 0.04712 0.83323 0.0
C471 C 0.88636 0.06143 0.81297 0.0
C472 C 0.89209 0.0442 0.78469 0.0
C473 C 0.93773 0.01291 0.77637 0.0
H474 H 0.41966 0.52027 0.62538 0.0
C475 C 0.46048 0.51784 0.61521 0.0
H476 H 0.5479 0.52049 0.62158 0.0
H477 H 0.5279 0.64969 0.73908 0.0
H478 H 0.55325 0.7224 0.70744 0.0
H479 H 0.55575 0.70772 0.65514 0.0
H480 H 0.5337 0.62004 0.63413 0.0
C481 C 0.50675 0.52047 0.63143 0.0
C482 C 0.50346 0.52921 0.66293 0.0
C483 C 0.51675 0.58062 0.67484 0.0
C484 C 0.51466 0.58925 0.70497 0.0
C485 C 0.52838 0.64099 0.71631 0.0
C486 C 0.54308 0.68308 0.69841 0.0
C487 C 0.54462 0.67478 0.66896 0.0
C488 C 0.53181 0.62424 0.65719 0.0
H489 H 0.56883 0.50845 0.76202 0.0
C490 C 0.53769 0.53498 0.77166 0.0
H491 H 0.46582 0.58194 0.76312 0.0
H492 H 0.47787 0.42519 0.64707 0.0
H493 H 0.44976 0.35318 0.67857 0.0
H494 H 0.44272 0.36906 0.7307 0.0
H495 H 0.46432 0.45687 0.75168 0.0
C496 C 0.49826 0.55578 0.75464 0.0
C497 C 0.49955 0.54638 0.72313 0.0
C498 C 0.4855 0.49511 0.71119 0.0
C499 C 0.48806 0.48636 0.68105 0.0
C500 C 0.47546 0.43437 0.66975 0.0
C501 C 0.45943 0.39263 0.68759 0.0
C502 C 0.45558 0.40154 0.71695 0.0
C503 C 0.46835 0.45209 0.72873 0.0
H504 H 0.49293 0.55519 0.38399 0.0
C505 C 0.48265 0.51688 0.39371 0.0
H506 H 0.47058 0.4333 0.38671 0.0
H507 H 0.44994 0.5305 0.25484 0.0
H508 H 0.36728 0.57736 0.27191 0.0
H509 H 0.34063 0.5757 0.32287 0.0
H510 H 0.39657 0.52747 0.3571 0.0
C511 C 0.47903 0.4721 0.37712 0.0
C512 C 0.49365 0.47258 0.34609 0.0
C513 C 0.46012 0.50064 0.32628 0.0
C514 C 0.47499 0.50084 0.29677 0.0
C515 C 0.44067 0.52904 0.27747 0.0
C516 C 0.39301 0.55602 0.28697 0.0
C517 C 0.37805 0.55515 0.31567 0.0
C518 C 0.41084 0.52763 0.33515 0.0
H519 H 0.52383 0.38717 0.25171 0.0
C520 C 0.53441 0.42401 0.24057 0.0
H521 H 0.54759 0.5082 0.24572 0.0
H522 H 0.56661 0.41399 0.3782 0.0
H523 H 0.64897 0.36706 0.36107 0.0
H524 H 0.67671 0.37042 0.31033 0.0
H525 H 0.62126 0.41935 0.27623 0.0
C526 C 0.53645 0.47057 0.2558 0.0
C527 C 0.52271 0.47221 0.28698 0.0
C528 C 0.5567 0.44479 0.30686 0.0
C529 C 0.54162 0.44425 0.33633 0.0
C530 C 0.5759 0.41581 0.35559 0.0
C531 C 0.62361 0.38895 0.3461 0.0
C532 C 0.63908 0.39065 0.3175 0.0
C533 C 0.60646 0.41847 0.29808 0.0
loop_
_geom_bond_atom_site_label_1
_geom_bond_atom_site_label_2
_geom_bond_distance
_geom_bond_site_symmetry_2
_ccdc_geom_bond_type
O0 Zn1 1.953 . S
O0 C16 1.225 1_565 S
Zn1 O0 1.953 . S
Zn1 O2 1.949 1_565 S
Zn1 O8 1.919 . S
Zn1 O13 1.924 1_565 S
O2 Zn1 1.949 1_545 S
O2 Zn3 1.923 1_444 S
O2 Zn4 1.950 1_455 S
O2 Zn5 1.945 1_554 S
Zn3 O2 1.923 1_666 S
Zn3 O6 1.933 . S
Zn3 O9 1.941 1_655 S
Zn3 O10 1.965 . S
Zn4 O2 1.950 1_655 S
Zn4 O11 1.938 1_545 S
Zn4 O12 1.906 . S
Zn4 O22 1.953 . S
Zn5 O2 1.945 1_556 S
Zn5 O7 1.932 . S
Zn5 O14 1.977 1_455 S
Zn5 O15 1.910 . S
O6 Zn3 1.933 . S
O6 C17 1.226 1_665 S
O7 Zn5 1.932 . S
O7 C17 1.307 . S
O8 Zn1 1.919 . S
O8 C19 1.253 1_554 S
O9 Zn3 1.941 1_455 S
O9 C19 1.283 . S
O10 Zn3 1.965 . S
O10 C18 1.303 1_556 S
O11 Zn4 1.938 1_565 S
O11 C18 1.247 . S
O12 Zn4 1.906 . S
O12 C20 1.304 1_554 S
O13 Zn1 1.924 1_545 S
O13 C21 1.311 . S
O14 Zn5 1.977 1_655 S
O14 C20 1.272 . S
O15 Zn5 1.910 . S
O15 C21 1.231 1_556 S
C16 O0 1.225 1_545 S
C16 O22 1.298 1_455 S
C17 O6 1.226 1_445 S
C17 O7 1.307 . S
C18 O10 1.303 1_554 S
C18 O11 1.247 . S
C19 O8 1.253 1_556 S
C19 O9 1.283 . S
C20 O12 1.304 1_556 S
C20 O14 1.272 . S
C21 O13 1.311 . S
C21 O15 1.231 1_554 S
O22 Zn4 1.953 . S
O22 C16 1.298 1_655 S
O23 Zn24 1.953 . S
O23 C39 1.225 . S
Zn24 O23 1.953 . S
Zn24 O25 1.949 . S
Zn24 O31 1.919 . S
Zn24 O36 1.924 . S
O25 Zn24 1.949 . S
O25 Zn26 1.923 . S
O25 Zn27 1.950 . S
O25 Zn28 1.945 . S
Zn26 O25 1.923 . S
Zn26 O29 1.933 . S
Zn26 O32 1.941 . S
Zn26 O33 1.965 . S
Zn27 O25 1.950 . S
Zn27 O34 1.938 . S
Zn27 O35 1.906 . S
Zn27 O45 1.953 . S
Zn28 O25 1.945 . S
Zn28 O30 1.932 . S
Zn28 O37 1.977 . S
Zn28 O38 1.910 . S
O29 Zn26 1.933 . S
O29 C40 1.226 . S
O30 Zn28 1.932 . S
O30 C40 1.307 . S
O31 Zn24 1.919 . S
O31 C42 1.253 . S
O32 Zn26 1.941 . S
O32 C42 1.283 . S
O33 Zn26 1.965 . S
O33 C41 1.303 . S
O34 Zn27 1.938 . S
O34 C41 1.247 . S
O35 Zn27 1.906 . S
O35 C43 1.304 . S
O36 Zn24 1.924 . S
O36 C44 1.311 . S
O37 Zn28 1.977 . S
O37 C43 1.272 . S
O38 Zn28 1.910 . S
O38 C44 1.231 . S
C39 O23 1.225 . S
C39 O45 1.298 . S
C40 O29 1.226 . S
C40 O30 1.307 . S
C41 O33 1.303 . S
C41 O34 1.247 . S
C42 O31 1.253 . S
C42 O32 1.283 . S
C43 O35 1.304 . S
C43 O37 1.272 . S
C44 O36 1.311 . S
C44 O38 1.231 . S
O45 Zn27 1.953 . S
O45 C39 1.298 . S
P46 O57 1.490 . S
P46 C60 1.812 1_455 S
P46 C66 1.803 1_545 S
P46 C72 1.819 . S
H47 C61 0.941 1_455 S
H48 C62 0.939 . S
H49 C64 0.940 . S
H50 C65 0.940 . S
H51 C67 0.939 1_545 S
H52 C68 0.942 . S
H53 C70 0.940 . S
H54 C71 0.939 . S
H55 C73 0.941 . S
H56 C77 0.939 . S
O57 P46 1.490 . S
H58 C74 0.939 . S
H59 C76 0.940 . S
C60 P46 1.812 1_655 S
C60 C61 1.389 . S
C60 C65 1.391 . S
C61 H47 0.941 1_655 S
C61 C60 1.389 . S
C61 C62 1.397 . S
C62 H48 0.939 . S
C62 C61 1.397 . S
C62 C63 1.378 . S
C63 C62 1.378 . S
C63 C64 1.378 . S
C64 H49 0.940 . S
C64 C63 1.378 . S
C64 C65 1.396 . S
C65 H50 0.940 . S
C65 C60 1.391 . S
C65 C64 1.396 . S
C66 P46 1.803 1_565 S
C66 C67 1.378 . S
C66 C71 1.400 . S
C67 H51 0.939 1_565 S
C67 C66 1.378 . S
C67 C68 1.361 . S
C68 H52 0.942 . S
C68 C67 1.361 . S
C68 C69 1.369 . S
C69 C68 1.369 . S
C69 C70 1.404 . S
C70 H53 0.940 . S
C70 C69 1.404 . S
C70 C71 1.389 . S
C71 H54 0.939 . S
C71 C66 1.400 . S
C71 C70 1.389 . S
C72 P46 1.819 . S
C72 C73 1.391 . S
C72 C77 1.391 1_545 S
C73 H55 0.941 . S
C73 C72 1.391 . S
C73 C74 1.396 . S
C74 H58 0.939 . S
C74 C73 1.396 . S
C74 C75 1.397 . S
C75 C74 1.397 . S
C75 C76 1.385 1_545 S
C76 H59 0.940 . S
C76 C75 1.385 1_565 S
C76 C77 1.388 . S
C77 H56 0.939 . S
C77 C72 1.391 1_565 S
C77 C76 1.388 . S
P78 O89 1.490 . S
P78 C92 1.812 . S
P78 C98 1.803 1_565 S
P78 C104 1.819 . S
H79 C93 0.941 . S
H80 C94 0.939 . S
H81 C96 0.940 . S
H82 C97 0.940 . S
H83 C99 0.949 . S
H84 C100 0.942 . S
H85 C102 0.940 . S
H86 C103 0.939 . S
H87 C105 0.941 . S
H88 C109 0.939 . S
O89 P78 1.490 . S
H90 C106 0.939 . S
H91 C108 0.940 . S
C92 P78 1.812 . S
C92 C93 1.389 . S
C92 C97 1.391 1_455 S
C93 H79 0.941 . S
C93 C92 1.389 . S
C93 C94 1.397 1_455 S
C94 H80 0.939 . S
C94 C93 1.397 1_655 S
C94 C95 1.378 . S
C95 C94 1.378 . S
C95 C96 1.378 . S
C96 H81 0.940 . S
C96 C95 1.378 . S
C96 C97 1.396 . S
C97 H82 0.940 . S
C97 C92 1.391 1_655 S
C97 C96 1.396 . S
C98 P78 1.803 1_545 S
C98 C99 1.378 . S
C98 C103 1.400 . S
C99 H83 0.949 . S
C99 C98 1.378 . S
C99 C100 1.361 . S
C100 H84 0.942 . S
C100 C99 1.361 . S
C100 C101 1.369 . S
C101 C100 1.369 . S
C101 C102 1.404 . S
C102 H85 0.940 . S
C102 C101 1.404 . S
C102 C103 1.389 . S
C103 H86 0.939 . S
C103 C98 1.400 . S
C103 C102 1.389 . S
C104 P78 1.819 . S
C104 C105 1.391 . S
C104 C109 1.391 1_565 S
C105 H87 0.941 . S
C105 C104 1.391 . S
C105 C106 1.396 . S
C106 H90 0.939 . S
C106 C105 1.396 . S
C106 C107 1.397 . S
C107 C106 1.397 . S
C107 C108 1.385 1_565 S
C108 H91 0.940 . S
C108 C107 1.385 1_545 S
C108 C109 1.388 . S
C109 H88 0.939 . S
C109 C104 1.391 1_545 S
C109 C108 1.388 . S
P110 O121 1.490 . S
P110 C124 1.812 . S
P110 C130 1.803 . S
P110 C136 1.819 . S
H111 C125 0.941 . S
H112 C126 0.939 . S
H113 C128 0.940 . S
H114 C129 0.940 . S
H115 C131 0.939 . S
H116 C132 0.942 . S
H117 C134 0.940 . S
H118 C135 0.939 . S
H119 C137 0.941 . S
H120 C141 0.939 . S
O121 P110 1.490 . S
H122 C138 0.939 . S
H123 C140 0.940 . S
C124 P110 1.812 . S
C124 C125 1.389 . S
C124 C129 1.391 . S
C125 H111 0.941 . S
C125 C124 1.389 . S
C125 C126 1.397 . S
C126 H112 0.939 . S
C126 C125 1.397 . S
C126 C127 1.378 . S
C127 C126 1.378 . S
C127 C128 1.378 . S
C128 H113 0.940 . S
C128 C127 1.378 . S
C128 C129 1.396 . S
C129 H114 0.940 . S
C129 C124 1.391 . S
C129 C128 1.396 . S
C130 P110 1.803 . S
C130 C131 1.378 . S
C130 C135 1.400 . S
C131 H115 0.939 . S
C131 C130 1.378 . S
C131 C132 1.361 . S
C132 H116 0.942 . S
C132 C131 1.361 . S
C132 C133 1.369 . S
C133 C132 1.369 . S
C133 C134 1.404 . S
C134 H117 0.940 . S
C134 C133 1.404 . S
C134 C135 1.389 . S
C135 H118 0.939 . S
C135 C130 1.400 . S
C135 C134 1.389 . S
C136 P110 1.819 . S
C136 C137 1.391 . S
C136 C141 1.391 . S
C137 H119 0.941 . S
C137 C136 1.391 . S
C137 C138 1.396 . S
C138 H122 0.939 . S
C138 C137 1.396 . S
C138 C139 1.397 . S
C139 C138 1.397 . S
C139 C140 1.385 . S
C140 H123 0.940 . S
C140 C139 1.385 . S
C140 C141 1.388 . S
C141 H120 0.939 . S
C141 C136 1.391 . S
C141 C140 1.388 . S
P142 O153 1.490 . S
P142 C156 1.812 . S
P142 C162 1.803 . S
P142 C168 1.819 . S
H143 C157 0.941 . S
H144 C158 0.939 . S
H145 C160 0.940 . S
H146 C161 0.940 . S
H147 C163 0.939 . S
H148 C164 0.942 . S
H149 C166 0.940 . S
H150 C167 0.939 . S
H151 C169 0.941 . S
H152 C173 0.939 . S
O153 P142 1.490 . S
H154 C170 0.939 . S
H155 C172 0.940 . S
C156 P142 1.812 . S
C156 C157 1.389 . S
C156 C161 1.391 . S
C157 H143 0.941 . S
C157 C156 1.389 . S
C157 C158 1.397 . S
C158 H144 0.939 . S
C158 C157 1.397 . S
C158 C159 1.378 . S
C159 C158 1.378 . S
C159 C160 1.378 . S
C160 H145 0.940 . S
C160 C159 1.378 . S
C160 C161 1.396 . S
C161 H146 0.940 . S
C161 C156 1.391 . S
C161 C160 1.396 . S
C162 P142 1.803 . S
C162 C163 1.378 . S
C162 C167 1.400 . S
C163 H147 0.939 . S
C163 C162 1.378 . S
C163 C164 1.361 . S
C164 H148 0.942 . S
C164 C163 1.361 . S
C164 C165 1.369 . S
C165 C164 1.369 . S
C165 C166 1.404 . S
C166 H149 0.940 . S
C166 C165 1.404 . S
C166 C167 1.389 . S
C167 H150 0.939 . S
C167 C162 1.400 . S
C167 C166 1.389 . S
C168 P142 1.819 . S
C168 C169 1.391 . S
C168 C173 1.391 . S
C169 H151 0.941 . S
C169 C168 1.391 . S
C169 C170 1.396 . S
C170 H154 0.939 . S
C170 C169 1.396 . S
C170 C171 1.397 . S
C171 C170 1.397 . S
C171 C172 1.385 . S
C172 H155 0.940 . S
C172 C171 1.385 . S
C172 C173 1.388 . S
C173 H152 0.939 . S
C173 C168 1.391 . S
C173 C172 1.388 . S
H174 C175 0.951 . S
C175 H174 0.951 . S
C175 C181 1.265 . S
H176 C181 0.950 . S
H177 C185 0.949 . S
H178 C186 0.950 . S
H179 C187 0.951 . S
H180 C188 0.951 . S
C181 C175 1.265 . S
C181 H176 0.950 . S
C181 C182 1.478 . S
C182 C181 1.478 . S
C182 C183 1.397 . S
C182 C199 1.394 . S
C183 C182 1.397 . S
C183 C184 1.438 . S
C183 C188 1.429 1_554 S
C184 C183 1.438 . S
C184 C185 1.428 . S
C184 C197 1.394 . S
C185 H177 0.949 . S
C185 C184 1.428 . S
C185 C186 1.345 1_554 S
C186 H178 0.950 . S
C186 C185 1.345 1_556 S
C186 C187 1.424 . S
C187 H179 0.951 . S
C187 C186 1.424 . S
C187 C188 1.347 . S
C188 H180 0.951 . S
C188 C183 1.429 1_556 S
C188 C187 1.347 . S
H189 C190 0.951 . S
C190 H189 0.951 . S
C190 C196 1.265 . S
H191 C196 0.950 . S
H192 C200 0.949 . S
H193 C201 0.950 . S
H194 C202 0.951 . S
H195 C203 0.951 . S
C196 C190 1.265 . S
C196 H191 0.950 . S
C196 C197 1.478 . S
C197 C184 1.394 . S
C197 C196 1.478 . S
C197 C198 1.397 . S
C198 C197 1.397 . S
C198 C199 1.438 . S
C198 C203 1.429 . S
C199 C182 1.394 . S
C199 C198 1.438 . S
C199 C200 1.428 . S
C200 H192 0.949 . S
C200 C199 1.428 . S
C200 C201 1.345 . S
C201 H193 0.950 . S
C201 C200 1.345 . S
C201 C202 1.424 . S
C202 H194 0.951 . S
C202 C201 1.424 . S
C202 C203 1.347 . S
C203 H195 0.951 . S
C203 C198 1.429 . S
C203 C202 1.347 . S
H204 C205 0.951 . S
C205 H204 0.951 . S
C205 C211 1.265 . S
H206 C211 0.950 . S
H207 C215 0.949 . S
H208 C216 0.950 . S
H209 C217 0.951 . S
H210 C218 0.951 . S
C211 C205 1.265 . S
C211 H206 0.950 . S
C211 C212 1.478 . S
C212 C211 1.478 . S
C212 C213 1.397 . S
C212 C229 1.394 . S
C213 C212 1.397 . S
C213 C214 1.438 . S
C213 C218 1.429 . S
C214 C213 1.438 . S
C214 C215 1.428 . S
C214 C227 1.394 . S
C215 H207 0.949 . S
C215 C214 1.428 . S
C215 C216 1.345 . S
C216 H208 0.950 . S
C216 C215 1.345 . S
C216 C217 1.424 . S
C217 H209 0.951 . S
C217 C216 1.424 . S
C217 C218 1.347 . S
C218 H210 0.951 . S
C218 C213 1.429 . S
C218 C217 1.347 . S
H219 C220 0.951 . S
C220 H219 0.951 . S
C220 C226 1.265 . S
H221 C226 0.950 . S
H222 C230 0.949 . S
H223 C231 0.950 . S
H224 C232 0.951 . S
H225 C233 0.951 . S
C226 C220 1.265 . S
C226 H221 0.950 . S
C226 C227 1.478 . S
C227 C214 1.394 . S
C227 C226 1.478 . S
C227 C228 1.397 . S
C228 C227 1.397 . S
C228 C229 1.438 . S
C228 C233 1.429 1_556 S
C229 C212 1.394 . S
C229 C228 1.438 . S
C229 C230 1.428 1_556 S
C230 H222 0.949 . S
C230 C229 1.428 1_554 S
C230 C231 1.345 . S
C231 H223 0.950 . S
C231 C230 1.345 . S
C231 C232 1.424 . S
C232 H224 0.951 . S
C232 C231 1.424 . S
C232 C233 1.347 . S
C233 H225 0.951 . S
C233 C228 1.429 1_554 S
C233 C232 1.347 . S
H234 C235 0.951 . S
C235 H234 0.951 . S
C235 C241 1.265 . S
H236 C241 0.950 1_556 S
H237 C245 0.949 . S
H238 C246 0.950 . S
H239 C247 0.951 . S
H240 C248 0.951 . S
C241 C235 1.265 . S
C241 H236 0.950 1_554 S
C241 C242 1.478 . S
C242 C241 1.478 . S
C242 C243 1.397 . S
C242 C259 1.394 . S
C243 C242 1.397 . S
C243 C244 1.438 . S
C243 C248 1.429 1_554 S
C244 C243 1.438 . S
C244 C245 1.428 . S
C244 C257 1.394 . S
C245 H237 0.949 . S
C245 C244 1.428 . S
C245 C246 1.345 1_554 S
C246 H238 0.950 . S
C246 C245 1.345 1_556 S
C246 C247 1.424 . S
C247 H239 0.951 . S
C247 C246 1.424 . S
C247 C248 1.347 . S
C248 H240 0.951 . S
C248 C243 1.429 1_556 S
C248 C247 1.347 . S
H249 C250 0.951 . S
C250 H249 0.951 . S
C250 C256 1.265 . S
H251 C256 0.950 . S
H252 C260 0.949 . S
H253 C261 0.950 . S
H254 C262 0.951 . S
H255 C263 0.951 . S
C256 C250 1.265 . S
C256 H251 0.950 . S
C256 C257 1.478 . S
C257 C244 1.394 . S
C257 C256 1.478 . S
C257 C258 1.397 . S
C258 C257 1.397 . S
C258 C259 1.438 . S
C258 C263 1.429 . S
C259 C242 1.394 . S
C259 C258 1.438 . S
C259 C260 1.428 . S
C260 H252 0.949 . S
C260 C259 1.428 . S
C260 C261 1.345 . S
C261 H253 0.950 . S
C261 C260 1.345 . S
C261 C262 1.424 . S
C262 H254 0.951 . S
C262 C261 1.424 . S
C262 C263 1.347 . S
C263 H255 0.951 . S
C263 C258 1.429 . S
C263 C262 1.347 . S
H264 C265 0.951 . S
C265 H264 0.951 . S
C265 C271 1.265 . S
H266 C271 0.950 1_554 S
H267 C275 0.949 . S
H268 C276 0.950 . S
H269 C277 0.951 1_554 S
H270 C278 0.951 1_554 S
C271 C265 1.265 . S
C271 H266 0.950 1_556 S
C271 C272 1.478 . S
C272 C271 1.478 . S
C272 C273 1.397 . S
C272 C289 1.394 . S
C273 C272 1.397 . S
C273 C274 1.438 . S
C273 C278 1.429 . S
C274 C273 1.438 . S
C274 C275 1.428 . S
C274 C287 1.394 . S
C275 H267 0.949 . S
C275 C274 1.428 . S
C275 C276 1.345 . S
C276 H268 0.950 . S
C276 C275 1.345 . S
C276 C277 1.424 . S
C277 H269 0.951 1_556 S
C277 C276 1.424 . S
C277 C278 1.347 . S
C278 H270 0.951 1_556 S
C278 C273 1.429 . S
C278 C277 1.347 . S
H279 C280 0.951 . S
C280 H279 0.951 . S
C280 C286 1.265 . S
H281 C286 0.950 . S
H282 C290 0.949 . S
H283 C291 0.950 . S
H284 C292 0.951 . S
H285 C293 0.951 . S
C286 C280 1.265 . S
C286 H281 0.950 . S
C286 C287 1.478 . S
C287 C274 1.394 . S
C287 C286 1.478 . S
C287 C288 1.397 . S
C288 C287 1.397 . S
C288 C289 1.438 . S
C288 C293 1.429 . S
C289 C272 1.394 . S
C289 C288 1.438 . S
C289 C290 1.428 . S
C290 H282 0.949 . S
C290 C289 1.428 . S
C290 C291 1.345 . S
C291 H283 0.950 . S
C291 C290 1.345 . S
C291 C292 1.424 . S
C292 H284 0.951 . S
C292 C291 1.424 . S
C292 C293 1.347 . S
C293 H285 0.951 . S
C293 C288 1.429 . S
C293 C292 1.347 . S
H294 C295 0.951 . S
C295 H294 0.951 . S
C295 C301 1.265 . S
H296 C301 0.950 . S
H297 C305 0.949 . S
H298 C306 0.950 . S
H299 C307 0.951 . S
H300 C308 0.951 . S
C301 C295 1.265 . S
C301 H296 0.950 . S
C301 C302 1.478 . S
C302 C301 1.478 . S
C302 C303 1.397 . S
C302 C319 1.394 . S
C303 C302 1.397 . S
C303 C304 1.438 . S
C303 C308 1.429 . S
C304 C303 1.438 . S
C304 C305 1.428 . S
C304 C317 1.394 . S
C305 H297 0.949 . S
C305 C304 1.428 . S
C305 C306 1.345 . S
C306 H298 0.950 . S
C306 C305 1.345 . S
C306 C307 1.424 . S
C307 H299 0.951 . S
C307 C306 1.424 . S
C307 C308 1.347 . S
C308 H300 0.951 . S
C308 C303 1.429 . S
C308 C307 1.347 . S
H309 C310 0.951 . S
C310 H309 0.951 . S
C310 C316 1.265 . S
H311 C316 0.950 . S
H312 C320 0.949 . S
H313 C321 0.950 . S
H314 C322 0.951 . S
H315 C323 0.951 . S
C316 C310 1.265 . S
C316 H311 0.950 . S
C316 C317 1.478 . S
C317 C304 1.394 . S
C317 C316 1.478 . S
C317 C318 1.397 . S
C318 C317 1.397 . S
C318 C319 1.438 . S
C318 C323 1.429 . S
C319 C302 1.394 . S
C319 C318 1.438 . S
C319 C320 1.428 . S
C320 H312 0.949 . S
C320 C319 1.428 . S
C320 C321 1.345 . S
C321 H313 0.950 . S
C321 C320 1.345 . S
C321 C322 1.424 . S
C322 H314 0.951 . S
C322 C321 1.424 . S
C322 C323 1.347 . S
C323 H315 0.951 . S
C323 C318 1.429 . S
C323 C322 1.347 . S
H324 C325 0.951 . S
C325 H324 0.951 . S
C325 C331 1.265 . S
H326 C331 0.950 . S
H327 C335 0.949 . S
H328 C336 0.950 . S
H329 C337 0.951 . S
H330 C338 0.951 . S
C331 C325 1.265 . S
C331 H326 0.950 . S
C331 C332 1.478 . S
C332 C331 1.478 . S
C332 C333 1.397 . S
C332 C349 1.394 . S
C333 C332 1.397 . S
C333 C334 1.438 . S
C333 C338 1.429 . S
C334 C333 1.438 . S
C334 C335 1.428 . S
C334 C347 1.394 . S
C335 H327 0.949 . S
C335 C334 1.428 . S
C335 C336 1.345 . S
C336 H328 0.950 . S
C336 C335 1.345 . S
C336 C337 1.424 . S
C337 H329 0.951 . S
C337 C336 1.424 . S
C337 C338 1.347 . S
C338 H330 0.951 . S
C338 C333 1.429 . S
C338 C337 1.347 . S
H339 C340 0.951 . S
C340 H339 0.951 . S
C340 C346 1.265 . S
H341 C346 0.950 . S
H342 C350 0.949 . S
H343 C351 0.950 . S
H344 C352 0.951 . S
H345 C353 0.951 . S
C346 C340 1.265 . S
C346 H341 0.950 . S
C346 C347 1.478 . S
C347 C334 1.394 . S
C347 C346 1.478 . S
C347 C348 1.397 . S
C348 C347 1.397 . S
C348 C349 1.438 . S
C348 C353 1.429 . S
C349 C332 1.394 . S
C349 C348 1.438 . S
C349 C350 1.428 . S
C350 H342 0.949 . S
C350 C349 1.428 . S
C350 C351 1.345 . S
C351 H343 0.950 . S
C351 C350 1.345 . S
C351 C352 1.424 . S
C352 H344 0.951 . S
C352 C351 1.424 . S
C352 C353 1.347 . S
C353 H345 0.951 . S
C353 C348 1.429 . S
C353 C352 1.347 . S
H354 C355 0.951 . S
C355 H354 0.951 . S
C355 C361 1.265 . S
H356 C361 0.950 . S
H357 C365 0.949 . S
H358 C366 0.950 . S
H359 C367 0.951 . S
H360 C368 0.951 . S
C361 C355 1.265 . S
C361 H356 0.950 . S
C361 C362 1.478 . S
C362 C361 1.478 . S
C362 C363 1.397 . S
C362 C379 1.394 . S
C363 C362 1.397 . S
C363 C364 1.438 . S
C363 C368 1.429 . S
C364 C363 1.438 . S
C364 C365 1.428 . S
C364 C377 1.394 . S
C365 H357 0.949 . S
C365 C364 1.428 . S
C365 C366 1.345 . S
C366 H358 0.950 . S
C366 C365 1.345 . S
C366 C367 1.424 . S
C367 H359 0.951 . S
C367 C366 1.424 . S
C367 C368 1.347 . S
C368 H360 0.951 . S
C368 C363 1.429 . S
C368 C367 1.347 . S
H369 C370 0.951 . S
C370 H369 0.951 . S
C370 C376 1.265 . S
H371 C376 0.950 . S
H372 C380 0.949 . S
H373 C381 0.950 . S
H374 C382 0.951 . S
H375 C383 0.951 . S
C376 C370 1.265 . S
C376 H371 0.950 . S
C376 C377 1.478 . S
C377 C364 1.394 . S
C377 C376 1.478 . S
C377 C378 1.397 . S
C378 C377 1.397 . S
C378 C379 1.438 . S
C378 C383 1.429 . S
C379 C362 1.394 . S
C379 C378 1.438 . S
C379 C380 1.428 . S
C380 H372 0.949 . S
C380 C379 1.428 . S
C380 C381 1.345 . S
C381 H373 0.950 . S
C381 C380 1.345 . S
C381 C382 1.424 . S
C382 H374 0.951 . S
C382 C381 1.424 . S
C382 C383 1.347 . S
C383 H375 0.951 . S
C383 C378 1.429 . S
C383 C382 1.347 . S
H384 C385 0.951 . S
C385 H384 0.951 . S
C385 C391 1.265 . S
H386 C391 0.950 . S
H387 C395 0.949 . S
H388 C396 0.950 . S
H389 C397 0.951 . S
H390 C398 0.951 . S
C391 C385 1.265 . S
C391 H386 0.950 . S
C391 C392 1.478 . S
C392 C391 1.478 . S
C392 C393 1.397 . S
C392 C409 1.394 . S
C393 C392 1.397 . S
C393 C394 1.438 . S
C393 C398 1.429 . S
C394 C393 1.438 . S
C394 C395 1.428 . S
C394 C407 1.394 . S
C395 H387 0.949 . S
C395 C394 1.428 . S
C395 C396 1.345 . S
C396 H388 0.950 . S
C396 C395 1.345 . S
C396 C397 1.424 . S
C397 H389 0.951 . S
C397 C396 1.424 . S
C397 C398 1.347 . S
C398 H390 0.951 . S
C398 C393 1.429 . S
C398 C397 1.347 . S
H399 C400 0.951 . S
C400 H399 0.951 . S
C400 C406 1.265 . S
H401 C406 0.950 . S
H402 C410 0.949 . S
H403 C411 0.950 . S
H404 C412 0.951 . S
H405 C413 0.951 . S
C406 C400 1.265 . S
C406 H401 0.950 . S
C406 C407 1.478 . S
C407 C394 1.394 . S
C407 C406 1.478 . S
C407 C408 1.397 . S
C408 C407 1.397 . S
C408 C409 1.438 . S
C408 C413 1.429 . S
C409 C392 1.394 . S
C409 C408 1.438 . S
C409 C410 1.428 . S
C410 H402 0.949 . S
C410 C409 1.428 . S
C410 C411 1.345 . S
C411 H403 0.950 . S
C411 C410 1.345 . S
C411 C412 1.424 . S
C412 H404 0.951 . S
C412 C411 1.424 . S
C412 C413 1.347 . S
C413 H405 0.951 . S
C413 C408 1.429 . S
C413 C412 1.347 . S
H414 C415 0.953 1_565 S
C415 H414 0.953 1_545 S
C415 C421 1.264 1_655 S
H416 C421 0.950 . S
H417 C425 0.949 . S
H418 C426 0.950 . S
H419 C427 0.951 . S
H420 C428 0.951 . S
C421 C415 1.264 1_455 S
C421 H416 0.950 . S
C421 C422 1.478 . S
C422 C421 1.478 . S
C422 C423 1.397 . S
C422 C439 1.394 1_445 S
C423 C422 1.397 . S
C423 C424 1.438 . S
C423 C428 1.429 . S
C424 C423 1.438 . S
C424 C425 1.428 . S
C424 C437 1.400 1_455 S
C425 H417 0.949 . S
C425 C424 1.428 . S
C425 C426 1.345 . S
C426 H418 0.950 . S
C426 C425 1.345 . S
C426 C427 1.424 . S
C427 H419 0.951 . S
C427 C426 1.424 . S
C427 C428 1.347 . S
C428 H420 0.951 . S
C428 C423 1.429 . S
C428 C427 1.347 . S
H429 C430 0.951 . S
C430 H429 0.951 . S
C430 C436 1.265 1_445 S
H431 C436 0.950 . S
H432 C440 0.949 . S
H433 C441 0.950 . S
H434 C442 0.951 . S
H435 C443 0.951 . S
C436 C430 1.265 1_665 S
C436 H431 0.950 . S
C436 C437 1.478 1_565 S
C437 C424 1.400 1_655 S
C437 C436 1.478 1_545 S
C437 C438 1.391 1_545 S
C438 C437 1.391 1_565 S
C438 C439 1.438 . S
C438 C443 1.429 . S
C439 C422 1.394 1_665 S
C439 C438 1.438 . S
C439 C440 1.428 . S
C440 H432 0.949 . S
C440 C439 1.428 . S
C440 C441 1.345 . S
C441 H433 0.950 . S
C441 C440 1.345 . S
C441 C442 1.424 . S
C442 H434 0.951 . S
C442 C441 1.424 . S
C442 C443 1.347 . S
C443 H435 0.951 . S
C443 C438 1.429 . S
C443 C442 1.347 . S
H444 C445 0.951 1_655 S
C445 H444 0.951 1_455 S
C445 C451 1.265 1_545 S
H446 C451 0.950 . S
H447 C455 0.949 . S
H448 C456 0.950 . S
H449 C457 0.951 . S
H450 C458 0.951 . S
C451 C445 1.265 1_565 S
C451 H446 0.950 . S
C451 C452 1.478 1_565 S
C452 C451 1.478 1_545 S
C452 C453 1.397 1_545 S
C452 C469 1.394 . S
C453 C452 1.397 1_565 S
C453 C454 1.438 . S
C453 C458 1.429 . S
C454 C453 1.438 . S
C454 C455 1.428 . S
C454 C467 1.399 1_565 S
C455 H447 0.949 . S
C455 C454 1.428 . S
C455 C456 1.345 . S
C456 H448 0.950 . S
C456 C455 1.345 . S
C456 C457 1.424 . S
C457 H449 0.951 . S
C457 C456 1.424 . S
C457 C458 1.347 . S
C458 H450 0.951 . S
C458 C453 1.429 . S
C458 C457 1.347 . S
H459 C460 0.951 1_565 S
C460 H459 0.951 1_545 S
C460 C466 1.265 1_455 S
H461 C466 0.950 . S
H462 C470 0.947 1_455 S
H463 C471 0.950 . S
H464 C472 0.951 . S
H465 C473 0.951 . S
C466 C460 1.265 1_655 S
C466 H461 0.950 . S
C466 C467 1.475 1_655 S
C467 C454 1.399 1_545 S
C467 C466 1.475 1_455 S
C467 C468 1.394 1_455 S
C468 C467 1.394 1_655 S
C468 C469 1.438 1_655 S
C468 C473 1.429 . S
C469 C452 1.394 . S
C469 C468 1.438 1_455 S
C469 C470 1.428 1_455 S
C470 H462 0.947 1_655 S
C470 C469 1.428 1_655 S
C470 C471 1.345 . S
C471 H463 0.950 . S
C471 C470 1.345 . S
C471 C472 1.424 . S
C472 H464 0.951 . S
C472 C471 1.424 . S
C472 C473 1.347 . S
C473 H465 0.951 . S
C473 C468 1.429 . S
C473 C472 1.347 . S
H474 C475 0.951 . S
C475 H474 0.951 . S
C475 C481 1.265 . S
H476 C481 0.950 . S
H477 C485 0.949 . S
H478 C486 0.950 . S
H479 C487 0.951 . S
H480 C488 0.951 . S
C481 C475 1.265 . S
C481 H476 0.950 . S
C481 C482 1.478 . S
C482 C481 1.478 . S
C482 C483 1.397 . S
C482 C499 1.394 . S
C483 C482 1.397 . S
C483 C484 1.438 . S
C483 C488 1.429 . S
C484 C483 1.438 . S
C484 C485 1.428 . S
C484 C497 1.394 . S
C485 H477 0.949 . S
C485 C484 1.428 . S
C485 C486 1.345 . S
C486 H478 0.950 . S
C486 C485 1.345 . S
C486 C487 1.424 . S
C487 H479 0.951 . S
C487 C486 1.424 . S
C487 C488 1.347 . S
C488 H480 0.951 . S
C488 C483 1.429 . S
C488 C487 1.347 . S
H489 C490 0.951 . S
C490 H489 0.951 . S
C490 C496 1.265 . S
H491 C496 0.950 . S
H492 C500 0.949 . S
H493 C501 0.950 . S
H494 C502 0.951 . S
H495 C503 0.951 . S
C496 C490 1.265 . S
C496 H491 0.950 . S
C496 C497 1.478 . S
C497 C484 1.394 . S
C497 C496 1.478 . S
C497 C498 1.397 . S
C498 C497 1.397 . S
C498 C499 1.438 . S
C498 C503 1.429 . S
C499 C482 1.394 . S
C499 C498 1.438 . S
C499 C500 1.428 . S
C500 H492 0.949 . S
C500 C499 1.428 . S
C500 C501 1.345 . S
C501 H493 0.950 . S
C501 C500 1.345 . S
C501 C502 1.424 . S
C502 H494 0.951 . S
C502 C501 1.424 . S
C502 C503 1.347 . S
C503 H495 0.951 . S
C503 C498 1.429 . S
C503 C502 1.347 . S
H504 C505 0.951 . S
C505 H504 0.951 . S
C505 C511 1.265 . S
H506 C511 0.950 . S
H507 C515 0.949 . S
H508 C516 0.950 . S
H509 C517 0.951 . S
H510 C518 0.951 . S
C511 C505 1.265 . S
C511 H506 0.950 . S
C511 C512 1.478 . S
C512 C511 1.478 . S
C512 C513 1.397 . S
C512 C529 1.394 . S
C513 C512 1.397 . S
C513 C514 1.438 . S
C513 C518 1.429 . S
C514 C513 1.438 . S
C514 C515 1.428 . S
C514 C527 1.394 . S
C515 H507 0.949 . S
C515 C514 1.428 . S
C515 C516 1.345 . S
C516 H508 0.950 . S
C516 C515 1.345 . S
C516 C517 1.424 . S
C517 H509 0.951 . S
C517 C516 1.424 . S
C517 C518 1.347 . S
C518 H510 0.951 . S
C518 C513 1.429 . S
C518 C517 1.347 . S
H519 C520 0.951 . S
C520 H519 0.951 . S
C520 C526 1.265 . S
H521 C526 0.950 . S
H522 C530 0.949 . S
H523 C531 0.950 . S
H524 C532 0.951 . S
H525 C533 0.951 . S
C526 C520 1.265 . S
C526 H521 0.950 . S
C526 C527 1.478 . S
C527 C514 1.394 . S
C527 C526 1.478 . S
C527 C528 1.397 . S
C528 C527 1.397 . S
C528 C529 1.438 . S
C528 C533 1.429 . S
C529 C512 1.394 . S
C529 C528 1.438 . S
C529 C530 1.428 . S
C530 H522 0.949 . S
C530 C529 1.428 . S
C530 C531 1.345 . S
C531 H523 0.950 . S
C531 C530 1.345 . S
C531 C532 1.424 . S
C532 H524 0.951 . S
C532 C531 1.424 . S
C532 C533 1.347 . S
C533 H525 0.951 . S
C533 C528 1.429 . S
C533 C532 1.347 . S
C190 C159 1.383 . S
C175 C21 1.441 . S
C205 C19 1.428 . S
C220 C127 1.433 . S
C235 C18 1.410 . S
C250 C165 1.406 . S
C265 C20 1.421 . S
C280 C133 1.400 . S
C295 C44 1.444 . S
C310 C95 1.386 . S
C325 C42 1.428 . S
C340 C63 1.434 . S
C370 C101 1.402 . S
C355 C41 1.407 . S
C400 C69 1.350 . S
C385 C43 1.426 . S
C415 C16 1.487 1_655 S
C430 C75 1.414 . S
C445 C17 1.444 . S
C460 C107 1.388 1_545 S
C490 C139 1.414 . S
C475 C39 1.487 . S
C505 C40 1.458 . S
C520 C171 1.450 . S
