# Generated by pormake.
# Topology zzz, (3,6)-cn, num edge types: 1
# Building blocks:
#     Node 0, Type 0, BuildingBlock: BELTOD_clean_linker_0, # of connection points: 3
#     Node 1, Type 0, BuildingBlock: BELTOD_clean_linker_0, # of connection points: 3
#     Node 2, Type 0, BuildingBlock: BELTOD_clean_linker_0, # of connection points: 3
#     Node 3, Type 0, BuildingBlock: BELTOD_clean_linker_0, # of connection points: 3
#     Node 4, Type 0, BuildingBlock: BELTOD_clean_linker_0, # of connection points: 3
#     Node 5, Type 0, BuildingBlock: BELTOD_clean_linker_0, # of connection points: 3
#     Node 6, Type 0, BuildingBlock: BELTOD_clean_linker_0, # of connection points: 3
#     Node 7, Type 0, BuildingBlock: BELTOD_clean_linker_0, # of connection points: 3
#     Node 8, Type 1, BuildingBlock: JUFBIX_clean_sbu_0, # of connection points: 6
#     Node 9, Type 1, BuildingBlock: JUFBIX_clean_sbu_0, # of connection points: 6
#     Node 10, Type 1, BuildingBlock: JUFBIX_clean_sbu_0, # of connection points: 6
#     Node 11, Type 1, BuildingBlock: JUFBIX_clean_sbu_0, # of connection points: 6
#     Edge 12, Type (0, 1), BuildingBlock: CIFDUS_clean_linker_0, # of connection points: 2
#     Edge 13, Type (0, 1), BuildingBlock: CIFDUS_clean_linker_0, # of connection points: 2
#     Edge 14, Type (0, 1), BuildingBlock: CIFDUS_clean_linker_0, # of connection points: 2
#     Edge 15, Type (0, 1), BuildingBlock: CIFDUS_clean_linker_0, # of connection points: 2
#     Edge 16, Type (0, 1), BuildingBlock: CIFDUS_clean_linker_0, # of connection points: 2
#     Edge 17, Type (0, 1), BuildingBlock: CIFDUS_clean_linker_0, # of connection points: 2
#     Edge 18, Type (0, 1), BuildingBlock: CIFDUS_clean_linker_0, # of connection points: 2
#     Edge 19, Type (0, 1), BuildingBlock: CIFDUS_clean_linker_0, # of connection points: 2
#     Edge 20, Type (0, 1), BuildingBlock: CIFDUS_clean_linker_0, # of connection points: 2
#     Edge 21, Type (0, 1), BuildingBlock: CIFDUS_clean_linker_0, # of connection points: 2
#     Edge 22, Type (0, 1), BuildingBlock: CIFDUS_clean_linker_0, # of connection points: 2
#     Edge 23, Type (0, 1), BuildingBlock: CIFDUS_clean_linker_0, # of connection points: 2
#     Edge 24, Type (0, 1), BuildingBlock: CIFDUS_clean_linker_0, # of connection points: 2
#     Edge 25, Type (0, 1), BuildingBlock: CIFDUS_clean_linker_0, # of connection points: 2
#     Edge 26, Type (0, 1), BuildingBlock: CIFDUS_clean_linker_0, # of connection points: 2
#     Edge 27, Type (0, 1), BuildingBlock: CIFDUS_clean_linker_0, # of connection points: 2
#     Edge 28, Type (0, 1), BuildingBlock: CIFDUS_clean_linker_0, # of connection points: 2
#     Edge 29, Type (0, 1), BuildingBlock: CIFDUS_clean_linker_0, # of connection points: 2
#     Edge 30, Type (0, 1), BuildingBlock: CIFDUS_clean_linker_0, # of connection points: 2
#     Edge 31, Type (0, 1), BuildingBlock: CIFDUS_clean_linker_0, # of connection points: 2
#     Edge 32, Type (0, 1), BuildingBlock: CIFDUS_clean_linker_0, # of connection points: 2
#     Edge 33, Type (0, 1), BuildingBlock: CIFDUS_clean_linker_0, # of connection points: 2
#     Edge 34, Type (0, 1), BuildingBlock: CIFDUS_clean_linker_0, # of connection points: 2
#     Edge 35, Type (0, 1), BuildingBlock: CIFDUS_clean_linker_0, # of connection points: 2
# Relax obj value: 0.258
# Max RMSD: 0.213
# Mean RMSD: 0.176
data_MOF--net-zzz--node1-JUFBIX_clean_sbu_0--node2-BELTOD_clean_linker_0--edge1-CIFDUS_clean_linker_0
_symmetry_space_group_name_H-M    P1
_symmetry_Int_Tables_number       1
_symmetry_cell_setting            triclinic
loop_
_symmetry_equiv_pos_as_xyz
'x, y, z'
_cell_length_a     48.42095
_cell_length_b     49.921465
_cell_length_c     19.023683
_cell_angle_alpha  81.687004
_cell_angle_beta   90.249887
_cell_angle_gamma 86.230506
loop_
_atom_site_label
_atom_site_type_symbol
_atom_site_fract_x
_atom_site_fract_y
_atom_site_fract_z
_atom_type_partial_charge
P0 P 0.75712 0.48757 0.31348 0.0
H1 H 0.74121 0.49336 0.45855 0.0
H2 H 0.76748 0.50714 0.55613 0.0
H3 H 0.8296 0.53661 0.4074 0.0
H4 H 0.80352 0.52349 0.31169 0.0
H5 H 0.72768 0.54057 0.26319 0.0
H6 H 0.68518 0.55202 0.19096 0.0
H7 H 0.66833 0.4673 0.21861 0.0
H8 H 0.71086 0.45597 0.28795 0.0
H9 H 0.79574 0.44715 0.26203 0.0
H10 H 0.76836 0.53121 0.19935 0.0
O11 O 0.75778 0.4555 0.35363 0.0
H12 H 0.82941 0.45042 0.16692 0.0
H13 H 0.80295 0.53523 0.1075 0.0
C14 C 0.77035 0.50702 0.37761 0.0
C15 C 0.75991 0.5038 0.4467 0.0
C16 C 0.77508 0.5115 0.50251 0.0
C17 C 0.80096 0.52251 0.48988 0.0
C18 C 0.80974 0.52837 0.41937 0.0
C19 C 0.79466 0.52063 0.36394 0.0
C20 C 0.72246 0.49743 0.28088 0.0
C21 C 0.71452 0.52458 0.25478 0.0
C22 C 0.69032 0.53109 0.21347 0.0
C23 C 0.67353 0.51052 0.19902 0.0
C24 C 0.68066 0.48362 0.22945 0.0
C25 C 0.70503 0.47712 0.26934 0.0
C26 C 0.77945 0.48891 0.23777 0.0
C27 C 0.79681 0.46628 0.22755 0.0
C28 C 0.81635 0.46831 0.17353 0.0
C29 C 0.81927 0.4932 0.12973 0.0
C30 C 0.80113 0.51558 0.13903 0.0
C31 C 0.78123 0.51334 0.19191 0.0
P32 P 0.06899 0.74121 0.31417 0.0
H33 H 0.09349 0.75503 0.4425 0.0
H34 H 0.07619 0.78383 0.52735 0.0
H35 H 0.99376 0.78482 0.43851 0.0
H36 H 0.01155 0.75634 0.35224 0.0
H37 H 0.07621 0.68332 0.30096 0.0
H38 H 0.05718 0.65735 0.21504 0.0
H39 H 0.9989 0.72496 0.14154 0.0
H40 H 0.01844 0.75102 0.22664 0.0
H41 H 0.05987 0.8005 0.3136 0.0
H42 H 0.08878 0.74603 0.16866 0.0
O43 O 0.09995 0.72555 0.33667 0.0
H44 H 0.05849 0.83819 0.21824 0.0
H45 H 0.08812 0.78433 0.07226 0.0
C46 C 0.0538 0.75315 0.39144 0.0
C47 C 0.07149 0.76051 0.44293 0.0
C48 C 0.06152 0.77717 0.49154 0.0
C49 C 0.03358 0.78699 0.48952 0.0
C50 C 0.01549 0.77802 0.44089 0.0
C51 C 0.02555 0.76135 0.39208 0.0
C52 C 0.04878 0.71915 0.27035 0.0
C53 C 0.05876 0.69228 0.26799 0.0
C54 C 0.04784 0.67741 0.21863 0.0
C55 C 0.0268 0.68922 0.17051 0.0
C56 C 0.01542 0.71542 0.17695 0.0
C57 C 0.0263 0.73022 0.22644 0.0
C58 C 0.07396 0.77018 0.24819 0.0
C59 C 0.06646 0.79655 0.26167 0.0
C60 C 0.06591 0.81835 0.20682 0.0
C61 C 0.07298 0.81426 0.1374 0.0
C62 C 0.08215 0.78806 0.12496 0.0
C63 C 0.08272 0.76621 0.18007 0.0
P64 P 0.76615 0.06691 0.20599 0.0
H65 H 0.73517 0.09807 0.30047 0.0
H66 H 0.70751 0.08419 0.40453 0.0
H67 H 0.73947 1.00125 0.40765 0.0
H68 H 0.76798 0.01546 0.30418 0.0
H69 H 0.82313 0.08191 0.21077 0.0
H70 H 0.86592 0.06299 0.16538 0.0
H71 H 0.82335 0.99448 0.11547 0.0
H72 H 0.78029 0.01402 0.15967 0.0
H73 H 0.75072 0.09162 0.06093 0.0
H74 H 0.7251 0.02569 0.21384 0.0
O75 O 0.77004 0.10023 0.1926 0.0
H76 H 0.71394 0.08328 0.97901 0.0
H77 H 0.68872 0.01751 0.13315 0.0
C78 C 0.7538 0.05784 0.29486 0.0
C79 C 0.73723 0.07709 0.32524 0.0
C80 C 0.72134 0.06913 0.38471 0.0
C81 C 0.72126 0.04164 0.4138 0.0
C82 C 0.73919 0.02258 0.38607 0.0
C83 C 0.75561 0.0307 0.3274 0.0
C84 C 0.79847 0.04963 0.1874 0.0
C85 C 0.82308 0.0626 0.19111 0.0
C86 C 0.84762 0.05164 0.16539 0.0
C87 C 0.84805 0.02731 0.13595 0.0
C88 C 0.82362 0.0135 0.13646 0.0
C89 C 0.79902 0.02456 0.16218 0.0
C90 C 0.74011 0.05992 0.14452 0.0
C91 C 0.73724 0.07543 0.07696 0.0
C92 C 0.71642 0.07053 0.03007 0.0
C93 C 0.69829 0.05002 0.05037 0.0
C94 C 0.70207 0.03381 0.11681 0.0
C95 C 0.72289 0.0386 0.16321 0.0
P96 P 0.44587 0.75928 0.21432 0.0
H97 H 0.43178 0.75791 0.3639 0.0
H98 H 0.44719 0.72553 0.46739 0.0
H99 H 0.51463 0.6954 0.34642 0.0
H100 H 0.49932 0.72817 0.24306 0.0
H101 H 0.41407 0.80936 0.15947 0.0
H102 H 0.42666 0.85336 0.10104 0.0
H103 H 0.51306 0.82547 0.11775 0.0
H104 H 0.50025 0.78099 0.17818 0.0
H105 H 0.42469 0.70634 0.22436 0.0
H106 H 0.4764 0.75517 0.08086 0.0
O107 O 0.41225 0.76263 0.23298 0.0
H108 H 0.4334 0.66846 0.15815 0.0
H109 H 0.48475 0.71746 0.01306 0.0
C110 C 0.46401 0.745 0.29534 0.0
C111 C 0.4505 0.7451 0.36025 0.0
C112 C 0.45923 0.72644 0.41931 0.0
C113 C 0.48165 0.70745 0.4143 0.0
C114 C 0.49722 0.7097 0.35178 0.0
C115 C 0.48847 0.72846 0.29263 0.0
C116 C 0.45625 0.79197 0.17411 0.0
C117 C 0.43578 0.81263 0.15158 0.0
C118 C 0.44298 0.83785 0.11803 0.0
C119 C 0.47083 0.84289 0.10525 0.0
C120 C 0.49143 0.82207 0.12695 0.0
C121 C 0.48417 0.7968 0.16174 0.0
C122 C 0.44952 0.73369 0.15696 0.0
C123 C 0.43743 0.70909 0.17752 0.0
C124 C 0.44245 0.68743 0.13959 0.0
C125 C 0.45973 0.68993 0.08016 0.0
C126 C 0.47157 0.7148 0.05905 0.0
C127 C 0.46658 0.7365 0.09738 0.0
P128 P 0.20699 0.44572 0.29744 0.0
H129 H 0.20313 0.41816 0.17222 0.0
H130 H 0.1768 0.4317 0.06199 0.0
H131 H 0.16404 0.51308 0.11417 0.0
H132 H 0.19168 0.49961 0.22216 0.0
H133 H 0.267 0.43741 0.28912 0.0
H134 H 0.30474 0.45485 0.34981 0.0
H135 H 0.24529 0.50777 0.44304 0.0
H136 H 0.20886 0.49304 0.37383 0.0
H137 H 0.14803 0.45217 0.25477 0.0
H138 H 0.19581 0.44784 0.44878 0.0
O139 O 0.21599 0.41253 0.30787 0.0
H140 H 0.10638 0.4648 0.31636 0.0
H141 H 0.15383 0.46084 0.51064 0.0
C142 C 0.19922 0.45788 0.20544 0.0
C143 C 0.19578 0.43921 0.15828 0.0
C144 C 0.18028 0.44692 0.09568 0.0
C145 C 0.16747 0.47327 0.08011 0.0
C146 C 0.17355 0.49263 0.12398 0.0
C147 C 0.18949 0.48499 0.18592 0.0
C148 C 0.23496 0.46284 0.33009 0.0
C149 C 0.26235 0.45325 0.32148 0.0
C150 C 0.28391 0.463 0.35756 0.0
C151 C 0.27839 0.48191 0.40508 0.0
C152 C 0.25096 0.49314 0.40807 0.0
C153 C 0.22968 0.48425 0.36931 0.0
C154 C 0.17551 0.45069 0.34605 0.0
C155 C 0.14977 0.45418 0.31042 0.0
C156 C 0.1258 0.46121 0.34578 0.0
C157 C 0.12708 0.46458 0.41763 0.0
C158 C 0.15249 0.4592 0.45458 0.0
C159 C 0.17644 0.45176 0.4193 0.0
P160 P 0.04931 0.24019 0.3063 0.0
H161 H 0.08199 0.24727 0.17655 0.0
H162 H 0.0807 0.22333 0.07437 0.0
H163 H 0.00017 0.19641 0.13821 0.0
H164 H 0.00038 0.22343 0.23454 0.0
H165 H 0.07445 0.28574 0.35618 0.0
H166 H 0.05576 0.32004 0.42449 0.0
H167 H 0.97299 0.297 0.38761 0.0
H168 H 0.99218 0.26187 0.32064 0.0
H169 H 0.03707 0.18394 0.29129 0.0
H170 H 0.03821 0.23349 0.45876 0.0
O171 O 0.08363 0.23889 0.317 0.0
H172 H 0.01564 0.14936 0.36802 0.0
H173 H 0.02167 0.19667 0.54121 0.0
C174 C 0.04198 0.23572 0.21555 0.0
C175 C 0.06351 0.23724 0.16661 0.0
C176 C 0.06295 0.22292 0.10876 0.0
C177 C 0.04136 0.2059 0.10072 0.0
C178 C 0.01766 0.20846 0.14289 0.0
C179 C 0.0177 0.22403 0.19863 0.0
C180 C 0.03471 0.27122 0.33317 0.0
C181 C 0.05221 0.28854 0.36077 0.0
C182 C 0.04142 0.30829 0.40003 0.0
C183 C 0.01284 0.31114 0.41257 0.0
C184 C 0.99515 0.29505 0.38016 0.0
C185 C 0.00603 0.27522 0.34088 0.0
C186 C 0.03727 0.21235 0.36733 0.0
C187 C 0.03239 0.18761 0.34464 0.0
C188 C 0.02089 0.16708 0.39038 0.0
C189 C 0.01625 0.16965 0.46235 0.0
C190 C 0.02339 0.19387 0.4861 0.0
C191 C 0.03338 0.21505 0.43892 0.0
P192 P 0.2514 0.08454 0.358 0.0
H193 H 0.24398 0.10869 0.20906 0.0
H194 H 0.27327 0.10324 0.1074 0.0
H195 H 0.31506 0.0318 0.22768 0.0
H196 H 0.28466 0.03658 0.32712 0.0
H197 H 0.20351 0.10935 0.42046 0.0
H198 H 0.1668 0.09023 0.49436 0.0
H199 H 0.19451 0.00992 0.45429 0.0
H200 H 0.23149 0.02941 0.37876 0.0
H201 H 0.30929 0.09622 0.35134 0.0
H202 H 0.25573 0.05369 0.50364 0.0
O203 O 0.24678 0.11833 0.34401 0.0
H204 H 0.34896 0.08192 0.43099 0.0
H205 H 0.29527 0.03911 0.58269 0.0
C206 C 0.26279 0.07353 0.27627 0.0
C207 C 0.25863 0.09119 0.21237 0.0
C208 C 0.27566 0.08822 0.15452 0.0
C209 C 0.29734 0.06774 0.16026 0.0
C210 C 0.2988 0.04795 0.22117 0.0
C211 C 0.2814 0.05069 0.27849 0.0
C212 C 0.2201 0.07083 0.3936 0.0
C213 C 0.20129 0.08772 0.42546 0.0
C214 C 0.18043 0.07674 0.46838 0.0
C215 C 0.17813 0.04856 0.48097 0.0
C216 C 0.19583 0.03172 0.44527 0.0
C217 C 0.21683 0.04282 0.40196 0.0
C218 C 0.27958 0.07586 0.42104 0.0
C219 C 0.30605 0.08388 0.40196 0.0
C220 C 0.32873 0.07548 0.44715 0.0
C221 C 0.32526 0.05912 0.51267 0.0
C222 C 0.29856 0.05174 0.53254 0.0
C223 C 0.2759 0.06002 0.48708 0.0
P224 P 0.47907 0.3009 0.3547 0.0
H225 H 0.45401 0.30297 0.21353 0.0
H226 H 0.46134 0.33415 0.10532 0.0
H227 H 0.53756 0.35572 0.1948 0.0
H228 H 0.53056 0.32368 0.30179 0.0
H229 H 0.45747 0.26603 0.47218 0.0
H230 H 0.47156 0.22101 0.53288 0.0
H231 H 0.54234 0.21758 0.39592 0.0
H232 H 0.52746 0.26308 0.33368 0.0
H233 H 0.46978 0.35905 0.32349 0.0
H234 H 0.50482 0.30136 0.49689 0.0
O235 O 0.44463 0.30104 0.34969 0.0
H236 H 0.47953 0.39615 0.38727 0.0
H237 H 0.51308 0.33858 0.56364 0.0
C238 C 0.4914 0.31152 0.26641 0.0
C239 C 0.47293 0.31348 0.20872 0.0
C240 C 0.47696 0.33166 0.14713 0.0
C241 C 0.49946 0.34827 0.14251 0.0
C242 C 0.51987 0.34347 0.19662 0.0
C243 C 0.51595 0.325 0.25793 0.0
C244 C 0.49124 0.26773 0.39806 0.0
C245 C 0.47602 0.25563 0.455 0.0
C246 C 0.4843 0.22993 0.49021 0.0
C247 C 0.50826 0.21569 0.4698 0.0
C248 C 0.5237 0.22795 0.41269 0.0
C249 C 0.51531 0.25393 0.37725 0.0
C250 C 0.48657 0.32745 0.40527 0.0
C251 C 0.47947 0.35436 0.37565 0.0
C252 C 0.48489 0.3756 0.41254 0.0
C253 C 0.4968 0.37041 0.48112 0.0
C254 C 0.50414 0.34333 0.51068 0.0
C255 C 0.49913 0.32198 0.47287 0.0
Co256 Co 0.02089 0.00657 0.8306 0.0
C257 C 0.96856 0.99359 0.87262 0.0
Co258 Co 0.00312 0.97827 0.76586 0.0
C259 C 0.02476 0.05536 0.89466 0.0
C260 C 0.06105 0.02841 0.91484 0.0
N261 N 0.03599 0.03092 0.88272 0.0
N262 N 0.04187 0.06835 0.93267 0.0
C263 C 0.0647 0.05125 0.94565 0.0
H264 H 0.00458 0.06362 0.87448 0.0
H265 H 0.07582 0.01115 0.9154 0.0
C266 C 0.05549 0.99215 0.72386 0.0
N267 N 0.9877 0.95433 0.71293 0.0
C268 C 0.99955 0.93167 0.69128 0.0
C269 C 0.9619 0.95697 0.68476 0.0
N270 N 0.98221 0.92027 0.65009 0.0
C271 C 0.9585 0.93618 0.64597 0.0
C272 C 0.9927 0.0321 0.70987 0.0
O273 O 0.05295 0.00618 0.77445 0.0
O274 O 0.03613 0.97737 0.71139 0.0
O275 O 0.98888 0.00805 0.69941 0.0
O276 O 0.00528 0.03592 0.76582 0.0
O277 O 0.96995 0.97986 0.82111 0.0
H278 H 0.94667 0.97328 0.69106 0.0
H279 H 0.02077 0.92419 0.70355 0.0
O280 O 0.98895 0.00685 0.88596 0.0
O281 O 0.03657 0.97685 0.89448 0.0
O282 O 0.0181 0.94873 0.83199 0.0
C283 C 0.03267 0.9527 0.88486 0.0
H284 H 0.08277 0.05474 0.9758 0.0
H285 H 0.94005 0.93308 0.61667 0.0
Co286 Co 0.49981 0.03383 0.82846 0.0
C287 C 0.50773 0.97812 0.85448 0.0
Co288 Co 0.52587 0.01751 0.74762 0.0
C289 C 0.45209 0.03954 0.91527 0.0
C290 C 0.48024 0.07022 0.92454 0.0
N291 N 0.4769 0.04809 0.89314 0.0
N292 N 0.43964 0.05561 0.9586 0.0
C293 C 0.45733 0.07493 0.9647 0.0
H294 H 0.44292 0.02236 0.8979 0.0
H295 H 0.49795 0.08241 0.91753 0.0
C296 C 0.51776 0.07349 0.7232 0.0
N297 N 0.54863 0.003 0.68277 0.0
C298 C 0.57247 0.01228 0.65548 0.0
C299 C 0.54554 0.98 0.65514 0.0
N300 N 0.58454 0.99595 0.61189 0.0
C301 C 0.56751 0.97559 0.61174 0.0
C302 C 0.47042 0.0222 0.7119 0.0
O303 O 0.50417 0.0692 0.78026 0.0
O304 O 0.52919 0.05339 0.69768 0.0
O305 O 0.494 0.01423 0.6905 0.0
O306 O 0.4688 0.03123 0.7708 0.0
O307 O 0.52222 0.98165 0.79862 0.0
H308 H 0.52857 0.96707 0.6666 0.0
H309 H 0.58064 0.0308 0.6674 0.0
O310 O 0.49566 0.99862 0.87635 0.0
O311 O 0.53091 0.03645 0.88571 0.0
O312 O 0.55748 0.02128 0.80492 0.0
C313 C 0.55488 0.02998 0.86434 0.0
H314 H 0.45394 0.09132 0.99587 0.0
H315 H 0.5708 0.9584 0.58336 0.0
Co316 Co 0.49651 0.52979 0.78786 0.0
C317 C 0.47363 0.48811 0.87918 0.0
Co318 Co 0.45113 0.52874 0.77809 0.0
C319 C 0.547 0.53044 0.86587 0.0
C320 C 0.55436 0.53399 0.75419 0.0
N321 N 0.53413 0.53111 0.80255 0.0
N322 N 0.57451 0.53289 0.85932 0.0
C323 C 0.57922 0.5351 0.78892 0.0
H324 H 0.53617 0.52879 0.91578 0.0
H325 H 0.5512 0.5354 0.69742 0.0
C326 C 0.47358 0.57027 0.68626 0.0
N327 N 0.41328 0.52795 0.76285 0.0
C328 C 0.40095 0.52478 0.7011 0.0
C329 C 0.39216 0.53176 0.80729 0.0
N330 N 0.37319 0.52645 0.70513 0.0
C331 C 0.36739 0.53101 0.77162 0.0
C332 C 0.46525 0.56168 0.87307 0.0
O333 O 0.49662 0.56043 0.71436 0.0
O334 O 0.45159 0.55907 0.70644 0.0
O335 O 0.44473 0.55224 0.8458 0.0
O336 O 0.48959 0.55423 0.85576 0.0
O337 O 0.45087 0.49828 0.85007 0.0
H338 H 0.39456 0.53505 0.86188 0.0
H339 H 0.41202 0.52188 0.65322 0.0
O340 O 0.49596 0.49913 0.86081 0.0
O341 O 0.50303 0.50538 0.71953 0.0
O342 O 0.4579 0.50533 0.71034 0.0
C343 C 0.48175 0.49723 0.69178 0.0
H344 H 0.5992 0.53713 0.76416 0.0
H345 H 0.34681 0.53319 0.79299 0.0
Co346 Co 0.98586 0.52689 0.7889 0.0
C347 C 0.02714 0.48897 0.85318 0.0
Co348 Co 0.98085 0.48422 0.7749 0.0
C349 C 0.99531 0.5674 0.87718 0.0
C350 C 0.98694 0.58554 0.76978 0.0
N351 N 0.98988 0.56139 0.81175 0.0
N352 N 0.99578 0.59442 0.87847 0.0
C353 C 0.99052 0.60583 0.81042 0.0
H354 H 0.99865 0.55195 0.92294 0.0
H355 H 0.9821 0.58824 0.71353 0.0
C356 C 0.93938 0.52198 0.7111 0.0
N357 N 0.97618 0.44977 0.75157 0.0
C358 C 0.99243 0.43613 0.70918 0.0
C359 C 0.95311 0.43601 0.75981 0.0
N360 N 0.98014 0.41489 0.68866 0.0
C361 C 0.95547 0.41462 0.72141 0.0
C362 C 0.95383 0.49635 0.89084 0.0
O363 O 0.95397 0.5398 0.73131 0.0
O364 O 0.94757 0.49707 0.72509 0.0
O365 O 0.96067 0.47647 0.85859 0.0
O366 O 0.96218 0.51966 0.86866 0.0
O367 O 0.01412 0.47167 0.82559 0.0
H368 H 0.93487 0.44231 0.78741 0.0
H369 H 0.01235 0.44259 0.69074 0.0
O370 O 0.01766 0.5136 0.84551 0.0
O371 O 0.00939 0.53359 0.70885 0.0
O372 O 0.00105 0.49243 0.69137 0.0
C373 C 0.01275 0.51424 0.67232 0.0
H374 H 0.98887 0.6273 0.7908 0.0
H375 H 0.93933 0.40124 0.71421 0.0
H376 H 0.14026 0.01062 0.47257 0.0
H377 H 0.17363 0.06081 0.6144 0.0
H378 H 0.1403 0.04563 0.70454 0.0
H379 H 0.09979 0.021 0.73993 0.0
H380 H 0.06458 0.97158 0.59889 0.0
H381 H 0.10079 0.98308 0.51231 0.0
C382 C 0.14034 0.01792 0.52356 0.0
C383 C 0.15903 0.03714 0.53644 0.0
C384 C 0.12082 0.00928 0.57526 0.0
C385 C 0.15903 0.04644 0.60274 0.0
C386 C 0.14008 0.03769 0.65445 0.0
C387 C 0.10014 0.01244 0.69064 0.0
C388 C 0.07938 0.99561 0.67578 0.0
C389 C 0.12056 0.01957 0.64076 0.0
C390 C 0.08032 0.98461 0.61173 0.0
C391 C 0.10093 0.9913 0.562 0.0
H392 H 0.5071 0.1987 0.61176 0.0
H393 H 0.5273 0.17033 0.41338 0.0
H394 H 0.53461 0.12381 0.47525 0.0
H395 H 0.53088 0.09061 0.58462 0.0
H396 H 0.50767 0.11979 0.7804 0.0
H397 H 0.50561 0.16639 0.72052 0.0
C398 C 0.51309 0.18236 0.58189 0.0
C399 C 0.51625 0.188 0.50785 0.0
C400 C 0.51645 0.15568 0.61736 0.0
C401 C 0.52479 0.16664 0.47043 0.0
C402 C 0.52874 0.13997 0.50573 0.0
C403 C 0.52569 0.10722 0.61422 0.0
C404 C 0.51922 0.10167 0.68679 0.0
C405 C 0.524 0.13415 0.579 0.0
C406 C 0.51248 0.12342 0.7244 0.0
C407 C 0.51132 0.15012 0.69023 0.0
H408 H 0.28203 0.52767 0.47064 0.0
H409 H 0.32485 0.44973 0.45589 0.0
H410 H 0.35885 0.45801 0.54211 0.0
H411 H 0.37516 0.48565 0.62876 0.0
H412 H 0.32861 0.55945 0.65856 0.0
H413 H 0.29657 0.55387 0.562 0.0
C414 C 0.29836 0.51209 0.48663 0.0
C415 C 0.30041 0.48808 0.45514 0.0
C416 C 0.31707 0.51604 0.54033 0.0
C417 C 0.32267 0.46885 0.47636 0.0
C418 C 0.34211 0.4733 0.52705 0.0
C419 C 0.35796 0.50045 0.6137 0.0
C420 C 0.35408 0.52292 0.64994 0.0
C421 C 0.33929 0.49659 0.56008 0.0
C422 C 0.3317 0.54194 0.6312 0.0
C423 C 0.31357 0.53878 0.57598 0.0
H424 H 0.02906 0.3611 0.4324 0.0
H425 H 0.97293 0.30046 0.51215 0.0
H426 H 0.95802 0.32707 0.60456 0.0
H427 H 0.96229 0.36649 0.66621 0.0
H428 H 0.01862 0.42703 0.58677 0.0
H429 H 0.03276 0.40098 0.49311 0.0
C430 C 0.0136 0.35364 0.47004 0.0
C431 C 0.00212 0.32877 0.46479 0.0
C432 C 0.00546 0.3688 0.52419 0.0
C433 C 0.98181 0.31972 0.51369 0.0
C434 C 0.97347 0.33479 0.56727 0.0
C435 C 0.9775 0.37418 0.62826 0.0
C436 C 0.9893 0.39882 0.63445 0.0
C437 C 0.98534 0.35923 0.57346 0.0
C438 C 0.00934 0.40805 0.5848 0.0
C439 C 0.01733 0.39323 0.53044 0.0
H440 H 0.85134 0.00576 0.01192 0.0
H441 H 0.90192 0.02751 0.17975 0.0
H442 H 0.94359 0.01796 0.11379 0.0
H443 H 0.96545 0.00655 0.00538 0.0
H444 H 0.9156 0.98333 0.83856 0.0
H445 H 0.8738 0.9898 0.90807 0.0
C446 C 0.87148 0.00783 0.0349 0.0
C447 C 0.8734 0.01771 0.10043 0.0
C448 C 0.89546 0.00219 0.99673 0.0
C449 C 0.89975 0.0205 0.12885 0.0
C450 C 0.92362 0.01495 0.09128 0.0
C451 C 0.94545 0.00274 0.98434 0.0
C452 C 0.94353 0.99482 0.91657 0.0
C453 C 0.92167 0.0064 0.02454 0.0
C454 C 0.91757 0.98952 0.89053 0.0
C455 C 0.89369 0.99329 0.93016 0.0
H456 H 0.50391 0.85469 0.99039 0.0
H457 H 0.45285 0.89183 0.13975 0.0
H458 H 0.46016 0.93677 0.07592 0.0
H459 H 0.47934 0.96537 0.97574 0.0
H460 H 0.52993 0.9291 0.82376 0.0
H461 H 0.52454 0.884 0.89047 0.0
C462 C 0.49475 0.8727 0.00931 0.0
C463 C 0.47781 0.86999 0.06955 0.0
C464 C 0.49873 0.89857 0.9716 0.0
C465 C 0.46579 0.89342 0.09319 0.0
C466 C 0.46995 0.91911 0.05674 0.0
C467 C 0.48928 0.94765 0.95704 0.0
C468 C 0.50494 0.95066 0.89458 0.0
C469 C 0.48605 0.92189 0.99541 0.0
C470 C 0.51769 0.92739 0.87152 0.0
C471 C 0.51464 0.90159 0.90972 0.0
H472 H 0.67429 0.53944 0.06704 0.0
H473 H 0.6212 0.4934 0.21296 0.0
H474 H 0.58527 0.49704 0.12064 0.0
H475 H 0.5705 0.51038 0.99648 0.0
H476 H 0.62374 0.55607 0.84986 0.0
H477 H 0.65821 0.55521 0.94423 0.0
C478 C 0.6546 0.53074 0.07898 0.0
C479 C 0.65033 0.51625 0.1467 0.0
C480 C 0.6343 0.53243 0.02522 0.0
C481 C 0.62495 0.5046 0.16112 0.0
C482 C 0.60447 0.5066 0.10833 0.0
C483 C 0.58941 0.52053 0.98522 0.0
C484 C 0.59448 0.53315 0.9158 0.0
C485 C 0.60915 0.52 0.03981 0.0
C486 C 0.61942 0.5458 0.90231 0.0
C487 C 0.63909 0.5455 0.95645 0.0
H488 H 0.01793 0.63556 0.17092 0.0
H489 H 0.01846 0.71198 0.03222 0.0
H490 H 0.00855 0.6896 0.93014 0.0
H491 H 0.00159 0.6483 0.87949 0.0
H492 H 0.00053 0.5717 0.01839 0.0
H493 H 0.0093 0.59419 0.12 0.0
C494 C 0.01585 0.64731 0.11835 0.0
C495 C 0.01882 0.67547 0.10959 0.0
C496 C 0.01034 0.63426 0.05942 0.0
C497 C 0.01581 0.69039 0.041 0.0
C498 C 0.01038 0.67755 0.98233 0.0
C499 C 0.00302 0.63632 0.93162 0.0
C500 C 0.00047 0.60803 0.93967 0.0
C501 C 0.00781 0.64945 0.99079 0.0
C502 C 0.00265 0.59331 0.00886 0.0
C503 C 0.00758 0.60622 0.06778 0.0
H504 H 0.01732 0.11512 0.44947 0.0
H505 H 0.98919 0.17194 0.5902 0.0
H506 H 0.97718 0.13441 0.67775 0.0
H507 H 0.97872 0.08503 0.7188 0.0
H508 H 0.0004 0.02967 0.57044 0.0
H509 H 0.00892 0.06766 0.47916 0.0
C510 C 0.00766 0.11997 0.49756 0.0
C511 C 0.00524 0.14691 0.51263 0.0
C512 C 0.99914 0.09845 0.54638 0.0
C513 C 0.9929 0.15165 0.57724 0.0
C514 C 0.98546 0.13013 0.62741 0.0
C515 C 0.98443 0.08143 0.66569 0.0
C516 C 0.98912 0.05471 0.65128 0.0
C517 C 0.98915 0.10339 0.6132 0.0
C518 C 0.99643 0.05012 0.58249 0.0
C519 C 0.00169 0.07182 0.53059 0.0
H520 H 0.37612 0.039 0.47726 0.0
H521 H 0.32838 0.05922 0.65565 0.0
H522 H 0.36861 0.04687 0.73412 0.0
H523 H 0.4178 0.03347 0.75044 0.0
H524 H 0.46648 0.01437 0.57245 0.0
H525 H 0.42527 0.02292 0.49536 0.0
C526 C 0.37459 0.04072 0.53332 0.0
C527 C 0.34938 0.05021 0.56055 0.0
C528 C 0.39788 0.03379 0.57806 0.0
C529 C 0.34749 0.05184 0.63349 0.0
C530 C 0.37051 0.0449 0.67831 0.0
C531 C 0.41942 0.03091 0.6949 0.0
C532 C 0.44523 0.02353 0.66705 0.0
C533 C 0.39586 0.03625 0.65094 0.0
C534 C 0.44686 0.02005 0.59518 0.0
C535 C 0.42335 0.02509 0.55103 0.0
H536 H 0.46096 0.41407 0.4845 0.0
H537 H 0.53941 0.37788 0.57165 0.0
H538 H 0.54309 0.41521 0.64114 0.0
H539 H 0.52272 0.45755 0.68044 0.0
H540 H 0.4444 0.49271 0.58959 0.0
H541 H 0.44257 0.45689 0.51618 0.0
C542 C 0.47923 0.41452 0.51738 0.0
C543 C 0.49992 0.39321 0.52241 0.0
C544 C 0.48133 0.43605 0.55624 0.0
C545 C 0.52299 0.39386 0.56725 0.0
C546 C 0.52522 0.41532 0.6066 0.0
C547 C 0.50559 0.45756 0.6435 0.0
C548 C 0.48368 0.47767 0.64062 0.0
C549 C 0.50438 0.43648 0.60189 0.0
C550 C 0.46142 0.47735 0.59317 0.0
C551 C 0.46029 0.45683 0.55124 0.0
H552 H 0.12149 0.50518 0.49845 0.0
H553 H 0.07624 0.44453 0.41633 0.0
H554 H 0.03497 0.45817 0.47912 0.0
H555 H 0.01345 0.48388 0.56652 0.0
H556 H 0.05844 0.54388 0.65212 0.0
H557 H 0.09798 0.53448 0.57734 0.0
C558 C 0.10255 0.495 0.49453 0.0
C559 C 0.10193 0.47365 0.45379 0.0
C560 C 0.07891 0.50293 0.53091 0.0
C561 C 0.07718 0.46096 0.4476 0.0
C562 C 0.05363 0.46871 0.48354 0.0
C563 C 0.03171 0.49533 0.56773 0.0
C564 C 0.03319 0.51438 0.61508 0.0
C565 C 0.05446 0.48926 0.5264 0.0
C566 C 0.05679 0.52924 0.61574 0.0
C567 C 0.07951 0.52359 0.57374 0.0
H568 H 0.08407 0.86715 0.13481 0.0
H569 H 0.05055 0.81209 0.00655 0.0
H570 H 0.03668 0.85003 0.91486 0.0
H571 H 0.03038 0.89906 0.87596 0.0
H572 H 0.06215 0.9543 0.00662 0.0
H573 H 0.07997 0.91606 0.09298 0.0
C574 C 0.0738 0.86345 0.08669 0.0
C575 C 0.06822 0.83684 0.07784 0.0
C576 C 0.06519 0.88541 0.03505 0.0
C577 C 0.0554 0.83232 0.01451 0.0
C578 C 0.04716 0.85404 0.96233 0.0
C579 C 0.04129 0.90275 0.92318 0.0
C580 C 0.04464 0.9295 0.93519 0.0
C581 C 0.05137 0.8807 0.97283 0.0
C582 C 0.0591 0.93391 0.9963 0.0
C583 C 0.06933 0.91206 0.04572 0.0
H584 H 0.64531 0.0459 0.09016 0.0
H585 H 0.69807 0.04608 0.9082 0.0
H586 H 0.65831 0.03903 0.8342 0.0
H587 H 0.60842 0.03279 0.82211 0.0
H588 H 0.55604 0.03422 0.00487 0.0
H589 H 0.59591 0.04033 0.07808 0.0
C590 C 0.64812 0.04418 0.03439 0.0
C591 C 0.6745 0.04625 0.00462 0.0
C592 C 0.62529 0.04035 0.99254 0.0
C593 C 0.67785 0.0446 0.93205 0.0
C594 C 0.65519 0.04046 0.88995 0.0
C595 C 0.60582 0.03429 0.87805 0.0
C596 C 0.57937 0.03296 0.90814 0.0
C597 C 0.6288 0.03826 0.91973 0.0
C598 C 0.57619 0.03524 0.98046 0.0
C599 C 0.59896 0.03873 0.02238 0.0
H600 H 0.4235 0.65439 0.04608 0.0
H601 H 0.50929 0.67261 0.02768 0.0
H602 H 0.51898 0.63359 0.96535 0.0
H603 H 0.50284 0.59471 0.91446 0.0
H604 H 0.41691 0.5768 0.9335 0.0
H605 H 0.40775 0.61485 0.99914 0.0
C606 C 0.44439 0.64968 0.02916 0.0
C607 C 0.4656 0.66645 0.04143 0.0
C608 C 0.44986 0.62713 0.99402 0.0
C609 C 0.49247 0.66029 0.01797 0.0
C610 C 0.49809 0.63784 0.98288 0.0
C611 C 0.48218 0.59894 0.93372 0.0
C612 C 0.4606 0.58293 0.91911 0.0
C613 C 0.47692 0.62115 0.97048 0.0
C614 C 0.4339 0.58881 0.94395 0.0
C615 C 0.4286 0.61063 0.98128 0.0
H616 H 0.87156 0.46856 0.14095 0.0
H617 H 0.81804 0.52489 0.99904 0.0
H618 H 0.85594 0.53251 0.91656 0.0
H619 H 0.90407 0.5228 0.88345 0.0
H620 H 0.9559 0.4625 0.01677 0.0
H621 H 0.91868 0.45643 0.10391 0.0
C622 C 0.8679 0.48212 0.09147 0.0
C623 C 0.84188 0.49629 0.07694 0.0
C624 C 0.88955 0.4858 0.04299 0.0
C625 C 0.83792 0.51415 0.01279 0.0
C626 C 0.85955 0.51843 0.9652 0.0
C627 C 0.90717 0.50858 0.93212 0.0
C628 C 0.93257 0.49349 0.94518 0.0
C629 C 0.88544 0.50448 0.97995 0.0
C630 C 0.93645 0.4745 0.00679 0.0
C631 C 0.9152 0.471 0.05615 0.0
H632 H 0.00237 0.17896 0.03516 0.0
H633 H 0.09059 0.17901 0.0733 0.0
H634 H 0.09824 0.13841 0.01939 0.0
H635 H 0.08042 0.10053 0.97051 0.0
H636 H 0.99229 0.09668 0.94362 0.0
H637 H 0.98437 0.1406 0.98479 0.0
C638 C 0.02331 0.17019 0.03209 0.0
C639 C 0.04572 0.18274 0.05857 0.0
C640 C 0.02773 0.14568 0.00371 0.0
C641 C 0.0727 0.17086 0.0521 0.0
C642 C 0.07723 0.14711 0.0221 0.0
C643 C 0.05941 0.10903 0.97407 0.0
C644 C 0.03706 0.09489 0.95447 0.0
C645 C 0.05491 0.13402 0.99927 0.0
C646 C 0.01003 0.10693 0.95786 0.0
C647 C 0.00544 0.1321 0.98181 0.0
H648 H 0.32839 0.02652 0.11055 0.0
H649 H 0.32013 0.11378 0.09876 0.0
H650 H 0.36258 0.11766 0.03194 0.0
H651 H 0.40422 0.09642 0.98546 0.0
H652 H 0.41422 0.00936 0.00057 0.0
H653 H 0.36923 0.00527 0.0579 0.0
C654 C 0.33578 0.04639 0.09302 0.0
C655 C 0.32086 0.06976 0.10991 0.0
C656 C 0.36082 0.04854 0.05601 0.0
C657 C 0.33067 0.09538 0.08567 0.0
C658 C 0.35526 0.09767 0.04813 0.0
C659 C 0.39659 0.07656 0.00157 0.0
C660 C 0.41267 0.05324 0.98965 0.0
C661 C 0.37083 0.07439 0.03455 0.0
C662 C 0.4022 0.02764 0.00911 0.0
C663 C 0.37652 0.02529 0.04208 0.0
H664 H 0.45546 0.38268 0.09514 0.0
H665 H 0.54358 0.3698 0.06854 0.0
H666 H 0.54356 0.41252 0.98706 0.0
H667 H 0.5184 0.45375 0.92412 0.0
H668 H 0.43003 0.46534 0.94911 0.0
H669 H 0.4303 0.42273 0.03023 0.0
C670 C 0.47463 0.38883 0.07044 0.0
C671 C 0.49946 0.37282 0.08759 0.0
C672 C 0.47445 0.41334 0.02381 0.0
C673 C 0.52418 0.38169 0.05652 0.0
C674 C 0.52417 0.40613 0.00991 0.0
C675 C 0.49923 0.44702 0.94765 0.0
C676 C 0.47424 0.46282 0.93083 0.0
C677 C 0.49945 0.42223 0.99359 0.0
C678 C 0.44955 0.45364 0.96117 0.0
C679 C 0.44966 0.42923 0.00748 0.0
H680 H 0.12875 0.43965 0.04748 0.0
H681 H 0.15477 0.52101 0.99079 0.0
H682 H 0.11354 0.5329 0.91556 0.0
H683 H 0.06885 0.52091 0.87143 0.0
H684 H 0.04428 0.43894 0.92286 0.0
H685 H 0.08668 0.42639 0.99379 0.0
C686 C 0.12596 0.45979 0.01725 0.0
C687 C 0.14493 0.47943 0.02542 0.0
C688 C 0.10234 0.46644 0.97366 0.0
C689 C 0.14038 0.50558 0.98664 0.0
C690 C 0.11682 0.5124 0.94344 0.0
C691 C 0.07283 0.50028 0.89809 0.0
C692 C 0.05334 0.48094 0.89289 0.0
C693 C 0.09739 0.49315 0.93779 0.0
C694 C 0.05895 0.45418 0.92643 0.0
C695 C 0.08315 0.44703 0.96698 0.0
H696 H 0.99827 0.83143 0.44926 0.0
H697 H 0.04845 0.79152 0.62684 0.0
H698 H 0.03738 0.8295 0.69203 0.0
H699 H 0.0144 0.87493 0.69724 0.0
H700 H 0.96324 0.91366 0.52067 0.0
H701 H 0.97334 0.87513 0.45713 0.0
C702 C 0.00634 0.83066 0.50282 0.0
C703 C 0.02426 0.80854 0.53277 0.0
C704 C -0.00019 0.85251 0.54019 0.0
C705 C 0.0349 0.80837 0.60187 0.0
C706 C 0.02854 0.83008 0.63935 0.0
C707 C 0.00556 0.87488 0.64481 0.0
C708 C 0.98814 0.89716 0.61368 0.0
C709 C 0.01131 0.85246 0.60866 0.0
C710 C 0.9765 0.89669 0.54608 0.0
C711 C 0.98235 0.87469 0.50958 0.0
H712 H 0.68489 0.0037 0.40334 0.0
H713 H 0.70866 0.06089 0.53808 0.0
H714 H 0.66888 0.05066 0.61427 0.0
H715 H 0.62602 0.0274 0.63794 0.0
H716 H 0.6008 0.97275 0.49677 0.0
H717 H 0.64269 0.97969 0.4287 0.0
C718 C 0.68166 0.01347 0.4503 0.0
C719 C 0.69974 0.03281 0.46562 0.0
C720 C 0.65836 0.0081 0.49237 0.0
C721 C 0.69501 0.04584 0.52557 0.0
C722 C 0.67224 0.04007 0.56884 0.0
C723 C 0.62947 0.01709 0.59212 0.0
C724 C 0.60993 0.99961 0.57285 0.0
C725 C 0.65345 0.02164 0.55188 0.0
C726 C 0.61536 0.98609 0.51383 0.0
C727 C 0.63935 0.99016 0.47436 0.0
H728 H 0.44216 0.67561 0.4693 0.0
H729 H 0.53013 0.68359 0.47826 0.0
H730 H 0.53581 0.64138 0.56278 0.0
H731 H 0.51527 0.60205 0.63396 0.0
H732 H 0.42701 0.59487 0.61971 0.0
H733 H 0.42203 0.63691 0.53756 0.0
C734 C 0.46255 0.66839 0.49065 0.0
C735 C 0.48562 0.68294 0.46868 0.0
C736 C 0.46563 0.6441 0.53787 0.0
C737 C 0.51203 0.67282 0.49492 0.0
C738 C 0.51525 0.6487 0.54306 0.0
C739 C 0.495 0.60966 0.6126 0.0
C740 C 0.47158 0.59524 0.63329 0.0
C741 C 0.49216 0.63408 0.56477 0.0
C742 C 0.44544 0.60543 0.60501 0.0
C743 C 0.4425 0.62957 0.55801 0.0
H744 H 0.83795 0.56082 0.50488 0.0
H745 H 0.81003 0.48451 0.60683 0.0
H746 H 0.84934 0.47912 0.68852 0.0
H747 H 0.89476 0.4926 0.72026 0.0
H748 H 0.92406 0.56818 0.61918 0.0
H749 H 0.88129 0.57721 0.54735 0.0
C750 C 0.84027 0.54322 0.54567 0.0
C751 C 0.82108 0.52301 0.54903 0.0
C752 C 0.86348 0.53981 0.59163 0.0
C753 C 0.82416 0.50057 0.60313 0.0
C754 C 0.84692 0.49724 0.64944 0.0
C755 C 0.89167 0.51117 0.68283 0.0
C756 C 0.91265 0.52945 0.67366 0.0
C757 C 0.86718 0.51617 0.64233 0.0
C758 C 0.90821 0.55373 0.62651 0.0
C759 C 0.88382 0.55883 0.58547 0.0
loop_
_geom_bond_atom_site_label_1
_geom_bond_atom_site_label_2
_geom_bond_distance
_geom_bond_site_symmetry_2
_ccdc_geom_bond_type
P0 O11 1.490 . S
P0 C14 1.812 . S
P0 C20 1.803 . S
P0 C26 1.819 . S
H1 C15 0.941 . S
H2 C16 0.939 . S
H3 C18 0.940 . S
H4 C19 0.940 . S
H5 C21 0.939 . S
H6 C22 0.942 . S
H7 C24 0.940 . S
H8 C25 0.939 . S
H9 C27 0.941 . S
H10 C31 0.939 . S
O11 P0 1.490 . S
H12 C28 0.939 . S
H13 C30 0.940 . S
C14 P0 1.812 . S
C14 C15 1.389 . S
C14 C19 1.391 . S
C15 H1 0.941 . S
C15 C14 1.389 . S
C15 C16 1.397 . S
C16 H2 0.939 . S
C16 C15 1.397 . S
C16 C17 1.378 . S
C17 C16 1.378 . S
C17 C18 1.378 . S
C18 H3 0.940 . S
C18 C17 1.378 . S
C18 C19 1.396 . S
C19 H4 0.940 . S
C19 C14 1.391 . S
C19 C18 1.396 . S
C20 P0 1.803 . S
C20 C21 1.378 . S
C20 C25 1.400 . S
C21 H5 0.939 . S
C21 C20 1.378 . S
C21 C22 1.361 . S
C22 H6 0.942 . S
C22 C21 1.361 . S
C22 C23 1.369 . S
C23 C22 1.369 . S
C23 C24 1.404 . S
C24 H7 0.940 . S
C24 C23 1.404 . S
C24 C25 1.389 . S
C25 H8 0.939 . S
C25 C20 1.400 . S
C25 C24 1.389 . S
C26 P0 1.819 . S
C26 C27 1.391 . S
C26 C31 1.391 . S
C27 H9 0.941 . S
C27 C26 1.391 . S
C27 C28 1.396 . S
C28 H12 0.939 . S
C28 C27 1.396 . S
C28 C29 1.397 1_554 S
C29 C28 1.397 1_556 S
C29 C30 1.385 . S
C30 H13 0.940 . S
C30 C29 1.385 . S
C30 C31 1.388 1_556 S
C31 H10 0.939 . S
C31 C26 1.391 . S
C31 C30 1.388 1_554 S
P32 O43 1.490 . S
P32 C46 1.812 . S
P32 C52 1.803 . S
P32 C58 1.819 . S
H33 C47 0.941 . S
H34 C48 0.939 . S
H35 C50 0.940 . S
H36 C51 0.950 . S
H37 C53 0.939 . S
H38 C54 0.942 . S
H39 C56 0.940 . S
H40 C57 0.958 . S
H41 C59 0.941 . S
H42 C63 0.927 1_655 S
O43 P32 1.490 . S
H44 C60 0.939 . S
H45 C62 0.940 . S
C46 P32 1.812 . S
C46 C47 1.389 . S
C46 C51 1.376 1_455 S
C47 H33 0.941 . S
C47 C46 1.389 . S
C47 C48 1.397 . S
C48 H34 0.939 . S
C48 C47 1.397 . S
C48 C49 1.378 . S
C49 C48 1.378 . S
C49 C50 1.378 1_455 S
C50 H35 0.940 . S
C50 C49 1.378 1_655 S
C50 C51 1.402 . S
C51 H36 0.950 . S
C51 C46 1.376 1_655 S
C51 C50 1.402 . S
C52 P32 1.803 . S
C52 C53 1.378 . S
C52 C57 1.368 1_455 S
C53 H37 0.939 . S
C53 C52 1.378 . S
C53 C54 1.361 . S
C54 H38 0.942 . S
C54 C53 1.361 . S
C54 C55 1.369 . S
C55 C54 1.369 . S
C55 C56 1.404 1_455 S
C56 H39 0.940 . S
C56 C55 1.404 1_655 S
C56 C57 1.404 . S
C57 H40 0.958 . S
C57 C52 1.368 1_655 S
C57 C56 1.404 . S
C58 P32 1.819 . S
C58 C59 1.391 . S
C58 C63 1.391 . S
C59 H41 0.941 . S
C59 C58 1.391 . S
C59 C60 1.396 . S
C60 H44 0.939 . S
C60 C59 1.396 . S
C60 C61 1.397 1_554 S
C61 C60 1.397 1_556 S
C61 C62 1.385 1_455 S
C62 H45 0.940 . S
C62 C61 1.385 1_655 S
C62 C63 1.388 1_656 S
C63 H42 0.927 1_455 S
C63 C58 1.391 . S
C63 C62 1.388 1_454 S
P64 O75 1.490 1_565 S
P64 C78 1.812 . S
P64 C84 1.803 . S
P64 C90 1.819 . S
H65 C79 0.958 . S
H66 C80 0.939 . S
H67 C82 0.940 . S
H68 C83 0.940 . S
H69 C85 0.938 . S
H70 C86 0.942 1_556 S
H71 C88 0.940 . S
H72 C89 0.939 . S
H73 C91 0.941 . S
H74 C95 0.939 . S
O75 P64 1.490 1_545 S
H76 C92 0.939 . S
H77 C94 0.940 . S
C78 P64 1.812 . S
C78 C79 1.389 . S
C78 C83 1.391 . S
C79 H65 0.958 . S
C79 C78 1.389 . S
C79 C80 1.397 . S
C80 H66 0.939 . S
C80 C79 1.397 . S
C80 C81 1.378 . S
C81 C80 1.378 . S
C81 C82 1.378 . S
C82 H67 0.940 . S
C82 C81 1.378 . S
C82 C83 1.396 . S
C83 H68 0.940 . S
C83 C78 1.391 . S
C83 C82 1.396 . S
C84 P64 1.803 . S
C84 C85 1.378 . S
C84 C89 1.400 . S
C85 H69 0.938 . S
C85 C84 1.378 . S
C85 C86 1.361 . S
C86 H70 0.942 1_554 S
C86 C85 1.361 . S
C86 C87 1.369 . S
C87 C86 1.369 . S
C87 C88 1.404 . S
C88 H71 0.940 . S
C88 C87 1.404 . S
C88 C89 1.389 . S
C89 H72 0.939 . S
C89 C84 1.400 . S
C89 C88 1.389 . S
C90 P64 1.819 . S
C90 C91 1.391 . S
C90 C95 1.391 1_554 S
C91 H73 0.941 . S
C91 C90 1.391 . S
C91 C92 1.396 1_554 S
C92 H76 0.939 . S
C92 C91 1.396 1_556 S
C92 C93 1.397 . S
C93 C92 1.397 . S
C93 C94 1.385 . S
C94 H77 0.940 . S
C94 C93 1.385 . S
C94 C95 1.388 . S
C95 H74 0.939 . S
C95 C90 1.391 1_556 S
C95 C94 1.388 . S
P96 O107 1.490 . S
P96 C110 1.812 . S
P96 C116 1.803 . S
P96 C122 1.819 . S
H97 C111 0.941 . S
H98 C112 0.939 . S
H99 C114 0.940 . S
H100 C115 0.940 . S
H101 C117 0.939 . S
H102 C118 0.942 . S
H103 C120 0.940 . S
H104 C121 0.939 . S
H105 C123 0.941 . S
H106 C127 0.939 . S
O107 P96 1.490 . S
H108 C124 0.939 . S
H109 C126 0.940 . S
C110 P96 1.812 . S
C110 C111 1.389 . S
C110 C115 1.391 . S
C111 H97 0.941 . S
C111 C110 1.389 . S
C111 C112 1.397 . S
C112 H98 0.939 . S
C112 C111 1.397 . S
C112 C113 1.378 . S
C113 C112 1.378 . S
C113 C114 1.378 . S
C114 H99 0.940 . S
C114 C113 1.378 . S
C114 C115 1.396 . S
C115 H100 0.940 . S
C115 C110 1.391 . S
C115 C114 1.396 . S
C116 P96 1.803 . S
C116 C117 1.378 . S
C116 C121 1.400 . S
C117 H101 0.939 . S
C117 C116 1.378 . S
C117 C118 1.361 . S
C118 H102 0.942 . S
C118 C117 1.361 . S
C118 C119 1.369 . S
C119 C118 1.369 . S
C119 C120 1.404 . S
C120 H103 0.940 . S
C120 C119 1.404 . S
C120 C121 1.389 . S
C121 H104 0.939 . S
C121 C116 1.400 . S
C121 C120 1.389 . S
C122 P96 1.819 . S
C122 C123 1.391 . S
C122 C127 1.391 . S
C123 H105 0.941 . S
C123 C122 1.391 . S
C123 C124 1.396 . S
C124 H108 0.939 . S
C124 C123 1.396 . S
C124 C125 1.397 1_554 S
C125 C124 1.397 1_556 S
C125 C126 1.385 . S
C126 H109 0.940 . S
C126 C125 1.385 . S
C126 C127 1.388 1_556 S
C127 H106 0.939 . S
C127 C122 1.391 . S
C127 C126 1.388 1_554 S
P128 O139 1.490 . S
P128 C142 1.812 . S
P128 C148 1.803 . S
P128 C154 1.819 . S
H129 C143 0.941 . S
H130 C144 0.939 . S
H131 C146 0.940 . S
H132 C147 0.940 . S
H133 C149 0.939 . S
H134 C150 0.942 . S
H135 C152 0.940 . S
H136 C153 0.939 . S
H137 C155 0.941 . S
H138 C159 0.939 . S
O139 P128 1.490 . S
H140 C156 0.939 . S
H141 C158 0.940 . S
C142 P128 1.812 . S
C142 C143 1.389 . S
C142 C147 1.391 . S
C143 H129 0.941 . S
C143 C142 1.389 . S
C143 C144 1.397 . S
C144 H130 0.939 . S
C144 C143 1.397 . S
C144 C145 1.378 . S
C145 C144 1.378 . S
C145 C146 1.378 . S
C146 H131 0.940 . S
C146 C145 1.378 . S
C146 C147 1.396 . S
C147 H132 0.940 . S
C147 C142 1.391 . S
C147 C146 1.396 . S
C148 P128 1.803 . S
C148 C149 1.378 . S
C148 C153 1.400 . S
C149 H133 0.939 . S
C149 C148 1.378 . S
C149 C150 1.361 . S
C150 H134 0.942 . S
C150 C149 1.361 . S
C150 C151 1.369 . S
C151 C150 1.369 . S
C151 C152 1.404 . S
C152 H135 0.940 . S
C152 C151 1.404 . S
C152 C153 1.389 . S
C153 H136 0.939 . S
C153 C148 1.400 . S
C153 C152 1.389 . S
C154 P128 1.819 . S
C154 C155 1.391 . S
C154 C159 1.391 . S
C155 H137 0.941 . S
C155 C154 1.391 . S
C155 C156 1.396 . S
C156 H140 0.939 . S
C156 C155 1.396 . S
C156 C157 1.397 . S
C157 C156 1.397 . S
C157 C158 1.385 . S
C158 H141 0.940 . S
C158 C157 1.385 . S
C158 C159 1.388 . S
C159 H138 0.939 . S
C159 C154 1.391 . S
C159 C158 1.388 . S
P160 O171 1.490 . S
P160 C174 1.812 . S
P160 C180 1.803 . S
P160 C186 1.819 . S
H161 C175 0.941 . S
H162 C176 0.939 . S
H163 C178 0.940 . S
H164 C179 0.945 . S
H165 C181 0.939 . S
H166 C182 0.942 . S
H167 C184 0.940 . S
H168 C185 0.954 . S
H169 C187 0.941 . S
H170 C191 0.934 1_655 S
O171 P160 1.490 . S
H172 C188 0.939 . S
H173 C190 0.940 . S
C174 P160 1.812 . S
C174 C175 1.389 . S
C174 C179 1.383 1_455 S
C175 H161 0.941 . S
C175 C174 1.389 . S
C175 C176 1.397 . S
C176 H162 0.939 . S
C176 C175 1.397 . S
C176 C177 1.378 . S
C177 C176 1.378 . S
C177 C178 1.378 1_455 S
C178 H163 0.940 . S
C178 C177 1.378 1_655 S
C178 C179 1.399 . S
C179 H164 0.945 . S
C179 C174 1.383 1_655 S
C179 C178 1.399 . S
C180 P160 1.803 . S
C180 C181 1.378 . S
C180 C185 1.378 1_455 S
C181 H165 0.939 . S
C181 C180 1.378 . S
C181 C182 1.361 . S
C182 H166 0.942 . S
C182 C181 1.361 . S
C182 C183 1.369 . S
C183 C182 1.369 . S
C183 C184 1.404 1_455 S
C184 H167 0.940 . S
C184 C183 1.404 1_655 S
C184 C185 1.397 . S
C185 H168 0.954 . S
C185 C180 1.378 1_655 S
C185 C184 1.397 . S
C186 P160 1.819 . S
C186 C187 1.391 . S
C186 C191 1.391 . S
C187 H169 0.941 . S
C187 C186 1.391 . S
C187 C188 1.396 . S
C188 H172 0.939 . S
C188 C187 1.396 . S
C188 C189 1.397 . S
C189 C188 1.397 . S
C189 C190 1.385 1_455 S
C190 H173 0.940 . S
C190 C189 1.385 1_655 S
C190 C191 1.388 1_655 S
C191 H170 0.934 1_455 S
C191 C186 1.391 . S
C191 C190 1.388 1_455 S
P192 O203 1.490 . S
P192 C206 1.812 . S
P192 C212 1.803 . S
P192 C218 1.819 . S
H193 C207 0.941 . S
H194 C208 0.939 . S
H195 C210 0.940 . S
H196 C211 0.940 . S
H197 C213 0.939 . S
H198 C214 0.942 . S
H199 C216 0.940 . S
H200 C217 0.939 . S
H201 C219 0.941 . S
H202 C223 0.939 . S
O203 P192 1.490 . S
H204 C220 0.939 . S
H205 C222 0.940 . S
C206 P192 1.812 . S
C206 C207 1.389 . S
C206 C211 1.391 . S
C207 H193 0.941 . S
C207 C206 1.389 . S
C207 C208 1.397 . S
C208 H194 0.939 . S
C208 C207 1.397 . S
C208 C209 1.378 . S
C209 C208 1.378 . S
C209 C210 1.378 . S
C210 H195 0.940 . S
C210 C209 1.378 . S
C210 C211 1.396 . S
C211 H196 0.940 . S
C211 C206 1.391 . S
C211 C210 1.396 . S
C212 P192 1.803 . S
C212 C213 1.378 . S
C212 C217 1.400 . S
C213 H197 0.939 . S
C213 C212 1.378 . S
C213 C214 1.361 . S
C214 H198 0.942 . S
C214 C213 1.361 . S
C214 C215 1.369 . S
C215 C214 1.369 . S
C215 C216 1.404 . S
C216 H199 0.940 . S
C216 C215 1.404 . S
C216 C217 1.389 . S
C217 H200 0.939 . S
C217 C212 1.400 . S
C217 C216 1.389 . S
C218 P192 1.819 . S
C218 C219 1.391 . S
C218 C223 1.391 . S
C219 H201 0.941 . S
C219 C218 1.391 . S
C219 C220 1.396 . S
C220 H204 0.939 . S
C220 C219 1.396 . S
C220 C221 1.397 . S
C221 C220 1.397 . S
C221 C222 1.385 . S
C222 H205 0.940 . S
C222 C221 1.385 . S
C222 C223 1.388 . S
C223 H202 0.939 . S
C223 C218 1.391 . S
C223 C222 1.388 . S
P224 O235 1.490 . S
P224 C238 1.812 . S
P224 C244 1.803 . S
P224 C250 1.819 . S
H225 C239 0.941 . S
H226 C240 0.939 . S
H227 C242 0.940 . S
H228 C243 0.940 . S
H229 C245 0.939 . S
H230 C246 0.942 . S
H231 C248 0.940 . S
H232 C249 0.939 . S
H233 C251 0.941 . S
H234 C255 0.939 . S
O235 P224 1.490 . S
H236 C252 0.939 . S
H237 C254 0.940 . S
C238 P224 1.812 . S
C238 C239 1.389 . S
C238 C243 1.391 . S
C239 H225 0.941 . S
C239 C238 1.389 . S
C239 C240 1.397 . S
C240 H226 0.939 . S
C240 C239 1.397 . S
C240 C241 1.378 . S
C241 C240 1.378 . S
C241 C242 1.378 . S
C242 H227 0.940 . S
C242 C241 1.378 . S
C242 C243 1.396 . S
C243 H228 0.940 . S
C243 C238 1.391 . S
C243 C242 1.396 . S
C244 P224 1.803 . S
C244 C245 1.378 . S
C244 C249 1.400 . S
C245 H229 0.939 . S
C245 C244 1.378 . S
C245 C246 1.361 . S
C246 H230 0.942 . S
C246 C245 1.361 . S
C246 C247 1.369 . S
C247 C246 1.369 . S
C247 C248 1.404 . S
C248 H231 0.940 . S
C248 C247 1.404 . S
C248 C249 1.389 . S
C249 H232 0.939 . S
C249 C244 1.400 . S
C249 C248 1.389 . S
C250 P224 1.819 . S
C250 C251 1.391 . S
C250 C255 1.391 . S
C251 H233 0.941 . S
C251 C250 1.391 . S
C251 C252 1.396 . S
C252 H236 0.939 . S
C252 C251 1.396 . S
C252 C253 1.397 . S
C253 C252 1.397 . S
C253 C254 1.385 . S
C254 H237 0.940 . S
C254 C253 1.385 . S
C254 C255 1.388 . S
C255 H234 0.939 . S
C255 C250 1.391 . S
C255 C254 1.388 . S
Co256 N261 2.057 . S
Co256 O273 2.021 . S
Co256 O276 2.062 1_455 S
Co256 O280 2.117 1_455 S
Co256 O281 2.020 1_545 S
C257 O277 1.259 1_545 S
C257 O280 1.258 . S
Co258 N267 2.061 1_545 S
Co258 O274 2.117 1_655 S
Co258 O275 2.020 . S
Co258 O277 2.021 1_545 S
Co258 O282 2.062 1_645 S
C259 N261 1.316 . S
C259 N262 1.347 1_556 S
C259 H264 0.931 . S
C260 N261 1.375 1_655 S
C260 C263 1.350 1_556 S
C260 H265 0.930 . S
N261 Co256 2.057 . S
N261 C259 1.316 . S
N261 C260 1.375 1_455 S
N262 C259 1.347 1_554 S
N262 C263 1.373 1_455 S
C263 C260 1.350 1_554 S
C263 N262 1.373 1_655 S
C263 H284 0.931 . S
H264 C259 0.931 . S
H265 C260 0.930 . S
C266 O273 1.259 . S
C266 O274 1.258 . S
N267 Co258 2.061 1_565 S
N267 C268 1.345 . S
N267 C269 1.341 1_655 S
C268 N267 1.345 . S
C268 N270 1.347 . S
C268 H279 0.931 . S
C269 N267 1.341 1_455 S
C269 C271 1.350 . S
C269 H278 0.930 . S
N270 C268 1.347 . S
N270 C271 1.373 1_655 S
C271 C269 1.350 . S
C271 N270 1.373 1_455 S
C271 H285 0.931 . S
C272 O275 1.256 . S
C272 O276 1.255 . S
O273 Co256 2.021 . S
O273 C266 1.259 . S
O274 Co258 2.117 1_455 S
O274 C266 1.258 . S
O275 Co258 2.020 . S
O275 C272 1.256 . S
O276 Co256 2.062 1_655 S
O276 C272 1.255 . S
O277 C257 1.259 1_565 S
O277 Co258 2.021 1_565 S
H278 C269 0.930 . S
H279 C268 0.931 . S
O280 Co256 2.117 1_655 S
O280 C257 1.258 . S
O281 Co256 2.020 1_565 S
O281 C283 1.256 . S
O282 Co258 2.062 1_465 S
O282 C283 1.255 . S
C283 O281 1.256 . S
C283 O282 1.255 . S
H284 C263 0.931 . S
H285 C271 0.931 . S
Co286 N291 2.057 . S
Co286 O303 2.021 . S
Co286 O306 2.062 . S
Co286 O310 2.117 1_545 S
Co286 O311 2.020 . S
C287 O307 1.259 . S
C287 O310 1.258 . S
Co288 N297 2.057 . S
Co288 O304 2.117 . S
Co288 O305 2.020 . S
Co288 O307 2.021 1_545 S
Co288 O312 2.063 1_545 S
C289 N291 1.316 . S
C289 N292 1.347 1_556 S
C289 H294 0.931 . S
C290 N291 1.375 . S
C290 C293 1.350 1_556 S
C290 H295 0.930 1_545 S
N291 Co286 2.057 . S
N291 C289 1.316 . S
N291 C290 1.375 . S
N292 C289 1.347 1_554 S
N292 C293 1.373 . S
C293 C290 1.350 1_554 S
C293 N292 1.373 . S
C293 H314 0.931 . S
H294 C289 0.931 . S
H295 C290 0.930 1_565 S
C296 O303 1.259 . S
C296 O304 1.258 . S
N297 Co288 2.057 . S
N297 C298 1.316 1_545 S
N297 C299 1.375 . S
C298 N297 1.316 1_565 S
C298 N300 1.347 . S
C298 H309 0.931 . S
C299 N297 1.375 . S
C299 C301 1.350 . S
C299 H308 0.930 . S
N300 C298 1.347 . S
N300 C301 1.373 1_565 S
C301 C299 1.350 . S
C301 N300 1.373 1_545 S
C301 H315 0.931 . S
C302 O305 1.256 . S
C302 O306 1.255 . S
O303 Co286 2.021 . S
O303 C296 1.259 . S
O304 Co288 2.117 . S
O304 C296 1.258 . S
O305 Co288 2.020 . S
O305 C302 1.256 . S
O306 Co286 2.062 . S
O306 C302 1.255 . S
O307 C287 1.259 . S
O307 Co288 2.021 1_565 S
H308 C299 0.930 . S
H309 C298 0.931 . S
O310 Co286 2.117 1_565 S
O310 C287 1.258 . S
O311 Co286 2.020 . S
O311 C313 1.256 . S
O312 Co288 2.063 1_565 S
O312 C313 1.246 1_565 S
C313 O311 1.256 . S
C313 O312 1.246 1_545 S
H314 C293 0.931 . S
H315 C301 0.931 . S
Co316 N321 2.057 . S
Co316 O333 2.021 . S
Co316 O336 2.062 . S
Co316 O340 2.117 . S
Co316 O341 2.020 . S
C317 O337 1.259 . S
C317 O340 1.258 . S
Co318 N327 2.057 . S
Co318 O334 2.117 . S
Co318 O335 2.020 . S
Co318 O337 2.021 . S
Co318 O342 2.062 . S
C319 N321 1.316 . S
C319 N322 1.347 . S
C319 H324 0.931 . S
C320 N321 1.375 . S
C320 C323 1.350 . S
C320 H325 0.930 . S
N321 Co316 2.057 . S
N321 C319 1.316 . S
N321 C320 1.375 . S
N322 C319 1.347 . S
N322 C323 1.373 . S
C323 C320 1.350 . S
C323 N322 1.373 . S
C323 H344 0.931 . S
H324 C319 0.931 . S
H325 C320 0.930 . S
C326 O333 1.259 . S
C326 O334 1.258 . S
N327 Co318 2.057 . S
N327 C328 1.316 . S
N327 C329 1.375 . S
C328 N327 1.316 . S
C328 N330 1.347 . S
C328 H339 0.931 . S
C329 N327 1.375 . S
C329 C331 1.350 . S
C329 H338 0.930 . S
N330 C328 1.347 . S
N330 C331 1.373 . S
C331 C329 1.350 . S
C331 N330 1.373 . S
C331 H345 0.931 . S
C332 O335 1.256 . S
C332 O336 1.255 . S
O333 Co316 2.021 . S
O333 C326 1.259 . S
O334 Co318 2.117 . S
O334 C326 1.258 . S
O335 Co318 2.020 . S
O335 C332 1.256 . S
O336 Co316 2.062 . S
O336 C332 1.255 . S
O337 C317 1.259 . S
O337 Co318 2.021 . S
H338 C329 0.930 . S
H339 C328 0.931 . S
O340 Co316 2.117 . S
O340 C317 1.258 . S
O341 Co316 2.020 . S
O341 C343 1.256 . S
O342 Co318 2.062 . S
O342 C343 1.255 . S
C343 O341 1.256 . S
C343 O342 1.255 . S
H344 C323 0.931 . S
H345 C331 0.931 . S
Co346 N351 2.057 . S
Co346 O363 2.021 1_455 S
Co346 O366 2.062 1_455 S
Co346 O370 2.117 . S
Co346 O371 2.020 . S
C347 O367 1.259 . S
C347 O370 1.258 . S
Co348 N357 2.057 . S
Co348 O364 2.117 . S
Co348 O365 2.020 . S
Co348 O367 2.021 1_655 S
Co348 O372 2.062 1_655 S
C349 N351 1.316 . S
C349 N352 1.347 . S
C349 H354 0.931 1_455 S
C350 N351 1.375 . S
C350 C353 1.350 . S
C350 H355 0.930 . S
N351 Co346 2.057 . S
N351 C349 1.316 . S
N351 C350 1.375 . S
N352 C349 1.347 . S
N352 C353 1.373 . S
C353 C350 1.350 . S
C353 N352 1.373 . S
C353 H374 0.931 . S
H354 C349 0.931 1_655 S
H355 C350 0.930 . S
C356 O363 1.259 . S
C356 O364 1.258 . S
N357 Co348 2.057 . S
N357 C358 1.316 . S
N357 C359 1.375 . S
C358 N357 1.316 . S
C358 N360 1.347 . S
C358 H369 0.931 1_655 S
C359 N357 1.375 . S
C359 C361 1.350 . S
C359 H368 0.930 . S
N360 C358 1.347 . S
N360 C361 1.373 . S
C361 C359 1.350 . S
C361 N360 1.373 . S
C361 H375 0.931 . S
C362 O365 1.256 . S
C362 O366 1.255 . S
O363 Co346 2.021 1_655 S
O363 C356 1.259 . S
O364 Co348 2.117 . S
O364 C356 1.258 . S
O365 Co348 2.020 . S
O365 C362 1.256 . S
O366 Co346 2.062 1_655 S
O366 C362 1.255 . S
O367 C347 1.259 . S
O367 Co348 2.021 1_455 S
H368 C359 0.930 . S
H369 C358 0.931 1_455 S
O370 Co346 2.117 . S
O370 C347 1.258 . S
O371 Co346 2.020 . S
O371 C373 1.256 . S
O372 Co348 2.062 1_455 S
O372 C373 1.255 . S
C373 O371 1.256 . S
C373 O372 1.255 . S
H374 C353 0.931 . S
H375 C361 0.931 . S
H376 C382 0.930 . S
H377 C385 0.930 . S
H378 C386 0.930 . S
H379 C387 0.930 . S
H380 C390 0.930 . S
H381 C391 0.930 . S
C382 H376 0.930 . S
C382 C383 1.355 . S
C382 C384 1.415 . S
C383 C382 1.355 . S
C383 C385 1.419 . S
C384 C382 1.415 . S
C384 C389 1.425 . S
C384 C391 1.409 . S
C385 H377 0.930 . S
C385 C383 1.419 . S
C385 C386 1.362 . S
C386 H378 0.930 . S
C386 C385 1.362 . S
C386 C389 1.409 . S
C387 H379 0.930 . S
C387 C388 1.355 . S
C387 C389 1.415 . S
C388 C387 1.355 . S
C388 C390 1.419 . S
C389 C384 1.425 . S
C389 C386 1.409 . S
C389 C387 1.415 . S
C390 H380 0.930 . S
C390 C388 1.419 . S
C390 C391 1.362 . S
C391 H381 0.930 . S
C391 C384 1.409 . S
C391 C390 1.362 . S
H392 C398 0.930 . S
H393 C401 0.930 . S
H394 C402 0.930 . S
H395 C403 0.930 . S
H396 C406 0.930 . S
H397 C407 0.930 . S
C398 H392 0.930 . S
C398 C399 1.355 . S
C398 C400 1.415 . S
C399 C398 1.355 . S
C399 C401 1.419 . S
C400 C398 1.415 . S
C400 C405 1.425 . S
C400 C407 1.409 . S
C401 H393 0.930 . S
C401 C399 1.419 . S
C401 C402 1.362 . S
C402 H394 0.930 . S
C402 C401 1.362 . S
C402 C405 1.409 . S
C403 H395 0.930 . S
C403 C404 1.355 . S
C403 C405 1.415 . S
C404 C403 1.355 . S
C404 C406 1.419 . S
C405 C400 1.425 . S
C405 C402 1.409 . S
C405 C403 1.415 . S
C406 H396 0.930 . S
C406 C404 1.419 . S
C406 C407 1.362 . S
C407 H397 0.930 . S
C407 C400 1.409 . S
C407 C406 1.362 . S
H408 C414 0.930 . S
H409 C417 0.930 . S
H410 C418 0.930 . S
H411 C419 0.930 . S
H412 C422 0.930 . S
H413 C423 0.930 . S
C414 H408 0.930 . S
C414 C415 1.355 . S
C414 C416 1.415 . S
C415 C414 1.355 . S
C415 C417 1.419 . S
C416 C414 1.415 . S
C416 C421 1.425 . S
C416 C423 1.409 . S
C417 H409 0.930 . S
C417 C415 1.419 . S
C417 C418 1.362 . S
C418 H410 0.930 . S
C418 C417 1.362 . S
C418 C421 1.409 . S
C419 H411 0.930 . S
C419 C420 1.355 . S
C419 C421 1.415 . S
C420 C419 1.355 . S
C420 C422 1.419 . S
C421 C416 1.425 . S
C421 C418 1.409 . S
C421 C419 1.415 . S
C422 H412 0.930 . S
C422 C420 1.419 . S
C422 C423 1.362 . S
C423 H413 0.930 . S
C423 C416 1.409 . S
C423 C422 1.362 . S
H424 C430 0.928 1_455 S
H425 C433 0.930 . S
H426 C434 0.930 . S
H427 C435 0.930 . S
H428 C438 0.930 . S
H429 C439 0.930 . S
C430 H424 0.928 1_655 S
C430 C431 1.355 . S
C430 C432 1.415 . S
C431 C430 1.355 . S
C431 C433 1.419 . S
C432 C430 1.415 . S
C432 C437 1.425 . S
C432 C439 1.409 . S
C433 H425 0.930 . S
C433 C431 1.419 . S
C433 C434 1.362 . S
C434 H426 0.930 . S
C434 C433 1.362 . S
C434 C437 1.409 . S
C435 H427 0.930 . S
C435 C436 1.355 . S
C435 C437 1.415 . S
C436 C435 1.355 . S
C436 C438 1.419 . S
C437 C432 1.425 . S
C437 C434 1.409 . S
C437 C435 1.415 . S
C438 H428 0.930 . S
C438 C436 1.419 . S
C438 C439 1.362 . S
C439 H429 0.930 . S
C439 C432 1.409 . S
C439 C438 1.362 . S
H440 C446 0.930 . S
H441 C449 0.930 . S
H442 C450 0.930 . S
H443 C451 0.930 . S
H444 C454 0.930 . S
H445 C455 0.930 . S
C446 H440 0.930 . S
C446 C447 1.355 1_556 S
C446 C448 1.415 . S
C447 C446 1.355 1_554 S
C447 C449 1.419 . S
C448 C446 1.415 . S
C448 C453 1.425 . S
C448 C455 1.409 1_565 S
C449 H441 0.930 . S
C449 C447 1.419 . S
C449 C450 1.362 1_554 S
C450 H442 0.930 . S
C450 C449 1.362 1_556 S
C450 C453 1.409 . S
C451 H443 0.930 . S
C451 C452 1.355 . S
C451 C453 1.415 . S
C452 C451 1.355 . S
C452 C454 1.419 1_565 S
C453 C448 1.425 . S
C453 C450 1.409 . S
C453 C451 1.415 . S
C454 H444 0.930 . S
C454 C452 1.419 1_545 S
C454 C455 1.362 . S
C455 H445 0.930 . S
C455 C448 1.409 1_545 S
C455 C454 1.362 . S
H456 C462 0.930 1_554 S
H457 C465 0.930 . S
H458 C466 0.930 . S
H459 C467 0.930 . S
H460 C470 0.930 . S
H461 C471 0.930 . S
C462 H456 0.930 1_556 S
C462 C463 1.355 1_556 S
C462 C464 1.415 . S
C463 C462 1.355 1_554 S
C463 C465 1.419 . S
C464 C462 1.415 . S
C464 C469 1.425 . S
C464 C471 1.409 . S
C465 H457 0.930 . S
C465 C463 1.419 . S
C465 C466 1.362 1_554 S
C466 H458 0.930 . S
C466 C465 1.362 1_556 S
C466 C469 1.409 . S
C467 H459 0.930 . S
C467 C468 1.355 . S
C467 C469 1.415 . S
C468 C467 1.355 . S
C468 C470 1.419 . S
C469 C464 1.425 . S
C469 C466 1.409 . S
C469 C467 1.415 . S
C470 H460 0.930 . S
C470 C468 1.419 . S
C470 C471 1.362 . S
C471 H461 0.930 . S
C471 C464 1.409 . S
C471 C470 1.362 . S
H472 C478 0.930 . S
H473 C481 0.930 . S
H474 C482 0.930 . S
H475 C483 0.930 . S
H476 C486 0.930 . S
H477 C487 0.930 . S
C478 H472 0.930 . S
C478 C479 1.355 . S
C478 C480 1.415 1_554 S
C479 C478 1.355 . S
C479 C481 1.419 . S
C480 C478 1.415 1_556 S
C480 C485 1.425 . S
C480 C487 1.409 . S
C481 H473 0.930 . S
C481 C479 1.419 . S
C481 C482 1.362 1_554 S
C482 H474 0.930 . S
C482 C481 1.362 1_556 S
C482 C485 1.409 . S
C483 H475 0.930 . S
C483 C484 1.355 . S
C483 C485 1.415 . S
C484 C483 1.355 . S
C484 C486 1.419 . S
C485 C480 1.425 . S
C485 C482 1.409 . S
C485 C483 1.415 . S
C486 H476 0.930 . S
C486 C484 1.419 . S
C486 C487 1.362 . S
C487 H477 0.930 . S
C487 C480 1.409 . S
C487 C486 1.362 . S
H488 C494 0.930 . S
H489 C497 0.930 . S
H490 C498 0.930 . S
H491 C499 0.930 . S
H492 C502 0.930 . S
H493 C503 0.934 . S
C494 H488 0.930 . S
C494 C495 1.355 1_655 S
C494 C496 1.415 1_554 S
C495 C494 1.355 1_455 S
C495 C497 1.419 . S
C496 C494 1.415 1_556 S
C496 C501 1.425 1_655 S
C496 C503 1.409 . S
C497 H489 0.930 . S
C497 C495 1.419 . S
C497 C498 1.362 1_554 S
C498 H490 0.930 . S
C498 C497 1.362 1_556 S
C498 C501 1.409 . S
C499 H491 0.930 . S
C499 C500 1.355 . S
C499 C501 1.415 . S
C500 C499 1.355 . S
C500 C502 1.419 1_455 S
C501 C496 1.425 1_455 S
C501 C498 1.409 . S
C501 C499 1.415 . S
C502 H492 0.930 . S
C502 C500 1.419 1_655 S
C502 C503 1.362 . S
C503 H493 0.934 . S
C503 C496 1.409 . S
C503 C502 1.362 . S
H504 C510 0.930 . S
H505 C513 0.930 . S
H506 C514 0.930 . S
H507 C515 0.930 . S
H508 C518 0.930 . S
H509 C519 0.930 . S
C510 H504 0.930 . S
C510 C511 1.355 . S
C510 C512 1.415 . S
C511 C510 1.355 . S
C511 C513 1.419 1_455 S
C512 C510 1.415 . S
C512 C517 1.425 1_455 S
C512 C519 1.409 . S
C513 H505 0.930 . S
C513 C511 1.419 1_655 S
C513 C514 1.362 . S
C514 H506 0.930 . S
C514 C513 1.362 . S
C514 C517 1.409 . S
C515 H507 0.930 . S
C515 C516 1.355 . S
C515 C517 1.415 . S
C516 C515 1.355 . S
C516 C518 1.419 1_655 S
C517 C512 1.425 1_655 S
C517 C514 1.409 . S
C517 C515 1.415 . S
C518 H508 0.930 . S
C518 C516 1.419 1_455 S
C518 C519 1.362 . S
C519 H509 0.930 . S
C519 C512 1.409 . S
C519 C518 1.362 . S
H520 C526 0.930 . S
H521 C529 0.930 . S
H522 C530 0.930 . S
H523 C531 0.930 . S
H524 C534 0.930 . S
H525 C535 0.930 . S
C526 H520 0.930 . S
C526 C527 1.355 . S
C526 C528 1.415 . S
C527 C526 1.355 . S
C527 C529 1.419 . S
C528 C526 1.415 . S
C528 C533 1.425 . S
C528 C535 1.409 . S
C529 H521 0.930 . S
C529 C527 1.419 . S
C529 C530 1.362 . S
C530 H522 0.930 . S
C530 C529 1.362 . S
C530 C533 1.409 . S
C531 H523 0.930 . S
C531 C532 1.355 . S
C531 C533 1.415 . S
C532 C531 1.355 . S
C532 C534 1.419 . S
C533 C528 1.425 . S
C533 C530 1.409 . S
C533 C531 1.415 . S
C534 H524 0.930 . S
C534 C532 1.419 . S
C534 C535 1.362 . S
C535 H525 0.930 . S
C535 C528 1.409 . S
C535 C534 1.362 . S
H536 C542 0.930 . S
H537 C545 0.930 . S
H538 C546 0.930 . S
H539 C547 0.930 . S
H540 C550 0.930 . S
H541 C551 0.930 . S
C542 H536 0.930 . S
C542 C543 1.355 . S
C542 C544 1.415 . S
C543 C542 1.355 . S
C543 C545 1.419 . S
C544 C542 1.415 . S
C544 C549 1.425 . S
C544 C551 1.409 . S
C545 H537 0.930 . S
C545 C543 1.419 . S
C545 C546 1.362 . S
C546 H538 0.930 . S
C546 C545 1.362 . S
C546 C549 1.409 . S
C547 H539 0.930 . S
C547 C548 1.355 . S
C547 C549 1.415 . S
C548 C547 1.355 . S
C548 C550 1.419 . S
C549 C544 1.425 . S
C549 C546 1.409 . S
C549 C547 1.415 . S
C550 H540 0.930 . S
C550 C548 1.419 . S
C550 C551 1.362 . S
C551 H541 0.930 . S
C551 C544 1.409 . S
C551 C550 1.362 . S
H552 C558 0.930 . S
H553 C561 0.930 . S
H554 C562 0.930 . S
H555 C563 0.930 . S
H556 C566 0.930 . S
H557 C567 0.930 . S
C558 H552 0.930 . S
C558 C559 1.355 . S
C558 C560 1.415 . S
C559 C558 1.355 . S
C559 C561 1.419 . S
C560 C558 1.415 . S
C560 C565 1.425 . S
C560 C567 1.409 . S
C561 H553 0.930 . S
C561 C559 1.419 . S
C561 C562 1.362 . S
C562 H554 0.930 . S
C562 C561 1.362 . S
C562 C565 1.409 . S
C563 H555 0.930 . S
C563 C564 1.355 . S
C563 C565 1.415 . S
C564 C563 1.355 . S
C564 C566 1.419 . S
C565 C560 1.425 . S
C565 C562 1.409 . S
C565 C563 1.415 . S
C566 H556 0.930 . S
C566 C564 1.419 . S
C566 C567 1.362 . S
C567 H557 0.930 . S
C567 C560 1.409 . S
C567 C566 1.362 . S
H568 C574 0.930 . S
H569 C577 0.930 . S
H570 C578 0.930 . S
H571 C579 0.930 . S
H572 C582 0.930 . S
H573 C583 0.930 . S
C574 H568 0.930 . S
C574 C575 1.355 1_455 S
C574 C576 1.415 . S
C575 C574 1.355 1_655 S
C575 C577 1.419 . S
C576 C574 1.415 . S
C576 C581 1.425 1_455 S
C576 C583 1.409 . S
C577 H569 0.930 . S
C577 C575 1.419 . S
C577 C578 1.362 . S
C578 H570 0.930 . S
C578 C577 1.362 . S
C578 C581 1.409 . S
C579 H571 0.930 . S
C579 C580 1.355 1_655 S
C579 C581 1.415 . S
C580 C579 1.355 1_455 S
C580 C582 1.419 . S
C581 C576 1.425 1_655 S
C581 C578 1.409 . S
C581 C579 1.415 . S
C582 H572 0.930 . S
C582 C580 1.419 . S
C582 C583 1.362 . S
C583 H573 0.930 . S
C583 C576 1.409 . S
C583 C582 1.362 . S
H584 C590 0.930 . S
H585 C593 0.930 . S
H586 C594 0.930 . S
H587 C595 0.930 . S
H588 C598 0.930 . S
H589 C599 0.951 . S
C590 H584 0.930 . S
C590 C591 1.355 . S
C590 C592 1.415 . S
C591 C590 1.355 . S
C591 C593 1.419 . S
C592 C590 1.415 . S
C592 C597 1.425 . S
C592 C599 1.374 1_565 S
C593 H585 0.930 . S
C593 C591 1.419 . S
C593 C594 1.362 . S
C594 H586 0.930 . S
C594 C593 1.362 . S
C594 C597 1.409 . S
C595 H587 0.930 . S
C595 C596 1.355 1_565 S
C595 C597 1.415 . S
C596 C595 1.355 1_545 S
C596 C598 1.419 . S
C597 C592 1.425 . S
C597 C594 1.409 . S
C597 C595 1.415 . S
C598 H588 0.930 . S
C598 C596 1.419 . S
C598 C599 1.378 . S
C599 H589 0.951 . S
C599 C592 1.374 1_545 S
C599 C598 1.378 . S
H600 C606 0.930 . S
H601 C609 0.930 . S
H602 C610 0.930 . S
H603 C611 0.930 . S
H604 C614 0.930 . S
H605 C615 0.930 . S
C606 H600 0.930 . S
C606 C607 1.355 . S
C606 C608 1.415 . S
C607 C606 1.355 . S
C607 C609 1.419 . S
C608 C606 1.415 . S
C608 C613 1.425 . S
C608 C615 1.409 . S
C609 H601 0.930 . S
C609 C607 1.419 . S
C609 C610 1.362 . S
C610 H602 0.930 . S
C610 C609 1.362 . S
C610 C613 1.409 . S
C611 H603 0.930 . S
C611 C612 1.355 . S
C611 C613 1.415 . S
C612 C611 1.355 . S
C612 C614 1.419 . S
C613 C608 1.425 . S
C613 C610 1.409 . S
C613 C611 1.415 . S
C614 H604 0.930 . S
C614 C612 1.419 . S
C614 C615 1.362 . S
C615 H605 0.930 . S
C615 C608 1.409 . S
C615 C614 1.362 . S
H616 C622 0.930 . S
H617 C625 0.930 . S
H618 C626 0.930 . S
H619 C627 0.930 . S
H620 C630 0.930 . S
H621 C631 0.930 . S
C622 H616 0.930 . S
C622 C623 1.355 . S
C622 C624 1.415 . S
C623 C622 1.355 . S
C623 C625 1.419 . S
C624 C622 1.415 . S
C624 C629 1.425 . S
C624 C631 1.409 . S
C625 H617 0.930 . S
C625 C623 1.419 . S
C625 C626 1.362 . S
C626 H618 0.930 . S
C626 C625 1.362 . S
C626 C629 1.409 . S
C627 H619 0.930 . S
C627 C628 1.355 . S
C627 C629 1.415 . S
C628 C627 1.355 . S
C628 C630 1.419 . S
C629 C624 1.425 . S
C629 C626 1.409 . S
C629 C627 1.415 . S
C630 H620 0.930 . S
C630 C628 1.419 . S
C630 C631 1.362 . S
C631 H621 0.930 . S
C631 C624 1.409 . S
C631 C630 1.362 . S
H632 C638 0.930 . S
H633 C641 0.930 . S
H634 C642 0.930 . S
H635 C643 0.930 . S
H636 C646 0.930 . S
H637 C647 0.930 . S
C638 H632 0.930 . S
C638 C639 1.355 1_655 S
C638 C640 1.415 . S
C639 C638 1.355 1_455 S
C639 C641 1.419 . S
C640 C638 1.415 . S
C640 C645 1.425 1_655 S
C640 C647 1.409 . S
C641 H633 0.930 . S
C641 C639 1.419 . S
C641 C642 1.362 . S
C642 H634 0.930 . S
C642 C641 1.362 . S
C642 C645 1.409 . S
C643 H635 0.930 . S
C643 C644 1.355 . S
C643 C645 1.415 . S
C644 C643 1.355 . S
C644 C646 1.419 1_455 S
C645 C640 1.425 1_455 S
C645 C642 1.409 . S
C645 C643 1.415 . S
C646 H636 0.930 . S
C646 C644 1.419 1_655 S
C646 C647 1.362 . S
C647 H637 0.930 . S
C647 C640 1.409 . S
C647 C646 1.362 . S
H648 C654 0.930 . S
H649 C657 0.930 . S
H650 C658 0.930 . S
H651 C659 0.930 . S
H652 C662 0.930 . S
H653 C663 0.930 . S
C654 H648 0.930 . S
C654 C655 1.355 . S
C654 C656 1.415 . S
C655 C654 1.355 . S
C655 C657 1.419 . S
C656 C654 1.415 . S
C656 C661 1.425 . S
C656 C663 1.409 . S
C657 H649 0.930 . S
C657 C655 1.419 . S
C657 C658 1.362 . S
C658 H650 0.930 . S
C658 C657 1.362 . S
C658 C661 1.409 . S
C659 H651 0.930 . S
C659 C660 1.355 . S
C659 C661 1.415 . S
C660 C659 1.355 . S
C660 C662 1.419 . S
C661 C656 1.425 . S
C661 C658 1.409 . S
C661 C659 1.415 . S
C662 H652 0.930 . S
C662 C660 1.419 . S
C662 C663 1.362 . S
C663 H653 0.930 . S
C663 C656 1.409 . S
C663 C662 1.362 . S
H664 C670 0.930 . S
H665 C673 0.930 . S
H666 C674 0.930 . S
H667 C675 0.930 . S
H668 C678 0.930 . S
H669 C679 0.930 . S
C670 H664 0.930 . S
C670 C671 1.355 . S
C670 C672 1.415 . S
C671 C670 1.355 . S
C671 C673 1.419 . S
C672 C670 1.415 . S
C672 C677 1.425 . S
C672 C679 1.409 . S
C673 H665 0.930 . S
C673 C671 1.419 . S
C673 C674 1.362 . S
C674 H666 0.930 . S
C674 C673 1.362 . S
C674 C677 1.409 . S
C675 H667 0.930 . S
C675 C676 1.355 1_554 S
C675 C677 1.415 . S
C676 C675 1.355 1_556 S
C676 C678 1.419 . S
C677 C672 1.425 . S
C677 C674 1.409 . S
C677 C675 1.415 . S
C678 H668 0.930 . S
C678 C676 1.419 . S
C678 C679 1.362 1_556 S
C679 H669 0.930 . S
C679 C672 1.409 . S
C679 C678 1.362 1_554 S
H680 C686 0.930 . S
H681 C689 0.930 . S
H682 C690 0.930 . S
H683 C691 0.930 . S
H684 C694 0.930 . S
H685 C695 0.930 . S
C686 H680 0.930 . S
C686 C687 1.355 . S
C686 C688 1.415 . S
C687 C686 1.355 . S
C687 C689 1.419 . S
C688 C686 1.415 . S
C688 C693 1.425 . S
C688 C695 1.409 . S
C689 H681 0.930 . S
C689 C687 1.419 . S
C689 C690 1.362 . S
C690 H682 0.930 . S
C690 C689 1.362 . S
C690 C693 1.409 . S
C691 H683 0.930 . S
C691 C692 1.355 . S
C691 C693 1.415 1_556 S
C692 C691 1.355 . S
C692 C694 1.419 1_556 S
C693 C688 1.425 . S
C693 C690 1.409 . S
C693 C691 1.415 1_554 S
C694 H684 0.930 . S
C694 C692 1.419 1_554 S
C694 C695 1.362 . S
C695 H685 0.930 . S
C695 C688 1.409 . S
C695 C694 1.362 . S
H696 C702 0.930 . S
H697 C705 0.930 . S
H698 C706 0.930 . S
H699 C707 0.950 . S
H700 C710 0.930 . S
H701 C711 0.930 . S
C702 H696 0.930 . S
C702 C703 1.343 1_655 S
C702 C704 1.415 . S
C703 C702 1.343 1_455 S
C703 C705 1.432 . S
C704 C702 1.415 . S
C704 C709 1.425 1_655 S
C704 C711 1.409 . S
C705 H697 0.930 . S
C705 C703 1.432 . S
C705 C706 1.362 . S
C706 H698 0.930 . S
C706 C705 1.362 . S
C706 C709 1.409 . S
C707 H699 0.950 . S
C707 C708 1.336 1_455 S
C707 C709 1.414 . S
C708 C707 1.336 1_655 S
C708 C710 1.419 . S
C709 C704 1.425 1_455 S
C709 C706 1.409 . S
C709 C707 1.414 . S
C710 H700 0.930 . S
C710 C708 1.419 . S
C710 C711 1.362 . S
C711 H701 0.930 . S
C711 C704 1.409 . S
C711 C710 1.362 . S
H712 C718 0.930 . S
H713 C721 0.930 . S
H714 C722 0.930 . S
H715 C723 0.930 . S
H716 C726 0.930 . S
H717 C727 0.930 . S
C718 H712 0.930 . S
C718 C719 1.355 . S
C718 C720 1.415 . S
C719 C718 1.355 . S
C719 C721 1.419 . S
C720 C718 1.415 . S
C720 C725 1.425 . S
C720 C727 1.409 . S
C721 H713 0.930 . S
C721 C719 1.419 . S
C721 C722 1.362 . S
C722 H714 0.930 . S
C722 C721 1.362 . S
C722 C725 1.409 . S
C723 H715 0.930 . S
C723 C724 1.355 . S
C723 C725 1.415 . S
C724 C723 1.355 . S
C724 C726 1.419 . S
C725 C720 1.425 . S
C725 C722 1.409 . S
C725 C723 1.415 . S
C726 H716 0.930 . S
C726 C724 1.419 . S
C726 C727 1.362 . S
C727 H717 0.930 . S
C727 C720 1.409 . S
C727 C726 1.362 . S
H728 C734 0.930 . S
H729 C737 0.930 . S
H730 C738 0.930 . S
H731 C739 0.930 . S
H732 C742 0.930 . S
H733 C743 0.930 . S
C734 H728 0.930 . S
C734 C735 1.355 . S
C734 C736 1.415 . S
C735 C734 1.355 . S
C735 C737 1.419 . S
C736 C734 1.415 . S
C736 C741 1.425 . S
C736 C743 1.409 . S
C737 H729 0.930 . S
C737 C735 1.419 . S
C737 C738 1.362 . S
C738 H730 0.930 . S
C738 C737 1.362 . S
C738 C741 1.409 . S
C739 H731 0.930 . S
C739 C740 1.355 . S
C739 C741 1.415 . S
C740 C739 1.355 . S
C740 C742 1.419 . S
C741 C736 1.425 . S
C741 C738 1.409 . S
C741 C739 1.415 . S
C742 H732 0.930 . S
C742 C740 1.419 . S
C742 C743 1.362 . S
C743 H733 0.930 . S
C743 C736 1.409 . S
C743 C742 1.362 . S
H744 C750 0.930 . S
H745 C753 0.930 . S
H746 C754 0.930 . S
H747 C755 0.930 . S
H748 C758 0.930 . S
H749 C759 0.930 . S
C750 H744 0.930 . S
C750 C751 1.355 . S
C750 C752 1.415 . S
C751 C750 1.355 . S
C751 C753 1.419 . S
C752 C750 1.415 . S
C752 C757 1.425 . S
C752 C759 1.409 . S
C753 H745 0.930 . S
C753 C751 1.419 . S
C753 C754 1.362 . S
C754 H746 0.930 . S
C754 C753 1.362 . S
C754 C757 1.409 . S
C755 H747 0.930 . S
C755 C756 1.355 . S
C755 C757 1.415 . S
C756 C755 1.355 . S
C756 C758 1.419 . S
C757 C752 1.425 . S
C757 C754 1.409 . S
C757 C755 1.415 . S
C758 H748 0.930 . S
C758 C756 1.419 . S
C758 C759 1.362 . S
C759 H749 0.930 . S
C759 C752 1.409 . S
C759 C758 1.362 . S
C383 C215 1.823 . S
C388 C266 1.802 . S
C404 C296 1.750 . S
C399 C247 1.683 . S
C420 N330 1.634 . S
C415 C151 1.692 . S
C436 N360 1.284 . S
C431 C183 1.358 1_655 S
C452 C257 1.831 1_565 S
C447 C87 1.736 . S
C463 C119 1.711 . S
C468 C287 1.743 . S
C479 C23 1.611 . S
C484 N322 1.647 . S
C495 C55 1.317 . S
C500 N352 1.334 . S
C516 C272 0.262 . S
C511 C189 0.376 . S
C532 C302 0.861 . S
C527 C221 0.891 . S
C548 C343 0.778 . S
C543 C253 0.799 . S
C559 C157 0.832 . S
C564 C373 0.854 . S
C575 C61 0.664 1_655 S
C580 C283 0.488 . S
C596 C313 0.899 . S
C591 C93 0.909 . S
C612 C332 0.842 . S
C607 C125 0.861 . S
C623 C29 0.698 . S
C628 C362 0.731 . S
C639 C177 1.458 . S
C644 N262 1.521 . S
C655 C209 1.663 . S
C660 N292 1.664 . S
C676 C317 1.803 . S
C671 C241 1.730 . S
C692 C347 1.975 . S
C687 C145 1.951 . S
C703 C49 1.530 . S
C708 N270 1.577 . S
C724 N300 1.688 . S
C719 C81 1.632 . S
C740 C326 1.809 . S
C735 C113 1.764 . S
C751 C17 1.775 . S
C756 C356 1.971 . S
