# Generated by pormake.
# Topology anh, (6,3)-cn, num edge types: 1
# Building blocks:
#     Node 0, Type 0, BuildingBlock: PAMTUU_clean_sbu_0, # of connection points: 6
#     Node 1, Type 0, BuildingBlock: PAMTUU_clean_sbu_0, # of connection points: 6
#     Node 2, Type 0, BuildingBlock: PAMTUU_clean_sbu_0, # of connection points: 6
#     Node 3, Type 1, BuildingBlock: PAMTOO_clean_linker_0, # of connection points: 3
#     Node 4, Type 1, BuildingBlock: PAMTOO_clean_linker_0, # of connection points: 3
#     Node 5, Type 1, BuildingBlock: PAMTOO_clean_linker_0, # of connection points: 3
#     Node 6, Type 1, BuildingBlock: PAMTOO_clean_linker_0, # of connection points: 3
#     Node 7, Type 1, BuildingBlock: PAMTOO_clean_linker_0, # of connection points: 3
#     Node 8, Type 1, BuildingBlock: PAMTOO_clean_linker_0, # of connection points: 3
#     Edge 9, Type (0, 1), BuildingBlock: ZUJKAS_clean_linker_0, # of connection points: 2
#     Edge 10, Type (0, 1), BuildingBlock: ZUJKAS_clean_linker_0, # of connection points: 2
#     Edge 11, Type (0, 1), BuildingBlock: ZUJKAS_clean_linker_0, # of connection points: 2
#     Edge 12, Type (0, 1), BuildingBlock: ZUJKAS_clean_linker_0, # of connection points: 2
#     Edge 13, Type (0, 1), BuildingBlock: ZUJKAS_clean_linker_0, # of connection points: 2
#     Edge 14, Type (0, 1), BuildingBlock: ZUJKAS_clean_linker_0, # of connection points: 2
#     Edge 15, Type (0, 1), BuildingBlock: ZUJKAS_clean_linker_0, # of connection points: 2
#     Edge 16, Type (0, 1), BuildingBlock: ZUJKAS_clean_linker_0, # of connection points: 2
#     Edge 17, Type (0, 1), BuildingBlock: ZUJKAS_clean_linker_0, # of connection points: 2
#     Edge 18, Type (0, 1), BuildingBlock: ZUJKAS_clean_linker_0, # of connection points: 2
#     Edge 19, Type (0, 1), BuildingBlock: ZUJKAS_clean_linker_0, # of connection points: 2
#     Edge 20, Type (0, 1), BuildingBlock: ZUJKAS_clean_linker_0, # of connection points: 2
#     Edge 21, Type (0, 1), BuildingBlock: ZUJKAS_clean_linker_0, # of connection points: 2
#     Edge 22, Type (0, 1), BuildingBlock: ZUJKAS_clean_linker_0, # of connection points: 2
#     Edge 23, Type (0, 1), BuildingBlock: ZUJKAS_clean_linker_0, # of connection points: 2
#     Edge 24, Type (0, 1), BuildingBlock: ZUJKAS_clean_linker_0, # of connection points: 2
#     Edge 25, Type (0, 1), BuildingBlock: ZUJKAS_clean_linker_0, # of connection points: 2
#     Edge 26, Type (0, 1), BuildingBlock: ZUJKAS_clean_linker_0, # of connection points: 2
# Relax obj value: 0.199
# Max RMSD: 0.150
# Mean RMSD: 0.124
data_MOF--net-anh--node1-PAMTUU_clean_sbu_0--node2-PAMTOO_clean_linker_0--edge1-ZUJKAS_clean_linker_0
_symmetry_space_group_name_H-M    P1
_symmetry_Int_Tables_number       1
_symmetry_cell_setting            triclinic
loop_
_symmetry_equiv_pos_as_xyz
'x, y, z'
_cell_length_a     38.978137
_cell_length_b     38.983995
_cell_length_c     64.328525
_cell_angle_alpha  89.158068
_cell_angle_beta   92.524627
_cell_angle_gamma 120.16178
loop_
_atom_site_label
_atom_site_type_symbol
_atom_site_fract_x
_atom_site_fract_y
_atom_site_fract_z
_atom_type_partial_charge
Tb0 Tb 0.15695 0.64416 0.16007 0.0
Tb1 Tb 0.20617 0.59877 0.17099 0.0
C2 C 0.19201 0.61885 0.12484 0.0
C3 C 1.07277 0.66044 0.15904 0.0
C4 C 0.99154 0.62184 0.1675 0.0
C5 C 1.00481 0.64029 0.14823 0.0
C6 C 1.04513 0.65951 0.14406 0.0
C7 C 1.05973 0.64338 0.17862 0.0
C8 C 1.01947 0.6245 0.18287 0.0
C9 C 0.11381 0.67444 0.15322 0.0
O10 O 0.11393 0.58034 0.15637 0.0
O11 O 0.14437 0.55667 0.17855 0.0
O12 O 0.20278 0.62396 0.20032 0.0
O13 O 0.14616 0.62593 0.19213 0.0
O14 O 0.20656 0.54527 0.17128 0.0
O15 O 0.25742 0.59907 0.18319 0.0
O16 O 0.25172 0.65911 0.16259 0.0
O17 O 0.21774 0.69185 0.16828 0.0
O18 O 0.18671 0.64711 0.13193 0.0
O19 O 0.19369 0.59273 0.13737 0.0
C20 C 0.11231 0.55162 0.1681 0.0
O21 O 0.14057 0.68566 0.16844 0.0
O22 O 0.11757 0.65183 0.13985 0.0
C23 C 0.17267 0.62744 0.20589 0.0
C24 C 0.26986 0.55222 0.16718 0.0
C25 C 0.31809 0.52698 0.14888 0.0
C26 C 0.33091 0.54972 0.16735 0.0
C27 C 0.30692 0.562 0.17645 0.0
C28 C 0.2577 0.53104 0.14824 0.0
C29 C 0.28152 0.51845 0.13923 0.0
C30 C 0.2434 0.56199 0.17819 0.0
C31 C 0.25144 0.69228 0.16594 0.0
H32 H 0.98383 0.63893 0.13618 0.0
H33 H 1.05452 0.67221 0.12883 0.0
H34 H 1.08039 0.64318 0.19036 0.0
H35 H 1.00997 0.61024 0.19777 0.0
H36 H 0.35923 0.5575 0.175 0.0
H37 H 0.31696 0.57842 0.19102 0.0
H38 H 0.2293 0.52315 0.14065 0.0
H39 H 0.27045 0.50067 0.12513 0.0
Tb40 Tb 0.61695 1.04539 0.49028 0.0
Tb41 Tb 0.71034 0.08868 0.50492 0.0
C42 C 0.68202 0.07686 0.45826 0.0
C43 C 0.51056 0.97977 0.46866 0.0
C44 C 0.43598 0.91707 0.45456 0.0
C45 C 0.44893 0.95629 0.44828 0.0
C46 C 0.48582 0.98724 0.45527 0.0
C47 C 0.49922 0.94042 0.47378 0.0
C48 C 0.4622 0.90927 0.46673 0.0
C49 C 0.54448 1.01383 0.47928 0.0
O50 O 0.62645 0.99534 0.498 0.0
O51 O 0.6948 1.02741 0.4984 0.0
O52 O 0.67607 1.05699 0.53157 0.0
O53 O 0.62261 1.06336 0.52245 0.0
O54 O 0.76857 0.10335 0.49875 0.0
O55 O 0.75525 0.12042 0.52776 0.0
O56 O 0.6952 0.13536 0.5086 0.0
O57 O 0.6377 0.10932 0.48816 0.0
O58 O 0.64946 1.04528 0.46386 0.0
O59 O 0.70599 0.10306 0.47229 0.0
C60 C 0.65998 0.99448 0.49862 0.0
O61 O 0.55751 1.00755 0.49714 0.0
O62 O 0.57309 1.03929 0.46793 0.0
C63 C 0.64409 1.05742 0.53662 0.0
C64 C 0.81541 0.16554 0.51332 0.0
C65 C 0.87326 0.2463 0.51068 0.0
C66 C 0.87364 0.22391 0.52791 0.0
C67 C 0.84495 0.18372 0.52917 0.0
C68 C 0.81521 0.18774 0.496 0.0
C69 C 0.84402 0.22771 0.49464 0.0
C70 C 0.78313 0.12455 0.51577 0.0
C71 C 0.66689 0.13919 0.49882 0.0
H72 H 0.4295 0.96366 0.4392 0.0
H73 H 0.49395 1.01741 0.45124 0.0
H74 H 0.51798 0.93391 0.48404 0.0
H75 H 0.45339 0.87934 0.47157 0.0
H76 H 0.8959 0.23756 0.54045 0.0
H77 H 0.84525 0.16706 0.54274 0.0
H78 H 0.79222 0.17446 0.48377 0.0
H79 H 0.84257 0.24442 0.48136 0.0
Tb80 Tb 0.67529 0.55174 0.83053 0.0
Tb81 Tb 0.72469 0.64801 0.83451 0.0
C82 C 0.70092 0.60464 0.79126 0.0
C83 C 0.6366 0.4426 0.83816 0.0
C84 C 0.62579 0.37116 0.85538 0.0
C85 C 0.6209 0.37458 0.83378 0.0
C86 C 0.62623 0.40993 0.82529 0.0
C87 C 0.64348 0.44013 0.85963 0.0
C88 C 0.63797 0.40457 0.86819 0.0
C89 C 0.63589 0.47704 0.82905 0.0
O90 O 0.7374 0.56662 0.82795 0.0
O91 O 0.76981 0.63071 0.84056 0.0
O92 O 0.69427 0.623 0.86325 0.0
O93 O 0.69928 0.56769 0.86206 0.0
O94 O 0.74482 0.70453 0.82197 0.0
O95 O 0.76201 0.69758 0.85344 0.0
O96 O 0.66342 0.63488 0.82801 0.0
O97 O 0.62993 0.56832 0.83557 0.0
O98 O 0.67159 0.57408 0.80005 0.0
O99 O 0.72963 0.63349 0.8025 0.0
C100 C 0.77016 0.59855 0.83481 0.0
O101 O 0.62911 0.49865 0.84165 0.0
O102 O 0.66321 0.4985 0.816 0.0
C103 C 0.69391 0.5928 0.87265 0.0
C104 C 0.75016 0.75028 0.84713 0.0
C105 C 0.72887 0.8058 0.85973 0.0
C106 C 0.76786 0.81312 0.86347 0.0
C107 C 0.77842 0.78558 0.85715 0.0
C108 C 0.71091 0.74206 0.84417 0.0
C109 C 0.70044 0.76961 0.85024 0.0
C110 C 0.76167 0.72224 0.83965 0.0
C111 C 0.63017 0.60184 0.83186 0.0
H112 H 0.61081 0.34928 0.82348 0.0
H113 H 0.62056 0.41119 0.80873 0.0
H114 H 0.6517 0.46513 0.86989 0.0
H115 H 0.64221 0.40291 0.88485 0.0
H116 H 0.79038 0.84038 0.87097 0.0
H117 H 0.80877 0.79211 0.8598 0.0
H118 H 0.68851 0.71477 0.83665 0.0
H119 H 0.67034 0.76308 0.84665 0.0
H120 H 0.7659 0.19525 0.23865 0.0
H121 H 0.65955 0.08214 0.22987 0.0
H122 H 0.71348 0.15528 0.17685 0.0
H123 H 0.61571 0.09785 0.17282 0.0
C124 C 0.61547 0.07999 0.1865 0.0
O125 O 0.65352 0.08552 0.18975 0.0
H126 H 0.60741 0.09157 0.20004 0.0
C127 C 0.74286 0.17338 0.22828 0.0
C128 C 0.744 0.18063 0.20669 0.0
C129 C 0.71249 0.13839 0.23684 0.0
C130 C 0.68275 0.10955 0.22354 0.0
C131 C 0.6826 0.11526 0.202 0.0
C132 C 0.71345 0.15087 0.19351 0.0
H133 H 0.67452 0.65365 0.56372 0.0
H134 H 0.67756 0.54458 0.56271 0.0
H135 H 0.66444 0.59596 0.50541 0.0
H136 H 0.62068 0.49987 0.50641 0.0
C137 C 0.63943 0.49877 0.51964 0.0
O138 O 0.67229 0.53663 0.52254 0.0
H139 H 0.62119 0.48991 0.53366 0.0
C140 C 0.67287 0.62899 0.55525 0.0
C141 C 0.66842 0.62839 0.53347 0.0
C142 C 0.67592 0.59898 0.56615 0.0
C143 C 0.67534 0.56808 0.55473 0.0
C144 C 0.6711 0.56647 0.53291 0.0
C145 C 0.66743 0.59676 0.52223 0.0
H146 H 0.12913 0.60389 0.9007 0.0
H147 H 0.23246 0.5921 0.89513 0.0
H148 H 0.16988 0.5997 0.8401 0.0
H149 H 0.28014 0.64876 0.86474 0.0
C150 C 0.27002 0.62786 0.85126 0.0
O151 O 0.23311 0.59479 0.85492 0.0
H152 H 0.26638 0.64354 0.83751 0.0
C153 C 0.14994 0.60135 0.89111 0.0
C154 C 0.14486 0.60165 0.86933 0.0
C155 C 0.18118 0.59782 0.90072 0.0
C156 C 0.20843 0.59527 0.88812 0.0
C157 C 0.20526 0.59669 0.86636 0.0
C158 C 0.1729 0.59923 0.8569 0.0
H159 H 1.05857 0.6154 0.41534 0.0
H160 H 1.04187 0.71322 0.39785 0.0
H161 H 0.98604 0.64435 0.45149 0.0
H162 H 1.00142 0.72666 0.45826 0.0
C163 C 1.01498 0.73702 0.44292 0.0
O164 O 0.99766 0.70543 0.42893 0.0
H165 H 1.00781 0.75994 0.43745 0.0
C166 C 1.04593 0.63405 0.41811 0.0
C167 C 1.02162 0.62606 0.43509 0.0
C168 C 1.05328 0.66514 0.4044 0.0
C169 C 1.0363 0.68875 0.40805 0.0
C170 C 1.01249 0.68141 0.42512 0.0
C171 C 1.00494 0.65 0.43851 0.0
H172 H 0.5603 0.98372 0.75815 0.0
H173 H 0.48696 1.03554 0.74408 0.0
H174 H 0.51127 1.01638 0.80751 0.0
H175 H 0.43044 0.99085 0.79567 0.0
C176 C 0.43831 1.02197 0.79208 0.0
O177 O 0.47448 1.04262 0.78285 0.0
H178 H 0.41467 1.0207 0.78126 0.0
C179 C 0.54209 0.99559 0.76316 0.0
C180 C 0.53716 0.99758 0.78449 0.0
C181 C 0.52499 1.01001 0.74834 0.0
C182 C 0.50032 1.02395 0.75511 0.0
C183 C 0.49524 1.02591 0.7764 0.0
C184 C 0.51457 1.01383 0.79106 0.0
H185 H 0.62455 0.47783 0.08957 0.0
H186 H 0.53864 0.37194 0.05669 0.0
H187 H 0.58767 0.36263 0.11591 0.0
H188 H 0.50317 0.28938 0.10969 0.0
C189 C 0.49912 0.30181 0.09473 0.0
O190 O 0.53568 0.32336 0.08575 0.0
H191 H 0.47935 0.2762 0.08439 0.0
C192 C 0.60661 0.44577 0.08879 0.0
C193 C 0.61 0.42278 0.10494 0.0
C194 C 0.58206 0.42792 0.071 0.0
C195 C 0.55762 0.38652 0.07032 0.0
C196 C 0.55901 0.36333 0.08679 0.0
C197 C 0.58551 0.38129 0.10389 0.0
H198 H 0.32992 0.51787 0.10793 0.0
H199 H 0.36325 0.48414 0.09452 0.0
H200 H 0.39266 0.46442 0.15724 0.0
H201 H 0.3585 0.49677 0.17084 0.0
H202 H 0.45745 0.49566 0.12494 0.0
H203 H 0.31466 0.3589 0.10293 0.0
H204 H 0.32131 0.40635 0.09506 0.0
H205 H 0.31741 0.3937 0.12209 0.0
C206 C 0.34341 0.5063 0.11889 0.0
C207 C 0.34137 0.50995 0.14049 0.0
C208 C 0.36258 0.48726 0.11118 0.0
C209 C 0.38015 0.47175 0.12493 0.0
C210 C 0.37934 0.47641 0.14642 0.0
H211 H 0.50068 0.34009 0.13035 0.0
H212 H 0.47316 0.38353 0.13544 0.0
C213 C 0.36 0.49515 0.15414 0.0
C214 C 0.39789 0.44896 0.11715 0.0
H215 H 0.37343 0.35733 0.09897 0.0
C216 C 0.43921 0.46556 0.11905 0.0
C217 C 0.3739 0.40988 0.10936 0.0
C218 C 0.3293 0.39083 0.10725 0.0
C219 C 0.4572 0.44366 0.11374 0.0
C220 C 0.43302 0.40383 0.10695 0.0
C221 C 0.39182 0.38779 0.1043 0.0
C222 C 0.44959 0.37757 0.10374 0.0
C223 C 0.50189 0.46329 0.1155 0.0
C224 C 0.44432 0.35885 0.08443 0.0
C225 C 0.45942 0.3335 0.08164 0.0
C226 C 0.47961 0.32625 0.09818 0.0
C227 C 0.48465 0.34481 0.1175 0.0
C228 C 0.46947 0.37001 0.1203 0.0
H229 H 0.51618 0.49608 0.11434 0.0
H230 H 0.5109 0.4564 0.13088 0.0
H231 H 0.51331 0.4524 0.10321 0.0
H232 H 0.42894 0.36422 0.07149 0.0
H233 H 0.45591 0.32 0.06652 0.0
H234 H 0.91572 0.2881 0.47764 0.0
H235 H 0.9541 0.36006 0.47422 0.0
H236 H 0.93312 0.37409 0.53801 0.0
H237 H 0.89383 0.30175 0.5414 0.0
H238 H 0.91084 0.41424 0.51042 0.0
H239 H 1.06266 0.44811 0.49466 0.0
H240 H 1.02664 0.40787 0.47855 0.0
H241 H 1.02691 0.40213 0.50639 0.0
C242 C 0.91987 0.30652 0.49104 0.0
C243 C 0.90167 0.28942 0.50974 0.0
C244 C 0.94221 0.34762 0.48916 0.0
C245 C 0.94695 0.3724 0.50597 0.0
C246 C 0.93017 0.35542 0.52495 0.0
H247 H 1.02066 0.62307 0.47775 0.0
H248 H 1.00692 0.56593 0.49988 0.0
C249 C 0.90789 0.31418 0.52688 0.0
C250 C 0.96458 0.41549 0.50251 0.0
H251 H 1.04233 0.49325 0.47938 0.0
C252 C 0.9401 0.43205 0.50425 0.0
C253 C 1.00281 0.43863 0.49458 0.0
C254 C 1.03139 0.42334 0.49365 0.0
C255 C 0.95137 0.46987 0.49641 0.0
C256 C 0.98814 0.49152 0.48682 0.0
C257 C 1.01398 0.47632 0.48663 0.0
C258 C 0.99746 0.52671 0.47409 0.0
C259 C 0.92267 0.4851 0.49692 0.0
C260 C 0.9967 0.52333 0.45241 0.0
C261 C 1.00419 0.55552 0.43983 0.0
C262 C 1.0129 0.59188 0.44871 0.0
C263 C 1.01364 0.59526 0.4705 0.0
C264 C 1.00602 0.56283 0.48313 0.0
H265 H 0.89404 0.46325 0.50364 0.0
H266 H 0.93609 0.51272 0.50642 0.0
H267 H 0.91658 0.49245 0.48094 0.0
H268 H 0.98977 0.49551 0.44518 0.0
H269 H 1.00272 0.55176 0.4231 0.0
H270 H 0.65845 0.79599 0.87293 0.0
H271 H 0.63535 0.84338 0.86886 0.0
H272 H 0.75282 0.93449 0.85295 0.0
H273 H 0.77546 0.88651 0.85522 0.0
H274 H 0.6503 0.91662 0.881 0.0
H275 H 0.69066 0.91838 0.79877 0.0
H276 H 0.69337 0.88535 0.81774 0.0
H277 H 0.73133 0.93689 0.81765 0.0
C278 C 0.67953 0.82617 0.86869 0.0
C279 C 0.71837 0.8369 0.86353 0.0
C280 C 0.66639 0.85343 0.86669 0.0
C281 C 0.69205 0.89206 0.85988 0.0
C282 C 0.73226 0.90443 0.85761 0.0
H283 H 0.58659 1.03786 0.81787 0.0
H284 H 0.62664 1.0173 0.83954 0.0
C285 C 0.74525 0.87694 0.85914 0.0
C286 C 0.67495 0.91623 0.85174 0.0
H287 H 0.65494 0.94948 0.80602 0.0
C288 C 0.65178 0.92446 0.86468 0.0
C289 C 0.67658 0.92594 0.83035 0.0
C290 C 0.69901 0.91597 0.81525 0.0
C291 C 0.62881 0.94051 0.85658 0.0
C292 C 0.62961 0.94891 0.83513 0.0
C293 C 0.65446 0.94282 0.82249 0.0
C294 C 0.60193 0.95976 0.82468 0.0
C295 C 0.60219 0.94631 0.87068 0.0
C296 C 0.57458 0.93401 0.80943 0.0
C297 C 0.55229 0.94579 0.79698 0.0
C298 C 0.55676 0.98348 0.79965 0.0
C299 C 0.58253 1.00853 0.81567 0.0
C300 C 0.60526 0.99682 0.82805 0.0
H301 H 0.60128 0.93366 0.88637 0.0
H302 H 0.61321 0.9785 0.87248 0.0
H303 H 0.57151 0.93228 0.86371 0.0
H304 H 0.57159 0.90526 0.80663 0.0
H305 H 0.53234 0.92589 0.78485 0.0
H306 H 0.95071 0.62243 0.20106 0.0
H307 H 0.87866 0.58219 0.2056 0.0
H308 H 0.86433 0.52582 0.14611 0.0
H309 H 0.93562 0.56545 0.14159 0.0
H310 H 0.82091 0.58348 0.17857 0.0
H311 H 0.79639 0.43158 0.18335 0.0
H312 H 0.84438 0.47498 0.18903 0.0
H313 H 0.82838 0.45797 0.16258 0.0
C314 C 0.93206 0.60105 0.18912 0.0
C315 C 0.94852 0.59725 0.17087 0.0
C316 C 0.8911 0.57808 0.19176 0.0
C317 C 0.86635 0.55047 0.17639 0.0
C318 C 0.883 0.54624 0.1584 0.0
H319 H 0.68468 0.48537 0.10034 0.0
H320 H 0.73903 0.51546 0.126 0.0
C321 C 0.92364 0.56934 0.15567 0.0
C322 C 0.82262 0.52912 0.17749 0.0
H323 H 0.74295 0.43835 0.16523 0.0
C324 C 0.80354 0.55153 0.17648 0.0
C325 C 0.79982 0.48739 0.17526 0.0
C326 C 0.81834 0.4616 0.17786 0.0
C327 C 0.76319 0.53385 0.17044 0.0
C328 C 0.74186 0.49307 0.16517 0.0
C329 C 0.75955 0.46979 0.16898 0.0
C330 C 0.70619 0.47684 0.15105 0.0
C331 C 0.74459 0.55956 0.16788 0.0
C332 C 0.66956 0.44474 0.1566 0.0
C333 C 0.63762 0.42769 0.14189 0.0
C334 C 0.64225 0.44208 0.12137 0.0
C335 C 0.67924 0.47424 0.11608 0.0
C336 C 0.71062 0.49149 0.13076 0.0
H337 H 0.75888 0.58523 0.17884 0.0
H338 H 0.74881 0.57139 0.15182 0.0
H339 H 0.71223 0.54235 0.17047 0.0
H340 H 0.66586 0.43271 0.17215 0.0
H341 H 0.60955 0.40308 0.14653 0.0
H342 H 0.38789 0.90496 0.41963 0.0
H343 H 0.31536 0.86646 0.41752 0.0
H344 H 0.31533 0.81959 0.47864 0.0
H345 H 0.38755 0.85958 0.48143 0.0
H346 H 0.25538 0.78783 0.42131 0.0
H347 H 0.25776 0.88105 0.48658 0.0
H348 H 0.30185 0.89204 0.47325 0.0
H349 H 0.28272 0.85377 0.49257 0.0
C350 C 0.3725 0.88616 0.43255 0.0
C351 C 0.39358 0.88617 0.4509 0.0
C352 C 0.33105 0.86396 0.43125 0.0
C353 C 0.31003 0.84116 0.44819 0.0
C354 C 0.33105 0.83784 0.46562 0.0
H355 H 1.05833 0.72316 0.47306 0.0
H356 H 0.12982 0.74667 0.47431 0.0
C357 C 0.37246 0.86036 0.46705 0.0
C358 C 0.26652 0.82434 0.44842 0.0
H359 H 0.19488 0.83095 0.47382 0.0
C360 C 0.24211 0.79715 0.43281 0.0
C361 C 0.24936 0.8369 0.46335 0.0
C362 C 0.27424 0.86781 0.47978 0.0
C363 C 0.20089 0.78195 0.43185 0.0
C364 C 0.18394 0.79459 0.44676 0.0
C365 C 0.20818 0.82135 0.46248 0.0
C366 C 0.14109 0.78097 0.44612 0.0
C367 C 0.1756 0.7523 0.41505 0.0
C368 C 0.12423 0.79327 0.43009 0.0
C369 C 1.08368 0.78046 0.42956 0.0
C370 C 1.05956 0.75524 0.44506 0.0
C371 C 1.07661 0.74329 0.4612 0.0
C372 C 0.11719 0.75635 0.46182 0.0
H373 H 0.19177 0.73952 0.40745 0.0
H374 H 0.14816 0.72782 0.42159 0.0
H375 H 0.16654 0.76714 0.40297 0.0
H376 H 0.14241 0.81259 0.41796 0.0
H377 H 1.0709 0.78934 0.41678 0.0
H378 H 0.58283 0.33741 0.88998 0.0
H379 H 0.54949 0.26717 0.89909 0.0
H380 H 0.60568 0.245 0.84873 0.0
H381 H 0.64086 0.31501 0.84061 0.0
H382 H 0.49552 0.21558 0.87608 0.0
H383 H 0.60092 0.16321 0.8862 0.0
H384 H 0.61718 0.21539 0.88835 0.0
H385 H 0.61603 0.19346 0.86354 0.0
C386 C 0.58955 0.31782 0.88153 0.0
C387 C 0.61395 0.33161 0.86432 0.0
C388 C 0.57025 0.27756 0.88669 0.0
C389 C 0.57496 0.25048 0.87469 0.0
C390 C 0.60207 0.26503 0.85867 0.0
H391 H 0.43176 0.0876 0.79543 0.0
H392 H 0.45559 0.1344 0.82437 0.0
C393 C 0.62171 0.30517 0.85373 0.0
C394 C 0.54626 0.20717 0.87557 0.0
H395 H 0.54133 0.12081 0.86188 0.0
C396 C 0.50551 0.19453 0.8738 0.0
C397 C 0.55835 0.17876 0.87355 0.0
C398 C 0.60056 0.18857 0.8783 0.0
C399 C 0.47772 0.15612 0.86681 0.0
C400 C 0.49129 0.13044 0.8607 0.0
C401 C 0.53085 0.14089 0.86572 0.0
C402 C 0.46816 0.09772 0.84544 0.0
C403 C 0.43452 0.14449 0.86478 0.0
C404 C 0.46696 1.06119 0.84745 0.0
C405 C 0.45389 1.03462 0.83062 0.0
C406 C 0.44145 1.04404 0.81164 0.0
C407 C 0.44022 0.07928 0.81009 0.0
C408 C 0.45364 0.10594 0.82676 0.0
H409 H 0.42644 0.15613 0.87824 0.0
H410 H 0.42936 0.15804 0.85056 0.0
H411 H 0.4147 0.1118 0.86388 0.0
H412 H 0.47839 1.05431 0.86158 0.0
H413 H 0.45581 1.0079 0.83201 0.0
H414 H 0.59529 0.91833 0.50191 0.0
H415 H 0.59533 0.8555 0.50565 0.0
H416 H 0.72264 0.91849 0.50188 0.0
H417 H 0.72294 0.98108 0.49854 0.0
H418 H 0.61892 0.81479 0.4812 0.0
H419 H 0.71128 0.85717 0.55434 0.0
H420 H 0.69011 0.88588 0.54378 0.0
H421 H 0.73506 0.89152 0.53375 0.0
C422 C 0.62337 0.91891 0.5019 0.0
C423 C 0.65914 0.95532 0.50008 0.0
C424 C 0.62335 0.88276 0.50403 0.0
C425 C 0.65908 0.8818 0.50454 0.0
C426 C 0.69464 0.91801 0.50217 0.0
H427 H 0.72901 0.70056 0.52172 0.0
H428 H 0.72578 0.76057 0.51318 0.0
C429 C 0.69471 0.95405 0.50009 0.0
C430 C 0.65938 0.84329 0.50743 0.0
H431 H 0.70065 0.79862 0.53745 0.0
C432 C 0.63664 0.81128 0.4936 0.0
C433 C 0.68239 0.83807 0.52357 0.0
C434 C 0.70578 0.86981 0.53984 0.0
C435 C 0.6371 0.77517 0.4951 0.0
C436 C 0.66044 0.77015 0.51113 0.0
C437 C 0.68294 0.80208 0.52502 0.0
C438 C 0.66178 0.73218 0.51404 0.0
C439 C 0.61335 0.74311 0.47907 0.0
C440 C 0.62702 0.69547 0.51713 0.0
C441 C 0.62891 0.66095 0.5218 0.0
C442 C 0.66556 0.66197 0.52342 0.0
C443 C 0.70022 0.69839 0.51992 0.0
C444 C 0.69836 0.73291 0.51528 0.0
H445 H 0.60702 0.75535 0.46465 0.0
H446 H 0.62918 0.7273 0.47493 0.0
H447 H 0.58449 0.72123 0.48551 0.0
H448 H 0.59843 0.69378 0.51691 0.0
H449 H 0.6018 0.6338 0.52517 0.0
H450 H 0.78624 0.5403 0.8225 0.0
H451 H 0.84927 0.54029 0.82608 0.0
H452 H 0.90541 0.6563 0.85457 0.0
H453 H 0.84281 0.65655 0.85113 0.0
H454 H 0.9259 0.59249 0.81081 0.0
H455 H 0.93281 0.5936 0.89699 0.0
H456 H 0.88805 0.58207 0.88195 0.0
H457 H 0.92683 0.63281 0.88576 0.0
C458 C 0.81192 0.56586 0.82957 0.0
C459 C 0.80887 0.59833 0.83661 0.0
C460 C 0.84817 0.56584 0.83156 0.0
C461 C 0.88244 0.59804 0.8409 0.0
C462 C 0.87956 0.63066 0.84767 0.0
H463 H 0.12446 0.65733 0.87813 0.0
H464 H 1.06207 0.65603 0.86958 0.0
C465 C 0.8435 0.63082 0.84558 0.0
C466 C 0.92105 0.5977 0.84364 0.0
H467 H 0.99064 0.60467 0.88052 0.0
C468 C 0.93991 0.59491 0.82608 0.0
C469 C 0.9398 0.60086 0.8635 0.0
C470 C 0.92074 0.60213 0.88316 0.0
C471 C 0.97713 0.59652 0.82776 0.0
C472 C 0.99609 0.60004 0.84765 0.0
C473 C 0.97679 0.60221 0.8652 0.0
C474 C 1.03608 0.60245 0.85083 0.0
C475 C 0.99639 0.5959 0.80805 0.0
C476 C 1.04363 0.57337 0.84289 0.0
C477 C 1.08001 0.57448 0.84756 0.0
C478 C 0.10971 0.60438 0.86056 0.0
C479 C 0.10251 0.63396 0.86797 0.0
C480 C 1.06649 0.63305 0.86319 0.0
H481 H 0.98462 0.60516 0.79439 0.0
H482 H 1.0291 0.61572 0.80939 0.0
H483 H 0.98994 0.56523 0.80504 0.0
H484 H 1.02077 0.54875 0.83376 0.0
H485 H 1.08401 0.55072 0.84193 0.0
H486 H 0.32805 0.70571 0.16443 0.0
H487 H 0.3909 0.76868 0.16813 0.0
H488 H 0.32642 0.83082 0.17409 0.0
H489 H 0.26358 0.76796 0.17086 0.0
H490 H 0.42544 0.83511 0.14615 0.0
H491 H 0.40099 0.87547 0.22387 0.0
H492 H 0.36931 0.82698 0.21246 0.0
H493 H 0.36217 0.86784 0.20523 0.0
C494 C 0.32708 0.73271 0.16657 0.0
C495 C 0.29024 0.73123 0.16745 0.0
C496 C 0.36331 0.76896 0.16869 0.0
C497 C 0.36406 0.80504 0.17187 0.0
C498 C 0.32726 0.8037 0.17229 0.0
H499 H 0.5902 1.01726 0.21406 0.0
H500 H 0.5319 0.95009 0.21044 0.0
C501 C 0.29105 0.76747 0.17024 0.0
C502 C 0.40308 0.84386 0.17438 0.0
H503 H 0.45508 0.92635 0.20576 0.0
C504 C 0.43183 0.85488 0.15926 0.0
C505 C 0.41248 0.8699 0.19164 0.0
C506 C 0.38481 0.85932 0.20934 0.0
C507 C 0.46858 0.89102 0.1606 0.0
C508 C 0.47717 0.91792 0.17735 0.0
C509 C 0.44887 0.90641 0.19275 0.0
C510 C 0.5148 0.95816 0.17906 0.0
C511 C 0.49819 0.89951 0.14415 0.0
C512 C 0.52551 0.9857 0.16273 0.0
C513 C 0.55913 1.02397 0.16474 0.0
C514 C 0.58321 1.03628 0.18321 0.0
C515 C 0.5729 1.00866 0.19948 0.0
C516 C 0.53921 0.97025 0.19745 0.0
H517 H 0.49336 0.87169 0.13683 0.0
H518 H 0.49453 0.91758 0.13171 0.0
H519 H 0.52917 0.91616 0.1507 0.0
H520 H 0.50706 0.97815 0.14856 0.0
H521 H 0.56547 1.04454 0.15202 0.0
H522 H 0.61711 0.1616 0.47869 0.0
H523 H 0.6172 0.22421 0.48167 0.0
H524 H 0.71656 0.26758 0.52598 0.0
H525 H 0.71737 0.20559 0.52258 0.0
H526 H 0.60418 0.25885 0.51242 0.0
H527 H 0.75791 0.36242 0.48992 0.0
H528 H 0.73528 0.30943 0.48682 0.0
H529 H 0.75622 0.33262 0.51177 0.0
C530 C 0.63931 0.18454 0.48894 0.0
C531 C 0.66742 0.17815 0.50026 0.0
C532 C 0.63929 0.22058 0.49068 0.0
C533 C 0.66736 0.25164 0.50378 0.0
C534 C 0.69523 0.24512 0.51524 0.0
H535 H 0.69154 0.48125 0.54209 0.0
H536 H 0.69975 0.42287 0.53841 0.0
C537 C 0.69545 0.20919 0.5134 0.0
C538 C 0.66632 0.28985 0.50597 0.0
H539 H 0.72307 0.39166 0.50416 0.0
C540 C 0.63026 0.28777 0.51047 0.0
C541 C 0.70016 0.32819 0.50357 0.0
C542 C 0.73946 0.3334 0.49755 0.0
C543 C 0.62718 0.32217 0.51281 0.0
C544 C 0.66093 0.36039 0.51041 0.0
C545 C 0.6971 0.36265 0.5061 0.0
C546 C 0.6587 0.39795 0.51179 0.0
C547 C 0.58769 0.31724 0.51823 0.0
C548 C 0.6339 0.40456 0.49777 0.0
C549 C 0.62959 0.43812 0.49972 0.0
C550 C 0.6502 0.46658 0.51564 0.0
C551 C 0.67586 0.46056 0.52938 0.0
C552 C 0.68036 0.42693 0.52735 0.0
H553 H 0.56786 0.2875 0.52481 0.0
H554 H 0.59171 0.34024 0.52962 0.0
H555 H 0.57263 0.3205 0.50392 0.0
H556 H 0.61719 0.38329 0.48544 0.0
H557 H 0.60905 0.44119 0.48904 0.0
H558 H 0.55807 0.54347 0.84583 0.0
H559 H 0.49633 0.54499 0.84858 0.0
H560 H 0.55284 0.6632 0.82371 0.0
H561 H 0.61488 0.66207 0.82102 0.0
H562 H 0.48195 0.59988 0.87126 0.0
H563 H 0.44946 0.60258 0.78661 0.0
H564 H 0.48406 0.58793 0.79682 0.0
H565 H 0.49851 0.6395 0.79573 0.0
C566 C 0.55751 0.56982 0.8408 0.0
C567 C 0.59188 0.60255 0.83304 0.0
C568 C 0.52197 0.57067 0.84247 0.0
C569 C 0.5193 0.604 0.83616 0.0
C570 C 0.55355 0.63678 0.82843 0.0
H571 H 0.33543 0.66999 0.8283 0.0
H572 H 0.39359 0.6625 0.82526 0.0
C573 C 0.58927 0.63614 0.82696 0.0
C574 C 0.48104 0.60464 0.83794 0.0
H575 H 0.40828 0.61128 0.80927 0.0
C576 C 0.46575 0.60218 0.85768 0.0
C577 C 0.45959 0.60775 0.82033 0.0
C578 C 0.47341 0.60928 0.79863 0.0
C579 C 0.43074 0.60396 0.86033 0.0
C580 C 0.40906 0.60692 0.84269 0.0
C581 C 0.42428 0.60892 0.82292 0.0
C582 C 0.37191 0.60999 0.8443 0.0
C583 C 0.41843 0.60432 0.8822 0.0
C584 C 0.33908 0.58273 0.85574 0.0
C585 C 0.30548 0.58722 0.85761 0.0
C586 C 0.30313 0.6184 0.84756 0.0
C587 C 0.33559 0.64504 0.83585 0.0
C588 C 0.36916 0.64083 0.83416 0.0
H589 H 0.44376 0.6139 0.8937 0.0
H590 H 0.40617 0.62441 0.88361 0.0
H591 H 0.39525 0.57387 0.88635 0.0
H592 H 0.33939 0.55797 0.86337 0.0
H593 H 0.28157 0.56657 0.86712 0.0
H594 H 1.09426 0.48966 0.19512 0.0
H595 H 1.03073 0.42845 0.19907 0.0
H596 H 0.97816 0.46409 0.14919 0.0
H597 H 1.04124 0.52605 0.14574 0.0
H598 H 0.98619 0.36657 0.17615 0.0
H599 H 0.89484 0.43545 0.18963 0.0
H600 H 0.91811 0.44937 0.16512 0.0
H601 H 0.94819 0.46432 0.18897 0.0
C602 C 1.06919 0.4847 0.18501 0.0
C603 C 1.0733 0.51339 0.17017 0.0
C604 C 1.03259 0.44937 0.18728 0.0
C605 C 0.99866 0.44126 0.17477 0.0
C606 C 1.00298 0.46955 0.15961 0.0
H607 H 0.77671 0.25535 0.22392 0.0
H608 H 0.83677 0.31597 0.21487 0.0
C609 C 1.03949 0.50511 0.15749 0.0
C610 C 0.95941 0.40311 0.17744 0.0
H611 H 0.86001 0.36566 0.18463 0.0
C612 C 0.95868 0.36657 0.17802 0.0
C613 C 0.92298 0.40233 0.18013 0.0
C614 C 0.92102 0.43996 0.18115 0.0
C615 C 0.9234 0.33002 0.18122 0.0
C616 C 0.88682 0.32912 0.18339 0.0
C617 C 0.88752 0.36566 0.18274 0.0
C618 C 0.8483 0.29137 0.18791 0.0
C619 C 0.92623 0.29288 0.18306 0.0
C620 C 0.83298 0.25663 0.17555 0.0
C621 C 0.79833 0.22115 0.18093 0.0
C622 C 0.77772 0.21935 0.19878 0.0
C623 C 0.79196 0.25482 0.21036 0.0
C624 C 0.82649 0.28996 0.20508 0.0
H625 H 0.95716 0.29981 0.18683 0.0
H626 H 0.90689 0.27306 0.19529 0.0
H627 H 0.91657 0.27659 0.16799 0.0
H628 H 0.84801 0.2567 0.16179 0.0
H629 H 0.78852 0.1948 0.17151 0.0
H630 H 0.17222 0.65552 0.09412 0.0
H631 H 0.17388 0.64923 0.05662 0.0
H632 H 0.22057 0.57034 0.06607 0.0
H633 H 0.21759 0.57537 0.10383 0.0
H634 H 0.23253 0.66874 0.03188 0.0
H635 H 0.13025 0.5062 0.02541 0.0
H636 H 0.13722 0.53357 0.04908 0.0
H637 H 0.17303 0.51978 0.04235 0.0
C638 C 0.18284 0.63676 0.08829 0.0
C639 C 0.19461 0.6158 0.10203 0.0
C640 C 0.18378 0.6332 0.06677 0.0
C641 C 0.19675 0.60881 0.05839 0.0
C642 C 0.20942 0.58851 0.07207 0.0
H643 H 0.2498 0.63148 0.92562 0.0
H644 H 0.25601 0.63218 0.96358 0.0
C645 C 0.20798 0.59164 0.09368 0.0
C646 C 0.19725 0.60541 0.03535 0.0
H647 H 0.16102 0.53936 0.99466 0.0
C648 C 0.21693 0.64041 0.02376 0.0
C649 C 0.17651 0.5685 0.02466 0.0
C650 C 0.15272 0.52989 0.03597 0.0
C651 C 0.21602 0.63967 0.0019 0.0
C652 C 0.19598 0.60273 0.99122 0.0
C653 C 0.1767 0.56767 0.00281 0.0
C654 C 0.1927 0.5999 0.96804 0.0
C655 C 0.23516 0.67866 0.9905 0.0
C656 C 0.15513 0.5798 0.95777 0.0
C657 C 0.15148 0.57836 0.93603 0.0
C658 C 0.18533 0.59728 0.92394 0.0
C659 C 0.22302 0.61643 0.9343 0.0
C660 C 0.22664 0.6174 0.95608 0.0
H661 H 0.23913 0.70348 0.00052 0.0
H662 H 0.26498 0.68559 0.98574 0.0
H663 H 0.21718 0.67728 0.97633 0.0
H664 H 0.12846 0.56568 0.9666 0.0
H665 H 0.12199 0.56242 0.92871 0.0
H666 H 0.64272 1.02528 0.42591 0.0
H667 H 0.65304 1.03745 0.38875 0.0
H668 H 0.74917 0.15603 0.40214 0.0
H669 H 0.73908 0.14415 0.43954 0.0
H670 H 0.6909 0.15047 0.37118 0.0
H671 H 0.74519 1.04695 0.35463 0.0
H672 H 0.70021 1.0254 0.36865 0.0
H673 H 0.74554 1.06415 0.38061 0.0
C674 C 0.66634 1.05389 0.42103 0.0
C675 C 0.69013 0.08373 0.43576 0.0
C676 C 0.6723 1.0607 0.39974 0.0
C677 C 0.70213 0.09748 0.39267 0.0
C678 C 0.72611 0.12734 0.40728 0.0
H679 H 0.77457 0.15235 0.26398 0.0
H680 H 0.77342 0.14398 0.30183 0.0
C681 C 0.72036 0.12046 0.42865 0.0
C682 C 0.70689 0.10514 0.36997 0.0
H683 H 0.72672 0.07306 0.3253 0.0
C684 C 0.69901 0.13376 0.36117 0.0
C685 C 0.71775 0.08352 0.35694 0.0
C686 C 0.72802 1.05351 0.36565 0.0
C687 C 0.70061 0.14055 0.33961 0.0
C688 C 0.71007 0.11792 0.32649 0.0
C689 C 0.71909 0.09011 0.33536 0.0
C690 C 0.71057 0.1226 0.3035 0.0
C691 C 0.6923 0.17199 0.33102 0.0
C692 C 0.6755 0.1128 0.29183 0.0
C693 C 0.67604 0.11751 0.27021 0.0
C694 C 0.71172 0.1322 0.2598 0.0
C695 C 0.74671 0.14149 0.27153 0.0
C696 C 0.74608 0.13653 0.29315 0.0
H697 H 0.69474 0.19285 0.34335 0.0
H698 H 0.71313 0.1892 0.31868 0.0
H699 H 0.66165 0.15753 0.32401 0.0
H700 H 0.64765 0.10147 0.29947 0.0
H701 H 0.64863 0.11029 0.26167 0.0
H702 H 0.7407 0.6694 0.76608 0.0
H703 H 0.73757 0.67063 0.72788 0.0
H704 H 0.66034 0.54359 0.72633 0.0
H705 H 0.66202 0.54239 0.76423 0.0
H706 H 0.75841 0.63889 0.69838 0.0
H707 H 0.59592 0.57573 0.6902 0.0
H708 H 0.6227 0.59164 0.71499 0.0
H709 H 0.60814 0.54331 0.70457 0.0
C710 C 0.72299 0.64178 0.75755 0.0
C711 C 0.70116 0.60589 0.76819 0.0
C712 C 0.72122 0.6425 0.73572 0.0
C713 C 0.69785 0.60732 0.72414 0.0
C714 C 0.67742 0.57132 0.73481 0.0
H715 H 0.71921 0.57605 0.59199 0.0
H716 H 0.7247 0.57814 0.62995 0.0
C717 C 0.67863 0.57067 0.75655 0.0
C718 C 0.69492 0.60794 0.70096 0.0
H719 H 0.62824 0.57605 0.65944 0.0
C720 C 0.72995 0.62543 0.68986 0.0
C721 C 0.65784 0.59108 0.68975 0.0
C722 C 0.61908 0.5748 0.7005 0.0
C723 C 0.7289 0.62573 0.66795 0.0
C724 C 0.69173 0.60681 0.65676 0.0
C725 C 0.65677 0.59006 0.6679 0.0
C726 C 0.68816 0.60482 0.63355 0.0
C727 C 0.7677 0.64715 0.65712 0.0
C728 C 0.6643 0.61734 0.62279 0.0
C729 C 0.65995 0.61488 0.60108 0.0
C730 C 0.67973 0.60025 0.58944 0.0
C731 C 0.70328 0.58728 0.60029 0.0
C732 C 0.70709 0.58916 0.62208 0.0
H733 H 0.79168 0.67019 0.66737 0.0
H734 H 0.77696 0.62555 0.65298 0.0
H735 H 0.76485 0.66157 0.64265 0.0
H736 H 0.64896 0.62914 0.6312 0.0
H737 H 0.6407 0.62421 0.59346 0.0
H738 H 0.57439 1.04597 0.55099 0.0
H739 H 0.554 1.03681 0.58695 0.0
H740 H 0.66498 1.04581 0.60759 0.0
H741 H 0.68581 1.05493 0.57153 0.0
H742 H 0.55058 0.97501 0.61634 0.0
H743 H 0.65302 0.13116 0.64195 0.0
H744 H 0.63898 0.11739 0.6149 0.0
H745 H 0.67416 0.10691 0.62808 0.0
C746 C 0.59458 1.04607 0.56314 0.0
C747 C 0.63184 1.05137 0.55841 0.0
C748 C 0.58277 1.04071 0.58366 0.0
C749 C 0.60812 1.04095 0.59984 0.0
C750 C 0.6452 1.0459 0.59525 0.0
H751 H 0.59763 1.03226 0.73334 0.0
H752 H 0.61573 1.03742 0.69723 0.0
C753 C 0.65697 1.05098 0.57467 0.0
C754 C 0.59558 1.03606 0.62153 0.0
H755 H 0.61402 0.086 0.66749 0.0
C756 C 0.56435 0.99919 0.62758 0.0
C757 C 0.61367 0.06777 0.636 0.0
C758 C 0.64667 0.10821 0.63 0.0
C759 C 0.55117 0.99292 0.64799 0.0
C760 C 0.5691 1.02474 0.66249 0.0
C761 C 0.60026 1.06168 0.65633 0.0
C762 C 0.55702 1.02017 0.68434 0.0
C763 C 0.51896 0.95204 0.65396 0.0
C764 C 0.51794 1.00895 0.68913 0.0
C765 C 0.50723 1.00528 0.70988 0.0
C766 C 0.53553 1.0131 0.72618 0.0
C767 C 0.57476 1.02495 0.72123 0.0
C768 C 0.58532 1.02834 0.70057 0.0
H769 H 0.51598 0.92895 0.64291 0.0
H770 H 0.52496 0.94435 0.66987 0.0
H771 H 0.49013 0.95132 0.65373 0.0
H772 H 0.49583 1.00338 0.67684 0.0
H773 H 0.4768 0.99612 0.71314 0.0
H774 H 0.69902 0.53874 0.89788 0.0
H775 H 0.67113 0.51687 0.93197 0.0
H776 H 0.63034 0.6013 0.93022 0.0
H777 H 0.65911 0.62415 0.89613 0.0
H778 H 0.66146 0.59851 0.96845 0.0
H779 H 0.55394 0.44634 0.94133 0.0
H780 H 0.60351 0.45957 0.93522 0.0
H781 H 0.58117 0.48639 0.92357 0.0
C782 C 0.68439 0.55292 0.90478 0.0
C783 C 0.68103 0.58299 0.89425 0.0
C784 C 0.66812 0.54011 0.92419 0.0
C785 C 0.64759 0.55661 0.93332 0.0
C786 C 0.64562 0.58783 0.9233 0.0
H787 H 0.52348 0.42358 0.04369 0.0
H788 H 0.5328 0.45952 0.01079 0.0
C789 C 0.66223 0.60096 0.90388 0.0
C790 C 0.62871 0.54119 0.95344 0.0
H791 H 0.56967 0.45456 0.97837 0.0
C792 C 0.64081 0.56715 0.97057 0.0
C793 C 0.60075 0.50051 0.9561 0.0
C794 C 0.58374 0.47172 0.938 0.0
C795 C 0.62817 0.55293 0.9906 0.0
C796 C 0.60361 0.51161 0.99357 0.0
C797 C 0.58898 0.48616 0.97618 0.0
C798 C 0.59692 0.49361 0.01454 0.0
C799 C 0.642 0.58226 0.00841 0.0
C800 C 0.62976 0.5008 0.02751 0.0
C801 C 0.62454 0.48047 0.04615 0.0
C802 C 0.58632 0.4521 0.05221 0.0
C803 C 0.55327 0.44526 0.0394 0.0
C804 C 0.55855 0.46586 0.02069 0.0
H805 H 0.64621 0.61129 0.00303 0.0
H806 H 0.6206 0.57126 0.02107 0.0
H807 H 0.67114 0.58742 0.01481 0.0
H808 H 0.6597 0.52089 0.0228 0.0
H809 H 0.65072 0.48571 0.05534 0.0
H810 H 0.22144 0.63388 0.23969 0.0
H811 H 0.2143 0.64703 0.27602 0.0
H812 H 0.10718 0.6486 0.25822 0.0
H813 H 0.11379 0.63549 0.22221 0.0
H814 H 0.16892 0.71652 0.28405 0.0
H815 H 0.12451 0.56633 0.31542 0.0
H816 H 0.16741 0.59069 0.29968 0.0
H817 H 0.11894 0.57413 0.28802 0.0
C818 C 0.19626 0.63681 0.24355 0.0
C819 C 0.1682 0.63363 0.22802 0.0
C820 C 0.19227 0.64431 0.26427 0.0
C821 C 0.16022 0.64875 0.26969 0.0
C822 C 0.13218 0.64539 0.25428 0.0
H823 H 1.0382 0.68183 0.36479 0.0
H824 H 1.07236 0.68401 0.3335 0.0
C825 C 0.13601 0.63778 0.23369 0.0
C826 C 0.15529 0.657 0.29134 0.0
H827 H 0.12102 0.61152 0.33765 0.0
C828 C 0.15905 0.69384 0.29593 0.0
C829 C 0.14271 0.6274 0.30673 0.0
C830 C 0.13792 0.58727 0.30237 0.0
C831 C 0.14906 0.70136 0.31534 0.0
C832 C 0.1341 0.67089 0.33032 0.0
C833 C 0.13238 0.63479 0.3261 0.0
C834 C 0.11668 0.67434 0.34962 0.0
C835 C 0.15401 0.74162 0.31951 0.0
C836 C 0.13013 0.66801 0.36908 0.0
C837 C 0.1105 0.66655 0.38701 0.0
C838 C 1.07694 0.67126 0.3858 0.0
C839 C 1.06434 0.67882 0.36634 0.0
C840 C 1.0839 0.68013 0.34842 0.0
H841 H 0.17751 0.76485 0.30997 0.0
H842 H 0.12574 0.74088 0.31526 0.0
H843 H 0.16165 0.7501 0.33619 0.0
H844 H 0.15529 0.66334 0.37033 0.0
H845 H 0.12123 0.66108 0.40178 0.0
loop_
_geom_bond_atom_site_label_1
_geom_bond_atom_site_label_2
_geom_bond_distance
_geom_bond_site_symmetry_2
_ccdc_geom_bond_type
Tb0 C9 2.764 . S
Tb0 O10 2.325 . S
Tb0 O13 2.303 . S
Tb0 O17 2.322 1_655 S
Tb0 O18 2.349 . S
Tb0 O21 2.415 . S
Tb0 O22 2.399 . S
Tb1 O11 2.322 1_455 S
Tb1 O12 2.349 . S
Tb1 O14 2.415 . S
Tb1 O15 2.399 . S
Tb1 O16 2.325 . S
Tb1 O19 2.303 . S
Tb1 C30 2.764 . S
C2 O18 1.261 1_455 S
C2 O19 1.257 . S
C3 C6 1.358 . S
C3 C7 1.332 . S
C3 C9 1.504 . S
C4 C5 1.373 . S
C4 C8 1.308 . S
C5 C4 1.373 . S
C5 C6 1.429 . S
C5 H32 0.932 . S
C6 C3 1.358 . S
C6 C5 1.429 . S
C6 H33 0.930 . S
C7 C3 1.332 . S
C7 C8 1.394 . S
C7 H34 0.932 . S
C8 C4 1.308 . S
C8 C7 1.394 . S
C8 H35 0.929 . S
C9 Tb0 2.764 . S
C9 C3 1.504 . S
C9 O21 1.239 . S
C9 O22 1.263 . S
O10 Tb0 2.325 . S
O10 C20 1.236 . S
O11 Tb1 2.322 1_655 S
O11 C20 1.257 . S
O12 Tb1 2.349 . S
O12 C23 1.261 . S
O13 Tb0 2.303 . S
O13 C23 1.257 1_655 S
O14 Tb1 2.415 . S
O14 C30 1.239 . S
O15 Tb1 2.399 . S
O15 C30 1.263 . S
O16 Tb1 2.325 . S
O16 C31 1.236 . S
O17 Tb0 2.322 1_455 S
O17 C31 1.257 . S
O18 Tb0 2.349 . S
O18 C2 1.261 1_655 S
O19 Tb1 2.303 . S
O19 C2 1.257 . S
C20 O10 1.236 . S
C20 O11 1.257 . S
O21 Tb0 2.415 . S
O21 C9 1.239 . S
O22 Tb0 2.399 . S
O22 C9 1.263 . S
C23 O12 1.261 . S
C23 O13 1.257 1_455 S
C24 C27 1.358 . S
C24 C28 1.332 . S
C24 C30 1.504 . S
C25 C26 1.373 . S
C25 C29 1.308 . S
C26 C25 1.373 . S
C26 C27 1.429 . S
C26 H36 0.932 . S
C27 C24 1.358 . S
C27 C26 1.429 . S
C27 H37 0.930 . S
C28 C24 1.332 . S
C28 C29 1.394 . S
C28 H38 0.932 . S
C29 C25 1.308 . S
C29 C28 1.394 . S
C29 H39 0.929 . S
C30 Tb1 2.764 . S
C30 O14 1.239 . S
C30 O15 1.263 . S
C30 C24 1.504 . S
C31 O16 1.236 . S
C31 O17 1.257 . S
H32 C5 0.932 . S
H33 C6 0.930 . S
H34 C7 0.932 . S
H35 C8 0.929 . S
H36 C26 0.932 . S
H37 C27 0.930 . S
H38 C28 0.932 . S
H39 C29 0.929 . S
Tb40 C49 2.764 . S
Tb40 O50 2.325 . S
Tb40 O53 2.303 1_565 S
Tb40 O57 2.322 1_565 S
Tb40 O58 2.349 . S
Tb40 O61 2.415 . S
Tb40 O62 2.399 . S
Tb41 O51 2.322 1_545 S
Tb41 O52 2.349 . S
Tb41 O54 2.415 . S
Tb41 O55 2.399 . S
Tb41 O56 2.325 . S
Tb41 O59 2.303 . S
Tb41 C70 2.764 . S
C42 O58 1.261 1_545 S
C42 O59 1.257 . S
C43 C46 1.358 . S
C43 C47 1.332 . S
C43 C49 1.504 . S
C44 C45 1.373 . S
C44 C48 1.308 . S
C45 C44 1.373 . S
C45 C46 1.429 . S
C45 H72 0.932 . S
C46 C43 1.358 . S
C46 C45 1.429 . S
C46 H73 0.930 . S
C47 C43 1.332 . S
C47 C48 1.394 . S
C47 H74 0.932 . S
C48 C44 1.308 . S
C48 C47 1.394 . S
C48 H75 0.929 . S
C49 Tb40 2.764 . S
C49 C43 1.504 . S
C49 O61 1.239 . S
C49 O62 1.263 . S
O50 Tb40 2.325 . S
O50 C60 1.236 . S
O51 Tb41 2.322 1_565 S
O51 C60 1.257 . S
O52 Tb41 2.349 . S
O52 C63 1.261 . S
O53 Tb40 2.303 1_545 S
O53 C63 1.257 . S
O54 Tb41 2.415 . S
O54 C70 1.239 . S
O55 Tb41 2.399 . S
O55 C70 1.263 . S
O56 Tb41 2.325 . S
O56 C71 1.236 . S
O57 Tb40 2.322 1_545 S
O57 C71 1.257 . S
O58 Tb40 2.349 . S
O58 C42 1.261 1_565 S
O59 Tb41 2.303 . S
O59 C42 1.257 . S
C60 O50 1.236 . S
C60 O51 1.257 . S
O61 Tb40 2.415 . S
O61 C49 1.239 . S
O62 Tb40 2.399 . S
O62 C49 1.263 . S
C63 O52 1.261 . S
C63 O53 1.257 . S
C64 C67 1.358 . S
C64 C68 1.332 . S
C64 C70 1.504 . S
C65 C66 1.373 . S
C65 C69 1.308 . S
C66 C65 1.373 . S
C66 C67 1.429 . S
C66 H76 0.932 . S
C67 C64 1.358 . S
C67 C66 1.429 . S
C67 H77 0.930 . S
C68 C64 1.332 . S
C68 C69 1.394 . S
C68 H78 0.932 . S
C69 C65 1.308 . S
C69 C68 1.394 . S
C69 H79 0.929 . S
C70 Tb41 2.764 . S
C70 O54 1.239 . S
C70 O55 1.263 . S
C70 C64 1.504 . S
C71 O56 1.236 . S
C71 O57 1.257 . S
H72 C45 0.932 . S
H73 C46 0.930 . S
H74 C47 0.932 . S
H75 C48 0.929 . S
H76 C66 0.932 . S
H77 C67 0.930 . S
H78 C68 0.932 . S
H79 C69 0.929 . S
Tb80 C89 2.764 . S
Tb80 O90 2.325 . S
Tb80 O93 2.303 . S
Tb80 O97 2.322 . S
Tb80 O98 2.349 . S
Tb80 O101 2.415 . S
Tb80 O102 2.399 . S
Tb81 O91 2.322 . S
Tb81 O92 2.349 . S
Tb81 O94 2.415 . S
Tb81 O95 2.399 . S
Tb81 O96 2.325 . S
Tb81 O99 2.303 . S
Tb81 C110 2.764 . S
C82 O98 1.261 . S
C82 O99 1.257 . S
C83 C86 1.358 . S
C83 C87 1.332 . S
C83 C89 1.504 . S
C84 C85 1.373 . S
C84 C88 1.308 . S
C85 C84 1.373 . S
C85 C86 1.429 . S
C85 H112 0.932 . S
C86 C83 1.358 . S
C86 C85 1.429 . S
C86 H113 0.930 . S
C87 C83 1.332 . S
C87 C88 1.394 . S
C87 H114 0.932 . S
C88 C84 1.308 . S
C88 C87 1.394 . S
C88 H115 0.929 . S
C89 Tb80 2.764 . S
C89 C83 1.504 . S
C89 O101 1.239 . S
C89 O102 1.263 . S
O90 Tb80 2.325 . S
O90 C100 1.236 . S
O91 Tb81 2.322 . S
O91 C100 1.257 . S
O92 Tb81 2.349 . S
O92 C103 1.261 . S
O93 Tb80 2.303 . S
O93 C103 1.257 . S
O94 Tb81 2.415 . S
O94 C110 1.239 . S
O95 Tb81 2.399 . S
O95 C110 1.263 . S
O96 Tb81 2.325 . S
O96 C111 1.236 . S
O97 Tb80 2.322 . S
O97 C111 1.257 . S
O98 Tb80 2.349 . S
O98 C82 1.261 . S
O99 Tb81 2.303 . S
O99 C82 1.257 . S
C100 O90 1.236 . S
C100 O91 1.257 . S
O101 Tb80 2.415 . S
O101 C89 1.239 . S
O102 Tb80 2.399 . S
O102 C89 1.263 . S
C103 O92 1.261 . S
C103 O93 1.257 . S
C104 C107 1.358 . S
C104 C108 1.332 . S
C104 C110 1.504 . S
C105 C106 1.373 . S
C105 C109 1.308 . S
C106 C105 1.373 . S
C106 C107 1.429 . S
C106 H116 0.932 . S
C107 C104 1.358 . S
C107 C106 1.429 . S
C107 H117 0.930 . S
C108 C104 1.332 . S
C108 C109 1.394 . S
C108 H118 0.932 . S
C109 C105 1.308 . S
C109 C108 1.394 . S
C109 H119 0.929 . S
C110 Tb81 2.764 . S
C110 O94 1.239 . S
C110 O95 1.263 . S
C110 C104 1.504 . S
C111 O96 1.236 . S
C111 O97 1.257 . S
H112 C85 0.932 . S
H113 C86 0.930 . S
H114 C87 0.932 . S
H115 C88 0.929 . S
H116 C106 0.932 . S
H117 C107 0.930 . S
H118 C108 0.932 . S
H119 C109 0.929 . S
H120 C127 0.929 . S
H121 C130 0.930 . S
H122 C132 0.929 . S
H123 C124 0.969 . S
C124 H123 0.969 . S
C124 O125 1.550 . S
C124 H126 0.973 . S
O125 C124 1.550 . S
O125 C131 1.412 . S
H126 C124 0.973 . S
C127 H120 0.929 . S
C127 C128 1.400 . S
C127 C129 1.364 . S
C128 C127 1.400 . S
C128 C132 1.377 . S
C129 C127 1.364 . S
C129 C130 1.374 1_545 S
C130 H121 0.930 . S
C130 C129 1.374 1_565 S
C130 C131 1.383 . S
C131 O125 1.412 . S
C131 C130 1.383 . S
C131 C132 1.394 1_565 S
C132 H122 0.929 . S
C132 C128 1.377 . S
C132 C131 1.394 1_545 S
H133 C140 0.929 . S
H134 C143 0.930 . S
H135 C145 0.929 . S
H136 C137 0.969 . S
C137 H136 0.969 . S
C137 O138 1.550 . S
C137 H139 0.973 . S
O138 C137 1.550 . S
O138 C144 1.412 . S
H139 C137 0.973 . S
C140 H133 0.929 . S
C140 C141 1.400 . S
C140 C142 1.364 . S
C141 C140 1.400 . S
C141 C145 1.377 . S
C142 C140 1.364 . S
C142 C143 1.374 . S
C143 H134 0.930 . S
C143 C142 1.374 . S
C143 C144 1.383 . S
C144 O138 1.412 . S
C144 C143 1.383 . S
C144 C145 1.394 . S
C145 H135 0.929 . S
C145 C141 1.377 . S
C145 C144 1.394 . S
H146 C153 0.929 . S
H147 C156 0.930 . S
H148 C158 0.929 . S
H149 C150 0.969 . S
C150 H149 0.969 . S
C150 O151 1.550 . S
C150 H152 0.973 . S
O151 C150 1.550 . S
O151 C157 1.412 . S
H152 C150 0.973 . S
C153 H146 0.929 . S
C153 C154 1.400 . S
C153 C155 1.364 . S
C154 C153 1.400 . S
C154 C158 1.377 . S
C155 C153 1.364 . S
C155 C156 1.374 . S
C156 H147 0.930 . S
C156 C155 1.374 . S
C156 C157 1.383 . S
C157 O151 1.412 . S
C157 C156 1.383 . S
C157 C158 1.394 . S
C158 H148 0.929 . S
C158 C154 1.377 . S
C158 C157 1.394 . S
H159 C166 0.929 . S
H160 C169 0.930 . S
H161 C171 0.929 . S
H162 C163 0.969 . S
C163 H162 0.969 . S
C163 O164 1.550 . S
C163 H165 0.973 . S
O164 C163 1.550 . S
O164 C170 1.412 . S
H165 C163 0.973 . S
C166 H159 0.929 . S
C166 C167 1.400 . S
C166 C168 1.364 1_655 S
C167 C166 1.400 . S
C167 C171 1.377 1_655 S
C168 C166 1.364 1_455 S
C168 C169 1.374 . S
C169 H160 0.930 . S
C169 C168 1.374 . S
C169 C170 1.383 . S
C170 O164 1.412 . S
C170 C169 1.383 . S
C170 C171 1.394 . S
C171 H161 0.929 . S
C171 C167 1.377 1_455 S
C171 C170 1.394 . S
H172 C179 0.929 . S
H173 C182 0.930 . S
H174 C184 0.929 . S
H175 C176 0.969 . S
C176 H175 0.969 . S
C176 O177 1.550 . S
C176 H178 0.973 . S
O177 C176 1.550 . S
O177 C183 1.412 . S
H178 C176 0.973 . S
C179 H172 0.929 . S
C179 C180 1.400 . S
C179 C181 1.364 . S
C180 C179 1.400 . S
C180 C184 1.377 . S
C181 C179 1.364 . S
C181 C182 1.374 1_565 S
C182 H173 0.930 . S
C182 C181 1.374 1_545 S
C182 C183 1.383 . S
C183 O177 1.412 . S
C183 C182 1.383 . S
C183 C184 1.394 1_545 S
C184 H174 0.929 . S
C184 C180 1.377 . S
C184 C183 1.394 1_565 S
H185 C192 0.929 . S
H186 C195 0.930 . S
H187 C197 0.929 . S
H188 C189 0.969 . S
C189 H188 0.969 . S
C189 O190 1.550 . S
C189 H191 0.973 . S
O190 C189 1.550 . S
O190 C196 1.412 . S
H191 C189 0.973 . S
C192 H185 0.929 . S
C192 C193 1.400 . S
C192 C194 1.364 . S
C193 C192 1.400 . S
C193 C197 1.377 . S
C194 C192 1.364 . S
C194 C195 1.374 . S
C195 H186 0.930 . S
C195 C194 1.374 . S
C195 C196 1.383 . S
C196 O190 1.412 . S
C196 C195 1.383 . S
C196 C197 1.394 . S
C197 H187 0.929 . S
C197 C193 1.377 . S
C197 C196 1.394 . S
H198 C206 0.929 . S
H199 C208 0.930 . S
H200 C210 0.930 . S
H201 C213 0.929 . S
H202 C216 0.930 . S
H203 C218 0.960 . S
H204 C218 0.960 . S
H205 C218 0.960 . S
C206 H198 0.929 . S
C206 C207 1.377 . S
C206 C208 1.384 . S
C207 C206 1.377 . S
C207 C213 1.390 . S
C208 H199 0.930 . S
C208 C206 1.384 . S
C208 C209 1.372 . S
C209 C208 1.372 . S
C209 C210 1.400 . S
C209 C214 1.490 . S
C210 H200 0.930 . S
C210 C209 1.400 . S
C210 C213 1.386 . S
H211 C227 0.930 . S
H212 C228 0.931 . S
C213 H201 0.929 . S
C213 C207 1.390 . S
C213 C210 1.386 . S
C214 C209 1.490 . S
C214 C216 1.395 . S
C214 C217 1.403 . S
H215 C221 0.930 . S
C216 H202 0.930 . S
C216 C214 1.395 . S
C216 C219 1.403 . S
C217 C214 1.403 . S
C217 C218 1.524 . S
C217 C221 1.400 . S
C218 H203 0.960 . S
C218 H204 0.960 . S
C218 H205 0.960 . S
C218 C217 1.524 . S
C219 C216 1.403 . S
C219 C220 1.392 . S
C219 C223 1.495 . S
C220 C219 1.392 . S
C220 C221 1.385 . S
C220 C222 1.478 . S
C221 H215 0.930 . S
C221 C217 1.400 . S
C221 C220 1.385 . S
C222 C220 1.478 . S
C222 C224 1.381 . S
C222 C228 1.383 . S
C223 C219 1.495 . S
C223 H229 0.959 . S
C223 H230 0.961 . S
C223 H231 0.960 . S
C224 C222 1.381 . S
C224 C225 1.394 . S
C224 H232 0.930 . S
C225 C224 1.394 . S
C225 C226 1.383 . S
C225 H233 0.929 . S
C226 C225 1.383 . S
C226 C227 1.377 . S
C227 H211 0.930 . S
C227 C226 1.377 . S
C227 C228 1.379 . S
C228 H212 0.931 . S
C228 C222 1.383 . S
C228 C227 1.379 . S
H229 C223 0.959 . S
H230 C223 0.961 . S
H231 C223 0.960 . S
H232 C224 0.930 . S
H233 C225 0.929 . S
H234 C242 0.929 . S
H235 C244 0.930 . S
H236 C246 0.930 . S
H237 C249 0.929 . S
H238 C252 0.930 . S
H239 C254 0.960 . S
H240 C254 0.960 . S
H241 C254 0.960 . S
C242 H234 0.929 . S
C242 C243 1.377 . S
C242 C244 1.384 . S
C243 C242 1.377 . S
C243 C249 1.390 . S
C244 H235 0.930 . S
C244 C242 1.384 . S
C244 C245 1.372 . S
C245 C244 1.372 . S
C245 C246 1.400 . S
C245 C250 1.490 . S
C246 H236 0.930 . S
C246 C245 1.400 . S
C246 C249 1.386 . S
H247 C263 0.930 . S
H248 C264 0.931 . S
C249 H237 0.929 . S
C249 C243 1.390 . S
C249 C246 1.386 . S
C250 C245 1.490 . S
C250 C252 1.395 . S
C250 C253 1.403 . S
H251 C257 0.930 . S
C252 H238 0.930 . S
C252 C250 1.395 . S
C252 C255 1.403 . S
C253 C250 1.403 . S
C253 C254 1.524 . S
C253 C257 1.400 . S
C254 H239 0.960 . S
C254 H240 0.960 . S
C254 H241 0.960 . S
C254 C253 1.524 . S
C255 C252 1.403 . S
C255 C256 1.392 . S
C255 C259 1.495 . S
C256 C255 1.392 . S
C256 C257 1.385 . S
C256 C258 1.478 . S
C257 H251 0.930 . S
C257 C253 1.400 . S
C257 C256 1.385 . S
C258 C256 1.478 . S
C258 C260 1.381 . S
C258 C264 1.383 . S
C259 C255 1.495 . S
C259 H265 0.959 . S
C259 H266 0.961 . S
C259 H267 0.960 . S
C260 C258 1.381 . S
C260 C261 1.394 . S
C260 H268 0.930 . S
C261 C260 1.394 . S
C261 C262 1.383 . S
C261 H269 0.929 . S
C262 C261 1.383 . S
C262 C263 1.377 . S
C263 H247 0.930 . S
C263 C262 1.377 . S
C263 C264 1.379 . S
C264 H248 0.931 . S
C264 C258 1.383 . S
C264 C263 1.379 . S
H265 C259 0.959 . S
H266 C259 0.961 . S
H267 C259 0.960 . S
H268 C260 0.930 . S
H269 C261 0.929 . S
H270 C278 0.929 . S
H271 C280 0.930 . S
H272 C282 0.930 . S
H273 C285 0.929 . S
H274 C288 0.930 . S
H275 C290 0.960 . S
H276 C290 0.960 . S
H277 C290 0.960 . S
C278 H270 0.929 . S
C278 C279 1.377 . S
C278 C280 1.384 . S
C279 C278 1.377 . S
C279 C285 1.390 . S
C280 H271 0.930 . S
C280 C278 1.384 . S
C280 C281 1.372 . S
C281 C280 1.372 . S
C281 C282 1.400 . S
C281 C286 1.490 . S
C282 H272 0.930 . S
C282 C281 1.400 . S
C282 C285 1.386 . S
H283 C299 0.930 . S
H284 C300 0.931 . S
C285 H273 0.929 . S
C285 C279 1.390 . S
C285 C282 1.386 . S
C286 C281 1.490 . S
C286 C288 1.395 . S
C286 C289 1.403 . S
H287 C293 0.930 . S
C288 H274 0.930 . S
C288 C286 1.395 . S
C288 C291 1.403 . S
C289 C286 1.403 . S
C289 C290 1.524 . S
C289 C293 1.400 . S
C290 H275 0.960 . S
C290 H276 0.960 . S
C290 H277 0.960 . S
C290 C289 1.524 . S
C291 C288 1.403 . S
C291 C292 1.392 . S
C291 C295 1.495 . S
C292 C291 1.392 . S
C292 C293 1.385 . S
C292 C294 1.478 . S
C293 H287 0.930 . S
C293 C289 1.400 . S
C293 C292 1.385 . S
C294 C292 1.478 . S
C294 C296 1.381 . S
C294 C300 1.383 . S
C295 C291 1.495 . S
C295 H301 0.959 . S
C295 H302 0.961 . S
C295 H303 0.960 . S
C296 C294 1.381 . S
C296 C297 1.394 . S
C296 H304 0.930 . S
C297 C296 1.394 . S
C297 C298 1.383 . S
C297 H305 0.929 . S
C298 C297 1.383 . S
C298 C299 1.377 . S
C299 H283 0.930 . S
C299 C298 1.377 . S
C299 C300 1.379 . S
C300 H284 0.931 . S
C300 C294 1.383 . S
C300 C299 1.379 . S
H301 C295 0.959 . S
H302 C295 0.961 . S
H303 C295 0.960 . S
H304 C296 0.930 . S
H305 C297 0.929 . S
H306 C314 0.929 . S
H307 C316 0.930 . S
H308 C318 0.930 . S
H309 C321 0.929 . S
H310 C324 0.930 . S
H311 C326 0.960 . S
H312 C326 0.960 . S
H313 C326 0.960 . S
C314 H306 0.929 . S
C314 C315 1.377 . S
C314 C316 1.384 . S
C315 C314 1.377 . S
C315 C321 1.390 . S
C316 H307 0.930 . S
C316 C314 1.384 . S
C316 C317 1.372 . S
C317 C316 1.372 . S
C317 C318 1.400 . S
C317 C322 1.490 . S
C318 H308 0.930 . S
C318 C317 1.400 . S
C318 C321 1.386 . S
H319 C335 0.930 . S
H320 C336 0.931 . S
C321 H309 0.929 . S
C321 C315 1.390 . S
C321 C318 1.386 . S
C322 C317 1.490 . S
C322 C324 1.395 . S
C322 C325 1.403 . S
H323 C329 0.930 . S
C324 H310 0.930 . S
C324 C322 1.395 . S
C324 C327 1.403 . S
C325 C322 1.403 . S
C325 C326 1.524 . S
C325 C329 1.400 . S
C326 H311 0.960 . S
C326 H312 0.960 . S
C326 H313 0.960 . S
C326 C325 1.524 . S
C327 C324 1.403 . S
C327 C328 1.392 . S
C327 C331 1.495 . S
C328 C327 1.392 . S
C328 C329 1.385 . S
C328 C330 1.478 . S
C329 H323 0.930 . S
C329 C325 1.400 . S
C329 C328 1.385 . S
C330 C328 1.478 . S
C330 C332 1.381 . S
C330 C336 1.383 . S
C331 C327 1.495 . S
C331 H337 0.959 . S
C331 H338 0.961 . S
C331 H339 0.960 . S
C332 C330 1.381 . S
C332 C333 1.394 . S
C332 H340 0.930 . S
C333 C332 1.394 . S
C333 C334 1.383 . S
C333 H341 0.929 . S
C334 C333 1.383 . S
C334 C335 1.377 . S
C335 H319 0.930 . S
C335 C334 1.377 . S
C335 C336 1.379 . S
C336 H320 0.931 . S
C336 C330 1.383 . S
C336 C335 1.379 . S
H337 C331 0.959 . S
H338 C331 0.961 . S
H339 C331 0.960 . S
H340 C332 0.930 . S
H341 C333 0.929 . S
H342 C350 0.929 . S
H343 C352 0.930 . S
H344 C354 0.930 . S
H345 C357 0.929 . S
H346 C360 0.930 . S
H347 C362 0.960 . S
H348 C362 0.960 . S
H349 C362 0.960 . S
C350 H342 0.929 . S
C350 C351 1.377 . S
C350 C352 1.384 . S
C351 C350 1.377 . S
C351 C357 1.390 . S
C352 H343 0.930 . S
C352 C350 1.384 . S
C352 C353 1.372 . S
C353 C352 1.372 . S
C353 C354 1.400 . S
C353 C358 1.490 . S
C354 H344 0.930 . S
C354 C353 1.400 . S
C354 C357 1.386 . S
H355 C371 0.930 . S
H356 C372 0.931 . S
C357 H345 0.929 . S
C357 C351 1.390 . S
C357 C354 1.386 . S
C358 C353 1.490 . S
C358 C360 1.395 . S
C358 C361 1.403 . S
H359 C365 0.930 . S
C360 H346 0.930 . S
C360 C358 1.395 . S
C360 C363 1.403 . S
C361 C358 1.403 . S
C361 C362 1.524 . S
C361 C365 1.400 . S
C362 H347 0.960 . S
C362 H348 0.960 . S
C362 H349 0.960 . S
C362 C361 1.524 . S
C363 C360 1.403 . S
C363 C364 1.392 . S
C363 C367 1.495 . S
C364 C363 1.392 . S
C364 C365 1.385 . S
C364 C366 1.478 . S
C365 H359 0.930 . S
C365 C361 1.400 . S
C365 C364 1.385 . S
C366 C364 1.478 . S
C366 C368 1.381 . S
C366 C372 1.383 . S
C367 C363 1.495 . S
C367 H373 0.959 . S
C367 H374 0.961 . S
C367 H375 0.960 . S
C368 C366 1.381 . S
C368 C369 1.394 . S
C368 H376 0.930 . S
C369 C368 1.394 . S
C369 C370 1.383 . S
C369 H377 0.929 . S
C370 C369 1.383 . S
C370 C371 1.377 . S
C371 H355 0.930 . S
C371 C370 1.377 . S
C371 C372 1.379 . S
C372 H356 0.931 . S
C372 C366 1.383 . S
C372 C371 1.379 . S
H373 C367 0.959 . S
H374 C367 0.961 . S
H375 C367 0.960 . S
H376 C368 0.930 . S
H377 C369 0.929 . S
H378 C386 0.929 . S
H379 C388 0.930 . S
H380 C390 0.930 . S
H381 C393 0.929 . S
H382 C396 0.930 . S
H383 C398 0.960 . S
H384 C398 0.960 . S
H385 C398 0.960 . S
C386 H378 0.929 . S
C386 C387 1.377 . S
C386 C388 1.384 . S
C387 C386 1.377 . S
C387 C393 1.390 . S
C388 H379 0.930 . S
C388 C386 1.384 . S
C388 C389 1.372 . S
C389 C388 1.372 . S
C389 C390 1.400 . S
C389 C394 1.490 . S
C390 H380 0.930 . S
C390 C389 1.400 . S
C390 C393 1.386 . S
H391 C407 0.930 . S
H392 C408 0.931 . S
C393 H381 0.929 . S
C393 C387 1.390 . S
C393 C390 1.386 . S
C394 C389 1.490 . S
C394 C396 1.395 . S
C394 C397 1.403 . S
H395 C401 0.930 . S
C396 H382 0.930 . S
C396 C394 1.395 . S
C396 C399 1.403 . S
C397 C394 1.403 . S
C397 C398 1.524 . S
C397 C401 1.400 . S
C398 H383 0.960 . S
C398 H384 0.960 . S
C398 H385 0.960 . S
C398 C397 1.524 . S
C399 C396 1.403 . S
C399 C400 1.392 . S
C399 C403 1.495 . S
C400 C399 1.392 . S
C400 C401 1.385 . S
C400 C402 1.478 . S
C401 H395 0.930 . S
C401 C397 1.400 . S
C401 C400 1.385 . S
C402 C400 1.478 . S
C402 C404 1.381 . S
C402 C408 1.383 . S
C403 C399 1.495 . S
C403 H409 0.959 . S
C403 H410 0.961 . S
C403 H411 0.960 . S
C404 C402 1.381 . S
C404 C405 1.394 . S
C404 H412 0.930 . S
C405 C404 1.394 . S
C405 C406 1.383 . S
C405 H413 0.929 . S
C406 C405 1.383 . S
C406 C407 1.377 . S
C407 H391 0.930 . S
C407 C406 1.377 . S
C407 C408 1.379 . S
C408 H392 0.931 . S
C408 C402 1.383 . S
C408 C407 1.379 . S
H409 C403 0.959 . S
H410 C403 0.961 . S
H411 C403 0.960 . S
H412 C404 0.930 . S
H413 C405 0.929 . S
H414 C422 0.929 . S
H415 C424 0.930 . S
H416 C426 0.930 . S
H417 C429 0.929 . S
H418 C432 0.930 . S
H419 C434 0.960 . S
H420 C434 0.960 . S
H421 C434 0.960 . S
C422 H414 0.929 . S
C422 C423 1.377 . S
C422 C424 1.384 . S
C423 C422 1.377 . S
C423 C429 1.390 . S
C424 H415 0.930 . S
C424 C422 1.384 . S
C424 C425 1.372 . S
C425 C424 1.372 . S
C425 C426 1.400 . S
C425 C430 1.490 . S
C426 H416 0.930 . S
C426 C425 1.400 . S
C426 C429 1.386 . S
H427 C443 0.930 . S
H428 C444 0.931 . S
C429 H417 0.929 . S
C429 C423 1.390 . S
C429 C426 1.386 . S
C430 C425 1.490 . S
C430 C432 1.395 . S
C430 C433 1.403 . S
H431 C437 0.930 . S
C432 H418 0.930 . S
C432 C430 1.395 . S
C432 C435 1.403 . S
C433 C430 1.403 . S
C433 C434 1.524 . S
C433 C437 1.400 . S
C434 H419 0.960 . S
C434 H420 0.960 . S
C434 H421 0.960 . S
C434 C433 1.524 . S
C435 C432 1.403 . S
C435 C436 1.392 . S
C435 C439 1.495 . S
C436 C435 1.392 . S
C436 C437 1.385 . S
C436 C438 1.478 . S
C437 H431 0.930 . S
C437 C433 1.400 . S
C437 C436 1.385 . S
C438 C436 1.478 . S
C438 C440 1.381 . S
C438 C444 1.383 . S
C439 C435 1.495 . S
C439 H445 0.959 . S
C439 H446 0.961 . S
C439 H447 0.960 . S
C440 C438 1.381 . S
C440 C441 1.394 . S
C440 H448 0.930 . S
C441 C440 1.394 . S
C441 C442 1.383 . S
C441 H449 0.929 . S
C442 C441 1.383 . S
C442 C443 1.377 . S
C443 H427 0.930 . S
C443 C442 1.377 . S
C443 C444 1.379 . S
C444 H428 0.931 . S
C444 C438 1.383 . S
C444 C443 1.379 . S
H445 C439 0.959 . S
H446 C439 0.961 . S
H447 C439 0.960 . S
H448 C440 0.930 . S
H449 C441 0.929 . S
H450 C458 0.929 . S
H451 C460 0.930 . S
H452 C462 0.930 . S
H453 C465 0.929 . S
H454 C468 0.930 . S
H455 C470 0.960 . S
H456 C470 0.960 . S
H457 C470 0.960 . S
C458 H450 0.929 . S
C458 C459 1.377 . S
C458 C460 1.384 . S
C459 C458 1.377 . S
C459 C465 1.390 . S
C460 H451 0.930 . S
C460 C458 1.384 . S
C460 C461 1.372 . S
C461 C460 1.372 . S
C461 C462 1.400 . S
C461 C466 1.490 . S
C462 H452 0.930 . S
C462 C461 1.400 . S
C462 C465 1.386 . S
H463 C479 0.930 . S
H464 C480 0.931 . S
C465 H453 0.929 . S
C465 C459 1.390 . S
C465 C462 1.386 . S
C466 C461 1.490 . S
C466 C468 1.395 . S
C466 C469 1.403 . S
H467 C473 0.930 . S
C468 H454 0.930 . S
C468 C466 1.395 . S
C468 C471 1.403 . S
C469 C466 1.403 . S
C469 C470 1.524 . S
C469 C473 1.400 . S
C470 H455 0.960 . S
C470 H456 0.960 . S
C470 H457 0.960 . S
C470 C469 1.524 . S
C471 C468 1.403 . S
C471 C472 1.392 . S
C471 C475 1.495 . S
C472 C471 1.392 . S
C472 C473 1.385 . S
C472 C474 1.478 . S
C473 H467 0.930 . S
C473 C469 1.400 . S
C473 C472 1.385 . S
C474 C472 1.478 . S
C474 C476 1.381 . S
C474 C480 1.383 . S
C475 C471 1.495 . S
C475 H481 0.959 . S
C475 H482 0.961 . S
C475 H483 0.960 . S
C476 C474 1.381 . S
C476 C477 1.394 . S
C476 H484 0.930 . S
C477 C476 1.394 . S
C477 C478 1.383 . S
C477 H485 0.929 . S
C478 C477 1.383 . S
C478 C479 1.377 . S
C479 H463 0.930 . S
C479 C478 1.377 . S
C479 C480 1.379 . S
C480 H464 0.931 . S
C480 C474 1.383 . S
C480 C479 1.379 . S
H481 C475 0.959 . S
H482 C475 0.961 . S
H483 C475 0.960 . S
H484 C476 0.930 . S
H485 C477 0.929 . S
H486 C494 0.929 . S
H487 C496 0.930 . S
H488 C498 0.930 . S
H489 C501 0.929 . S
H490 C504 0.930 . S
H491 C506 0.960 . S
H492 C506 0.960 . S
H493 C506 0.960 . S
C494 H486 0.929 . S
C494 C495 1.377 . S
C494 C496 1.384 . S
C495 C494 1.377 . S
C495 C501 1.390 . S
C496 H487 0.930 . S
C496 C494 1.384 . S
C496 C497 1.372 . S
C497 C496 1.372 . S
C497 C498 1.400 . S
C497 C502 1.490 . S
C498 H488 0.930 . S
C498 C497 1.400 . S
C498 C501 1.386 . S
H499 C515 0.930 . S
H500 C516 0.931 . S
C501 H489 0.929 . S
C501 C495 1.390 . S
C501 C498 1.386 . S
C502 C497 1.490 . S
C502 C504 1.395 . S
C502 C505 1.403 . S
H503 C509 0.930 . S
C504 H490 0.930 . S
C504 C502 1.395 . S
C504 C507 1.403 . S
C505 C502 1.403 . S
C505 C506 1.524 . S
C505 C509 1.400 . S
C506 H491 0.960 . S
C506 H492 0.960 . S
C506 H493 0.960 . S
C506 C505 1.524 . S
C507 C504 1.403 . S
C507 C508 1.392 . S
C507 C511 1.495 . S
C508 C507 1.392 . S
C508 C509 1.385 . S
C508 C510 1.478 . S
C509 H503 0.930 . S
C509 C505 1.400 . S
C509 C508 1.385 . S
C510 C508 1.478 . S
C510 C512 1.381 . S
C510 C516 1.383 . S
C511 C507 1.495 . S
C511 H517 0.959 . S
C511 H518 0.961 . S
C511 H519 0.960 . S
C512 C510 1.381 . S
C512 C513 1.394 . S
C512 H520 0.930 . S
C513 C512 1.394 . S
C513 C514 1.383 . S
C513 H521 0.929 . S
C514 C513 1.383 . S
C514 C515 1.377 . S
C515 H499 0.930 . S
C515 C514 1.377 . S
C515 C516 1.379 . S
C516 H500 0.931 . S
C516 C510 1.383 . S
C516 C515 1.379 . S
H517 C511 0.959 . S
H518 C511 0.961 . S
H519 C511 0.960 . S
H520 C512 0.930 . S
H521 C513 0.929 . S
H522 C530 0.929 . S
H523 C532 0.930 . S
H524 C534 0.930 . S
H525 C537 0.929 . S
H526 C540 0.930 . S
H527 C542 0.960 . S
H528 C542 0.960 . S
H529 C542 0.960 . S
C530 H522 0.929 . S
C530 C531 1.377 . S
C530 C532 1.384 . S
C531 C530 1.377 . S
C531 C537 1.390 . S
C532 H523 0.930 . S
C532 C530 1.384 . S
C532 C533 1.372 . S
C533 C532 1.372 . S
C533 C534 1.400 . S
C533 C538 1.490 . S
C534 H524 0.930 . S
C534 C533 1.400 . S
C534 C537 1.386 . S
H535 C551 0.930 . S
H536 C552 0.931 . S
C537 H525 0.929 . S
C537 C531 1.390 . S
C537 C534 1.386 . S
C538 C533 1.490 . S
C538 C540 1.395 . S
C538 C541 1.403 . S
H539 C545 0.930 . S
C540 H526 0.930 . S
C540 C538 1.395 . S
C540 C543 1.403 . S
C541 C538 1.403 . S
C541 C542 1.524 . S
C541 C545 1.400 . S
C542 H527 0.960 . S
C542 H528 0.960 . S
C542 H529 0.960 . S
C542 C541 1.524 . S
C543 C540 1.403 . S
C543 C544 1.392 . S
C543 C547 1.495 . S
C544 C543 1.392 . S
C544 C545 1.385 . S
C544 C546 1.478 . S
C545 H539 0.930 . S
C545 C541 1.400 . S
C545 C544 1.385 . S
C546 C544 1.478 . S
C546 C548 1.381 . S
C546 C552 1.383 . S
C547 C543 1.495 . S
C547 H553 0.959 . S
C547 H554 0.961 . S
C547 H555 0.960 . S
C548 C546 1.381 . S
C548 C549 1.394 . S
C548 H556 0.930 . S
C549 C548 1.394 . S
C549 C550 1.383 . S
C549 H557 0.929 . S
C550 C549 1.383 . S
C550 C551 1.377 . S
C551 H535 0.930 . S
C551 C550 1.377 . S
C551 C552 1.379 . S
C552 H536 0.931 . S
C552 C546 1.383 . S
C552 C551 1.379 . S
H553 C547 0.959 . S
H554 C547 0.961 . S
H555 C547 0.960 . S
H556 C548 0.930 . S
H557 C549 0.929 . S
H558 C566 0.929 . S
H559 C568 0.930 . S
H560 C570 0.930 . S
H561 C573 0.929 . S
H562 C576 0.930 . S
H563 C578 0.960 . S
H564 C578 0.960 . S
H565 C578 0.960 . S
C566 H558 0.929 . S
C566 C567 1.377 . S
C566 C568 1.384 . S
C567 C566 1.377 . S
C567 C573 1.390 . S
C568 H559 0.930 . S
C568 C566 1.384 . S
C568 C569 1.372 . S
C569 C568 1.372 . S
C569 C570 1.400 . S
C569 C574 1.490 . S
C570 H560 0.930 . S
C570 C569 1.400 . S
C570 C573 1.386 . S
H571 C587 0.930 . S
H572 C588 0.931 . S
C573 H561 0.929 . S
C573 C567 1.390 . S
C573 C570 1.386 . S
C574 C569 1.490 . S
C574 C576 1.395 . S
C574 C577 1.403 . S
H575 C581 0.930 . S
C576 H562 0.930 . S
C576 C574 1.395 . S
C576 C579 1.403 . S
C577 C574 1.403 . S
C577 C578 1.524 . S
C577 C581 1.400 . S
C578 H563 0.960 . S
C578 H564 0.960 . S
C578 H565 0.960 . S
C578 C577 1.524 . S
C579 C576 1.403 . S
C579 C580 1.392 . S
C579 C583 1.495 . S
C580 C579 1.392 . S
C580 C581 1.385 . S
C580 C582 1.478 . S
C581 H575 0.930 . S
C581 C577 1.400 . S
C581 C580 1.385 . S
C582 C580 1.478 . S
C582 C584 1.381 . S
C582 C588 1.383 . S
C583 C579 1.495 . S
C583 H589 0.959 . S
C583 H590 0.961 . S
C583 H591 0.960 . S
C584 C582 1.381 . S
C584 C585 1.394 . S
C584 H592 0.930 . S
C585 C584 1.394 . S
C585 C586 1.383 . S
C585 H593 0.929 . S
C586 C585 1.383 . S
C586 C587 1.377 . S
C587 H571 0.930 . S
C587 C586 1.377 . S
C587 C588 1.379 . S
C588 H572 0.931 . S
C588 C582 1.383 . S
C588 C587 1.379 . S
H589 C583 0.959 . S
H590 C583 0.961 . S
H591 C583 0.960 . S
H592 C584 0.930 . S
H593 C585 0.929 . S
H594 C602 0.929 . S
H595 C604 0.930 . S
H596 C606 0.930 . S
H597 C609 0.929 . S
H598 C612 0.930 . S
H599 C614 0.960 . S
H600 C614 0.960 . S
H601 C614 0.960 . S
C602 H594 0.929 . S
C602 C603 1.377 . S
C602 C604 1.384 . S
C603 C602 1.377 . S
C603 C609 1.390 . S
C604 H595 0.930 . S
C604 C602 1.384 . S
C604 C605 1.372 . S
C605 C604 1.372 . S
C605 C606 1.400 . S
C605 C610 1.490 . S
C606 H596 0.930 . S
C606 C605 1.400 . S
C606 C609 1.386 . S
H607 C623 0.930 . S
H608 C624 0.931 . S
C609 H597 0.929 . S
C609 C603 1.390 . S
C609 C606 1.386 . S
C610 C605 1.490 . S
C610 C612 1.395 . S
C610 C613 1.403 . S
H611 C617 0.930 . S
C612 H598 0.930 . S
C612 C610 1.395 . S
C612 C615 1.403 . S
C613 C610 1.403 . S
C613 C614 1.524 . S
C613 C617 1.400 . S
C614 H599 0.960 . S
C614 H600 0.960 . S
C614 H601 0.960 . S
C614 C613 1.524 . S
C615 C612 1.403 . S
C615 C616 1.392 . S
C615 C619 1.495 . S
C616 C615 1.392 . S
C616 C617 1.385 . S
C616 C618 1.478 . S
C617 H611 0.930 . S
C617 C613 1.400 . S
C617 C616 1.385 . S
C618 C616 1.478 . S
C618 C620 1.381 . S
C618 C624 1.383 . S
C619 C615 1.495 . S
C619 H625 0.959 . S
C619 H626 0.961 . S
C619 H627 0.960 . S
C620 C618 1.381 . S
C620 C621 1.394 . S
C620 H628 0.930 . S
C621 C620 1.394 . S
C621 C622 1.383 . S
C621 H629 0.929 . S
C622 C621 1.383 . S
C622 C623 1.377 . S
C623 H607 0.930 . S
C623 C622 1.377 . S
C623 C624 1.379 . S
C624 H608 0.931 . S
C624 C618 1.383 . S
C624 C623 1.379 . S
H625 C619 0.959 . S
H626 C619 0.961 . S
H627 C619 0.960 . S
H628 C620 0.930 . S
H629 C621 0.929 . S
H630 C638 0.929 . S
H631 C640 0.930 . S
H632 C642 0.930 . S
H633 C645 0.929 . S
H634 C648 0.930 1_655 S
H635 C650 0.960 . S
H636 C650 0.960 . S
H637 C650 0.960 . S
C638 H630 0.929 . S
C638 C639 1.377 1_655 S
C638 C640 1.384 . S
C639 C638 1.377 1_455 S
C639 C645 1.390 . S
C640 H631 0.930 . S
C640 C638 1.384 . S
C640 C641 1.372 1_655 S
C641 C640 1.372 1_455 S
C641 C642 1.400 . S
C641 C646 1.490 . S
C642 H632 0.930 . S
C642 C641 1.400 . S
C642 C645 1.386 . S
H643 C659 0.930 . S
H644 C660 0.931 . S
C645 H633 0.929 . S
C645 C639 1.390 . S
C645 C642 1.386 . S
C646 C641 1.490 . S
C646 C648 1.395 . S
C646 C649 1.403 . S
H647 C653 0.933 . S
C648 H634 0.930 1_455 S
C648 C646 1.395 . S
C648 C651 1.403 . S
C649 C646 1.403 . S
C649 C650 1.524 . S
C649 C653 1.400 . S
C650 H635 0.960 . S
C650 H636 0.960 . S
C650 H637 0.960 . S
C650 C649 1.524 . S
C651 C648 1.403 . S
C651 C652 1.392 1_554 S
C651 C655 1.495 1_454 S
C652 C651 1.392 1_556 S
C652 C653 1.385 1_556 S
C652 C654 1.478 . S
C653 H647 0.933 . S
C653 C649 1.400 . S
C653 C652 1.385 1_554 S
C654 C652 1.478 . S
C654 C656 1.381 . S
C654 C660 1.383 . S
C655 C651 1.495 1_656 S
C655 H661 0.959 . S
C655 H662 0.961 . S
C655 H663 0.960 . S
C656 C654 1.381 . S
C656 C657 1.394 . S
C656 H664 0.930 . S
C657 C656 1.394 . S
C657 C658 1.383 . S
C657 H665 0.929 . S
C658 C657 1.383 . S
C658 C659 1.377 . S
C659 H643 0.930 . S
C659 C658 1.377 . S
C659 C660 1.379 . S
C660 H644 0.931 . S
C660 C654 1.383 . S
C660 C659 1.379 . S
H661 C655 0.959 . S
H662 C655 0.961 . S
H663 C655 0.960 . S
H664 C656 0.930 . S
H665 C657 0.929 . S
H666 C674 0.929 1_565 S
H667 C676 0.930 1_565 S
H668 C678 0.930 . S
H669 C681 0.929 . S
H670 C684 0.930 . S
H671 C686 0.960 . S
H672 C686 0.960 . S
H673 C686 0.960 1_545 S
C674 H666 0.929 1_545 S
C674 C675 1.377 . S
C674 C676 1.384 . S
C675 C674 1.377 . S
C675 C681 1.390 . S
C676 H667 0.930 1_545 S
C676 C674 1.384 . S
C676 C677 1.372 . S
C677 C676 1.372 . S
C677 C678 1.400 . S
C677 C682 1.490 . S
C678 H668 0.930 . S
C678 C677 1.400 . S
C678 C681 1.386 . S
H679 C695 0.930 . S
H680 C696 0.931 . S
C681 H669 0.929 . S
C681 C675 1.390 . S
C681 C678 1.386 . S
C682 C677 1.490 . S
C682 C684 1.395 . S
C682 C685 1.403 . S
H683 C689 0.950 . S
C684 H670 0.930 . S
C684 C682 1.395 . S
C684 C687 1.403 . S
C685 C682 1.403 . S
C685 C686 1.524 1_545 S
C685 C689 1.400 . S
C686 H671 0.960 . S
C686 H672 0.960 . S
C686 H673 0.960 1_565 S
C686 C685 1.524 1_565 S
C687 C684 1.403 . S
C687 C688 1.392 . S
C687 C691 1.495 . S
C688 C687 1.392 . S
C688 C689 1.385 . S
C688 C690 1.478 . S
C689 H683 0.950 . S
C689 C685 1.400 . S
C689 C688 1.385 . S
C690 C688 1.478 . S
C690 C692 1.381 1_545 S
C690 C696 1.383 . S
C691 C687 1.495 . S
C691 H697 0.959 . S
C691 H698 0.961 . S
C691 H699 0.960 . S
C692 C690 1.381 1_565 S
C692 C693 1.394 . S
C692 H700 0.930 . S
C693 C692 1.394 . S
C693 C694 1.383 1_565 S
C693 H701 0.929 . S
C694 C693 1.383 1_545 S
C694 C695 1.377 . S
C695 H679 0.930 . S
C695 C694 1.377 . S
C695 C696 1.379 . S
C696 H680 0.931 . S
C696 C690 1.383 . S
C696 C695 1.379 . S
H697 C691 0.959 . S
H698 C691 0.961 . S
H699 C691 0.960 . S
H700 C692 0.930 . S
H701 C693 0.929 . S
H702 C710 0.929 . S
H703 C712 0.930 . S
H704 C714 0.930 . S
H705 C717 0.929 . S
H706 C720 0.930 . S
H707 C722 0.960 . S
H708 C722 0.960 . S
H709 C722 0.960 . S
C710 H702 0.929 . S
C710 C711 1.377 . S
C710 C712 1.384 . S
C711 C710 1.377 . S
C711 C717 1.390 . S
C712 H703 0.930 . S
C712 C710 1.384 . S
C712 C713 1.372 . S
C713 C712 1.372 . S
C713 C714 1.400 . S
C713 C718 1.490 . S
C714 H704 0.930 . S
C714 C713 1.400 . S
C714 C717 1.386 . S
H715 C731 0.930 . S
H716 C732 0.931 . S
C717 H705 0.929 . S
C717 C711 1.390 . S
C717 C714 1.386 . S
C718 C713 1.490 . S
C718 C720 1.395 . S
C718 C721 1.403 . S
H719 C725 0.930 . S
C720 H706 0.930 . S
C720 C718 1.395 . S
C720 C723 1.403 . S
C721 C718 1.403 . S
C721 C722 1.524 . S
C721 C725 1.400 . S
C722 H707 0.960 . S
C722 H708 0.960 . S
C722 H709 0.960 . S
C722 C721 1.524 . S
C723 C720 1.403 . S
C723 C724 1.392 . S
C723 C727 1.495 . S
C724 C723 1.392 . S
C724 C725 1.385 . S
C724 C726 1.478 . S
C725 H719 0.930 . S
C725 C721 1.400 . S
C725 C724 1.385 . S
C726 C724 1.478 . S
C726 C728 1.381 . S
C726 C732 1.383 . S
C727 C723 1.495 . S
C727 H733 0.959 . S
C727 H734 0.961 . S
C727 H735 0.960 . S
C728 C726 1.381 . S
C728 C729 1.394 . S
C728 H736 0.930 . S
C729 C728 1.394 . S
C729 C730 1.383 . S
C729 H737 0.929 . S
C730 C729 1.383 . S
C730 C731 1.377 . S
C731 H715 0.930 . S
C731 C730 1.377 . S
C731 C732 1.379 . S
C732 H716 0.931 . S
C732 C726 1.383 . S
C732 C731 1.379 . S
H733 C727 0.959 . S
H734 C727 0.961 . S
H735 C727 0.960 . S
H736 C728 0.930 . S
H737 C729 0.929 . S
H738 C746 0.929 . S
H739 C748 0.930 . S
H740 C750 0.930 . S
H741 C753 0.929 . S
H742 C756 0.930 . S
H743 C758 0.960 . S
H744 C758 0.960 . S
H745 C758 0.960 . S
C746 H738 0.929 . S
C746 C747 1.377 . S
C746 C748 1.384 . S
C747 C746 1.377 . S
C747 C753 1.390 . S
C748 H739 0.930 . S
C748 C746 1.384 . S
C748 C749 1.372 . S
C749 C748 1.372 . S
C749 C750 1.400 . S
C749 C754 1.490 . S
C750 H740 0.930 . S
C750 C749 1.400 . S
C750 C753 1.386 . S
H751 C767 0.930 . S
H752 C768 0.931 . S
C753 H741 0.929 . S
C753 C747 1.390 . S
C753 C750 1.386 . S
C754 C749 1.490 . S
C754 C756 1.395 1_545 S
C754 C757 1.403 . S
H755 C761 0.930 . S
C756 H742 0.930 . S
C756 C754 1.395 1_565 S
C756 C759 1.403 . S
C757 C754 1.403 . S
C757 C758 1.524 . S
C757 C761 1.400 . S
C758 H743 0.960 . S
C758 H744 0.960 . S
C758 H745 0.960 . S
C758 C757 1.524 . S
C759 C756 1.403 . S
C759 C760 1.392 . S
C759 C763 1.495 . S
C760 C759 1.392 . S
C760 C761 1.385 1_565 S
C760 C762 1.478 . S
C761 H755 0.930 . S
C761 C757 1.400 . S
C761 C760 1.385 1_545 S
C762 C760 1.478 . S
C762 C764 1.381 . S
C762 C768 1.383 . S
C763 C759 1.495 . S
C763 H769 0.959 . S
C763 H770 0.961 . S
C763 H771 0.960 . S
C764 C762 1.381 . S
C764 C765 1.395 . S
C764 H772 0.930 . S
C765 C764 1.395 . S
C765 C766 1.385 . S
C765 H773 0.927 1_565 S
C766 C765 1.385 . S
C766 C767 1.377 . S
C767 H751 0.930 . S
C767 C766 1.377 . S
C767 C768 1.379 . S
C768 H752 0.931 . S
C768 C762 1.383 . S
C768 C767 1.379 . S
H769 C763 0.959 . S
H770 C763 0.961 . S
H771 C763 0.960 . S
H772 C764 0.930 . S
H773 C765 0.927 1_545 S
H774 C782 0.929 . S
H775 C784 0.930 . S
H776 C786 0.930 . S
H777 C789 0.929 . S
H778 C792 0.930 . S
H779 C794 0.960 . S
H780 C794 0.960 . S
H781 C794 0.960 . S
C782 H774 0.929 . S
C782 C783 1.377 . S
C782 C784 1.384 . S
C783 C782 1.377 . S
C783 C789 1.390 . S
C784 H775 0.930 . S
C784 C782 1.384 . S
C784 C785 1.372 . S
C785 C784 1.372 . S
C785 C786 1.400 . S
C785 C790 1.490 . S
C786 H776 0.930 . S
C786 C785 1.400 . S
C786 C789 1.386 . S
H787 C803 0.930 . S
H788 C804 0.931 . S
C789 H777 0.929 . S
C789 C783 1.390 . S
C789 C786 1.386 . S
C790 C785 1.490 . S
C790 C792 1.395 . S
C790 C793 1.403 . S
H791 C797 0.930 . S
C792 H778 0.930 . S
C792 C790 1.395 . S
C792 C795 1.370 1_556 S
C793 C790 1.403 . S
C793 C794 1.524 . S
C793 C797 1.400 . S
C794 H779 0.960 . S
C794 H780 0.960 . S
C794 H781 0.960 . S
C794 C793 1.524 . S
C795 C792 1.370 1_554 S
C795 C796 1.404 . S
C795 C799 1.516 . S
C796 C795 1.404 . S
C796 C797 1.385 1_554 S
C796 C798 1.478 . S
C797 H791 0.930 . S
C797 C793 1.400 . S
C797 C796 1.385 1_556 S
C798 C796 1.478 . S
C798 C800 1.381 . S
C798 C804 1.383 . S
C799 C795 1.516 . S
C799 H805 0.959 . S
C799 H806 0.961 . S
C799 H807 0.960 . S
C800 C798 1.381 . S
C800 C801 1.394 . S
C800 H808 0.930 . S
C801 C800 1.394 . S
C801 C802 1.383 . S
C801 H809 0.929 . S
C802 C801 1.383 . S
C802 C803 1.377 . S
C803 H787 0.930 . S
C803 C802 1.377 . S
C803 C804 1.379 . S
C804 H788 0.931 . S
C804 C798 1.383 . S
C804 C803 1.379 . S
H805 C799 0.959 . S
H806 C799 0.961 . S
H807 C799 0.960 . S
H808 C800 0.930 . S
H809 C801 0.929 . S
H810 C818 0.929 . S
H811 C820 0.930 . S
H812 C822 0.930 . S
H813 C825 0.929 . S
H814 C828 0.930 . S
H815 C830 0.960 . S
H816 C830 0.960 . S
H817 C830 0.960 . S
C818 H810 0.929 . S
C818 C819 1.377 . S
C818 C820 1.384 . S
C819 C818 1.377 . S
C819 C825 1.390 1_655 S
C820 H811 0.930 . S
C820 C818 1.384 . S
C820 C821 1.376 1_655 S
C821 C820 1.376 1_455 S
C821 C822 1.397 . S
C821 C826 1.489 . S
C822 H812 0.930 . S
C822 C821 1.397 . S
C822 C825 1.386 . S
H823 C839 0.930 . S
H824 C840 0.931 . S
C825 H813 0.929 . S
C825 C819 1.390 1_455 S
C825 C822 1.386 . S
C826 C821 1.489 . S
C826 C828 1.395 . S
C826 C829 1.403 1_455 S
H827 C833 0.930 . S
C828 H814 0.930 . S
C828 C826 1.395 . S
C828 C831 1.403 . S
C829 C826 1.403 1_655 S
C829 C830 1.524 . S
C829 C833 1.400 . S
C830 H815 0.960 . S
C830 H816 0.960 . S
C830 H817 0.960 . S
C830 C829 1.524 . S
C831 C828 1.403 . S
C831 C832 1.392 . S
C831 C835 1.495 . S
C832 C831 1.392 . S
C832 C833 1.385 1_455 S
C832 C834 1.478 . S
C833 H827 0.930 . S
C833 C829 1.400 . S
C833 C832 1.385 1_655 S
C834 C832 1.478 . S
C834 C836 1.381 1_455 S
C834 C840 1.383 . S
C835 C831 1.495 . S
C835 H841 0.959 . S
C835 H842 0.961 . S
C835 H843 0.960 . S
C836 C834 1.381 1_655 S
C836 C837 1.399 . S
C836 H844 0.926 . S
C837 C836 1.399 . S
C837 C838 1.383 1_655 S
C837 H845 0.929 . S
C838 C837 1.383 1_455 S
C838 C839 1.377 . S
C839 H823 0.930 . S
C839 C838 1.377 . S
C839 C840 1.379 . S
C840 H824 0.931 . S
C840 C834 1.383 . S
C840 C839 1.379 . S
H841 C835 0.959 . S
H842 C835 0.961 . S
H843 C835 0.960 . S
H844 C836 0.926 . S
H845 C837 0.929 . S
C207 C25 0.299 . S
C226 C189 0.575 . S
C243 C65 0.249 . S
C262 C167 0.264 . S
C279 C105 0.257 . S
C298 C180 0.303 . S
C315 C4 0.261 . S
C334 C193 0.189 . S
C370 C163 0.482 . S
C351 C44 0.349 . S
C406 C176 0.461 . S
C387 C84 0.372 . S
C423 C60 2.820 . S
C442 C141 2.786 . S
C459 C100 2.973 . S
C478 C154 2.935 1_655 S
C495 C31 3.103 . S
C514 C124 2.905 . S
C550 C137 2.913 . S
C531 C71 3.116 . S
C586 C150 2.756 . S
C567 C111 2.943 . S
C603 C20 2.828 . S
C622 C128 2.790 . S
C658 C155 1.737 . S
C639 C2 1.712 . S
C675 C42 1.693 . S
C694 C129 1.765 . S
C711 C82 1.718 . S
C730 C142 1.793 . S
C766 C181 1.286 . S
C747 C63 1.265 . S
C802 C194 1.325 . S
C783 C103 1.326 . S
C819 C23 1.271 1_655 S
C838 C168 1.291 . S
