# Generated by pormake.
# Topology ssa, (4,4)-cn, num edge types: 1
# Building blocks:
#     Node 0, Type 0, BuildingBlock: ESEHIV_clean_sbu_0, # of connection points: 4
#     Node 1, Type 0, BuildingBlock: ESEHIV_clean_sbu_0, # of connection points: 4
#     Node 2, Type 0, BuildingBlock: ESEHIV_clean_sbu_0, # of connection points: 4
#     Node 3, Type 0, BuildingBlock: ESEHIV_clean_sbu_0, # of connection points: 4
#     Node 4, Type 0, BuildingBlock: ESEHIV_clean_sbu_0, # of connection points: 4
#     Node 5, Type 0, BuildingBlock: ESEHIV_clean_sbu_0, # of connection points: 4
#     Node 6, Type 1, BuildingBlock: MUDLON_clean_linker_0, # of connection points: 4
#     Node 7, Type 1, BuildingBlock: MUDLON_clean_linker_0, # of connection points: 4
#     Node 8, Type 1, BuildingBlock: MUDLON_clean_linker_0, # of connection points: 4
#     Node 9, Type 1, BuildingBlock: MUDLON_clean_linker_0, # of connection points: 4
#     Node 10, Type 1, BuildingBlock: MUDLON_clean_linker_0, # of connection points: 4
#     Node 11, Type 1, BuildingBlock: MUDLON_clean_linker_0, # of connection points: 4
#     Edge 12, Type (0, 1), BuildingBlock: XUDNAN_clean_linker_2, # of connection points: 2
#     Edge 13, Type (0, 1), BuildingBlock: XUDNAN_clean_linker_2, # of connection points: 2
#     Edge 14, Type (0, 1), BuildingBlock: XUDNAN_clean_linker_2, # of connection points: 2
#     Edge 15, Type (0, 1), BuildingBlock: XUDNAN_clean_linker_2, # of connection points: 2
#     Edge 16, Type (0, 1), BuildingBlock: XUDNAN_clean_linker_2, # of connection points: 2
#     Edge 17, Type (0, 1), BuildingBlock: XUDNAN_clean_linker_2, # of connection points: 2
#     Edge 18, Type (0, 1), BuildingBlock: XUDNAN_clean_linker_2, # of connection points: 2
#     Edge 19, Type (0, 1), BuildingBlock: XUDNAN_clean_linker_2, # of connection points: 2
#     Edge 20, Type (0, 1), BuildingBlock: XUDNAN_clean_linker_2, # of connection points: 2
#     Edge 21, Type (0, 1), BuildingBlock: XUDNAN_clean_linker_2, # of connection points: 2
#     Edge 22, Type (0, 1), BuildingBlock: XUDNAN_clean_linker_2, # of connection points: 2
#     Edge 23, Type (0, 1), BuildingBlock: XUDNAN_clean_linker_2, # of connection points: 2
#     Edge 24, Type (0, 1), BuildingBlock: XUDNAN_clean_linker_2, # of connection points: 2
#     Edge 25, Type (0, 1), BuildingBlock: XUDNAN_clean_linker_2, # of connection points: 2
#     Edge 26, Type (0, 1), BuildingBlock: XUDNAN_clean_linker_2, # of connection points: 2
#     Edge 27, Type (0, 1), BuildingBlock: XUDNAN_clean_linker_2, # of connection points: 2
#     Edge 28, Type (0, 1), BuildingBlock: XUDNAN_clean_linker_2, # of connection points: 2
#     Edge 29, Type (0, 1), BuildingBlock: XUDNAN_clean_linker_2, # of connection points: 2
#     Edge 30, Type (0, 1), BuildingBlock: XUDNAN_clean_linker_2, # of connection points: 2
#     Edge 31, Type (0, 1), BuildingBlock: XUDNAN_clean_linker_2, # of connection points: 2
#     Edge 32, Type (0, 1), BuildingBlock: XUDNAN_clean_linker_2, # of connection points: 2
#     Edge 33, Type (0, 1), BuildingBlock: XUDNAN_clean_linker_2, # of connection points: 2
#     Edge 34, Type (0, 1), BuildingBlock: XUDNAN_clean_linker_2, # of connection points: 2
#     Edge 35, Type (0, 1), BuildingBlock: XUDNAN_clean_linker_2, # of connection points: 2
# Relax obj value: 0.007
# Max RMSD: 0.103
# Mean RMSD: 0.066
data_MOF--net-ssa--node1-ESEHIV_clean_sbu_0--node2-MUDLON_clean_linker_0--edge1-XUDNAN_clean_linker_2
_symmetry_space_group_name_H-M    P1
_symmetry_Int_Tables_number       1
_symmetry_cell_setting            triclinic
loop_
_symmetry_equiv_pos_as_xyz
'x, y, z'
_cell_length_a     69.971171
_cell_length_b     73.672625
_cell_length_c     40.201315
_cell_angle_alpha  88.631954
_cell_angle_beta   90.577029
_cell_angle_gamma 121.68895
loop_
_atom_site_label
_atom_site_type_symbol
_atom_site_fract_x
_atom_site_fract_y
_atom_site_fract_z
_atom_type_partial_charge
Cu0 Cu 0.01102 0.48843 0.02463 0.0
N1 N 0.98546 0.46152 0.03174 0.0
N2 N 0.95381 0.43174 0.01715 0.0
C3 C 0.96768 0.45283 0.01119 0.0
C4 C 0.96319 0.42694 0.04268 0.0
C5 C 0.98274 0.44541 0.05171 0.0
O6 O 1.00471 0.50043 0.98543 0.0
C7 C 0.05614 0.50104 0.01254 0.0
O8 O 0.05782 0.51849 1.00017 0.0
H9 H 0.96603 0.46139 0.99021 0.0
H10 H 0.99491 0.44669 0.06983 0.0
N11 N 0.01754 0.50637 0.06045 0.0
N12 N 0.03815 0.53588 0.08975 0.0
C13 C 0.03339 0.52726 0.05934 0.0
C14 C 0.01168 0.50153 0.09269 0.0
C15 C 0.02433 0.51981 0.11088 0.0
C16 C 0.99228 0.5081 0.98949 0.0
O17 O 0.98635 0.5094 0.01981 0.0
H18 H 0.04189 0.53577 0.03669 0.0
H19 H 1.0001 0.48564 0.10248 0.0
O20 O 0.03684 0.48537 0.02076 0.0
H21 H 0.95703 0.41106 0.05285 0.0
H22 H 0.02439 0.52084 0.1377 0.0
Cu23 Cu 0.51322 0.99517 0.51509 0.0
N24 N 0.52115 0.97563 0.52884 0.0
N25 N 0.5318 0.95191 0.52494 0.0
C26 C 0.52597 0.96443 0.50823 0.0
C27 C 0.53043 0.95539 0.55747 0.0
C28 C 0.52386 0.97002 0.55978 0.0
O29 O 0.49345 0.98297 0.47737 0.0
C30 C 0.55989 0.02737 0.50759 0.0
O31 O 0.56366 0.01169 0.50855 0.0
H32 H 0.52586 0.96605 0.48142 0.0
H33 H 0.52144 0.97626 0.58236 0.0
N34 N 0.49806 0.99995 0.5483 0.0
N35 N 0.4877 0.01844 0.57869 0.0
C36 C 0.50016 0.01894 0.55286 0.0
C37 C 0.48373 0.9868 0.57203 0.0
C38 C 0.47735 0.9982 0.59094 0.0
C39 C 0.49125 0.99312 0.45318 0.0
O40 O 0.50348 0.01407 0.4521 0.0
H41 H 0.51101 0.03297 0.53772 0.0
H42 H 0.47837 0.97017 0.57539 0.0
O43 O 0.53977 0.02311 0.50618 0.0
H44 H 0.5339 0.94794 0.57822 0.0
H45 H 0.46582 0.99199 0.6118 0.0
Cu46 Cu 0.53747 0.50595 0.02372 0.0
N47 N 0.52914 0.47747 0.02992 0.0
N48 N 0.5205 0.44455 0.01748 0.0
C49 C 0.52636 0.4641 0.00548 0.0
C50 C 0.51963 0.44578 0.05088 0.0
C51 C 0.52502 0.46611 0.05846 0.0
O52 O 0.56244 0.51904 0.99222 0.0
C53 C 0.49163 0.49282 0.01642 0.0
O54 O 0.48779 0.47355 0.02197 0.0
H55 H 0.52829 0.46864 0.97936 0.0
H56 H 0.52591 0.47221 0.08301 0.0
N57 N 0.54742 0.52124 0.0631 0.0
N58 N 0.55408 0.54686 0.0984 0.0
C59 C 0.54287 0.53622 0.07111 0.0
C60 C 0.56187 0.52228 0.08651 0.0
C61 C 0.56617 0.53827 0.10822 0.0
C62 C 0.57892 0.51717 0.00075 0.0
O63 O 0.57726 0.50647 0.02827 0.0
H64 H 0.53236 0.53999 0.05628 0.0
H65 H 0.56921 0.51253 0.0874 0.0
O66 O 0.51174 0.50815 0.0112 0.0
H67 H 0.51564 0.43301 0.06866 0.0
H68 H 0.57743 0.54335 0.12932 0.0
Cu69 Cu 0.04889 0.51577 0.53794 0.0
N70 N 0.07269 0.51099 0.53724 0.0
N71 N 0.10045 0.5083 0.51594 0.0
C72 C 0.08195 0.50907 0.50936 0.0
C73 C 0.10286 0.50958 0.54928 0.0
C74 C 0.0856 0.51109 0.5624 0.0
O75 O 0.05304 0.53426 0.49976 0.0
C76 C 0.01826 0.47609 0.56372 0.0
O77 O 0.03523 0.48223 0.5842 0.0
H78 H 0.0759 0.50936 0.48458 0.0
H79 H 0.083 0.51263 0.58837 0.0
N80 N 0.0494 0.53065 0.57518 0.0
N81 N 0.03784 0.54632 0.60981 0.0
C82 C 0.03255 0.53341 0.58357 0.0
C83 C 0.06608 0.54225 0.5967 0.0
C84 C 0.05896 0.55184 0.61821 0.0
C85 C 0.07246 0.55123 0.49815 0.0
O86 O 0.08718 0.55441 0.5214 0.0
H87 H 0.01706 0.52671 0.56965 0.0
H88 H 0.08251 0.54425 0.59618 0.0
O89 O 0.02042 0.48849 0.53945 0.0
H90 H 0.11628 0.50968 0.56308 0.0
H91 H 0.06878 0.56227 0.63816 0.0
Cu92 Cu 0.54195 0.01841 0.02208 0.0
N93 N 0.53831 0.04076 0.03319 0.0
N94 N 0.53595 0.06955 0.02517 0.0
C95 C 0.54577 0.05897 0.01541 0.0
C96 C 0.52178 0.05758 0.05002 0.0
C97 C 0.52336 0.03984 0.05504 0.0
O98 O 0.56119 0.02805 0.98297 0.0
C99 C 0.50516 0.97463 0.01864 0.0
O100 O 0.52026 0.96924 0.02141 0.0
H101 H 0.55645 0.06331 0.99368 0.0
H102 H 0.51305 0.02639 0.07155 0.0
N103 N 0.55523 0.01234 0.05764 0.0
N104 N 0.56737 0.99513 0.08955 0.0
C105 C 0.56221 0.99843 0.05838 0.0
C106 C 0.55652 0.01847 0.08923 0.0
C107 C 0.564 0.00793 0.10895 0.0
C108 C 0.56521 0.01681 0.96418 0.0
O109 O 0.55525 0.99618 0.97003 0.0
H110 H 0.56266 0.99029 0.03666 0.0
H111 H 0.55122 0.02899 0.09764 0.0
O112 O 0.51152 0.99426 0.01564 0.0
H113 H 0.51009 0.06074 0.06209 0.0
H114 H 0.56544 0.00865 0.13578 0.0
Cu115 Cu 0.5195 0.48859 0.49083 0.0
N116 N 0.53919 0.51364 0.46725 0.0
N117 N 0.55334 0.5467 0.44651 0.0
C118 C 0.53512 0.52913 0.45947 0.0
C119 C 0.56946 0.54186 0.44554 0.0
C120 C 0.56067 0.52143 0.45844 0.0
O121 O 0.48913 0.48182 0.48203 0.0
C122 C 0.54426 0.50815 0.54975 0.0
O123 O 0.55221 0.52638 0.53342 0.0
H124 H 0.51918 0.52767 0.46394 0.0
H125 H 0.56957 0.51321 0.46252 0.0
N126 N 0.52219 0.46608 0.47734 0.0
N127 N 0.52718 0.439 0.48861 0.0
C128 C 0.53371 0.45931 0.49518 0.0
C129 C 0.50818 0.44968 0.45803 0.0
C130 C 0.51123 0.4329 0.46494 0.0
C131 C 0.4811 0.49237 0.49362 0.0
O132 O 0.49266 0.50693 0.5159 0.0
H133 H 0.54451 0.46814 0.51569 0.0
H134 H 0.49503 0.44911 0.44286 0.0
O135 O 0.52782 0.49128 0.53763 0.0
H136 H 0.58664 0.55259 0.43752 0.0
H137 H 0.50111 0.41691 0.45551 0.0
H138 H 0.36605 0.50796 0.26456 0.0
N139 N 0.33354 0.46936 0.24077 0.0
H140 H 0.38753 0.51402 0.31602 0.0
H141 H 0.32765 0.44049 0.28707 0.0
H142 H 0.34926 0.44634 0.33842 0.0
H143 H 0.34945 0.44706 0.21536 0.0
H144 H 0.37561 0.45703 0.16919 0.0
H145 H 0.35049 0.50572 0.20205 0.0
H146 H 0.3757 0.51545 0.15417 0.0
H147 H 0.32772 0.50066 0.26588 0.0
H148 H 0.29565 0.4431 0.2092 0.0
H149 H 0.29362 0.50174 0.2636 0.0
H150 H 0.26184 0.44482 0.20463 0.0
H151 H 0.20704 0.51331 0.25608 0.0
H152 H 0.19742 0.5234 0.3083 0.0
H153 H 0.15585 0.45686 0.33696 0.0
H154 H 0.16617 0.44697 0.28527 0.0
H155 H 0.14847 0.45384 0.22224 0.0
H156 H 0.13074 0.46189 0.17683 0.0
H157 H 0.19636 0.50853 0.1372 0.0
H158 H 0.21377 0.50161 0.18419 0.0
H159 H 0.23467 0.50792 0.23435 0.0
H160 H 0.2695 0.50798 0.23259 0.0
H161 H 0.2311 0.43894 0.23471 0.0
N162 N 0.19187 0.47276 0.23618 0.0
H163 H 0.19641 0.43925 0.23427 0.0
C164 C 0.34505 0.47373 0.27226 0.0
C165 C 0.36199 0.4945 0.2809 0.0
C166 C 0.37425 0.49793 0.31028 0.0
C167 C 0.37008 0.48064 0.33122 0.0
C168 C 0.35293 0.45995 0.32268 0.0
C169 C 0.3405 0.45659 0.29356 0.0
C170 C 0.34785 0.47546 0.21189 0.0
C171 C 0.35505 0.46194 0.20189 0.0
C172 C 0.36987 0.46764 0.17521 0.0
C173 C 0.37769 0.48699 0.15738 0.0
C174 C 0.37026 0.50052 0.16734 0.0
C175 C 0.35565 0.49491 0.19454 0.0
C176 C 0.31414 0.47144 0.23826 0.0
C177 C 0.31342 0.48829 0.2527 0.0
C178 C 0.29383 0.48903 0.25099 0.0
C179 C 0.27466 0.47326 0.23416 0.0
C180 C 0.27588 0.45695 0.21863 0.0
C181 C 0.2953 0.45601 0.22091 0.0
C182 C 0.18756 0.47936 0.26719 0.0
C183 C 0.19632 0.50096 0.27398 0.0
C184 C 0.19071 0.50669 0.30366 0.0
C185 C 0.17587 0.49088 0.32655 0.0
C186 C 0.16721 0.46933 0.31964 0.0
C187 C 0.17316 0.46367 0.29034 0.0
C188 C 0.18244 0.47698 0.20698 0.0
C189 C 0.15901 0.46578 0.20367 0.0
C190 C 0.14889 0.4703 0.17731 0.0
C191 C 0.16198 0.48589 0.15285 0.0
C192 C 0.18557 0.49674 0.15572 0.0
C193 C 0.19568 0.49258 0.18267 0.0
C194 C 0.21284 0.4735 0.23381 0.0
C195 C 0.23374 0.49281 0.23386 0.0
C196 C 0.25375 0.49279 0.23327 0.0
C197 C 0.25336 0.47346 0.23346 0.0
C198 C 0.2323 0.45419 0.2337 0.0
C199 C 0.21236 0.45428 0.23367 0.0
H200 H 0.72906 0.12469 0.75835 0.0
N201 N 0.72524 0.15415 0.72497 0.0
H202 H 0.70328 0.09913 0.80027 0.0
H203 H 0.69124 0.15564 0.75528 0.0
H204 H 0.66478 0.12966 0.79644 0.0
H205 H 0.70439 0.17333 0.696 0.0
H206 H 0.67932 0.16071 0.64825 0.0
H207 H 0.71405 0.12048 0.68844 0.0
H208 H 0.68719 0.10627 0.6433 0.0
H209 H 0.73997 0.17686 0.78317 0.0
H210 H 0.75001 0.18303 0.67644 0.0
H211 H 0.77111 0.21338 0.789 0.0
H212 H 0.78064 0.21981 0.68268 0.0
H213 H 0.89584 0.31568 0.78647 0.0
H214 H 0.90444 0.33659 0.83669 0.0
H215 H 0.84038 0.33208 0.829 0.0
H216 H 0.8324 0.31177 0.77793 0.0
H217 H 0.85036 0.33025 0.72232 0.0
H218 H 0.87171 0.35736 0.67907 0.0
H219 H 0.91326 0.33075 0.6656 0.0
H220 H 0.89191 0.30383 0.70916 0.0
H221 H 0.84902 0.26504 0.77977 0.0
H222 H 0.81406 0.23024 0.77588 0.0
H223 H 0.78838 0.25703 0.70492 0.0
N224 N 0.85997 0.30118 0.7479 0.0
H225 H 0.82303 0.29197 0.70967 0.0
C226 C 0.71201 0.14191 0.75361 0.0
C227 C 0.71535 0.12613 0.7672 0.0
C228 C 0.70043 0.1114 0.79083 0.0
C229 C 0.68165 0.11204 0.80126 0.0
C230 C 0.67905 0.1287 0.78904 0.0
C231 C 0.69411 0.14353 0.76543 0.0
C232 C 0.71148 0.14803 0.69535 0.0
C233 C 0.70116 0.15902 0.68389 0.0
C234 C 0.68646 0.1515 0.65678 0.0
C235 C 0.68088 0.13227 0.64145 0.0
C236 C 0.69132 0.12141 0.65327 0.0
C237 C 0.70661 0.12938 0.67948 0.0
C238 C 0.74146 0.17688 0.72899 0.0
C239 C 0.74812 0.18601 0.76075 0.0
C240 C 0.76617 0.207 0.76427 0.0
C241 C 0.77808 0.21949 0.73627 0.0
C242 C 0.77143 0.2107 0.70464 0.0
C243 C 0.75372 0.1896 0.70112 0.0
C244 C 0.86355 0.31216 0.77866 0.0
C245 C 0.88362 0.31909 0.79589 0.0
C246 C 0.88839 0.3309 0.82472 0.0
C247 C 0.87305 0.33597 0.83713 0.0
C248 C 0.85268 0.32867 0.82002 0.0
C249 C 0.848 0.31694 0.79095 0.0
C250 C 0.86958 0.31497 0.71891 0.0
C251 C 0.86374 0.32997 0.70955 0.0
C252 C 0.87595 0.34545 0.68475 0.0
C253 C 0.89432 0.34634 0.66908 0.0
C254 C 0.89939 0.33068 0.67748 0.0
C255 C 0.88712 0.31518 0.70211 0.0
C256 C 0.8389 0.28111 0.74481 0.0
C257 C 0.83579 0.26344 0.76355 0.0
C258 C 0.8158 0.24364 0.76146 0.0
C259 C 0.79855 0.24097 0.74011 0.0
C260 C 0.80149 0.25867 0.72146 0.0
C261 C 0.82137 0.27866 0.72412 0.0
H262 H 0.55976 0.8494 0.31095 0.0
N263 N 0.60327 0.86206 0.29637 0.0
H264 H 0.54697 0.85945 0.35957 0.0
H265 H 0.62701 0.88147 0.35016 0.0
H266 H 0.61446 0.89184 0.39882 0.0
H267 H 0.63153 0.90201 0.27615 0.0
H268 H 0.62616 0.92181 0.23106 0.0
H269 H 0.56806 0.8457 0.25295 0.0
H270 H 0.56217 0.86547 0.20826 0.0
H271 H 0.57007 0.82146 0.31727 0.0
H272 H 0.63176 0.85676 0.26122 0.0
H273 H 0.56938 0.78862 0.30851 0.0
H274 H 0.63037 0.82372 0.25017 0.0
H275 H 0.55955 0.69741 0.28953 0.0
H276 H 0.5487 0.67014 0.33327 0.0
H277 H 0.61836 0.69812 0.36031 0.0
H278 H 0.62908 0.72576 0.31682 0.0
H279 H 0.62686 0.71109 0.25036 0.0
H280 H 0.61522 0.68165 0.21348 0.0
H281 H 0.55719 0.68485 0.18492 0.0
H282 H 0.56805 0.713 0.22447 0.0
H283 H 0.56473 0.72942 0.2701 0.0
H284 H 0.56392 0.76196 0.27293 0.0
H285 H 0.63657 0.79896 0.27543 0.0
N286 N 0.6025 0.72662 0.27012 0.0
H287 H 0.63705 0.76634 0.27021 0.0
C288 C 0.59443 0.86471 0.32696 0.0
C289 C 0.57173 0.85834 0.33026 0.0
C290 C 0.56446 0.86424 0.358 0.0
C291 C 0.57971 0.87662 0.38301 0.0
C292 C 0.60219 0.88212 0.38027 0.0
C293 C 0.60943 0.87623 0.3525 0.0
C294 C 0.60025 0.87251 0.26786 0.0
C295 C 0.61651 0.89393 0.26108 0.0
C296 C 0.6133 0.90522 0.23553 0.0
C297 C 0.59364 0.89527 0.21624 0.0
C298 C 0.57759 0.87355 0.22246 0.0
C299 C 0.58085 0.86225 0.24808 0.0
C300 C 0.60129 0.84185 0.29036 0.0
C301 C 0.58341 0.82224 0.30278 0.0
C302 C 0.58289 0.80325 0.29736 0.0
C303 C 0.59993 0.80333 0.2788 0.0
C304 C 0.61726 0.82292 0.26537 0.0
C305 C 0.618 0.84188 0.27139 0.0
C306 C 0.59517 0.71382 0.30025 0.0
C307 C 0.57239 0.69834 0.30584 0.0
C308 C 0.56622 0.68263 0.3307 0.0
C309 C 0.58273 0.68198 0.34994 0.0
C310 C 0.60534 0.69823 0.34566 0.0
C311 C 0.61146 0.71409 0.32113 0.0
C312 C 0.5984 0.71429 0.24063 0.0
C313 C 0.61192 0.70578 0.23546 0.0
C314 C 0.60514 0.68881 0.21408 0.0
C315 C 0.58485 0.68023 0.19629 0.0
C316 C 0.57245 0.69029 0.199 0.0
C317 C 0.57891 0.70685 0.22135 0.0
C318 C 0.60107 0.74546 0.26917 0.0
C319 C 0.58049 0.74452 0.27031 0.0
C320 C 0.58006 0.76326 0.27252 0.0
C321 C 0.60017 0.78332 0.27445 0.0
C322 C 0.62068 0.78404 0.27319 0.0
C323 C 0.62106 0.76536 0.27037 0.0
H324 H 0.9043 0.58372 0.81474 0.0
N325 N 0.87385 0.5617 0.76872 0.0
H326 H 0.92113 0.56996 0.85349 0.0
H327 H 0.85503 0.51967 0.7864 0.0
H328 H 0.87217 0.50571 0.82451 0.0
H329 H 0.8715 0.52967 0.73244 0.0
H330 H 0.90162 0.53334 0.69803 0.0
H331 H 0.90567 0.59794 0.74007 0.0
H332 H 0.93526 0.60205 0.70312 0.0
H333 H 0.86084 0.58624 0.79409 0.0
H334 H 0.83726 0.53013 0.73576 0.0
H335 H 0.82472 0.58349 0.78748 0.0
H336 H 0.80111 0.5276 0.72774 0.0
H337 H 0.71305 0.5811 0.75983 0.0
H338 H 0.69282 0.57961 0.8104 0.0
H339 H 0.70201 0.52996 0.85106 0.0
H340 H 0.72164 0.53115 0.80055 0.0
H341 H 0.69251 0.51465 0.74944 0.0
H342 H 0.65878 0.49948 0.71541 0.0
H343 H 0.69165 0.55478 0.64929 0.0
H344 H 0.72476 0.5704 0.68503 0.0
H345 H 0.76964 0.58906 0.74108 0.0
H346 H 0.80461 0.58938 0.74545 0.0
H347 H 0.76668 0.52051 0.75412 0.0
N348 N 0.72805 0.55584 0.74453 0.0
H349 H 0.73169 0.52045 0.74831 0.0
C350 C 0.87862 0.55278 0.79754 0.0
C351 C 0.89664 0.56663 0.81783 0.0
C352 C 0.90629 0.55873 0.8398 0.0
C353 C 0.89819 0.53678 0.84158 0.0
C354 C 0.87895 0.52273 0.82323 0.0
C355 C 0.86906 0.53067 0.80163 0.0
C356 C 0.88659 0.56358 0.7395 0.0
C357 C 0.88504 0.54554 0.72556 0.0
C358 C 0.90241 0.54772 0.70558 0.0
C359 C 0.92141 0.56802 0.69847 0.0
C360 C 0.92138 0.58611 0.70906 0.0
C361 C 0.90426 0.58386 0.72967 0.0
C362 C 0.85185 0.55862 0.76518 0.0
C363 C 0.84779 0.57334 0.77974 0.0
C364 C 0.82718 0.57182 0.77563 0.0
C365 C 0.81003 0.55555 0.75649 0.0
C366 C 0.81388 0.54033 0.74265 0.0
C367 C 0.83461 0.54181 0.74704 0.0
C368 C 0.71921 0.55655 0.77645 0.0
C369 C 0.71103 0.57019 0.77996 0.0
C370 C 0.69934 0.56919 0.80862 0.0
C371 C 0.6959 0.55468 0.83457 0.0
C372 C 0.70467 0.54146 0.83155 0.0
C373 C 0.71602 0.54221 0.80266 0.0
C374 C 0.71106 0.54388 0.72001 0.0
C375 C 0.69264 0.52328 0.72721 0.0
C376 C 0.67328 0.51459 0.70756 0.0
C377 C 0.67212 0.52612 0.67995 0.0
C378 C 0.69153 0.54574 0.67099 0.0
C379 C 0.71068 0.55456 0.69099 0.0
C380 C 0.74812 0.55485 0.74458 0.0
C381 C 0.76892 0.57405 0.74354 0.0
C382 C 0.78888 0.57416 0.74641 0.0
C383 C 0.78856 0.55498 0.7508 0.0
C384 C 0.76763 0.53559 0.75069 0.0
C385 C 0.74757 0.53551 0.74752 0.0
H386 H 0.18857 0.68545 0.2839 0.0
N387 N 0.18226 0.7176 0.26248 0.0
H388 H 0.16722 0.65905 0.32737 0.0
H389 H 0.15598 0.71952 0.3077 0.0
H390 H 0.13395 0.69258 0.35106 0.0
H391 H 0.14309 0.70698 0.23541 0.0
H392 H 0.12204 0.67937 0.19434 0.0
H393 H 0.19916 0.69849 0.22532 0.0
H394 H 0.17821 0.67078 0.18445 0.0
H395 H 0.22028 0.71853 0.28573 0.0
H396 H 0.19743 0.75514 0.23249 0.0
H397 H 0.25888 0.74756 0.27864 0.0
H398 H 0.23636 0.78417 0.22408 0.0
H399 H 0.36862 0.83714 0.28503 0.0
H400 H 0.39152 0.86717 0.32121 0.0
H401 H 0.36323 0.90153 0.27518 0.0
H402 H 0.34158 0.87196 0.23789 0.0
H403 H 0.32575 0.84843 0.18386 0.0
H404 H 0.34506 0.8678 0.13284 0.0
H405 H 0.40236 0.86349 0.16165 0.0
H406 H 0.3822 0.8429 0.21096 0.0
H407 H 0.32688 0.79432 0.2319 0.0
H408 H 0.28772 0.76531 0.23843 0.0
H409 H 0.26838 0.81165 0.25105 0.0
N410 N 0.34363 0.83597 0.23406 0.0
H411 H 0.30725 0.84035 0.243 0.0
C412 C 0.17434 0.70494 0.29292 0.0
C413 C 0.17757 0.68785 0.29937 0.0
C414 C 0.16511 0.67254 0.32411 0.0
C415 C 0.14881 0.67368 0.34246 0.0
C416 C 0.14631 0.69124 0.33713 0.0
C417 C 0.15907 0.70677 0.31272 0.0
C418 C 0.17263 0.70482 0.23338 0.0
C419 C 0.15105 0.69954 0.22363 0.0
C420 C 0.13899 0.68363 0.2005 0.0
C421 C 0.14838 0.67274 0.18652 0.0
C422 C 0.17058 0.67897 0.19469 0.0
C423 C 0.1826 0.69483 0.21802 0.0
C424 C 0.20562 0.73459 0.25985 0.0
C425 C 0.22337 0.73271 0.27245 0.0
C426 C 0.2457 0.74943 0.26808 0.0
C427 C 0.25091 0.76832 0.25069 0.0
C428 C 0.23311 0.77009 0.23808 0.0
C429 C 0.21081 0.75345 0.24271 0.0
C430 C 0.35317 0.85209 0.25912 0.0
C431 C 0.36702 0.85098 0.28339 0.0
C432 C 0.38008 0.86821 0.30408 0.0
C433 C 0.37942 0.88696 0.30108 0.0
C434 C 0.36454 0.88756 0.27785 0.0
C435 C 0.35174 0.87043 0.25687 0.0
C436 C 0.35251 0.84403 0.20114 0.0
C437 C 0.34215 0.85104 0.17854 0.0
C438 C 0.35343 0.86245 0.14952 0.0
C439 C 0.37552 0.86757 0.14292 0.0
C440 C 0.3853 0.85965 0.16507 0.0
C441 C 0.37384 0.8479 0.19356 0.0
C442 C 0.32017 0.81951 0.2372 0.0
C443 C 0.31412 0.79815 0.2359 0.0
C444 C 0.29173 0.78159 0.23997 0.0
C445 C 0.27477 0.78603 0.24562 0.0
C446 C 0.28086 0.80754 0.24644 0.0
C447 C 0.30327 0.82409 0.2421 0.0
H448 H 0.44701 0.12462 0.76726 0.0
N449 N 0.47762 0.16508 0.77947 0.0
H450 H 0.44808 0.10217 0.72426 0.0
H451 H 0.50831 0.17867 0.72865 0.0
H452 H 0.50964 0.15632 0.68566 0.0
H453 H 0.52011 0.17231 0.78474 0.0
H454 H 0.53553 0.16311 0.83203 0.0
H455 H 0.45878 0.15062 0.83907 0.0
H456 H 0.47466 0.14276 0.88779 0.0
H457 H 0.45865 0.17747 0.73325 0.0
H458 H 0.50785 0.20228 0.81218 0.0
H459 H 0.46319 0.21238 0.72561 0.0
H460 H 0.51103 0.23632 0.8063 0.0
H461 H 0.46553 0.31853 0.72403 0.0
H462 H 0.47858 0.34168 0.67429 0.0
H463 H 0.54246 0.34581 0.68146 0.0
H464 H 0.52957 0.32349 0.73178 0.0
H465 H 0.52807 0.33742 0.78764 0.0
H466 H 0.53276 0.3571 0.83848 0.0
H467 H 0.46112 0.31905 0.85539 0.0
H468 H 0.45663 0.2996 0.80447 0.0
H469 H 0.45387 0.26742 0.74839 0.0
H470 H 0.45286 0.23381 0.75049 0.0
H471 H 0.52318 0.26798 0.77759 0.0
N472 N 0.4882 0.30609 0.76144 0.0
H473 H 0.5233 0.30116 0.77789 0.0
C474 C 0.47743 0.15327 0.75108 0.0
C475 C 0.46049 0.13168 0.74912 0.0
C476 C 0.46128 0.11886 0.72479 0.0
C477 C 0.47904 0.12742 0.70171 0.0
C478 C 0.49564 0.14928 0.70291 0.0
C479 C 0.49491 0.16209 0.72746 0.0
C480 C 0.48799 0.1616 0.80816 0.0
C481 C 0.51 0.16569 0.80701 0.0
C482 C 0.51896 0.16071 0.83443 0.0
C483 C 0.50633 0.152 0.86388 0.0
C484 C 0.48471 0.14893 0.86536 0.0
C485 C 0.47563 0.15356 0.83768 0.0
C486 C 0.48298 0.18679 0.77289 0.0
C487 C 0.47062 0.19039 0.74869 0.0
C488 C 0.47297 0.21039 0.74474 0.0
C489 C 0.4873 0.22732 0.7656 0.0
C490 C 0.50008 0.22392 0.78932 0.0
C491 C 0.49808 0.20407 0.79283 0.0
C492 C 0.4964 0.31914 0.73154 0.0
C493 C 0.48231 0.32441 0.7147 0.0
C494 C 0.48977 0.3375 0.68613 0.0
C495 C 0.51157 0.34555 0.67364 0.0
C496 C 0.52566 0.34011 0.69051 0.0
C497 C 0.51821 0.32713 0.71925 0.0
C498 C 0.4919 0.31709 0.79222 0.0
C499 C 0.51341 0.33327 0.80235 0.0
C500 C 0.51606 0.34456 0.83134 0.0
C501 C 0.49731 0.33966 0.85094 0.0
C502 C 0.47593 0.32309 0.84107 0.0
C503 C 0.4733 0.312 0.81199 0.0
C504 C 0.48862 0.28675 0.76262 0.0
C505 C 0.46901 0.26754 0.75482 0.0
C506 C 0.4686 0.24837 0.75566 0.0
C507 C 0.48802 0.248 0.76386 0.0
C508 C 0.50779 0.26744 0.77152 0.0
C509 C 0.50801 0.28657 0.7713 0.0
H510 H 0.05887 0.46819 0.04124 0.0
H511 H 0.09951 0.53504 0.01143 0.0
H512 H 0.13221 0.53757 0.03974 0.0
H513 H 0.07982 0.47336 0.12039 0.0
H514 H 0.07979 0.44887 0.12182 0.0
H515 H 0.06035 0.45125 0.09524 0.0
H516 H 0.07516 0.44146 0.04414 0.0
H517 H 0.09447 0.43874 0.07068 0.0
H518 H 0.1048 0.45649 0.03481 0.0
H519 H 0.1586 0.53434 0.07868 0.0
H520 H 0.17757 0.52496 0.12128 0.0
H521 H 0.12091 0.45942 0.1225 0.0
C522 C 0.07481 0.4832 0.0398 0.0
C523 C 0.07658 0.50139 0.02396 0.0
C524 C 0.0977 0.52082 0.02312 0.0
C525 C 0.11641 0.52244 0.03923 0.0
C526 C 0.11387 0.50442 0.05565 0.0
C527 C 0.09371 0.48506 0.05551 0.0
C528 C 0.09507 0.46848 0.07674 0.0
C529 C 0.07773 0.46 0.10522 0.0
C530 C 0.09221 0.45021 0.05531 0.0
C531 C 0.11884 0.48176 0.08982 0.0
C532 C 0.12942 0.50242 0.07727 0.0
C533 C 0.15072 0.51805 0.08796 0.0
C534 C 0.16146 0.51247 0.11216 0.0
C535 C 0.15103 0.49132 0.1254 0.0
C536 C 0.1295 0.47578 0.11341 0.0
H537 H 0.60496 0.04266 0.51343 0.0
H538 H 0.55555 0.06073 0.52509 0.0
H539 H 0.58359 0.09313 0.55387 0.0
H540 H 0.6276 0.05566 0.58943 0.0
H541 H 0.65653 0.06649 0.578 0.0
H542 H 0.63446 0.04714 0.5521 0.0
H543 H 0.65062 0.07313 0.50126 0.0
H544 H 0.67308 0.09252 0.52689 0.0
H545 H 0.65557 0.09965 0.50409 0.0
H546 H 0.61343 0.11827 0.59241 0.0
H547 H 0.64422 0.13665 0.63216 0.0
H548 H 0.67655 0.10536 0.59079 0.0
C549 C 0.6003 0.05385 0.52086 0.0
C550 C 0.57802 0.04908 0.51701 0.0
C551 C 0.57251 0.06402 0.52753 0.0
C552 C 0.58835 0.08252 0.54398 0.0
C553 C 0.60981 0.08617 0.54899 0.0
C554 C 0.61602 0.07257 0.53693 0.0
C555 C 0.63951 0.07916 0.54817 0.0
C556 C 0.6395 0.06103 0.56811 0.0
C557 C 0.65565 0.08656 0.51832 0.0
C558 C 0.6449 0.09769 0.57015 0.0
C559 C 0.62764 0.10158 0.57007 0.0
C560 C 0.62747 0.11597 0.59173 0.0
C561 C 0.64527 0.12649 0.61424 0.0
C562 C 0.66328 0.12283 0.61488 0.0
C563 C 0.66318 0.1086 0.59162 0.0
H564 H 0.59042 0.58458 0.11614 0.0
H565 H 0.51782 0.54942 0.11076 0.0
H566 H 0.51759 0.58035 0.13327 0.0
H567 H 0.59687 0.61258 0.19112 0.0
H568 H 0.62122 0.63716 0.17666 0.0
H569 H 0.61546 0.6121 0.1609 0.0
H570 H 0.61618 0.62575 0.10062 0.0
H571 H 0.62184 0.65083 0.11623 0.0
H572 H 0.598 0.63544 0.0896 0.0
H573 H 0.52545 0.61429 0.15968 0.0
H574 H 0.5404 0.64907 0.18531 0.0
H575 H 0.6084 0.66409 0.16628 0.0
C576 C 0.57453 0.58344 0.12004 0.0
C577 C 0.55409 0.56465 0.11229 0.0
C578 C 0.53358 0.56373 0.11683 0.0
C579 C 0.53333 0.58118 0.12952 0.0
C580 C 0.55379 0.59957 0.13681 0.0
C581 C 0.57403 0.60092 0.13187 0.0
C582 C 0.59365 0.62275 0.14072 0.0
C583 C 0.60761 0.62104 0.16903 0.0
C584 C 0.60828 0.63438 0.10995 0.0
C585 C 0.58127 0.6333 0.15215 0.0
C586 C 0.55832 0.61963 0.14988 0.0
C587 C 0.54342 0.62531 0.16095 0.0
C588 C 0.5522 0.64537 0.17519 0.0
C589 C 0.57577 0.65984 0.17782 0.0
C590 C 0.59035 0.65363 0.16532 0.0
H591 H 0.99235 0.52802 0.60478 0.0
H592 H 0.05224 0.58135 0.64791 0.0
H593 H 0.02912 0.59371 0.67254 0.0
H594 H 0.96502 0.55739 0.58406 0.0
H595 H 0.93734 0.53508 0.59393 0.0
H596 H 0.95865 0.5305 0.57912 0.0
H597 H 0.95304 0.50694 0.63142 0.0
H598 H 0.93171 0.5114 0.64635 0.0
H599 H 0.95556 0.51772 0.67214 0.0
H600 H 0.99941 0.59943 0.69458 0.0
H601 H 0.9653 0.59788 0.71328 0.0
H602 H 0.92482 0.5424 0.6523 0.0
C603 C 1.00076 0.54246 0.61898 0.0
C604 C 0.02427 0.55363 0.62429 0.0
C605 C 0.03432 0.57225 0.64371 0.0
C606 C 0.02132 0.57955 0.65762 0.0
C607 C 0.99828 0.56818 0.65174 0.0
C608 C 0.98808 0.55007 0.63284 0.0
C609 C 0.96292 0.54054 0.6309 0.0
C610 C 0.95556 0.54091 0.59486 0.0
C611 C 0.95006 0.51781 0.64611 0.0
C612 C 0.96055 0.55598 0.65212 0.0
C613 C 0.98117 0.57183 0.66378 0.0
C614 C 0.98319 0.58731 0.68516 0.0
C615 C 0.96361 0.58639 0.69536 0.0
C616 C 0.94213 0.57018 0.68403 0.0
C617 C 0.94081 0.555 0.66163 0.0
H618 H 0.48631 0.93214 0.03471 0.0
H619 H 0.47006 0.98114 0.02094 0.0
H620 H 0.43222 0.95651 0.04385 0.0
H621 H 0.42784 0.88505 0.01809 0.0
H622 H 0.431 0.86901 0.04961 0.0
H623 H 0.45513 0.88897 0.02627 0.0
H624 H 0.47546 0.9061 0.0814 0.0
H625 H 0.4514 0.88643 0.10485 0.0
H626 H 0.46228 0.91439 0.11061 0.0
H627 H 0.39939 0.92947 0.07786 0.0
H628 H 0.37354 0.90167 0.11758 0.0
H629 H 0.4095 0.86877 0.10619 0.0
C630 C 0.47455 0.93746 0.03539 0.0
C631 C 0.48121 0.9586 0.02591 0.0
C632 C 0.46538 0.96502 0.02784 0.0
C633 C 0.44379 0.95111 0.04082 0.0
C634 C 0.43811 0.93069 0.05129 0.0
C635 C 0.45289 0.92373 0.04817 0.0
C636 C 0.44347 0.90181 0.06422 0.0
C637 C 0.4391 0.88523 0.03797 0.0
C638 C 0.45908 0.90223 0.0919 0.0
C639 C 0.42165 0.89804 0.07836 0.0
C640 C 0.41873 0.91476 0.07028 0.0
C641 C 0.40112 0.91596 0.08351 0.0
C642 C 0.38635 0.89991 0.10603 0.0
C643 C 0.38916 0.88271 0.11518 0.0
C644 C 0.40676 0.88162 0.10015 0.0
H645 H 0.49722 0.39795 0.50756 0.0
H646 H 0.56591 0.45012 0.52046 0.0
H647 H 0.57079 0.42987 0.56615 0.0
H648 H 0.48438 0.38728 0.58999 0.0
H649 H 0.46692 0.35867 0.58731 0.0
H650 H 0.46988 0.3753 0.55184 0.0
H651 H 0.4835 0.35554 0.5158 0.0
H652 H 0.48021 0.33854 0.55106 0.0
H653 H 0.50684 0.35341 0.52973 0.0
H654 H 0.56642 0.40636 0.61519 0.0
H655 H 0.55361 0.38095 0.66283 0.0
H656 H 0.48788 0.34355 0.61725 0.0
C657 C 0.51358 0.40472 0.51898 0.0
C658 C 0.5313 0.42551 0.51018 0.0
C659 C 0.55219 0.43416 0.52672 0.0
C660 C 0.55511 0.42276 0.55263 0.0
C661 C 0.53702 0.40263 0.56156 0.0
C662 C 0.51673 0.39356 0.54497 0.0
C663 C 0.49927 0.37266 0.56151 0.0
C664 C 0.47893 0.37355 0.57336 0.0
C665 C 0.49204 0.35393 0.53813 0.0
C666 C 0.51268 0.37177 0.59062 0.0
C667 C 0.53448 0.38907 0.58999 0.0
C668 C 0.54954 0.39248 0.61555 0.0
C669 C 0.54211 0.37789 0.6425 0.0
C670 C 0.51975 0.3601 0.64383 0.0
C671 C 0.50503 0.35698 0.61718 0.0
H672 H 0.52392 0.93626 0.46206 0.0
H673 H 0.5565 0.93738 0.55519 0.0
H674 H 0.57018 0.91606 0.53015 0.0
H675 H 0.50766 0.88278 0.4383 0.0
H676 H 0.51348 0.89 0.3948 0.0
H677 H 0.50483 0.90401 0.42081 0.0
H678 H 0.54051 0.93996 0.4038 0.0
H679 H 0.54922 0.92608 0.37767 0.0
H680 H 0.56775 0.94328 0.40957 0.0
H681 H 0.58218 0.89623 0.49378 0.0
H682 H 0.59162 0.87978 0.44901 0.0
H683 H 0.55222 0.89281 0.37943 0.0
C684 C 0.53392 0.9321 0.47734 0.0
C685 C 0.53903 0.93861 0.51078 0.0
C686 C 0.552 0.93244 0.52975 0.0
C687 C 0.55996 0.92037 0.51567 0.0
C688 C 0.55481 0.91449 0.48257 0.0
C689 C 0.54206 0.92014 0.46367 0.0
C690 C 0.53966 0.91262 0.42827 0.0
C691 C 0.51494 0.89639 0.42008 0.0
C692 C 0.5499 0.93162 0.40337 0.0
C693 C 0.55332 0.90211 0.43006 0.0
C694 C 0.56181 0.90322 0.46163 0.0
C695 C 0.57554 0.89519 0.46901 0.0
C696 C 0.5809 0.88597 0.44337 0.0
C697 C 0.57262 0.88491 0.41068 0.0
C698 C 0.55848 0.89296 0.40423 0.0
H699 H 0.58535 0.5283 0.93369 0.0
H700 H 0.61967 0.52669 0.02326 0.0
H701 H 0.65416 0.53907 0.99097 0.0
H702 H 0.60908 0.50792 0.88106 0.0
H703 H 0.61186 0.52428 0.84517 0.0
H704 H 0.59036 0.51764 0.87563 0.0
H705 H 0.60556 0.5578 0.88335 0.0
H706 H 0.62711 0.56457 0.85278 0.0
H707 H 0.6347 0.57557 0.89378 0.0
H708 H 0.6837 0.54813 0.94922 0.0
H709 H 0.707 0.55408 0.8996 0.0
H710 H 0.65441 0.55016 0.83635 0.0
C711 C 0.6003 0.53103 0.94651 0.0
C712 C 0.59984 0.52659 0.98099 0.0
C713 C 0.61959 0.52993 0.99685 0.0
C714 C 0.63933 0.53705 0.97877 0.0
C715 C 0.63915 0.54082 0.94476 0.0
C716 C 0.62025 0.53805 0.92869 0.0
C717 C 0.62432 0.54189 0.89147 0.0
C718 C 0.60793 0.52173 0.87221 0.0
C719 C 0.62284 0.56111 0.87966 0.0
C720 C 0.64823 0.54677 0.88925 0.0
C721 C 0.65646 0.5462 0.92037 0.0
C722 C 0.67759 0.54892 0.92472 0.0
C723 C 0.69065 0.55218 0.89645 0.0
C724 C 0.68255 0.55273 0.86429 0.0
C725 C 0.66117 0.55023 0.86074 0.0
H726 H 0.11481 0.5812 0.4785 0.0
H727 H 0.04486 0.55831 0.45767 0.0
H728 H 0.05671 0.58784 0.41616 0.0
H729 H 0.13556 0.63664 0.47264 0.0
H730 H 0.16157 0.64341 0.45284 0.0
H731 H 0.14748 0.62038 0.48027 0.0
H732 H 0.14672 0.59637 0.43354 0.0
H733 H 0.16101 0.61936 0.40606 0.0
H734 H 0.1346 0.59646 0.3938 0.0
H735 H 0.07679 0.62126 0.37885 0.0
H736 H 0.10299 0.65325 0.34497 0.0
H737 H 0.15951 0.65305 0.38977 0.0
C738 C 0.10193 0.58232 0.46516 0.0
C739 C 0.0789 0.56756 0.4714 0.0
C740 C 0.06259 0.56943 0.45316 0.0
C741 C 0.06918 0.5862 0.42971 0.0
C742 C 0.0921 0.60072 0.42464 0.0
C743 C 0.10819 0.5987 0.44156 0.0
C744 C 0.13171 0.61605 0.43133 0.0
C745 C 0.14484 0.62994 0.46104 0.0
C746 C 0.14424 0.60648 0.41522 0.0
C747 C 0.12646 0.62836 0.40612 0.0
C748 C 0.10354 0.61941 0.40275 0.0
C749 C 0.09474 0.62831 0.38123 0.0
C750 C 0.10974 0.64657 0.36231 0.0
C751 C 0.13326 0.65563 0.36484 0.0
C752 C 0.14162 0.6464 0.38722 0.0
H753 H 0.49986 0.07011 0.00282 0.0
H754 H 0.5725 0.10648 0.00436 0.0
H755 H 0.57289 0.13423 0.96757 0.0
H756 H 0.4955 0.07817 0.91822 0.0
H757 H 0.47052 0.07938 0.92146 0.0
H758 H 0.47601 0.06448 0.95203 0.0
H759 H 0.47322 0.08651 0.99898 0.0
H760 H 0.46767 0.10149 0.96847 0.0
H761 H 0.49065 0.11522 0.99717 0.0
H762 H 0.56505 0.15667 0.92802 0.0
H763 H 0.55018 0.17067 0.88546 0.0
H764 H 0.48265 0.11729 0.90614 0.0
C765 C 0.51577 0.08429 0.99622 0.0
C766 C 0.53617 0.08661 0.00689 0.0
C767 C 0.55678 0.10479 0.99669 0.0
C768 C 0.5571 0.12055 0.97596 0.0
C769 C 0.53664 0.11765 0.96539 0.0
C770 C 0.51636 0.09987 0.975 0.0
C771 C 0.49687 0.09921 0.95715 0.0
C772 C 0.48398 0.07913 0.93596 0.0
C773 C 0.48118 0.10071 0.98193 0.0
C774 C 0.50934 0.11922 0.93561 0.0
C775 C 0.53221 0.12986 0.94116 0.0
C776 C 0.54716 0.14846 0.92347 0.0
C777 C 0.53854 0.15617 0.89909 0.0
C778 C 0.51519 0.14507 0.8921 0.0
C779 C 0.5005 0.12649 0.91109 0.0
H780 H 0.45415 0.46478 0.44537 0.0
H781 H 0.46388 0.51775 0.50392 0.0
H782 H 0.43462 0.51907 0.47102 0.0
H783 H 0.44799 0.48405 0.36883 0.0
H784 H 0.42677 0.45848 0.35316 0.0
H785 H 0.44658 0.46007 0.3836 0.0
H786 H 0.41393 0.43367 0.42255 0.0
H787 H 0.39395 0.43183 0.39207 0.0
H788 H 0.3928 0.43939 0.43397 0.0
H789 H 0.40735 0.51724 0.42745 0.0
H790 H 0.38245 0.51072 0.37915 0.0
H791 H 0.39017 0.45863 0.34997 0.0
C792 C 0.4498 0.47636 0.45183 0.0
C793 C 0.46131 0.49112 0.47737 0.0
C794 C 0.45523 0.50616 0.48468 0.0
C795 C 0.43865 0.50708 0.46605 0.0
C796 C 0.42812 0.4927 0.44042 0.0
C797 C 0.43325 0.47743 0.43361 0.0
C798 C 0.42033 0.46452 0.40371 0.0
C799 C 0.43638 0.46694 0.37568 0.0
C800 C 0.4043 0.44095 0.41368 0.0
C801 C 0.4075 0.47522 0.39427 0.0
C802 C 0.41217 0.49141 0.41575 0.0
C803 C 0.40331 0.50438 0.41079 0.0
C804 C 0.38931 0.50066 0.38322 0.0
C805 C 0.38422 0.48405 0.36104 0.0
C806 C 0.39337 0.47114 0.36691 0.0
H807 H 0.94333 0.39216 0.99958 0.0
H808 H 0.92458 0.43923 0.98467 0.0
H809 H 0.89795 0.41726 0.94077 0.0
H810 H 0.94496 0.38238 0.91713 0.0
H811 H 0.93377 0.35414 0.92176 0.0
H812 H 0.94835 0.37148 0.95581 0.0
H813 H 0.91379 0.34886 0.9941 0.0
H814 H 0.89914 0.33124 0.96021 0.0
H815 H 0.8867 0.34387 0.98134 0.0
H816 H 0.87746 0.39283 0.89376 0.0
H817 H 0.86443 0.36774 0.84744 0.0
H818 H 0.89579 0.33591 0.89351 0.0
C819 C 0.93298 0.39741 0.98796 0.0
C820 C 0.93582 0.41729 0.99571 0.0
C821 C 0.92258 0.42402 0.97909 0.0
C822 C 0.90737 0.41161 0.95425 0.0
C823 C 0.9055 0.39242 0.9464 0.0
C824 C 0.9178 0.38524 0.96295 0.0
C825 C 0.91433 0.36515 0.94754 0.0
C826 C 0.93668 0.36851 0.9348 0.0
C827 C 0.9028 0.34615 0.97227 0.0
C828 C 0.89884 0.36262 0.91904 0.0
C829 C 0.89369 0.37832 0.91909 0.0
C830 C 0.88097 0.38017 0.89385 0.0
C831 C 0.87355 0.36575 0.86767 0.0
C832 C 0.87894 0.34971 0.86677 0.0
C833 C 0.89142 0.34799 0.89327 0.0
H834 H 0.9728 0.53189 0.98892 0.0
H835 H 0.98627 0.49271 0.92623 0.0
H836 H 0.96309 0.49531 0.88165 0.0
H837 H 0.91629 0.51022 0.96643 0.0
H838 H 0.91733 0.53518 0.9668 0.0
H839 H 0.93597 0.5313 0.99299 0.0
H840 H 0.9704 0.56496 0.96676 0.0
H841 H 0.95185 0.56917 0.94086 0.0
H842 H 0.97396 0.56715 0.92219 0.0
H843 H 0.93593 0.50001 0.84574 0.0
H844 H 0.91075 0.50997 0.81859 0.0
H845 H 0.91595 0.54678 0.90454 0.0
C846 C 0.97117 0.52412 0.96562 0.0
C847 C 0.98137 0.51212 0.96098 0.0
C848 C 0.9788 0.50217 0.93017 0.0
C849 C 0.96553 0.50343 0.90483 0.0
C850 C 0.95519 0.51491 0.91061 0.0
C851 C 0.95822 0.5254 0.94004 0.0
C852 C 0.94528 0.53664 0.94017 0.0
C853 C 0.92768 0.5278 0.96827 0.0
C854 C 0.96133 0.56092 0.94263 0.0
C855 C 0.93424 0.53064 0.90635 0.0
C856 C 0.94001 0.51796 0.88977 0.0
C857 C 0.93142 0.51003 0.85842 0.0
C858 C 0.91696 0.5156 0.84335 0.0
C859 C 0.91134 0.52908 0.85952 0.0
C860 C 0.92001 0.53652 0.89155 0.0
H861 H 0.4607 0.95014 0.45207 0.0
H862 H 0.48452 0.00875 0.39429 0.0
H863 H 0.45736 0.98818 0.34992 0.0
H864 H 0.45309 0.91689 0.38442 0.0
H865 H 0.42808 0.89394 0.40142 0.0
H866 H 0.44889 0.9134 0.42884 0.0
H867 H 0.41856 0.91844 0.45592 0.0
H868 H 0.39764 0.89898 0.42857 0.0
H869 H 0.40202 0.92534 0.43004 0.0
H870 H 0.42873 0.96076 0.3108 0.0
H871 H 0.40089 0.92905 0.28029 0.0
H872 H 0.39463 0.88872 0.36531 0.0
C873 C 0.46021 0.95873 0.43016 0.0
C874 C 0.47479 0.98109 0.42664 0.0
C875 C 0.47352 0.99165 0.39757 0.0
C876 C 0.45814 0.98009 0.37225 0.0
C877 C 0.44407 0.95805 0.37653 0.0
C878 C 0.44493 0.94751 0.40485 0.0
C879 C 0.42824 0.92372 0.40328 0.0
C880 C 0.4403 0.91126 0.40455 0.0
C881 C 0.41057 0.91618 0.4311 0.0
C882 C 0.41799 0.92243 0.36944 0.0
C883 C 0.42732 0.94239 0.3544 0.0
C884 C 0.4211 0.94509 0.32253 0.0
C885 C 0.40507 0.92693 0.3055 0.0
C886 C 0.39527 0.90624 0.32037 0.0
C887 C 0.40179 0.90417 0.35298 0.0
H888 H 0.53568 0.44446 0.95518 0.0
H889 H 0.49426 0.40276 0.03637 0.0
H890 H 0.48538 0.3714 0.00361 0.0
H891 H 0.49973 0.41274 0.88961 0.0
H892 H 0.52239 0.41832 0.86194 0.0
H893 H 0.52638 0.43751 0.89245 0.0
H894 H 0.56084 0.43719 0.91583 0.0
H895 H 0.55691 0.41793 0.88545 0.0
H896 H 0.55776 0.41224 0.92911 0.0
H897 H 0.47955 0.34447 0.96102 0.0
H898 H 0.47747 0.32402 0.91184 0.0
H899 H 0.52237 0.38318 0.85815 0.0
C900 C 0.52469 0.42877 0.96613 0.0
C901 C 0.51572 0.42619 0.99853 0.0
C902 C 0.50163 0.40527 0.01189 0.0
C903 C 0.49638 0.38731 0.99338 0.0
C904 C 0.50542 0.39047 0.96152 0.0
C905 C 0.51931 0.41068 0.94801 0.0
C906 C 0.52642 0.40968 0.91292 0.0
C907 C 0.51823 0.42018 0.88775 0.0
C908 C 0.552 0.41986 0.91072 0.0
C909 C 0.51414 0.38574 0.90867 0.0
C910 C 0.50216 0.37495 0.93703 0.0
C911 C 0.48894 0.35275 0.93873 0.0
C912 C 0.48779 0.34128 0.91063 0.0
C913 C 0.49978 0.35198 0.88117 0.0
C914 C 0.51329 0.37452 0.88045 0.0
H915 H 0.08889 0.48594 0.45912 0.0
H916 H 0.14587 0.53024 0.51854 0.0
H917 H 0.17176 0.53111 0.47606 0.0
H918 H 0.11303 0.45576 0.43173 0.0
H919 H 0.10065 0.45135 0.39092 0.0
H920 H 0.08682 0.45456 0.42583 0.0
H921 H 0.08657 0.48557 0.39438 0.0
H922 H 0.10047 0.4825 0.35944 0.0
H923 H 0.11264 0.50802 0.37896 0.0
H924 H 0.19133 0.52832 0.42546 0.0
H925 H 0.203 0.51947 0.37331 0.0
H926 H 0.13313 0.47547 0.34874 0.0
C927 C 0.10683 0.49581 0.46307 0.0
C928 C 0.11546 0.50808 0.49196 0.0
C929 C 0.13899 0.52062 0.49664 0.0
C930 C 0.15378 0.5213 0.47259 0.0
C931 C 0.14472 0.50909 0.44424 0.0
C932 C 0.12178 0.49636 0.43962 0.0
C933 C 0.11633 0.48428 0.4075 0.0
C934 C 0.10345 0.46006 0.41442 0.0
C935 C 0.10323 0.49047 0.38367 0.0
C936 C 0.13977 0.49235 0.39457 0.0
C937 C 0.15594 0.50681 0.41593 0.0
C938 C 0.17881 0.51688 0.40871 0.0
C939 C 0.18529 0.51185 0.37904 0.0
C940 C 0.16897 0.4967 0.35727 0.0
C941 C 0.14595 0.48691 0.3652 0.0
H942 H 0.58969 0.05948 0.94703 0.0
H943 H 0.57833 0.99797 0.91915 0.0
H944 H 0.60665 0.01566 0.87442 0.0
H945 H 0.59757 0.0819 0.86374 0.0
H946 H 0.61921 0.10831 0.87581 0.0
H947 H 0.59777 0.09077 0.90523 0.0
H948 H 0.62839 0.09523 0.9468 0.0
H949 H 0.64994 0.11275 0.91752 0.0
H950 H 0.64911 0.08934 0.9338 0.0
H951 H 0.63649 0.04006 0.83322 0.0
H952 H 0.66543 0.06926 0.798 0.0
H953 H 0.65795 0.1151 0.8533 0.0
C954 C 0.59305 0.04967 0.93146 0.0
C955 C 0.58172 0.02727 0.93664 0.0
C956 C 0.58673 0.01511 0.9157 0.0
C957 C 0.6028 0.02502 0.89022 0.0
C958 C 0.61373 0.04712 0.88597 0.0
C959 C 0.60905 0.05929 0.90596 0.0
C960 C 0.62334 0.08279 0.8964 0.0
C961 C 0.60859 0.09145 0.88459 0.0
C962 C 0.6386 0.09578 0.92535 0.0
C963 C 0.63687 0.08195 0.86793 0.0
C964 C 0.63105 0.06121 0.86235 0.0
C965 C 0.64125 0.05637 0.83746 0.0
C966 C 0.65784 0.07313 0.81775 0.0
C967 C 0.66421 0.09458 0.82299 0.0
C968 C 0.65344 0.09892 0.84846 0.0
H969 H 0.58371 0.57791 0.40423 0.0
H970 H 0.52766 0.56148 0.46984 0.0
H971 H 0.53017 0.59508 0.45415 0.0
H972 H 0.61532 0.63484 0.42149 0.0
H973 H 0.62515 0.6425 0.37922 0.0
H974 H 0.61934 0.61723 0.39618 0.0
H975 H 0.59192 0.59771 0.34762 0.0
H976 H 0.59768 0.6229 0.3305 0.0
H977 H 0.56917 0.60201 0.33974 0.0
H978 H 0.53728 0.62961 0.42908 0.0
H979 H 0.54935 0.66306 0.39692 0.0
H980 H 0.60172 0.65783 0.34993 0.0
C981 C 0.57215 0.58146 0.41565 0.0
C982 C 0.55536 0.5668 0.43805 0.0
C983 C 0.54039 0.57208 0.45208 0.0
C984 C 0.54179 0.59129 0.44358 0.0
C985 C 0.55839 0.60524 0.42125 0.0
C986 C 0.57339 0.60065 0.40761 0.0
C987 C 0.58935 0.61821 0.38366 0.0
C988 C 0.61374 0.62882 0.39588 0.0
C989 C 0.58687 0.60969 0.34829 0.0
C990 C 0.58079 0.63323 0.38572 0.0
C991 C 0.56291 0.62547 0.40754 0.0
C992 C 0.55145 0.63601 0.41224 0.0
C993 C 0.55836 0.65492 0.3939 0.0
C994 C 0.57664 0.66311 0.37144 0.0
C995 C 0.58806 0.65218 0.36761 0.0
H996 H 0.47685 0.02362 0.6414 0.0
H997 H 0.49526 0.05345 0.54301 0.0
H998 H 0.49469 0.08436 0.56358 0.0
H999 H 0.43867 0.04136 0.66123 0.0
H1000 H 0.44675 0.0456 0.7044 0.0
H1001 H 0.44826 0.02557 0.68179 0.0
H1002 H 0.49029 0.04322 0.69738 0.0
H1003 H 0.48892 0.06333 0.71996 0.0
H1004 H 0.50944 0.07106 0.68734 0.0
H1005 H 0.49324 0.11268 0.59518 0.0
H1006 H 0.49 0.1358 0.63543 0.0
H1007 H 0.47194 0.0874 0.71293 0.0
C1008 C 0.48048 0.03649 0.62404 0.0
C1009 C 0.48625 0.03605 0.59057 0.0
C1010 C 0.49117 0.05347 0.56887 0.0
C1011 C 0.49075 0.07109 0.58027 0.0
C1012 C 0.48525 0.07111 0.61345 0.0
C1013 C 0.48009 0.05423 0.635 0.0
C1014 C 0.47503 0.05839 0.6696 0.0
C1015 C 0.45073 0.04174 0.67985 0.0
C1016 C 0.49193 0.05904 0.69506 0.0
C1017 C 0.47825 0.08026 0.66411 0.0
C1018 C 0.48416 0.08732 0.63156 0.0
C1019 C 0.48852 0.10727 0.62073 0.0
C1020 C 0.48675 0.12034 0.64378 0.0
C1021 C 0.48062 0.11339 0.67727 0.0
C1022 C 0.4763 0.09304 0.68739 0.0
H1023 H 0.44725 0.46404 0.02943 0.0
H1024 H 0.49691 0.53193 0.02736 0.0
H1025 H 0.47063 0.53851 0.05738 0.0
H1026 H 0.39608 0.46918 0.02307 0.0
H1027 H 0.38041 0.44648 0.05078 0.0
H1028 H 0.40135 0.44771 0.02343 0.0
H1029 H 0.42099 0.44226 0.07426 0.0
H1030 H 0.40047 0.44142 0.1018 0.0
H1031 H 0.42989 0.46051 0.10824 0.0
H1032 H 0.44213 0.53678 0.09733 0.0
H1033 H 0.41284 0.52725 0.13952 0.0
H1034 H 0.38055 0.46073 0.11253 0.0
C1035 C 0.4523 0.48038 0.03412 0.0
C1036 C 0.4742 0.49744 0.02606 0.0
C1037 C 0.48023 0.51857 0.0331 0.0
C1038 C 0.46538 0.52248 0.05022 0.0
C1039 C 0.44437 0.50515 0.05945 0.0
C1040 C 0.43763 0.48455 0.05092 0.0
C1041 C 0.41508 0.46852 0.06632 0.0
C1042 C 0.39717 0.45731 0.03928 0.0
C1043 C 0.41673 0.45224 0.08899 0.0
C1044 C 0.41074 0.48317 0.08629 0.0
C1045 C 0.42767 0.50426 0.08177 0.0
C1046 C 0.42843 0.52039 0.10029 0.0
C1047 C 0.41159 0.51479 0.12421 0.0
C1048 C 0.39415 0.4932 0.12952 0.0
C1049 C 0.39361 0.47737 0.10951 0.0
H1050 H 0.01183 0.44441 0.60705 0.0
H1051 H 0.97621 0.46203 0.53741 0.0
H1052 H 0.94027 0.4295 0.55443 0.0
H1053 H 0.97721 0.38681 0.59588 0.0
H1054 H 0.97904 0.38104 0.63921 0.0
H1055 H 1.00175 0.4048 0.61961 0.0
H1056 H 0.99879 0.42783 0.66463 0.0
H1057 H 0.97606 0.4042 0.68428 0.0
H1058 H 0.97225 0.4257 0.67147 0.0
H1059 H 0.90777 0.39613 0.58326 0.0
H1060 H 0.88238 0.36463 0.61885 0.0
H1061 H 0.9402 0.36957 0.66845 0.0
C1062 C 0.99653 0.44136 0.59499 0.0
C1063 C 0.99683 0.45578 0.57087 0.0
C1064 C 0.9764 0.45114 0.55579 0.0
C1065 C 0.95592 0.43273 0.56537 0.0
C1066 C 0.95624 0.41906 0.58978 0.0
C1067 C 0.97611 0.42312 0.60407 0.0
C1068 C 0.9721 0.40649 0.63046 0.0
C1069 C 0.98318 0.39404 0.62069 0.0
C1070 C 0.98028 0.41667 0.66473 0.0
C1071 C 0.94679 0.39254 0.62934 0.0
C1072 C 0.93784 0.39995 0.60574 0.0
C1073 C 0.91467 0.39009 0.60151 0.0
C1074 C 0.90037 0.37228 0.62193 0.0
C1075 C 0.90929 0.36447 0.64618 0.0
C1076 C 0.93283 0.37478 0.64963 0.0
H1077 H 0.58814 0.99468 0.14692 0.0
H1078 H 0.55646 0.95849 0.05811 0.0
H1079 H 0.56161 0.92974 0.07942 0.0
H1080 H 0.62888 0.97844 0.15838 0.0
H1081 H 0.62622 0.97691 0.20306 0.0
H1082 H 0.62178 0.99546 0.17943 0.0
H1083 H 0.58234 0.97902 0.20615 0.0
H1084 H 0.58664 0.9604 0.22977 0.0
H1085 H 0.56245 0.95076 0.20317 0.0
H1086 H 0.56789 0.90367 0.11233 0.0
H1087 H 0.57569 0.88299 0.1537 0.0
H1088 H 0.60199 0.93583 0.22145 0.0
C1089 C 0.58238 0.9808 0.13179 0.0
C1090 C 0.57198 0.97903 0.1007 0.0
C1091 C 0.56484 0.96054 0.0817 0.0
C1092 C 0.56756 0.94399 0.0937 0.0
C1093 C 0.5775 0.94614 0.12472 0.0
C1094 C 0.58489 0.96413 0.14342 0.0
C1095 C 0.59415 0.96214 0.17659 0.0
C1096 C 0.61925 0.97926 0.17952 0.0
C1097 C 0.58058 0.96313 0.20562 0.0
C1098 C 0.59051 0.9401 0.17382 0.0
C1099 C 0.58099 0.93114 0.14368 0.0
C1100 C 0.57547 0.91059 0.13594 0.0
C1101 C 0.57982 0.89891 0.15966 0.0
C1102 C 0.58956 0.9078 0.19075 0.0
C1103 C 0.59496 0.92871 0.19769 0.0
H1104 H 0.58145 0.54048 0.58033 0.0
H1105 H 0.53914 0.47143 0.57773 0.0
H1106 H 0.56671 0.46831 0.6121 0.0
H1107 H 0.63243 0.54412 0.57202 0.0
H1108 H 0.64785 0.56582 0.60015 0.0
H1109 H 0.62372 0.56285 0.57862 0.0
H1110 H 0.60519 0.56184 0.63468 0.0
H1111 H 0.62951 0.5653 0.65641 0.0
H1112 H 0.60197 0.54296 0.66686 0.0
H1113 H 0.60135 0.47289 0.64087 0.0
H1114 H 0.63807 0.48475 0.66697 0.0
H1115 H 0.65651 0.55072 0.65331 0.0
C1116 C 0.57764 0.52469 0.58774 0.0
C1117 C 0.5581 0.50623 0.5762 0.0
C1118 C 0.55391 0.48586 0.58629 0.0
C1119 C 0.56955 0.4839 0.60574 0.0
C1120 C 0.5891 0.50245 0.61546 0.0
C1121 C 0.59294 0.52245 0.6074 0.0
C1122 C 0.61562 0.53989 0.61989 0.0
C1123 C 0.63079 0.55399 0.59094 0.0
C1124 C 0.6129 0.55328 0.64602 0.0
C1125 C 0.6242 0.52659 0.63543 0.0
C1126 C 0.60871 0.50504 0.63264 0.0
C1127 C 0.61342 0.48974 0.64379 0.0
C1128 C 0.63436 0.49665 0.65866 0.0
C1129 C 0.65037 0.51871 0.66243 0.0
C1130 C 0.64499 0.53375 0.65052 0.0
H1131 H 0.04071 0.55963 0.14242 0.0
H1132 H 0.07759 0.55957 0.05631 0.0
H1133 H 0.10923 0.59518 0.07048 0.0
H1134 H 0.05981 0.61585 0.13789 0.0
H1135 H 0.06188 0.61889 0.18237 0.0
H1136 H 0.0417 0.59352 0.16498 0.0
H1137 H 0.05846 0.57523 0.20008 0.0
H1138 H 0.07863 0.60052 0.21764 0.0
H1139 H 0.08806 0.58512 0.19706 0.0
H1140 H 0.13756 0.6303 0.09497 0.0
H1141 H 0.16032 0.6627 0.12813 0.0
H1142 H 0.10523 0.63996 0.1983 0.0
C1143 C 0.05543 0.56713 0.12658 0.0
C1144 C 0.05649 0.55687 0.09804 0.0
C1145 C 0.07609 0.56726 0.07787 0.0
C1146 C 0.09427 0.58746 0.08583 0.0
C1147 C 0.09264 0.59716 0.11403 0.0
C1148 C 0.07374 0.58738 0.13409 0.0
C1149 C 0.07646 0.60118 0.16326 0.0
C1150 C 0.05892 0.60775 0.16203 0.0
C1151 C 0.07534 0.58984 0.19647 0.0
C1152 C 0.09989 0.62013 0.15654 0.0
C1153 C 0.10894 0.61749 0.12803 0.0
C1154 C 0.13062 0.63262 0.11727 0.0
C1155 C 0.14344 0.6509 0.13627 0.0
C1156 C 0.13448 0.65392 0.16557 0.0
C1157 C 0.11238 0.63831 0.17563 0.0
loop_
_geom_bond_atom_site_label_1
_geom_bond_atom_site_label_2
_geom_bond_distance
_geom_bond_site_symmetry_2
_ccdc_geom_bond_type
Cu0 N1 1.999 . S
Cu0 O6 1.974 . S
Cu0 N11 1.985 1_655 S
Cu0 O20 1.959 1_655 S
N1 Cu0 1.999 . S
N1 C3 1.263 . S
N1 C5 1.389 . S
N2 C3 1.358 . S
N2 C4 1.400 . S
C3 N1 1.263 . S
C3 N2 1.358 . S
C3 H9 0.930 1_554 S
C4 N2 1.400 . S
C4 C5 1.351 . S
C4 H21 0.930 . S
C5 N1 1.389 . S
C5 C4 1.351 . S
C5 H10 0.930 . S
O6 Cu0 1.974 . S
O6 C16 1.289 . S
C7 O8 1.261 . S
C7 O20 1.251 . S
O8 C7 1.261 . S
H9 C3 0.930 1_556 S
H10 C5 0.930 . S
N11 Cu0 1.985 1_455 S
N11 C13 1.335 . S
N11 C14 1.390 . S
N12 C13 1.345 . S
N12 C15 1.336 . S
C13 N11 1.335 . S
C13 N12 1.345 . S
C13 H18 0.930 . S
C14 N11 1.390 . S
C14 C15 1.346 . S
C14 H19 0.930 . S
C15 N12 1.336 . S
C15 C14 1.346 . S
C15 H22 0.929 . S
C16 O6 1.289 . S
C16 O17 1.211 1_554 S
O17 C16 1.211 1_556 S
H18 C13 0.930 . S
H19 C14 0.930 . S
O20 Cu0 1.959 1_455 S
O20 C7 1.251 . S
H21 C4 0.930 . S
H22 C15 0.929 . S
Cu23 N24 1.999 . S
Cu23 O29 1.974 . S
Cu23 N34 1.985 1_565 S
Cu23 O43 1.959 1_565 S
N24 Cu23 1.999 . S
N24 C26 1.263 . S
N24 C28 1.389 . S
N25 C26 1.358 . S
N25 C27 1.400 . S
C26 N24 1.263 . S
C26 N25 1.358 . S
C26 H32 0.930 . S
C27 N25 1.400 . S
C27 C28 1.351 . S
C27 H44 0.930 . S
C28 N24 1.389 . S
C28 C27 1.351 . S
C28 H33 0.930 . S
O29 Cu23 1.974 . S
O29 C39 1.282 . S
C30 O31 1.261 . S
C30 O43 1.251 . S
O31 C30 1.261 . S
H32 C26 0.930 . S
H33 C28 0.930 . S
N34 Cu23 1.985 1_545 S
N34 C36 1.335 . S
N34 C37 1.390 . S
N35 C36 1.345 . S
N35 C38 1.336 . S
C36 N34 1.335 . S
C36 N35 1.345 . S
C36 H41 0.930 . S
C37 N34 1.390 . S
C37 C38 1.346 . S
C37 H42 0.930 . S
C38 N35 1.336 . S
C38 C37 1.346 . S
C38 H45 0.929 . S
C39 O29 1.282 . S
C39 O40 1.216 . S
O40 C39 1.216 . S
H41 C36 0.930 . S
H42 C37 0.930 . S
O43 Cu23 1.959 1_545 S
O43 C30 1.251 . S
H44 C27 0.930 . S
H45 C38 0.929 . S
Cu46 N47 1.999 . S
Cu46 O52 1.974 . S
Cu46 N57 1.985 1_556 S
Cu46 O66 1.959 1_556 S
N47 Cu46 1.999 . S
N47 C49 1.263 . S
N47 C51 1.389 . S
N48 C49 1.358 . S
N48 C50 1.400 . S
C49 N47 1.263 . S
C49 N48 1.358 . S
C49 H55 0.930 . S
C50 N48 1.400 . S
C50 C51 1.351 . S
C50 H67 0.930 . S
C51 N47 1.389 . S
C51 C50 1.351 . S
C51 H56 0.930 . S
O52 Cu46 1.974 . S
O52 C62 1.282 . S
C53 O54 1.261 . S
C53 O66 1.251 . S
O54 C53 1.261 . S
H55 C49 0.930 . S
H56 C51 0.930 . S
N57 Cu46 1.985 1_554 S
N57 C59 1.335 . S
N57 C60 1.390 . S
N58 C59 1.345 . S
N58 C61 1.336 . S
C59 N57 1.335 . S
C59 N58 1.345 . S
C59 H64 0.930 . S
C60 N57 1.390 . S
C60 C61 1.346 . S
C60 H65 0.930 . S
C61 N58 1.336 . S
C61 C60 1.346 . S
C61 H68 0.929 . S
C62 O52 1.282 . S
C62 O63 1.216 1_556 S
O63 C62 1.216 1_554 S
H64 C59 0.930 . S
H65 C60 0.930 . S
O66 Cu46 1.959 1_554 S
O66 C53 1.251 . S
H67 C50 0.930 . S
H68 C61 0.929 . S
Cu69 N70 1.999 . S
Cu69 O75 1.974 . S
Cu69 N80 1.985 . S
Cu69 O89 1.959 . S
N70 Cu69 1.999 . S
N70 C72 1.263 . S
N70 C74 1.389 . S
N71 C72 1.358 . S
N71 C73 1.400 . S
C72 N70 1.263 . S
C72 N71 1.358 . S
C72 H78 0.930 . S
C73 N71 1.400 . S
C73 C74 1.351 . S
C73 H90 0.930 . S
C74 N70 1.389 . S
C74 C73 1.351 . S
C74 H79 0.930 . S
O75 Cu69 1.974 . S
O75 C85 1.282 . S
C76 O77 1.261 . S
C76 O89 1.251 . S
O77 C76 1.261 . S
H78 C72 0.930 . S
H79 C74 0.930 . S
N80 Cu69 1.985 . S
N80 C82 1.335 . S
N80 C83 1.390 . S
N81 C82 1.345 . S
N81 C84 1.336 . S
C82 N80 1.335 . S
C82 N81 1.345 . S
C82 H87 0.930 . S
C83 N80 1.390 . S
C83 C84 1.346 . S
C83 H88 0.930 . S
C84 N81 1.336 . S
C84 C83 1.346 . S
C84 H91 0.929 . S
C85 O75 1.282 . S
C85 O86 1.216 . S
O86 C85 1.216 . S
H87 C82 0.930 . S
H88 C83 0.930 . S
O89 Cu69 1.959 . S
O89 C76 1.251 . S
H90 C73 0.930 . S
H91 C84 0.929 . S
Cu92 N93 1.999 . S
Cu92 O98 1.974 1_554 S
Cu92 N103 1.985 1_545 S
Cu92 O112 1.959 1_545 S
N93 Cu92 1.999 . S
N93 C95 1.263 1_554 S
N93 C97 1.389 . S
N94 C95 1.358 . S
N94 C96 1.400 1_556 S
C95 N93 1.263 1_556 S
C95 N94 1.358 . S
C95 H101 0.930 . S
C96 N94 1.400 1_554 S
C96 C97 1.351 . S
C96 H113 0.930 . S
C97 N93 1.389 . S
C97 C96 1.351 . S
C97 H102 0.930 . S
O98 Cu92 1.974 1_556 S
O98 C108 1.282 . S
C99 O100 1.268 . S
C99 O112 1.251 . S
O100 C99 1.268 . S
H101 C95 0.930 . S
H102 C97 0.930 . S
N103 Cu92 1.985 1_565 S
N103 C105 1.335 . S
N103 C106 1.390 . S
N104 C105 1.345 . S
N104 C107 1.336 . S
C105 N103 1.335 . S
C105 N104 1.345 . S
C105 H110 0.930 . S
C106 N103 1.390 . S
C106 C107 1.346 . S
C106 H111 0.930 1_564 S
C107 N104 1.336 . S
C107 C106 1.346 . S
C107 H114 0.929 . S
C108 O98 1.282 . S
C108 O109 1.216 . S
O109 C108 1.216 . S
H110 C105 0.930 . S
H111 C106 0.930 1_546 S
O112 Cu92 1.959 1_565 S
O112 C99 1.251 . S
H113 C96 0.930 . S
H114 C107 0.929 . S
Cu115 N116 1.999 . S
Cu115 O121 1.974 . S
Cu115 N126 1.985 . S
Cu115 O135 1.959 . S
N116 Cu115 1.999 . S
N116 C118 1.263 . S
N116 C120 1.389 . S
N117 C118 1.358 . S
N117 C119 1.400 . S
C118 N116 1.263 . S
C118 N117 1.358 . S
C118 H124 0.930 . S
C119 N117 1.400 . S
C119 C120 1.351 . S
C119 H136 0.930 . S
C120 N116 1.389 . S
C120 C119 1.351 . S
C120 H125 0.930 . S
O121 Cu115 1.974 . S
O121 C131 1.282 . S
C122 O123 1.261 . S
C122 O135 1.251 . S
O123 C122 1.261 . S
H124 C118 0.930 . S
H125 C120 0.930 . S
N126 Cu115 1.985 . S
N126 C128 1.335 . S
N126 C129 1.390 . S
N127 C128 1.345 . S
N127 C130 1.336 . S
C128 N126 1.335 . S
C128 N127 1.345 . S
C128 H133 0.930 . S
C129 N126 1.390 . S
C129 C130 1.346 . S
C129 H134 0.930 . S
C130 N127 1.336 . S
C130 C129 1.346 . S
C130 H137 0.929 . S
C131 O121 1.282 . S
C131 O132 1.216 . S
O132 C131 1.216 . S
H133 C128 0.930 . S
H134 C129 0.930 . S
O135 Cu115 1.959 . S
O135 C122 1.251 . S
H136 C119 0.930 . S
H137 C130 0.929 . S
H138 C165 0.929 . S
N139 C164 1.433 . S
N139 C170 1.435 . S
N139 C176 1.423 . S
H140 C166 0.930 . S
H141 C169 0.931 . S
H142 C168 0.929 . S
H143 C171 0.930 . S
H144 C172 0.932 . S
H145 C175 0.929 . S
H146 C174 0.931 . S
H147 C177 0.929 . S
H148 C181 0.932 . S
H149 C178 0.931 . S
H150 C180 0.929 . S
H151 C183 0.929 . S
H152 C184 0.930 . S
H153 C186 0.929 . S
H154 C187 0.931 . S
H155 C189 0.930 . S
H156 C190 0.932 . S
H157 C192 0.931 . S
H158 C193 0.929 . S
H159 C195 0.929 . S
H160 C196 0.931 . S
H161 C198 0.929 . S
N162 C182 1.433 . S
N162 C188 1.435 . S
N162 C194 1.423 . S
H163 C199 0.932 . S
C164 N139 1.433 . S
C164 C165 1.363 . S
C164 C169 1.370 . S
C165 H138 0.929 . S
C165 C164 1.363 . S
C165 C166 1.385 . S
C166 H140 0.930 . S
C166 C165 1.385 . S
C166 C167 1.357 . S
C167 C166 1.357 . S
C167 C168 1.406 . S
C168 H142 0.929 . S
C168 C167 1.406 . S
C168 C169 1.391 . S
C169 H141 0.931 . S
C169 C164 1.370 . S
C169 C168 1.391 . S
C170 N139 1.435 . S
C170 C171 1.358 . S
C170 C175 1.371 . S
C171 H143 0.930 . S
C171 C170 1.358 . S
C171 C172 1.405 . S
C172 H144 0.932 . S
C172 C171 1.405 . S
C172 C173 1.383 . S
C173 C172 1.383 . S
C173 C174 1.393 . S
C174 H146 0.931 . S
C174 C173 1.393 . S
C174 C175 1.382 . S
C175 H145 0.929 . S
C175 C170 1.371 . S
C175 C174 1.382 . S
C176 N139 1.423 . S
C176 C177 1.362 . S
C176 C181 1.388 . S
C177 H147 0.929 . S
C177 C176 1.362 . S
C177 C178 1.376 . S
C178 H149 0.931 . S
C178 C177 1.376 . S
C178 C179 1.396 . S
C179 C178 1.396 . S
C179 C180 1.348 . S
C179 C197 1.472 . S
C180 H150 0.929 . S
C180 C179 1.348 . S
C180 C181 1.443 . S
C181 H148 0.932 . S
C181 C176 1.388 . S
C181 C180 1.443 . S
C182 N162 1.433 . S
C182 C183 1.363 . S
C182 C187 1.370 . S
C183 H151 0.929 . S
C183 C182 1.363 . S
C183 C184 1.385 . S
C184 H152 0.930 . S
C184 C183 1.385 . S
C184 C185 1.357 . S
C185 C184 1.357 . S
C185 C186 1.406 . S
C186 H153 0.929 . S
C186 C185 1.406 . S
C186 C187 1.391 . S
C187 H154 0.931 . S
C187 C182 1.370 . S
C187 C186 1.391 . S
C188 N162 1.435 . S
C188 C189 1.358 . S
C188 C193 1.371 . S
C189 H155 0.930 . S
C189 C188 1.358 . S
C189 C190 1.405 . S
C190 H156 0.932 . S
C190 C189 1.405 . S
C190 C191 1.383 . S
C191 C190 1.383 . S
C191 C192 1.393 . S
C192 H157 0.931 . S
C192 C191 1.393 . S
C192 C193 1.382 . S
C193 H158 0.929 . S
C193 C188 1.371 . S
C193 C192 1.382 . S
C194 N162 1.423 . S
C194 C195 1.362 . S
C194 C199 1.388 . S
C195 H159 0.929 . S
C195 C194 1.362 . S
C195 C196 1.376 . S
C196 H160 0.931 . S
C196 C195 1.376 . S
C196 C197 1.396 . S
C197 C179 1.472 . S
C197 C196 1.396 . S
C197 C198 1.348 . S
C198 H161 0.929 . S
C198 C197 1.348 . S
C198 C199 1.443 . S
C199 H163 0.932 . S
C199 C194 1.388 . S
C199 C198 1.443 . S
H200 C227 0.929 . S
N201 C226 1.433 . S
N201 C232 1.435 . S
N201 C238 1.423 . S
H202 C228 0.930 . S
H203 C231 0.931 . S
H204 C230 0.929 . S
H205 C233 0.930 . S
H206 C234 0.932 . S
H207 C237 0.929 . S
H208 C236 0.931 . S
H209 C239 0.929 . S
H210 C243 0.932 . S
H211 C240 0.931 . S
H212 C242 0.929 . S
H213 C245 0.929 . S
H214 C246 0.930 . S
H215 C248 0.929 . S
H216 C249 0.931 . S
H217 C251 0.930 . S
H218 C252 0.932 . S
H219 C254 0.931 . S
H220 C255 0.929 . S
H221 C257 0.929 . S
H222 C258 0.931 . S
H223 C260 0.929 . S
N224 C244 1.433 . S
N224 C250 1.435 . S
N224 C256 1.423 . S
H225 C261 0.932 . S
C226 N201 1.433 . S
C226 C227 1.363 . S
C226 C231 1.370 . S
C227 H200 0.929 . S
C227 C226 1.363 . S
C227 C228 1.385 . S
C228 H202 0.930 . S
C228 C227 1.385 . S
C228 C229 1.357 . S
C229 C228 1.357 . S
C229 C230 1.406 . S
C230 H204 0.929 . S
C230 C229 1.406 . S
C230 C231 1.391 . S
C231 H203 0.931 . S
C231 C226 1.370 . S
C231 C230 1.391 . S
C232 N201 1.435 . S
C232 C233 1.358 . S
C232 C237 1.371 . S
C233 H205 0.930 . S
C233 C232 1.358 . S
C233 C234 1.405 . S
C234 H206 0.932 . S
C234 C233 1.405 . S
C234 C235 1.383 . S
C235 C234 1.383 . S
C235 C236 1.393 . S
C236 H208 0.931 . S
C236 C235 1.393 . S
C236 C237 1.382 . S
C237 H207 0.929 . S
C237 C232 1.371 . S
C237 C236 1.382 . S
C238 N201 1.423 . S
C238 C239 1.362 . S
C238 C243 1.388 . S
C239 H209 0.929 . S
C239 C238 1.362 . S
C239 C240 1.376 . S
C240 H211 0.931 . S
C240 C239 1.376 . S
C240 C241 1.396 . S
C241 C240 1.396 . S
C241 C242 1.348 . S
C241 C259 1.472 . S
C242 H212 0.929 . S
C242 C241 1.348 . S
C242 C243 1.443 . S
C243 H210 0.932 . S
C243 C238 1.388 . S
C243 C242 1.443 . S
C244 N224 1.433 . S
C244 C245 1.363 . S
C244 C249 1.370 . S
C245 H213 0.929 . S
C245 C244 1.363 . S
C245 C246 1.385 . S
C246 H214 0.930 . S
C246 C245 1.385 . S
C246 C247 1.357 . S
C247 C246 1.357 . S
C247 C248 1.406 . S
C248 H215 0.929 . S
C248 C247 1.406 . S
C248 C249 1.391 . S
C249 H216 0.931 . S
C249 C244 1.370 . S
C249 C248 1.391 . S
C250 N224 1.435 . S
C250 C251 1.358 . S
C250 C255 1.371 . S
C251 H217 0.930 . S
C251 C250 1.358 . S
C251 C252 1.405 . S
C252 H218 0.932 . S
C252 C251 1.405 . S
C252 C253 1.383 . S
C253 C252 1.383 . S
C253 C254 1.393 . S
C254 H219 0.931 . S
C254 C253 1.393 . S
C254 C255 1.382 . S
C255 H220 0.929 . S
C255 C250 1.371 . S
C255 C254 1.382 . S
C256 N224 1.423 . S
C256 C257 1.362 . S
C256 C261 1.388 . S
C257 H221 0.929 . S
C257 C256 1.362 . S
C257 C258 1.376 . S
C258 H222 0.931 . S
C258 C257 1.376 . S
C258 C259 1.396 . S
C259 C241 1.472 . S
C259 C258 1.396 . S
C259 C260 1.348 . S
C260 H223 0.929 . S
C260 C259 1.348 . S
C260 C261 1.443 . S
C261 H225 0.932 . S
C261 C256 1.388 . S
C261 C260 1.443 . S
H262 C289 0.929 . S
N263 C288 1.433 . S
N263 C294 1.435 . S
N263 C300 1.423 . S
H264 C290 0.930 . S
H265 C293 0.931 . S
H266 C292 0.929 . S
H267 C295 0.930 . S
H268 C296 0.932 . S
H269 C299 0.929 . S
H270 C298 0.931 . S
H271 C301 0.929 . S
H272 C305 0.932 . S
H273 C302 0.931 . S
H274 C304 0.929 . S
H275 C307 0.929 . S
H276 C308 0.930 . S
H277 C310 0.929 . S
H278 C311 0.931 . S
H279 C313 0.930 . S
H280 C314 0.932 . S
H281 C316 0.931 . S
H282 C317 0.929 . S
H283 C319 0.929 . S
H284 C320 0.931 . S
H285 C322 0.929 . S
N286 C306 1.433 . S
N286 C312 1.435 . S
N286 C318 1.423 . S
H287 C323 0.932 . S
C288 N263 1.433 . S
C288 C289 1.363 . S
C288 C293 1.370 . S
C289 H262 0.929 . S
C289 C288 1.363 . S
C289 C290 1.385 . S
C290 H264 0.930 . S
C290 C289 1.385 . S
C290 C291 1.357 . S
C291 C290 1.357 . S
C291 C292 1.406 . S
C292 H266 0.929 . S
C292 C291 1.406 . S
C292 C293 1.391 . S
C293 H265 0.931 . S
C293 C288 1.370 . S
C293 C292 1.391 . S
C294 N263 1.435 . S
C294 C295 1.358 . S
C294 C299 1.371 . S
C295 H267 0.930 . S
C295 C294 1.358 . S
C295 C296 1.405 . S
C296 H268 0.932 . S
C296 C295 1.405 . S
C296 C297 1.383 . S
C297 C296 1.383 . S
C297 C298 1.393 . S
C298 H270 0.931 . S
C298 C297 1.393 . S
C298 C299 1.382 . S
C299 H269 0.929 . S
C299 C294 1.371 . S
C299 C298 1.382 . S
C300 N263 1.423 . S
C300 C301 1.362 . S
C300 C305 1.388 . S
C301 H271 0.929 . S
C301 C300 1.362 . S
C301 C302 1.376 . S
C302 H273 0.931 . S
C302 C301 1.376 . S
C302 C303 1.396 . S
C303 C302 1.396 . S
C303 C304 1.348 . S
C303 C321 1.472 . S
C304 H274 0.929 . S
C304 C303 1.348 . S
C304 C305 1.443 . S
C305 H272 0.932 . S
C305 C300 1.388 . S
C305 C304 1.443 . S
C306 N286 1.433 . S
C306 C307 1.363 . S
C306 C311 1.370 . S
C307 H275 0.929 . S
C307 C306 1.363 . S
C307 C308 1.385 . S
C308 H276 0.930 . S
C308 C307 1.385 . S
C308 C309 1.357 . S
C309 C308 1.357 . S
C309 C310 1.406 . S
C310 H277 0.929 . S
C310 C309 1.406 . S
C310 C311 1.391 . S
C311 H278 0.931 . S
C311 C306 1.370 . S
C311 C310 1.391 . S
C312 N286 1.435 . S
C312 C313 1.358 . S
C312 C317 1.371 . S
C313 H279 0.930 . S
C313 C312 1.358 . S
C313 C314 1.405 . S
C314 H280 0.932 . S
C314 C313 1.405 . S
C314 C315 1.383 . S
C315 C314 1.383 . S
C315 C316 1.393 . S
C316 H281 0.931 . S
C316 C315 1.393 . S
C316 C317 1.382 . S
C317 H282 0.929 . S
C317 C312 1.371 . S
C317 C316 1.382 . S
C318 N286 1.423 . S
C318 C319 1.362 . S
C318 C323 1.388 . S
C319 H283 0.929 . S
C319 C318 1.362 . S
C319 C320 1.376 . S
C320 H284 0.931 . S
C320 C319 1.376 . S
C320 C321 1.396 . S
C321 C303 1.472 . S
C321 C320 1.396 . S
C321 C322 1.348 . S
C322 H285 0.929 . S
C322 C321 1.348 . S
C322 C323 1.443 . S
C323 H287 0.932 . S
C323 C318 1.388 . S
C323 C322 1.443 . S
H324 C351 0.929 . S
N325 C350 1.433 . S
N325 C356 1.435 . S
N325 C362 1.423 . S
H326 C352 0.930 . S
H327 C355 0.931 . S
H328 C354 0.929 . S
H329 C357 0.930 . S
H330 C358 0.932 . S
H331 C361 0.929 . S
H332 C360 0.931 . S
H333 C363 0.929 . S
H334 C367 0.932 . S
H335 C364 0.931 . S
H336 C366 0.929 . S
H337 C369 0.929 . S
H338 C370 0.930 . S
H339 C372 0.929 . S
H340 C373 0.931 . S
H341 C375 0.930 . S
H342 C376 0.932 . S
H343 C378 0.931 . S
H344 C379 0.929 . S
H345 C381 0.929 . S
H346 C382 0.931 . S
H347 C384 0.929 . S
N348 C368 1.433 . S
N348 C374 1.435 . S
N348 C380 1.423 . S
H349 C385 0.932 . S
C350 N325 1.433 . S
C350 C351 1.363 . S
C350 C355 1.370 . S
C351 H324 0.929 . S
C351 C350 1.363 . S
C351 C352 1.385 . S
C352 H326 0.930 . S
C352 C351 1.385 . S
C352 C353 1.357 . S
C353 C352 1.357 . S
C353 C354 1.406 . S
C354 H328 0.929 . S
C354 C353 1.406 . S
C354 C355 1.391 . S
C355 H327 0.931 . S
C355 C350 1.370 . S
C355 C354 1.391 . S
C356 N325 1.435 . S
C356 C357 1.358 . S
C356 C361 1.371 . S
C357 H329 0.930 . S
C357 C356 1.358 . S
C357 C358 1.405 . S
C358 H330 0.932 . S
C358 C357 1.405 . S
C358 C359 1.383 . S
C359 C358 1.383 . S
C359 C360 1.393 . S
C360 H332 0.931 . S
C360 C359 1.393 . S
C360 C361 1.382 . S
C361 H331 0.929 . S
C361 C356 1.371 . S
C361 C360 1.382 . S
C362 N325 1.423 . S
C362 C363 1.362 . S
C362 C367 1.388 . S
C363 H333 0.929 . S
C363 C362 1.362 . S
C363 C364 1.376 . S
C364 H335 0.931 . S
C364 C363 1.376 . S
C364 C365 1.396 . S
C365 C364 1.396 . S
C365 C366 1.348 . S
C365 C383 1.472 . S
C366 H336 0.929 . S
C366 C365 1.348 . S
C366 C367 1.443 . S
C367 H334 0.932 . S
C367 C362 1.388 . S
C367 C366 1.443 . S
C368 N348 1.433 . S
C368 C369 1.363 . S
C368 C373 1.370 . S
C369 H337 0.929 . S
C369 C368 1.363 . S
C369 C370 1.385 . S
C370 H338 0.930 . S
C370 C369 1.385 . S
C370 C371 1.357 . S
C371 C370 1.357 . S
C371 C372 1.406 . S
C372 H339 0.929 . S
C372 C371 1.406 . S
C372 C373 1.391 . S
C373 H340 0.931 . S
C373 C368 1.370 . S
C373 C372 1.391 . S
C374 N348 1.435 . S
C374 C375 1.358 . S
C374 C379 1.371 . S
C375 H341 0.930 . S
C375 C374 1.358 . S
C375 C376 1.405 . S
C376 H342 0.932 . S
C376 C375 1.405 . S
C376 C377 1.383 . S
C377 C376 1.383 . S
C377 C378 1.393 . S
C378 H343 0.931 . S
C378 C377 1.393 . S
C378 C379 1.382 . S
C379 H344 0.929 . S
C379 C374 1.371 . S
C379 C378 1.382 . S
C380 N348 1.423 . S
C380 C381 1.362 . S
C380 C385 1.388 . S
C381 H345 0.929 . S
C381 C380 1.362 . S
C381 C382 1.376 . S
C382 H346 0.931 . S
C382 C381 1.376 . S
C382 C383 1.396 . S
C383 C365 1.472 . S
C383 C382 1.396 . S
C383 C384 1.348 . S
C384 H347 0.929 . S
C384 C383 1.348 . S
C384 C385 1.443 . S
C385 H349 0.932 . S
C385 C380 1.388 . S
C385 C384 1.443 . S
H386 C413 0.929 . S
N387 C412 1.433 . S
N387 C418 1.435 . S
N387 C424 1.423 . S
H388 C414 0.930 . S
H389 C417 0.931 . S
H390 C416 0.929 . S
H391 C419 0.930 . S
H392 C420 0.932 . S
H393 C423 0.929 . S
H394 C422 0.931 . S
H395 C425 0.929 . S
H396 C429 0.932 . S
H397 C426 0.931 . S
H398 C428 0.929 . S
H399 C431 0.929 . S
H400 C432 0.930 . S
H401 C434 0.929 . S
H402 C435 0.931 . S
H403 C437 0.930 . S
H404 C438 0.932 . S
H405 C440 0.931 . S
H406 C441 0.929 . S
H407 C443 0.929 . S
H408 C444 0.931 . S
H409 C446 0.929 . S
N410 C430 1.433 . S
N410 C436 1.435 . S
N410 C442 1.423 . S
H411 C447 0.932 . S
C412 N387 1.433 . S
C412 C413 1.363 . S
C412 C417 1.370 . S
C413 H386 0.929 . S
C413 C412 1.363 . S
C413 C414 1.385 . S
C414 H388 0.930 . S
C414 C413 1.385 . S
C414 C415 1.357 . S
C415 C414 1.357 . S
C415 C416 1.406 . S
C416 H390 0.929 . S
C416 C415 1.406 . S
C416 C417 1.391 . S
C417 H389 0.931 . S
C417 C412 1.370 . S
C417 C416 1.391 . S
C418 N387 1.435 . S
C418 C419 1.358 . S
C418 C423 1.371 . S
C419 H391 0.930 . S
C419 C418 1.358 . S
C419 C420 1.405 . S
C420 H392 0.932 . S
C420 C419 1.405 . S
C420 C421 1.383 . S
C421 C420 1.383 . S
C421 C422 1.393 . S
C422 H394 0.931 . S
C422 C421 1.393 . S
C422 C423 1.382 . S
C423 H393 0.929 . S
C423 C418 1.371 . S
C423 C422 1.382 . S
C424 N387 1.423 . S
C424 C425 1.362 . S
C424 C429 1.388 . S
C425 H395 0.929 . S
C425 C424 1.362 . S
C425 C426 1.376 . S
C426 H397 0.931 . S
C426 C425 1.376 . S
C426 C427 1.396 . S
C427 C426 1.396 . S
C427 C428 1.348 . S
C427 C445 1.472 . S
C428 H398 0.929 . S
C428 C427 1.348 . S
C428 C429 1.443 . S
C429 H396 0.932 . S
C429 C424 1.388 . S
C429 C428 1.443 . S
C430 N410 1.433 . S
C430 C431 1.363 . S
C430 C435 1.370 . S
C431 H399 0.929 . S
C431 C430 1.363 . S
C431 C432 1.385 . S
C432 H400 0.930 . S
C432 C431 1.385 . S
C432 C433 1.357 . S
C433 C432 1.357 . S
C433 C434 1.406 . S
C434 H401 0.929 . S
C434 C433 1.406 . S
C434 C435 1.391 . S
C435 H402 0.931 . S
C435 C430 1.370 . S
C435 C434 1.391 . S
C436 N410 1.435 . S
C436 C437 1.358 . S
C436 C441 1.371 . S
C437 H403 0.930 . S
C437 C436 1.358 . S
C437 C438 1.405 . S
C438 H404 0.932 . S
C438 C437 1.405 . S
C438 C439 1.383 . S
C439 C438 1.383 . S
C439 C440 1.393 . S
C440 H405 0.931 . S
C440 C439 1.393 . S
C440 C441 1.382 . S
C441 H406 0.929 . S
C441 C436 1.371 . S
C441 C440 1.382 . S
C442 N410 1.423 . S
C442 C443 1.362 . S
C442 C447 1.388 . S
C443 H407 0.929 . S
C443 C442 1.362 . S
C443 C444 1.376 . S
C444 H408 0.931 . S
C444 C443 1.376 . S
C444 C445 1.396 . S
C445 C427 1.472 . S
C445 C444 1.396 . S
C445 C446 1.348 . S
C446 H409 0.929 . S
C446 C445 1.348 . S
C446 C447 1.443 . S
C447 H411 0.932 . S
C447 C442 1.388 . S
C447 C446 1.443 . S
H448 C475 0.929 . S
N449 C474 1.433 . S
N449 C480 1.435 . S
N449 C486 1.423 . S
H450 C476 0.930 . S
H451 C479 0.931 . S
H452 C478 0.929 . S
H453 C481 0.930 . S
H454 C482 0.932 . S
H455 C485 0.929 . S
H456 C484 0.931 . S
H457 C487 0.929 . S
H458 C491 0.932 . S
H459 C488 0.931 . S
H460 C490 0.929 . S
H461 C493 0.929 . S
H462 C494 0.930 . S
H463 C496 0.929 . S
H464 C497 0.931 . S
H465 C499 0.930 . S
H466 C500 0.932 . S
H467 C502 0.931 . S
H468 C503 0.929 . S
H469 C505 0.929 . S
H470 C506 0.931 . S
H471 C508 0.929 . S
N472 C492 1.433 . S
N472 C498 1.435 . S
N472 C504 1.423 . S
H473 C509 0.932 . S
C474 N449 1.433 . S
C474 C475 1.363 . S
C474 C479 1.370 . S
C475 H448 0.929 . S
C475 C474 1.363 . S
C475 C476 1.385 . S
C476 H450 0.930 . S
C476 C475 1.385 . S
C476 C477 1.357 . S
C477 C476 1.357 . S
C477 C478 1.406 . S
C478 H452 0.929 . S
C478 C477 1.406 . S
C478 C479 1.391 . S
C479 H451 0.931 . S
C479 C474 1.370 . S
C479 C478 1.391 . S
C480 N449 1.435 . S
C480 C481 1.358 . S
C480 C485 1.371 . S
C481 H453 0.930 . S
C481 C480 1.358 . S
C481 C482 1.405 . S
C482 H454 0.932 . S
C482 C481 1.405 . S
C482 C483 1.383 . S
C483 C482 1.383 . S
C483 C484 1.393 . S
C484 H456 0.931 . S
C484 C483 1.393 . S
C484 C485 1.382 . S
C485 H455 0.929 . S
C485 C480 1.371 . S
C485 C484 1.382 . S
C486 N449 1.423 . S
C486 C487 1.362 . S
C486 C491 1.388 . S
C487 H457 0.929 . S
C487 C486 1.362 . S
C487 C488 1.376 . S
C488 H459 0.931 . S
C488 C487 1.376 . S
C488 C489 1.396 . S
C489 C488 1.396 . S
C489 C490 1.348 . S
C489 C507 1.472 . S
C490 H460 0.929 . S
C490 C489 1.348 . S
C490 C491 1.443 . S
C491 H458 0.932 . S
C491 C486 1.388 . S
C491 C490 1.443 . S
C492 N472 1.433 . S
C492 C493 1.363 . S
C492 C497 1.370 . S
C493 H461 0.929 . S
C493 C492 1.363 . S
C493 C494 1.385 . S
C494 H462 0.930 . S
C494 C493 1.385 . S
C494 C495 1.357 . S
C495 C494 1.357 . S
C495 C496 1.406 . S
C496 H463 0.929 . S
C496 C495 1.406 . S
C496 C497 1.391 . S
C497 H464 0.931 . S
C497 C492 1.370 . S
C497 C496 1.391 . S
C498 N472 1.435 . S
C498 C499 1.358 . S
C498 C503 1.371 . S
C499 H465 0.930 . S
C499 C498 1.358 . S
C499 C500 1.405 . S
C500 H466 0.932 . S
C500 C499 1.405 . S
C500 C501 1.383 . S
C501 C500 1.383 . S
C501 C502 1.393 . S
C502 H467 0.931 . S
C502 C501 1.393 . S
C502 C503 1.382 . S
C503 H468 0.929 . S
C503 C498 1.371 . S
C503 C502 1.382 . S
C504 N472 1.423 . S
C504 C505 1.362 . S
C504 C509 1.388 . S
C505 H469 0.929 . S
C505 C504 1.362 . S
C505 C506 1.376 . S
C506 H470 0.931 . S
C506 C505 1.376 . S
C506 C507 1.396 . S
C507 C489 1.472 . S
C507 C506 1.396 . S
C507 C508 1.348 . S
C508 H471 0.929 . S
C508 C507 1.348 . S
C508 C509 1.443 . S
C509 H473 0.932 . S
C509 C504 1.388 . S
C509 C508 1.443 . S
H510 C522 0.930 . S
H511 C524 0.930 . S
H512 C525 0.930 . S
H513 C529 0.959 . S
H514 C529 0.959 . S
H515 C529 0.961 . S
H516 C530 0.960 . S
H517 C530 0.961 . S
H518 C530 0.959 . S
H519 C533 0.929 . S
H520 C534 0.931 . S
H521 C536 0.930 . S
C522 H510 0.930 . S
C522 C523 1.399 . S
C522 C527 1.399 . S
C523 C522 1.399 . S
C523 C524 1.376 . S
C524 H511 0.930 . S
C524 C523 1.376 . S
C524 C525 1.388 . S
C525 H512 0.930 . S
C525 C524 1.388 . S
C525 C526 1.390 . S
C526 C525 1.390 . S
C526 C527 1.394 . S
C526 C532 1.465 . S
C527 C522 1.399 . S
C527 C526 1.394 . S
C527 C528 1.516 . S
C528 C527 1.516 . S
C528 C529 1.502 . S
C528 C530 1.561 . S
C528 C531 1.526 . S
C529 H513 0.959 . S
C529 H514 0.959 . S
C529 H515 0.961 . S
C529 C528 1.502 . S
C530 H516 0.960 . S
C530 H517 0.961 . S
C530 H518 0.959 . S
C530 C528 1.561 . S
C531 C528 1.526 . S
C531 C532 1.396 . S
C531 C536 1.390 . S
C532 C526 1.465 . S
C532 C531 1.396 . S
C532 C533 1.399 . S
C533 H519 0.929 . S
C533 C532 1.399 . S
C533 C534 1.385 . S
C534 H520 0.931 . S
C534 C533 1.385 . S
C534 C535 1.389 . S
C535 C534 1.389 . S
C535 C536 1.387 . S
C536 H521 0.930 . S
C536 C531 1.390 . S
C536 C535 1.387 . S
H537 C549 0.930 . S
H538 C551 0.930 . S
H539 C552 0.930 . S
H540 C556 0.959 . S
H541 C556 0.959 . S
H542 C556 0.961 . S
H543 C557 0.960 . S
H544 C557 0.961 . S
H545 C557 0.959 . S
H546 C560 0.929 . S
H547 C561 0.931 . S
H548 C563 0.930 . S
C549 H537 0.930 . S
C549 C550 1.399 . S
C549 C554 1.399 . S
C550 C549 1.399 . S
C550 C551 1.376 . S
C551 H538 0.930 . S
C551 C550 1.376 . S
C551 C552 1.388 . S
C552 H539 0.930 . S
C552 C551 1.388 . S
C552 C553 1.390 . S
C553 C552 1.390 . S
C553 C554 1.394 . S
C553 C559 1.465 . S
C554 C549 1.399 . S
C554 C553 1.394 . S
C554 C555 1.516 . S
C555 C554 1.516 . S
C555 C556 1.502 . S
C555 C557 1.561 . S
C555 C558 1.526 . S
C556 H540 0.959 . S
C556 H541 0.959 . S
C556 H542 0.961 . S
C556 C555 1.502 . S
C557 H543 0.960 . S
C557 H544 0.961 . S
C557 H545 0.959 . S
C557 C555 1.561 . S
C558 C555 1.526 . S
C558 C559 1.396 . S
C558 C563 1.390 . S
C559 C553 1.465 . S
C559 C558 1.396 . S
C559 C560 1.399 . S
C560 H546 0.929 . S
C560 C559 1.399 . S
C560 C561 1.385 . S
C561 H547 0.931 . S
C561 C560 1.385 . S
C561 C562 1.389 . S
C562 C561 1.389 . S
C562 C563 1.387 . S
C563 H548 0.930 . S
C563 C558 1.390 . S
C563 C562 1.387 . S
H564 C576 0.930 . S
H565 C578 0.930 . S
H566 C579 0.930 . S
H567 C583 0.959 . S
H568 C583 0.959 . S
H569 C583 0.961 . S
H570 C584 0.960 . S
H571 C584 0.961 . S
H572 C584 0.959 . S
H573 C587 0.929 . S
H574 C588 0.931 . S
H575 C590 0.930 . S
C576 H564 0.930 . S
C576 C577 1.399 . S
C576 C581 1.399 . S
C577 C576 1.399 . S
C577 C578 1.376 . S
C578 H565 0.930 . S
C578 C577 1.376 . S
C578 C579 1.388 . S
C579 H566 0.930 . S
C579 C578 1.388 . S
C579 C580 1.390 . S
C580 C579 1.390 . S
C580 C581 1.394 . S
C580 C586 1.465 . S
C581 C576 1.399 . S
C581 C580 1.394 . S
C581 C582 1.516 . S
C582 C581 1.516 . S
C582 C583 1.502 . S
C582 C584 1.561 . S
C582 C585 1.526 . S
C583 H567 0.959 . S
C583 H568 0.959 . S
C583 H569 0.961 . S
C583 C582 1.502 . S
C584 H570 0.960 . S
C584 H571 0.961 . S
C584 H572 0.959 . S
C584 C582 1.561 . S
C585 C582 1.526 . S
C585 C586 1.396 . S
C585 C590 1.390 . S
C586 C580 1.465 . S
C586 C585 1.396 . S
C586 C587 1.399 . S
C587 H573 0.929 . S
C587 C586 1.399 . S
C587 C588 1.385 . S
C588 H574 0.931 . S
C588 C587 1.385 . S
C588 C589 1.389 . S
C589 C588 1.389 . S
C589 C590 1.387 . S
C590 H575 0.930 . S
C590 C585 1.390 . S
C590 C589 1.387 . S
H591 C603 0.930 . S
H592 C605 0.930 . S
H593 C606 0.932 1_455 S
H594 C610 0.959 . S
H595 C610 0.959 . S
H596 C610 0.961 . S
H597 C611 0.960 . S
H598 C611 0.961 . S
H599 C611 0.959 . S
H600 C614 0.929 . S
H601 C615 0.931 . S
H602 C617 0.930 . S
C603 H591 0.930 . S
C603 C604 1.399 . S
C603 C608 1.399 . S
C604 C603 1.399 . S
C604 C605 1.376 1_655 S
C605 H592 0.930 . S
C605 C604 1.376 1_455 S
C605 C606 1.388 1_455 S
C606 H593 0.932 1_655 S
C606 C605 1.388 1_655 S
C606 C607 1.390 . S
C607 C606 1.390 . S
C607 C608 1.394 . S
C607 C613 1.465 . S
C608 C603 1.399 . S
C608 C607 1.394 . S
C608 C609 1.516 . S
C609 C608 1.516 . S
C609 C610 1.502 . S
C609 C611 1.561 . S
C609 C612 1.526 . S
C610 H594 0.959 . S
C610 H595 0.959 . S
C610 H596 0.961 . S
C610 C609 1.502 . S
C611 H597 0.960 . S
C611 H598 0.961 . S
C611 H599 0.959 . S
C611 C609 1.561 . S
C612 C609 1.526 . S
C612 C613 1.396 . S
C612 C617 1.390 . S
C613 C607 1.465 . S
C613 C612 1.396 . S
C613 C614 1.399 . S
C614 H600 0.929 . S
C614 C613 1.399 . S
C614 C615 1.385 . S
C615 H601 0.931 . S
C615 C614 1.385 . S
C615 C616 1.389 . S
C616 C615 1.389 . S
C616 C617 1.387 . S
C617 H602 0.930 . S
C617 C612 1.390 . S
C617 C616 1.387 . S
H618 C630 0.930 . S
H619 C632 0.930 . S
H620 C633 0.930 . S
H621 C637 0.959 . S
H622 C637 0.959 . S
H623 C637 0.961 . S
H624 C638 0.960 . S
H625 C638 0.961 . S
H626 C638 0.959 . S
H627 C641 0.929 . S
H628 C642 0.931 . S
H629 C644 0.930 . S
C630 H618 0.930 . S
C630 C631 1.399 . S
C630 C635 1.399 . S
C631 C630 1.399 . S
C631 C632 1.376 . S
C632 H619 0.930 . S
C632 C631 1.376 . S
C632 C633 1.388 . S
C633 H620 0.930 . S
C633 C632 1.388 . S
C633 C634 1.390 . S
C634 C633 1.390 . S
C634 C635 1.394 . S
C634 C640 1.465 . S
C635 C630 1.399 . S
C635 C634 1.394 . S
C635 C636 1.516 . S
C636 C635 1.516 . S
C636 C637 1.502 . S
C636 C638 1.561 . S
C636 C639 1.526 . S
C637 H621 0.959 . S
C637 H622 0.959 . S
C637 H623 0.961 . S
C637 C636 1.502 . S
C638 H624 0.960 . S
C638 H625 0.961 . S
C638 H626 0.959 . S
C638 C636 1.561 . S
C639 C636 1.526 . S
C639 C640 1.396 . S
C639 C644 1.390 . S
C640 C634 1.465 . S
C640 C639 1.396 . S
C640 C641 1.399 . S
C641 H627 0.929 . S
C641 C640 1.399 . S
C641 C642 1.385 . S
C642 H628 0.931 . S
C642 C641 1.385 . S
C642 C643 1.389 . S
C643 C642 1.389 . S
C643 C644 1.387 . S
C644 H629 0.930 . S
C644 C639 1.390 . S
C644 C643 1.387 . S
H645 C657 0.930 . S
H646 C659 0.930 . S
H647 C660 0.930 . S
H648 C664 0.959 . S
H649 C664 0.959 . S
H650 C664 0.961 . S
H651 C665 0.960 . S
H652 C665 0.961 . S
H653 C665 0.959 . S
H654 C668 0.929 . S
H655 C669 0.931 . S
H656 C671 0.930 . S
C657 H645 0.930 . S
C657 C658 1.399 . S
C657 C662 1.399 . S
C658 C657 1.399 . S
C658 C659 1.376 . S
C659 H646 0.930 . S
C659 C658 1.376 . S
C659 C660 1.388 . S
C660 H647 0.930 . S
C660 C659 1.388 . S
C660 C661 1.390 . S
C661 C660 1.390 . S
C661 C662 1.394 . S
C661 C667 1.465 . S
C662 C657 1.399 . S
C662 C661 1.394 . S
C662 C663 1.516 . S
C663 C662 1.516 . S
C663 C664 1.502 . S
C663 C665 1.561 . S
C663 C666 1.526 . S
C664 H648 0.959 . S
C664 H649 0.959 . S
C664 H650 0.961 . S
C664 C663 1.502 . S
C665 H651 0.960 . S
C665 H652 0.961 . S
C665 H653 0.959 . S
C665 C663 1.561 . S
C666 C663 1.526 . S
C666 C667 1.396 . S
C666 C671 1.390 . S
C667 C661 1.465 . S
C667 C666 1.396 . S
C667 C668 1.399 . S
C668 H654 0.929 . S
C668 C667 1.399 . S
C668 C669 1.385 . S
C669 H655 0.931 . S
C669 C668 1.385 . S
C669 C670 1.389 . S
C670 C669 1.389 . S
C670 C671 1.387 . S
C671 H656 0.930 . S
C671 C666 1.390 . S
C671 C670 1.387 . S
H672 C684 0.930 . S
H673 C686 0.930 . S
H674 C687 0.930 . S
H675 C691 0.959 . S
H676 C691 0.959 . S
H677 C691 0.961 . S
H678 C692 0.960 . S
H679 C692 0.961 . S
H680 C692 0.959 . S
H681 C695 0.929 . S
H682 C696 0.931 . S
H683 C698 0.930 . S
C684 H672 0.930 . S
C684 C685 1.399 . S
C684 C689 1.399 . S
C685 C684 1.399 . S
C685 C686 1.376 . S
C686 H673 0.930 . S
C686 C685 1.376 . S
C686 C687 1.388 . S
C687 H674 0.930 . S
C687 C686 1.388 . S
C687 C688 1.390 . S
C688 C687 1.390 . S
C688 C689 1.394 . S
C688 C694 1.465 . S
C689 C684 1.399 . S
C689 C688 1.394 . S
C689 C690 1.516 . S
C690 C689 1.516 . S
C690 C691 1.502 . S
C690 C692 1.561 . S
C690 C693 1.526 . S
C691 H675 0.959 . S
C691 H676 0.959 . S
C691 H677 0.961 . S
C691 C690 1.502 . S
C692 H678 0.960 . S
C692 H679 0.961 . S
C692 H680 0.959 . S
C692 C690 1.561 . S
C693 C690 1.526 . S
C693 C694 1.396 . S
C693 C698 1.390 . S
C694 C688 1.465 . S
C694 C693 1.396 . S
C694 C695 1.399 . S
C695 H681 0.929 . S
C695 C694 1.399 . S
C695 C696 1.385 . S
C696 H682 0.931 . S
C696 C695 1.385 . S
C696 C697 1.389 . S
C697 C696 1.389 . S
C697 C698 1.387 . S
C698 H683 0.930 . S
C698 C693 1.390 . S
C698 C697 1.387 . S
H699 C711 0.930 . S
H700 C713 0.930 . S
H701 C714 0.930 . S
H702 C718 0.959 . S
H703 C718 0.959 . S
H704 C718 0.961 . S
H705 C719 0.960 . S
H706 C719 0.961 . S
H707 C719 0.959 . S
H708 C722 0.929 . S
H709 C723 0.931 . S
H710 C725 0.930 . S
C711 H699 0.930 . S
C711 C712 1.399 . S
C711 C716 1.399 . S
C712 C711 1.399 . S
C712 C713 1.376 . S
C713 H700 0.930 . S
C713 C712 1.376 . S
C713 C714 1.388 . S
C714 H701 0.930 . S
C714 C713 1.388 . S
C714 C715 1.390 . S
C715 C714 1.390 . S
C715 C716 1.394 . S
C715 C721 1.465 . S
C716 C711 1.399 . S
C716 C715 1.394 . S
C716 C717 1.516 . S
C717 C716 1.516 . S
C717 C718 1.502 . S
C717 C719 1.561 . S
C717 C720 1.526 . S
C718 H702 0.959 . S
C718 H703 0.959 . S
C718 H704 0.961 . S
C718 C717 1.502 . S
C719 H705 0.960 . S
C719 H706 0.961 . S
C719 H707 0.959 . S
C719 C717 1.561 . S
C720 C717 1.526 . S
C720 C721 1.396 . S
C720 C725 1.390 . S
C721 C715 1.465 . S
C721 C720 1.396 . S
C721 C722 1.399 . S
C722 H708 0.929 . S
C722 C721 1.399 . S
C722 C723 1.385 . S
C723 H709 0.931 . S
C723 C722 1.385 . S
C723 C724 1.389 . S
C724 C723 1.389 . S
C724 C725 1.387 . S
C725 H710 0.930 . S
C725 C720 1.390 . S
C725 C724 1.387 . S
H726 C738 0.930 . S
H727 C740 0.930 . S
H728 C741 0.930 . S
H729 C745 0.959 . S
H730 C745 0.959 . S
H731 C745 0.961 . S
H732 C746 0.960 . S
H733 C746 0.961 . S
H734 C746 0.959 . S
H735 C749 0.929 . S
H736 C750 0.931 . S
H737 C752 0.930 . S
C738 H726 0.930 . S
C738 C739 1.399 . S
C738 C743 1.399 . S
C739 C738 1.399 . S
C739 C740 1.376 . S
C740 H727 0.930 . S
C740 C739 1.376 . S
C740 C741 1.388 . S
C741 H728 0.930 . S
C741 C740 1.388 . S
C741 C742 1.390 . S
C742 C741 1.390 . S
C742 C743 1.394 . S
C742 C748 1.465 . S
C743 C738 1.399 . S
C743 C742 1.394 . S
C743 C744 1.516 . S
C744 C743 1.516 . S
C744 C745 1.502 . S
C744 C746 1.561 . S
C744 C747 1.526 . S
C745 H729 0.959 . S
C745 H730 0.959 . S
C745 H731 0.961 . S
C745 C744 1.502 . S
C746 H732 0.960 . S
C746 H733 0.961 . S
C746 H734 0.959 . S
C746 C744 1.561 . S
C747 C744 1.526 . S
C747 C748 1.396 . S
C747 C752 1.390 . S
C748 C742 1.465 . S
C748 C747 1.396 . S
C748 C749 1.399 . S
C749 H735 0.929 . S
C749 C748 1.399 . S
C749 C750 1.385 . S
C750 H736 0.931 . S
C750 C749 1.385 . S
C750 C751 1.389 . S
C751 C750 1.389 . S
C751 C752 1.387 . S
C752 H737 0.930 . S
C752 C747 1.390 . S
C752 C751 1.387 . S
H753 C765 0.930 . S
H754 C767 0.930 . S
H755 C768 0.930 . S
H756 C772 0.959 . S
H757 C772 0.959 . S
H758 C772 0.961 . S
H759 C773 0.960 . S
H760 C773 0.961 . S
H761 C773 0.959 . S
H762 C776 0.929 . S
H763 C777 0.931 . S
H764 C779 0.930 . S
C765 H753 0.930 . S
C765 C766 1.399 . S
C765 C770 1.399 . S
C766 C765 1.399 . S
C766 C767 1.376 . S
C767 H754 0.930 . S
C767 C766 1.376 . S
C767 C768 1.388 . S
C768 H755 0.930 . S
C768 C767 1.388 . S
C768 C769 1.390 . S
C769 C768 1.390 . S
C769 C770 1.394 . S
C769 C775 1.465 . S
C770 C765 1.399 . S
C770 C769 1.394 . S
C770 C771 1.516 . S
C771 C770 1.516 . S
C771 C772 1.502 . S
C771 C773 1.561 . S
C771 C774 1.526 . S
C772 H756 0.959 . S
C772 H757 0.959 . S
C772 H758 0.961 . S
C772 C771 1.502 . S
C773 H759 0.960 . S
C773 H760 0.961 . S
C773 H761 0.959 . S
C773 C771 1.561 . S
C774 C771 1.526 . S
C774 C775 1.396 . S
C774 C779 1.390 . S
C775 C769 1.465 . S
C775 C774 1.396 . S
C775 C776 1.399 . S
C776 H762 0.929 . S
C776 C775 1.399 . S
C776 C777 1.385 . S
C777 H763 0.931 . S
C777 C776 1.385 . S
C777 C778 1.389 . S
C778 C777 1.389 . S
C778 C779 1.387 . S
C779 H764 0.930 . S
C779 C774 1.390 . S
C779 C778 1.387 . S
H780 C792 0.930 . S
H781 C794 0.930 . S
H782 C795 0.930 . S
H783 C799 0.959 . S
H784 C799 0.959 . S
H785 C799 0.961 . S
H786 C800 0.960 . S
H787 C800 0.961 . S
H788 C800 0.959 . S
H789 C803 0.929 . S
H790 C804 0.931 . S
H791 C806 0.930 . S
C792 H780 0.930 . S
C792 C793 1.399 . S
C792 C797 1.399 . S
C793 C792 1.399 . S
C793 C794 1.376 . S
C794 H781 0.930 . S
C794 C793 1.376 . S
C794 C795 1.388 . S
C795 H782 0.930 . S
C795 C794 1.388 . S
C795 C796 1.390 . S
C796 C795 1.390 . S
C796 C797 1.394 . S
C796 C802 1.465 . S
C797 C792 1.399 . S
C797 C796 1.394 . S
C797 C798 1.516 . S
C798 C797 1.516 . S
C798 C799 1.502 . S
C798 C800 1.561 . S
C798 C801 1.526 . S
C799 H783 0.959 . S
C799 H784 0.959 . S
C799 H785 0.961 . S
C799 C798 1.502 . S
C800 H786 0.960 . S
C800 H787 0.961 . S
C800 H788 0.959 . S
C800 C798 1.561 . S
C801 C798 1.526 . S
C801 C802 1.396 . S
C801 C806 1.390 . S
C802 C796 1.465 . S
C802 C801 1.396 . S
C802 C803 1.399 . S
C803 H789 0.929 . S
C803 C802 1.399 . S
C803 C804 1.385 . S
C804 H790 0.931 . S
C804 C803 1.385 . S
C804 C805 1.389 . S
C805 C804 1.389 . S
C805 C806 1.387 . S
C806 H791 0.930 . S
C806 C801 1.390 . S
C806 C805 1.387 . S
H807 C819 0.930 . S
H808 C821 0.930 . S
H809 C822 0.930 . S
H810 C826 0.959 . S
H811 C826 0.959 . S
H812 C826 0.961 . S
H813 C827 0.960 1_554 S
H814 C827 0.961 . S
H815 C827 0.959 . S
H816 C830 0.929 . S
H817 C831 0.931 . S
H818 C833 0.930 . S
C819 H807 0.930 . S
C819 C820 1.399 . S
C819 C824 1.399 . S
C820 C819 1.399 . S
C820 C821 1.376 . S
C821 H808 0.930 . S
C821 C820 1.376 . S
C821 C822 1.388 . S
C822 H809 0.930 . S
C822 C821 1.388 . S
C822 C823 1.390 . S
C823 C822 1.390 . S
C823 C824 1.394 . S
C823 C829 1.465 . S
C824 C819 1.399 . S
C824 C823 1.394 . S
C824 C825 1.516 . S
C825 C824 1.516 . S
C825 C826 1.502 . S
C825 C827 1.561 . S
C825 C828 1.526 . S
C826 H810 0.959 . S
C826 H811 0.959 . S
C826 H812 0.961 . S
C826 C825 1.502 . S
C827 H813 0.960 1_556 S
C827 H814 0.961 . S
C827 H815 0.959 . S
C827 C825 1.561 . S
C828 C825 1.526 . S
C828 C829 1.396 . S
C828 C833 1.390 . S
C829 C823 1.465 . S
C829 C828 1.396 . S
C829 C830 1.399 . S
C830 H816 0.929 . S
C830 C829 1.399 . S
C830 C831 1.385 . S
C831 H817 0.931 . S
C831 C830 1.385 . S
C831 C832 1.389 . S
C832 C831 1.389 . S
C832 C833 1.387 . S
C833 H818 0.930 . S
C833 C828 1.390 . S
C833 C832 1.387 . S
H834 C846 0.930 . S
H835 C848 0.930 . S
H836 C849 0.930 . S
H837 C853 0.959 . S
H838 C853 0.959 . S
H839 C853 0.961 . S
H840 C854 0.960 . S
H841 C854 0.961 . S
H842 C854 0.959 . S
H843 C857 0.929 . S
H844 C858 0.931 . S
H845 C860 0.930 . S
C846 H834 0.930 . S
C846 C847 1.399 . S
C846 C851 1.399 . S
C847 C846 1.399 . S
C847 C848 1.376 . S
C848 H835 0.930 . S
C848 C847 1.376 . S
C848 C849 1.388 . S
C849 H836 0.930 . S
C849 C848 1.388 . S
C849 C850 1.390 . S
C850 C849 1.390 . S
C850 C851 1.394 . S
C850 C856 1.465 . S
C851 C846 1.399 . S
C851 C850 1.394 . S
C851 C852 1.516 . S
C852 C851 1.516 . S
C852 C853 1.502 . S
C852 C854 1.561 . S
C852 C855 1.526 . S
C853 H837 0.959 . S
C853 H838 0.959 . S
C853 H839 0.961 . S
C853 C852 1.502 . S
C854 H840 0.960 . S
C854 H841 0.961 . S
C854 H842 0.959 . S
C854 C852 1.561 . S
C855 C852 1.526 . S
C855 C856 1.396 . S
C855 C860 1.390 . S
C856 C850 1.465 . S
C856 C855 1.396 . S
C856 C857 1.399 . S
C857 H843 0.929 . S
C857 C856 1.399 . S
C857 C858 1.385 . S
C858 H844 0.931 . S
C858 C857 1.385 . S
C858 C859 1.389 . S
C859 C858 1.389 . S
C859 C860 1.387 . S
C860 H845 0.930 . S
C860 C855 1.390 . S
C860 C859 1.387 . S
H861 C873 0.930 . S
H862 C875 0.930 . S
H863 C876 0.930 . S
H864 C880 0.959 . S
H865 C880 0.959 . S
H866 C880 0.961 . S
H867 C881 0.960 . S
H868 C881 0.961 . S
H869 C881 0.959 . S
H870 C884 0.929 . S
H871 C885 0.931 . S
H872 C887 0.930 . S
C873 H861 0.930 . S
C873 C874 1.399 . S
C873 C878 1.399 . S
C874 C873 1.399 . S
C874 C875 1.376 . S
C875 H862 0.930 . S
C875 C874 1.376 . S
C875 C876 1.388 . S
C876 H863 0.930 . S
C876 C875 1.388 . S
C876 C877 1.390 . S
C877 C876 1.390 . S
C877 C878 1.394 . S
C877 C883 1.465 . S
C878 C873 1.399 . S
C878 C877 1.394 . S
C878 C879 1.516 . S
C879 C878 1.516 . S
C879 C880 1.502 . S
C879 C881 1.561 . S
C879 C882 1.526 . S
C880 H864 0.959 . S
C880 H865 0.959 . S
C880 H866 0.961 . S
C880 C879 1.502 . S
C881 H867 0.960 . S
C881 H868 0.961 . S
C881 H869 0.959 . S
C881 C879 1.561 . S
C882 C879 1.526 . S
C882 C883 1.396 . S
C882 C887 1.390 . S
C883 C877 1.465 . S
C883 C882 1.396 . S
C883 C884 1.399 . S
C884 H870 0.929 . S
C884 C883 1.399 . S
C884 C885 1.385 . S
C885 H871 0.931 . S
C885 C884 1.385 . S
C885 C886 1.389 . S
C886 C885 1.389 . S
C886 C887 1.387 . S
C887 H872 0.930 . S
C887 C882 1.390 . S
C887 C886 1.387 . S
H888 C900 0.930 . S
H889 C902 0.930 . S
H890 C903 0.930 . S
H891 C907 0.959 . S
H892 C907 0.959 . S
H893 C907 0.961 . S
H894 C908 0.960 . S
H895 C908 0.961 . S
H896 C908 0.959 . S
H897 C911 0.929 . S
H898 C912 0.931 . S
H899 C914 0.930 . S
C900 H888 0.930 . S
C900 C901 1.399 . S
C900 C905 1.399 . S
C901 C900 1.399 . S
C901 C902 1.376 . S
C902 H889 0.930 . S
C902 C901 1.376 . S
C902 C903 1.388 . S
C903 H890 0.930 . S
C903 C902 1.388 . S
C903 C904 1.390 . S
C904 C903 1.390 . S
C904 C905 1.394 . S
C904 C910 1.465 . S
C905 C900 1.399 . S
C905 C904 1.394 . S
C905 C906 1.516 . S
C906 C905 1.516 . S
C906 C907 1.502 . S
C906 C908 1.561 . S
C906 C909 1.526 . S
C907 H891 0.959 . S
C907 H892 0.959 . S
C907 H893 0.961 . S
C907 C906 1.502 . S
C908 H894 0.960 . S
C908 H895 0.961 . S
C908 H896 0.959 . S
C908 C906 1.561 . S
C909 C906 1.526 . S
C909 C910 1.396 . S
C909 C914 1.390 . S
C910 C904 1.465 . S
C910 C909 1.396 . S
C910 C911 1.399 . S
C911 H897 0.929 . S
C911 C910 1.399 . S
C911 C912 1.385 . S
C912 H898 0.931 . S
C912 C911 1.385 . S
C912 C913 1.389 . S
C913 C912 1.389 . S
C913 C914 1.387 . S
C914 H899 0.930 . S
C914 C909 1.390 . S
C914 C913 1.387 . S
H915 C927 0.930 . S
H916 C929 0.930 . S
H917 C930 0.930 . S
H918 C934 0.959 . S
H919 C934 0.959 . S
H920 C934 0.961 . S
H921 C935 0.960 . S
H922 C935 0.961 . S
H923 C935 0.959 . S
H924 C938 0.929 . S
H925 C939 0.931 . S
H926 C941 0.930 . S
C927 H915 0.930 . S
C927 C928 1.399 . S
C927 C932 1.399 . S
C928 C927 1.399 . S
C928 C929 1.376 . S
C929 H916 0.930 . S
C929 C928 1.376 . S
C929 C930 1.388 . S
C930 H917 0.930 . S
C930 C929 1.388 . S
C930 C931 1.390 . S
C931 C930 1.390 . S
C931 C932 1.394 . S
C931 C937 1.465 . S
C932 C927 1.399 . S
C932 C931 1.394 . S
C932 C933 1.516 . S
C933 C932 1.516 . S
C933 C934 1.502 . S
C933 C935 1.561 . S
C933 C936 1.526 . S
C934 H918 0.959 . S
C934 H919 0.959 . S
C934 H920 0.961 . S
C934 C933 1.502 . S
C935 H921 0.960 . S
C935 H922 0.961 . S
C935 H923 0.959 . S
C935 C933 1.561 . S
C936 C933 1.526 . S
C936 C937 1.396 . S
C936 C941 1.390 . S
C937 C931 1.465 . S
C937 C936 1.396 . S
C937 C938 1.399 . S
C938 H924 0.929 . S
C938 C937 1.399 . S
C938 C939 1.385 . S
C939 H925 0.931 . S
C939 C938 1.385 . S
C939 C940 1.389 . S
C940 C939 1.389 . S
C940 C941 1.387 . S
C941 H926 0.930 . S
C941 C936 1.390 . S
C941 C940 1.387 . S
H942 C954 0.930 . S
H943 C956 0.930 . S
H944 C957 0.930 . S
H945 C961 0.959 . S
H946 C961 0.959 . S
H947 C961 0.961 . S
H948 C962 0.960 . S
H949 C962 0.961 . S
H950 C962 0.959 . S
H951 C965 0.929 . S
H952 C966 0.931 . S
H953 C968 0.930 . S
C954 H942 0.930 . S
C954 C955 1.399 . S
C954 C959 1.399 . S
C955 C954 1.399 . S
C955 C956 1.376 . S
C956 H943 0.930 . S
C956 C955 1.376 . S
C956 C957 1.388 . S
C957 H944 0.930 . S
C957 C956 1.388 . S
C957 C958 1.390 . S
C958 C957 1.390 . S
C958 C959 1.394 . S
C958 C964 1.465 . S
C959 C954 1.399 . S
C959 C958 1.394 . S
C959 C960 1.516 . S
C960 C959 1.516 . S
C960 C961 1.502 . S
C960 C962 1.561 . S
C960 C963 1.526 . S
C961 H945 0.959 . S
C961 H946 0.959 . S
C961 H947 0.961 . S
C961 C960 1.502 . S
C962 H948 0.960 . S
C962 H949 0.961 . S
C962 H950 0.959 . S
C962 C960 1.561 . S
C963 C960 1.526 . S
C963 C964 1.396 . S
C963 C968 1.390 . S
C964 C958 1.465 . S
C964 C963 1.396 . S
C964 C965 1.399 . S
C965 H951 0.929 . S
C965 C964 1.399 . S
C965 C966 1.385 . S
C966 H952 0.931 . S
C966 C965 1.385 . S
C966 C967 1.389 . S
C967 C966 1.389 . S
C967 C968 1.387 . S
C968 H953 0.930 . S
C968 C963 1.390 . S
C968 C967 1.387 . S
H969 C981 0.930 . S
H970 C983 0.930 . S
H971 C984 0.930 . S
H972 C988 0.959 . S
H973 C988 0.959 . S
H974 C988 0.961 . S
H975 C989 0.960 . S
H976 C989 0.961 . S
H977 C989 0.959 . S
H978 C992 0.929 . S
H979 C993 0.931 . S
H980 C995 0.930 . S
C981 H969 0.930 . S
C981 C982 1.399 . S
C981 C986 1.399 . S
C982 C981 1.399 . S
C982 C983 1.376 . S
C983 H970 0.930 . S
C983 C982 1.376 . S
C983 C984 1.388 . S
C984 H971 0.930 . S
C984 C983 1.388 . S
C984 C985 1.390 . S
C985 C984 1.390 . S
C985 C986 1.394 . S
C985 C991 1.465 . S
C986 C981 1.399 . S
C986 C985 1.394 . S
C986 C987 1.516 . S
C987 C986 1.516 . S
C987 C988 1.502 . S
C987 C989 1.561 . S
C987 C990 1.526 . S
C988 H972 0.959 . S
C988 H973 0.959 . S
C988 H974 0.961 . S
C988 C987 1.502 . S
C989 H975 0.960 . S
C989 H976 0.961 . S
C989 H977 0.959 . S
C989 C987 1.561 . S
C990 C987 1.526 . S
C990 C991 1.396 . S
C990 C995 1.390 . S
C991 C985 1.465 . S
C991 C990 1.396 . S
C991 C992 1.399 . S
C992 H978 0.929 . S
C992 C991 1.399 . S
C992 C993 1.385 . S
C993 H979 0.931 . S
C993 C992 1.385 . S
C993 C994 1.389 . S
C994 C993 1.389 . S
C994 C995 1.387 . S
C995 H980 0.930 . S
C995 C990 1.390 . S
C995 C994 1.387 . S
H996 C1008 0.930 . S
H997 C1010 0.930 . S
H998 C1011 0.930 . S
H999 C1015 0.959 . S
H1000 C1015 0.959 . S
H1001 C1015 0.961 . S
H1002 C1016 0.960 . S
H1003 C1016 0.961 . S
H1004 C1016 0.959 . S
H1005 C1019 0.929 . S
H1006 C1020 0.931 . S
H1007 C1022 0.930 . S
C1008 H996 0.930 . S
C1008 C1009 1.399 . S
C1008 C1013 1.399 . S
C1009 C1008 1.399 . S
C1009 C1010 1.376 . S
C1010 H997 0.930 . S
C1010 C1009 1.376 . S
C1010 C1011 1.388 . S
C1011 H998 0.930 . S
C1011 C1010 1.388 . S
C1011 C1012 1.390 . S
C1012 C1011 1.390 . S
C1012 C1013 1.394 . S
C1012 C1018 1.465 . S
C1013 C1008 1.399 . S
C1013 C1012 1.394 . S
C1013 C1014 1.516 . S
C1014 C1013 1.516 . S
C1014 C1015 1.502 . S
C1014 C1016 1.561 . S
C1014 C1017 1.526 . S
C1015 H999 0.959 . S
C1015 H1000 0.959 . S
C1015 H1001 0.961 . S
C1015 C1014 1.502 . S
C1016 H1002 0.960 . S
C1016 H1003 0.961 . S
C1016 H1004 0.959 . S
C1016 C1014 1.561 . S
C1017 C1014 1.526 . S
C1017 C1018 1.396 . S
C1017 C1022 1.390 . S
C1018 C1012 1.465 . S
C1018 C1017 1.396 . S
C1018 C1019 1.399 . S
C1019 H1005 0.929 . S
C1019 C1018 1.399 . S
C1019 C1020 1.385 . S
C1020 H1006 0.931 . S
C1020 C1019 1.385 . S
C1020 C1021 1.389 . S
C1021 C1020 1.389 . S
C1021 C1022 1.387 . S
C1022 H1007 0.930 . S
C1022 C1017 1.390 . S
C1022 C1021 1.387 . S
H1023 C1035 0.930 . S
H1024 C1037 0.930 . S
H1025 C1038 0.930 . S
H1026 C1042 0.959 . S
H1027 C1042 0.959 . S
H1028 C1042 0.961 . S
H1029 C1043 0.960 . S
H1030 C1043 0.961 . S
H1031 C1043 0.959 . S
H1032 C1046 0.929 . S
H1033 C1047 0.931 . S
H1034 C1049 0.930 . S
C1035 H1023 0.930 . S
C1035 C1036 1.399 . S
C1035 C1040 1.399 . S
C1036 C1035 1.399 . S
C1036 C1037 1.376 . S
C1037 H1024 0.930 . S
C1037 C1036 1.376 . S
C1037 C1038 1.388 . S
C1038 H1025 0.930 . S
C1038 C1037 1.388 . S
C1038 C1039 1.390 . S
C1039 C1038 1.390 . S
C1039 C1040 1.394 . S
C1039 C1045 1.465 . S
C1040 C1035 1.399 . S
C1040 C1039 1.394 . S
C1040 C1041 1.516 . S
C1041 C1040 1.516 . S
C1041 C1042 1.502 . S
C1041 C1043 1.561 . S
C1041 C1044 1.526 . S
C1042 H1026 0.959 . S
C1042 H1027 0.959 . S
C1042 H1028 0.961 . S
C1042 C1041 1.502 . S
C1043 H1029 0.960 . S
C1043 H1030 0.961 . S
C1043 H1031 0.959 . S
C1043 C1041 1.561 . S
C1044 C1041 1.526 . S
C1044 C1045 1.396 . S
C1044 C1049 1.390 . S
C1045 C1039 1.465 . S
C1045 C1044 1.396 . S
C1045 C1046 1.399 . S
C1046 H1032 0.929 . S
C1046 C1045 1.399 . S
C1046 C1047 1.385 . S
C1047 H1033 0.931 . S
C1047 C1046 1.385 . S
C1047 C1048 1.389 . S
C1048 C1047 1.389 . S
C1048 C1049 1.387 . S
C1049 H1034 0.930 . S
C1049 C1044 1.390 . S
C1049 C1048 1.387 . S
H1050 C1062 0.930 . S
H1051 C1064 0.930 . S
H1052 C1065 0.930 . S
H1053 C1069 0.959 . S
H1054 C1069 0.959 1_655 S
H1055 C1069 0.961 . S
H1056 C1070 0.960 . S
H1057 C1070 0.961 . S
H1058 C1070 0.959 . S
H1059 C1073 0.929 . S
H1060 C1074 0.931 . S
H1061 C1076 0.930 . S
C1062 H1050 0.930 . S
C1062 C1063 1.399 . S
C1062 C1067 1.399 1_455 S
C1063 C1062 1.399 . S
C1063 C1064 1.376 1_455 S
C1064 H1051 0.930 . S
C1064 C1063 1.376 1_655 S
C1064 C1065 1.388 . S
C1065 H1052 0.930 . S
C1065 C1064 1.388 . S
C1065 C1066 1.390 . S
C1066 C1065 1.390 . S
C1066 C1067 1.394 . S
C1066 C1072 1.465 . S
C1067 C1062 1.399 1_655 S
C1067 C1066 1.394 . S
C1067 C1068 1.516 . S
C1068 C1067 1.516 . S
C1068 C1069 1.502 1_655 S
C1068 C1070 1.561 . S
C1068 C1071 1.526 . S
C1069 H1053 0.959 . S
C1069 H1054 0.959 1_455 S
C1069 H1055 0.961 . S
C1069 C1068 1.502 1_455 S
C1070 H1056 0.960 . S
C1070 H1057 0.961 . S
C1070 H1058 0.959 . S
C1070 C1068 1.561 . S
C1071 C1068 1.526 . S
C1071 C1072 1.396 . S
C1071 C1076 1.390 . S
C1072 C1066 1.465 . S
C1072 C1071 1.396 . S
C1072 C1073 1.399 . S
C1073 H1059 0.929 . S
C1073 C1072 1.399 . S
C1073 C1074 1.385 . S
C1074 H1060 0.931 . S
C1074 C1073 1.385 . S
C1074 C1075 1.389 . S
C1075 C1074 1.389 . S
C1075 C1076 1.387 . S
C1076 H1061 0.930 . S
C1076 C1071 1.390 . S
C1076 C1075 1.387 . S
H1077 C1089 0.930 . S
H1078 C1091 0.930 . S
H1079 C1092 0.930 . S
H1080 C1096 0.959 . S
H1081 C1096 0.959 . S
H1082 C1096 0.961 . S
H1083 C1097 0.960 . S
H1084 C1097 0.961 . S
H1085 C1097 0.959 . S
H1086 C1100 0.929 . S
H1087 C1101 0.931 . S
H1088 C1103 0.930 . S
C1089 H1077 0.930 . S
C1089 C1090 1.399 . S
C1089 C1094 1.399 . S
C1090 C1089 1.399 . S
C1090 C1091 1.376 . S
C1091 H1078 0.930 . S
C1091 C1090 1.376 . S
C1091 C1092 1.388 . S
C1092 H1079 0.930 . S
C1092 C1091 1.388 . S
C1092 C1093 1.390 . S
C1093 C1092 1.390 . S
C1093 C1094 1.394 . S
C1093 C1099 1.465 . S
C1094 C1089 1.399 . S
C1094 C1093 1.394 . S
C1094 C1095 1.516 . S
C1095 C1094 1.516 . S
C1095 C1096 1.502 . S
C1095 C1097 1.561 . S
C1095 C1098 1.526 . S
C1096 H1080 0.959 . S
C1096 H1081 0.959 . S
C1096 H1082 0.961 . S
C1096 C1095 1.502 . S
C1097 H1083 0.960 . S
C1097 H1084 0.961 . S
C1097 H1085 0.959 . S
C1097 C1095 1.561 . S
C1098 C1095 1.526 . S
C1098 C1099 1.396 . S
C1098 C1103 1.390 . S
C1099 C1093 1.465 . S
C1099 C1098 1.396 . S
C1099 C1100 1.399 . S
C1100 H1086 0.929 . S
C1100 C1099 1.399 . S
C1100 C1101 1.385 . S
C1101 H1087 0.931 . S
C1101 C1100 1.385 . S
C1101 C1102 1.389 . S
C1102 C1101 1.389 . S
C1102 C1103 1.387 . S
C1103 H1088 0.930 . S
C1103 C1098 1.390 . S
C1103 C1102 1.387 . S
H1104 C1116 0.930 . S
H1105 C1118 0.930 . S
H1106 C1119 0.930 . S
H1107 C1123 0.959 . S
H1108 C1123 0.959 . S
H1109 C1123 0.961 . S
H1110 C1124 0.960 . S
H1111 C1124 0.961 . S
H1112 C1124 0.959 . S
H1113 C1127 0.929 . S
H1114 C1128 0.931 . S
H1115 C1130 0.930 . S
C1116 H1104 0.930 . S
C1116 C1117 1.399 . S
C1116 C1121 1.399 . S
C1117 C1116 1.399 . S
C1117 C1118 1.376 . S
C1118 H1105 0.930 . S
C1118 C1117 1.376 . S
C1118 C1119 1.388 . S
C1119 H1106 0.930 . S
C1119 C1118 1.388 . S
C1119 C1120 1.390 . S
C1120 C1119 1.390 . S
C1120 C1121 1.394 . S
C1120 C1126 1.465 . S
C1121 C1116 1.399 . S
C1121 C1120 1.394 . S
C1121 C1122 1.516 . S
C1122 C1121 1.516 . S
C1122 C1123 1.502 . S
C1122 C1124 1.561 . S
C1122 C1125 1.526 . S
C1123 H1107 0.959 . S
C1123 H1108 0.959 . S
C1123 H1109 0.961 . S
C1123 C1122 1.502 . S
C1124 H1110 0.960 . S
C1124 H1111 0.961 . S
C1124 H1112 0.959 . S
C1124 C1122 1.561 . S
C1125 C1122 1.526 . S
C1125 C1126 1.396 . S
C1125 C1130 1.390 . S
C1126 C1120 1.465 . S
C1126 C1125 1.396 . S
C1126 C1127 1.399 . S
C1127 H1113 0.929 . S
C1127 C1126 1.399 . S
C1127 C1128 1.385 . S
C1128 H1114 0.931 . S
C1128 C1127 1.385 . S
C1128 C1129 1.389 . S
C1129 C1128 1.389 . S
C1129 C1130 1.387 . S
C1130 H1115 0.930 . S
C1130 C1125 1.390 . S
C1130 C1129 1.387 . S
H1131 C1143 0.930 . S
H1132 C1145 0.930 . S
H1133 C1146 0.930 . S
H1134 C1150 0.959 . S
H1135 C1150 0.959 . S
H1136 C1150 0.961 . S
H1137 C1151 0.960 . S
H1138 C1151 0.961 . S
H1139 C1151 0.959 . S
H1140 C1154 0.929 . S
H1141 C1155 0.931 . S
H1142 C1157 0.930 . S
C1143 H1131 0.930 . S
C1143 C1144 1.399 . S
C1143 C1148 1.399 . S
C1144 C1143 1.399 . S
C1144 C1145 1.376 . S
C1145 H1132 0.930 . S
C1145 C1144 1.376 . S
C1145 C1146 1.388 . S
C1146 H1133 0.930 . S
C1146 C1145 1.388 . S
C1146 C1147 1.390 . S
C1147 C1146 1.390 . S
C1147 C1148 1.394 . S
C1147 C1153 1.465 . S
C1148 C1143 1.399 . S
C1148 C1147 1.394 . S
C1148 C1149 1.516 . S
C1149 C1148 1.516 . S
C1149 C1150 1.502 . S
C1149 C1151 1.561 . S
C1149 C1152 1.526 . S
C1150 H1134 0.959 . S
C1150 H1135 0.959 . S
C1150 H1136 0.961 . S
C1150 C1149 1.502 . S
C1151 H1137 0.960 . S
C1151 H1138 0.961 . S
C1151 H1139 0.959 . S
C1151 C1149 1.561 . S
C1152 C1149 1.526 . S
C1152 C1153 1.396 . S
C1152 C1157 1.390 . S
C1153 C1147 1.465 . S
C1153 C1152 1.396 . S
C1153 C1154 1.399 . S
C1154 H1140 0.929 . S
C1154 C1153 1.399 . S
C1154 C1155 1.385 . S
C1155 H1141 0.931 . S
C1155 C1154 1.385 . S
C1155 C1156 1.389 . S
C1156 C1155 1.389 . S
C1156 C1157 1.387 . S
C1157 H1142 0.930 . S
C1157 C1152 1.390 . S
C1157 C1156 1.387 . S
C523 C7 1.787 . S
C535 C191 1.689 . S
C550 C30 1.713 . S
C562 C235 1.620 . S
C589 C315 1.586 . S
C577 N58 1.639 . S
C616 C359 1.416 . S
C604 N81 1.346 1_655 S
C643 C439 1.723 . S
C631 C99 1.793 . S
C670 C495 1.555 . S
C658 N127 1.700 . S
C685 N25 1.875 . S
C697 C291 1.809 . S
C712 C62 1.553 . S
C724 C371 1.518 . S
C751 C415 1.846 . S
C739 C85 1.952 . S
C778 C483 1.455 . S
C766 N94 1.516 . S
C793 C131 1.761 . S
C805 C167 1.666 . S
C832 C247 1.584 . S
C820 N2 1.663 1_556 S
C859 C353 1.784 . S
C847 C16 1.911 1_556 S
C874 C39 1.564 . S
C886 C433 1.412 . S
C913 C501 1.640 . S
C901 N48 1.627 . S
C928 N71 1.511 . S
C940 C185 1.410 . S
C955 C108 1.701 . S
C967 C229 1.604 . S
C982 N117 1.746 . S
C994 C309 1.594 . S
C1009 N35 1.885 . S
C1021 C477 1.815 . S
C1048 C173 1.522 . S
C1036 C53 1.672 . S
C1063 C76 1.801 . S
C1075 C253 1.764 . S
C1090 N104 1.395 . S
C1102 C297 1.354 . S
C1117 C122 1.801 . S
C1129 C377 1.717 . S
C1144 N12 1.414 . S
C1156 C421 1.407 . S
