# Generated by pormake.
# Topology ptr, (4,4)-cn, num edge types: 1
# Building blocks:
#     Node 0, Type 0, BuildingBlock: KUFVIS_clean_sbu_0, # of connection points: 4
#     Node 1, Type 0, BuildingBlock: KUFVIS_clean_sbu_0, # of connection points: 4
#     Node 2, Type 0, BuildingBlock: KUFVIS_clean_sbu_0, # of connection points: 4
#     Node 3, Type 0, BuildingBlock: KUFVIS_clean_sbu_0, # of connection points: 4
#     Node 4, Type 0, BuildingBlock: KUFVIS_clean_sbu_0, # of connection points: 4
#     Node 5, Type 0, BuildingBlock: KUFVIS_clean_sbu_0, # of connection points: 4
#     Node 6, Type 0, BuildingBlock: KUFVIS_clean_sbu_0, # of connection points: 4
#     Node 7, Type 0, BuildingBlock: KUFVIS_clean_sbu_0, # of connection points: 4
#     Node 8, Type 0, BuildingBlock: KUFVIS_clean_sbu_0, # of connection points: 4
#     Node 9, Type 0, BuildingBlock: KUFVIS_clean_sbu_0, # of connection points: 4
#     Node 10, Type 0, BuildingBlock: KUFVIS_clean_sbu_0, # of connection points: 4
#     Node 11, Type 0, BuildingBlock: KUFVIS_clean_sbu_0, # of connection points: 4
#     Node 12, Type 0, BuildingBlock: KUFVIS_clean_sbu_0, # of connection points: 4
#     Node 13, Type 0, BuildingBlock: KUFVIS_clean_sbu_0, # of connection points: 4
#     Node 14, Type 0, BuildingBlock: KUFVIS_clean_sbu_0, # of connection points: 4
#     Node 15, Type 0, BuildingBlock: KUFVIS_clean_sbu_0, # of connection points: 4
#     Node 16, Type 0, BuildingBlock: KUFVIS_clean_sbu_0, # of connection points: 4
#     Node 17, Type 0, BuildingBlock: KUFVIS_clean_sbu_0, # of connection points: 4
#     Node 18, Type 1, BuildingBlock: KUFVIS_clean_linker_0, # of connection points: 4
#     Node 19, Type 1, BuildingBlock: KUFVIS_clean_linker_0, # of connection points: 4
#     Node 20, Type 1, BuildingBlock: KUFVIS_clean_linker_0, # of connection points: 4
#     Node 21, Type 1, BuildingBlock: KUFVIS_clean_linker_0, # of connection points: 4
#     Node 22, Type 1, BuildingBlock: KUFVIS_clean_linker_0, # of connection points: 4
#     Node 23, Type 1, BuildingBlock: KUFVIS_clean_linker_0, # of connection points: 4
#     Node 24, Type 1, BuildingBlock: KUFVIS_clean_linker_0, # of connection points: 4
#     Node 25, Type 1, BuildingBlock: KUFVIS_clean_linker_0, # of connection points: 4
#     Node 26, Type 1, BuildingBlock: KUFVIS_clean_linker_0, # of connection points: 4
#     Node 27, Type 1, BuildingBlock: KUFVIS_clean_linker_0, # of connection points: 4
#     Node 28, Type 1, BuildingBlock: KUFVIS_clean_linker_0, # of connection points: 4
#     Node 29, Type 1, BuildingBlock: KUFVIS_clean_linker_0, # of connection points: 4
#     Node 30, Type 1, BuildingBlock: KUFVIS_clean_linker_0, # of connection points: 4
#     Node 31, Type 1, BuildingBlock: KUFVIS_clean_linker_0, # of connection points: 4
#     Node 32, Type 1, BuildingBlock: KUFVIS_clean_linker_0, # of connection points: 4
#     Node 33, Type 1, BuildingBlock: KUFVIS_clean_linker_0, # of connection points: 4
#     Node 34, Type 1, BuildingBlock: KUFVIS_clean_linker_0, # of connection points: 4
#     Node 35, Type 1, BuildingBlock: KUFVIS_clean_linker_0, # of connection points: 4
#     Edge 36, Type (0, 1), None
#     Edge 37, Type (0, 1), None
#     Edge 38, Type (0, 1), None
#     Edge 39, Type (0, 1), None
#     Edge 40, Type (0, 1), None
#     Edge 41, Type (0, 1), None
#     Edge 42, Type (0, 1), None
#     Edge 43, Type (0, 1), None
#     Edge 44, Type (0, 1), None
#     Edge 45, Type (0, 1), None
#     Edge 46, Type (0, 1), None
#     Edge 47, Type (0, 1), None
#     Edge 48, Type (0, 1), None
#     Edge 49, Type (0, 1), None
#     Edge 50, Type (0, 1), None
#     Edge 51, Type (0, 1), None
#     Edge 52, Type (0, 1), None
#     Edge 53, Type (0, 1), None
#     Edge 54, Type (0, 1), None
#     Edge 55, Type (0, 1), None
#     Edge 56, Type (0, 1), None
#     Edge 57, Type (0, 1), None
#     Edge 58, Type (0, 1), None
#     Edge 59, Type (0, 1), None
#     Edge 60, Type (0, 1), None
#     Edge 61, Type (0, 1), None
#     Edge 62, Type (0, 1), None
#     Edge 63, Type (0, 1), None
#     Edge 64, Type (0, 1), None
#     Edge 65, Type (0, 1), None
#     Edge 66, Type (0, 1), None
#     Edge 67, Type (0, 1), None
#     Edge 68, Type (0, 1), None
#     Edge 69, Type (0, 1), None
#     Edge 70, Type (0, 1), None
#     Edge 71, Type (0, 1), None
#     Edge 72, Type (0, 1), None
#     Edge 73, Type (0, 1), None
#     Edge 74, Type (0, 1), None
#     Edge 75, Type (0, 1), None
#     Edge 76, Type (0, 1), None
#     Edge 77, Type (0, 1), None
#     Edge 78, Type (0, 1), None
#     Edge 79, Type (0, 1), None
#     Edge 80, Type (0, 1), None
#     Edge 81, Type (0, 1), None
#     Edge 82, Type (0, 1), None
#     Edge 83, Type (0, 1), None
#     Edge 84, Type (0, 1), None
#     Edge 85, Type (0, 1), None
#     Edge 86, Type (0, 1), None
#     Edge 87, Type (0, 1), None
#     Edge 88, Type (0, 1), None
#     Edge 89, Type (0, 1), None
#     Edge 90, Type (0, 1), None
#     Edge 91, Type (0, 1), None
#     Edge 92, Type (0, 1), None
#     Edge 93, Type (0, 1), None
#     Edge 94, Type (0, 1), None
#     Edge 95, Type (0, 1), None
#     Edge 96, Type (0, 1), None
#     Edge 97, Type (0, 1), None
#     Edge 98, Type (0, 1), None
#     Edge 99, Type (0, 1), None
#     Edge 100, Type (0, 1), None
#     Edge 101, Type (0, 1), None
#     Edge 102, Type (0, 1), None
#     Edge 103, Type (0, 1), None
#     Edge 104, Type (0, 1), None
#     Edge 105, Type (0, 1), None
#     Edge 106, Type (0, 1), None
#     Edge 107, Type (0, 1), None
# Relax obj value: 0.051
# Max RMSD: 0.139
# Mean RMSD: 0.089
data_MOF--net-ptr--node1-KUFVIS_clean_sbu_0--node2-KUFVIS_clean_linker_0--edge1-none
_symmetry_space_group_name_H-M    P1
_symmetry_Int_Tables_number       1
_symmetry_cell_setting            triclinic
loop_
_symmetry_equiv_pos_as_xyz
'x, y, z'
_cell_length_a     35.257471
_cell_length_b     35.40196
_cell_length_c     23.221502
_cell_angle_alpha  90.104727
_cell_angle_beta   90.836968
_cell_angle_gamma 119.50918
loop_
_atom_site_label
_atom_site_type_symbol
_atom_site_fract_x
_atom_site_fract_y
_atom_site_fract_z
_atom_type_partial_charge
Mn0 Mn 1.01687 0.35932 -0.01065 0.0
Mn1 Mn 0.10605 0.45866 0.01906 0.0
C2 C 1.02304 0.41851 0.93678 0.0
C3 C 0.97882 0.29388 0.93572 0.0
C4 C 1.02356 0.41815 0.08848 0.0
O5 O 0.05829 0.34273 0.03067 0.0
O6 O 0.11238 0.41008 0.05065 0.0
C7 C 0.1742 0.45147 0.95668 0.0
N8 N 0.15625 0.4763 0.97196 0.0
C9 C 0.21651 0.54025 0.93147 0.0
C10 C 0.23615 0.51524 0.91792 0.0
C11 C 0.21482 0.47078 0.93014 0.0
C12 C 0.17756 0.52005 0.96249 0.0
H13 H 0.15774 0.41711 0.96537 0.0
C14 C 0.09587 0.36894 0.05211 0.0
O15 O 0.96634 0.2972 0.98685 0.0
O16 O 1.01509 0.32674 0.91935 0.0
N17 N 0.10693 0.5097 -0.00598 0.0
C18 C 0.06151 0.50573 0.98295 0.0
C19 C 0.04906 0.53495 0.93954 0.0
C20 C 0.08698 0.5748 0.899 0.0
C21 C 0.16439 0.58227 0.9253 0.0
C22 C 0.15417 0.54108 0.97257 0.0
H23 H 0.03422 0.48184 0.00663 0.0
O24 O 0.9862 0.38472 0.94782 0.0
O25 O 0.05859 0.41914 0.95936 0.0
O26 O 1.00436 0.38069 0.0651 0.0
O27 O 0.0607 0.44824 0.07373 0.0
C28 C 0.2084 0.60396 0.90611 0.0
C29 C 0.23349 0.58304 0.91056 0.0
H30 H 0.26666 0.52937 0.89516 0.0
H31 H 0.22943 0.45126 0.91831 0.0
H32 H 1.01849 0.53242 0.94892 0.0
H33 H 0.07959 0.59129 0.8665 0.0
H34 H 0.22261 0.63426 0.88298 0.0
H35 H 0.26512 0.59857 0.8905 0.0
Mn36 Mn 0.67072 0.67242 0.0131 0.0
Mn37 Mn 0.66146 0.57441 0.97796 0.0
C38 C 0.6213 0.61274 0.06695 0.0
C39 C 0.69831 0.73715 0.06642 0.0
C40 C 0.61439 0.61494 0.91528 0.0
O41 O 0.7267 0.69009 0.96799 0.0
O42 O 0.71504 0.6235 0.94605 0.0
C43 C 0.73895 0.58017 0.03585 0.0
N44 N 0.69588 0.55574 0.0217 0.0
C45 C 0.69398 0.49094 0.05848 0.0
C46 C 0.73885 0.51557 0.07078 0.0
C47 C 0.76126 0.56024 0.05985 0.0
C48 C 0.67409 0.51182 0.02985 0.0
H49 H 0.75629 0.61468 0.02822 0.0
C50 C 0.73856 0.66474 0.94526 0.0
O51 O 0.68052 0.73358 0.01602 0.0
O52 O 0.70429 0.70518 0.08191 0.0
N53 N 0.61296 0.52318 0.00289 0.0
C54 C 0.57223 0.52737 0.01686 0.0
C55 C 0.53254 0.49768 0.06086 0.0
C56 C 0.53201 0.45685 0.09875 0.0
C57 C 0.60055 0.44913 0.06771 0.0
C58 C 0.6296 0.49117 0.02125 0.0
H59 H 0.56786 0.55182 -0.00482 0.0
O60 O 0.61721 0.64648 0.05787 0.0
O61 O 0.65522 0.61248 0.04152 0.0
O62 O 0.63293 0.65175 0.94005 0.0
O63 O 0.62392 0.58543 0.92599 0.0
C64 C 0.62359 0.42698 0.08431 0.0
C65 C 0.6692 0.44782 0.07839 0.0
H66 H 0.75608 0.50094 0.09166 0.0
H67 H 0.7956 0.57943 0.07075 0.0
H68 H 0.50466 0.50119 0.05366 0.0
H69 H 0.50973 0.4405 0.13222 0.0
H70 H 0.60851 0.3963 0.10657 0.0
H71 H 0.68603 0.43183 0.09654 0.0
Mn72 Mn 0.37202 1.00651 0.00338 0.0
Mn73 Mn 0.46601 0.10088 0.00276 0.0
C74 C 0.42789 0.01814 0.06819 0.0
C75 C 0.30409 0.97066 0.04764 0.0
C76 C 0.43944 0.02921 0.91099 0.0
O77 O 0.35684 0.0451 0.95584 0.0
O78 O 0.41842 0.10929 0.96889 0.0
C79 C 0.44196 0.14694 0.0887 0.0
N80 N 0.46933 0.13244 0.07138 0.0
C81 C 0.51071 0.15645 0.16027 0.0
C82 C 0.48327 0.17209 0.17875 0.0
C83 C 0.44862 0.16709 0.14293 0.0
C84 C 0.50229 0.13637 0.10598 0.0
H85 H 0.4149 0.14263 0.06165 0.0
C86 C 0.37924 0.0861 0.94973 0.0
O87 O 0.30989 0.95487 -2e-05 0.0
O88 O 0.33605 1.00724 0.06479 0.0
N89 N 0.51488 0.09787 0.03459 0.0
C90 C 0.5394 0.08262 0.00934 0.0
C91 C 0.57602 0.08599 0.03888 0.0
C92 C 0.58734 0.10548 0.09382 0.0
C93 C 0.56256 0.12241 0.11803 0.0
C94 C 0.52692 0.11881 0.08601 0.0
H95 H 0.53119 0.06817 0.96697 0.0
O96 O 0.39688 0.97928 0.05633 0.0
O97 O 0.42504 0.04858 0.04111 0.0
O98 O 0.4041 1.00031 0.93379 0.0
O99 O 0.46385 0.06742 0.93236 0.0
C100 C 0.5718 0.1427 0.17265 0.0
C101 C 0.54571 0.15946 0.19392 0.0
H102 H 0.48822 0.1876 0.22058 0.0
H103 H 0.42683 0.17831 0.15739 0.0
H104 H 0.59531 0.07338 0.01947 0.0
H105 H 0.61524 0.10749 0.11684 0.0
H106 H 0.59881 0.14549 0.19871 0.0
H107 H 0.55293 0.17471 0.23615 0.0
Mn108 Mn 1.02308 0.66645 0.98128 0.0
Mn109 Mn 0.121 0.66896 -0.01264 0.0
C110 C 1.0259 0.6136 0.92407 0.0
C111 C 0.97831 0.68937 0.93292 0.0
C112 C 0.05146 0.6245 0.07642 0.0
O113 O 0.06159 0.72623 0.01536 0.0
O114 O 0.11939 0.71767 0.02707 0.0
C115 C 0.16391 0.74726 0.916 0.0
N116 N 0.15382 0.70518 0.92406 0.0
C117 C 0.17753 0.70148 0.82813 0.0
C118 C 0.18825 0.74484 0.81991 0.0
C119 C 0.18203 0.76793 0.86419 0.0
C120 C 0.16263 0.68338 0.88272 0.0
H121 H 0.15779 0.76516 0.9486 0.0
C122 C 0.0996 0.73902 0.03493 0.0
O123 O 0.9691 0.67464 0.98509 0.0
O124 O 1.01365 0.69264 0.91303 0.0
N125 N 0.13639 0.62738 0.95761 0.0
C126 C 0.11663 0.58057 0.98277 0.0
C127 C 0.10525 0.52543 0.89656 0.0
C128 C 0.12656 0.5549 0.83613 0.0
C129 C 0.14897 0.6097 0.83743 0.0
C130 C 0.15296 0.64168 0.89503 0.0
H131 H 0.10917 0.57533 0.02854 0.0
O132 O 0.99083 0.60872 0.94669 0.0
O133 O 0.06294 0.64982 0.93991 0.0
O134 O 1.02638 0.63861 0.05764 0.0
O135 O 0.08649 0.63075 0.05156 0.0
C136 C 0.16472 0.63187 0.78607 0.0
C137 C 0.17977 0.67655 0.78218 0.0
H138 H 0.20053 0.76059 0.77905 0.0
H139 H 0.18994 0.80128 0.85774 0.0
H140 H 0.09784 0.49203 0.89643 0.0
H141 H 0.12678 0.53848 0.79691 0.0
H142 H 0.16468 0.61422 0.74792 0.0
H143 H 0.19135 0.69166 0.74078 0.0
Mn144 Mn 0.37644 0.37071 0.01433 0.0
Mn145 Mn 0.46979 0.36465 0.00647 0.0
C146 C 0.43361 0.42228 0.07044 0.0
C147 C 0.30951 0.34591 0.06225 0.0
C148 C 0.44431 0.41083 0.91893 0.0
O149 O 0.35416 0.31117 0.98001 0.0
O150 O 0.41888 0.3169 0.9656 0.0
C151 C 0.43366 0.28636 0.07772 0.0
N152 N 0.46678 0.3276 0.06931 0.0
C153 C 0.49681 0.32895 0.164 0.0
C154 C 0.46322 0.28626 0.17226 0.0
C155 C 0.43178 0.2649 0.12894 0.0
C156 C 0.49889 0.34798 0.11003 0.0
H157 H 0.4081 0.2698 0.04598 0.0
C158 C 0.37776 0.29751 0.95833 0.0
O159 O 0.31389 0.36171 0.01065 0.0
O160 O 0.34303 0.34497 0.08299 0.0
N161 N 0.52681 0.40522 0.03682 0.0
C162 C 0.55272 0.45244 0.01331 0.0
C163 C 0.59937 0.5057 0.10028 0.0
C164 C 0.59334 0.4749 0.15914 0.0
C165 C 0.56098 0.42017 0.15616 0.0
C166 C 0.53106 0.38952 0.09825 0.0
H167 H 0.54914 0.45865 0.96806 0.0
O168 O 0.40333 0.42847 0.04899 0.0
O169 O 0.43309 0.38551 0.05371 0.0
O170 O 0.40586 0.39794 0.93793 0.0
O171 O 0.47297 0.40339 0.94312 0.0
C172 C 0.55603 0.39697 0.20648 0.0
C173 C 0.52587 0.35253 0.2096 0.0
H174 H 0.46045 0.26989 0.21267 0.0
H175 H 0.40519 0.23238 0.13574 0.0
H176 H 0.62517 0.53907 0.10106 0.0
H177 H 0.61122 0.49043 0.19839 0.0
H178 H 0.575 0.4137 0.24459 0.0
H179 H 0.52331 0.33666 0.25039 0.0
Mn180 Mn 0.68636 0.0227 0.98282 0.0
Mn181 Mn 0.59372 0.92596 0.97935 0.0
C182 C 0.6299 1.00918 0.91841 0.0
C183 C 0.75498 0.0661 0.93997 0.0
C184 C 0.61123 0.9969 0.06615 0.0
O185 O 0.70338 0.98587 0.03311 0.0
O186 O 0.64009 0.92257 0.02498 0.0
C187 C 0.62997 0.88273 0.90724 0.0
N188 N 0.59909 0.89455 0.91584 0.0
C189 C 0.56642 0.86672 0.82254 0.0
C190 C 0.59762 0.85387 0.81293 0.0
C191 C 0.62959 0.862 0.85543 0.0
C192 C 0.56853 0.88737 0.87492 0.0
H193 H 0.65498 0.88947 0.93944 0.0
C194 C 0.67917 0.94561 0.04446 0.0
O195 O 0.74585 0.07832 -0.01173 0.0
O196 O 0.72708 0.02738 0.92296 0.0
N197 N 0.54592 0.92394 0.93669 0.0
C198 C 0.51724 0.93687 0.95377 0.0
C199 C 0.48193 0.92918 0.91743 0.0
C200 C 0.47697 0.90912 0.86347 0.0
C201 C 0.50636 0.89524 0.8474 0.0
C202 C 0.53989 0.90223 0.88643 0.0
H203 H 0.52109 0.95261 -0.00502 0.0
O204 O 0.65996 0.04839 0.92999 0.0
O205 O 0.63502 0.97906 0.94273 0.0
O206 O 0.64939 0.0245 0.04872 0.0
O207 O 0.5872 0.95914 0.04363 0.0
C208 C 0.50342 0.87431 0.79453 0.0
C209 C 0.53362 0.86033 0.78193 0.0
H210 H 0.59752 0.83801 0.77294 0.0
H211 H 0.65404 0.85256 0.84811 0.0
H212 H 0.45878 0.93903 0.93078 0.0
H213 H 0.45021 0.9041 0.83506 0.0
H214 H 0.47806 0.86879 0.76325 0.0
H215 H 0.53121 0.84452 0.74099 0.0
Mn216 Mn 0.68308 0.69087 0.32313 0.0
Mn217 Mn 0.77207 0.79012 0.35329 0.0
C218 C 0.68929 0.75001 0.27081 0.0
C219 C 0.64532 0.62554 0.27027 0.0
C220 C 0.68952 0.74914 0.42243 0.0
O221 O 0.72423 0.67417 0.36398 0.0
O222 O 0.77812 0.74146 0.38481 0.0
C223 C 0.84039 0.78287 0.29141 0.0
N224 N 0.82243 0.80774 0.30648 0.0
C225 C 0.88282 0.87163 0.26608 0.0
C226 C 0.90246 0.84658 0.25279 0.0
C227 C 0.88108 0.80213 0.26507 0.0
C228 C 0.84379 0.85148 0.29695 0.0
H229 H 0.82388 0.74852 0.30011 0.0
C230 C 0.76158 0.70033 0.38578 0.0
O231 O 0.63287 0.62894 0.32137 0.0
O232 O 0.68136 0.65844 0.25329 0.0
N233 N 0.77313 0.84124 0.32819 0.0
C234 C 0.72775 0.83731 0.31691 0.0
C235 C 0.7154 0.86647 0.27325 0.0
C236 C 0.75341 0.90621 0.23265 0.0
C237 C 0.83074 0.91365 0.2593 0.0
C238 C 0.82042 0.87255 0.30679 0.0
H239 H 0.70042 0.81348 0.34059 0.0
O240 O 0.65239 0.71629 0.28188 0.0
O241 O 0.72483 0.75067 0.29342 0.0
O242 O 0.67056 0.71181 0.39891 0.0
O243 O 0.7265 0.77955 0.40768 0.0
C244 C 0.87478 0.9353 0.24026 0.0
C245 C 0.89986 0.91438 0.24502 0.0
H246 H 0.93303 0.86067 0.23016 0.0
H247 H 0.89569 0.78259 0.25342 0.0
H248 H 0.68488 0.86405 0.28263 0.0
H249 H 0.74611 0.92269 0.20005 0.0
H250 H 0.88904 0.96555 0.21702 0.0
H251 H 0.93154 0.92987 0.22508 0.0
Mn252 Mn 0.33908 1.00865 0.33903 0.0
Mn253 Mn 0.32958 0.91062 0.30567 0.0
C254 C 0.28984 0.94962 0.39503 0.0
C255 C 0.36701 0.0731 0.39147 0.0
C256 C 0.28297 0.9513 0.24181 0.0
O257 O 0.39426 0.02583 0.29239 0.0
O258 O 0.38326 0.95911 0.27351 0.0
C259 C 0.40675 0.91631 0.36433 0.0
N260 N 0.3637 0.89197 0.35001 0.0
C261 C 0.36138 0.8272 0.38757 0.0
C262 C 0.40624 0.8517 0.40007 0.0
C263 C 0.42885 0.89633 0.38882 0.0
C264 C 0.34173 0.84812 0.35846 0.0
H265 H 0.42423 0.95079 0.35643 0.0
C266 C 0.40631 1.00028 0.27091 0.0
O267 O 0.34885 0.06967 0.34138 0.0
O268 O 0.3739 0.04154 0.40613 0.0
N269 N 0.28092 0.8598 0.33072 0.0
C270 C 0.24035 0.8644 0.34425 0.0
C271 C 0.20049 0.83505 0.38822 0.0
C272 C 0.19965 0.79427 0.4266 0.0
C273 C 0.26799 0.78597 0.39636 0.0
C274 C 0.29729 0.82769 0.34967 0.0
H275 H 0.23631 0.88896 0.3223 0.0
O276 O 0.28613 0.98348 0.38537 0.0
O277 O 0.32344 0.94892 0.36907 0.0
O278 O 0.30063 0.98776 0.26717 0.0
O279 O 0.29256 0.92185 0.25281 0.0
C280 C 0.29076 0.76365 0.41348 0.0
C281 C 0.33637 0.7842 0.40777 0.0
H282 H 0.42329 0.83704 0.42132 0.0
H283 H 0.46317 0.91544 0.39987 0.0
H284 H 0.1727 0.83868 0.38077 0.0
H285 H 0.17735 0.77823 0.46016 0.0
H286 H 0.27547 0.73307 0.43597 0.0
H287 H 0.353 0.76814 0.42632 0.0
Mn288 Mn 0.03693 0.34199 0.3468 0.0
Mn289 Mn 0.12939 0.43789 0.34279 0.0
C290 C 0.09317 0.3563 0.41076 0.0
C291 C 0.96878 0.30544 0.38862 0.0
C292 C 0.10494 0.36398 0.25621 0.0
O293 O 1.02045 0.37823 0.29771 0.0
O294 O 0.08099 0.44382 0.30607 0.0
C295 C 0.10243 0.4837 0.42515 0.0
N296 N 0.13125 0.4706 0.40946 0.0
C297 C 0.17163 0.49717 0.49874 0.0
C298 C 0.14276 0.51153 0.51545 0.0
C299 C 0.10781 0.5044 0.47871 0.0
C300 C 0.16434 0.47627 0.44518 0.0
H301 H 0.07513 0.4777 0.39742 0.0
C302 C 0.04176 0.41878 0.28824 0.0
O303 O 0.97594 0.28956 0.342 0.0
O304 O 0.99993 0.34237 0.40659 0.0
N305 N 0.17907 0.4375 0.37658 0.0
C306 C 0.20497 0.42324 0.35293 0.0
C307 C 0.24186 0.42842 0.38373 0.0
C308 C 0.25206 0.44875 0.43817 0.0
C309 C 0.226 0.46487 0.46049 0.0
C310 C 0.19015 0.45948 0.42725 0.0
H311 H 0.1975 0.40799 0.311 0.0
O312 O 0.06264 0.31681 0.40083 0.0
O313 O 0.08933 0.38596 0.383 0.0
O314 O 0.06962 0.33546 0.27912 0.0
O315 O 0.12857 0.40303 0.27516 0.0
C316 C 0.2342 0.48616 0.5143 0.0
C317 C 0.20686 0.50203 0.53359 0.0
H318 H 0.14674 0.52749 0.55672 0.0
H319 H 0.08473 0.51427 0.49206 0.0
H320 H 0.26216 0.41647 0.36575 0.0
H321 H 0.28013 0.45209 0.46221 0.0
H322 H 0.26138 0.49039 0.54126 0.0
H323 H 0.21325 0.51799 0.57528 0.0
Mn324 Mn 0.68962 0.99812 0.31548 0.0
Mn325 Mn 0.78763 1.00069 0.32072 0.0
C326 C 0.69239 0.94537 0.25718 0.0
C327 C 0.64491 0.02127 0.26627 0.0
C328 C 0.71803 0.95549 0.41002 0.0
O329 O 0.72819 0.05772 0.35092 0.0
O330 O 0.78651 0.04981 0.36037 0.0
C331 C 0.83013 0.07862 0.24869 0.0
N332 N 0.82025 0.03664 0.25713 0.0
C333 C 0.84396 0.03264 0.16131 0.0
C334 C 0.85455 0.07593 0.15275 0.0
C335 C 0.8482 0.09911 0.19677 0.0
C336 C 0.8291 1.01472 0.216 0.0
H337 H 0.82384 0.09657 0.28105 0.0
C338 C 0.76669 0.07104 0.36918 0.0
O339 O 0.63525 1.00609 0.31815 0.0
O340 O 0.6808 0.02525 0.24748 0.0
N341 N 0.80279 0.9589 0.29117 0.0
C342 C 0.78293 0.91213 0.31654 0.0
C343 C 0.7716 0.85678 0.23062 0.0
C344 C 0.793 0.88611 0.17011 0.0
C345 C 0.81547 0.94092 0.17117 0.0
C346 C 0.81944 0.97305 0.22857 0.0
H347 H 0.77544 0.90699 0.36231 0.0
O348 O 0.65738 0.94066 0.27963 0.0
O349 O 0.7294 0.98149 0.27347 0.0
O350 O 0.69252 0.96921 0.39139 0.0
O351 O 0.75339 0.96265 0.38529 0.0
C352 C 0.83125 0.96294 0.11973 0.0
C353 C 0.84627 1.00759 0.11557 0.0
H354 H 0.86679 0.09154 0.11181 0.0
H355 H 0.85596 0.13239 0.19003 0.0
H356 H 0.76412 0.82337 0.23064 0.0
H357 H 0.79323 0.86959 0.13101 0.0
H358 H 0.83124 0.94518 0.08171 0.0
H359 H 0.85784 0.02257 0.0741 0.0
Mn360 Mn 0.04411 0.70701 0.33892 0.0
Mn361 Mn 0.13769 0.70159 0.33428 0.0
C362 C 0.10096 0.7591 0.39726 0.0
C363 C 0.97715 0.68164 0.38863 0.0
C364 C 0.11286 0.74719 0.24365 0.0
O365 O 1.0221 0.64743 0.30295 0.0
O366 O 0.08736 0.65361 0.29363 0.0
C367 C 0.10036 0.6241 0.40697 0.0
N368 N 0.13403 0.66497 0.39803 0.0
C369 C 0.16336 0.66672 0.49336 0.0
C370 C 0.12922 0.62439 0.5021 0.0
C371 C 0.09779 0.60307 0.45878 0.0
C372 C 0.16596 0.6854 0.43895 0.0
H373 H 0.07477 0.60755 0.37528 0.0
C374 C 0.04651 0.63362 0.2842 0.0
O375 O 0.9811 0.69777 0.33734 0.0
O376 O 1.01074 0.6802 0.40762 0.0
N377 N 0.19434 0.74228 0.36522 0.0
C378 C 0.22045 0.78936 0.34141 0.0
C379 C 0.2671 0.84288 0.42819 0.0
C380 C 0.2608 0.81231 0.48737 0.0
C381 C 0.2282 0.7576 0.48479 0.0
C382 C 0.19832 0.72678 0.42694 0.0
H383 H 0.21694 0.79541 0.29607 0.0
O384 O 0.07056 0.76477 0.37525 0.0
O385 O 0.10062 0.72253 0.38013 0.0
O386 O 0.07442 0.73513 0.2625 0.0
O387 O 0.14119 0.73977 0.26927 0.0
C388 C 0.2229 0.73467 0.53544 0.0
C389 C 0.19235 0.69038 0.53897 0.0
H390 H 0.12595 0.60834 0.54291 0.0
H391 H 0.07062 0.57097 0.466 0.0
H392 H 0.29298 0.87622 0.42886 0.0
H393 H 0.27859 0.82797 0.52661 0.0
H394 H 0.2418 0.75153 0.57354 0.0
H395 H 0.1894 0.67477 0.58007 0.0
Mn396 Mn 0.35216 0.35685 0.3215 0.0
Mn397 Mn 0.25843 0.26093 0.32051 0.0
C398 C 0.29543 0.34327 0.25712 0.0
C399 C 0.42091 0.39945 0.27896 0.0
C400 C 0.2775 0.33403 0.40423 0.0
O401 O 0.36858 0.32006 0.37336 0.0
O402 O 0.30453 0.25746 0.36686 0.0
C403 C 0.29329 0.21522 0.25072 0.0
N404 N 0.26292 0.22786 0.25842 0.0
C405 C 0.22956 0.19838 0.16594 0.0
C406 C 0.26021 0.18466 0.1573 0.0
C407 C 0.29227 0.19321 0.19983 0.0
C408 C 0.2323 0.22029 0.21743 0.0
H409 H 0.31837 0.22228 0.28291 0.0
C410 C 0.34384 0.28006 0.38575 0.0
O411 O 0.41176 0.41212 0.32687 0.0
O412 O 0.39293 0.36057 0.26235 0.0
N413 N 0.21076 0.25878 0.27736 0.0
C414 C 0.1825 0.27247 0.29362 0.0
C415 C 0.14718 0.26455 0.25716 0.0
C416 C 0.14172 0.24339 0.20395 0.0
C417 C 0.1706 0.22864 0.18882 0.0
C418 C 0.2042 0.23598 0.22794 0.0
H419 H 0.1867 0.289 0.33428 0.0
O420 O 0.32622 0.38239 0.2675 0.0
O421 O 0.30013 0.31308 0.28211 0.0
O422 O 0.31583 0.36053 0.38646 0.0
O423 O 0.25285 0.29588 0.38318 0.0
C424 C 0.16705 0.20645 0.13684 0.0
C425 C 0.1967 0.19159 0.12523 0.0
H426 H 0.25961 0.16779 0.11803 0.0
H427 H 0.3163 0.1831 0.19325 0.0
H428 H 0.12436 0.27499 0.2699 0.0
H429 H 0.11493 0.23813 0.17545 0.0
H430 H 0.14162 0.20062 0.10552 0.0
H431 H 0.19381 0.1748 0.08497 0.0
Mn432 Mn 0.35996 0.03274 0.65037 0.0
Mn433 Mn 0.45678 0.12799 0.65603 0.0
C434 C 0.36082 0.08883 0.59861 0.0
C435 C 0.31387 0.96621 0.59902 0.0
C436 C 0.38796 0.10316 0.74455 0.0
O437 O 0.4011 1.01215 0.68011 0.0
O438 O 0.45632 0.07863 0.69703 0.0
C439 C 0.50072 0.0921 0.58567 0.0
N440 N 0.48927 0.12344 0.59257 0.0
C441 C 0.5109 0.1482 0.49541 0.0
C442 C 0.52266 0.11599 0.48823 0.0
C443 C 0.51823 0.08839 0.53371 0.0
C444 C 0.49652 0.15257 0.55003 0.0
H445 H 0.49629 0.06955 0.61936 0.0
C446 C 0.4381 0.03766 0.70259 0.0
O447 O 0.30618 0.97071 0.6525 0.0
O448 O 0.34859 0.99833 0.57918 0.0
N449 N 0.47044 0.18376 0.62428 0.0
C450 C 0.45054 0.2114 0.64879 0.0
C451 C 0.43732 0.253 0.56109 0.0
C452 C 0.458 0.24331 0.50078 0.0
C453 C 0.48096 0.21099 0.50292 0.0
C454 C 0.48613 0.18446 0.56139 0.0
H455 H 0.44344 0.21009 0.69462 0.0
O456 O 0.32621 0.05873 0.62141 0.0
O457 O 0.39828 0.08904 0.61131 0.0
O458 O 0.36505 0.06338 0.72782 0.0
O459 O 0.42197 0.13229 0.7191 0.0
C460 C 0.49612 0.20334 0.45161 0.0
C461 C 0.5118 0.1739 0.44853 0.0
H462 H 0.53457 0.11166 0.44737 0.0
H463 H 0.52713 0.06341 0.52816 0.0
H464 H 0.42886 0.27844 0.55992 0.0
H465 H 0.45731 0.2588 0.46098 0.0
H466 H 0.4952 0.21989 0.4129 0.0
H467 H 0.52295 0.16943 0.40713 0.0
Mn468 Mn 1.00431 0.34216 0.67851 0.0
Mn469 Mn 0.9972 0.24533 0.64228 0.0
C470 C 0.95548 0.28191 0.73172 0.0
C471 C 0.03156 0.40648 0.73225 0.0
C472 C 0.94884 0.28481 0.58009 0.0
O473 O 0.06034 0.36106 0.63349 0.0
O474 O 0.05044 0.29519 0.6113 0.0
C475 C 0.07502 0.25217 0.70064 0.0
N476 N 0.03209 0.22723 0.68602 0.0
C477 C 0.03124 0.1628 0.72229 0.0
C478 C 0.07599 0.18798 0.73506 0.0
C479 C 0.0978 0.23273 0.7246 0.0
C480 C 1.01092 0.18327 0.69369 0.0
H481 H 0.09189 0.28674 0.69342 0.0
C482 C 0.07314 0.33647 0.61091 0.0
O483 O 1.01341 0.40296 0.6821 0.0
O484 O 0.03779 0.37461 0.74735 0.0
N485 N 0.94914 0.19348 0.66634 0.0
C486 C 0.90787 0.19676 0.68001 0.0
C487 C 0.86812 0.16633 0.72344 0.0
C488 C 0.86814 0.12565 0.76108 0.0
C489 C 0.9377 0.11957 0.7306 0.0
C490 C 0.96648 0.16202 0.68464 0.0
H491 H 0.90315 0.22109 0.65861 0.0
O492 O 0.95085 0.3154 0.72317 0.0
O493 O 0.98976 0.28237 0.70625 0.0
O494 O 0.96648 0.32137 0.60549 0.0
O495 O 0.95937 0.25592 0.59021 0.0
C496 C 0.96128 0.09797 0.74724 0.0
C497 C 1.00695 0.1195 0.74175 0.0
H498 H 0.09355 0.1737 0.75593 0.0
H499 H 0.13203 0.25233 0.73586 0.0
H500 H 0.83996 0.16927 0.71582 0.0
H501 H 0.84568 0.10877 0.79423 0.0
H502 H 0.94652 0.06717 0.7692 0.0
H503 H 1.02414 0.10388 0.75991 0.0
Mn504 Mn 0.7018 0.6704 0.6797 0.0
Mn505 Mn 0.79461 0.76616 0.67736 0.0
C506 C 0.75788 0.68388 0.74399 0.0
C507 C 0.63355 0.63386 0.72256 0.0
C508 C 0.77052 0.69305 0.58938 0.0
O509 O 0.68564 0.70738 0.63123 0.0
O510 O 0.74662 0.77258 0.64014 0.0
C511 C 0.76682 0.81103 0.76007 0.0
N512 N 0.7959 0.79825 0.7444 0.0
C513 C 0.83555 0.82406 0.8343 0.0
C514 C 0.80643 0.83811 0.851 0.0
C515 C 0.77168 0.83115 0.81396 0.0
C516 C 0.82871 0.80365 0.78045 0.0
H517 H 0.73968 0.80516 0.7321 0.0
C518 C 0.70738 0.748 0.62202 0.0
O519 O 0.64026 0.61795 0.67563 0.0
O520 O 0.66502 0.67073 0.73994 0.0
N521 N 0.84402 0.76549 0.71158 0.0
C522 C 0.87021 0.75161 0.68791 0.0
C523 C 0.907 0.75676 0.71893 0.0
C524 C 0.91676 0.77661 0.77367 0.0
C525 C 0.89038 0.79233 0.79606 0.0
C526 C 0.85471 0.78706 0.76255 0.0
H527 H 0.8631 0.73673 0.64575 0.0
O528 O 0.72728 0.64458 0.7333 0.0
O529 O 0.75428 0.71385 0.71666 0.0
O530 O 0.73475 0.66446 0.61148 0.0
O531 O 0.79428 0.7318 0.60936 0.0
C532 C 0.89817 0.81317 0.85015 0.0
C533 C 0.87057 0.82875 0.86944 0.0
H534 H 0.81003 0.85365 0.8925 0.0
H535 H 0.74835 0.84069 0.82733 0.0
H536 H 0.92759 0.74521 0.70084 0.0
H537 H 0.94477 0.77994 0.79787 0.0
H538 H 0.92522 0.8173 0.8773 0.0
H539 H 0.87663 0.84435 0.91135 0.0
Mn540 Mn 0.34688 0.32962 0.65344 0.0
Mn541 Mn 0.43876 0.32288 0.68015 0.0
C542 C 0.35477 0.27892 0.59578 0.0
C543 C 0.31031 0.35989 0.60309 0.0
C544 C 0.35777 0.28147 0.75445 0.0
O545 O 0.3855 0.38535 0.6983 0.0
O546 O 0.44484 0.3783 0.70878 0.0
C547 C 0.5043 0.39506 0.61286 0.0
N548 N 0.48756 0.35334 0.63066 0.0
C549 C 0.54799 0.34864 0.59054 0.0
C550 C 0.56644 0.39227 0.57427 0.0
C551 C 0.54442 0.41539 0.58506 0.0
C552 C 0.50962 0.33104 0.62278 0.0
H553 H 0.48728 0.41289 0.62063 0.0
C554 C 0.42485 0.39979 0.71457 0.0
O555 O 0.29615 0.34155 0.65244 0.0
O556 O 0.3469 0.36335 0.5869 0.0
N557 N 0.44018 0.27248 0.65795 0.0
C558 C 0.39484 0.23149 0.64857 0.0
C559 C 0.38227 0.1891 0.60679 0.0
C560 C 0.41988 0.18603 0.56604 0.0
C561 C 0.49714 0.25544 0.58932 0.0
C562 C 0.4872 0.28743 0.63555 0.0
H563 H 0.36767 0.22945 0.67177 0.0
O564 O 0.3177 0.27576 0.6075 0.0
O565 O 0.38979 0.3129 0.62048 0.0
O566 O 0.33426 0.29386 0.72753 0.0
O567 O 0.39579 0.29078 0.73911 0.0
C568 C 0.54082 0.27684 0.56885 0.0
C569 C 0.56536 0.32249 0.57095 0.0
H570 H 0.59648 0.40777 0.55047 0.0
H571 H 0.55809 0.44868 0.57119 0.0
H572 H 0.35155 0.16186 0.61625 0.0
H573 H 0.41216 0.1623 0.53362 0.0
H574 H 0.55504 0.26016 0.54638 0.0
H575 H 0.59661 0.33777 0.5499 0.0
Mn576 Mn 0.7135 0.0372 0.67338 0.0
Mn577 Mn 0.80792 0.03352 0.66756 0.0
C578 C 0.76985 0.08955 0.73099 0.0
C579 C 0.64657 1.01179 0.7218 0.0
C580 C 0.78157 0.07781 0.57769 0.0
O581 O 0.692 0.9775 0.63894 0.0
O582 O 0.75776 0.98548 0.6265 0.0
C583 C 0.77201 0.95532 0.73884 0.0
N584 N 0.80499 0.99666 0.7306 0.0
C585 C 0.83447 0.9982 0.82574 0.0
C586 C 0.80099 0.95544 0.83382 0.0
C587 C 0.76986 0.93398 0.79022 0.0
C588 C 0.83674 0.01724 0.77169 0.0
H589 H 0.74669 0.93859 0.70689 0.0
C590 C 0.71674 0.96478 0.6184 0.0
O591 O 0.65062 0.02738 0.67014 0.0
O592 O 0.68023 1.011 0.74215 0.0
N593 N 0.86436 0.07479 0.69881 0.0
C594 C 0.88968 0.1222 0.6758 0.0
C595 C 0.93517 0.17536 0.76349 0.0
C596 C 0.92935 0.14444 0.82209 0.0
C597 C 0.8978 0.08965 0.81857 0.0
C598 C 0.86857 0.059 0.76025 0.0
H599 H 0.88615 0.12855 0.6306 0.0
O600 O 0.73951 0.09513 0.7085 0.0
O601 O 0.77015 0.05324 0.71412 0.0
O602 O 0.74298 0.06466 0.59654 0.0
O603 O 0.81074 0.0718 0.60341 0.0
C604 C 0.89287 0.0664 0.86882 0.0
C605 C 0.86309 0.02186 0.87166 0.0
H606 H 0.79801 0.93911 0.87432 0.0
H607 H 0.74321 0.90152 0.79689 0.0
H608 H 0.96053 0.20891 0.76468 0.0
H609 H 0.94681 0.15996 0.86157 0.0
H610 H 0.91145 0.08317 0.90716 0.0
H611 H 0.8604 1.00598 0.91246 0.0
Mn612 Mn 1.02017 0.69275 0.65066 0.0
Mn613 Mn 0.92744 0.59595 0.64698 0.0
C614 C 0.96375 0.67934 0.5863 0.0
C615 C 0.08868 0.73655 0.60692 0.0
C616 C 0.94468 0.66684 0.734 0.0
O617 O 0.03724 0.65566 0.70068 0.0
O618 O 0.97379 0.59253 0.69248 0.0
C619 C 0.964 0.55309 0.57467 0.0
N620 N 0.93298 0.56472 0.58337 0.0
C621 C 0.90026 0.53678 0.49012 0.0
C622 C 0.93161 0.52414 0.4804 0.0
C623 C 0.96368 0.53243 0.52282 0.0
C624 C 0.90238 0.55745 0.54249 0.0
H625 H 0.98906 0.55992 0.60681 0.0
C626 C 1.01293 0.61532 0.71178 0.0
O627 O 0.0797 0.74867 0.65541 0.0
O628 O 0.06092 0.69765 0.59046 0.0
N629 N 0.87952 0.59372 0.60442 0.0
C630 C 0.85027 0.60573 0.62205 0.0
C631 C 0.8145 0.59728 0.58617 0.0
C632 C 0.80972 0.57752 0.53203 0.0
C633 C 0.83964 0.56448 0.51545 0.0
C634 C 0.87355 0.57205 0.55413 0.0
H635 H 0.85392 0.62116 0.66345 0.0
O636 O 0.99377 0.71852 0.59804 0.0
O637 O 0.9688 0.64914 0.61045 0.0
O638 O 0.98299 0.69437 0.71675 0.0
O639 O 0.92076 0.62908 0.71136 0.0
C640 C 0.83672 0.54356 0.46257 0.0
C641 C 0.86723 0.53003 0.44972 0.0
H642 H 0.93151 0.50827 0.44043 0.0
H643 H 0.98821 0.52311 0.51545 0.0
H644 H 0.79084 0.60628 0.60007 0.0
H645 H 0.78258 0.57192 0.50398 0.0
H646 H 0.81109 0.53763 0.43155 0.0
H647 H 0.8648 0.51419 0.4088 0.0
H648 H 0.30095 0.30804 0.16223 0.0
H649 H 0.23152 0.35336 0.05394 0.0
H650 H 0.23511 0.36647 0.23877 0.0
H651 H 0.17203 0.35334 0.24013 0.0
H652 H 0.06541 0.35228 0.15473 0.0
H653 H 0.16999 0.35941 0.05335 0.0
C654 C 0.27901 0.32112 0.15669 0.0
C655 C 0.26792 0.33539 0.20552 0.0
C656 C 0.27284 0.33492 0.10247 0.0
C657 C 0.23974 0.34665 0.09629 0.0
C658 C 0.21922 0.35116 0.14664 0.0
C659 C 0.2399 0.35241 0.20027 0.0
C660 C 0.17733 0.35393 0.14607 0.0
C661 C 0.15769 0.35353 0.19915 0.0
C662 C 0.11812 0.35309 0.20194 0.0
C663 C 0.09531 0.35066 0.15179 0.0
C664 C 0.11403 0.35372 0.0982 0.0
C665 C 0.15524 0.35558 0.09498 0.0
H666 H 0.70856 0.98258 0.14998 0.0
H667 H 0.67971 0.86824 0.05125 0.0
H668 H 0.63857 0.85677 0.22447 0.0
H669 H 0.64833 0.79758 0.23657 0.0
H670 H 0.71997 0.73791 0.17615 0.0
H671 H 0.68287 0.80763 0.05787 0.0
C672 C 0.69679 0.94795 0.14782 0.0
C673 C 0.68232 0.92341 0.19804 0.0
C674 C 0.69016 0.92673 0.09418 0.0
C675 C 0.68012 0.88265 0.09248 0.0
C676 C 0.66792 0.85719 0.14299 0.0
C677 C 0.65928 0.87705 0.19081 0.0
C678 C 0.67101 0.81491 0.14834 0.0
C679 C 0.6663 0.79343 0.20224 0.0
C680 C 0.68859 0.76972 0.21383 0.0
C681 C 0.7058 0.75855 0.16784 0.0
C682 C 0.69897 0.76757 0.11131 0.0
C683 C 0.68446 0.79814 0.10162 0.0
H684 H 0.30185 1.00014 0.15081 0.0
H685 H 0.23156 0.88564 0.04296 0.0
H686 H 0.20074 0.88873 0.22293 0.0
H687 H 0.18319 0.82276 0.22203 0.0
H688 H 0.07204 0.71889 0.14063 0.0
H689 H 0.16187 0.82585 0.03858 0.0
C690 C 0.27505 0.96754 0.14307 0.0
C691 C 0.25508 0.94386 0.1911 0.0
C692 C 0.26843 0.94682 0.08911 0.0
C693 C 0.23534 0.90267 0.08322 0.0
C694 C 0.20925 0.88052 0.13151 0.0
C695 C 0.21867 0.90333 0.18434 0.0
C696 C 0.17454 0.8334 0.13106 0.0
C697 C 0.16313 0.81004 0.18355 0.0
C698 C 0.12508 0.7701 0.18799 0.0
C699 C 0.10044 0.7507 0.13822 0.0
C700 C 0.11541 0.76918 0.08415 0.0
C701 C 0.15164 0.8112 0.08043 0.0
H702 H 0.37577 0.06233 0.84337 0.0
H703 H 0.35729 0.15084 0.94928 0.0
H704 H 0.37843 0.17232 0.76593 0.0
H705 H 0.33541 0.19883 0.76979 0.0
H706 H 0.35163 0.31154 0.85788 0.0
H707 H 0.37581 0.22059 0.94935 0.0
C708 C 0.3713 0.09038 0.84715 0.0
C709 C 0.37615 0.11527 0.79892 0.0
C710 C 0.3671 0.10457 0.90142 0.0
C711 C 0.36162 0.14116 0.90678 0.0
C712 C 0.36229 0.16478 0.85719 0.0
C713 C 0.37263 0.15275 0.80395 0.0
C714 C 0.35448 0.20284 0.86017 0.0
C715 C 0.34208 0.21676 0.80987 0.0
C716 C 0.34323 0.2568 0.80814 0.0
C717 C 0.34906 0.27975 0.85943 0.0
C718 C 0.35957 0.2659 0.9108 0.0
C719 C 0.36346 0.22825 0.91079 0.0
H720 H 0.75318 0.04602 0.8288 0.0
H721 H 0.82944 0.15282 0.94571 0.0
H722 H 0.80112 0.17609 0.7741 0.0
H723 H 0.86827 0.23323 0.76512 0.0
H724 H 0.99916 0.29138 0.8271 0.0
H725 H 0.89355 0.21983 0.94344 0.0
C726 C 0.77192 0.08058 0.83779 0.0
C727 C 0.78065 0.10841 0.79186 0.0
C728 C 0.78331 0.09676 0.89473 0.0
C729 C 0.81552 0.14145 0.90316 0.0
C730 C 0.82915 0.17063 0.85538 0.0
C731 C 0.80159 0.15383 0.80536 0.0
C732 C 0.8743 0.21335 0.85255 0.0
C733 C 0.89056 0.23613 0.79938 0.0
C734 C 0.93619 0.26 0.78816 0.0
C735 C 0.96469 0.27051 0.83479 0.0
C736 C 0.94919 0.2618 0.89126 0.0
C737 C 0.90456 0.23007 0.9001 0.0
H738 H 0.73168 0.69437 0.84562 0.0
H739 H 0.8186 0.66592 0.94517 0.0
H740 H 0.83175 0.6847 0.76093 0.0
H741 H 0.86318 0.64732 0.76536 0.0
H742 H 0.99432 0.70515 0.82297 0.0
H743 H 0.89498 0.68648 0.9439 0.0
C744 C 0.76139 0.69232 0.84894 0.0
C745 C 0.78207 0.69184 0.79859 0.0
C746 C 0.77326 0.68177 0.9017 0.0
C747 C 0.81007 0.67524 0.90473 0.0
C748 C 0.83381 0.67822 0.85425 0.0
C749 C 0.81766 0.68516 0.80149 0.0
C750 C 0.87472 0.67408 0.85296 0.0
C751 C 0.88681 0.66354 0.7997 0.0
C752 C 0.93029 0.67654 0.78868 0.0
C753 C 0.9607 0.69502 0.83288 0.0
C754 C 0.94747 0.69191 0.89022 0.0
C755 C 0.90452 0.68417 0.90054 0.0
H756 H 0.97234 0.64717 0.49048 0.0
H757 H 0.89786 0.68734 0.38324 0.0
H758 H 0.90301 0.70119 0.56826 0.0
H759 H 0.83923 0.68519 0.57154 0.0
H760 H 0.73041 0.68092 0.48808 0.0
H761 H 0.83621 0.69286 0.38507 0.0
C762 C 0.94935 0.65899 0.48508 0.0
C763 C 0.9371 0.67186 0.53419 0.0
C764 C 0.94159 0.6715 0.43075 0.0
C765 C 0.90729 0.68169 0.42545 0.0
C766 C 0.88685 0.68564 0.47641 0.0
C767 C 0.90817 0.68765 0.52953 0.0
C768 C 0.84411 0.68667 0.47727 0.0
C769 C 0.82439 0.68512 0.53086 0.0
C770 C 0.78402 0.68299 0.53457 0.0
C771 C 0.76081 0.68031 0.48469 0.0
C772 C 0.7798 0.68476 0.43094 0.0
C773 C 0.82146 0.68799 0.42687 0.0
H774 H 0.37367 0.31513 0.49098 0.0
H775 H 0.34131 0.20183 0.38783 0.0
H776 H 0.31651 0.19065 0.56847 0.0
H777 H 0.30434 0.12049 0.5597 0.0
H778 H 0.38404 0.06872 0.50179 0.0
H779 H 0.35359 0.14587 0.38798 0.0
C780 C 0.36452 0.28109 0.48825 0.0
C781 C 0.35363 0.25669 0.53889 0.0
C782 C 0.35572 0.26036 0.43395 0.0
C783 C 0.34523 0.21629 0.43011 0.0
C784 C 0.33635 0.19042 0.47979 0.0
C785 C 0.33323 0.21046 0.53211 0.0
C786 C 0.33501 0.14577 0.47779 0.0
C787 C 0.32544 0.11924 0.52747 0.0
C788 C 0.34971 0.09749 0.53936 0.0
C789 C 0.36819 0.08785 0.49365 0.0
C790 C 0.36444 0.10045 0.43792 0.0
C791 C 0.3511 0.13222 0.43024 0.0
H792 H 0.96312 0.33444 0.49054 0.0
H793 H 0.89783 0.22023 0.38098 0.0
H794 H 0.86728 0.21919 0.56175 0.0
H795 H 0.85079 0.15377 0.55719 0.0
H796 H 0.74035 0.04989 0.47483 0.0
H797 H 0.82856 0.15899 0.37446 0.0
C798 C 0.93773 0.30121 0.4826 0.0
C799 C 0.91955 0.27643 0.5304 0.0
C800 C 0.93251 0.28099 0.42858 0.0
C801 C 0.90076 0.23651 0.42164 0.0
C802 C 0.87512 0.21305 0.46936 0.0
C803 C 0.88441 0.23491 0.52314 0.0
C804 C 0.84138 0.16552 0.46711 0.0
C805 C 0.83068 0.14135 0.51871 0.0
C806 C 0.79319 0.10103 0.52248 0.0
C807 C 0.76844 0.08191 0.47273 0.0
C808 C 0.78292 0.10104 0.41891 0.0
C809 C 0.81867 0.14363 0.41596 0.0
H810 H 1.0137 0.38005 0.18863 0.0
H811 H 0.04267 0.49633 0.2811 0.0
H812 H 0.99901 0.47788 0.10276 0.0
H813 H 0.04275 0.5466 0.09864 0.0
H814 H 0.03963 0.65368 0.17745 0.0
H815 H 1.02241 0.54725 0.28213 0.0
C816 C 1.012 0.40983 0.1911 0.0
C817 C 1.00674 0.42746 0.14051 0.0
C818 C 1.02468 0.43454 0.24201 0.0
C819 C 0.02943 0.47642 0.24271 0.0
C820 C 1.01939 0.49284 0.19276 0.0
C821 C 1.00589 0.4665 0.14262 0.0
C822 C 1.02701 0.53847 0.19 0.0
C823 C 0.03705 0.56056 0.13675 0.0
C824 C 0.0403 0.60136 0.13173 0.0
C825 C 0.03558 0.62149 0.18067 0.0
C826 C 0.03164 0.60318 0.2351 0.0
C827 C 1.02622 0.56123 0.23978 0.0
H828 H 0.41759 0.37907 0.16791 0.0
H829 H 0.49601 0.48601 0.28351 0.0
H830 H 0.46652 0.50904 0.11227 0.0
H831 H 0.53399 0.56554 0.10171 0.0
H832 H 0.66528 0.6217 0.16182 0.0
H833 H 0.56028 0.55238 0.27965 0.0
C834 C 0.43675 0.41362 0.17671 0.0
C835 C 0.44532 0.44136 0.13081 0.0
C836 C 0.44893 0.42992 0.23338 0.0
C837 C 0.48154 0.47457 0.24122 0.0
C838 C 0.49494 0.50354 0.19313 0.0
C839 C 0.46684 0.48681 0.14373 0.0
C840 C 0.54035 0.54574 0.18915 0.0
C841 C 0.55642 0.56819 0.13563 0.0
C842 C 0.60201 0.59129 0.12368 0.0
C843 C 0.63077 0.60138 0.16989 0.0
C844 C 0.61563 0.59319 0.22649 0.0
C845 C 0.571 0.56217 0.2361 0.0
H846 H 0.39957 0.02786 0.16919 0.0
H847 H 0.48579 1.00119 0.27323 0.0
H848 H 0.50148 0.01862 0.08892 0.0
H849 H 0.53047 0.97918 0.09631 0.0
H850 H 0.66058 0.03271 0.15577 0.0
H851 H 0.56202 0.02047 0.27433 0.0
C852 C 0.4293 0.02598 0.17365 0.0
C853 C 0.45074 0.02528 0.12406 0.0
C854 C 0.44096 0.0165 0.2274 0.0
C855 C 0.4777 1.01002 0.2321 0.0
C856 C 0.50185 1.01222 0.18254 0.0
C857 C 0.48649 0.0189 0.12881 0.0
C858 C 0.54215 1.00697 0.18322 0.0
C859 C 0.55397 0.99512 0.13088 0.0
C860 C 0.5971 1.00667 0.12075 0.0
C861 C 0.6273 0.02417 0.16529 0.0
C862 C 0.61406 0.02281 0.22235 0.0
C863 C 0.57151 0.01684 0.23148 0.0
H864 H 0.63982 0.97679 0.82374 0.0
H865 H 0.56876 0.01843 0.71277 0.0
H866 H 0.56876 0.03061 0.89774 0.0
H867 H 0.50463 1.01502 0.89652 0.0
H868 H 0.4041 0.02216 0.80515 0.0
H869 H 0.51017 0.02712 0.7104 0.0
C870 C 0.61696 0.98866 0.81731 0.0
C871 C 0.60385 1.00155 0.86563 0.0
C872 C 0.61037 1.00138 0.76256 0.0
C873 C 0.57674 1.01218 0.7555 0.0
C874 C 0.55536 0.01629 0.80521 0.0
C875 C 0.575 0.01741 0.85946 0.0
C876 C 0.51377 0.01933 0.80313 0.0
C877 C 0.49225 0.01762 0.85513 0.0
C878 C 0.45359 0.01924 0.85617 0.0
C879 C 0.4335 0.0197 0.80437 0.0
C880 C 0.45388 0.02273 0.75181 0.0
C881 C 0.49418 0.02299 0.75112 0.0
H882 H 0.04227 0.6515 0.81753 0.0
H883 H 1.0132 0.53757 0.71772 0.0
H884 H 0.97202 0.52534 0.89106 0.0
H885 H 0.98178 0.46612 0.90299 0.0
H886 H 0.05368 0.40696 0.84174 0.0
H887 H 1.01627 0.47688 0.72424 0.0
C888 C 0.03038 0.61686 0.81497 0.0
C889 C 1.01574 0.592 0.86489 0.0
C890 C 1.02381 0.59598 0.76116 0.0
C891 C 1.01359 0.5518 0.75908 0.0
C892 C 1.00132 0.52609 0.80947 0.0
C893 C 0.99265 0.54572 0.8574 0.0
C894 C 1.00447 0.48384 0.81475 0.0
C895 C 0.99981 0.46216 0.86857 0.0
C896 C 1.02223 0.43849 0.87995 0.0
C897 C 0.03945 0.42758 0.83373 0.0
C898 C 0.03248 0.43677 0.77734 0.0
C899 C 1.01793 0.46729 0.76792 0.0
H900 H 0.62998 0.66371 0.82471 0.0
H901 H 0.56061 0.54859 0.7171 0.0
H902 H 0.53196 0.55109 0.89807 0.0
H903 H 0.51531 0.48528 0.89529 0.0
H904 H 0.40016 0.38258 0.82016 0.0
H905 H 0.48872 0.48774 0.7135 0.0
C906 C 0.60385 0.63075 0.81724 0.0
C907 C 0.58526 0.60685 0.86551 0.0
C908 C 0.59754 0.60988 0.76343 0.0
C909 C 0.56461 0.56559 0.75747 0.0
C910 C 0.53893 0.54325 0.80591 0.0
C911 C 0.54919 0.56592 0.85912 0.0
C912 C 0.50398 0.49607 0.80551 0.0
C913 C 0.49391 0.47285 0.85791 0.0
C914 C 0.45541 0.43364 0.86384 0.0
C915 C 0.42865 0.41444 0.81597 0.0
C916 C 0.44222 0.43198 0.76134 0.0
C917 C 0.47927 0.47363 0.75577 0.0
H918 H 0.67897 0.70994 0.52202 0.0
H919 H 0.71017 0.82663 0.61488 0.0
H920 H 0.66465 0.80834 0.43732 0.0
H921 H 0.70831 0.87682 0.43161 0.0
H922 H 0.70884 0.98521 0.51215 0.0
H923 H 0.69186 0.87863 0.61607 0.0
C924 C 0.67765 0.7399 0.52486 0.0
C925 C 0.67247 0.75789 0.47451 0.0
C926 C 0.69075 0.76445 0.57588 0.0
C927 C 0.69637 0.80674 0.5766 0.0
C928 C 0.68632 0.82345 0.52679 0.0
C929 C 0.67182 0.79695 0.47696 0.0
C930 C 0.6946 0.86931 0.52374 0.0
C931 C 0.70368 0.89114 0.47015 0.0
C932 C 0.70742 0.93225 0.46543 0.0
C933 C 0.70437 0.95286 0.51496 0.0
C934 C 0.7013 0.9346 0.56925 0.0
C935 C 0.69518 0.89246 0.5737 0.0
H936 H 0.0844 0.71636 0.49552 0.0
H937 H 0.16359 0.8233 0.61106 0.0
H938 H 0.13459 0.84638 0.43945 0.0
H939 H 0.20234 0.90251 0.42935 0.0
H940 H 0.33293 0.95908 0.49127 0.0
H941 H 0.22684 0.89245 0.60897 0.0
C942 C 0.10384 0.75091 0.5042 0.0
C943 C 0.11275 0.7785 0.45795 0.0
C944 C 0.11621 0.76727 0.56098 0.0
C945 C 0.14904 0.8119 0.5688 0.0
C946 C 0.16265 0.84095 0.52079 0.0
C947 C 0.13476 0.8241 0.47093 0.0
C948 C 0.20799 0.88368 0.51759 0.0
C949 C 0.22453 0.90545 0.46375 0.0
C950 C 0.27018 0.92851 0.45227 0.0
C951 C 0.29836 0.93933 0.49935 0.0
C952 C 0.28284 0.93281 0.55618 0.0
C953 C 0.23807 0.90156 0.56545 0.0
H954 H 0.06672 0.36707 0.51185 0.0
H955 H 0.15326 0.33848 0.61181 0.0
H956 H 0.16742 0.3579 0.42795 0.0
H957 H 0.19734 0.31892 0.43358 0.0
H958 H 0.32779 0.37132 0.49305 0.0
H959 H 0.22998 0.36143 0.6108 0.0
C960 C 0.09655 0.36525 0.51538 0.0
C961 C 0.11745 0.3649 0.46521 0.0
C962 C 0.10816 0.35443 0.56809 0.0
C963 C 0.14502 0.34812 0.57141 0.0
C964 C 0.169 0.35144 0.52118 0.0
C965 C 0.15314 0.35843 0.46834 0.0
C966 C 0.20954 0.34695 0.52034 0.0
C967 C 0.22106 0.33492 0.46791 0.0
C968 C 0.26406 0.34567 0.45784 0.0
C969 C 0.2947 0.36385 0.50191 0.0
C970 C 0.28164 0.36361 0.55853 0.0
C971 C 0.23927 0.35764 0.56788 0.0
loop_
_geom_bond_atom_site_label_1
_geom_bond_atom_site_label_2
_geom_bond_distance
_geom_bond_site_symmetry_2
_ccdc_geom_bond_type
Mn0 O5 2.095 1_655 S
Mn0 O15 2.162 . S
Mn0 O16 2.297 1_554 S
Mn0 O24 2.385 1_554 S
Mn0 O25 2.209 1_654 S
Mn0 O26 2.094 . S
Mn1 O6 2.121 . S
Mn1 N8 2.257 1_554 S
Mn1 N17 2.282 1_554 S
Mn1 O25 2.215 1_554 S
Mn1 O27 2.117 . S
C2 O24 1.234 1_455 S
C2 O25 1.283 . S
C3 O15 1.281 1_556 S
C3 O16 1.236 . S
C4 O26 1.232 1_455 S
C4 O27 1.286 . S
O5 Mn0 2.095 1_455 S
O5 C14 1.250 . S
O6 Mn1 2.121 . S
O6 C14 1.258 . S
C7 N8 1.326 . S
C7 C11 1.460 . S
C7 H13 0.929 . S
N8 Mn1 2.257 1_556 S
N8 C7 1.326 . S
N8 C12 1.362 . S
C9 C10 1.258 . S
C9 C12 1.431 . S
C9 C29 1.449 . S
C10 C9 1.258 . S
C10 C11 1.477 . S
C10 H30 0.931 . S
C11 C7 1.460 . S
C11 C10 1.477 . S
C11 H31 0.930 . S
C12 N8 1.362 . S
C12 C9 1.431 . S
C12 C22 1.476 . S
H13 C7 0.929 . S
C14 O5 1.250 . S
C14 O6 1.258 . S
O15 Mn0 2.162 . S
O15 C3 1.281 1_554 S
O16 Mn0 2.297 1_556 S
O16 C3 1.236 . S
N17 Mn1 2.282 1_556 S
N17 C18 1.328 1_556 S
N17 C22 1.318 . S
C18 N17 1.328 1_554 S
C18 C19 1.457 1_554 S
C18 H23 0.929 . S
C19 C18 1.457 1_556 S
C19 C20 1.291 . S
C19 H32 0.931 . S
C20 C19 1.291 . S
C20 C21 1.373 . S
C20 H33 0.929 . S
C21 C20 1.373 . S
C21 C22 1.396 . S
C21 C28 1.403 . S
C22 C12 1.476 . S
C22 N17 1.318 . S
C22 C21 1.396 . S
H23 C18 0.929 . S
O24 Mn0 2.385 1_556 S
O24 C2 1.234 1_655 S
O25 Mn0 2.209 1_456 S
O25 Mn1 2.215 1_556 S
O25 C2 1.283 . S
O26 Mn0 2.094 . S
O26 C4 1.232 1_655 S
O27 Mn1 2.117 . S
O27 C4 1.286 . S
C28 C21 1.403 . S
C28 C29 1.399 . S
C28 H34 0.929 . S
C29 C9 1.449 . S
C29 C28 1.399 . S
C29 H35 0.930 . S
H30 C10 0.931 . S
H31 C11 0.930 . S
H32 C19 0.931 . S
H33 C20 0.929 . S
H34 C28 0.929 . S
H35 C29 0.930 . S
Mn36 O41 2.095 1_554 S
Mn36 O51 2.162 . S
Mn36 O52 2.297 . S
Mn36 O60 2.385 . S
Mn36 O61 2.209 . S
Mn36 O62 2.094 1_554 S
Mn37 O42 2.121 . S
Mn37 N44 2.257 1_556 S
Mn37 N53 2.282 1_556 S
Mn37 O61 2.215 1_556 S
Mn37 O63 2.117 . S
C38 O60 1.234 . S
C38 O61 1.283 . S
C39 O51 1.281 . S
C39 O52 1.236 . S
C40 O62 1.240 . S
C40 O63 1.264 . S
O41 Mn36 2.095 1_556 S
O41 C50 1.250 . S
O42 Mn37 2.121 . S
O42 C50 1.258 . S
C43 N44 1.326 . S
C43 C47 1.460 . S
C43 H49 0.929 . S
N44 Mn37 2.257 1_554 S
N44 C43 1.326 . S
N44 C48 1.362 . S
C45 C46 1.258 . S
C45 C48 1.431 . S
C45 C65 1.449 . S
C46 C45 1.258 . S
C46 C47 1.477 . S
C46 H66 0.931 . S
C47 C43 1.460 . S
C47 C46 1.477 . S
C47 H67 0.930 . S
C48 N44 1.362 . S
C48 C45 1.431 . S
C48 C58 1.476 . S
H49 C43 0.929 . S
C50 O41 1.250 . S
C50 O42 1.258 . S
O51 Mn36 2.162 . S
O51 C39 1.281 . S
O52 Mn36 2.297 . S
O52 C39 1.236 . S
N53 Mn37 2.282 1_554 S
N53 C54 1.328 . S
N53 C58 1.318 . S
C54 N53 1.328 . S
C54 C55 1.457 . S
C54 H59 0.929 1_554 S
C55 C54 1.457 . S
C55 C56 1.291 . S
C55 H68 0.931 . S
C56 C55 1.291 . S
C56 C57 1.373 . S
C56 H69 0.929 . S
C57 C56 1.373 . S
C57 C58 1.396 . S
C57 C64 1.403 . S
C58 C48 1.476 . S
C58 N53 1.318 . S
C58 C57 1.396 . S
H59 C54 0.929 1_556 S
O60 Mn36 2.385 . S
O60 C38 1.234 . S
O61 Mn36 2.209 . S
O61 Mn37 2.215 1_554 S
O61 C38 1.283 . S
O62 Mn36 2.094 1_556 S
O62 C40 1.240 . S
O63 Mn37 2.117 . S
O63 C40 1.264 . S
C64 C57 1.403 . S
C64 C65 1.399 . S
C64 H70 0.929 . S
C65 C45 1.449 . S
C65 C64 1.399 . S
C65 H71 0.930 . S
H66 C46 0.931 . S
H67 C47 0.930 . S
H68 C55 0.931 . S
H69 C56 0.929 . S
H70 C64 0.929 . S
H71 C65 0.930 . S
Mn72 O77 2.095 1_564 S
Mn72 O87 2.162 . S
Mn72 O88 2.297 . S
Mn72 O96 2.385 . S
Mn72 O97 2.209 1_565 S
Mn72 O98 2.094 1_554 S
Mn73 O78 2.121 1_554 S
Mn73 N80 2.257 . S
Mn73 N89 2.282 . S
Mn73 O97 2.215 . S
Mn73 O99 2.117 1_554 S
C74 O96 1.215 1_545 S
C74 O97 1.303 . S
C75 O87 1.281 . S
C75 O88 1.236 . S
C76 O98 1.240 . S
C76 O99 1.264 1_565 S
O77 Mn72 2.095 1_546 S
O77 C86 1.250 . S
O78 Mn73 2.121 1_556 S
O78 C86 1.258 . S
C79 N80 1.326 . S
C79 C83 1.460 . S
C79 H85 0.929 . S
N80 Mn73 2.257 . S
N80 C79 1.326 . S
N80 C84 1.362 . S
C81 C82 1.258 . S
C81 C84 1.431 . S
C81 C101 1.449 . S
C82 C81 1.258 . S
C82 C83 1.477 . S
C82 H102 0.931 . S
C83 C79 1.460 . S
C83 C82 1.477 . S
C83 H103 0.930 . S
C84 N80 1.362 . S
C84 C81 1.431 . S
C84 C94 1.476 . S
H85 C79 0.929 . S
C86 O77 1.250 . S
C86 O78 1.258 . S
O87 Mn72 2.162 . S
O87 C75 1.281 . S
O88 Mn72 2.297 . S
O88 C75 1.236 . S
N89 Mn73 2.282 . S
N89 C90 1.328 . S
N89 C94 1.318 . S
C90 N89 1.328 . S
C90 C91 1.457 . S
C90 H95 0.929 1_554 S
C91 C90 1.457 . S
C91 C92 1.291 . S
C91 H104 0.931 . S
C92 C91 1.291 . S
C92 C93 1.373 . S
C92 H105 0.929 . S
C93 C92 1.373 . S
C93 C94 1.396 . S
C93 C100 1.403 . S
C94 C84 1.476 . S
C94 N89 1.318 . S
C94 C93 1.396 . S
H95 C90 0.929 1_556 S
O96 Mn72 2.385 . S
O96 C74 1.215 1_565 S
O97 Mn72 2.209 1_545 S
O97 Mn73 2.215 . S
O97 C74 1.303 . S
O98 Mn72 2.094 1_556 S
O98 C76 1.240 . S
O99 Mn73 2.117 1_556 S
O99 C76 1.264 1_545 S
C100 C93 1.403 . S
C100 C101 1.399 . S
C100 H106 0.929 . S
C101 C81 1.449 . S
C101 C100 1.399 . S
C101 H107 0.930 . S
H102 C82 0.931 . S
H103 C83 0.930 . S
H104 C91 0.931 . S
H105 C92 0.929 . S
H106 C100 0.929 . S
H107 C101 0.930 . S
Mn108 O113 2.095 1_655 S
Mn108 O123 2.162 . S
Mn108 O124 2.297 1_554 S
Mn108 O132 2.385 1_554 S
Mn108 O133 2.209 1_654 S
Mn108 O134 2.094 . S
Mn109 O114 2.121 . S
Mn109 N116 2.257 1_554 S
Mn109 N125 2.282 1_554 S
Mn109 O133 2.215 1_554 S
Mn109 O135 2.117 . S
C110 O132 1.234 1_455 S
C110 O133 1.283 . S
C111 O123 1.281 1_556 S
C111 O124 1.236 . S
C112 O134 1.212 1_455 S
C112 O135 1.291 . S
O113 Mn108 2.095 1_455 S
O113 C122 1.250 . S
O114 Mn109 2.121 . S
O114 C122 1.258 . S
C115 N116 1.326 . S
C115 C119 1.460 . S
C115 H121 0.929 . S
N116 Mn109 2.257 1_556 S
N116 C115 1.326 . S
N116 C120 1.362 . S
C117 C118 1.258 . S
C117 C120 1.431 . S
C117 C137 1.449 . S
C118 C117 1.258 . S
C118 C119 1.477 . S
C118 H138 0.931 . S
C119 C115 1.460 . S
C119 C118 1.477 . S
C119 H139 0.930 . S
C120 N116 1.362 . S
C120 C117 1.431 . S
C120 C130 1.476 . S
H121 C115 0.929 . S
C122 O113 1.250 . S
C122 O114 1.258 . S
O123 Mn108 2.162 . S
O123 C111 1.281 1_554 S
O124 Mn108 2.297 1_556 S
O124 C111 1.236 . S
N125 Mn109 2.282 1_556 S
N125 C126 1.328 . S
N125 C130 1.318 . S
C126 N125 1.328 . S
C126 C127 1.457 . S
C126 H131 0.929 1_556 S
C127 C126 1.457 . S
C127 C128 1.291 . S
C127 H140 0.931 . S
C128 C127 1.291 . S
C128 C129 1.373 . S
C128 H141 0.929 . S
C129 C128 1.373 . S
C129 C130 1.396 . S
C129 C136 1.403 . S
C130 C120 1.476 . S
C130 N125 1.318 . S
C130 C129 1.396 . S
H131 C126 0.929 1_554 S
O132 Mn108 2.385 1_556 S
O132 C110 1.234 1_655 S
O133 Mn108 2.209 1_456 S
O133 Mn109 2.215 1_556 S
O133 C110 1.283 . S
O134 Mn108 2.094 . S
O134 C112 1.212 1_655 S
O135 Mn109 2.117 . S
O135 C112 1.291 . S
C136 C129 1.403 . S
C136 C137 1.399 . S
C136 H142 0.929 . S
C137 C117 1.449 . S
C137 C136 1.399 . S
C137 H143 0.930 . S
H138 C118 0.931 . S
H139 C119 0.930 . S
H140 C127 0.931 . S
H141 C128 0.929 . S
H142 C136 0.929 . S
H143 C137 0.930 . S
Mn144 O149 2.095 1_554 S
Mn144 O159 2.162 . S
Mn144 O160 2.297 . S
Mn144 O168 2.385 . S
Mn144 O169 2.209 . S
Mn144 O170 2.094 1_554 S
Mn145 O150 2.121 . S
Mn145 N152 2.257 1_556 S
Mn145 N161 2.282 1_556 S
Mn145 O169 2.215 1_556 S
Mn145 O171 2.117 . S
C146 O168 1.234 . S
C146 O169 1.283 . S
C147 O159 1.281 . S
C147 O160 1.236 . S
C148 O170 1.240 . S
C148 O171 1.264 . S
O149 Mn144 2.095 1_556 S
O149 C158 1.250 . S
O150 Mn145 2.121 . S
O150 C158 1.258 . S
C151 N152 1.326 . S
C151 C155 1.460 . S
C151 H157 0.929 . S
N152 Mn145 2.257 1_554 S
N152 C151 1.326 . S
N152 C156 1.362 . S
C153 C154 1.258 . S
C153 C156 1.431 . S
C153 C173 1.449 . S
C154 C153 1.258 . S
C154 C155 1.477 . S
C154 H174 0.931 . S
C155 C151 1.460 . S
C155 C154 1.477 . S
C155 H175 0.930 . S
C156 N152 1.362 . S
C156 C153 1.431 . S
C156 C166 1.476 . S
H157 C151 0.929 . S
C158 O149 1.250 . S
C158 O150 1.258 . S
O159 Mn144 2.162 . S
O159 C147 1.281 . S
O160 Mn144 2.297 . S
O160 C147 1.236 . S
N161 Mn145 2.282 1_554 S
N161 C162 1.328 . S
N161 C166 1.318 . S
C162 N161 1.328 . S
C162 C163 1.457 . S
C162 H167 0.929 1_554 S
C163 C162 1.457 . S
C163 C164 1.291 . S
C163 H176 0.931 . S
C164 C163 1.291 . S
C164 C165 1.373 . S
C164 H177 0.929 . S
C165 C164 1.373 . S
C165 C166 1.396 . S
C165 C172 1.403 . S
C166 C156 1.476 . S
C166 N161 1.318 . S
C166 C165 1.396 . S
H167 C162 0.929 1_556 S
O168 Mn144 2.385 . S
O168 C146 1.234 . S
O169 Mn144 2.209 . S
O169 Mn145 2.215 1_554 S
O169 C146 1.283 . S
O170 Mn144 2.094 1_556 S
O170 C148 1.240 . S
O171 Mn145 2.117 . S
O171 C148 1.264 . S
C172 C165 1.403 . S
C172 C173 1.399 . S
C172 H178 0.929 . S
C173 C153 1.449 . S
C173 C172 1.399 . S
C173 H179 0.930 . S
H174 C154 0.931 . S
H175 C155 0.930 . S
H176 C163 0.931 . S
H177 C164 0.929 . S
H178 C172 0.929 . S
H179 C173 0.930 . S
Mn180 O185 2.095 1_545 S
Mn180 O195 2.162 . S
Mn180 O196 2.297 1_554 S
Mn180 O204 2.385 1_554 S
Mn180 O205 2.209 1_544 S
Mn180 O206 2.094 . S
Mn181 O186 2.121 . S
Mn181 N188 2.257 1_554 S
Mn181 N197 2.282 1_554 S
Mn181 O205 2.215 1_554 S
Mn181 O207 2.117 . S
C182 O204 1.234 1_565 S
C182 O205 1.283 . S
C183 O195 1.281 1_556 S
C183 O196 1.236 . S
C184 O206 1.240 . S
C184 O207 1.264 1_545 S
O185 Mn180 2.095 1_565 S
O185 C194 1.250 . S
O186 Mn181 2.121 . S
O186 C194 1.258 . S
C187 N188 1.326 . S
C187 C191 1.460 . S
C187 H193 0.929 . S
N188 Mn181 2.257 1_556 S
N188 C187 1.326 . S
N188 C192 1.362 . S
C189 C190 1.258 . S
C189 C192 1.431 . S
C189 C209 1.449 . S
C190 C189 1.258 . S
C190 C191 1.477 . S
C190 H210 0.931 . S
C191 C187 1.460 . S
C191 C190 1.477 . S
C191 H211 0.930 . S
C192 N188 1.362 . S
C192 C189 1.431 . S
C192 C202 1.476 . S
H193 C187 0.929 . S
C194 O185 1.250 . S
C194 O186 1.258 . S
O195 Mn180 2.162 . S
O195 C183 1.281 1_554 S
O196 Mn180 2.297 1_556 S
O196 C183 1.236 . S
N197 Mn181 2.282 1_556 S
N197 C198 1.328 . S
N197 C202 1.318 . S
C198 N197 1.328 . S
C198 C199 1.457 . S
C198 H203 0.929 1_556 S
C199 C198 1.457 . S
C199 C200 1.291 . S
C199 H212 0.931 . S
C200 C199 1.291 . S
C200 C201 1.373 . S
C200 H213 0.929 . S
C201 C200 1.373 . S
C201 C202 1.396 . S
C201 C208 1.403 . S
C202 C192 1.476 . S
C202 N197 1.318 . S
C202 C201 1.396 . S
H203 C198 0.929 1_554 S
O204 Mn180 2.385 1_556 S
O204 C182 1.234 1_545 S
O205 Mn180 2.209 1_566 S
O205 Mn181 2.215 1_556 S
O205 C182 1.283 . S
O206 Mn180 2.094 . S
O206 C184 1.240 . S
O207 Mn181 2.117 . S
O207 C184 1.264 1_565 S
C208 C201 1.403 . S
C208 C209 1.399 . S
C208 H214 0.929 . S
C209 C189 1.449 . S
C209 C208 1.399 . S
C209 H215 0.930 . S
H210 C190 0.931 . S
H211 C191 0.930 . S
H212 C199 0.931 . S
H213 C200 0.929 . S
H214 C208 0.929 . S
H215 C209 0.930 . S
Mn216 O221 2.095 . S
Mn216 O231 2.162 . S
Mn216 O232 2.297 . S
Mn216 O240 2.385 . S
Mn216 O241 2.209 . S
Mn216 O242 2.094 . S
Mn217 O222 2.121 . S
Mn217 N224 2.257 . S
Mn217 N233 2.282 . S
Mn217 O241 2.215 . S
Mn217 O243 2.117 . S
C218 O240 1.234 . S
C218 O241 1.283 . S
C219 O231 1.281 . S
C219 O232 1.236 . S
C220 O242 1.240 . S
C220 O243 1.264 . S
O221 Mn216 2.095 . S
O221 C230 1.250 . S
O222 Mn217 2.121 . S
O222 C230 1.258 . S
C223 N224 1.326 . S
C223 C227 1.460 . S
C223 H229 0.929 . S
N224 Mn217 2.257 . S
N224 C223 1.326 . S
N224 C228 1.362 . S
C225 C226 1.258 . S
C225 C228 1.431 . S
C225 C245 1.449 . S
C226 C225 1.258 . S
C226 C227 1.477 . S
C226 H246 0.931 . S
C227 C223 1.460 . S
C227 C226 1.477 . S
C227 H247 0.930 . S
C228 N224 1.362 . S
C228 C225 1.431 . S
C228 C238 1.476 . S
H229 C223 0.929 . S
C230 O221 1.250 . S
C230 O222 1.258 . S
O231 Mn216 2.162 . S
O231 C219 1.281 . S
O232 Mn216 2.297 . S
O232 C219 1.236 . S
N233 Mn217 2.282 . S
N233 C234 1.328 . S
N233 C238 1.318 . S
C234 N233 1.328 . S
C234 C235 1.457 . S
C234 H239 0.929 . S
C235 C234 1.457 . S
C235 C236 1.291 . S
C235 H248 0.931 . S
C236 C235 1.291 . S
C236 C237 1.373 . S
C236 H249 0.929 . S
C237 C236 1.373 . S
C237 C238 1.396 . S
C237 C244 1.403 . S
C238 C228 1.476 . S
C238 N233 1.318 . S
C238 C237 1.396 . S
H239 C234 0.929 . S
O240 Mn216 2.385 . S
O240 C218 1.234 . S
O241 Mn216 2.209 . S
O241 Mn217 2.215 . S
O241 C218 1.283 . S
O242 Mn216 2.094 . S
O242 C220 1.240 . S
O243 Mn217 2.117 . S
O243 C220 1.264 . S
C244 C237 1.403 . S
C244 C245 1.399 . S
C244 H250 0.929 . S
C245 C225 1.449 . S
C245 C244 1.399 . S
C245 H251 0.930 . S
H246 C226 0.931 . S
H247 C227 0.930 . S
H248 C235 0.931 . S
H249 C236 0.929 . S
H250 C244 0.929 . S
H251 C245 0.930 . S
Mn252 O257 2.095 . S
Mn252 O267 2.162 1_565 S
Mn252 O268 2.297 1_565 S
Mn252 O276 2.385 . S
Mn252 O277 2.209 . S
Mn252 O278 2.094 . S
Mn253 O258 2.121 . S
Mn253 N260 2.257 . S
Mn253 N269 2.282 . S
Mn253 O277 2.215 . S
Mn253 O279 2.117 . S
C254 O276 1.234 . S
C254 O277 1.283 . S
C255 O267 1.281 . S
C255 O268 1.236 . S
C256 O278 1.240 . S
C256 O279 1.264 . S
O257 Mn252 2.095 . S
O257 C266 1.250 . S
O258 Mn253 2.121 . S
O258 C266 1.258 . S
C259 N260 1.326 . S
C259 C263 1.460 . S
C259 H265 0.929 . S
N260 Mn253 2.257 . S
N260 C259 1.326 . S
N260 C264 1.362 . S
C261 C262 1.258 . S
C261 C264 1.431 . S
C261 C281 1.449 . S
C262 C261 1.258 . S
C262 C263 1.477 . S
C262 H282 0.931 . S
C263 C259 1.460 . S
C263 C262 1.477 . S
C263 H283 0.930 . S
C264 N260 1.362 . S
C264 C261 1.431 . S
C264 C274 1.476 . S
H265 C259 0.929 . S
C266 O257 1.250 . S
C266 O258 1.258 . S
O267 Mn252 2.162 1_545 S
O267 C255 1.281 . S
O268 Mn252 2.297 1_545 S
O268 C255 1.236 . S
N269 Mn253 2.282 . S
N269 C270 1.328 . S
N269 C274 1.318 . S
C270 N269 1.328 . S
C270 C271 1.457 . S
C270 H275 0.929 . S
C271 C270 1.457 . S
C271 C272 1.291 . S
C271 H284 0.931 . S
C272 C271 1.291 . S
C272 C273 1.373 . S
C272 H285 0.929 . S
C273 C272 1.373 . S
C273 C274 1.396 . S
C273 C280 1.403 . S
C274 C264 1.476 . S
C274 N269 1.318 . S
C274 C273 1.396 . S
H275 C270 0.929 . S
O276 Mn252 2.385 . S
O276 C254 1.234 . S
O277 Mn252 2.209 . S
O277 Mn253 2.215 . S
O277 C254 1.283 . S
O278 Mn252 2.094 . S
O278 C256 1.240 . S
O279 Mn253 2.117 . S
O279 C256 1.264 . S
C280 C273 1.403 . S
C280 C281 1.399 . S
C280 H286 0.929 . S
C281 C261 1.449 . S
C281 C280 1.399 . S
C281 H287 0.930 . S
H282 C262 0.931 . S
H283 C263 0.930 . S
H284 C271 0.931 . S
H285 C272 0.929 . S
H286 C280 0.929 . S
H287 C281 0.930 . S
Mn288 O293 2.090 1_455 S
Mn288 O303 2.162 1_455 S
Mn288 O304 2.297 1_455 S
Mn288 O312 2.385 . S
Mn288 O313 2.209 . S
Mn288 O314 2.094 . S
Mn289 O294 2.121 . S
Mn289 N296 2.257 . S
Mn289 N305 2.282 . S
Mn289 O313 2.215 . S
Mn289 O315 2.117 . S
C290 O312 1.234 . S
C290 O313 1.283 . S
C291 O303 1.281 . S
C291 O304 1.236 . S
C292 O314 1.240 . S
C292 O315 1.264 . S
O293 Mn288 2.090 1_655 S
O293 C302 1.251 1_655 S
O294 Mn289 2.121 . S
O294 C302 1.258 . S
C295 N296 1.326 . S
C295 C299 1.460 . S
C295 H301 0.929 . S
N296 Mn289 2.257 . S
N296 C295 1.326 . S
N296 C300 1.362 . S
C297 C298 1.258 . S
C297 C300 1.431 . S
C297 C317 1.449 . S
C298 C297 1.258 . S
C298 C299 1.477 . S
C298 H318 0.931 . S
C299 C295 1.460 . S
C299 C298 1.477 . S
C299 H319 0.930 . S
C300 N296 1.362 . S
C300 C297 1.431 . S
C300 C310 1.476 . S
H301 C295 0.929 . S
C302 O293 1.251 1_455 S
C302 O294 1.258 . S
O303 Mn288 2.162 1_655 S
O303 C291 1.281 . S
O304 Mn288 2.297 1_655 S
O304 C291 1.236 . S
N305 Mn289 2.282 . S
N305 C306 1.328 . S
N305 C310 1.318 . S
C306 N305 1.328 . S
C306 C307 1.457 . S
C306 H311 0.929 . S
C307 C306 1.457 . S
C307 C308 1.291 . S
C307 H320 0.931 . S
C308 C307 1.291 . S
C308 C309 1.373 . S
C308 H321 0.929 . S
C309 C308 1.373 . S
C309 C310 1.396 . S
C309 C316 1.403 . S
C310 C300 1.476 . S
C310 N305 1.318 . S
C310 C309 1.396 . S
H311 C306 0.929 . S
O312 Mn288 2.385 . S
O312 C290 1.234 . S
O313 Mn288 2.209 . S
O313 Mn289 2.215 . S
O313 C290 1.283 . S
O314 Mn288 2.094 . S
O314 C292 1.240 . S
O315 Mn289 2.117 . S
O315 C292 1.264 . S
C316 C309 1.403 . S
C316 C317 1.399 . S
C316 H322 0.929 . S
C317 C297 1.449 . S
C317 C316 1.399 . S
C317 H323 0.930 . S
H318 C298 0.931 . S
H319 C299 0.930 . S
H320 C307 0.931 . S
H321 C308 0.929 . S
H322 C316 0.929 . S
H323 C317 0.930 . S
Mn324 O329 2.095 1_565 S
Mn324 O339 2.162 . S
Mn324 O340 2.297 1_565 S
Mn324 O348 2.385 . S
Mn324 O349 2.209 . S
Mn324 O350 2.094 . S
Mn325 O330 2.121 1_565 S
Mn325 N332 2.257 1_565 S
Mn325 N341 2.282 . S
Mn325 O349 2.215 . S
Mn325 O351 2.117 . S
C326 O348 1.234 . S
C326 O349 1.283 . S
C327 O339 1.281 . S
C327 O340 1.236 1_565 S
C328 O350 1.240 . S
C328 O351 1.264 . S
O329 Mn324 2.095 1_545 S
O329 C338 1.250 . S
O330 Mn325 2.121 1_545 S
O330 C338 1.258 . S
C331 N332 1.326 . S
C331 C335 1.460 . S
C331 H337 0.929 . S
N332 Mn325 2.257 1_545 S
N332 C331 1.326 . S
N332 C336 1.362 1_545 S
C333 C334 1.258 1_565 S
C333 C336 1.431 . S
C333 C353 1.449 . S
C334 C333 1.258 1_545 S
C334 C335 1.477 . S
C334 H354 0.931 . S
C335 C331 1.460 . S
C335 C334 1.477 . S
C335 H355 0.930 . S
C336 N332 1.362 1_565 S
C336 C333 1.431 . S
C336 C346 1.476 . S
H337 C331 0.929 . S
C338 O329 1.250 . S
C338 O330 1.258 . S
O339 Mn324 2.162 . S
O339 C327 1.281 . S
O340 Mn324 2.297 1_545 S
O340 C327 1.236 1_545 S
N341 Mn325 2.282 . S
N341 C342 1.328 . S
N341 C346 1.318 . S
C342 N341 1.328 . S
C342 C343 1.457 . S
C342 H347 0.929 . S
C343 C342 1.457 . S
C343 C344 1.291 . S
C343 H356 0.931 . S
C344 C343 1.291 . S
C344 C345 1.373 . S
C344 H357 0.929 . S
C345 C344 1.373 . S
C345 C346 1.396 . S
C345 C352 1.403 . S
C346 C336 1.476 . S
C346 N341 1.318 . S
C346 C345 1.396 . S
H347 C342 0.929 . S
O348 Mn324 2.385 . S
O348 C326 1.234 . S
O349 Mn324 2.209 . S
O349 Mn325 2.215 . S
O349 C326 1.283 . S
O350 Mn324 2.094 . S
O350 C328 1.240 . S
O351 Mn325 2.117 . S
O351 C328 1.264 . S
C352 C345 1.403 . S
C352 C353 1.399 . S
C352 H358 0.929 . S
C353 C333 1.449 . S
C353 C352 1.399 . S
C353 H359 0.930 . S
H354 C334 0.931 . S
H355 C335 0.930 . S
H356 C343 0.931 . S
H357 C344 0.929 . S
H358 C352 0.929 . S
H359 C353 0.930 . S
Mn360 O365 2.095 . S
Mn360 O375 2.162 1_455 S
Mn360 O376 2.297 1_455 S
Mn360 O384 2.385 . S
Mn360 O385 2.209 . S
Mn360 O386 2.094 . S
Mn361 O366 2.121 . S
Mn361 N368 2.257 . S
Mn361 N377 2.282 . S
Mn361 O385 2.215 . S
Mn361 O387 2.117 . S
C362 O384 1.234 . S
C362 O385 1.283 . S
C363 O375 1.281 . S
C363 O376 1.236 . S
C364 O386 1.240 . S
C364 O387 1.264 . S
O365 Mn360 2.095 . S
O365 C374 1.250 . S
O366 Mn361 2.121 . S
O366 C374 1.258 . S
C367 N368 1.326 . S
C367 C371 1.460 . S
C367 H373 0.929 . S
N368 Mn361 2.257 . S
N368 C367 1.326 . S
N368 C372 1.362 . S
C369 C370 1.258 . S
C369 C372 1.431 . S
C369 C389 1.449 . S
C370 C369 1.258 . S
C370 C371 1.477 . S
C370 H390 0.931 . S
C371 C367 1.460 . S
C371 C370 1.477 . S
C371 H391 0.930 . S
C372 N368 1.362 . S
C372 C369 1.431 . S
C372 C382 1.476 . S
H373 C367 0.929 . S
C374 O365 1.250 . S
C374 O366 1.258 . S
O375 Mn360 2.162 1_655 S
O375 C363 1.281 . S
O376 Mn360 2.297 1_655 S
O376 C363 1.236 . S
N377 Mn361 2.282 . S
N377 C378 1.328 . S
N377 C382 1.318 . S
C378 N377 1.328 . S
C378 C379 1.457 . S
C378 H383 0.929 . S
C379 C378 1.457 . S
C379 C380 1.291 . S
C379 H392 0.931 . S
C380 C379 1.291 . S
C380 C381 1.373 . S
C380 H393 0.929 . S
C381 C380 1.373 . S
C381 C382 1.396 . S
C381 C388 1.403 . S
C382 C372 1.476 . S
C382 N377 1.318 . S
C382 C381 1.396 . S
H383 C378 0.929 . S
O384 Mn360 2.385 . S
O384 C362 1.234 . S
O385 Mn360 2.209 . S
O385 Mn361 2.215 . S
O385 C362 1.283 . S
O386 Mn360 2.094 . S
O386 C364 1.240 . S
O387 Mn361 2.117 . S
O387 C364 1.264 . S
C388 C381 1.403 . S
C388 C389 1.399 . S
C388 H394 0.929 . S
C389 C369 1.449 . S
C389 C388 1.399 . S
C389 H395 0.930 . S
H390 C370 0.931 . S
H391 C371 0.930 . S
H392 C379 0.931 . S
H393 C380 0.929 . S
H394 C388 0.929 . S
H395 C389 0.930 . S
Mn396 O401 2.095 . S
Mn396 O411 2.162 . S
Mn396 O412 2.297 . S
Mn396 O420 2.385 . S
Mn396 O421 2.209 . S
Mn396 O422 2.094 . S
Mn397 O402 2.121 . S
Mn397 N404 2.257 . S
Mn397 N413 2.282 . S
Mn397 O421 2.215 . S
Mn397 O423 2.117 . S
C398 O420 1.234 . S
C398 O421 1.283 . S
C399 O411 1.281 . S
C399 O412 1.236 . S
C400 O422 1.240 . S
C400 O423 1.264 . S
O401 Mn396 2.095 . S
O401 C410 1.250 . S
O402 Mn397 2.121 . S
O402 C410 1.258 . S
C403 N404 1.326 . S
C403 C407 1.460 . S
C403 H409 0.929 . S
N404 Mn397 2.257 . S
N404 C403 1.326 . S
N404 C408 1.362 . S
C405 C406 1.258 . S
C405 C408 1.431 . S
C405 C425 1.449 . S
C406 C405 1.258 . S
C406 C407 1.477 . S
C406 H426 0.931 . S
C407 C403 1.460 . S
C407 C406 1.477 . S
C407 H427 0.930 . S
C408 N404 1.362 . S
C408 C405 1.431 . S
C408 C418 1.476 . S
H409 C403 0.929 . S
C410 O401 1.250 . S
C410 O402 1.258 . S
O411 Mn396 2.162 . S
O411 C399 1.281 . S
O412 Mn396 2.297 . S
O412 C399 1.236 . S
N413 Mn397 2.282 . S
N413 C414 1.328 . S
N413 C418 1.318 . S
C414 N413 1.328 . S
C414 C415 1.457 . S
C414 H419 0.929 . S
C415 C414 1.457 . S
C415 C416 1.291 . S
C415 H428 0.931 . S
C416 C415 1.291 . S
C416 C417 1.373 . S
C416 H429 0.929 . S
C417 C416 1.373 . S
C417 C418 1.396 . S
C417 C424 1.403 . S
C418 C408 1.476 . S
C418 N413 1.318 . S
C418 C417 1.396 . S
H419 C414 0.929 . S
O420 Mn396 2.385 . S
O420 C398 1.234 . S
O421 Mn396 2.209 . S
O421 Mn397 2.215 . S
O421 C398 1.283 . S
O422 Mn396 2.094 . S
O422 C400 1.240 . S
O423 Mn397 2.117 . S
O423 C400 1.264 . S
C424 C417 1.403 . S
C424 C425 1.399 . S
C424 H430 0.929 . S
C425 C405 1.449 . S
C425 C424 1.399 . S
C425 H431 0.930 . S
H426 C406 0.931 . S
H427 C407 0.930 . S
H428 C415 0.931 . S
H429 C416 0.929 . S
H430 C424 0.929 . S
H431 C425 0.930 . S
Mn432 O437 2.095 . S
Mn432 O447 2.162 1_545 S
Mn432 O448 2.297 1_545 S
Mn432 O456 2.385 . S
Mn432 O457 2.209 . S
Mn432 O458 2.094 . S
Mn433 O438 2.121 . S
Mn433 N440 2.257 . S
Mn433 N449 2.282 . S
Mn433 O457 2.215 . S
Mn433 O459 2.117 . S
C434 O456 1.234 . S
C434 O457 1.283 . S
C435 O447 1.281 . S
C435 O448 1.236 . S
C436 O458 1.240 . S
C436 O459 1.264 . S
O437 Mn432 2.095 . S
O437 C446 1.250 . S
O438 Mn433 2.121 . S
O438 C446 1.258 . S
C439 N440 1.326 . S
C439 C443 1.460 . S
C439 H445 0.929 . S
N440 Mn433 2.257 . S
N440 C439 1.326 . S
N440 C444 1.362 . S
C441 C442 1.258 . S
C441 C444 1.431 . S
C441 C461 1.449 . S
C442 C441 1.258 . S
C442 C443 1.477 . S
C442 H462 0.931 . S
C443 C439 1.460 . S
C443 C442 1.477 . S
C443 H463 0.930 . S
C444 N440 1.362 . S
C444 C441 1.431 . S
C444 C454 1.476 . S
H445 C439 0.929 . S
C446 O437 1.250 . S
C446 O438 1.258 . S
O447 Mn432 2.162 1_565 S
O447 C435 1.281 . S
O448 Mn432 2.297 1_565 S
O448 C435 1.236 . S
N449 Mn433 2.282 . S
N449 C450 1.328 . S
N449 C454 1.318 . S
C450 N449 1.328 . S
C450 C451 1.457 . S
C450 H455 0.929 . S
C451 C450 1.457 . S
C451 C452 1.291 . S
C451 H464 0.931 . S
C452 C451 1.291 . S
C452 C453 1.373 . S
C452 H465 0.929 . S
C453 C452 1.373 . S
C453 C454 1.396 . S
C453 C460 1.403 . S
C454 C444 1.476 . S
C454 N449 1.318 . S
C454 C453 1.396 . S
H455 C450 0.929 . S
O456 Mn432 2.385 . S
O456 C434 1.234 . S
O457 Mn432 2.209 . S
O457 Mn433 2.215 . S
O457 C434 1.283 . S
O458 Mn432 2.094 . S
O458 C436 1.240 . S
O459 Mn433 2.117 . S
O459 C436 1.264 . S
C460 C453 1.403 . S
C460 C461 1.399 . S
C460 H466 0.929 . S
C461 C441 1.449 . S
C461 C460 1.399 . S
C461 H467 0.930 . S
H462 C442 0.931 . S
H463 C443 0.930 . S
H464 C451 0.931 . S
H465 C452 0.929 . S
H466 C460 0.929 . S
H467 C461 0.930 . S
Mn468 O473 2.095 1_655 S
Mn468 O483 2.162 . S
Mn468 O484 2.297 1_655 S
Mn468 O492 2.385 . S
Mn468 O493 2.209 . S
Mn468 O494 2.094 . S
Mn469 O474 2.121 1_655 S
Mn469 N476 2.257 1_655 S
Mn469 N485 2.282 . S
Mn469 O493 2.215 . S
Mn469 O495 2.117 . S
C470 O492 1.234 . S
C470 O493 1.283 . S
C471 O483 1.281 . S
C471 O484 1.236 1_655 S
C472 O494 1.240 . S
C472 O495 1.264 . S
O473 Mn468 2.095 1_455 S
O473 C482 1.250 . S
O474 Mn469 2.121 1_455 S
O474 C482 1.258 . S
C475 N476 1.326 . S
C475 C479 1.460 . S
C475 H481 0.929 . S
N476 Mn469 2.257 1_455 S
N476 C475 1.326 . S
N476 C480 1.362 1_455 S
C477 C478 1.258 1_655 S
C477 C480 1.431 . S
C477 C497 1.449 . S
C478 C477 1.258 1_455 S
C478 C479 1.477 . S
C478 H498 0.931 . S
C479 C475 1.460 . S
C479 C478 1.477 . S
C479 H499 0.930 . S
C480 N476 1.362 1_655 S
C480 C477 1.431 . S
C480 C490 1.476 . S
H481 C475 0.929 . S
C482 O473 1.250 . S
C482 O474 1.258 . S
O483 Mn468 2.162 . S
O483 C471 1.281 . S
O484 Mn468 2.297 1_455 S
O484 C471 1.236 1_455 S
N485 Mn469 2.282 . S
N485 C486 1.328 . S
N485 C490 1.318 . S
C486 N485 1.328 . S
C486 C487 1.457 . S
C486 H491 0.929 . S
C487 C486 1.457 . S
C487 C488 1.291 . S
C487 H500 0.931 . S
C488 C487 1.291 . S
C488 C489 1.373 . S
C488 H501 0.929 . S
C489 C488 1.373 . S
C489 C490 1.396 . S
C489 C496 1.403 . S
C490 C480 1.476 . S
C490 N485 1.318 . S
C490 C489 1.396 . S
H491 C486 0.929 . S
O492 Mn468 2.385 . S
O492 C470 1.234 . S
O493 Mn468 2.209 . S
O493 Mn469 2.215 . S
O493 C470 1.283 . S
O494 Mn468 2.094 . S
O494 C472 1.240 . S
O495 Mn469 2.117 . S
O495 C472 1.264 . S
C496 C489 1.403 . S
C496 C497 1.399 . S
C496 H502 0.929 . S
C497 C477 1.449 . S
C497 C496 1.399 . S
C497 H503 0.930 . S
H498 C478 0.931 . S
H499 C479 0.930 . S
H500 C487 0.931 . S
H501 C488 0.929 . S
H502 C496 0.929 . S
H503 C497 0.930 . S
Mn504 O509 2.095 . S
Mn504 O519 2.162 . S
Mn504 O520 2.297 . S
Mn504 O528 2.385 . S
Mn504 O529 2.209 . S
Mn504 O530 2.094 . S
Mn505 O510 2.121 . S
Mn505 N512 2.257 . S
Mn505 N521 2.282 . S
Mn505 O529 2.215 . S
Mn505 O531 2.117 . S
C506 O528 1.234 . S
C506 O529 1.283 . S
C507 O519 1.281 . S
C507 O520 1.236 . S
C508 O530 1.240 . S
C508 O531 1.264 . S
O509 Mn504 2.095 . S
O509 C518 1.250 . S
O510 Mn505 2.121 . S
O510 C518 1.258 . S
C511 N512 1.326 . S
C511 C515 1.460 . S
C511 H517 0.929 . S
N512 Mn505 2.257 . S
N512 C511 1.326 . S
N512 C516 1.362 . S
C513 C514 1.258 . S
C513 C516 1.431 . S
C513 C533 1.449 . S
C514 C513 1.258 . S
C514 C515 1.477 . S
C514 H534 0.931 . S
C515 C511 1.460 . S
C515 C514 1.477 . S
C515 H535 0.930 . S
C516 N512 1.362 . S
C516 C513 1.431 . S
C516 C526 1.476 . S
H517 C511 0.929 . S
C518 O509 1.250 . S
C518 O510 1.258 . S
O519 Mn504 2.162 . S
O519 C507 1.281 . S
O520 Mn504 2.297 . S
O520 C507 1.236 . S
N521 Mn505 2.282 . S
N521 C522 1.328 . S
N521 C526 1.318 . S
C522 N521 1.328 . S
C522 C523 1.457 . S
C522 H527 0.929 . S
C523 C522 1.457 . S
C523 C524 1.291 . S
C523 H536 0.931 . S
C524 C523 1.291 . S
C524 C525 1.373 . S
C524 H537 0.929 . S
C525 C524 1.373 . S
C525 C526 1.396 . S
C525 C532 1.403 . S
C526 C516 1.476 . S
C526 N521 1.318 . S
C526 C525 1.396 . S
H527 C522 0.929 . S
O528 Mn504 2.385 . S
O528 C506 1.234 . S
O529 Mn504 2.209 . S
O529 Mn505 2.215 . S
O529 C506 1.283 . S
O530 Mn504 2.094 . S
O530 C508 1.240 . S
O531 Mn505 2.117 . S
O531 C508 1.264 . S
C532 C525 1.403 . S
C532 C533 1.399 . S
C532 H538 0.929 . S
C533 C513 1.449 . S
C533 C532 1.399 . S
C533 H539 0.930 . S
H534 C514 0.931 . S
H535 C515 0.930 . S
H536 C523 0.931 . S
H537 C524 0.929 . S
H538 C532 0.929 . S
H539 C533 0.930 . S
Mn540 O545 2.095 . S
Mn540 O555 2.162 . S
Mn540 O556 2.297 . S
Mn540 O564 2.385 . S
Mn540 O565 2.209 . S
Mn540 O566 2.094 . S
Mn541 O546 2.121 . S
Mn541 N548 2.257 . S
Mn541 N557 2.282 . S
Mn541 O565 2.215 . S
Mn541 O567 2.117 . S
C542 O564 1.234 . S
C542 O565 1.283 . S
C543 O555 1.281 . S
C543 O556 1.236 . S
C544 O566 1.240 . S
C544 O567 1.264 . S
O545 Mn540 2.095 . S
O545 C554 1.250 . S
O546 Mn541 2.121 . S
O546 C554 1.258 . S
C547 N548 1.326 . S
C547 C551 1.460 . S
C547 H553 0.929 . S
N548 Mn541 2.257 . S
N548 C547 1.326 . S
N548 C552 1.362 . S
C549 C550 1.258 . S
C549 C552 1.431 . S
C549 C569 1.449 . S
C550 C549 1.258 . S
C550 C551 1.477 . S
C550 H570 0.931 . S
C551 C547 1.460 . S
C551 C550 1.477 . S
C551 H571 0.930 . S
C552 N548 1.362 . S
C552 C549 1.431 . S
C552 C562 1.476 . S
H553 C547 0.929 . S
C554 O545 1.250 . S
C554 O546 1.258 . S
O555 Mn540 2.162 . S
O555 C543 1.281 . S
O556 Mn540 2.297 . S
O556 C543 1.236 . S
N557 Mn541 2.282 . S
N557 C558 1.328 . S
N557 C562 1.318 . S
C558 N557 1.328 . S
C558 C559 1.457 . S
C558 H563 0.929 . S
C559 C558 1.457 . S
C559 C560 1.291 . S
C559 H572 0.931 . S
C560 C559 1.291 . S
C560 C561 1.373 . S
C560 H573 0.929 . S
C561 C560 1.373 . S
C561 C562 1.396 . S
C561 C568 1.403 . S
C562 C552 1.476 . S
C562 N557 1.318 . S
C562 C561 1.396 . S
H563 C558 0.929 . S
O564 Mn540 2.385 . S
O564 C542 1.234 . S
O565 Mn540 2.209 . S
O565 Mn541 2.215 . S
O565 C542 1.283 . S
O566 Mn540 2.094 . S
O566 C544 1.240 . S
O567 Mn541 2.117 . S
O567 C544 1.264 . S
C568 C561 1.403 . S
C568 C569 1.399 . S
C568 H574 0.929 . S
C569 C549 1.449 . S
C569 C568 1.399 . S
C569 H575 0.930 . S
H570 C550 0.931 . S
H571 C551 0.930 . S
H572 C559 0.931 . S
H573 C560 0.929 . S
H574 C568 0.929 . S
H575 C569 0.930 . S
Mn576 O581 2.095 1_545 S
Mn576 O591 2.162 . S
Mn576 O592 2.297 1_545 S
Mn576 O600 2.385 . S
Mn576 O601 2.209 . S
Mn576 O602 2.094 . S
Mn577 O582 2.121 1_545 S
Mn577 N584 2.257 1_545 S
Mn577 N593 2.282 . S
Mn577 O601 2.215 . S
Mn577 O603 2.117 . S
C578 O600 1.234 . S
C578 O601 1.283 . S
C579 O591 1.281 . S
C579 O592 1.236 1_545 S
C580 O602 1.240 . S
C580 O603 1.264 . S
O581 Mn576 2.095 1_565 S
O581 C590 1.250 . S
O582 Mn577 2.121 1_565 S
O582 C590 1.258 . S
C583 N584 1.326 . S
C583 C587 1.460 . S
C583 H589 0.929 . S
N584 Mn577 2.257 1_565 S
N584 C583 1.326 . S
N584 C588 1.362 1_565 S
C585 C586 1.258 1_545 S
C585 C588 1.431 . S
C585 C605 1.449 . S
C586 C585 1.258 1_565 S
C586 C587 1.477 . S
C586 H606 0.931 . S
C587 C583 1.460 . S
C587 C586 1.477 . S
C587 H607 0.930 . S
C588 N584 1.362 1_545 S
C588 C585 1.431 . S
C588 C598 1.476 . S
H589 C583 0.929 . S
C590 O581 1.250 . S
C590 O582 1.258 . S
O591 Mn576 2.162 . S
O591 C579 1.281 . S
O592 Mn576 2.297 1_565 S
O592 C579 1.236 1_565 S
N593 Mn577 2.282 . S
N593 C594 1.328 . S
N593 C598 1.318 . S
C594 N593 1.328 . S
C594 C595 1.457 . S
C594 H599 0.929 . S
C595 C594 1.457 . S
C595 C596 1.291 . S
C595 H608 0.931 . S
C596 C595 1.291 . S
C596 C597 1.373 . S
C596 H609 0.929 . S
C597 C596 1.373 . S
C597 C598 1.396 . S
C597 C604 1.403 . S
C598 C588 1.476 . S
C598 N593 1.318 . S
C598 C597 1.396 . S
H599 C594 0.929 . S
O600 Mn576 2.385 . S
O600 C578 1.234 . S
O601 Mn576 2.209 . S
O601 Mn577 2.215 . S
O601 C578 1.283 . S
O602 Mn576 2.094 . S
O602 C580 1.240 . S
O603 Mn577 2.117 . S
O603 C580 1.264 . S
C604 C597 1.403 . S
C604 C605 1.399 . S
C604 H610 0.929 . S
C605 C585 1.449 . S
C605 C604 1.399 . S
C605 H611 0.930 . S
H606 C586 0.931 . S
H607 C587 0.930 . S
H608 C595 0.931 . S
H609 C596 0.929 . S
H610 C604 0.929 . S
H611 C605 0.930 . S
Mn612 O617 2.095 . S
Mn612 O627 2.162 1_655 S
Mn612 O628 2.297 1_655 S
Mn612 O636 2.385 . S
Mn612 O637 2.209 . S
Mn612 O638 2.094 . S
Mn613 O618 2.121 . S
Mn613 N620 2.257 . S
Mn613 N629 2.282 . S
Mn613 O637 2.215 . S
Mn613 O639 2.117 . S
C614 O636 1.234 . S
C614 O637 1.283 . S
C615 O627 1.281 . S
C615 O628 1.236 . S
C616 O638 1.240 . S
C616 O639 1.264 . S
O617 Mn612 2.095 . S
O617 C626 1.250 . S
O618 Mn613 2.121 . S
O618 C626 1.258 . S
C619 N620 1.326 . S
C619 C623 1.460 . S
C619 H625 0.929 . S
N620 Mn613 2.257 . S
N620 C619 1.326 . S
N620 C624 1.362 . S
C621 C622 1.258 . S
C621 C624 1.431 . S
C621 C641 1.449 . S
C622 C621 1.258 . S
C622 C623 1.477 . S
C622 H642 0.931 . S
C623 C619 1.460 . S
C623 C622 1.477 . S
C623 H643 0.930 . S
C624 N620 1.362 . S
C624 C621 1.431 . S
C624 C634 1.476 . S
H625 C619 0.929 . S
C626 O617 1.250 . S
C626 O618 1.258 . S
O627 Mn612 2.162 1_455 S
O627 C615 1.281 . S
O628 Mn612 2.297 1_455 S
O628 C615 1.236 . S
N629 Mn613 2.282 . S
N629 C630 1.328 . S
N629 C634 1.318 . S
C630 N629 1.328 . S
C630 C631 1.457 . S
C630 H635 0.929 . S
C631 C630 1.457 . S
C631 C632 1.291 . S
C631 H644 0.931 . S
C632 C631 1.291 . S
C632 C633 1.373 . S
C632 H645 0.929 . S
C633 C632 1.373 . S
C633 C634 1.396 . S
C633 C640 1.403 . S
C634 C624 1.476 . S
C634 N629 1.318 . S
C634 C633 1.396 . S
H635 C630 0.929 . S
O636 Mn612 2.385 . S
O636 C614 1.234 . S
O637 Mn612 2.209 . S
O637 Mn613 2.215 . S
O637 C614 1.283 . S
O638 Mn612 2.094 . S
O638 C616 1.240 . S
O639 Mn613 2.117 . S
O639 C616 1.264 . S
C640 C633 1.403 . S
C640 C641 1.399 . S
C640 H646 0.929 . S
C641 C621 1.449 . S
C641 C640 1.399 . S
C641 H647 0.930 . S
H642 C622 0.931 . S
H643 C623 0.930 . S
H644 C631 0.931 . S
H645 C632 0.929 . S
H646 C640 0.929 . S
H647 C641 0.930 . S
H648 C654 0.930 . S
H649 C657 0.931 . S
H650 C659 0.931 . S
H651 C661 0.930 . S
H652 C663 0.930 . S
H653 C665 0.931 . S
C654 H648 0.930 . S
C654 C655 1.380 . S
C654 C656 1.394 . S
C655 C654 1.380 . S
C655 C659 1.382 . S
C656 C654 1.394 . S
C656 C657 1.400 . S
C657 H649 0.931 . S
C657 C656 1.400 . S
C657 C658 1.375 . S
C658 C657 1.375 . S
C658 C659 1.415 . S
C658 C660 1.501 . S
C659 H650 0.931 . S
C659 C655 1.382 . S
C659 C658 1.415 . S
C660 C658 1.501 . S
C660 C661 1.384 . S
C660 C665 1.408 . S
C661 H651 0.930 . S
C661 C660 1.384 . S
C661 C662 1.389 . S
C662 C661 1.389 . S
C662 C663 1.405 . S
C663 H652 0.930 . S
C663 C662 1.405 . S
C663 C664 1.364 . S
C664 C663 1.364 . S
C664 C665 1.400 . S
C665 H653 0.931 . S
C665 C660 1.408 . S
C665 C664 1.400 . S
H666 C672 0.930 . S
H667 C675 0.931 . S
H668 C677 0.931 . S
H669 C679 0.930 . S
H670 C681 0.930 . S
H671 C683 0.931 . S
C672 H666 0.930 . S
C672 C673 1.380 . S
C672 C674 1.394 . S
C673 C672 1.380 . S
C673 C677 1.382 . S
C674 C672 1.394 . S
C674 C675 1.400 . S
C675 H667 0.931 . S
C675 C674 1.400 . S
C675 C676 1.375 . S
C676 C675 1.375 . S
C676 C677 1.415 . S
C676 C678 1.501 . S
C677 H668 0.931 . S
C677 C673 1.382 . S
C677 C676 1.415 . S
C678 C676 1.501 . S
C678 C679 1.384 . S
C678 C683 1.408 . S
C679 H669 0.930 . S
C679 C678 1.384 . S
C679 C680 1.389 . S
C680 C679 1.389 . S
C680 C681 1.405 . S
C681 H670 0.930 . S
C681 C680 1.405 . S
C681 C682 1.364 . S
C682 C681 1.364 . S
C682 C683 1.400 . S
C683 H671 0.931 . S
C683 C678 1.408 . S
C683 C682 1.400 . S
H684 C690 0.930 . S
H685 C693 0.931 . S
H686 C695 0.931 . S
H687 C697 0.930 . S
H688 C699 0.930 . S
H689 C701 0.931 . S
C690 H684 0.930 . S
C690 C691 1.380 . S
C690 C692 1.394 . S
C691 C690 1.380 . S
C691 C695 1.382 . S
C692 C690 1.394 . S
C692 C693 1.400 . S
C693 H685 0.931 . S
C693 C692 1.400 . S
C693 C694 1.375 . S
C694 C693 1.375 . S
C694 C695 1.415 . S
C694 C696 1.501 . S
C695 H686 0.931 . S
C695 C691 1.382 . S
C695 C694 1.415 . S
C696 C694 1.501 . S
C696 C697 1.384 . S
C696 C701 1.408 . S
C697 H687 0.930 . S
C697 C696 1.384 . S
C697 C698 1.389 . S
C698 C697 1.389 . S
C698 C699 1.405 . S
C699 H688 0.930 . S
C699 C698 1.405 . S
C699 C700 1.364 . S
C700 C699 1.364 . S
C700 C701 1.400 . S
C701 H689 0.931 . S
C701 C696 1.408 . S
C701 C700 1.400 . S
H702 C708 0.930 . S
H703 C711 0.931 . S
H704 C713 0.931 . S
H705 C715 0.930 . S
H706 C717 0.930 . S
H707 C719 0.931 . S
C708 H702 0.930 . S
C708 C709 1.380 . S
C708 C710 1.394 . S
C709 C708 1.380 . S
C709 C713 1.382 . S
C710 C708 1.394 . S
C710 C711 1.400 . S
C711 H703 0.931 . S
C711 C710 1.400 . S
C711 C712 1.375 . S
C712 C711 1.375 . S
C712 C713 1.415 . S
C712 C714 1.501 . S
C713 H704 0.931 . S
C713 C709 1.382 . S
C713 C712 1.415 . S
C714 C712 1.501 . S
C714 C715 1.384 . S
C714 C719 1.408 . S
C715 H705 0.930 . S
C715 C714 1.384 . S
C715 C716 1.389 . S
C716 C715 1.389 . S
C716 C717 1.405 . S
C717 H706 0.930 . S
C717 C716 1.405 . S
C717 C718 1.364 . S
C718 C717 1.364 . S
C718 C719 1.400 . S
C719 H707 0.931 . S
C719 C714 1.408 . S
C719 C718 1.400 . S
H720 C726 0.930 . S
H721 C729 0.931 . S
H722 C731 0.931 . S
H723 C733 0.930 . S
H724 C735 0.930 . S
H725 C737 0.931 . S
C726 H720 0.930 . S
C726 C727 1.380 . S
C726 C728 1.394 . S
C727 C726 1.380 . S
C727 C731 1.382 . S
C728 C726 1.394 . S
C728 C729 1.400 . S
C729 H721 0.931 . S
C729 C728 1.400 . S
C729 C730 1.375 . S
C730 C729 1.375 . S
C730 C731 1.415 . S
C730 C732 1.501 . S
C731 H722 0.931 . S
C731 C727 1.382 . S
C731 C730 1.415 . S
C732 C730 1.501 . S
C732 C733 1.384 . S
C732 C737 1.408 . S
C733 H723 0.930 . S
C733 C732 1.384 . S
C733 C734 1.389 . S
C734 C733 1.389 . S
C734 C735 1.405 . S
C735 H724 0.930 . S
C735 C734 1.405 . S
C735 C736 1.364 . S
C736 C735 1.364 . S
C736 C737 1.400 . S
C737 H725 0.931 . S
C737 C732 1.408 . S
C737 C736 1.400 . S
H738 C744 0.930 . S
H739 C747 0.931 . S
H740 C749 0.931 . S
H741 C751 0.930 . S
H742 C753 0.930 . S
H743 C755 0.931 . S
C744 H738 0.930 . S
C744 C745 1.380 . S
C744 C746 1.394 . S
C745 C744 1.380 . S
C745 C749 1.382 . S
C746 C744 1.394 . S
C746 C747 1.400 . S
C747 H739 0.931 . S
C747 C746 1.400 . S
C747 C748 1.375 . S
C748 C747 1.375 . S
C748 C749 1.415 . S
C748 C750 1.501 . S
C749 H740 0.931 . S
C749 C745 1.382 . S
C749 C748 1.415 . S
C750 C748 1.501 . S
C750 C751 1.384 . S
C750 C755 1.408 . S
C751 H741 0.930 . S
C751 C750 1.384 . S
C751 C752 1.389 . S
C752 C751 1.389 . S
C752 C753 1.405 . S
C753 H742 0.930 . S
C753 C752 1.405 . S
C753 C754 1.364 . S
C754 C753 1.364 . S
C754 C755 1.400 . S
C755 H743 0.931 . S
C755 C750 1.408 . S
C755 C754 1.400 . S
H756 C762 0.930 . S
H757 C765 0.931 . S
H758 C767 0.931 . S
H759 C769 0.930 . S
H760 C771 0.930 . S
H761 C773 0.931 . S
C762 H756 0.930 . S
C762 C763 1.380 . S
C762 C764 1.394 . S
C763 C762 1.380 . S
C763 C767 1.382 . S
C764 C762 1.394 . S
C764 C765 1.400 . S
C765 H757 0.931 . S
C765 C764 1.400 . S
C765 C766 1.375 . S
C766 C765 1.375 . S
C766 C767 1.415 . S
C766 C768 1.501 . S
C767 H758 0.931 . S
C767 C763 1.382 . S
C767 C766 1.415 . S
C768 C766 1.501 . S
C768 C769 1.384 . S
C768 C773 1.408 . S
C769 H759 0.930 . S
C769 C768 1.384 . S
C769 C770 1.389 . S
C770 C769 1.389 . S
C770 C771 1.405 . S
C771 H760 0.930 . S
C771 C770 1.405 . S
C771 C772 1.364 . S
C772 C771 1.364 . S
C772 C773 1.400 . S
C773 H761 0.931 . S
C773 C768 1.408 . S
C773 C772 1.400 . S
H774 C780 0.930 . S
H775 C783 0.931 . S
H776 C785 0.931 . S
H777 C787 0.930 . S
H778 C789 0.930 . S
H779 C791 0.931 . S
C780 H774 0.930 . S
C780 C781 1.380 . S
C780 C782 1.394 . S
C781 C780 1.380 . S
C781 C785 1.382 . S
C782 C780 1.394 . S
C782 C783 1.400 . S
C783 H775 0.931 . S
C783 C782 1.400 . S
C783 C784 1.375 . S
C784 C783 1.375 . S
C784 C785 1.415 . S
C784 C786 1.501 . S
C785 H776 0.931 . S
C785 C781 1.382 . S
C785 C784 1.415 . S
C786 C784 1.501 . S
C786 C787 1.384 . S
C786 C791 1.408 . S
C787 H777 0.930 . S
C787 C786 1.384 . S
C787 C788 1.389 . S
C788 C787 1.389 . S
C788 C789 1.405 . S
C789 H778 0.930 . S
C789 C788 1.405 . S
C789 C790 1.364 . S
C790 C789 1.364 . S
C790 C791 1.400 . S
C791 H779 0.931 . S
C791 C786 1.408 . S
C791 C790 1.400 . S
H792 C798 0.930 . S
H793 C801 0.931 . S
H794 C803 0.931 . S
H795 C805 0.930 . S
H796 C807 0.930 . S
H797 C809 0.931 . S
C798 H792 0.930 . S
C798 C799 1.380 . S
C798 C800 1.394 . S
C799 C798 1.380 . S
C799 C803 1.382 . S
C800 C798 1.394 . S
C800 C801 1.400 . S
C801 H793 0.931 . S
C801 C800 1.400 . S
C801 C802 1.375 . S
C802 C801 1.375 . S
C802 C803 1.415 . S
C802 C804 1.501 . S
C803 H794 0.931 . S
C803 C799 1.382 . S
C803 C802 1.415 . S
C804 C802 1.501 . S
C804 C805 1.384 . S
C804 C809 1.408 . S
C805 H795 0.930 . S
C805 C804 1.384 . S
C805 C806 1.389 . S
C806 C805 1.389 . S
C806 C807 1.405 . S
C807 H796 0.930 . S
C807 C806 1.405 . S
C807 C808 1.364 . S
C808 C807 1.364 . S
C808 C809 1.400 . S
C809 H797 0.931 . S
C809 C804 1.408 . S
C809 C808 1.400 . S
H810 C816 0.930 . S
H811 C819 0.931 . S
H812 C821 0.931 . S
H813 C823 0.930 . S
H814 C825 0.930 . S
H815 C827 0.934 1_655 S
C816 H810 0.930 . S
C816 C817 1.380 . S
C816 C818 1.394 1_655 S
C817 C816 1.380 . S
C817 C821 1.382 . S
C818 C816 1.394 1_455 S
C818 C819 1.400 . S
C819 H811 0.931 . S
C819 C818 1.400 . S
C819 C820 1.375 . S
C820 C819 1.375 . S
C820 C821 1.415 1_455 S
C820 C822 1.501 . S
C821 H812 0.931 . S
C821 C817 1.382 . S
C821 C820 1.415 1_655 S
C822 C820 1.501 . S
C822 C823 1.384 . S
C822 C827 1.408 . S
C823 H813 0.930 . S
C823 C822 1.384 . S
C823 C824 1.389 . S
C824 C823 1.389 . S
C824 C825 1.405 . S
C825 H814 0.930 . S
C825 C824 1.405 . S
C825 C826 1.360 . S
C826 C825 1.360 . S
C826 C827 1.412 . S
C827 H815 0.934 1_455 S
C827 C822 1.408 . S
C827 C826 1.412 . S
H828 C834 0.930 . S
H829 C837 0.931 . S
H830 C839 0.931 . S
H831 C841 0.930 . S
H832 C843 0.930 . S
H833 C845 0.931 . S
C834 H828 0.930 . S
C834 C835 1.380 . S
C834 C836 1.394 . S
C835 C834 1.380 . S
C835 C839 1.382 . S
C836 C834 1.394 . S
C836 C837 1.400 . S
C837 H829 0.931 . S
C837 C836 1.400 . S
C837 C838 1.375 . S
C838 C837 1.375 . S
C838 C839 1.415 . S
C838 C840 1.501 . S
C839 H830 0.931 . S
C839 C835 1.382 . S
C839 C838 1.415 . S
C840 C838 1.501 . S
C840 C841 1.384 . S
C840 C845 1.408 . S
C841 H831 0.930 . S
C841 C840 1.384 . S
C841 C842 1.389 . S
C842 C841 1.389 . S
C842 C843 1.405 . S
C843 H832 0.930 . S
C843 C842 1.405 . S
C843 C844 1.364 . S
C844 C843 1.364 . S
C844 C845 1.400 . S
C845 H833 0.931 . S
C845 C840 1.408 . S
C845 C844 1.400 . S
H846 C852 0.945 . S
H847 C855 0.931 . S
H848 C857 0.931 . S
H849 C859 0.930 . S
H850 C861 0.930 . S
H851 C863 0.931 1_545 S
C852 H846 0.945 . S
C852 C853 1.377 . S
C852 C854 1.383 1_545 S
C853 C852 1.377 . S
C853 C857 1.382 . S
C854 C852 1.383 1_565 S
C854 C855 1.400 . S
C855 H847 0.931 . S
C855 C854 1.400 . S
C855 C856 1.375 . S
C856 C855 1.375 . S
C856 C857 1.415 1_565 S
C856 C858 1.501 . S
C857 H848 0.931 . S
C857 C853 1.382 . S
C857 C856 1.415 1_545 S
C858 C856 1.501 . S
C858 C859 1.384 . S
C858 C863 1.408 . S
C859 H849 0.930 . S
C859 C858 1.384 . S
C859 C860 1.389 . S
C860 C859 1.389 . S
C860 C861 1.405 . S
C861 H850 0.930 . S
C861 C860 1.405 . S
C861 C862 1.373 . S
C862 C861 1.373 . S
C862 C863 1.387 . S
C863 H851 0.931 1_565 S
C863 C858 1.408 . S
C863 C862 1.387 . S
H864 C870 0.921 . S
H865 C873 0.931 . S
H866 C875 0.924 . S
H867 C877 0.930 . S
H868 C879 0.930 . S
H869 C881 0.931 . S
C870 H864 0.921 . S
C870 C871 1.383 . S
C870 C872 1.398 1_545 S
C871 C870 1.383 . S
C871 C875 1.401 1_545 S
C872 C870 1.398 1_565 S
C872 C873 1.400 . S
C873 H865 0.931 . S
C873 C872 1.400 . S
C873 C874 1.375 . S
C874 C873 1.375 . S
C874 C875 1.409 . S
C874 C876 1.501 . S
C875 H866 0.924 . S
C875 C871 1.401 1_565 S
C875 C874 1.409 . S
C876 C874 1.501 . S
C876 C877 1.384 . S
C876 C881 1.408 1_565 S
C877 H867 0.930 . S
C877 C876 1.384 . S
C877 C878 1.389 . S
C878 C877 1.389 . S
C878 C879 1.405 . S
C879 H868 0.930 . S
C879 C878 1.405 . S
C879 C880 1.364 1_565 S
C880 C879 1.364 1_545 S
C880 C881 1.400 . S
C881 H869 0.931 . S
C881 C876 1.408 1_545 S
C881 C880 1.400 . S
H882 C888 0.930 . S
H883 C891 0.931 . S
H884 C893 0.931 . S
H885 C895 0.930 . S
H886 C897 0.930 . S
H887 C899 0.931 . S
C888 H882 0.930 . S
C888 C889 1.382 . S
C888 C890 1.385 1_655 S
C889 C888 1.382 . S
C889 C893 1.378 1_655 S
C890 C888 1.385 1_455 S
C890 C891 1.418 . S
C891 H883 0.931 . S
C891 C890 1.418 . S
C891 C892 1.375 . S
C892 C891 1.375 . S
C892 C893 1.415 . S
C892 C894 1.501 . S
C893 H884 0.931 . S
C893 C889 1.378 1_455 S
C893 C892 1.415 . S
C894 C892 1.501 . S
C894 C895 1.384 . S
C894 C899 1.408 1_455 S
C895 H885 0.930 . S
C895 C894 1.384 . S
C895 C896 1.389 . S
C896 C895 1.389 . S
C896 C897 1.405 . S
C897 H886 0.930 . S
C897 C896 1.405 . S
C897 C898 1.364 1_455 S
C898 C897 1.364 1_655 S
C898 C899 1.400 . S
C899 H887 0.931 . S
C899 C894 1.408 1_655 S
C899 C898 1.400 . S
H900 C906 0.930 . S
H901 C909 0.931 . S
H902 C911 0.931 . S
H903 C913 0.930 . S
H904 C915 0.930 . S
H905 C917 0.931 . S
C906 H900 0.930 . S
C906 C907 1.380 . S
C906 C908 1.394 . S
C907 C906 1.380 . S
C907 C911 1.382 . S
C908 C906 1.394 . S
C908 C909 1.400 . S
C909 H901 0.931 . S
C909 C908 1.400 . S
C909 C910 1.375 . S
C910 C909 1.375 . S
C910 C911 1.415 . S
C910 C912 1.501 . S
C911 H902 0.931 . S
C911 C907 1.382 . S
C911 C910 1.415 . S
C912 C910 1.501 . S
C912 C913 1.384 . S
C912 C917 1.408 . S
C913 H903 0.930 . S
C913 C912 1.384 . S
C913 C914 1.389 . S
C914 C913 1.389 . S
C914 C915 1.405 . S
C915 H904 0.930 . S
C915 C914 1.405 . S
C915 C916 1.364 . S
C916 C915 1.364 . S
C916 C917 1.400 . S
C917 H905 0.931 . S
C917 C912 1.408 . S
C917 C916 1.400 . S
H918 C924 0.930 . S
H919 C927 0.931 . S
H920 C929 0.931 . S
H921 C931 0.930 . S
H922 C933 0.930 . S
H923 C935 0.931 . S
C924 H918 0.930 . S
C924 C925 1.380 . S
C924 C926 1.394 . S
C925 C924 1.380 . S
C925 C929 1.382 . S
C926 C924 1.394 . S
C926 C927 1.400 . S
C927 H919 0.931 . S
C927 C926 1.400 . S
C927 C928 1.375 . S
C928 C927 1.375 . S
C928 C929 1.415 . S
C928 C930 1.501 . S
C929 H920 0.931 . S
C929 C925 1.382 . S
C929 C928 1.415 . S
C930 C928 1.501 . S
C930 C931 1.384 . S
C930 C935 1.408 . S
C931 H921 0.930 . S
C931 C930 1.384 . S
C931 C932 1.389 . S
C932 C931 1.389 . S
C932 C933 1.405 . S
C933 H922 0.930 . S
C933 C932 1.405 . S
C933 C934 1.364 . S
C934 C933 1.364 . S
C934 C935 1.400 . S
C935 H923 0.931 . S
C935 C930 1.408 . S
C935 C934 1.400 . S
H936 C942 0.930 . S
H937 C945 0.931 . S
H938 C947 0.931 . S
H939 C949 0.930 . S
H940 C951 0.930 . S
H941 C953 0.931 . S
C942 H936 0.930 . S
C942 C943 1.380 . S
C942 C944 1.394 . S
C943 C942 1.380 . S
C943 C947 1.382 . S
C944 C942 1.394 . S
C944 C945 1.400 . S
C945 H937 0.931 . S
C945 C944 1.400 . S
C945 C946 1.375 . S
C946 C945 1.375 . S
C946 C947 1.415 . S
C946 C948 1.501 . S
C947 H938 0.931 . S
C947 C943 1.382 . S
C947 C946 1.415 . S
C948 C946 1.501 . S
C948 C949 1.384 . S
C948 C953 1.408 . S
C949 H939 0.930 . S
C949 C948 1.384 . S
C949 C950 1.389 . S
C950 C949 1.389 . S
C950 C951 1.405 . S
C951 H940 0.930 . S
C951 C950 1.405 . S
C951 C952 1.364 . S
C952 C951 1.364 . S
C952 C953 1.400 . S
C953 H941 0.931 . S
C953 C948 1.408 . S
C953 C952 1.400 . S
H954 C960 0.930 . S
H955 C963 0.931 . S
H956 C965 0.931 . S
H957 C967 0.930 . S
H958 C969 0.930 . S
H959 C971 0.931 . S
C960 H954 0.930 . S
C960 C961 1.380 . S
C960 C962 1.394 . S
C961 C960 1.380 . S
C961 C965 1.382 . S
C962 C960 1.394 . S
C962 C963 1.400 . S
C963 H955 0.931 . S
C963 C962 1.400 . S
C963 C964 1.375 . S
C964 C963 1.375 . S
C964 C965 1.415 . S
C964 C966 1.501 . S
C965 H956 0.931 . S
C965 C961 1.382 . S
C965 C964 1.415 . S
C966 C964 1.501 . S
C966 C967 1.384 . S
C966 C971 1.408 . S
C967 H957 0.930 . S
C967 C966 1.384 . S
C967 C968 1.389 . S
C968 C967 1.389 . S
C968 C969 1.405 . S
C969 H958 0.930 . S
C969 C968 1.405 . S
C969 C970 1.364 . S
C970 C969 1.364 . S
C970 C971 1.400 . S
C971 H959 0.931 . S
C971 C966 1.408 . S
C971 C970 1.400 . S
C4 C817 1.560 1_455 S
C38 C842 1.869 . S
C853 C74 1.608 . S
C76 C878 1.525 . S
C2 C896 1.712 . S
C40 C907 1.620 . S
C110 C889 1.654 1_455 S
C914 C148 1.548 . S
C871 C182 1.637 1_545 S
C184 C860 1.560 1_545 S
C824 C112 1.528 . S
C146 C835 1.676 . S
C220 C925 1.718 . S
C254 C950 1.947 . S
C961 C290 1.797 . S
C292 C662 1.669 . S
C218 C680 1.842 . S
C256 C691 1.653 . S
C326 C673 1.745 . S
C364 C698 1.601 . S
C655 C398 1.726 . S
C968 C400 1.615 . S
C932 C328 1.551 . S
C943 C362 1.740 . S
C436 C709 1.685 . S
C470 C734 1.920 . S
C506 C745 1.786 . S
C508 C770 1.705 . S
C788 C434 1.854 . S
C799 C472 1.679 . S
C781 C542 1.782 . S
C806 C580 1.610 . S
C614 C763 1.727 . S
C752 C616 1.581 . S
C544 C716 1.553 . S
C727 C578 1.712 . S
C664 C14 1.550 . S
C39 C682 1.418 . S
C692 C75 1.340 . S
C710 C86 1.262 . S
C736 C3 1.459 . S
C746 C50 1.460 . S
C111 C754 1.416 . S
C158 C718 1.464 . S
C183 C728 1.693 . S
C194 C674 1.680 . S
C700 C122 1.526 . S
C147 C656 1.396 . S
C772 C230 1.492 . S
C255 C790 1.467 . S
C291 C800 1.337 . S
C818 C302 1.109 . S
C219 C844 1.429 . S
C266 C854 1.305 . S
C327 C862 1.278 . S
C374 C826 1.278 . S
C836 C399 1.632 . S
C410 C782 1.613 . S
C338 C808 1.469 . S
C764 C363 1.433 . S
C880 C446 1.293 . S
C471 C898 1.376 . S
C507 C908 1.308 . S
C926 C518 1.221 . S
C952 C435 1.465 . S
C482 C962 1.472 . S
C543 C970 1.375 . S
C590 C934 1.462 . S
C944 C615 1.650 . S
C890 C626 1.367 1_455 S
C916 C554 1.464 . S
C579 C872 1.297 1_545 S
