# Generated by pormake.
# Topology pth, (4,4)-cn, num edge types: 1
# Building blocks:
#     Node 0, Type 0, BuildingBlock: UXUYUI_clean_sbu_0, # of connection points: 4
#     Node 1, Type 0, BuildingBlock: UXUYUI_clean_sbu_0, # of connection points: 4
#     Node 2, Type 0, BuildingBlock: UXUYUI_clean_sbu_0, # of connection points: 4
#     Node 3, Type 1, BuildingBlock: NAWXER_clean_linker_0, # of connection points: 4
#     Node 4, Type 1, BuildingBlock: NAWXER_clean_linker_0, # of connection points: 4
#     Node 5, Type 1, BuildingBlock: NAWXER_clean_linker_0, # of connection points: 4
#     Edge 6, Type (0, 1), BuildingBlock: XIVTED_clean_linker_0, # of connection points: 2
#     Edge 7, Type (0, 1), BuildingBlock: XIVTED_clean_linker_0, # of connection points: 2
#     Edge 8, Type (0, 1), BuildingBlock: XIVTED_clean_linker_0, # of connection points: 2
#     Edge 9, Type (0, 1), BuildingBlock: XIVTED_clean_linker_0, # of connection points: 2
#     Edge 10, Type (0, 1), BuildingBlock: XIVTED_clean_linker_0, # of connection points: 2
#     Edge 11, Type (0, 1), BuildingBlock: XIVTED_clean_linker_0, # of connection points: 2
#     Edge 12, Type (0, 1), BuildingBlock: XIVTED_clean_linker_0, # of connection points: 2
#     Edge 13, Type (0, 1), BuildingBlock: XIVTED_clean_linker_0, # of connection points: 2
#     Edge 14, Type (0, 1), BuildingBlock: XIVTED_clean_linker_0, # of connection points: 2
#     Edge 15, Type (0, 1), BuildingBlock: XIVTED_clean_linker_0, # of connection points: 2
#     Edge 16, Type (0, 1), BuildingBlock: XIVTED_clean_linker_0, # of connection points: 2
#     Edge 17, Type (0, 1), BuildingBlock: XIVTED_clean_linker_0, # of connection points: 2
# Relax obj value: 0.074
# Max RMSD: 0.209
# Mean RMSD: 0.112
data_MOF--net-pth--node1-UXUYUI_clean_sbu_0--node2-NAWXER_clean_linker_0--edge1-XIVTED_clean_linker_0
_symmetry_space_group_name_H-M    P1
_symmetry_Int_Tables_number       1
_symmetry_cell_setting            triclinic
loop_
_symmetry_equiv_pos_as_xyz
'x, y, z'
_cell_length_a     34.714069
_cell_length_b     34.704502
_cell_length_c     78.771964
_cell_angle_alpha  89.959609
_cell_angle_beta   90.125506
_cell_angle_gamma 119.94717
loop_
_atom_site_label
_atom_site_type_symbol
_atom_site_fract_x
_atom_site_fract_y
_atom_site_fract_z
_atom_type_partial_charge
Li0 Li 0.03261 0.02751 0.03863 0.0
Li1 Li 0.98101 0.02161 0.06077 0.0
Li2 Li 0.00343 0.96573 0.05789 0.0
Li3 Li 0.95395 0.97106 0.03713 0.0
C4 C 0.08368 0.06271 0.06525 0.0
N5 N 0.17013 0.13252 0.0671 0.0
C6 C 0.09224 0.10495 0.07019 0.0
C7 C 0.11911 0.05595 0.06131 0.0
C8 C 0.13618 0.13981 0.07105 0.0
C9 C 0.16257 0.09168 0.06229 0.0
C10 C 0.95853 0.04331 0.02387 0.0
C11 C 0.89085 0.03599 0.01223 0.0
N12 N 0.91226 0.05375 -0.00264 0.0
C13 C 0.97988 0.06157 0.00848 0.0
C14 C 0.91368 0.03053 0.02579 0.0
C15 C 0.9559 0.06657 -0.00477 0.0
C16 C 0.1009 0.05431 0.01396 0.0
N17 N 0.08168 0.06862 0.02547 0.0
C18 C 0.1289 0.14408 0.01709 0.0
C19 C 0.0948 0.11244 0.02716 0.0
C20 C 0.14904 0.13035 0.00493 0.0
C21 C 0.13483 0.08484 0.00346 0.0
H22 H 0.08925 0.01917 0.0127 0.0
H23 H 0.07797 0.12265 0.03608 0.0
C24 C 0.98711 0.06064 0.09254 0.0
N25 N 0.9688 0.05483 0.07682 0.0
C26 C 0.98317 0.08864 0.10424 0.0
C27 C 0.93968 0.10233 0.08363 0.0
C28 C 0.9449 0.07446 0.07227 0.0
C29 C 0.95987 0.11063 0.09974 0.0
H30 H 0.00619 0.04475 0.09574 0.0
H31 H 0.9308 0.06937 0.05969 0.0
C32 C 0.01264 0.92899 0.03032 0.0
N33 N 0.02419 0.85616 0.02692 0.0
C34 C 0.97665 0.88753 0.02595 0.0
C35 C 0.05456 0.9335 0.03283 0.0
C36 C 0.98316 0.8511 0.02431 0.0
C37 C 0.0597 0.89625 0.0311 0.0
C38 C 0.91769 0.95183 0.07517 0.0
C39 C 0.9312 0.9457 0.09118 0.0
C40 C 0.87972 0.95581 0.07362 0.0
C41 C 0.90647 0.94383 0.10544 0.0
C42 C 0.85593 0.95382 0.0882 0.0
N43 N 0.8697 0.94793 0.10367 0.0
C44 C 0.04865 0.93738 0.0805 0.0
C45 C 0.9796 0.88101 0.0696 0.0
C46 C 0.05227 0.90643 0.09073 0.0
N47 N 0.01262 0.92416 0.07028 0.0
C48 C 0.98196 0.84897 0.07951 0.0
C49 C 0.01838 0.86162 0.09043 0.0
H50 H 0.07395 0.97207 0.08106 0.0
H51 H 0.9508 0.87174 0.06167 0.0
C52 C 0.91373 0.94387 0.00503 0.0
N53 N 0.9064 0.93689 0.02198 0.0
C54 C 0.88072 0.91703 0.99345 0.0
C55 C 0.83368 0.87542 0.01698 0.0
C56 C 0.86733 0.90368 0.02812 0.0
C57 C 0.84022 0.88162 -0.00066 0.0
H58 H 0.94559 0.9698 0.0005 0.0
H59 H 0.86289 0.89818 0.04166 0.0
O60 O 0.04086 0.0283 0.06405 0.0
O61 O 0.98135 0.03786 0.03696 0.0
O62 O 0.00678 0.96488 0.03232 0.0
O63 O 0.94213 0.95501 0.06111 0.0
H64 H 0.06527 0.11099 0.07309 0.0
H65 H 0.1131 0.02358 0.05737 0.0
H66 H 0.14327 0.17271 0.07477 0.0
H67 H 0.19028 0.08696 0.05919 0.0
H68 H 0.85606 0.02594 0.01351 0.0
H69 H 0.01447 0.07147 0.00671 0.0
H70 H 0.89646 0.0158 0.03753 0.0
H71 H 0.97197 0.08052 0.98324 0.0
H72 H 0.13835 0.17877 0.0184 0.0
H73 H 0.14965 0.07301 0.99424 0.0
H74 H -0.00019 0.09435 0.11638 0.0
H75 H 0.92068 0.11781 0.0797 0.0
H76 H 0.94394 0.88336 0.024 0.0
H77 H 0.08276 0.96533 0.03621 0.0
H78 H 0.95557 0.81876 0.02102 0.0
H79 H 0.0919 0.8992 0.03311 0.0
H80 H 0.96073 0.94295 0.09261 0.0
H81 H 0.86898 0.96081 0.06132 0.0
H82 H 0.91663 0.9393 0.11793 0.0
H83 H 0.82659 0.95707 0.08721 0.0
H84 H 0.08098 0.91752 0.09893 0.0
H85 H 0.95472 0.81498 0.07911 0.0
H86 H 0.88726 0.92372 0.98003 0.0
H87 H 0.80359 0.84809 0.02219 0.0
Li88 Li 0.98145 0.95583 0.3685 0.0
Li89 Li 0.03339 0.00302 0.3905 0.0
Li90 Li 0.95426 0.98551 0.39127 0.0
Li91 Li 0.00696 0.03745 0.37063 0.0
C92 C 0.95277 0.90131 0.39869 0.0
N93 N 0.90076 0.81454 0.40962 0.0
C94 C 0.97251 0.87866 0.406 0.0
C95 C 0.90651 0.87993 0.39713 0.0
C96 C 0.94567 0.83478 0.41139 0.0
C97 C 0.88081 0.83605 0.40268 0.0
C98 C 0.08358 0.0138 0.36351 0.0
C99 C 0.16334 0.06057 0.36403 0.0
N100 N 0.16767 0.02475 0.36012 0.0
C101 C 0.08879 0.97751 0.35936 0.0
C102 C 0.1211 0.05574 0.36574 0.0
C103 C 0.1316 0.98371 0.35775 0.0
C104 C 0.97893 0.92369 0.33619 0.0
N105 N 0.9693 0.90996 0.35258 0.0
C106 C 0.95248 0.83661 0.34487 0.0
C107 C 0.95577 0.86724 0.35708 0.0
C108 C 0.96376 0.85028 0.32794 0.0
C109 C 0.97649 0.89429 0.3236 0.0
H110 H 0.9899 0.95797 0.33303 0.0
H111 H 0.94882 0.85704 0.37015 0.0
C112 C 0.10107 0.04251 0.41568 0.0
N113 N 0.08117 0.00907 0.40415 0.0
C114 C 0.1336 0.04417 0.42663 0.0
C115 C 0.12486 0.97741 0.41341 0.0
C116 C 0.09257 0.97704 0.40276 0.0
C117 C 0.14538 0.01091 0.42573 0.0
H118 H 0.09084 0.06715 0.4167 0.0
H119 H 0.07586 0.9506 0.39359 0.0
C120 C 0.90444 0.96853 0.35985 0.0
N121 N 0.81983 0.93202 0.3463 0.0
C122 C 0.88853 -0.00391 0.35405 0.0
C123 C 0.8776 0.92241 0.35843 0.0
C124 C 0.84558 0.97701 0.34734 0.0
C125 C 0.83486 0.90459 0.35163 0.0
C126 C 0.02187 0.0862 0.3987 0.0
C127 C 0.9913 0.09735 0.40524 0.0
C128 C 0.06512 0.1198 0.395 0.0
C129 C 0.00436 0.1421 0.4077 0.0
C130 C 0.07689 0.16415 0.39762 0.0
N131 N 0.04651 0.1743 0.40385 0.0
C132 C 0.90518 0.95883 0.42159 0.0
C133 C 0.87713 0.98823 0.40093 0.0
C134 C 0.87277 0.95425 0.43317 0.0
N135 N 0.90667 0.9755 0.40583 0.0
C136 C 0.84421 0.98426 0.41209 0.0
C137 C 0.84193 0.96739 0.42851 0.0
H138 H 0.92966 0.94977 0.42525 0.0
H139 H 0.88006 0.00293 0.3886 0.0
C140 C 0.04957 0.10197 0.34475 0.0
N141 N 0.01947 0.08837 0.35758 0.0
C142 C 0.05564 0.13692 0.33417 0.0
C143 C 0.00042 0.1437 0.3505 0.0
C144 C -0.00491 0.10841 0.36061 0.0
C145 C 0.03059 0.15799 0.33694 0.0
H146 H 0.06803 0.08496 0.34248 0.0
H147 H 0.97051 0.09611 0.3706 0.0
O148 O 0.97867 0.94437 0.39339 0.0
O149 O 0.04197 0.00832 0.36532 0.0
O150 O 0.94665 0.98678 0.36627 0.0
O151 O 0.00953 0.04261 0.39602 0.0
H152 H 0.00818 0.89472 0.40749 0.0
H153 H 0.8905 0.89709 0.39185 0.0
H154 H 0.96055 0.81682 0.417 0.0
H155 H 0.84498 0.81915 0.40153 0.0
H156 H 0.19268 0.0928 0.36581 0.0
H157 H 0.06015 0.94479 0.35761 0.0
H158 H 0.11765 0.08424 0.36878 0.0
H159 H 0.13613 0.95587 0.35465 0.0
H160 H 0.94305 0.80311 0.34877 0.0
H161 H 0.98513 0.90602 0.31066 0.0
H162 H 0.14819 0.07029 0.43608 0.0
H163 H 0.13334 0.95146 0.4121 0.0
H164 H 0.90898 0.03185 0.35481 0.0
H165 H 0.88968 0.90051 0.36236 0.0
H166 H 0.83275 -0.00204 0.34294 0.0
H167 H 0.81371 0.86894 0.35053 0.0
H168 H 0.95778 0.07177 0.40829 0.0
H169 H 0.08925 0.11171 0.39006 0.0
H170 H 0.98098 0.15123 0.41266 0.0
H171 H 0.11017 0.19051 0.3947 0.0
H172 H 0.87207 0.94086 0.44566 0.0
H173 H 0.82179 0.99575 0.40809 0.0
H174 H 0.0793 0.14706 0.32385 0.0
H175 H 0.97987 0.15848 0.35287 0.0
Li176 Li 0.02598 0.9841 0.70481 0.0
Li177 Li 0.02514 0.03455 0.72642 0.0
Li178 Li 0.96608 0.95407 0.72644 0.0
Li179 Li 0.96653 0.00549 0.7054 0.0
C180 C 0.05071 0.95834 0.73635 0.0
N181 N 0.08971 0.91213 0.74954 0.0
C182 C 0.09097 0.98088 0.74519 0.0
C183 C 0.03006 0.91222 0.73441 0.0
C184 C 0.11023 0.95695 0.7517 0.0
C185 C 0.05034 0.88948 0.74113 0.0
C186 C 0.06564 0.08576 0.6992 0.0
C187 C 0.09453 0.165 0.69869 0.0
N188 N 0.13569 0.17143 0.69521 0.0
C189 C 0.10814 0.09312 0.69545 0.0
C190 C 0.05865 0.12193 0.70068 0.0
C191 C 0.14315 0.13669 0.69354 0.0
C192 C 0.05861 0.97802 0.67327 0.0
N193 N 0.06414 0.97482 0.69019 0.0
C194 C 0.12852 0.96842 0.68512 0.0
C195 C 0.09799 0.96967 0.69625 0.0
C196 C 0.12466 0.97321 0.66758 0.0
C197 C 0.08862 0.9773 0.66167 0.0
H198 H 0.03174 0.98275 0.66885 0.0
H199 H 0.10232 0.96791 0.70971 0.0
C200 C 0.04847 0.09936 0.75257 0.0
N201 N 0.0641 0.08263 0.74054 0.0
C202 C 0.07784 0.13146 0.76401 0.0
C203 C 0.13864 0.1289 0.75019 0.0
C204 C 0.10818 0.09688 0.73911 0.0
C205 C 0.12355 0.14607 0.76307 0.0
H206 H 0.01313 0.08677 0.75365 0.0
H207 H 0.11957 0.08229 0.72967 0.0
C208 C 0.93942 0.90335 0.69563 0.0
N209 N 0.89666 0.817 0.68355 0.0
C210 C 0.89549 0.8837 0.68988 0.0
C211 C 0.96189 0.87937 0.69483 0.0
C212 C 0.87434 0.83992 0.68394 0.0
C213 C 0.93964 0.83569 0.68879 0.0
C214 C 0.92933 0.02022 0.73247 0.0
C215 C 0.88643 0.98944 0.73786 0.0
C216 C 0.94008 0.06396 0.72902 0.0
C217 C 0.8547 0.00278 0.73941 0.0
C218 C 0.90743 0.07601 0.73071 0.0
N219 N 0.86575 0.04541 0.7358 0.0
C220 C 0.94252 0.90091 0.75604 0.0
C221 C 0.88529 0.87811 0.73549 0.0
C222 C 0.91374 0.86756 0.76714 0.0
N223 N 0.92795 0.90536 0.74053 0.0
C224 C 0.8553 0.84454 0.7462 0.0
C225 C 0.86927 0.83908 0.76234 0.0
H226 H 0.97625 0.92386 0.75996 0.0
H227 H 0.87401 0.88361 0.72343 0.0
C228 C 0.94315 0.04632 0.67898 0.0
N229 N 0.92751 0.01526 0.69151 0.0
C230 C 0.91356 0.04967 0.66782 0.0
C231 C 0.85257 0.98972 0.68297 0.0
C232 C 0.88324 0.98743 0.69374 0.0
C233 C 0.86757 0.02057 0.66958 0.0
H234 H 0.9786 0.06753 0.67733 0.0
H235 H 0.87178 0.96261 0.70364 0.0
O236 O 0.0315 0.98138 0.72987 0.0
O237 O 0.03098 0.04334 0.70122 0.0
O238 O 0.96077 0.94642 0.70129 0.0
O239 O 0.96068 0.00763 0.73066 0.0
H240 H 0.10727 0.01646 0.74699 0.0
H241 H -0.00165 0.89402 0.72806 0.0
H242 H 0.14148 0.97402 0.7585 0.0
H243 H 0.03466 0.85378 0.73972 0.0
H244 H 0.08963 0.19331 0.69987 0.0
H245 H 0.1142 0.06557 0.69422 0.0
H246 H 0.02589 0.11683 0.70329 0.0
H247 H 0.17627 0.14288 0.69077 0.0
H248 H 0.15531 0.96449 0.69026 0.0
H249 H 0.08459 0.98169 0.6483 0.0
H250 H 0.0647 0.1434 0.77386 0.0
H251 H 0.1736 0.1396 0.74883 0.0
H252 H 0.87774 0.90191 0.6901 0.0
H253 H -0.00372 0.89433 0.69868 0.0
H254 H 0.84023 0.82422 0.67961 0.0
H255 H 0.95662 0.81672 0.6882 0.0
H256 H 0.87764 0.95555 0.74073 0.0
H257 H 0.97325 0.0883 0.72506 0.0
H258 H 0.82129 0.97922 0.74346 0.0
H259 H 0.91523 0.1097 0.72798 0.0
H260 H 0.92611 0.86449 0.7794 0.0
H261 H 0.82111 0.82426 0.74212 0.0
H262 H 0.92663 0.07361 0.65757 0.0
H263 H 0.81746 0.96709 0.68499 0.0
C264 C 0.97675 0.35753 0.24573 0.0
C265 C 0.01275 0.37361 0.25712 0.0
C266 C 0.97134 0.38678 0.23512 0.0
C267 C 0.00239 0.43252 0.23544 0.0
C268 C 0.04318 0.41949 0.25768 0.0
C269 C 0.03797 0.44863 0.24696 0.0
C270 C -0.00243 0.46427 0.22434 0.0
C271 C 0.0122 0.36939 0.189 0.0
C272 C 0.97681 0.34784 0.17743 0.0
C273 C 0.01676 0.40527 0.19865 0.0
C274 C 0.98542 0.41947 0.19716 0.0
C275 C 0.94568 0.36227 0.17594 0.0
C276 C 0.95002 0.39776 0.18567 0.0
C277 C 0.99012 0.45836 0.20663 0.0
C278 C 0.02867 0.63934 0.18446 0.0
C279 C -0.00165 0.62789 0.17094 0.0
C280 C 0.02579 0.60685 0.19568 0.0
C281 C 0.99229 0.56227 0.19372 0.0
C282 C 0.96486 0.58319 0.16901 0.0
C283 C 0.96205 0.55068 0.18023 0.0
C284 C 0.99082 0.52732 0.20493 0.0
C285 C 0.95319 0.60665 0.23869 0.0
C286 C 0.98483 0.63157 0.2512 0.0
C287 C 0.95711 0.57478 0.22925 0.0
C288 C 0.99274 0.56722 0.23213 0.0
C289 C 0.02056 0.62407 0.25403 0.0
C290 C 0.02422 0.59182 0.24468 0.0
C291 C -0.00437 0.53193 0.22272 0.0
H292 H 0.95231 0.32243 0.24526 0.0
H293 H 0.94276 0.37369 0.22675 0.0
H294 H 0.07136 0.43282 0.26626 0.0
H295 H 0.0621 0.48383 0.24755 0.0
H296 H 0.03704 0.35937 0.1902 0.0
H297 H 0.04512 0.42233 0.20704 0.0
H298 H 0.91789 0.34606 0.16723 0.0
H299 H 0.92561 0.40832 0.18423 0.0
H300 H 0.05543 0.67324 0.18611 0.0
H301 H 0.05049 0.61647 0.20563 0.0
H302 H 0.94068 0.57331 0.15884 0.0
H303 H 0.93618 0.51644 0.17839 0.0
H304 H 0.92541 0.61184 0.23621 0.0
H305 H 0.93184 0.55548 0.21988 0.0
H306 H 0.04512 0.64245 0.26374 0.0
H307 H 0.05167 0.58614 0.24723 0.0
N308 N -0.0003 0.50072 0.23171 0.0
N309 N 0.98741 0.49034 0.19762 0.0
C310 C 0.6392 0.01831 0.51897 0.0
C311 C 0.62369 0.98165 0.50792 0.0
C312 C 0.60954 0.0238 0.52928 0.0
C313 C 0.56393 0.99248 0.52884 0.0
C314 C 0.57799 0.9504 0.50757 0.0
C315 C 0.54842 0.95593 0.51784 0.0
C316 C 0.53162 -0.00161 0.53906 0.0
C317 C 0.61783 0.97746 0.57645 0.0
C318 C 0.64049 0.01261 0.58804 0.0
C319 C 0.5841 0.97555 0.56615 0.0
C320 C 0.57284 0.00914 0.56702 0.0
C321 C 0.6289 0.04602 0.58894 0.0
C322 C 0.59529 0.04417 0.57859 0.0
C323 C 0.53606 0.00682 0.55671 0.0
C324 C 0.35463 0.97005 0.57591 0.0
C325 C 0.36471 0.00274 0.58839 0.0
C326 C 0.38792 0.97211 0.56539 0.0
C327 C 0.43196 0.00698 0.56707 0.0
C328 C 0.40888 0.03778 0.58995 0.0
C329 C 0.44222 0.03964 0.57948 0.0
C330 C 0.46773 0.00761 0.55671 0.0
C331 C 0.38611 0.03625 0.52006 0.0
C332 C 0.36499 0.00425 0.50723 0.0
C333 C 0.41787 0.03492 0.53057 0.0
C334 C 0.42886 0.00132 0.52857 0.0
C335 C 0.37613 0.97072 0.50525 0.0
C336 C 0.40793 0.96944 0.51575 0.0
C337 C 0.46428 0.00103 0.53897 0.0
H338 H 0.6741 0.04338 0.51933 0.0
H339 H 0.62213 0.05288 0.53734 0.0
H340 H 0.56501 0.92153 0.49937 0.0
H341 H 0.51333 0.93147 0.51726 0.0
H342 H 0.62607 0.95131 0.57535 0.0
H343 H 0.56643 0.94746 0.55769 0.0
H344 H 0.64507 0.07311 0.59793 0.0
H345 H 0.58671 0.07012 0.57965 0.0
H346 H 0.32125 0.94209 0.57458 0.0
H347 H 0.37941 0.94577 0.55624 0.0
H348 H 0.41776 0.06383 0.59926 0.0
H349 H 0.47606 0.06666 0.58105 0.0
H350 H 0.37811 0.06236 0.52196 0.0
H351 H 0.43444 0.06068 0.54005 0.0
H352 H 0.361 0.946 0.49531 0.0
H353 H 0.4163 0.94357 0.51383 0.0
N354 N 0.49602 -0.00396 0.53088 0.0
N355 N 0.50381 0.01093 0.56486 0.0
C356 C 0.37255 0.35198 0.85693 0.0
C357 C 0.3511 0.3637 0.84448 0.0
C358 C 0.40686 0.38474 0.86676 0.0
C359 C 0.41988 0.42975 0.86446 0.0
C360 C 0.3647 0.40888 0.84211 0.0
C361 C 0.39883 0.44152 0.85195 0.0
C362 C 0.45663 0.46522 0.87439 0.0
C363 C 0.34991 0.37932 0.91205 0.0
C364 C 0.3651 0.3622 0.92498 0.0
C365 C 0.38016 0.41309 0.90138 0.0
C366 C 0.42603 0.42953 0.90322 0.0
C367 C 0.41102 0.3793 0.92697 0.0
C368 C 0.44114 0.41265 0.91621 0.0
C369 C 0.45903 0.46551 0.89229 0.0
C370 C 0.60489 0.65351 0.90623 0.0
C371 C 0.62039 0.64582 0.92161 0.0
C372 C 0.57448 0.61781 0.89631 0.0
C373 C 0.56024 0.57378 0.90131 0.0
C374 C 0.6055 0.60193 0.92681 0.0
C375 C 0.57582 0.56626 0.91673 0.0
C376 C 0.5266 0.53536 0.89135 0.0
C377 C 0.64134 0.60747 0.85566 0.0
C378 C 0.63186 0.62315 0.84067 0.0
C379 C 0.607 0.57856 0.86639 0.0
C380 C 0.56259 0.56561 0.86254 0.0
C381 C 0.5874 0.60962 0.8367 0.0
C382 C 0.55311 0.58107 0.84752 0.0
C383 C 0.52569 0.53356 0.87341 0.0
H384 H 0.36278 0.31748 0.85913 0.0
H385 H 0.42338 0.37494 0.87605 0.0
H386 H 0.34959 0.41917 0.8324 0.0
H387 H 0.40879 0.47611 0.84981 0.0
H388 H 0.31472 0.36726 0.91043 0.0
H389 H 0.36771 0.42658 0.89183 0.0
H390 H 0.42366 0.36654 0.93674 0.0
H391 H 0.47638 0.42507 0.91796 0.0
H392 H 0.61543 0.68713 0.90211 0.0
H393 H 0.56157 0.62475 0.8849 0.0
H394 H 0.61713 0.59524 0.93862 0.0
H395 H 0.56497 0.5327 0.92102 0.0
H396 H 0.67523 0.61673 0.85888 0.0
H397 H 0.61516 0.56583 0.87755 0.0
H398 H 0.57914 0.62142 0.82529 0.0
H399 H 0.51912 0.57115 0.84417 0.0
N400 N 0.49023 0.49907 0.86568 0.0
N401 N 0.4937 0.50077 0.90003 0.0
H402 H 0.96442 0.1894 0.09122 0.0
H403 H 0.98558 0.27617 0.18642 0.0
H404 H 0.95459 0.10902 0.1347 0.0
H405 H 0.95979 0.33712 0.14343 0.0
H406 H 0.97934 0.21675 0.16773 0.0
H407 H 0.96654 0.24559 0.11024 0.0
C408 C 0.96208 0.18317 0.10475 0.0
C409 C 0.95911 0.14412 0.11131 0.0
C410 C 0.97487 0.24306 0.16243 0.0
C411 C 0.96276 0.20928 0.13326 0.0
C412 C 0.97871 0.27705 0.17305 0.0
C413 C 0.97308 0.31149 0.16645 0.0
C414 C 0.96591 0.24393 0.14508 0.0
C415 C 0.96385 0.31092 0.14907 0.0
C416 C 0.96366 0.21554 0.11563 0.0
C417 C 0.95747 0.13877 0.12904 0.0
N418 N 0.96075 0.2778 0.13899 0.0
N419 N 0.95952 0.17107 0.1394 0.0
H420 H 0.85393 0.98833 0.4624 0.0
H421 H 0.61041 0.95491 0.47468 0.0
H422 H 0.7546 0.94256 0.4228 0.0
H423 H 0.70784 -0.00287 0.51491 0.0
H424 H 0.66202 0.94763 0.45583 0.0
H425 H 0.80007 0.98881 0.48217 0.0
C426 C 0.82064 0.97789 0.4579 0.0
C427 C 0.80882 0.96549 0.44088 0.0
C428 C 0.67212 0.95836 0.46879 0.0
C429 C 0.74717 0.96664 0.46341 0.0
C430 C 0.64254 0.96229 0.47961 0.0
C431 C 0.65476 0.97662 0.49643 0.0
C432 C 0.71439 0.96894 0.47479 0.0
C433 C 0.6972 0.98651 0.50199 0.0
C434 C 0.78999 0.97848 0.46917 0.0
C435 C 0.76539 0.95299 0.43573 0.0
N436 N 0.7255 0.98253 0.49118 0.0
N437 N 0.73622 0.95401 0.44692 0.0
H438 H 0.86365 0.84675 0.79683 0.0
H439 H 0.63462 0.6184 0.80607 0.0
H440 H 0.80084 0.75485 0.75533 0.0
H441 H 0.71165 0.69605 0.84898 0.0
H442 H 0.69411 0.66929 0.78714 0.0
H443 H 0.80792 0.79272 0.81609 0.0
C444 C 0.83853 0.81502 0.79177 0.0
C445 C 0.83701 0.80547 0.77437 0.0
C446 C 0.69811 0.67511 0.8007 0.0
C447 C 0.7724 0.74376 0.79638 0.0
C448 C 0.66405 0.64626 0.81149 0.0
C449 C 0.66816 0.65316 0.82911 0.0
C450 C 0.73643 0.71141 0.80755 0.0
C451 C 0.70728 0.68938 0.83548 0.0
C452 C 0.8065 0.78428 0.80279 0.0
C453 C 0.80298 0.76405 0.76856 0.0
N454 N 0.7398 0.71733 0.8247 0.0
N455 N 0.77192 0.73486 0.77952 0.0
H456 H 0.04249 0.87234 0.12396 0.0
H457 H 0.98717 0.62081 0.13636 0.0
H458 H -0.00378 0.77552 0.08351 0.0
H459 H 0.0189 0.71369 0.17766 0.0
H460 H -0.00572 0.6781 0.11652 0.0
H461 H 0.03957 0.81614 0.14342 0.0
C462 C 0.03222 0.83939 0.11912 0.0
C463 C 0.01953 0.8286 0.10208 0.0
C464 C -0.00031 0.68595 0.12993 0.0
C465 C 0.01547 0.76386 0.12436 0.0
C466 C -0.00467 0.65314 0.14129 0.0
C467 C 0.00229 0.66234 0.15874 0.0
C468 C 0.01121 0.72838 0.13603 0.0
C469 C 0.01372 0.70519 0.16431 0.0
C470 C 0.03019 0.8072 0.13028 0.0
C471 C 0.0058 0.78513 0.09659 0.0
N472 N 0.01778 0.73657 0.153 0.0
N473 N 0.00408 0.75435 0.1077 0.0
H474 H 0.1401 0.93856 0.44183 0.0
H475 H 0.36933 0.07791 0.49245 0.0
H476 H 0.22341 0.081 0.43772 0.0
H477 H 0.28603 0.93531 0.49568 0.0
H478 H 0.31561 0.08024 0.47298 0.0
H479 H 0.19299 0.93714 0.46185 0.0
C480 C 0.16972 0.96955 0.44504 0.0
C481 C 0.17746 0.00995 0.43797 0.0
C482 C 0.30905 0.04845 0.47797 0.0
C483 C 0.23799 0.00862 0.46115 0.0
C484 C 0.33957 0.04711 0.48917 0.0
C485 C 0.33219 0.00632 0.4957 0.0
C486 C 0.27081 0.00871 0.47326 0.0
C487 C 0.29338 0.96742 0.49079 0.0
C488 C 0.19978 0.96874 0.45658 0.0
C489 C 0.21594 0.04915 0.44293 0.0
N490 N 0.26419 0.96959 0.47987 0.0
N491 N 0.24483 0.0475 0.45419 0.0
H492 H 0.12571 0.21965 0.77715 0.0
H493 H 0.34771 0.28981 0.83041 0.0
H494 H 0.19338 0.14375 0.77823 0.0
H495 H 0.27375 0.35925 0.83359 0.0
H496 H 0.29079 0.23552 0.81149 0.0
H497 H 0.17907 0.27101 0.79795 0.0
C498 C 0.15162 0.21364 0.78181 0.0
C499 C 0.15524 0.1775 0.77581 0.0
C500 C 0.28689 0.26253 0.81637 0.0
C501 C 0.21659 0.2363 0.79952 0.0
C502 C 0.31927 0.29341 0.82728 0.0
C503 C 0.31563 0.32927 0.83359 0.0
C504 C 0.25057 0.26752 0.81165 0.0
C505 C 0.27833 0.33256 0.82883 0.0
C506 C 0.18217 0.24307 0.79364 0.0
C507 C 0.18978 0.17163 0.7822 0.0
N508 N 0.24734 0.30219 0.81811 0.0
N509 N 0.21911 0.20075 0.79365 0.0
H510 H 0.86802 0.09244 0.65453 0.0
H511 H 0.63975 0.94268 0.60452 0.0
H512 H 0.79397 0.94895 0.6561 0.0
H513 H 0.71972 0.08485 0.59796 0.0
H514 H 0.69586 0.94495 0.62377 0.0
H515 H 0.81402 0.09107 0.63412 0.0
C516 C 0.84055 0.06067 0.65054 0.0
C517 C 0.8354 0.02077 0.65716 0.0
C518 C 0.70127 0.97568 0.61809 0.0
C519 C 0.77334 0.01898 0.63392 0.0
C520 C 0.66932 0.97437 0.60699 0.0
C521 C 0.675 0.01362 0.59954 0.0
C522 C 0.73926 0.01657 0.62189 0.0
C523 C 0.71364 0.05382 0.60355 0.0
C524 C 0.80965 0.05992 0.63895 0.0
C525 C 0.79888 0.9806 0.65164 0.0
N526 N 0.74427 0.05427 0.61447 0.0
N527 N 0.7693 0.98076 0.6404 0.0
H528 H 0.7489 0.83701 0.00253 0.0
H529 H 0.69924 0.71777 0.91228 0.0
H530 H 0.85331 0.85345 0.96833 0.0
H531 H 0.61236 0.65907 0.95523 0.0
H532 H 0.7521 0.77841 0.93068 0.0
H533 H 0.69422 0.7814 0.98323 0.0
C534 C 0.76049 0.82908 0.99102 0.0
C535 C 0.80608 0.85001 0.98719 0.0
C536 C 0.72137 0.75229 0.93602 0.0
C537 C 0.74334 0.78722 0.96486 0.0
C538 C 0.69125 0.71794 0.92556 0.0
C539 C 0.65171 0.68344 0.93234 0.0
C540 C 0.71136 0.75245 0.95328 0.0
C541 C 0.64279 0.68493 0.94961 0.0
C542 C 0.72916 0.79749 0.97998 0.0
C543 C 0.81868 0.83896 0.97179 0.0
N544 N 0.67237 0.719 0.95951 0.0
N545 N 0.78751 0.80838 0.96121 0.0
H546 H 0.02846 0.86805 0.30451 0.0
H547 H 0.90978 0.62133 0.2666 0.0
H548 H 0.90219 0.76256 0.3225 0.0
H549 H 0.04873 0.71654 0.2593 0.0
H550 H 0.90272 0.67561 0.28418 0.0
H551 H 0.03241 0.81584 0.28476 0.0
C552 C 0.0013 0.834 0.30415 0.0
C553 C 0.96495 0.81956 0.31517 0.0
C554 C 0.93472 0.68464 0.27871 0.0
C555 C 0.96948 0.75961 0.29272 0.0
C556 C 0.93871 0.65381 0.26861 0.0
C557 C 0.97994 0.6645 0.26154 0.0
C558 C 0.97213 0.7266 0.28161 0.0
C559 C 0.01647 0.70685 0.26468 0.0
C560 C 0.00376 0.80416 0.29298 0.0
C561 C 0.93101 0.77493 0.31434 0.0
N562 N 0.0117 0.73641 0.27446 0.0
N563 N 0.93409 0.7465 0.3033 0.0
H564 H 0.11386 0.93947 0.63518 0.0
H565 H 0.37194 0.02218 0.62241 0.0
H566 H 0.21473 0.0146 0.67273 0.0
H567 H 0.27712 0.97508 0.58115 0.0
H568 H 0.31362 0.01505 0.64153 0.0
H569 H 0.17208 0.94727 0.61569 0.0
C570 C 0.14818 0.95768 0.63934 0.0
C571 C 0.15928 0.97627 0.65568 0.0
C572 C 0.30559 0.00639 0.62828 0.0
C573 C 0.22601 0.98487 0.63348 0.0
C574 C 0.33899 0.01075 0.6173 0.0
C575 C 0.32959 -0.00062 0.60008 0.0
C576 C 0.26226 0.99023 0.62207 0.0
C577 C 0.28586 0.98372 0.59435 0.0
C578 C 0.18138 0.96198 0.62821 0.0
C579 C 0.20436 -0.00105 0.66041 0.0
N580 N 0.25382 0.97952 0.60532 0.0
N581 N 0.23598 0.00255 0.64938 0.0
H582 H 0.2203 0.21121 0.01314 0.0
H583 H 0.28779 0.28622 0.91677 0.0
H584 H 0.15509 0.1247 0.9705 0.0
H585 H 0.37032 0.35834 0.95951 0.0
H586 H 0.23617 0.22844 0.93623 0.0
H587 H 0.27364 0.26726 0.99364 0.0
C588 C 0.21733 0.20403 -0.00034 0.0
C589 C 0.18327 0.16334 0.9934 0.0
C590 C 0.26565 0.25685 0.94133 0.0
C591 C 0.24393 0.22728 0.97103 0.0
C592 C 0.29491 0.28993 0.93026 0.0
C593 C 0.33334 0.32705 0.93655 0.0
C594 C 0.27468 0.2612 0.95884 0.0
C595 C 0.34128 0.33003 0.95411 0.0
C596 C 0.24783 0.23592 0.98855 0.0
C597 C 0.18112 0.15551 0.97585 0.0
N598 N 0.3121 0.29763 0.96465 0.0
N599 N 0.21085 0.18734 0.96525 0.0
H600 H 0.03524 0.23688 0.34505 0.0
H601 H 0.00453 0.29294 0.2493 0.0
H602 H 0.03216 0.15801 0.30221 0.0
H603 H 0.03357 0.38413 0.29096 0.0
H604 H 0.01278 0.24211 0.26855 0.0
H605 H 0.03368 0.29084 0.32549 0.0
C606 C 0.03445 0.23107 0.33151 0.0
C607 C 0.03371 0.19289 0.32524 0.0
C608 C 0.01756 0.27334 0.27346 0.0
C609 C 0.03168 0.2543 0.30278 0.0
C610 C 0.01254 0.30218 0.26251 0.0
C611 C 0.01828 0.34274 0.26856 0.0
C612 C 0.02796 0.28493 0.29063 0.0
C613 C 0.02922 0.35336 0.28574 0.0
C614 C 0.03369 0.26192 0.32035 0.0
C615 C 0.03314 0.18719 0.30758 0.0
N616 N 0.03345 0.32453 0.29619 0.0
N617 N 0.03175 0.21737 0.29697 0.0
loop_
_geom_bond_atom_site_label_1
_geom_bond_atom_site_label_2
_geom_bond_distance
_geom_bond_site_symmetry_2
_ccdc_geom_bond_type
Li0 N17 1.990 . S
Li0 O60 1.956 . S
Li0 O61 1.970 1_455 S
Li0 O62 1.961 1_545 S
Li1 N25 1.990 . S
Li1 O60 1.970 1_655 S
Li1 O61 1.956 . S
Li1 O63 1.961 1_545 S
Li2 N47 1.990 . S
Li2 O60 1.961 1_565 S
Li2 O62 1.956 . S
Li2 O63 1.970 1_455 S
Li3 N53 1.990 . S
Li3 O61 1.961 1_565 S
Li3 O62 1.970 1_655 S
Li3 O63 1.956 . S
C4 C6 1.348 . S
C4 C7 1.356 . S
C4 O60 1.325 . S
N5 C8 1.314 . S
N5 C9 1.279 . S
C6 C4 1.348 . S
C6 C8 1.353 . S
C6 H64 0.929 . S
C7 C4 1.356 . S
C7 C9 1.358 . S
C7 H65 0.930 . S
C8 N5 1.314 . S
C8 C6 1.353 . S
C8 H66 0.930 . S
C9 N5 1.279 . S
C9 C7 1.358 . S
C9 H67 0.930 . S
C10 C13 1.348 1_655 S
C10 C14 1.356 . S
C10 O61 1.325 . S
C11 N12 1.279 . S
C11 C14 1.358 . S
C11 H68 0.930 . S
N12 C11 1.279 . S
N12 C15 1.314 . S
C13 C10 1.348 1_455 S
C13 C15 1.353 1_455 S
C13 H69 0.929 . S
C14 C10 1.356 . S
C14 C11 1.358 . S
C14 H70 0.930 . S
C15 N12 1.314 . S
C15 C13 1.353 1_655 S
C15 H71 0.930 1_655 S
C16 N17 1.314 . S
C16 C21 1.361 . S
C16 H22 0.930 . S
N17 Li0 1.990 . S
N17 C16 1.314 . S
N17 C19 1.279 . S
C18 C19 1.358 . S
C18 C20 1.356 . S
C18 H72 0.930 . S
C19 N17 1.279 . S
C19 C18 1.358 . S
C19 H23 0.930 . S
C20 C18 1.356 . S
C20 C21 1.351 . S
C21 C16 1.361 . S
C21 C20 1.351 . S
C21 H73 0.918 1_554 S
H22 C16 0.930 . S
H23 C19 0.930 . S
C24 N25 1.314 . S
C24 C26 1.353 . S
C24 H30 0.930 . S
N25 Li1 1.990 . S
N25 C24 1.314 . S
N25 C28 1.279 . S
C26 C24 1.353 . S
C26 C29 1.348 . S
C26 H74 0.929 . S
C27 C28 1.358 . S
C27 C29 1.356 . S
C27 H75 0.930 . S
C28 N25 1.279 . S
C28 C27 1.358 . S
C28 H31 0.930 . S
C29 C26 1.348 . S
C29 C27 1.356 . S
H30 C24 0.930 . S
H31 C28 0.930 . S
C32 C34 1.348 1_455 S
C32 C35 1.356 . S
C32 O62 1.325 . S
N33 C36 1.314 . S
N33 C37 1.279 . S
C34 C32 1.348 1_655 S
C34 C36 1.353 1_655 S
C34 H76 0.929 . S
C35 C32 1.356 . S
C35 C37 1.358 . S
C35 H77 0.930 . S
C36 N33 1.314 . S
C36 C34 1.353 1_455 S
C36 H78 0.930 1_455 S
C37 N33 1.279 . S
C37 C35 1.358 . S
C37 H79 0.930 . S
C38 C39 1.348 . S
C38 C40 1.356 . S
C38 O63 1.325 . S
C39 C38 1.348 . S
C39 C41 1.353 . S
C39 H80 0.929 . S
C40 C38 1.356 . S
C40 C42 1.358 . S
C40 H81 0.930 . S
C41 C39 1.353 . S
C41 N43 1.314 . S
C41 H82 0.930 . S
C42 C40 1.358 . S
C42 N43 1.279 . S
C42 H83 0.930 . S
N43 C41 1.314 . S
N43 C42 1.279 . S
C44 C46 1.353 . S
C44 N47 1.314 . S
C44 H50 0.930 . S
C45 N47 1.279 . S
C45 C48 1.358 . S
C45 H51 0.930 . S
C46 C44 1.353 . S
C46 C49 1.348 . S
C46 H84 0.929 . S
N47 Li2 1.990 . S
N47 C44 1.314 . S
N47 C45 1.279 . S
C48 C45 1.358 . S
C48 C49 1.356 . S
C48 H85 0.930 . S
C49 C46 1.348 . S
C49 C48 1.356 . S
H50 C44 0.930 . S
H51 C45 0.930 . S
C52 N53 1.314 . S
C52 C54 1.361 . S
C52 H58 0.930 . S
N53 Li3 1.990 . S
N53 C52 1.314 . S
N53 C56 1.279 . S
C54 C52 1.361 . S
C54 C57 1.351 . S
C54 H86 0.918 1_554 S
C55 C56 1.358 . S
C55 C57 1.356 . S
C55 H87 0.930 . S
C56 N53 1.279 . S
C56 C55 1.358 . S
C56 H59 0.930 . S
C57 C54 1.351 . S
C57 C55 1.356 . S
H58 C52 0.930 . S
H59 C56 0.930 . S
O60 Li0 1.956 . S
O60 Li1 1.970 1_455 S
O60 Li2 1.961 1_545 S
O60 C4 1.325 . S
O61 Li0 1.970 1_655 S
O61 Li1 1.956 . S
O61 Li3 1.961 1_545 S
O61 C10 1.325 . S
O62 Li0 1.961 1_565 S
O62 Li2 1.956 . S
O62 Li3 1.970 1_455 S
O62 C32 1.325 . S
O63 Li1 1.961 1_565 S
O63 Li2 1.970 1_655 S
O63 Li3 1.956 . S
O63 C38 1.325 . S
H64 C6 0.929 . S
H65 C7 0.930 . S
H66 C8 0.930 . S
H67 C9 0.930 . S
H68 C11 0.930 . S
H69 C13 0.929 . S
H70 C14 0.930 . S
H71 C15 0.930 1_455 S
H72 C18 0.930 . S
H73 C21 0.918 1_556 S
H74 C26 0.929 . S
H75 C27 0.930 . S
H76 C34 0.929 . S
H77 C35 0.930 . S
H78 C36 0.930 1_655 S
H79 C37 0.930 . S
H80 C39 0.929 . S
H81 C40 0.930 . S
H82 C41 0.930 . S
H83 C42 0.930 . S
H84 C46 0.929 . S
H85 C48 0.930 . S
H86 C54 0.918 1_556 S
H87 C55 0.930 . S
Li88 N105 1.990 . S
Li88 O148 1.956 . S
Li88 O149 1.970 1_665 S
Li88 O150 1.961 . S
Li89 N113 1.990 . S
Li89 O148 1.970 1_445 S
Li89 O149 1.956 . S
Li89 O151 1.961 . S
Li90 N135 1.990 . S
Li90 O148 1.961 . S
Li90 O150 1.956 . S
Li90 O151 1.970 1_665 S
Li91 N141 1.990 . S
Li91 O149 1.961 . S
Li91 O150 1.970 1_445 S
Li91 O151 1.956 . S
C92 C94 1.348 1_655 S
C92 C95 1.356 . S
C92 O148 1.325 . S
N93 C96 1.314 . S
N93 C97 1.279 . S
C94 C92 1.348 1_455 S
C94 C96 1.353 1_455 S
C94 H152 0.929 . S
C95 C92 1.356 . S
C95 C97 1.358 . S
C95 H153 0.930 . S
C96 N93 1.314 . S
C96 C94 1.353 1_655 S
C96 H154 0.930 1_655 S
C97 N93 1.279 . S
C97 C95 1.358 . S
C97 H155 0.930 . S
C98 C101 1.348 1_545 S
C98 C102 1.356 . S
C98 O149 1.325 . S
C99 N100 1.279 . S
C99 C102 1.358 . S
C99 H156 0.930 . S
N100 C99 1.279 . S
N100 C103 1.314 . S
C101 C98 1.348 1_565 S
C101 C103 1.353 1_565 S
C101 H157 0.929 . S
C102 C98 1.356 . S
C102 C99 1.358 . S
C102 H158 0.930 . S
C103 N100 1.314 . S
C103 C101 1.353 1_545 S
C103 H159 0.930 1_545 S
C104 N105 1.314 . S
C104 C109 1.353 . S
C104 H110 0.930 . S
N105 Li88 1.990 . S
N105 C104 1.314 . S
N105 C107 1.279 . S
C106 C107 1.358 . S
C106 C108 1.356 . S
C106 H160 0.930 . S
C107 N105 1.279 . S
C107 C106 1.358 . S
C107 H111 0.930 . S
C108 C106 1.356 . S
C108 C109 1.348 . S
C109 C104 1.353 . S
C109 C108 1.348 . S
C109 H161 0.929 . S
H110 C104 0.930 . S
H111 C107 0.930 . S
C112 N113 1.314 . S
C112 C114 1.353 . S
C112 H118 0.930 . S
N113 Li89 1.990 . S
N113 C112 1.314 . S
N113 C116 1.279 . S
C114 C112 1.353 . S
C114 C117 1.348 . S
C114 H162 0.929 . S
C115 C116 1.358 . S
C115 C117 1.356 . S
C115 H163 0.930 . S
C116 N113 1.279 . S
C116 C115 1.358 . S
C116 H119 0.930 . S
C117 C114 1.348 . S
C117 C115 1.356 . S
H118 C112 0.930 . S
H119 C116 0.930 . S
C120 C122 1.348 1_565 S
C120 C123 1.356 . S
C120 O150 1.325 . S
N121 C124 1.314 . S
N121 C125 1.279 . S
C122 C120 1.348 1_545 S
C122 C124 1.353 1_545 S
C122 H164 0.929 . S
C123 C120 1.356 . S
C123 C125 1.358 . S
C123 H165 0.930 . S
C124 N121 1.314 . S
C124 C122 1.353 1_565 S
C124 H166 0.930 1_565 S
C125 N121 1.279 . S
C125 C123 1.358 . S
C125 H167 0.930 . S
C126 C127 1.348 1_455 S
C126 C128 1.356 . S
C126 O151 1.325 . S
C127 C126 1.348 1_655 S
C127 C129 1.353 1_655 S
C127 H168 0.929 . S
C128 C126 1.356 . S
C128 C130 1.358 . S
C128 H169 0.930 . S
C129 C127 1.353 1_455 S
C129 N131 1.314 . S
C129 H170 0.930 1_455 S
C130 C128 1.358 . S
C130 N131 1.279 . S
C130 H171 0.930 . S
N131 C129 1.314 . S
N131 C130 1.279 . S
C132 C134 1.353 . S
C132 N135 1.314 . S
C132 H138 0.930 . S
C133 N135 1.279 . S
C133 C136 1.358 . S
C133 H139 0.930 . S
C134 C132 1.353 . S
C134 C137 1.348 . S
C134 H172 0.929 . S
N135 Li90 1.990 . S
N135 C132 1.314 . S
N135 C133 1.279 . S
C136 C133 1.358 . S
C136 C137 1.356 . S
C136 H173 0.930 . S
C137 C134 1.348 . S
C137 C136 1.356 . S
H138 C132 0.930 . S
H139 C133 0.930 . S
C140 N141 1.314 . S
C140 C142 1.353 . S
C140 H146 0.930 . S
N141 Li91 1.990 . S
N141 C140 1.314 . S
N141 C144 1.279 . S
C142 C140 1.353 . S
C142 C145 1.348 . S
C142 H174 0.929 . S
C143 C144 1.358 . S
C143 C145 1.356 . S
C143 H175 0.930 . S
C144 N141 1.279 . S
C144 C143 1.358 . S
C144 H147 0.930 . S
C145 C142 1.348 . S
C145 C143 1.356 . S
H146 C140 0.930 . S
H147 C144 0.930 . S
O148 Li88 1.956 . S
O148 Li89 1.970 1_665 S
O148 Li90 1.961 . S
O148 C92 1.325 . S
O149 Li88 1.970 1_445 S
O149 Li89 1.956 . S
O149 Li91 1.961 . S
O149 C98 1.325 . S
O150 Li88 1.961 . S
O150 Li90 1.956 . S
O150 Li91 1.970 1_665 S
O150 C120 1.325 . S
O151 Li89 1.961 . S
O151 Li90 1.970 1_445 S
O151 Li91 1.956 . S
O151 C126 1.325 . S
H152 C94 0.929 . S
H153 C95 0.930 . S
H154 C96 0.930 1_455 S
H155 C97 0.930 . S
H156 C99 0.930 . S
H157 C101 0.929 . S
H158 C102 0.930 . S
H159 C103 0.930 1_565 S
H160 C106 0.930 . S
H161 C109 0.929 . S
H162 C114 0.929 . S
H163 C115 0.930 . S
H164 C122 0.929 . S
H165 C123 0.930 . S
H166 C124 0.930 1_545 S
H167 C125 0.930 . S
H168 C127 0.929 . S
H169 C128 0.930 . S
H170 C129 0.930 1_655 S
H171 C130 0.930 . S
H172 C134 0.929 . S
H173 C136 0.930 . S
H174 C142 0.929 . S
H175 C143 0.930 . S
Li176 N193 1.990 . S
Li176 O236 1.956 . S
Li176 O237 1.970 1_565 S
Li176 O238 1.961 1_455 S
Li177 N201 1.990 . S
Li177 O236 1.970 1_545 S
Li177 O237 1.956 . S
Li177 O239 1.961 1_455 S
Li178 N223 1.990 . S
Li178 O236 1.961 1_655 S
Li178 O238 1.956 . S
Li178 O239 1.970 1_565 S
Li179 N229 1.990 . S
Li179 O237 1.961 1_655 S
Li179 O238 1.970 1_545 S
Li179 O239 1.956 . S
C180 C182 1.348 1_565 S
C180 C183 1.356 . S
C180 O236 1.325 . S
N181 C184 1.314 . S
N181 C185 1.279 . S
C182 C180 1.348 1_545 S
C182 C184 1.353 1_545 S
C182 H240 0.929 . S
C183 C180 1.356 . S
C183 C185 1.358 . S
C183 H241 0.930 . S
C184 N181 1.314 . S
C184 C182 1.353 1_565 S
C184 H242 0.930 1_565 S
C185 N181 1.279 . S
C185 C183 1.358 . S
C185 H243 0.930 . S
C186 C189 1.348 . S
C186 C190 1.356 . S
C186 O237 1.325 . S
C187 N188 1.279 . S
C187 C190 1.358 . S
C187 H244 0.930 . S
N188 C187 1.279 . S
N188 C191 1.314 . S
C189 C186 1.348 . S
C189 C191 1.353 . S
C189 H245 0.929 . S
C190 C186 1.356 . S
C190 C187 1.358 . S
C190 H246 0.930 . S
C191 N188 1.314 . S
C191 C189 1.353 . S
C191 H247 0.930 . S
C192 N193 1.314 . S
C192 C197 1.353 . S
C192 H198 0.930 . S
N193 Li176 1.990 . S
N193 C192 1.314 . S
N193 C195 1.279 . S
C194 C195 1.358 . S
C194 C196 1.356 . S
C194 H248 0.930 . S
C195 N193 1.279 . S
C195 C194 1.358 . S
C195 H199 0.930 . S
C196 C194 1.356 . S
C196 C197 1.348 . S
C197 C192 1.353 . S
C197 C196 1.348 . S
C197 H249 0.929 . S
H198 C192 0.930 . S
H199 C195 0.930 . S
C200 N201 1.314 . S
C200 C202 1.353 . S
C200 H206 0.930 . S
N201 Li177 1.990 . S
N201 C200 1.314 . S
N201 C204 1.279 . S
C202 C200 1.353 . S
C202 C205 1.348 . S
C202 H250 0.929 . S
C203 C204 1.358 . S
C203 C205 1.356 . S
C203 H251 0.930 . S
C204 N201 1.279 . S
C204 C203 1.358 . S
C204 H207 0.930 . S
C205 C202 1.348 . S
C205 C203 1.356 . S
H206 C200 0.930 . S
H207 C204 0.930 . S
C208 C210 1.348 . S
C208 C211 1.356 . S
C208 O238 1.325 . S
N209 C212 1.314 . S
N209 C213 1.279 . S
C210 C208 1.348 . S
C210 C212 1.353 . S
C210 H252 0.929 . S
C211 C208 1.356 . S
C211 C213 1.358 . S
C211 H253 0.930 . S
C212 N209 1.314 . S
C212 C210 1.353 . S
C212 H254 0.930 . S
C213 N209 1.279 . S
C213 C211 1.358 . S
C213 H255 0.930 . S
C214 C215 1.348 1_545 S
C214 C216 1.356 . S
C214 O239 1.325 . S
C215 C214 1.348 1_565 S
C215 C217 1.353 1_565 S
C215 H256 0.929 . S
C216 C214 1.356 . S
C216 C218 1.358 . S
C216 H257 0.930 . S
C217 C215 1.353 1_545 S
C217 N219 1.314 . S
C217 H258 0.930 1_545 S
C218 C216 1.358 . S
C218 N219 1.279 . S
C218 H259 0.930 . S
N219 C217 1.314 . S
N219 C218 1.279 . S
C220 C222 1.353 . S
C220 N223 1.314 . S
C220 H226 0.930 . S
C221 N223 1.279 . S
C221 C224 1.358 . S
C221 H227 0.930 . S
C222 C220 1.353 . S
C222 C225 1.348 . S
C222 H260 0.929 . S
N223 Li178 1.990 . S
N223 C220 1.314 . S
N223 C221 1.279 . S
C224 C221 1.358 . S
C224 C225 1.356 . S
C224 H261 0.930 . S
C225 C222 1.348 . S
C225 C224 1.356 . S
H226 C220 0.930 . S
H227 C221 0.930 . S
C228 N229 1.314 . S
C228 C230 1.353 . S
C228 H234 0.930 . S
N229 Li179 1.990 . S
N229 C228 1.314 . S
N229 C232 1.279 . S
C230 C228 1.353 . S
C230 C233 1.348 . S
C230 H262 0.929 . S
C231 C232 1.358 . S
C231 C233 1.356 . S
C231 H263 0.930 . S
C232 N229 1.279 . S
C232 C231 1.358 . S
C232 H235 0.930 . S
C233 C230 1.348 . S
C233 C231 1.356 . S
H234 C228 0.930 . S
H235 C232 0.930 . S
O236 Li176 1.956 . S
O236 Li177 1.970 1_565 S
O236 Li178 1.961 1_455 S
O236 C180 1.325 . S
O237 Li176 1.970 1_545 S
O237 Li177 1.956 . S
O237 Li179 1.961 1_455 S
O237 C186 1.325 . S
O238 Li176 1.961 1_655 S
O238 Li178 1.956 . S
O238 Li179 1.970 1_565 S
O238 C208 1.325 . S
O239 Li177 1.961 1_655 S
O239 Li178 1.970 1_545 S
O239 Li179 1.956 . S
O239 C214 1.325 . S
H240 C182 0.929 . S
H241 C183 0.930 . S
H242 C184 0.930 1_545 S
H243 C185 0.930 . S
H244 C187 0.930 . S
H245 C189 0.929 . S
H246 C190 0.930 . S
H247 C191 0.930 . S
H248 C194 0.930 . S
H249 C197 0.929 . S
H250 C202 0.929 . S
H251 C203 0.930 . S
H252 C210 0.929 . S
H253 C211 0.930 . S
H254 C212 0.930 . S
H255 C213 0.930 . S
H256 C215 0.929 . S
H257 C216 0.930 . S
H258 C217 0.930 1_565 S
H259 C218 0.930 . S
H260 C222 0.929 . S
H261 C224 0.930 . S
H262 C230 0.929 . S
H263 C231 0.930 . S
C264 C265 1.384 1_655 S
C264 C266 1.384 . S
C264 H292 0.931 . S
C265 C264 1.384 1_455 S
C265 C268 1.382 . S
C266 C264 1.384 . S
C266 C267 1.381 1_655 S
C266 H293 0.930 . S
C267 C266 1.381 1_455 S
C267 C269 1.381 . S
C267 C270 1.487 . S
C268 C265 1.382 . S
C268 C269 1.387 . S
C268 H294 0.930 . S
C269 C267 1.381 . S
C269 C268 1.387 . S
C269 H295 0.931 . S
C270 C267 1.487 . S
C270 C277 1.399 1_455 S
C270 N308 1.343 . S
C271 C272 1.384 1_455 S
C271 C273 1.384 . S
C271 H296 0.931 . S
C272 C271 1.384 1_655 S
C272 C275 1.382 . S
C273 C271 1.384 . S
C273 C274 1.381 1_455 S
C273 H297 0.930 . S
C274 C273 1.381 1_655 S
C274 C276 1.381 . S
C274 C277 1.487 . S
C275 C272 1.382 . S
C275 C276 1.387 . S
C275 H298 0.930 . S
C276 C274 1.381 . S
C276 C275 1.387 . S
C276 H299 0.931 . S
C277 C270 1.399 1_655 S
C277 C274 1.487 . S
C277 N309 1.343 . S
C278 C279 1.384 1_455 S
C278 C280 1.384 . S
C278 H300 0.931 . S
C279 C278 1.384 1_655 S
C279 C282 1.382 . S
C280 C278 1.384 . S
C280 C281 1.381 1_455 S
C280 H301 0.930 . S
C281 C280 1.381 1_655 S
C281 C283 1.381 . S
C281 C284 1.487 . S
C282 C279 1.382 . S
C282 C283 1.387 . S
C282 H302 0.930 . S
C283 C281 1.381 . S
C283 C282 1.387 . S
C283 H303 0.931 . S
C284 C281 1.487 . S
C284 C291 1.399 1_655 S
C284 N309 1.343 . S
C285 C286 1.384 1_655 S
C285 C287 1.384 . S
C285 H304 0.931 . S
C286 C285 1.384 1_455 S
C286 C289 1.382 . S
C287 C285 1.384 . S
C287 C288 1.381 1_655 S
C287 H305 0.930 . S
C288 C287 1.381 1_455 S
C288 C290 1.381 . S
C288 C291 1.487 . S
C289 C286 1.382 . S
C289 C290 1.387 . S
C289 H306 0.930 . S
C290 C288 1.381 . S
C290 C289 1.387 . S
C290 H307 0.931 . S
C291 C284 1.399 1_455 S
C291 C288 1.487 . S
C291 N308 1.343 . S
H292 C264 0.931 . S
H293 C266 0.930 . S
H294 C268 0.930 . S
H295 C269 0.931 . S
H296 C271 0.931 . S
H297 C273 0.930 . S
H298 C275 0.930 . S
H299 C276 0.931 . S
H300 C278 0.931 . S
H301 C280 0.930 . S
H302 C282 0.930 . S
H303 C283 0.931 . S
H304 C285 0.931 . S
H305 C287 0.930 . S
H306 C289 0.930 . S
H307 C290 0.931 . S
N308 C270 1.343 . S
N308 C291 1.343 . S
N309 C277 1.343 . S
N309 C284 1.343 . S
C310 C311 1.384 1_545 S
C310 C312 1.384 . S
C310 H338 0.931 . S
C311 C310 1.384 1_565 S
C311 C314 1.382 . S
C312 C310 1.384 . S
C312 C313 1.381 1_545 S
C312 H339 0.930 . S
C313 C312 1.381 1_565 S
C313 C315 1.381 . S
C313 C316 1.487 . S
C314 C311 1.382 . S
C314 C315 1.387 . S
C314 H340 0.930 . S
C315 C313 1.381 . S
C315 C314 1.387 . S
C315 H341 0.931 . S
C316 C313 1.487 . S
C316 C323 1.399 1_565 S
C316 N354 1.343 . S
C317 C318 1.384 1_565 S
C317 C319 1.384 . S
C317 H342 0.931 . S
C318 C317 1.384 1_545 S
C318 C321 1.382 . S
C319 C317 1.384 . S
C319 C320 1.381 1_565 S
C319 H343 0.930 . S
C320 C319 1.381 1_545 S
C320 C322 1.381 . S
C320 C323 1.487 . S
C321 C318 1.382 . S
C321 C322 1.387 . S
C321 H344 0.930 . S
C322 C320 1.381 . S
C322 C321 1.387 . S
C322 H345 0.931 . S
C323 C316 1.399 1_545 S
C323 C320 1.487 . S
C323 N355 1.343 . S
C324 C325 1.384 1_565 S
C324 C326 1.384 . S
C324 H346 0.931 . S
C325 C324 1.384 1_545 S
C325 C328 1.382 . S
C326 C324 1.384 . S
C326 C327 1.381 1_565 S
C326 H347 0.930 . S
C327 C326 1.381 1_545 S
C327 C329 1.381 . S
C327 C330 1.487 . S
C328 C325 1.382 . S
C328 C329 1.387 . S
C328 H348 0.930 . S
C329 C327 1.381 . S
C329 C328 1.387 . S
C329 H349 0.931 . S
C330 C327 1.487 . S
C330 C337 1.399 1_545 S
C330 N355 1.343 . S
C331 C332 1.384 1_545 S
C331 C333 1.384 . S
C331 H350 0.931 . S
C332 C331 1.384 1_565 S
C332 C335 1.382 . S
C333 C331 1.384 . S
C333 C334 1.381 1_545 S
C333 H351 0.930 . S
C334 C333 1.381 1_565 S
C334 C336 1.381 . S
C334 C337 1.487 . S
C335 C332 1.382 . S
C335 C336 1.387 . S
C335 H352 0.930 . S
C336 C334 1.381 . S
C336 C335 1.387 . S
C336 H353 0.931 . S
C337 C330 1.399 1_565 S
C337 C334 1.487 . S
C337 N354 1.343 . S
H338 C310 0.931 . S
H339 C312 0.930 . S
H340 C314 0.930 . S
H341 C315 0.931 . S
H342 C317 0.931 . S
H343 C319 0.930 . S
H344 C321 0.930 . S
H345 C322 0.931 . S
H346 C324 0.931 . S
H347 C326 0.930 . S
H348 C328 0.930 . S
H349 C329 0.931 . S
H350 C331 0.931 . S
H351 C333 0.930 . S
H352 C335 0.930 . S
H353 C336 0.931 . S
N354 C316 1.343 . S
N354 C337 1.343 . S
N355 C323 1.343 . S
N355 C330 1.343 . S
C356 C357 1.384 . S
C356 C358 1.384 . S
C356 H384 0.931 . S
C357 C356 1.384 . S
C357 C360 1.382 . S
C358 C356 1.384 . S
C358 C359 1.381 . S
C358 H385 0.930 . S
C359 C358 1.381 . S
C359 C361 1.381 . S
C359 C362 1.487 . S
C360 C357 1.382 . S
C360 C361 1.387 . S
C360 H386 0.930 . S
C361 C359 1.381 . S
C361 C360 1.387 . S
C361 H387 0.931 . S
C362 C359 1.487 . S
C362 C369 1.399 . S
C362 N400 1.343 . S
C363 C364 1.384 . S
C363 C365 1.384 . S
C363 H388 0.931 . S
C364 C363 1.384 . S
C364 C367 1.382 . S
C365 C363 1.384 . S
C365 C366 1.381 . S
C365 H389 0.930 . S
C366 C365 1.381 . S
C366 C368 1.381 . S
C366 C369 1.487 . S
C367 C364 1.382 . S
C367 C368 1.387 . S
C367 H390 0.930 . S
C368 C366 1.381 . S
C368 C367 1.387 . S
C368 H391 0.931 . S
C369 C362 1.399 . S
C369 C366 1.487 . S
C369 N401 1.343 . S
C370 C371 1.384 . S
C370 C372 1.384 . S
C370 H392 0.931 . S
C371 C370 1.384 . S
C371 C374 1.382 . S
C372 C370 1.384 . S
C372 C373 1.381 . S
C372 H393 0.930 . S
C373 C372 1.381 . S
C373 C375 1.381 . S
C373 C376 1.487 . S
C374 C371 1.382 . S
C374 C375 1.387 . S
C374 H394 0.930 . S
C375 C373 1.381 . S
C375 C374 1.387 . S
C375 H395 0.931 . S
C376 C373 1.487 . S
C376 C383 1.399 . S
C376 N401 1.343 . S
C377 C378 1.384 . S
C377 C379 1.384 . S
C377 H396 0.931 . S
C378 C377 1.384 . S
C378 C381 1.382 . S
C379 C377 1.384 . S
C379 C380 1.381 . S
C379 H397 0.930 . S
C380 C379 1.381 . S
C380 C382 1.381 . S
C380 C383 1.487 . S
C381 C378 1.382 . S
C381 C382 1.387 . S
C381 H398 0.930 . S
C382 C380 1.381 . S
C382 C381 1.387 . S
C382 H399 0.931 . S
C383 C376 1.399 . S
C383 C380 1.487 . S
C383 N400 1.343 . S
H384 C356 0.931 . S
H385 C358 0.930 . S
H386 C360 0.930 . S
H387 C361 0.931 . S
H388 C363 0.931 . S
H389 C365 0.930 . S
H390 C367 0.930 . S
H391 C368 0.931 . S
H392 C370 0.931 . S
H393 C372 0.930 . S
H394 C374 0.930 . S
H395 C375 0.931 . S
H396 C377 0.931 . S
H397 C379 0.930 . S
H398 C381 0.930 . S
H399 C382 0.931 . S
N400 C362 1.343 . S
N400 C383 1.343 . S
N401 C369 1.343 . S
N401 C376 1.343 . S
H402 C408 0.930 . S
H403 C412 0.930 . S
H404 C417 0.929 . S
H405 C415 0.929 . S
H406 C410 0.929 . S
H407 C416 0.929 1_455 S
C408 H402 0.930 . S
C408 C409 1.367 . S
C408 C416 1.378 . S
C409 C408 1.367 . S
C409 C417 1.433 . S
C410 H406 0.929 . S
C410 C412 1.378 . S
C410 C414 1.350 . S
C411 C414 1.463 . S
C411 C416 1.350 . S
C411 N419 1.427 . S
C412 H403 0.930 . S
C412 C410 1.378 . S
C412 C413 1.367 . S
C413 C412 1.367 . S
C413 C415 1.433 1_655 S
C414 C410 1.350 . S
C414 C411 1.463 . S
C414 N418 1.427 1_655 S
C415 H405 0.929 . S
C415 C413 1.433 1_455 S
C415 N418 1.384 . S
C416 H407 0.929 1_655 S
C416 C408 1.378 . S
C416 C411 1.350 . S
C417 H404 0.929 . S
C417 C409 1.433 . S
C417 N419 1.384 . S
N418 C414 1.427 1_455 S
N418 C415 1.384 . S
N419 C411 1.427 . S
N419 C417 1.384 . S
H420 C426 0.930 . S
H421 C430 0.930 . S
H422 C435 0.929 . S
H423 C433 0.929 . S
H424 C428 0.929 . S
H425 C434 0.929 . S
C426 H420 0.930 . S
C426 C427 1.367 . S
C426 C434 1.378 . S
C427 C426 1.367 . S
C427 C435 1.433 . S
C428 H424 0.929 . S
C428 C430 1.378 . S
C428 C432 1.350 . S
C429 C432 1.463 . S
C429 C434 1.350 . S
C429 N437 1.427 . S
C430 H421 0.930 . S
C430 C428 1.378 . S
C430 C431 1.367 . S
C431 C430 1.367 . S
C431 C433 1.433 1_565 S
C432 C428 1.350 . S
C432 C429 1.463 . S
C432 N436 1.427 . S
C433 H423 0.929 . S
C433 C431 1.433 1_545 S
C433 N436 1.384 1_545 S
C434 H425 0.929 . S
C434 C426 1.378 . S
C434 C429 1.350 . S
C435 H422 0.929 . S
C435 C427 1.433 . S
C435 N437 1.384 . S
N436 C432 1.427 . S
N436 C433 1.384 1_565 S
N437 C429 1.427 . S
N437 C435 1.384 . S
H438 C444 0.930 . S
H439 C448 0.930 . S
H440 C453 0.929 . S
H441 C451 0.929 . S
H442 C446 0.929 . S
H443 C452 0.929 . S
C444 H438 0.930 . S
C444 C445 1.367 . S
C444 C452 1.378 . S
C445 C444 1.367 . S
C445 C453 1.433 . S
C446 H442 0.929 . S
C446 C448 1.378 . S
C446 C450 1.350 . S
C447 C450 1.463 . S
C447 C452 1.350 . S
C447 N455 1.427 . S
C448 H439 0.930 . S
C448 C446 1.378 . S
C448 C449 1.367 . S
C449 C448 1.367 . S
C449 C451 1.433 . S
C450 C446 1.350 . S
C450 C447 1.463 . S
C450 N454 1.427 . S
C451 H441 0.929 . S
C451 C449 1.433 . S
C451 N454 1.384 . S
C452 H443 0.929 . S
C452 C444 1.378 . S
C452 C447 1.350 . S
C453 H440 0.929 . S
C453 C445 1.433 . S
C453 N455 1.384 . S
N454 C450 1.427 . S
N454 C451 1.384 . S
N455 C447 1.427 . S
N455 C453 1.384 . S
H456 C462 0.930 . S
H457 C466 0.930 . S
H458 C471 0.929 . S
H459 C469 0.929 . S
H460 C464 0.929 . S
H461 C470 0.929 . S
C462 H456 0.930 . S
C462 C463 1.367 . S
C462 C470 1.378 . S
C463 C462 1.367 . S
C463 C471 1.433 . S
C464 H460 0.929 . S
C464 C466 1.378 . S
C464 C468 1.350 . S
C465 C468 1.463 . S
C465 C470 1.350 . S
C465 N473 1.427 . S
C466 H457 0.930 . S
C466 C464 1.378 . S
C466 C467 1.367 . S
C467 C466 1.367 . S
C467 C469 1.433 . S
C468 C464 1.350 . S
C468 C465 1.463 . S
C468 N472 1.427 . S
C469 H459 0.929 . S
C469 C467 1.433 . S
C469 N472 1.384 . S
C470 H461 0.929 . S
C470 C462 1.378 . S
C470 C465 1.350 . S
C471 H458 0.929 . S
C471 C463 1.433 . S
C471 N473 1.384 . S
N472 C468 1.427 . S
N472 C469 1.384 . S
N473 C465 1.427 . S
N473 C471 1.384 . S
H474 C480 0.930 1_565 S
H475 C484 0.930 . S
H476 C489 0.929 . S
H477 C487 0.929 . S
H478 C482 0.929 . S
H479 C488 0.929 . S
C480 H474 0.930 1_545 S
C480 C481 1.367 . S
C480 C488 1.378 1_545 S
C481 C480 1.367 . S
C481 C489 1.433 . S
C482 H478 0.929 . S
C482 C484 1.378 . S
C482 C486 1.350 . S
C483 C486 1.463 . S
C483 C488 1.350 1_545 S
C483 N491 1.427 . S
C484 H475 0.930 . S
C484 C482 1.378 . S
C484 C485 1.367 . S
C485 C484 1.367 . S
C485 C487 1.433 1_545 S
C486 C482 1.350 . S
C486 C483 1.463 . S
C486 N490 1.427 1_545 S
C487 H477 0.929 . S
C487 C485 1.433 1_565 S
C487 N490 1.384 . S
C488 H479 0.929 . S
C488 C480 1.378 1_565 S
C488 C483 1.350 1_565 S
C489 H476 0.929 . S
C489 C481 1.433 . S
C489 N491 1.384 . S
N490 C486 1.427 1_565 S
N490 C487 1.384 . S
N491 C483 1.427 . S
N491 C489 1.384 . S
H492 C498 0.930 . S
H493 C502 0.930 . S
H494 C507 0.929 . S
H495 C505 0.929 . S
H496 C500 0.929 . S
H497 C506 0.929 . S
C498 H492 0.930 . S
C498 C499 1.367 . S
C498 C506 1.378 . S
C499 C498 1.367 . S
C499 C507 1.433 . S
C500 H496 0.929 . S
C500 C502 1.378 . S
C500 C504 1.350 . S
C501 C504 1.463 . S
C501 C506 1.350 . S
C501 N509 1.427 . S
C502 H493 0.930 . S
C502 C500 1.378 . S
C502 C503 1.367 . S
C503 C502 1.367 . S
C503 C505 1.433 . S
C504 C500 1.350 . S
C504 C501 1.463 . S
C504 N508 1.427 . S
C505 H495 0.929 . S
C505 C503 1.433 . S
C505 N508 1.384 . S
C506 H497 0.929 . S
C506 C498 1.378 . S
C506 C501 1.350 . S
C507 H494 0.929 . S
C507 C499 1.433 . S
C507 N509 1.384 . S
N508 C504 1.427 . S
N508 C505 1.384 . S
N509 C501 1.427 . S
N509 C507 1.384 . S
H510 C516 0.930 . S
H511 C520 0.930 . S
H512 C525 0.929 1_565 S
H513 C523 0.929 . S
H514 C518 0.929 . S
H515 C524 0.929 . S
C516 H510 0.930 . S
C516 C517 1.367 . S
C516 C524 1.378 . S
C517 C516 1.367 . S
C517 C525 1.433 . S
C518 H514 0.929 . S
C518 C520 1.378 . S
C518 C522 1.350 1_565 S
C519 C522 1.463 . S
C519 C524 1.350 . S
C519 N527 1.427 1_545 S
C520 H511 0.930 . S
C520 C518 1.378 . S
C520 C521 1.367 1_565 S
C521 C520 1.367 1_545 S
C521 C523 1.433 . S
C522 C518 1.350 1_545 S
C522 C519 1.463 . S
C522 N526 1.427 . S
C523 H513 0.929 . S
C523 C521 1.433 . S
C523 N526 1.384 . S
C524 H515 0.929 . S
C524 C516 1.378 . S
C524 C519 1.350 . S
C525 H512 0.929 1_545 S
C525 C517 1.433 . S
C525 N527 1.384 1_545 S
N526 C522 1.427 . S
N526 C523 1.384 . S
N527 C519 1.427 1_565 S
N527 C525 1.384 1_565 S
H528 C534 0.930 1_554 S
H529 C538 0.930 . S
H530 C543 0.929 . S
H531 C541 0.929 . S
H532 C536 0.929 . S
H533 C542 0.929 . S
C534 H528 0.930 1_556 S
C534 C535 1.367 . S
C534 C542 1.378 . S
C535 C534 1.367 . S
C535 C543 1.433 . S
C536 H532 0.929 . S
C536 C538 1.378 . S
C536 C540 1.350 . S
C537 C540 1.463 . S
C537 C542 1.350 . S
C537 N545 1.427 . S
C538 H529 0.930 . S
C538 C536 1.378 . S
C538 C539 1.367 . S
C539 C538 1.367 . S
C539 C541 1.433 . S
C540 C536 1.350 . S
C540 C537 1.463 . S
C540 N544 1.427 . S
C541 H531 0.929 . S
C541 C539 1.433 . S
C541 N544 1.384 . S
C542 H533 0.929 . S
C542 C534 1.378 . S
C542 C537 1.350 . S
C543 H530 0.929 . S
C543 C535 1.433 . S
C543 N545 1.384 . S
N544 C540 1.427 . S
N544 C541 1.384 . S
N545 C537 1.427 . S
N545 C543 1.384 . S
H546 C552 0.931 1_455 S
H547 C556 0.930 . S
H548 C561 0.929 . S
H549 C559 0.929 . S
H550 C554 0.929 . S
H551 C560 0.929 1_455 S
C552 H546 0.931 1_655 S
C552 C553 1.367 . S
C552 C560 1.378 . S
C553 C552 1.367 . S
C553 C561 1.433 . S
C554 H550 0.929 . S
C554 C556 1.378 . S
C554 C558 1.350 . S
C555 C558 1.463 . S
C555 C560 1.350 . S
C555 N563 1.427 . S
C556 H547 0.930 . S
C556 C554 1.378 . S
C556 C557 1.367 . S
C557 C556 1.367 . S
C557 C559 1.433 1_655 S
C558 C554 1.350 . S
C558 C555 1.463 . S
C558 N562 1.427 1_655 S
C559 H549 0.929 . S
C559 C557 1.433 1_455 S
C559 N562 1.384 . S
C560 H551 0.929 1_655 S
C560 C552 1.378 . S
C560 C555 1.350 . S
C561 H548 0.929 . S
C561 C553 1.433 . S
C561 N563 1.384 . S
N562 C558 1.427 1_455 S
N562 C559 1.384 . S
N563 C555 1.427 . S
N563 C561 1.384 . S
H564 C570 0.930 . S
H565 C574 0.930 . S
H566 C579 0.930 1_545 S
H567 C577 0.929 . S
H568 C572 0.929 . S
H569 C578 0.929 . S
C570 H564 0.930 . S
C570 C571 1.367 . S
C570 C578 1.378 . S
C571 C570 1.367 . S
C571 C579 1.433 . S
C572 H568 0.929 . S
C572 C574 1.378 . S
C572 C576 1.350 1_545 S
C573 C576 1.463 . S
C573 C578 1.350 . S
C573 N581 1.427 . S
C574 H565 0.930 . S
C574 C572 1.378 . S
C574 C575 1.367 1_545 S
C575 C574 1.367 1_565 S
C575 C577 1.433 . S
C576 C572 1.350 1_565 S
C576 C573 1.463 . S
C576 N580 1.427 . S
C577 H567 0.929 . S
C577 C575 1.433 . S
C577 N580 1.384 . S
C578 H569 0.929 . S
C578 C570 1.378 . S
C578 C573 1.350 . S
C579 H566 0.930 1_565 S
C579 C571 1.433 . S
C579 N581 1.384 . S
N580 C576 1.427 . S
N580 C577 1.384 . S
N581 C573 1.427 . S
N581 C579 1.384 . S
H582 C588 0.890 1_554 S
H583 C592 0.930 . S
H584 C597 0.929 . S
H585 C595 0.929 . S
H586 C590 0.929 . S
H587 C596 0.929 . S
C588 H582 0.890 1_556 S
C588 C589 1.380 . S
C588 C596 1.406 . S
C589 C588 1.380 . S
C589 C597 1.433 . S
C590 H586 0.929 . S
C590 C592 1.378 . S
C590 C594 1.350 . S
C591 C594 1.463 . S
C591 C596 1.350 . S
C591 N599 1.427 . S
C592 H583 0.930 . S
C592 C590 1.378 . S
C592 C593 1.367 . S
C593 C592 1.367 . S
C593 C595 1.433 . S
C594 C590 1.350 . S
C594 C591 1.463 . S
C594 N598 1.427 . S
C595 H585 0.929 . S
C595 C593 1.433 . S
C595 N598 1.384 . S
C596 H587 0.929 . S
C596 C588 1.406 . S
C596 C591 1.350 . S
C597 H584 0.929 . S
C597 C589 1.433 . S
C597 N599 1.384 . S
N598 C594 1.427 . S
N598 C595 1.384 . S
N599 C591 1.427 . S
N599 C597 1.384 . S
H600 C606 0.930 . S
H601 C610 0.930 . S
H602 C615 0.929 1_655 S
H603 C613 0.929 . S
H604 C608 0.929 . S
H605 C614 0.929 . S
C606 H600 0.930 . S
C606 C607 1.367 . S
C606 C614 1.378 . S
C607 C606 1.367 . S
C607 C615 1.433 . S
C608 H604 0.929 . S
C608 C610 1.378 . S
C608 C612 1.350 1_655 S
C609 C612 1.463 . S
C609 C614 1.350 . S
C609 N617 1.427 . S
C610 H601 0.930 . S
C610 C608 1.378 . S
C610 C611 1.367 1_655 S
C611 C610 1.367 1_455 S
C611 C613 1.433 . S
C612 C608 1.350 1_455 S
C612 C609 1.463 . S
C612 N616 1.427 . S
C613 H603 0.929 . S
C613 C611 1.433 . S
C613 N616 1.384 . S
C614 H605 0.929 . S
C614 C606 1.378 . S
C614 C609 1.350 . S
C615 H602 0.929 1_455 S
C615 C607 1.433 . S
C615 N617 1.384 . S
N616 C612 1.427 . S
N616 C613 1.384 . S
N617 C609 1.427 . S
N617 C615 1.384 . S
C413 C272 1.452 . S
C409 C29 1.435 . S
C427 C137 1.438 . S
C431 C311 1.456 . S
C445 C225 1.439 . S
C449 C378 1.463 . S
C463 C49 1.440 . S
C467 C279 1.463 1_455 S
C485 C332 1.458 1_545 S
C481 C117 1.432 . S
C499 C205 1.445 . S
C503 C357 1.455 . S
C521 C318 1.457 . S
C517 C233 1.448 . S
C535 C57 1.443 1_556 S
C539 C371 1.464 . S
C557 C286 1.459 1_655 S
C553 C108 1.439 . S
C575 C325 1.462 1_565 S
C571 C196 1.440 . S
C593 C364 1.455 . S
C589 C20 1.439 1_556 S
C607 C145 1.443 . S
C611 C265 1.453 . S
