# Generated by pormake.
# Topology zzz, (3,6)-cn, num edge types: 1
# Building blocks:
#     Node 0, Type 0, BuildingBlock: BETDIP_clean_linker_0, # of connection points: 3
#     Node 1, Type 0, BuildingBlock: BETDIP_clean_linker_0, # of connection points: 3
#     Node 2, Type 0, BuildingBlock: BETDIP_clean_linker_0, # of connection points: 3
#     Node 3, Type 0, BuildingBlock: BETDIP_clean_linker_0, # of connection points: 3
#     Node 4, Type 0, BuildingBlock: BETDIP_clean_linker_0, # of connection points: 3
#     Node 5, Type 0, BuildingBlock: BETDIP_clean_linker_0, # of connection points: 3
#     Node 6, Type 0, BuildingBlock: BETDIP_clean_linker_0, # of connection points: 3
#     Node 7, Type 0, BuildingBlock: BETDIP_clean_linker_0, # of connection points: 3
#     Node 8, Type 1, BuildingBlock: MIFKUJ_clean_sbu_0, # of connection points: 6
#     Node 9, Type 1, BuildingBlock: MIFKUJ_clean_sbu_0, # of connection points: 6
#     Node 10, Type 1, BuildingBlock: MIFKUJ_clean_sbu_0, # of connection points: 6
#     Node 11, Type 1, BuildingBlock: MIFKUJ_clean_sbu_0, # of connection points: 6
#     Edge 12, Type (0, 1), BuildingBlock: UVAHIK_clean_linker_0, # of connection points: 2
#     Edge 13, Type (0, 1), BuildingBlock: UVAHIK_clean_linker_0, # of connection points: 2
#     Edge 14, Type (0, 1), BuildingBlock: UVAHIK_clean_linker_0, # of connection points: 2
#     Edge 15, Type (0, 1), BuildingBlock: UVAHIK_clean_linker_0, # of connection points: 2
#     Edge 16, Type (0, 1), BuildingBlock: UVAHIK_clean_linker_0, # of connection points: 2
#     Edge 17, Type (0, 1), BuildingBlock: UVAHIK_clean_linker_0, # of connection points: 2
#     Edge 18, Type (0, 1), BuildingBlock: UVAHIK_clean_linker_0, # of connection points: 2
#     Edge 19, Type (0, 1), BuildingBlock: UVAHIK_clean_linker_0, # of connection points: 2
#     Edge 20, Type (0, 1), BuildingBlock: UVAHIK_clean_linker_0, # of connection points: 2
#     Edge 21, Type (0, 1), BuildingBlock: UVAHIK_clean_linker_0, # of connection points: 2
#     Edge 22, Type (0, 1), BuildingBlock: UVAHIK_clean_linker_0, # of connection points: 2
#     Edge 23, Type (0, 1), BuildingBlock: UVAHIK_clean_linker_0, # of connection points: 2
#     Edge 24, Type (0, 1), BuildingBlock: UVAHIK_clean_linker_0, # of connection points: 2
#     Edge 25, Type (0, 1), BuildingBlock: UVAHIK_clean_linker_0, # of connection points: 2
#     Edge 26, Type (0, 1), BuildingBlock: UVAHIK_clean_linker_0, # of connection points: 2
#     Edge 27, Type (0, 1), BuildingBlock: UVAHIK_clean_linker_0, # of connection points: 2
#     Edge 28, Type (0, 1), BuildingBlock: UVAHIK_clean_linker_0, # of connection points: 2
#     Edge 29, Type (0, 1), BuildingBlock: UVAHIK_clean_linker_0, # of connection points: 2
#     Edge 30, Type (0, 1), BuildingBlock: UVAHIK_clean_linker_0, # of connection points: 2
#     Edge 31, Type (0, 1), BuildingBlock: UVAHIK_clean_linker_0, # of connection points: 2
#     Edge 32, Type (0, 1), BuildingBlock: UVAHIK_clean_linker_0, # of connection points: 2
#     Edge 33, Type (0, 1), BuildingBlock: UVAHIK_clean_linker_0, # of connection points: 2
#     Edge 34, Type (0, 1), BuildingBlock: UVAHIK_clean_linker_0, # of connection points: 2
#     Edge 35, Type (0, 1), BuildingBlock: UVAHIK_clean_linker_0, # of connection points: 2
# Relax obj value: 0.113
# Max RMSD: 0.115
# Mean RMSD: 0.085
data_MOF--net-zzz--node1-MIFKUJ_clean_sbu_0--node2-BETDIP_clean_linker_0--edge1-UVAHIK_clean_linker_0
_symmetry_space_group_name_H-M    P1
_symmetry_Int_Tables_number       1
_symmetry_cell_setting            triclinic
loop_
_symmetry_equiv_pos_as_xyz
'x, y, z'
_cell_length_a     65.968593
_cell_length_b     65.368935
_cell_length_c     20.264035
_cell_angle_alpha  89.939786
_cell_angle_beta   90.049735
_cell_angle_gamma 90.017106
loop_
_atom_site_label
_atom_site_type_symbol
_atom_site_fract_x
_atom_site_fract_y
_atom_site_fract_z
_atom_type_partial_charge
H0 H 0.74559 0.50312 0.19135 0.0
H1 H 0.74101 0.48477 0.9878 0.0
H2 H 0.79552 0.47279 0.09699 0.0
H3 H 0.72861 0.52303 -0.00064 0.0
C4 C 0.71643 0.51575 0.0269 0.0
C5 C 0.75198 0.49555 0.14864 0.0
C6 C 0.77159 0.48714 0.15172 0.0
C7 C 0.74099 0.49483 0.08915 0.0
C8 C 0.74957 0.4854 0.03341 0.0
C9 C 0.76921 0.47729 0.03564 0.0
C10 C 0.77993 0.47804 0.09529 0.0
N11 N 0.72164 0.50427 0.08413 0.0
H12 H 0.98219 0.74449 0.21306 0.0
H13 H 0.97028 0.73975 0.00429 0.0
H14 H 0.97732 0.79875 0.09392 0.0
H15 H 0.9454 0.71128 0.07894 0.0
C16 C 0.96093 0.70579 0.0817 0.0
C17 C 0.97929 0.75171 0.16584 0.0
C18 C 0.97982 0.77315 0.16015 0.0
C19 C 0.97532 0.73961 0.10983 0.0
C20 C 0.97242 0.74902 0.04806 0.0
C21 C 0.97307 0.77033 0.04237 0.0
C22 C 0.97644 0.78223 0.09859 0.0
N23 N 0.97566 0.71796 0.11449 0.0
H24 H 0.76083 0.00462 0.20283 0.0
H25 H 0.76558 0.01797 0.9952 0.0
H26 H 0.71009 0.03022 0.09839 0.0
H27 H 0.78047 0.97911 0.02488 0.0
C28 C 0.79175 0.98922 0.04657 0.0
C29 C 0.75429 0.01075 0.15792 0.0
C30 C 0.73426 0.01813 0.15777 0.0
C31 C 0.76558 0.01064 0.09904 0.0
C32 C 0.75684 0.01809 0.04045 0.0
C33 C 0.73691 0.02549 0.03986 0.0
C34 C 0.72587 0.02557 0.09889 0.0
N35 N 0.78557 0.00262 0.09794 0.0
H36 H 0.5274 0.7598 0.23334 0.0
H37 H 0.53277 0.76038 0.0214 0.0
H38 H 0.5366 0.70359 0.12761 0.0
H39 H 0.55905 0.79172 0.09746 0.0
C40 C 0.5433 0.79662 0.09562 0.0
C41 C 0.52975 0.75172 0.18733 0.0
C42 C 0.53264 0.7304 0.18741 0.0
C43 C 0.53052 0.76263 0.12739 0.0
C44 C 0.53295 0.75203 0.06766 0.0
C45 C 0.53506 0.73072 0.06742 0.0
C46 C 0.53534 0.72014 0.1275 0.0
N47 N 0.52836 0.7842 0.12635 0.0
H48 H 0.26304 0.50483 0.97438 0.0
H49 H 0.26398 0.51904 0.18218 0.0
H50 H 0.20868 0.49951 0.09019 0.0
H51 H 0.28859 0.5465 0.1176 0.0
C52 C 0.29643 0.53196 0.11238 0.0
C53 C 0.25532 0.50593 0.02142 0.0
C54 C 0.23456 0.50126 0.02594 0.0
C55 C 0.26601 0.51243 0.07777 0.0
C56 C 0.25581 0.51427 0.1384 0.0
C57 C 0.23525 0.50925 0.14331 0.0
C58 C 0.22479 0.5027 0.08704 0.0
N59 N 0.28715 0.51634 0.07408 0.0
H60 H 0.02613 0.26863 0.95395 0.0
H61 H 0.01618 0.26701 0.16447 0.0
H62 H 0.037 0.21341 0.06479 0.0
H63 H 0.9867 0.28794 0.11213 0.0
C64 C 0.99887 0.29848 0.09959 0.0
C65 C 0.0267 0.26048 0.0005 0.0
C66 C 0.03271 0.23977 0.00215 0.0
C67 C 0.02073 0.27044 0.05906 0.0
C68 C 0.02084 0.2596 0.11914 0.0
C69 C 0.02716 0.23924 0.12111 0.0
C70 C 0.03317 0.22954 0.06298 0.0
N71 N 0.01464 0.2913 0.05778 0.0
H72 H 0.24216 0.99949 0.97505 0.0
H73 H 0.241 0.98579 0.18329 0.0
H74 H 0.2965 0.00468 0.09133 0.0
H75 H 0.21658 0.95831 0.11918 0.0
C76 C 0.20857 0.97271 0.11272 0.0
C77 C 0.24984 0.99845 0.02222 0.0
C78 C 0.27064 0.00297 0.02684 0.0
C79 C 0.23907 0.99218 0.07866 0.0
C80 C 0.24923 0.99041 0.13948 0.0
C81 C 0.26983 0.99529 0.14447 0.0
C82 C 0.28035 0.00162 0.0881 0.0
N83 N 0.21791 0.9884 0.07483 0.0
H84 H 0.48694 0.23288 0.95766 0.0
H85 H 0.48826 0.23961 0.16954 0.0
H86 H 0.47145 0.29037 0.0477 0.0
H87 H 0.51907 0.21836 0.138 0.0
C88 C 0.50824 0.20699 0.12082 0.0
C89 C 0.48427 0.24201 0.00139 0.0
C90 C 0.47818 0.2626 0.99521 0.0
C91 C 0.48777 0.23353 0.06442 0.0
C92 C 0.48529 0.24582 0.12088 0.0
C93 C 0.47907 0.26617 0.11487 0.0
C94 C 0.47521 0.27426 0.05229 0.0
N95 N 0.49409 0.21283 0.0712 0.0
Zn96 Zn 0.00093 0.02488 0.57008 0.0
Zn97 Zn 0.01269 0.98273 0.63696 0.0
C98 C 0.00234 0.05374 0.67292 0.0
O99 O 0.98273 0.0522 0.66272 0.0
C100 C 0.01592 0.95318 0.54261 0.0
O101 O 0.03396 0.95489 0.56959 0.0
O102 O 0.99496 0.0476 0.50617 0.0
O103 O 0.02108 0.00697 0.52205 0.0
O104 O 0.03845 0.99716 0.60881 0.0
C105 C 0.01139 0.05657 0.49052 0.0
O106 O 0.02861 0.04908 0.51252 0.0
O107 O 0.01419 0.04151 0.64296 0.0
C108 C 0.00238 0.94792 0.69923 0.0
O109 O 0.98552 0.95562 0.67519 0.0
O110 O 0.01851 0.95861 0.69676 0.0
O111 O 0.99084 0.9982 0.68605 0.0
O112 O 0.97474 0.01254 0.60305 0.0
O113 O 0.00251 0.96648 0.55711 0.0
C114 C 0.0379 0.00195 0.548 0.0
C115 C 0.9746 0.00523 0.66115 0.0
Zn116 Zn 0.47986 0.98953 0.57715 0.0
Zn117 Zn 0.52487 0.00721 0.61857 0.0
C118 C 0.45503 0.98618 0.68597 0.0
O119 O 0.45789 0.96718 0.66706 0.0
C120 C 0.54804 0.01416 0.50691 0.0
O121 O 0.54429 0.0326 0.52952 0.0
O122 O 0.45558 0.97899 0.52713 0.0
O123 O 0.49059 0.01249 0.51987 0.0
O124 O 0.50526 0.03016 0.59869 0.0
C125 C 0.44112 0.99186 0.5278 0.0
O126 O 0.4443 0.0102 0.55217 0.0
O127 O 0.46593 1.00008 0.65985 0.0
C128 C 0.56345 0.00627 0.66782 0.0
O129 O 0.56062 0.9879 0.64319 0.0
O130 O 0.54868 0.01877 0.66841 0.0
O131 O 0.51649 0.98263 0.67245 0.0
O132 O 0.4973 0.96536 0.60272 0.0
O133 O 0.53901 0.99904 0.53351 0.0
C134 C 0.49663 0.02953 0.54265 0.0
C135 C 0.50851 0.96592 0.65374 0.0
Zn136 Zn 0.50554 0.48031 0.56112 0.0
Zn137 Zn 0.49307 0.51869 0.64034 0.0
C138 C 0.50933 0.44641 0.64176 0.0
O139 O 0.5274 0.44908 0.61581 0.0
C140 C 0.49188 0.54862 0.54377 0.0
O141 O 0.47357 0.54848 0.56932 0.0
O142 O 0.51246 0.46087 0.48766 0.0
O143 O 0.48307 0.49759 0.52205 0.0
O144 O 0.46642 0.50619 0.61151 0.0
C145 C 0.49646 0.45191 0.46773 0.0
O146 O 0.47891 0.45744 0.49254 0.0
O147 O 0.49573 0.45979 0.63004 0.0
C148 C 0.50537 0.55246 0.70549 0.0
O149 O 0.52177 0.54453 0.67917 0.0
O150 O 0.48883 0.54245 0.70243 0.0
O151 O 0.51394 0.50087 0.68595 0.0
O152 O 0.53089 0.49412 0.59556 0.0
O153 O 0.50432 0.53475 0.56174 0.0
C154 C 0.46647 0.50212 0.55019 0.0
C155 C 0.53069 0.49732 0.65738 0.0
Zn156 Zn 0.02552 0.512 0.57334 0.0
Zn157 Zn 0.98096 0.49337 0.61397 0.0
C158 C 0.05026 0.51534 0.68254 0.0
O159 O 0.04708 0.53436 0.66421 0.0
C160 C 0.95757 0.48743 0.50193 0.0
O161 O 0.96131 0.46879 0.52292 0.0
O162 O 0.0496 0.52335 0.52418 0.0
O163 O 0.01538 0.48911 0.51488 0.0
O164 O 1.0007 0.47079 0.59221 0.0
C165 C 0.06431 0.51078 0.52451 0.0
O166 O 0.0615 0.49226 0.54797 0.0
O167 O 0.03961 0.50135 0.65583 0.0
C168 C 0.94233 0.49321 0.6632 0.0
O169 O 0.94467 0.51176 0.63931 0.0
O170 O 0.95741 0.48108 0.66323 0.0
O171 O 0.98924 0.51753 0.66971 0.0
O172 O 0.00749 0.53561 0.59951 0.0
O173 O 0.96671 0.50227 0.52969 0.0
C174 C 0.00946 0.47187 0.53651 0.0
C175 C 0.99663 0.53453 0.65116 0.0
C176 C 0.18123 0.96024 0.18697 0.0
C177 C 0.19032 0.97658 0.15324 0.0
C178 C 0.16498 0.96364 0.22976 0.0
C179 C 0.12585 0.00212 0.2754 0.0
H180 H 0.1221 0.96897 0.43375 0.0
C181 C 0.05414 0.002 0.43662 0.0
C182 C 0.05606 0.99992 0.50542 0.0
C183 C 0.07093 0.99985 0.39543 0.0
C184 C 0.12302 0.97857 0.39027 0.0
H185 H 0.18953 0.00937 0.13751 0.0
H186 H 0.16147 0.01546 0.21332 0.0
H187 H 0.15049 0.96424 0.35888 0.0
H188 H 0.07731 0.99418 0.58491 0.0
H189 H 0.10688 0.99093 0.51297 0.0
H190 H 0.09878 0.01693 0.30792 0.0
C191 C 0.16655 0.99989 0.20579 0.0
C192 C 0.13917 0.97562 0.34661 0.0
C193 C 0.18269 0.99643 0.16237 0.0
C194 C 0.0753 0.99579 0.53211 0.0
C195 C 0.09222 0.99381 0.49076 0.0
C196 C 0.10981 0.00519 0.31936 0.0
C197 C 0.15758 0.98355 0.24055 0.0
C198 C 0.14069 0.98718 0.28815 0.0
C199 C 0.09024 0.99579 0.42178 0.0
C200 C 0.10802 0.99329 0.37701 0.0
H201 H 0.18684 0.94478 0.18069 0.0
H202 H 0.15822 0.9506 0.25433 0.0
H203 H 0.12637 0.01122 0.23078 0.0
H204 H 0.03954 0.00506 0.41418 0.0
H205 H 0.06865 1.00104 0.34264 0.0
C206 C 0.49218 0.17251 0.14244 0.0
C207 C 0.50629 0.18777 0.1591 0.0
C208 C 0.49001 0.1551 0.18245 0.0
C209 C 0.49821 0.13761 0.35328 0.0
H210 H 0.49661 0.08287 0.28021 0.0
C211 C 0.50634 0.06593 0.51789 0.0
C212 C 0.49563 0.04814 0.50063 0.0
C213 C 0.50641 0.08297 0.47599 0.0
C214 C 0.49669 0.09805 0.30152 0.0
H215 H 0.52933 0.19671 0.22956 0.0
H216 H 0.5255 0.16653 0.29925 0.0
H217 H 0.49883 0.11233 0.20634 0.0
H218 H 0.47602 0.03458 0.42662 0.0
H219 H 0.47567 0.06444 0.3546 0.0
H220 H 0.49587 0.12355 0.44827 0.0
C221 C 0.51602 0.16798 0.2558 0.0
C222 C 0.49802 0.11493 0.25906 0.0
C223 C 0.51832 0.18519 0.21564 0.0
C224 C 0.48458 0.04798 0.44124 0.0
C225 C 0.4845 0.06508 0.39962 0.0
C226 C 0.4967 0.12079 0.39567 0.0
C227 C 0.50173 0.15281 0.2401 0.0
C228 C 0.49907 0.13488 0.28453 0.0
C229 C 0.49558 0.08275 0.41605 0.0
C230 C 0.49618 0.10074 0.37051 0.0
H231 H 0.48268 0.17411 0.09913 0.0
H232 H 0.47882 0.14368 0.1692 0.0
H233 H 0.49865 0.15282 0.37439 0.0
H234 H 0.51511 0.06656 0.56306 0.0
H235 H 0.51539 0.09613 0.49001 0.0
C236 C 0.32132 0.50785 0.16553 0.0
C237 C 0.31411 0.52782 0.15535 0.0
C238 C 0.33699 0.50416 0.21066 0.0
C239 C 0.36405 0.5281 0.35299 0.0
H240 H 0.40434 0.48665 0.31512 0.0
C241 C 0.42884 0.50815 0.53711 0.0
C242 C 0.44794 0.50425 0.50916 0.0
C243 C 0.41163 0.51004 0.49676 0.0
C244 C 0.39331 0.4984 0.32638 0.0
H245 H 0.31776 0.55956 0.18307 0.0
H246 H 0.34558 0.55333 0.25975 0.0
H247 H 0.3768 0.49238 0.23774 0.0
H248 H 0.46391 0.49953 0.41666 0.0
H249 H 0.43436 0.50336 0.34717 0.0
H250 H 0.38116 0.53475 0.4402 0.0
C251 C 0.33885 0.54039 0.23461 0.0
C252 C 0.3773 0.5015 0.28228 0.0
C253 C 0.32307 0.54402 0.19008 0.0
C254 C 0.44944 0.50239 0.44018 0.0
C255 C 0.43239 0.50442 0.4001 0.0
C256 C 0.38019 0.52512 0.39686 0.0
C257 C 0.34591 0.52038 0.24613 0.0
C258 C 0.36255 0.51653 0.29456 0.0
C259 C 0.41321 0.50816 0.42765 0.0
C260 C 0.39519 0.51041 0.38371 0.0
H261 H 0.31455 0.49501 0.13999 0.0
H262 H 0.34179 0.48852 0.21873 0.0
H263 H 0.35278 0.53955 0.3649 0.0
H264 H 0.42716 0.50962 0.59006 0.0
H265 H 0.39708 0.51276 0.51979 0.0
C266 C 0.98773 0.32033 0.19284 0.0
C267 C 0.00101 0.31728 0.13969 0.0
C268 C 0.99012 0.33707 0.23484 0.0
C269 C 0.01067 0.38879 0.24689 0.0
H270 H 0.00924 0.37854 0.43539 0.0
C271 C 0.02275 0.45392 0.43611 0.0
C272 C 0.01083 0.45355 0.49358 0.0
C273 C 0.02315 0.43712 0.3934 0.0
C274 C 0.00942 0.38177 0.38298 0.0
H275 H 0.02694 0.32965 0.08752 0.0
H276 H 0.0309 0.35935 0.1606 0.0
H277 H 0.00652 0.35003 0.35861 0.0
H278 H 0.99012 0.43508 0.55153 0.0
H279 H 0.99029 0.4061 0.47637 0.0
H280 H 0.01287 0.42057 0.27087 0.0
C281 C 0.01872 0.34861 0.16986 0.0
C282 C 0.00795 0.36538 0.33898 0.0
C283 C 0.01648 0.33163 0.12817 0.0
C284 C 0.99956 0.43585 0.50789 0.0
C285 C 0.99976 0.41914 0.4648 0.0
C286 C 0.01189 0.40525 0.29091 0.0
C287 C 0.00572 0.35131 0.22421 0.0
C288 C 0.00839 0.36872 0.27049 0.0
C289 C 0.01147 0.41957 0.40669 0.0
C290 C 0.0111 0.40198 0.35964 0.0
H291 H 0.97567 0.30949 0.20279 0.0
H292 H 0.97971 0.33889 0.27574 0.0
H293 H 0.01088 0.39182 0.19433 0.0
H294 H 0.03176 0.46725 0.42388 0.0
H295 H 0.03266 0.43791 0.34997 0.0
C296 C 0.81594 0.97835 0.95965 0.0
C297 C 0.81154 0.99131 0.01286 0.0
C298 C 0.83368 0.98093 0.92307 0.0
C299 C 0.8847 0.00433 0.92724 0.0
H300 H 0.88134 0.99745 0.73741 0.0
C301 C 0.95574 0.99603 0.76411 0.0
C302 C 0.95582 0.00526 0.70137 0.0
C303 C 0.93817 0.99576 0.80246 0.0
C304 C 0.88253 0.99966 0.79023 0.0
H305 H 0.82241 0.01699 0.07049 0.0
H306 H 0.85348 0.02163 0.00626 0.0
H307 H 0.85082 0.99441 0.8042 0.0
H308 H 0.93741 0.02165 0.6301 0.0
H309 H 0.90668 0.02132 0.69746 0.0
H310 H 0.91639 0.00984 0.9131 0.0
C311 C 0.84326 0.00932 0.99311 0.0
C312 C 0.86506 0.99764 0.82869 0.0
C313 C 0.82546 0.0067 0.02987 0.0
C314 C 0.93786 0.01433 0.67806 0.0
C315 C 0.92023 0.01407 0.71659 0.0
C316 C 0.90218 0.00636 0.88874 0.0
C317 C 0.84745 0.99661 0.9387 0.0
C318 C 0.86595 0.9997 0.89776 0.0
C319 C 0.92017 0.00474 0.77925 0.0
C320 C 0.90136 0.00382 0.81981 0.0
H321 H 0.80546 0.96634 0.94562 0.0
H322 H 0.83659 0.9706 0.88243 0.0
H323 H 0.88597 0.00592 0.98027 0.0
H324 H 0.96925 0.98878 0.78361 0.0
H325 H 0.93861 0.98811 0.84989 0.0
C326 C 0.55338 0.82835 0.03668 0.0
C327 C 0.53803 0.81462 0.05474 0.0
C328 C 0.54936 0.84444 0.99318 0.0
C329 C 0.50737 0.87357 0.91178 0.0
H330 H 0.5507 0.88938 0.79291 0.0
C331 C 0.49768 0.9311 0.69346 0.0
C332 C 0.51174 0.94727 0.69409 0.0
C333 C 0.5002 0.91423 0.73548 0.0
C334 C 0.53848 0.88513 0.82587 0.0
H335 H 0.50634 0.80692 0.04184 0.0
H336 H 0.49937 0.83459 0.96396 0.0
H337 H 0.55604 0.86146 0.87048 0.0
H338 H 0.53976 0.95814 0.73785 0.0
H339 H 0.54444 0.92847 0.80944 0.0
H340 H 0.48971 0.8971 0.86508 0.0
C341 C 0.51445 0.83337 0.98471 0.0
C342 C 0.54156 0.86923 0.87088 0.0
C343 C 0.51842 0.81744 0.02931 0.0
C344 C 0.52863 0.94596 0.73626 0.0
C345 C 0.53136 0.92896 0.77712 0.0
C346 C 0.5042 0.88929 0.86583 0.0
C347 C 0.52995 0.84696 0.96531 0.0
C348 C 0.52618 0.86341 0.91536 0.0
C349 C 0.51708 0.91303 0.77771 0.0
C350 C 0.51983 0.89541 0.82312 0.0
H351 H 0.56862 0.82652 0.05582 0.0
H352 H 0.56159 0.85485 0.98124 0.0
H353 H 0.49522 0.86976 0.94549 0.0
H354 H 0.48447 0.9317 0.66172 0.0
H355 H 0.48903 0.90209 0.73479 0.0
C356 C 0.67961 0.50524 0.02632 0.0
C357 C 0.69648 0.51376 0.99416 0.0
C358 C 0.66123 0.50274 0.99236 0.0
C359 C 0.64092 0.49566 0.82607 0.0
H360 H 0.5903 0.5165 0.89563 0.0
C361 C 0.56858 0.49983 0.66566 0.0
C362 C 0.54968 0.49728 0.69639 0.0
C363 C 0.58634 0.50092 0.70337 0.0
C364 C 0.60419 0.51022 0.87582 0.0
H365 H 0.70743 0.52646 0.90209 0.0
H366 H 0.67557 0.52175 0.84267 0.0
H367 H 0.62128 0.51977 0.96055 0.0
H368 H 0.53464 0.49318 0.79057 0.0
H369 H 0.56553 0.49422 0.85595 0.0
H370 H 0.62401 0.48567 0.74209 0.0
C371 C 0.67647 0.51705 0.89388 0.0
C372 C 0.62196 0.51219 0.91308 0.0
C373 C 0.69464 0.51986 0.92799 0.0
C374 C 0.54896 0.49535 0.76542 0.0
C375 C 0.56672 0.49611 0.80302 0.0
C376 C 0.62314 0.49338 0.78925 0.0
C377 C 0.65961 0.50837 0.92552 0.0
C378 C 0.64053 0.50517 0.88818 0.0
C379 C 0.58566 0.49916 0.77269 0.0
C380 C 0.60453 0.50084 0.81319 0.0
H381 H 0.68063 0.50043 0.07736 0.0
H382 H 0.64844 0.49599 0.01782 0.0
H383 H 0.65503 0.48988 0.80606 0.0
H384 H 0.56961 0.50152 0.61259 0.0
H385 H 0.60054 0.50362 0.67809 0.0
C386 C 0.98645 0.68375 0.0231 0.0
C387 C 0.96649 0.68712 0.04473 0.0
C388 C 0.99091 0.66709 0.98217 0.0
C389 C 0.97406 0.61612 0.93489 0.0
H390 H 0.99842 0.62697 0.76434 0.0
C391 C 0.97671 0.55363 0.73586 0.0
C392 C 0.99335 0.55285 0.69277 0.0
C393 C 0.97409 0.5702 0.77845 0.0
C394 C 0.99196 0.62352 0.81215 0.0
H395 H 0.93572 0.67566 0.04211 0.0
H396 H 0.94367 0.64609 0.97272 0.0
H397 H 0.99365 0.65493 0.84258 0.0
H398 H 0.02023 0.56897 0.66009 0.0
H399 H 0.01622 0.59751 0.73638 0.0
H400 H 0.97281 0.58475 0.90623 0.0
C401 C 0.95578 0.6564 0.98681 0.0
C402 C 0.98917 0.6396 0.85683 0.0
C403 C 0.95124 0.67328 0.02639 0.0
C404 C 0.00719 0.56918 0.69251 0.0
C405 C 0.0048 0.58562 0.73618 0.0
C406 C 0.97719 0.59998 0.89088 0.0
C407 C 0.97558 0.65332 0.9635 0.0
C408 C 0.97994 0.63608 0.91821 0.0
C409 C 0.98829 0.58628 0.78025 0.0
C410 C 0.98587 0.60347 0.82832 0.0
H411 H 0.99846 0.69433 0.0359 0.0
H412 H 0.0063 0.66498 0.9649 0.0
H413 H 0.96709 0.61299 0.98223 0.0
H414 H 0.96564 0.54138 0.73668 0.0
H415 H 0.96084 0.57034 0.80992 0.0
C416 C 0.04313 0.21647 0.20409 0.0
C417 C 0.0259 0.22695 0.18186 0.0
C418 C 0.04116 0.20029 0.24839 0.0
C419 C 0.00607 0.17133 0.35643 0.0
H420 H 0.03556 0.12497 0.2855 0.0
C421 C 0.99363 0.08722 0.44272 0.0
C422 C 0.01153 0.07609 0.45404 0.0
C423 C 0.99445 0.10649 0.41255 0.0
C424 C 0.02736 0.13778 0.30634 0.0
H425 H 0.9934 0.23014 0.19188 0.0
H426 H 0.98984 0.20155 0.26917 0.0
H427 H 0.03964 0.15842 0.23539 0.0
H428 H 0.04425 0.0763 0.44212 0.0
H429 H 0.04563 0.10963 0.39009 0.0
H430 H 0.99372 0.15036 0.42739 0.0
C431 C 0.00487 0.20594 0.25305 0.0
C432 C 0.02979 0.15699 0.27789 0.0
C433 C 0.00689 0.22231 0.20903 0.0
C434 C 0.03015 0.08442 0.43391 0.0
C435 C 0.03096 0.10352 0.40382 0.0
C436 C 0.00366 0.15199 0.38519 0.0
C437 C 0.02188 0.19414 0.27035 0.0
C438 C 0.01937 0.17403 0.30298 0.0
C439 C 0.01317 0.1148 0.3929 0.0
C440 C 0.01447 0.13509 0.36071 0.0
H441 H 0.05792 0.21989 0.18366 0.0
H442 H 0.05458 0.19175 0.26217 0.0
H443 H 0.99778 0.1842 0.37652 0.0
H444 H 0.97908 0.08122 0.45815 0.0
H445 H 0.98049 0.11482 0.40424 0.0
C446 C 0.29373 0.00907 0.22839 0.0
C447 C 0.28087 0.99326 0.20755 0.0
C448 C 0.30673 0.00616 0.28171 0.0
C449 C 0.33469 0.96526 0.36231 0.0
H450 H 0.35224 0.01025 0.47278 0.0
C451 C 0.41667 0.97432 0.45255 0.0
C452 C 0.42044 0.98599 0.50912 0.0
C453 C 0.39673 0.97129 0.43101 0.0
C454 C 0.34738 0.99726 0.44371 0.0
H455 H 0.27055 0.96244 0.22803 0.0
H456 H 0.29337 0.95731 0.32224 0.0
H457 H 0.32086 0.01314 0.41138 0.0
H458 H 0.40673 0.00184 0.59165 0.0
H459 H 0.372 0.9958 0.55606 0.0
H460 H 0.36137 0.94945 0.39417 0.0
C461 C 0.29347 0.9719 0.29683 0.0
C462 C 0.32944 0.99906 0.40782 0.0
C463 C 0.28033 0.97487 0.24342 0.0
C464 C 0.40411 0.9932 0.5468 0.0
C465 C 0.38424 0.98978 0.52629 0.0
C466 C 0.35259 0.96336 0.39877 0.0
C467 C 0.30716 0.98735 0.3154 0.0
C468 C 0.32337 0.98347 0.36454 0.0
C469 C 0.38031 0.97955 0.46665 0.0
C470 C 0.35956 0.97968 0.43786 0.0
H471 H 0.2943 0.02343 0.20171 0.0
H472 H 0.31724 0.0183 0.29407 0.0
H473 H 0.33044 0.95297 0.32927 0.0
H474 H 0.4291 0.96857 0.42304 0.0
H475 H 0.39434 0.96349 0.38456 0.0
C476 C 0.49722 0.28342 0.20709 0.0
C477 C 0.47918 0.28021 0.17177 0.0
C478 C 0.49942 0.30078 0.24668 0.0
C479 C 0.4805 0.353 0.24555 0.0
H480 H 0.5091 0.35922 0.41153 0.0
C481 C 0.47956 0.42743 0.39254 0.0
C482 C 0.49726 0.43373 0.42516 0.0
C483 C 0.47885 0.40864 0.36052 0.0
C484 C 0.50137 0.35769 0.36462 0.0
H485 H 0.4486 0.29109 0.1553 0.0
H486 H 0.45222 0.32114 0.22574 0.0
H487 H 0.5034 0.32492 0.36641 0.0
H488 H 0.52835 0.4257 0.44823 0.0
H489 H 0.52714 0.39259 0.39132 0.0
H490 H 0.47846 0.38559 0.24325 0.0
C491 C 0.46485 0.31063 0.22156 0.0
C492 C 0.49798 0.33809 0.33915 0.0
C493 C 0.46269 0.29338 0.18183 0.0
C494 C 0.51457 0.42124 0.42293 0.0
C495 C 0.5138 0.40225 0.39113 0.0
C496 C 0.48391 0.37248 0.27079 0.0
C497 C 0.48357 0.31506 0.2514 0.0
C498 C 0.48723 0.33558 0.27985 0.0
C499 C 0.4958 0.39567 0.36055 0.0
C500 C 0.49412 0.37504 0.331 0.0
H501 H 0.51018 0.27352 0.19957 0.0
H502 H 0.51401 0.30381 0.26919 0.0
H503 H 0.47271 0.35159 0.19868 0.0
H504 H 0.46599 0.43676 0.39353 0.0
H505 H 0.4647 0.40392 0.338 0.0
C506 C 0.21145 0.49549 0.22752 0.0
C507 C 0.22418 0.51134 0.20625 0.0
C508 C 0.19852 0.49839 0.28093 0.0
C509 C 0.17039 0.53915 0.36088 0.0
H510 H 0.15345 0.49417 0.47262 0.0
C511 C 0.08854 0.52892 0.45006 0.0
C512 C 0.08489 0.51719 0.50664 0.0
C513 C 0.10845 0.53235 0.42908 0.0
C514 C 0.15814 0.50717 0.44322 0.0
H515 H 0.23434 0.54226 0.22595 0.0
H516 H 0.21162 0.54738 0.32025 0.0
H517 H 0.1848 0.49153 0.41118 0.0
H518 H 0.09873 0.50169 0.5898 0.0
H519 H 0.1334 0.50846 0.55521 0.0
H520 H 0.14353 0.5547 0.39236 0.0
C521 C 0.21158 0.53276 0.29516 0.0
C522 C 0.17606 0.50551 0.40731 0.0
C523 C 0.22465 0.52979 0.24169 0.0
C524 C 0.10127 0.51037 0.54496 0.0
C525 C 0.12111 0.51421 0.52502 0.0
C526 C 0.15249 0.5409 0.39735 0.0
C527 C 0.19803 0.51724 0.31424 0.0
C528 C 0.1819 0.52107 0.36353 0.0
C529 C 0.12497 0.52445 0.46529 0.0
C530 C 0.14574 0.52457 0.43685 0.0
H531 H 0.21094 0.48107 0.20119 0.0
H532 H 0.18811 0.48619 0.29369 0.0
H533 H 0.17446 0.55142 0.32746 0.0
H534 H 0.07606 0.53437 0.42007 0.0
H535 H 0.11079 0.54014 0.38254 0.0
C536 C 0.98807 0.77706 0.93185 0.0
C537 C 0.97256 0.78065 0.97773 0.0
C538 C 0.99139 0.7909 0.8803 0.0
C539 C 0.97038 0.83695 0.79665 0.0
H540 H 0.02597 0.85629 0.8023 0.0
C541 C 0.9913 0.91262 0.67515 0.0
C542 C 0.00297 0.92593 0.71404 0.0
C543 C 0.98992 0.89196 0.69094 0.0
C544 C 0.01041 0.85105 0.80004 0.0
H545 H 0.94722 0.80011 0.00299 0.0
H546 H 0.95277 0.82413 0.91301 0.0
H547 H 0.01708 0.82408 0.85582 0.0
H548 H 0.02334 0.9281 0.79736 0.0
H549 H 0.02021 0.89189 0.82755 0.0
H550 H 0.96333 0.86448 0.74517 0.0
C551 C 0.96242 0.81076 0.91622 0.0
C552 C 0.00536 0.83244 0.82979 0.0
C553 C 0.95922 0.79705 0.96785 0.0
C554 C 0.01415 0.91807 0.76708 0.0
C555 C 0.01245 0.89734 0.78385 0.0
C556 C 0.97539 0.85555 0.76717 0.0
C557 C 0.97912 0.80837 0.87383 0.0
C558 C 0.98515 0.82554 0.83026 0.0
C559 C 0.99983 0.88419 0.74693 0.0
C560 C 0.99535 0.86312 0.77019 0.0
H561 H 0.99863 0.76456 0.93901 0.0
H562 H 0.00422 0.78857 0.84785 0.0
H563 H 0.95472 0.83194 0.79575 0.0
H564 H 0.98296 0.91826 0.63277 0.0
H565 H 0.98059 0.88218 0.6603 0.0
C566 C 0.72849 0.01787 0.92193 0.0
C567 C 0.72644 0.03068 0.97716 0.0
C568 C 0.71484 0.01935 0.86946 0.0
C569 C 0.66994 0.04809 0.80467 0.0
H570 H 0.64962 0.99323 0.77458 0.0
C571 C 0.58715 0.02942 0.72972 0.0
C572 C 0.58397 0.01245 0.68862 0.0
C573 C 0.60674 0.03429 0.75129 0.0
C574 C 0.65526 0.00866 0.7811 0.0
H575 H 0.71033 0.05685 0.01662 0.0
H576 H 0.68603 0.05886 0.92662 0.0
H577 H 0.6814 0.99787 0.83189 0.0
H578 H 0.59882 0.9882 0.63377 0.0
H579 H 0.63279 0.99686 0.67031 0.0
H580 H 0.64304 0.05875 0.75591 0.0
C581 C 0.69815 0.04774 0.92336 0.0
C582 C 0.67361 0.01134 0.81384 0.0
C583 C 0.71194 0.04643 0.97544 0.0
C584 C 0.60073 1.00108 0.66682 0.0
C585 C 0.62022 0.00605 0.68765 0.0
C586 C 0.65145 0.04539 0.77179 0.0
C587 C 0.69877 0.03346 0.87161 0.0
C588 C 0.68102 0.03107 0.82718 0.0
C589 C 0.62342 0.02236 0.73149 0.0
C590 C 0.64378 0.02562 0.7607 0.0
H591 H 0.73953 0.00562 0.92143 0.0
H592 H 0.71604 0.00847 0.82935 0.0
H593 H 0.67531 0.06349 0.81381 0.0
H594 H 0.57448 0.03852 0.74679 0.0
H595 H 0.6087 0.04686 0.78546 0.0
C596 C 0.5486 0.70263 0.99712 0.0
C597 C 0.53497 0.7189 0.00533 0.0
C598 C 0.54557 0.68829 0.94729 0.0
C599 C 0.50334 0.66557 0.85716 0.0
H600 H 0.54657 0.63415 0.777 0.0
C601 C 0.49407 0.58112 0.77902 0.0
C602 C 0.50586 0.57397 0.7264 0.0
C603 C 0.49624 0.60134 0.80079 0.0
C604 C 0.5342 0.6429 0.79781 0.0
H605 H 0.50847 0.73396 0.96491 0.0
H606 H 0.50333 0.709 0.87657 0.0
H607 H 0.55439 0.66637 0.83057 0.0
H608 H 0.5277 0.58252 0.65134 0.0
H609 H 0.53091 0.61776 0.68742 0.0
H610 H 0.48315 0.64202 0.82441 0.0
C611 C 0.51616 0.70716 0.90944 0.0
C612 C 0.53876 0.6613 0.82918 0.0
C613 C 0.51924 0.72157 0.95941 0.0
C614 C 0.51885 0.58755 0.69332 0.0
C615 C 0.52071 0.60774 0.71407 0.0
C616 C 0.49875 0.6472 0.82529 0.0
C617 C 0.52884 0.68994 0.90455 0.0
C618 C 0.52349 0.67254 0.86093 0.0
C619 C 0.50993 0.61475 0.76932 0.0
C620 C 0.51421 0.63538 0.79673 0.0
H621 H 0.56091 0.70033 0.03176 0.0
H622 H 0.55556 0.67516 0.94532 0.0
H623 H 0.49124 0.67377 0.88166 0.0
H624 H 0.48388 0.57091 0.8049 0.0
H625 H 0.4878 0.60618 0.84383 0.0
C626 C 0.79452 0.45517 0.97666 0.0
C627 C 0.77984 0.47077 0.9745 0.0
C628 C 0.80846 0.45294 0.92537 0.0
C629 C 0.8326 0.48747 0.80855 0.0
H630 H 0.86419 0.43967 0.76123 0.0
C631 C 0.90493 0.49676 0.65952 0.0
C632 C 0.92202 0.48644 0.68391 0.0
C633 C 0.88559 0.49148 0.68096 0.0
C634 C 0.85549 0.45313 0.77412 0.0
H635 H 0.76663 0.49441 0.91254 0.0
H636 H 0.79022 0.4898 0.82202 0.0
H637 H 0.83206 0.43542 0.82027 0.0
H638 H 0.93233 0.46178 0.74705 0.0
H639 H 0.89835 0.45298 0.78692 0.0
H640 H 0.85613 0.50526 0.76523 0.0
C641 C 0.7915 0.47984 0.8646 0.0
C642 C 0.83708 0.4507 0.80767 0.0
C643 C 0.77777 0.4823 0.91629 0.0
C644 C 0.91937 0.47007 0.72798 0.0
C645 C 0.89993 0.46494 0.75026 0.0
C646 C 0.85085 0.48987 0.77518 0.0
C647 C 0.80778 0.46608 0.87048 0.0
C648 C 0.8256 0.46791 0.82618 0.0
C649 C 0.88289 0.47596 0.72811 0.0
C650 C 0.86268 0.47279 0.7584 0.0
H651 H 0.79614 0.44562 0.02006 0.0
H652 H 0.82071 0.44208 0.93145 0.0
H653 H 0.82453 0.50111 0.82354 0.0
H654 H 0.90647 0.50909 0.62412 0.0
H655 H 0.87275 0.49992 0.6617 0.0
C656 C 0.05178 0.21279 0.94085 0.0
C657 C 0.03612 0.22738 0.94165 0.0
C658 C 0.05106 0.19619 0.89755 0.0
C659 C 0.01149 0.16646 0.8107 0.0
H660 H 0.05705 0.13148 0.76809 0.0
C661 C 0.99844 0.08166 0.75537 0.0
C662 C 0.01016 0.0722 0.70643 0.0
C663 C 0.00356 0.10108 0.77882 0.0
C664 C 0.04411 0.1411 0.77881 0.0
H665 H 0.00896 0.23757 0.89147 0.0
H666 H 0.00833 0.20932 0.81283 0.0
H667 H 0.06312 0.1663 0.80559 0.0
H668 H 0.03674 0.0754 0.64459 0.0
H669 H 0.04544 0.10959 0.68406 0.0
H670 H 0.99246 0.14164 0.78187 0.0
C671 C 0.02065 0.21005 0.84808 0.0
C672 C 0.0476 0.16109 0.80111 0.0
C673 C 0.0212 0.22653 0.89229 0.0
C674 C 0.02761 0.08221 0.68316 0.0
C675 C 0.03254 0.10187 0.70574 0.0
C676 C 0.00801 0.14665 0.78752 0.0
C677 C 0.03484 0.19397 0.85295 0.0
C678 C 0.03134 0.17392 0.81902 0.0
C679 C 0.02026 0.1118 0.75271 0.0
C680 C 0.02425 0.13344 0.773 0.0
H681 H 0.06362 0.21319 0.9779 0.0
H682 H 0.06236 0.18432 0.90325 0.0
H683 H 0.99848 0.17556 0.82459 0.0
H684 H 0.98494 0.07426 0.7743 0.0
H685 H 0.9941 0.10783 0.8166 0.0
C686 C 0.29458 0.02551 0.96559 0.0
C687 C 0.28334 0.00729 0.96842 0.0
C688 C 0.31119 0.02723 0.92313 0.0
C689 C 0.34005 0.99995 0.7899 0.0
H690 H 0.38653 0.02403 0.87804 0.0
C691 C 0.42176 0.97595 0.73418 0.0
C692 C 0.43608 0.99142 0.72154 0.0
C693 C 0.40254 0.98077 0.7581 0.0
C694 C 0.37365 0.01753 0.85236 0.0
H695 H 0.2798 0.97706 0.92701 0.0
H696 H 0.30894 0.97974 0.85374 0.0
H697 H 0.35289 0.0278 0.92598 0.0
H698 H 0.44158 0.02409 0.7266 0.0
H699 H 0.40797 0.03244 0.77117 0.0
H700 H 0.36121 0.9887 0.71834 0.0
C701 C 0.30482 0.99298 0.88285 0.0
C702 C 0.35428 0.01976 0.87954 0.0
C703 C 0.28803 0.99139 0.9247 0.0
C704 C 0.43096 0.01181 0.73616 0.0
C705 C 0.41172 0.0166 0.76129 0.0
C706 C 0.35946 0.9975 0.76327 0.0
C707 C 0.31716 0.0106 0.88357 0.0
C708 C 0.33724 0.01062 0.84947 0.0
C709 C 0.3972 1.00114 0.77104 0.0
C710 C 0.37648 0.00588 0.79503 0.0
H711 H 0.2913 0.03791 -0.00063 0.0
H712 H 0.31996 0.04124 0.92387 0.0
H713 H 0.32732 0.99307 0.76449 0.0
H714 H 0.4251 0.96008 0.7235 0.0
H715 H 0.39177 0.96851 0.7663 0.0
C716 C 0.46126 0.2863 0.91587 0.0
C717 C 0.4779 0.27372 0.93139 0.0
C718 C 0.46347 0.30278 0.87237 0.0
C719 C 0.50378 0.33834 0.82774 0.0
H720 H 0.46385 0.36245 0.7107 0.0
C721 C 0.52041 0.41255 0.68575 0.0
C722 C 0.50479 0.42689 0.67632 0.0
C723 C 0.5164 0.39333 0.71271 0.0
C724 C 0.47505 0.35603 0.74389 0.0
H725 H 0.50927 0.26724 0.90856 0.0
H726 H 0.51306 0.29572 0.83122 0.0
H727 H 0.45808 0.32825 0.75644 0.0
H728 H 0.47261 0.43226 0.68891 0.0
H729 H 0.46561 0.39866 0.7379 0.0
H730 H 0.5205 0.36612 0.81725 0.0
C731 C 0.49839 0.29309 0.85363 0.0
C732 C 0.47181 0.33636 0.76967 0.0
C733 C 0.49614 0.27654 0.897 0.0
C734 C 0.48501 0.42161 0.69578 0.0
C735 C 0.48098 0.40227 0.72317 0.0
C736 C 0.50695 0.35796 0.80245 0.0
C737 C 0.4824 0.30705 0.84371 0.0
C738 C 0.48619 0.32726 0.81176 0.0
C739 C 0.49665 0.38784 0.73167 0.0
C740 C 0.4927 0.3671 0.75997 0.0
H741 H 0.44708 0.28454 0.94223 0.0
H742 H 0.45084 0.31318 0.86591 0.0
H743 H 0.51491 0.3321 0.86153 0.0
H744 H 0.53583 0.41597 0.67106 0.0
H745 H 0.52882 0.38259 0.7173 0.0
C746 C 0.21091 0.4783 0.96514 0.0
C747 C 0.22194 0.49665 0.96753 0.0
C748 C 0.19437 0.47626 0.92243 0.0
C749 C 0.16535 0.50287 0.78775 0.0
H750 H 0.11906 0.4784 0.87572 0.0
C751 C 0.08342 0.52592 0.73082 0.0
C752 C 0.06927 0.51029 0.71815 0.0
C753 C 0.10269 0.52131 0.75493 0.0
C754 C 0.1319 0.485 0.85009 0.0
H755 H 0.22517 0.52681 0.92513 0.0
H756 H 0.19615 0.52359 0.85146 0.0
H757 H 0.15268 0.47513 0.92437 0.0
H758 H 0.06414 0.47756 0.7233 0.0
H759 H 0.09783 0.46959 0.76827 0.0
H760 H 0.14414 0.51373 0.71555 0.0
C761 C 0.20039 0.51048 0.88109 0.0
C762 C 0.15126 0.48306 0.87768 0.0
C763 C 0.21711 0.51238 0.92319 0.0
C764 C 0.07463 0.48996 0.73288 0.0
C765 C 0.09391 0.48538 0.75823 0.0
C766 C 0.14596 0.50503 0.76072 0.0
C767 C 0.18826 0.49271 0.88218 0.0
C768 C 0.16822 0.49235 0.84768 0.0
C769 C 0.10825 0.50101 0.76806 0.0
C770 C 0.12899 0.49651 0.79242 0.0
H771 H 0.2143 0.46602 -0.00061 0.0
H772 H 0.18578 0.46215 0.92349 0.0
H773 H 0.17803 0.50986 0.76238 0.0
H774 H 0.07992 0.54176 0.72003 0.0
H775 H 0.11332 0.53369 0.76315 0.0
C776 C 0.97165 0.78985 0.26832 0.0
C777 C 0.98515 0.78673 0.21582 0.0
C778 C 0.97462 0.80621 0.31213 0.0
C779 C 0.97668 0.85043 0.36265 0.0
H780 H 0.03085 0.86842 0.40837 0.0
C781 C 0.99446 0.93204 0.46474 0.0
C782 C 0.01064 0.93372 0.50948 0.0
C783 C 0.99027 0.91322 0.43406 0.0
C784 C 0.01554 0.86357 0.39706 0.0
H785 H 0.01261 0.7975 0.169 0.0
H786 H 0.01787 0.82581 0.24454 0.0
H787 H 0.02626 0.83606 0.35252 0.0
H788 H 0.03411 0.9167 0.56083 0.0
H789 H 0.02645 0.88423 0.51002 0.0
H790 H 0.96601 0.87791 0.4089 0.0
C791 C 0.00513 0.81571 0.25317 0.0
C792 C 0.01294 0.84504 0.36411 0.0
C793 C 0.00215 0.79947 0.20974 0.0
C794 C 0.02193 0.91613 0.525 0.0
C795 C 0.01754 0.89741 0.49564 0.0
C796 C 0.97928 0.86899 0.39637 0.0
C797 C 0.99117 0.81964 0.30405 0.0
C798 C 0.99353 0.83833 0.34549 0.0
C799 C 0.00199 0.89572 0.44857 0.0
C800 C 0.99879 0.87587 0.4136 0.0
H801 H 0.95826 0.78037 0.27327 0.0
H802 H 0.96372 0.80865 0.35125 0.0
H803 H 0.96151 0.84588 0.34844 0.0
H804 H 0.98538 0.94531 0.45244 0.0
H805 H 0.9782 0.91252 0.39789 0.0
C806 C 0.70988 0.03389 0.236 0.0
C807 C 0.72067 0.0165 0.21565 0.0
C808 C 0.69228 0.03187 0.27351 0.0
C809 C 0.66002 0.99813 0.37362 0.0
H810 H 0.61649 0.0271 0.28481 0.0
C811 C 0.57614 0.99248 0.46044 0.0
C812 C 0.56572 0.01123 0.46294 0.0
C813 C 0.59494 0.99109 0.42838 0.0
C814 C 0.62845 0.01906 0.31073 0.0
H815 H 0.72258 0.98353 0.22317 0.0
H816 H 0.6918 0.97998 0.29031 0.0
H817 H 0.65083 0.02935 0.24212 0.0
H818 H 0.56638 0.04292 0.43142 0.0
H819 H 0.59887 0.04059 0.37634 0.0
H820 H 0.6376 0.98827 0.44339 0.0
C821 C 0.69699 0.99515 0.27695 0.0
C822 C 0.64815 0.02037 0.28623 0.0
C823 C 0.71467 0.99718 0.23903 0.0
C824 C 0.57398 0.02823 0.43023 0.0
C825 C 0.59265 0.02685 0.39832 0.0
C826 C 0.64023 0.997 0.39876 0.0
C827 C 0.6851 0.01242 0.29153 0.0
C828 C 0.66421 0.01023 0.31793 0.0
C829 C 0.60359 0.00839 0.39793 0.0
C830 C 0.62425 0.00774 0.36814 0.0
H831 H 0.71419 0.04893 0.21836 0.0
H832 H 0.6836 0.04547 0.28513 0.0
H833 H 0.67211 0.99007 0.39876 0.0
H834 H 0.57025 0.97914 0.48574 0.0
H835 H 0.60283 0.97657 0.42835 0.0
C836 C 0.51298 0.71347 0.27703 0.0
C837 C 0.53177 0.71782 0.24798 0.0
C838 C 0.5109 0.69672 0.31964 0.0
C839 C 0.53509 0.64645 0.34785 0.0
H840 H 0.49509 0.6421 0.48703 0.0
C841 C 0.51907 0.57126 0.49543 0.0
C842 C 0.49845 0.56682 0.50568 0.0
C843 C 0.52493 0.59011 0.46811 0.0
C844 C 0.50629 0.64307 0.44807 0.0
H845 H 0.56337 0.70914 0.24363 0.0
H846 H 0.56004 0.68046 0.32021 0.0
H847 H 0.5025 0.67548 0.43875 0.0
H848 H 0.46784 0.57831 0.49249 0.0
H849 H 0.47803 0.61082 0.44485 0.0
H850 H 0.53868 0.61396 0.35694 0.0
C851 C 0.54676 0.68956 0.3091 0.0
C852 C 0.51053 0.66221 0.42038 0.0
C853 C 0.54877 0.70618 0.26615 0.0
C854 C 0.48387 0.58125 0.48575 0.0
C855 C 0.4897 0.60001 0.45895 0.0
C856 C 0.53093 0.62733 0.37588 0.0
C857 C 0.52763 0.68403 0.33405 0.0
C858 C 0.52471 0.66412 0.369 0.0
C859 C 0.51028 0.60486 0.451 0.0
C860 C 0.51616 0.62535 0.42531 0.0
H861 H 0.49959 0.72197 0.26254 0.0
H862 H 0.4959 0.69289 0.33737 0.0
H863 H 0.54586 0.6472 0.30764 0.0
H864 H 0.53068 0.56055 0.51078 0.0
H865 H 0.54093 0.59341 0.4625 0.0
C866 C 0.79182 0.50879 0.22935 0.0
C867 C 0.78496 0.48934 0.21004 0.0
C868 C 0.80946 0.51075 0.26764 0.0
C869 C 0.85703 0.48396 0.28207 0.0
H870 H 0.86881 0.51673 0.43669 0.0
C871 C 0.93092 0.47406 0.4264 0.0
C872 C 0.93984 0.49085 0.45839 0.0
C873 C 0.91228 0.47601 0.39457 0.0
C874 C 0.86585 0.50781 0.39273 0.0
H875 H 0.78983 0.45676 0.22044 0.0
H876 H 0.82039 0.46014 0.28757 0.0
H877 H 0.83425 0.51602 0.39171 0.0
H878 H 0.93646 0.52315 0.47992 0.0
H879 H 0.90395 0.52674 0.42247 0.0
H880 H 0.88839 0.47598 0.28142 0.0
C881 C 0.81238 0.47386 0.27267 0.0
C882 C 0.84604 0.5073 0.36742 0.0
C883 C 0.7948 0.47192 0.2349 0.0
C884 C 0.93006 0.50995 0.45526 0.0
C885 C 0.9113 0.51193 0.42314 0.0
C886 C 0.87677 0.48467 0.30661 0.0
C887 C 0.82044 0.49327 0.28658 0.0
C888 C 0.84139 0.49496 0.31278 0.0
C889 C 0.90201 0.49487 0.39334 0.0
C890 C 0.8814 0.49619 0.36321 0.0
H891 H 0.78465 0.52245 0.20999 0.0
H892 H 0.81537 0.52589 0.27779 0.0
H893 H 0.85398 0.47474 0.23878 0.0
H894 H 0.93799 0.4591 0.42805 0.0
H895 H 0.90555 0.46243 0.37321 0.0
loop_
_geom_bond_atom_site_label_1
_geom_bond_atom_site_label_2
_geom_bond_distance
_geom_bond_site_symmetry_2
_ccdc_geom_bond_type
H0 C5 0.930 . S
H1 C8 0.930 . S
H2 C10 0.930 . S
H3 C4 1.016 . S
C4 H3 1.016 . S
C4 N11 1.286 1_556 S
C5 H0 0.930 . S
C5 C6 1.397 . S
C5 C7 1.361 . S
C6 C5 1.397 . S
C6 C10 1.390 . S
C7 C5 1.361 . S
C7 C8 1.393 1_554 S
C7 N11 1.413 . S
C8 H1 0.930 . S
C8 C7 1.393 1_556 S
C8 C9 1.399 . S
C9 C8 1.399 . S
C9 C10 1.381 1_556 S
C10 H2 0.930 . S
C10 C6 1.390 . S
C10 C9 1.381 1_554 S
N11 C4 1.286 1_554 S
N11 C7 1.413 . S
H12 C17 0.930 . S
H13 C20 0.930 . S
H14 C22 0.930 . S
H15 C16 1.016 . S
C16 H15 1.016 . S
C16 N23 1.286 1_556 S
C17 H12 0.930 . S
C17 C18 1.397 . S
C17 C19 1.361 . S
C18 C17 1.397 . S
C18 C22 1.390 . S
C19 C17 1.361 . S
C19 C20 1.393 1_554 S
C19 N23 1.413 . S
C20 H13 0.930 . S
C20 C19 1.393 1_556 S
C20 C21 1.399 . S
C21 C20 1.399 . S
C21 C22 1.381 1_556 S
C22 H14 0.930 . S
C22 C18 1.390 . S
C22 C21 1.381 1_554 S
N23 C16 1.286 1_554 S
N23 C19 1.413 . S
H24 C29 0.930 . S
H25 C32 0.930 . S
H26 C34 0.930 . S
H27 C28 1.029 . S
C28 H27 1.029 . S
C28 N35 1.268 1_566 S
C29 H24 0.930 . S
C29 C30 1.407 . S
C29 C31 1.361 . S
C30 C29 1.407 . S
C30 C34 1.385 1_545 S
C31 C29 1.361 . S
C31 C32 1.393 1_554 S
C31 N35 1.413 . S
C32 H25 0.930 . S
C32 C31 1.393 1_556 S
C32 C33 1.402 . S
C33 C32 1.402 . S
C33 C34 1.379 1_546 S
C34 H26 0.930 . S
C34 C30 1.385 1_565 S
C34 C33 1.379 1_564 S
N35 C28 1.268 1_544 S
N35 C31 1.413 . S
H36 C41 0.930 . S
H37 C44 0.930 . S
H38 C46 0.930 . S
H39 C40 1.016 . S
C40 H39 1.016 . S
C40 N47 1.286 1_556 S
C41 H36 0.930 . S
C41 C42 1.397 . S
C41 C43 1.361 . S
C42 C41 1.397 . S
C42 C46 1.390 . S
C43 C41 1.361 . S
C43 C44 1.393 1_554 S
C43 N47 1.413 . S
C44 H37 0.930 . S
C44 C43 1.393 1_556 S
C44 C45 1.399 . S
C45 C44 1.399 . S
C45 C46 1.381 1_556 S
C46 H38 0.930 . S
C46 C42 1.390 . S
C46 C45 1.381 1_554 S
N47 C40 1.286 1_554 S
N47 C43 1.413 . S
H48 C53 0.930 . S
H49 C56 0.930 . S
H50 C58 0.930 . S
H51 C52 1.016 . S
C52 H51 1.016 . S
C52 N59 1.286 . S
C53 H48 0.930 . S
C53 C54 1.397 . S
C53 C55 1.361 . S
C54 C53 1.397 . S
C54 C58 1.390 . S
C55 C53 1.361 . S
C55 C56 1.393 . S
C55 N59 1.413 . S
C56 H49 0.930 . S
C56 C55 1.393 . S
C56 C57 1.399 . S
C57 C56 1.399 . S
C57 C58 1.381 . S
C58 H50 0.930 . S
C58 C54 1.390 . S
C58 C57 1.381 . S
N59 C52 1.286 . S
N59 C55 1.413 . S
H60 C65 0.930 . S
H61 C68 0.930 . S
H62 C70 0.930 . S
H63 C64 1.016 . S
C64 H63 1.016 . S
C64 N71 1.286 . S
C65 H60 0.930 . S
C65 C66 1.397 . S
C65 C67 1.361 . S
C66 C65 1.397 . S
C66 C70 1.390 . S
C67 C65 1.361 . S
C67 C68 1.393 . S
C67 N71 1.413 . S
C68 H61 0.930 . S
C68 C67 1.393 . S
C68 C69 1.399 . S
C69 C68 1.399 . S
C69 C70 1.381 . S
C70 H62 0.930 . S
C70 C66 1.390 . S
C70 C69 1.381 . S
N71 C64 1.286 . S
N71 C67 1.413 . S
H72 C77 0.930 . S
H73 C80 0.930 . S
H74 C82 0.930 . S
H75 C76 1.025 . S
C76 H75 1.025 . S
C76 N83 1.274 1_565 S
C77 H72 0.930 . S
C77 C78 1.397 . S
C77 C79 1.361 . S
C78 C77 1.397 . S
C78 C82 1.390 1_545 S
C79 C77 1.361 . S
C79 C80 1.393 . S
C79 N83 1.413 . S
C80 H73 0.930 . S
C80 C79 1.393 . S
C80 C81 1.404 . S
C81 C80 1.404 . S
C81 C82 1.378 1_545 S
C82 H74 0.930 . S
C82 C78 1.390 1_565 S
C82 C81 1.378 1_565 S
N83 C76 1.274 1_545 S
N83 C79 1.413 . S
H84 C89 0.930 . S
H85 C92 0.930 . S
H86 C94 0.930 . S
H87 C88 1.016 . S
C88 H87 1.016 . S
C88 N95 1.286 . S
C89 H84 0.930 . S
C89 C90 1.397 . S
C89 C91 1.361 . S
C90 C89 1.397 . S
C90 C94 1.390 . S
C91 C89 1.361 . S
C91 C92 1.393 . S
C91 N95 1.413 . S
C92 H85 0.930 . S
C92 C91 1.393 . S
C92 C93 1.399 . S
C93 C92 1.399 . S
C93 C94 1.381 . S
C94 H86 0.930 . S
C94 C90 1.390 . S
C94 C93 1.381 . S
N95 C88 1.286 . S
N95 C91 1.413 . S
Zn96 O102 1.969 1_455 S
Zn96 O103 1.965 . S
Zn96 O107 2.024 . S
Zn96 O112 1.969 1_455 S
Zn97 O104 1.988 . S
Zn97 O110 1.977 . S
Zn97 O111 1.956 1_455 S
Zn97 O113 2.012 1_455 S
C98 O99 1.275 . S
C98 O107 1.058 . S
O99 C98 1.275 . S
C100 O101 1.229 1_655 S
C100 O113 1.058 . S
O101 C100 1.229 1_455 S
O102 Zn96 1.969 1_655 S
O102 C105 1.267 1_655 S
O103 Zn96 1.965 . S
O103 C114 1.260 1_545 S
O104 Zn97 1.988 . S
O104 C114 1.258 . S
C105 O102 1.267 1_455 S
C105 O106 1.228 . S
O106 C105 1.228 . S
O107 Zn96 2.024 . S
O107 C98 1.058 . S
C108 O109 1.228 . S
C108 O110 1.267 1_655 S
O109 C108 1.228 . S
O110 Zn97 1.977 . S
O110 C108 1.267 1_455 S
O111 Zn97 1.956 1_655 S
O111 C115 1.260 1_565 S
O112 Zn96 1.969 1_655 S
O112 C115 1.258 . S
O113 Zn97 2.012 1_655 S
O113 C100 1.058 . S
C114 O103 1.260 1_565 S
C114 O104 1.258 . S
C115 O111 1.260 1_545 S
C115 O112 1.258 . S
Zn116 O122 1.969 . S
Zn116 O123 1.965 1_565 S
Zn116 O127 2.024 1_565 S
Zn116 O132 1.969 . S
Zn117 O124 1.969 . S
Zn117 O130 1.969 . S
Zn117 O131 1.965 1_545 S
Zn117 O133 2.024 1_545 S
C118 O119 1.229 1_545 S
C118 O127 1.058 . S
O119 C118 1.229 1_565 S
C120 O121 1.229 1_565 S
C120 O133 1.058 . S
O121 C120 1.229 1_545 S
O122 Zn116 1.969 . S
O122 C125 1.267 . S
O123 Zn116 1.965 1_545 S
O123 C134 1.260 . S
O124 Zn117 1.969 . S
O124 C134 1.258 . S
C125 O122 1.267 . S
C125 O126 1.228 1_565 S
O126 C125 1.228 1_545 S
O127 Zn116 2.024 1_545 S
O127 C118 1.058 . S
C128 O129 1.228 1_545 S
C128 O130 1.267 . S
O129 C128 1.228 1_565 S
O130 Zn117 1.969 . S
O130 C128 1.267 . S
O131 Zn117 1.965 1_565 S
O131 C135 1.260 . S
O132 Zn116 1.969 . S
O132 C135 1.258 . S
O133 Zn117 2.024 1_565 S
O133 C120 1.058 . S
C134 O123 1.260 . S
C134 O124 1.258 . S
C135 O131 1.260 . S
C135 O132 1.258 . S
Zn136 O142 1.969 . S
Zn136 O143 1.965 . S
Zn136 O147 2.024 . S
Zn136 O152 1.969 . S
Zn137 O144 1.969 . S
Zn137 O150 1.969 . S
Zn137 O151 1.965 . S
Zn137 O153 2.024 . S
C138 O139 1.229 . S
C138 O147 1.058 . S
O139 C138 1.229 . S
C140 O141 1.229 . S
C140 O153 1.058 . S
O141 C140 1.229 . S
O142 Zn136 1.969 . S
O142 C145 1.267 . S
O143 Zn136 1.965 . S
O143 C154 1.260 . S
O144 Zn137 1.969 . S
O144 C154 1.258 . S
C145 O142 1.267 . S
C145 O146 1.228 . S
O146 C145 1.228 . S
O147 Zn136 2.024 . S
O147 C138 1.058 . S
C148 O149 1.228 . S
C148 O150 1.267 . S
O149 C148 1.228 . S
O150 Zn137 1.969 . S
O150 C148 1.267 . S
O151 Zn137 1.965 . S
O151 C155 1.260 . S
O152 Zn136 1.969 . S
O152 C155 1.258 . S
O153 Zn137 2.024 . S
O153 C140 1.058 . S
C154 O143 1.260 . S
C154 O144 1.258 . S
C155 O151 1.260 . S
C155 O152 1.258 . S
Zn156 O162 1.969 . S
Zn156 O163 1.965 . S
Zn156 O167 2.024 . S
Zn156 O172 1.969 . S
Zn157 O164 1.969 . S
Zn157 O170 1.969 . S
Zn157 O171 1.965 . S
Zn157 O173 2.024 . S
C158 O159 1.229 . S
C158 O167 1.058 . S
O159 C158 1.229 . S
C160 O161 1.229 . S
C160 O173 1.058 . S
O161 C160 1.229 . S
O162 Zn156 1.969 . S
O162 C165 1.267 . S
O163 Zn156 1.965 . S
O163 C174 1.260 . S
O164 Zn157 1.969 . S
O164 C174 1.258 1_655 S
C165 O162 1.267 . S
C165 O166 1.228 . S
O166 C165 1.228 . S
O167 Zn156 2.024 . S
O167 C158 1.058 . S
C168 O169 1.228 . S
C168 O170 1.267 . S
O169 C168 1.228 . S
O170 Zn157 1.969 . S
O170 C168 1.267 . S
O171 Zn157 1.965 . S
O171 C175 1.260 1_655 S
O172 Zn156 1.969 . S
O172 C175 1.258 . S
O173 Zn157 2.024 . S
O173 C160 1.058 . S
C174 O163 1.260 . S
C174 O164 1.258 1_455 S
C175 O171 1.260 1_455 S
C175 O172 1.258 . S
C176 C177 1.352 1_565 S
C176 C178 1.327 . S
C176 H201 0.950 . S
C177 C176 1.352 1_545 S
C177 C193 1.346 . S
C178 C176 1.327 . S
C178 C197 1.435 . S
C178 H202 0.950 . S
C179 C196 1.574 . S
C179 C198 1.354 1_545 S
C179 H203 0.949 . S
H180 C184 0.949 . S
C181 C182 1.349 1_545 S
C181 C183 1.327 . S
C181 H204 0.950 . S
C182 C181 1.349 1_565 S
C182 C194 1.349 . S
C183 C181 1.327 . S
C183 C199 1.398 1_545 S
C183 H205 0.950 . S
C184 H180 0.949 . S
C184 C192 1.574 . S
C184 C200 1.396 . S
H185 C193 0.950 . S
H186 C191 0.950 . S
H187 C192 0.949 . S
H188 C194 0.950 . S
H189 C195 0.950 . S
H190 C196 0.949 . S
C191 H186 0.950 . S
C191 C193 1.327 . S
C191 C197 1.422 1_545 S
C192 C184 1.574 . S
C192 H187 0.949 . S
C192 C198 1.383 . S
C193 C177 1.346 . S
C193 H185 0.950 . S
C193 C191 1.327 . S
C194 C182 1.349 . S
C194 H188 0.950 . S
C194 C195 1.327 . S
C195 H189 0.950 . S
C195 C194 1.327 . S
C195 C199 1.461 . S
C196 C179 1.574 . S
C196 H190 0.949 . S
C196 C200 1.341 1_545 S
C197 C178 1.435 . S
C197 C191 1.422 1_565 S
C197 C198 1.523 . S
C198 C179 1.354 1_565 S
C198 C192 1.383 . S
C198 C197 1.523 . S
C199 C183 1.398 1_565 S
C199 C195 1.461 . S
C199 C200 1.523 . S
C200 C184 1.396 . S
C200 C196 1.341 1_565 S
C200 C199 1.523 . S
H201 C176 0.950 . S
H202 C178 0.950 . S
H203 C179 0.949 . S
H204 C181 0.950 . S
H205 C183 0.950 . S
C206 C207 1.349 . S
C206 C208 1.327 . S
C206 H231 0.950 . S
C207 C206 1.349 . S
C207 C223 1.349 . S
C208 C206 1.327 . S
C208 C227 1.429 . S
C208 H232 0.950 . S
C209 C226 1.574 . S
C209 C228 1.368 . S
C209 H233 0.949 . S
H210 C214 0.949 . S
C211 C212 1.349 . S
C211 C213 1.327 . S
C211 H234 0.950 . S
C212 C211 1.349 . S
C212 C224 1.349 . S
C213 C211 1.327 . S
C213 C229 1.429 . S
C213 H235 0.950 . S
C214 H210 0.949 . S
C214 C222 1.574 . S
C214 C230 1.368 . S
H215 C223 0.950 . S
H216 C221 0.950 . S
H217 C222 0.949 . S
H218 C224 0.950 . S
H219 C225 0.950 . S
H220 C226 0.949 . S
C221 H216 0.950 . S
C221 C223 1.327 . S
C221 C227 1.429 . S
C222 C214 1.574 . S
C222 H217 0.949 . S
C222 C228 1.368 . S
C223 C207 1.349 . S
C223 H215 0.950 . S
C223 C221 1.327 . S
C224 C212 1.349 . S
C224 H218 0.950 . S
C224 C225 1.327 . S
C225 H219 0.950 . S
C225 C224 1.327 . S
C225 C229 1.429 . S
C226 C209 1.574 . S
C226 H220 0.949 . S
C226 C230 1.368 . S
C227 C208 1.429 . S
C227 C221 1.429 . S
C227 C228 1.523 . S
C228 C209 1.368 . S
C228 C222 1.368 . S
C228 C227 1.523 . S
C229 C213 1.429 . S
C229 C225 1.429 . S
C229 C230 1.523 . S
C230 C214 1.368 . S
C230 C226 1.368 . S
C230 C229 1.523 . S
H231 C206 0.950 . S
H232 C208 0.950 . S
H233 C209 0.949 . S
H234 C211 0.950 . S
H235 C213 0.950 . S
C236 C237 1.349 . S
C236 C238 1.327 . S
C236 H261 0.950 . S
C237 C236 1.349 . S
C237 C253 1.349 . S
C238 C236 1.327 . S
C238 C257 1.429 . S
C238 H262 0.950 . S
C239 C256 1.574 . S
C239 C258 1.368 . S
C239 H263 0.949 . S
H240 C244 0.949 . S
C241 C242 1.349 . S
C241 C243 1.327 . S
C241 H264 0.950 . S
C242 C241 1.349 . S
C242 C254 1.349 . S
C243 C241 1.327 . S
C243 C259 1.429 . S
C243 H265 0.950 . S
C244 H240 0.949 . S
C244 C252 1.574 . S
C244 C260 1.368 . S
H245 C253 0.950 . S
H246 C251 0.950 . S
H247 C252 0.949 . S
H248 C254 0.950 . S
H249 C255 0.950 . S
H250 C256 0.949 . S
C251 H246 0.950 . S
C251 C253 1.327 . S
C251 C257 1.429 . S
C252 C244 1.574 . S
C252 H247 0.949 . S
C252 C258 1.368 . S
C253 C237 1.349 . S
C253 H245 0.950 . S
C253 C251 1.327 . S
C254 C242 1.349 . S
C254 H248 0.950 . S
C254 C255 1.327 . S
C255 H249 0.950 . S
C255 C254 1.327 . S
C255 C259 1.429 . S
C256 C239 1.574 . S
C256 H250 0.949 . S
C256 C260 1.368 . S
C257 C238 1.429 . S
C257 C251 1.429 . S
C257 C258 1.523 . S
C258 C239 1.368 . S
C258 C252 1.368 . S
C258 C257 1.523 . S
C259 C243 1.429 . S
C259 C255 1.429 . S
C259 C260 1.523 . S
C260 C244 1.368 . S
C260 C256 1.368 . S
C260 C259 1.523 . S
H261 C236 0.950 . S
H262 C238 0.950 . S
H263 C239 0.949 . S
H264 C241 0.950 . S
H265 C243 0.950 . S
C266 C267 1.349 . S
C266 C268 1.327 . S
C266 H291 0.950 . S
C267 C266 1.349 . S
C267 C283 1.349 . S
C268 C266 1.327 . S
C268 C287 1.429 . S
C268 H292 0.950 . S
C269 C286 1.574 . S
C269 C288 1.368 . S
C269 H293 0.949 . S
H270 C274 0.949 . S
C271 C272 1.349 . S
C271 C273 1.327 . S
C271 H294 0.950 . S
C272 C271 1.349 . S
C272 C284 1.349 . S
C273 C271 1.327 . S
C273 C289 1.429 . S
C273 H295 0.950 . S
C274 H270 0.949 . S
C274 C282 1.574 . S
C274 C290 1.368 . S
H275 C283 0.950 . S
H276 C281 0.950 . S
H277 C282 0.949 . S
H278 C284 0.950 . S
H279 C285 0.950 . S
H280 C286 0.949 . S
C281 H276 0.950 . S
C281 C283 1.327 . S
C281 C287 1.429 . S
C282 C274 1.574 . S
C282 H277 0.949 . S
C282 C288 1.368 . S
C283 C267 1.349 . S
C283 H275 0.950 . S
C283 C281 1.327 . S
C284 C272 1.349 . S
C284 H278 0.950 . S
C284 C285 1.327 . S
C285 H279 0.950 . S
C285 C284 1.327 . S
C285 C289 1.429 . S
C286 C269 1.574 . S
C286 H280 0.949 . S
C286 C290 1.368 . S
C287 C268 1.429 . S
C287 C281 1.429 . S
C287 C288 1.523 . S
C288 C269 1.368 . S
C288 C282 1.368 . S
C288 C287 1.523 . S
C289 C273 1.429 . S
C289 C285 1.429 . S
C289 C290 1.523 . S
C290 C274 1.368 . S
C290 C286 1.368 . S
C290 C289 1.523 . S
H291 C266 0.950 . S
H292 C268 0.950 . S
H293 C269 0.949 . S
H294 C271 0.950 . S
H295 C273 0.950 . S
C296 C297 1.346 1_565 S
C296 C298 1.327 . S
C296 H321 0.950 . S
C297 C296 1.346 1_545 S
C297 C313 1.352 . S
C298 C296 1.327 . S
C298 C317 1.413 1_565 S
C298 H322 0.950 . S
C299 C316 1.574 . S
C299 C318 1.393 . S
C299 H323 0.949 . S
H300 C304 0.949 . S
C301 C302 1.349 . S
C301 C303 1.327 . S
C301 H324 0.950 . S
C302 C301 1.349 . S
C302 C314 1.349 1_545 S
C303 C301 1.327 . S
C303 C319 1.469 . S
C303 H325 0.950 . S
C304 H300 0.949 . S
C304 C312 1.574 . S
C304 C320 1.332 1_565 S
H305 C313 0.950 1_554 S
H306 C311 0.950 . S
H307 C312 0.949 . S
H308 C314 0.950 . S
H309 C315 0.950 . S
H310 C316 0.949 . S
C311 H306 0.950 . S
C311 C313 1.327 . S
C311 C317 1.444 . S
C312 C304 1.574 . S
C312 H307 0.949 . S
C312 C318 1.345 1_565 S
C313 C297 1.352 . S
C313 H305 0.950 1_556 S
C313 C311 1.327 . S
C314 C302 1.349 1_565 S
C314 H308 0.950 . S
C314 C315 1.327 . S
C315 H309 0.950 . S
C315 C314 1.327 . S
C315 C319 1.390 1_565 S
C316 C299 1.574 . S
C316 H310 0.949 . S
C316 C320 1.405 . S
C317 C298 1.413 1_545 S
C317 C311 1.444 . S
C317 C318 1.523 . S
C318 C299 1.393 . S
C318 C312 1.345 1_545 S
C318 C317 1.523 . S
C319 C303 1.469 . S
C319 C315 1.390 1_545 S
C319 C320 1.523 . S
C320 C304 1.332 1_545 S
C320 C316 1.405 . S
C320 C319 1.523 . S
H321 C296 0.950 . S
H322 C298 0.950 . S
H323 C299 0.949 . S
H324 C301 0.950 . S
H325 C303 0.950 . S
C326 C327 1.349 . S
C326 C328 1.327 . S
C326 H351 0.950 1_556 S
C327 C326 1.349 . S
C327 C343 1.349 . S
C328 C326 1.327 . S
C328 C347 1.429 . S
C328 H352 0.950 . S
C329 C346 1.574 . S
C329 C348 1.368 . S
C329 H353 0.949 . S
H330 C334 0.949 . S
C331 C332 1.349 . S
C331 C333 1.327 . S
C331 H354 0.950 . S
C332 C331 1.349 . S
C332 C344 1.349 . S
C333 C331 1.327 . S
C333 C349 1.429 . S
C333 H355 0.950 . S
C334 H330 0.949 . S
C334 C342 1.574 . S
C334 C350 1.368 . S
H335 C343 0.950 . S
H336 C341 0.950 . S
H337 C342 0.949 . S
H338 C344 0.950 . S
H339 C345 0.950 . S
H340 C346 0.949 . S
C341 H336 0.950 . S
C341 C343 1.327 . S
C341 C347 1.429 . S
C342 C334 1.574 . S
C342 H337 0.949 . S
C342 C348 1.368 . S
C343 C327 1.349 . S
C343 H335 0.950 . S
C343 C341 1.327 . S
C344 C332 1.349 . S
C344 H338 0.950 . S
C344 C345 1.327 . S
C345 H339 0.950 . S
C345 C344 1.327 . S
C345 C349 1.429 . S
C346 C329 1.574 . S
C346 H340 0.949 . S
C346 C350 1.368 . S
C347 C328 1.429 . S
C347 C341 1.429 . S
C347 C348 1.523 . S
C348 C329 1.368 . S
C348 C342 1.368 . S
C348 C347 1.523 . S
C349 C333 1.429 . S
C349 C345 1.429 . S
C349 C350 1.523 . S
C350 C334 1.368 . S
C350 C346 1.368 . S
C350 C349 1.523 . S
H351 C326 0.950 1_554 S
H352 C328 0.950 . S
H353 C329 0.949 . S
H354 C331 0.950 . S
H355 C333 0.950 . S
C356 C357 1.349 . S
C356 C358 1.327 . S
C356 H381 0.950 1_556 S
C357 C356 1.349 . S
C357 C373 1.349 . S
C358 C356 1.327 . S
C358 C377 1.429 . S
C358 H382 0.950 . S
C359 C376 1.574 . S
C359 C378 1.368 . S
C359 H383 0.949 . S
H360 C364 0.949 . S
C361 C362 1.349 . S
C361 C363 1.327 . S
C361 H384 0.950 . S
C362 C361 1.349 . S
C362 C374 1.349 . S
C363 C361 1.327 . S
C363 C379 1.429 . S
C363 H385 0.950 . S
C364 H360 0.949 . S
C364 C372 1.574 . S
C364 C380 1.368 . S
H365 C373 0.950 . S
H366 C371 0.950 . S
H367 C372 0.949 . S
H368 C374 0.950 . S
H369 C375 0.950 . S
H370 C376 0.949 . S
C371 H366 0.950 . S
C371 C373 1.327 . S
C371 C377 1.429 . S
C372 C364 1.574 . S
C372 H367 0.949 . S
C372 C378 1.368 . S
C373 C357 1.349 . S
C373 H365 0.950 . S
C373 C371 1.327 . S
C374 C362 1.349 . S
C374 H368 0.950 . S
C374 C375 1.327 . S
C375 H369 0.950 . S
C375 C374 1.327 . S
C375 C379 1.429 . S
C376 C359 1.574 . S
C376 H370 0.949 . S
C376 C380 1.368 . S
C377 C358 1.429 . S
C377 C371 1.429 . S
C377 C378 1.523 . S
C378 C359 1.368 . S
C378 C372 1.368 . S
C378 C377 1.523 . S
C379 C363 1.429 . S
C379 C375 1.429 . S
C379 C380 1.523 . S
C380 C364 1.368 . S
C380 C376 1.368 . S
C380 C379 1.523 . S
H381 C356 0.950 1_554 S
H382 C358 0.950 . S
H383 C359 0.949 . S
H384 C361 0.950 . S
H385 C363 0.950 . S
C386 C387 1.349 . S
C386 C388 1.327 . S
C386 H411 0.950 . S
C387 C386 1.349 . S
C387 C403 1.349 . S
C388 C386 1.327 . S
C388 C407 1.429 . S
C388 H412 0.950 . S
C389 C406 1.574 . S
C389 C408 1.368 . S
C389 H413 0.949 . S
H390 C394 0.949 1_455 S
C391 C392 1.349 . S
C391 C393 1.327 . S
C391 H414 0.950 . S
C392 C391 1.349 . S
C392 C404 1.349 1_655 S
C393 C391 1.327 . S
C393 C409 1.429 . S
C393 H415 0.950 . S
C394 H390 0.949 1_655 S
C394 C402 1.574 . S
C394 C410 1.368 . S
H395 C403 0.950 . S
H396 C401 0.950 . S
H397 C402 0.949 . S
H398 C404 0.950 . S
H399 C405 0.950 . S
H400 C406 0.949 . S
C401 H396 0.950 . S
C401 C403 1.327 . S
C401 C407 1.429 . S
C402 C394 1.574 . S
C402 H397 0.949 . S
C402 C408 1.368 . S
C403 C387 1.349 . S
C403 H395 0.950 . S
C403 C401 1.327 . S
C404 C392 1.349 1_455 S
C404 H398 0.950 . S
C404 C405 1.327 . S
C405 H399 0.950 . S
C405 C404 1.327 . S
C405 C409 1.429 1_455 S
C406 C389 1.574 . S
C406 H400 0.949 . S
C406 C410 1.368 . S
C407 C388 1.429 . S
C407 C401 1.429 . S
C407 C408 1.523 . S
C408 C389 1.368 . S
C408 C402 1.368 . S
C408 C407 1.523 . S
C409 C393 1.429 . S
C409 C405 1.429 1_655 S
C409 C410 1.523 . S
C410 C394 1.368 . S
C410 C406 1.368 . S
C410 C409 1.523 . S
H411 C386 0.950 . S
H412 C388 0.950 . S
H413 C389 0.949 . S
H414 C391 0.950 . S
H415 C393 0.950 . S
C416 C417 1.349 . S
C416 C418 1.327 . S
C416 H441 0.950 . S
C417 C416 1.349 . S
C417 C433 1.349 . S
C418 C416 1.327 . S
C418 C437 1.429 . S
C418 H442 0.950 . S
C419 C436 1.574 . S
C419 C438 1.368 . S
C419 H443 0.949 . S
H420 C424 0.949 . S
C421 C422 1.357 . S
C421 C423 1.335 . S
C421 H444 0.935 1_455 S
C422 C421 1.357 . S
C422 C434 1.349 . S
C423 C421 1.335 . S
C423 C439 1.429 . S
C423 H445 0.950 . S
C424 H420 0.949 . S
C424 C432 1.574 . S
C424 C440 1.368 . S
H425 C433 0.950 . S
H426 C431 0.950 . S
H427 C432 0.949 . S
H428 C434 0.950 . S
H429 C435 0.950 . S
H430 C436 0.949 . S
C431 H426 0.950 . S
C431 C433 1.327 . S
C431 C437 1.429 . S
C432 C424 1.574 . S
C432 H427 0.949 . S
C432 C438 1.368 . S
C433 C417 1.349 . S
C433 H425 0.950 . S
C433 C431 1.327 . S
C434 C422 1.349 . S
C434 H428 0.950 . S
C434 C435 1.327 . S
C435 H429 0.950 . S
C435 C434 1.327 . S
C435 C439 1.429 . S
C436 C419 1.574 . S
C436 H430 0.949 . S
C436 C440 1.368 . S
C437 C418 1.429 . S
C437 C431 1.429 . S
C437 C438 1.523 . S
C438 C419 1.368 . S
C438 C432 1.368 . S
C438 C437 1.523 . S
C439 C423 1.429 . S
C439 C435 1.429 . S
C439 C440 1.523 . S
C440 C424 1.368 . S
C440 C436 1.368 . S
C440 C439 1.523 . S
H441 C416 0.950 . S
H442 C418 0.950 . S
H443 C419 0.949 . S
H444 C421 0.935 1_655 S
H445 C423 0.950 . S
C446 C447 1.352 . S
C446 C448 1.327 . S
C446 H471 0.950 . S
C447 C446 1.352 . S
C447 C463 1.345 1_545 S
C448 C446 1.327 . S
C448 C467 1.429 1_545 S
C448 H472 0.950 . S
C449 C466 1.574 . S
C449 C468 1.368 . S
C449 H473 0.949 . S
H450 C454 0.949 . S
C451 C452 1.349 . S
C451 C453 1.327 . S
C451 H474 0.950 . S
C452 C451 1.349 . S
C452 C464 1.349 1_565 S
C453 C451 1.327 . S
C453 C469 1.429 . S
C453 H475 0.950 . S
C454 H450 0.949 . S
C454 C462 1.574 . S
C454 C470 1.368 1_545 S
H455 C463 0.950 . S
H456 C461 0.950 . S
H457 C462 0.949 . S
H458 C464 0.950 . S
H459 C465 0.950 . S
H460 C466 0.949 . S
C461 H456 0.950 . S
C461 C463 1.327 . S
C461 C467 1.429 . S
C462 C454 1.574 . S
C462 H457 0.949 . S
C462 C468 1.368 1_545 S
C463 C447 1.345 1_565 S
C463 H455 0.950 . S
C463 C461 1.327 . S
C464 C452 1.349 1_545 S
C464 H458 0.950 . S
C464 C465 1.327 . S
C465 H459 0.950 . S
C465 C464 1.327 . S
C465 C469 1.429 1_545 S
C466 C449 1.574 . S
C466 H460 0.949 . S
C466 C470 1.368 . S
C467 C448 1.429 1_565 S
C467 C461 1.429 . S
C467 C468 1.523 . S
C468 C449 1.368 . S
C468 C462 1.368 1_565 S
C468 C467 1.523 . S
C469 C453 1.429 . S
C469 C465 1.429 1_565 S
C469 C470 1.523 . S
C470 C454 1.368 1_565 S
C470 C466 1.368 . S
C470 C469 1.523 . S
H471 C446 0.950 . S
H472 C448 0.950 . S
H473 C449 0.949 . S
H474 C451 0.950 . S
H475 C453 0.950 . S
C476 C477 1.349 . S
C476 C478 1.327 . S
C476 H501 0.950 . S
C477 C476 1.349 . S
C477 C493 1.349 . S
C478 C476 1.327 . S
C478 C497 1.429 . S
C478 H502 0.950 . S
C479 C496 1.574 . S
C479 C498 1.368 . S
C479 H503 0.949 . S
H480 C484 0.949 . S
C481 C482 1.349 . S
C481 C483 1.327 . S
C481 H504 0.950 . S
C482 C481 1.349 . S
C482 C494 1.349 . S
C483 C481 1.327 . S
C483 C499 1.429 . S
C483 H505 0.950 . S
C484 H480 0.949 . S
C484 C492 1.574 . S
C484 C500 1.368 . S
H485 C493 0.950 . S
H486 C491 0.950 . S
H487 C492 0.949 . S
H488 C494 0.950 . S
H489 C495 0.950 . S
H490 C496 0.949 . S
C491 H486 0.950 . S
C491 C493 1.327 . S
C491 C497 1.429 . S
C492 C484 1.574 . S
C492 H487 0.949 . S
C492 C498 1.368 . S
C493 C477 1.349 . S
C493 H485 0.950 . S
C493 C491 1.327 . S
C494 C482 1.349 . S
C494 H488 0.950 . S
C494 C495 1.327 . S
C495 H489 0.950 . S
C495 C494 1.327 . S
C495 C499 1.429 . S
C496 C479 1.574 . S
C496 H490 0.949 . S
C496 C500 1.368 . S
C497 C478 1.429 . S
C497 C491 1.429 . S
C497 C498 1.523 . S
C498 C479 1.368 . S
C498 C492 1.368 . S
C498 C497 1.523 . S
C499 C483 1.429 . S
C499 C495 1.429 . S
C499 C500 1.523 . S
C500 C484 1.368 . S
C500 C496 1.368 . S
C500 C499 1.523 . S
H501 C476 0.950 . S
H502 C478 0.950 . S
H503 C479 0.949 . S
H504 C481 0.950 . S
H505 C483 0.950 . S
C506 C507 1.349 . S
C506 C508 1.327 . S
C506 H531 0.950 . S
C507 C506 1.349 . S
C507 C523 1.349 . S
C508 C506 1.327 . S
C508 C527 1.429 . S
C508 H532 0.950 . S
C509 C526 1.574 . S
C509 C528 1.368 . S
C509 H533 0.949 . S
H510 C514 0.949 . S
C511 C512 1.349 . S
C511 C513 1.327 . S
C511 H534 0.950 . S
C512 C511 1.349 . S
C512 C524 1.349 . S
C513 C511 1.327 . S
C513 C529 1.429 . S
C513 H535 0.950 . S
C514 H510 0.949 . S
C514 C522 1.574 . S
C514 C530 1.368 . S
H515 C523 0.950 . S
H516 C521 0.950 . S
H517 C522 0.949 . S
H518 C524 0.950 . S
H519 C525 0.950 . S
H520 C526 0.949 . S
C521 H516 0.950 . S
C521 C523 1.327 . S
C521 C527 1.429 . S
C522 C514 1.574 . S
C522 H517 0.949 . S
C522 C528 1.368 . S
C523 C507 1.349 . S
C523 H515 0.950 . S
C523 C521 1.327 . S
C524 C512 1.349 . S
C524 H518 0.950 . S
C524 C525 1.327 . S
C525 H519 0.950 . S
C525 C524 1.327 . S
C525 C529 1.429 . S
C526 C509 1.574 . S
C526 H520 0.949 . S
C526 C530 1.368 . S
C527 C508 1.429 . S
C527 C521 1.429 . S
C527 C528 1.523 . S
C528 C509 1.368 . S
C528 C522 1.368 . S
C528 C527 1.523 . S
C529 C513 1.429 . S
C529 C525 1.429 . S
C529 C530 1.523 . S
C530 C514 1.368 . S
C530 C526 1.368 . S
C530 C529 1.523 . S
H531 C506 0.950 . S
H532 C508 0.950 . S
H533 C509 0.949 . S
H534 C511 0.950 . S
H535 C513 0.950 . S
C536 C537 1.349 . S
C536 C538 1.327 . S
C536 H561 0.950 1_556 S
C537 C536 1.349 . S
C537 C553 1.349 . S
C538 C536 1.327 . S
C538 C557 1.429 . S
C538 H562 0.950 . S
C539 C556 1.574 . S
C539 C558 1.368 . S
C539 H563 0.949 . S
H540 C544 0.949 1_455 S
C541 C542 1.331 1_655 S
C541 C543 1.327 . S
C541 H564 0.950 . S
C542 C541 1.331 1_455 S
C542 C554 1.362 . S
C543 C541 1.327 . S
C543 C559 1.429 . S
C543 H565 0.950 . S
C544 H540 0.949 1_655 S
C544 C552 1.574 . S
C544 C560 1.368 . S
H545 C553 0.950 . S
H546 C551 0.950 . S
H547 C552 0.947 1_455 S
H548 C554 0.950 . S
H549 C555 0.950 . S
H550 C556 0.949 . S
C551 H546 0.950 . S
C551 C553 1.327 . S
C551 C557 1.429 . S
C552 C544 1.574 . S
C552 H547 0.947 1_655 S
C552 C558 1.368 . S
C553 C537 1.349 . S
C553 H545 0.950 . S
C553 C551 1.327 . S
C554 C542 1.362 . S
C554 H548 0.950 . S
C554 C555 1.327 . S
C555 H549 0.950 . S
C555 C554 1.327 . S
C555 C559 1.429 1_455 S
C556 C539 1.574 . S
C556 H550 0.949 . S
C556 C560 1.368 . S
C557 C538 1.429 . S
C557 C551 1.429 . S
C557 C558 1.523 . S
C558 C539 1.368 . S
C558 C552 1.368 . S
C558 C557 1.523 . S
C559 C543 1.429 . S
C559 C555 1.429 1_655 S
C559 C560 1.523 . S
C560 C544 1.368 . S
C560 C556 1.368 . S
C560 C559 1.523 . S
H561 C536 0.950 1_554 S
H562 C538 0.950 . S
H563 C539 0.949 . S
H564 C541 0.950 . S
H565 C543 0.950 . S
C566 C567 1.353 1_565 S
C566 C568 1.327 . S
C566 H591 0.950 . S
C567 C566 1.353 1_545 S
C567 C583 1.345 . S
C568 C566 1.327 . S
C568 C587 1.429 1_565 S
C568 H592 0.950 . S
C569 C586 1.574 . S
C569 C588 1.368 . S
C569 H593 0.949 . S
H570 C574 0.949 . S
C571 C572 1.349 . S
C571 C573 1.327 . S
C571 H594 0.950 . S
C572 C571 1.349 . S
C572 C584 1.349 1_545 S
C573 C571 1.327 . S
C573 C589 1.429 . S
C573 H595 0.950 . S
C574 H570 0.949 . S
C574 C582 1.574 . S
C574 C590 1.368 1_565 S
H575 C583 0.950 . S
H576 C581 0.950 . S
H577 C582 0.949 . S
H578 C584 0.950 . S
H579 C585 0.950 . S
H580 C586 0.949 . S
C581 H576 0.950 . S
C581 C583 1.327 . S
C581 C587 1.429 . S
C582 C574 1.574 . S
C582 H577 0.949 . S
C582 C588 1.368 1_565 S
C583 C567 1.345 . S
C583 H575 0.950 . S
C583 C581 1.327 . S
C584 C572 1.349 1_565 S
C584 H578 0.950 . S
C584 C585 1.327 . S
C585 H579 0.950 . S
C585 C584 1.327 . S
C585 C589 1.429 1_565 S
C586 C569 1.574 . S
C586 H580 0.949 . S
C586 C590 1.368 . S
C587 C568 1.429 1_545 S
C587 C581 1.429 . S
C587 C588 1.523 . S
C588 C569 1.368 . S
C588 C582 1.368 1_545 S
C588 C587 1.523 . S
C589 C573 1.429 . S
C589 C585 1.429 1_545 S
C589 C590 1.523 . S
C590 C574 1.368 1_545 S
C590 C586 1.368 . S
C590 C589 1.523 . S
H591 C566 0.950 . S
H592 C568 0.950 . S
H593 C569 0.949 . S
H594 C571 0.950 . S
H595 C573 0.950 . S
C596 C597 1.349 . S
C596 C598 1.327 . S
C596 H621 0.950 . S
C597 C596 1.349 . S
C597 C613 1.349 . S
C598 C596 1.327 . S
C598 C617 1.429 . S
C598 H622 0.950 . S
C599 C616 1.574 . S
C599 C618 1.368 . S
C599 H623 0.949 . S
H600 C604 0.949 . S
C601 C602 1.349 . S
C601 C603 1.327 . S
C601 H624 0.950 . S
C602 C601 1.349 . S
C602 C614 1.349 . S
C603 C601 1.327 . S
C603 C619 1.429 . S
C603 H625 0.950 . S
C604 H600 0.949 . S
C604 C612 1.574 . S
C604 C620 1.368 . S
H605 C613 0.950 1_554 S
H606 C611 0.950 . S
H607 C612 0.949 . S
H608 C614 0.950 . S
H609 C615 0.950 . S
H610 C616 0.949 . S
C611 H606 0.950 . S
C611 C613 1.327 . S
C611 C617 1.429 . S
C612 C604 1.574 . S
C612 H607 0.949 . S
C612 C618 1.368 . S
C613 C597 1.349 . S
C613 H605 0.950 1_556 S
C613 C611 1.327 . S
C614 C602 1.349 . S
C614 H608 0.950 . S
C614 C615 1.327 . S
C615 H609 0.950 . S
C615 C614 1.327 . S
C615 C619 1.429 . S
C616 C599 1.574 . S
C616 H610 0.949 . S
C616 C620 1.368 . S
C617 C598 1.429 . S
C617 C611 1.429 . S
C617 C618 1.523 . S
C618 C599 1.368 . S
C618 C612 1.368 . S
C618 C617 1.523 . S
C619 C603 1.429 . S
C619 C615 1.429 . S
C619 C620 1.523 . S
C620 C604 1.368 . S
C620 C616 1.368 . S
C620 C619 1.523 . S
H621 C596 0.950 . S
H622 C598 0.950 . S
H623 C599 0.949 . S
H624 C601 0.950 . S
H625 C603 0.950 . S
C626 C627 1.349 . S
C626 C628 1.327 . S
C626 H651 0.950 . S
C627 C626 1.349 . S
C627 C643 1.349 . S
C628 C626 1.327 . S
C628 C647 1.429 . S
C628 H652 0.950 . S
C629 C646 1.574 . S
C629 C648 1.368 . S
C629 H653 0.949 . S
H630 C634 0.949 . S
C631 C632 1.349 . S
C631 C633 1.327 . S
C631 H654 0.950 . S
C632 C631 1.349 . S
C632 C644 1.349 . S
C633 C631 1.327 . S
C633 C649 1.429 . S
C633 H655 0.950 . S
C634 H630 0.949 . S
C634 C642 1.574 . S
C634 C650 1.368 . S
H635 C643 0.950 . S
H636 C641 0.950 . S
H637 C642 0.949 . S
H638 C644 0.950 . S
H639 C645 0.950 . S
H640 C646 0.949 . S
C641 H636 0.950 . S
C641 C643 1.327 . S
C641 C647 1.429 . S
C642 C634 1.574 . S
C642 H637 0.949 . S
C642 C648 1.368 . S
C643 C627 1.349 . S
C643 H635 0.950 . S
C643 C641 1.327 . S
C644 C632 1.349 . S
C644 H638 0.950 . S
C644 C645 1.327 . S
C645 H639 0.950 . S
C645 C644 1.327 . S
C645 C649 1.429 . S
C646 C629 1.574 . S
C646 H640 0.949 . S
C646 C650 1.368 . S
C647 C628 1.429 . S
C647 C641 1.429 . S
C647 C648 1.523 . S
C648 C629 1.368 . S
C648 C642 1.368 . S
C648 C647 1.523 . S
C649 C633 1.429 . S
C649 C645 1.429 . S
C649 C650 1.523 . S
C650 C634 1.368 . S
C650 C646 1.368 . S
C650 C649 1.523 . S
H651 C626 0.950 . S
H652 C628 0.950 . S
H653 C629 0.949 . S
H654 C631 0.950 . S
H655 C633 0.950 . S
C656 C657 1.349 1_556 S
C656 C658 1.327 . S
C656 H681 0.950 . S
C657 C656 1.349 1_554 S
C657 C673 1.349 . S
C658 C656 1.327 . S
C658 C677 1.429 . S
C658 H682 0.950 . S
C659 C676 1.574 . S
C659 C678 1.368 . S
C659 H683 0.949 . S
H660 C664 0.949 . S
C661 C662 1.349 . S
C661 C663 1.327 . S
C661 H684 0.950 1_455 S
C662 C661 1.349 . S
C662 C674 1.349 . S
C663 C661 1.327 . S
C663 C679 1.429 . S
C663 H685 0.950 1_455 S
C664 H660 0.949 . S
C664 C672 1.574 . S
C664 C680 1.368 . S
H665 C673 0.950 . S
H666 C671 0.950 . S
H667 C672 0.949 . S
H668 C674 0.950 . S
H669 C675 0.950 . S
H670 C676 0.986 . S
C671 H666 0.950 . S
C671 C673 1.327 1_556 S
C671 C677 1.429 . S
C672 C664 1.574 . S
C672 H667 0.949 . S
C672 C678 1.368 . S
C673 C657 1.349 . S
C673 H665 0.950 . S
C673 C671 1.327 1_554 S
C674 C662 1.349 . S
C674 H668 0.950 . S
C674 C675 1.327 . S
C675 H669 0.950 . S
C675 C674 1.327 . S
C675 C679 1.429 . S
C676 C659 1.574 . S
C676 H670 0.986 . S
C676 C680 1.368 . S
C677 C658 1.429 . S
C677 C671 1.429 . S
C677 C678 1.523 . S
C678 C659 1.368 . S
C678 C672 1.368 . S
C678 C677 1.523 . S
C679 C663 1.429 . S
C679 C675 1.429 . S
C679 C680 1.523 . S
C680 C664 1.368 . S
C680 C676 1.368 . S
C680 C679 1.523 . S
H681 C656 0.950 . S
H682 C658 0.950 . S
H683 C659 0.949 . S
H684 C661 0.950 1_655 S
H685 C663 0.950 1_655 S
C686 C687 1.370 . S
C686 C688 1.327 . S
C686 H711 0.950 . S
C687 C686 1.370 . S
C687 C703 1.329 1_544 S
C688 C686 1.327 . S
C688 C707 1.429 1_554 S
C688 H712 0.950 . S
C689 C706 1.574 . S
C689 C708 1.368 1_565 S
C689 H713 0.949 . S
H690 C694 0.949 . S
C691 C692 1.349 1_565 S
C691 C693 1.327 . S
C691 H714 0.950 . S
C692 C691 1.349 1_545 S
C692 C704 1.349 . S
C693 C691 1.327 . S
C693 C709 1.429 1_565 S
C693 H715 0.950 . S
C694 H690 0.949 . S
C694 C702 1.574 . S
C694 C710 1.368 . S
H695 C703 0.950 . S
H696 C701 0.950 . S
H697 C702 0.949 . S
H698 C704 0.950 . S
H699 C705 0.950 . S
H700 C706 0.949 . S
C701 H696 0.950 . S
C701 C703 1.327 . S
C701 C707 1.429 1_565 S
C702 C694 1.574 . S
C702 H697 0.949 . S
C702 C708 1.368 . S
C703 C687 1.329 1_566 S
C703 H695 0.950 . S
C703 C701 1.327 . S
C704 C692 1.349 . S
C704 H698 0.950 . S
C704 C705 1.327 . S
C705 H699 0.950 . S
C705 C704 1.327 . S
C705 C709 1.429 . S
C706 C689 1.574 . S
C706 H700 0.949 . S
C706 C710 1.368 1_565 S
C707 C688 1.429 1_556 S
C707 C701 1.429 1_545 S
C707 C708 1.523 . S
C708 C689 1.368 1_545 S
C708 C702 1.368 . S
C708 C707 1.523 . S
C709 C693 1.429 1_545 S
C709 C705 1.429 . S
C709 C710 1.523 . S
C710 C694 1.368 . S
C710 C706 1.368 1_545 S
C710 C709 1.523 . S
H711 C686 0.950 . S
H712 C688 0.950 . S
H713 C689 0.949 . S
H714 C691 0.950 . S
H715 C693 0.950 . S
C716 C717 1.349 1_556 S
C716 C718 1.327 . S
C716 H741 0.950 . S
C717 C716 1.349 1_554 S
C717 C733 1.349 . S
C718 C716 1.327 . S
C718 C737 1.429 . S
C718 H742 0.950 . S
C719 C736 1.574 . S
C719 C738 1.368 . S
C719 H743 0.949 . S
H720 C724 0.949 . S
C721 C722 1.349 . S
C721 C723 1.327 . S
C721 H744 0.950 . S
C722 C721 1.349 . S
C722 C734 1.349 . S
C723 C721 1.327 . S
C723 C739 1.429 . S
C723 H745 0.950 . S
C724 H720 0.949 . S
C724 C732 1.574 . S
C724 C740 1.368 . S
H725 C733 0.950 . S
H726 C731 0.950 . S
H727 C732 0.949 . S
H728 C734 0.950 . S
H729 C735 0.950 . S
H730 C736 0.949 . S
C731 H726 0.950 . S
C731 C733 1.327 . S
C731 C737 1.429 1_554 S
C732 C724 1.574 . S
C732 H727 0.949 . S
C732 C738 1.368 . S
C733 C717 1.349 . S
C733 H725 0.950 . S
C733 C731 1.327 . S
C734 C722 1.349 . S
C734 H728 0.950 . S
C734 C735 1.327 . S
C735 H729 0.950 . S
C735 C734 1.327 . S
C735 C739 1.429 . S
C736 C719 1.574 . S
C736 H730 0.949 . S
C736 C740 1.368 . S
C737 C718 1.429 . S
C737 C731 1.429 1_556 S
C737 C738 1.523 . S
C738 C719 1.368 . S
C738 C732 1.368 . S
C738 C737 1.523 . S
C739 C723 1.429 . S
C739 C735 1.429 . S
C739 C740 1.523 . S
C740 C724 1.368 . S
C740 C736 1.368 . S
C740 C739 1.523 . S
H741 C716 0.950 . S
H742 C718 0.950 . S
H743 C719 0.949 . S
H744 C721 0.950 . S
H745 C723 0.950 . S
C746 C747 1.349 . S
C746 C748 1.327 1_554 S
C746 H771 0.950 . S
C747 C746 1.349 . S
C747 C763 1.349 1_554 S
C748 C746 1.327 1_556 S
C748 C767 1.429 . S
C748 H772 0.948 1_556 S
C749 C766 1.574 . S
C749 C768 1.368 . S
C749 H773 0.949 . S
H750 C754 0.949 . S
C751 C752 1.349 . S
C751 C753 1.327 . S
C751 H774 0.950 . S
C752 C751 1.349 . S
C752 C764 1.349 . S
C753 C751 1.327 . S
C753 C769 1.429 . S
C753 H775 0.950 . S
C754 H750 0.949 . S
C754 C762 1.574 . S
C754 C770 1.368 . S
H755 C763 0.950 . S
H756 C761 0.950 . S
H757 C762 0.949 . S
H758 C764 0.950 . S
H759 C765 0.950 . S
H760 C766 0.949 . S
C761 H756 0.950 . S
C761 C763 1.327 . S
C761 C767 1.429 . S
C762 C754 1.574 . S
C762 H757 0.949 . S
C762 C768 1.368 . S
C763 C747 1.349 1_556 S
C763 H755 0.950 . S
C763 C761 1.327 . S
C764 C752 1.349 . S
C764 H758 0.950 . S
C764 C765 1.327 . S
C765 H759 0.950 . S
C765 C764 1.327 . S
C765 C769 1.429 . S
C766 C749 1.574 . S
C766 H760 0.949 . S
C766 C770 1.368 . S
C767 C748 1.429 . S
C767 C761 1.429 . S
C767 C768 1.523 . S
C768 C749 1.368 . S
C768 C762 1.368 . S
C768 C767 1.523 . S
C769 C753 1.429 . S
C769 C765 1.429 . S
C769 C770 1.523 . S
C770 C754 1.368 . S
C770 C766 1.368 . S
C770 C769 1.523 . S
H771 C746 0.950 . S
H772 C748 0.948 1_554 S
H773 C749 0.949 . S
H774 C751 0.950 . S
H775 C753 0.950 . S
C776 C777 1.349 . S
C776 C778 1.327 . S
C776 H801 0.950 . S
C777 C776 1.349 . S
C777 C793 1.349 . S
C778 C776 1.327 . S
C778 C797 1.429 . S
C778 H802 0.950 . S
C779 C796 1.574 . S
C779 C798 1.368 . S
C779 H803 0.949 . S
H780 C784 0.949 . S
C781 C782 1.349 . S
C781 C783 1.327 . S
C781 H804 0.950 . S
C782 C781 1.349 . S
C782 C794 1.349 . S
C783 C781 1.327 . S
C783 C799 1.429 . S
C783 H805 0.950 . S
C784 H780 0.949 . S
C784 C792 1.574 . S
C784 C800 1.368 . S
H785 C793 0.950 . S
H786 C791 0.950 . S
H787 C792 0.949 . S
H788 C794 0.950 . S
H789 C795 0.950 . S
H790 C796 0.949 . S
C791 H786 0.950 . S
C791 C793 1.327 . S
C791 C797 1.429 . S
C792 C784 1.574 . S
C792 H787 0.949 . S
C792 C798 1.368 . S
C793 C777 1.349 . S
C793 H785 0.950 . S
C793 C791 1.327 . S
C794 C782 1.349 . S
C794 H788 0.950 . S
C794 C795 1.327 . S
C795 H789 0.950 . S
C795 C794 1.327 . S
C795 C799 1.429 . S
C796 C779 1.574 . S
C796 H790 0.949 . S
C796 C800 1.368 . S
C797 C778 1.429 . S
C797 C791 1.429 . S
C797 C798 1.523 . S
C798 C779 1.368 . S
C798 C792 1.368 . S
C798 C797 1.523 . S
C799 C783 1.429 . S
C799 C795 1.429 . S
C799 C800 1.523 . S
C800 C784 1.368 . S
C800 C796 1.368 . S
C800 C799 1.523 . S
H801 C776 0.950 . S
H802 C778 0.950 . S
H803 C779 0.949 . S
H804 C781 0.950 . S
H805 C783 0.950 . S
C806 C807 1.338 1_545 S
C806 C808 1.327 . S
C806 H831 0.950 . S
C807 C806 1.338 1_565 S
C807 C823 1.360 . S
C808 C806 1.327 . S
C808 C827 1.429 1_545 S
C808 H832 0.950 . S
C809 C826 1.574 . S
C809 C828 1.368 . S
C809 H833 0.949 . S
H810 C814 0.949 . S
C811 C812 1.349 . S
C811 C813 1.327 . S
C811 H834 0.950 . S
C812 C811 1.349 . S
C812 C824 1.349 1_565 S
C813 C811 1.327 . S
C813 C829 1.429 . S
C813 H835 0.950 . S
C814 H810 0.949 . S
C814 C822 1.574 . S
C814 C830 1.368 1_545 S
H815 C823 0.950 . S
H816 C821 0.950 . S
H817 C822 0.949 . S
H818 C824 0.950 . S
H819 C825 0.950 . S
H820 C826 0.949 . S
C821 H816 0.950 . S
C821 C823 1.327 . S
C821 C827 1.429 . S
C822 C814 1.574 . S
C822 H817 0.949 . S
C822 C828 1.368 1_545 S
C823 C807 1.360 . S
C823 H815 0.950 . S
C823 C821 1.327 . S
C824 C812 1.349 1_545 S
C824 H818 0.950 . S
C824 C825 1.327 . S
C825 H819 0.950 . S
C825 C824 1.327 . S
C825 C829 1.429 1_545 S
C826 C809 1.574 . S
C826 H820 0.949 . S
C826 C830 1.368 . S
C827 C808 1.429 1_565 S
C827 C821 1.429 . S
C827 C828 1.523 . S
C828 C809 1.368 . S
C828 C822 1.368 1_565 S
C828 C827 1.523 . S
C829 C813 1.429 . S
C829 C825 1.429 1_565 S
C829 C830 1.523 . S
C830 C814 1.368 1_565 S
C830 C826 1.368 . S
C830 C829 1.523 . S
H831 C806 0.950 . S
H832 C808 0.950 . S
H833 C809 0.949 . S
H834 C811 0.950 . S
H835 C813 0.950 . S
C836 C837 1.349 . S
C836 C838 1.327 . S
C836 H861 0.950 . S
C837 C836 1.349 . S
C837 C853 1.349 . S
C838 C836 1.327 . S
C838 C857 1.429 . S
C838 H862 0.950 . S
C839 C856 1.574 . S
C839 C858 1.368 . S
C839 H863 0.949 . S
H840 C844 0.949 . S
C841 C842 1.349 . S
C841 C843 1.327 . S
C841 H864 0.950 . S
C842 C841 1.349 . S
C842 C854 1.349 . S
C843 C841 1.327 . S
C843 C859 1.429 . S
C843 H865 0.950 . S
C844 H840 0.949 . S
C844 C852 1.574 . S
C844 C860 1.368 . S
H845 C853 0.950 . S
H846 C851 0.950 . S
H847 C852 0.949 . S
H848 C854 0.950 . S
H849 C855 0.950 . S
H850 C856 0.949 . S
C851 H846 0.950 . S
C851 C853 1.327 . S
C851 C857 1.429 . S
C852 C844 1.574 . S
C852 H847 0.949 . S
C852 C858 1.368 . S
C853 C837 1.349 . S
C853 H845 0.950 . S
C853 C851 1.327 . S
C854 C842 1.349 . S
C854 H848 0.950 . S
C854 C855 1.327 . S
C855 H849 0.950 . S
C855 C854 1.327 . S
C855 C859 1.429 . S
C856 C839 1.574 . S
C856 H850 0.949 . S
C856 C860 1.368 . S
C857 C838 1.429 . S
C857 C851 1.429 . S
C857 C858 1.523 . S
C858 C839 1.368 . S
C858 C852 1.368 . S
C858 C857 1.523 . S
C859 C843 1.429 . S
C859 C855 1.429 . S
C859 C860 1.523 . S
C860 C844 1.368 . S
C860 C856 1.368 . S
C860 C859 1.523 . S
H861 C836 0.950 . S
H862 C838 0.950 . S
H863 C839 0.949 . S
H864 C841 0.950 . S
H865 C843 0.950 . S
C866 C867 1.349 . S
C866 C868 1.327 . S
C866 H891 0.950 . S
C867 C866 1.349 . S
C867 C883 1.349 . S
C868 C866 1.327 . S
C868 C887 1.429 . S
C868 H892 0.950 . S
C869 C886 1.574 . S
C869 C888 1.368 . S
C869 H893 0.949 . S
H870 C874 0.949 . S
C871 C872 1.349 . S
C871 C873 1.327 . S
C871 H894 0.950 . S
C872 C871 1.349 . S
C872 C884 1.349 . S
C873 C871 1.327 . S
C873 C889 1.429 . S
C873 H895 0.950 . S
C874 H870 0.949 . S
C874 C882 1.574 . S
C874 C890 1.368 . S
H875 C883 0.950 . S
H876 C881 0.950 . S
H877 C882 0.949 . S
H878 C884 0.950 . S
H879 C885 0.950 . S
H880 C886 0.949 . S
C881 H876 0.950 . S
C881 C883 1.327 . S
C881 C887 1.429 . S
C882 C874 1.574 . S
C882 H877 0.949 . S
C882 C888 1.368 . S
C883 C867 1.349 . S
C883 H875 0.950 . S
C883 C881 1.327 . S
C884 C872 1.349 . S
C884 H878 0.950 . S
C884 C885 1.327 . S
C885 H879 0.950 . S
C885 C884 1.327 . S
C885 C889 1.429 . S
C886 C869 1.574 . S
C886 H880 0.949 . S
C886 C890 1.368 . S
C887 C868 1.429 . S
C887 C881 1.429 . S
C887 C888 1.523 . S
C888 C869 1.368 . S
C888 C882 1.368 . S
C888 C887 1.523 . S
C889 C873 1.429 . S
C889 C885 1.429 . S
C889 C890 1.523 . S
C890 C874 1.368 . S
C890 C886 1.368 . S
C890 C889 1.523 . S
H891 C866 0.950 . S
H892 C868 0.950 . S
H893 C869 0.949 . S
H894 C871 0.950 . S
H895 C873 0.950 . S
C177 C76 1.439 1_545 S
C182 C114 1.450 . S
C212 C134 1.538 . S
C207 C88 1.506 . S
C242 C154 1.447 . S
C237 C52 1.437 . S
C272 C174 1.536 . S
C267 C64 1.510 . S
C302 C115 1.450 . S
C297 C28 1.439 1_545 S
C327 C40 1.521 . S
C332 C135 1.544 . S
C357 C4 1.437 . S
C362 C155 1.447 . S
C387 C16 1.519 . S
C392 C175 1.536 1_655 S
C422 C105 0.690 . S
C417 C69 0.680 . S
C452 C125 0.679 . S
C447 C81 0.670 . S
C482 C145 0.696 . S
C477 C93 0.690 . S
C507 C57 0.676 . S
C512 C165 0.683 . S
C537 C21 0.686 . S
C542 C108 0.688 1_455 S
C572 C128 0.678 . S
C567 C33 0.670 . S
C602 C148 0.697 . S
C597 C45 0.692 . S
C627 C9 0.676 . S
C632 C168 0.683 . S
C657 C66 1.552 . S
C662 C98 1.494 . S
C687 C78 1.490 . S
C692 C118 1.440 . S
C722 C138 1.491 . S
C717 C90 1.544 . S
C752 C158 1.432 . S
C747 C54 1.481 . S
C777 C18 1.542 . S
C782 C100 1.502 . S
C812 C120 1.440 . S
C807 C30 1.489 1_565 S
C842 C140 1.491 . S
C837 C42 1.534 . S
C867 C6 1.484 . S
C872 C160 1.432 . S
