# Generated by pormake.
# Topology bwt, (3,3)-cn, num edge types: 1
# Building blocks:
#     Node 0, Type 0, BuildingBlock: WUSLED_clean_sbu_0, # of connection points: 3
#     Node 1, Type 0, BuildingBlock: WUSLED_clean_sbu_0, # of connection points: 3
#     Node 2, Type 0, BuildingBlock: WUSLED_clean_sbu_0, # of connection points: 3
#     Node 3, Type 0, BuildingBlock: WUSLED_clean_sbu_0, # of connection points: 3
#     Node 4, Type 0, BuildingBlock: WUSLED_clean_sbu_0, # of connection points: 3
#     Node 5, Type 0, BuildingBlock: WUSLED_clean_sbu_0, # of connection points: 3
#     Node 6, Type 0, BuildingBlock: WUSLED_clean_sbu_0, # of connection points: 3
#     Node 7, Type 0, BuildingBlock: WUSLED_clean_sbu_0, # of connection points: 3
#     Node 8, Type 0, BuildingBlock: WUSLED_clean_sbu_0, # of connection points: 3
#     Node 9, Type 0, BuildingBlock: WUSLED_clean_sbu_0, # of connection points: 3
#     Node 10, Type 0, BuildingBlock: WUSLED_clean_sbu_0, # of connection points: 3
#     Node 11, Type 0, BuildingBlock: WUSLED_clean_sbu_0, # of connection points: 3
#     Node 12, Type 0, BuildingBlock: WUSLED_clean_sbu_0, # of connection points: 3
#     Node 13, Type 0, BuildingBlock: WUSLED_clean_sbu_0, # of connection points: 3
#     Node 14, Type 0, BuildingBlock: WUSLED_clean_sbu_0, # of connection points: 3
#     Node 15, Type 0, BuildingBlock: WUSLED_clean_sbu_0, # of connection points: 3
#     Node 16, Type 0, BuildingBlock: WUSLED_clean_sbu_0, # of connection points: 3
#     Node 17, Type 0, BuildingBlock: WUSLED_clean_sbu_0, # of connection points: 3
#     Node 18, Type 0, BuildingBlock: WUSLED_clean_sbu_0, # of connection points: 3
#     Node 19, Type 0, BuildingBlock: WUSLED_clean_sbu_0, # of connection points: 3
#     Node 20, Type 0, BuildingBlock: WUSLED_clean_sbu_0, # of connection points: 3
#     Node 21, Type 0, BuildingBlock: WUSLED_clean_sbu_0, # of connection points: 3
#     Node 22, Type 0, BuildingBlock: WUSLED_clean_sbu_0, # of connection points: 3
#     Node 23, Type 0, BuildingBlock: WUSLED_clean_sbu_0, # of connection points: 3
#     Node 24, Type 1, BuildingBlock: BELTOD_clean_linker_0, # of connection points: 3
#     Node 25, Type 1, BuildingBlock: BELTOD_clean_linker_0, # of connection points: 3
#     Node 26, Type 1, BuildingBlock: BELTOD_clean_linker_0, # of connection points: 3
#     Node 27, Type 1, BuildingBlock: BELTOD_clean_linker_0, # of connection points: 3
#     Node 28, Type 1, BuildingBlock: BELTOD_clean_linker_0, # of connection points: 3
#     Node 29, Type 1, BuildingBlock: BELTOD_clean_linker_0, # of connection points: 3
#     Node 30, Type 1, BuildingBlock: BELTOD_clean_linker_0, # of connection points: 3
#     Node 31, Type 1, BuildingBlock: BELTOD_clean_linker_0, # of connection points: 3
#     Node 32, Type 1, BuildingBlock: BELTOD_clean_linker_0, # of connection points: 3
#     Node 33, Type 1, BuildingBlock: BELTOD_clean_linker_0, # of connection points: 3
#     Node 34, Type 1, BuildingBlock: BELTOD_clean_linker_0, # of connection points: 3
#     Node 35, Type 1, BuildingBlock: BELTOD_clean_linker_0, # of connection points: 3
#     Node 36, Type 1, BuildingBlock: BELTOD_clean_linker_0, # of connection points: 3
#     Node 37, Type 1, BuildingBlock: BELTOD_clean_linker_0, # of connection points: 3
#     Node 38, Type 1, BuildingBlock: BELTOD_clean_linker_0, # of connection points: 3
#     Node 39, Type 1, BuildingBlock: BELTOD_clean_linker_0, # of connection points: 3
#     Node 40, Type 1, BuildingBlock: BELTOD_clean_linker_0, # of connection points: 3
#     Node 41, Type 1, BuildingBlock: BELTOD_clean_linker_0, # of connection points: 3
#     Node 42, Type 1, BuildingBlock: BELTOD_clean_linker_0, # of connection points: 3
#     Node 43, Type 1, BuildingBlock: BELTOD_clean_linker_0, # of connection points: 3
#     Node 44, Type 1, BuildingBlock: BELTOD_clean_linker_0, # of connection points: 3
#     Node 45, Type 1, BuildingBlock: BELTOD_clean_linker_0, # of connection points: 3
#     Node 46, Type 1, BuildingBlock: BELTOD_clean_linker_0, # of connection points: 3
#     Node 47, Type 1, BuildingBlock: BELTOD_clean_linker_0, # of connection points: 3
#     Edge 48, Type (0, 1), BuildingBlock: MIFKUJ_clean_linker_0, # of connection points: 2
#     Edge 49, Type (0, 1), BuildingBlock: MIFKUJ_clean_linker_0, # of connection points: 2
#     Edge 50, Type (0, 1), BuildingBlock: MIFKUJ_clean_linker_0, # of connection points: 2
#     Edge 51, Type (0, 1), BuildingBlock: MIFKUJ_clean_linker_0, # of connection points: 2
#     Edge 52, Type (0, 1), BuildingBlock: MIFKUJ_clean_linker_0, # of connection points: 2
#     Edge 53, Type (0, 1), BuildingBlock: MIFKUJ_clean_linker_0, # of connection points: 2
#     Edge 54, Type (0, 1), BuildingBlock: MIFKUJ_clean_linker_0, # of connection points: 2
#     Edge 55, Type (0, 1), BuildingBlock: MIFKUJ_clean_linker_0, # of connection points: 2
#     Edge 56, Type (0, 1), BuildingBlock: MIFKUJ_clean_linker_0, # of connection points: 2
#     Edge 57, Type (0, 1), BuildingBlock: MIFKUJ_clean_linker_0, # of connection points: 2
#     Edge 58, Type (0, 1), BuildingBlock: MIFKUJ_clean_linker_0, # of connection points: 2
#     Edge 59, Type (0, 1), BuildingBlock: MIFKUJ_clean_linker_0, # of connection points: 2
#     Edge 60, Type (0, 1), BuildingBlock: MIFKUJ_clean_linker_0, # of connection points: 2
#     Edge 61, Type (0, 1), BuildingBlock: MIFKUJ_clean_linker_0, # of connection points: 2
#     Edge 62, Type (0, 1), BuildingBlock: MIFKUJ_clean_linker_0, # of connection points: 2
#     Edge 63, Type (0, 1), BuildingBlock: MIFKUJ_clean_linker_0, # of connection points: 2
#     Edge 64, Type (0, 1), BuildingBlock: MIFKUJ_clean_linker_0, # of connection points: 2
#     Edge 65, Type (0, 1), BuildingBlock: MIFKUJ_clean_linker_0, # of connection points: 2
#     Edge 66, Type (0, 1), BuildingBlock: MIFKUJ_clean_linker_0, # of connection points: 2
#     Edge 67, Type (0, 1), BuildingBlock: MIFKUJ_clean_linker_0, # of connection points: 2
#     Edge 68, Type (0, 1), BuildingBlock: MIFKUJ_clean_linker_0, # of connection points: 2
#     Edge 69, Type (0, 1), BuildingBlock: MIFKUJ_clean_linker_0, # of connection points: 2
#     Edge 70, Type (0, 1), BuildingBlock: MIFKUJ_clean_linker_0, # of connection points: 2
#     Edge 71, Type (0, 1), BuildingBlock: MIFKUJ_clean_linker_0, # of connection points: 2
#     Edge 72, Type (0, 1), BuildingBlock: MIFKUJ_clean_linker_0, # of connection points: 2
#     Edge 73, Type (0, 1), BuildingBlock: MIFKUJ_clean_linker_0, # of connection points: 2
#     Edge 74, Type (0, 1), BuildingBlock: MIFKUJ_clean_linker_0, # of connection points: 2
#     Edge 75, Type (0, 1), BuildingBlock: MIFKUJ_clean_linker_0, # of connection points: 2
#     Edge 76, Type (0, 1), BuildingBlock: MIFKUJ_clean_linker_0, # of connection points: 2
#     Edge 77, Type (0, 1), BuildingBlock: MIFKUJ_clean_linker_0, # of connection points: 2
#     Edge 78, Type (0, 1), BuildingBlock: MIFKUJ_clean_linker_0, # of connection points: 2
#     Edge 79, Type (0, 1), BuildingBlock: MIFKUJ_clean_linker_0, # of connection points: 2
#     Edge 80, Type (0, 1), BuildingBlock: MIFKUJ_clean_linker_0, # of connection points: 2
#     Edge 81, Type (0, 1), BuildingBlock: MIFKUJ_clean_linker_0, # of connection points: 2
#     Edge 82, Type (0, 1), BuildingBlock: MIFKUJ_clean_linker_0, # of connection points: 2
#     Edge 83, Type (0, 1), BuildingBlock: MIFKUJ_clean_linker_0, # of connection points: 2
#     Edge 84, Type (0, 1), BuildingBlock: MIFKUJ_clean_linker_0, # of connection points: 2
#     Edge 85, Type (0, 1), BuildingBlock: MIFKUJ_clean_linker_0, # of connection points: 2
#     Edge 86, Type (0, 1), BuildingBlock: MIFKUJ_clean_linker_0, # of connection points: 2
#     Edge 87, Type (0, 1), BuildingBlock: MIFKUJ_clean_linker_0, # of connection points: 2
#     Edge 88, Type (0, 1), BuildingBlock: MIFKUJ_clean_linker_0, # of connection points: 2
#     Edge 89, Type (0, 1), BuildingBlock: MIFKUJ_clean_linker_0, # of connection points: 2
#     Edge 90, Type (0, 1), BuildingBlock: MIFKUJ_clean_linker_0, # of connection points: 2
#     Edge 91, Type (0, 1), BuildingBlock: MIFKUJ_clean_linker_0, # of connection points: 2
#     Edge 92, Type (0, 1), BuildingBlock: MIFKUJ_clean_linker_0, # of connection points: 2
#     Edge 93, Type (0, 1), BuildingBlock: MIFKUJ_clean_linker_0, # of connection points: 2
#     Edge 94, Type (0, 1), BuildingBlock: MIFKUJ_clean_linker_0, # of connection points: 2
#     Edge 95, Type (0, 1), BuildingBlock: MIFKUJ_clean_linker_0, # of connection points: 2
#     Edge 96, Type (0, 1), BuildingBlock: MIFKUJ_clean_linker_0, # of connection points: 2
#     Edge 97, Type (0, 1), BuildingBlock: MIFKUJ_clean_linker_0, # of connection points: 2
#     Edge 98, Type (0, 1), BuildingBlock: MIFKUJ_clean_linker_0, # of connection points: 2
#     Edge 99, Type (0, 1), BuildingBlock: MIFKUJ_clean_linker_0, # of connection points: 2
#     Edge 100, Type (0, 1), BuildingBlock: MIFKUJ_clean_linker_0, # of connection points: 2
#     Edge 101, Type (0, 1), BuildingBlock: MIFKUJ_clean_linker_0, # of connection points: 2
#     Edge 102, Type (0, 1), BuildingBlock: MIFKUJ_clean_linker_0, # of connection points: 2
#     Edge 103, Type (0, 1), BuildingBlock: MIFKUJ_clean_linker_0, # of connection points: 2
#     Edge 104, Type (0, 1), BuildingBlock: MIFKUJ_clean_linker_0, # of connection points: 2
#     Edge 105, Type (0, 1), BuildingBlock: MIFKUJ_clean_linker_0, # of connection points: 2
#     Edge 106, Type (0, 1), BuildingBlock: MIFKUJ_clean_linker_0, # of connection points: 2
#     Edge 107, Type (0, 1), BuildingBlock: MIFKUJ_clean_linker_0, # of connection points: 2
#     Edge 108, Type (0, 1), BuildingBlock: MIFKUJ_clean_linker_0, # of connection points: 2
#     Edge 109, Type (0, 1), BuildingBlock: MIFKUJ_clean_linker_0, # of connection points: 2
#     Edge 110, Type (0, 1), BuildingBlock: MIFKUJ_clean_linker_0, # of connection points: 2
#     Edge 111, Type (0, 1), BuildingBlock: MIFKUJ_clean_linker_0, # of connection points: 2
#     Edge 112, Type (0, 1), BuildingBlock: MIFKUJ_clean_linker_0, # of connection points: 2
#     Edge 113, Type (0, 1), BuildingBlock: MIFKUJ_clean_linker_0, # of connection points: 2
#     Edge 114, Type (0, 1), BuildingBlock: MIFKUJ_clean_linker_0, # of connection points: 2
#     Edge 115, Type (0, 1), BuildingBlock: MIFKUJ_clean_linker_0, # of connection points: 2
#     Edge 116, Type (0, 1), BuildingBlock: MIFKUJ_clean_linker_0, # of connection points: 2
#     Edge 117, Type (0, 1), BuildingBlock: MIFKUJ_clean_linker_0, # of connection points: 2
#     Edge 118, Type (0, 1), BuildingBlock: MIFKUJ_clean_linker_0, # of connection points: 2
#     Edge 119, Type (0, 1), BuildingBlock: MIFKUJ_clean_linker_0, # of connection points: 2
# Relax obj value: 0.217
# Max RMSD: 0.252
# Mean RMSD: 0.134
data_MOF--net-bwt--node1-WUSLED_clean_sbu_0--node2-BELTOD_clean_linker_0--edge1-MIFKUJ_clean_linker_0
_symmetry_space_group_name_H-M    P1
_symmetry_Int_Tables_number       1
_symmetry_cell_setting            triclinic
loop_
_symmetry_equiv_pos_as_xyz
'x, y, z'
_cell_length_a     91.37318
_cell_length_b     91.333926
_cell_length_c     91.365885
_cell_angle_alpha  91.297763
_cell_angle_beta   91.331223
_cell_angle_gamma 91.30496
loop_
_atom_site_label
_atom_site_type_symbol
_atom_site_fract_x
_atom_site_fract_y
_atom_site_fract_z
_atom_type_partial_charge
C0 C 0.30298 0.66027 0.35435 0.0
C1 C 0.31095 0.64816 0.35906 0.0
C2 C 0.33293 0.65733 0.34715 0.0
C3 C 0.32571 0.64666 0.35541 0.0
C4 C 0.32502 0.66955 0.34266 0.0
C5 C 0.31021 0.67097 0.34618 0.0
U6 U 0.2701 0.65698 0.3798 0.0
O7 O 0.25082 0.67086 0.38261 0.0
O8 O 0.24776 0.64772 0.37586 0.0
C9 C 0.24144 0.66016 0.379 0.0
C10 C 0.2871 0.66167 0.35738 0.0
C11 C 0.22758 0.66358 0.37099 0.0
C12 C 0.21156 0.68028 0.35792 0.0
C13 C 0.22558 0.67662 0.3633 0.0
C14 C 0.20146 0.65792 0.3676 0.0
C15 C 0.19924 0.67114 0.36036 0.0
C16 C 0.21539 0.6542 0.37278 0.0
C17 C 0.28026 0.64314 0.41914 0.0
C18 C 0.26791 0.62755 0.43659 0.0
C19 C 0.29021 0.64082 0.44391 0.0
C20 C 0.29083 0.64691 0.43003 0.0
C21 C 0.27896 0.63076 0.44728 0.0
C22 C 0.26858 0.63363 0.42262 0.0
C23 C 0.28284 0.64792 0.40401 0.0
O24 O 0.27963 0.64939 0.35914 0.0
O25 O 0.28361 0.67206 0.36679 0.0
O26 O 0.28112 0.66184 0.40123 0.0
O27 O 0.27817 0.63909 0.39326 0.0
H28 H 0.30575 0.63975 0.36545 0.0
H29 H 0.33151 0.63718 0.35914 0.0
H30 H 0.33023 0.67793 0.33625 0.0
H31 H 0.30438 0.68043 0.34243 0.0
H32 H 0.21025 0.69056 0.35241 0.0
H33 H 0.23472 0.68416 0.36184 0.0
H34 H 0.19231 0.65051 0.36951 0.0
H35 H 0.21654 0.64416 0.37875 0.0
H36 H 0.25912 0.61981 0.4388 0.0
H37 H 0.29876 0.64373 0.45193 0.0
H38 H 0.29995 0.65419 0.42762 0.0
H39 H 0.26029 0.6305 0.41441 0.0
C40 C 0.20615 0.26386 0.77757 0.0
C41 C 0.19596 0.26931 0.78747 0.0
C42 C 0.17618 0.26513 0.76933 0.0
C43 C 0.18109 0.2699 0.78341 0.0
C44 C 0.18638 0.25912 0.75971 0.0
C45 C 0.20121 0.2585 0.7638 0.0
U46 U 0.23836 0.27409 0.80347 0.0
O47 O 0.26015 0.26436 0.80649 0.0
O48 O 0.25825 0.28714 0.79953 0.0
C49 C 0.26705 0.27638 0.80252 0.0
C50 C 0.22202 0.26488 0.78091 0.0
C51 C 0.27979 0.27486 0.79304 0.0
C52 C 0.29161 0.27824 0.7697 0.0
C53 C 0.27883 0.27681 0.77784 0.0
C54 C 0.30632 0.27501 0.79174 0.0
C55 C 0.30548 0.2779 0.77671 0.0
C56 C 0.2936 0.27347 0.7998 0.0
C57 C 0.23093 0.29018 0.84138 0.0
C58 C 0.24923 0.30475 0.85535 0.0
C59 C 0.22496 0.30099 0.86493 0.0
C60 C 0.22098 0.29236 0.85259 0.0
C61 C 0.23899 0.30766 0.86625 0.0
C62 C 0.24522 0.29609 0.84299 0.0
C63 C 0.22584 0.28306 0.82753 0.0
O64 O 0.22739 0.27831 0.78241 0.0
O65 O 0.22708 0.25605 0.79091 0.0
O66 O 0.22975 0.26944 0.8253 0.0
O67 O 0.22728 0.29118 0.81595 0.0
H68 H 0.19959 0.27355 0.79815 0.0
H69 H 0.17357 0.27469 0.79104 0.0
H70 H 0.18294 0.25515 0.74888 0.0
H71 H 0.2089 0.25424 0.75601 0.0
H72 H 0.29066 0.28051 0.75813 0.0
H73 H 0.26826 0.27797 0.77242 0.0
H74 H 0.31685 0.27455 0.79738 0.0
H75 H 0.29459 0.27199 0.81152 0.0
H76 H 0.26008 0.30979 0.85597 0.0
H77 H 0.21691 0.30283 0.87325 0.0
H78 H 0.20992 0.28784 0.85155 0.0
H79 H 0.25306 0.29452 0.8344 0.0
C80 C 0.78772 0.99966 0.61226 0.0
C81 C 0.79853 0.993 0.60392 0.0
C82 C 0.81743 0.00442 0.61963 0.0
C83 C 0.81324 0.99527 0.60764 0.0
C84 C 0.80657 0.01095 0.62809 0.0
C85 C 0.79177 0.00859 0.6244 0.0
U86 U 0.76236 0.99391 0.58053 0.0
O87 O 0.74213 0.98089 0.57663 0.0
O88 O 0.74204 0.00475 0.57409 0.0
C89 C 0.73419 0.99259 0.57503 0.0
C90 C 0.77246 0.99851 0.60719 0.0
C91 C 0.72202 0.99342 0.58505 0.0
C92 C 0.7135 0.99382 0.60996 0.0
C93 C 0.72496 0.99443 0.60019 0.0
C94 C 0.69607 0.99167 0.58952 0.0
C95 C 0.69906 0.99222 0.60465 0.0
C96 C 0.70755 0.99231 0.57972 0.0
C97 C 0.77758 0.98857 0.54351 0.0
C98 C 0.75987 0.98179 0.52428 0.0
C99 C 0.78145 0.9964 0.51871 0.0
C100 C 0.78622 0.99577 0.53331 0.0
C101 C 0.76798 0.98983 0.51422 0.0
C102 C 0.76459 0.98123 0.53882 0.0
C103 C 0.78063 0.99087 0.55918 0.0
O104 O 0.76851 0.00919 0.59866 0.0
O105 O 0.76823 0.98544 0.60214 0.0
O106 O 0.77668 0.97997 0.56751 0.0
O107 O 0.77665 0.00372 0.56423 0.0
H108 H 0.7956 0.98627 0.59433 0.0
H109 H 0.82134 0.98989 0.60106 0.0
H110 H 0.80951 0.01819 0.6373 0.0
H111 H 0.78352 0.01401 0.63075 0.0
H112 H 0.71592 0.99411 0.62164 0.0
H113 H 0.73613 0.99523 0.60443 0.0
H114 H 0.6849 0.99037 0.58535 0.0
H115 H 0.70517 0.99151 0.56805 0.0
H116 H 0.74933 0.97682 0.5212 0.0
H117 H 0.78792 0.00259 0.51111 0.0
H118 H 0.7962 0.00161 0.53681 0.0
H119 H 0.7576 0.97584 0.54657 0.0
C120 C 0.68244 0.97838 0.30502 0.0
C121 C 0.6717 0.97419 0.29442 0.0
C122 C 0.6529 0.98556 0.30914 0.0
C123 C 0.65707 0.97783 0.29642 0.0
C124 C 0.66365 0.98942 0.31982 0.0
C125 C 0.67821 0.98602 0.31771 0.0
U126 U 0.71949 0.98697 0.28831 0.0
O127 O 0.73977 0.99122 0.30074 0.0
O128 O 0.73933 0.97401 0.28313 0.0
C129 C 0.74694 0.98124 0.29352 0.0
C130 C 0.69811 0.97535 0.30315 0.0
C131 C 0.76234 0.97852 0.29774 0.0
C132 C 0.78255 0.98241 0.31533 0.0
C133 C 0.76767 0.98308 0.31169 0.0
C134 C 0.78704 0.97176 0.29139 0.0
C135 C 0.79246 0.977 0.30514 0.0
C136 C 0.77209 0.97255 0.28771 0.0
C137 C 0.72143 0.0171 0.26049 0.0
C138 C 0.73912 0.01613 0.24125 0.0
C139 C 0.71878 0.03265 0.23966 0.0
C140 C 0.71422 0.02836 0.25339 0.0
C141 C 0.73034 0.0254 0.2329 0.0
C142 C 0.73466 0.012 0.25508 0.0
C143 C 0.71326 0.00829 0.27077 0.0
O144 O 0.70233 0.96961 0.29063 0.0
O145 O 0.70689 0.98592 0.30805 0.0
O146 O 0.71647 0.0105 0.2847 0.0
O147 O 0.71198 0.99435 0.2669 0.0
H148 H 0.67461 0.96835 0.2845 0.0
H149 H 0.64911 0.97488 0.28784 0.0
H150 H 0.66086 0.99514 0.32985 0.0
H151 H 0.6862 0.98967 0.32598 0.0
H152 H 0.78632 0.98622 0.32611 0.0
H153 H 0.76036 0.9874 0.31976 0.0
H154 H 0.79443 0.96755 0.2833 0.0
H155 H 0.76826 0.96899 0.27687 0.0
H156 H 0.74818 0.0105 0.2364 0.0
H157 H 0.71208 0.04013 0.23354 0.0
H158 H 0.70411 0.03257 0.25761 0.0
H159 H 0.74046 0.00342 0.26063 0.0
C160 C 0.35582 0.30351 0.66496 0.0
C161 C 0.36604 0.31376 0.65976 0.0
C162 C 0.34853 0.33351 0.66258 0.0
C163 C 0.36246 0.3286 0.65861 0.0
C164 C 0.33844 0.32317 0.66798 0.0
C165 C 0.34205 0.30838 0.66914 0.0
U166 U 0.38094 0.27123 0.65747 0.0
O167 O 0.38651 0.25194 0.67051 0.0
O168 O 0.37579 0.24887 0.64884 0.0
C169 C 0.3814 0.24255 0.66041 0.0
C170 C 0.35914 0.2877 0.66569 0.0
C171 C 0.37463 0.22854 0.66515 0.0
C172 C 0.35438 0.21325 0.67369 0.0
C173 C 0.36007 0.22706 0.66966 0.0
C174 C 0.37767 0.20239 0.66864 0.0
C175 C 0.36317 0.2007 0.67332 0.0
C176 C 0.38328 0.21607 0.66468 0.0
C177 C 0.41757 0.28221 0.63834 0.0
C178 C 0.44167 0.27131 0.63728 0.0
C179 C 0.43506 0.29012 0.62027 0.0
C180 C 0.42132 0.29104 0.62659 0.0
C181 C 0.44548 0.28027 0.62551 0.0
C182 C 0.42783 0.27226 0.64364 0.0
C183 C 0.40326 0.28452 0.64522 0.0
O184 O 0.3593 0.28058 0.65304 0.0
O185 O 0.37004 0.28424 0.67451 0.0
O186 O 0.40245 0.28259 0.65939 0.0
O187 O 0.39155 0.27972 0.63783 0.0
H188 H 0.37673 0.31026 0.65641 0.0
H189 H 0.37048 0.33614 0.65427 0.0
H190 H 0.32772 0.3265 0.67138 0.0
H191 H 0.334 0.3007 0.67322 0.0
H192 H 0.34319 0.21244 0.67727 0.0
H193 H 0.35314 0.23652 0.67006 0.0
H194 H 0.38472 0.19306 0.66781 0.0
H195 H 0.39449 0.21688 0.66109 0.0
H196 H 0.44934 0.26351 0.64154 0.0
H197 H 0.43762 0.29742 0.61147 0.0
H198 H 0.41366 0.29892 0.62243 0.0
H199 H 0.42523 0.26535 0.65274 0.0
C200 C 0.30118 0.68191 0.97724 0.0
C201 C 0.29677 0.67714 0.991 0.0
C202 C 0.30444 0.65255 0.98493 0.0
C203 C 0.29831 0.66255 0.99478 0.0
C204 C 0.30841 0.65719 0.97099 0.0
C205 C 0.30655 0.67177 0.96708 0.0
U206 U 0.28896 0.71934 0.98788 0.0
O207 O 0.30258 0.73921 0.99197 0.0
O208 O 0.28338 0.73975 0.97654 0.0
C209 C 0.29438 0.74693 0.98324 0.0
C210 C 0.30153 0.69765 0.97428 0.0
C211 C 0.29786 0.7624 0.98057 0.0
C212 C 0.31588 0.78195 0.97711 0.0
C213 C 0.31226 0.767 0.97781 0.0
C214 C 0.29083 0.78779 0.98251 0.0
C215 C 0.30525 0.79263 0.97962 0.0
C216 C 0.28717 0.77287 0.98276 0.0
C217 C 0.26157 0.72097 0.01836 0.0
C218 C 0.24228 0.73862 0.01721 0.0
C219 C 0.2403 0.71795 0.03326 0.0
C220 C 0.25419 0.71352 0.02928 0.0
C221 C 0.23367 0.72959 0.026 0.0
C222 C 0.25628 0.73434 0.01344 0.0
C223 C 0.27163 0.71279 0.00928 0.0
O224 O 0.28925 0.70322 0.96941 0.0
O225 O 0.30784 0.70559 0.98486 0.0
O226 O 0.28566 0.7156 0.01137 0.0
O227 O 0.26758 0.712 0.99539 0.0
H228 H 0.29254 0.68481 0.99898 0.0
H229 H 0.29511 0.65916 0.00555 0.0
H230 H 0.31291 0.64953 0.96316 0.0
H231 H 0.30959 0.67517 0.95628 0.0
H232 H 0.32702 0.78506 0.9746 0.0
H233 H 0.32074 0.75903 0.97633 0.0
H234 H 0.28236 0.79548 0.985 0.0
H235 H 0.27609 0.76953 0.98535 0.0
H236 H 0.23756 0.74778 0.01159 0.0
H237 H 0.23403 0.71109 0.04045 0.0
H238 H 0.25828 0.7033 0.03335 0.0
H239 H 0.26202 0.74032 0.00513 0.0
C240 C 0.7795 0.20742 0.26497 0.0
C241 C 0.78986 0.19757 0.27016 0.0
C242 C 0.77233 0.17723 0.26623 0.0
C243 C 0.78632 0.18262 0.27078 0.0
C244 C 0.76222 0.18708 0.26043 0.0
C245 C 0.76578 0.20206 0.25985 0.0
U246 U 0.80499 0.23976 0.27518 0.0
O247 O 0.80701 0.26188 0.26589 0.0
O248 O 0.80138 0.25918 0.28894 0.0
C249 C 0.80293 0.2683 0.27813 0.0
C250 C 0.78245 0.22333 0.2661 0.0
C251 C 0.79183 0.27977 0.27704 0.0
C252 C 0.76941 0.29048 0.28574 0.0
C253 C 0.7784 0.27839 0.28415 0.0
C254 C 0.7864 0.30516 0.27197 0.0
C255 C 0.77356 0.30407 0.28006 0.0
C256 C 0.79553 0.29311 0.27056 0.0
C257 C 0.84319 0.23175 0.29087 0.0
C258 C 0.86077 0.2506 0.29951 0.0
C259 C 0.86334 0.22556 0.30717 0.0
C260 C 0.85093 0.22138 0.29876 0.0
C261 C 0.86837 0.24026 0.30782 0.0
C262 C 0.84823 0.24639 0.29116 0.0
C263 C 0.82923 0.22718 0.2836 0.0
O264 O 0.78412 0.22852 0.27958 0.0
O265 O 0.79223 0.22866 0.25719 0.0
O266 O 0.82689 0.2316 0.27016 0.0
O267 O 0.81775 0.22836 0.29188 0.0
H268 H 0.80053 0.20152 0.27415 0.0
H269 H 0.79444 0.1753 0.27509 0.0
H270 H 0.75134 0.18333 0.25694 0.0
H271 H 0.75762 0.20952 0.25587 0.0
H272 H 0.7595 0.28937 0.29195 0.0
H273 H 0.77519 0.26822 0.28917 0.0
H274 H 0.78986 0.31556 0.26756 0.0
H275 H 0.80585 0.29444 0.26508 0.0
H276 H 0.86438 0.26198 0.2996 0.0
H277 H 0.8686 0.2173 0.31363 0.0
H278 H 0.84709 0.21006 0.29881 0.0
H279 H 0.8423 0.2546 0.28522 0.0
C280 C 0.6096 0.78841 0.00337 0.0
C281 C 0.599 0.79855 0.00732 0.0
C282 C 0.61752 0.818 0.00844 0.0
C283 C 0.60294 0.81319 0.00994 0.0
C284 C 0.62816 0.80776 0.00464 0.0
C285 C 0.62421 0.79303 0.00213 0.0
U286 U 0.57925 0.76304 0.99139 0.0
O287 O 0.57772 0.74389 0.97638 0.0
O288 O 0.57186 0.74172 0.99944 0.0
C289 C 0.57446 0.73494 0.98696 0.0
C290 C 0.60508 0.77329 0.99968 0.0
C291 C 0.58394 0.72233 0.98813 0.0
C292 C 0.60678 0.71177 0.9962 0.0
C293 C 0.5975 0.72367 0.99563 0.0
C294 C 0.58902 0.69713 0.98177 0.0
C295 C 0.60269 0.6984 0.98918 0.0
C296 C 0.57971 0.70901 0.98128 0.0
C297 C 0.54207 0.77856 0.98507 0.0
C298 C 0.52289 0.76247 0.97468 0.0
C299 C 0.5172 0.78057 0.99339 0.0
C300 C 0.53174 0.78557 0.99371 0.0
C301 C 0.5128 0.76851 0.98436 0.0
C302 C 0.53746 0.76734 0.97514 0.0
C303 C 0.55769 0.78116 0.98843 0.0
O304 O 0.5958 0.76748 0.0088 0.0
O305 O 0.6013 0.77096 0.98583 0.0
O306 O 0.56673 0.77817 0.97782 0.0
O307 O 0.56194 0.77607 0.00114 0.0
H308 H 0.58761 0.79518 0.00819 0.0
H309 H 0.59453 0.82075 0.01305 0.0
H310 H 0.63945 0.81118 0.00319 0.0
H311 H 0.63246 0.78534 0.99892 0.0
H312 H 0.61716 0.71305 0.00212 0.0
H313 H 0.60094 0.73396 0.00092 0.0
H314 H 0.58566 0.68706 0.97603 0.0
H315 H 0.56932 0.70787 0.97536 0.0
H316 H 0.51974 0.75336 0.9674 0.0
H317 H 0.50973 0.78539 0.00106 0.0
H318 H 0.53515 0.79417 0.00149 0.0
H319 H 0.54525 0.7617 0.9684 0.0
C320 C 0.66362 0.35487 0.30239 0.0
C321 C 0.66819 0.3649 0.3136 0.0
C322 C 0.66078 0.3477 0.33241 0.0
C323 C 0.66684 0.36134 0.32841 0.0
C324 C 0.65629 0.3377 0.32113 0.0
C325 C 0.65771 0.34123 0.30635 0.0
U326 U 0.65811 0.38074 0.27025 0.0
O327 O 0.67177 0.38597 0.25129 0.0
O328 O 0.64963 0.37647 0.24771 0.0
C329 C 0.66162 0.38149 0.24167 0.0
C330 C 0.66477 0.35833 0.28657 0.0
C331 C 0.66627 0.37446 0.22775 0.0
C332 C 0.67155 0.35332 0.21199 0.0
C333 C 0.66811 0.35929 0.22586 0.0
C334 C 0.67143 0.37756 0.20192 0.0
C335 C 0.67303 0.36238 0.19976 0.0
C336 C 0.66812 0.38347 0.21568 0.0
C337 C 0.64105 0.4182 0.28251 0.0
C338 C 0.63259 0.43868 0.26818 0.0
C339 C 0.6305 0.43935 0.29455 0.0
C340 C 0.63691 0.42565 0.29527 0.0
C341 C 0.62807 0.446 0.28101 0.0
C342 C 0.63898 0.42483 0.26892 0.0
C343 C 0.647 0.40341 0.28405 0.0
O344 O 0.65229 0.35918 0.27922 0.0
O345 O 0.67432 0.36863 0.28317 0.0
O346 O 0.6611 0.40192 0.28217 0.0
O347 O 0.63903 0.39237 0.27854 0.0
H348 H 0.67272 0.37555 0.31095 0.0
H349 H 0.67029 0.36939 0.33674 0.0
H350 H 0.65178 0.32703 0.32371 0.0
H351 H 0.65415 0.33327 0.29797 0.0
H352 H 0.67266 0.34158 0.21076 0.0
H353 H 0.66668 0.35208 0.23499 0.0
H354 H 0.67275 0.38496 0.19292 0.0
H355 H 0.66677 0.3952 0.21683 0.0
H356 H 0.63083 0.44348 0.25757 0.0
H357 H 0.62743 0.44475 0.30466 0.0
H358 H 0.63847 0.42076 0.30588 0.0
H359 H 0.64212 0.41923 0.25893 0.0
C360 C 0.98097 0.29119 0.68794 0.0
C361 C 0.99573 0.29199 0.68391 0.0
C362 C 0.98829 0.29466 0.65838 0.0
C363 C 0.99935 0.29387 0.66926 0.0
C364 C 0.9736 0.29274 0.66231 0.0
C365 C 0.96999 0.29111 0.67697 0.0
U366 U 0.9847 0.29332 0.73087 0.0
O367 O 0.98288 0.31428 0.74284 0.0
O368 O 0.96708 0.29639 0.74659 0.0
C369 C 0.97235 0.30932 0.75103 0.0
C370 C 0.97678 0.29445 0.70311 0.0
C371 C 0.97497 0.31159 0.76692 0.0
C372 C 0.98211 0.32789 0.78741 0.0
C373 C 0.9792 0.32556 0.77244 0.0
C374 C 0.97652 0.30229 0.79159 0.0
C375 C 0.98077 0.31628 0.79718 0.0
C376 C 0.97372 0.29995 0.77664 0.0
C377 C 0.01634 0.26693 0.73226 0.0
C378 C 0.02808 0.24423 0.73758 0.0
C379 C 0.01659 0.24761 0.71374 0.0
C380 C 0.01319 0.26191 0.71788 0.0
C381 C 0.02292 0.23836 0.72405 0.0
C382 C 0.02489 0.25856 0.74163 0.0
C383 C 0.00727 0.27802 0.73892 0.0
O384 O 0.97195 0.28397 0.71153 0.0
O385 O 0.98549 0.30392 0.71005 0.0
O386 O 0.00853 0.29135 0.73401 0.0
O387 O 0.99361 0.2736 0.74042 0.0
H388 H 0.00442 0.29215 0.69218 0.0
H389 H 0.01077 0.29509 0.66649 0.0
H390 H 0.96486 0.29334 0.65415 0.0
H391 H 0.95854 0.29083 0.67985 0.0
H392 H 0.98551 0.33875 0.79131 0.0
H393 H 0.98034 0.33468 0.76514 0.0
H394 H 0.9751 0.29315 0.79882 0.0
H395 H 0.97055 0.28903 0.77274 0.0
H396 H 0.03305 0.23725 0.74565 0.0
H397 H 0.01251 0.24326 0.70325 0.0
H398 H 0.00656 0.26832 0.71055 0.0
H399 H 0.02744 0.26237 0.75274 0.0
C400 C 0.26464 0.77795 0.20623 0.0
C401 C 0.26754 0.78907 0.19628 0.0
C402 C 0.26592 0.7713 0.17591 0.0
C403 C 0.26813 0.78579 0.18126 0.0
C404 C 0.26254 0.76029 0.18593 0.0
C405 C 0.26193 0.7636 0.20094 0.0
U406 U 0.27496 0.80361 0.23826 0.0
O407 O 0.26553 0.80654 0.26019 0.0
O408 O 0.28837 0.79997 0.25796 0.0
C409 C 0.27757 0.80234 0.26689 0.0
C410 C 0.2657 0.78095 0.22213 0.0
C411 C 0.27598 0.79187 0.27886 0.0
C412 C 0.2817 0.76856 0.28975 0.0
C413 C 0.28075 0.7774 0.27746 0.0
C414 C 0.27216 0.78816 0.30477 0.0
C415 C 0.27783 0.774 0.30363 0.0
C416 C 0.2713 0.79702 0.29251 0.0
C417 C 0.29113 0.84137 0.22966 0.0
C418 C 0.30177 0.85785 0.24851 0.0
C419 C 0.30704 0.86163 0.22298 0.0
C420 C 0.29801 0.84961 0.21895 0.0
C421 C 0.30929 0.86566 0.2378 0.0
C422 C 0.29282 0.84569 0.24447 0.0
C423 C 0.28374 0.82746 0.22522 0.0
O424 O 0.27915 0.78248 0.22739 0.0
O425 O 0.25687 0.79088 0.22734 0.0
O426 O 0.27024 0.82539 0.22957 0.0
O427 O 0.29187 0.81591 0.22674 0.0
H428 H 0.26971 0.80022 0.20017 0.0
H429 H 0.27053 0.79458 0.17387 0.0
H430 H 0.26095 0.749 0.18227 0.0
H431 H 0.25979 0.75486 0.20848 0.0
H432 H 0.28592 0.75763 0.28848 0.0
H433 H 0.28435 0.77314 0.26701 0.0
H434 H 0.26921 0.79273 0.31531 0.0
H435 H 0.26765 0.80816 0.29384 0.0
H436 H 0.3034 0.86069 0.26002 0.0
H437 H 0.31261 0.86755 0.21451 0.0
H438 H 0.29687 0.84639 0.20748 0.0
H439 H 0.28769 0.83934 0.2529 0.0
C440 C 1.00024 0.60942 0.78843 0.0
C441 C 0.99939 0.59827 0.7987 0.0
C442 C 0.00636 0.61568 0.81813 0.0
C443 C 0.00245 0.60136 0.81343 0.0
C444 C 0.00723 0.62684 0.80778 0.0
C445 C 0.0042 0.6237 0.79297 0.0
U446 U 0.99177 0.57971 0.76156 0.0
O447 O 0.97782 0.57755 0.74171 0.0
O448 O 0.00147 0.57397 0.74048 0.0
C449 C 0.98911 0.57587 0.73321 0.0
C450 C 0.99758 0.60565 0.773 0.0
C451 C 0.99009 0.58643 0.7215 0.0
C452 C 0.99207 0.61164 0.71394 0.0
C453 C 0.99161 0.60142 0.72502 0.0
C454 C 0.98993 0.59191 0.69573 0.0
C455 C 0.9911 0.60699 0.69919 0.0
C456 C 0.98941 0.58168 0.70684 0.0
C457 C 0.98772 0.54179 0.77586 0.0
C458 C 0.98233 0.52231 0.75803 0.0
C459 C 0.99441 0.51693 0.78115 0.0
C460 C 0.99371 0.53166 0.78544 0.0
C461 C 0.98911 0.51223 0.76723 0.0
C462 C 0.9817 0.537 0.76229 0.0
C463 C 0.98979 0.55745 0.77897 0.0
O464 O 0.00768 0.59735 0.7674 0.0
O465 O 0.98415 0.60095 0.76977 0.0
O466 O 0.97858 0.56562 0.77562 0.0
O467 O 0.00234 0.5628 0.7745 0.0
H468 H 0.99646 0.58713 0.79528 0.0
H469 H 0.00187 0.59252 0.82111 0.0
H470 H 0.01002 0.63802 0.81115 0.0
H471 H 0.00496 0.63237 0.7851 0.0
H472 H 0.99311 0.62318 0.71689 0.0
H473 H 0.99226 0.60521 0.73635 0.0
H474 H 0.98898 0.58805 0.68444 0.0
H475 H 0.98827 0.57012 0.70401 0.0
H476 H 0.97839 0.51907 0.74713 0.0
H477 H 0.99961 0.50934 0.78846 0.0
H478 H 0.99851 0.53527 0.7959 0.0
H479 H 0.97726 0.54474 0.75464 0.0
C480 C 0.69597 0.34126 0.64576 0.0
C481 C 0.68661 0.35007 0.63753 0.0
C482 C 0.66583 0.343 0.65249 0.0
C483 C 0.67173 0.35096 0.64087 0.0
C484 C 0.67528 0.33402 0.66054 0.0
C485 C 0.69016 0.33321 0.65723 0.0
U486 U 0.72794 0.34856 0.62059 0.0
O487 O 0.75025 0.35736 0.62528 0.0
O488 O 0.74719 0.33549 0.61498 0.0
C489 C 0.75656 0.34559 0.62011 0.0
C490 C 0.71179 0.34055 0.64264 0.0
C491 C 0.76999 0.34068 0.62781 0.0
C492 C 0.78541 0.33781 0.64973 0.0
C493 C 0.77178 0.34104 0.64316 0.0
C494 C 0.79543 0.33363 0.62576 0.0
C495 C 0.79751 0.33439 0.64106 0.0
C496 C 0.78188 0.3367 0.61926 0.0
C497 C 0.71623 0.36666 0.58374 0.0
C498 C 0.73078 0.37237 0.5625 0.0
C499 C 0.70553 0.37976 0.56342 0.0
C500 C 0.70429 0.37349 0.57714 0.0
C501 C 0.71879 0.37939 0.55593 0.0
C502 C 0.72952 0.36608 0.57635 0.0
C503 C 0.71417 0.36023 0.59823 0.0
O504 O 0.7153 0.33153 0.63194 0.0
O505 O 0.71884 0.35324 0.64225 0.0
O506 O 0.71927 0.3679 0.60965 0.0
O507 O 0.71625 0.3461 0.59929 0.0
H508 H 0.69085 0.35639 0.6286 0.0
H509 H 0.66493 0.35814 0.63452 0.0
H510 H 0.67119 0.32751 0.66939 0.0
H511 H 0.69714 0.32635 0.66373 0.0
H512 H 0.78663 0.33853 0.66154 0.0
H513 H 0.76279 0.34413 0.65001 0.0
H514 H 0.80439 0.3308 0.61875 0.0
H515 H 0.78079 0.33637 0.60742 0.0
H516 H 0.74117 0.37195 0.55707 0.0
H517 H 0.69599 0.38478 0.55861 0.0
H518 H 0.69391 0.37395 0.58262 0.0
H519 H 0.73887 0.36082 0.58127 0.0
C520 C 0.79296 0.73572 0.22246 0.0
C521 C 0.8022 0.7276 0.21345 0.0
C522 C 0.82338 0.7356 0.22844 0.0
C523 C 0.81726 0.72747 0.21647 0.0
C524 C 0.81417 0.74422 0.23706 0.0
C525 C 0.79906 0.74422 0.23412 0.0
U526 U 0.76051 0.72562 0.19773 0.0
O527 O 0.74101 0.71192 0.20137 0.0
O528 O 0.73846 0.73488 0.19528 0.0
C529 C 0.73195 0.72271 0.19938 0.0
C530 C 0.77697 0.73469 0.22015 0.0
C531 C 0.72021 0.72407 0.21012 0.0
C532 C 0.70977 0.71784 0.2335 0.0
C533 C 0.72187 0.71891 0.22443 0.0
C534 C 0.69444 0.72803 0.2145 0.0
C535 C 0.69583 0.72199 0.22847 0.0
C536 C 0.70651 0.72901 0.20541 0.0
C537 C 0.76877 0.71072 0.15943 0.0
C538 C 0.75247 0.69407 0.14542 0.0
C539 C 0.7749 0.703 0.13476 0.0
C540 C 0.77817 0.71125 0.14755 0.0
C541 C 0.7622 0.69398 0.13369 0.0
C542 C 0.7557 0.7024 0.15815 0.0
C543 C 0.77336 0.71769 0.1735 0.0
O544 O 0.7714 0.74368 0.21057 0.0
O545 O 0.77164 0.72124 0.21864 0.0
O546 O 0.77214 0.70924 0.18487 0.0
O547 O 0.76887 0.73107 0.17598 0.0
H548 H 0.7977 0.72105 0.20431 0.0
H549 H 0.8241 0.72086 0.20956 0.0
H550 H 0.81856 0.75049 0.24643 0.0
H551 H 0.79209 0.75056 0.24117 0.0
H552 H 0.71121 0.71329 0.24427 0.0
H553 H 0.73236 0.71511 0.22837 0.0
H554 H 0.68383 0.73118 0.21023 0.0
H555 H 0.70497 0.73296 0.1944 0.0
H556 H 0.74268 0.68714 0.14512 0.0
H557 H 0.78251 0.70342 0.12585 0.0
H558 H 0.78829 0.71766 0.14835 0.0
H559 H 0.74829 0.70186 0.16722 0.0
C560 C 0.20673 0.99399 0.40302 0.0
C561 C 0.19638 0.98877 0.41286 0.0
C562 C 0.17692 0.99136 0.39447 0.0
C563 C 0.18158 0.9874 0.4086 0.0
C564 C 0.18736 0.99668 0.38472 0.0
C565 C 0.20213 0.99796 0.38896 0.0
U566 U 0.23803 0.99693 0.43157 0.0
O567 O 0.25953 0.98659 0.43159 0.0
O568 O 0.25815 0.01057 0.43194 0.0
C569 C 0.26667 0.99922 0.43111 0.0
C570 C 0.22236 0.99531 0.40713 0.0
C571 C 0.27823 1.00022 0.42032 0.0
C572 C 0.2867 0.99865 0.39534 0.0
C573 C 0.27544 0.99717 0.40538 0.0
C574 C 0.3035 0.00624 0.41515 0.0
C575 C 0.30087 0.00323 0.40015 0.0
C576 C 0.2923 0.00472 0.42512 0.0
C577 C 0.23229 0.99735 0.47217 0.0
C578 C 0.25256 0.99292 0.48906 0.0
C579 C 0.23051 0.00397 0.49796 0.0
C580 C 0.22438 0.00328 0.48376 0.0
C581 C 0.24459 0.99864 0.50077 0.0
C582 C 0.24651 0.99237 0.47487 0.0
C583 C 0.22587 0.99667 0.45723 0.0
O584 O 0.22659 0.0078 0.41349 0.0
O585 O 0.22799 0.98382 0.41338 0.0
O586 O 0.22851 0.98468 0.44959 0.0
O587 O 0.22761 0.00867 0.44974 0.0
H588 H 0.19974 0.98573 0.42381 0.0
H589 H 0.17378 0.98339 0.41639 0.0
H590 H 0.18416 0.99962 0.3737 0.0
H591 H 0.20999 0.00198 0.38122 0.0
H592 H 0.28435 0.99617 0.38387 0.0
H593 H 0.26458 0.99372 0.4015 0.0
H594 H 0.31418 0.01009 0.4192 0.0
H595 H 0.29458 0.00723 0.43661 0.0
H596 H 0.26351 0.98891 0.49087 0.0
H597 H 0.2241 0.00836 0.5068 0.0
H598 H 0.21346 0.0073 0.48184 0.0
H599 H 0.25291 0.98799 0.46603 0.0
C600 C 0.31541 0.03643 0.65573 0.0
C601 C 0.32528 0.04568 0.66374 0.0
C602 C 0.34515 0.02955 0.6577 0.0
C603 C 0.33999 0.04192 0.6652 0.0
C604 C 0.33579 0.02178 0.64782 0.0
C605 C 0.32098 0.02516 0.64691 0.0
U606 U 0.27649 0.03505 0.67332 0.0
O607 O 0.25751 0.04833 0.66738 0.0
O608 O 0.2581 0.0251 0.66066 0.0
C609 C 0.25052 0.03712 0.66091 0.0
C610 C 0.29937 0.03792 0.65639 0.0
C611 C 0.23516 0.03487 0.6644 0.0
C612 C 0.21023 0.0308 0.65551 0.0
C613 C 0.22481 0.03439 0.65288 0.0
C614 C 0.21621 0.02839 0.68135 0.0
C615 C 0.20582 0.02764 0.66974 0.0
C616 C 0.23086 0.03191 0.67868 0.0
C617 C 0.27973 0.02419 0.71659 0.0
C618 C 0.26914 0.01367 0.73836 0.0
C619 C 0.29402 0.02326 0.73936 0.0
C620 C 0.29264 0.02731 0.72472 0.0
C621 C 0.28221 0.01659 0.74659 0.0
C622 C 0.26802 0.01722 0.72349 0.0
C623 C 0.27853 0.0281 0.70096 0.0
O624 O 0.29401 0.04892 0.66395 0.0
O625 O 0.29199 0.02563 0.65808 0.0
O626 O 0.27904 0.04177 0.69673 0.0
O627 O 0.27708 0.01816 0.69037 0.0
H628 H 0.32153 0.05526 0.66956 0.0
H629 H 0.34718 0.04828 0.67262 0.0
H630 H 0.33968 0.01241 0.64168 0.0
H631 H 0.31374 0.01854 0.63979 0.0
H632 H 0.20241 0.03048 0.64641 0.0
H633 H 0.22805 0.03651 0.64178 0.0
H634 H 0.21307 0.0259 0.6924 0.0
H635 H 0.23885 0.03203 0.68764 0.0
H636 H 0.25961 0.00888 0.74335 0.0
H637 H 0.30448 0.02534 0.74488 0.0
H638 H 0.30183 0.03273 0.71978 0.0
H639 H 0.25787 0.01478 0.71746 0.0
C640 C 0.64664 0.69787 0.34312 0.0
C641 C 0.63522 0.68775 0.34566 0.0
C642 C 0.65213 0.66739 0.34399 0.0
C643 C 0.63793 0.67268 0.34608 0.0
C644 C 0.66348 0.67763 0.34132 0.0
C645 C 0.66075 0.69267 0.3409 0.0
U646 U 0.62216 0.73064 0.34995 0.0
O647 O 0.6268 0.75251 0.36003 0.0
O648 O 0.61871 0.75054 0.33721 0.0
C649 C 0.62314 0.7594 0.34805 0.0
C650 C 0.64411 0.71384 0.34303 0.0
C651 C 0.63183 0.77273 0.34454 0.0
C652 C 0.64794 0.78695 0.32897 0.0
C653 C 0.64102 0.77356 0.33243 0.0
C654 C 0.63656 0.79872 0.34963 0.0
C655 C 0.64576 0.79976 0.33753 0.0
C656 C 0.62977 0.78542 0.35309 0.0
C657 C 0.58342 0.7206 0.36469 0.0
C658 C 0.56677 0.73335 0.38075 0.0
C659 C 0.55808 0.71218 0.36637 0.0
C660 C 0.57195 0.71086 0.36041 0.0
C661 C 0.55533 0.7233 0.37678 0.0
C662 C 0.58069 0.73201 0.37475 0.0
C663 C 0.59823 0.7177 0.35932 0.0
O664 O 0.63431 0.71822 0.33343 0.0
O665 O 0.64294 0.72026 0.35596 0.0
O666 O 0.6094 0.72167 0.36795 0.0
O667 O 0.60049 0.72018 0.34546 0.0
H668 H 0.62422 0.69151 0.34739 0.0
H669 H 0.62886 0.66517 0.34797 0.0
H670 H 0.67459 0.67407 0.33987 0.0
H671 H 0.66974 0.70027 0.33898 0.0
H672 H 0.65502 0.78725 0.31964 0.0
H673 H 0.64272 0.76395 0.32558 0.0
H674 H 0.63425 0.80831 0.3563 0.0
H675 H 0.62255 0.78514 0.36233 0.0
H676 H 0.565 0.74217 0.38858 0.0
H677 H 0.54966 0.70411 0.36319 0.0
H678 H 0.57384 0.70191 0.35274 0.0
H679 H 0.58936 0.73969 0.37821 0.0
C680 C 0.65829 0.31619 0.03569 0.0
C681 C 0.66621 0.32624 0.04479 0.0
C682 C 0.66042 0.34584 0.02814 0.0
C683 C 0.66759 0.34089 0.04081 0.0
C684 C 0.65084 0.33624 0.02026 0.0
C685 C 0.64979 0.32152 0.02404 0.0
U686 U 0.67268 0.27569 0.03613 0.0
O687 O 0.65785 0.25819 0.02764 0.0
O688 O 0.66563 0.25794 0.05053 0.0
C689 C 0.65859 0.25081 0.03976 0.0
C690 C 0.65815 0.30025 0.03821 0.0
C691 C 0.66237 0.23549 0.03739 0.0
C692 C 0.65433 0.21021 0.0339 0.0
C693 C 0.6514 0.22462 0.03801 0.0
C694 C 0.67938 0.2174 0.02876 0.0
C695 C 0.66829 0.20649 0.02905 0.0
C696 C 0.67641 0.23184 0.03285 0.0
C697 C 0.71467 0.27822 0.0231 0.0
C698 C 0.7355 0.27311 0.00772 0.0
C699 C 0.73793 0.29148 0.02714 0.0
C700 C 0.72339 0.28863 0.03103 0.0
C701 C 0.74438 0.28349 0.01564 0.0
C702 C 0.72086 0.27063 0.01133 0.0
C703 C 0.69995 0.27342 0.02787 0.0
O704 O 0.66589 0.29506 0.04919 0.0
O705 O 0.65855 0.29195 0.02634 0.0
O706 O 0.6963 0.27555 0.04159 0.0
O707 O 0.68878 0.27328 0.01854 0.0
H708 H 0.67179 0.3227 0.05461 0.0
H709 H 0.67458 0.34831 0.04737 0.0
H710 H 0.64488 0.33988 0.01068 0.0
H711 H 0.64266 0.31417 0.01755 0.0
H712 H 0.64565 0.20198 0.03444 0.0
H713 H 0.64046 0.22735 0.04133 0.0
H714 H 0.6902 0.21485 0.02496 0.0
H715 H 0.68493 0.24022 0.03207 0.0
H716 H 0.73992 0.26644 0.99902 0.0
H717 H 0.74416 0.29977 0.0334 0.0
H718 H 0.71919 0.29427 0.0405 0.0
H719 H 0.71451 0.26229 0.00522 0.0
C720 C 0.2227 0.79178 0.73514 0.0
C721 C 0.21477 0.80075 0.72568 0.0
C722 C 0.22878 0.82219 0.7347 0.0
C723 C 0.21786 0.81579 0.72539 0.0
C724 C 0.23628 0.81329 0.74462 0.0
C725 C 0.2333 0.79817 0.74478 0.0
U726 U 0.19775 0.75971 0.72493 0.0
O727 O 0.2013 0.73963 0.71206 0.0
O728 O 0.19392 0.73809 0.7347 0.0
C729 C 0.19823 0.731 0.72293 0.0
C730 C 0.22022 0.77577 0.73456 0.0
C731 C 0.20833 0.71887 0.72514 0.0
C732 C 0.23276 0.70889 0.7243 0.0
C733 C 0.22358 0.72098 0.72459 0.0
C734 C 0.21161 0.69258 0.72589 0.0
C735 C 0.22684 0.69452 0.72454 0.0
C736 C 0.20248 0.70464 0.72618 0.0
C737 C 0.16045 0.76991 0.70826 0.0
C738 C 0.14347 0.75236 0.69629 0.0
C739 C 0.13922 0.7784 0.69481 0.0
C740 C 0.15178 0.78136 0.70344 0.0
C741 C 0.13511 0.7639 0.69088 0.0
C742 C 0.15613 0.75535 0.70487 0.0
C743 C 0.17457 0.77351 0.71557 0.0
O744 O 0.21014 0.77068 0.74326 0.0
O745 O 0.21925 0.76998 0.72126 0.0
O746 O 0.18605 0.77117 0.70754 0.0
O747 O 0.17626 0.76925 0.72914 0.0
H748 H 0.20641 0.79606 0.71826 0.0
H749 H 0.21182 0.82241 0.71775 0.0
H750 H 0.24482 0.81792 0.75185 0.0
H751 H 0.23948 0.79144 0.7522 0.0
H752 H 0.24445 0.71079 0.72345 0.0
H753 H 0.22831 0.73191 0.7238 0.0
H754 H 0.20661 0.68172 0.72587 0.0
H755 H 0.19073 0.7028 0.72652 0.0
H756 H 0.14059 0.74109 0.69332 0.0
H757 H 0.1329 0.78748 0.69092 0.0
H758 H 0.155 0.79265 0.70595 0.0
H759 H 0.16279 0.74638 0.70845 0.0
C760 C 0.42417 0.19735 0.99116 0.0
C761 C 0.42958 0.18421 0.99646 0.0
C762 C 0.40694 0.1713 0.98885 0.0
C763 C 0.42106 0.17133 0.99535 0.0
C764 C 0.4015 0.18457 0.98365 0.0
C765 C 0.41002 0.1975 0.98485 0.0
U766 U 0.42892 0.2389 0.99534 0.0
O767 O 0.40929 0.24651 0.98365 0.0
O768 O 0.40906 0.2438 0.00745 0.0
C769 C 0.40226 0.24884 0.99585 0.0
C770 C 0.4334 0.21074 0.99257 0.0
C771 C 0.39656 0.26362 0.99783 0.0
C772 C 0.37624 0.27941 0.0029 0.0
C773 C 0.38159 0.26546 0.99999 0.0
C774 C 0.40077 0.28983 0.00124 0.0
C775 C 0.38579 0.29173 0.00373 0.0
C776 C 0.40611 0.27587 0.99836 0.0
C777 C 0.46701 0.25747 0.99904 0.0
C778 C 0.4901 0.27067 0.00305 0.0
C779 C 0.48994 0.24472 0.99681 0.0
C780 C 0.4746 0.24455 0.99626 0.0
C781 C 0.49786 0.25781 1.00022 0.0
C782 C 0.47484 0.27047 0.00247 0.0
C783 C 0.45096 0.25773 0.99836 0.0
O784 O 0.433 0.21956 0.98139 0.0
O785 O 0.43302 0.21764 0.00532 0.0
O786 O 0.44429 0.25195 0.0095 0.0
O787 O 0.44478 0.25408 0.98562 0.0
H788 H 0.44042 0.18393 0.00151 0.0
H789 H 0.42551 0.16141 0.99974 0.0
H790 H 0.39074 0.18494 0.97846 0.0
H791 H 0.4056 0.20758 0.98078 0.0
H792 H 0.36462 0.28056 0.00456 0.0
H793 H 0.37409 0.2561 0.99963 0.0
H794 H 0.40842 0.29907 0.00194 0.0
H795 H 0.41774 0.27459 0.99681 0.0
H796 H 0.49584 0.28099 0.00542 0.0
H797 H 0.49559 0.23463 0.99467 0.0
H798 H 0.46867 0.23438 0.99364 0.0
H799 H 0.46912 0.28055 0.0046 0.0
C800 C 0.3405 0.64585 0.69652 0.0
C801 C 0.35067 0.63866 0.68774 0.0
C802 C 0.3425 0.65211 0.6663 0.0
C803 C 0.35169 0.64179 0.67283 0.0
C804 C 0.33212 0.65904 0.6751 0.0
C805 C 0.33117 0.65596 0.69003 0.0
U806 U 0.34643 0.62099 0.72909 0.0
O807 O 0.3553 0.62561 0.75138 0.0
O808 O 0.33294 0.61649 0.74834 0.0
C809 C 0.34326 0.62115 0.75771 0.0
C810 C 0.33965 0.64307 0.71242 0.0
C811 C 0.3388 0.62919 0.7711 0.0
C812 C 0.33575 0.65153 0.78584 0.0
C813 C 0.33866 0.64457 0.77231 0.0
C814 C 0.33291 0.62785 0.79692 0.0
C815 C 0.33314 0.64322 0.7984 0.0
C816 C 0.33567 0.62097 0.78347 0.0
C817 C 0.36212 0.58273 0.71864 0.0
C818 C 0.37582 0.56525 0.73294 0.0
C819 C 0.36603 0.55815 0.70891 0.0
C820 C 0.36009 0.57203 0.7075 0.0
C821 C 0.37414 0.55458 0.72156 0.0
C822 C 0.36987 0.5792 0.73149 0.0
C823 C 0.35681 0.59761 0.71595 0.0
O824 O 0.33007 0.63295 0.71614 0.0
O825 O 0.35226 0.64219 0.71954 0.0
O826 O 0.3651 0.6087 0.72084 0.0
O827 O 0.34277 0.59966 0.71764 0.0
H828 H 0.3579 0.63069 0.69245 0.0
H829 H 0.35965 0.63606 0.66639 0.0
H830 H 0.32496 0.66714 0.67054 0.0
H831 H 0.32322 0.66161 0.69656 0.0
H832 H 0.33604 0.66338 0.7866 0.0
H833 H 0.34111 0.65117 0.76293 0.0
H834 H 0.33073 0.6211 0.80625 0.0
H835 H 0.33573 0.60911 0.78283 0.0
H836 H 0.38182 0.56285 0.74293 0.0
H837 H 0.36467 0.5504 0.69981 0.0
H838 H 0.35421 0.57455 0.69746 0.0
H839 H 0.37154 0.58728 0.74027 0.0
C840 C 0.03786 0.65683 0.31556 0.0
C841 C 0.0482 0.66327 0.32552 0.0
C842 C 0.03206 0.65794 0.34561 0.0
C843 C 0.0452 0.66397 0.34052 0.0
C844 C 0.02277 0.64988 0.3359 0.0
C845 C 0.02573 0.64921 0.32105 0.0
U846 U 0.03459 0.67644 0.27806 0.0
O847 O 0.02243 0.66527 0.26006 0.0
O848 O 0.04558 0.67169 0.2573 0.0
C849 C 0.03369 0.66534 0.25142 0.0
C850 C 0.03892 0.65802 0.29949 0.0
C851 C 0.03017 0.66794 0.2361 0.0
C852 C 0.02404 0.65728 0.21222 0.0
C853 C 0.02804 0.65564 0.22683 0.0
C854 C 0.02404 0.68368 0.216 0.0
C855 C 0.02217 0.6713 0.2066 0.0
C856 C 0.028 0.682 0.23074 0.0
C857 C 0.02415 0.71902 0.28203 0.0
C858 C 0.01758 0.73954 0.26684 0.0
C859 C 0.01794 0.74236 0.29328 0.0
C860 C 0.0224 0.72794 0.29452 0.0
C861 C 0.0155 0.74835 0.27946 0.0
C862 C 0.02172 0.72486 0.26812 0.0
C863 C 0.02811 0.70368 0.28434 0.0
O864 O 0.04958 0.66597 0.29402 0.0
O865 O 0.02634 0.65984 0.29269 0.0
O866 O 0.0416 0.69954 0.28215 0.0
O867 O 0.01813 0.69324 0.28217 0.0
H868 H 0.05806 0.66858 0.32168 0.0
H869 H 0.05261 0.67004 0.34795 0.0
H870 H 0.01277 0.6448 0.33971 0.0
H871 H 0.01812 0.64329 0.31372 0.0
H872 H 0.02242 0.64756 0.20531 0.0
H873 H 0.02941 0.6447 0.23095 0.0
H874 H 0.02276 0.69461 0.21189 0.0
H875 H 0.02939 0.69157 0.23791 0.0
H876 H 0.01581 0.74396 0.25606 0.0
H877 H 0.01662 0.74894 0.30316 0.0
H878 H 0.02427 0.72366 0.30536 0.0
H879 H 0.02302 0.71812 0.25834 0.0
C880 C 0.73552 0.22221 0.79238 0.0
C881 C 0.726 0.21518 0.80198 0.0
C882 C 0.73667 0.22937 0.82265 0.0
C883 C 0.72652 0.21878 0.81694 0.0
C884 C 0.74664 0.23586 0.81305 0.0
C885 C 0.74601 0.23236 0.79805 0.0
U886 U 0.72445 0.19767 0.75966 0.0
O887 O 0.71024 0.2019 0.74069 0.0
O888 O 0.73311 0.19599 0.73729 0.0
C889 C 0.72078 0.20034 0.73127 0.0
C890 C 0.73402 0.21969 0.77642 0.0
C891 C 0.72177 0.2115 0.71984 0.0
C892 C 0.71243 0.2334 0.70856 0.0
C893 C 0.71376 0.22445 0.72071 0.0
C894 C 0.72806 0.2173 0.69485 0.0
C895 C 0.71919 0.22966 0.69537 0.0
C896 C 0.72926 0.20825 0.70696 0.0
C897 C 0.70882 0.15951 0.76628 0.0
C898 C 0.69027 0.14757 0.75042 0.0
C899 C 0.70115 0.13435 0.77048 0.0
C900 C 0.71001 0.14663 0.77423 0.0
C901 C 0.69087 0.13491 0.75884 0.0
C902 C 0.69926 0.15974 0.75403 0.0
C903 C 0.71638 0.17304 0.77165 0.0
O904 O 0.74281 0.21006 0.77061 0.0
O905 O 0.72046 0.21835 0.77136 0.0
O906 O 0.70828 0.18473 0.77144 0.0
O907 O 0.7297 0.17545 0.76695 0.0
H908 H 0.71786 0.20723 0.79784 0.0
H909 H 0.71858 0.21364 0.82391 0.0
H910 H 0.75483 0.2438 0.81707 0.0
H911 H 0.75352 0.23781 0.79084 0.0
H912 H 0.70565 0.24295 0.70929 0.0
H913 H 0.70793 0.22732 0.73051 0.0
H914 H 0.73331 0.21412 0.6848 0.0
H915 H 0.73544 0.1983 0.706 0.0
H916 H 0.6825 0.14819 0.74132 0.0
H917 H 0.70175 0.12471 0.77715 0.0
H918 H 0.71734 0.14627 0.78371 0.0
H919 H 0.69826 0.16955 0.74767 0.0
C920 C 0.99307 0.40307 0.20817 0.0
C921 C 0.99087 0.41369 0.19752 0.0
C922 C 0.98918 0.3946 0.17845 0.0
C923 C 0.98895 0.40948 0.18275 0.0
C924 C 0.99153 0.38406 0.18922 0.0
C925 C 0.99343 0.38827 0.20393 0.0
U926 U 0.99723 0.43163 0.23926 0.0
O927 O 0.98731 0.43195 0.26095 0.0
O928 O 0.01124 0.43181 0.25914 0.0
C929 C 1.00004 0.43118 0.26787 0.0
C930 C 0.99487 0.40715 0.22374 0.0
C931 C 0.00098 0.42027 0.27934 0.0
C932 C 0.99859 0.3953 0.28772 0.0
C933 C 0.99736 0.40544 0.27651 0.0
C934 C 0.00713 0.41476 0.3045 0.0
C935 C 0.00347 0.39988 0.30185 0.0
C936 C 0.00586 0.42485 0.29335 0.0
C937 C 0.99782 0.47215 0.23329 0.0
C938 C 0.99484 0.48888 0.25398 0.0
C939 C 0.0029 0.49817 0.23079 0.0
C940 C 0.00226 0.48394 0.22476 0.0
C941 C 0.99901 0.50079 0.24541 0.0
C942 C 0.99433 0.47468 0.248 0.0
C943 C 0.99695 0.45722 0.22693 0.0
O944 O 0.00754 0.41336 0.22762 0.0
O945 O 0.98363 0.4136 0.2296 0.0
O946 O 0.98497 0.44972 0.22987 0.0
O947 O 0.00892 0.44965 0.22853 0.0
H948 H 0.99056 0.42519 0.20066 0.0
H949 H 0.98707 0.41784 0.17475 0.0
H950 H 0.99205 0.37254 0.18626 0.0
H951 H 0.99519 0.37995 0.21202 0.0
H952 H 0.99562 0.38393 0.28536 0.0
H953 H 0.99362 0.40174 0.26568 0.0
H954 H 0.01123 0.41862 0.31515 0.0
H955 H 0.00881 0.43624 0.29566 0.0
H956 H 0.99198 0.49056 0.26533 0.0
H957 H 0.00608 0.50716 0.22392 0.0
H958 H 0.0051 0.48215 0.21343 0.0
H959 H 0.99109 0.46567 0.25483 0.0
P960 P 0.30883 0.53442 0.62768 0.0
H961 H 0.30846 0.53771 0.65961 0.0
H962 H 0.29706 0.55594 0.67562 0.0
H963 H 0.27238 0.5716 0.63855 0.0
H964 H 0.28355 0.5535 0.62274 0.0
H965 H 0.32882 0.51252 0.61746 0.0
H966 H 0.33191 0.48667 0.62277 0.0
H967 H 0.29228 0.4868 0.64757 0.0
H968 H 0.28934 0.51293 0.64234 0.0
H969 H 0.32305 0.55681 0.61042 0.0
H970 H 0.2868 0.52605 0.60451 0.0
O971 O 0.32579 0.54007 0.63254 0.0
H972 H 0.31719 0.56751 0.58694 0.0
H973 H 0.28075 0.53689 0.58073 0.0
C974 C 0.29702 0.54425 0.63992 0.0
C975 C 0.30024 0.54475 0.65503 0.0
C976 C 0.29375 0.55519 0.66416 0.0
C977 C 0.28405 0.56536 0.65826 0.0
C978 C 0.28002 0.56407 0.64335 0.0
C979 C 0.2864 0.5536 0.63428 0.0
C980 C 0.30889 0.5147 0.62952 0.0
C981 C 0.32066 0.50697 0.62387 0.0
C982 C 0.32249 0.49219 0.62703 0.0
C983 C 0.31246 0.48469 0.63576 0.0
C984 C 0.30021 0.49226 0.64081 0.0
C985 C 0.29849 0.50719 0.6378 0.0
C986 C 0.30561 0.54034 0.6091 0.0
C987 C 0.31402 0.55208 0.60391 0.0
C988 C 0.31061 0.55827 0.59044 0.0
C989 C 0.29855 0.55302 0.58188 0.0
C990 C 0.2901 0.5412 0.58707 0.0
C991 C 0.29365 0.53488 0.60056 0.0
P992 P 0.27489 0.45398 0.01152 0.0
H993 H 0.28791 0.44535 0.03966 0.0
H994 H 0.3087 0.42986 0.04562 0.0
H995 H 0.31799 0.42573 0.99952 0.0
H996 H 0.2977 0.44132 0.99379 0.0
H997 H 0.26186 0.48119 0.0215 0.0
H998 H 0.27014 0.50672 0.02093 0.0
H999 H 0.30724 0.49407 0.99542 0.0
H1000 H 0.29903 0.46848 0.99629 0.0
H1001 H 0.25727 0.42741 0.0086 0.0
H1002 H 0.27639 0.45883 0.97966 0.0
O1003 O 0.26311 0.45277 0.02516 0.0
H1004 H 0.25208 0.41065 0.98777 0.0
H1005 H 0.27123 0.44193 0.95875 0.0
C1006 C 0.29108 0.44421 0.01627 0.0
C1007 C 0.29458 0.44124 0.0309 0.0
C1008 C 0.30644 0.43239 0.03428 0.0
C1009 C 0.31498 0.42651 0.02305 0.0
C1010 C 0.31183 0.43023 0.00849 0.0
C1011 C 0.30005 0.43903 0.00516 0.0
C1012 C 0.27987 0.47291 0.00904 0.0
C1013 C 0.2717 0.4839 0.01567 0.0
C1014 C 0.27644 0.49852 0.01531 0.0
C1015 C 0.28943 0.50241 0.00823 0.0
C1016 C 0.29735 0.49139 0.0012 0.0
C1017 C 0.29259 0.47676 0.00158 0.0
C1018 C 0.26699 0.44447 0.99567 0.0
C1019 C 0.25983 0.43096 0.9977 0.0
C1020 C 0.25696 0.42135 0.98585 0.0
C1021 C 0.26125 0.42511 0.97178 0.0
C1022 C 0.26772 0.43893 0.96954 0.0
C1023 C 0.27058 0.4486 0.98146 0.0
P1024 P 0.72781 0.99106 0.34043 0.0
H1025 H 0.73753 0.96668 0.32146 0.0
H1026 H 0.72686 0.94213 0.31568 0.0
H1027 H 0.68832 0.95331 0.33948 0.0
H1028 H 0.69859 0.97758 0.34483 0.0
H1029 H 0.7533 0.00885 0.33273 0.0
H1030 H 0.75636 0.03141 0.31947 0.0
H1031 H 0.70994 0.03148 0.30975 0.0
H1032 H 0.70687 0.00871 0.3232 0.0
H1033 H 0.72153 0.97609 0.36692 0.0
H1034 H 0.7128 0.0186 0.34933 0.0
O1035 O 0.74449 0.98649 0.34632 0.0
H1036 H 0.70878 0.98275 0.3889 0.0
H1037 H 0.69997 0.02532 0.37134 0.0
C1038 C 0.71898 0.97411 0.33365 0.0
C1039 C 0.72665 0.96396 0.32513 0.0
C1040 C 0.72056 0.94993 0.32186 0.0
C1041 C 0.70683 0.94576 0.32731 0.0
C1042 C 0.699 0.95612 0.33532 0.0
C1043 C 0.70495 0.97009 0.33838 0.0
C1044 C 0.72994 0.00647 0.32835 0.0
C1045 C 0.74378 0.01331 0.32736 0.0
C1046 C 0.74552 0.0264 0.31991 0.0
C1047 C 0.7334 0.03318 0.31348 0.0
C1048 C 0.71953 0.02634 0.31433 0.0
C1049 C 0.71781 0.01315 0.32179 0.0
C1050 C 0.71819 0.99676 0.35643 0.0
C1051 C 0.71669 0.9868 0.3677 0.0
C1052 C 0.7091 0.99055 0.38016 0.0
C1053 C 0.70321 0.00457 0.38184 0.0
C1054 C 0.70432 0.01442 0.37032 0.0
C1055 C 0.71178 0.01055 0.3577 0.0
P1056 P 0.66299 0.01339 0.04881 0.0
H1057 H 0.64546 0.03353 0.03252 0.0
H1058 H 0.65144 0.05594 0.01998 0.0
H1059 H 0.69762 0.04813 0.02686 0.0
H1060 H 0.69137 0.02579 0.03993 0.0
H1061 H 0.63811 0.99301 0.04781 0.0
H1062 H 0.63406 0.96922 0.03568 0.0
H1063 H 0.67549 0.97387 0.01427 0.0
H1064 H 0.67941 0.99806 0.02631 0.0
H1065 H 0.67585 0.03191 0.07196 0.0
H1066 H 0.68027 0.98734 0.05609 0.0
O1067 O 0.64797 0.01802 0.05771 0.0
H1068 H 0.69188 0.02675 0.09302 0.0
H1069 H 0.69642 0.98236 0.077 0.0
C1070 C 0.66796 0.02833 0.03749 0.0
C1071 C 0.65687 0.03656 0.03118 0.0
C1072 C 0.66035 0.04931 0.02383 0.0
C1073 C 0.67504 0.05394 0.02248 0.0
C1074 C 0.68619 0.04502 0.02794 0.0
C1075 C 0.68266 0.03225 0.03539 0.0
C1076 C 0.65899 0.99729 0.03782 0.0
C1077 C 0.64614 0.98916 0.0402 0.0
C1078 C 0.64382 0.97558 0.03324 0.0
C1079 C 0.65443 0.96986 0.02399 0.0
C1080 C 0.66715 0.97818 0.0213 0.0
C1081 C 0.66935 0.99194 0.02809 0.0
C1082 C 0.67688 0.01006 0.06245 0.0
C1083 C 0.68054 0.02116 0.07279 0.0
C1084 C 0.68968 0.01825 0.08475 0.0
C1085 C 0.69532 0.00422 0.0864 0.0
C1086 C 0.69224 0.99328 0.07574 0.0
C1087 C 0.683 0.99617 0.06381 0.0
P1088 P 0.62814 0.31177 0.53433 0.0
H1089 H 0.65591 0.32077 0.54871 0.0
H1090 H 0.6722 0.30834 0.56546 0.0
H1091 H 0.64818 0.26764 0.5565 0.0
H1092 H 0.63145 0.28047 0.54014 0.0
H1093 H 0.6334 0.33597 0.5147 0.0
H1094 H 0.63898 0.33742 0.48894 0.0
H1095 H 0.6338 0.29049 0.48409 0.0
H1096 H 0.6284 0.28897 0.51041 0.0
H1097 H 0.61652 0.31451 0.5631 0.0
H1098 H 0.60194 0.29496 0.52178 0.0
O1099 O 0.63006 0.32904 0.54062 0.0
H1100 H 0.59381 0.30697 0.57419 0.0
H1101 H 0.57899 0.28681 0.53305 0.0
C1102 C 0.64231 0.30161 0.54336 0.0
C1103 C 0.65427 0.30912 0.55014 0.0
C1104 C 0.66368 0.30192 0.55971 0.0
C1105 C 0.66145 0.28697 0.56258 0.0
C1106 C 0.65005 0.27923 0.55486 0.0
C1107 C 0.64056 0.2865 0.54536 0.0
C1108 C 0.63038 0.31234 0.51463 0.0
C1109 C 0.63334 0.3259 0.50823 0.0
C1110 C 0.63666 0.32676 0.49343 0.0
C1111 C 0.637 0.31408 0.48448 0.0
C1112 C 0.63362 0.30046 0.49072 0.0
C1113 C 0.63048 0.29958 0.50573 0.0
C1114 C 0.61088 0.3055 0.54156 0.0
C1115 C 0.60838 0.30852 0.55639 0.0
C1116 C 0.59538 0.30401 0.5628 0.0
C1117 C 0.58448 0.29614 0.55461 0.0
C1118 C 0.58705 0.29297 0.53968 0.0
C1119 C 0.60019 0.29757 0.53321 0.0
P1120 P 0.04665 0.66286 0.01257 0.0
H1121 H 0.0198 0.65402 0.02655 0.0
H1122 H 0.00931 0.6622 0.04973 0.0
H1123 H 0.04008 0.69873 0.05217 0.0
H1124 H 0.05046 0.69074 0.02909 0.0
H1125 H 0.05328 0.64535 0.98732 0.0
H1126 H 0.04306 0.64414 0.96237 0.0
H1127 H 0.00959 0.67432 0.97471 0.0
H1128 H 0.02006 0.67578 0.99982 0.0
H1129 H 0.07651 0.66084 0.02404 0.0
H1130 H 0.05263 0.68807 0.99428 0.0
O1131 O 0.05112 0.64639 0.01857 0.0
H1132 H 0.09898 0.67474 0.01938 0.0
H1133 H 0.07519 0.70192 0.98937 0.0
C1134 C 0.03603 0.67162 0.02628 0.0
C1135 C 0.02386 0.66414 0.03176 0.0
C1136 C 0.0178 0.66885 0.04488 0.0
C1137 C 0.02393 0.68107 0.05253 0.0
C1138 C 0.03514 0.68937 0.04627 0.0
C1139 C 0.04114 0.6847 0.03315 0.0
C1140 C 0.03722 0.66039 0.99538 0.0
C1141 C 0.04358 0.65149 0.98476 0.0
C1142 C 0.03785 0.65089 0.97056 0.0
C1143 C 0.02566 0.65918 0.96685 0.0
C1144 C 0.019 0.66785 0.97752 0.0
C1145 C 0.02489 0.66858 0.99178 0.0
C1146 C 0.06306 0.67323 0.00923 0.0
C1147 C 0.07615 0.66972 0.01639 0.0
C1148 C 0.08897 0.67763 0.01367 0.0
C1149 C 0.08884 0.68923 0.00381 0.0
C1150 C 0.07558 0.69299 0.99697 0.0
C1151 C 0.06275 0.68504 0.99969 0.0
P1152 P 0.01055 0.27578 0.45763 0.0
H1153 H 0.03853 0.28303 0.444 0.0
H1154 H 0.04512 0.30137 0.42599 0.0
H1155 H 0.0023 0.32003 0.4297 0.0
H1156 H 0.99573 0.30172 0.44732 0.0
H1157 H 0.01778 0.2612 0.48472 0.0
H1158 H 0.01688 0.26861 0.51039 0.0
H1159 H 0.99664 0.30904 0.49827 0.0
H1160 H 0.998 0.30172 0.47249 0.0
H1161 H 0.00685 0.25479 0.43359 0.0
H1162 H 0.97907 0.28217 0.45944 0.0
O1163 O 0.02325 0.26293 0.45702 0.0
H1164 H 0.98667 0.2494 0.41639 0.0
H1165 H 0.95859 0.27675 0.44218 0.0
C1166 C 0.01666 0.29104 0.4471 0.0
C1167 C 0.03069 0.29127 0.44119 0.0
C1168 C 0.03444 0.30172 0.43088 0.0
C1169 C 0.02423 0.31213 0.42649 0.0
C1170 C 0.0105 0.31232 0.43306 0.0
C1171 C 0.00672 0.30181 0.44319 0.0
C1172 C 0.0081 0.28093 0.47659 0.0
C1173 C 0.01309 0.27164 0.48753 0.0
C1174 C 0.01249 0.27588 0.50227 0.0
C1175 C 0.0067 0.28946 0.50643 0.0
C1176 C 0.00138 0.29862 0.49544 0.0
C1177 C 0.00205 0.29437 0.48065 0.0
C1178 C 0.99442 0.26866 0.44797 0.0
C1179 C 0.99623 0.25922 0.43587 0.0
C1180 C 0.98464 0.25618 0.42598 0.0
C1181 C 0.97099 0.26267 0.42786 0.0
C1182 C 0.96901 0.27167 0.44035 0.0
C1183 C 0.98065 0.27464 0.45033 0.0
P1184 P 0.34312 0.71895 0.99366 0.0
H1185 H 0.33137 0.73257 0.96738 0.0
H1186 H 0.32644 0.72344 0.94239 0.0
H1187 H 0.33675 0.6797 0.95589 0.0
H1188 H 0.34126 0.6889 0.98082 0.0
H1189 H 0.33368 0.7468 0.00622 0.0
H1190 H 0.31941 0.75282 0.02755 0.0
H1191 H 0.30925 0.70687 0.03304 0.0
H1192 H 0.32302 0.70095 0.01104 0.0
H1193 H 0.36686 0.70172 0.98204 0.0
H1194 H 0.34957 0.71201 0.0246 0.0
O1195 O 0.35235 0.73442 0.99019 0.0
H1196 H 0.38881 0.69279 0.99372 0.0
H1197 H 0.37159 0.70321 0.03618 0.0
C1198 C 0.33699 0.71151 0.97595 0.0
C1199 C 0.33236 0.72097 0.96497 0.0
C1200 C 0.3295 0.71568 0.95063 0.0
C1201 C 0.33128 0.70077 0.9469 0.0
C1202 C 0.33553 0.69129 0.95812 0.0
C1203 C 0.33809 0.69654 0.9725 0.0
C1204 C 0.32931 0.72342 0.00685 0.0
C1205 C 0.32809 0.738 0.01172 0.0
C1206 C 0.32004 0.74143 0.0241 0.0
C1207 C 0.31333 0.73033 0.0322 0.0
C1208 C 0.31416 0.71573 0.02703 0.0
C1209 C 0.32193 0.71233 0.01437 0.0
C1210 C 0.35633 0.70742 0.00231 0.0
C1211 C 0.36732 0.70128 0.99387 0.0
C1212 C 0.37994 0.69609 1.00062 0.0
C1213 C 0.38203 0.69764 0.01587 0.0
C1214 C 0.37025 0.70195 0.0244 0.0
C1215 C 0.35759 0.70708 0.01766 0.0
P1216 P 0.53543 0.62862 0.30897 0.0
H1217 H 0.5474 0.65813 0.31526 0.0
H1218 H 0.56402 0.67378 0.30168 0.0
H1219 H 0.55871 0.64463 0.26393 0.0
H1220 H 0.54209 0.62897 0.27765 0.0
H1221 H 0.51723 0.63845 0.33287 0.0
H1222 H 0.49134 0.64308 0.33499 0.0
H1223 H 0.48398 0.62925 0.28986 0.0
H1224 H 0.51033 0.62443 0.28782 0.0
H1225 H 0.5647 0.61929 0.30366 0.0
H1226 H 0.52157 0.59913 0.30221 0.0
O1227 O 0.54262 0.63139 0.3258 0.0
H1228 H 0.57542 0.59598 0.29731 0.0
H1229 H 0.53232 0.57545 0.2956 0.0
C1230 C 0.54376 0.64223 0.29757 0.0
C1231 C 0.54951 0.65529 0.30394 0.0
C1232 C 0.559 0.66426 0.29613 0.0
C1233 C 0.56291 0.66032 0.28179 0.0
C1234 C 0.55615 0.64782 0.27505 0.0
C1235 C 0.54655 0.63892 0.28285 0.0
C1236 C 0.5158 0.63088 0.31022 0.0
C1237 C 0.51014 0.63626 0.32339 0.0
C1238 C 0.49524 0.63909 0.32457 0.0
C1239 C 0.4855 0.63668 0.31258 0.0
C1240 C 0.49114 0.63115 0.29935 0.0
C1241 C 0.50619 0.62838 0.29816 0.0
C1242 C 0.5423 0.61104 0.30315 0.0
C1243 C 0.55748 0.60984 0.30173 0.0
C1244 C 0.56363 0.59646 0.29802 0.0
C1245 C 0.55476 0.5838 0.29576 0.0
C1246 C 0.53948 0.58497 0.29729 0.0
C1247 C 0.53329 0.59851 0.30097 0.0
P1248 P 0.01425 0.04755 0.66622 0.0
H1249 H 0.03245 0.02911 0.64869 0.0
H1250 H 0.05438 0.01574 0.65461 0.0
H1251 H 0.04739 0.02357 0.70078 0.0
H1252 H 0.02544 0.03726 0.69463 0.0
H1253 H 0.99364 0.05302 0.6426 0.0
H1254 H 0.96942 0.04293 0.63636 0.0
H1255 H 0.97316 0.01269 0.67193 0.0
H1256 H 0.99755 0.02314 0.67829 0.0
H1257 H 0.03461 0.06548 0.68393 0.0
H1258 H 0.9877 0.05954 0.67929 0.0
O1259 O 0.02065 0.0567 0.65202 0.0
H1260 H 0.03122 0.08786 0.69845 0.0
H1261 H 0.98433 0.08204 0.69363 0.0
C1262 C 0.02773 0.03457 0.6712 0.0
C1263 C 0.03547 0.02767 0.66009 0.0
C1264 C 0.04794 0.01988 0.66353 0.0
C1265 C 0.05278 0.01879 0.67819 0.0
C1266 C 0.04408 0.02449 0.68938 0.0
C1267 C 0.03157 0.03231 0.68589 0.0
C1268 C 0.99743 0.03857 0.66068 0.0
C1269 C 0.98941 0.044 0.64886 0.0
C1270 C 0.97557 0.03819 0.64528 0.0
C1271 C 0.96949 0.02691 0.65356 0.0
C1272 C 0.97763 0.02138 0.66537 0.0
C1273 C 0.99155 0.02723 0.66894 0.0
C1274 C 0.01144 0.06089 0.68051 0.0
C1275 C 0.0236 0.06869 0.68648 0.0
C1276 C 0.02166 0.08146 0.69473 0.0
C1277 C 0.00752 0.08667 0.69696 0.0
C1278 C 0.99532 0.07815 0.69211 0.0
C1279 C 0.99727 0.06534 0.68383 0.0
P1280 P 0.45427 0.01289 0.27388 0.0
H1281 H 0.44123 0.04104 0.28203 0.0
H1282 H 0.42381 0.04759 0.30103 0.0
H1283 H 0.426 0.00376 0.31765 0.0
H1284 H 0.44312 0.9973 0.29877 0.0
H1285 H 0.48138 0.01192 0.25791 0.0
H1286 H 0.50704 0.01053 0.2658 0.0
H1287 H 0.4937 0.00525 0.31049 0.0
H1288 H 0.46827 0.00705 0.30266 0.0
H1289 H 0.42862 0.01001 0.255 0.0
H1290 H 0.45758 0.98111 0.2777 0.0
O1291 O 0.4544 0.02585 0.26129 0.0
H1292 H 0.41109 0.98978 0.25048 0.0
H1293 H 0.43998 0.96067 0.27313 0.0
C1294 C 0.44346 0.01869 0.28902 0.0
C1295 C 0.43813 0.03295 0.28993 0.0
C1296 C 0.4282 0.03667 0.30075 0.0
C1297 C 0.42365 0.02621 0.31084 0.0
C1298 C 0.42951 0.01214 0.3102 0.0
C1299 C 0.43923 0.0084 0.29934 0.0
C1300 C 0.47287 0.00975 0.27966 0.0
C1301 C 0.48398 0.01034 0.26938 0.0
C1302 C 0.49864 0.0095 0.27391 0.0
C1303 C 0.5024 0.00794 0.28881 0.0
C1304 C 0.49117 0.00676 0.29898 0.0
C1305 C 0.47654 0.00765 0.29445 0.0
C1306 C 0.4445 0.99701 0.26645 0.0
C1307 C 0.43146 0.99917 0.25852 0.0
C1308 C 0.42136 0.98765 0.25611 0.0
C1309 C 0.42412 0.97374 0.26162 0.0
C1310 C 0.43764 0.9713 0.26872 0.0
C1311 C 0.44773 0.98293 0.27124 0.0
P1312 P 0.99185 0.33958 0.71655 0.0
H1313 H 0.96381 0.33192 0.72962 0.0
H1314 H 0.93966 0.32585 0.71928 0.0
H1315 H 0.9574 0.3254 0.67584 0.0
H1316 H 0.98177 0.33156 0.68641 0.0
H1317 H 0.0089 0.33272 0.74288 0.0
H1318 H 0.03106 0.31909 0.74716 0.0
H1319 H 0.03166 0.30675 0.7013 0.0
H1320 H 0.00929 0.32074 0.69697 0.0
H1321 H 0.97554 0.36386 0.7061 0.0
H1322 H 0.01982 0.34878 0.70302 0.0
O1323 O 0.98798 0.34718 0.73276 0.0
H1324 H 0.98304 0.38722 0.69671 0.0
H1325 H 0.02734 0.372 0.69278 0.0
C1326 C 0.97469 0.33216 0.70884 0.0
C1327 C 0.96267 0.33015 0.7179 0.0
C1328 C 0.94875 0.32666 0.71193 0.0
C1329 C 0.94645 0.32523 0.69668 0.0
C1330 C 0.95868 0.32667 0.68762 0.0
C1331 C 0.97266 0.33008 0.69364 0.0
C1332 C 0.00712 0.32752 0.71963 0.0
C1333 C 0.01355 0.32692 0.73371 0.0
C1334 C 0.02632 0.31912 0.73618 0.0
C1335 C 0.03308 0.31171 0.72461 0.0
C1336 C 0.02669 0.31231 0.71045 0.0
C1337 C 0.01382 0.32014 0.70799 0.0
C1338 C 0.99709 0.35463 0.70543 0.0
C1339 C 0.98677 0.36536 0.70277 0.0
C1340 C 0.99111 0.37874 0.69717 0.0
C1341 C 0.00593 0.38165 0.69414 0.0
C1342 C 0.01592 0.37022 0.69527 0.0
C1343 C 0.01158 0.35686 0.70111 0.0
P1344 P 0.72522 0.47724 0.37394 0.0
H1345 H 0.73402 0.47403 0.3435 0.0
H1346 H 0.73476 0.45251 0.32697 0.0
H1347 H 0.71008 0.42739 0.35779 0.0
H1348 H 0.70921 0.44882 0.37412 0.0
H1349 H 0.73402 0.50809 0.37343 0.0
H1350 H 0.72122 0.53033 0.3675 0.0
H1351 H 0.68075 0.50536 0.36174 0.0
H1352 H 0.69383 0.48275 0.36742 0.0
H1353 H 0.74548 0.46122 0.39193 0.0
H1354 H 0.70075 0.47481 0.39476 0.0
O1355 O 0.74289 0.48197 0.37259 0.0
H1356 H 0.74316 0.44787 0.41448 0.0
H1357 H 0.69818 0.46103 0.41741 0.0
C1358 C 0.72181 0.463 0.36017 0.0
C1359 C 0.7284 0.46401 0.3465 0.0
C1360 C 0.72883 0.45171 0.33706 0.0
C1361 C 0.72271 0.43822 0.34124 0.0
C1362 C 0.71511 0.43759 0.35442 0.0
C1363 C 0.71458 0.44989 0.36375 0.0
C1364 C 0.71494 0.49366 0.37075 0.0
C1365 C 0.7224 0.50727 0.37087 0.0
C1366 C 0.71507 0.52004 0.36742 0.0
C1367 C 0.70001 0.5196 0.36398 0.0
C1368 C 0.69238 0.50603 0.36432 0.0
C1369 C 0.69982 0.49313 0.36758 0.0
C1370 C 0.72342 0.46935 0.39182 0.0
C1371 C 0.73518 0.46154 0.39755 0.0
C1372 C 0.73377 0.45367 0.41038 0.0
C1373 C 0.72044 0.45323 0.41776 0.0
C1374 C 0.70865 0.46124 0.4121 0.0
C1375 C 0.7101 0.46917 0.39917 0.0
P1376 P 0.69892 0.5377 0.00912 0.0
H1377 H 0.66866 0.54308 1.00008 0.0
H1378 H 0.65887 0.56189 0.98472 0.0
H1379 H 0.70211 0.57073 0.9682 0.0
H1380 H 0.71194 0.55201 0.98417 0.0
H1381 H 0.71198 0.51444 0.02591 0.0
H1382 H 0.71289 0.4882 0.02012 0.0
H1383 H 0.70201 0.49648 0.97496 0.0
H1384 H 0.7016 0.52262 0.98051 0.0
H1385 H 0.69514 0.56884 0.01246 0.0
H1386 H 0.72657 0.53751 0.02734 0.0
O1387 O 0.68548 0.53349 0.02045 0.0
H1388 H 0.70749 0.58794 0.02689 0.0
H1389 H 0.73876 0.5569 0.04273 0.0
C1390 C 0.69105 0.54645 0.99349 0.0
C1391 C 0.67597 0.54865 0.99277 0.0
C1392 C 0.67035 0.55941 0.98382 0.0
C1393 C 0.67978 0.56809 0.97545 0.0
C1394 C 0.69463 0.56445 0.97476 0.0
C1395 C 0.70024 0.5537 0.98379 0.0
C1396 C 0.70677 0.52059 0.0037 0.0
C1397 C 0.71073 0.51076 0.01459 0.0
C1398 C 0.71115 0.49576 0.0113 0.0
C1399 C 0.70747 0.49048 0.99712 0.0
C1400 C 0.70498 0.5004 0.98594 0.0
C1401 C 0.70476 0.51539 0.98918 0.0
C1402 C 0.71007 0.5517 0.0185 0.0
C1403 C 0.70491 0.56605 0.01862 0.0
C1404 C 0.71188 0.57702 0.0271 0.0
C1405 C 0.72396 0.57391 0.03614 0.0
C1406 C 0.72948 0.55962 0.03581 0.0
C1407 C 0.7225 0.54853 0.02706 0.0
P1408 P 0.32461 0.99795 0.69349 0.0
H1409 H 0.34334 0.01726 0.71275 0.0
H1410 H 0.3452 0.04387 0.71583 0.0
H1411 H 0.30592 0.04752 0.68905 0.0
H1412 H 0.30477 0.02146 0.68553 0.0
H1413 H 0.33054 0.96789 0.69988 0.0
H1414 H 0.31505 0.94817 0.70881 0.0
H1415 H 0.28222 0.97935 0.72038 0.0
H1416 H 0.29794 0.99926 0.71122 0.0
H1417 H 0.33648 0.99088 0.66446 0.0
H1418 H 0.29403 0.99631 0.68318 0.0
O1419 O 0.34219 0.99348 0.69288 0.0
H1420 H 0.32483 0.98696 0.64021 0.0
H1421 H 0.2824 0.9928 0.65905 0.0
C1422 C 0.32399 0.01724 0.69869 0.0
C1423 C 0.33505 0.02388 0.70766 0.0
C1424 C 0.33618 0.03924 0.70926 0.0
C1425 C 0.32608 0.04835 0.70211 0.0
C1426 C 0.31419 0.04134 0.69452 0.0
C1427 C 0.31339 0.02612 0.69251 0.0
C1428 C 0.31553 0.98512 0.70513 0.0
C1429 C 0.3203 0.97065 0.70487 0.0
C1430 C 0.31135 0.95933 0.70982 0.0
C1431 C 0.2974 0.96224 0.71511 0.0
C1432 C 0.29298 0.97685 0.7164 0.0
C1433 C 0.30199 0.98824 0.71131 0.0
C1434 C 0.31617 0.99435 0.67561 0.0
C1435 C 0.32467 0.99118 0.66341 0.0
C1436 C 0.31798 0.98879 0.64957 0.0
C1437 C 0.30271 0.98983 0.64769 0.0
C1438 C 0.29421 0.99222 0.66009 0.0
C1439 C 0.30087 0.99433 0.6739 0.0
P1440 P 0.29956 0.99357 0.95318 0.0
H1441 H 0.29226 0.97622 0.97851 0.0
H1442 H 0.29895 0.95167 0.98594 0.0
H1443 H 0.32879 0.94891 0.95005 0.0
H1444 H 0.3221 0.97359 0.94273 0.0
H1445 H 0.29263 0.02428 0.95346 0.0
H1446 H 0.30605 0.04645 0.96149 0.0
H1447 H 0.3415 0.02013 0.97754 0.0
H1448 H 0.32814 0.99796 0.96881 0.0
H1449 H 0.28395 0.97512 0.93132 0.0
H1450 H 0.31458 0.01174 0.93145 0.0
O1451 O 0.28222 0.99482 0.95833 0.0
H1452 H 0.282 0.97565 0.9046 0.0
H1453 H 0.3122 0.01282 0.90494 0.0
C1454 C 0.30642 0.97655 0.95987 0.0
C1455 C 0.30037 0.97041 0.97233 0.0
C1456 C 0.30418 0.95636 0.97656 0.0
C1457 C 0.31424 0.94826 0.96846 0.0
C1458 C 0.32104 0.95487 0.95654 0.0
C1459 C 0.31715 0.96894 0.95228 0.0
C1460 C 0.30934 0.0095 0.96061 0.0
C1461 C 0.30324 0.02329 0.95884 0.0
C1462 C 0.31092 0.03598 0.96355 0.0
C1463 C 0.32489 0.03517 0.97026 0.0
C1464 C 0.33086 0.02123 0.97227 0.0
C1465 C 0.32319 0.00851 0.96738 0.0
C1466 C 0.29928 0.99345 0.93341 0.0
C1467 C 0.29025 0.98328 0.92559 0.0
C1468 C 0.28905 0.9837 0.9103 0.0
C1469 C 0.29682 0.99438 0.90252 0.0
C1470 C 0.30614 0.00434 0.91046 0.0
C1471 C 0.30742 0.00382 0.92573 0.0
P1472 P 0.37444 0.72578 0.47608 0.0
H1473 H 0.34844 0.74353 0.4717 0.0
H1474 H 0.33122 0.74534 0.45096 0.0
H1475 H 0.35025 0.70746 0.43041 0.0
H1476 H 0.36744 0.70569 0.45124 0.0
H1477 H 0.38968 0.72524 0.50427 0.0
H1478 H 0.38465 0.7131 0.52714 0.0
H1479 H 0.34761 0.69013 0.50628 0.0
H1480 H 0.35262 0.70264 0.4834 0.0
H1481 H 0.38486 0.73571 0.4482 0.0
H1482 H 0.40115 0.70885 0.48294 0.0
O1483 O 0.37588 0.74314 0.48212 0.0
H1484 H 0.40762 0.73271 0.43517 0.0
H1485 H 0.42421 0.70606 0.47 0.0
C1486 C 0.35941 0.72465 0.46287 0.0
C1487 C 0.3487 0.73541 0.46289 0.0
C1488 C 0.33882 0.73642 0.45103 0.0
C1489 C 0.33954 0.7267 0.43892 0.0
C1490 C 0.34961 0.71527 0.43946 0.0
C1491 C 0.35937 0.71419 0.45139 0.0
C1492 C 0.37161 0.71481 0.49208 0.0
C1493 C 0.3806 0.71742 0.50454 0.0
C1494 C 0.37772 0.7104 0.51764 0.0
C1495 C 0.36571 0.70056 0.51865 0.0
C1496 C 0.35685 0.69774 0.506 0.0
C1497 C 0.35979 0.70479 0.49283 0.0
C1498 C 0.39114 0.7223 0.46644 0.0
C1499 C 0.39326 0.72898 0.45295 0.0
C1500 C 0.4063 0.72726 0.44549 0.0
C1501 C 0.41768 0.71906 0.4515 0.0
C1502 C 0.41562 0.71245 0.4651 0.0
C1503 C 0.40242 0.71401 0.47249 0.0
P1504 P 0.95129 0.29869 0.99642 0.0
H1505 H 0.97916 0.29626 0.98202 0.0
H1506 H 0.98753 0.30354 0.95796 0.0
H1507 H 0.94604 0.32394 0.94956 0.0
H1508 H 0.93788 0.31687 0.97374 0.0
H1509 H 0.96176 0.29062 0.02538 0.0
H1510 H 0.96992 0.30489 0.04699 0.0
H1511 H 0.96378 0.34486 0.02336 0.0
H1512 H 0.95619 0.33035 0.00148 0.0
H1513 H 0.93005 0.27597 0.98667 0.0
H1514 H 0.92903 0.3195 0.00582 0.0
O1515 O 0.9574 0.28168 0.99785 0.0
H1516 H 0.90334 0.27416 0.98721 0.0
H1517 H 0.90235 0.31795 0.00608 0.0
C1518 C 0.9578 0.30573 0.97949 0.0
C1519 C 0.97193 0.30243 0.97504 0.0
C1520 C 0.97668 0.30656 0.96128 0.0
C1521 C 0.96738 0.31415 0.95177 0.0
C1522 C 0.9535 0.31816 0.95664 0.0
C1523 C 0.94876 0.31401 0.97042 0.0
C1524 C 0.95846 0.30943 0.01182 0.0
C1525 C 0.96237 0.30245 0.02476 0.0
C1526 C 0.96691 0.31065 0.03718 0.0
C1527 C 0.96736 0.32606 0.037 0.0
C1528 C 0.96371 0.33303 0.02386 0.0
C1529 C 0.9593 0.32476 0.01136 0.0
C1530 C 0.93156 0.29772 0.99654 0.0
C1531 C 0.92408 0.28514 0.991 0.0
C1532 C 0.90878 0.28418 0.99119 0.0
C1533 C 0.90066 0.29586 0.99681 0.0
C1534 C 0.90824 0.30862 0.00197 0.0
C1535 C 0.92354 0.30954 0.0018 0.0
P1536 P 0.01172 0.69967 0.53589 0.0
H1537 H 0.99209 0.67408 0.53439 0.0
H1538 H 0.97636 0.6637 0.55294 0.0
H1539 H 0.98155 0.7038 0.5788 0.0
H1540 H 0.9965 0.71428 0.55994 0.0
H1541 H 0.02961 0.71272 0.5138 0.0
H1542 H 0.02537 0.7125 0.48729 0.0
H1543 H 0.97958 0.70253 0.49329 0.0
H1544 H 0.98381 0.70265 0.51978 0.0
H1545 H 0.03238 0.69041 0.55772 0.0
H1546 H 0.01678 0.73147 0.54182 0.0
O1547 O 0.02018 0.6842 0.53161 0.0
H1548 H 0.04482 0.70313 0.57824 0.0
H1549 H 0.02943 0.74445 0.56265 0.0
C1550 C 0.99598 0.69465 0.54618 0.0
C1551 C 0.98935 0.68081 0.54379 0.0
C1552 C 0.98038 0.6749 0.55441 0.0
C1553 C 0.97815 0.68273 0.56757 0.0
C1554 C 0.98309 0.69741 0.56885 0.0
C1555 C 0.99187 0.70337 0.55812 0.0
C1556 C 0.00707 0.70764 0.51874 0.0
C1557 C 0.01851 0.71133 0.50949 0.0
C1558 C 0.0161 0.71111 0.49436 0.0
C1559 C 0.0022 0.70732 0.48838 0.0
C1560 C 0.99036 0.70555 0.49771 0.0
C1561 C 0.99281 0.70563 0.51286 0.0
C1562 C 0.02392 0.71003 0.5481 0.0
C1563 C 0.03201 0.70225 0.55839 0.0
C1564 C 0.03896 0.70951 0.57025 0.0
C1565 C 0.03789 0.72473 0.57212 0.0
C1566 C 0.0304 0.7327 0.5614 0.0
C1567 C 0.02331 0.72534 0.54949 0.0
P1568 P 0.69301 0.3233 0.99868 0.0
H1569 H 0.71082 0.34391 0.01703 0.0
H1570 H 0.71399 0.34683 0.04364 0.0
H1571 H 0.69301 0.30461 0.04901 0.0
H1572 H 0.68883 0.30234 0.02266 0.0
H1573 H 0.69835 0.33001 0.9685 0.0
H1574 H 0.70855 0.31579 0.94861 0.0
H1575 H 0.72284 0.28348 0.97932 0.0
H1576 H 0.71235 0.298 0.99936 0.0
H1577 H 0.66389 0.33303 0.98905 0.0
H1578 H 0.68432 0.29228 0.99892 0.0
O1579 O 0.69101 0.34084 0.99442 0.0
H1580 H 0.64042 0.31998 0.9848 0.0
H1581 H 0.6608 0.27923 0.99525 0.0
C1582 C 0.69915 0.32308 0.01775 0.0
C1583 C 0.70702 0.33518 0.02392 0.0
C1584 C 0.70882 0.33686 0.03918 0.0
C1585 C 0.70338 0.32612 0.04858 0.0
C1586 C 0.69716 0.3132 0.04218 0.0
C1587 C 0.6948 0.31184 0.02698 0.0
C1588 C 0.7049 0.31521 0.98548 0.0
C1589 C 0.70418 0.32017 0.9711 0.0
C1590 C 0.70998 0.31195 0.95967 0.0
C1591 C 0.71652 0.29845 0.96234 0.0
C1592 C 0.71778 0.29377 0.97689 0.0
C1593 C 0.71199 0.30212 0.98837 0.0
C1594 C 0.67571 0.31373 0.9952 0.0
C1595 C 0.66335 0.32129 0.99042 0.0
C1596 C 0.64997 0.3138 0.9878 0.0
C1597 C 0.64874 0.29864 0.99003 0.0
C1598 C 0.66136 0.29097 0.99381 0.0
C1599 C 0.67475 0.29845 0.99617 0.0
P1600 P 0.47636 0.3752 0.72552 0.0
H1601 H 0.46805 0.35271 0.74619 0.0
H1602 H 0.44676 0.33636 0.74756 0.0
H1603 H 0.43191 0.3497 0.70482 0.0
H1604 H 0.45341 0.36628 0.70347 0.0
H1605 H 0.50485 0.38945 0.72486 0.0
H1606 H 0.52757 0.38342 0.71276 0.0
H1607 H 0.505 0.34828 0.68851 0.0
H1608 H 0.48219 0.3542 0.70098 0.0
H1609 H 0.46813 0.3982 0.74618 0.0
H1610 H 0.46547 0.3906 0.69942 0.0
O1611 O 0.48355 0.37554 0.7425 0.0
H1612 H 0.45557 0.42121 0.74351 0.0
H1613 H 0.45248 0.41376 0.6967 0.0
C1614 C 0.46228 0.36093 0.7248 0.0
C1615 C 0.4604 0.35205 0.73697 0.0
C1616 C 0.44817 0.34269 0.73779 0.0
C1617 C 0.43757 0.34189 0.72639 0.0
C1618 C 0.43991 0.35009 0.71376 0.0
C1619 C 0.45217 0.35959 0.713 0.0
C1620 C 0.49182 0.37227 0.71388 0.0
C1621 C 0.50469 0.38058 0.71678 0.0
C1622 C 0.51771 0.37706 0.70994 0.0
C1623 C 0.51812 0.36526 0.69983 0.0
C1624 C 0.50501 0.35743 0.69627 0.0
C1625 C 0.49196 0.36083 0.70336 0.0
C1626 C 0.46796 0.39273 0.72298 0.0
C1627 C 0.46501 0.40154 0.73528 0.0
C1628 C 0.45779 0.41475 0.73376 0.0
C1629 C 0.4531 0.41937 0.71989 0.0
C1630 C 0.45594 0.41047 0.70753 0.0
C1631 C 0.46339 0.39728 0.70906 0.0
P1632 P 0.99389 0.95419 0.30009 0.0
H1633 H 0.9769 0.98059 0.29627 0.0
H1634 H 0.95192 0.98687 0.30288 0.0
H1635 H 0.94768 0.9462 0.32578 0.0
H1636 H 0.97269 0.94009 0.31933 0.0
H1637 H 0.02103 0.96999 0.29344 0.0
H1638 H 0.04251 0.97737 0.30841 0.0
H1639 H 0.02113 0.96163 0.3469 0.0
H1640 H 0.99961 0.95415 0.33174 0.0
H1641 H 0.97355 0.93166 0.28803 0.0
H1642 H 0.01669 0.9333 0.30831 0.0
O1643 O 0.99544 0.96063 0.28323 0.0
H1644 H 0.97494 0.90501 0.28524 0.0
H1645 H 0.01806 0.90675 0.30572 0.0
C1646 C 0.97646 0.95968 0.30692 0.0
C1647 C 0.97065 0.97312 0.30287 0.0
C1648 C 0.95642 0.97674 0.30672 0.0
C1649 C 0.94779 0.96691 0.31465 0.0
C1650 C 0.95401 0.95386 0.31945 0.0
C1651 C 0.96828 0.95035 0.31574 0.0
C1652 C 0.00867 0.96167 0.31152 0.0
C1653 C 0.02082 0.96839 0.30514 0.0
C1654 C 0.03311 0.97264 0.31373 0.0
C1655 C 0.03353 0.97009 0.32885 0.0
C1656 C 0.02117 0.96364 0.33526 0.0
C1657 C 0.00884 0.95947 0.32665 0.0
C1658 C 0.99486 0.93448 0.29865 0.0
C1659 C 0.98324 0.92628 0.29204 0.0
C1660 C 0.98403 0.91104 0.29049 0.0
C1661 C 0.99658 0.90373 0.29532 0.0
C1662 C 0.00827 0.91204 0.3018 0.0
C1663 C 0.00744 0.92726 0.3034 0.0
P1664 P 0.53573 0.01215 0.69915 0.0
H1665 H 0.53986 0.99594 0.67166 0.0
H1666 H 0.56077 0.98173 0.66392 0.0
H1667 H 0.57649 0.98046 0.70873 0.0
H1668 H 0.55536 0.99434 0.71655 0.0
H1669 H 0.51246 0.02936 0.71112 0.0
H1670 H 0.48612 0.02378 0.71088 0.0
H1671 H 0.49452 0.97818 0.70225 0.0
H1672 H 0.52079 0.9837 0.70242 0.0
H1673 H 0.56 0.0301 0.69067 0.0
H1674 H 0.53912 0.01924 0.73099 0.0
O1675 O 0.5317 0.02079 0.68371 0.0
H1676 H 0.58012 0.04228 0.70443 0.0
H1677 H 0.55936 0.03192 0.74496 0.0
C1678 C 0.54646 0.99661 0.69458 0.0
C1679 C 0.54739 0.99199 0.67992 0.0
C1680 C 0.55923 0.98374 0.67551 0.0
C1681 C 0.57015 0.98019 0.68577 0.0
C1682 C 0.56807 0.98304 0.70071 0.0
C1683 C 0.55611 0.99109 0.70513 0.0
C1684 C 0.51856 0.00698 0.70678 0.0
C1685 C 0.50871 0.01804 0.71003 0.0
C1686 C 0.49369 0.01487 0.70982 0.0
C1687 C 0.48848 1.00058 0.7065 0.0
C1688 C 0.4984 0.98923 0.70498 0.0
C1689 C 0.51341 0.99242 0.70509 0.0
C1690 C 0.54791 0.02411 0.70981 0.0
C1691 C 0.55952 0.03076 0.70251 0.0
C1692 C 0.5711 0.03755 0.71035 0.0
C1693 C 0.57127 0.03791 0.72569 0.0
C1694 C 0.55938 0.03177 0.73311 0.0
C1695 C 0.5478 0.02469 0.72517 0.0
P1696 P 0.99563 0.69272 0.3272 0.0
H1697 H 0.01475 0.70868 0.34909 0.0
H1698 H 0.04149 0.71178 0.35155 0.0
H1699 H 0.04608 0.69031 0.30955 0.0
H1700 H 0.01988 0.68613 0.30785 0.0
H1701 H 0.96542 0.7001 0.33134 0.0
H1702 H 0.94699 0.70981 0.31473 0.0
H1703 H 0.98048 0.72031 0.28392 0.0
H1704 H 0.99902 0.71022 0.30066 0.0
H1705 H 0.98739 0.66339 0.33792 0.0
H1706 H 0.9958 0.68307 0.29641 0.0
O1707 O 0.98973 0.69206 0.34434 0.0
H1708 H 0.98491 0.63932 0.32563 0.0
H1709 H 0.99343 0.65921 0.28418 0.0
C1710 C 0.01512 0.69738 0.32804 0.0
C1711 C 0.02152 0.70477 0.34032 0.0
C1712 C 0.03685 0.70647 0.34179 0.0
C1713 C 0.0461 0.70109 0.33087 0.0
C1714 C 0.03947 0.6947 0.31818 0.0
C1715 C 0.02429 0.69244 0.31705 0.0
C1716 C 0.98373 0.70479 0.31741 0.0
C1717 C 0.96899 0.70505 0.32133 0.0
C1718 C 0.95841 0.71049 0.31179 0.0
C1719 C 0.96237 0.71579 0.29812 0.0
C1720 C 0.97722 0.71643 0.29451 0.0
C1721 C 0.98784 0.71086 0.30411 0.0
C1722 C 0.99239 0.67504 0.31821 0.0
C1723 C 0.98872 0.6626 0.3262 0.0
C1724 C 0.98709 0.64886 0.31913 0.0
C1725 C 0.98921 0.64737 0.30397 0.0
C1726 C 0.99201 0.65997 0.29591 0.0
C1727 C 0.99346 0.67365 0.30295 0.0
H1728 H 0.17497 0.67011 0.37717 0.0
H1729 H 0.14988 0.67621 0.37059 0.0
H1730 H 0.16351 0.68795 0.32743 0.0
H1731 H 0.18893 0.68227 0.33425 0.0
H1732 H 0.14387 0.70607 0.335 0.0
H1733 H 0.14438 0.65459 0.33446 0.0
H1734 H 0.14918 0.62966 0.34287 0.0
H1735 H 0.12132 0.63655 0.37948 0.0
H1736 H 0.11651 0.66161 0.3714 0.0
H1737 H 0.06788 0.70408 0.31049 0.0
H1738 H 0.09403 0.69975 0.3138 0.0
H1739 H 0.08784 0.69269 0.35975 0.0
H1740 H 0.06163 0.69646 0.35647 0.0
H1741 H 0.10389 0.67134 0.34774 0.0
H1742 H 0.1046 0.72483 0.34577 0.0
H1743 H 0.09925 0.74803 0.33363 0.0
H1744 H 0.12445 0.73468 0.29676 0.0
H1745 H 0.12979 0.71133 0.30861 0.0
C1746 C 0.17265 0.67394 0.36625 0.0
C1747 C 0.18399 0.6755 0.35619 0.0
C1748 C 0.15822 0.67739 0.36245 0.0
C1749 C 0.15453 0.6822 0.34834 0.0
C1750 C 0.16592 0.68418 0.33836 0.0
C1751 C 0.18048 0.68092 0.34226 0.0
C1752 C 0.13882 0.68508 0.3442 0.0
C1753 C 0.13519 0.69835 0.33764 0.0
C1754 C 0.12729 0.67506 0.34741 0.0
C1755 C 0.1302 0.66003 0.3524 0.0
C1756 C 0.13937 0.65083 0.34437 0.0
C1757 C 0.14208 0.63667 0.34907 0.0
C1758 C 0.13559 0.63154 0.36172 0.0
C1759 C 0.12635 0.64055 0.36969 0.0
C1760 C 0.12362 0.65473 0.36505 0.0
C1761 C 0.07203 0.70166 0.32134 0.0
C1762 C 0.06245 0.70061 0.33319 0.0
C1763 C 0.0871 0.69929 0.32323 0.0
C1764 C 0.09306 0.69595 0.33706 0.0
C1765 C 0.0836 0.69527 0.34896 0.0
C1766 C 0.06856 0.69763 0.34709 0.0
C1767 C 0.10896 0.69253 0.33912 0.0
C1768 C 0.11261 0.67906 0.34517 0.0
C1769 C 0.12047 0.70214 0.33496 0.0
C1770 C 0.1175 0.71631 0.32803 0.0
C1771 C 0.10894 0.72683 0.33505 0.0
C1772 C 0.10592 0.74 0.32822 0.0
C1773 C 0.11148 0.74281 0.31442 0.0
C1774 C 0.12014 0.73248 0.30744 0.0
C1775 C 0.12318 0.71929 0.31422 0.0
H1776 H 0.10911 0.75301 0.30914 0.0
H1777 H 0.13769 0.62057 0.36534 0.0
H1778 H 0.3153 0.26759 0.75017 0.0
H1779 H 0.33745 0.27584 0.73745 0.0
H1780 H 0.34762 0.30664 0.77288 0.0
H1781 H 0.32587 0.29835 0.78564 0.0
H1782 H 0.34742 0.31846 0.74342 0.0
H1783 H 0.36623 0.27821 0.77196 0.0
H1784 H 0.36725 0.25238 0.7791 0.0
H1785 H 0.37652 0.23953 0.73483 0.0
H1786 H 0.37532 0.2653 0.72739 0.0
H1787 H 0.41992 0.34334 0.7498 0.0
H1788 H 0.39686 0.33006 0.75353 0.0
H1789 H 0.40044 0.30826 0.71147 0.0
H1790 H 0.42364 0.3218 0.70753 0.0
H1791 H 0.39243 0.28959 0.73812 0.0
H1792 H 0.37642 0.32935 0.70967 0.0
H1793 H 0.37536 0.35496 0.70182 0.0
H1794 H 0.36041 0.36818 0.74423 0.0
H1795 H 0.36152 0.34264 0.75238 0.0
C1796 C 0.32235 0.27606 0.75523 0.0
C1797 C 0.31894 0.28227 0.76893 0.0
C1798 C 0.33497 0.28072 0.74799 0.0
C1799 C 0.34415 0.29185 0.75425 0.0
C1800 C 0.34069 0.29804 0.76788 0.0
C1801 C 0.32831 0.29323 0.77519 0.0
C1802 C 0.3572 0.29753 0.74664 0.0
C1803 C 0.35723 0.31212 0.74221 0.0
C1804 C 0.36983 0.28911 0.74459 0.0
C1805 C 0.37045 0.27364 0.74907 0.0
C1806 C 0.3683 0.26986 0.76371 0.0
C1807 C 0.36895 0.25524 0.76783 0.0
C1808 C 0.37189 0.24431 0.75742 0.0
C1809 C 0.37421 0.248 0.74288 0.0
C1810 C 0.37354 0.26261 0.7387 0.0
C1811 C 0.41587 0.33565 0.74137 0.0
C1812 C 0.42362 0.33355 0.7284 0.0
C1813 C 0.40268 0.32811 0.74349 0.0
C1814 C 0.39697 0.31817 0.73279 0.0
C1815 C 0.40471 0.31586 0.71987 0.0
C1816 C 0.41788 0.32364 0.71761 0.0
C1817 C 0.38272 0.31064 0.73531 0.0
C1818 C 0.38247 0.29577 0.7389 0.0
C1819 C 0.36978 0.31872 0.73642 0.0
C1820 C 0.36917 0.33411 0.73167 0.0
C1821 C 0.37304 0.33774 0.71737 0.0
C1822 C 0.37239 0.35224 0.71285 0.0
C1823 C 0.36786 0.3632 0.72253 0.0
C1824 C 0.36393 0.35967 0.73674 0.0
C1825 C 0.36454 0.34519 0.74131 0.0
H1826 H 0.36736 0.37441 0.71901 0.0
H1827 H 0.37241 0.233 0.76063 0.0
H1828 H 0.68775 0.96617 0.61232 0.0
H1829 H 0.66762 0.96168 0.62908 0.0
H1830 H 0.664 0.00827 0.63665 0.0
H1831 H 0.68432 0.01274 0.61997 0.0
H1832 H 0.66174 0.99133 0.66235 0.0
H1833 H 0.64121 0.99302 0.61317 0.0
H1834 H 0.64007 0.98574 0.587 0.0
H1835 H 0.63184 0.94098 0.59837 0.0
H1836 H 0.63312 0.948 0.62464 0.0
H1837 H 0.59059 0.0013 0.68544 0.0
H1838 H 0.61426 1.00066 0.67389 0.0
H1839 H 0.60701 0.95476 0.66286 0.0
H1840 H 0.58259 0.95576 0.67374 0.0
H1841 H 0.6164 0.96826 0.6404 0.0
H1842 H 0.63332 0.96788 0.69033 0.0
H1843 H 0.63409 0.97615 0.71622 0.0
H1844 H 0.64902 0.0189 0.70377 0.0
H1845 H 0.64817 0.01096 0.67779 0.0
C1846 C 0.68263 0.97539 0.61765 0.0
C1847 C 0.68727 0.98976 0.6149 0.0
C1848 C 0.67125 0.97284 0.6272 0.0
C1849 C 0.66435 0.98466 0.63398 0.0
C1850 C 0.66929 0.99905 0.63153 0.0
C1851 C 0.68073 0.00159 0.622 0.0
C1852 C 0.65133 0.98202 0.64282 0.0
C1853 C 0.65178 0.98634 0.65762 0.0
C1854 C 0.63856 0.97519 0.63661 0.0
C1855 C 0.63738 0.97101 0.62084 0.0
C1856 C 0.63923 0.98162 0.61008 0.0
C1857 C 0.63855 0.97754 0.59524 0.0
C1858 C 0.63592 0.9629 0.59103 0.0
C1859 C 0.63389 0.95231 0.60165 0.0
C1860 C 0.63457 0.95634 0.61652 0.0
C1861 C 0.59423 0.99101 0.68081 0.0
C1862 C 0.58507 0.97849 0.68063 0.0
C1863 C 0.60778 0.99061 0.6743 0.0
C1864 C 0.61263 0.97755 0.66789 0.0
C1865 C 0.60353 0.9649 0.66792 0.0
C1866 C 0.58971 0.96541 0.67417 0.0
C1867 C 0.62662 0.97766 0.66008 0.0
C1868 C 0.6264 0.97293 0.64536 0.0
C1869 C 0.6396 0.98415 0.66641 0.0
C1870 C 0.64065 0.98881 0.68209 0.0
C1871 C 0.63675 0.97905 0.69311 0.0
C1872 C 0.63719 0.98369 0.70781 0.0
C1873 C 0.64159 0.99804 0.71164 0.0
C1874 C 0.64563 0.00778 0.70079 0.0
C1875 C 0.64522 0.0032 0.68608 0.0
H1876 H 0.64188 0.00162 0.72302 0.0
H1877 H 0.63542 0.95975 0.57953 0.0
H1878 H 0.81209 0.95532 0.30031 0.0
H1879 H 0.83841 0.95597 0.30602 0.0
H1880 H 0.8352 0.99984 0.32396 0.0
H1881 H 0.80889 0.99931 0.31811 0.0
H1882 H 0.85816 0.99784 0.30622 0.0
H1883 H 0.84086 0.97272 0.3469 0.0
H1884 H 0.82693 0.95466 0.361 0.0
H1885 H 0.84967 0.91963 0.34003 0.0
H1886 H 0.86359 0.93747 0.32563 0.0
H1887 H 0.93495 0.99205 0.32467 0.0
H1888 H 0.90867 0.9963 0.32721 0.0
H1889 H 0.89897 0.95224 0.31116 0.0
H1890 H 0.92505 0.94786 0.30915 0.0
H1891 H 0.88231 0.95805 0.33302 0.0
H1892 H 0.89694 0.98563 0.28956 0.0
H1893 H 0.91096 0.00518 0.2775 0.0
H1894 H 0.89322 0.03735 0.30671 0.0
H1895 H 0.87922 0.01797 0.31902 0.0
C1896 C 0.817 0.9651 0.30544 0.0
C1897 C 0.80841 0.97724 0.30878 0.0
C1898 C 0.83201 0.96542 0.30883 0.0
C1899 C 0.83875 0.9779 0.31556 0.0
C1900 C 0.83023 0.99008 0.31883 0.0
C1901 C 0.81519 0.98972 0.31556 0.0
C1902 C 0.8548 0.97832 0.31863 0.0
C1903 C 0.86344 0.98927 0.31228 0.0
C1904 C 0.8617 0.96727 0.32668 0.0
C1905 C 0.85318 0.95644 0.33509 0.0
C1906 C 0.84278 0.96116 0.34518 0.0
C1907 C 0.83491 0.95096 0.35325 0.0
C1908 C 0.83739 0.936 0.35139 0.0
C1909 C 0.84775 0.93122 0.34145 0.0
C1910 C 0.85564 0.94137 0.33334 0.0
C1911 C 0.92715 0.98329 0.32177 0.0
C1912 C 0.93202 0.9696 0.31679 0.0
C1913 C 0.91215 0.98574 0.32316 0.0
C1914 C 0.90177 0.97464 0.31921 0.0
C1915 C 0.90671 0.96096 0.31436 0.0
C1916 C 0.92164 0.95844 0.31322 0.0
C1917 C 0.88572 0.97703 0.31984 0.0
C1918 C 0.87704 0.96668 0.32704 0.0
C1919 C 0.87881 0.98877 0.31278 0.0
C1920 C 0.88717 1.00035 0.30529 0.0
C1921 C 0.8961 0.99687 0.29345 0.0
C1922 C 0.90403 0.00792 0.28657 0.0
C1923 C 0.90301 0.02249 0.29136 0.0
C1924 C 0.89403 0.02606 0.30302 0.0
C1925 C 0.88609 0.01505 0.30995 0.0
H1926 H 0.90916 0.03103 0.28602 0.0
H1927 H 0.83131 0.92813 0.35767 0.0
H1928 H 0.37784 0.17965 0.6884 0.0
H1929 H 0.36983 0.1547 0.69347 0.0
H1930 H 0.32759 0.16271 0.67367 0.0
H1931 H 0.33566 0.18782 0.66827 0.0
H1932 H 0.32483 0.1463 0.69831 0.0
H1933 H 0.35173 0.14336 0.65471 0.0
H1934 H 0.37229 0.14767 0.63822 0.0
H1935 H 0.40104 0.12504 0.66738 0.0
H1936 H 0.38068 0.12077 0.68415 0.0
H1937 H 0.30579 0.07012 0.69636 0.0
H1938 H 0.31051 0.09543 0.69083 0.0
H1939 H 0.35621 0.09068 0.70212 0.0
H1940 H 0.35207 0.0647 0.70548 0.0
H1941 H 0.35548 0.10596 0.68012 0.0
H1942 H 0.32645 0.10977 0.7244 0.0
H1943 H 0.30428 0.10461 0.73852 0.0
H1944 H 0.27782 0.12502 0.70569 0.0
H1945 H 0.2998 0.13016 0.69132 0.0
C1946 C 0.36686 0.17617 0.68499 0.0
C1947 C 0.35753 0.18582 0.67765 0.0
C1948 C 0.36226 0.16183 0.68798 0.0
C1949 C 0.34817 0.15662 0.68375 0.0
C1950 C 0.33854 0.16638 0.67701 0.0
C1951 C 0.34317 0.1808 0.67396 0.0
C1952 C 0.34384 0.14089 0.68603 0.0
C1953 C 0.33146 0.13747 0.69424 0.0
C1954 C 0.3524 0.12925 0.68073 0.0
C1955 C 0.36472 0.13188 0.67075 0.0
C1956 C 0.36247 0.13942 0.65767 0.0
C1957 C 0.37408 0.14183 0.64826 0.0
C1958 C 0.38797 0.13667 0.65177 0.0
C1959 C 0.39028 0.12906 0.66469 0.0
C1960 C 0.3787 0.12662 0.67414 0.0
C1961 C 0.31697 0.07415 0.69745 0.0
C1962 C 0.32852 0.06479 0.70127 0.0
C1963 C 0.3196 0.089 0.69461 0.0
C1964 C 0.33371 0.09536 0.69633 0.0
C1965 C 0.34517 0.08624 0.70068 0.0
C1966 C 0.34268 0.07124 0.70291 0.0
C1967 C 0.33677 0.11123 0.69301 0.0
C1968 C 0.34889 0.11473 0.68442 0.0
C1969 C 0.32783 0.12287 0.69781 0.0
C1970 C 0.31475 0.12028 0.70677 0.0
C1971 C 0.3159 0.11315 0.72021 0.0
C1972 C 0.30336 0.11022 0.72824 0.0
C1973 C 0.28965 0.11447 0.72299 0.0
C1974 C 0.28844 0.12174 0.70974 0.0
C1975 C 0.30093 0.12469 0.70167 0.0
H1976 H 0.27996 0.11214 0.7292 0.0
H1977 H 0.39694 0.13854 0.64446 0.0
H1978 H 0.33176 0.80695 0.98653 0.0
H1979 H 0.3377 0.83302 0.98489 0.0
H1980 H 0.29297 0.84103 0.97175 0.0
H1981 H 0.28742 0.81509 0.97161 0.0
H1982 H 0.30873 0.85555 0.9557 0.0
H1983 H 0.31132 0.84835 0.00883 0.0
H1984 H 0.32148 0.83797 0.0315 0.0
H1985 H 0.36417 0.85515 0.02163 0.0
H1986 H 0.35429 0.86548 0.99883 0.0
H1987 H 0.29337 0.92756 0.97402 0.0
H1988 H 0.29641 0.90132 0.97689 0.0
H1989 H 0.34306 0.90682 0.97244 0.0
H1990 H 0.34011 0.93333 0.96956 0.0
H1991 H 0.33227 0.88588 0.99575 0.0
H1992 H 0.32858 0.89551 0.94439 0.0
H1993 H 0.31798 0.90674 0.92238 0.0
H1994 H 0.27672 0.88499 0.92966 0.0
H1995 H 0.287 0.87384 0.95186 0.0
C1996 C 0.32322 0.81418 0.98301 0.0
C1997 C 0.30903 0.80867 0.97923 0.0
C1998 C 0.3266 0.82922 0.98237 0.0
C1999 C 0.31576 0.83916 0.97841 0.0
C2000 C 0.3016 0.83368 0.97485 0.0
C2001 C 0.29835 0.81871 0.97502 0.0
C2002 C 0.31894 0.8552 0.97722 0.0
C2003 C 0.31377 0.8621 0.96459 0.0
C2004 C 0.32621 0.86386 0.9884 0.0
C2005 C 0.3321 0.85751 0.00204 0.0
C2006 C 0.32289 0.8498 0.01144 0.0
C2007 C 0.3286 0.84395 0.02432 0.0
C2008 C 0.34347 0.84585 0.02798 0.0
C2009 C 0.35266 0.85365 0.01877 0.0
C2010 C 0.34702 0.8595 0.00587 0.0
C2011 C 0.30433 0.92329 0.97396 0.0
C2012 C 0.3165 0.93254 0.97156 0.0
C2013 C 0.30603 0.90827 0.97554 0.0
C2014 C 0.31994 0.90215 0.97483 0.0
C2015 C 0.33224 0.91137 0.97305 0.0
C2016 C 0.33052 0.92646 0.9713 0.0
C2017 C 0.32119 0.886 0.97473 0.0
C2018 C 0.32733 0.87917 0.98693 0.0
C2019 C 0.31472 0.87732 0.96324 0.0
C2020 C 0.30853 0.88394 0.94984 0.0
C2021 C 0.31721 0.89323 0.94136 0.0
C2022 C 0.31127 0.89956 0.92884 0.0
C2023 C 0.29668 0.8966 0.92464 0.0
C2024 C 0.28801 0.88728 0.93293 0.0
C2025 C 0.29389 0.88095 0.94548 0.0
H2026 H 0.2921 0.9015 0.91493 0.0
H2027 H 0.34786 0.84133 0.03796 0.0
H2028 H 0.76831 0.31396 0.30745 0.0
H2029 H 0.7567 0.33658 0.31491 0.0
H2030 H 0.74882 0.34682 0.26953 0.0
H2031 H 0.76136 0.3244 0.26206 0.0
H2032 H 0.75732 0.37016 0.28282 0.0
H2033 H 0.72022 0.33502 0.29416 0.0
H2034 H 0.70949 0.31264 0.30458 0.0
H2035 H 0.72253 0.32784 0.34785 0.0
H2036 H 0.73351 0.35022 0.33769 0.0
H2037 H 0.71942 0.4328 0.31155 0.0
H2038 H 0.7247 0.41001 0.29804 0.0
H2039 H 0.7386 0.39045 0.33848 0.0
H2040 H 0.73287 0.41284 0.35192 0.0
H2041 H 0.7225 0.37171 0.3236 0.0
H2042 H 0.76291 0.40516 0.3108 0.0
H2043 H 0.77319 0.42746 0.29976 0.0
H2044 H 0.75254 0.41521 0.25844 0.0
H2045 H 0.74205 0.39292 0.26928 0.0
C2046 C 0.76393 0.32096 0.29908 0.0
C2047 C 0.76554 0.31738 0.2842 0.0
C2048 C 0.75718 0.33386 0.30334 0.0
C2049 C 0.75143 0.34329 0.29282 0.0
C2050 C 0.75302 0.3397 0.27788 0.0
C2051 C 0.76014 0.3269 0.2736 0.0
C2052 C 0.74457 0.35724 0.29757 0.0
C2053 C 0.74947 0.37044 0.29155 0.0
C2054 C 0.73433 0.35775 0.30899 0.0
C2055 C 0.72773 0.34428 0.31514 0.0
C2056 C 0.72087 0.33355 0.30589 0.0
C2057 C 0.71474 0.32087 0.31175 0.0
C2058 C 0.71534 0.31882 0.32686 0.0
C2059 C 0.72207 0.32945 0.33615 0.0
C2060 C 0.72822 0.34214 0.33034 0.0
C2061 C 0.72356 0.42358 0.31749 0.0
C2062 C 0.72559 0.42453 0.33279 0.0
C2063 C 0.72665 0.41059 0.30977 0.0
C2064 C 0.73218 0.39849 0.3172 0.0
C2065 C 0.73424 0.39954 0.33247 0.0
C2066 C 0.73094 0.41235 0.34017 0.0
C2067 C 0.73583 0.38458 0.30937 0.0
C2068 C 0.7302 0.37137 0.31474 0.0
C2069 C 0.74528 0.38408 0.29731 0.0
C2070 C 0.75157 0.39749 0.29088 0.0
C2071 C 0.76049 0.40729 0.29939 0.0
C2072 C 0.76637 0.41991 0.29317 0.0
C2073 C 0.76348 0.42277 0.27843 0.0
C2074 C 0.75475 0.413 0.26986 0.0
C2075 C 0.74884 0.40037 0.27604 0.0
H2076 H 0.76804 0.43254 0.27363 0.0
H2077 H 0.71059 0.30899 0.33138 0.0
H2078 H 0.59587 0.66935 0.99201 0.0
H2079 H 0.61204 0.64875 0.98898 0.0
H2080 H 0.64872 0.67863 0.98368 0.0
H2081 H 0.6324 0.69934 0.98586 0.0
H2082 H 0.64916 0.65877 0.96337 0.0
H2083 H 0.64582 0.65749 0.01453 0.0
H2084 H 0.63497 0.65766 0.03898 0.0
H2085 H 0.61119 0.61767 0.02806 0.0
H2086 H 0.62173 0.61735 0.00345 0.0
H2087 H 0.69489 0.59424 0.97713 0.0
H2088 H 0.68424 0.61843 0.97674 0.0
H2089 H 0.64241 0.59907 0.96359 0.0
H2090 H 0.65309 0.57476 0.96321 0.0
H2091 H 0.648 0.61496 0.99445 0.0
H2092 H 0.65245 0.61905 0.94138 0.0
H2093 H 0.66676 0.61957 0.91884 0.0
H2094 H 0.69297 0.65562 0.93665 0.0
H2095 H 0.67893 0.65516 0.95939 0.0
C2096 C 0.60737 0.67155 0.99019 0.0
C2097 C 0.61282 0.68597 0.98904 0.0
C2098 C 0.61666 0.65976 0.98867 0.0
C2099 C 0.63162 0.66215 0.98623 0.0
C2100 C 0.63721 0.67655 0.98557 0.0
C2101 C 0.62788 0.68837 0.98695 0.0
C2102 C 0.64109 0.64955 0.98328 0.0
C2103 C 0.64909 0.6493 0.97032 0.0
C2104 C 0.6411 0.63722 0.99237 0.0
C2105 C 0.63448 0.63747 0.00708 0.0
C2106 C 0.63816 0.64881 0.01728 0.0
C2107 C 0.63209 0.64891 0.03119 0.0
C2108 C 0.62237 0.6377 0.03506 0.0
C2109 C 0.61871 0.62635 0.02504 0.0
C2110 C 0.62474 0.6262 0.01111 0.0
C2111 C 0.68362 0.59511 0.97337 0.0
C2112 C 0.67475 0.5825 0.97043 0.0
C2113 C 0.67755 0.60897 0.97328 0.0
C2114 C 0.66257 0.61039 0.97031 0.0
C2115 C 0.65402 0.59806 0.96596 0.0
C2116 C 0.66012 0.58421 0.9658 0.0
C2117 C 0.65538 0.62407 0.97433 0.0
C2118 C 0.64802 0.62452 0.9876 0.0
C2119 C 0.65637 0.6367 0.96581 0.0
C2120 C 0.66475 0.63696 0.95214 0.0
C2121 C 0.66136 0.62698 0.94055 0.0
C2122 C 0.6694 0.62729 0.92772 0.0
C2123 C 0.6808 0.63759 0.92633 0.0
C2124 C 0.68416 0.64763 0.93775 0.0
C2125 C 0.67616 0.64736 0.9506 0.0
H2126 H 0.687 0.63782 0.91639 0.0
H2127 H 0.61771 0.63779 0.04584 0.0
H2128 H 0.66071 0.37043 0.17358 0.0
H2129 H 0.66649 0.36208 0.14892 0.0
H2130 H 0.6975 0.33194 0.16671 0.0
H2131 H 0.692 0.34061 0.1916 0.0
H2132 H 0.70932 0.34485 0.14428 0.0
H2133 H 0.66449 0.31977 0.15087 0.0
H2134 H 0.63869 0.31549 0.15718 0.0
H2135 H 0.625 0.34478 0.12368 0.0
H2136 H 0.65075 0.34941 0.1173 0.0
H2137 H 0.70811 0.30712 0.07123 0.0
H2138 H 0.70367 0.31136 0.09741 0.0
H2139 H 0.69121 0.35556 0.0887 0.0
H2140 H 0.69604 0.35163 0.06272 0.0
H2141 H 0.67054 0.33232 0.10686 0.0
H2142 H 0.71809 0.35852 0.10343 0.0
H2143 H 0.74405 0.35904 0.0966 0.0
H2144 H 0.75231 0.3227 0.12441 0.0
H2145 H 0.72631 0.32184 0.13121 0.0
C2146 C 0.6688 0.36204 0.17232 0.0
C2147 C 0.67594 0.3563 0.18469 0.0
C2148 C 0.672 0.35714 0.15813 0.0
C2149 C 0.68237 0.34624 0.15579 0.0
C2150 C 0.68944 0.34034 0.16812 0.0
C2151 C 0.68619 0.34523 0.18239 0.0
C2152 C 0.68607 0.3415 0.14048 0.0
C2153 C 0.70079 0.34193 0.13622 0.0
C2154 C 0.67509 0.33756 0.12975 0.0
C2155 C 0.65958 0.33506 0.13371 0.0
C2156 C 0.656 0.32543 0.14495 0.0
C2157 C 0.64137 0.32291 0.14852 0.0
C2158 C 0.63022 0.32989 0.14086 0.0
C2159 C 0.63366 0.3394 0.12961 0.0
C2160 C 0.64827 0.34197 0.12601 0.0
C2161 C 0.70457 0.3178 0.0749 0.0
C2162 C 0.70243 0.32901 0.06476 0.0
C2163 C 0.70202 0.32019 0.08987 0.0
C2164 C 0.69702 0.33375 0.09501 0.0
C2165 C 0.69504 0.345 0.08499 0.0
C2166 C 0.69791 0.34274 0.07011 0.0
C2167 C 0.69359 0.3362 0.11076 0.0
C2168 C 0.67897 0.33523 0.11504 0.0
C2169 C 0.70464 0.33931 0.12154 0.0
C2170 C 0.72026 0.34002 0.11769 0.0
C2171 C 0.72542 0.35056 0.10798 0.0
C2172 C 0.74014 0.35094 0.10414 0.0
C2173 C 0.74982 0.34088 0.11003 0.0
C2174 C 0.7448 0.33047 0.11983 0.0
C2175 C 0.73008 0.33004 0.12369 0.0
H2176 H 0.76121 0.34118 0.10704 0.0
H2177 H 0.6189 0.3279 0.14362 0.0
H2178 H 0.97293 0.33993 0.81408 0.0
H2179 H 0.97422 0.34239 0.8408 0.0
H2180 H 0.99488 0.30052 0.84327 0.0
H2181 H 0.99411 0.29816 0.81659 0.0
H2182 H 0.9684 0.30292 0.85855 0.0
H2183 H 0.01413 0.32942 0.85315 0.0
H2184 H 0.03019 0.34901 0.84388 0.0
H2185 H 0.00359 0.38155 0.86409 0.0
H2186 H 0.98724 0.36215 0.87331 0.0
H2187 H 0.98081 0.29525 0.93319 0.0
H2188 H 0.9857 0.29839 0.90734 0.0
H2189 H 0.96797 0.34173 0.90944 0.0
H2190 H 0.96333 0.3388 0.93558 0.0
H2191 H 0.99254 0.34027 0.89184 0.0
H2192 H 0.94672 0.31541 0.89667 0.0
H2193 H 0.92909 0.29691 0.90536 0.0
H2194 H 0.9537 0.26268 0.88531 0.0
H2195 H 0.97163 0.28097 0.8767 0.0
C2196 C 0.97814 0.33143 0.82027 0.0
C2197 C 0.98322 0.31873 0.81319 0.0
C2198 C 0.97884 0.33286 0.83554 0.0
C2199 C 0.9846 0.32161 0.84396 0.0
C2200 C 0.99034 0.30929 0.83692 0.0
C2201 C 0.98977 0.30791 0.82169 0.0
C2202 C 0.98299 0.32176 0.86002 0.0
C2203 C 0.97388 0.31094 0.86586 0.0
C2204 C 0.98959 0.33266 0.86939 0.0
C2205 C 0.99936 0.34433 0.86378 0.0
C2206 C 0.01161 0.34075 0.85548 0.0
C2207 C 0.02079 0.35182 0.85027 0.0
C2208 C 0.01789 0.36651 0.85335 0.0
C2209 C 0.00582 0.37016 0.86169 0.0
C2210 C 0.99659 0.35914 0.86692 0.0
C2211 C 0.97825 0.3056 0.92829 0.0
C2212 C 0.97162 0.31677 0.93644 0.0
C2213 C 0.98096 0.30733 0.91347 0.0
C2214 C 0.97702 0.32021 0.90646 0.0
C2215 C 0.97104 0.33168 0.91467 0.0
C2216 C 0.96829 0.32994 0.92954 0.0
C2217 C 0.97827 0.32116 0.89038 0.0
C2218 C 0.98714 0.33222 0.88452 0.0
C2219 C 0.97124 0.31063 0.88087 0.0
C2220 C 0.96061 0.29955 0.8862 0.0
C2221 C 0.94847 0.30393 0.89426 0.0
C2222 C 0.9384 0.29348 0.89914 0.0
C2223 C 0.9403 0.27862 0.89593 0.0
C2224 C 0.95226 0.27419 0.88782 0.0
C2225 C 0.96238 0.28459 0.88293 0.0
H2226 H 0.93248 0.27055 0.8997 0.0
H2227 H 0.02502 0.37507 0.84931 0.0
H2228 H 0.26062 0.77014 0.32759 0.0
H2229 H 0.26762 0.75906 0.35084 0.0
H2230 H 0.30969 0.74853 0.33343 0.0
H2231 H 0.30267 0.75929 0.31019 0.0
H2232 H 0.30087 0.72724 0.35014 0.0
H2233 H 0.304 0.7801 0.35474 0.0
H2234 H 0.29405 0.80494 0.3535 0.0
H2235 H 0.26224 0.7939 0.38556 0.0
H2236 H 0.27188 0.76892 0.38683 0.0
H2237 H 0.34908 0.72628 0.41092 0.0
H2238 H 0.33546 0.73194 0.3886 0.0
H2239 H 0.29665 0.73886 0.41361 0.0
H2240 H 0.31044 0.73352 0.43619 0.0
H2241 H 0.30023 0.76004 0.39417 0.0
H2242 H 0.299 0.70685 0.39024 0.0
H2243 H 0.31111 0.68302 0.39191 0.0
H2244 H 0.34139 0.69612 0.35914 0.0
H2245 H 0.32928 0.71977 0.35705 0.0
C2246 C 0.27129 0.7653 0.32869 0.0
C2247 C 0.28112 0.76566 0.31707 0.0
C2248 C 0.27529 0.75899 0.34198 0.0
C2249 C 0.2893 0.7532 0.34401 0.0
C2250 C 0.29883 0.75291 0.33217 0.0
C2251 C 0.29478 0.75906 0.31885 0.0
C2252 C 0.29452 0.74831 0.35863 0.0
C2253 C 0.30069 0.73443 0.35975 0.0
C2254 C 0.29415 0.75754 0.37131 0.0
C2255 C 0.28855 0.77262 0.37077 0.0
C2256 C 0.29484 0.78296 0.36147 0.0
C2257 C 0.28926 0.79706 0.36076 0.0
C2258 C 0.2775 0.80098 0.36941 0.0
C2259 C 0.27133 0.79084 0.37884 0.0
C2260 C 0.27685 0.77671 0.37957 0.0
C2261 C 0.33757 0.72875 0.41166 0.0
C2262 C 0.33079 0.72925 0.42531 0.0
C2263 C 0.32977 0.73198 0.39886 0.0
C2264 C 0.3149 0.7355 0.39933 0.0
C2265 C 0.30807 0.73607 0.41295 0.0
C2266 C 0.31595 0.733 0.42583 0.0
C2267 C 0.30675 0.73909 0.3856 0.0
C2268 C 0.30006 0.75272 0.38465 0.0
C2269 C 0.30673 0.7297 0.37305 0.0
C2270 C 0.31327 0.71504 0.37351 0.0
C2271 C 0.30818 0.70455 0.38332 0.0
C2272 C 0.31504 0.69107 0.38434 0.0
C2273 C 0.32707 0.68805 0.37569 0.0
C2274 C 0.33208 0.6984 0.36582 0.0
C2275 C 0.32513 0.71178 0.36461 0.0
H2276 H 0.33245 0.67766 0.37657 0.0
H2277 H 0.27318 0.8119 0.36884 0.0
H2278 H 0.97498 0.6317 0.69852 0.0
H2279 H 0.97166 0.64808 0.67796 0.0
H2280 H 0.00199 0.62288 0.65278 0.0
H2281 H 0.00559 0.60661 0.67341 0.0
H2282 H 0.0048 0.65299 0.64852 0.0
H2283 H 0.96704 0.61489 0.64901 0.0
H2284 H 0.94723 0.6008 0.66053 0.0
H2285 H 0.92272 0.64004 0.66594 0.0
H2286 H 0.94251 0.6544 0.65464 0.0
H2287 H 0.98742 0.65602 0.57558 0.0
H2288 H 0.98697 0.64597 0.5999 0.0
H2289 H 0.9607 0.6817 0.61483 0.0
H2290 H 0.96086 0.69192 0.59018 0.0
H2291 H 0.95457 0.65068 0.62642 0.0
H2292 H 0.99185 0.6881 0.62205 0.0
H2293 H 0.01174 0.7009 0.60937 0.0
H2294 H 0.03746 0.66216 0.61061 0.0
H2295 H 0.01756 0.64902 0.62301 0.0
C2296 C 0.98121 0.62986 0.68873 0.0
C2297 C 0.99043 0.61781 0.68746 0.0
C2298 C 0.97925 0.63918 0.677 0.0
C2299 C 0.98646 0.63654 0.66386 0.0
C2300 C 0.99633 0.62504 0.66286 0.0
C2301 C 0.99826 0.6157 0.67457 0.0
C2302 C 0.98269 0.64479 0.65068 0.0
C2303 C 0.99383 0.65255 0.64371 0.0
C2304 C 0.96829 0.64437 0.6446 0.0
C2305 C 0.9563 0.63573 0.65115 0.0
C2306 C 0.95746 0.62052 0.65275 0.0
C2307 C 0.94624 0.61249 0.65923 0.0
C2308 C 0.93374 0.61953 0.66401 0.0
C2309 C 0.93242 0.63461 0.66226 0.0
C2310 C 0.94363 0.6427 0.65582 0.0
C2311 C 0.98097 0.66148 0.58378 0.0
C2312 C 0.97421 0.67484 0.58094 0.0
C2313 C 0.98088 0.65577 0.59773 0.0
C2314 C 0.97404 0.66328 0.60909 0.0
C2315 C 0.96611 0.67586 0.60611 0.0
C2316 C 0.96624 0.68166 0.59208 0.0
C2317 C 0.97671 0.65868 0.62421 0.0
C2318 C 0.96543 0.65151 0.63148 0.0
C2319 C 0.99099 0.65959 0.63054 0.0
C2320 C 0.00315 0.66754 0.62336 0.0
C2321 C 0.00169 0.68227 0.61951 0.0
C2322 C 0.01298 0.68959 0.61238 0.0
C2323 C 0.02585 0.68234 0.60916 0.0
C2324 C 0.02748 0.66776 0.6131 0.0
C2325 C 0.0162 0.66037 0.62019 0.0
H2326 H 0.03458 0.68802 0.60363 0.0
H2327 H 0.92507 0.61329 0.66903 0.0
H2328 H 0.80529 0.31813 0.66503 0.0
H2329 H 0.83003 0.31393 0.67488 0.0
H2330 H 0.84814 0.34181 0.64203 0.0
H2331 H 0.82361 0.3457 0.63202 0.0
H2332 H 0.86405 0.31891 0.64383 0.0
H2333 H 0.84407 0.35212 0.68033 0.0
H2334 H 0.82645 0.35964 0.69897 0.0
H2335 H 0.83581 0.32132 0.72358 0.0
H2336 H 0.85335 0.31349 0.705 0.0
H2337 H 0.93463 0.3382 0.67246 0.0
H2338 H 0.90927 0.33706 0.66345 0.0
H2339 H 0.89809 0.30736 0.69769 0.0
H2340 H 0.92353 0.3084 0.70676 0.0
H2341 H 0.87828 0.32789 0.69601 0.0
H2342 H 0.89949 0.29555 0.66161 0.0
H2343 H 0.91743 0.2873 0.64364 0.0
H2344 H 0.90578 0.32241 0.61549 0.0
H2345 H 0.8879 0.33101 0.6334 0.0
C2346 C 0.81455 0.32344 0.65999 0.0
C2347 C 0.81243 0.3322 0.64768 0.0
C2348 C 0.82873 0.32105 0.66565 0.0
C2349 C 0.84109 0.32763 0.65931 0.0
C2350 C 0.8389 0.3365 0.64712 0.0
C2351 C 0.82481 0.33873 0.64138 0.0
C2352 C 0.85635 0.3253 0.6651 0.0
C2353 C 0.86714 0.32104 0.65522 0.0
C2354 C 0.86046 0.32744 0.68009 0.0
C2355 C 0.84988 0.33215 0.6912 0.0
C2356 C 0.84228 0.34525 0.68967 0.0
C2357 C 0.83232 0.34958 0.70023 0.0
C2358 C 0.82998 0.34094 0.71243 0.0
C2359 C 0.83761 0.32798 0.71411 0.0
C2360 C 0.84756 0.3236 0.70358 0.0
C2361 C 0.92688 0.33116 0.67791 0.0
C2362 C 0.93122 0.32338 0.69035 0.0
C2363 C 0.91231 0.33055 0.67276 0.0
C2364 C 0.90168 0.32204 0.67979 0.0
C2365 C 0.90601 0.31406 0.69207 0.0
C2366 C 0.9206 0.31468 0.69726 0.0
C2367 C 0.88599 0.32197 0.67464 0.0
C2368 C 0.87514 0.32569 0.68463 0.0
C2369 C 0.8818 0.3192 0.65979 0.0
C2370 C 0.89243 0.31399 0.64891 0.0
C2371 C 0.90082 0.30157 0.65163 0.0
C2372 C 0.91097 0.29682 0.64145 0.0
C2373 C 0.91277 0.30435 0.62845 0.0
C2374 C 0.90438 0.31661 0.62558 0.0
C2375 C 0.89422 0.32141 0.63573 0.0
H2376 H 0.92065 0.30066 0.62058 0.0
H2377 H 0.82227 0.34432 0.72059 0.0
H2378 H 0.68932 0.6965 0.24204 0.0
H2379 H 0.66594 0.68894 0.25226 0.0
H2380 H 0.64863 0.7315 0.24387 0.0
H2381 H 0.67207 0.7392 0.23348 0.0
H2382 H 0.64203 0.71245 0.27451 0.0
H2383 H 0.63752 0.7145 0.22022 0.0
H2384 H 0.64845 0.70937 0.19625 0.0
H2385 H 0.65141 0.66387 0.20657 0.0
H2386 H 0.6407 0.66881 0.2307 0.0
H2387 H 0.56805 0.69004 0.28101 0.0
H2388 H 0.58968 0.70282 0.27178 0.0
H2389 H 0.60702 0.66152 0.25743 0.0
H2390 H 0.58543 0.64871 0.26653 0.0
H2391 H 0.61319 0.68186 0.23802 0.0
H2392 H 0.62067 0.67665 0.28933 0.0
H2393 H 0.61232 0.67746 0.3148 0.0
H2394 H 0.60651 0.72386 0.31223 0.0
H2395 H 0.61488 0.72331 0.28667 0.0
C2396 C 0.68072 0.70442 0.24275 0.0
C2397 C 0.68254 0.71844 0.2369 0.0
C2398 C 0.66736 0.70007 0.24858 0.0
C2399 C 0.65562 0.70967 0.24881 0.0
C2400 C 0.65762 0.72398 0.24385 0.0
C2401 C 0.67096 0.72831 0.23784 0.0
C2402 C 0.64084 0.70399 0.25232 0.0
C2403 C 0.63552 0.7061 0.26645 0.0
C2404 C 0.63272 0.69513 0.24201 0.0
C2405 C 0.63837 0.69203 0.22723 0.0
C2406 C 0.64053 0.70341 0.21737 0.0
C2407 C 0.64669 0.70054 0.20377 0.0
C2408 C 0.65063 0.6863 0.19989 0.0
C2409 C 0.64834 0.67489 0.20958 0.0
C2410 C 0.64221 0.67772 0.2232 0.0
C2411 C 0.57641 0.6837 0.27577 0.0
C2412 C 0.57503 0.66835 0.27457 0.0
C2413 C 0.58877 0.69101 0.2705 0.0
C2414 C 0.60009 0.68312 0.26409 0.0
C2415 C 0.59843 0.66786 0.26228 0.0
C2416 C 0.58604 0.66055 0.26747 0.0
C2417 C 0.61406 0.69059 0.26016 0.0
C2418 C 0.61939 0.68861 0.24599 0.0
C2419 C 0.62239 0.69922 0.27057 0.0
C2420 C 0.61828 0.69992 0.28613 0.0
C2421 C 0.61765 0.68703 0.29423 0.0
C2422 C 0.61291 0.68743 0.30864 0.0
C2423 C 0.60879 0.70067 0.31506 0.0
C2424 C 0.60965 0.7136 0.30718 0.0
C2425 C 0.61447 0.71327 0.29276 0.0
H2426 H 0.60497 0.70082 0.32615 0.0
H2427 H 0.65544 0.6841 0.18938 0.0
H2428 H 0.29932 0.01532 0.37295 0.0
H2429 H 0.31969 0.0211 0.35695 0.0
H2430 H 0.34984 0.00216 0.38781 0.0
H2431 H 0.32957 0.99603 0.40365 0.0
H2432 H 0.35832 0.02984 0.38028 0.0
H2433 H 0.34214 0.98488 0.35638 0.0
H2434 H 0.32512 0.96726 0.34366 0.0
H2435 H 0.31808 0.99782 0.30932 0.0
H2436 H 0.3349 0.01573 0.32195 0.0
H2437 H 0.42261 0.01977 0.33979 0.0
H2438 H 0.40088 0.01933 0.35484 0.0
H2439 H 0.37586 0.03854 0.31985 0.0
H2440 H 0.39752 0.03867 0.3046 0.0
H2441 H 0.36357 0.01329 0.32865 0.0
H2442 H 0.3822 0.05737 0.35199 0.0
H2443 H 0.40068 0.07367 0.36442 0.0
H2444 H 0.40423 0.04368 0.39977 0.0
H2445 H 0.38593 0.02709 0.38746 0.0
C2446 C 0.31024 0.0121 0.37617 0.0
C2447 C 0.31285 0.00535 0.38965 0.0
C2448 C 0.32187 0.01547 0.36706 0.0
C2449 C 0.33625 0.01214 0.37128 0.0
C2450 C 0.33882 0.00495 0.38445 0.0
C2451 C 0.32723 0.00151 0.3935 0.0
C2452 C 0.34878 0.01681 0.3624 0.0
C2453 C 0.35954 0.02615 0.36901 0.0
C2454 C 0.3501 0.0123 0.3476 0.0
C2455 C 0.3396 0.00174 0.34024 0.0
C2456 C 0.3368 0.98793 0.34623 0.0
C2457 C 0.32723 0.97787 0.339 0.0
C2458 C 0.32047 0.98144 0.32572 0.0
C2459 C 0.32328 0.99509 0.31963 0.0
C2460 C 0.33283 0.0052 0.32683 0.0
C2461 C 0.41255 0.02421 0.33545 0.0
C2462 C 0.41169 0.02916 0.32102 0.0
C2463 C 0.40017 0.02404 0.34408 0.0
C2464 C 0.38677 0.02891 0.33844 0.0
C2465 C 0.38612 0.03475 0.32438 0.0
C2466 C 0.39852 0.03494 0.31574 0.0
C2467 C 0.3732 0.02622 0.34655 0.0
C2468 C 0.36223 0.01721 0.33982 0.0
C2469 C 0.37175 0.03095 0.36127 0.0
C2470 C 0.38274 0.04093 0.36874 0.0
C2471 C 0.387 0.05419 0.36236 0.0
C2472 C 0.39743 0.0635 0.3694 0.0
C2473 C 0.40364 0.05971 0.38287 0.0
C2474 C 0.39941 0.04661 0.38934 0.0
C2475 C 0.38899 0.03726 0.38235 0.0
H2476 H 0.41171 0.06693 0.3883 0.0
H2477 H 0.31311 0.97361 0.32012 0.0
H2478 H 0.18853 0.00805 0.65398 0.0
H2479 H 0.16253 0.00248 0.65722 0.0
H2480 H 0.16233 0.03255 0.69435 0.0
H2481 H 0.1884 0.03802 0.69126 0.0
H2482 H 0.14663 0.00874 0.69975 0.0
H2483 H 0.15004 0.04244 0.66076 0.0
H2484 H 0.15805 0.05213 0.63722 0.0
H2485 H 0.13792 0.01503 0.61438 0.0
H2486 H 0.13001 0.00497 0.63783 0.0
H2487 H 0.07259 0.03123 0.69774 0.0
H2488 H 0.09888 0.02764 0.69855 0.0
H2489 H 0.09389 0.99291 0.66593 0.0
H2490 H 0.06737 0.99613 0.66532 0.0
H2491 H 0.11216 0.01625 0.65799 0.0
H2492 H 0.10624 0.98483 0.69897 0.0
H2493 H 0.09713 0.97825 0.7232 0.0
H2494 H 0.12094 0.01492 0.74302 0.0
H2495 H 0.13001 0.02186 0.71887 0.0
C2496 C 0.18292 0.01344 0.66285 0.0
C2497 C 0.19039 0.02356 0.67231 0.0
C2498 C 0.1681 0.01024 0.66469 0.0
C2499 C 0.16049 0.01726 0.67589 0.0
C2500 C 0.16804 0.02701 0.68564 0.0
C2501 C 0.1829 0.03012 0.68388 0.0
C2502 C 0.14453 0.01483 0.67716 0.0
C2503 C 0.13907 0.01044 0.69065 0.0
C2504 C 0.13473 0.0169 0.66521 0.0
C2505 C 0.13962 0.02284 0.65108 0.0
C2506 C 0.14747 0.03625 0.65074 0.0
C2507 C 0.15196 0.04183 0.63741 0.0
C2508 C 0.14854 0.03417 0.62432 0.0
C2509 C 0.1406 0.02093 0.62453 0.0
C2510 C 0.13611 0.01528 0.63785 0.0
C2511 C 0.07694 0.02238 0.6912 0.0
C2512 C 0.06789 0.01403 0.68136 0.0
C2513 C 0.09201 0.0204 0.69162 0.0
C2514 C 0.09827 0.01006 0.68225 0.0
C2515 C 0.0892 0.00098 0.6732 0.0
C2516 C 0.07409 0.00286 0.67285 0.0
C2517 C 0.11428 0.01016 0.68056 0.0
C2518 C 0.11975 0.01423 0.66699 0.0
C2519 C 0.12402 0.00818 0.69253 0.0
C2520 C 0.11874 0.0039 0.70709 0.0
C2521 C 0.10946 0.99155 0.70848 0.0
C2522 C 0.10431 0.98774 0.7222 0.0
C2523 C 0.10844 0.99617 0.73464 0.0
C2524 C 0.11775 0.0084 0.73338 0.0
C2525 C 0.12292 0.01226 0.71968 0.0
H2526 H 0.10443 0.99321 0.74525 0.0
H2527 H 0.15201 0.03853 0.614 0.0
H2528 H 0.65671 0.82115 0.35663 0.0
H2529 H 0.66603 0.84554 0.35116 0.0
H2530 H 0.66065 0.83591 0.30493 0.0
H2531 H 0.65083 0.81141 0.31032 0.0
H2532 H 0.68683 0.85111 0.31147 0.0
H2533 H 0.63669 0.85724 0.31999 0.0
H2534 H 0.61304 0.85479 0.33224 0.0
H2535 H 0.63115 0.87763 0.37031 0.0
H2536 H 0.655 0.88002 0.35838 0.0
H2537 H 0.70252 0.92872 0.3022 0.0
H2538 H 0.69137 0.90395 0.30014 0.0
H2539 H 0.68728 0.90349 0.34711 0.0
H2540 H 0.69778 0.92826 0.34904 0.0
H2541 H 0.66315 0.89354 0.33516 0.0
H2542 H 0.71497 0.88413 0.32562 0.0
H2543 H 0.73731 0.88739 0.31125 0.0
H2544 H 0.71404 0.87166 0.27243 0.0
H2545 H 0.69154 0.86844 0.28656 0.0
C2546 C 0.65734 0.82416 0.34526 0.0
C2547 C 0.65274 0.81425 0.33394 0.0
C2548 C 0.66277 0.83816 0.34215 0.0
C2549 C 0.66385 0.84271 0.32763 0.0
C2550 C 0.65988 0.8327 0.31623 0.0
C2551 C 0.65432 0.81865 0.31934 0.0
C2552 C 0.66889 0.85802 0.32465 0.0
C2553 C 0.68153 0.86041 0.31648 0.0
C2554 C 0.66194 0.87024 0.33099 0.0
C2555 C 0.64768 0.86869 0.33833 0.0
C2556 C 0.63568 0.86162 0.33103 0.0
C2557 C 0.62222 0.86026 0.33791 0.0
C2558 C 0.6206 0.86602 0.35205 0.0
C2559 C 0.63243 0.87316 0.35935 0.0
C2560 C 0.64592 0.87453 0.35253 0.0
C2561 C 0.69931 0.92323 0.31205 0.0
C2562 C 0.70098 0.93042 0.32578 0.0
C2563 C 0.69297 0.90905 0.31089 0.0
C2564 C 0.68853 0.90167 0.32349 0.0
C2565 C 0.69047 0.90887 0.33718 0.0
C2566 C 0.69653 0.92304 0.3383 0.0
C2567 C 0.68161 0.88662 0.32274 0.0
C2568 C 0.66846 0.88427 0.33011 0.0
C2569 C 0.68797 0.87454 0.31545 0.0
C2570 C 0.70158 0.87616 0.30711 0.0
C2571 C 0.71463 0.88141 0.31401 0.0
C2572 C 0.72731 0.88325 0.30591 0.0
C2573 C 0.72709 0.87977 0.29093 0.0
C2574 C 0.7142 0.87437 0.28403 0.0
C2575 C 0.70149 0.87252 0.29208 0.0
H2576 H 0.73691 0.88123 0.28468 0.0
H2577 H 0.61017 0.86499 0.35735 0.0
H2578 H 0.65101 0.18861 0.01133 0.0
H2579 H 0.65455 0.16276 0.00527 0.0
H2580 H 0.69553 0.16418 0.02976 0.0
H2581 H 0.69207 0.19011 0.03582 0.0
H2582 H 0.69726 0.14697 0.0053 0.0
H2583 H 0.66536 0.15242 0.04556 0.0
H2584 H 0.64414 0.16147 0.05895 0.0
H2585 H 0.6149 0.14022 0.02726 0.0
H2586 H 0.63598 0.13127 0.01351 0.0
H2587 H 0.69602 0.07355 0.03301 0.0
H2588 H 0.69762 0.09966 0.02817 0.0
H2589 H 0.6626 0.0946 0.99591 0.0
H2590 H 0.66138 0.06827 1.00008 0.0
H2591 H 0.65777 0.1135 0.02191 0.0
H2592 H 0.69172 0.10569 0.98345 0.0
H2593 H 0.71402 0.09588 0.9726 0.0
H2594 H 0.74065 0.12059 0.00411 0.0
H2595 H 0.71849 0.13037 0.01532 0.0
C2596 C 0.6608 0.18342 0.01537 0.0
C2597 C 0.67115 0.19127 0.02425 0.0
C2598 C 0.66284 0.1687 0.01184 0.0
C2599 C 0.67519 0.16154 0.01726 0.0
C2600 C 0.68593 0.16954 0.02548 0.0
C2601 C 0.68393 0.18431 0.02895 0.0
C2602 C 0.67623 0.14548 0.01544 0.0
C2603 C 0.68867 0.13963 0.00897 0.0
C2604 C 0.66497 0.13595 0.02019 0.0
C2605 C 0.65225 0.14135 0.02839 0.0
C2606 C 0.65441 0.14981 0.04136 0.0
C2607 C 0.64241 0.1549 0.04902 0.0
C2608 C 0.62818 0.15146 0.04393 0.0
C2609 C 0.62593 0.1429 0.03117 0.0
C2610 C 0.6379 0.13782 0.02343 0.0
C2611 C 0.68909 0.07781 0.02442 0.0
C2612 C 0.6784 0.06883 0.0171 0.0
C2613 C 0.68998 0.09277 0.02173 0.0
C2614 C 0.68015 0.09898 0.01178 0.0
C2615 C 0.67023 0.08994 0.00366 0.0
C2616 C 0.66949 0.07493 0.00615 0.0
C2617 C 0.6787 0.115 0.01164 0.0
C2618 C 0.66622 0.12085 0.01794 0.0
C2619 C 0.69007 0.12444 0.00707 0.0
C2620 C 0.70343 0.11867 1.0003 0.0
C2621 C 0.70232 0.10893 0.98815 0.0
C2622 C 0.71494 0.1034 0.98192 0.0
C2623 C 0.72874 0.10759 0.98768 0.0
C2624 C 0.72995 0.11735 0.99967 0.0
C2625 C 0.71736 0.12291 0.00595 0.0
H2626 H 0.7385 0.10329 0.98284 0.0
H2627 H 0.6189 0.1554 0.04989 0.0
H2628 H 0.24918 0.69214 0.70526 0.0
H2629 H 0.26125 0.66989 0.69734 0.0
H2630 H 0.23719 0.64505 0.72876 0.0
H2631 H 0.22535 0.66743 0.73715 0.0
H2632 H 0.26653 0.63502 0.7243 0.0
H2633 H 0.22288 0.64661 0.69626 0.0
H2634 H 0.20754 0.66349 0.68227 0.0
H2635 H 0.24152 0.66868 0.65098 0.0
H2636 H 0.25716 0.652 0.66494 0.0
H2637 H 0.27206 0.56581 0.68564 0.0
H2638 H 0.26385 0.58731 0.69958 0.0
H2639 H 0.27796 0.6153 0.6649 0.0
H2640 H 0.28558 0.59391 0.65085 0.0
H2641 H 0.25285 0.62325 0.67241 0.0
H2642 H 0.29676 0.6121 0.69952 0.0
H2643 H 0.31339 0.59674 0.71381 0.0
H2644 H 0.28095 0.5918 0.7467 0.0
H2645 H 0.26397 0.60689 0.73243 0.0
C2646 C 0.24679 0.68208 0.71087 0.0
C2647 C 0.23612 0.68157 0.72173 0.0
C2648 C 0.25365 0.66933 0.70626 0.0
C2649 C 0.24992 0.65578 0.71229 0.0
C2650 C 0.24017 0.65538 0.72391 0.0
C2651 C 0.23331 0.66817 0.72858 0.0
C2652 C 0.25469 0.64197 0.70516 0.0
C2653 C 0.26345 0.63231 0.71301 0.0
C2654 C 0.25081 0.63857 0.69038 0.0
C2655 C 0.24121 0.64814 0.68168 0.0
C2656 C 0.22709 0.65139 0.68642 0.0
C2657 C 0.21835 0.66093 0.6785 0.0
C2658 C 0.22356 0.66717 0.66575 0.0
C2659 C 0.2375 0.66384 0.66086 0.0
C2660 C 0.2463 0.65433 0.66876 0.0
C2661 C 0.2734 0.57658 0.68107 0.0
C2662 C 0.27929 0.57818 0.6671 0.0
C2663 C 0.2688 0.58888 0.68906 0.0
C2664 C 0.27036 0.60302 0.68338 0.0
C2665 C 0.27651 0.60456 0.66953 0.0
C2666 C 0.28085 0.59231 0.66148 0.0
C2667 C 0.2651 0.61625 0.69138 0.0
C2668 C 0.25605 0.62583 0.68371 0.0
C2669 C 0.26888 0.61959 0.70626 0.0
C2670 C 0.27904 0.61048 0.71482 0.0
C2671 C 0.29312 0.60763 0.70973 0.0
C2672 C 0.30262 0.599 0.71785 0.0
C2673 C 0.29824 0.59329 0.73116 0.0
C2674 C 0.28433 0.59621 0.73638 0.0
C2675 C 0.27476 0.60479 0.72828 0.0
H2676 H 0.30563 0.58662 0.73743 0.0
H2677 H 0.21679 0.67458 0.65965 0.0
H2678 H 0.3663 0.29861 0.02484 0.0
H2679 H 0.35666 0.32264 0.03094 0.0
H2680 H 0.38308 0.34211 0.9977 0.0
H2681 H 0.39281 0.31803 0.9915 0.0
H2682 H 0.38332 0.35916 0.02251 0.0
H2683 H 0.34732 0.33508 0.99088 0.0
H2684 H 0.33016 0.31536 0.9822 0.0
H2685 H 0.30649 0.31909 0.02212 0.0
H2686 H 0.32365 0.33871 0.03112 0.0
H2687 H 0.34169 0.42316 0.0105 0.0
H2688 H 0.35639 0.40122 0.01075 0.0
H2689 H 0.32812 0.38243 0.0429 0.0
H2690 H 0.31288 0.40396 0.04207 0.0
H2691 H 0.32951 0.36511 0.01978 0.0
H2692 H 0.36512 0.39133 0.05033 0.0
H2693 H 0.38168 0.41215 0.0573 0.0
H2694 H 0.40567 0.40551 0.01793 0.0
H2695 H 0.38913 0.38477 0.01062 0.0
C2696 C 0.37 0.30799 0.01875 0.0
C2697 C 0.3802 0.3064 0.00757 0.0
C2698 C 0.36453 0.32171 0.0223 0.0
C2699 C 0.36904 0.33412 0.01466 0.0
C2700 C 0.37949 0.33267 0.00374 0.0
C2701 C 0.38501 0.31892 1.00021 0.0
C2702 C 0.36242 0.34847 0.01775 0.0
C2703 C 0.37156 0.36053 0.02183 0.0
C2704 C 0.34708 0.35017 0.01704 0.0
C2705 C 0.33688 0.33823 0.01174 0.0
C2706 C 0.33855 0.33159 0.99787 0.0
C2707 C 0.3288 0.32045 0.99287 0.0
C2708 C 0.31727 0.31594 0.00162 0.0
C2709 C 0.31545 0.32257 0.01537 0.0
C2710 C 0.32518 0.3337 0.02042 0.0
C2711 C 0.33874 0.41445 0.0178 0.0
C2712 C 0.32597 0.4152 0.02606 0.0
C2713 C 0.34727 0.40198 0.01807 0.0
C2714 C 0.34333 0.39016 0.02682 0.0
C2715 C 0.33132 0.39142 0.03603 0.0
C2716 C 0.32269 0.40381 0.03565 0.0
C2717 C 0.35035 0.37583 0.0248 0.0
C2718 C 0.34126 0.36375 0.02075 0.0
C2719 C 0.36571 0.37421 0.0254 0.0
C2720 C 0.37582 0.38654 0.02989 0.0
C2721 C 0.37388 0.39436 0.04312 0.0
C2722 C 0.38327 0.40614 0.04713 0.0
C2723 C 0.39471 0.41016 0.03805 0.0
C2724 C 0.3968 0.40238 0.02496 0.0
C2725 C 0.38744 0.39059 0.02088 0.0
H2726 H 0.40196 0.4193 0.04118 0.0
H2727 H 0.30972 0.30734 0.99772 0.0
H2728 H 0.31625 0.66681 0.80596 0.0
H2729 H 0.31264 0.67739 0.83053 0.0
H2730 H 0.34247 0.64631 0.84874 0.0
H2731 H 0.3458 0.63558 0.82441 0.0
H2732 H 0.31995 0.64797 0.86548 0.0
H2733 H 0.35111 0.68483 0.84246 0.0
H2734 H 0.35668 0.70301 0.82369 0.0
H2735 H 0.3179 0.7263 0.83439 0.0
H2736 H 0.31204 0.70816 0.85312 0.0
H2737 H 0.34606 0.67892 0.93262 0.0
H2738 H 0.34276 0.66996 0.90744 0.0
H2739 H 0.30895 0.70127 0.90012 0.0
H2740 H 0.31167 0.70996 0.92561 0.0
H2741 H 0.32886 0.70067 0.87763 0.0
H2742 H 0.29889 0.66714 0.9021 0.0
H2743 H 0.29171 0.64975 0.92103 0.0
H2744 H 0.32538 0.62068 0.90752 0.0
H2745 H 0.33296 0.63804 0.88868 0.0
C2746 C 0.3221 0.66232 0.8152 0.0
C2747 C 0.33127 0.65029 0.81318 0.0
C2748 C 0.32005 0.66839 0.82928 0.0
C2749 C 0.32736 0.66277 0.84162 0.0
C2750 C 0.3366 0.65085 0.83952 0.0
C2751 C 0.33851 0.6447 0.82554 0.0
C2752 C 0.32551 0.66906 0.85678 0.0
C2753 C 0.32206 0.65948 0.86811 0.0
C2754 C 0.32749 0.6842 0.86028 0.0
C2755 C 0.33107 0.69507 0.84906 0.0
C2756 C 0.34374 0.69378 0.84073 0.0
C2757 C 0.34695 0.70408 0.83012 0.0
C2758 C 0.33763 0.71578 0.82782 0.0
C2759 C 0.3251 0.71722 0.83616 0.0
C2760 C 0.32183 0.70694 0.84678 0.0
C2761 C 0.33768 0.68377 0.92585 0.0
C2762 C 0.3291 0.69519 0.93137 0.0
C2763 C 0.33588 0.67866 0.91134 0.0
C2764 C 0.32555 0.68486 0.90185 0.0
C2765 C 0.31703 0.69632 0.9072 0.0
C2766 C 0.31868 0.70134 0.92181 0.0
C2767 C 0.32398 0.67945 0.88631 0.0
C2768 C 0.32667 0.68918 0.87495 0.0
C2769 C 0.32107 0.66449 0.88274 0.0
C2770 C 0.31659 0.65397 0.89406 0.0
C2771 C 0.30487 0.65711 0.90325 0.0
C2772 C 0.30071 0.64724 0.91396 0.0
C2773 C 0.30811 0.63413 0.9155 0.0
C2774 C 0.31967 0.63085 0.90633 0.0
C2775 C 0.3239 0.6407 0.89563 0.0
H2776 H 0.30486 0.6265 0.92379 0.0
H2777 H 0.34014 0.72374 0.81959 0.0
H2778 H 0.03494 0.65679 0.18421 0.0
H2779 H 0.03119 0.66024 0.15805 0.0
H2780 H 0.99914 0.69302 0.1669 0.0
H2781 H 0.00259 0.6894 0.19334 0.0
H2782 H 0.9934 0.67054 0.14109 0.0
H2783 H 0.02927 0.7065 0.16193 0.0
H2784 H 0.05107 0.7124 0.17756 0.0
H2785 H 0.0766 0.68323 0.15156 0.0
H2786 H 0.05488 0.67696 0.13592 0.0
H2787 H 1.0006 0.69276 0.06669 0.0
H2788 H 0.99733 0.69397 0.09341 0.0
H2789 H 0.0388 0.67288 0.0998 0.0
H2790 H 0.04226 0.67235 0.07345 0.0
H2791 H 0.03715 0.69336 0.11883 0.0
H2792 H 0.00518 0.65424 0.10087 0.0
H2793 H 0.98513 0.64311 0.08554 0.0
H2794 H 0.95452 0.67194 0.1055 0.0
H2795 H 0.97445 0.68339 0.12081 0.0
C2796 C 0.02684 0.6645 0.18062 0.0
C2797 C 0.0191 0.6729 0.19079 0.0
C2798 C 0.02473 0.66645 0.16569 0.0
C2799 C 0.01494 0.67689 0.16068 0.0
C2800 C 0.0067 0.68488 0.17069 0.0
C2801 C 0.00882 0.68294 0.18571 0.0
C2802 C 0.01474 0.68049 0.14509 0.0
C2803 C 0.00277 0.67584 0.13618 0.0
C2804 C 0.02723 0.68692 0.1388 0.0
C2805 C 0.04044 0.69126 0.14777 0.0
C2806 C 0.03953 0.70133 0.15956 0.0
C2807 C 0.05187 0.70473 0.16843 0.0
C2808 C 0.06521 0.69819 0.16556 0.0
C2809 C 0.06626 0.68829 0.15376 0.0
C2810 C 0.05395 0.68484 0.14488 0.0
C2811 C 0.00899 0.68859 0.07394 0.0
C2812 C 0.0217 0.68258 0.06827 0.0
C2813 C 0.00712 0.68919 0.0891 0.0
C2814 C 0.0178 0.68345 0.09857 0.0
C2815 C 0.03049 0.67751 0.09274 0.0
C2816 C 0.03245 0.67716 0.07773 0.0
C2817 C 0.01588 0.68318 0.11457 0.0
C2818 C 0.02753 0.68844 0.12365 0.0
C2819 C 0.00334 0.67676 0.12089 0.0
C2820 C 0.99132 0.66979 0.11184 0.0
C2821 C 0.99419 0.65827 0.10191 0.0
C2822 C 0.98285 0.6519 0.09324 0.0
C2823 C 0.96857 0.65685 0.09451 0.0
C2824 C 0.96559 0.66814 0.1045 0.0
C2825 C 0.9769 0.67458 0.11319 0.0
H2826 H 0.9598 0.6519 0.08778 0.0
H2827 H 0.07474 0.70081 0.17246 0.0
H2828 H 0.73793 0.24034 0.67483 0.0
H2829 H 0.73121 0.25133 0.6513 0.0
H2830 H 0.68554 0.24684 0.66152 0.0
H2831 H 0.69212 0.23621 0.68503 0.0
H2832 H 0.69963 0.23306 0.63199 0.0
H2833 H 0.69194 0.27644 0.66346 0.0
H2834 H 0.70047 0.29558 0.68132 0.0
H2835 H 0.73378 0.30945 0.65193 0.0
H2836 H 0.72561 0.29016 0.634 0.0
H2837 H 0.65193 0.26664 0.58209 0.0
H2838 H 0.66528 0.25698 0.60298 0.0
H2839 H 0.70372 0.28214 0.59172 0.0
H2840 H 0.69058 0.29156 0.5704 0.0
H2841 H 0.6976 0.28582 0.6205 0.0
H2842 H 0.70409 0.24596 0.58773 0.0
H2843 H 0.69793 0.22637 0.56948 0.0
H2844 H 0.66979 0.20543 0.60008 0.0
H2845 H 0.67559 0.22502 0.61845 0.0
C2846 C 0.72648 0.24192 0.67211 0.0
C2847 C 0.71554 0.23753 0.68178 0.0
C2848 C 0.72268 0.24821 0.65873 0.0
C2849 C 0.7079 0.24995 0.65479 0.0
C2850 C 0.69701 0.2457 0.66447 0.0
C2851 C 0.70079 0.2397 0.67791 0.0
C2852 C 0.70357 0.2551 0.64013 0.0
C2853 C 0.69908 0.24459 0.62945 0.0
C2854 C 0.70347 0.27011 0.63674 0.0
C2855 C 0.70837 0.28165 0.64753 0.0
C2856 C 0.70124 0.28339 0.66091 0.0
C2857 C 0.70599 0.2943 0.67103 0.0
C2858 C 0.71777 0.30362 0.66783 0.0
C2859 C 0.72474 0.30214 0.65444 0.0
C2860 C 0.72006 0.29122 0.64431 0.0
C2861 C 0.66334 0.26986 0.58374 0.0
C2862 C 0.67013 0.27992 0.57446 0.0
C2863 C 0.67095 0.26436 0.5958 0.0
C2864 C 0.68552 0.26881 0.59891 0.0
C2865 C 0.69246 0.27861 0.58956 0.0
C2866 C 0.68489 0.28402 0.57739 0.0
C2867 C 0.6931 0.26376 0.61239 0.0
C2868 C 0.69826 0.27427 0.62288 0.0
C2869 C 0.69402 0.2487 0.61555 0.0
C2870 C 0.69017 0.23706 0.60443 0.0
C2871 C 0.69645 0.23728 0.59052 0.0
C2872 C 0.69305 0.22614 0.58016 0.0
C2873 C 0.68345 0.21468 0.58361 0.0
C2874 C 0.67722 0.21433 0.59742 0.0
C2875 C 0.68056 0.22544 0.60781 0.0
H2876 H 0.68086 0.20605 0.57559 0.0
H2877 H 0.72139 0.31208 0.67566 0.0
H2878 H 0.01429 0.37209 0.30028 0.0
H2879 H 0.01942 0.35588 0.32068 0.0
H2880 H 0.00198 0.38765 0.35082 0.0
H2881 H 0.99648 0.40371 0.33055 0.0
H2882 H 0.02968 0.37914 0.35877 0.0
H2883 H 0.98342 0.35699 0.3436 0.0
H2884 H 0.96507 0.34462 0.3271 0.0
H2885 H 0.99404 0.30884 0.32043 0.0
H2886 H 0.01266 0.3211 0.33674 0.0
H2887 H 0.01871 0.34125 0.42436 0.0
H2888 H 0.01839 0.35549 0.40206 0.0
H2889 H 0.0354 0.31874 0.37789 0.0
H2890 H 0.03542 0.30431 0.40013 0.0
H2891 H 0.01065 0.32851 0.36542 0.0
H2892 H 0.05599 0.34995 0.38289 0.0
H2893 H 0.07328 0.36198 0.40072 0.0
H2894 H 0.04538 0.39906 0.40387 0.0
H2895 H 0.02781 0.38717 0.38622 0.0
C2896 C 0.01125 0.37548 0.31121 0.0
C2897 C 0.00515 0.38928 0.31382 0.0
C2898 C 0.01424 0.36623 0.32284 0.0
C2899 C 0.01117 0.37065 0.33724 0.0
C2900 C 0.00456 0.38413 0.33979 0.0
C2901 C 0.00149 0.39332 0.3282 0.0
C2902 C 0.01565 0.36173 0.3498 0.0
C2903 C 0.02545 0.3681 0.3603 0.0
C2904 C 0.01048 0.34718 0.35149 0.0
C2905 C 0.99953 0.34008 0.34121 0.0
C2906 C 0.98597 0.34659 0.33844 0.0
C2907 C 0.97549 0.33957 0.32917 0.0
C2908 C 0.97841 0.32598 0.32267 0.0
C2909 C 0.99181 0.31939 0.32543 0.0
C2910 C 0.00233 0.32637 0.33468 0.0
C2911 C 0.02266 0.33632 0.41435 0.0
C2912 C 0.02702 0.32168 0.41395 0.0
C2913 C 0.02256 0.34449 0.40164 0.0
C2914 C 0.0269 0.33816 0.38833 0.0
C2915 C 0.03203 0.32381 0.38807 0.0
C2916 C 0.03216 0.31564 0.4008 0.0
C2917 C 0.02451 0.346 0.37453 0.0
C2918 C 0.0151 0.33946 0.36378 0.0
C2919 C 0.02999 0.36041 0.37264 0.0
C2920 C 0.04053 0.36761 0.38329 0.0
C2921 C 0.05348 0.36062 0.38747 0.0
C2922 C 0.06335 0.36742 0.39753 0.0
C2923 C 0.06042 0.38126 0.40344 0.0
C2924 C 0.04763 0.38834 0.39929 0.0
C2925 C 0.03772 0.38158 0.38923 0.0
H2926 H 0.06808 0.38652 0.41122 0.0
H2927 H 0.97026 0.32054 0.31555 0.0
H2928 H 0.25631 0.62465 0.46582 0.0
H2929 H 0.25748 0.61131 0.48888 0.0
H2930 H 0.30384 0.60587 0.48377 0.0
H2931 H 0.30273 0.61896 0.4608 0.0
H2932 H 0.2904 0.58043 0.49081 0.0
H2933 H 0.29128 0.63054 0.5082 0.0
H2934 H 0.28221 0.65565 0.51099 0.0
H2935 H 0.24282 0.63892 0.52993 0.0
H2936 H 0.25158 0.61368 0.52705 0.0
H2937 H 0.31722 0.56136 0.56051 0.0
H2938 H 0.31152 0.5742 0.53799 0.0
H2939 H 0.26581 0.57392 0.54867 0.0
H2940 H 0.27149 0.56111 0.57141 0.0
H2941 H 0.276 0.60131 0.53882 0.0
H2942 H 0.27606 0.55121 0.52282 0.0
H2943 H 0.28575 0.5263 0.5206 0.0
H2944 H 0.3237 0.54325 0.49923 0.0
H2945 H 0.31433 0.5683 0.50151 0.0
C2946 C 0.26674 0.62059 0.46962 0.0
C2947 C 0.27944 0.62296 0.46148 0.0
C2948 C 0.26741 0.61305 0.48285 0.0
C2949 C 0.28078 0.60764 0.48813 0.0
C2950 C 0.29341 0.60995 0.47997 0.0
C2951 C 0.29277 0.61755 0.46687 0.0
C2952 C 0.28171 0.59924 0.50193 0.0
C2953 C 0.28734 0.58507 0.5013 0.0
C2954 C 0.27734 0.60507 0.51562 0.0
C2955 C 0.27199 0.62021 0.51722 0.0
C2956 C 0.28061 0.6322 0.5128 0.0
C2957 C 0.27555 0.64646 0.51444 0.0
C2958 C 0.26192 0.64887 0.52058 0.0
C2959 C 0.25335 0.63703 0.52513 0.0
C2960 C 0.25837 0.62275 0.52351 0.0
C2961 C 0.30595 0.56402 0.5581 0.0
C2962 C 0.29481 0.56016 0.56777 0.0
C2963 C 0.30269 0.57132 0.54518 0.0
C2964 C 0.28822 0.57497 0.54157 0.0
C2965 C 0.27705 0.57121 0.5512 0.0
C2966 C 0.28029 0.56376 0.56412 0.0
C2967 C 0.28493 0.58264 0.52767 0.0
C2968 C 0.27887 0.59664 0.52828 0.0
C2969 C 0.28891 0.57669 0.51393 0.0
C2970 C 0.29454 0.56164 0.51244 0.0
C2971 C 0.28652 0.54964 0.51774 0.0
C2972 C 0.29195 0.53549 0.51646 0.0
C2973 C 0.30534 0.5332 0.50981 0.0
C2974 C 0.31332 0.54505 0.50439 0.0
C2975 C 0.30796 0.55922 0.50566 0.0
H2976 H 0.30953 0.52224 0.50882 0.0
H2977 H 0.25803 0.65992 0.52185 0.0
H2978 H 0.22143 0.32927 0.87608 0.0
H2979 H 0.22731 0.34861 0.89423 0.0
H2980 H 0.27017 0.3309 0.90126 0.0
H2981 H 0.2643 0.31126 0.88306 0.0
H2982 H 0.25551 0.34014 0.92775 0.0
H2983 H 0.26943 0.35876 0.88157 0.0
H2984 H 0.26607 0.36372 0.85531 0.0
H2985 H 0.22916 0.39032 0.86479 0.0
H2986 H 0.23218 0.38533 0.89111 0.0
H2987 H 0.28115 0.40443 0.96641 0.0
H2988 H 0.27931 0.38421 0.94828 0.0
H2989 H 0.23761 0.39998 0.93299 0.0
H2990 H 0.23963 0.42038 0.95104 0.0
H2991 H 0.2542 0.39123 0.91038 0.0
H2992 H 0.23963 0.37149 0.95649 0.0
H2993 H 0.24291 0.36632 0.98272 0.0
H2994 H 0.28123 0.34171 0.97344 0.0
H2995 H 0.27828 0.34691 0.94715 0.0
C2996 C 0.23202 0.32928 0.88166 0.0
C2997 C 0.24239 0.31869 0.87814 0.0
C2998 C 0.2354 0.34042 0.89195 0.0
C2999 C 0.24921 0.34124 0.89899 0.0
C3000 C 0.25946 0.33045 0.89592 0.0
C3001 C 0.25612 0.31931 0.88548 0.0
C3002 C 0.25295 0.35382 0.90903 0.0
C3003 C 0.2555 0.35131 0.92394 0.0
C3004 C 0.25271 0.36837 0.90406 0.0
C3005 C 0.25096 0.37158 0.88829 0.0
C3006 C 0.26053 0.36558 0.87804 0.0
C3007 C 0.2587 0.36841 0.86315 0.0
C3008 C 0.24739 0.37731 0.85838 0.0
C3009 C 0.23791 0.38343 0.8685 0.0
C3010 C 0.23969 0.38062 0.88341 0.0
C3011 C 0.27171 0.40361 0.95902 0.0
C3012 C 0.26054 0.41386 0.95997 0.0
C3013 C 0.27061 0.39206 0.94876 0.0
C3014 C 0.25822 0.39046 0.93941 0.0
C3015 C 0.24725 0.40099 0.9401 0.0
C3016 C 0.24838 0.4126 0.95036 0.0
C3017 C 0.25652 0.37762 0.9292 0.0
C3018 C 0.25435 0.38008 0.91421 0.0
C3019 C 0.25715 0.36303 0.93412 0.0
C3020 C 0.25881 0.3597 0.94988 0.0
C3021 C 0.2488 0.36505 0.96006 0.0
C3022 C 0.2506 0.36211 0.97493 0.0
C3023 C 0.26229 0.35372 0.97975 0.0
C3024 C 0.27219 0.34822 0.96969 0.0
C3025 C 0.27045 0.35115 0.9548 0.0
H3026 H 0.26367 0.35147 0.99127 0.0
H3027 H 0.24598 0.37948 0.84684 0.0
H3028 H 0.7668 0.01616 0.50094 0.0
H3029 H 0.75211 0.0221 0.47927 0.0
H3030 H 0.73853 0.97668 0.474 0.0
H3031 H 0.75359 0.97058 0.49537 0.0
H3032 H 0.74523 0.9889 0.44839 0.0
H3033 H 0.71679 0.00178 0.49087 0.0
H3034 H 0.71255 0.01498 0.51419 0.0
H3035 H 0.71796 0.05615 0.49294 0.0
H3036 H 0.72243 0.04319 0.46955 0.0
H3037 H 0.68739 0.9897 0.4021 0.0
H3038 H 0.69403 0.99148 0.42808 0.0
H3039 H 0.71641 0.03272 0.42137 0.0
H3040 H 0.71056 0.03071 0.39536 0.0
H3041 H 0.70494 0.02419 0.45328 0.0
H3042 H 0.7382 0.01282 0.41338 0.0
H3043 H 0.74576 0.00103 0.39029 0.0
H3044 H 0.73365 0.95884 0.40661 0.0
H3045 H 0.72581 0.97046 0.42974 0.0
C3046 C 0.761 0.00739 0.49492 0.0
C3047 C 0.76128 0.99291 0.49982 0.0
C3048 C 0.75244 0.01084 0.48272 0.0
C3049 C 0.74399 0.99988 0.47534 0.0
C3050 C 0.74487 0.9853 0.47971 0.0
C3051 C 0.75345 0.98184 0.49187 0.0
C3052 C 0.73415 0.0035 0.46304 0.0
C3053 C 0.73632 0.99647 0.44954 0.0
C3054 C 0.72285 0.01377 0.46446 0.0
C3055 C 0.72007 0.02152 0.47851 0.0
C3056 C 0.71718 0.01365 0.49121 0.0
C3057 C 0.71472 0.02109 0.50443 0.0
C3058 C 0.71501 0.03639 0.50506 0.0
C3059 C 0.71774 0.0443 0.49245 0.0
C3060 C 0.72023 0.03691 0.47921 0.0
C3061 C 0.69306 0.99953 0.40629 0.0
C3062 C 0.69919 0.00963 0.39665 0.0
C3063 C 0.69677 1.00056 0.42114 0.0
C3064 C 0.7061 0.01198 0.42636 0.0
C3065 C 0.70932 0.02376 0.41737 0.0
C3066 C 0.70589 0.02258 0.40245 0.0
C3067 C 0.7159 0.00931 0.43889 0.0
C3068 C 0.7138 0.01655 0.45228 0.0
C3069 C 0.7275 0.99944 0.43738 0.0
C3070 C 0.73116 0.99252 0.42314 0.0
C3071 C 0.7369 0.00106 0.41193 0.0
C3072 C 0.74136 0.99441 0.3989 0.0
C3073 C 0.74024 0.97919 0.39701 0.0
C3074 C 0.73452 0.97062 0.4081 0.0
C3075 C 0.73004 0.97724 0.42115 0.0
H3076 H 0.74375 0.97405 0.38694 0.0
H3077 H 0.7131 0.04213 0.5153 0.0
H3078 H 0.75374 0.02578 0.21443 0.0
H3079 H 0.75316 0.01798 0.18844 0.0
H3080 H 0.70622 0.0122 0.1897 0.0
H3081 H 0.70667 0.01986 0.2153 0.0
H3082 H 0.72038 0.98802 0.17739 0.0
H3083 H 0.71756 0.04053 0.17404 0.0
H3084 H 0.72617 0.06589 0.1795 0.0
H3085 H 0.76699 0.05703 0.15905 0.0
H3086 H 0.75864 0.03152 0.15363 0.0
H3087 H 0.68243 0.99781 0.11157 0.0
H3088 H 0.69417 0.99622 0.13572 0.0
H3089 H 0.73661 0.00157 0.11642 0.0
H3090 H 0.72467 0.00335 0.0921 0.0
H3091 H 0.73186 0.0219 0.13734 0.0
H3092 H 0.7275 0.9696 0.13432 0.0
H3093 H 0.71503 0.94574 0.12925 0.0
H3094 H 0.68343 0.95542 0.16193 0.0
H3095 H 0.69556 0.97941 0.16707 0.0
C3096 C 0.74331 0.02311 0.20902 0.0
C3097 C 0.73024 0.02369 0.2168 0.0
C3098 C 0.74301 0.01854 0.19429 0.0
C3099 C 0.72967 0.01433 0.18733 0.0
C3100 C 0.71663 0.01525 0.19498 0.0
C3101 C 0.71689 0.01994 0.20953 0.0
C3102 C 0.72894 0.00931 0.17191 0.0
C3103 C 0.723 0.99531 0.16855 0.0
C3104 C 0.73257 0.01881 0.16055 0.0
C3105 C 0.73757 0.03412 0.1636 0.0
C3106 C 0.72841 0.04398 0.17081 0.0
C3107 C 0.73323 0.05837 0.17388 0.0
C3108 C 0.74714 0.06306 0.16967 0.0
C3109 C 0.75623 0.05337 0.16233 0.0
C3110 C 0.75146 0.03895 0.15925 0.0
C3111 C 0.69428 0.99822 0.1125 0.0
C3112 C 0.70274 1.00069 0.10019 0.0
C3113 C 0.70099 0.99719 0.12624 0.0
C3114 C 0.71628 0.99858 0.12783 0.0
C3115 C 0.72481 1.00033 0.11536 0.0
C3116 C 0.71805 0.00135 0.10155 0.0
C3117 C 0.72286 1.00067 0.14266 0.0
C3118 C 0.72985 0.01423 0.14601 0.0
C3119 C 0.71974 0.99088 0.15403 0.0
C3120 C 0.71248 0.97634 0.15108 0.0
C3121 C 0.71786 0.96668 0.14039 0.0
C3122 C 0.71084 0.95312 0.1375 0.0
C3123 C 0.69845 0.94906 0.14526 0.0
C3124 C 0.69305 0.95856 0.15594 0.0
C3125 C 0.70002 0.97213 0.15887 0.0
H3126 H 0.69303 0.93857 0.143 0.0
H3127 H 0.75086 0.07421 0.17205 0.0
H3128 H 0.47246 0.27682 0.63908 0.0
H3129 H 0.49656 0.27719 0.62788 0.0
H3130 H 0.47609 0.28335 0.58552 0.0
H3131 H 0.45205 0.28228 0.59648 0.0
H3132 H 0.49711 0.26494 0.58267 0.0
H3133 H 0.49295 0.31201 0.60738 0.0
H3134 H 0.48978 0.3289 0.62845 0.0
H3135 H 0.52766 0.31152 0.64996 0.0
H3136 H 0.53092 0.29435 0.62911 0.0
H3137 H 0.55635 0.29575 0.54295 0.0
H3138 H 0.53348 0.29061 0.55552 0.0
H3139 H 0.55792 0.28178 0.59514 0.0
H3140 H 0.58079 0.28652 0.58262 0.0
H3141 H 0.53593 0.30013 0.60066 0.0
H3142 H 0.54101 0.25414 0.57593 0.0
H3143 H 0.54466 0.23715 0.55505 0.0
H3144 H 0.50552 0.25228 0.53394 0.0
H3145 H 0.50175 0.26953 0.55461 0.0
C3146 C 0.47306 0.27803 0.62735 0.0
C3147 C 0.46023 0.27966 0.61874 0.0
C3148 C 0.4869 0.27843 0.62097 0.0
C3149 C 0.48824 0.28058 0.60585 0.0
C3150 C 0.47543 0.28178 0.59721 0.0
C3151 C 0.46164 0.2813 0.60354 0.0
C3152 C 0.50288 0.2817 0.5989 0.0
C3153 C 0.50551 0.27277 0.58653 0.0
C3154 C 0.51413 0.29156 0.60415 0.0
C3155 C 0.51206 0.30176 0.61676 0.0
C3156 C 0.50052 0.31168 0.61666 0.0
C3157 C 0.49872 0.32133 0.62856 0.0
C3158 C 0.50848 0.32125 0.64056 0.0
C3159 C 0.52008 0.31154 0.64068 0.0
C3160 C 0.5219 0.30185 0.62883 0.0
C3161 C 0.55691 0.29243 0.55425 0.0
C3162 C 0.5705 0.2917 0.56175 0.0
C3163 C 0.54379 0.28955 0.56146 0.0
C3164 C 0.54393 0.28582 0.57632 0.0
C3165 C 0.55748 0.28475 0.58373 0.0
C3166 C 0.57057 0.28753 0.57652 0.0
C3167 C 0.52999 0.2836 0.58429 0.0
C3168 C 0.52752 0.29228 0.59685 0.0
C3169 C 0.51891 0.2735 0.57926 0.0
C3170 C 0.52119 0.26324 0.56675 0.0
C3171 C 0.53326 0.25395 0.56677 0.0
C3172 C 0.53533 0.24425 0.55498 0.0
C3173 C 0.52535 0.24367 0.54315 0.0
C3174 C 0.51326 0.25276 0.5431 0.0
C3175 C 0.51114 0.2625 0.55485 0.0
H3176 H 0.52697 0.23614 0.53405 0.0
H3177 H 0.50709 0.32875 0.64974 0.0
H3178 H 0.21514 0.75302 0.02533 0.0
H3179 H 0.18932 0.75229 0.01695 0.0
H3180 H 0.19063 0.70522 0.01249 0.0
H3181 H 0.21607 0.70581 0.02057 0.0
H3182 H 0.17866 0.71848 0.98781 0.0
H3183 H 0.17481 0.71867 0.04097 0.0
H3184 H 0.17988 0.72941 0.06564 0.0
H3185 H 0.15899 0.76903 0.05313 0.0
H3186 H 0.15393 0.75854 0.02831 0.0
H3187 H 0.11543 0.67783 0.9985 0.0
H3188 H 0.13877 0.69101 0.9972 0.0
H3189 H 0.11672 0.73219 0.00085 0.0
H3190 H 0.09321 0.71893 0.00266 0.0
H3191 H 0.13816 0.73019 0.02103 0.0
H3192 H 0.13503 0.72334 0.96931 0.0
H3193 H 0.13012 0.70976 0.94602 0.0
H3194 H 0.16433 0.68 0.95645 0.0
H3195 H 0.16933 0.69325 0.97989 0.0
C3196 C 0.20979 0.74254 0.02278 0.0
C3197 C 0.21757 0.72947 0.02386 0.0
C3198 C 0.19515 0.74215 0.0179 0.0
C3199 C 0.18824 0.72871 0.01392 0.0
C3200 C 0.19587 0.7157 0.01535 0.0
C3201 C 0.21034 0.71606 0.02029 0.0
C3202 C 0.17287 0.7278 0.00869 0.0
C3203 C 0.16972 0.72116 0.99494 0.0
C3204 C 0.16133 0.73167 0.01789 0.0
C3205 C 0.16414 0.73791 0.0328 0.0
C3206 C 0.17138 0.72971 0.04348 0.0
C3207 C 0.17424 0.73574 0.05747 0.0
C3208 C 0.1698 0.74991 0.06093 0.0
C3209 C 0.16244 0.75806 0.05042 0.0
C3210 C 0.15957 0.75208 0.03639 0.0
C3211 C 0.11553 0.6897 0.99887 0.0
C3212 C 0.10257 0.69737 0.00089 0.0
C3213 C 0.12885 0.69724 0.99789 0.0
C3214 C 0.12945 0.7126 0.99874 0.0
C3215 C 0.11644 0.72034 1.00006 0.0
C3216 C 0.10306 0.71276 0.00105 0.0
C3217 C 0.14386 0.72019 1.00036 0.0
C3218 C 0.14691 0.7281 0.01348 0.0
C3219 C 0.15532 0.71721 0.99065 0.0
C3220 C 0.15256 0.70934 0.97639 0.0
C3221 C 0.14148 0.71387 0.96667 0.0
C3222 C 0.13868 0.70623 0.95343 0.0
C3223 C 0.14691 0.69403 0.94975 0.0
C3224 C 0.15799 0.68948 0.95929 0.0
C3225 C 0.16084 0.69708 0.97254 0.0
H3226 H 0.14471 0.68811 0.93951 0.0
H3227 H 0.17203 0.75457 0.07178 0.0
H3228 H 0.87205 0.26575 0.32436 0.0
H3229 H 0.89078 0.27132 0.34336 0.0
H3230 H 0.91123 0.23025 0.3339 0.0
H3231 H 0.89311 0.22489 0.31435 0.0
H3232 H 0.90106 0.23577 0.36423 0.0
H3233 H 0.92985 0.25652 0.32631 0.0
H3234 H 0.93575 0.27289 0.3061 0.0
H3235 H 0.93025 0.31044 0.33439 0.0
H3236 H 0.92402 0.29429 0.35472 0.0
H3237 H 0.9629 0.23774 0.41218 0.0
H3238 H 0.94583 0.23546 0.39125 0.0
H3239 H 0.93566 0.28118 0.39614 0.0
H3240 H 0.95315 0.28367 0.4168 0.0
H3241 H 0.94012 0.27436 0.36811 0.0
H3242 H 0.91127 0.25425 0.40593 0.0
H3243 H 0.90537 0.23828 0.42649 0.0
H3244 H 0.91031 0.2002 0.39876 0.0
H3245 H 0.91645 0.21594 0.37809 0.0
C3246 C 0.88078 0.25808 0.32594 0.0
C3247 C 0.88087 0.24473 0.3179 0.0
C3248 C 0.89144 0.26128 0.33689 0.0
C3249 C 0.9023 0.25114 0.34007 0.0
C3250 C 0.90287 0.23817 0.33164 0.0
C3251 C 0.8924 0.23508 0.32056 0.0
C3252 C 0.91203 0.25326 0.35317 0.0
C3253 C 0.90973 0.24409 0.36503 0.0
C3254 C 0.92297 0.26445 0.35433 0.0
C3255 C 0.92622 0.27419 0.34199 0.0
C3256 C 0.92964 0.26827 0.32817 0.0
C3257 C 0.93311 0.27751 0.3167 0.0
C3258 C 0.93332 0.2927 0.31894 0.0
C3259 C 0.93004 0.29868 0.33265 0.0
C3260 C 0.92653 0.28948 0.34415 0.0
C3261 C 0.95701 0.24731 0.40884 0.0
C3262 C 0.95939 0.26088 0.4162 0.0
C3263 C 0.94716 0.24597 0.39692 0.0
C3264 C 0.93936 0.25813 0.39217 0.0
C3265 C 0.94154 0.27165 0.39962 0.0
C3266 C 0.95141 0.27301 0.41154 0.0
C3267 C 0.92924 0.25676 0.37919 0.0
C3268 C 0.93141 0.26608 0.36736 0.0
C3269 C 0.91806 0.24578 0.37808 0.0
C3270 C 0.91446 0.23627 0.3905 0.0
C3271 C 0.91123 0.24247 0.40425 0.0
C3272 C 0.90782 0.23346 0.41592 0.0
C3273 C 0.9075 0.21824 0.41394 0.0
C3274 C 0.91058 0.21199 0.40029 0.0
C3275 C 0.91401 0.22095 0.38859 0.0
H3276 H 0.90484 0.21128 0.42299 0.0
H3277 H 0.93606 0.29983 0.31006 0.0
H3278 H 0.486 0.78051 0.98945 0.0
H3279 H 0.46382 0.7675 0.99724 0.0
H3280 H 0.48567 0.72633 0.99279 0.0
H3281 H 0.50781 0.7391 0.98537 0.0
H3282 H 0.45605 0.72656 0.98129 0.0
H3283 H 0.48466 0.74293 0.02678 0.0
H3284 H 0.49552 0.76324 0.04204 0.0
H3285 H 0.45406 0.78448 0.04232 0.0
H3286 H 0.443 0.76429 0.02708 0.0
H3287 H 0.40632 0.68086 0.01171 0.0
H3288 H 0.43104 0.69151 0.01022 0.0
H3289 H 0.41602 0.73192 0.02951 0.0
H3290 H 0.39196 0.72112 0.03193 0.0
H3291 H 0.44228 0.73297 0.03324 0.0
H3292 H 0.41241 0.7236 0.99089 0.0
H3293 H 0.39724 0.70976 0.97241 0.0
H3294 H 0.4339 0.68322 0.96184 0.0
H3295 H 0.44931 0.69697 0.98024 0.0
C3296 C 0.486 0.76868 0.99001 0.0
C3297 C 0.49865 0.76085 0.98677 0.0
C3298 C 0.47337 0.7613 0.99445 0.0
C3299 C 0.47327 0.74602 0.99571 0.0
C3300 C 0.4856 0.73814 0.99183 0.0
C3301 C 0.4982 0.74547 0.98746 0.0
C3302 C 0.46068 0.73809 0.00171 0.0
C3303 C 0.45309 0.72778 0.99269 0.0
C3304 C 0.45641 0.74034 0.01632 0.0
C3305 C 0.46304 0.75215 0.02583 0.0
C3306 C 0.47789 0.75193 0.03013 0.0
C3307 C 0.48406 0.76342 0.03876 0.0
C3308 C 0.47549 0.77514 0.04314 0.0
C3309 C 0.46069 0.77538 0.03895 0.0
C3310 C 0.45445 0.76391 0.03036 0.0
C3311 C 0.40858 0.69169 0.01643 0.0
C3312 C 0.39714 0.7003 0.02152 0.0
C3313 C 0.42262 0.69787 0.01536 0.0
C3314 C 0.42512 0.71279 0.01895 0.0
C3315 C 0.41434 0.72048 0.02636 0.0
C3316 C 0.40049 0.7142 0.02783 0.0
C3317 C 0.43766 0.72104 0.01291 0.0
C3318 C 0.44523 0.73151 0.02188 0.0
C3319 C 0.44121 0.7197 0.9979 0.0
C3320 C 0.43195 0.71117 0.98706 0.0
C3321 C 0.4172 0.71475 0.98469 0.0
C3322 C 0.40858 0.70696 0.9742 0.0
C3323 C 0.41458 0.69556 0.96602 0.0
C3324 C 0.42925 0.69201 0.96823 0.0
C3325 C 0.43795 0.69982 0.97866 0.0
H3326 H 0.40787 0.68952 0.95793 0.0
H3327 H 0.4803 0.78404 0.04979 0.0
H3328 H 0.604 0.45408 0.2961 0.0
H3329 H 0.59206 0.47768 0.29646 0.0
H3330 H 0.62258 0.49398 0.26507 0.0
H3331 H 0.63485 0.47029 0.26486 0.0
H3332 H 0.61854 0.51398 0.28757 0.0
H3333 H 0.5881 0.48572 0.25413 0.0
H3334 H 0.57332 0.46425 0.24529 0.0
H3335 H 0.54403 0.47 0.28094 0.0
H3336 H 0.55876 0.49139 0.29012 0.0
H3337 H 0.57743 0.57857 0.2773 0.0
H3338 H 0.59009 0.55564 0.27309 0.0
H3339 H 0.56068 0.53367 0.30209 0.0
H3340 H 0.54794 0.55662 0.30637 0.0
H3341 H 0.56495 0.517 0.27854 0.0
H3342 H 0.59684 0.5442 0.31294 0.0
H3343 H 0.61205 0.56538 0.32184 0.0
H3344 H 0.63867 0.5618 0.28388 0.0
H3345 H 0.62362 0.54058 0.27476 0.0
C3346 C 0.60825 0.46268 0.28929 0.0
C3347 C 0.62044 0.46028 0.28049 0.0
C3348 C 0.60132 0.47616 0.28942 0.0
C3349 C 0.60632 0.48762 0.2807 0.0
C3350 C 0.6185 0.48531 0.27187 0.0
C3351 C 0.62543 0.47173 0.27167 0.0
C3352 C 0.59882 0.50196 0.28106 0.0
C3353 C 0.60687 0.51469 0.28534 0.0
C3354 C 0.58355 0.5029 0.2784 0.0
C3355 C 0.5746 0.49009 0.27288 0.0
C3356 C 0.57856 0.48234 0.26015 0.0
C3357 C 0.57019 0.4702 0.25506 0.0
C3358 C 0.55776 0.46575 0.26256 0.0
C3359 C 0.55366 0.47345 0.27514 0.0
C3360 C 0.56201 0.4856 0.28029 0.0
C3361 C 0.57367 0.56887 0.28284 0.0
C3362 C 0.5617 0.5695 0.29228 0.0
C3363 C 0.58096 0.55575 0.28044 0.0
C3364 C 0.57656 0.54293 0.28748 0.0
C3365 C 0.56435 0.54341 0.29656 0.0
C3366 C 0.557 0.55654 0.29894 0.0
C3367 C 0.58459 0.529 0.28534 0.0
C3368 C 0.57664 0.51633 0.28069 0.0
C3369 C 0.59996 0.52815 0.28763 0.0
C3370 C 0.60901 0.5409 0.2931 0.0
C3371 C 0.60588 0.54799 0.30645 0.0
C3372 C 0.6145 0.55997 0.31155 0.0
C3373 C 0.62629 0.56496 0.30341 0.0
C3374 C 0.62952 0.55793 0.29017 0.0
C3375 C 0.62099 0.5459 0.28505 0.0
H3376 H 0.63297 0.57422 0.30739 0.0
H3377 H 0.55128 0.45634 0.2586 0.0
H3378 H 0.00784 0.22166 0.74249 0.0
H3379 H 1.00038 0.19602 0.73926 0.0
H3380 H 0.02383 0.19366 0.69881 0.0
H3381 H 0.03084 0.21976 0.70176 0.0
H3382 H 0.99729 0.18028 0.69615 0.0
H3383 H 0.03793 0.18008 0.73184 0.0
H3384 H 0.05024 0.1882 0.75504 0.0
H3385 H 0.01363 0.17214 0.77912 0.0
H3386 H 0.00105 0.16407 0.75603 0.0
H3387 H 0.02038 0.11014 0.68509 0.0
H3388 H 0.01729 0.13585 0.69147 0.0
H3389 H 0.98719 0.1239 0.72513 0.0
H3390 H 0.9902 0.09776 0.71861 0.0
H3391 H 0.01055 0.14436 0.73393 0.0
H3392 H 0.97234 0.13983 0.69864 0.0
H3393 H 0.95972 0.13181 0.67561 0.0
H3394 H 0.99071 0.1566 0.65101 0.0
H3395 H 0.00367 0.16461 0.67387 0.0
C3396 C 0.01163 0.21559 0.73304 0.0
C3397 C 0.02021 0.22248 0.72253 0.0
C3398 C 0.00729 0.20098 0.73117 0.0
C3399 C 0.01175 0.1929 0.71894 0.0
C3400 C 0.02032 0.19975 0.70836 0.0
C3401 C 0.02444 0.21453 0.71009 0.0
C3402 C 0.00759 0.17724 0.71727 0.0
C3403 C 1.00025 0.1724 0.70435 0.0
C3404 C 0.01077 0.16712 0.72835 0.0
C3405 C 0.01853 0.17157 0.74223 0.0
C3406 C 0.03251 0.17832 0.74209 0.0
C3407 C 0.03952 0.18291 0.75521 0.0
C3408 C 0.03271 0.18071 0.76855 0.0
C3409 C 0.0189 0.17384 0.76879 0.0
C3410 C 0.01183 0.16924 0.75569 0.0
C3411 C 0.01319 0.11296 0.69393 0.0
C3412 C 0.00571 0.10205 0.70155 0.0
C3413 C 0.01128 0.12763 0.69743 0.0
C3414 C 0.00189 0.13169 0.70862 0.0
C3415 C 0.9944 0.12087 0.71637 0.0
C3416 C 0.99615 0.10605 0.7127 0.0
C3417 C 0.00092 0.14734 0.71251 0.0
C3418 C 0.00726 0.15226 0.72587 0.0
C3419 C 0.99676 0.15753 0.70186 0.0
C3420 C 0.98902 0.15279 0.68801 0.0
C3421 C 0.97654 0.14349 0.68832 0.0
C3422 C 0.96931 0.13896 0.67529 0.0
C3423 C 0.97441 0.14369 0.66185 0.0
C3424 C 0.98676 0.15297 0.66143 0.0
C3425 C 0.99404 0.15753 0.67443 0.0
H3426 H 0.9688 0.14017 0.65178 0.0
H3427 H 0.03815 0.1843 0.77869 0.0
H3428 H 0.33734 0.86749 0.22891 0.0
H3429 H 0.35604 0.88617 0.23562 0.0
H3430 H 0.32524 0.90845 0.26281 0.0
H3431 H 0.30641 0.88952 0.25627 0.0
H3432 H 0.34226 0.92654 0.24173 0.0
H3433 H 0.34861 0.89294 0.28069 0.0
H3434 H 0.35136 0.86854 0.29127 0.0
H3435 H 0.39094 0.86259 0.26762 0.0
H3436 H 0.3883 0.88689 0.25672 0.0
H3437 H 0.39608 0.97663 0.27014 0.0
H3438 H 0.37614 0.95838 0.26856 0.0
H3439 H 0.40547 0.92686 0.25016 0.0
H3440 H 0.42565 0.9451 0.25218 0.0
H3441 H 0.38787 0.91391 0.26873 0.0
H3442 H 0.38097 0.94623 0.22845 0.0
H3443 H 0.37834 0.97023 0.21696 0.0
H3444 H 0.33996 0.9782 0.24192 0.0
H3445 H 0.34247 0.95431 0.2537 0.0
C3446 C 0.33453 0.87639 0.23628 0.0
C3447 C 0.32042 0.87713 0.24202 0.0
C3448 C 0.34523 0.88699 0.24016 0.0
C3449 C 0.342 0.89863 0.24972 0.0
C3450 C 0.3279 0.89951 0.25541 0.0
C3451 C 0.31721 0.88872 0.25172 0.0
C3452 C 0.35349 0.90985 0.25351 0.0
C3453 C 0.35212 0.92391 0.24789 0.0
C3454 C 0.36647 0.90623 0.26119 0.0
C3455 C 0.36819 0.89168 0.2678 0.0
C3456 C 0.35783 0.88637 0.27765 0.0
C3457 C 0.35939 0.87257 0.28373 0.0
C3458 C 0.3713 0.864 0.2801 0.0
C3459 C 0.38171 0.86924 0.27041 0.0
C3460 C 0.3802 0.88303 0.2643 0.0
C3461 C 0.39826 0.96581 0.26573 0.0
C3462 C 0.41233 0.96232 0.26104 0.0
C3463 C 0.38686 0.95539 0.26483 0.0
C3464 C 0.3892 0.94134 0.25892 0.0
C3465 C 0.40338 0.93766 0.25468 0.0
C3466 C 0.41488 0.94806 0.25579 0.0
C3467 C 0.37676 0.93065 0.25683 0.0
C3468 C 0.37797 0.91665 0.26271 0.0
C3469 C 0.36365 0.9343 0.24928 0.0
C3470 C 0.36198 0.94855 0.24204 0.0
C3471 C 0.37201 0.95314 0.23154 0.0
C3472 C 0.37054 0.96672 0.22497 0.0
C3473 C 0.35901 0.97575 0.22873 0.0
C3474 C 0.3489 0.9712 0.23903 0.0
C3475 C 0.35033 0.95763 0.24564 0.0
H3476 H 0.3579 0.98627 0.22364 0.0
H3477 H 0.37249 0.85331 0.28481 0.0
H3478 H 0.01482 0.49783 0.76937 0.0
H3479 H 0.02142 0.47565 0.75585 0.0
H3480 H 0.97747 0.47172 0.73763 0.0
H3481 H 0.97066 0.49359 0.75152 0.0
H3482 H 0.98818 0.44544 0.74419 0.0
H3483 H 0.00496 0.489 0.71929 0.0
H3484 H 0.01904 0.51221 0.71736 0.0
H3485 H 0.05902 0.48984 0.72615 0.0
H3486 H 0.04514 0.46652 0.72832 0.0
H3487 H 0.99245 0.40501 0.68142 0.0
H3488 H 0.99409 0.42966 0.69222 0.0
H3489 H 0.03321 0.41848 0.71626 0.0
H3490 H 0.0312 0.39366 0.70645 0.0
H3491 H 0.02722 0.4518 0.70773 0.0
H3492 H 0.01067 0.40879 0.7343 0.0
H3493 H 0.99698 0.38532 0.73595 0.0
H3494 H 0.95699 0.40665 0.72474 0.0
H3495 H 0.97056 0.43018 0.7226 0.0
C3496 C 0.00645 0.49198 0.76285 0.0
C3497 C 0.99225 0.49746 0.76139 0.0
C3498 C 0.01029 0.47943 0.75499 0.0
C3499 C 1.00001 0.47231 0.74551 0.0
C3500 C 0.98558 0.47718 0.74482 0.0
C3501 C 0.98172 0.48967 0.7527 0.0
C3502 C 0.00438 0.46026 0.73565 0.0
C3503 C 0.99667 0.44687 0.7362 0.0
C3504 C 0.01569 0.46206 0.72543 0.0
C3505 C 0.024 0.47607 0.72412 0.0
C3506 C 0.01674 0.48906 0.72092 0.0
C3507 C 0.02469 0.50223 0.71977 0.0
C3508 C 0.03991 0.50251 0.72167 0.0
C3509 C 0.04723 0.48961 0.7247 0.0
C3510 C 0.03933 0.47642 0.72589 0.0
C3511 C 0.00173 0.40792 0.68857 0.0
C3512 C 0.01118 0.39713 0.6937 0.0
C3513 C 0.00271 0.42206 0.69461 0.0
C3514 C 0.01351 0.42558 0.70532 0.0
C3515 C 0.02473 0.4158 0.70808 0.0
C3516 C 0.02355 0.40155 0.70236 0.0
C3517 C 0.0108 0.43725 0.71616 0.0
C3518 C 0.01882 0.45043 0.71582 0.0
C3519 C 0.99986 0.43527 0.72669 0.0
C3520 C 0.99166 0.42117 0.72802 0.0
C3521 C 0.999 0.40843 0.73197 0.0
C3522 C 0.99126 0.39513 0.73305 0.0
C3523 C 0.97613 0.39449 0.73041 0.0
C3524 C 0.96872 0.40715 0.72672 0.0
C3525 C 0.97643 0.42047 0.72555 0.0
H3526 H 0.97016 0.38418 0.73125 0.0
H3527 H 0.04604 0.51271 0.72076 0.0
H3528 H 0.73224 0.36913 0.53115 0.0
H3529 H 0.73252 0.38021 0.50695 0.0
H3530 H 0.70804 0.41655 0.5236 0.0
H3531 H 0.70774 0.4056 0.54768 0.0
H3532 H 0.69648 0.40688 0.49813 0.0
H3533 H 0.74547 0.4191 0.51675 0.0
H3534 H 0.77005 0.41363 0.52664 0.0
H3535 H 0.77826 0.38708 0.48844 0.0
H3536 H 0.75366 0.39225 0.47842 0.0
H3537 H 0.70632 0.46004 0.44322 0.0
H3538 H 0.70553 0.44593 0.46567 0.0
H3539 H 0.73065 0.41206 0.44517 0.0
H3540 H 0.73137 0.42602 0.42272 0.0
H3541 H 0.7418 0.41846 0.47147 0.0
H3542 H 0.69423 0.40664 0.45199 0.0
H3543 H 0.6696 0.41088 0.44156 0.0
H3544 H 0.65848 0.43501 0.48046 0.0
H3545 H 0.68312 0.43109 0.49105 0.0
C3546 C 0.72709 0.37957 0.5297 0.0
C3547 C 0.7199 0.38642 0.54137 0.0
C3548 C 0.72723 0.38589 0.51583 0.0
C3549 C 0.72032 0.39927 0.51341 0.0
C3550 C 0.71335 0.40619 0.52512 0.0
C3551 C 0.71317 0.39989 0.53891 0.0
C3552 C 0.72003 0.40603 0.49869 0.0
C3553 C 0.70642 0.40957 0.49239 0.0
C3554 C 0.73291 0.40906 0.49087 0.0
C3555 C 0.74767 0.40593 0.49692 0.0
C3556 C 0.75248 0.41199 0.51052 0.0
C3557 C 0.76642 0.40897 0.51614 0.0
C3558 C 0.7757 0.39998 0.50819 0.0
C3559 C 0.77106 0.39402 0.4946 0.0
C3560 C 0.75712 0.397 0.48894 0.0
C3561 C 0.71148 0.44949 0.44341 0.0
C3562 C 0.71901 0.44426 0.43116 0.0
C3563 C 0.71104 0.44142 0.45627 0.0
C3564 C 0.71801 0.42788 0.45715 0.0
C3565 C 0.72527 0.42251 0.44484 0.0
C3566 C 0.72572 0.43055 0.432 0.0
C3567 C 0.71827 0.41962 0.47106 0.0
C3568 C 0.73185 0.41574 0.47718 0.0
C3569 C 0.70535 0.41614 0.47864 0.0
C3570 C 0.69058 0.4187 0.47224 0.0
C3571 C 0.68659 0.41298 0.45826 0.0
C3572 C 0.67261 0.41529 0.45233 0.0
C3573 C 0.6625 0.42324 0.46032 0.0
C3574 C 0.66633 0.42887 0.47427 0.0
C3575 C 0.6803 0.4266 0.48024 0.0
H3576 H 0.65167 0.42501 0.45572 0.0
H3577 H 0.78649 0.39766 0.51255 0.0
H3578 H 0.78257 0.6782 0.11881 0.0
H3579 H 0.77803 0.65867 0.10046 0.0
H3580 H 0.73166 0.66601 0.10202 0.0
H3581 H 0.73608 0.68596 0.11997 0.0
H3582 H 0.73995 0.63713 0.10806 0.0
H3583 H 0.74826 0.67403 0.07229 0.0
H3584 H 0.76202 0.69379 0.06035 0.0
H3585 H 0.79711 0.6645 0.05195 0.0
H3586 H 0.78364 0.64461 0.06404 0.0
H3587 H 0.70836 0.59231 0.05313 0.0
H3588 H 0.71732 0.61275 0.06853 0.0
H3589 H 0.76184 0.6022 0.05854 0.0
H3590 H 0.75279 0.58179 0.04244 0.0
H3591 H 0.75726 0.63174 0.05719 0.0
H3592 H 0.74864 0.5945 0.09183 0.0
H3593 H 0.73493 0.57463 0.10366 0.0
H3594 H 0.70098 0.60444 0.11458 0.0
H3595 H 0.71438 0.62445 0.10264 0.0
C3596 C 0.77143 0.67602 0.11495 0.0
C3597 C 0.75967 0.68359 0.12102 0.0
C3598 C 0.76887 0.66478 0.10449 0.0
C3599 C 0.75452 0.66087 0.09997 0.0
C3600 C 0.74282 0.66883 0.10546 0.0
C3601 C 0.74536 0.68016 0.11579 0.0
C3602 C 0.75154 0.64755 0.09074 0.0
C3603 C 0.7436 0.63601 0.09687 0.0
C3604 C 0.75685 0.6459 0.07639 0.0
C3605 C 0.76502 0.65788 0.06924 0.0
C3606 C 0.75898 0.67184 0.06805 0.0
C3607 C 0.76671 0.68306 0.06121 0.0
C3608 C 0.78046 0.68041 0.05544 0.0
C3609 C 0.78648 0.66654 0.05646 0.0
C3610 C 0.7788 0.65529 0.06329 0.0
C3611 C 0.72008 0.59433 0.05411 0.0
C3612 C 0.72987 0.5855 0.04645 0.0
C3613 C 0.72519 0.60597 0.06305 0.0
C3614 C 0.74026 0.60893 0.06482 0.0
C3615 C 0.75016 0.60007 0.05734 0.0
C3616 C 0.745 0.58836 0.04827 0.0
C3617 C 0.74537 0.62144 0.07441 0.0
C3618 C 0.75375 0.6328 0.06841 0.0
C3619 C 0.74056 0.62294 0.08897 0.0
C3620 C 0.73249 0.61095 0.09626 0.0
C3621 C 0.73821 0.5968 0.09667 0.0
C3622 C 0.73049 0.58552 0.10341 0.0
C3623 C 0.71708 0.58827 0.10985 0.0
C3624 C 0.71137 0.60232 0.10959 0.0
C3625 C 0.71903 0.61365 0.10286 0.0
H3626 H 0.71112 0.57952 0.11506 0.0
H3627 H 0.78642 0.68911 0.05014 0.0
H3628 H 0.25772 0.97597 0.51425 0.0
H3629 H 0.26726 0.97522 0.53943 0.0
H3630 H 0.25499 0.02005 0.54678 0.0
H3631 H 0.24534 0.02088 0.52147 0.0
H3632 H 0.28339 0.01351 0.55846 0.0
H3633 H 0.2342 0.99686 0.5605 0.0
H3634 H 0.21199 0.98268 0.55273 0.0
H3635 H 0.23369 0.94258 0.56186 0.0
H3636 H 0.25616 0.95653 0.56947 0.0
H3637 H 0.28255 0.00877 0.63721 0.0
H3638 H 0.27263 0.01027 0.6123 0.0
H3639 H 0.29681 0.97231 0.59946 0.0
H3640 H 0.30728 0.971 0.62444 0.0
H3641 H 0.26169 0.97649 0.59111 0.0
H3642 H 0.31209 0.99598 0.58824 0.0
H3643 H 0.33223 0.01223 0.5977 0.0
H3644 H 0.30533 0.04968 0.59174 0.0
H3645 H 0.28491 0.03357 0.58253 0.0
C3646 C 0.25718 0.98572 0.52117 0.0
C3647 C 0.25077 0.99848 0.51592 0.0
C3648 C 0.26258 0.98525 0.53556 0.0
C3649 C 0.26177 0.99756 0.54496 0.0
C3650 C 0.25572 0.01045 0.53967 0.0
C3651 C 0.25013 0.01087 0.52529 0.0
C3652 C 0.26676 0.99659 0.56045 0.0
C3653 C 0.27857 0.00549 0.56562 0.0
C3654 C 0.2604 0.98622 0.56982 0.0
C3655 C 0.24691 0.97773 0.56541 0.0
C3656 C 0.23429 0.98501 0.56073 0.0
C3657 C 0.22164 0.97702 0.55638 0.0
C3658 C 0.22144 0.96173 0.55677 0.0
C3659 C 0.23388 0.95442 0.56155 0.0
C3660 C 0.24657 0.96236 0.5659 0.0
C3661 C 0.28573 1.00067 0.62917 0.0
C3662 C 0.2958 0.98982 0.6328 0.0
C3663 C 0.28003 0.00156 0.61493 0.0
C3664 C 0.28403 0.99143 0.60411 0.0
C3665 C 0.29363 0.98023 0.60773 0.0
C3666 C 0.29963 0.97953 0.62194 0.0
C3667 C 0.27859 0.99302 0.58888 0.0
C3668 C 0.26657 0.98437 0.58386 0.0
C3669 C 0.28454 0.00385 0.57977 0.0
C3670 C 0.29693 0.01356 0.58487 0.0
C3671 C 0.31043 0.00766 0.58908 0.0
C3672 C 0.3219 0.01685 0.59438 0.0
C3673 C 0.32004 0.03198 0.59537 0.0
C3674 C 0.30674 0.03795 0.59099 0.0
C3675 C 0.29522 0.0288 0.58573 0.0
H3676 H 0.32893 0.03907 0.59948 0.0
H3677 H 0.21164 0.95556 0.55339 0.0
H3678 H 0.26725 0.99518 0.762 0.0
H3679 H 0.26892 0.99035 0.78815 0.0
H3680 H 0.30251 0.02391 0.79388 0.0
H3681 H 0.30011 0.02989 0.76821 0.0
H3682 H 0.30524 0.98992 0.80667 0.0
H3683 H 0.2791 0.03665 0.80553 0.0
H3684 H 0.2589 0.05197 0.79696 0.0
H3685 H 0.22755 0.02064 0.81263 0.0
H3686 H 0.24761 0.00498 0.821 0.0
H3687 H 0.3177 0.00143 0.88249 0.0
H3688 H 0.31449 0.00395 0.85613 0.0
H3689 H 0.26888 0.99133 0.85906 0.0
H3690 H 0.27179 0.98968 0.88559 0.0
H3691 H 0.27095 0.01277 0.84129 0.0
H3692 H 0.29495 0.96754 0.84527 0.0
H3693 H 0.31371 0.95071 0.85419 0.0
H3694 H 0.34713 0.97608 0.83342 0.0
H3695 H 0.32857 0.9932 0.82454 0.0
C3696 C 0.27483 0.00181 0.76873 0.0
C3697 C 0.28352 0.01302 0.76262 0.0
C3698 C 0.27588 0.99885 0.78373 0.0
C3699 C 0.28587 0.00674 0.79292 0.0
C3700 C 0.29478 0.01763 0.78693 0.0
C3701 C 0.29346 0.02091 0.77208 0.0
C3702 C 0.28681 0.00398 0.80887 0.0
C3703 C 0.29784 0.99498 0.81428 0.0
C3704 C 0.27684 0.01017 0.81871 0.0
C3705 C 0.26483 0.01953 0.81361 0.0
C3706 C 0.2679 0.03292 0.80692 0.0
C3707 C 0.25648 0.04169 0.80215 0.0
C3708 C 0.24195 0.03725 0.80418 0.0
C3709 C 0.23881 0.02404 0.81101 0.0
C3710 C 0.2502 0.01521 0.81575 0.0
C3711 C 0.30693 0.99932 0.87759 0.0
C3712 C 0.29502 0.99532 0.88627 0.0
C3713 C 0.30515 1.00058 0.86243 0.0
C3714 C 0.29149 0.99759 0.85548 0.0
C3715 C 0.27956 0.99363 0.8641 0.0
C3716 C 0.2813 0.99252 0.8793 0.0
C3717 C 0.28962 0.9989 0.83929 0.0
C3718 C 0.27836 0.00758 0.83376 0.0
C3719 C 0.29921 0.99215 0.82933 0.0
C3720 C 0.31038 0.9817 0.83432 0.0
C3721 C 0.30631 0.96957 0.84265 0.0
C3722 C 0.3169 0.95998 0.8477 0.0
C3723 C 0.33161 0.96234 0.84439 0.0
C3724 C 0.33573 0.97427 0.83597 0.0
C3725 C 0.32518 0.98391 0.83091 0.0
H3726 H 0.3398 0.95492 0.84833 0.0
H3727 H 0.23312 0.04407 0.80051 0.0
H3728 H 0.54971 0.7295 0.40562 0.0
H3729 H 0.52613 0.7287 0.41766 0.0
H3730 H 0.5045 0.71687 0.37648 0.0
H3731 H 0.52798 0.71825 0.36423 0.0
H3732 H 0.48853 0.73582 0.39131 0.0
H3733 H 0.51187 0.69097 0.40198 0.0
H3734 H 0.53192 0.67543 0.4105 0.0
H3735 H 0.53002 0.69503 0.45356 0.0
H3736 H 0.51008 0.71084 0.44523 0.0
H3737 H 0.4217 0.71274 0.42248 0.0
H3738 H 0.44472 0.71271 0.40935 0.0
H3739 H 0.46848 0.72337 0.4497 0.0
H3740 H 0.44548 0.72298 0.46293 0.0
H3741 H 0.48311 0.70429 0.43447 0.0
H3742 H 0.45952 0.74969 0.42278 0.0
H3743 H 0.43919 0.7645 0.41353 0.0
H3744 H 0.44118 0.74277 0.37147 0.0
H3745 H 0.4614 0.72771 0.38053 0.0
C3746 C 0.53993 0.72699 0.39905 0.0
C3747 C 0.54081 0.72386 0.38394 0.0
C3748 C 0.52645 0.72636 0.40599 0.0
C3749 C 0.51354 0.72244 0.39804 0.0
C3750 C 0.5143 0.71981 0.38288 0.0
C3751 C 0.52777 0.72049 0.37591 0.0
C3752 C 0.49933 0.72082 0.4056 0.0
C3753 C 0.4873 0.72879 0.40064 0.0
C3754 C 0.4977 0.71176 0.41786 0.0
C3755 C 0.50958 0.70218 0.42295 0.0
C3756 C 0.5158 0.69203 0.41324 0.0
C3757 C 0.52713 0.68317 0.41804 0.0
C3758 C 0.53226 0.68426 0.43255 0.0
C3759 C 0.52604 0.6942 0.44232 0.0
C3760 C 0.51472 0.70311 0.43757 0.0
C3761 C 0.43185 0.71502 0.42855 0.0
C3762 C 0.43177 0.71795 0.44373 0.0
C3763 C 0.44501 0.71507 0.42102 0.0
C3764 C 0.45837 0.71837 0.42844 0.0
C3765 C 0.45835 0.72085 0.44369 0.0
C3766 C 0.44519 0.7206 0.45126 0.0
C3767 C 0.47234 0.71947 0.42034 0.0
C3768 C 0.48433 0.71135 0.42516 0.0
C3769 C 0.47389 0.7283 0.40787 0.0
C3770 C 0.46188 0.7375 0.40237 0.0
C3771 C 0.45557 0.74803 0.41159 0.0
C3772 C 0.44407 0.75647 0.40638 0.0
C3773 C 0.43888 0.75455 0.39194 0.0
C3774 C 0.4452 0.74423 0.38266 0.0
C3775 C 0.45669 0.73575 0.38782 0.0
H3776 H 0.42997 0.76109 0.38793 0.0
H3777 H 0.54104 0.67739 0.43625 0.0
H3778 H 0.75833 0.27976 0.98919 0.0
H3779 H 0.78455 0.28122 0.98464 0.0
H3780 H 0.79319 0.29374 0.02978 0.0
H3781 H 0.76722 0.29128 0.03483 0.0
H3782 H 0.80733 0.31205 0.00727 0.0
H3783 H 0.80019 0.26179 0.02191 0.0
H3784 H 0.78968 0.2367 0.02042 0.0
H3785 H 0.80519 0.23142 0.97666 0.0
H3786 H 0.81557 0.25661 0.97779 0.0
H3787 H 0.88323 0.30536 0.01889 0.0
H3788 H 0.85661 0.30349 0.02012 0.0
H3789 H 0.85451 0.28156 0.97779 0.0
H3790 H 0.88121 0.28351 0.97641 0.0
H3791 H 0.83662 0.2682 0.9964 0.0
H3792 H 0.8447 0.31678 0.98106 0.0
H3793 H 0.85611 0.34151 0.98145 0.0
H3794 H 0.83908 0.35009 0.02413 0.0
H3795 H 0.82775 0.32531 0.0241 0.0
C3796 C 0.76572 0.28259 0.99829 0.0
C3797 C 0.76039 0.28534 0.01245 0.0
C3798 C 0.78076 0.28353 0.99559 0.0
C3799 C 0.7908 0.28756 0.00688 0.0
C3800 C 0.7856 0.29066 0.0209 0.0
C3801 C 0.77063 0.28939 0.0237 0.0
C3802 C 0.80677 0.28861 0.00416 0.0
C3803 C 0.81376 0.30246 0.00501 0.0
C3804 C 0.81506 0.27615 0.00069 0.0
C3805 C 0.80843 0.26119 0.99985 0.0
C3806 C 0.80115 0.25538 0.01188 0.0
C3807 C 0.79527 0.24111 0.01112 0.0
C3808 C 0.79671 0.23249 0.99843 0.0
C3809 C 0.80403 0.23813 0.98646 0.0
C3810 C 0.80991 0.2524 0.98715 0.0
C3811 C 0.87712 0.3003 0.00974 0.0
C3812 C 0.88439 0.29468 0.9975 0.0
C3813 C 0.86188 0.2992 0.01048 0.0
C3814 C 0.85351 0.29255 0.99897 0.0
C3815 C 0.86072 0.28674 0.98681 0.0
C3816 C 0.876 0.28784 0.98606 0.0
C3817 C 0.83726 0.29161 0.99976 0.0
C3818 C 0.83019 0.27782 0.99851 0.0
C3819 C 0.82884 0.30415 0.0026 0.0
C3820 C 0.83547 0.31914 0.00263 0.0
C3821 C 0.84347 0.32391 0.99058 0.0
C3822 C 0.84991 0.33793 0.99073 0.0
C3823 C 0.84835 0.34735 0.00282 0.0
C3824 C 0.84029 0.34277 0.01477 0.0
C3825 C 0.83384 0.32874 0.01469 0.0
H3826 H 0.85335 0.35821 0.00292 0.0
H3827 H 0.79219 0.22143 0.99788 0.0
H3828 H 0.1125 0.74377 0.69256 0.0
H3829 H 0.09277 0.7387 0.67435 0.0
H3830 H 0.11084 0.77204 0.64681 0.0
H3831 H 0.13019 0.77739 0.6651 0.0
H3832 H 0.08259 0.77369 0.64601 0.0
H3833 H 0.1166 0.73404 0.64159 0.0
H3834 H 0.13083 0.7131 0.65007 0.0
H3835 H 0.09111 0.69043 0.66132 0.0
H3836 H 0.07666 0.71133 0.65308 0.0
H3837 H 0.05643 0.74872 0.57479 0.0
H3838 H 0.06963 0.75754 0.59712 0.0
H3839 H 0.04639 0.7254 0.6222 0.0
H3840 H 0.03335 0.71656 0.59999 0.0
H3841 H 0.07507 0.72315 0.6259 0.0
H3842 H 0.04096 0.76196 0.62748 0.0
H3843 H 0.02698 0.78274 0.61825 0.0
H3844 H 0.06704 0.80689 0.6115 0.0
H3845 H 0.08127 0.78616 0.62048 0.0
C3846 C 0.11218 0.75002 0.68263 0.0
C3847 C 0.12285 0.76098 0.68023 0.0
C3848 C 0.10095 0.74711 0.67222 0.0
C3849 C 0.10041 0.75487 0.65909 0.0
C3850 C 0.11095 0.76595 0.65685 0.0
C3851 C 0.12202 0.769 0.66731 0.0
C3852 C 0.08922 0.75126 0.64743 0.0
C3853 C 0.08103 0.76265 0.64153 0.0
C3854 C 0.08687 0.7368 0.64181 0.0
C3855 C 0.09558 0.72432 0.6469 0.0
C3856 C 0.11092 0.72465 0.646 0.0
C3857 C 0.11902 0.71277 0.65074 0.0
C3858 C 0.11189 0.70046 0.65628 0.0
C3859 C 0.09663 0.69999 0.65706 0.0
C3860 C 0.08848 0.71184 0.65236 0.0
C3861 C 0.05393 0.74382 0.58515 0.0
C3862 C 0.04408 0.73183 0.58568 0.0
C3863 C 0.06143 0.74886 0.59789 0.0
C3864 C 0.05902 0.74208 0.61133 0.0
C3865 C 0.04849 0.73072 0.61196 0.0
C3866 C 0.04109 0.72566 0.59927 0.0
C3867 C 0.06859 0.7456 0.62433 0.0
C3868 C 0.0765 0.73417 0.63047 0.0
C3869 C 0.07072 0.76001 0.63006 0.0
C3870 C 0.06219 0.77244 0.62452 0.0
C3871 C 0.0468 0.77164 0.62388 0.0
C3872 C 0.03882 0.78343 0.61873 0.0
C3873 C 0.04612 0.79611 0.61426 0.0
C3874 C 0.0614 0.79705 0.61495 0.0
C3875 C 0.06943 0.78529 0.62008 0.0
H3876 H 0.03992 0.80523 0.61028 0.0
H3877 H 0.11818 0.69127 0.65992 0.0
H3878 H 0.51627 0.24463 0.98089 0.0
H3879 H 0.54284 0.24822 0.97951 0.0
H3880 H 0.54274 0.27606 0.01828 0.0
H3881 H 0.51628 0.27236 0.01986 0.0
H3882 H 0.55602 0.28943 0.99636 0.0
H3883 H 0.55825 0.24334 0.01949 0.0
H3884 H 0.55294 0.21713 0.02323 0.0
H3885 H 0.57227 0.20633 0.98209 0.0
H3886 H 0.57751 0.23252 0.97801 0.0
H3887 H 0.63721 0.28099 0.0107 0.0
H3888 H 0.6122 0.27111 0.01172 0.0
H3889 H 0.60243 0.28883 0.96935 0.0
H3890 H 0.62733 0.2994 0.9686 0.0
H3891 H 0.59446 0.25205 0.99317 0.0
H3892 H 0.57912 0.30364 0.97016 0.0
H3893 H 0.58576 0.33003 0.97042 0.0
H3894 H 0.59279 0.32947 0.01706 0.0
H3895 H 0.58651 0.303 0.01695 0.0
C3896 C 0.52195 0.25123 0.98932 0.0
C3897 C 0.51414 0.25837 1.00037 0.0
C3898 C 0.53714 0.25329 0.9885 0.0
C3899 C 0.54475 0.26248 0.99874 0.0
C3900 C 0.53706 0.26903 0.01018 0.0
C3901 C 0.52193 0.26696 0.01103 0.0
C3902 C 0.56044 0.26633 0.99687 0.0
C3903 C 0.56435 0.28119 0.9956 0.0
C3904 C 0.57141 0.25566 0.99604 0.0
C3905 C 0.56811 0.23992 0.99836 0.0
C3906 C 0.56122 0.2354 0.01116 0.0
C3907 C 0.55826 0.22054 0.01336 0.0
C3908 C 0.56222 0.21007 0.00288 0.0
C3909 C 0.56918 0.21445 0.99019 0.0
C3910 C 0.57216 0.2293 0.98793 0.0
C3911 C 0.62979 0.2827 0.00155 0.0
C3912 C 0.63416 0.29114 0.98966 0.0
C3913 C 0.61551 0.27699 0.00212 0.0
C3914 C 0.60539 0.27947 0.99074 0.0
C3915 C 0.60997 0.28714 0.97844 0.0
C3916 C 0.62418 0.29311 0.97798 0.0
C3917 C 0.58982 0.27502 0.9923 0.0
C3918 C 0.58598 0.26015 0.99365 0.0
C3919 C 0.57887 0.28562 0.99347 0.0
C3920 C 0.58249 0.30144 0.99353 0.0
C3921 C 0.58212 0.30919 0.98044 0.0
C3922 C 0.58586 0.32412 0.98056 0.0
C3923 C 0.58972 0.33142 0.99375 0.0
C3924 C 0.58987 0.3238 0.00685 0.0
C3925 C 0.5863 0.30883 0.00675 0.0
H3926 H 0.59257 0.34299 0.99383 0.0
H3927 H 0.55994 0.19857 0.00462 0.0
H3928 H 0.36356 0.52762 0.71156 0.0
H3929 H 0.3764 0.50448 0.7108 0.0
H3930 H 0.4137 0.52523 0.73321 0.0
H3931 H 0.40124 0.54859 0.73334 0.0
H3932 H 0.42273 0.50964 0.71133 0.0
H3933 H 0.38934 0.50069 0.74978 0.0
H3934 H 0.36556 0.49859 0.76183 0.0
H3935 H 0.3513 0.46525 0.73048 0.0
H3936 H 0.37486 0.4674 0.71798 0.0
H3937 H 0.46029 0.44593 0.73272 0.0
H3938 H 0.44631 0.46845 0.73213 0.0
H3939 H 0.41371 0.44694 0.70378 0.0
H3940 H 0.4277 0.42428 0.70434 0.0
H3941 H 0.40178 0.4623 0.72756 0.0
H3942 H 0.4358 0.4713 0.68954 0.0
H3943 H 0.46009 0.4731 0.67845 0.0
H3944 H 0.47362 0.50613 0.71044 0.0
H3945 H 0.44946 0.50437 0.72187 0.0
C3946 C 0.37452 0.52731 0.7163 0.0
C3947 C 0.38135 0.54008 0.72245 0.0
C3948 C 0.3818 0.51398 0.71601 0.0
C3949 C 0.39602 0.51301 0.72204 0.0
C3950 C 0.40274 0.52565 0.72848 0.0
C3951 C 0.39551 0.53901 0.72869 0.0
C3952 C 0.40416 0.49904 0.72108 0.0
C3953 C 0.41819 0.49935 0.71509 0.0
C3954 C 0.39814 0.48545 0.72555 0.0
C3955 C 0.38382 0.48435 0.73283 0.0
C3956 C 0.38107 0.49305 0.74532 0.0
C3957 C 0.36762 0.49184 0.75224 0.0
C3958 C 0.35689 0.48185 0.74686 0.0
C3959 C 0.35958 0.47305 0.73456 0.0
C3960 C 0.37298 0.47427 0.72755 0.0
C3961 C 0.45017 0.44601 0.72631 0.0
C3962 C 0.4451 0.43332 0.71858 0.0
C3963 C 0.44223 0.45891 0.72593 0.0
C3964 C 0.42898 0.45941 0.71787 0.0
C3965 C 0.42391 0.4468 0.71005 0.0
C3966 C 0.43196 0.43391 0.71029 0.0
C3967 C 0.42033 0.47302 0.71799 0.0
C3968 C 0.40624 0.47262 0.72378 0.0
C3969 C 0.42631 0.48655 0.71345 0.0
C3970 C 0.44087 0.4876 0.70664 0.0
C3971 C 0.444 0.47885 0.6943 0.0
C3972 C 0.45773 0.47988 0.68793 0.0
C3973 C 0.4684 0.4897 0.69376 0.0
C3974 C 0.46535 0.49852 0.70595 0.0
C3975 C 0.45163 0.49752 0.71237 0.0
H3976 H 0.47903 0.49049 0.68881 0.0
H3977 H 0.3465 0.48089 0.75227 0.0
H3978 H 0.99246 0.76161 0.2923 0.0
H3979 H 0.98757 0.78794 0.2937 0.0
H3980 H 0.02477 0.79664 0.26679 0.0
H3981 H 0.02948 0.77027 0.26507 0.0
H3982 H 0.02345 0.81225 0.29624 0.0
H3983 H 0.99485 0.80162 0.25158 0.0
H3984 H 0.97537 0.78906 0.2366 0.0
H3985 H 0.94305 0.80409 0.26647 0.0
H3986 H 0.96238 0.81655 0.28176 0.0
H3987 H 0.02001 0.88818 0.28609 0.0
H3988 H 0.02179 0.86167 0.28299 0.0
H3989 H 0.9773 0.85609 0.2971 0.0
H3990 H 0.97542 0.88269 0.30006 0.0
H3991 H 0.98128 0.83841 0.275 0.0
H3992 H 0.00677 0.84842 0.31968 0.0
H3993 H 0.02437 0.86062 0.33708 0.0
H3994 H 0.06013 0.84596 0.31128 0.0
H3995 H 0.04272 0.83385 0.29358 0.0
C3996 C 0.9994 0.76914 0.28645 0.0
C3997 C 0.01133 0.76393 0.27854 0.0
C3998 C 0.9966 0.78415 0.28725 0.0
C3999 C 0.00583 0.79422 0.28037 0.0
C4000 C 0.01751 0.78902 0.27215 0.0
C4001 C 0.02014 0.77398 0.2711 0.0
C4002 C 0.00394 0.81021 0.28263 0.0
C4003 C 0.01436 0.81804 0.29141 0.0
C4004 C 0.99166 0.81757 0.27698 0.0
C4005 C 0.98009 0.80985 0.26792 0.0
C4006 C 0.98362 0.80208 0.25506 0.0
C4007 C 0.97259 0.79502 0.24649 0.0
C4008 C 0.95799 0.79573 0.25061 0.0
C4009 C 0.95437 0.80352 0.26331 0.0
C4010 C 0.96536 0.81058 0.27193 0.0
C4011 C 0.01064 0.88131 0.28866 0.0
C4012 C 0.9976 0.88756 0.29341 0.0
C4013 C 0.01167 0.86613 0.28688 0.0
C4014 C 0.99975 0.85681 0.29001 0.0
C4015 C 0.98665 0.86302 0.2946 0.0
C4016 C 0.98559 0.87824 0.29628 0.0
C4017 C 0.00099 0.84061 0.28835 0.0
C4018 C 0.99041 0.83269 0.27982 0.0
C4019 C 0.01288 0.83305 0.29463 0.0
C4020 C 0.02343 0.84034 0.30521 0.0
C4021 C 0.01838 0.8479 0.31764 0.0
C4022 C 0.02833 0.85478 0.32757 0.0
C4023 C 0.04336 0.8541 0.32527 0.0
C4024 C 0.04848 0.8465 0.31304 0.0
C4025 C 0.03858 0.83961 0.30305 0.0
H4026 H 0.05104 0.85942 0.33298 0.0
H4027 H 0.94947 0.79028 0.24394 0.0
H4028 H 0.69533 0.10557 0.75445 0.0
H4029 H 0.67645 0.08602 0.75091 0.0
H4030 H 0.64273 0.11805 0.75493 0.0
H4031 H 0.66144 0.13754 0.7581 0.0
H4032 H 0.63983 0.09143 0.77288 0.0
H4033 H 0.64836 0.10773 0.72336 0.0
H4034 H 0.66345 0.11244 0.70187 0.0
H4035 H 0.67514 0.06718 0.69982 0.0
H4036 H 0.6603 0.06226 0.72147 0.0
H4037 H 0.57255 0.0619 0.74399 0.0
H4038 H 0.59473 0.07531 0.75267 0.0
H4039 H 0.62133 0.04172 0.73358 0.0
H4040 H 0.59915 0.02868 0.72445 0.0
H4041 H 0.63042 0.06636 0.72476 0.0
H4042 H 0.62008 0.04866 0.7718 0.0
H4043 H 0.60572 0.04298 0.79355 0.0
H4044 H 0.59857 0.08879 0.80117 0.0
H4045 H 0.61271 0.09475 0.77934 0.0
C4046 C 0.68387 0.10837 0.75451 0.0
C4047 C 0.67978 0.12301 0.75642 0.0
C4048 C 0.67315 0.09725 0.75251 0.0
C4049 C 0.65824 0.10065 0.7527 0.0
C4050 C 0.65418 0.11524 0.75479 0.0
C4051 C 0.66486 0.12634 0.75648 0.0
C4052 C 0.64672 0.08913 0.75061 0.0
C4053 C 0.63768 0.08593 0.76237 0.0
C4054 C 0.64434 0.08166 0.73704 0.0
C4055 C 0.65343 0.08468 0.72418 0.0
C4056 C 0.65432 0.09883 0.71846 0.0
C4057 C 0.66278 0.10152 0.70621 0.0
C4058 C 0.6703 0.09013 0.69952 0.0
C4059 C 0.66935 0.07601 0.70504 0.0
C4060 C 0.66092 0.07326 0.71731 0.0
C4061 C 0.58315 0.05724 0.74204 0.0
C4062 C 0.58423 0.04433 0.73358 0.0
C4063 C 0.59583 0.06486 0.74702 0.0
C4064 C 0.60977 0.05952 0.74383 0.0
C4065 C 0.61075 0.04611 0.73613 0.0
C4066 C 0.5981 0.03863 0.73098 0.0
C4067 C 0.62318 0.06869 0.747 0.0
C4068 C 0.63262 0.07153 0.73541 0.0
C4069 C 0.62604 0.07565 0.76081 0.0
C4070 C 0.61736 0.07213 0.77385 0.0
C4071 C 0.61533 0.05752 0.77803 0.0
C4072 C 0.60725 0.05425 0.7904 0.0
C4073 C 0.60121 0.06551 0.79872 0.0
C4074 C 0.60325 0.08008 0.79471 0.0
C4075 C 0.61131 0.0834 0.78235 0.0
H4076 H 0.59498 0.06296 0.8083 0.0
H4077 H 0.67682 0.09223 0.69002 0.0
H4078 H 0.01991 0.5226 0.24345 0.0
H4079 H 0.01889 0.54783 0.25318 0.0
H4080 H 0.97646 0.53828 0.27085 0.0
H4081 H 0.97738 0.51315 0.26115 0.0
H4082 H 0.97753 0.56394 0.25481 0.0
H4083 H 0.00515 0.54082 0.29326 0.0
H4084 H 0.02553 0.52692 0.30376 0.0
H4085 H 0.05636 0.55926 0.28905 0.0
H4086 H 0.03616 0.57324 0.27827 0.0
H4087 H 0.97008 0.62399 0.30638 0.0
H4088 H 0.97211 0.5994 0.2952 0.0
H4089 H 0.01206 0.61296 0.27469 0.0
H4090 H 0.0099 0.6375 0.28542 0.0
H4091 H 0.01317 0.58586 0.29128 0.0
H4092 H 0.98714 0.60894 0.25299 0.0
H4093 H 0.96781 0.62324 0.24117 0.0
H4094 H 0.93532 0.59158 0.25387 0.0
H4095 H 0.95446 0.57721 0.266 0.0
C4096 C 0.01038 0.52592 0.24942 0.0
C4097 C 0.99873 0.51593 0.25157 0.0
C4098 C 0.00986 0.54027 0.25504 0.0
C4099 C 0.99762 0.54487 0.26278 0.0
C4100 C 0.986 0.53492 0.26493 0.0
C4101 C 0.98658 0.52056 0.25946 0.0
C4102 C 0.99666 0.56017 0.2683 0.0
C4103 C 0.9852 0.56867 0.26294 0.0
C4104 C 0.007 0.56647 0.27848 0.0
C4105 C 0.01916 0.55797 0.28479 0.0
C4106 C 0.01629 0.54488 0.29212 0.0
C4107 C 0.0278 0.53701 0.29816 0.0
C4108 C 0.04224 0.54218 0.29703 0.0
C4109 C 0.04518 0.55525 0.28989 0.0
C4110 C 0.0337 0.56315 0.28381 0.0
C4111 C 0.97923 0.62172 0.29942 0.0
C4112 C 0.98984 0.63267 0.29679 0.0
C4113 C 0.98036 0.60773 0.29302 0.0
C4114 C 0.99225 0.60443 0.28416 0.0
C4115 C 0.00282 0.61532 0.28151 0.0
C4116 C 0.00152 0.62936 0.28761 0.0
C4117 C 0.99389 0.58948 0.27799 0.0
C4118 C 0.00549 0.58109 0.28318 0.0
C4119 C 0.98381 0.58332 0.2675 0.0
C4120 C 0.9722 0.59213 0.26062 0.0
C4121 C 0.97584 0.60515 0.25348 0.0
C4122 C 0.96493 0.61323 0.24666 0.0
C4123 C 0.95034 0.60836 0.24682 0.0
C4124 C 0.94663 0.59537 0.25379 0.0
C4125 C 0.9575 0.58725 0.26065 0.0
H4126 H 0.94191 0.61461 0.2415 0.0
H4127 H 0.05114 0.53608 0.30173 0.0
H4128 H 0.34558 0.63337 0.33464 0.0
H4129 H 0.37104 0.63057 0.32761 0.0
H4130 H 0.38135 0.67439 0.34396 0.0
H4131 H 0.35571 0.67739 0.35027 0.0
H4132 H 0.39573 0.67112 0.32118 0.0
H4133 H 0.39105 0.64106 0.36269 0.0
H4134 H 0.38068 0.6219 0.37825 0.0
H4135 H 0.38898 0.58922 0.34513 0.0
H4136 H 0.39923 0.60823 0.32929 0.0
H4137 H 0.47333 0.66026 0.32649 0.0
H4138 H 0.44751 0.6644 0.33115 0.0
H4139 H 0.43559 0.62468 0.30694 0.0
H4140 H 0.46151 0.62032 0.30244 0.0
H4141 H 0.4224 0.62621 0.33361 0.0
H4142 H 0.42895 0.65868 0.29301 0.0
H4143 H 0.44077 0.67903 0.28008 0.0
H4144 H 0.43071 0.70877 0.31531 0.0
H4145 H 0.419 0.68856 0.32854 0.0
C4146 C 0.3533 0.64239 0.33677 0.0
C4147 C 0.34858 0.6556 0.34309 0.0
C4148 C 0.36793 0.64076 0.33282 0.0
C4149 C 0.3784 0.65214 0.33549 0.0
C4150 C 0.37364 0.66539 0.34172 0.0
C4151 C 0.35893 0.66712 0.34538 0.0
C4152 C 0.39421 0.65026 0.33171 0.0
C4153 C 0.40156 0.66135 0.32409 0.0
C4154 C 0.40202 0.63752 0.33532 0.0
C4155 C 0.39576 0.62608 0.34475 0.0
C4156 C 0.39055 0.62981 0.35868 0.0
C4157 C 0.38471 0.61897 0.36755 0.0
C4158 C 0.38413 0.60436 0.36266 0.0
C4159 C 0.38941 0.60055 0.34889 0.0
C4160 C 0.39524 0.61134 0.33996 0.0
C4161 C 0.46523 0.6524 0.32211 0.0
C4162 C 0.46958 0.63988 0.31416 0.0
C4163 C 0.45042 0.65486 0.32469 0.0
C4164 C 0.43951 0.64491 0.31936 0.0
C4165 C 0.44377 0.63255 0.31117 0.0
C4166 C 0.45861 0.63012 0.3085 0.0
C4167 C 0.42377 0.64695 0.323 0.0
C4168 C 0.41649 0.63592 0.33066 0.0
C4169 C 0.4162 0.65992 0.3198 0.0
C4170 C 0.4232 0.67207 0.31181 0.0
C4171 C 0.42935 0.66954 0.29805 0.0
C4172 C 0.43602 0.68105 0.29066 0.0
C4173 C 0.43652 0.69518 0.29689 0.0
C4174 C 0.43033 0.69782 0.31051 0.0
C4175 C 0.42366 0.68634 0.31794 0.0
H4176 H 0.44169 0.70408 0.29115 0.0
H4177 H 0.37962 0.59598 0.36955 0.0
H4178 H 0.16676 0.27528 0.74295 0.0
H4179 H 0.14179 0.28055 0.73497 0.0
H4180 H 0.12559 0.26585 0.77619 0.0
H4181 H 0.15069 0.26042 0.78429 0.0
H4182 H 0.10812 0.25622 0.7498 0.0
H4183 H 0.12842 0.30005 0.77356 0.0
H4184 H 0.14776 0.31902 0.7779 0.0
H4185 H 0.14406 0.33158 0.73298 0.0
H4186 H 0.12482 0.31253 0.72833 0.0
H4187 H 0.03909 0.29269 0.74661 0.0
H4188 H 0.06266 0.28199 0.75301 0.0
H4189 H 0.08205 0.30234 0.71575 0.0
H4190 H 0.05845 0.31304 0.70928 0.0
H4191 H 0.09789 0.30835 0.74048 0.0
H4192 H 0.07724 0.266 0.71637 0.0
H4193 H 0.06044 0.24522 0.70997 0.0
H4194 H 0.06582 0.22868 0.75331 0.0
H4195 H 0.08243 0.24953 0.7601 0.0
C4196 C 0.15789 0.27291 0.75026 0.0
C4197 C 0.16076 0.26741 0.76427 0.0
C4198 C 0.14361 0.276 0.74569 0.0
C4199 C 0.13183 0.27364 0.75499 0.0
C4200 C 0.13452 0.26772 0.76882 0.0
C4201 C 0.14888 0.26474 0.77348 0.0
C4202 C 0.1169 0.27826 0.7505 0.0
C4203 C 0.10574 0.26763 0.74801 0.0
C4204 C 0.11399 0.29309 0.74772 0.0
C4205 C 0.12525 0.30482 0.75058 0.0
C4206 C 0.13178 0.30682 0.76459 0.0
C4207 C 0.14272 0.31758 0.76711 0.0
C4208 C 0.14716 0.32649 0.75572 0.0
C4209 C 0.14062 0.32468 0.7418 0.0
C4210 C 0.12967 0.31391 0.73922 0.0
C4211 C 0.04834 0.29474 0.73968 0.0
C4212 C 0.04692 0.30378 0.72746 0.0
C4213 C 0.0618 0.28853 0.7433 0.0
C4214 C 0.07418 0.29134 0.73488 0.0
C4215 C 0.07267 0.30001 0.72243 0.0
C4216 C 0.05916 0.30606 0.71868 0.0
C4217 C 0.0889 0.2863 0.73973 0.0
C4218 C 0.1001 0.29691 0.74233 0.0
C4219 C 0.09181 0.27141 0.74249 0.0
C4220 C 0.08099 0.25944 0.73879 0.0
C4221 C 0.07465 0.25808 0.72463 0.0
C4222 C 0.06523 0.24624 0.7209 0.0
C4223 C 0.06217 0.23558 0.73119 0.0
C4224 C 0.06829 0.2369 0.74532 0.0
C4225 C 0.07768 0.24875 0.74913 0.0
H4226 H 0.055 0.22633 0.72823 0.0
H4227 H 0.15565 0.3348 0.75768 0.0
H4228 H 0.83088 0.00566 0.64665 0.0
H4229 H 0.85704 0.00918 0.65225 0.0
H4230 H 0.86557 0.0124 0.60618 0.0
H4231 H 0.83941 0.00932 0.60048 0.0
H4232 H 0.88373 0.99287 0.62093 0.0
H4233 H 0.86808 0.04224 0.62496 0.0
H4234 H 0.8524 0.06224 0.63331 0.0
H4235 H 0.86469 0.05419 0.67801 0.0
H4236 H 0.88032 0.034 0.66992 0.0
H4237 H 0.9568 0.02079 0.62678 0.0
H4238 H 0.93087 0.01592 0.62125 0.0
H4239 H 0.92202 0.01639 0.66746 0.0
H4240 H 0.9479 0.02187 0.67306 0.0
H4241 H 0.9039 0.03384 0.65243 0.0
H4242 H 0.9205 0.98431 0.64735 0.0
H4243 H 0.93642 0.96499 0.63789 0.0
H4244 H 0.92264 0.97415 0.59386 0.0
H4245 H 0.90675 0.99364 0.60304 0.0
C4246 C 0.83829 0.00735 0.63774 0.0
C4247 C 0.83312 0.00715 0.62314 0.0
C4248 C 0.8532 0.00928 0.64094 0.0
C4249 C 0.86312 0.01101 0.6296 0.0
C4250 C 0.85802 0.01096 0.61503 0.0
C4251 C 0.84311 0.00915 0.61182 0.0
C4252 C 0.87888 0.01265 0.63297 0.0
C4253 C 0.88822 0.0019 0.62768 0.0
C4254 C 0.88454 0.02433 0.64193 0.0
C4255 C 0.87525 0.03652 0.64685 0.0
C4256 C 0.86735 0.04466 0.63658 0.0
C4257 C 0.85849 0.05604 0.64126 0.0
C4258 C 0.85752 0.05946 0.65618 0.0
C4259 C 0.86544 0.05152 0.66645 0.0
C4260 C 0.87432 0.04011 0.66183 0.0
C4261 C 0.94933 0.01974 0.63576 0.0
C4262 C 0.95432 0.02176 0.65034 0.0
C4263 C 0.93457 0.01685 0.63259 0.0
C4264 C 0.9246 0.01572 0.64396 0.0
C4265 C 0.92961 0.0172 0.65855 0.0
C4266 C 0.94439 0.02018 0.66173 0.0
C4267 C 0.90881 0.01394 0.64056 0.0
C4268 C 0.89945 0.02474 0.64578 0.0
C4269 C 0.90316 0.00236 0.63141 0.0
C4270 C 0.91252 0.9905 0.62588 0.0
C4271 C 0.92093 0.98225 0.63564 0.0
C4272 C 0.92993 0.97127 0.63033 0.0
C4273 C 0.93056 0.96836 0.61528 0.0
C4274 C 0.92214 0.97641 0.60551 0.0
C4275 C 0.91312 0.98741 0.61077 0.0
H4276 H 0.93756 0.95986 0.61119 0.0
H4277 H 0.85065 0.06827 0.65979 0.0
H4278 H 0.62781 0.97004 0.30132 0.0
H4279 H 0.60261 0.97819 0.30289 0.0
H4280 H 0.61774 0.01868 0.32379 0.0
H4281 H 0.64307 0.01109 0.32153 0.0
H4282 H 0.58715 0.99504 0.33284 0.0
H4283 H 0.60884 0.03346 0.30245 0.0
H4284 H 0.62672 0.04127 0.28419 0.0
H4285 H 0.60936 0.00849 0.25368 0.0
H4286 H 0.59152 1.00037 0.2719 0.0
H4287 H 0.5151 0.02168 0.31305 0.0
H4288 H 0.54095 0.02178 0.32082 0.0
H4289 H 0.55062 0.99426 0.28343 0.0
H4290 H 0.52489 0.99399 0.2757 0.0
H4291 H 0.56982 0.01758 0.28683 0.0
H4292 H 0.54701 0.98059 0.31811 0.0
H4293 H 0.52986 0.97296 0.33712 0.0
H4294 H 0.54958 0.00465 0.3674 0.0
H4295 H 0.56673 0.01257 0.3485 0.0
C4296 C 0.62584 0.98071 0.30619 0.0
C4297 C 0.63751 0.98995 0.31113 0.0
C4298 C 0.61143 0.98524 0.30728 0.0
C4299 C 0.60844 0.99898 0.31348 0.0
C4300 C 0.61992 0.008 0.31904 0.0
C4301 C 0.63437 0.00359 0.31776 0.0
C4302 C 0.59341 0.00435 0.31242 0.0
C4303 C 0.58333 1.00034 0.323 0.0
C4304 C 0.58856 0.01126 0.29962 0.0
C4305 C 0.59899 0.01625 0.28854 0.0
C4306 C 0.60893 0.02787 0.29188 0.0
C4307 C 0.61903 0.03236 0.28154 0.0
C4308 C 0.6192 0.02535 0.26779 0.0
C4309 C 0.60923 0.01389 0.26434 0.0
C4310 C 0.59912 0.00935 0.27466 0.0
C4311 C 0.52272 0.01553 0.30658 0.0
C4312 C 0.51797 0.00782 0.29374 0.0
C4313 C 0.53747 0.01565 0.311 0.0
C4314 C 0.54766 0.00802 0.3027 0.0
C4315 C 0.54293 1.00031 0.28993 0.0
C4316 C 0.52823 1.00019 0.28551 0.0
C4317 C 0.56332 0.00792 0.30708 0.0
C4318 C 0.57357 0.01281 0.29698 0.0
C4319 C 0.56826 0.00216 0.32054 0.0
C4320 C 0.55802 0.99728 0.33186 0.0
C4321 C 0.54761 0.98599 0.32879 0.0
C4322 C 0.53791 0.9816 0.33955 0.0
C4323 C 0.5386 0.98834 0.35344 0.0
C4324 C 0.54903 0.99945 0.35663 0.0
C4325 C 0.55875 0.00389 0.3459 0.0
H4326 H 0.53108 0.98493 0.36175 0.0
H4327 H 0.62704 0.02883 0.25979 0.0
H4328 H 0.32206 0.34421 0.65333 0.0
H4329 H 0.31528 0.36965 0.65015 0.0
H4330 H 0.35877 0.38408 0.664 0.0
H4331 H 0.36551 0.35859 0.66773 0.0
H4332 H 0.3389 0.40173 0.67578 0.0
H4333 H 0.34776 0.38287 0.62739 0.0
H4334 H 0.34484 0.36576 0.6062 0.0
H4335 H 0.29902 0.37502 0.603 0.0
H4336 H 0.30163 0.39204 0.6243 0.0
H4337 H 0.33806 0.47327 0.64593 0.0
H4338 H 0.3431 0.44783 0.65175 0.0
H4339 H 0.29828 0.4355 0.64078 0.0
H4340 H 0.29316 0.46107 0.63498 0.0
H4341 H 0.31803 0.41684 0.62798 0.0
H4342 H 0.30909 0.43619 0.67564 0.0
H4343 H 0.31177 0.45369 0.69651 0.0
H4344 H 0.35735 0.44385 0.70102 0.0
H4345 H 0.35499 0.4264 0.68002 0.0
C4346 C 0.33018 0.35276 0.65589 0.0
C4347 C 0.34438 0.34922 0.66076 0.0
C4348 C 0.32631 0.36737 0.65391 0.0
C4349 C 0.33655 0.37889 0.65661 0.0
C4350 C 0.35066 0.37545 0.66175 0.0
C4351 C 0.35455 0.36081 0.66375 0.0
C4352 C 0.33257 0.39447 0.6539 0.0
C4353 C 0.33452 0.40504 0.66526 0.0
C4354 C 0.32647 0.39886 0.64031 0.0
C4355 C 0.32486 0.3886 0.62753 0.0
C4356 C 0.33704 0.38116 0.62224 0.0
C4357 C 0.33544 0.3715 0.61019 0.0
C4358 C 0.32175 0.36927 0.60328 0.0
C4359 C 0.30962 0.37673 0.60838 0.0
C4360 C 0.31115 0.38639 0.62043 0.0
C4361 C 0.32925 0.46515 0.64477 0.0
C4362 C 0.31521 0.46921 0.63991 0.0
C4363 C 0.33213 0.4506 0.64819 0.0
C4364 C 0.32108 0.43969 0.64677 0.0
C4365 C 0.30701 0.4437 0.64199 0.0
C4366 C 0.30406 0.45833 0.63874 0.0
C4367 C 0.3244 0.42406 0.64983 0.0
C4368 C 0.32236 0.4135 0.63852 0.0
C4369 C 0.3304 0.4197 0.66345 0.0
C4370 C 0.3319 0.43009 0.67615 0.0
C4371 C 0.31972 0.43784 0.681 0.0
C4372 C 0.32117 0.44773 0.69286 0.0
C4373 C 0.33473 0.44991 0.70005 0.0
C4374 C 0.34686 0.44215 0.69542 0.0
C4375 C 0.34547 0.43225 0.68354 0.0
H4376 H 0.33581 0.4576 0.70921 0.0
H4377 H 0.32054 0.3618 0.59395 0.0
H4378 H 0.28357 0.63327 0.99329 0.0
H4379 H 0.28677 0.60821 0.0012 0.0
H4380 H 0.33341 0.61273 0.99523 0.0
H4381 H 0.33 0.63774 0.98651 0.0
H4382 H 0.32565 0.58746 0.98597 0.0
H4383 H 0.31836 0.61135 0.0306 0.0
H4384 H 0.30798 0.62822 0.04884 0.0
H4385 H 0.2669 0.60445 0.04575 0.0
H4386 H 0.27694 0.58756 0.02733 0.0
H4387 H 0.3176 0.51316 0.01222 0.0
H4388 H 0.32598 0.53888 0.01245 0.0
H4389 H 0.28152 0.55224 0.00489 0.0
H4390 H 0.27312 0.52672 0.00446 0.0
H4391 H 0.2965 0.56878 0.02701 0.0
H4392 H 0.3065 0.54887 0.9767 0.0
H4393 H 0.31995 0.53197 0.9607 0.0
H4394 H 0.36083 0.5487 0.9791 0.0
H4395 H 0.34759 0.5656 0.99527 0.0
C4396 C 0.29448 0.62887 0.99367 0.0
C4397 C 0.30653 0.63731 0.98933 0.0
C4398 C 0.29636 0.61463 0.99836 0.0
C4399 C 0.31041 0.60868 0.99925 0.0
C4400 C 0.32249 0.6171 0.99476 0.0
C4401 C 0.32055 0.63132 0.98976 0.0
C4402 C 0.31207 0.59338 0.00411 0.0
C4403 C 0.31956 0.58347 0.99518 0.0
C4404 C 0.30459 0.58809 0.0164 0.0
C4405 C 0.29842 0.59819 0.02753 0.0
C4406 C 0.30708 0.60976 0.03374 0.0
C4407 C 0.30126 0.61933 0.04413 0.0
C4408 C 0.28679 0.61741 0.04845 0.0
C4409 C 0.27812 0.60591 0.04241 0.0
C4410 C 0.28388 0.59631 0.03202 0.0
C4411 C 0.30964 0.52159 0.0105 0.0
C4412 C 0.29468 0.51791 0.00831 0.0
C4413 C 0.31444 0.53626 0.01073 0.0
C4414 C 0.30436 0.54743 0.00871 0.0
C4415 C 0.28945 0.54377 0.00661 0.0
C4416 C 0.28466 0.52918 0.00638 0.0
C4417 C 0.30904 0.56301 0.0082 0.0
C4418 C 0.30289 0.57294 0.01808 0.0
C4419 C 0.31824 0.56833 0.99718 0.0
C4420 C 0.32608 0.55838 0.98723 0.0
C4421 C 0.31835 0.54889 0.97734 0.0
C4422 C 0.32593 0.53932 0.96825 0.0
C4423 C 0.34123 0.53923 0.9689 0.0
C4424 C 0.34898 0.54876 0.97861 0.0
C4425 C 0.34145 0.55834 0.98772 0.0
H4426 H 0.34708 0.5318 0.96187 0.0
H4427 H 0.2823 0.62484 0.05649 0.0
H4428 H 0.75647 0.1583 0.24769 0.0
H4429 H 0.74874 0.13294 0.25229 0.0
H4430 H 0.77035 0.1358 0.29478 0.0
H4431 H 0.77815 0.16093 0.29022 0.0
H4432 H 0.77612 0.11065 0.28151 0.0
H4433 H 0.73208 0.13907 0.28899 0.0
H4434 H 0.71283 0.15562 0.28054 0.0
H4435 H 0.70006 0.12476 0.24618 0.0
H4436 H 0.71937 0.10811 0.25432 0.0
H4437 H 0.74774 0.05708 0.32542 0.0
H4438 H 0.7527 0.0806 0.31422 0.0
H4439 H 0.72852 0.06606 0.27524 0.0
H4440 H 0.72324 0.04239 0.28665 0.0
H4441 H 0.72372 0.09511 0.2817 0.0
H4442 H 0.76517 0.06549 0.27539 0.0
H4443 H 0.78451 0.04862 0.28283 0.0
H4444 H 0.80259 0.08124 0.31309 0.0
H4445 H 0.7832 0.09823 0.30602 0.0
C4446 C 0.75955 0.1535 0.25801 0.0
C4447 C 0.76799 0.16164 0.26856 0.0
C4448 C 0.7551 0.13901 0.26064 0.0
C4449 C 0.75884 0.13246 0.27395 0.0
C4450 C 0.76737 0.14055 0.2844 0.0
C4451 C 0.77189 0.15493 0.28175 0.0
C4452 C 0.75398 0.11722 0.27727 0.0
C4453 C 0.76465 0.10731 0.28163 0.0
C4454 C 0.73906 0.11257 0.27681 0.0
C4455 C 0.72724 0.12242 0.27218 0.0
C4456 C 0.7252 0.13585 0.2796 0.0
C4457 C 0.71428 0.14524 0.27486 0.0
C4458 C 0.70525 0.14126 0.2628 0.0
C4459 C 0.70707 0.12784 0.2555 0.0
C4460 C 0.718 0.11842 0.26018 0.0
C4461 C 0.74345 0.05888 0.31447 0.0
C4462 C 0.73532 0.0478 0.30682 0.0
C4463 C 0.74628 0.07234 0.30807 0.0
C4464 C 0.74128 0.07501 0.29374 0.0
C4465 C 0.73257 0.06423 0.28627 0.0
C4466 C 0.72958 0.05072 0.29278 0.0
C4467 C 0.74586 0.08884 0.2866 0.0
C4468 C 0.73519 0.09841 0.28142 0.0
C4469 C 0.76082 0.09318 0.28612 0.0
C4470 C 0.77268 0.08311 0.29023 0.0
C4471 C 0.77323 0.06904 0.28369 0.0
C4472 C 0.7842 0.05946 0.28784 0.0
C4473 C 0.79476 0.06385 0.29844 0.0
C4474 C 0.7944 0.07785 0.30488 0.0
C4475 C 0.78343 0.08748 0.30079 0.0
H4476 H 0.80324 0.05641 0.30165 0.0
H4477 H 0.69682 0.14855 0.25914 0.0
H4478 H 0.60182 0.84128 0.99916 0.0
H4479 H 0.60863 0.86719 0.00137 0.0
H4480 H 0.6492 0.85632 0.02321 0.0
H4481 H 0.64208 0.83035 0.02178 0.0
H4482 H 0.63722 0.87986 0.0358 0.0
H4483 H 0.64738 0.86355 0.98643 0.0
H4484 H 0.64091 0.85208 0.96238 0.0
H4485 H 0.6083 0.88442 0.95517 0.0
H4486 H 0.61441 0.89594 0.97929 0.0
H4487 H 0.6735 0.94783 0.02761 0.0
H4488 H 0.66828 0.9216 0.02343 0.0
H4489 H 0.62595 0.93145 0.00468 0.0
H4490 H 0.63113 0.95766 0.00887 0.0
H4491 H 0.63934 0.90842 0.99027 0.0
H4492 H 0.62808 0.92447 0.03885 0.0
H4493 H 0.63294 0.93603 0.06315 0.0
H4494 H 0.66578 0.9044 0.07229 0.0
H4495 H 0.66136 0.89285 0.04786 0.0
C4496 C 0.61207 0.84439 0.00468 0.0
C4497 C 0.62147 0.83375 0.01023 0.0
C4498 C 0.61602 0.8592 0.00578 0.0
C4499 C 0.62955 0.86361 0.01218 0.0
C4500 C 0.63876 0.85309 0.01812 0.0
C4501 C 0.63475 0.83827 0.01716 0.0
C4502 C 0.63427 0.87917 0.01234 0.0
C4503 C 0.63793 0.88605 0.02584 0.0
C4504 C 0.63475 0.8873 0.99934 0.0
C4505 C 0.63128 0.88054 0.98471 0.0
C4506 C 0.63878 0.86817 0.97975 0.0
C4507 C 0.63517 0.86166 0.96611 0.0
C4508 C 0.62418 0.8675 0.95726 0.0
C4509 C 0.6168 0.8799 0.96203 0.0
C4510 C 0.62034 0.88643 0.97568 0.0
C4511 C 0.66329 0.94438 0.02218 0.0
C4512 C 0.65267 0.95464 0.01856 0.0
C4513 C 0.66028 0.92945 0.01992 0.0
C4514 C 0.64666 0.92469 0.01396 0.0
C4515 C 0.6365 0.93498 0.00933 0.0
C4516 C 0.63944 0.94988 0.01173 0.0
C4517 C 0.64245 0.90903 0.0137 0.0
C4518 C 0.6388 0.90217 1.00021 0.0
C4519 C 0.64183 0.90096 0.02672 0.0
C4520 C 0.64455 0.90793 0.04142 0.0
C4521 C 0.63647 0.92009 0.04595 0.0
C4522 C 0.63913 0.92663 0.05977 0.0
C4523 C 0.6497 0.92099 0.06924 0.0
C4524 C 0.65763 0.90879 0.06492 0.0
C4525 C 0.65506 0.90225 0.05108 0.0
H4526 H 0.65172 0.92605 0.07994 0.0
H4527 H 0.6214 0.86244 0.94671 0.0
H4528 H 0.67972 0.35362 0.35588 0.0
H4529 H 0.67661 0.34732 0.38157 0.0
H4530 H 0.63476 0.32676 0.37047 0.0
H4531 H 0.63762 0.33333 0.34489 0.0
H4532 H 0.63292 0.3429 0.39511 0.0
H4533 H 0.66578 0.30674 0.37693 0.0
H4534 H 0.68806 0.29818 0.36502 0.0
H4535 H 0.71478 0.32016 0.39838 0.0
H4536 H 0.69265 0.32907 0.41037 0.0
H4537 H 0.62227 0.3028 0.46004 0.0
H4538 H 0.6274 0.30761 0.43427 0.0
H4539 H 0.6658 0.33321 0.44768 0.0
H4540 H 0.66059 0.32863 0.4734 0.0
H4541 H 0.66999 0.31455 0.42224 0.0
H4542 H 0.63809 0.35138 0.43986 0.0
H4543 H 0.61628 0.36046 0.45223 0.0
H4544 H 0.58841 0.33784 0.42024 0.0
H4545 H 0.61009 0.32841 0.4078 0.0
C4546 C 0.6698 0.34785 0.3589 0.0
C4547 C 0.65896 0.34395 0.3482 0.0
C4548 C 0.66809 0.34413 0.37362 0.0
C4549 C 0.65551 0.33638 0.37803 0.0
C4550 C 0.6446 0.33267 0.36741 0.0
C4551 C 0.64631 0.33634 0.35271 0.0
C4552 C 0.65362 0.33219 0.39367 0.0
C4553 C 0.64096 0.33652 0.40092 0.0
C4554 C 0.66424 0.32419 0.40154 0.0
C4555 C 0.67756 0.3187 0.39446 0.0
C4556 C 0.67641 0.30984 0.38167 0.0
C4557 C 0.68901 0.30492 0.37491 0.0
C4558 C 0.70283 0.30866 0.38091 0.0
C4559 C 0.70407 0.31729 0.39373 0.0
C4560 C 0.6915 0.32228 0.40051 0.0
C4561 C 0.63192 0.30925 0.45747 0.0
C4562 C 0.64097 0.31539 0.46877 0.0
C4563 C 0.63483 0.31205 0.44274 0.0
C4564 C 0.64696 0.32085 0.439 0.0
C4565 C 0.6564 0.32639 0.45025 0.0
C4566 C 0.65336 0.32381 0.46496 0.0
C4567 C 0.64924 0.3251 0.42349 0.0
C4568 C 0.66196 0.32086 0.41634 0.0
C4569 C 0.63875 0.33327 0.41571 0.0
C4570 C 0.62569 0.33906 0.423 0.0
C4571 C 0.62731 0.34824 0.43553 0.0
C4572 C 0.61498 0.35347 0.44255 0.0
C4573 C 0.60096 0.3497 0.43705 0.0
C4574 C 0.59927 0.34073 0.4245 0.0
C4575 C 0.61157 0.33545 0.41745 0.0
H4576 H 0.59142 0.35376 0.44249 0.0
H4577 H 0.71258 0.30484 0.37566 0.0
H4578 H 0.00647 0.31648 0.6487 0.0
H4579 H 0.01241 0.32182 0.62317 0.0
H4580 H 0.98437 0.28569 0.60819 0.0
H4581 H 0.97826 0.28042 0.63351 0.0
H4582 H 0.01953 0.29007 0.60023 0.0
H4583 H 0.96974 0.3121 0.60291 0.0
H4584 H 0.95346 0.33121 0.61215 0.0
H4585 H 0.98276 0.36463 0.59681 0.0
H4586 H 0.99936 0.3457 0.58775 0.0
H4587 H 1.00007 0.27225 0.52949 0.0
H4588 H 0.00086 0.27887 0.55543 0.0
H4589 H 0.01274 0.32341 0.54533 0.0
H4590 H 0.01231 0.31676 0.51911 0.0
H4591 H 0.99208 0.32223 0.56679 0.0
H4592 H 0.03846 0.30437 0.55982 0.0
H4593 H 0.05816 0.28884 0.55078 0.0
H4594 H 0.04111 0.25258 0.57474 0.0
H4595 H 0.02113 0.26782 0.58373 0.0
C4596 C 0.00158 0.3097 0.63992 0.0
C4597 C 0.99196 0.29797 0.64305 0.0
C4598 C 0.00488 0.31285 0.6254 0.0
C4599 C 0.99868 0.30423 0.61388 0.0
C4600 C 0.9891 0.29255 0.61698 0.0
C4601 C 0.98565 0.28954 0.63142 0.0
C4602 C 0.00297 0.30633 0.59857 0.0
C4603 C 0.01357 0.2971 0.59289 0.0
C4604 C 0.99589 0.31624 0.58925 0.0
C4605 C 0.98592 0.32749 0.59491 0.0
C4606 C 0.97284 0.32351 0.60174 0.0
C4607 C 0.96352 0.33432 0.60688 0.0
C4608 C 0.96711 0.34912 0.60514 0.0
C4609 C 0.98001 0.35316 0.59822 0.0
C4610 C 0.98938 0.3424 0.59309 0.0
C4611 C 0.00301 0.28343 0.53272 0.0
C4612 C 0.00632 0.29391 0.52219 0.0
C4613 C 0.00342 0.28722 0.54758 0.0
C4614 C 0.00711 0.30157 0.55233 0.0
C4615 C 0.00995 0.31225 0.54189 0.0
C4616 C 0.00962 0.30843 0.52693 0.0
C4617 C 0.00782 0.30506 0.56827 0.0
C4618 C 0.9983 0.3154 0.57411 0.0
C4619 C 0.01636 0.2966 0.57787 0.0
C4620 C 0.02823 0.28724 0.57239 0.0
C4621 C 0.03882 0.29304 0.56306 0.0
C4622 C 0.05006 0.2843 0.55796 0.0
C4623 C 0.05088 0.26973 0.56217 0.0
C4624 C 0.04046 0.26387 0.57149 0.0
C4625 C 0.02918 0.27257 0.5766 0.0
H4626 H 0.0596 0.26297 0.55822 0.0
H4627 H 0.95986 0.35747 0.60909 0.0
H4628 H 0.28685 0.78211 0.15785 0.0
H4629 H 0.29129 0.77501 0.13251 0.0
H4630 H 0.25458 0.74449 0.13277 0.0
H4631 H 0.24998 0.75164 0.15823 0.0
H4632 H 0.27748 0.73186 0.12087 0.0
H4633 H 0.2525 0.77588 0.11323 0.0
H4634 H 0.2464 0.80185 0.11679 0.0
H4635 H 0.28921 0.81492 0.10284 0.0
H4636 H 0.29565 0.78901 0.09939 0.0
H4637 H 0.28785 0.71874 0.0434 0.0
H4638 H 0.27663 0.72512 0.06678 0.0
H4639 H 0.31167 0.75654 0.07639 0.0
H4640 H 0.32296 0.75017 0.0533 0.0
H4641 H 0.28531 0.76804 0.08198 0.0
H4642 H 0.31031 0.72276 0.09237 0.0
H4643 H 0.31529 0.69649 0.08895 0.0
H4644 H 0.27031 0.68564 0.09726 0.0
H4645 H 0.26504 0.71187 0.10055 0.0
C4646 C 0.27951 0.7741 0.15247 0.0
C4647 C 0.268 0.76751 0.16012 0.0
C4648 C 0.28209 0.77001 0.13794 0.0
C4649 C 0.27318 0.75931 0.13062 0.0
C4650 C 0.26162 0.75276 0.13817 0.0
C4651 C 0.25902 0.75685 0.15274 0.0
C4652 C 0.27644 0.75462 0.11533 0.0
C4653 C 0.2789 0.73974 0.11229 0.0
C4654 C 0.27837 0.76486 0.1041 0.0
C4655 C 0.27459 0.78048 0.10615 0.0
C4656 C 0.26065 0.78429 0.11103 0.0
C4657 C 0.25713 0.799 0.11301 0.0
C4658 C 0.26742 0.81003 0.11007 0.0
C4659 C 0.28125 0.80636 0.10512 0.0
C4660 C 0.28484 0.79166 0.10313 0.0
C4661 C 0.2932 0.72694 0.05054 0.0
C4662 C 0.30627 0.73401 0.04636 0.0
C4663 C 0.28676 0.73059 0.0639 0.0
C4664 C 0.29332 0.74131 0.07339 0.0
C4665 C 0.30633 0.74834 0.06923 0.0
C4666 C 0.31275 0.74471 0.05595 0.0
C4667 C 0.2868 0.74537 0.08768 0.0
C4668 C 0.28369 0.76014 0.09052 0.0
C4669 C 0.28408 0.735 0.09864 0.0
C4670 C 0.28725 0.71927 0.09652 0.0
C4671 C 0.30146 0.71478 0.09333 0.0
C4672 C 0.30434 0.69989 0.09144 0.0
C4673 C 0.29311 0.6894 0.09284 0.0
C4674 C 0.27899 0.69377 0.09615 0.0
C4675 C 0.27605 0.70864 0.09803 0.0
H4676 H 0.29537 0.67789 0.09139 0.0
H4677 H 0.26467 0.82141 0.1116 0.0
H4678 H 0.99074 0.60562 0.84103 0.0
H4679 H 0.99403 0.61252 0.86687 0.0
H4680 H 0.03092 0.64044 0.85655 0.0
H4681 H 0.02807 0.63314 0.83068 0.0
H4682 H 0.03487 0.6256 0.88264 0.0
H4683 H 0.99817 0.65478 0.85863 0.0
H4684 H 0.97567 0.65753 0.84361 0.0
H4685 H 0.95079 0.63446 0.87547 0.0
H4686 H 0.97322 0.63136 0.89056 0.0
H4687 H 0.039 0.67129 0.94398 0.0
H4688 H 0.03427 0.66487 0.91811 0.0
H4689 H 0.99663 0.63861 0.92986 0.0
H4690 H 0.00121 0.64534 0.95576 0.0
H4691 H 0.99268 0.65175 0.90334 0.0
H4692 H 0.02857 0.62322 0.92793 0.0
H4693 H 0.05085 0.61943 0.94297 0.0
H4694 H 0.07706 0.63977 0.91037 0.0
H4695 H 0.05488 0.64398 0.89527 0.0
C4696 C 0.99976 0.61298 0.84429 0.0
C4697 C 0.00905 0.61901 0.83384 0.0
C4698 C 0.00157 0.61694 0.85902 0.0
C4699 C 0.01255 0.62715 0.86348 0.0
C4700 C 0.02233 0.6326 0.85323 0.0
C4701 C 0.02057 0.62858 0.83848 0.0
C4702 C 0.01303 0.63312 0.87857 0.0
C4703 C 0.02574 0.63145 0.88715 0.0
C4704 C 0.00093 0.64043 0.88445 0.0
C4705 C 0.98737 0.64276 0.87566 0.0
C4706 C 0.98791 0.65026 0.8624 0.0
C4707 C 0.97517 0.65186 0.85387 0.0
C4708 C 0.96181 0.64615 0.85857 0.0
C4709 C 0.96115 0.63887 0.87184 0.0
C4710 C 0.97386 0.6372 0.88039 0.0
C4711 C 0.02941 0.66462 0.9409 0.0
C4712 C 0.02042 0.65875 0.95162 0.0
C4713 C 0.02678 0.66089 0.92622 0.0
C4714 C 0.01533 0.65101 0.92222 0.0
C4715 C 0.00556 0.6462 0.93282 0.0
C4716 C 0.00812 0.65005 0.94753 0.0
C4717 C 0.01461 0.64442 0.90737 0.0
C4718 C 0.00183 0.64591 0.89886 0.0
C4719 C 0.02663 0.63684 0.9016 0.0
C4720 C 0.04003 0.63406 0.91053 0.0
C4721 C 0.03907 0.62698 0.92401 0.0
C4722 C 0.05168 0.62476 0.93255 0.0
C4723 C 0.06536 0.62938 0.92764 0.0
C4724 C 0.06645 0.63621 0.91417 0.0
C4725 C 0.05386 0.63853 0.90562 0.0
H4726 H 0.07511 0.62765 0.93427 0.0
H4727 H 0.95197 0.64738 0.85194 0.0
H4728 H 0.64179 0.34569 0.63396 0.0
H4729 H 0.61612 0.34805 0.64044 0.0
H4730 H 0.62811 0.34514 0.68617 0.0
H4731 H 0.6538 0.34306 0.67985 0.0
H4732 H 0.60398 0.32844 0.67966 0.0
H4733 H 0.62008 0.37796 0.67092 0.0
H4734 H 0.63072 0.39808 0.65676 0.0
H4735 H 0.59728 0.39121 0.62335 0.0
H4736 H 0.58656 0.37091 0.63723 0.0
H4737 H 0.54361 0.36051 0.71484 0.0
H4738 H 0.56751 0.35463 0.70502 0.0
H4739 H 0.54904 0.35439 0.66116 0.0
H4740 H 0.52492 0.36013 0.67101 0.0
H4741 H 0.57531 0.37128 0.6646 0.0
H4742 H 0.55794 0.32317 0.67425 0.0
H4743 H 0.54705 0.30326 0.68848 0.0
H4744 H 0.58252 0.30741 0.72007 0.0
H4745 H 0.59351 0.32753 0.70615 0.0
C4746 C 0.63903 0.3457 0.64542 0.0
C4747 C 0.65001 0.34421 0.65636 0.0
C4748 C 0.62429 0.347 0.64911 0.0
C4749 C 0.62011 0.34688 0.66382 0.0
C4750 C 0.63099 0.3452 0.67474 0.0
C4751 C 0.64573 0.34395 0.67107 0.0
C4752 C 0.60447 0.34861 0.66791 0.0
C4753 C 0.59777 0.33789 0.67648 0.0
C4754 C 0.59614 0.36069 0.66342 0.0
C4755 C 0.60264 0.3728 0.65502 0.0
C4756 C 0.61509 0.38065 0.66048 0.0
C4757 C 0.62111 0.39211 0.65252 0.0
C4758 C 0.61471 0.39589 0.63914 0.0
C4759 C 0.60225 0.38825 0.6337 0.0
C4760 C 0.59619 0.37677 0.64161 0.0
C4761 C 0.54462 0.35915 0.7031 0.0
C4762 C 0.5324 0.36087 0.69369 0.0
C4763 C 0.55827 0.3557 0.6975 0.0
C4764 C 0.5601 0.35403 0.68234 0.0
C4765 C 0.5479 0.35562 0.67289 0.0
C4766 C 0.53412 0.35884 0.67852 0.0
C4767 C 0.57492 0.35123 0.6765 0.0
C4768 C 0.58147 0.36176 0.66765 0.0
C4769 C 0.58311 0.33897 0.68072 0.0
C4770 C 0.57648 0.32697 0.68922 0.0
C4771 C 0.56335 0.31995 0.68431 0.0
C4772 C 0.55717 0.3086 0.69231 0.0
C4773 C 0.56407 0.3041 0.70519 0.0
C4774 C 0.57717 0.31093 0.7101 0.0
C4775 C 0.58339 0.3223 0.70215 0.0
H4776 H 0.55928 0.29529 0.71136 0.0
H4777 H 0.61938 0.40478 0.633 0.0
H4778 H 0.84333 0.75756 0.23592 0.0
H4779 H 0.86877 0.75489 0.24456 0.0
H4780 H 0.86414 0.70798 0.23918 0.0
H4781 H 0.83882 0.71055 0.2305 0.0
H4782 H 0.87427 0.71763 0.26712 0.0
H4783 H 0.88475 0.7247 0.21674 0.0
H4784 H 0.88404 0.7373 0.19318 0.0
H4785 H 0.90594 0.77497 0.21325 0.0
H4786 H 0.90657 0.76268 0.23702 0.0
H4787 H 0.94461 0.69565 0.28444 0.0
H4788 H 0.92271 0.69992 0.26939 0.0
H4789 H 0.93135 0.74653 0.27277 0.0
H4790 H 0.95364 0.74218 0.28762 0.0
H4791 H 0.91945 0.73802 0.24543 0.0
H4792 H 0.90847 0.73098 0.29593 0.0
H4793 H 0.90909 0.71825 0.31944 0.0
H4794 H 0.88756 0.68055 0.29902 0.0
H4795 H 0.88706 0.69295 0.27532 0.0
C4796 C 0.84781 0.7467 0.23646 0.0
C4797 C 0.8391 0.73426 0.23254 0.0
C4798 C 0.86235 0.7452 0.24129 0.0
C4799 C 0.86833 0.73124 0.24245 0.0
C4800 C 0.85973 0.71885 0.2383 0.0
C4801 C 0.8453 0.72034 0.23329 0.0
C4802 C 0.88312 0.72942 0.2491 0.0
C4803 C 0.88416 0.72192 0.26227 0.0
C4804 C 0.89595 0.73539 0.24296 0.0
C4805 C 0.89554 0.74284 0.22871 0.0
C4806 C 0.88927 0.73574 0.21618 0.0
C4807 C 0.88892 0.74281 0.20277 0.0
C4808 C 0.8949 0.75695 0.20172 0.0
C4809 C 0.90128 0.76403 0.21408 0.0
C4810 C 0.90165 0.75702 0.22753 0.0
C4811 C 0.94198 0.70678 0.28168 0.0
C4812 C 0.95067 0.71861 0.28719 0.0
C4813 C 0.92946 0.70922 0.27314 0.0
C4814 C 0.92522 0.72356 0.2702 0.0
C4815 C 0.93439 0.73539 0.27495 0.0
C4816 C 0.94708 0.73292 0.28342 0.0
C4817 C 0.91059 0.72607 0.26338 0.0
C4818 C 0.90955 0.73374 0.25026 0.0
C4819 C 0.89767 0.72029 0.26956 0.0
C4820 C 0.89786 0.71284 0.28382 0.0
C4821 C 0.90397 0.71993 0.29643 0.0
C4822 C 0.90429 0.71278 0.3098 0.0
C4823 C 0.89839 0.69859 0.31072 0.0
C4824 C 0.89214 0.69153 0.29829 0.0
C4825 C 0.89183 0.69862 0.28488 0.0
H4826 H 0.89864 0.69307 0.32108 0.0
H4827 H 0.89463 0.7624 0.19133 0.0
H4828 H 0.16053 0.01076 0.37916 0.0
H4829 H 0.13525 0.00752 0.37011 0.0
H4830 H 0.13256 0.96528 0.39018 0.0
H4831 H 0.15799 0.96833 0.39903 0.0
H4832 H 0.12252 0.96409 0.36201 0.0
H4833 H 0.11462 0.99374 0.4047 0.0
H4834 H 0.11848 0.01488 0.42172 0.0
H4835 H 0.10541 0.04406 0.38788 0.0
H4836 H 0.10166 0.0231 0.37058 0.0
H4837 H 0.04648 0.95278 0.34917 0.0
H4838 H 0.06993 0.95705 0.36218 0.0
H4839 H 0.07518 0.99857 0.34113 0.0
H4840 H 0.05158 0.99447 0.3282 0.0
H4841 H 0.08345 0.9999 0.3708 0.0
H4842 H 0.09269 0.97047 0.32791 0.0
H4843 H 0.08903 0.94942 0.31073 0.0
H4844 H 0.09981 0.9199 0.34507 0.0
H4845 H 0.10335 0.94079 0.36251 0.0
C4846 C 0.15456 1.00078 0.38165 0.0
C4847 C 0.16127 0.98978 0.38977 0.0
C4848 C 0.14007 0.99901 0.37658 0.0
C4849 C 0.13198 0.98621 0.37956 0.0
C4850 C 0.1386 0.97526 0.3878 0.0
C4851 C 0.15308 0.97706 0.39293 0.0
C4852 C 0.11688 0.98398 0.37345 0.0
C4853 C 0.11391 0.97178 0.36415 0.0
C4854 C 0.10575 0.99422 0.37594 0.0
C4855 C 0.10798 0.00686 0.38631 0.0
C4856 C 0.11268 0.00468 0.40085 0.0
C4857 C 0.11483 0.01662 0.41056 0.0
C4858 C 0.11222 0.03081 0.40588 0.0
C4859 C 0.10743 0.03307 0.39149 0.0
C4860 C 0.10528 0.02115 0.38173 0.0
C4861 C 0.05248 0.96294 0.3475 0.0
C4862 C 0.04718 0.97328 0.33763 0.0
C4863 C 0.06594 0.96531 0.35486 0.0
C4864 C 0.07435 0.97806 0.3525 0.0
C4865 C 0.06886 0.98865 0.34307 0.0
C4866 C 0.05543 0.98624 0.33563 0.0
C4867 C 0.08914 0.98002 0.3594 0.0
C4868 C 0.09205 0.99216 0.36878 0.0
C4869 C 0.10025 0.96975 0.35699 0.0
C4870 C 0.09813 0.95717 0.34654 0.0
C4871 C 0.09416 0.95948 0.33182 0.0
C4872 C 0.09213 0.94758 0.32203 0.0
C4873 C 0.09415 0.93333 0.32681 0.0
C4874 C 0.09823 0.93095 0.34139 0.0
C4875 C 0.10026 0.94281 0.35123 0.0
H4876 H 0.09258 0.92413 0.31922 0.0
H4877 H 0.11388 0.04004 0.41341 0.0
H4878 H 0.3692 0.02551 0.64075 0.0
H4879 H 0.39273 0.01537 0.6486 0.0
H4880 H 0.37542 0.00808 0.69153 0.0
H4881 H 0.35267 0.01939 0.68396 0.0
H4882 H 0.3995 0.01969 0.69546 0.0
H4883 H 0.38357 0.97948 0.6644 0.0
H4884 H 0.37465 0.9663 0.64198 0.0
H4885 H 0.41291 0.98056 0.61938 0.0
H4886 H 0.42198 0.99401 0.6416 0.0
H4887 H 0.46522 0.98845 0.72067 0.0
H4888 H 0.43952 0.98734 0.71176 0.0
H4889 H 0.45251 0.00669 0.67126 0.0
H4890 H 0.47799 0.00776 0.68012 0.0
H4891 H 0.42993 0.98531 0.66728 0.0
H4892 H 0.44271 0.02848 0.69838 0.0
H4893 H 0.45185 0.04004 0.7216 0.0
H4894 H 0.41821 0.01748 0.74492 0.0
H4895 H 0.40901 0.00564 0.72184 0.0
C4896 C 0.37059 0.02179 0.65186 0.0
C4897 C 0.35934 0.02339 0.66191 0.0
C4898 C 0.3839 0.01577 0.65629 0.0
C4899 C 0.38588 0.01077 0.67066 0.0
C4900 C 0.3743 0.01193 0.68044 0.0
C4901 C 0.3613 0.01839 0.67616 0.0
C4902 C 0.40034 0.00573 0.67609 0.0
C4903 C 0.4059 0.01186 0.68939 0.0
C4904 C 0.40896 0.99572 0.66815 0.0
C4905 C 0.40339 0.98788 0.65465 0.0
C4906 C 0.39002 0.97994 0.65461 0.0
C4907 C 0.38495 0.97238 0.64194 0.0
C4908 C 0.39319 0.97262 0.62925 0.0
C4909 C 0.40653 0.9804 0.62921 0.0
C4910 C 0.41164 0.98798 0.64184 0.0
C4911 C 0.4625 0.99221 0.70981 0.0
C4912 C 0.47332 0.99838 0.7011 0.0
C4913 C 0.44793 0.99152 0.70471 0.0
C4914 C 0.44417 0.99701 0.69088 0.0
C4915 C 0.4552 0.00234 0.6819 0.0
C4916 C 0.46967 0.00308 0.68701 0.0
C4917 C 0.42873 0.99923 0.6865 0.0
C4918 C 0.42316 0.99277 0.67339 0.0
C4919 C 0.41992 0.00873 0.69467 0.0
C4920 C 0.42527 0.01609 0.70845 0.0
C4921 C 0.43732 0.02594 0.70848 0.0
C4922 C 0.44251 0.03254 0.72161 0.0
C4923 C 0.43564 0.02947 0.73473 0.0
C4924 C 0.42353 0.01983 0.73475 0.0
C4925 C 0.41833 0.01318 0.72166 0.0
H4926 H 0.43967 0.03458 0.74489 0.0
H4927 H 0.38926 0.96674 0.61947 0.0
H4928 H 0.64069 0.64727 0.36287 0.0
H4929 H 0.64649 0.6214 0.36494 0.0
H4930 H 0.67676 0.62524 0.32965 0.0
H4931 H 0.67062 0.651 0.32715 0.0
H4932 H 0.66211 0.59979 0.32695 0.0
H4933 H 0.68862 0.62541 0.36572 0.0
H4934 H 0.69228 0.64174 0.38742 0.0
H4935 H 0.66356 0.6142 0.4119 0.0
H4936 H 0.65956 0.59781 0.39026 0.0
H4937 H 0.70863 0.53994 0.34428 0.0
H4938 H 0.69788 0.56374 0.33953 0.0
H4939 H 0.66406 0.55457 0.37036 0.0
H4940 H 0.67471 0.53058 0.37503 0.0
H4941 H 0.67901 0.58196 0.37522 0.0
H4942 H 0.65458 0.55504 0.33591 0.0
H4943 H 0.65285 0.5386 0.31414 0.0
H4944 H 0.67967 0.56861 0.29041 0.0
H4945 H 0.68179 0.58513 0.31213 0.0
C4946 C 0.64843 0.6426 0.35538 0.0
C4947 C 0.65523 0.65136 0.34489 0.0
C4948 C 0.65185 0.62779 0.35668 0.0
C4949 C 0.66225 0.62133 0.3476 0.0
C4950 C 0.66876 0.62992 0.33685 0.0
C4951 C 0.66533 0.64473 0.33553 0.0
C4952 C 0.66663 0.60578 0.34958 0.0
C4953 C 0.66593 0.59595 0.33748 0.0
C4954 C 0.67141 0.60057 0.36335 0.0
C4955 C 0.67364 0.6105 0.37632 0.0
C4956 C 0.68296 0.62292 0.37569 0.0
C4957 C 0.68513 0.63217 0.38799 0.0
C4958 C 0.67812 0.62904 0.40102 0.0
C4959 C 0.66895 0.61664 0.40179 0.0
C4960 C 0.66673 0.60736 0.38951 0.0
C4961 C 0.69881 0.54292 0.34993 0.0
C4962 C 0.69254 0.53339 0.36008 0.0
C4963 C 0.69263 0.55651 0.34715 0.0
C4964 C 0.68014 0.56096 0.35456 0.0
C4965 C 0.67368 0.55136 0.36449 0.0
C4966 C 0.67973 0.53763 0.3671 0.0
C4967 C 0.67448 0.57601 0.35263 0.0
C4968 C 0.67503 0.58577 0.36473 0.0
C4969 C 0.66976 0.58115 0.33883 0.0
C4970 C 0.66849 0.57125 0.32573 0.0
C4971 C 0.66026 0.55806 0.32612 0.0
C4972 C 0.65921 0.54873 0.31378 0.0
C4973 C 0.66623 0.55251 0.30094 0.0
C4974 C 0.67428 0.56567 0.30039 0.0
C4975 C 0.67541 0.57503 0.31271 0.0
H4976 H 0.66535 0.54529 0.29138 0.0
H4977 H 0.67982 0.6362 0.41053 0.0
H4978 H 0.64211 0.36777 0.01951 0.0
H4979 H 0.64945 0.39185 0.0102 0.0
H4980 H 0.69479 0.37954 0.0129 0.0
H4981 H 0.68749 0.35633 0.02321 0.0
H4982 H 0.69301 0.40417 0.02458 0.0
H4983 H 0.6728 0.3831 0.97927 0.0
H4984 H 0.65372 0.37182 0.96283 0.0
H4985 H 0.62661 0.40909 0.96936 0.0
H4986 H 0.64543 0.4205 0.98601 0.0
H4987 H 0.72479 0.46653 0.99512 0.0
H4988 H 0.71649 0.44074 0.99521 0.0
H4989 H 0.67155 0.45436 0.99562 0.0
H4990 H 0.67985 0.47996 0.99465 0.0
H4991 H 0.67284 0.42916 0.9812 0.0
H4992 H 0.69218 0.44877 0.02791 0.0
H4993 H 0.71142 0.46043 0.04393 0.0
H4994 H 0.74028 0.42522 0.0342 0.0
H4995 H 0.72126 0.41346 0.01798 0.0
C4996 C 0.65362 0.37034 0.01812 0.0
C4997 C 0.66431 0.36031 0.02225 0.0
C4998 C 0.65781 0.38399 0.01263 0.0
C4999 C 0.67271 0.38753 0.01072 0.0
C5000 C 0.68325 0.3772 0.01436 0.0
C5001 C 0.6791 0.36389 0.02026 0.0
C5002 C 0.67771 0.40234 0.00625 0.0
C5003 C 0.68874 0.40944 0.0149 0.0
C5004 C 0.67185 0.40954 0.99392 0.0
C5005 C 0.66047 0.40259 0.98401 0.0
C5006 C 0.66271 0.38883 0.97731 0.0
C5007 C 0.65195 0.38243 0.96793 0.0
C5008 C 0.63895 0.38972 0.96508 0.0
C5009 C 0.63668 0.40344 0.97159 0.0
C5010 C 0.64739 0.40988 0.981 0.0
C5011 C 0.71317 0.46389 0.99482 0.0
C5012 C 0.70292 0.47504 0.99493 0.0
C5013 C 0.70842 0.44923 0.99493 0.0
C5014 C 0.69339 0.44564 0.99579 0.0
C5015 C 0.68316 0.45683 0.99499 0.0
C5016 C 0.6879 0.47143 0.9945 0.0
C5017 C 0.68836 0.4306 0.99932 0.0
C5018 C 0.67721 0.42364 0.99069 0.0
C5019 C 0.69408 0.42341 0.01166 0.0
C5020 C 0.70536 0.43031 0.02168 0.0
C5021 C 0.70264 0.44355 0.02918 0.0
C5022 C 0.71351 0.45017 0.03827 0.0
C5023 C 0.72707 0.44358 0.04006 0.0
C5024 C 0.72977 0.43032 0.0328 0.0
C5025 C 0.71896 0.42367 0.02366 0.0
H5026 H 0.73548 0.44873 0.0471 0.0
H5027 H 0.63064 0.38475 0.9578 0.0
H5028 H 0.23286 0.84305 0.7566 0.0
H5029 H 0.24155 0.86855 0.75412 0.0
H5030 H 0.24337 0.86194 0.70733 0.0
H5031 H 0.23453 0.83663 0.7097 0.0
H5032 H 0.27014 0.87277 0.72236 0.0
H5033 H 0.21878 0.88211 0.71748 0.0
H5034 H 0.19304 0.88163 0.72497 0.0
H5035 H 0.20489 0.90685 0.76386 0.0
H5036 H 0.23077 0.90728 0.7567 0.0
H5037 H 0.28926 0.94067 0.69571 0.0
H5038 H 0.2748 0.91848 0.70008 0.0
H5039 H 0.26817 0.93317 0.7446 0.0
H5040 H 0.28245 0.95579 0.74006 0.0
H5041 H 0.24362 0.91854 0.73277 0.0
H5042 H 0.29491 0.90962 0.7375 0.0
H5043 H 0.32066 0.91013 0.72999 0.0
H5044 H 0.30906 0.88366 0.69186 0.0
H5045 H 0.28319 0.88319 0.69901 0.0
C5046 C 0.23499 0.84712 0.74579 0.0
C5047 C 0.23303 0.83788 0.73334 0.0
C5048 C 0.23985 0.86167 0.74438 0.0
C5049 C 0.24304 0.8671 0.73054 0.0
C5050 C 0.24089 0.85796 0.7181 0.0
C5051 C 0.23581 0.84353 0.71947 0.0
C5052 C 0.24978 0.88188 0.72904 0.0
C5053 C 0.2643 0.88278 0.7245 0.0
C5054 C 0.24227 0.89489 0.73228 0.0
C5055 C 0.22675 0.89455 0.73666 0.0
C5056 C 0.21593 0.88739 0.72772 0.0
C5057 C 0.20131 0.88717 0.73189 0.0
C5058 C 0.19734 0.89416 0.74491 0.0
C5059 C 0.20799 0.90141 0.75379 0.0
C5060 C 0.22264 0.90165 0.74968 0.0
C5061 C 0.28459 0.93924 0.70639 0.0
C5062 C 0.28716 0.94978 0.71764 0.0
C5063 C 0.27633 0.92656 0.70888 0.0
C5064 C 0.2707 0.92398 0.72277 0.0
C5065 C 0.27251 0.93489 0.73383 0.0
C5066 C 0.28066 0.94776 0.73125 0.0
C5067 C 0.26394 0.90943 0.72584 0.0
C5068 C 0.24949 0.90854 0.73073 0.0
C5069 C 0.27152 0.89634 0.723 0.0
C5070 C 0.2871 0.89647 0.71874 0.0
C5071 C 0.29784 0.90399 0.72747 0.0
C5072 C 0.31245 0.90427 0.72327 0.0
C5073 C 0.31649 0.89695 0.71044 0.0
C5074 C 0.30592 0.88933 0.70179 0.0
C5075 C 0.29128 0.88904 0.70591 0.0
H5076 H 0.32781 0.89718 0.70722 0.0
H5077 H 0.186 0.89399 0.74811 0.0
H5078 H 0.41644 0.14382 0.98199 0.0
H5079 H 0.4021 0.12101 0.98011 0.0
H5080 H 0.36291 0.14445 0.98987 0.0
H5081 H 0.37734 0.16731 0.99247 0.0
H5082 H 0.36373 0.11944 0.00451 0.0
H5083 H 0.37012 0.13302 0.95468 0.0
H5084 H 0.38406 0.14054 0.9332 0.0
H5085 H 0.40833 0.10087 0.93479 0.0
H5086 H 0.39466 0.0932 0.9564 0.0
H5087 H 0.31457 0.06112 0.98139 0.0
H5088 H 0.32805 0.08424 0.98544 0.0
H5089 H 0.36805 0.06335 0.97341 0.0
H5090 H 0.35449 0.04044 0.96836 0.0
H5091 H 0.36607 0.08772 0.95989 0.0
H5092 H 0.35961 0.07423 0.01006 0.0
H5093 H 0.34574 0.06706 0.0317 0.0
H5094 H 0.32145 0.10669 0.02956 0.0
H5095 H 0.33505 0.11401 0.00778 0.0
C5096 C 0.4048 0.14415 0.98391 0.0
C5097 C 0.39806 0.15744 0.9874 0.0
C5098 C 0.39657 0.13109 0.98266 0.0
C5099 C 0.38138 0.13103 0.98464 0.0
C5100 C 0.37461 0.14424 0.98823 0.0
C5101 C 0.38286 0.15732 0.98957 0.0
C5102 C 0.37264 0.11714 0.983 0.0
C5103 C 0.36407 0.11259 0.99468 0.0
C5104 C 0.3733 0.10806 0.97029 0.0
C5105 C 0.38145 0.1126 0.95722 0.0
C5106 C 0.3785 0.12594 0.9505 0.0
C5107 C 0.38634 0.13023 0.9383 0.0
C5108 C 0.3971 0.1212 0.93265 0.0
C5109 C 0.4 0.10785 0.93918 0.0
C5110 C 0.3922 0.10353 0.95139 0.0
C5111 C 0.32623 0.06142 0.97953 0.0
C5112 C 0.33338 0.04885 0.97442 0.0
C5113 C 0.33398 0.07464 0.98207 0.0
C5114 C 0.34913 0.07557 0.97987 0.0
C5115 C 0.35637 0.06295 0.9752 0.0
C5116 C 0.3486 0.04977 0.97248 0.0
C5117 C 0.3573 0.08982 0.98151 0.0
C5118 C 0.36572 0.09452 0.96976 0.0
C5119 C 0.35647 0.09902 0.99416 0.0
C5120 C 0.34824 0.09459 0.0072 0.0
C5121 C 0.35122 0.08136 0.01413 0.0
C5122 C 0.34343 0.07728 0.02644 0.0
C5123 C 0.33269 0.0864 0.03198 0.0
C5124 C 0.32975 0.09963 0.02524 0.0
C5125 C 0.33751 0.10375 0.01293 0.0
H5126 H 0.32667 0.08322 0.04151 0.0
H5127 H 0.40316 0.12454 0.9232 0.0
H5128 H 0.32069 0.65722 0.64581 0.0
H5129 H 0.32337 0.6644 0.62032 0.0
H5130 H 0.37032 0.66264 0.62544 0.0
H5131 H 0.36775 0.65582 0.65097 0.0
H5132 H 0.36263 0.68723 0.61229 0.0
H5133 H 0.34984 0.63589 0.60607 0.0
H5134 H 0.33461 0.61349 0.60859 0.0
H5135 H 0.29881 0.6337 0.58618 0.0
H5136 H 0.31377 0.65631 0.5837 0.0
H5137 H 0.38497 0.69045 0.5394 0.0
H5138 H 0.37963 0.68152 0.56371 0.0
H5139 H 0.33342 0.68602 0.55491 0.0
H5140 H 0.33868 0.69524 0.53056 0.0
H5141 H 0.3391 0.66068 0.56967 0.0
H5142 H 0.35093 0.71149 0.57555 0.0
H5143 H 0.36546 0.73424 0.57248 0.0
H5144 H 0.40186 0.71573 0.5955 0.0
H5145 H 0.3876 0.69276 0.59852 0.0
C5146 C 0.3316 0.65839 0.64153 0.0
C5147 C 0.344 0.65591 0.65052 0.0
C5148 C 0.33311 0.66237 0.62688 0.0
C5149 C 0.34706 0.66396 0.62084 0.0
C5150 C 0.35943 0.66145 0.62978 0.0
C5151 C 0.35794 0.65743 0.64439 0.0
C5152 C 0.34887 0.66876 0.60543 0.0
C5153 C 0.35762 0.68128 0.60299 0.0
C5154 C 0.34192 0.66138 0.59323 0.0
C5155 C 0.33287 0.64786 0.59486 0.0
C5156 C 0.33867 0.63562 0.60182 0.0
C5157 C 0.3301 0.62287 0.60321 0.0
C5158 C 0.31574 0.62219 0.59759 0.0
C5159 C 0.30993 0.63425 0.59055 0.0
C5160 C 0.31845 0.64703 0.58915 0.0
C5161 C 0.37365 0.68961 0.5426 0.0
C5162 C 0.36229 0.69378 0.53299 0.0
C5163 C 0.37061 0.68444 0.55653 0.0
C5164 C 0.35612 0.68329 0.56128 0.0
C5165 C 0.34469 0.68682 0.55153 0.0
C5166 C 0.34773 0.69206 0.53756 0.0
C5167 C 0.35309 0.67893 0.5766 0.0
C5168 C 0.34407 0.6666 0.57901 0.0
C5169 C 0.35965 0.68655 0.58882 0.0
C5170 C 0.36824 0.70036 0.58714 0.0
C5171 C 0.36207 0.71223 0.57986 0.0
C5172 C 0.37025 0.72517 0.57814 0.0
C5173 C 0.38459 0.72642 0.58376 0.0
C5174 C 0.39076 0.71474 0.59114 0.0
C5175 C 0.38263 0.70176 0.59287 0.0
H5176 H 0.39091 0.73644 0.58242 0.0
H5177 H 0.30913 0.6123 0.59866 0.0
H5178 H 0.00839 0.67345 0.35079 0.0
H5179 H 0.99839 0.68105 0.37433 0.0
H5180 H 0.03351 0.65926 0.3967 0.0
H5181 H 0.04359 0.65184 0.37286 0.0
H5182 H 0.00206 0.65468 0.40752 0.0
H5183 H 0.03838 0.69293 0.39553 0.0
H5184 H 0.04897 0.71174 0.37969 0.0
H5185 H 0.00753 0.73293 0.37716 0.0
H5186 H 0.99672 0.71421 0.393 0.0
H5187 H 0.01621 0.68451 0.47682 0.0
H5188 H 0.01488 0.67499 0.45167 0.0
H5189 H 0.98377 0.70802 0.4404 0.0
H5190 H 0.98495 0.71751 0.46593 0.0
H5191 H 0.00698 0.7073 0.42207 0.0
H5192 H 0.97206 0.67412 0.43812 0.0
H5193 H 0.95951 0.65644 0.45378 0.0
H5194 H 0.99403 0.62597 0.44759 0.0
H5195 H 0.00697 0.64357 0.43209 0.0
C5196 C 0.01382 0.67026 0.36076 0.0
C5197 C 0.0266 0.66211 0.36012 0.0
C5198 C 0.00816 0.67455 0.37414 0.0
C5199 C 0.01518 0.67062 0.38719 0.0
C5200 C 0.02791 0.66227 0.38667 0.0
C5201 C 0.0337 0.65815 0.37315 0.0
C5202 C 0.00968 0.67606 0.4013 0.0
C5203 C 0.00324 0.66613 0.41085 0.0
C5204 C 0.01034 0.69114 0.40509 0.0
C5205 C 0.01674 0.70214 0.39532 0.0
C5206 C 0.03152 0.70154 0.39149 0.0
C5207 C 0.03757 0.71223 0.38259 0.0
C5208 C 0.02894 0.72355 0.37746 0.0
C5209 C 0.01421 0.72418 0.38118 0.0
C5210 C 0.00813 0.71356 0.39014 0.0
C5211 C 0.00906 0.6897 0.46897 0.0
C5212 C 0.0009 0.70188 0.47311 0.0
C5213 C 0.00814 0.68415 0.45469 0.0
C5214 C 0.99911 0.6907 0.44423 0.0
C5215 C 0.99072 0.70276 0.44838 0.0
C5216 C 0.99145 0.70821 0.46285 0.0
C5217 C 1.00001 0.68582 0.42876 0.0
C5218 C 0.00552 0.69585 0.41879 0.0
C5219 C 0.99812 0.67089 0.4245 0.0
C5220 C 0.99056 0.66025 0.434 0.0
C5221 C 0.97708 0.66372 0.44021 0.0
C5222 C 0.96987 0.65369 0.44904 0.0
C5223 C 0.97598 0.6401 0.4517 0.0
C5224 C 0.98932 0.63651 0.44552 0.0
C5225 C 0.99659 0.64651 0.4367 0.0
H5226 H 0.97037 0.63234 0.45852 0.0
H5227 H 0.03364 0.73181 0.37056 0.0
H5228 H 0.74113 0.25712 0.83413 0.0
H5229 H 0.73973 0.26534 0.85959 0.0
H5230 H 0.72922 0.22125 0.87231 0.0
H5231 H 0.73108 0.21273 0.84682 0.0
H5232 H 0.71059 0.24217 0.88413 0.0
H5233 H 0.76177 0.23443 0.88144 0.0
H5234 H 0.78633 0.23621 0.87091 0.0
H5235 H 0.78602 0.28307 0.87578 0.0
H5236 H 0.76136 0.28159 0.88614 0.0
H5237 H 0.71262 0.26867 0.95856 0.0
H5238 H 0.71771 0.25373 0.93675 0.0
H5239 H 0.73474 0.29208 0.91562 0.0
H5240 H 0.73029 0.30689 0.93752 0.0
H5241 H 0.75126 0.26982 0.90985 0.0
H5242 H 0.69892 0.2777 0.90933 0.0
H5243 H 0.67384 0.27616 0.9187 0.0
H5244 H 0.67598 0.22925 0.91922 0.0
H5245 H 0.70115 0.23054 0.91003 0.0
C5246 C 0.73884 0.24905 0.84233 0.0
C5247 C 0.73633 0.23421 0.83835 0.0
C5248 C 0.73795 0.25381 0.8569 0.0
C5249 C 0.73448 0.24389 0.86786 0.0
C5250 C 0.73191 0.22908 0.86401 0.0
C5251 C 0.73293 0.22426 0.84941 0.0
C5252 C 0.73317 0.24924 0.88322 0.0
C5253 C 0.71956 0.24796 0.88992 0.0
C5254 C 0.74482 0.25694 0.89065 0.0
C5255 C 0.75967 0.2579 0.88448 0.0
C5256 C 0.76689 0.24512 0.88017 0.0
C5257 C 0.78084 0.24608 0.87425 0.0
C5258 C 0.78772 0.25975 0.87266 0.0
C5259 C 0.78068 0.27249 0.87702 0.0
C5260 C 0.76672 0.2716 0.88293 0.0
C5261 C 0.71774 0.27386 0.94938 0.0
C5262 C 0.72098 0.28901 0.94978 0.0
C5263 C 0.72046 0.26533 0.93684 0.0
C5264 C 0.72638 0.27181 0.92442 0.0
C5265 C 0.73011 0.28682 0.92501 0.0
C5266 C 0.72746 0.2953 0.93753 0.0
C5267 C 0.72852 0.26322 0.91063 0.0
C5268 C 0.74233 0.26385 0.90421 0.0
C5269 C 0.71702 0.25497 0.90345 0.0
C5270 C 0.70199 0.25423 0.9092 0.0
C5271 C 0.6941 0.26707 0.9116 0.0
C5272 C 0.67986 0.26624 0.91684 0.0
C5273 C 0.67334 0.25262 0.9196 0.0
C5274 C 0.68105 0.2398 0.91711 0.0
C5275 C 0.69531 0.24057 0.91189 0.0
H5276 H 0.66231 0.252 0.92364 0.0
H5277 H 0.79852 0.26047 0.86807 0.0
H5278 H 0.97296 0.37121 0.16751 0.0
H5279 H 0.97114 0.36209 0.14223 0.0
H5280 H 0.99832 0.39827 0.1286 0.0
H5281 H 1.00041 0.40742 0.15406 0.0
H5282 H 0.97435 0.39141 0.10902 0.0
H5283 H 0.01411 0.36752 0.13213 0.0
H5284 H 0.02657 0.35422 0.15182 0.0
H5285 H 0.99601 0.31809 0.14553 0.0
H5286 H 0.98319 0.33129 0.12596 0.0
H5287 H 0.98367 0.35174 0.04034 0.0
H5288 H 0.98913 0.36576 0.06312 0.0
H5289 H 0.96464 0.33386 0.08729 0.0
H5290 H 0.95887 0.32005 0.06473 0.0
H5291 H 0.99124 0.34075 0.10033 0.0
H5292 H 0.95018 0.36612 0.07887 0.0
H5293 H 0.93767 0.37973 0.05943 0.0
H5294 H 0.97133 0.41333 0.06243 0.0
H5295 H 0.98417 0.39978 0.08176 0.0
C5296 C 0.97859 0.37724 0.15917 0.0
C5297 C 0.98703 0.38991 0.16285 0.0
C5298 C 0.97747 0.37205 0.14471 0.0
C5299 C 0.98478 0.3794 0.1336 0.0
C5300 C 0.99263 0.39244 0.13705 0.0
C5301 C 0.99379 0.39765 0.15158 0.0
C5302 C 0.98471 0.37286 0.1186 0.0
C5303 C 0.97829 0.38045 0.10702 0.0
C5304 C 0.98983 0.35855 0.11604 0.0
C5305 C 0.99763 0.35044 0.12764 0.0
C5306 C 0.00999 0.35678 0.13501 0.0
C5307 C 0.01712 0.34925 0.14614 0.0
C5308 C 0.01207 0.33532 0.14994 0.0
C5309 C 0.9999 0.32888 0.14258 0.0
C5310 C 0.99271 0.33637 0.13145 0.0
C5311 C 0.97935 0.34779 0.0505 0.0
C5312 C 0.97091 0.3347 0.05069 0.0
C5313 C 0.98253 0.35578 0.0635 0.0
C5314 C 0.97729 0.35084 0.07689 0.0
C5315 C 0.9689 0.33781 0.07709 0.0
C5316 C 0.96568 0.32988 0.06416 0.0
C5317 C 0.98042 0.35908 0.09082 0.0
C5318 C 0.9875 0.3518 0.10224 0.0
C5319 C 0.97598 0.37368 0.09315 0.0
C5320 C 0.96822 0.38185 0.08162 0.0
C5321 C 0.95498 0.37634 0.07529 0.0
C5322 C 0.94782 0.38406 0.06431 0.0
C5323 C 0.95373 0.39736 0.05966 0.0
C5324 C 0.96679 0.403 0.06602 0.0
C5325 C 0.97401 0.39531 0.07699 0.0
H5326 H 0.94816 0.40332 0.05116 0.0
H5327 H 0.0176 0.32952 0.15857 0.0
loop_
_geom_bond_atom_site_label_1
_geom_bond_atom_site_label_2
_geom_bond_distance
_geom_bond_site_symmetry_2
_ccdc_geom_bond_type
C0 C1 1.264 . S
C0 C5 1.479 . S
C0 C10 1.465 . S
C1 C0 1.264 . S
C1 C3 1.339 . S
C1 H28 0.931 . S
C2 C3 1.395 . S
C2 C4 1.320 . S
C3 C1 1.339 . S
C3 C2 1.395 . S
C3 H29 0.929 . S
C4 C2 1.320 . S
C4 C5 1.405 . S
C4 H30 0.930 . S
C5 C0 1.479 . S
C5 C4 1.405 . S
C5 H31 0.931 . S
U6 O7 2.454 . S
U6 O8 2.458 . S
U6 C9 2.984 . S
U6 C10 2.847 . S
U6 C23 2.882 . S
U6 O24 2.441 . S
U6 O25 2.420 . S
U6 O26 2.455 . S
U6 O27 2.449 . S
O7 U6 2.454 . S
O7 C9 1.353 . S
O8 U6 2.458 . S
O8 C9 1.286 . S
C9 U6 2.984 . S
C9 O7 1.353 . S
C9 O8 1.286 . S
C9 C11 1.363 . S
C10 C0 1.465 . S
C10 U6 2.847 . S
C10 O24 1.249 . S
C10 O25 1.202 . S
C11 C9 1.363 . S
C11 C13 1.408 . S
C11 C16 1.342 . S
C12 C13 1.310 . S
C12 C15 1.461 . S
C12 H32 0.932 . S
C13 C11 1.408 . S
C13 C12 1.310 . S
C13 H33 0.930 . S
C14 C15 1.474 . S
C14 C16 1.285 . S
C14 H34 0.929 . S
C15 C12 1.461 . S
C15 C14 1.474 . S
C16 C11 1.342 . S
C16 C14 1.285 . S
C16 H35 0.930 . S
C17 C20 1.424 . S
C17 C22 1.245 . S
C17 C23 1.428 . S
C18 C21 1.260 . S
C18 C22 1.477 . S
C18 H36 0.932 . S
C19 C20 1.384 . S
C19 C21 1.479 . S
C19 H37 0.929 . S
C20 C17 1.424 . S
C20 C19 1.384 . S
C20 H38 0.928 . S
C21 C18 1.260 . S
C21 C19 1.479 . S
C22 C17 1.245 . S
C22 C18 1.477 . S
C22 H39 0.932 . S
C23 U6 2.882 . S
C23 C17 1.428 . S
C23 O26 1.301 . S
C23 O27 1.282 . S
O24 U6 2.441 . S
O24 C10 1.249 . S
O25 U6 2.420 . S
O25 C10 1.202 . S
O26 U6 2.455 . S
O26 C23 1.301 . S
O27 U6 2.449 . S
O27 C23 1.282 . S
H28 C1 0.931 . S
H29 C3 0.929 . S
H30 C4 0.930 . S
H31 C5 0.931 . S
H32 C12 0.932 . S
H33 C13 0.930 . S
H34 C14 0.929 . S
H35 C16 0.930 . S
H36 C18 0.932 . S
H37 C19 0.929 . S
H38 C20 0.928 . S
H39 C22 0.932 . S
C40 C41 1.264 . S
C40 C45 1.479 . S
C40 C50 1.465 . S
C41 C40 1.264 . S
C41 C43 1.339 . S
C41 H68 0.931 . S
C42 C43 1.395 . S
C42 C44 1.320 . S
C43 C41 1.339 . S
C43 C42 1.395 . S
C43 H69 0.929 . S
C44 C42 1.320 . S
C44 C45 1.405 . S
C44 H70 0.930 . S
C45 C40 1.479 . S
C45 C44 1.405 . S
C45 H71 0.931 . S
U46 O47 2.454 . S
U46 O48 2.458 . S
U46 C49 2.984 . S
U46 C50 2.847 . S
U46 C63 2.882 . S
U46 O64 2.441 . S
U46 O65 2.420 . S
U46 O66 2.455 . S
U46 O67 2.449 . S
O47 U46 2.454 . S
O47 C49 1.353 . S
O48 U46 2.458 . S
O48 C49 1.286 . S
C49 U46 2.984 . S
C49 O47 1.353 . S
C49 O48 1.286 . S
C49 C51 1.363 . S
C50 C40 1.465 . S
C50 U46 2.847 . S
C50 O64 1.249 . S
C50 O65 1.202 . S
C51 C49 1.363 . S
C51 C53 1.408 . S
C51 C56 1.342 . S
C52 C53 1.310 . S
C52 C55 1.461 . S
C52 H72 0.932 . S
C53 C51 1.408 . S
C53 C52 1.310 . S
C53 H73 0.930 . S
C54 C55 1.474 . S
C54 C56 1.285 . S
C54 H74 0.929 . S
C55 C52 1.461 . S
C55 C54 1.474 . S
C56 C51 1.342 . S
C56 C54 1.285 . S
C56 H75 0.930 . S
C57 C60 1.424 . S
C57 C62 1.245 . S
C57 C63 1.428 . S
C58 C61 1.260 . S
C58 C62 1.477 . S
C58 H76 0.932 . S
C59 C60 1.384 . S
C59 C61 1.479 . S
C59 H77 0.929 . S
C60 C57 1.424 . S
C60 C59 1.384 . S
C60 H78 0.928 . S
C61 C58 1.260 . S
C61 C59 1.479 . S
C62 C57 1.245 . S
C62 C58 1.477 . S
C62 H79 0.932 . S
C63 U46 2.882 . S
C63 C57 1.428 . S
C63 O66 1.301 . S
C63 O67 1.282 . S
O64 U46 2.441 . S
O64 C50 1.249 . S
O65 U46 2.420 . S
O65 C50 1.202 . S
O66 U46 2.455 . S
O66 C63 1.301 . S
O67 U46 2.449 . S
O67 C63 1.282 . S
H68 C41 0.931 . S
H69 C43 0.929 . S
H70 C44 0.930 . S
H71 C45 0.931 . S
H72 C52 0.932 . S
H73 C53 0.930 . S
H74 C54 0.929 . S
H75 C56 0.930 . S
H76 C58 0.932 . S
H77 C59 0.929 . S
H78 C60 0.928 . S
H79 C62 0.932 . S
C80 C81 1.264 . S
C80 C85 1.474 1_565 S
C80 C90 1.473 . S
C81 C80 1.264 . S
C81 C83 1.338 1_565 S
C81 H108 0.932 . S
C82 C83 1.395 . S
C82 C84 1.320 . S
C83 C81 1.338 1_545 S
C83 C82 1.395 . S
C83 H109 0.929 . S
C84 C82 1.320 . S
C84 C85 1.405 . S
C84 H110 0.930 . S
C85 C80 1.474 1_545 S
C85 C84 1.405 . S
C85 H111 0.931 . S
U86 O87 2.454 . S
U86 O88 2.458 . S
U86 C89 2.984 . S
U86 C90 2.847 . S
U86 C103 2.882 . S
U86 O104 2.441 . S
U86 O105 2.420 . S
U86 O106 2.455 . S
U86 O107 2.449 . S
O87 U86 2.454 . S
O87 C89 1.353 . S
O88 U86 2.458 . S
O88 C89 1.286 . S
C89 U86 2.984 . S
C89 O87 1.353 . S
C89 O88 1.286 . S
C89 C91 1.363 . S
C90 C80 1.473 . S
C90 U86 2.847 . S
C90 O104 1.249 . S
C90 O105 1.202 . S
C91 C89 1.363 . S
C91 C93 1.408 . S
C91 C96 1.342 . S
C92 C93 1.310 . S
C92 C95 1.461 . S
C92 H112 0.932 . S
C93 C91 1.408 . S
C93 C92 1.310 . S
C93 H113 0.930 . S
C94 C95 1.474 . S
C94 C96 1.285 . S
C94 H114 0.929 . S
C95 C92 1.461 . S
C95 C94 1.474 . S
C96 C91 1.342 . S
C96 C94 1.285 . S
C96 H115 0.930 . S
C97 C100 1.424 . S
C97 C102 1.245 . S
C97 C103 1.428 . S
C98 C101 1.260 . S
C98 C102 1.477 . S
C98 H116 0.932 . S
C99 C100 1.384 . S
C99 C101 1.479 . S
C99 H117 0.929 . S
C100 C97 1.424 . S
C100 C99 1.384 . S
C100 H118 0.928 . S
C101 C98 1.260 . S
C101 C99 1.479 . S
C102 C97 1.245 . S
C102 C98 1.477 . S
C102 H119 0.932 . S
C103 U86 2.882 . S
C103 C97 1.428 . S
C103 O106 1.301 . S
C103 O107 1.282 . S
O104 U86 2.441 . S
O104 C90 1.249 . S
O105 U86 2.420 . S
O105 C90 1.202 . S
O106 U86 2.455 . S
O106 C103 1.301 . S
O107 U86 2.449 . S
O107 C103 1.282 . S
H108 C81 0.932 . S
H109 C83 0.929 . S
H110 C84 0.930 . S
H111 C85 0.931 . S
H112 C92 0.932 . S
H113 C93 0.930 . S
H114 C94 0.929 . S
H115 C96 0.930 . S
H116 C98 0.932 . S
H117 C99 0.929 . S
H118 C100 0.928 . S
H119 C102 0.932 . S
C120 C121 1.264 . S
C120 C125 1.479 . S
C120 C130 1.465 . S
C121 C120 1.264 . S
C121 C123 1.339 . S
C121 H148 0.931 . S
C122 C123 1.395 . S
C122 C124 1.320 . S
C123 C121 1.339 . S
C123 C122 1.395 . S
C123 H149 0.929 . S
C124 C122 1.320 . S
C124 C125 1.405 . S
C124 H150 0.907 1_545 S
C125 C120 1.479 . S
C125 C124 1.405 . S
C125 H151 0.931 . S
U126 O127 2.467 . S
U126 O128 2.458 . S
U126 C129 2.984 1_545 S
U126 C130 2.847 . S
U126 C143 2.882 . S
U126 O144 2.441 . S
U126 O145 2.420 . S
U126 O146 2.455 . S
U126 O147 2.449 . S
O127 U126 2.467 . S
O127 C129 1.352 1_545 S
O128 U126 2.458 . S
O128 C129 1.286 1_545 S
C129 U126 2.984 1_565 S
C129 O127 1.352 1_565 S
C129 O128 1.286 1_565 S
C129 C131 1.363 . S
C130 C120 1.465 . S
C130 U126 2.847 . S
C130 O144 1.249 . S
C130 O145 1.202 . S
C131 C129 1.363 . S
C131 C133 1.408 . S
C131 C136 1.342 . S
C132 C133 1.310 . S
C132 C135 1.461 . S
C132 H152 0.932 . S
C133 C131 1.408 . S
C133 C132 1.310 . S
C133 H153 0.930 . S
C134 C135 1.474 . S
C134 C136 1.285 . S
C134 H154 0.929 . S
C135 C132 1.461 . S
C135 C134 1.474 . S
C136 C131 1.342 . S
C136 C134 1.285 . S
C136 H155 0.930 . S
C137 C140 1.424 . S
C137 C142 1.245 . S
C137 C143 1.428 . S
C138 C141 1.260 . S
C138 C142 1.477 . S
C138 H156 0.932 . S
C139 C140 1.384 . S
C139 C141 1.479 . S
C139 H157 0.929 . S
C140 C137 1.424 . S
C140 C139 1.384 . S
C140 H158 0.928 . S
C141 C138 1.260 . S
C141 C139 1.479 . S
C142 C137 1.245 . S
C142 C138 1.477 . S
C142 H159 0.932 . S
C143 U126 2.882 . S
C143 C137 1.428 . S
C143 O146 1.301 . S
C143 O147 1.282 . S
O144 U126 2.441 . S
O144 C130 1.249 . S
O145 U126 2.420 . S
O145 C130 1.202 . S
O146 U126 2.455 . S
O146 C143 1.301 . S
O147 U126 2.449 . S
O147 C143 1.282 . S
H148 C121 0.931 . S
H149 C123 0.929 . S
H150 C124 0.907 1_565 S
H151 C125 0.931 . S
H152 C132 0.932 . S
H153 C133 0.930 . S
H154 C134 0.929 . S
H155 C136 0.930 . S
H156 C138 0.932 . S
H157 C139 0.929 . S
H158 C140 0.928 . S
H159 C142 0.932 . S
C160 C161 1.264 . S
C160 C165 1.479 . S
C160 C170 1.465 . S
C161 C160 1.264 . S
C161 C163 1.339 . S
C161 H188 0.931 . S
C162 C163 1.395 . S
C162 C164 1.320 . S
C163 C161 1.339 . S
C163 C162 1.395 . S
C163 H189 0.929 . S
C164 C162 1.320 . S
C164 C165 1.405 . S
C164 H190 0.930 . S
C165 C160 1.479 . S
C165 C164 1.405 . S
C165 H191 0.931 . S
U166 O167 2.454 . S
U166 O168 2.458 . S
U166 C169 2.984 . S
U166 C170 2.847 . S
U166 C183 2.882 . S
U166 O184 2.441 . S
U166 O185 2.420 . S
U166 O186 2.455 . S
U166 O187 2.449 . S
O167 U166 2.454 . S
O167 C169 1.353 . S
O168 U166 2.458 . S
O168 C169 1.286 . S
C169 U166 2.984 . S
C169 O167 1.353 . S
C169 O168 1.286 . S
C169 C171 1.363 . S
C170 C160 1.465 . S
C170 U166 2.847 . S
C170 O184 1.249 . S
C170 O185 1.202 . S
C171 C169 1.363 . S
C171 C173 1.408 . S
C171 C176 1.342 . S
C172 C173 1.310 . S
C172 C175 1.461 . S
C172 H192 0.932 . S
C173 C171 1.408 . S
C173 C172 1.310 . S
C173 H193 0.930 . S
C174 C175 1.474 . S
C174 C176 1.285 . S
C174 H194 0.929 . S
C175 C172 1.461 . S
C175 C174 1.474 . S
C176 C171 1.342 . S
C176 C174 1.285 . S
C176 H195 0.930 . S
C177 C180 1.424 . S
C177 C182 1.245 . S
C177 C183 1.428 . S
C178 C181 1.260 . S
C178 C182 1.477 . S
C178 H196 0.932 . S
C179 C180 1.384 . S
C179 C181 1.479 . S
C179 H197 0.929 . S
C180 C177 1.424 . S
C180 C179 1.384 . S
C180 H198 0.928 . S
C181 C178 1.260 . S
C181 C179 1.479 . S
C182 C177 1.245 . S
C182 C178 1.477 . S
C182 H199 0.932 . S
C183 U166 2.882 . S
C183 C177 1.428 . S
C183 O186 1.301 . S
C183 O187 1.282 . S
O184 U166 2.441 . S
O184 C170 1.249 . S
O185 U166 2.420 . S
O185 C170 1.202 . S
O186 U166 2.455 . S
O186 C183 1.301 . S
O187 U166 2.449 . S
O187 C183 1.282 . S
H188 C161 0.931 . S
H189 C163 0.929 . S
H190 C164 0.930 . S
H191 C165 0.931 . S
H192 C172 0.932 . S
H193 C173 0.930 . S
H194 C174 0.929 . S
H195 C176 0.930 . S
H196 C178 0.932 . S
H197 C179 0.929 . S
H198 C180 0.928 . S
H199 C182 0.932 . S
C200 C201 1.264 . S
C200 C205 1.479 . S
C200 C210 1.465 . S
C201 C200 1.264 . S
C201 C203 1.339 . S
C201 H228 0.931 . S
C202 C203 1.395 . S
C202 C204 1.320 . S
C203 C201 1.339 . S
C203 C202 1.395 . S
C203 H229 0.929 . S
C204 C202 1.320 . S
C204 C205 1.405 . S
C204 H230 0.907 1_554 S
C205 C200 1.479 . S
C205 C204 1.405 . S
C205 H231 0.931 . S
U206 O207 2.467 . S
U206 O208 2.458 . S
U206 C209 2.984 1_554 S
U206 C210 2.847 . S
U206 C223 2.882 . S
U206 O224 2.441 . S
U206 O225 2.420 . S
U206 O226 2.455 . S
U206 O227 2.449 . S
O207 U206 2.467 . S
O207 C209 1.352 1_554 S
O208 U206 2.458 . S
O208 C209 1.286 1_554 S
C209 U206 2.984 1_556 S
C209 O207 1.352 1_556 S
C209 O208 1.286 1_556 S
C209 C211 1.363 . S
C210 C200 1.465 . S
C210 U206 2.847 . S
C210 O224 1.249 . S
C210 O225 1.202 . S
C211 C209 1.363 . S
C211 C213 1.408 . S
C211 C216 1.342 . S
C212 C213 1.310 . S
C212 C215 1.461 . S
C212 H232 0.932 . S
C213 C211 1.408 . S
C213 C212 1.310 . S
C213 H233 0.930 . S
C214 C215 1.474 . S
C214 C216 1.285 . S
C214 H234 0.929 . S
C215 C212 1.461 . S
C215 C214 1.474 . S
C216 C211 1.342 . S
C216 C214 1.285 . S
C216 H235 0.930 . S
C217 C220 1.424 . S
C217 C222 1.245 . S
C217 C223 1.428 . S
C218 C221 1.260 . S
C218 C222 1.477 . S
C218 H236 0.932 . S
C219 C220 1.384 . S
C219 C221 1.479 . S
C219 H237 0.929 . S
C220 C217 1.424 . S
C220 C219 1.384 . S
C220 H238 0.928 . S
C221 C218 1.260 . S
C221 C219 1.479 . S
C222 C217 1.245 . S
C222 C218 1.477 . S
C222 H239 0.932 . S
C223 U206 2.882 . S
C223 C217 1.428 . S
C223 O226 1.301 . S
C223 O227 1.282 . S
O224 U206 2.441 . S
O224 C210 1.249 . S
O225 U206 2.420 . S
O225 C210 1.202 . S
O226 U206 2.455 . S
O226 C223 1.301 . S
O227 U206 2.449 . S
O227 C223 1.282 . S
H228 C201 0.931 . S
H229 C203 0.929 . S
H230 C204 0.907 1_556 S
H231 C205 0.931 . S
H232 C212 0.932 . S
H233 C213 0.930 . S
H234 C214 0.929 . S
H235 C216 0.930 . S
H236 C218 0.932 . S
H237 C219 0.929 . S
H238 C220 0.928 . S
H239 C222 0.932 . S
C240 C241 1.264 . S
C240 C245 1.479 . S
C240 C250 1.465 . S
C241 C240 1.264 . S
C241 C243 1.339 . S
C241 H268 0.931 . S
C242 C243 1.395 . S
C242 C244 1.320 . S
C243 C241 1.339 . S
C243 C242 1.395 . S
C243 H269 0.929 . S
C244 C242 1.320 . S
C244 C245 1.405 . S
C244 H270 0.930 . S
C245 C240 1.479 . S
C245 C244 1.405 . S
C245 H271 0.931 . S
U246 O247 2.454 . S
U246 O248 2.458 . S
U246 C249 2.984 . S
U246 C250 2.847 . S
U246 C263 2.882 . S
U246 O264 2.441 . S
U246 O265 2.420 . S
U246 O266 2.455 . S
U246 O267 2.449 . S
O247 U246 2.454 . S
O247 C249 1.353 . S
O248 U246 2.458 . S
O248 C249 1.286 . S
C249 U246 2.984 . S
C249 O247 1.353 . S
C249 O248 1.286 . S
C249 C251 1.363 . S
C250 C240 1.465 . S
C250 U246 2.847 . S
C250 O264 1.249 . S
C250 O265 1.202 . S
C251 C249 1.363 . S
C251 C253 1.408 . S
C251 C256 1.342 . S
C252 C253 1.310 . S
C252 C255 1.461 . S
C252 H272 0.932 . S
C253 C251 1.408 . S
C253 C252 1.310 . S
C253 H273 0.930 . S
C254 C255 1.474 . S
C254 C256 1.285 . S
C254 H274 0.929 . S
C255 C252 1.461 . S
C255 C254 1.474 . S
C256 C251 1.342 . S
C256 C254 1.285 . S
C256 H275 0.930 . S
C257 C260 1.424 . S
C257 C262 1.245 . S
C257 C263 1.428 . S
C258 C261 1.260 . S
C258 C262 1.477 . S
C258 H276 0.932 . S
C259 C260 1.384 . S
C259 C261 1.479 . S
C259 H277 0.929 . S
C260 C257 1.424 . S
C260 C259 1.384 . S
C260 H278 0.928 . S
C261 C258 1.260 . S
C261 C259 1.479 . S
C262 C257 1.245 . S
C262 C258 1.477 . S
C262 H279 0.932 . S
C263 U246 2.882 . S
C263 C257 1.428 . S
C263 O266 1.301 . S
C263 O267 1.282 . S
O264 U246 2.441 . S
O264 C250 1.249 . S
O265 U246 2.420 . S
O265 C250 1.202 . S
O266 U246 2.455 . S
O266 C263 1.301 . S
O267 U246 2.449 . S
O267 C263 1.282 . S
H268 C241 0.931 . S
H269 C243 0.929 . S
H270 C244 0.930 . S
H271 C245 0.931 . S
H272 C252 0.932 . S
H273 C253 0.930 . S
H274 C254 0.929 . S
H275 C256 0.930 . S
H276 C258 0.932 . S
H277 C259 0.929 . S
H278 C260 0.928 . S
H279 C262 0.932 . S
C280 C281 1.264 . S
C280 C285 1.474 1_556 S
C280 C290 1.473 . S
C281 C280 1.264 . S
C281 C283 1.338 1_556 S
C281 H308 0.932 . S
C282 C283 1.395 . S
C282 C284 1.320 . S
C283 C281 1.338 1_554 S
C283 C282 1.395 . S
C283 H309 0.929 . S
C284 C282 1.320 . S
C284 C285 1.405 . S
C284 H310 0.930 . S
C285 C280 1.474 1_554 S
C285 C284 1.405 . S
C285 H311 0.931 . S
U286 O287 2.454 . S
U286 O288 2.458 . S
U286 C289 2.984 . S
U286 C290 2.847 . S
U286 C303 2.882 . S
U286 O304 2.441 . S
U286 O305 2.420 . S
U286 O306 2.455 . S
U286 O307 2.449 . S
O287 U286 2.454 . S
O287 C289 1.353 . S
O288 U286 2.458 . S
O288 C289 1.286 . S
C289 U286 2.984 . S
C289 O287 1.353 . S
C289 O288 1.286 . S
C289 C291 1.363 . S
C290 C280 1.473 . S
C290 U286 2.847 . S
C290 O304 1.249 . S
C290 O305 1.202 . S
C291 C289 1.363 . S
C291 C293 1.408 . S
C291 C296 1.342 . S
C292 C293 1.310 . S
C292 C295 1.461 . S
C292 H312 0.932 . S
C293 C291 1.408 . S
C293 C292 1.310 . S
C293 H313 0.930 . S
C294 C295 1.474 . S
C294 C296 1.285 . S
C294 H314 0.929 . S
C295 C292 1.461 . S
C295 C294 1.474 . S
C296 C291 1.342 . S
C296 C294 1.285 . S
C296 H315 0.930 . S
C297 C300 1.424 . S
C297 C302 1.245 . S
C297 C303 1.428 . S
C298 C301 1.260 . S
C298 C302 1.477 . S
C298 H316 0.932 . S
C299 C300 1.384 . S
C299 C301 1.479 . S
C299 H317 0.929 . S
C300 C297 1.424 . S
C300 C299 1.384 . S
C300 H318 0.928 . S
C301 C298 1.260 . S
C301 C299 1.479 . S
C302 C297 1.245 . S
C302 C298 1.477 . S
C302 H319 0.932 . S
C303 U286 2.882 . S
C303 C297 1.428 . S
C303 O306 1.301 . S
C303 O307 1.282 . S
O304 U286 2.441 . S
O304 C290 1.249 . S
O305 U286 2.420 . S
O305 C290 1.202 . S
O306 U286 2.455 . S
O306 C303 1.301 . S
O307 U286 2.449 . S
O307 C303 1.282 . S
H308 C281 0.932 . S
H309 C283 0.929 . S
H310 C284 0.930 . S
H311 C285 0.931 . S
H312 C292 0.932 . S
H313 C293 0.930 . S
H314 C294 0.929 . S
H315 C296 0.930 . S
H316 C298 0.932 . S
H317 C299 0.929 . S
H318 C300 0.928 . S
H319 C302 0.932 . S
C320 C321 1.264 . S
C320 C325 1.479 . S
C320 C330 1.465 . S
C321 C320 1.264 . S
C321 C323 1.339 . S
C321 H348 0.931 . S
C322 C323 1.395 . S
C322 C324 1.320 . S
C323 C321 1.339 . S
C323 C322 1.395 . S
C323 H349 0.929 . S
C324 C322 1.320 . S
C324 C325 1.405 . S
C324 H350 0.930 . S
C325 C320 1.479 . S
C325 C324 1.405 . S
C325 H351 0.931 . S
U326 O327 2.454 . S
U326 O328 2.458 . S
U326 C329 2.984 . S
U326 C330 2.847 . S
U326 C343 2.882 . S
U326 O344 2.441 . S
U326 O345 2.420 . S
U326 O346 2.455 . S
U326 O347 2.449 . S
O327 U326 2.454 . S
O327 C329 1.353 . S
O328 U326 2.458 . S
O328 C329 1.286 . S
C329 U326 2.984 . S
C329 O327 1.353 . S
C329 O328 1.286 . S
C329 C331 1.363 . S
C330 C320 1.465 . S
C330 U326 2.847 . S
C330 O344 1.249 . S
C330 O345 1.202 . S
C331 C329 1.363 . S
C331 C333 1.408 . S
C331 C336 1.342 . S
C332 C333 1.310 . S
C332 C335 1.461 . S
C332 H352 0.932 . S
C333 C331 1.408 . S
C333 C332 1.310 . S
C333 H353 0.930 . S
C334 C335 1.474 . S
C334 C336 1.285 . S
C334 H354 0.929 . S
C335 C332 1.461 . S
C335 C334 1.474 . S
C336 C331 1.342 . S
C336 C334 1.285 . S
C336 H355 0.930 . S
C337 C340 1.424 . S
C337 C342 1.245 . S
C337 C343 1.428 . S
C338 C341 1.260 . S
C338 C342 1.477 . S
C338 H356 0.932 . S
C339 C340 1.384 . S
C339 C341 1.479 . S
C339 H357 0.929 . S
C340 C337 1.424 . S
C340 C339 1.384 . S
C340 H358 0.928 . S
C341 C338 1.260 . S
C341 C339 1.479 . S
C342 C337 1.245 . S
C342 C338 1.477 . S
C342 H359 0.932 . S
C343 U326 2.882 . S
C343 C337 1.428 . S
C343 O346 1.301 . S
C343 O347 1.282 . S
O344 U326 2.441 . S
O344 C330 1.249 . S
O345 U326 2.420 . S
O345 C330 1.202 . S
O346 U326 2.455 . S
O346 C343 1.301 . S
O347 U326 2.449 . S
O347 C343 1.282 . S
H348 C321 0.931 . S
H349 C323 0.929 . S
H350 C324 0.930 . S
H351 C325 0.931 . S
H352 C332 0.932 . S
H353 C333 0.930 . S
H354 C334 0.929 . S
H355 C336 0.930 . S
H356 C338 0.932 . S
H357 C339 0.929 . S
H358 C340 0.928 . S
H359 C342 0.932 . S
C360 C361 1.264 . S
C360 C365 1.479 . S
C360 C370 1.465 . S
C361 C360 1.264 . S
C361 C363 1.339 . S
C361 H388 0.931 . S
C362 C363 1.395 . S
C362 C364 1.320 . S
C363 C361 1.339 . S
C363 C362 1.395 . S
C363 H389 0.929 . S
C364 C362 1.320 . S
C364 C365 1.405 . S
C364 H390 0.907 1_455 S
C365 C360 1.479 . S
C365 C364 1.405 . S
C365 H391 0.931 . S
U366 O367 2.467 . S
U366 O368 2.458 . S
U366 C369 2.984 1_455 S
U366 C370 2.847 . S
U366 C383 2.882 . S
U366 O384 2.441 . S
U366 O385 2.420 . S
U366 O386 2.455 . S
U366 O387 2.449 . S
O367 U366 2.467 . S
O367 C369 1.352 1_455 S
O368 U366 2.458 . S
O368 C369 1.286 1_455 S
C369 U366 2.984 1_655 S
C369 O367 1.352 1_655 S
C369 O368 1.286 1_655 S
C369 C371 1.363 . S
C370 C360 1.465 . S
C370 U366 2.847 . S
C370 O384 1.249 . S
C370 O385 1.202 . S
C371 C369 1.363 . S
C371 C373 1.408 . S
C371 C376 1.342 . S
C372 C373 1.310 . S
C372 C375 1.461 . S
C372 H392 0.932 . S
C373 C371 1.408 . S
C373 C372 1.310 . S
C373 H393 0.930 . S
C374 C375 1.474 . S
C374 C376 1.285 . S
C374 H394 0.929 . S
C375 C372 1.461 . S
C375 C374 1.474 . S
C376 C371 1.342 . S
C376 C374 1.285 . S
C376 H395 0.930 . S
C377 C380 1.424 . S
C377 C382 1.245 . S
C377 C383 1.428 . S
C378 C381 1.260 . S
C378 C382 1.477 . S
C378 H396 0.932 . S
C379 C380 1.384 . S
C379 C381 1.479 . S
C379 H397 0.929 . S
C380 C377 1.424 . S
C380 C379 1.384 . S
C380 H398 0.928 . S
C381 C378 1.260 . S
C381 C379 1.479 . S
C382 C377 1.245 . S
C382 C378 1.477 . S
C382 H399 0.932 . S
C383 U366 2.882 . S
C383 C377 1.428 . S
C383 O386 1.301 . S
C383 O387 1.282 . S
O384 U366 2.441 . S
O384 C370 1.249 . S
O385 U366 2.420 . S
O385 C370 1.202 . S
O386 U366 2.455 . S
O386 C383 1.301 . S
O387 U366 2.449 . S
O387 C383 1.282 . S
H388 C361 0.931 . S
H389 C363 0.929 . S
H390 C364 0.907 1_655 S
H391 C365 0.931 . S
H392 C372 0.932 . S
H393 C373 0.930 . S
H394 C374 0.929 . S
H395 C376 0.930 . S
H396 C378 0.932 . S
H397 C379 0.929 . S
H398 C380 0.928 . S
H399 C382 0.932 . S
C400 C401 1.264 . S
C400 C405 1.479 . S
C400 C410 1.465 . S
C401 C400 1.264 . S
C401 C403 1.339 . S
C401 H428 0.931 . S
C402 C403 1.395 . S
C402 C404 1.320 . S
C403 C401 1.339 . S
C403 C402 1.395 . S
C403 H429 0.929 . S
C404 C402 1.320 . S
C404 C405 1.405 . S
C404 H430 0.930 . S
C405 C400 1.479 . S
C405 C404 1.405 . S
C405 H431 0.931 . S
U406 O407 2.454 . S
U406 O408 2.458 . S
U406 C409 2.984 . S
U406 C410 2.847 . S
U406 C423 2.882 . S
U406 O424 2.441 . S
U406 O425 2.420 . S
U406 O426 2.455 . S
U406 O427 2.449 . S
O407 U406 2.454 . S
O407 C409 1.353 . S
O408 U406 2.458 . S
O408 C409 1.286 . S
C409 U406 2.984 . S
C409 O407 1.353 . S
C409 O408 1.286 . S
C409 C411 1.363 . S
C410 C400 1.465 . S
C410 U406 2.847 . S
C410 O424 1.249 . S
C410 O425 1.202 . S
C411 C409 1.363 . S
C411 C413 1.408 . S
C411 C416 1.342 . S
C412 C413 1.310 . S
C412 C415 1.461 . S
C412 H432 0.932 . S
C413 C411 1.408 . S
C413 C412 1.310 . S
C413 H433 0.930 . S
C414 C415 1.474 . S
C414 C416 1.285 . S
C414 H434 0.929 . S
C415 C412 1.461 . S
C415 C414 1.474 . S
C416 C411 1.342 . S
C416 C414 1.285 . S
C416 H435 0.930 . S
C417 C420 1.424 . S
C417 C422 1.245 . S
C417 C423 1.428 . S
C418 C421 1.260 . S
C418 C422 1.477 . S
C418 H436 0.932 . S
C419 C420 1.384 . S
C419 C421 1.479 . S
C419 H437 0.929 . S
C420 C417 1.424 . S
C420 C419 1.384 . S
C420 H438 0.928 . S
C421 C418 1.260 . S
C421 C419 1.479 . S
C422 C417 1.245 . S
C422 C418 1.477 . S
C422 H439 0.932 . S
C423 U406 2.882 . S
C423 C417 1.428 . S
C423 O426 1.301 . S
C423 O427 1.282 . S
O424 U406 2.441 . S
O424 C410 1.249 . S
O425 U406 2.420 . S
O425 C410 1.202 . S
O426 U406 2.455 . S
O426 C423 1.301 . S
O427 U406 2.449 . S
O427 C423 1.282 . S
H428 C401 0.931 . S
H429 C403 0.929 . S
H430 C404 0.930 . S
H431 C405 0.931 . S
H432 C412 0.932 . S
H433 C413 0.930 . S
H434 C414 0.929 . S
H435 C416 0.930 . S
H436 C418 0.932 . S
H437 C419 0.929 . S
H438 C420 0.928 . S
H439 C422 0.932 . S
C440 C441 1.264 . S
C440 C445 1.474 1_655 S
C440 C450 1.473 . S
C441 C440 1.264 . S
C441 C443 1.338 1_655 S
C441 H468 0.932 . S
C442 C443 1.395 . S
C442 C444 1.320 . S
C443 C441 1.338 1_455 S
C443 C442 1.395 . S
C443 H469 0.929 . S
C444 C442 1.320 . S
C444 C445 1.405 . S
C444 H470 0.930 . S
C445 C440 1.474 1_455 S
C445 C444 1.405 . S
C445 H471 0.931 . S
U446 O447 2.454 . S
U446 O448 2.458 . S
U446 C449 2.984 . S
U446 C450 2.847 . S
U446 C463 2.882 . S
U446 O464 2.441 . S
U446 O465 2.420 . S
U446 O466 2.455 . S
U446 O467 2.449 . S
O447 U446 2.454 . S
O447 C449 1.353 . S
O448 U446 2.458 . S
O448 C449 1.286 . S
C449 U446 2.984 . S
C449 O447 1.353 . S
C449 O448 1.286 . S
C449 C451 1.363 . S
C450 C440 1.473 . S
C450 U446 2.847 . S
C450 O464 1.249 . S
C450 O465 1.202 . S
C451 C449 1.363 . S
C451 C453 1.408 . S
C451 C456 1.342 . S
C452 C453 1.310 . S
C452 C455 1.461 . S
C452 H472 0.932 . S
C453 C451 1.408 . S
C453 C452 1.310 . S
C453 H473 0.930 . S
C454 C455 1.474 . S
C454 C456 1.285 . S
C454 H474 0.929 . S
C455 C452 1.461 . S
C455 C454 1.474 . S
C456 C451 1.342 . S
C456 C454 1.285 . S
C456 H475 0.930 . S
C457 C460 1.424 . S
C457 C462 1.245 . S
C457 C463 1.428 . S
C458 C461 1.260 . S
C458 C462 1.477 . S
C458 H476 0.932 . S
C459 C460 1.384 . S
C459 C461 1.479 . S
C459 H477 0.929 . S
C460 C457 1.424 . S
C460 C459 1.384 . S
C460 H478 0.928 . S
C461 C458 1.260 . S
C461 C459 1.479 . S
C462 C457 1.245 . S
C462 C458 1.477 . S
C462 H479 0.932 . S
C463 U446 2.882 . S
C463 C457 1.428 . S
C463 O466 1.301 . S
C463 O467 1.282 . S
O464 U446 2.441 . S
O464 C450 1.249 . S
O465 U446 2.420 . S
O465 C450 1.202 . S
O466 U446 2.455 . S
O466 C463 1.301 . S
O467 U446 2.449 . S
O467 C463 1.282 . S
H468 C441 0.932 . S
H469 C443 0.929 . S
H470 C444 0.930 . S
H471 C445 0.931 . S
H472 C452 0.932 . S
H473 C453 0.930 . S
H474 C454 0.929 . S
H475 C456 0.930 . S
H476 C458 0.932 . S
H477 C459 0.929 . S
H478 C460 0.928 . S
H479 C462 0.932 . S
C480 C481 1.264 . S
C480 C485 1.479 . S
C480 C490 1.465 . S
C481 C480 1.264 . S
C481 C483 1.339 . S
C481 H508 0.931 . S
C482 C483 1.395 . S
C482 C484 1.320 . S
C483 C481 1.339 . S
C483 C482 1.395 . S
C483 H509 0.929 . S
C484 C482 1.320 . S
C484 C485 1.405 . S
C484 H510 0.930 . S
C485 C480 1.479 . S
C485 C484 1.405 . S
C485 H511 0.931 . S
U486 O487 2.454 . S
U486 O488 2.458 . S
U486 C489 2.984 . S
U486 C490 2.847 . S
U486 C503 2.882 . S
U486 O504 2.441 . S
U486 O505 2.420 . S
U486 O506 2.455 . S
U486 O507 2.449 . S
O487 U486 2.454 . S
O487 C489 1.353 . S
O488 U486 2.458 . S
O488 C489 1.286 . S
C489 U486 2.984 . S
C489 O487 1.353 . S
C489 O488 1.286 . S
C489 C491 1.363 . S
C490 C480 1.465 . S
C490 U486 2.847 . S
C490 O504 1.249 . S
C490 O505 1.202 . S
C491 C489 1.363 . S
C491 C493 1.408 . S
C491 C496 1.342 . S
C492 C493 1.310 . S
C492 C495 1.461 . S
C492 H512 0.932 . S
C493 C491 1.408 . S
C493 C492 1.310 . S
C493 H513 0.930 . S
C494 C495 1.474 . S
C494 C496 1.285 . S
C494 H514 0.929 . S
C495 C492 1.461 . S
C495 C494 1.474 . S
C496 C491 1.342 . S
C496 C494 1.285 . S
C496 H515 0.930 . S
C497 C500 1.424 . S
C497 C502 1.245 . S
C497 C503 1.428 . S
C498 C501 1.260 . S
C498 C502 1.477 . S
C498 H516 0.932 . S
C499 C500 1.384 . S
C499 C501 1.479 . S
C499 H517 0.929 . S
C500 C497 1.424 . S
C500 C499 1.384 . S
C500 H518 0.928 . S
C501 C498 1.260 . S
C501 C499 1.479 . S
C502 C497 1.245 . S
C502 C498 1.477 . S
C502 H519 0.932 . S
C503 U486 2.882 . S
C503 C497 1.428 . S
C503 O506 1.301 . S
C503 O507 1.282 . S
O504 U486 2.441 . S
O504 C490 1.249 . S
O505 U486 2.420 . S
O505 C490 1.202 . S
O506 U486 2.455 . S
O506 C503 1.301 . S
O507 U486 2.449 . S
O507 C503 1.282 . S
H508 C481 0.931 . S
H509 C483 0.929 . S
H510 C484 0.930 . S
H511 C485 0.931 . S
H512 C492 0.932 . S
H513 C493 0.930 . S
H514 C494 0.929 . S
H515 C496 0.930 . S
H516 C498 0.932 . S
H517 C499 0.929 . S
H518 C500 0.928 . S
H519 C502 0.932 . S
C520 C521 1.264 . S
C520 C525 1.479 . S
C520 C530 1.465 . S
C521 C520 1.264 . S
C521 C523 1.339 . S
C521 H548 0.931 . S
C522 C523 1.395 . S
C522 C524 1.320 . S
C523 C521 1.339 . S
C523 C522 1.395 . S
C523 H549 0.929 . S
C524 C522 1.320 . S
C524 C525 1.405 . S
C524 H550 0.930 . S
C525 C520 1.479 . S
C525 C524 1.405 . S
C525 H551 0.931 . S
U526 O527 2.454 . S
U526 O528 2.458 . S
U526 C529 2.984 . S
U526 C530 2.847 . S
U526 C543 2.882 . S
U526 O544 2.441 . S
U526 O545 2.420 . S
U526 O546 2.455 . S
U526 O547 2.449 . S
O527 U526 2.454 . S
O527 C529 1.353 . S
O528 U526 2.458 . S
O528 C529 1.286 . S
C529 U526 2.984 . S
C529 O527 1.353 . S
C529 O528 1.286 . S
C529 C531 1.363 . S
C530 C520 1.465 . S
C530 U526 2.847 . S
C530 O544 1.249 . S
C530 O545 1.202 . S
C531 C529 1.363 . S
C531 C533 1.408 . S
C531 C536 1.342 . S
C532 C533 1.310 . S
C532 C535 1.461 . S
C532 H552 0.932 . S
C533 C531 1.408 . S
C533 C532 1.310 . S
C533 H553 0.930 . S
C534 C535 1.474 . S
C534 C536 1.285 . S
C534 H554 0.929 . S
C535 C532 1.461 . S
C535 C534 1.474 . S
C536 C531 1.342 . S
C536 C534 1.285 . S
C536 H555 0.930 . S
C537 C540 1.424 . S
C537 C542 1.245 . S
C537 C543 1.428 . S
C538 C541 1.260 . S
C538 C542 1.477 . S
C538 H556 0.932 . S
C539 C540 1.384 . S
C539 C541 1.479 . S
C539 H557 0.929 . S
C540 C537 1.424 . S
C540 C539 1.384 . S
C540 H558 0.928 . S
C541 C538 1.260 . S
C541 C539 1.479 . S
C542 C537 1.245 . S
C542 C538 1.477 . S
C542 H559 0.932 . S
C543 U526 2.882 . S
C543 C537 1.428 . S
C543 O546 1.301 . S
C543 O547 1.282 . S
O544 U526 2.441 . S
O544 C530 1.249 . S
O545 U526 2.420 . S
O545 C530 1.202 . S
O546 U526 2.455 . S
O546 C543 1.301 . S
O547 U526 2.449 . S
O547 C543 1.282 . S
H548 C521 0.931 . S
H549 C523 0.929 . S
H550 C524 0.930 . S
H551 C525 0.931 . S
H552 C532 0.932 . S
H553 C533 0.930 . S
H554 C534 0.929 . S
H555 C536 0.930 . S
H556 C538 0.932 . S
H557 C539 0.929 . S
H558 C540 0.928 . S
H559 C542 0.932 . S
C560 C561 1.264 . S
C560 C565 1.479 . S
C560 C570 1.465 . S
C561 C560 1.264 . S
C561 C563 1.339 . S
C561 H588 0.931 . S
C562 C563 1.395 . S
C562 C564 1.320 . S
C563 C561 1.339 . S
C563 C562 1.395 . S
C563 H589 0.929 . S
C564 C562 1.320 . S
C564 C565 1.405 . S
C564 H590 0.930 . S
C565 C560 1.479 . S
C565 C564 1.405 . S
C565 H591 0.931 . S
U566 O567 2.454 . S
U566 O568 2.458 . S
U566 C569 2.984 . S
U566 C570 2.847 . S
U566 C583 2.882 . S
U566 O584 2.441 . S
U566 O585 2.420 . S
U566 O586 2.455 . S
U566 O587 2.449 . S
O567 U566 2.454 . S
O567 C569 1.353 . S
O568 U566 2.458 . S
O568 C569 1.286 . S
C569 U566 2.984 . S
C569 O567 1.353 . S
C569 O568 1.286 . S
C569 C571 1.359 1_565 S
C570 C560 1.465 . S
C570 U566 2.847 . S
C570 O584 1.249 . S
C570 O585 1.202 . S
C571 C569 1.359 1_545 S
C571 C573 1.407 1_545 S
C571 C576 1.349 . S
C572 C573 1.308 1_545 S
C572 C575 1.461 . S
C572 H592 0.932 . S
C573 C571 1.407 1_565 S
C573 C572 1.308 1_565 S
C573 H593 0.933 . S
C574 C575 1.474 . S
C574 C576 1.285 . S
C574 H594 0.929 . S
C575 C572 1.461 . S
C575 C574 1.474 . S
C576 C571 1.349 . S
C576 C574 1.285 . S
C576 H595 0.930 . S
C577 C580 1.424 . S
C577 C582 1.245 . S
C577 C583 1.428 . S
C578 C581 1.271 . S
C578 C582 1.469 1_545 S
C578 H596 0.935 . S
C579 C580 1.384 . S
C579 C581 1.479 1_565 S
C579 H597 0.929 . S
C580 C577 1.424 . S
C580 C579 1.384 . S
C580 H598 0.928 . S
C581 C578 1.271 . S
C581 C579 1.479 1_545 S
C582 C577 1.245 . S
C582 C578 1.469 1_565 S
C582 H599 0.937 . S
C583 U566 2.882 . S
C583 C577 1.428 . S
C583 O586 1.301 . S
C583 O587 1.282 . S
O584 U566 2.441 . S
O584 C570 1.249 . S
O585 U566 2.420 . S
O585 C570 1.202 . S
O586 U566 2.455 . S
O586 C583 1.301 . S
O587 U566 2.449 . S
O587 C583 1.282 . S
H588 C561 0.931 . S
H589 C563 0.929 . S
H590 C564 0.930 . S
H591 C565 0.931 . S
H592 C572 0.932 . S
H593 C573 0.933 . S
H594 C574 0.929 . S
H595 C576 0.930 . S
H596 C578 0.935 . S
H597 C579 0.929 . S
H598 C580 0.928 . S
H599 C582 0.937 . S
C600 C601 1.264 . S
C600 C605 1.479 . S
C600 C610 1.465 . S
C601 C600 1.264 . S
C601 C603 1.339 . S
C601 H628 0.931 . S
C602 C603 1.392 1_565 S
C602 C604 1.317 1_565 S
C603 C601 1.339 . S
C603 C602 1.392 1_545 S
C603 H629 0.929 . S
C604 C602 1.317 1_545 S
C604 C605 1.405 . S
C604 H630 0.931 1_545 S
C605 C600 1.479 . S
C605 C604 1.405 . S
C605 H631 0.931 . S
U606 O607 2.454 . S
U606 O608 2.458 . S
U606 C609 2.984 . S
U606 C610 2.847 . S
U606 C623 2.882 . S
U606 O624 2.441 . S
U606 O625 2.420 . S
U606 O626 2.455 . S
U606 O627 2.449 . S
O607 U606 2.454 . S
O607 C609 1.353 . S
O608 U606 2.458 . S
O608 C609 1.286 . S
C609 U606 2.984 . S
C609 O607 1.353 . S
C609 O608 1.286 . S
C609 C611 1.363 . S
C610 C600 1.465 . S
C610 U606 2.847 . S
C610 O624 1.249 . S
C610 O625 1.202 . S
C611 C609 1.363 . S
C611 C613 1.408 . S
C611 C616 1.342 . S
C612 C613 1.310 . S
C612 C615 1.461 . S
C612 H632 0.932 . S
C613 C611 1.408 . S
C613 C612 1.310 . S
C613 H633 0.930 . S
C614 C615 1.474 . S
C614 C616 1.285 . S
C614 H634 0.929 . S
C615 C612 1.461 . S
C615 C614 1.474 . S
C616 C611 1.342 . S
C616 C614 1.285 . S
C616 H635 0.930 . S
C617 C620 1.405 1_545 S
C617 C622 1.245 . S
C617 C623 1.428 . S
C618 C621 1.288 . S
C618 C622 1.461 1_565 S
C618 H636 0.926 1_565 S
C619 C620 1.398 . S
C619 C621 1.479 . S
C619 H637 0.929 . S
C620 C617 1.405 1_565 S
C620 C619 1.398 . S
C620 H638 0.937 . S
C621 C618 1.288 . S
C621 C619 1.479 . S
C622 C617 1.245 . S
C622 C618 1.461 1_545 S
C622 H639 0.932 . S
C623 U606 2.882 . S
C623 C617 1.428 . S
C623 O626 1.301 . S
C623 O627 1.282 . S
O624 U606 2.441 . S
O624 C610 1.249 . S
O625 U606 2.420 . S
O625 C610 1.202 . S
O626 U606 2.455 . S
O626 C623 1.301 . S
O627 U606 2.449 . S
O627 C623 1.282 . S
H628 C601 0.931 . S
H629 C603 0.929 . S
H630 C604 0.931 1_565 S
H631 C605 0.931 . S
H632 C612 0.932 . S
H633 C613 0.930 . S
H634 C614 0.929 . S
H635 C616 0.930 . S
H636 C618 0.926 1_545 S
H637 C619 0.929 . S
H638 C620 0.937 . S
H639 C622 0.932 . S
C640 C641 1.264 . S
C640 C645 1.479 . S
C640 C650 1.465 . S
C641 C640 1.264 . S
C641 C643 1.339 . S
C641 H668 0.931 . S
C642 C643 1.395 . S
C642 C644 1.320 . S
C643 C641 1.339 . S
C643 C642 1.395 . S
C643 H669 0.929 . S
C644 C642 1.320 . S
C644 C645 1.405 . S
C644 H670 0.930 . S
C645 C640 1.479 . S
C645 C644 1.405 . S
C645 H671 0.931 . S
U646 O647 2.454 . S
U646 O648 2.458 . S
U646 C649 2.984 . S
U646 C650 2.847 . S
U646 C663 2.882 . S
U646 O664 2.441 . S
U646 O665 2.420 . S
U646 O666 2.455 . S
U646 O667 2.449 . S
O647 U646 2.454 . S
O647 C649 1.353 . S
O648 U646 2.458 . S
O648 C649 1.286 . S
C649 U646 2.984 . S
C649 O647 1.353 . S
C649 O648 1.286 . S
C649 C651 1.363 . S
C650 C640 1.465 . S
C650 U646 2.847 . S
C650 O664 1.249 . S
C650 O665 1.202 . S
C651 C649 1.363 . S
C651 C653 1.408 . S
C651 C656 1.342 . S
C652 C653 1.310 . S
C652 C655 1.461 . S
C652 H672 0.932 . S
C653 C651 1.408 . S
C653 C652 1.310 . S
C653 H673 0.930 . S
C654 C655 1.474 . S
C654 C656 1.285 . S
C654 H674 0.929 . S
C655 C652 1.461 . S
C655 C654 1.474 . S
C656 C651 1.342 . S
C656 C654 1.285 . S
C656 H675 0.930 . S
C657 C660 1.424 . S
C657 C662 1.245 . S
C657 C663 1.428 . S
C658 C661 1.260 . S
C658 C662 1.477 . S
C658 H676 0.932 . S
C659 C660 1.384 . S
C659 C661 1.479 . S
C659 H677 0.929 . S
C660 C657 1.424 . S
C660 C659 1.384 . S
C660 H678 0.928 . S
C661 C658 1.260 . S
C661 C659 1.479 . S
C662 C657 1.245 . S
C662 C658 1.477 . S
C662 H679 0.932 . S
C663 U646 2.882 . S
C663 C657 1.428 . S
C663 O666 1.301 . S
C663 O667 1.282 . S
O664 U646 2.441 . S
O664 C650 1.249 . S
O665 U646 2.420 . S
O665 C650 1.202 . S
O666 U646 2.455 . S
O666 C663 1.301 . S
O667 U646 2.449 . S
O667 C663 1.282 . S
H668 C641 0.931 . S
H669 C643 0.929 . S
H670 C644 0.930 . S
H671 C645 0.931 . S
H672 C652 0.932 . S
H673 C653 0.930 . S
H674 C654 0.929 . S
H675 C656 0.930 . S
H676 C658 0.932 . S
H677 C659 0.929 . S
H678 C660 0.928 . S
H679 C662 0.932 . S
C680 C681 1.264 . S
C680 C685 1.479 . S
C680 C690 1.465 . S
C681 C680 1.264 . S
C681 C683 1.339 . S
C681 H708 0.931 . S
C682 C683 1.392 1_556 S
C682 C684 1.317 1_556 S
C683 C681 1.339 . S
C683 C682 1.392 1_554 S
C683 H709 0.929 . S
C684 C682 1.317 1_554 S
C684 C685 1.405 . S
C684 H710 0.931 1_554 S
C685 C680 1.479 . S
C685 C684 1.405 . S
C685 H711 0.931 . S
U686 O687 2.454 . S
U686 O688 2.458 . S
U686 C689 2.984 . S
U686 C690 2.847 . S
U686 C703 2.882 . S
U686 O704 2.441 . S
U686 O705 2.420 . S
U686 O706 2.455 . S
U686 O707 2.449 . S
O687 U686 2.454 . S
O687 C689 1.353 . S
O688 U686 2.458 . S
O688 C689 1.286 . S
C689 U686 2.984 . S
C689 O687 1.353 . S
C689 O688 1.286 . S
C689 C691 1.363 . S
C690 C680 1.465 . S
C690 U686 2.847 . S
C690 O704 1.249 . S
C690 O705 1.202 . S
C691 C689 1.363 . S
C691 C693 1.408 . S
C691 C696 1.342 . S
C692 C693 1.310 . S
C692 C695 1.461 . S
C692 H712 0.932 . S
C693 C691 1.408 . S
C693 C692 1.310 . S
C693 H713 0.930 . S
C694 C695 1.474 . S
C694 C696 1.285 . S
C694 H714 0.929 . S
C695 C692 1.461 . S
C695 C694 1.474 . S
C696 C691 1.342 . S
C696 C694 1.285 . S
C696 H715 0.930 . S
C697 C700 1.405 1_554 S
C697 C702 1.245 . S
C697 C703 1.428 . S
C698 C701 1.288 . S
C698 C702 1.461 1_556 S
C698 H716 0.926 1_556 S
C699 C700 1.398 . S
C699 C701 1.479 . S
C699 H717 0.929 . S
C700 C697 1.405 1_556 S
C700 C699 1.398 . S
C700 H718 0.937 . S
C701 C698 1.288 . S
C701 C699 1.479 . S
C702 C697 1.245 . S
C702 C698 1.461 1_554 S
C702 H719 0.932 . S
C703 U686 2.882 . S
C703 C697 1.428 . S
C703 O706 1.301 . S
C703 O707 1.282 . S
O704 U686 2.441 . S
O704 C690 1.249 . S
O705 U686 2.420 . S
O705 C690 1.202 . S
O706 U686 2.455 . S
O706 C703 1.301 . S
O707 U686 2.449 . S
O707 C703 1.282 . S
H708 C681 0.931 . S
H709 C683 0.929 . S
H710 C684 0.931 1_556 S
H711 C685 0.931 . S
H712 C692 0.932 . S
H713 C693 0.930 . S
H714 C694 0.929 . S
H715 C696 0.930 . S
H716 C698 0.926 1_554 S
H717 C699 0.929 . S
H718 C700 0.937 . S
H719 C702 0.932 . S
C720 C721 1.264 . S
C720 C725 1.479 . S
C720 C730 1.465 . S
C721 C720 1.264 . S
C721 C723 1.339 . S
C721 H748 0.931 . S
C722 C723 1.395 . S
C722 C724 1.320 . S
C723 C721 1.339 . S
C723 C722 1.395 . S
C723 H749 0.929 . S
C724 C722 1.320 . S
C724 C725 1.405 . S
C724 H750 0.930 . S
C725 C720 1.479 . S
C725 C724 1.405 . S
C725 H751 0.931 . S
U726 O727 2.454 . S
U726 O728 2.458 . S
U726 C729 2.984 . S
U726 C730 2.847 . S
U726 C743 2.882 . S
U726 O744 2.441 . S
U726 O745 2.420 . S
U726 O746 2.455 . S
U726 O747 2.449 . S
O727 U726 2.454 . S
O727 C729 1.353 . S
O728 U726 2.458 . S
O728 C729 1.286 . S
C729 U726 2.984 . S
C729 O727 1.353 . S
C729 O728 1.286 . S
C729 C731 1.363 . S
C730 C720 1.465 . S
C730 U726 2.847 . S
C730 O744 1.249 . S
C730 O745 1.202 . S
C731 C729 1.363 . S
C731 C733 1.408 . S
C731 C736 1.342 . S
C732 C733 1.310 . S
C732 C735 1.461 . S
C732 H752 0.932 . S
C733 C731 1.408 . S
C733 C732 1.310 . S
C733 H753 0.930 . S
C734 C735 1.474 . S
C734 C736 1.285 . S
C734 H754 0.929 . S
C735 C732 1.461 . S
C735 C734 1.474 . S
C736 C731 1.342 . S
C736 C734 1.285 . S
C736 H755 0.930 . S
C737 C740 1.424 . S
C737 C742 1.245 . S
C737 C743 1.428 . S
C738 C741 1.260 . S
C738 C742 1.477 . S
C738 H756 0.932 . S
C739 C740 1.384 . S
C739 C741 1.479 . S
C739 H757 0.929 . S
C740 C737 1.424 . S
C740 C739 1.384 . S
C740 H758 0.928 . S
C741 C738 1.260 . S
C741 C739 1.479 . S
C742 C737 1.245 . S
C742 C738 1.477 . S
C742 H759 0.932 . S
C743 U726 2.882 . S
C743 C737 1.428 . S
C743 O746 1.301 . S
C743 O747 1.282 . S
O744 U726 2.441 . S
O744 C730 1.249 . S
O745 U726 2.420 . S
O745 C730 1.202 . S
O746 U726 2.455 . S
O746 C743 1.301 . S
O747 U726 2.449 . S
O747 C743 1.282 . S
H748 C721 0.931 . S
H749 C723 0.929 . S
H750 C724 0.930 . S
H751 C725 0.931 . S
H752 C732 0.932 . S
H753 C733 0.930 . S
H754 C734 0.929 . S
H755 C736 0.930 . S
H756 C738 0.932 . S
H757 C739 0.929 . S
H758 C740 0.928 . S
H759 C742 0.932 . S
C760 C761 1.264 . S
C760 C765 1.479 . S
C760 C770 1.465 . S
C761 C760 1.264 . S
C761 C763 1.339 . S
C761 H788 0.931 . S
C762 C763 1.395 . S
C762 C764 1.320 . S
C763 C761 1.339 . S
C763 C762 1.395 . S
C763 H789 0.929 . S
C764 C762 1.320 . S
C764 C765 1.405 . S
C764 H790 0.930 . S
C765 C760 1.479 . S
C765 C764 1.405 . S
C765 H791 0.931 . S
U766 O767 2.454 . S
U766 O768 2.458 . S
U766 C769 2.984 . S
U766 C770 2.847 . S
U766 C783 2.882 . S
U766 O784 2.441 . S
U766 O785 2.420 . S
U766 O786 2.455 . S
U766 O787 2.449 . S
O767 U766 2.454 . S
O767 C769 1.353 . S
O768 U766 2.458 . S
O768 C769 1.286 . S
C769 U766 2.984 . S
C769 O767 1.353 . S
C769 O768 1.286 . S
C769 C771 1.359 1_556 S
C770 C760 1.465 . S
C770 U766 2.847 . S
C770 O784 1.249 . S
C770 O785 1.202 . S
C771 C769 1.359 1_554 S
C771 C773 1.407 1_554 S
C771 C776 1.349 . S
C772 C773 1.308 1_554 S
C772 C775 1.461 . S
C772 H792 0.932 . S
C773 C771 1.407 1_556 S
C773 C772 1.308 1_556 S
C773 H793 0.933 . S
C774 C775 1.474 . S
C774 C776 1.285 . S
C774 H794 0.929 . S
C775 C772 1.461 . S
C775 C774 1.474 . S
C776 C771 1.349 . S
C776 C774 1.285 . S
C776 H795 0.930 . S
C777 C780 1.424 . S
C777 C782 1.245 . S
C777 C783 1.428 . S
C778 C781 1.271 . S
C778 C782 1.469 1_554 S
C778 H796 0.935 . S
C779 C780 1.384 . S
C779 C781 1.479 1_556 S
C779 H797 0.929 . S
C780 C777 1.424 . S
C780 C779 1.384 . S
C780 H798 0.928 . S
C781 C778 1.271 . S
C781 C779 1.479 1_554 S
C782 C777 1.245 . S
C782 C778 1.469 1_556 S
C782 H799 0.937 . S
C783 U766 2.882 . S
C783 C777 1.428 . S
C783 O786 1.301 . S
C783 O787 1.282 . S
O784 U766 2.441 . S
O784 C770 1.249 . S
O785 U766 2.420 . S
O785 C770 1.202 . S
O786 U766 2.455 . S
O786 C783 1.301 . S
O787 U766 2.449 . S
O787 C783 1.282 . S
H788 C761 0.931 . S
H789 C763 0.929 . S
H790 C764 0.930 . S
H791 C765 0.931 . S
H792 C772 0.932 . S
H793 C773 0.933 . S
H794 C774 0.929 . S
H795 C776 0.930 . S
H796 C778 0.935 . S
H797 C779 0.929 . S
H798 C780 0.928 . S
H799 C782 0.937 . S
C800 C801 1.264 . S
C800 C805 1.479 . S
C800 C810 1.465 . S
C801 C800 1.264 . S
C801 C803 1.339 . S
C801 H828 0.931 . S
C802 C803 1.395 . S
C802 C804 1.320 . S
C803 C801 1.339 . S
C803 C802 1.395 . S
C803 H829 0.929 . S
C804 C802 1.320 . S
C804 C805 1.405 . S
C804 H830 0.930 . S
C805 C800 1.479 . S
C805 C804 1.405 . S
C805 H831 0.931 . S
U806 O807 2.454 . S
U806 O808 2.458 . S
U806 C809 2.984 . S
U806 C810 2.847 . S
U806 C823 2.882 . S
U806 O824 2.441 . S
U806 O825 2.420 . S
U806 O826 2.455 . S
U806 O827 2.449 . S
O807 U806 2.454 . S
O807 C809 1.353 . S
O808 U806 2.458 . S
O808 C809 1.286 . S
C809 U806 2.984 . S
C809 O807 1.353 . S
C809 O808 1.286 . S
C809 C811 1.363 . S
C810 C800 1.465 . S
C810 U806 2.847 . S
C810 O824 1.249 . S
C810 O825 1.202 . S
C811 C809 1.363 . S
C811 C813 1.408 . S
C811 C816 1.342 . S
C812 C813 1.310 . S
C812 C815 1.461 . S
C812 H832 0.932 . S
C813 C811 1.408 . S
C813 C812 1.310 . S
C813 H833 0.930 . S
C814 C815 1.474 . S
C814 C816 1.285 . S
C814 H834 0.929 . S
C815 C812 1.461 . S
C815 C814 1.474 . S
C816 C811 1.342 . S
C816 C814 1.285 . S
C816 H835 0.930 . S
C817 C820 1.424 . S
C817 C822 1.245 . S
C817 C823 1.428 . S
C818 C821 1.260 . S
C818 C822 1.477 . S
C818 H836 0.932 . S
C819 C820 1.384 . S
C819 C821 1.479 . S
C819 H837 0.929 . S
C820 C817 1.424 . S
C820 C819 1.384 . S
C820 H838 0.928 . S
C821 C818 1.260 . S
C821 C819 1.479 . S
C822 C817 1.245 . S
C822 C818 1.477 . S
C822 H839 0.932 . S
C823 U806 2.882 . S
C823 C817 1.428 . S
C823 O826 1.301 . S
C823 O827 1.282 . S
O824 U806 2.441 . S
O824 C810 1.249 . S
O825 U806 2.420 . S
O825 C810 1.202 . S
O826 U806 2.455 . S
O826 C823 1.301 . S
O827 U806 2.449 . S
O827 C823 1.282 . S
H828 C801 0.931 . S
H829 C803 0.929 . S
H830 C804 0.930 . S
H831 C805 0.931 . S
H832 C812 0.932 . S
H833 C813 0.930 . S
H834 C814 0.929 . S
H835 C816 0.930 . S
H836 C818 0.932 . S
H837 C819 0.929 . S
H838 C820 0.928 . S
H839 C822 0.932 . S
C840 C841 1.264 . S
C840 C845 1.479 . S
C840 C850 1.465 . S
C841 C840 1.264 . S
C841 C843 1.339 . S
C841 H868 0.931 . S
C842 C843 1.392 1_655 S
C842 C844 1.317 1_655 S
C843 C841 1.339 . S
C843 C842 1.392 1_455 S
C843 H869 0.929 . S
C844 C842 1.317 1_455 S
C844 C845 1.405 . S
C844 H870 0.931 1_455 S
C845 C840 1.479 . S
C845 C844 1.405 . S
C845 H871 0.931 . S
U846 O847 2.454 . S
U846 O848 2.458 . S
U846 C849 2.984 . S
U846 C850 2.847 . S
U846 C863 2.882 . S
U846 O864 2.441 . S
U846 O865 2.420 . S
U846 O866 2.455 . S
U846 O867 2.449 . S
O847 U846 2.454 . S
O847 C849 1.353 . S
O848 U846 2.458 . S
O848 C849 1.286 . S
C849 U846 2.984 . S
C849 O847 1.353 . S
C849 O848 1.286 . S
C849 C851 1.363 . S
C850 C840 1.465 . S
C850 U846 2.847 . S
C850 O864 1.249 . S
C850 O865 1.202 . S
C851 C849 1.363 . S
C851 C853 1.408 . S
C851 C856 1.342 . S
C852 C853 1.310 . S
C852 C855 1.461 . S
C852 H872 0.932 . S
C853 C851 1.408 . S
C853 C852 1.310 . S
C853 H873 0.930 . S
C854 C855 1.474 . S
C854 C856 1.285 . S
C854 H874 0.929 . S
C855 C852 1.461 . S
C855 C854 1.474 . S
C856 C851 1.342 . S
C856 C854 1.285 . S
C856 H875 0.930 . S
C857 C860 1.405 1_455 S
C857 C862 1.245 . S
C857 C863 1.428 . S
C858 C861 1.288 . S
C858 C862 1.461 1_655 S
C858 H876 0.926 1_655 S
C859 C860 1.398 . S
C859 C861 1.479 . S
C859 H877 0.929 . S
C860 C857 1.405 1_655 S
C860 C859 1.398 . S
C860 H878 0.937 . S
C861 C858 1.288 . S
C861 C859 1.479 . S
C862 C857 1.245 . S
C862 C858 1.461 1_455 S
C862 H879 0.932 . S
C863 U846 2.882 . S
C863 C857 1.428 . S
C863 O866 1.301 . S
C863 O867 1.282 . S
O864 U846 2.441 . S
O864 C850 1.249 . S
O865 U846 2.420 . S
O865 C850 1.202 . S
O866 U846 2.455 . S
O866 C863 1.301 . S
O867 U846 2.449 . S
O867 C863 1.282 . S
H868 C841 0.931 . S
H869 C843 0.929 . S
H870 C844 0.931 1_655 S
H871 C845 0.931 . S
H872 C852 0.932 . S
H873 C853 0.930 . S
H874 C854 0.929 . S
H875 C856 0.930 . S
H876 C858 0.926 1_455 S
H877 C859 0.929 . S
H878 C860 0.937 . S
H879 C862 0.932 . S
C880 C881 1.264 . S
C880 C885 1.479 . S
C880 C890 1.465 . S
C881 C880 1.264 . S
C881 C883 1.339 . S
C881 H908 0.931 . S
C882 C883 1.395 . S
C882 C884 1.320 . S
C883 C881 1.339 . S
C883 C882 1.395 . S
C883 H909 0.929 . S
C884 C882 1.320 . S
C884 C885 1.405 . S
C884 H910 0.930 . S
C885 C880 1.479 . S
C885 C884 1.405 . S
C885 H911 0.931 . S
U886 O887 2.454 . S
U886 O888 2.458 . S
U886 C889 2.984 . S
U886 C890 2.847 . S
U886 C903 2.882 . S
U886 O904 2.441 . S
U886 O905 2.420 . S
U886 O906 2.455 . S
U886 O907 2.449 . S
O887 U886 2.454 . S
O887 C889 1.353 . S
O888 U886 2.458 . S
O888 C889 1.286 . S
C889 U886 2.984 . S
C889 O887 1.353 . S
C889 O888 1.286 . S
C889 C891 1.363 . S
C890 C880 1.465 . S
C890 U886 2.847 . S
C890 O904 1.249 . S
C890 O905 1.202 . S
C891 C889 1.363 . S
C891 C893 1.408 . S
C891 C896 1.342 . S
C892 C893 1.310 . S
C892 C895 1.461 . S
C892 H912 0.932 . S
C893 C891 1.408 . S
C893 C892 1.310 . S
C893 H913 0.930 . S
C894 C895 1.474 . S
C894 C896 1.285 . S
C894 H914 0.929 . S
C895 C892 1.461 . S
C895 C894 1.474 . S
C896 C891 1.342 . S
C896 C894 1.285 . S
C896 H915 0.930 . S
C897 C900 1.424 . S
C897 C902 1.245 . S
C897 C903 1.428 . S
C898 C901 1.260 . S
C898 C902 1.477 . S
C898 H916 0.932 . S
C899 C900 1.384 . S
C899 C901 1.479 . S
C899 H917 0.929 . S
C900 C897 1.424 . S
C900 C899 1.384 . S
C900 H918 0.928 . S
C901 C898 1.260 . S
C901 C899 1.479 . S
C902 C897 1.245 . S
C902 C898 1.477 . S
C902 H919 0.932 . S
C903 U886 2.882 . S
C903 C897 1.428 . S
C903 O906 1.301 . S
C903 O907 1.282 . S
O904 U886 2.441 . S
O904 C890 1.249 . S
O905 U886 2.420 . S
O905 C890 1.202 . S
O906 U886 2.455 . S
O906 C903 1.301 . S
O907 U886 2.449 . S
O907 C903 1.282 . S
H908 C881 0.931 . S
H909 C883 0.929 . S
H910 C884 0.930 . S
H911 C885 0.931 . S
H912 C892 0.932 . S
H913 C893 0.930 . S
H914 C894 0.929 . S
H915 C896 0.930 . S
H916 C898 0.932 . S
H917 C899 0.929 . S
H918 C900 0.928 . S
H919 C902 0.932 . S
C920 C921 1.264 . S
C920 C925 1.479 . S
C920 C930 1.465 . S
C921 C920 1.264 . S
C921 C923 1.339 . S
C921 H948 0.931 . S
C922 C923 1.395 . S
C922 C924 1.320 . S
C923 C921 1.339 . S
C923 C922 1.395 . S
C923 H949 0.929 . S
C924 C922 1.320 . S
C924 C925 1.405 . S
C924 H950 0.930 . S
C925 C920 1.479 . S
C925 C924 1.405 . S
C925 H951 0.931 . S
U926 O927 2.454 . S
U926 O928 2.458 . S
U926 C929 2.984 . S
U926 C930 2.847 . S
U926 C943 2.882 . S
U926 O944 2.441 . S
U926 O945 2.420 . S
U926 O946 2.455 . S
U926 O947 2.449 . S
O927 U926 2.454 . S
O927 C929 1.353 . S
O928 U926 2.458 . S
O928 C929 1.286 . S
C929 U926 2.984 . S
C929 O927 1.353 . S
C929 O928 1.286 . S
C929 C931 1.359 1_655 S
C930 C920 1.465 . S
C930 U926 2.847 . S
C930 O944 1.249 . S
C930 O945 1.202 . S
C931 C929 1.359 1_455 S
C931 C933 1.407 1_455 S
C931 C936 1.349 . S
C932 C933 1.308 1_455 S
C932 C935 1.461 . S
C932 H952 0.932 . S
C933 C931 1.407 1_655 S
C933 C932 1.308 1_655 S
C933 H953 0.933 . S
C934 C935 1.474 . S
C934 C936 1.285 . S
C934 H954 0.929 . S
C935 C932 1.461 . S
C935 C934 1.474 . S
C936 C931 1.349 . S
C936 C934 1.285 . S
C936 H955 0.930 . S
C937 C940 1.424 . S
C937 C942 1.245 . S
C937 C943 1.428 . S
C938 C941 1.271 . S
C938 C942 1.469 1_455 S
C938 H956 0.935 . S
C939 C940 1.384 . S
C939 C941 1.479 1_655 S
C939 H957 0.929 . S
C940 C937 1.424 . S
C940 C939 1.384 . S
C940 H958 0.928 . S
C941 C938 1.271 . S
C941 C939 1.479 1_455 S
C942 C937 1.245 . S
C942 C938 1.469 1_655 S
C942 H959 0.937 . S
C943 U926 2.882 . S
C943 C937 1.428 . S
C943 O946 1.301 . S
C943 O947 1.282 . S
O944 U926 2.441 . S
O944 C930 1.249 . S
O945 U926 2.420 . S
O945 C930 1.202 . S
O946 U926 2.455 . S
O946 C943 1.301 . S
O947 U926 2.449 . S
O947 C943 1.282 . S
H948 C921 0.931 . S
H949 C923 0.929 . S
H950 C924 0.930 . S
H951 C925 0.931 . S
H952 C932 0.932 . S
H953 C933 0.933 . S
H954 C934 0.929 . S
H955 C936 0.930 . S
H956 C938 0.935 . S
H957 C939 0.929 . S
H958 C940 0.928 . S
H959 C942 0.937 . S
P960 O971 1.490 . S
P960 C974 1.812 . S
P960 C980 1.803 . S
P960 C986 1.819 . S
H961 C975 0.941 . S
H962 C976 0.939 . S
H963 C978 0.940 . S
H964 C979 0.940 . S
H965 C981 0.939 . S
H966 C982 0.942 . S
H967 C984 0.940 . S
H968 C985 0.939 . S
H969 C987 0.941 . S
H970 C991 0.939 . S
O971 P960 1.490 . S
H972 C988 0.939 . S
H973 C990 0.940 . S
C974 P960 1.812 . S
C974 C975 1.389 . S
C974 C979 1.391 . S
C975 H961 0.941 . S
C975 C974 1.389 . S
C975 C976 1.397 . S
C976 H962 0.939 . S
C976 C975 1.397 . S
C976 C977 1.378 . S
C977 C976 1.378 . S
C977 C978 1.378 . S
C978 H963 0.940 . S
C978 C977 1.378 . S
C978 C979 1.396 . S
C979 H964 0.940 . S
C979 C974 1.391 . S
C979 C978 1.396 . S
C980 P960 1.803 . S
C980 C981 1.378 . S
C980 C985 1.400 . S
C981 H965 0.939 . S
C981 C980 1.378 . S
C981 C982 1.361 . S
C982 H966 0.942 . S
C982 C981 1.361 . S
C982 C983 1.369 . S
C983 C982 1.369 . S
C983 C984 1.404 . S
C984 H967 0.940 . S
C984 C983 1.404 . S
C984 C985 1.389 . S
C985 H968 0.939 . S
C985 C980 1.400 . S
C985 C984 1.389 . S
C986 P960 1.819 . S
C986 C987 1.391 . S
C986 C991 1.391 . S
C987 H969 0.941 . S
C987 C986 1.391 . S
C987 C988 1.396 . S
C988 H972 0.939 . S
C988 C987 1.396 . S
C988 C989 1.397 . S
C989 C988 1.397 . S
C989 C990 1.385 . S
C990 H973 0.940 . S
C990 C989 1.385 . S
C990 C991 1.388 . S
C991 H970 0.939 . S
C991 C986 1.391 . S
C991 C990 1.388 . S
P992 O1003 1.490 . S
P992 C1006 1.812 . S
P992 C1012 1.803 . S
P992 C1018 1.819 1_554 S
H993 C1007 0.941 . S
H994 C1008 0.939 . S
H995 C1010 0.940 . S
H996 C1011 0.940 1_556 S
H997 C1013 0.939 . S
H998 C1014 0.942 . S
H999 C1016 0.940 . S
H1000 C1017 0.939 . S
H1001 C1019 0.941 1_554 S
H1002 C1023 0.939 . S
O1003 P992 1.490 . S
H1004 C1020 0.939 . S
H1005 C1022 0.940 . S
C1006 P992 1.812 . S
C1006 C1007 1.389 . S
C1006 C1011 1.391 . S
C1007 H993 0.941 . S
C1007 C1006 1.389 . S
C1007 C1008 1.397 . S
C1008 H994 0.939 . S
C1008 C1007 1.397 . S
C1008 C1009 1.378 . S
C1009 C1008 1.378 . S
C1009 C1010 1.378 . S
C1010 H995 0.940 . S
C1010 C1009 1.378 . S
C1010 C1011 1.396 . S
C1011 H996 0.940 1_554 S
C1011 C1006 1.391 . S
C1011 C1010 1.396 . S
C1012 P992 1.803 . S
C1012 C1013 1.378 . S
C1012 C1017 1.400 . S
C1013 H997 0.939 . S
C1013 C1012 1.378 . S
C1013 C1014 1.361 . S
C1014 H998 0.942 . S
C1014 C1013 1.361 . S
C1014 C1015 1.369 . S
C1015 C1014 1.369 . S
C1015 C1016 1.404 . S
C1016 H999 0.940 . S
C1016 C1015 1.404 . S
C1016 C1017 1.389 . S
C1017 H1000 0.939 . S
C1017 C1012 1.400 . S
C1017 C1016 1.389 . S
C1018 P992 1.819 1_556 S
C1018 C1019 1.391 . S
C1018 C1023 1.391 . S
C1019 H1001 0.941 1_556 S
C1019 C1018 1.391 . S
C1019 C1020 1.396 . S
C1020 H1004 0.939 . S
C1020 C1019 1.396 . S
C1020 C1021 1.397 . S
C1021 C1020 1.397 . S
C1021 C1022 1.385 . S
C1022 H1005 0.940 . S
C1022 C1021 1.385 . S
C1022 C1023 1.388 . S
C1023 H1002 0.939 . S
C1023 C1018 1.391 . S
C1023 C1022 1.388 . S
P1024 O1035 1.490 . S
P1024 C1038 1.812 . S
P1024 C1044 1.803 1_565 S
P1024 C1050 1.819 . S
H1025 C1039 0.941 . S
H1026 C1040 0.939 . S
H1027 C1042 0.940 . S
H1028 C1043 0.940 . S
H1029 C1045 0.939 . S
H1030 C1046 0.942 . S
H1031 C1048 0.940 . S
H1032 C1049 0.939 . S
H1033 C1051 0.941 . S
H1034 C1055 0.939 . S
O1035 P1024 1.490 . S
H1036 C1052 0.939 . S
H1037 C1054 0.940 . S
C1038 P1024 1.812 . S
C1038 C1039 1.389 . S
C1038 C1043 1.391 . S
C1039 H1025 0.941 . S
C1039 C1038 1.389 . S
C1039 C1040 1.397 . S
C1040 H1026 0.939 . S
C1040 C1039 1.397 . S
C1040 C1041 1.378 . S
C1041 C1040 1.378 . S
C1041 C1042 1.378 . S
C1042 H1027 0.940 . S
C1042 C1041 1.378 . S
C1042 C1043 1.396 . S
C1043 H1028 0.940 . S
C1043 C1038 1.391 . S
C1043 C1042 1.396 . S
C1044 P1024 1.803 1_545 S
C1044 C1045 1.378 . S
C1044 C1049 1.400 . S
C1045 H1029 0.939 . S
C1045 C1044 1.378 . S
C1045 C1046 1.361 . S
C1046 H1030 0.942 . S
C1046 C1045 1.361 . S
C1046 C1047 1.369 . S
C1047 C1046 1.369 . S
C1047 C1048 1.404 . S
C1048 H1031 0.940 . S
C1048 C1047 1.404 . S
C1048 C1049 1.389 . S
C1049 H1032 0.939 . S
C1049 C1044 1.400 . S
C1049 C1048 1.389 . S
C1050 P1024 1.819 . S
C1050 C1051 1.391 . S
C1050 C1055 1.391 1_565 S
C1051 H1033 0.941 . S
C1051 C1050 1.391 . S
C1051 C1052 1.396 . S
C1052 H1036 0.939 . S
C1052 C1051 1.396 . S
C1052 C1053 1.397 1_565 S
C1053 C1052 1.397 1_545 S
C1053 C1054 1.385 . S
C1054 H1037 0.940 . S
C1054 C1053 1.385 . S
C1054 C1055 1.388 . S
C1055 H1034 0.939 . S
C1055 C1050 1.391 1_545 S
C1055 C1054 1.388 . S
P1056 O1067 1.490 . S
P1056 C1070 1.812 . S
P1056 C1076 1.803 1_545 S
P1056 C1082 1.819 . S
H1057 C1071 0.941 . S
H1058 C1072 0.939 . S
H1059 C1074 0.940 . S
H1060 C1075 0.940 . S
H1061 C1077 0.939 . S
H1062 C1078 0.942 . S
H1063 C1080 0.940 . S
H1064 C1081 0.939 . S
H1065 C1083 0.941 . S
H1066 C1087 0.939 . S
O1067 P1056 1.490 . S
H1068 C1084 0.939 . S
H1069 C1086 0.940 . S
C1070 P1056 1.812 . S
C1070 C1071 1.389 . S
C1070 C1075 1.391 . S
C1071 H1057 0.941 . S
C1071 C1070 1.389 . S
C1071 C1072 1.397 . S
C1072 H1058 0.939 . S
C1072 C1071 1.397 . S
C1072 C1073 1.378 . S
C1073 C1072 1.378 . S
C1073 C1074 1.378 . S
C1074 H1059 0.940 . S
C1074 C1073 1.378 . S
C1074 C1075 1.396 . S
C1075 H1060 0.940 . S
C1075 C1070 1.391 . S
C1075 C1074 1.396 . S
C1076 P1056 1.803 1_565 S
C1076 C1077 1.378 . S
C1076 C1081 1.400 . S
C1077 H1061 0.939 . S
C1077 C1076 1.378 . S
C1077 C1078 1.361 . S
C1078 H1062 0.942 . S
C1078 C1077 1.361 . S
C1078 C1079 1.369 . S
C1079 C1078 1.369 . S
C1079 C1080 1.404 . S
C1080 H1063 0.940 . S
C1080 C1079 1.404 . S
C1080 C1081 1.389 . S
C1081 H1064 0.939 . S
C1081 C1076 1.400 . S
C1081 C1080 1.389 . S
C1082 P1056 1.819 . S
C1082 C1083 1.391 . S
C1082 C1087 1.391 1_545 S
C1083 H1065 0.941 . S
C1083 C1082 1.391 . S
C1083 C1084 1.396 . S
C1084 H1068 0.939 . S
C1084 C1083 1.396 . S
C1084 C1085 1.397 1_545 S
C1085 C1084 1.397 1_565 S
C1085 C1086 1.385 . S
C1086 H1069 0.940 . S
C1086 C1085 1.385 . S
C1086 C1087 1.388 . S
C1087 H1066 0.939 . S
C1087 C1082 1.391 1_565 S
C1087 C1086 1.388 . S
P1088 O1099 1.490 . S
P1088 C1102 1.812 . S
P1088 C1108 1.803 . S
P1088 C1114 1.819 . S
H1089 C1103 0.941 . S
H1090 C1104 0.939 . S
H1091 C1106 0.940 . S
H1092 C1107 0.940 . S
H1093 C1109 0.939 . S
H1094 C1110 0.942 . S
H1095 C1112 0.940 . S
H1096 C1113 0.939 . S
H1097 C1115 0.941 . S
H1098 C1119 0.939 . S
O1099 P1088 1.490 . S
H1100 C1116 0.939 . S
H1101 C1118 0.940 . S
C1102 P1088 1.812 . S
C1102 C1103 1.389 . S
C1102 C1107 1.391 . S
C1103 H1089 0.941 . S
C1103 C1102 1.389 . S
C1103 C1104 1.397 . S
C1104 H1090 0.939 . S
C1104 C1103 1.397 . S
C1104 C1105 1.378 . S
C1105 C1104 1.378 . S
C1105 C1106 1.378 . S
C1106 H1091 0.940 . S
C1106 C1105 1.378 . S
C1106 C1107 1.396 . S
C1107 H1092 0.940 . S
C1107 C1102 1.391 . S
C1107 C1106 1.396 . S
C1108 P1088 1.803 . S
C1108 C1109 1.378 . S
C1108 C1113 1.400 . S
C1109 H1093 0.939 . S
C1109 C1108 1.378 . S
C1109 C1110 1.361 . S
C1110 H1094 0.942 . S
C1110 C1109 1.361 . S
C1110 C1111 1.369 . S
C1111 C1110 1.369 . S
C1111 C1112 1.404 . S
C1112 H1095 0.940 . S
C1112 C1111 1.404 . S
C1112 C1113 1.389 . S
C1113 H1096 0.939 . S
C1113 C1108 1.400 . S
C1113 C1112 1.389 . S
C1114 P1088 1.819 . S
C1114 C1115 1.391 . S
C1114 C1119 1.391 . S
C1115 H1097 0.941 . S
C1115 C1114 1.391 . S
C1115 C1116 1.396 . S
C1116 H1100 0.939 . S
C1116 C1115 1.396 . S
C1116 C1117 1.397 . S
C1117 C1116 1.397 . S
C1117 C1118 1.385 . S
C1118 H1101 0.940 . S
C1118 C1117 1.385 . S
C1118 C1119 1.388 . S
C1119 H1098 0.939 . S
C1119 C1114 1.391 . S
C1119 C1118 1.388 . S
P1120 O1131 1.490 . S
P1120 C1134 1.812 . S
P1120 C1140 1.803 1_554 S
P1120 C1146 1.819 . S
H1121 C1135 0.941 . S
H1122 C1136 0.939 . S
H1123 C1138 0.940 . S
H1124 C1139 0.940 . S
H1125 C1141 0.939 . S
H1126 C1142 0.942 . S
H1127 C1144 0.940 . S
H1128 C1145 0.939 . S
H1129 C1147 0.941 . S
H1130 C1151 0.939 . S
O1131 P1120 1.490 . S
H1132 C1148 0.939 . S
H1133 C1150 0.940 . S
C1134 P1120 1.812 . S
C1134 C1135 1.389 . S
C1134 C1139 1.391 . S
C1135 H1121 0.941 . S
C1135 C1134 1.389 . S
C1135 C1136 1.397 . S
C1136 H1122 0.939 . S
C1136 C1135 1.397 . S
C1136 C1137 1.378 . S
C1137 C1136 1.378 . S
C1137 C1138 1.378 . S
C1138 H1123 0.940 . S
C1138 C1137 1.378 . S
C1138 C1139 1.396 . S
C1139 H1124 0.940 . S
C1139 C1134 1.391 . S
C1139 C1138 1.396 . S
C1140 P1120 1.803 1_556 S
C1140 C1141 1.378 . S
C1140 C1145 1.400 . S
C1141 H1125 0.939 . S
C1141 C1140 1.378 . S
C1141 C1142 1.361 . S
C1142 H1126 0.942 . S
C1142 C1141 1.361 . S
C1142 C1143 1.369 . S
C1143 C1142 1.369 . S
C1143 C1144 1.404 . S
C1144 H1127 0.940 . S
C1144 C1143 1.404 . S
C1144 C1145 1.389 . S
C1145 H1128 0.939 . S
C1145 C1140 1.400 . S
C1145 C1144 1.389 . S
C1146 P1120 1.819 . S
C1146 C1147 1.391 . S
C1146 C1151 1.391 1_554 S
C1147 H1129 0.941 . S
C1147 C1146 1.391 . S
C1147 C1148 1.396 . S
C1148 H1132 0.939 . S
C1148 C1147 1.396 . S
C1148 C1149 1.397 1_554 S
C1149 C1148 1.397 1_556 S
C1149 C1150 1.385 . S
C1150 H1133 0.940 . S
C1150 C1149 1.385 . S
C1150 C1151 1.388 . S
C1151 H1130 0.939 . S
C1151 C1146 1.391 1_556 S
C1151 C1150 1.388 . S
P1152 O1163 1.490 . S
P1152 C1166 1.812 . S
P1152 C1172 1.803 . S
P1152 C1178 1.819 1_455 S
H1153 C1167 0.941 . S
H1154 C1168 0.939 . S
H1155 C1170 0.940 . S
H1156 C1171 0.940 1_655 S
H1157 C1173 0.939 . S
H1158 C1174 0.942 . S
H1159 C1176 0.940 . S
H1160 C1177 0.939 . S
H1161 C1179 0.941 1_455 S
H1162 C1183 0.939 . S
O1163 P1152 1.490 . S
H1164 C1180 0.939 . S
H1165 C1182 0.940 . S
C1166 P1152 1.812 . S
C1166 C1167 1.389 . S
C1166 C1171 1.391 . S
C1167 H1153 0.941 . S
C1167 C1166 1.389 . S
C1167 C1168 1.397 . S
C1168 H1154 0.939 . S
C1168 C1167 1.397 . S
C1168 C1169 1.378 . S
C1169 C1168 1.378 . S
C1169 C1170 1.378 . S
C1170 H1155 0.940 . S
C1170 C1169 1.378 . S
C1170 C1171 1.396 . S
C1171 H1156 0.940 1_455 S
C1171 C1166 1.391 . S
C1171 C1170 1.396 . S
C1172 P1152 1.803 . S
C1172 C1173 1.378 . S
C1172 C1177 1.400 . S
C1173 H1157 0.939 . S
C1173 C1172 1.378 . S
C1173 C1174 1.361 . S
C1174 H1158 0.942 . S
C1174 C1173 1.361 . S
C1174 C1175 1.369 . S
C1175 C1174 1.369 . S
C1175 C1176 1.404 . S
C1176 H1159 0.940 . S
C1176 C1175 1.404 . S
C1176 C1177 1.389 . S
C1177 H1160 0.939 . S
C1177 C1172 1.400 . S
C1177 C1176 1.389 . S
C1178 P1152 1.819 1_655 S
C1178 C1179 1.391 . S
C1178 C1183 1.391 . S
C1179 H1161 0.941 1_655 S
C1179 C1178 1.391 . S
C1179 C1180 1.396 . S
C1180 H1164 0.939 . S
C1180 C1179 1.396 . S
C1180 C1181 1.397 . S
C1181 C1180 1.397 . S
C1181 C1182 1.385 . S
C1182 H1165 0.940 . S
C1182 C1181 1.385 . S
C1182 C1183 1.388 . S
C1183 H1162 0.939 . S
C1183 C1178 1.391 . S
C1183 C1182 1.388 . S
P1184 O1195 1.490 . S
P1184 C1198 1.812 . S
P1184 C1204 1.803 1_556 S
P1184 C1210 1.819 . S
H1185 C1199 0.941 . S
H1186 C1200 0.939 . S
H1187 C1202 0.940 . S
H1188 C1203 0.940 . S
H1189 C1205 0.939 . S
H1190 C1206 0.942 . S
H1191 C1208 0.940 . S
H1192 C1209 0.939 . S
H1193 C1211 0.941 . S
H1194 C1215 0.939 . S
O1195 P1184 1.490 . S
H1196 C1212 0.939 . S
H1197 C1214 0.940 . S
C1198 P1184 1.812 . S
C1198 C1199 1.389 . S
C1198 C1203 1.391 . S
C1199 H1185 0.941 . S
C1199 C1198 1.389 . S
C1199 C1200 1.397 . S
C1200 H1186 0.939 . S
C1200 C1199 1.397 . S
C1200 C1201 1.378 . S
C1201 C1200 1.378 . S
C1201 C1202 1.378 . S
C1202 H1187 0.940 . S
C1202 C1201 1.378 . S
C1202 C1203 1.396 . S
C1203 H1188 0.940 . S
C1203 C1198 1.391 . S
C1203 C1202 1.396 . S
C1204 P1184 1.803 1_554 S
C1204 C1205 1.378 . S
C1204 C1209 1.400 . S
C1205 H1189 0.939 . S
C1205 C1204 1.378 . S
C1205 C1206 1.361 . S
C1206 H1190 0.942 . S
C1206 C1205 1.361 . S
C1206 C1207 1.369 . S
C1207 C1206 1.369 . S
C1207 C1208 1.404 . S
C1208 H1191 0.940 . S
C1208 C1207 1.404 . S
C1208 C1209 1.389 . S
C1209 H1192 0.939 . S
C1209 C1204 1.400 . S
C1209 C1208 1.389 . S
C1210 P1184 1.819 . S
C1210 C1211 1.391 . S
C1210 C1215 1.391 1_556 S
C1211 H1193 0.941 . S
C1211 C1210 1.391 . S
C1211 C1212 1.396 . S
C1212 H1196 0.939 . S
C1212 C1211 1.396 . S
C1212 C1213 1.397 1_556 S
C1213 C1212 1.397 1_554 S
C1213 C1214 1.385 . S
C1214 H1197 0.940 . S
C1214 C1213 1.385 . S
C1214 C1215 1.388 . S
C1215 H1194 0.939 . S
C1215 C1210 1.391 1_554 S
C1215 C1214 1.388 . S
P1216 O1227 1.490 . S
P1216 C1230 1.812 . S
P1216 C1236 1.803 . S
P1216 C1242 1.819 . S
H1217 C1231 0.941 . S
H1218 C1232 0.939 . S
H1219 C1234 0.940 . S
H1220 C1235 0.940 . S
H1221 C1237 0.939 . S
H1222 C1238 0.942 . S
H1223 C1240 0.940 . S
H1224 C1241 0.939 . S
H1225 C1243 0.941 . S
H1226 C1247 0.939 . S
O1227 P1216 1.490 . S
H1228 C1244 0.939 . S
H1229 C1246 0.940 . S
C1230 P1216 1.812 . S
C1230 C1231 1.389 . S
C1230 C1235 1.391 . S
C1231 H1217 0.941 . S
C1231 C1230 1.389 . S
C1231 C1232 1.397 . S
C1232 H1218 0.939 . S
C1232 C1231 1.397 . S
C1232 C1233 1.378 . S
C1233 C1232 1.378 . S
C1233 C1234 1.378 . S
C1234 H1219 0.940 . S
C1234 C1233 1.378 . S
C1234 C1235 1.396 . S
C1235 H1220 0.940 . S
C1235 C1230 1.391 . S
C1235 C1234 1.396 . S
C1236 P1216 1.803 . S
C1236 C1237 1.378 . S
C1236 C1241 1.400 . S
C1237 H1221 0.939 . S
C1237 C1236 1.378 . S
C1237 C1238 1.361 . S
C1238 H1222 0.942 . S
C1238 C1237 1.361 . S
C1238 C1239 1.369 . S
C1239 C1238 1.369 . S
C1239 C1240 1.404 . S
C1240 H1223 0.940 . S
C1240 C1239 1.404 . S
C1240 C1241 1.389 . S
C1241 H1224 0.939 . S
C1241 C1236 1.400 . S
C1241 C1240 1.389 . S
C1242 P1216 1.819 . S
C1242 C1243 1.391 . S
C1242 C1247 1.391 . S
C1243 H1225 0.941 . S
C1243 C1242 1.391 . S
C1243 C1244 1.396 . S
C1244 H1228 0.939 . S
C1244 C1243 1.396 . S
C1244 C1245 1.397 . S
C1245 C1244 1.397 . S
C1245 C1246 1.385 . S
C1246 H1229 0.940 . S
C1246 C1245 1.385 . S
C1246 C1247 1.388 . S
C1247 H1226 0.939 . S
C1247 C1242 1.391 . S
C1247 C1246 1.388 . S
P1248 O1259 1.490 . S
P1248 C1262 1.812 . S
P1248 C1268 1.803 1_455 S
P1248 C1274 1.819 . S
H1249 C1263 0.941 . S
H1250 C1264 0.939 . S
H1251 C1266 0.940 . S
H1252 C1267 0.940 . S
H1253 C1269 0.939 . S
H1254 C1270 0.942 . S
H1255 C1272 0.940 . S
H1256 C1273 0.939 . S
H1257 C1275 0.941 . S
H1258 C1279 0.939 . S
O1259 P1248 1.490 . S
H1260 C1276 0.939 . S
H1261 C1278 0.940 . S
C1262 P1248 1.812 . S
C1262 C1263 1.389 . S
C1262 C1267 1.391 . S
C1263 H1249 0.941 . S
C1263 C1262 1.389 . S
C1263 C1264 1.397 . S
C1264 H1250 0.939 . S
C1264 C1263 1.397 . S
C1264 C1265 1.378 . S
C1265 C1264 1.378 . S
C1265 C1266 1.378 . S
C1266 H1251 0.940 . S
C1266 C1265 1.378 . S
C1266 C1267 1.396 . S
C1267 H1252 0.940 . S
C1267 C1262 1.391 . S
C1267 C1266 1.396 . S
C1268 P1248 1.803 1_655 S
C1268 C1269 1.378 . S
C1268 C1273 1.400 . S
C1269 H1253 0.939 . S
C1269 C1268 1.378 . S
C1269 C1270 1.361 . S
C1270 H1254 0.942 . S
C1270 C1269 1.361 . S
C1270 C1271 1.369 . S
C1271 C1270 1.369 . S
C1271 C1272 1.404 . S
C1272 H1255 0.940 . S
C1272 C1271 1.404 . S
C1272 C1273 1.389 . S
C1273 H1256 0.939 . S
C1273 C1268 1.400 . S
C1273 C1272 1.389 . S
C1274 P1248 1.819 . S
C1274 C1275 1.391 . S
C1274 C1279 1.391 1_455 S
C1275 H1257 0.941 . S
C1275 C1274 1.391 . S
C1275 C1276 1.396 . S
C1276 H1260 0.939 . S
C1276 C1275 1.396 . S
C1276 C1277 1.397 1_455 S
C1277 C1276 1.397 1_655 S
C1277 C1278 1.385 . S
C1278 H1261 0.940 . S
C1278 C1277 1.385 . S
C1278 C1279 1.388 . S
C1279 H1258 0.939 . S
C1279 C1274 1.391 1_655 S
C1279 C1278 1.388 . S
P1280 O1291 1.490 . S
P1280 C1294 1.812 . S
P1280 C1300 1.803 . S
P1280 C1306 1.819 1_545 S
H1281 C1295 0.941 . S
H1282 C1296 0.939 . S
H1283 C1298 0.940 . S
H1284 C1299 0.940 1_565 S
H1285 C1301 0.939 . S
H1286 C1302 0.942 . S
H1287 C1304 0.940 . S
H1288 C1305 0.939 . S
H1289 C1307 0.941 1_545 S
H1290 C1311 0.939 . S
O1291 P1280 1.490 . S
H1292 C1308 0.939 . S
H1293 C1310 0.940 . S
C1294 P1280 1.812 . S
C1294 C1295 1.389 . S
C1294 C1299 1.391 . S
C1295 H1281 0.941 . S
C1295 C1294 1.389 . S
C1295 C1296 1.397 . S
C1296 H1282 0.939 . S
C1296 C1295 1.397 . S
C1296 C1297 1.378 . S
C1297 C1296 1.378 . S
C1297 C1298 1.378 . S
C1298 H1283 0.940 . S
C1298 C1297 1.378 . S
C1298 C1299 1.396 . S
C1299 H1284 0.940 1_545 S
C1299 C1294 1.391 . S
C1299 C1298 1.396 . S
C1300 P1280 1.803 . S
C1300 C1301 1.378 . S
C1300 C1305 1.400 . S
C1301 H1285 0.939 . S
C1301 C1300 1.378 . S
C1301 C1302 1.361 . S
C1302 H1286 0.942 . S
C1302 C1301 1.361 . S
C1302 C1303 1.369 . S
C1303 C1302 1.369 . S
C1303 C1304 1.404 . S
C1304 H1287 0.940 . S
C1304 C1303 1.404 . S
C1304 C1305 1.389 . S
C1305 H1288 0.939 . S
C1305 C1300 1.400 . S
C1305 C1304 1.389 . S
C1306 P1280 1.819 1_565 S
C1306 C1307 1.391 . S
C1306 C1311 1.391 . S
C1307 H1289 0.941 1_565 S
C1307 C1306 1.391 . S
C1307 C1308 1.396 . S
C1308 H1292 0.939 . S
C1308 C1307 1.396 . S
C1308 C1309 1.397 . S
C1309 C1308 1.397 . S
C1309 C1310 1.385 . S
C1310 H1293 0.940 . S
C1310 C1309 1.385 . S
C1310 C1311 1.388 . S
C1311 H1290 0.939 . S
C1311 C1306 1.391 . S
C1311 C1310 1.388 . S
P1312 O1323 1.490 . S
P1312 C1326 1.812 . S
P1312 C1332 1.803 1_655 S
P1312 C1338 1.819 . S
H1313 C1327 0.941 . S
H1314 C1328 0.939 . S
H1315 C1330 0.940 . S
H1316 C1331 0.940 . S
H1317 C1333 0.939 . S
H1318 C1334 0.942 . S
H1319 C1336 0.940 . S
H1320 C1337 0.939 . S
H1321 C1339 0.941 . S
H1322 C1343 0.939 . S
O1323 P1312 1.490 . S
H1324 C1340 0.939 . S
H1325 C1342 0.940 . S
C1326 P1312 1.812 . S
C1326 C1327 1.389 . S
C1326 C1331 1.391 . S
C1327 H1313 0.941 . S
C1327 C1326 1.389 . S
C1327 C1328 1.397 . S
C1328 H1314 0.939 . S
C1328 C1327 1.397 . S
C1328 C1329 1.378 . S
C1329 C1328 1.378 . S
C1329 C1330 1.378 . S
C1330 H1315 0.940 . S
C1330 C1329 1.378 . S
C1330 C1331 1.396 . S
C1331 H1316 0.940 . S
C1331 C1326 1.391 . S
C1331 C1330 1.396 . S
C1332 P1312 1.803 1_455 S
C1332 C1333 1.378 . S
C1332 C1337 1.400 . S
C1333 H1317 0.939 . S
C1333 C1332 1.378 . S
C1333 C1334 1.361 . S
C1334 H1318 0.942 . S
C1334 C1333 1.361 . S
C1334 C1335 1.369 . S
C1335 C1334 1.369 . S
C1335 C1336 1.404 . S
C1336 H1319 0.940 . S
C1336 C1335 1.404 . S
C1336 C1337 1.389 . S
C1337 H1320 0.939 . S
C1337 C1332 1.400 . S
C1337 C1336 1.389 . S
C1338 P1312 1.819 . S
C1338 C1339 1.391 . S
C1338 C1343 1.391 1_655 S
C1339 H1321 0.941 . S
C1339 C1338 1.391 . S
C1339 C1340 1.396 . S
C1340 H1324 0.939 . S
C1340 C1339 1.396 . S
C1340 C1341 1.397 1_655 S
C1341 C1340 1.397 1_455 S
C1341 C1342 1.385 . S
C1342 H1325 0.940 . S
C1342 C1341 1.385 . S
C1342 C1343 1.388 . S
C1343 H1322 0.939 . S
C1343 C1338 1.391 1_455 S
C1343 C1342 1.388 . S
P1344 O1355 1.490 . S
P1344 C1358 1.812 . S
P1344 C1364 1.803 . S
P1344 C1370 1.819 . S
H1345 C1359 0.941 . S
H1346 C1360 0.939 . S
H1347 C1362 0.940 . S
H1348 C1363 0.940 . S
H1349 C1365 0.939 . S
H1350 C1366 0.942 . S
H1351 C1368 0.940 . S
H1352 C1369 0.939 . S
H1353 C1371 0.941 . S
H1354 C1375 0.939 . S
O1355 P1344 1.490 . S
H1356 C1372 0.939 . S
H1357 C1374 0.940 . S
C1358 P1344 1.812 . S
C1358 C1359 1.389 . S
C1358 C1363 1.391 . S
C1359 H1345 0.941 . S
C1359 C1358 1.389 . S
C1359 C1360 1.397 . S
C1360 H1346 0.939 . S
C1360 C1359 1.397 . S
C1360 C1361 1.378 . S
C1361 C1360 1.378 . S
C1361 C1362 1.378 . S
C1362 H1347 0.940 . S
C1362 C1361 1.378 . S
C1362 C1363 1.396 . S
C1363 H1348 0.940 . S
C1363 C1358 1.391 . S
C1363 C1362 1.396 . S
C1364 P1344 1.803 . S
C1364 C1365 1.378 . S
C1364 C1369 1.400 . S
C1365 H1349 0.939 . S
C1365 C1364 1.378 . S
C1365 C1366 1.361 . S
C1366 H1350 0.942 . S
C1366 C1365 1.361 . S
C1366 C1367 1.369 . S
C1367 C1366 1.369 . S
C1367 C1368 1.404 . S
C1368 H1351 0.940 . S
C1368 C1367 1.404 . S
C1368 C1369 1.389 . S
C1369 H1352 0.939 . S
C1369 C1364 1.400 . S
C1369 C1368 1.389 . S
C1370 P1344 1.819 . S
C1370 C1371 1.391 . S
C1370 C1375 1.391 . S
C1371 H1353 0.941 . S
C1371 C1370 1.391 . S
C1371 C1372 1.396 . S
C1372 H1356 0.939 . S
C1372 C1371 1.396 . S
C1372 C1373 1.397 . S
C1373 C1372 1.397 . S
C1373 C1374 1.385 . S
C1374 H1357 0.940 . S
C1374 C1373 1.385 . S
C1374 C1375 1.388 . S
C1375 H1354 0.939 . S
C1375 C1370 1.391 . S
C1375 C1374 1.388 . S
P1376 O1387 1.490 . S
P1376 C1390 1.812 1_554 S
P1376 C1396 1.803 . S
P1376 C1402 1.819 . S
H1377 C1391 0.966 . S
H1378 C1392 0.939 . S
H1379 C1394 0.940 . S
H1380 C1395 0.940 . S
H1381 C1397 0.939 . S
H1382 C1398 0.942 . S
H1383 C1400 0.940 . S
H1384 C1401 0.939 . S
H1385 C1403 0.941 . S
H1386 C1407 0.939 . S
O1387 P1376 1.490 . S
H1388 C1404 0.939 . S
H1389 C1406 0.940 . S
C1390 P1376 1.812 1_556 S
C1390 C1391 1.389 . S
C1390 C1395 1.391 . S
C1391 H1377 0.966 . S
C1391 C1390 1.389 . S
C1391 C1392 1.397 . S
C1392 H1378 0.939 . S
C1392 C1391 1.397 . S
C1392 C1393 1.378 . S
C1393 C1392 1.378 . S
C1393 C1394 1.378 . S
C1394 H1379 0.940 . S
C1394 C1393 1.378 . S
C1394 C1395 1.396 . S
C1395 H1380 0.940 . S
C1395 C1390 1.391 . S
C1395 C1394 1.396 . S
C1396 P1376 1.803 . S
C1396 C1397 1.378 . S
C1396 C1401 1.400 1_554 S
C1397 H1381 0.939 . S
C1397 C1396 1.378 . S
C1397 C1398 1.361 . S
C1398 H1382 0.942 . S
C1398 C1397 1.361 . S
C1398 C1399 1.369 1_554 S
C1399 C1398 1.369 1_556 S
C1399 C1400 1.404 . S
C1400 H1383 0.940 . S
C1400 C1399 1.404 . S
C1400 C1401 1.389 . S
C1401 H1384 0.939 . S
C1401 C1396 1.400 1_556 S
C1401 C1400 1.389 . S
C1402 P1376 1.819 . S
C1402 C1403 1.391 . S
C1402 C1407 1.391 . S
C1403 H1385 0.941 . S
C1403 C1402 1.391 . S
C1403 C1404 1.396 . S
C1404 H1388 0.939 . S
C1404 C1403 1.396 . S
C1404 C1405 1.397 . S
C1405 C1404 1.397 . S
C1405 C1406 1.385 . S
C1406 H1389 0.940 . S
C1406 C1405 1.385 . S
C1406 C1407 1.388 . S
C1407 H1386 0.939 . S
C1407 C1402 1.391 . S
C1407 C1406 1.388 . S
P1408 O1419 1.490 . S
P1408 C1422 1.812 1_565 S
P1408 C1428 1.803 . S
P1408 C1434 1.819 . S
H1409 C1423 0.941 . S
H1410 C1424 0.939 . S
H1411 C1426 0.940 . S
H1412 C1427 0.940 . S
H1413 C1429 0.939 . S
H1414 C1430 0.942 . S
H1415 C1432 0.940 . S
H1416 C1433 0.939 . S
H1417 C1435 0.928 1_545 S
H1418 C1439 0.939 . S
O1419 P1408 1.490 . S
H1420 C1436 0.969 . S
H1421 C1438 0.940 . S
C1422 P1408 1.812 1_545 S
C1422 C1423 1.389 . S
C1422 C1427 1.391 . S
C1423 H1409 0.941 . S
C1423 C1422 1.389 . S
C1423 C1424 1.397 . S
C1424 H1410 0.939 . S
C1424 C1423 1.397 . S
C1424 C1425 1.378 . S
C1425 C1424 1.378 . S
C1425 C1426 1.378 . S
C1426 H1411 0.940 . S
C1426 C1425 1.378 . S
C1426 C1427 1.396 . S
C1427 H1412 0.940 . S
C1427 C1422 1.391 . S
C1427 C1426 1.396 . S
C1428 P1408 1.803 . S
C1428 C1429 1.378 . S
C1428 C1433 1.400 . S
C1429 H1413 0.939 . S
C1429 C1428 1.378 . S
C1429 C1430 1.361 . S
C1430 H1414 0.942 . S
C1430 C1429 1.361 . S
C1430 C1431 1.369 . S
C1431 C1430 1.369 . S
C1431 C1432 1.404 . S
C1432 H1415 0.940 . S
C1432 C1431 1.404 . S
C1432 C1433 1.389 . S
C1433 H1416 0.939 . S
C1433 C1428 1.400 . S
C1433 C1432 1.389 . S
C1434 P1408 1.819 . S
C1434 C1435 1.411 . S
C1434 C1439 1.391 . S
C1435 H1417 0.928 1_565 S
C1435 C1434 1.411 . S
C1435 C1436 1.388 1_565 S
C1436 H1420 0.969 . S
C1436 C1435 1.388 1_545 S
C1436 C1437 1.377 1_545 S
C1437 C1436 1.377 1_565 S
C1437 C1438 1.385 . S
C1438 H1421 0.940 . S
C1438 C1437 1.385 . S
C1438 C1439 1.388 . S
C1439 H1418 0.939 . S
C1439 C1434 1.391 . S
C1439 C1438 1.388 . S
P1440 O1451 1.490 . S
P1440 C1454 1.812 1_545 S
P1440 C1460 1.803 . S
P1440 C1466 1.819 . S
H1441 C1455 0.941 . S
H1442 C1456 0.939 . S
H1443 C1458 0.940 . S
H1444 C1459 0.940 . S
H1445 C1461 0.939 . S
H1446 C1462 0.942 . S
H1447 C1464 0.940 . S
H1448 C1465 0.939 . S
H1449 C1467 0.941 . S
H1450 C1471 0.939 . S
O1451 P1440 1.490 . S
H1452 C1468 0.939 . S
H1453 C1470 0.940 . S
C1454 P1440 1.812 1_565 S
C1454 C1455 1.389 . S
C1454 C1459 1.391 . S
C1455 H1441 0.941 . S
C1455 C1454 1.389 . S
C1455 C1456 1.397 . S
C1456 H1442 0.939 . S
C1456 C1455 1.397 . S
C1456 C1457 1.378 . S
C1457 C1456 1.378 . S
C1457 C1458 1.378 . S
C1458 H1443 0.940 . S
C1458 C1457 1.378 . S
C1458 C1459 1.396 . S
C1459 H1444 0.940 . S
C1459 C1454 1.391 . S
C1459 C1458 1.396 . S
C1460 P1440 1.803 . S
C1460 C1461 1.378 . S
C1460 C1465 1.400 . S
C1461 H1445 0.939 . S
C1461 C1460 1.378 . S
C1461 C1462 1.361 . S
C1462 H1446 0.942 . S
C1462 C1461 1.361 . S
C1462 C1463 1.369 . S
C1463 C1462 1.369 . S
C1463 C1464 1.404 . S
C1464 H1447 0.940 . S
C1464 C1463 1.404 . S
C1464 C1465 1.389 . S
C1465 H1448 0.939 . S
C1465 C1460 1.400 . S
C1465 C1464 1.389 . S
C1466 P1440 1.819 . S
C1466 C1467 1.391 1_545 S
C1466 C1471 1.391 . S
C1467 H1449 0.941 . S
C1467 C1466 1.391 1_565 S
C1467 C1468 1.396 . S
C1468 H1452 0.939 . S
C1468 C1467 1.396 . S
C1468 C1469 1.397 1_565 S
C1469 C1468 1.397 1_545 S
C1469 C1470 1.385 . S
C1470 H1453 0.940 . S
C1470 C1469 1.385 . S
C1470 C1471 1.388 . S
C1471 H1450 0.939 . S
C1471 C1466 1.391 . S
C1471 C1470 1.388 . S
P1472 O1483 1.490 . S
P1472 C1486 1.812 . S
P1472 C1492 1.803 . S
P1472 C1498 1.819 . S
H1473 C1487 0.941 . S
H1474 C1488 0.939 . S
H1475 C1490 0.940 . S
H1476 C1491 0.940 . S
H1477 C1493 0.939 . S
H1478 C1494 0.942 . S
H1479 C1496 0.940 . S
H1480 C1497 0.939 . S
H1481 C1499 0.941 . S
H1482 C1503 0.939 . S
O1483 P1472 1.490 . S
H1484 C1500 0.939 . S
H1485 C1502 0.940 . S
C1486 P1472 1.812 . S
C1486 C1487 1.389 . S
C1486 C1491 1.391 . S
C1487 H1473 0.941 . S
C1487 C1486 1.389 . S
C1487 C1488 1.397 . S
C1488 H1474 0.939 . S
C1488 C1487 1.397 . S
C1488 C1489 1.378 . S
C1489 C1488 1.378 . S
C1489 C1490 1.378 . S
C1490 H1475 0.940 . S
C1490 C1489 1.378 . S
C1490 C1491 1.396 . S
C1491 H1476 0.940 . S
C1491 C1486 1.391 . S
C1491 C1490 1.396 . S
C1492 P1472 1.803 . S
C1492 C1493 1.378 . S
C1492 C1497 1.400 . S
C1493 H1477 0.939 . S
C1493 C1492 1.378 . S
C1493 C1494 1.361 . S
C1494 H1478 0.942 . S
C1494 C1493 1.361 . S
C1494 C1495 1.369 . S
C1495 C1494 1.369 . S
C1495 C1496 1.404 . S
C1496 H1479 0.940 . S
C1496 C1495 1.404 . S
C1496 C1497 1.389 . S
C1497 H1480 0.939 . S
C1497 C1492 1.400 . S
C1497 C1496 1.389 . S
C1498 P1472 1.819 . S
C1498 C1499 1.391 . S
C1498 C1503 1.391 . S
C1499 H1481 0.941 . S
C1499 C1498 1.391 . S
C1499 C1500 1.396 . S
C1500 H1484 0.939 . S
C1500 C1499 1.396 . S
C1500 C1501 1.397 . S
C1501 C1500 1.397 . S
C1501 C1502 1.385 . S
C1502 H1485 0.940 . S
C1502 C1501 1.385 . S
C1502 C1503 1.388 . S
C1503 H1482 0.939 . S
C1503 C1498 1.391 . S
C1503 C1502 1.388 . S
P1504 O1515 1.490 . S
P1504 C1518 1.812 1_554 S
P1504 C1524 1.803 . S
P1504 C1530 1.819 . S
H1505 C1519 0.941 . S
H1506 C1520 0.939 . S
H1507 C1522 0.940 . S
H1508 C1523 0.940 . S
H1509 C1525 0.939 . S
H1510 C1526 0.942 . S
H1511 C1528 0.940 . S
H1512 C1529 0.939 . S
H1513 C1531 0.941 . S
H1514 C1535 0.939 . S
O1515 P1504 1.490 . S
H1516 C1532 0.939 . S
H1517 C1534 0.940 . S
C1518 P1504 1.812 1_556 S
C1518 C1519 1.389 . S
C1518 C1523 1.391 . S
C1519 H1505 0.941 . S
C1519 C1518 1.389 . S
C1519 C1520 1.397 . S
C1520 H1506 0.939 . S
C1520 C1519 1.397 . S
C1520 C1521 1.378 . S
C1521 C1520 1.378 . S
C1521 C1522 1.378 . S
C1522 H1507 0.940 . S
C1522 C1521 1.378 . S
C1522 C1523 1.396 . S
C1523 H1508 0.940 . S
C1523 C1518 1.391 . S
C1523 C1522 1.396 . S
C1524 P1504 1.803 . S
C1524 C1525 1.378 . S
C1524 C1529 1.400 . S
C1525 H1509 0.939 . S
C1525 C1524 1.378 . S
C1525 C1526 1.361 . S
C1526 H1510 0.942 . S
C1526 C1525 1.361 . S
C1526 C1527 1.369 . S
C1527 C1526 1.369 . S
C1527 C1528 1.404 . S
C1528 H1511 0.940 . S
C1528 C1527 1.404 . S
C1528 C1529 1.389 . S
C1529 H1512 0.939 . S
C1529 C1524 1.400 . S
C1529 C1528 1.389 . S
C1530 P1504 1.819 . S
C1530 C1531 1.391 1_554 S
C1530 C1535 1.391 . S
C1531 H1513 0.941 . S
C1531 C1530 1.391 1_556 S
C1531 C1532 1.396 . S
C1532 H1516 0.939 . S
C1532 C1531 1.396 . S
C1532 C1533 1.397 1_556 S
C1533 C1532 1.397 1_554 S
C1533 C1534 1.385 . S
C1534 H1517 0.940 . S
C1534 C1533 1.385 . S
C1534 C1535 1.388 . S
C1535 H1514 0.939 . S
C1535 C1530 1.391 . S
C1535 C1534 1.388 . S
P1536 O1547 1.490 . S
P1536 C1550 1.812 1_455 S
P1536 C1556 1.803 . S
P1536 C1562 1.819 . S
H1537 C1551 0.966 . S
H1538 C1552 0.939 . S
H1539 C1554 0.940 . S
H1540 C1555 0.940 . S
H1541 C1557 0.939 . S
H1542 C1558 0.942 . S
H1543 C1560 0.940 . S
H1544 C1561 0.939 . S
H1545 C1563 0.941 . S
H1546 C1567 0.939 . S
O1547 P1536 1.490 . S
H1548 C1564 0.939 . S
H1549 C1566 0.940 . S
C1550 P1536 1.812 1_655 S
C1550 C1551 1.389 . S
C1550 C1555 1.391 . S
C1551 H1537 0.966 . S
C1551 C1550 1.389 . S
C1551 C1552 1.397 . S
C1552 H1538 0.939 . S
C1552 C1551 1.397 . S
C1552 C1553 1.378 . S
C1553 C1552 1.378 . S
C1553 C1554 1.378 . S
C1554 H1539 0.940 . S
C1554 C1553 1.378 . S
C1554 C1555 1.396 . S
C1555 H1540 0.940 . S
C1555 C1550 1.391 . S
C1555 C1554 1.396 . S
C1556 P1536 1.803 . S
C1556 C1557 1.378 . S
C1556 C1561 1.400 1_455 S
C1557 H1541 0.939 . S
C1557 C1556 1.378 . S
C1557 C1558 1.361 . S
C1558 H1542 0.942 . S
C1558 C1557 1.361 . S
C1558 C1559 1.369 1_455 S
C1559 C1558 1.369 1_655 S
C1559 C1560 1.404 . S
C1560 H1543 0.940 . S
C1560 C1559 1.404 . S
C1560 C1561 1.389 . S
C1561 H1544 0.939 . S
C1561 C1556 1.400 1_655 S
C1561 C1560 1.389 . S
C1562 P1536 1.819 . S
C1562 C1563 1.391 . S
C1562 C1567 1.391 . S
C1563 H1545 0.941 . S
C1563 C1562 1.391 . S
C1563 C1564 1.396 . S
C1564 H1548 0.939 . S
C1564 C1563 1.396 . S
C1564 C1565 1.397 . S
C1565 C1564 1.397 . S
C1565 C1566 1.385 . S
C1566 H1549 0.940 . S
C1566 C1565 1.385 . S
C1566 C1567 1.388 . S
C1567 H1546 0.939 . S
C1567 C1562 1.391 . S
C1567 C1566 1.388 . S
P1568 O1579 1.490 . S
P1568 C1582 1.812 1_556 S
P1568 C1588 1.803 . S
P1568 C1594 1.819 . S
H1569 C1583 0.941 . S
H1570 C1584 0.939 . S
H1571 C1586 0.940 . S
H1572 C1587 0.940 . S
H1573 C1589 0.939 . S
H1574 C1590 0.942 . S
H1575 C1592 0.940 . S
H1576 C1593 0.939 . S
H1577 C1595 0.928 1_554 S
H1578 C1599 0.939 . S
O1579 P1568 1.490 . S
H1580 C1596 0.969 . S
H1581 C1598 0.940 . S
C1582 P1568 1.812 1_554 S
C1582 C1583 1.389 . S
C1582 C1587 1.391 . S
C1583 H1569 0.941 . S
C1583 C1582 1.389 . S
C1583 C1584 1.397 . S
C1584 H1570 0.939 . S
C1584 C1583 1.397 . S
C1584 C1585 1.378 . S
C1585 C1584 1.378 . S
C1585 C1586 1.378 . S
C1586 H1571 0.940 . S
C1586 C1585 1.378 . S
C1586 C1587 1.396 . S
C1587 H1572 0.940 . S
C1587 C1582 1.391 . S
C1587 C1586 1.396 . S
C1588 P1568 1.803 . S
C1588 C1589 1.378 . S
C1588 C1593 1.400 . S
C1589 H1573 0.939 . S
C1589 C1588 1.378 . S
C1589 C1590 1.361 . S
C1590 H1574 0.942 . S
C1590 C1589 1.361 . S
C1590 C1591 1.369 . S
C1591 C1590 1.369 . S
C1591 C1592 1.404 . S
C1592 H1575 0.940 . S
C1592 C1591 1.404 . S
C1592 C1593 1.389 . S
C1593 H1576 0.939 . S
C1593 C1588 1.400 . S
C1593 C1592 1.389 . S
C1594 P1568 1.819 . S
C1594 C1595 1.411 . S
C1594 C1599 1.391 . S
C1595 H1577 0.928 1_556 S
C1595 C1594 1.411 . S
C1595 C1596 1.388 1_556 S
C1596 H1580 0.969 . S
C1596 C1595 1.388 1_554 S
C1596 C1597 1.377 1_554 S
C1597 C1596 1.377 1_556 S
C1597 C1598 1.385 . S
C1598 H1581 0.940 . S
C1598 C1597 1.385 . S
C1598 C1599 1.388 . S
C1599 H1578 0.939 . S
C1599 C1594 1.391 . S
C1599 C1598 1.388 . S
P1600 O1611 1.490 . S
P1600 C1614 1.812 . S
P1600 C1620 1.803 . S
P1600 C1626 1.819 . S
H1601 C1615 0.941 . S
H1602 C1616 0.939 . S
H1603 C1618 0.940 . S
H1604 C1619 0.940 . S
H1605 C1621 0.939 . S
H1606 C1622 0.942 . S
H1607 C1624 0.940 . S
H1608 C1625 0.939 . S
H1609 C1627 0.941 . S
H1610 C1631 0.939 . S
O1611 P1600 1.490 . S
H1612 C1628 0.939 . S
H1613 C1630 0.940 . S
C1614 P1600 1.812 . S
C1614 C1615 1.389 . S
C1614 C1619 1.391 . S
C1615 H1601 0.941 . S
C1615 C1614 1.389 . S
C1615 C1616 1.397 . S
C1616 H1602 0.939 . S
C1616 C1615 1.397 . S
C1616 C1617 1.378 . S
C1617 C1616 1.378 . S
C1617 C1618 1.378 . S
C1618 H1603 0.940 . S
C1618 C1617 1.378 . S
C1618 C1619 1.396 . S
C1619 H1604 0.940 . S
C1619 C1614 1.391 . S
C1619 C1618 1.396 . S
C1620 P1600 1.803 . S
C1620 C1621 1.378 . S
C1620 C1625 1.400 . S
C1621 H1605 0.939 . S
C1621 C1620 1.378 . S
C1621 C1622 1.361 . S
C1622 H1606 0.942 . S
C1622 C1621 1.361 . S
C1622 C1623 1.369 . S
C1623 C1622 1.369 . S
C1623 C1624 1.404 . S
C1624 H1607 0.940 . S
C1624 C1623 1.404 . S
C1624 C1625 1.389 . S
C1625 H1608 0.939 . S
C1625 C1620 1.400 . S
C1625 C1624 1.389 . S
C1626 P1600 1.819 . S
C1626 C1627 1.391 . S
C1626 C1631 1.391 . S
C1627 H1609 0.941 . S
C1627 C1626 1.391 . S
C1627 C1628 1.396 . S
C1628 H1612 0.939 . S
C1628 C1627 1.396 . S
C1628 C1629 1.397 . S
C1629 C1628 1.397 . S
C1629 C1630 1.385 . S
C1630 H1613 0.940 . S
C1630 C1629 1.385 . S
C1630 C1631 1.388 . S
C1631 H1610 0.939 . S
C1631 C1626 1.391 . S
C1631 C1630 1.388 . S
P1632 O1643 1.490 . S
P1632 C1646 1.812 1_455 S
P1632 C1652 1.803 . S
P1632 C1658 1.819 . S
H1633 C1647 0.941 . S
H1634 C1648 0.939 . S
H1635 C1650 0.940 . S
H1636 C1651 0.940 . S
H1637 C1653 0.939 . S
H1638 C1654 0.942 . S
H1639 C1656 0.940 . S
H1640 C1657 0.939 . S
H1641 C1659 0.941 . S
H1642 C1663 0.939 . S
O1643 P1632 1.490 . S
H1644 C1660 0.939 . S
H1645 C1662 0.940 . S
C1646 P1632 1.812 1_655 S
C1646 C1647 1.389 . S
C1646 C1651 1.391 . S
C1647 H1633 0.941 . S
C1647 C1646 1.389 . S
C1647 C1648 1.397 . S
C1648 H1634 0.939 . S
C1648 C1647 1.397 . S
C1648 C1649 1.378 . S
C1649 C1648 1.378 . S
C1649 C1650 1.378 . S
C1650 H1635 0.940 . S
C1650 C1649 1.378 . S
C1650 C1651 1.396 . S
C1651 H1636 0.940 . S
C1651 C1646 1.391 . S
C1651 C1650 1.396 . S
C1652 P1632 1.803 . S
C1652 C1653 1.378 . S
C1652 C1657 1.400 . S
C1653 H1637 0.939 . S
C1653 C1652 1.378 . S
C1653 C1654 1.361 . S
C1654 H1638 0.942 . S
C1654 C1653 1.361 . S
C1654 C1655 1.369 . S
C1655 C1654 1.369 . S
C1655 C1656 1.404 . S
C1656 H1639 0.940 . S
C1656 C1655 1.404 . S
C1656 C1657 1.389 . S
C1657 H1640 0.939 . S
C1657 C1652 1.400 . S
C1657 C1656 1.389 . S
C1658 P1632 1.819 . S
C1658 C1659 1.391 1_455 S
C1658 C1663 1.391 . S
C1659 H1641 0.941 . S
C1659 C1658 1.391 1_655 S
C1659 C1660 1.396 . S
C1660 H1644 0.939 . S
C1660 C1659 1.396 . S
C1660 C1661 1.397 1_655 S
C1661 C1660 1.397 1_455 S
C1661 C1662 1.385 . S
C1662 H1645 0.940 . S
C1662 C1661 1.385 . S
C1662 C1663 1.388 . S
C1663 H1642 0.939 . S
C1663 C1658 1.391 . S
C1663 C1662 1.388 . S
P1664 O1675 1.490 . S
P1664 C1678 1.812 1_545 S
P1664 C1684 1.803 . S
P1664 C1690 1.819 . S
H1665 C1679 0.966 . S
H1666 C1680 0.939 . S
H1667 C1682 0.940 . S
H1668 C1683 0.940 . S
H1669 C1685 0.939 . S
H1670 C1686 0.942 . S
H1671 C1688 0.940 . S
H1672 C1689 0.939 . S
H1673 C1691 0.941 . S
H1674 C1695 0.939 . S
O1675 P1664 1.490 . S
H1676 C1692 0.939 . S
H1677 C1694 0.940 . S
C1678 P1664 1.812 1_565 S
C1678 C1679 1.389 . S
C1678 C1683 1.391 . S
C1679 H1665 0.966 . S
C1679 C1678 1.389 . S
C1679 C1680 1.397 . S
C1680 H1666 0.939 . S
C1680 C1679 1.397 . S
C1680 C1681 1.378 . S
C1681 C1680 1.378 . S
C1681 C1682 1.378 . S
C1682 H1667 0.940 . S
C1682 C1681 1.378 . S
C1682 C1683 1.396 . S
C1683 H1668 0.940 . S
C1683 C1678 1.391 . S
C1683 C1682 1.396 . S
C1684 P1664 1.803 . S
C1684 C1685 1.378 . S
C1684 C1689 1.400 1_545 S
C1685 H1669 0.939 . S
C1685 C1684 1.378 . S
C1685 C1686 1.361 . S
C1686 H1670 0.942 . S
C1686 C1685 1.361 . S
C1686 C1687 1.369 1_545 S
C1687 C1686 1.369 1_565 S
C1687 C1688 1.404 . S
C1688 H1671 0.940 . S
C1688 C1687 1.404 . S
C1688 C1689 1.389 . S
C1689 H1672 0.939 . S
C1689 C1684 1.400 1_565 S
C1689 C1688 1.389 . S
C1690 P1664 1.819 . S
C1690 C1691 1.391 . S
C1690 C1695 1.391 . S
C1691 H1673 0.941 . S
C1691 C1690 1.391 . S
C1691 C1692 1.396 . S
C1692 H1676 0.939 . S
C1692 C1691 1.396 . S
C1692 C1693 1.397 . S
C1693 C1692 1.397 . S
C1693 C1694 1.385 . S
C1694 H1677 0.940 . S
C1694 C1693 1.385 . S
C1694 C1695 1.388 . S
C1695 H1674 0.939 . S
C1695 C1690 1.391 . S
C1695 C1694 1.388 . S
P1696 O1707 1.490 . S
P1696 C1710 1.812 1_655 S
P1696 C1716 1.803 . S
P1696 C1722 1.819 . S
H1697 C1711 0.941 . S
H1698 C1712 0.939 . S
H1699 C1714 0.940 . S
H1700 C1715 0.940 . S
H1701 C1717 0.939 . S
H1702 C1718 0.942 . S
H1703 C1720 0.940 . S
H1704 C1721 0.939 . S
H1705 C1723 0.928 1_455 S
H1706 C1727 0.939 . S
O1707 P1696 1.490 . S
H1708 C1724 0.969 . S
H1709 C1726 0.940 . S
C1710 P1696 1.812 1_455 S
C1710 C1711 1.389 . S
C1710 C1715 1.391 . S
C1711 H1697 0.941 . S
C1711 C1710 1.389 . S
C1711 C1712 1.397 . S
C1712 H1698 0.939 . S
C1712 C1711 1.397 . S
C1712 C1713 1.378 . S
C1713 C1712 1.378 . S
C1713 C1714 1.378 . S
C1714 H1699 0.940 . S
C1714 C1713 1.378 . S
C1714 C1715 1.396 . S
C1715 H1700 0.940 . S
C1715 C1710 1.391 . S
C1715 C1714 1.396 . S
C1716 P1696 1.803 . S
C1716 C1717 1.378 . S
C1716 C1721 1.400 . S
C1717 H1701 0.939 . S
C1717 C1716 1.378 . S
C1717 C1718 1.361 . S
C1718 H1702 0.942 . S
C1718 C1717 1.361 . S
C1718 C1719 1.369 . S
C1719 C1718 1.369 . S
C1719 C1720 1.404 . S
C1720 H1703 0.940 . S
C1720 C1719 1.404 . S
C1720 C1721 1.389 . S
C1721 H1704 0.939 . S
C1721 C1716 1.400 . S
C1721 C1720 1.389 . S
C1722 P1696 1.819 . S
C1722 C1723 1.411 . S
C1722 C1727 1.391 . S
C1723 H1705 0.928 1_655 S
C1723 C1722 1.411 . S
C1723 C1724 1.388 1_655 S
C1724 H1708 0.969 . S
C1724 C1723 1.388 1_455 S
C1724 C1725 1.377 1_455 S
C1725 C1724 1.377 1_655 S
C1725 C1726 1.385 . S
C1726 H1709 0.940 . S
C1726 C1725 1.385 . S
C1726 C1727 1.388 . S
C1727 H1706 0.939 . S
C1727 C1722 1.391 . S
C1727 C1726 1.388 . S
H1728 C1746 0.951 . S
H1729 C1748 0.951 . S
H1730 C1750 0.950 . S
H1731 C1751 0.950 . S
H1732 C1753 0.950 . S
H1733 C1756 0.950 . S
H1734 C1757 0.950 . S
H1735 C1759 0.950 . S
H1736 C1760 0.950 . S
H1737 C1761 0.951 . S
H1738 C1763 0.951 . S
H1739 C1765 0.950 . S
H1740 C1766 0.950 . S
H1741 C1768 0.950 . S
H1742 C1771 0.950 . S
H1743 C1772 0.950 . S
H1744 C1774 0.950 . S
H1745 C1775 0.950 . S
C1746 H1728 0.951 . S
C1746 C1747 1.366 . S
C1746 C1748 1.388 . S
C1747 C1746 1.366 . S
C1747 C1751 1.385 . S
C1748 H1729 0.951 . S
C1748 C1746 1.388 . S
C1748 C1749 1.366 . S
C1749 C1748 1.366 . S
C1749 C1750 1.414 . S
C1749 C1752 1.499 . S
C1750 H1730 0.950 . S
C1750 C1749 1.414 . S
C1750 C1751 1.374 . S
C1751 H1731 0.950 . S
C1751 C1747 1.385 . S
C1751 C1750 1.374 . S
C1752 C1749 1.499 . S
C1752 C1753 1.373 . S
C1752 C1754 1.389 . S
C1753 H1732 0.950 . S
C1753 C1752 1.373 . S
C1753 C1769 1.377 . S
C1754 C1752 1.389 . S
C1754 C1755 1.524 . S
C1754 C1768 1.377 . S
C1755 C1754 1.524 . S
C1755 C1756 1.397 . S
C1755 C1760 1.363 . S
C1756 H1733 0.950 . S
C1756 C1755 1.397 . S
C1756 C1757 1.334 . S
C1757 H1734 0.950 . S
C1757 C1756 1.334 . S
C1757 C1758 1.287 . S
C1758 C1757 1.287 . S
C1758 C1759 1.524 . S
C1758 H1777 0.913 . S
C1759 H1735 0.950 . S
C1759 C1758 1.524 . S
C1759 C1760 1.415 . S
C1760 H1736 0.950 . S
C1760 C1755 1.363 . S
C1760 C1759 1.415 . S
C1761 H1737 0.951 . S
C1761 C1762 1.366 . S
C1761 C1763 1.388 . S
C1762 C1761 1.366 . S
C1762 C1766 1.385 . S
C1763 H1738 0.951 . S
C1763 C1761 1.388 . S
C1763 C1764 1.366 . S
C1764 C1763 1.366 . S
C1764 C1765 1.414 . S
C1764 C1767 1.499 . S
C1765 H1739 0.950 . S
C1765 C1764 1.414 . S
C1765 C1766 1.374 . S
C1766 H1740 0.950 . S
C1766 C1762 1.385 . S
C1766 C1765 1.374 . S
C1767 C1764 1.499 . S
C1767 C1768 1.373 . S
C1767 C1769 1.389 . S
C1768 H1741 0.950 . S
C1768 C1754 1.377 . S
C1768 C1767 1.373 . S
C1769 C1753 1.377 . S
C1769 C1767 1.389 . S
C1769 C1770 1.524 . S
C1770 C1769 1.524 . S
C1770 C1771 1.397 . S
C1770 C1775 1.363 . S
C1771 H1742 0.950 . S
C1771 C1770 1.397 . S
C1771 C1772 1.334 . S
C1772 H1743 0.950 . S
C1772 C1771 1.334 . S
C1772 C1773 1.287 . S
C1773 C1772 1.287 . S
C1773 C1774 1.524 . S
C1773 H1776 0.999 . S
C1774 H1744 0.950 . S
C1774 C1773 1.524 . S
C1774 C1775 1.415 . S
C1775 H1745 0.950 . S
C1775 C1770 1.363 . S
C1775 C1774 1.415 . S
H1776 C1773 0.999 . S
H1777 C1758 0.913 . S
H1778 C1796 0.951 . S
H1779 C1798 0.951 . S
H1780 C1800 0.950 . S
H1781 C1801 0.950 . S
H1782 C1803 0.950 . S
H1783 C1806 0.950 . S
H1784 C1807 0.950 . S
H1785 C1809 0.950 . S
H1786 C1810 0.950 . S
H1787 C1811 0.951 . S
H1788 C1813 0.951 . S
H1789 C1815 0.950 . S
H1790 C1816 0.950 . S
H1791 C1818 0.950 . S
H1792 C1821 0.950 . S
H1793 C1822 0.950 . S
H1794 C1824 0.950 . S
H1795 C1825 0.950 . S
C1796 H1778 0.951 . S
C1796 C1797 1.366 . S
C1796 C1798 1.388 . S
C1797 C1796 1.366 . S
C1797 C1801 1.385 . S
C1798 H1779 0.951 . S
C1798 C1796 1.388 . S
C1798 C1799 1.366 . S
C1799 C1798 1.366 . S
C1799 C1800 1.414 . S
C1799 C1802 1.499 . S
C1800 H1780 0.950 . S
C1800 C1799 1.414 . S
C1800 C1801 1.374 . S
C1801 H1781 0.950 . S
C1801 C1797 1.385 . S
C1801 C1800 1.374 . S
C1802 C1799 1.499 . S
C1802 C1803 1.373 . S
C1802 C1804 1.389 . S
C1803 H1782 0.950 . S
C1803 C1802 1.373 . S
C1803 C1819 1.377 . S
C1804 C1802 1.389 . S
C1804 C1805 1.524 . S
C1804 C1818 1.377 . S
C1805 C1804 1.524 . S
C1805 C1806 1.397 . S
C1805 C1810 1.363 . S
C1806 H1783 0.950 . S
C1806 C1805 1.397 . S
C1806 C1807 1.334 . S
C1807 H1784 0.950 . S
C1807 C1806 1.334 . S
C1807 C1808 1.287 . S
C1808 C1807 1.287 . S
C1808 C1809 1.524 . S
C1808 H1827 0.913 . S
C1809 H1785 0.950 . S
C1809 C1808 1.524 . S
C1809 C1810 1.415 . S
C1810 H1786 0.950 . S
C1810 C1805 1.363 . S
C1810 C1809 1.415 . S
C1811 H1787 0.951 . S
C1811 C1812 1.366 . S
C1811 C1813 1.388 . S
C1812 C1811 1.366 . S
C1812 C1816 1.385 . S
C1813 H1788 0.951 . S
C1813 C1811 1.388 . S
C1813 C1814 1.366 . S
C1814 C1813 1.366 . S
C1814 C1815 1.414 . S
C1814 C1817 1.499 . S
C1815 H1789 0.950 . S
C1815 C1814 1.414 . S
C1815 C1816 1.374 . S
C1816 H1790 0.950 . S
C1816 C1812 1.385 . S
C1816 C1815 1.374 . S
C1817 C1814 1.499 . S
C1817 C1818 1.373 . S
C1817 C1819 1.389 . S
C1818 H1791 0.950 . S
C1818 C1804 1.377 . S
C1818 C1817 1.373 . S
C1819 C1803 1.377 . S
C1819 C1817 1.389 . S
C1819 C1820 1.524 . S
C1820 C1819 1.524 . S
C1820 C1821 1.397 . S
C1820 C1825 1.363 . S
C1821 H1792 0.950 . S
C1821 C1820 1.397 . S
C1821 C1822 1.334 . S
C1822 H1793 0.950 . S
C1822 C1821 1.334 . S
C1822 C1823 1.287 . S
C1823 C1822 1.287 . S
C1823 C1824 1.524 . S
C1823 H1826 0.999 . S
C1824 H1794 0.950 . S
C1824 C1823 1.524 . S
C1824 C1825 1.415 . S
C1825 H1795 0.950 . S
C1825 C1820 1.363 . S
C1825 C1824 1.415 . S
H1826 C1823 0.999 . S
H1827 C1808 0.913 . S
H1828 C1846 0.951 . S
H1829 C1848 0.951 . S
H1830 C1850 0.950 . S
H1831 C1851 0.950 . S
H1832 C1853 0.950 . S
H1833 C1856 0.950 . S
H1834 C1857 0.950 . S
H1835 C1859 0.950 . S
H1836 C1860 0.950 . S
H1837 C1861 0.951 . S
H1838 C1863 0.951 . S
H1839 C1865 0.950 . S
H1840 C1866 0.950 . S
H1841 C1868 0.950 . S
H1842 C1871 0.950 . S
H1843 C1872 0.950 . S
H1844 C1874 0.950 . S
H1845 C1875 0.950 . S
C1846 H1828 0.951 . S
C1846 C1847 1.366 . S
C1846 C1848 1.388 . S
C1847 C1846 1.366 . S
C1847 C1851 1.385 1_565 S
C1848 H1829 0.951 . S
C1848 C1846 1.388 . S
C1848 C1849 1.366 . S
C1849 C1848 1.366 . S
C1849 C1850 1.414 1_565 S
C1849 C1852 1.499 . S
C1850 H1830 0.950 . S
C1850 C1849 1.414 1_545 S
C1850 C1851 1.374 . S
C1851 H1831 0.950 . S
C1851 C1847 1.385 1_545 S
C1851 C1850 1.374 . S
C1852 C1849 1.499 . S
C1852 C1853 1.373 . S
C1852 C1854 1.389 . S
C1853 H1832 0.950 . S
C1853 C1852 1.373 . S
C1853 C1869 1.377 . S
C1854 C1852 1.389 . S
C1854 C1855 1.524 . S
C1854 C1868 1.377 . S
C1855 C1854 1.524 . S
C1855 C1856 1.397 . S
C1855 C1860 1.363 . S
C1856 H1833 0.950 . S
C1856 C1855 1.397 . S
C1856 C1857 1.334 . S
C1857 H1834 0.950 . S
C1857 C1856 1.334 . S
C1857 C1858 1.287 . S
C1858 C1857 1.287 . S
C1858 C1859 1.524 . S
C1858 H1877 0.913 . S
C1859 H1835 0.950 . S
C1859 C1858 1.524 . S
C1859 C1860 1.415 . S
C1860 H1836 0.950 . S
C1860 C1855 1.363 . S
C1860 C1859 1.415 . S
C1861 H1837 0.951 . S
C1861 C1862 1.366 . S
C1861 C1863 1.388 . S
C1862 C1861 1.366 . S
C1862 C1866 1.385 . S
C1863 H1838 0.951 . S
C1863 C1861 1.388 . S
C1863 C1864 1.366 . S
C1864 C1863 1.366 . S
C1864 C1865 1.414 . S
C1864 C1867 1.499 . S
C1865 H1839 0.950 . S
C1865 C1864 1.414 . S
C1865 C1866 1.374 . S
C1866 H1840 0.950 . S
C1866 C1862 1.385 . S
C1866 C1865 1.374 . S
C1867 C1864 1.499 . S
C1867 C1868 1.373 . S
C1867 C1869 1.389 . S
C1868 H1841 0.950 . S
C1868 C1854 1.377 . S
C1868 C1867 1.373 . S
C1869 C1853 1.377 . S
C1869 C1867 1.389 . S
C1869 C1870 1.524 . S
C1870 C1869 1.524 . S
C1870 C1871 1.397 . S
C1870 C1875 1.363 1_565 S
C1871 H1842 0.950 . S
C1871 C1870 1.397 . S
C1871 C1872 1.334 . S
C1872 H1843 0.950 . S
C1872 C1871 1.334 . S
C1872 C1873 1.287 . S
C1873 C1872 1.287 . S
C1873 C1874 1.524 1_565 S
C1873 H1876 0.999 1_565 S
C1874 H1844 0.950 . S
C1874 C1873 1.524 1_545 S
C1874 C1875 1.415 . S
C1875 H1845 0.950 . S
C1875 C1870 1.363 1_545 S
C1875 C1874 1.415 . S
H1876 C1873 0.999 1_545 S
H1877 C1858 0.913 . S
H1878 C1896 0.951 . S
H1879 C1898 0.951 . S
H1880 C1900 0.950 1_545 S
H1881 C1901 0.950 1_545 S
H1882 C1903 0.950 1_545 S
H1883 C1906 0.950 . S
H1884 C1907 0.950 . S
H1885 C1909 0.950 . S
H1886 C1910 0.950 . S
H1887 C1911 0.951 . S
H1888 C1913 0.951 . S
H1889 C1915 0.950 . S
H1890 C1916 0.950 . S
H1891 C1918 0.950 . S
H1892 C1921 0.950 1_565 S
H1893 C1922 0.950 . S
H1894 C1924 0.950 . S
H1895 C1925 0.950 . S
C1896 H1878 0.951 . S
C1896 C1897 1.366 . S
C1896 C1898 1.388 . S
C1897 C1896 1.366 . S
C1897 C1901 1.385 . S
C1898 H1879 0.951 . S
C1898 C1896 1.388 . S
C1898 C1899 1.366 . S
C1899 C1898 1.366 . S
C1899 C1900 1.414 . S
C1899 C1902 1.499 . S
C1900 H1880 0.950 1_565 S
C1900 C1899 1.414 . S
C1900 C1901 1.374 . S
C1901 H1881 0.950 1_565 S
C1901 C1897 1.385 . S
C1901 C1900 1.374 . S
C1902 C1899 1.499 . S
C1902 C1903 1.373 . S
C1902 C1904 1.389 . S
C1903 H1882 0.950 1_565 S
C1903 C1902 1.373 . S
C1903 C1919 1.377 . S
C1904 C1902 1.389 . S
C1904 C1905 1.524 . S
C1904 C1918 1.377 . S
C1905 C1904 1.524 . S
C1905 C1906 1.397 . S
C1905 C1910 1.363 . S
C1906 H1883 0.950 . S
C1906 C1905 1.397 . S
C1906 C1907 1.334 . S
C1907 H1884 0.950 . S
C1907 C1906 1.334 . S
C1907 C1908 1.287 . S
C1908 C1907 1.287 . S
C1908 C1909 1.524 . S
C1908 H1927 0.913 . S
C1909 H1885 0.950 . S
C1909 C1908 1.524 . S
C1909 C1910 1.415 . S
C1910 H1886 0.950 . S
C1910 C1905 1.363 . S
C1910 C1909 1.415 . S
C1911 H1887 0.951 . S
C1911 C1912 1.366 . S
C1911 C1913 1.388 . S
C1912 C1911 1.366 . S
C1912 C1916 1.385 . S
C1913 H1888 0.951 . S
C1913 C1911 1.388 . S
C1913 C1914 1.366 . S
C1914 C1913 1.366 . S
C1914 C1915 1.414 . S
C1914 C1917 1.499 . S
C1915 H1889 0.950 . S
C1915 C1914 1.414 . S
C1915 C1916 1.374 . S
C1916 H1890 0.950 . S
C1916 C1912 1.385 . S
C1916 C1915 1.374 . S
C1917 C1914 1.499 . S
C1917 C1918 1.373 . S
C1917 C1919 1.389 . S
C1918 H1891 0.950 . S
C1918 C1904 1.377 . S
C1918 C1917 1.373 . S
C1919 C1903 1.377 . S
C1919 C1917 1.389 . S
C1919 C1920 1.524 1_565 S
C1920 C1919 1.524 1_545 S
C1920 C1921 1.397 . S
C1920 C1925 1.363 . S
C1921 H1892 0.950 1_545 S
C1921 C1920 1.397 . S
C1921 C1922 1.334 . S
C1922 H1893 0.950 . S
C1922 C1921 1.334 . S
C1922 C1923 1.287 . S
C1923 C1922 1.287 . S
C1923 C1924 1.524 . S
C1923 H1926 0.999 . S
C1924 H1894 0.950 . S
C1924 C1923 1.524 . S
C1924 C1925 1.415 . S
C1925 H1895 0.950 . S
C1925 C1920 1.363 . S
C1925 C1924 1.415 . S
H1926 C1923 0.999 . S
H1927 C1908 0.913 . S
H1928 C1946 0.951 . S
H1929 C1948 0.951 . S
H1930 C1950 0.950 . S
H1931 C1951 0.950 . S
H1932 C1953 0.950 . S
H1933 C1956 0.950 . S
H1934 C1957 0.950 . S
H1935 C1959 0.950 . S
H1936 C1960 0.950 . S
H1937 C1961 0.951 . S
H1938 C1963 0.951 . S
H1939 C1965 0.950 . S
H1940 C1966 0.950 . S
H1941 C1968 0.950 . S
H1942 C1971 0.950 . S
H1943 C1972 0.950 . S
H1944 C1974 0.950 . S
H1945 C1975 0.950 . S
C1946 H1928 0.951 . S
C1946 C1947 1.366 . S
C1946 C1948 1.388 . S
C1947 C1946 1.366 . S
C1947 C1951 1.385 . S
C1948 H1929 0.951 . S
C1948 C1946 1.388 . S
C1948 C1949 1.366 . S
C1949 C1948 1.366 . S
C1949 C1950 1.414 . S
C1949 C1952 1.499 . S
C1950 H1930 0.950 . S
C1950 C1949 1.414 . S
C1950 C1951 1.374 . S
C1951 H1931 0.950 . S
C1951 C1947 1.385 . S
C1951 C1950 1.374 . S
C1952 C1949 1.499 . S
C1952 C1953 1.373 . S
C1952 C1954 1.389 . S
C1953 H1932 0.950 . S
C1953 C1952 1.373 . S
C1953 C1969 1.377 . S
C1954 C1952 1.389 . S
C1954 C1955 1.524 . S
C1954 C1968 1.377 . S
C1955 C1954 1.524 . S
C1955 C1956 1.397 . S
C1955 C1960 1.363 . S
C1956 H1933 0.950 . S
C1956 C1955 1.397 . S
C1956 C1957 1.334 . S
C1957 H1934 0.950 . S
C1957 C1956 1.334 . S
C1957 C1958 1.287 . S
C1958 C1957 1.287 . S
C1958 C1959 1.524 . S
C1958 H1977 0.913 . S
C1959 H1935 0.950 . S
C1959 C1958 1.524 . S
C1959 C1960 1.415 . S
C1960 H1936 0.950 . S
C1960 C1955 1.363 . S
C1960 C1959 1.415 . S
C1961 H1937 0.951 . S
C1961 C1962 1.366 . S
C1961 C1963 1.388 . S
C1962 C1961 1.366 . S
C1962 C1966 1.385 . S
C1963 H1938 0.951 . S
C1963 C1961 1.388 . S
C1963 C1964 1.366 . S
C1964 C1963 1.366 . S
C1964 C1965 1.414 . S
C1964 C1967 1.499 . S
C1965 H1939 0.950 . S
C1965 C1964 1.414 . S
C1965 C1966 1.374 . S
C1966 H1940 0.950 . S
C1966 C1962 1.385 . S
C1966 C1965 1.374 . S
C1967 C1964 1.499 . S
C1967 C1968 1.373 . S
C1967 C1969 1.389 . S
C1968 H1941 0.950 . S
C1968 C1954 1.377 . S
C1968 C1967 1.373 . S
C1969 C1953 1.377 . S
C1969 C1967 1.389 . S
C1969 C1970 1.524 . S
C1970 C1969 1.524 . S
C1970 C1971 1.397 . S
C1970 C1975 1.363 . S
C1971 H1942 0.950 . S
C1971 C1970 1.397 . S
C1971 C1972 1.334 . S
C1972 H1943 0.950 . S
C1972 C1971 1.334 . S
C1972 C1973 1.287 . S
C1973 C1972 1.287 . S
C1973 C1974 1.524 . S
C1973 H1976 0.999 . S
C1974 H1944 0.950 . S
C1974 C1973 1.524 . S
C1974 C1975 1.415 . S
C1975 H1945 0.950 . S
C1975 C1970 1.363 . S
C1975 C1974 1.415 . S
H1976 C1973 0.999 . S
H1977 C1958 0.913 . S
H1978 C1996 0.951 . S
H1979 C1998 0.951 . S
H1980 C2000 0.950 . S
H1981 C2001 0.950 . S
H1982 C2003 0.950 . S
H1983 C2006 0.950 . S
H1984 C2007 0.950 . S
H1985 C2009 0.950 . S
H1986 C2010 0.950 . S
H1987 C2011 0.951 . S
H1988 C2013 0.951 . S
H1989 C2015 0.950 . S
H1990 C2016 0.950 . S
H1991 C2018 0.950 . S
H1992 C2021 0.950 . S
H1993 C2022 0.950 . S
H1994 C2024 0.950 . S
H1995 C2025 0.950 . S
C1996 H1978 0.951 . S
C1996 C1997 1.366 . S
C1996 C1998 1.388 . S
C1997 C1996 1.366 . S
C1997 C2001 1.385 . S
C1998 H1979 0.951 . S
C1998 C1996 1.388 . S
C1998 C1999 1.366 . S
C1999 C1998 1.366 . S
C1999 C2000 1.414 . S
C1999 C2002 1.499 . S
C2000 H1980 0.950 . S
C2000 C1999 1.414 . S
C2000 C2001 1.374 . S
C2001 H1981 0.950 . S
C2001 C1997 1.385 . S
C2001 C2000 1.374 . S
C2002 C1999 1.499 . S
C2002 C2003 1.373 . S
C2002 C2004 1.389 . S
C2003 H1982 0.950 . S
C2003 C2002 1.373 . S
C2003 C2019 1.377 . S
C2004 C2002 1.389 . S
C2004 C2005 1.524 1_556 S
C2004 C2018 1.377 . S
C2005 C2004 1.524 1_554 S
C2005 C2006 1.397 . S
C2005 C2010 1.363 . S
C2006 H1983 0.950 . S
C2006 C2005 1.397 . S
C2006 C2007 1.334 . S
C2007 H1984 0.950 . S
C2007 C2006 1.334 . S
C2007 C2008 1.287 . S
C2008 C2007 1.287 . S
C2008 C2009 1.524 . S
C2008 H2027 0.913 . S
C2009 H1985 0.950 . S
C2009 C2008 1.524 . S
C2009 C2010 1.415 . S
C2010 H1986 0.950 . S
C2010 C2005 1.363 . S
C2010 C2009 1.415 . S
C2011 H1987 0.951 . S
C2011 C2012 1.366 . S
C2011 C2013 1.388 . S
C2012 C2011 1.366 . S
C2012 C2016 1.385 . S
C2013 H1988 0.951 . S
C2013 C2011 1.388 . S
C2013 C2014 1.366 . S
C2014 C2013 1.366 . S
C2014 C2015 1.414 . S
C2014 C2017 1.499 . S
C2015 H1989 0.950 . S
C2015 C2014 1.414 . S
C2015 C2016 1.374 . S
C2016 H1990 0.950 . S
C2016 C2012 1.385 . S
C2016 C2015 1.374 . S
C2017 C2014 1.499 . S
C2017 C2018 1.373 . S
C2017 C2019 1.389 . S
C2018 H1991 0.950 . S
C2018 C2004 1.377 . S
C2018 C2017 1.373 . S
C2019 C2003 1.377 . S
C2019 C2017 1.389 . S
C2019 C2020 1.524 . S
C2020 C2019 1.524 . S
C2020 C2021 1.397 . S
C2020 C2025 1.363 . S
C2021 H1992 0.950 . S
C2021 C2020 1.397 . S
C2021 C2022 1.334 . S
C2022 H1993 0.950 . S
C2022 C2021 1.334 . S
C2022 C2023 1.287 . S
C2023 C2022 1.287 . S
C2023 C2024 1.524 . S
C2023 H2026 0.999 . S
C2024 H1994 0.950 . S
C2024 C2023 1.524 . S
C2024 C2025 1.415 . S
C2025 H1995 0.950 . S
C2025 C2020 1.363 . S
C2025 C2024 1.415 . S
H2026 C2023 0.999 . S
H2027 C2008 0.913 . S
H2028 C2046 0.951 . S
H2029 C2048 0.951 . S
H2030 C2050 0.950 . S
H2031 C2051 0.950 . S
H2032 C2053 0.950 . S
H2033 C2056 0.950 . S
H2034 C2057 0.950 . S
H2035 C2059 0.950 . S
H2036 C2060 0.950 . S
H2037 C2061 0.951 . S
H2038 C2063 0.951 . S
H2039 C2065 0.950 . S
H2040 C2066 0.950 . S
H2041 C2068 0.950 . S
H2042 C2071 0.950 . S
H2043 C2072 0.950 . S
H2044 C2074 0.950 . S
H2045 C2075 0.950 . S
C2046 H2028 0.951 . S
C2046 C2047 1.366 . S
C2046 C2048 1.388 . S
C2047 C2046 1.366 . S
C2047 C2051 1.385 . S
C2048 H2029 0.951 . S
C2048 C2046 1.388 . S
C2048 C2049 1.366 . S
C2049 C2048 1.366 . S
C2049 C2050 1.414 . S
C2049 C2052 1.499 . S
C2050 H2030 0.950 . S
C2050 C2049 1.414 . S
C2050 C2051 1.374 . S
C2051 H2031 0.950 . S
C2051 C2047 1.385 . S
C2051 C2050 1.374 . S
C2052 C2049 1.499 . S
C2052 C2053 1.373 . S
C2052 C2054 1.389 . S
C2053 H2032 0.950 . S
C2053 C2052 1.373 . S
C2053 C2069 1.377 . S
C2054 C2052 1.389 . S
C2054 C2055 1.524 . S
C2054 C2068 1.377 . S
C2055 C2054 1.524 . S
C2055 C2056 1.397 . S
C2055 C2060 1.363 . S
C2056 H2033 0.950 . S
C2056 C2055 1.397 . S
C2056 C2057 1.334 . S
C2057 H2034 0.950 . S
C2057 C2056 1.334 . S
C2057 C2058 1.287 . S
C2058 C2057 1.287 . S
C2058 C2059 1.524 . S
C2058 H2077 0.913 . S
C2059 H2035 0.950 . S
C2059 C2058 1.524 . S
C2059 C2060 1.415 . S
C2060 H2036 0.950 . S
C2060 C2055 1.363 . S
C2060 C2059 1.415 . S
C2061 H2037 0.951 . S
C2061 C2062 1.366 . S
C2061 C2063 1.388 . S
C2062 C2061 1.366 . S
C2062 C2066 1.385 . S
C2063 H2038 0.951 . S
C2063 C2061 1.388 . S
C2063 C2064 1.366 . S
C2064 C2063 1.366 . S
C2064 C2065 1.414 . S
C2064 C2067 1.499 . S
C2065 H2039 0.950 . S
C2065 C2064 1.414 . S
C2065 C2066 1.374 . S
C2066 H2040 0.950 . S
C2066 C2062 1.385 . S
C2066 C2065 1.374 . S
C2067 C2064 1.499 . S
C2067 C2068 1.373 . S
C2067 C2069 1.389 . S
C2068 H2041 0.950 . S
C2068 C2054 1.377 . S
C2068 C2067 1.373 . S
C2069 C2053 1.377 . S
C2069 C2067 1.389 . S
C2069 C2070 1.524 . S
C2070 C2069 1.524 . S
C2070 C2071 1.397 . S
C2070 C2075 1.363 . S
C2071 H2042 0.950 . S
C2071 C2070 1.397 . S
C2071 C2072 1.334 . S
C2072 H2043 0.950 . S
C2072 C2071 1.334 . S
C2072 C2073 1.287 . S
C2073 C2072 1.287 . S
C2073 C2074 1.524 . S
C2073 H2076 0.999 . S
C2074 H2044 0.950 . S
C2074 C2073 1.524 . S
C2074 C2075 1.415 . S
C2075 H2045 0.950 . S
C2075 C2070 1.363 . S
C2075 C2074 1.415 . S
H2076 C2073 0.999 . S
H2077 C2058 0.913 . S
H2078 C2096 0.951 . S
H2079 C2098 0.951 . S
H2080 C2100 0.950 . S
H2081 C2101 0.950 . S
H2082 C2103 0.950 . S
H2083 C2106 0.950 . S
H2084 C2107 0.950 . S
H2085 C2109 0.950 . S
H2086 C2110 0.950 . S
H2087 C2111 0.951 . S
H2088 C2113 0.951 . S
H2089 C2115 0.950 . S
H2090 C2116 0.950 . S
H2091 C2118 0.950 . S
H2092 C2121 0.950 . S
H2093 C2122 0.950 . S
H2094 C2124 0.950 . S
H2095 C2125 0.950 . S
C2096 H2078 0.951 . S
C2096 C2097 1.366 . S
C2096 C2098 1.388 . S
C2097 C2096 1.366 . S
C2097 C2101 1.385 . S
C2098 H2079 0.951 . S
C2098 C2096 1.388 . S
C2098 C2099 1.366 . S
C2099 C2098 1.366 . S
C2099 C2100 1.414 . S
C2099 C2102 1.499 . S
C2100 H2080 0.950 . S
C2100 C2099 1.414 . S
C2100 C2101 1.374 . S
C2101 H2081 0.950 . S
C2101 C2097 1.385 . S
C2101 C2100 1.374 . S
C2102 C2099 1.499 . S
C2102 C2103 1.373 . S
C2102 C2104 1.389 . S
C2103 H2082 0.950 . S
C2103 C2102 1.373 . S
C2103 C2119 1.377 . S
C2104 C2102 1.389 . S
C2104 C2105 1.524 1_556 S
C2104 C2118 1.377 . S
C2105 C2104 1.524 1_554 S
C2105 C2106 1.397 . S
C2105 C2110 1.363 . S
C2106 H2083 0.950 . S
C2106 C2105 1.397 . S
C2106 C2107 1.334 . S
C2107 H2084 0.950 . S
C2107 C2106 1.334 . S
C2107 C2108 1.287 . S
C2108 C2107 1.287 . S
C2108 C2109 1.524 . S
C2108 H2127 0.913 . S
C2109 H2085 0.950 . S
C2109 C2108 1.524 . S
C2109 C2110 1.415 . S
C2110 H2086 0.950 . S
C2110 C2105 1.363 . S
C2110 C2109 1.415 . S
C2111 H2087 0.951 . S
C2111 C2112 1.366 . S
C2111 C2113 1.388 . S
C2112 C2111 1.366 . S
C2112 C2116 1.385 . S
C2113 H2088 0.951 . S
C2113 C2111 1.388 . S
C2113 C2114 1.366 . S
C2114 C2113 1.366 . S
C2114 C2115 1.414 . S
C2114 C2117 1.499 . S
C2115 H2089 0.950 . S
C2115 C2114 1.414 . S
C2115 C2116 1.374 . S
C2116 H2090 0.950 . S
C2116 C2112 1.385 . S
C2116 C2115 1.374 . S
C2117 C2114 1.499 . S
C2117 C2118 1.373 . S
C2117 C2119 1.389 . S
C2118 H2091 0.950 . S
C2118 C2104 1.377 . S
C2118 C2117 1.373 . S
C2119 C2103 1.377 . S
C2119 C2117 1.389 . S
C2119 C2120 1.524 . S
C2120 C2119 1.524 . S
C2120 C2121 1.397 . S
C2120 C2125 1.363 . S
C2121 H2092 0.950 . S
C2121 C2120 1.397 . S
C2121 C2122 1.334 . S
C2122 H2093 0.950 . S
C2122 C2121 1.334 . S
C2122 C2123 1.287 . S
C2123 C2122 1.287 . S
C2123 C2124 1.524 . S
C2123 H2126 0.999 . S
C2124 H2094 0.950 . S
C2124 C2123 1.524 . S
C2124 C2125 1.415 . S
C2125 H2095 0.950 . S
C2125 C2120 1.363 . S
C2125 C2124 1.415 . S
H2126 C2123 0.999 . S
H2127 C2108 0.913 . S
H2128 C2146 0.951 . S
H2129 C2148 0.951 . S
H2130 C2150 0.950 . S
H2131 C2151 0.950 . S
H2132 C2153 0.950 . S
H2133 C2156 0.950 . S
H2134 C2157 0.950 . S
H2135 C2159 0.950 . S
H2136 C2160 0.950 . S
H2137 C2161 0.951 . S
H2138 C2163 0.951 . S
H2139 C2165 0.950 . S
H2140 C2166 0.950 . S
H2141 C2168 0.950 . S
H2142 C2171 0.950 . S
H2143 C2172 0.950 . S
H2144 C2174 0.950 . S
H2145 C2175 0.950 . S
C2146 H2128 0.951 . S
C2146 C2147 1.366 . S
C2146 C2148 1.388 . S
C2147 C2146 1.366 . S
C2147 C2151 1.385 . S
C2148 H2129 0.951 . S
C2148 C2146 1.388 . S
C2148 C2149 1.366 . S
C2149 C2148 1.366 . S
C2149 C2150 1.414 . S
C2149 C2152 1.499 . S
C2150 H2130 0.950 . S
C2150 C2149 1.414 . S
C2150 C2151 1.374 . S
C2151 H2131 0.950 . S
C2151 C2147 1.385 . S
C2151 C2150 1.374 . S
C2152 C2149 1.499 . S
C2152 C2153 1.373 . S
C2152 C2154 1.389 . S
C2153 H2132 0.950 . S
C2153 C2152 1.373 . S
C2153 C2169 1.377 . S
C2154 C2152 1.389 . S
C2154 C2155 1.524 . S
C2154 C2168 1.377 . S
C2155 C2154 1.524 . S
C2155 C2156 1.397 . S
C2155 C2160 1.363 . S
C2156 H2133 0.950 . S
C2156 C2155 1.397 . S
C2156 C2157 1.334 . S
C2157 H2134 0.950 . S
C2157 C2156 1.334 . S
C2157 C2158 1.287 . S
C2158 C2157 1.287 . S
C2158 C2159 1.524 . S
C2158 H2177 0.913 . S
C2159 H2135 0.950 . S
C2159 C2158 1.524 . S
C2159 C2160 1.415 . S
C2160 H2136 0.950 . S
C2160 C2155 1.363 . S
C2160 C2159 1.415 . S
C2161 H2137 0.951 . S
C2161 C2162 1.366 . S
C2161 C2163 1.388 . S
C2162 C2161 1.366 . S
C2162 C2166 1.385 . S
C2163 H2138 0.951 . S
C2163 C2161 1.388 . S
C2163 C2164 1.366 . S
C2164 C2163 1.366 . S
C2164 C2165 1.414 . S
C2164 C2167 1.499 . S
C2165 H2139 0.950 . S
C2165 C2164 1.414 . S
C2165 C2166 1.374 . S
C2166 H2140 0.950 . S
C2166 C2162 1.385 . S
C2166 C2165 1.374 . S
C2167 C2164 1.499 . S
C2167 C2168 1.373 . S
C2167 C2169 1.389 . S
C2168 H2141 0.950 . S
C2168 C2154 1.377 . S
C2168 C2167 1.373 . S
C2169 C2153 1.377 . S
C2169 C2167 1.389 . S
C2169 C2170 1.524 . S
C2170 C2169 1.524 . S
C2170 C2171 1.397 . S
C2170 C2175 1.363 . S
C2171 H2142 0.950 . S
C2171 C2170 1.397 . S
C2171 C2172 1.334 . S
C2172 H2143 0.950 . S
C2172 C2171 1.334 . S
C2172 C2173 1.287 . S
C2173 C2172 1.287 . S
C2173 C2174 1.524 . S
C2173 H2176 0.999 . S
C2174 H2144 0.950 . S
C2174 C2173 1.524 . S
C2174 C2175 1.415 . S
C2175 H2145 0.950 . S
C2175 C2170 1.363 . S
C2175 C2174 1.415 . S
H2176 C2173 0.999 . S
H2177 C2158 0.913 . S
H2178 C2196 0.951 . S
H2179 C2198 0.951 . S
H2180 C2200 0.950 . S
H2181 C2201 0.950 . S
H2182 C2203 0.950 . S
H2183 C2206 0.950 . S
H2184 C2207 0.950 . S
H2185 C2209 0.950 . S
H2186 C2210 0.950 . S
H2187 C2211 0.951 . S
H2188 C2213 0.951 . S
H2189 C2215 0.950 . S
H2190 C2216 0.950 . S
H2191 C2218 0.950 . S
H2192 C2221 0.950 . S
H2193 C2222 0.950 . S
H2194 C2224 0.950 . S
H2195 C2225 0.950 . S
C2196 H2178 0.951 . S
C2196 C2197 1.366 . S
C2196 C2198 1.388 . S
C2197 C2196 1.366 . S
C2197 C2201 1.385 . S
C2198 H2179 0.951 . S
C2198 C2196 1.388 . S
C2198 C2199 1.366 . S
C2199 C2198 1.366 . S
C2199 C2200 1.414 . S
C2199 C2202 1.499 . S
C2200 H2180 0.950 . S
C2200 C2199 1.414 . S
C2200 C2201 1.374 . S
C2201 H2181 0.950 . S
C2201 C2197 1.385 . S
C2201 C2200 1.374 . S
C2202 C2199 1.499 . S
C2202 C2203 1.373 . S
C2202 C2204 1.389 . S
C2203 H2182 0.950 . S
C2203 C2202 1.373 . S
C2203 C2219 1.377 . S
C2204 C2202 1.389 . S
C2204 C2205 1.544 . S
C2204 C2218 1.377 . S
C2205 C2204 1.544 . S
C2205 C2206 1.372 1_655 S
C2205 C2210 1.368 . S
C2206 H2183 0.950 . S
C2206 C2205 1.372 1_455 S
C2206 C2207 1.334 . S
C2207 H2184 0.950 . S
C2207 C2206 1.334 . S
C2207 C2208 1.287 . S
C2208 C2207 1.287 . S
C2208 C2209 1.524 . S
C2208 H2227 0.913 . S
C2209 H2185 0.950 . S
C2209 C2208 1.524 . S
C2209 C2210 1.415 1_455 S
C2210 H2186 0.950 . S
C2210 C2205 1.368 . S
C2210 C2209 1.415 1_655 S
C2211 H2187 0.951 . S
C2211 C2212 1.366 . S
C2211 C2213 1.388 . S
C2212 C2211 1.366 . S
C2212 C2216 1.385 . S
C2213 H2188 0.951 . S
C2213 C2211 1.388 . S
C2213 C2214 1.366 . S
C2214 C2213 1.366 . S
C2214 C2215 1.414 . S
C2214 C2217 1.499 . S
C2215 H2189 0.950 . S
C2215 C2214 1.414 . S
C2215 C2216 1.374 . S
C2216 H2190 0.950 . S
C2216 C2212 1.385 . S
C2216 C2215 1.374 . S
C2217 C2214 1.499 . S
C2217 C2218 1.373 . S
C2217 C2219 1.389 . S
C2218 H2191 0.950 . S
C2218 C2204 1.377 . S
C2218 C2217 1.373 . S
C2219 C2203 1.377 . S
C2219 C2217 1.389 . S
C2219 C2220 1.524 . S
C2220 C2219 1.524 . S
C2220 C2221 1.397 . S
C2220 C2225 1.363 . S
C2221 H2192 0.950 . S
C2221 C2220 1.397 . S
C2221 C2222 1.334 . S
C2222 H2193 0.950 . S
C2222 C2221 1.334 . S
C2222 C2223 1.287 . S
C2223 C2222 1.287 . S
C2223 C2224 1.524 . S
C2223 H2226 0.999 . S
C2224 H2194 0.950 . S
C2224 C2223 1.524 . S
C2224 C2225 1.415 . S
C2225 H2195 0.950 . S
C2225 C2220 1.363 . S
C2225 C2224 1.415 . S
H2226 C2223 0.999 . S
H2227 C2208 0.913 . S
H2228 C2246 0.951 . S
H2229 C2248 0.951 . S
H2230 C2250 0.950 . S
H2231 C2251 0.950 . S
H2232 C2253 0.950 . S
H2233 C2256 0.950 . S
H2234 C2257 0.950 . S
H2235 C2259 0.950 . S
H2236 C2260 0.950 . S
H2237 C2261 0.951 . S
H2238 C2263 0.951 . S
H2239 C2265 0.950 . S
H2240 C2266 0.950 . S
H2241 C2268 0.950 . S
H2242 C2271 0.950 . S
H2243 C2272 0.950 . S
H2244 C2274 0.950 . S
H2245 C2275 0.950 . S
C2246 H2228 0.951 . S
C2246 C2247 1.366 . S
C2246 C2248 1.388 . S
C2247 C2246 1.366 . S
C2247 C2251 1.385 . S
C2248 H2229 0.951 . S
C2248 C2246 1.388 . S
C2248 C2249 1.366 . S
C2249 C2248 1.366 . S
C2249 C2250 1.414 . S
C2249 C2252 1.499 . S
C2250 H2230 0.950 . S
C2250 C2249 1.414 . S
C2250 C2251 1.374 . S
C2251 H2231 0.950 . S
C2251 C2247 1.385 . S
C2251 C2250 1.374 . S
C2252 C2249 1.499 . S
C2252 C2253 1.373 . S
C2252 C2254 1.389 . S
C2253 H2232 0.950 . S
C2253 C2252 1.373 . S
C2253 C2269 1.377 . S
C2254 C2252 1.389 . S
C2254 C2255 1.524 . S
C2254 C2268 1.377 . S
C2255 C2254 1.524 . S
C2255 C2256 1.397 . S
C2255 C2260 1.363 . S
C2256 H2233 0.950 . S
C2256 C2255 1.397 . S
C2256 C2257 1.334 . S
C2257 H2234 0.950 . S
C2257 C2256 1.334 . S
C2257 C2258 1.287 . S
C2258 C2257 1.287 . S
C2258 C2259 1.524 . S
C2258 H2277 0.913 . S
C2259 H2235 0.950 . S
C2259 C2258 1.524 . S
C2259 C2260 1.415 . S
C2260 H2236 0.950 . S
C2260 C2255 1.363 . S
C2260 C2259 1.415 . S
C2261 H2237 0.951 . S
C2261 C2262 1.366 . S
C2261 C2263 1.388 . S
C2262 C2261 1.366 . S
C2262 C2266 1.385 . S
C2263 H2238 0.951 . S
C2263 C2261 1.388 . S
C2263 C2264 1.366 . S
C2264 C2263 1.366 . S
C2264 C2265 1.414 . S
C2264 C2267 1.499 . S
C2265 H2239 0.950 . S
C2265 C2264 1.414 . S
C2265 C2266 1.374 . S
C2266 H2240 0.950 . S
C2266 C2262 1.385 . S
C2266 C2265 1.374 . S
C2267 C2264 1.499 . S
C2267 C2268 1.373 . S
C2267 C2269 1.389 . S
C2268 H2241 0.950 . S
C2268 C2254 1.377 . S
C2268 C2267 1.373 . S
C2269 C2253 1.377 . S
C2269 C2267 1.389 . S
C2269 C2270 1.524 . S
C2270 C2269 1.524 . S
C2270 C2271 1.397 . S
C2270 C2275 1.363 . S
C2271 H2242 0.950 . S
C2271 C2270 1.397 . S
C2271 C2272 1.334 . S
C2272 H2243 0.950 . S
C2272 C2271 1.334 . S
C2272 C2273 1.287 . S
C2273 C2272 1.287 . S
C2273 C2274 1.524 . S
C2273 H2276 0.999 . S
C2274 H2244 0.950 . S
C2274 C2273 1.524 . S
C2274 C2275 1.415 . S
C2275 H2245 0.950 . S
C2275 C2270 1.363 . S
C2275 C2274 1.415 . S
H2276 C2273 0.999 . S
H2277 C2258 0.913 . S
H2278 C2296 0.951 . S
H2279 C2298 0.951 . S
H2280 C2300 0.945 1_455 S
H2281 C2301 0.950 . S
H2282 C2303 0.950 1_455 S
H2283 C2306 0.950 . S
H2284 C2307 0.950 . S
H2285 C2309 0.950 . S
H2286 C2310 0.950 . S
H2287 C2311 0.951 . S
H2288 C2313 0.951 . S
H2289 C2315 0.950 . S
H2290 C2316 0.950 . S
H2291 C2318 0.950 . S
H2292 C2321 0.950 1_655 S
H2293 C2322 0.950 . S
H2294 C2324 0.950 . S
H2295 C2325 0.950 . S
C2296 H2278 0.951 . S
C2296 C2297 1.366 . S
C2296 C2298 1.388 . S
C2297 C2296 1.366 . S
C2297 C2301 1.385 1_655 S
C2298 H2279 0.951 . S
C2298 C2296 1.388 . S
C2298 C2299 1.366 . S
C2299 C2298 1.366 . S
C2299 C2300 1.421 . S
C2299 C2302 1.499 . S
C2300 H2280 0.945 1_655 S
C2300 C2299 1.421 . S
C2300 C2301 1.372 1_655 S
C2301 H2281 0.950 . S
C2301 C2297 1.385 1_455 S
C2301 C2300 1.372 1_455 S
C2302 C2299 1.499 . S
C2302 C2303 1.373 . S
C2302 C2304 1.389 . S
C2303 H2282 0.950 1_655 S
C2303 C2302 1.373 . S
C2303 C2319 1.377 . S
C2304 C2302 1.389 . S
C2304 C2305 1.524 . S
C2304 C2318 1.377 . S
C2305 C2304 1.524 . S
C2305 C2306 1.397 . S
C2305 C2310 1.363 . S
C2306 H2283 0.950 . S
C2306 C2305 1.397 . S
C2306 C2307 1.334 . S
C2307 H2284 0.950 . S
C2307 C2306 1.334 . S
C2307 C2308 1.287 . S
C2308 C2307 1.287 . S
C2308 C2309 1.524 . S
C2308 H2327 0.913 . S
C2309 H2285 0.950 . S
C2309 C2308 1.524 . S
C2309 C2310 1.415 . S
C2310 H2286 0.950 . S
C2310 C2305 1.363 . S
C2310 C2309 1.415 . S
C2311 H2287 0.951 . S
C2311 C2312 1.366 . S
C2311 C2313 1.388 . S
C2312 C2311 1.366 . S
C2312 C2316 1.385 . S
C2313 H2288 0.951 . S
C2313 C2311 1.388 . S
C2313 C2314 1.366 . S
C2314 C2313 1.366 . S
C2314 C2315 1.414 . S
C2314 C2317 1.499 . S
C2315 H2289 0.950 . S
C2315 C2314 1.414 . S
C2315 C2316 1.374 . S
C2316 H2290 0.950 . S
C2316 C2312 1.385 . S
C2316 C2315 1.374 . S
C2317 C2314 1.499 . S
C2317 C2318 1.373 . S
C2317 C2319 1.389 . S
C2318 H2291 0.950 . S
C2318 C2304 1.377 . S
C2318 C2317 1.373 . S
C2319 C2303 1.377 . S
C2319 C2317 1.389 . S
C2319 C2320 1.524 1_655 S
C2320 C2319 1.524 1_455 S
C2320 C2321 1.397 . S
C2320 C2325 1.363 . S
C2321 H2292 0.950 1_455 S
C2321 C2320 1.397 . S
C2321 C2322 1.334 . S
C2322 H2293 0.950 . S
C2322 C2321 1.334 . S
C2322 C2323 1.287 . S
C2323 C2322 1.287 . S
C2323 C2324 1.524 . S
C2323 H2326 0.999 . S
C2324 H2294 0.950 . S
C2324 C2323 1.524 . S
C2324 C2325 1.415 . S
C2325 H2295 0.950 . S
C2325 C2320 1.363 . S
C2325 C2324 1.415 . S
H2326 C2323 0.999 . S
H2327 C2308 0.913 . S
H2328 C2346 0.951 . S
H2329 C2348 0.951 . S
H2330 C2350 0.950 . S
H2331 C2351 0.950 . S
H2332 C2353 0.950 . S
H2333 C2356 0.950 . S
H2334 C2357 0.950 . S
H2335 C2359 0.950 . S
H2336 C2360 0.950 . S
H2337 C2361 0.951 . S
H2338 C2363 0.951 . S
H2339 C2365 0.950 . S
H2340 C2366 0.950 . S
H2341 C2368 0.950 . S
H2342 C2371 0.950 . S
H2343 C2372 0.950 . S
H2344 C2374 0.950 . S
H2345 C2375 0.950 . S
C2346 H2328 0.951 . S
C2346 C2347 1.366 . S
C2346 C2348 1.388 . S
C2347 C2346 1.366 . S
C2347 C2351 1.385 . S
C2348 H2329 0.951 . S
C2348 C2346 1.388 . S
C2348 C2349 1.366 . S
C2349 C2348 1.366 . S
C2349 C2350 1.414 . S
C2349 C2352 1.499 . S
C2350 H2330 0.950 . S
C2350 C2349 1.414 . S
C2350 C2351 1.374 . S
C2351 H2331 0.950 . S
C2351 C2347 1.385 . S
C2351 C2350 1.374 . S
C2352 C2349 1.499 . S
C2352 C2353 1.373 . S
C2352 C2354 1.389 . S
C2353 H2332 0.950 . S
C2353 C2352 1.373 . S
C2353 C2369 1.377 . S
C2354 C2352 1.389 . S
C2354 C2355 1.524 . S
C2354 C2368 1.377 . S
C2355 C2354 1.524 . S
C2355 C2356 1.397 . S
C2355 C2360 1.363 . S
C2356 H2333 0.950 . S
C2356 C2355 1.397 . S
C2356 C2357 1.334 . S
C2357 H2334 0.950 . S
C2357 C2356 1.334 . S
C2357 C2358 1.287 . S
C2358 C2357 1.287 . S
C2358 C2359 1.524 . S
C2358 H2377 0.913 . S
C2359 H2335 0.950 . S
C2359 C2358 1.524 . S
C2359 C2360 1.415 . S
C2360 H2336 0.950 . S
C2360 C2355 1.363 . S
C2360 C2359 1.415 . S
C2361 H2337 0.951 . S
C2361 C2362 1.366 . S
C2361 C2363 1.388 . S
C2362 C2361 1.366 . S
C2362 C2366 1.385 . S
C2363 H2338 0.951 . S
C2363 C2361 1.388 . S
C2363 C2364 1.366 . S
C2364 C2363 1.366 . S
C2364 C2365 1.414 . S
C2364 C2367 1.499 . S
C2365 H2339 0.950 . S
C2365 C2364 1.414 . S
C2365 C2366 1.374 . S
C2366 H2340 0.950 . S
C2366 C2362 1.385 . S
C2366 C2365 1.374 . S
C2367 C2364 1.499 . S
C2367 C2368 1.373 . S
C2367 C2369 1.389 . S
C2368 H2341 0.950 . S
C2368 C2354 1.377 . S
C2368 C2367 1.373 . S
C2369 C2353 1.377 . S
C2369 C2367 1.389 . S
C2369 C2370 1.524 . S
C2370 C2369 1.524 . S
C2370 C2371 1.397 . S
C2370 C2375 1.363 . S
C2371 H2342 0.950 . S
C2371 C2370 1.397 . S
C2371 C2372 1.334 . S
C2372 H2343 0.950 . S
C2372 C2371 1.334 . S
C2372 C2373 1.287 . S
C2373 C2372 1.287 . S
C2373 C2374 1.524 . S
C2373 H2376 0.999 . S
C2374 H2344 0.950 . S
C2374 C2373 1.524 . S
C2374 C2375 1.415 . S
C2375 H2345 0.950 . S
C2375 C2370 1.363 . S
C2375 C2374 1.415 . S
H2376 C2373 0.999 . S
H2377 C2358 0.913 . S
H2378 C2396 0.951 . S
H2379 C2398 0.951 . S
H2380 C2400 0.950 . S
H2381 C2401 0.950 . S
H2382 C2403 0.950 . S
H2383 C2406 0.950 . S
H2384 C2407 0.950 . S
H2385 C2409 0.950 . S
H2386 C2410 0.950 . S
H2387 C2411 0.951 . S
H2388 C2413 0.951 . S
H2389 C2415 0.950 . S
H2390 C2416 0.950 . S
H2391 C2418 0.950 . S
H2392 C2421 0.950 . S
H2393 C2422 0.950 . S
H2394 C2424 0.950 . S
H2395 C2425 0.950 . S
C2396 H2378 0.951 . S
C2396 C2397 1.366 . S
C2396 C2398 1.388 . S
C2397 C2396 1.366 . S
C2397 C2401 1.385 . S
C2398 H2379 0.951 . S
C2398 C2396 1.388 . S
C2398 C2399 1.366 . S
C2399 C2398 1.366 . S
C2399 C2400 1.414 . S
C2399 C2402 1.499 . S
C2400 H2380 0.950 . S
C2400 C2399 1.414 . S
C2400 C2401 1.374 . S
C2401 H2381 0.950 . S
C2401 C2397 1.385 . S
C2401 C2400 1.374 . S
C2402 C2399 1.499 . S
C2402 C2403 1.373 . S
C2402 C2404 1.389 . S
C2403 H2382 0.950 . S
C2403 C2402 1.373 . S
C2403 C2419 1.377 . S
C2404 C2402 1.389 . S
C2404 C2405 1.524 . S
C2404 C2418 1.377 . S
C2405 C2404 1.524 . S
C2405 C2406 1.397 . S
C2405 C2410 1.363 . S
C2406 H2383 0.950 . S
C2406 C2405 1.397 . S
C2406 C2407 1.334 . S
C2407 H2384 0.950 . S
C2407 C2406 1.334 . S
C2407 C2408 1.287 . S
C2408 C2407 1.287 . S
C2408 C2409 1.524 . S
C2408 H2427 0.913 . S
C2409 H2385 0.950 . S
C2409 C2408 1.524 . S
C2409 C2410 1.415 . S
C2410 H2386 0.950 . S
C2410 C2405 1.363 . S
C2410 C2409 1.415 . S
C2411 H2387 0.951 . S
C2411 C2412 1.366 . S
C2411 C2413 1.388 . S
C2412 C2411 1.366 . S
C2412 C2416 1.385 . S
C2413 H2388 0.951 . S
C2413 C2411 1.388 . S
C2413 C2414 1.366 . S
C2414 C2413 1.366 . S
C2414 C2415 1.414 . S
C2414 C2417 1.499 . S
C2415 H2389 0.950 . S
C2415 C2414 1.414 . S
C2415 C2416 1.374 . S
C2416 H2390 0.950 . S
C2416 C2412 1.385 . S
C2416 C2415 1.374 . S
C2417 C2414 1.499 . S
C2417 C2418 1.373 . S
C2417 C2419 1.389 . S
C2418 H2391 0.950 . S
C2418 C2404 1.377 . S
C2418 C2417 1.373 . S
C2419 C2403 1.377 . S
C2419 C2417 1.389 . S
C2419 C2420 1.524 . S
C2420 C2419 1.524 . S
C2420 C2421 1.397 . S
C2420 C2425 1.363 . S
C2421 H2392 0.950 . S
C2421 C2420 1.397 . S
C2421 C2422 1.334 . S
C2422 H2393 0.950 . S
C2422 C2421 1.334 . S
C2422 C2423 1.287 . S
C2423 C2422 1.287 . S
C2423 C2424 1.524 . S
C2423 H2426 0.999 . S
C2424 H2394 0.950 . S
C2424 C2423 1.524 . S
C2424 C2425 1.415 . S
C2425 H2395 0.950 . S
C2425 C2420 1.363 . S
C2425 C2424 1.415 . S
H2426 C2423 0.999 . S
H2427 C2408 0.913 . S
H2428 C2446 0.951 . S
H2429 C2448 0.951 . S
H2430 C2450 0.950 . S
H2431 C2451 0.928 1_565 S
H2432 C2453 0.950 . S
H2433 C2456 0.950 . S
H2434 C2457 0.950 . S
H2435 C2459 0.950 . S
H2436 C2460 0.971 . S
H2437 C2461 0.951 . S
H2438 C2463 0.951 . S
H2439 C2465 0.950 . S
H2440 C2466 0.950 . S
H2441 C2468 0.950 . S
H2442 C2471 0.950 . S
H2443 C2472 0.950 . S
H2444 C2474 0.950 . S
H2445 C2475 0.950 . S
C2446 H2428 0.951 . S
C2446 C2447 1.366 . S
C2446 C2448 1.388 . S
C2447 C2446 1.366 . S
C2447 C2451 1.385 . S
C2448 H2429 0.951 . S
C2448 C2446 1.388 . S
C2448 C2449 1.366 . S
C2449 C2448 1.366 . S
C2449 C2450 1.414 . S
C2449 C2452 1.499 . S
C2450 H2430 0.950 . S
C2450 C2449 1.414 . S
C2450 C2451 1.374 . S
C2451 H2431 0.928 1_545 S
C2451 C2447 1.385 . S
C2451 C2450 1.374 . S
C2452 C2449 1.499 . S
C2452 C2453 1.373 . S
C2452 C2454 1.389 . S
C2453 H2432 0.950 . S
C2453 C2452 1.373 . S
C2453 C2469 1.377 . S
C2454 C2452 1.389 . S
C2454 C2455 1.524 1_545 S
C2454 C2468 1.377 . S
C2455 C2454 1.524 1_565 S
C2455 C2456 1.397 . S
C2455 C2460 1.358 1_565 S
C2456 H2433 0.950 . S
C2456 C2455 1.397 . S
C2456 C2457 1.334 . S
C2457 H2434 0.950 . S
C2457 C2456 1.334 . S
C2457 C2458 1.287 . S
C2458 C2457 1.287 . S
C2458 C2459 1.524 . S
C2458 H2477 0.913 . S
C2459 H2435 0.950 . S
C2459 C2458 1.524 . S
C2459 C2460 1.400 1_565 S
C2460 H2436 0.971 . S
C2460 C2455 1.358 1_545 S
C2460 C2459 1.400 1_545 S
C2461 H2437 0.951 . S
C2461 C2462 1.366 . S
C2461 C2463 1.388 . S
C2462 C2461 1.366 . S
C2462 C2466 1.385 . S
C2463 H2438 0.951 . S
C2463 C2461 1.388 . S
C2463 C2464 1.366 . S
C2464 C2463 1.366 . S
C2464 C2465 1.414 . S
C2464 C2467 1.499 . S
C2465 H2439 0.950 . S
C2465 C2464 1.414 . S
C2465 C2466 1.374 . S
C2466 H2440 0.950 . S
C2466 C2462 1.385 . S
C2466 C2465 1.374 . S
C2467 C2464 1.499 . S
C2467 C2468 1.373 . S
C2467 C2469 1.389 . S
C2468 H2441 0.950 . S
C2468 C2454 1.377 . S
C2468 C2467 1.373 . S
C2469 C2453 1.377 . S
C2469 C2467 1.389 . S
C2469 C2470 1.524 . S
C2470 C2469 1.524 . S
C2470 C2471 1.397 . S
C2470 C2475 1.363 . S
C2471 H2442 0.950 . S
C2471 C2470 1.397 . S
C2471 C2472 1.334 . S
C2472 H2443 0.950 . S
C2472 C2471 1.334 . S
C2472 C2473 1.287 . S
C2473 C2472 1.287 . S
C2473 C2474 1.524 . S
C2473 H2476 0.999 . S
C2474 H2444 0.950 . S
C2474 C2473 1.524 . S
C2474 C2475 1.415 . S
C2475 H2445 0.950 . S
C2475 C2470 1.363 . S
C2475 C2474 1.415 . S
H2476 C2473 0.999 . S
H2477 C2458 0.913 . S
H2478 C2496 0.951 . S
H2479 C2498 0.951 . S
H2480 C2500 0.950 . S
H2481 C2501 0.950 . S
H2482 C2503 0.950 . S
H2483 C2506 0.950 . S
H2484 C2507 0.950 . S
H2485 C2509 0.950 . S
H2486 C2510 0.950 . S
H2487 C2511 0.951 . S
H2488 C2513 0.951 . S
H2489 C2515 0.950 . S
H2490 C2516 0.950 . S
H2491 C2518 0.950 . S
H2492 C2521 0.963 . S
H2493 C2522 0.950 . S
H2494 C2524 0.950 . S
H2495 C2525 0.950 . S
C2496 H2478 0.951 . S
C2496 C2497 1.366 . S
C2496 C2498 1.388 . S
C2497 C2496 1.366 . S
C2497 C2501 1.385 . S
C2498 H2479 0.951 . S
C2498 C2496 1.388 . S
C2498 C2499 1.366 . S
C2499 C2498 1.366 . S
C2499 C2500 1.414 . S
C2499 C2502 1.499 . S
C2500 H2480 0.950 . S
C2500 C2499 1.414 . S
C2500 C2501 1.374 . S
C2501 H2481 0.950 . S
C2501 C2497 1.385 . S
C2501 C2500 1.374 . S
C2502 C2499 1.499 . S
C2502 C2503 1.373 . S
C2502 C2504 1.389 . S
C2503 H2482 0.950 . S
C2503 C2502 1.373 . S
C2503 C2519 1.377 . S
C2504 C2502 1.389 . S
C2504 C2505 1.524 . S
C2504 C2518 1.377 . S
C2505 C2504 1.524 . S
C2505 C2506 1.397 . S
C2505 C2510 1.363 . S
C2506 H2483 0.950 . S
C2506 C2505 1.397 . S
C2506 C2507 1.334 . S
C2507 H2484 0.950 . S
C2507 C2506 1.334 . S
C2507 C2508 1.287 . S
C2508 C2507 1.287 . S
C2508 C2509 1.524 . S
C2508 H2527 0.913 . S
C2509 H2485 0.950 . S
C2509 C2508 1.524 . S
C2509 C2510 1.415 . S
C2510 H2486 0.950 . S
C2510 C2505 1.363 . S
C2510 C2509 1.415 . S
C2511 H2487 0.951 . S
C2511 C2512 1.366 . S
C2511 C2513 1.388 . S
C2512 C2511 1.366 . S
C2512 C2516 1.385 . S
C2513 H2488 0.951 . S
C2513 C2511 1.388 . S
C2513 C2514 1.366 . S
C2514 C2513 1.366 . S
C2514 C2515 1.414 . S
C2514 C2517 1.499 . S
C2515 H2489 0.950 . S
C2515 C2514 1.414 . S
C2515 C2516 1.374 . S
C2516 H2490 0.950 . S
C2516 C2512 1.385 . S
C2516 C2515 1.374 . S
C2517 C2514 1.499 . S
C2517 C2518 1.373 . S
C2517 C2519 1.389 . S
C2518 H2491 0.950 . S
C2518 C2504 1.377 . S
C2518 C2517 1.373 . S
C2519 C2503 1.377 . S
C2519 C2517 1.389 . S
C2519 C2520 1.524 . S
C2520 C2519 1.524 . S
C2520 C2521 1.368 1_545 S
C2520 C2525 1.363 . S
C2521 H2492 0.963 . S
C2521 C2520 1.368 1_565 S
C2521 C2522 1.351 . S
C2522 H2493 0.950 . S
C2522 C2521 1.351 . S
C2522 C2523 1.287 . S
C2523 C2522 1.287 . S
C2523 C2524 1.524 1_565 S
C2523 H2526 0.999 . S
C2524 H2494 0.950 . S
C2524 C2523 1.524 1_545 S
C2524 C2525 1.415 . S
C2525 H2495 0.950 . S
C2525 C2520 1.363 . S
C2525 C2524 1.415 . S
H2526 C2523 0.999 . S
H2527 C2508 0.913 . S
H2528 C2546 0.951 . S
H2529 C2548 0.951 . S
H2530 C2550 0.950 . S
H2531 C2551 0.950 . S
H2532 C2553 0.950 . S
H2533 C2556 0.950 . S
H2534 C2557 0.950 . S
H2535 C2559 0.950 . S
H2536 C2560 0.950 . S
H2537 C2561 0.951 . S
H2538 C2563 0.951 . S
H2539 C2565 0.950 . S
H2540 C2566 0.950 . S
H2541 C2568 0.950 . S
H2542 C2571 0.950 . S
H2543 C2572 0.950 . S
H2544 C2574 0.950 . S
H2545 C2575 0.950 . S
C2546 H2528 0.951 . S
C2546 C2547 1.366 . S
C2546 C2548 1.388 . S
C2547 C2546 1.366 . S
C2547 C2551 1.385 . S
C2548 H2529 0.951 . S
C2548 C2546 1.388 . S
C2548 C2549 1.366 . S
C2549 C2548 1.366 . S
C2549 C2550 1.414 . S
C2549 C2552 1.499 . S
C2550 H2530 0.950 . S
C2550 C2549 1.414 . S
C2550 C2551 1.374 . S
C2551 H2531 0.950 . S
C2551 C2547 1.385 . S
C2551 C2550 1.374 . S
C2552 C2549 1.499 . S
C2552 C2553 1.373 . S
C2552 C2554 1.389 . S
C2553 H2532 0.950 . S
C2553 C2552 1.373 . S
C2553 C2569 1.377 . S
C2554 C2552 1.389 . S
C2554 C2555 1.524 . S
C2554 C2568 1.377 . S
C2555 C2554 1.524 . S
C2555 C2556 1.397 . S
C2555 C2560 1.363 . S
C2556 H2533 0.950 . S
C2556 C2555 1.397 . S
C2556 C2557 1.334 . S
C2557 H2534 0.950 . S
C2557 C2556 1.334 . S
C2557 C2558 1.287 . S
C2558 C2557 1.287 . S
C2558 C2559 1.524 . S
C2558 H2577 0.913 . S
C2559 H2535 0.950 . S
C2559 C2558 1.524 . S
C2559 C2560 1.415 . S
C2560 H2536 0.950 . S
C2560 C2555 1.363 . S
C2560 C2559 1.415 . S
C2561 H2537 0.951 . S
C2561 C2562 1.366 . S
C2561 C2563 1.388 . S
C2562 C2561 1.366 . S
C2562 C2566 1.385 . S
C2563 H2538 0.951 . S
C2563 C2561 1.388 . S
C2563 C2564 1.366 . S
C2564 C2563 1.366 . S
C2564 C2565 1.414 . S
C2564 C2567 1.499 . S
C2565 H2539 0.950 . S
C2565 C2564 1.414 . S
C2565 C2566 1.374 . S
C2566 H2540 0.950 . S
C2566 C2562 1.385 . S
C2566 C2565 1.374 . S
C2567 C2564 1.499 . S
C2567 C2568 1.373 . S
C2567 C2569 1.389 . S
C2568 H2541 0.950 . S
C2568 C2554 1.377 . S
C2568 C2567 1.373 . S
C2569 C2553 1.377 . S
C2569 C2567 1.389 . S
C2569 C2570 1.524 . S
C2570 C2569 1.524 . S
C2570 C2571 1.397 . S
C2570 C2575 1.363 . S
C2571 H2542 0.950 . S
C2571 C2570 1.397 . S
C2571 C2572 1.334 . S
C2572 H2543 0.950 . S
C2572 C2571 1.334 . S
C2572 C2573 1.287 . S
C2573 C2572 1.287 . S
C2573 C2574 1.524 . S
C2573 H2576 0.999 . S
C2574 H2544 0.950 . S
C2574 C2573 1.524 . S
C2574 C2575 1.415 . S
C2575 H2545 0.950 . S
C2575 C2570 1.363 . S
C2575 C2574 1.415 . S
H2576 C2573 0.999 . S
H2577 C2558 0.913 . S
H2578 C2596 0.951 . S
H2579 C2598 0.951 . S
H2580 C2600 0.950 . S
H2581 C2601 0.950 . S
H2582 C2603 0.950 . S
H2583 C2606 0.950 . S
H2584 C2607 0.950 . S
H2585 C2609 0.950 . S
H2586 C2610 0.950 . S
H2587 C2611 0.951 . S
H2588 C2613 0.951 . S
H2589 C2615 0.950 . S
H2590 C2616 0.950 . S
H2591 C2618 0.950 . S
H2592 C2621 0.950 . S
H2593 C2622 0.950 . S
H2594 C2624 0.949 1_554 S
H2595 C2625 0.950 . S
C2596 H2578 0.951 . S
C2596 C2597 1.366 . S
C2596 C2598 1.388 . S
C2597 C2596 1.366 . S
C2597 C2601 1.385 . S
C2598 H2579 0.951 . S
C2598 C2596 1.388 . S
C2598 C2599 1.366 . S
C2599 C2598 1.366 . S
C2599 C2600 1.414 . S
C2599 C2602 1.499 . S
C2600 H2580 0.950 . S
C2600 C2599 1.414 . S
C2600 C2601 1.374 . S
C2601 H2581 0.950 . S
C2601 C2597 1.385 . S
C2601 C2600 1.374 . S
C2602 C2599 1.499 . S
C2602 C2603 1.373 . S
C2602 C2604 1.389 . S
C2603 H2582 0.950 . S
C2603 C2602 1.373 . S
C2603 C2619 1.377 . S
C2604 C2602 1.389 . S
C2604 C2605 1.524 . S
C2604 C2618 1.377 . S
C2605 C2604 1.524 . S
C2605 C2606 1.397 . S
C2605 C2610 1.363 . S
C2606 H2583 0.950 . S
C2606 C2605 1.397 . S
C2606 C2607 1.334 . S
C2607 H2584 0.950 . S
C2607 C2606 1.334 . S
C2607 C2608 1.287 . S
C2608 C2607 1.287 . S
C2608 C2609 1.524 . S
C2608 H2627 0.913 . S
C2609 H2585 0.950 . S
C2609 C2608 1.524 . S
C2609 C2610 1.415 . S
C2610 H2586 0.950 . S
C2610 C2605 1.363 . S
C2610 C2609 1.415 . S
C2611 H2587 0.951 . S
C2611 C2612 1.366 . S
C2611 C2613 1.388 . S
C2612 C2611 1.366 . S
C2612 C2616 1.385 . S
C2613 H2588 0.951 . S
C2613 C2611 1.388 . S
C2613 C2614 1.366 . S
C2614 C2613 1.366 . S
C2614 C2615 1.414 . S
C2614 C2617 1.499 . S
C2615 H2589 0.950 . S
C2615 C2614 1.414 . S
C2615 C2616 1.374 . S
C2616 H2590 0.950 . S
C2616 C2612 1.385 . S
C2616 C2615 1.374 . S
C2617 C2614 1.499 . S
C2617 C2618 1.373 . S
C2617 C2619 1.389 . S
C2618 H2591 0.950 . S
C2618 C2604 1.377 . S
C2618 C2617 1.373 . S
C2619 C2603 1.377 . S
C2619 C2617 1.389 . S
C2619 C2620 1.524 . S
C2620 C2619 1.524 . S
C2620 C2621 1.397 1_554 S
C2620 C2625 1.363 . S
C2621 H2592 0.950 . S
C2621 C2620 1.397 1_556 S
C2621 C2622 1.334 . S
C2622 H2593 0.950 . S
C2622 C2621 1.334 . S
C2622 C2623 1.287 . S
C2623 C2622 1.287 . S
C2623 C2624 1.524 . S
C2623 H2626 0.999 . S
C2624 H2594 0.949 1_556 S
C2624 C2623 1.524 . S
C2624 C2625 1.415 1_556 S
C2625 H2595 0.950 . S
C2625 C2620 1.363 . S
C2625 C2624 1.415 1_554 S
H2626 C2623 0.999 . S
H2627 C2608 0.913 . S
H2628 C2646 0.951 . S
H2629 C2648 0.951 . S
H2630 C2650 0.950 . S
H2631 C2651 0.950 . S
H2632 C2653 0.950 . S
H2633 C2656 0.950 . S
H2634 C2657 0.950 . S
H2635 C2659 0.950 . S
H2636 C2660 0.950 . S
H2637 C2661 0.951 . S
H2638 C2663 0.951 . S
H2639 C2665 0.950 . S
H2640 C2666 0.950 . S
H2641 C2668 0.950 . S
H2642 C2671 0.950 . S
H2643 C2672 0.950 . S
H2644 C2674 0.950 . S
H2645 C2675 0.950 . S
C2646 H2628 0.951 . S
C2646 C2647 1.366 . S
C2646 C2648 1.388 . S
C2647 C2646 1.366 . S
C2647 C2651 1.385 . S
C2648 H2629 0.951 . S
C2648 C2646 1.388 . S
C2648 C2649 1.366 . S
C2649 C2648 1.366 . S
C2649 C2650 1.414 . S
C2649 C2652 1.499 . S
C2650 H2630 0.950 . S
C2650 C2649 1.414 . S
C2650 C2651 1.374 . S
C2651 H2631 0.950 . S
C2651 C2647 1.385 . S
C2651 C2650 1.374 . S
C2652 C2649 1.499 . S
C2652 C2653 1.373 . S
C2652 C2654 1.389 . S
C2653 H2632 0.950 . S
C2653 C2652 1.373 . S
C2653 C2669 1.377 . S
C2654 C2652 1.389 . S
C2654 C2655 1.524 . S
C2654 C2668 1.377 . S
C2655 C2654 1.524 . S
C2655 C2656 1.397 . S
C2655 C2660 1.363 . S
C2656 H2633 0.950 . S
C2656 C2655 1.397 . S
C2656 C2657 1.334 . S
C2657 H2634 0.950 . S
C2657 C2656 1.334 . S
C2657 C2658 1.287 . S
C2658 C2657 1.287 . S
C2658 C2659 1.524 . S
C2658 H2677 0.913 . S
C2659 H2635 0.950 . S
C2659 C2658 1.524 . S
C2659 C2660 1.415 . S
C2660 H2636 0.950 . S
C2660 C2655 1.363 . S
C2660 C2659 1.415 . S
C2661 H2637 0.951 . S
C2661 C2662 1.366 . S
C2661 C2663 1.388 . S
C2662 C2661 1.366 . S
C2662 C2666 1.385 . S
C2663 H2638 0.951 . S
C2663 C2661 1.388 . S
C2663 C2664 1.366 . S
C2664 C2663 1.366 . S
C2664 C2665 1.414 . S
C2664 C2667 1.499 . S
C2665 H2639 0.950 . S
C2665 C2664 1.414 . S
C2665 C2666 1.374 . S
C2666 H2640 0.950 . S
C2666 C2662 1.385 . S
C2666 C2665 1.374 . S
C2667 C2664 1.499 . S
C2667 C2668 1.373 . S
C2667 C2669 1.389 . S
C2668 H2641 0.950 . S
C2668 C2654 1.377 . S
C2668 C2667 1.373 . S
C2669 C2653 1.377 . S
C2669 C2667 1.389 . S
C2669 C2670 1.524 . S
C2670 C2669 1.524 . S
C2670 C2671 1.397 . S
C2670 C2675 1.363 . S
C2671 H2642 0.950 . S
C2671 C2670 1.397 . S
C2671 C2672 1.334 . S
C2672 H2643 0.950 . S
C2672 C2671 1.334 . S
C2672 C2673 1.287 . S
C2673 C2672 1.287 . S
C2673 C2674 1.524 . S
C2673 H2676 0.999 . S
C2674 H2644 0.950 . S
C2674 C2673 1.524 . S
C2674 C2675 1.415 . S
C2675 H2645 0.950 . S
C2675 C2670 1.363 . S
C2675 C2674 1.415 . S
H2676 C2673 0.999 . S
H2677 C2658 0.913 . S
H2678 C2696 0.951 . S
H2679 C2698 0.951 . S
H2680 C2700 0.953 . S
H2681 C2701 0.950 . S
H2682 C2703 0.950 . S
H2683 C2706 0.950 . S
H2684 C2707 0.950 . S
H2685 C2709 0.950 . S
H2686 C2710 0.950 . S
H2687 C2711 0.951 . S
H2688 C2713 0.951 . S
H2689 C2715 0.950 . S
H2690 C2716 0.950 . S
H2691 C2718 0.950 . S
H2692 C2721 0.950 . S
H2693 C2722 0.950 . S
H2694 C2724 0.950 . S
H2695 C2725 0.950 . S
C2696 H2678 0.951 . S
C2696 C2697 1.366 . S
C2696 C2698 1.388 . S
C2697 C2696 1.366 . S
C2697 C2701 1.385 1_554 S
C2698 H2679 0.951 . S
C2698 C2696 1.388 . S
C2698 C2699 1.366 . S
C2699 C2698 1.366 . S
C2699 C2700 1.411 1_554 S
C2699 C2702 1.499 . S
C2700 H2680 0.953 . S
C2700 C2699 1.411 1_556 S
C2700 C2701 1.374 . S
C2701 H2681 0.950 . S
C2701 C2697 1.385 1_556 S
C2701 C2700 1.374 . S
C2702 C2699 1.499 . S
C2702 C2703 1.373 . S
C2702 C2704 1.389 . S
C2703 H2682 0.950 . S
C2703 C2702 1.373 . S
C2703 C2719 1.377 . S
C2704 C2702 1.389 . S
C2704 C2705 1.524 . S
C2704 C2718 1.377 . S
C2705 C2704 1.524 . S
C2705 C2706 1.397 1_554 S
C2705 C2710 1.363 . S
C2706 H2683 0.950 . S
C2706 C2705 1.397 1_556 S
C2706 C2707 1.334 . S
C2707 H2684 0.950 . S
C2707 C2706 1.334 . S
C2707 C2708 1.272 1_556 S
C2708 C2707 1.272 1_554 S
C2708 C2709 1.546 . S
C2708 H2727 0.907 1_554 S
C2709 H2685 0.950 . S
C2709 C2708 1.546 . S
C2709 C2710 1.415 . S
C2710 H2686 0.950 . S
C2710 C2705 1.363 . S
C2710 C2709 1.415 . S
C2711 H2687 0.951 . S
C2711 C2712 1.366 . S
C2711 C2713 1.388 . S
C2712 C2711 1.366 . S
C2712 C2716 1.385 . S
C2713 H2688 0.951 . S
C2713 C2711 1.388 . S
C2713 C2714 1.366 . S
C2714 C2713 1.366 . S
C2714 C2715 1.414 . S
C2714 C2717 1.499 . S
C2715 H2689 0.950 . S
C2715 C2714 1.414 . S
C2715 C2716 1.374 . S
C2716 H2690 0.950 . S
C2716 C2712 1.385 . S
C2716 C2715 1.374 . S
C2717 C2714 1.499 . S
C2717 C2718 1.373 . S
C2717 C2719 1.389 . S
C2718 H2691 0.950 . S
C2718 C2704 1.377 . S
C2718 C2717 1.373 . S
C2719 C2703 1.377 . S
C2719 C2717 1.389 . S
C2719 C2720 1.524 . S
C2720 C2719 1.524 . S
C2720 C2721 1.397 . S
C2720 C2725 1.363 . S
C2721 H2692 0.950 . S
C2721 C2720 1.397 . S
C2721 C2722 1.334 . S
C2722 H2693 0.950 . S
C2722 C2721 1.334 . S
C2722 C2723 1.287 . S
C2723 C2722 1.287 . S
C2723 C2724 1.524 . S
C2723 H2726 0.999 . S
C2724 H2694 0.950 . S
C2724 C2723 1.524 . S
C2724 C2725 1.415 . S
C2725 H2695 0.950 . S
C2725 C2720 1.363 . S
C2725 C2724 1.415 . S
H2726 C2723 0.999 . S
H2727 C2708 0.907 1_556 S
H2728 C2746 0.951 . S
H2729 C2748 0.951 . S
H2730 C2750 0.950 . S
H2731 C2751 0.950 . S
H2732 C2753 0.950 . S
H2733 C2756 0.950 . S
H2734 C2757 0.950 . S
H2735 C2759 0.950 . S
H2736 C2760 0.950 . S
H2737 C2761 0.951 . S
H2738 C2763 0.951 . S
H2739 C2765 0.950 . S
H2740 C2766 0.950 . S
H2741 C2768 0.950 . S
H2742 C2771 0.950 . S
H2743 C2772 0.950 . S
H2744 C2774 0.950 . S
H2745 C2775 0.950 . S
C2746 H2728 0.951 . S
C2746 C2747 1.366 . S
C2746 C2748 1.388 . S
C2747 C2746 1.366 . S
C2747 C2751 1.385 . S
C2748 H2729 0.951 . S
C2748 C2746 1.388 . S
C2748 C2749 1.366 . S
C2749 C2748 1.366 . S
C2749 C2750 1.414 . S
C2749 C2752 1.499 . S
C2750 H2730 0.950 . S
C2750 C2749 1.414 . S
C2750 C2751 1.374 . S
C2751 H2731 0.950 . S
C2751 C2747 1.385 . S
C2751 C2750 1.374 . S
C2752 C2749 1.499 . S
C2752 C2753 1.373 . S
C2752 C2754 1.389 . S
C2753 H2732 0.950 . S
C2753 C2752 1.373 . S
C2753 C2769 1.377 . S
C2754 C2752 1.389 . S
C2754 C2755 1.524 . S
C2754 C2768 1.377 . S
C2755 C2754 1.524 . S
C2755 C2756 1.397 . S
C2755 C2760 1.363 . S
C2756 H2733 0.950 . S
C2756 C2755 1.397 . S
C2756 C2757 1.334 . S
C2757 H2734 0.950 . S
C2757 C2756 1.334 . S
C2757 C2758 1.287 . S
C2758 C2757 1.287 . S
C2758 C2759 1.524 . S
C2758 H2777 0.913 . S
C2759 H2735 0.950 . S
C2759 C2758 1.524 . S
C2759 C2760 1.415 . S
C2760 H2736 0.950 . S
C2760 C2755 1.363 . S
C2760 C2759 1.415 . S
C2761 H2737 0.951 . S
C2761 C2762 1.366 . S
C2761 C2763 1.388 . S
C2762 C2761 1.366 . S
C2762 C2766 1.385 . S
C2763 H2738 0.951 . S
C2763 C2761 1.388 . S
C2763 C2764 1.366 . S
C2764 C2763 1.366 . S
C2764 C2765 1.414 . S
C2764 C2767 1.499 . S
C2765 H2739 0.950 . S
C2765 C2764 1.414 . S
C2765 C2766 1.374 . S
C2766 H2740 0.950 . S
C2766 C2762 1.385 . S
C2766 C2765 1.374 . S
C2767 C2764 1.499 . S
C2767 C2768 1.373 . S
C2767 C2769 1.389 . S
C2768 H2741 0.950 . S
C2768 C2754 1.377 . S
C2768 C2767 1.373 . S
C2769 C2753 1.377 . S
C2769 C2767 1.389 . S
C2769 C2770 1.524 . S
C2770 C2769 1.524 . S
C2770 C2771 1.397 . S
C2770 C2775 1.363 . S
C2771 H2742 0.950 . S
C2771 C2770 1.397 . S
C2771 C2772 1.334 . S
C2772 H2743 0.950 . S
C2772 C2771 1.334 . S
C2772 C2773 1.287 . S
C2773 C2772 1.287 . S
C2773 C2774 1.524 . S
C2773 H2776 0.999 . S
C2774 H2744 0.950 . S
C2774 C2773 1.524 . S
C2774 C2775 1.415 . S
C2775 H2745 0.950 . S
C2775 C2770 1.363 . S
C2775 C2774 1.415 . S
H2776 C2773 0.999 . S
H2777 C2758 0.913 . S
H2778 C2796 0.951 . S
H2779 C2798 0.951 . S
H2780 C2800 0.950 1_655 S
H2781 C2801 0.950 1_655 S
H2782 C2803 0.950 1_655 S
H2783 C2806 0.950 . S
H2784 C2807 0.950 . S
H2785 C2809 0.950 . S
H2786 C2810 0.950 . S
H2787 C2811 0.951 . S
H2788 C2813 0.951 . S
H2789 C2815 0.950 . S
H2790 C2816 0.950 . S
H2791 C2818 0.950 . S
H2792 C2821 0.950 1_455 S
H2793 C2822 0.950 . S
H2794 C2824 0.950 . S
H2795 C2825 0.950 . S
C2796 H2778 0.951 . S
C2796 C2797 1.366 . S
C2796 C2798 1.388 . S
C2797 C2796 1.366 . S
C2797 C2801 1.385 . S
C2798 H2779 0.951 . S
C2798 C2796 1.388 . S
C2798 C2799 1.366 . S
C2799 C2798 1.366 . S
C2799 C2800 1.414 . S
C2799 C2802 1.499 . S
C2800 H2780 0.950 1_455 S
C2800 C2799 1.414 . S
C2800 C2801 1.374 . S
C2801 H2781 0.950 1_455 S
C2801 C2797 1.385 . S
C2801 C2800 1.374 . S
C2802 C2799 1.499 . S
C2802 C2803 1.373 . S
C2802 C2804 1.389 . S
C2803 H2782 0.950 1_455 S
C2803 C2802 1.373 . S
C2803 C2819 1.377 . S
C2804 C2802 1.389 . S
C2804 C2805 1.524 . S
C2804 C2818 1.377 . S
C2805 C2804 1.524 . S
C2805 C2806 1.397 . S
C2805 C2810 1.363 . S
C2806 H2783 0.950 . S
C2806 C2805 1.397 . S
C2806 C2807 1.334 . S
C2807 H2784 0.950 . S
C2807 C2806 1.334 . S
C2807 C2808 1.287 . S
C2808 C2807 1.287 . S
C2808 C2809 1.524 . S
C2808 H2827 0.913 . S
C2809 H2785 0.950 . S
C2809 C2808 1.524 . S
C2809 C2810 1.415 . S
C2810 H2786 0.950 . S
C2810 C2805 1.363 . S
C2810 C2809 1.415 . S
C2811 H2787 0.951 . S
C2811 C2812 1.366 . S
C2811 C2813 1.388 . S
C2812 C2811 1.366 . S
C2812 C2816 1.385 . S
C2813 H2788 0.951 . S
C2813 C2811 1.388 . S
C2813 C2814 1.366 . S
C2814 C2813 1.366 . S
C2814 C2815 1.414 . S
C2814 C2817 1.499 . S
C2815 H2789 0.950 . S
C2815 C2814 1.414 . S
C2815 C2816 1.374 . S
C2816 H2790 0.950 . S
C2816 C2812 1.385 . S
C2816 C2815 1.374 . S
C2817 C2814 1.499 . S
C2817 C2818 1.373 . S
C2817 C2819 1.389 . S
C2818 H2791 0.950 . S
C2818 C2804 1.377 . S
C2818 C2817 1.373 . S
C2819 C2803 1.377 . S
C2819 C2817 1.389 . S
C2819 C2820 1.524 1_455 S
C2820 C2819 1.524 1_655 S
C2820 C2821 1.397 . S
C2820 C2825 1.363 . S
C2821 H2792 0.950 1_655 S
C2821 C2820 1.397 . S
C2821 C2822 1.334 . S
C2822 H2793 0.950 . S
C2822 C2821 1.334 . S
C2822 C2823 1.287 . S
C2823 C2822 1.287 . S
C2823 C2824 1.524 . S
C2823 H2826 0.999 . S
C2824 H2794 0.950 . S
C2824 C2823 1.524 . S
C2824 C2825 1.415 . S
C2825 H2795 0.950 . S
C2825 C2820 1.363 . S
C2825 C2824 1.415 . S
H2826 C2823 0.999 . S
H2827 C2808 0.913 . S
H2828 C2846 0.951 . S
H2829 C2848 0.951 . S
H2830 C2850 0.950 . S
H2831 C2851 0.950 . S
H2832 C2853 0.950 . S
H2833 C2856 0.950 . S
H2834 C2857 0.950 . S
H2835 C2859 0.950 . S
H2836 C2860 0.950 . S
H2837 C2861 0.951 . S
H2838 C2863 0.951 . S
H2839 C2865 0.950 . S
H2840 C2866 0.950 . S
H2841 C2868 0.950 . S
H2842 C2871 0.950 . S
H2843 C2872 0.950 . S
H2844 C2874 0.950 . S
H2845 C2875 0.950 . S
C2846 H2828 0.951 . S
C2846 C2847 1.366 . S
C2846 C2848 1.388 . S
C2847 C2846 1.366 . S
C2847 C2851 1.385 . S
C2848 H2829 0.951 . S
C2848 C2846 1.388 . S
C2848 C2849 1.366 . S
C2849 C2848 1.366 . S
C2849 C2850 1.414 . S
C2849 C2852 1.499 . S
C2850 H2830 0.950 . S
C2850 C2849 1.414 . S
C2850 C2851 1.374 . S
C2851 H2831 0.950 . S
C2851 C2847 1.385 . S
C2851 C2850 1.374 . S
C2852 C2849 1.499 . S
C2852 C2853 1.373 . S
C2852 C2854 1.389 . S
C2853 H2832 0.950 . S
C2853 C2852 1.373 . S
C2853 C2869 1.377 . S
C2854 C2852 1.389 . S
C2854 C2855 1.524 . S
C2854 C2868 1.377 . S
C2855 C2854 1.524 . S
C2855 C2856 1.397 . S
C2855 C2860 1.363 . S
C2856 H2833 0.950 . S
C2856 C2855 1.397 . S
C2856 C2857 1.334 . S
C2857 H2834 0.950 . S
C2857 C2856 1.334 . S
C2857 C2858 1.287 . S
C2858 C2857 1.287 . S
C2858 C2859 1.524 . S
C2858 H2877 0.913 . S
C2859 H2835 0.950 . S
C2859 C2858 1.524 . S
C2859 C2860 1.415 . S
C2860 H2836 0.950 . S
C2860 C2855 1.363 . S
C2860 C2859 1.415 . S
C2861 H2837 0.951 . S
C2861 C2862 1.366 . S
C2861 C2863 1.388 . S
C2862 C2861 1.366 . S
C2862 C2866 1.385 . S
C2863 H2838 0.951 . S
C2863 C2861 1.388 . S
C2863 C2864 1.366 . S
C2864 C2863 1.366 . S
C2864 C2865 1.414 . S
C2864 C2867 1.499 . S
C2865 H2839 0.950 . S
C2865 C2864 1.414 . S
C2865 C2866 1.374 . S
C2866 H2840 0.950 . S
C2866 C2862 1.385 . S
C2866 C2865 1.374 . S
C2867 C2864 1.499 . S
C2867 C2868 1.373 . S
C2867 C2869 1.389 . S
C2868 H2841 0.950 . S
C2868 C2854 1.377 . S
C2868 C2867 1.373 . S
C2869 C2853 1.377 . S
C2869 C2867 1.389 . S
C2869 C2870 1.524 . S
C2870 C2869 1.524 . S
C2870 C2871 1.397 . S
C2870 C2875 1.363 . S
C2871 H2842 0.950 . S
C2871 C2870 1.397 . S
C2871 C2872 1.334 . S
C2872 H2843 0.950 . S
C2872 C2871 1.334 . S
C2872 C2873 1.287 . S
C2873 C2872 1.287 . S
C2873 C2874 1.524 . S
C2873 H2876 0.999 . S
C2874 H2844 0.950 . S
C2874 C2873 1.524 . S
C2874 C2875 1.415 . S
C2875 H2845 0.950 . S
C2875 C2870 1.363 . S
C2875 C2874 1.415 . S
H2876 C2873 0.999 . S
H2877 C2858 0.913 . S
H2878 C2896 0.951 . S
H2879 C2898 0.951 . S
H2880 C2900 0.950 . S
H2881 C2901 0.947 1_655 S
H2882 C2903 0.950 . S
H2883 C2906 0.950 . S
H2884 C2907 0.950 . S
H2885 C2909 0.950 . S
H2886 C2910 0.905 1_455 S
H2887 C2911 0.951 . S
H2888 C2913 0.951 . S
H2889 C2915 0.950 . S
H2890 C2916 0.950 . S
H2891 C2918 0.950 . S
H2892 C2921 0.950 . S
H2893 C2922 0.950 . S
H2894 C2924 0.950 . S
H2895 C2925 0.950 . S
C2896 H2878 0.951 . S
C2896 C2897 1.366 . S
C2896 C2898 1.388 . S
C2897 C2896 1.366 . S
C2897 C2901 1.385 . S
C2898 H2879 0.951 . S
C2898 C2896 1.388 . S
C2898 C2899 1.366 . S
C2899 C2898 1.366 . S
C2899 C2900 1.414 . S
C2899 C2902 1.499 . S
C2900 H2880 0.950 . S
C2900 C2899 1.414 . S
C2900 C2901 1.374 . S
C2901 H2881 0.947 1_455 S
C2901 C2897 1.385 . S
C2901 C2900 1.374 . S
C2902 C2899 1.499 . S
C2902 C2903 1.373 . S
C2902 C2904 1.389 . S
C2903 H2882 0.950 . S
C2903 C2902 1.373 . S
C2903 C2919 1.377 . S
C2904 C2902 1.389 . S
C2904 C2905 1.524 1_455 S
C2904 C2918 1.377 . S
C2905 C2904 1.524 1_655 S
C2905 C2906 1.397 . S
C2905 C2910 1.374 . S
C2906 H2883 0.950 . S
C2906 C2905 1.397 . S
C2906 C2907 1.334 . S
C2907 H2884 0.950 . S
C2907 C2906 1.334 . S
C2907 C2908 1.287 . S
C2908 C2907 1.287 . S
C2908 C2909 1.524 . S
C2908 H2927 0.913 . S
C2909 H2885 0.950 . S
C2909 C2908 1.524 . S
C2909 C2910 1.451 . S
C2910 H2886 0.905 1_655 S
C2910 C2905 1.374 . S
C2910 C2909 1.451 . S
C2911 H2887 0.951 . S
C2911 C2912 1.366 . S
C2911 C2913 1.388 . S
C2912 C2911 1.366 . S
C2912 C2916 1.385 . S
C2913 H2888 0.951 . S
C2913 C2911 1.388 . S
C2913 C2914 1.366 . S
C2914 C2913 1.366 . S
C2914 C2915 1.414 . S
C2914 C2917 1.499 . S
C2915 H2889 0.950 . S
C2915 C2914 1.414 . S
C2915 C2916 1.374 . S
C2916 H2890 0.950 . S
C2916 C2912 1.385 . S
C2916 C2915 1.374 . S
C2917 C2914 1.499 . S
C2917 C2918 1.373 . S
C2917 C2919 1.389 . S
C2918 H2891 0.950 . S
C2918 C2904 1.377 . S
C2918 C2917 1.373 . S
C2919 C2903 1.377 . S
C2919 C2917 1.389 . S
C2919 C2920 1.524 . S
C2920 C2919 1.524 . S
C2920 C2921 1.397 . S
C2920 C2925 1.363 . S
C2921 H2892 0.950 . S
C2921 C2920 1.397 . S
C2921 C2922 1.334 . S
C2922 H2893 0.950 . S
C2922 C2921 1.334 . S
C2922 C2923 1.287 . S
C2923 C2922 1.287 . S
C2923 C2924 1.524 . S
C2923 H2926 0.999 . S
C2924 H2894 0.950 . S
C2924 C2923 1.524 . S
C2924 C2925 1.415 . S
C2925 H2895 0.950 . S
C2925 C2920 1.363 . S
C2925 C2924 1.415 . S
H2926 C2923 0.999 . S
H2927 C2908 0.913 . S
H2928 C2946 0.951 . S
H2929 C2948 0.951 . S
H2930 C2950 0.950 . S
H2931 C2951 0.950 . S
H2932 C2953 0.950 . S
H2933 C2956 0.950 . S
H2934 C2957 0.950 . S
H2935 C2959 0.950 . S
H2936 C2960 0.950 . S
H2937 C2961 0.951 . S
H2938 C2963 0.951 . S
H2939 C2965 0.950 . S
H2940 C2966 0.950 . S
H2941 C2968 0.950 . S
H2942 C2971 0.950 . S
H2943 C2972 0.950 . S
H2944 C2974 0.950 . S
H2945 C2975 0.950 . S
C2946 H2928 0.951 . S
C2946 C2947 1.366 . S
C2946 C2948 1.388 . S
C2947 C2946 1.366 . S
C2947 C2951 1.385 . S
C2948 H2929 0.951 . S
C2948 C2946 1.388 . S
C2948 C2949 1.366 . S
C2949 C2948 1.366 . S
C2949 C2950 1.414 . S
C2949 C2952 1.499 . S
C2950 H2930 0.950 . S
C2950 C2949 1.414 . S
C2950 C2951 1.374 . S
C2951 H2931 0.950 . S
C2951 C2947 1.385 . S
C2951 C2950 1.374 . S
C2952 C2949 1.499 . S
C2952 C2953 1.373 . S
C2952 C2954 1.389 . S
C2953 H2932 0.950 . S
C2953 C2952 1.373 . S
C2953 C2969 1.377 . S
C2954 C2952 1.389 . S
C2954 C2955 1.524 . S
C2954 C2968 1.377 . S
C2955 C2954 1.524 . S
C2955 C2956 1.397 . S
C2955 C2960 1.363 . S
C2956 H2933 0.950 . S
C2956 C2955 1.397 . S
C2956 C2957 1.334 . S
C2957 H2934 0.950 . S
C2957 C2956 1.334 . S
C2957 C2958 1.287 . S
C2958 C2957 1.287 . S
C2958 C2959 1.524 . S
C2958 H2977 0.913 . S
C2959 H2935 0.950 . S
C2959 C2958 1.524 . S
C2959 C2960 1.415 . S
C2960 H2936 0.950 . S
C2960 C2955 1.363 . S
C2960 C2959 1.415 . S
C2961 H2937 0.951 . S
C2961 C2962 1.366 . S
C2961 C2963 1.388 . S
C2962 C2961 1.366 . S
C2962 C2966 1.385 . S
C2963 H2938 0.951 . S
C2963 C2961 1.388 . S
C2963 C2964 1.366 . S
C2964 C2963 1.366 . S
C2964 C2965 1.414 . S
C2964 C2967 1.499 . S
C2965 H2939 0.950 . S
C2965 C2964 1.414 . S
C2965 C2966 1.374 . S
C2966 H2940 0.950 . S
C2966 C2962 1.385 . S
C2966 C2965 1.374 . S
C2967 C2964 1.499 . S
C2967 C2968 1.373 . S
C2967 C2969 1.389 . S
C2968 H2941 0.950 . S
C2968 C2954 1.377 . S
C2968 C2967 1.373 . S
C2969 C2953 1.377 . S
C2969 C2967 1.389 . S
C2969 C2970 1.524 . S
C2970 C2969 1.524 . S
C2970 C2971 1.397 . S
C2970 C2975 1.363 . S
C2971 H2942 0.950 . S
C2971 C2970 1.397 . S
C2971 C2972 1.334 . S
C2972 H2943 0.950 . S
C2972 C2971 1.334 . S
C2972 C2973 1.287 . S
C2973 C2972 1.287 . S
C2973 C2974 1.524 . S
C2973 H2976 0.999 . S
C2974 H2944 0.950 . S
C2974 C2973 1.524 . S
C2974 C2975 1.415 . S
C2975 H2945 0.950 . S
C2975 C2970 1.363 . S
C2975 C2974 1.415 . S
H2976 C2973 0.999 . S
H2977 C2958 0.913 . S
H2978 C2996 0.951 . S
H2979 C2998 0.951 . S
H2980 C3000 0.950 . S
H2981 C3001 0.950 . S
H2982 C3003 0.950 . S
H2983 C3006 0.950 . S
H2984 C3007 0.950 . S
H2985 C3009 0.950 . S
H2986 C3010 0.950 . S
H2987 C3011 0.951 . S
H2988 C3013 0.951 . S
H2989 C3015 0.950 . S
H2990 C3016 0.950 . S
H2991 C3018 0.950 . S
H2992 C3021 0.950 . S
H2993 C3022 0.950 . S
H2994 C3024 0.950 . S
H2995 C3025 0.950 . S
C2996 H2978 0.951 . S
C2996 C2997 1.366 . S
C2996 C2998 1.388 . S
C2997 C2996 1.366 . S
C2997 C3001 1.385 . S
C2998 H2979 0.951 . S
C2998 C2996 1.388 . S
C2998 C2999 1.366 . S
C2999 C2998 1.366 . S
C2999 C3000 1.414 . S
C2999 C3002 1.499 . S
C3000 H2980 0.950 . S
C3000 C2999 1.414 . S
C3000 C3001 1.374 . S
C3001 H2981 0.950 . S
C3001 C2997 1.385 . S
C3001 C3000 1.374 . S
C3002 C2999 1.499 . S
C3002 C3003 1.373 . S
C3002 C3004 1.389 . S
C3003 H2982 0.950 . S
C3003 C3002 1.373 . S
C3003 C3019 1.377 . S
C3004 C3002 1.389 . S
C3004 C3005 1.524 . S
C3004 C3018 1.377 . S
C3005 C3004 1.524 . S
C3005 C3006 1.397 . S
C3005 C3010 1.363 . S
C3006 H2983 0.950 . S
C3006 C3005 1.397 . S
C3006 C3007 1.334 . S
C3007 H2984 0.950 . S
C3007 C3006 1.334 . S
C3007 C3008 1.287 . S
C3008 C3007 1.287 . S
C3008 C3009 1.524 . S
C3008 H3027 0.913 . S
C3009 H2985 0.950 . S
C3009 C3008 1.524 . S
C3009 C3010 1.415 . S
C3010 H2986 0.950 . S
C3010 C3005 1.363 . S
C3010 C3009 1.415 . S
C3011 H2987 0.951 . S
C3011 C3012 1.366 . S
C3011 C3013 1.388 . S
C3012 C3011 1.366 . S
C3012 C3016 1.385 . S
C3013 H2988 0.951 . S
C3013 C3011 1.388 . S
C3013 C3014 1.366 . S
C3014 C3013 1.366 . S
C3014 C3015 1.414 . S
C3014 C3017 1.499 . S
C3015 H2989 0.950 . S
C3015 C3014 1.414 . S
C3015 C3016 1.374 . S
C3016 H2990 0.950 . S
C3016 C3012 1.385 . S
C3016 C3015 1.374 . S
C3017 C3014 1.499 . S
C3017 C3018 1.373 . S
C3017 C3019 1.389 . S
C3018 H2991 0.950 . S
C3018 C3004 1.377 . S
C3018 C3017 1.373 . S
C3019 C3003 1.377 . S
C3019 C3017 1.389 . S
C3019 C3020 1.524 . S
C3020 C3019 1.524 . S
C3020 C3021 1.397 . S
C3020 C3025 1.363 . S
C3021 H2992 0.950 . S
C3021 C3020 1.397 . S
C3021 C3022 1.334 . S
C3022 H2993 0.950 . S
C3022 C3021 1.334 . S
C3022 C3023 1.287 . S
C3023 C3022 1.287 . S
C3023 C3024 1.524 . S
C3023 H3026 0.999 . S
C3024 H2994 0.950 . S
C3024 C3023 1.524 . S
C3024 C3025 1.415 . S
C3025 H2995 0.950 . S
C3025 C3020 1.363 . S
C3025 C3024 1.415 . S
H3026 C3023 0.999 . S
H3027 C3008 0.913 . S
H3028 C3046 0.951 . S
H3029 C3048 0.951 . S
H3030 C3050 0.950 . S
H3031 C3051 0.950 . S
H3032 C3053 0.950 . S
H3033 C3056 0.950 . S
H3034 C3057 0.950 . S
H3035 C3059 0.950 . S
H3036 C3060 0.950 . S
H3037 C3061 0.951 . S
H3038 C3063 0.951 . S
H3039 C3065 0.950 . S
H3040 C3066 0.950 . S
H3041 C3068 0.950 . S
H3042 C3071 0.950 . S
H3043 C3072 0.950 . S
H3044 C3074 0.950 . S
H3045 C3075 0.950 . S
C3046 H3028 0.951 . S
C3046 C3047 1.366 1_545 S
C3046 C3048 1.388 . S
C3047 C3046 1.366 1_565 S
C3047 C3051 1.385 . S
C3048 H3029 0.951 . S
C3048 C3046 1.388 . S
C3048 C3049 1.366 1_545 S
C3049 C3048 1.366 1_565 S
C3049 C3050 1.414 . S
C3049 C3052 1.499 . S
C3050 H3030 0.950 . S
C3050 C3049 1.414 . S
C3050 C3051 1.374 . S
C3051 H3031 0.950 . S
C3051 C3047 1.385 . S
C3051 C3050 1.374 . S
C3052 C3049 1.499 . S
C3052 C3053 1.373 . S
C3052 C3054 1.389 1_565 S
C3053 H3032 0.950 . S
C3053 C3052 1.373 . S
C3053 C3069 1.377 . S
C3054 C3052 1.389 1_545 S
C3054 C3055 1.524 . S
C3054 C3068 1.377 . S
C3055 C3054 1.524 . S
C3055 C3056 1.397 . S
C3055 C3060 1.363 . S
C3056 H3033 0.950 . S
C3056 C3055 1.397 . S
C3056 C3057 1.334 . S
C3057 H3034 0.950 . S
C3057 C3056 1.334 . S
C3057 C3058 1.287 . S
C3058 C3057 1.287 . S
C3058 C3059 1.524 . S
C3058 H3077 0.913 . S
C3059 H3035 0.950 . S
C3059 C3058 1.524 . S
C3059 C3060 1.415 . S
C3060 H3036 0.950 . S
C3060 C3055 1.363 . S
C3060 C3059 1.415 . S
C3061 H3037 0.951 . S
C3061 C3062 1.366 1_565 S
C3061 C3063 1.388 . S
C3062 C3061 1.366 1_545 S
C3062 C3066 1.385 . S
C3063 H3038 0.951 . S
C3063 C3061 1.388 . S
C3063 C3064 1.366 1_565 S
C3064 C3063 1.366 1_545 S
C3064 C3065 1.414 . S
C3064 C3067 1.506 . S
C3065 H3039 0.950 . S
C3065 C3064 1.414 . S
C3065 C3066 1.374 . S
C3066 H3040 0.950 . S
C3066 C3062 1.385 . S
C3066 C3065 1.374 . S
C3067 C3064 1.506 . S
C3067 C3068 1.416 . S
C3067 C3069 1.340 1_545 S
C3068 H3041 0.950 . S
C3068 C3054 1.377 . S
C3068 C3067 1.416 . S
C3069 C3053 1.377 . S
C3069 C3067 1.340 1_565 S
C3069 C3070 1.524 . S
C3070 C3069 1.524 . S
C3070 C3071 1.397 . S
C3070 C3075 1.363 . S
C3071 H3042 0.950 . S
C3071 C3070 1.397 . S
C3071 C3072 1.334 . S
C3072 H3043 0.950 . S
C3072 C3071 1.334 . S
C3072 C3073 1.287 . S
C3073 C3072 1.287 . S
C3073 C3074 1.524 . S
C3073 H3076 0.999 . S
C3074 H3044 0.950 . S
C3074 C3073 1.524 . S
C3074 C3075 1.415 . S
C3075 H3045 0.950 . S
C3075 C3070 1.363 . S
C3075 C3074 1.415 . S
H3076 C3073 0.999 . S
H3077 C3058 0.913 . S
H3078 C3096 0.951 . S
H3079 C3098 0.951 . S
H3080 C3100 0.950 . S
H3081 C3101 0.950 . S
H3082 C3103 0.950 . S
H3083 C3106 0.950 . S
H3084 C3107 0.950 . S
H3085 C3109 0.950 . S
H3086 C3110 0.950 . S
H3087 C3111 0.951 . S
H3088 C3113 0.951 . S
H3089 C3115 0.950 . S
H3090 C3116 0.950 . S
H3091 C3118 0.950 . S
H3092 C3121 0.950 . S
H3093 C3122 0.950 . S
H3094 C3124 0.950 . S
H3095 C3125 0.950 . S
C3096 H3078 0.951 . S
C3096 C3097 1.366 . S
C3096 C3098 1.388 . S
C3097 C3096 1.366 . S
C3097 C3101 1.385 . S
C3098 H3079 0.951 . S
C3098 C3096 1.388 . S
C3098 C3099 1.366 . S
C3099 C3098 1.366 . S
C3099 C3100 1.414 . S
C3099 C3102 1.499 . S
C3100 H3080 0.950 . S
C3100 C3099 1.414 . S
C3100 C3101 1.374 . S
C3101 H3081 0.950 . S
C3101 C3097 1.385 . S
C3101 C3100 1.374 . S
C3102 C3099 1.499 . S
C3102 C3103 1.373 1_545 S
C3102 C3104 1.389 . S
C3103 H3082 0.950 . S
C3103 C3102 1.373 1_565 S
C3103 C3119 1.377 . S
C3104 C3102 1.389 . S
C3104 C3105 1.524 . S
C3104 C3118 1.377 . S
C3105 C3104 1.524 . S
C3105 C3106 1.397 . S
C3105 C3110 1.363 . S
C3106 H3083 0.950 . S
C3106 C3105 1.397 . S
C3106 C3107 1.334 . S
C3107 H3084 0.950 . S
C3107 C3106 1.334 . S
C3107 C3108 1.287 . S
C3108 C3107 1.287 . S
C3108 C3109 1.524 . S
C3108 H3127 0.913 . S
C3109 H3085 0.950 . S
C3109 C3108 1.524 . S
C3109 C3110 1.415 . S
C3110 H3086 0.950 . S
C3110 C3105 1.363 . S
C3110 C3109 1.415 . S
C3111 H3087 0.951 . S
C3111 C3112 1.366 . S
C3111 C3113 1.388 . S
C3112 C3111 1.366 . S
C3112 C3116 1.385 1_565 S
C3113 H3088 0.951 . S
C3113 C3111 1.388 . S
C3113 C3114 1.365 . S
C3114 C3113 1.365 . S
C3114 C3115 1.414 1_565 S
C3114 C3117 1.499 1_565 S
C3115 H3089 0.950 . S
C3115 C3114 1.414 1_545 S
C3115 C3116 1.374 . S
C3116 H3090 0.950 . S
C3116 C3112 1.385 1_545 S
C3116 C3115 1.374 . S
C3117 C3114 1.499 1_545 S
C3117 C3118 1.373 . S
C3117 C3119 1.389 1_545 S
C3118 H3091 0.950 . S
C3118 C3104 1.377 . S
C3118 C3117 1.373 . S
C3119 C3103 1.377 . S
C3119 C3117 1.389 1_565 S
C3119 C3120 1.524 . S
C3120 C3119 1.524 . S
C3120 C3121 1.397 . S
C3120 C3125 1.363 . S
C3121 H3092 0.950 . S
C3121 C3120 1.397 . S
C3121 C3122 1.334 . S
C3122 H3093 0.950 . S
C3122 C3121 1.334 . S
C3122 C3123 1.287 . S
C3123 C3122 1.287 . S
C3123 C3124 1.524 . S
C3123 H3126 0.999 . S
C3124 H3094 0.950 . S
C3124 C3123 1.524 . S
C3124 C3125 1.415 . S
C3125 H3095 0.950 . S
C3125 C3120 1.363 . S
C3125 C3124 1.415 . S
H3126 C3123 0.999 . S
H3127 C3108 0.913 . S
H3128 C3146 0.951 . S
H3129 C3148 0.951 . S
H3130 C3150 0.950 . S
H3131 C3151 0.950 . S
H3132 C3153 0.950 . S
H3133 C3156 0.950 . S
H3134 C3157 0.950 . S
H3135 C3159 0.950 . S
H3136 C3160 0.950 . S
H3137 C3161 0.951 . S
H3138 C3163 0.951 . S
H3139 C3165 0.950 . S
H3140 C3166 0.950 . S
H3141 C3168 0.950 . S
H3142 C3171 0.950 . S
H3143 C3172 0.950 . S
H3144 C3174 0.950 . S
H3145 C3175 0.950 . S
C3146 H3128 0.951 . S
C3146 C3147 1.366 . S
C3146 C3148 1.388 . S
C3147 C3146 1.366 . S
C3147 C3151 1.385 . S
C3148 H3129 0.951 . S
C3148 C3146 1.388 . S
C3148 C3149 1.366 . S
C3149 C3148 1.366 . S
C3149 C3150 1.414 . S
C3149 C3152 1.499 . S
C3150 H3130 0.950 . S
C3150 C3149 1.414 . S
C3150 C3151 1.374 . S
C3151 H3131 0.950 . S
C3151 C3147 1.385 . S
C3151 C3150 1.374 . S
C3152 C3149 1.499 . S
C3152 C3153 1.373 . S
C3152 C3154 1.389 . S
C3153 H3132 0.950 . S
C3153 C3152 1.373 . S
C3153 C3169 1.377 . S
C3154 C3152 1.389 . S
C3154 C3155 1.524 . S
C3154 C3168 1.377 . S
C3155 C3154 1.524 . S
C3155 C3156 1.397 . S
C3155 C3160 1.363 . S
C3156 H3133 0.950 . S
C3156 C3155 1.397 . S
C3156 C3157 1.334 . S
C3157 H3134 0.950 . S
C3157 C3156 1.334 . S
C3157 C3158 1.287 . S
C3158 C3157 1.287 . S
C3158 C3159 1.524 . S
C3158 H3177 0.913 . S
C3159 H3135 0.950 . S
C3159 C3158 1.524 . S
C3159 C3160 1.415 . S
C3160 H3136 0.950 . S
C3160 C3155 1.363 . S
C3160 C3159 1.415 . S
C3161 H3137 0.951 . S
C3161 C3162 1.366 . S
C3161 C3163 1.388 . S
C3162 C3161 1.366 . S
C3162 C3166 1.385 . S
C3163 H3138 0.951 . S
C3163 C3161 1.388 . S
C3163 C3164 1.366 . S
C3164 C3163 1.366 . S
C3164 C3165 1.414 . S
C3164 C3167 1.499 . S
C3165 H3139 0.950 . S
C3165 C3164 1.414 . S
C3165 C3166 1.374 . S
C3166 H3140 0.950 . S
C3166 C3162 1.385 . S
C3166 C3165 1.374 . S
C3167 C3164 1.499 . S
C3167 C3168 1.373 . S
C3167 C3169 1.389 . S
C3168 H3141 0.950 . S
C3168 C3154 1.377 . S
C3168 C3167 1.373 . S
C3169 C3153 1.377 . S
C3169 C3167 1.389 . S
C3169 C3170 1.524 . S
C3170 C3169 1.524 . S
C3170 C3171 1.397 . S
C3170 C3175 1.363 . S
C3171 H3142 0.950 . S
C3171 C3170 1.397 . S
C3171 C3172 1.334 . S
C3172 H3143 0.950 . S
C3172 C3171 1.334 . S
C3172 C3173 1.287 . S
C3173 C3172 1.287 . S
C3173 C3174 1.524 . S
C3173 H3176 0.999 . S
C3174 H3144 0.950 . S
C3174 C3173 1.524 . S
C3174 C3175 1.415 . S
C3175 H3145 0.950 . S
C3175 C3170 1.363 . S
C3175 C3174 1.415 . S
H3176 C3173 0.999 . S
H3177 C3158 0.913 . S
H3178 C3196 0.951 . S
H3179 C3198 0.951 . S
H3180 C3200 0.950 . S
H3181 C3201 0.950 . S
H3182 C3203 0.950 . S
H3183 C3206 0.950 . S
H3184 C3207 0.950 . S
H3185 C3209 0.950 . S
H3186 C3210 0.950 . S
H3187 C3211 0.951 . S
H3188 C3213 0.951 . S
H3189 C3215 0.950 . S
H3190 C3216 0.949 . S
H3191 C3218 0.950 . S
H3192 C3221 0.950 . S
H3193 C3222 0.950 . S
H3194 C3224 0.950 . S
H3195 C3225 0.950 . S
C3196 H3178 0.951 . S
C3196 C3197 1.366 . S
C3196 C3198 1.388 . S
C3197 C3196 1.366 . S
C3197 C3201 1.385 . S
C3198 H3179 0.951 . S
C3198 C3196 1.388 . S
C3198 C3199 1.366 . S
C3199 C3198 1.366 . S
C3199 C3200 1.414 . S
C3199 C3202 1.499 . S
C3200 H3180 0.950 . S
C3200 C3199 1.414 . S
C3200 C3201 1.374 . S
C3201 H3181 0.950 . S
C3201 C3197 1.385 . S
C3201 C3200 1.374 . S
C3202 C3199 1.499 . S
C3202 C3203 1.373 1_554 S
C3202 C3204 1.389 . S
C3203 H3182 0.950 . S
C3203 C3202 1.373 1_556 S
C3203 C3219 1.377 . S
C3204 C3202 1.389 . S
C3204 C3205 1.524 . S
C3204 C3218 1.377 . S
C3205 C3204 1.524 . S
C3205 C3206 1.397 . S
C3205 C3210 1.363 . S
C3206 H3183 0.950 . S
C3206 C3205 1.397 . S
C3206 C3207 1.334 . S
C3207 H3184 0.950 . S
C3207 C3206 1.334 . S
C3207 C3208 1.287 . S
C3208 C3207 1.287 . S
C3208 C3209 1.524 . S
C3208 H3227 0.913 . S
C3209 H3185 0.950 . S
C3209 C3208 1.524 . S
C3209 C3210 1.415 . S
C3210 H3186 0.950 . S
C3210 C3205 1.363 . S
C3210 C3209 1.415 . S
C3211 H3187 0.951 . S
C3211 C3212 1.366 . S
C3211 C3213 1.388 . S
C3212 C3211 1.366 . S
C3212 C3216 1.383 1_556 S
C3213 H3188 0.951 . S
C3213 C3211 1.388 . S
C3213 C3214 1.365 . S
C3214 C3213 1.365 . S
C3214 C3215 1.414 1_556 S
C3214 C3217 1.499 1_556 S
C3215 H3189 0.950 . S
C3215 C3214 1.414 1_554 S
C3215 C3216 1.374 . S
C3216 H3190 0.949 . S
C3216 C3212 1.383 1_554 S
C3216 C3215 1.374 . S
C3217 C3214 1.499 1_554 S
C3217 C3218 1.373 . S
C3217 C3219 1.389 1_554 S
C3218 H3191 0.950 . S
C3218 C3204 1.377 . S
C3218 C3217 1.373 . S
C3219 C3203 1.377 . S
C3219 C3217 1.389 1_556 S
C3219 C3220 1.524 . S
C3220 C3219 1.524 . S
C3220 C3221 1.397 . S
C3220 C3225 1.363 . S
C3221 H3192 0.950 . S
C3221 C3220 1.397 . S
C3221 C3222 1.334 . S
C3222 H3193 0.950 . S
C3222 C3221 1.334 . S
C3222 C3223 1.287 . S
C3223 C3222 1.287 . S
C3223 C3224 1.524 . S
C3223 H3226 0.999 . S
C3224 H3194 0.950 . S
C3224 C3223 1.524 . S
C3224 C3225 1.415 . S
C3225 H3195 0.950 . S
C3225 C3220 1.363 . S
C3225 C3224 1.415 . S
H3226 C3223 0.999 . S
H3227 C3208 0.913 . S
H3228 C3246 0.951 . S
H3229 C3248 0.951 . S
H3230 C3250 0.950 . S
H3231 C3251 0.950 . S
H3232 C3253 0.950 . S
H3233 C3256 0.950 . S
H3234 C3257 0.950 . S
H3235 C3259 0.950 . S
H3236 C3260 0.950 . S
H3237 C3261 0.951 . S
H3238 C3263 0.951 . S
H3239 C3265 0.950 . S
H3240 C3266 0.950 . S
H3241 C3268 0.950 . S
H3242 C3271 0.950 . S
H3243 C3272 0.950 . S
H3244 C3274 0.950 . S
H3245 C3275 0.950 . S
C3246 H3228 0.951 . S
C3246 C3247 1.366 . S
C3246 C3248 1.388 . S
C3247 C3246 1.366 . S
C3247 C3251 1.385 . S
C3248 H3229 0.951 . S
C3248 C3246 1.388 . S
C3248 C3249 1.366 . S
C3249 C3248 1.366 . S
C3249 C3250 1.414 . S
C3249 C3252 1.499 . S
C3250 H3230 0.950 . S
C3250 C3249 1.414 . S
C3250 C3251 1.374 . S
C3251 H3231 0.950 . S
C3251 C3247 1.385 . S
C3251 C3250 1.374 . S
C3252 C3249 1.499 . S
C3252 C3253 1.373 . S
C3252 C3254 1.389 . S
C3253 H3232 0.950 . S
C3253 C3252 1.373 . S
C3253 C3269 1.377 . S
C3254 C3252 1.389 . S
C3254 C3255 1.524 . S
C3254 C3268 1.377 . S
C3255 C3254 1.524 . S
C3255 C3256 1.397 . S
C3255 C3260 1.363 . S
C3256 H3233 0.950 . S
C3256 C3255 1.397 . S
C3256 C3257 1.334 . S
C3257 H3234 0.950 . S
C3257 C3256 1.334 . S
C3257 C3258 1.287 . S
C3258 C3257 1.287 . S
C3258 C3259 1.524 . S
C3258 H3277 0.913 . S
C3259 H3235 0.950 . S
C3259 C3258 1.524 . S
C3259 C3260 1.415 . S
C3260 H3236 0.950 . S
C3260 C3255 1.363 . S
C3260 C3259 1.415 . S
C3261 H3237 0.951 . S
C3261 C3262 1.366 . S
C3261 C3263 1.388 . S
C3262 C3261 1.366 . S
C3262 C3266 1.385 . S
C3263 H3238 0.951 . S
C3263 C3261 1.388 . S
C3263 C3264 1.366 . S
C3264 C3263 1.366 . S
C3264 C3265 1.414 . S
C3264 C3267 1.499 . S
C3265 H3239 0.950 . S
C3265 C3264 1.414 . S
C3265 C3266 1.374 . S
C3266 H3240 0.950 . S
C3266 C3262 1.385 . S
C3266 C3265 1.374 . S
C3267 C3264 1.499 . S
C3267 C3268 1.373 . S
C3267 C3269 1.389 . S
C3268 H3241 0.950 . S
C3268 C3254 1.377 . S
C3268 C3267 1.373 . S
C3269 C3253 1.377 . S
C3269 C3267 1.389 . S
C3269 C3270 1.524 . S
C3270 C3269 1.524 . S
C3270 C3271 1.397 . S
C3270 C3275 1.363 . S
C3271 H3242 0.950 . S
C3271 C3270 1.397 . S
C3271 C3272 1.334 . S
C3272 H3243 0.950 . S
C3272 C3271 1.334 . S
C3272 C3273 1.287 . S
C3273 C3272 1.287 . S
C3273 C3274 1.524 . S
C3273 H3276 0.999 . S
C3274 H3244 0.950 . S
C3274 C3273 1.524 . S
C3274 C3275 1.415 . S
C3275 H3245 0.950 . S
C3275 C3270 1.363 . S
C3275 C3274 1.415 . S
H3276 C3273 0.999 . S
H3277 C3258 0.913 . S
H3278 C3296 0.951 . S
H3279 C3298 0.951 . S
H3280 C3300 0.950 . S
H3281 C3301 0.950 . S
H3282 C3303 0.950 . S
H3283 C3306 0.950 . S
H3284 C3307 0.950 . S
H3285 C3309 0.950 . S
H3286 C3310 0.950 . S
H3287 C3311 0.951 . S
H3288 C3313 0.951 . S
H3289 C3315 0.953 . S
H3290 C3316 0.950 . S
H3291 C3318 0.950 . S
H3292 C3321 0.950 . S
H3293 C3322 0.950 . S
H3294 C3324 0.950 . S
H3295 C3325 0.950 . S
C3296 H3278 0.951 . S
C3296 C3297 1.366 . S
C3296 C3298 1.388 . S
C3297 C3296 1.366 . S
C3297 C3301 1.385 . S
C3298 H3279 0.951 . S
C3298 C3296 1.388 . S
C3298 C3299 1.366 . S
C3299 C3298 1.366 . S
C3299 C3300 1.414 . S
C3299 C3302 1.510 . S
C3300 H3280 0.950 . S
C3300 C3299 1.414 . S
C3300 C3301 1.374 . S
C3301 H3281 0.950 . S
C3301 C3297 1.385 . S
C3301 C3300 1.374 . S
C3302 C3299 1.510 . S
C3302 C3303 1.421 . S
C3302 C3304 1.340 1_556 S
C3303 H3282 0.950 . S
C3303 C3302 1.421 . S
C3303 C3319 1.377 . S
C3304 C3302 1.340 1_554 S
C3304 C3305 1.524 . S
C3304 C3318 1.377 . S
C3305 C3304 1.524 . S
C3305 C3306 1.397 . S
C3305 C3310 1.363 . S
C3306 H3283 0.950 . S
C3306 C3305 1.397 . S
C3306 C3307 1.334 . S
C3307 H3284 0.950 . S
C3307 C3306 1.334 . S
C3307 C3308 1.287 . S
C3308 C3307 1.287 . S
C3308 C3309 1.524 . S
C3308 H3327 0.913 . S
C3309 H3285 0.950 . S
C3309 C3308 1.524 . S
C3309 C3310 1.415 . S
C3310 H3286 0.950 . S
C3310 C3305 1.363 . S
C3310 C3309 1.415 . S
C3311 H3287 0.951 . S
C3311 C3312 1.366 . S
C3311 C3313 1.388 . S
C3312 C3311 1.366 . S
C3312 C3316 1.385 . S
C3313 H3288 0.951 . S
C3313 C3311 1.388 . S
C3313 C3314 1.380 . S
C3314 C3313 1.380 . S
C3314 C3315 1.417 . S
C3314 C3317 1.490 1_554 S
C3315 H3289 0.953 . S
C3315 C3314 1.417 . S
C3315 C3316 1.374 . S
C3316 H3290 0.950 . S
C3316 C3312 1.385 . S
C3316 C3315 1.374 . S
C3317 C3314 1.490 1_556 S
C3317 C3318 1.359 1_556 S
C3317 C3319 1.405 . S
C3318 H3291 0.950 . S
C3318 C3304 1.377 . S
C3318 C3317 1.359 1_554 S
C3319 C3303 1.377 . S
C3319 C3317 1.405 . S
C3319 C3320 1.524 . S
C3320 C3319 1.524 . S
C3320 C3321 1.397 . S
C3320 C3325 1.363 . S
C3321 H3292 0.950 . S
C3321 C3320 1.397 . S
C3321 C3322 1.334 . S
C3322 H3293 0.950 . S
C3322 C3321 1.334 . S
C3322 C3323 1.287 . S
C3323 C3322 1.287 . S
C3323 C3324 1.524 . S
C3323 H3326 0.999 . S
C3324 H3294 0.950 . S
C3324 C3323 1.524 . S
C3324 C3325 1.415 . S
C3325 H3295 0.950 . S
C3325 C3320 1.363 . S
C3325 C3324 1.415 . S
H3326 C3323 0.999 . S
H3327 C3308 0.913 . S
H3328 C3346 0.951 . S
H3329 C3348 0.951 . S
H3330 C3350 0.950 . S
H3331 C3351 0.950 . S
H3332 C3353 0.950 . S
H3333 C3356 0.950 . S
H3334 C3357 0.950 . S
H3335 C3359 0.950 . S
H3336 C3360 0.950 . S
H3337 C3361 0.951 . S
H3338 C3363 0.951 . S
H3339 C3365 0.950 . S
H3340 C3366 0.950 . S
H3341 C3368 0.950 . S
H3342 C3371 0.950 . S
H3343 C3372 0.950 . S
H3344 C3374 0.950 . S
H3345 C3375 0.950 . S
C3346 H3328 0.951 . S
C3346 C3347 1.366 . S
C3346 C3348 1.388 . S
C3347 C3346 1.366 . S
C3347 C3351 1.385 . S
C3348 H3329 0.951 . S
C3348 C3346 1.388 . S
C3348 C3349 1.366 . S
C3349 C3348 1.366 . S
C3349 C3350 1.414 . S
C3349 C3352 1.499 . S
C3350 H3330 0.950 . S
C3350 C3349 1.414 . S
C3350 C3351 1.374 . S
C3351 H3331 0.950 . S
C3351 C3347 1.385 . S
C3351 C3350 1.374 . S
C3352 C3349 1.499 . S
C3352 C3353 1.373 . S
C3352 C3354 1.389 . S
C3353 H3332 0.950 . S
C3353 C3352 1.373 . S
C3353 C3369 1.377 . S
C3354 C3352 1.389 . S
C3354 C3355 1.524 . S
C3354 C3368 1.377 . S
C3355 C3354 1.524 . S
C3355 C3356 1.397 . S
C3355 C3360 1.363 . S
C3356 H3333 0.950 . S
C3356 C3355 1.397 . S
C3356 C3357 1.334 . S
C3357 H3334 0.950 . S
C3357 C3356 1.334 . S
C3357 C3358 1.287 . S
C3358 C3357 1.287 . S
C3358 C3359 1.524 . S
C3358 H3377 0.913 . S
C3359 H3335 0.950 . S
C3359 C3358 1.524 . S
C3359 C3360 1.415 . S
C3360 H3336 0.950 . S
C3360 C3355 1.363 . S
C3360 C3359 1.415 . S
C3361 H3337 0.951 . S
C3361 C3362 1.366 . S
C3361 C3363 1.388 . S
C3362 C3361 1.366 . S
C3362 C3366 1.385 . S
C3363 H3338 0.951 . S
C3363 C3361 1.388 . S
C3363 C3364 1.366 . S
C3364 C3363 1.366 . S
C3364 C3365 1.414 . S
C3364 C3367 1.499 . S
C3365 H3339 0.950 . S
C3365 C3364 1.414 . S
C3365 C3366 1.374 . S
C3366 H3340 0.950 . S
C3366 C3362 1.385 . S
C3366 C3365 1.374 . S
C3367 C3364 1.499 . S
C3367 C3368 1.373 . S
C3367 C3369 1.389 . S
C3368 H3341 0.950 . S
C3368 C3354 1.377 . S
C3368 C3367 1.373 . S
C3369 C3353 1.377 . S
C3369 C3367 1.389 . S
C3369 C3370 1.524 . S
C3370 C3369 1.524 . S
C3370 C3371 1.397 . S
C3370 C3375 1.363 . S
C3371 H3342 0.950 . S
C3371 C3370 1.397 . S
C3371 C3372 1.334 . S
C3372 H3343 0.950 . S
C3372 C3371 1.334 . S
C3372 C3373 1.287 . S
C3373 C3372 1.287 . S
C3373 C3374 1.524 . S
C3373 H3376 0.999 . S
C3374 H3344 0.950 . S
C3374 C3373 1.524 . S
C3374 C3375 1.415 . S
C3375 H3345 0.950 . S
C3375 C3370 1.363 . S
C3375 C3374 1.415 . S
H3376 C3373 0.999 . S
H3377 C3358 0.913 . S
H3378 C3396 0.921 1_655 S
H3379 C3398 0.947 . S
H3380 C3400 0.950 . S
H3381 C3401 0.950 . S
H3382 C3403 0.945 1_655 S
H3383 C3406 0.950 . S
H3384 C3407 0.950 . S
H3385 C3409 0.950 . S
H3386 C3410 0.971 . S
H3387 C3411 0.951 . S
H3388 C3413 0.951 . S
H3389 C3415 0.950 . S
H3390 C3416 0.950 . S
H3391 C3418 0.950 . S
H3392 C3421 0.950 . S
H3393 C3422 0.950 . S
H3394 C3424 0.950 . S
H3395 C3425 0.950 1_455 S
C3396 H3378 0.921 1_455 S
C3396 C3397 1.400 . S
C3396 C3398 1.387 1_455 S
C3397 C3396 1.400 . S
C3397 C3401 1.385 . S
C3398 H3379 0.947 . S
C3398 C3396 1.387 1_655 S
C3398 C3399 1.369 1_655 S
C3399 C3398 1.369 1_455 S
C3399 C3400 1.414 . S
C3399 C3402 1.499 . S
C3400 H3380 0.950 . S
C3400 C3399 1.414 . S
C3400 C3401 1.374 . S
C3401 H3381 0.950 . S
C3401 C3397 1.385 . S
C3401 C3400 1.374 . S
C3402 C3399 1.499 . S
C3402 C3403 1.384 . S
C3402 C3404 1.389 . S
C3403 H3382 0.945 1_455 S
C3403 C3402 1.384 . S
C3403 C3419 1.373 1_455 S
C3404 C3402 1.389 . S
C3404 C3405 1.524 . S
C3404 C3418 1.377 . S
C3405 C3404 1.524 . S
C3405 C3406 1.397 . S
C3405 C3410 1.363 . S
C3406 H3383 0.950 . S
C3406 C3405 1.397 . S
C3406 C3407 1.334 . S
C3407 H3384 0.950 . S
C3407 C3406 1.334 . S
C3407 C3408 1.287 . S
C3408 C3407 1.287 . S
C3408 C3409 1.524 . S
C3408 H3427 0.913 . S
C3409 H3385 0.950 . S
C3409 C3408 1.524 . S
C3409 C3410 1.415 . S
C3410 H3386 0.971 . S
C3410 C3405 1.363 . S
C3410 C3409 1.415 . S
C3411 H3387 0.951 . S
C3411 C3412 1.366 1_455 S
C3411 C3413 1.388 . S
C3412 C3411 1.366 1_655 S
C3412 C3416 1.385 . S
C3413 H3388 0.951 . S
C3413 C3411 1.388 . S
C3413 C3414 1.362 . S
C3414 C3413 1.362 . S
C3414 C3415 1.418 1_455 S
C3414 C3417 1.498 . S
C3415 H3389 0.950 . S
C3415 C3414 1.418 1_655 S
C3415 C3416 1.374 . S
C3416 H3390 0.950 . S
C3416 C3412 1.385 . S
C3416 C3415 1.374 . S
C3417 C3414 1.498 . S
C3417 C3418 1.373 . S
C3417 C3419 1.389 1_455 S
C3418 H3391 0.950 . S
C3418 C3404 1.377 . S
C3418 C3417 1.373 . S
C3419 C3403 1.373 1_655 S
C3419 C3417 1.389 1_655 S
C3419 C3420 1.524 . S
C3420 C3419 1.524 . S
C3420 C3421 1.397 . S
C3420 C3425 1.363 . S
C3421 H3392 0.950 . S
C3421 C3420 1.397 . S
C3421 C3422 1.334 . S
C3422 H3393 0.950 . S
C3422 C3421 1.334 . S
C3422 C3423 1.287 . S
C3423 C3422 1.287 . S
C3423 C3424 1.524 . S
C3423 H3426 0.999 . S
C3424 H3394 0.950 . S
C3424 C3423 1.524 . S
C3424 C3425 1.415 . S
C3425 H3395 0.950 1_655 S
C3425 C3420 1.363 . S
C3425 C3424 1.415 . S
H3426 C3423 0.999 . S
H3427 C3408 0.913 . S
H3428 C3446 0.951 . S
H3429 C3448 0.951 . S
H3430 C3450 0.950 . S
H3431 C3451 0.950 . S
H3432 C3453 0.950 . S
H3433 C3456 0.950 . S
H3434 C3457 0.950 . S
H3435 C3459 0.950 . S
H3436 C3460 0.950 . S
H3437 C3461 0.951 . S
H3438 C3463 0.951 . S
H3439 C3465 0.950 . S
H3440 C3466 0.950 . S
H3441 C3468 0.950 . S
H3442 C3471 0.950 . S
H3443 C3472 0.950 . S
H3444 C3474 0.950 . S
H3445 C3475 0.950 . S
C3446 H3428 0.951 . S
C3446 C3447 1.366 . S
C3446 C3448 1.388 . S
C3447 C3446 1.366 . S
C3447 C3451 1.385 . S
C3448 H3429 0.951 . S
C3448 C3446 1.388 . S
C3448 C3449 1.366 . S
C3449 C3448 1.366 . S
C3449 C3450 1.414 . S
C3449 C3452 1.499 . S
C3450 H3430 0.950 . S
C3450 C3449 1.414 . S
C3450 C3451 1.374 . S
C3451 H3431 0.950 . S
C3451 C3447 1.385 . S
C3451 C3450 1.374 . S
C3452 C3449 1.499 . S
C3452 C3453 1.373 . S
C3452 C3454 1.389 . S
C3453 H3432 0.950 . S
C3453 C3452 1.373 . S
C3453 C3469 1.377 . S
C3454 C3452 1.389 . S
C3454 C3455 1.524 . S
C3454 C3468 1.377 . S
C3455 C3454 1.524 . S
C3455 C3456 1.397 . S
C3455 C3460 1.363 . S
C3456 H3433 0.950 . S
C3456 C3455 1.397 . S
C3456 C3457 1.334 . S
C3457 H3434 0.950 . S
C3457 C3456 1.334 . S
C3457 C3458 1.287 . S
C3458 C3457 1.287 . S
C3458 C3459 1.524 . S
C3458 H3477 0.913 . S
C3459 H3435 0.950 . S
C3459 C3458 1.524 . S
C3459 C3460 1.415 . S
C3460 H3436 0.950 . S
C3460 C3455 1.363 . S
C3460 C3459 1.415 . S
C3461 H3437 0.951 . S
C3461 C3462 1.366 . S
C3461 C3463 1.388 . S
C3462 C3461 1.366 . S
C3462 C3466 1.385 . S
C3463 H3438 0.951 . S
C3463 C3461 1.388 . S
C3463 C3464 1.366 . S
C3464 C3463 1.366 . S
C3464 C3465 1.414 . S
C3464 C3467 1.499 . S
C3465 H3439 0.950 . S
C3465 C3464 1.414 . S
C3465 C3466 1.374 . S
C3466 H3440 0.950 . S
C3466 C3462 1.385 . S
C3466 C3465 1.374 . S
C3467 C3464 1.499 . S
C3467 C3468 1.373 . S
C3467 C3469 1.389 . S
C3468 H3441 0.950 . S
C3468 C3454 1.377 . S
C3468 C3467 1.373 . S
C3469 C3453 1.377 . S
C3469 C3467 1.389 . S
C3469 C3470 1.524 . S
C3470 C3469 1.524 . S
C3470 C3471 1.397 . S
C3470 C3475 1.363 . S
C3471 H3442 0.950 . S
C3471 C3470 1.397 . S
C3471 C3472 1.334 . S
C3472 H3443 0.950 . S
C3472 C3471 1.334 . S
C3472 C3473 1.287 . S
C3473 C3472 1.287 . S
C3473 C3474 1.524 . S
C3473 H3476 0.999 . S
C3474 H3444 0.950 . S
C3474 C3473 1.524 . S
C3474 C3475 1.415 . S
C3475 H3445 0.950 . S
C3475 C3470 1.363 . S
C3475 C3474 1.415 . S
H3476 C3473 0.999 . S
H3477 C3458 0.913 . S
H3478 C3496 0.951 . S
H3479 C3498 0.951 . S
H3480 C3500 0.950 . S
H3481 C3501 0.950 . S
H3482 C3503 0.950 . S
H3483 C3506 0.950 . S
H3484 C3507 0.950 . S
H3485 C3509 0.950 . S
H3486 C3510 0.950 . S
H3487 C3511 0.951 . S
H3488 C3513 0.951 . S
H3489 C3515 0.950 . S
H3490 C3516 0.950 . S
H3491 C3518 0.950 . S
H3492 C3521 0.950 . S
H3493 C3522 0.950 . S
H3494 C3524 0.950 . S
H3495 C3525 0.950 . S
C3496 H3478 0.951 . S
C3496 C3497 1.366 1_455 S
C3496 C3498 1.388 . S
C3497 C3496 1.366 1_655 S
C3497 C3501 1.385 . S
C3498 H3479 0.951 . S
C3498 C3496 1.388 . S
C3498 C3499 1.366 1_455 S
C3499 C3498 1.366 1_655 S
C3499 C3500 1.414 . S
C3499 C3502 1.499 . S
C3500 H3480 0.950 . S
C3500 C3499 1.414 . S
C3500 C3501 1.374 . S
C3501 H3481 0.950 . S
C3501 C3497 1.385 . S
C3501 C3500 1.374 . S
C3502 C3499 1.499 . S
C3502 C3503 1.373 . S
C3502 C3504 1.389 1_655 S
C3503 H3482 0.950 . S
C3503 C3502 1.373 . S
C3503 C3519 1.377 . S
C3504 C3502 1.389 1_455 S
C3504 C3505 1.524 . S
C3504 C3518 1.377 . S
C3505 C3504 1.524 . S
C3505 C3506 1.397 . S
C3505 C3510 1.363 . S
C3506 H3483 0.950 . S
C3506 C3505 1.397 . S
C3506 C3507 1.334 . S
C3507 H3484 0.950 . S
C3507 C3506 1.334 . S
C3507 C3508 1.287 . S
C3508 C3507 1.287 . S
C3508 C3509 1.524 . S
C3508 H3527 0.913 . S
C3509 H3485 0.950 . S
C3509 C3508 1.524 . S
C3509 C3510 1.415 . S
C3510 H3486 0.950 . S
C3510 C3505 1.363 . S
C3510 C3509 1.415 . S
C3511 H3487 0.951 . S
C3511 C3512 1.366 1_655 S
C3511 C3513 1.388 . S
C3512 C3511 1.366 1_455 S
C3512 C3516 1.385 . S
C3513 H3488 0.951 . S
C3513 C3511 1.388 . S
C3513 C3514 1.366 1_655 S
C3514 C3513 1.366 1_455 S
C3514 C3515 1.414 . S
C3514 C3517 1.505 . S
C3515 H3489 0.950 . S
C3515 C3514 1.414 . S
C3515 C3516 1.374 . S
C3516 H3490 0.950 . S
C3516 C3512 1.385 . S
C3516 C3515 1.374 . S
C3517 C3514 1.505 . S
C3517 C3518 1.414 . S
C3517 C3519 1.344 1_455 S
C3518 H3491 0.950 . S
C3518 C3504 1.377 . S
C3518 C3517 1.414 . S
C3519 C3503 1.377 . S
C3519 C3517 1.344 1_655 S
C3519 C3520 1.524 . S
C3520 C3519 1.524 . S
C3520 C3521 1.397 . S
C3520 C3525 1.363 . S
C3521 H3492 0.950 . S
C3521 C3520 1.397 . S
C3521 C3522 1.334 . S
C3522 H3493 0.950 . S
C3522 C3521 1.334 . S
C3522 C3523 1.287 . S
C3523 C3522 1.287 . S
C3523 C3524 1.524 . S
C3523 H3526 0.999 . S
C3524 H3494 0.950 . S
C3524 C3523 1.524 . S
C3524 C3525 1.415 . S
C3525 H3495 0.950 . S
C3525 C3520 1.363 . S
C3525 C3524 1.415 . S
H3526 C3523 0.999 . S
H3527 C3508 0.913 . S
H3528 C3546 0.951 . S
H3529 C3548 0.951 . S
H3530 C3550 0.950 . S
H3531 C3551 0.950 . S
H3532 C3553 0.950 . S
H3533 C3556 0.950 . S
H3534 C3557 0.950 . S
H3535 C3559 0.950 . S
H3536 C3560 0.950 . S
H3537 C3561 0.951 . S
H3538 C3563 0.951 . S
H3539 C3565 0.950 . S
H3540 C3566 0.950 . S
H3541 C3568 0.950 . S
H3542 C3571 0.950 . S
H3543 C3572 0.950 . S
H3544 C3574 0.950 . S
H3545 C3575 0.950 . S
C3546 H3528 0.951 . S
C3546 C3547 1.366 . S
C3546 C3548 1.388 . S
C3547 C3546 1.366 . S
C3547 C3551 1.385 . S
C3548 H3529 0.951 . S
C3548 C3546 1.388 . S
C3548 C3549 1.366 . S
C3549 C3548 1.366 . S
C3549 C3550 1.414 . S
C3549 C3552 1.499 . S
C3550 H3530 0.950 . S
C3550 C3549 1.414 . S
C3550 C3551 1.374 . S
C3551 H3531 0.950 . S
C3551 C3547 1.385 . S
C3551 C3550 1.374 . S
C3552 C3549 1.499 . S
C3552 C3553 1.373 . S
C3552 C3554 1.389 . S
C3553 H3532 0.950 . S
C3553 C3552 1.373 . S
C3553 C3569 1.377 . S
C3554 C3552 1.389 . S
C3554 C3555 1.524 . S
C3554 C3568 1.377 . S
C3555 C3554 1.524 . S
C3555 C3556 1.397 . S
C3555 C3560 1.363 . S
C3556 H3533 0.950 . S
C3556 C3555 1.397 . S
C3556 C3557 1.334 . S
C3557 H3534 0.950 . S
C3557 C3556 1.334 . S
C3557 C3558 1.287 . S
C3558 C3557 1.287 . S
C3558 C3559 1.524 . S
C3558 H3577 0.913 . S
C3559 H3535 0.950 . S
C3559 C3558 1.524 . S
C3559 C3560 1.415 . S
C3560 H3536 0.950 . S
C3560 C3555 1.363 . S
C3560 C3559 1.415 . S
C3561 H3537 0.951 . S
C3561 C3562 1.366 . S
C3561 C3563 1.388 . S
C3562 C3561 1.366 . S
C3562 C3566 1.385 . S
C3563 H3538 0.951 . S
C3563 C3561 1.388 . S
C3563 C3564 1.366 . S
C3564 C3563 1.366 . S
C3564 C3565 1.414 . S
C3564 C3567 1.499 . S
C3565 H3539 0.950 . S
C3565 C3564 1.414 . S
C3565 C3566 1.374 . S
C3566 H3540 0.950 . S
C3566 C3562 1.385 . S
C3566 C3565 1.374 . S
C3567 C3564 1.499 . S
C3567 C3568 1.373 . S
C3567 C3569 1.389 . S
C3568 H3541 0.950 . S
C3568 C3554 1.377 . S
C3568 C3567 1.373 . S
C3569 C3553 1.377 . S
C3569 C3567 1.389 . S
C3569 C3570 1.524 . S
C3570 C3569 1.524 . S
C3570 C3571 1.397 . S
C3570 C3575 1.363 . S
C3571 H3542 0.950 . S
C3571 C3570 1.397 . S
C3571 C3572 1.334 . S
C3572 H3543 0.950 . S
C3572 C3571 1.334 . S
C3572 C3573 1.287 . S
C3573 C3572 1.287 . S
C3573 C3574 1.524 . S
C3573 H3576 0.999 . S
C3574 H3544 0.950 . S
C3574 C3573 1.524 . S
C3574 C3575 1.415 . S
C3575 H3545 0.950 . S
C3575 C3570 1.363 . S
C3575 C3574 1.415 . S
H3576 C3573 0.999 . S
H3577 C3558 0.913 . S
H3578 C3596 0.951 . S
H3579 C3598 0.951 . S
H3580 C3600 0.950 . S
H3581 C3601 0.950 . S
H3582 C3603 0.950 . S
H3583 C3606 0.950 . S
H3584 C3607 0.950 . S
H3585 C3609 0.950 . S
H3586 C3610 0.950 . S
H3587 C3611 0.951 . S
H3588 C3613 0.951 . S
H3589 C3615 0.950 . S
H3590 C3616 0.950 . S
H3591 C3618 0.950 . S
H3592 C3621 0.950 . S
H3593 C3622 0.950 . S
H3594 C3624 0.950 . S
H3595 C3625 0.950 . S
C3596 H3578 0.951 . S
C3596 C3597 1.366 . S
C3596 C3598 1.388 . S
C3597 C3596 1.366 . S
C3597 C3601 1.385 . S
C3598 H3579 0.951 . S
C3598 C3596 1.388 . S
C3598 C3599 1.366 . S
C3599 C3598 1.366 . S
C3599 C3600 1.414 . S
C3599 C3602 1.499 . S
C3600 H3580 0.950 . S
C3600 C3599 1.414 . S
C3600 C3601 1.374 . S
C3601 H3581 0.950 . S
C3601 C3597 1.385 . S
C3601 C3600 1.374 . S
C3602 C3599 1.499 . S
C3602 C3603 1.373 . S
C3602 C3604 1.389 . S
C3603 H3582 0.950 . S
C3603 C3602 1.373 . S
C3603 C3619 1.377 . S
C3604 C3602 1.389 . S
C3604 C3605 1.524 . S
C3604 C3618 1.377 . S
C3605 C3604 1.524 . S
C3605 C3606 1.397 . S
C3605 C3610 1.363 . S
C3606 H3583 0.950 . S
C3606 C3605 1.397 . S
C3606 C3607 1.334 . S
C3607 H3584 0.950 . S
C3607 C3606 1.334 . S
C3607 C3608 1.287 . S
C3608 C3607 1.287 . S
C3608 C3609 1.524 . S
C3608 H3627 0.913 . S
C3609 H3585 0.950 . S
C3609 C3608 1.524 . S
C3609 C3610 1.415 . S
C3610 H3586 0.950 . S
C3610 C3605 1.363 . S
C3610 C3609 1.415 . S
C3611 H3587 0.951 . S
C3611 C3612 1.366 . S
C3611 C3613 1.388 . S
C3612 C3611 1.366 . S
C3612 C3616 1.385 . S
C3613 H3588 0.951 . S
C3613 C3611 1.388 . S
C3613 C3614 1.366 . S
C3614 C3613 1.366 . S
C3614 C3615 1.414 . S
C3614 C3617 1.499 . S
C3615 H3589 0.950 . S
C3615 C3614 1.414 . S
C3615 C3616 1.374 . S
C3616 H3590 0.950 . S
C3616 C3612 1.385 . S
C3616 C3615 1.374 . S
C3617 C3614 1.499 . S
C3617 C3618 1.373 . S
C3617 C3619 1.389 . S
C3618 H3591 0.950 . S
C3618 C3604 1.377 . S
C3618 C3617 1.373 . S
C3619 C3603 1.377 . S
C3619 C3617 1.389 . S
C3619 C3620 1.524 . S
C3620 C3619 1.524 . S
C3620 C3621 1.397 . S
C3620 C3625 1.363 . S
C3621 H3592 0.950 . S
C3621 C3620 1.397 . S
C3621 C3622 1.334 . S
C3622 H3593 0.950 . S
C3622 C3621 1.334 . S
C3622 C3623 1.287 . S
C3623 C3622 1.287 . S
C3623 C3624 1.524 . S
C3623 H3626 0.999 . S
C3624 H3594 0.950 . S
C3624 C3623 1.524 . S
C3624 C3625 1.415 . S
C3625 H3595 0.950 . S
C3625 C3620 1.363 . S
C3625 C3624 1.415 . S
H3626 C3623 0.999 . S
H3627 C3608 0.913 . S
H3628 C3646 0.951 . S
H3629 C3648 0.951 . S
H3630 C3650 0.950 . S
H3631 C3651 0.950 . S
H3632 C3653 0.950 . S
H3633 C3656 0.950 1_545 S
H3634 C3657 0.950 . S
H3635 C3659 0.950 . S
H3636 C3660 0.950 . S
H3637 C3661 0.951 . S
H3638 C3663 0.951 . S
H3639 C3665 0.950 . S
H3640 C3666 0.950 . S
H3641 C3668 0.950 . S
H3642 C3671 0.951 1_565 S
H3643 C3672 0.950 . S
H3644 C3674 0.950 . S
H3645 C3675 0.950 . S
C3646 H3628 0.951 . S
C3646 C3647 1.366 1_565 S
C3646 C3648 1.388 . S
C3647 C3646 1.366 1_545 S
C3647 C3651 1.385 . S
C3648 H3629 0.951 . S
C3648 C3646 1.388 . S
C3648 C3649 1.366 1_565 S
C3649 C3648 1.366 1_545 S
C3649 C3650 1.414 . S
C3649 C3652 1.499 . S
C3650 H3630 0.950 . S
C3650 C3649 1.414 . S
C3650 C3651 1.374 . S
C3651 H3631 0.950 . S
C3651 C3647 1.385 . S
C3651 C3650 1.374 . S
C3652 C3649 1.499 . S
C3652 C3653 1.373 . S
C3652 C3654 1.389 1_545 S
C3653 H3632 0.950 . S
C3653 C3652 1.373 . S
C3653 C3669 1.377 . S
C3654 C3652 1.389 1_565 S
C3654 C3655 1.524 . S
C3654 C3668 1.377 . S
C3655 C3654 1.524 . S
C3655 C3656 1.397 . S
C3655 C3660 1.363 . S
C3656 H3633 0.950 1_565 S
C3656 C3655 1.397 . S
C3656 C3657 1.334 . S
C3657 H3634 0.950 . S
C3657 C3656 1.334 . S
C3657 C3658 1.287 . S
C3658 C3657 1.287 . S
C3658 C3659 1.524 . S
C3658 H3677 0.913 . S
C3659 H3635 0.950 . S
C3659 C3658 1.524 . S
C3659 C3660 1.415 . S
C3660 H3636 0.950 . S
C3660 C3655 1.363 . S
C3660 C3659 1.415 . S
C3661 H3637 0.951 . S
C3661 C3662 1.366 1_545 S
C3661 C3663 1.388 . S
C3662 C3661 1.366 1_565 S
C3662 C3666 1.385 . S
C3663 H3638 0.951 . S
C3663 C3661 1.388 . S
C3663 C3664 1.366 1_545 S
C3664 C3663 1.366 1_565 S
C3664 C3665 1.414 . S
C3664 C3667 1.507 . S
C3665 H3639 0.950 . S
C3665 C3664 1.414 . S
C3665 C3666 1.374 . S
C3666 H3640 0.950 . S
C3666 C3662 1.385 . S
C3666 C3665 1.374 . S
C3667 C3664 1.507 . S
C3667 C3668 1.415 . S
C3667 C3669 1.340 1_565 S
C3668 H3641 0.950 . S
C3668 C3654 1.377 . S
C3668 C3667 1.415 . S
C3669 C3653 1.377 . S
C3669 C3667 1.340 1_545 S
C3669 C3670 1.524 . S
C3670 C3669 1.524 . S
C3670 C3671 1.397 . S
C3670 C3675 1.363 . S
C3671 H3642 0.951 1_545 S
C3671 C3670 1.397 . S
C3671 C3672 1.334 . S
C3672 H3643 0.950 . S
C3672 C3671 1.334 . S
C3672 C3673 1.287 . S
C3673 C3672 1.287 . S
C3673 C3674 1.524 . S
C3673 H3676 0.999 . S
C3674 H3644 0.950 . S
C3674 C3673 1.524 . S
C3674 C3675 1.415 . S
C3675 H3645 0.950 . S
C3675 C3670 1.363 . S
C3675 C3674 1.415 . S
H3676 C3673 0.999 . S
H3677 C3658 0.913 . S
H3678 C3696 0.951 . S
H3679 C3698 0.951 . S
H3680 C3700 0.961 . S
H3681 C3701 0.950 . S
H3682 C3703 0.950 . S
H3683 C3706 0.950 . S
H3684 C3707 0.950 . S
H3685 C3709 0.950 . S
H3686 C3710 0.950 . S
H3687 C3711 0.951 . S
H3688 C3713 0.951 . S
H3689 C3715 0.950 . S
H3690 C3716 0.950 . S
H3691 C3718 0.950 . S
H3692 C3721 0.950 . S
H3693 C3722 0.950 . S
H3694 C3724 0.950 . S
H3695 C3725 0.950 . S
C3696 H3678 0.951 . S
C3696 C3697 1.366 . S
C3696 C3698 1.388 . S
C3697 C3696 1.366 . S
C3697 C3701 1.385 . S
C3698 H3679 0.951 . S
C3698 C3696 1.388 . S
C3698 C3699 1.366 . S
C3699 C3698 1.366 . S
C3699 C3700 1.414 . S
C3699 C3702 1.499 . S
C3700 H3680 0.961 . S
C3700 C3699 1.414 . S
C3700 C3701 1.374 . S
C3701 H3681 0.950 . S
C3701 C3697 1.385 . S
C3701 C3700 1.374 . S
C3702 C3699 1.499 . S
C3702 C3703 1.373 . S
C3702 C3704 1.389 1_565 S
C3703 H3682 0.950 . S
C3703 C3702 1.373 . S
C3703 C3719 1.377 . S
C3704 C3702 1.389 1_545 S
C3704 C3705 1.524 . S
C3704 C3718 1.377 . S
C3705 C3704 1.524 . S
C3705 C3706 1.397 . S
C3705 C3710 1.363 . S
C3706 H3683 0.950 . S
C3706 C3705 1.397 . S
C3706 C3707 1.334 . S
C3707 H3684 0.950 . S
C3707 C3706 1.334 . S
C3707 C3708 1.287 . S
C3708 C3707 1.287 . S
C3708 C3709 1.524 . S
C3708 H3727 0.913 . S
C3709 H3685 0.950 . S
C3709 C3708 1.524 . S
C3709 C3710 1.415 . S
C3710 H3686 0.950 . S
C3710 C3705 1.363 . S
C3710 C3709 1.415 . S
C3711 H3687 0.951 . S
C3711 C3712 1.366 . S
C3711 C3713 1.388 . S
C3712 C3711 1.366 . S
C3712 C3716 1.385 1_545 S
C3713 H3688 0.951 . S
C3713 C3711 1.388 . S
C3713 C3714 1.366 1_545 S
C3714 C3713 1.366 1_565 S
C3714 C3715 1.414 . S
C3714 C3717 1.499 . S
C3715 H3689 0.950 . S
C3715 C3714 1.414 . S
C3715 C3716 1.374 . S
C3716 H3690 0.950 . S
C3716 C3712 1.385 1_565 S
C3716 C3715 1.374 . S
C3717 C3714 1.499 . S
C3717 C3718 1.373 1_565 S
C3717 C3719 1.389 . S
C3718 H3691 0.950 . S
C3718 C3704 1.377 . S
C3718 C3717 1.373 1_545 S
C3719 C3703 1.377 . S
C3719 C3717 1.389 . S
C3719 C3720 1.524 . S
C3720 C3719 1.524 . S
C3720 C3721 1.397 . S
C3720 C3725 1.363 . S
C3721 H3692 0.950 . S
C3721 C3720 1.397 . S
C3721 C3722 1.334 . S
C3722 H3693 0.950 . S
C3722 C3721 1.334 . S
C3722 C3723 1.287 . S
C3723 C3722 1.287 . S
C3723 C3724 1.524 . S
C3723 H3726 0.999 . S
C3724 H3694 0.950 . S
C3724 C3723 1.524 . S
C3724 C3725 1.415 . S
C3725 H3695 0.950 . S
C3725 C3720 1.363 . S
C3725 C3724 1.415 . S
H3726 C3723 0.999 . S
H3727 C3708 0.913 . S
H3728 C3746 0.951 . S
H3729 C3748 0.951 . S
H3730 C3750 0.950 . S
H3731 C3751 0.950 . S
H3732 C3753 0.950 . S
H3733 C3756 0.950 . S
H3734 C3757 0.950 . S
H3735 C3759 0.950 . S
H3736 C3760 0.950 . S
H3737 C3761 0.951 . S
H3738 C3763 0.951 . S
H3739 C3765 0.950 . S
H3740 C3766 0.950 . S
H3741 C3768 0.950 . S
H3742 C3771 0.950 . S
H3743 C3772 0.950 . S
H3744 C3774 0.950 . S
H3745 C3775 0.950 . S
C3746 H3728 0.951 . S
C3746 C3747 1.366 . S
C3746 C3748 1.388 . S
C3747 C3746 1.366 . S
C3747 C3751 1.385 . S
C3748 H3729 0.951 . S
C3748 C3746 1.388 . S
C3748 C3749 1.366 . S
C3749 C3748 1.366 . S
C3749 C3750 1.414 . S
C3749 C3752 1.499 . S
C3750 H3730 0.950 . S
C3750 C3749 1.414 . S
C3750 C3751 1.374 . S
C3751 H3731 0.950 . S
C3751 C3747 1.385 . S
C3751 C3750 1.374 . S
C3752 C3749 1.499 . S
C3752 C3753 1.373 . S
C3752 C3754 1.389 . S
C3753 H3732 0.950 . S
C3753 C3752 1.373 . S
C3753 C3769 1.377 . S
C3754 C3752 1.389 . S
C3754 C3755 1.524 . S
C3754 C3768 1.377 . S
C3755 C3754 1.524 . S
C3755 C3756 1.397 . S
C3755 C3760 1.363 . S
C3756 H3733 0.950 . S
C3756 C3755 1.397 . S
C3756 C3757 1.334 . S
C3757 H3734 0.950 . S
C3757 C3756 1.334 . S
C3757 C3758 1.287 . S
C3758 C3757 1.287 . S
C3758 C3759 1.524 . S
C3758 H3777 0.913 . S
C3759 H3735 0.950 . S
C3759 C3758 1.524 . S
C3759 C3760 1.415 . S
C3760 H3736 0.950 . S
C3760 C3755 1.363 . S
C3760 C3759 1.415 . S
C3761 H3737 0.951 . S
C3761 C3762 1.366 . S
C3761 C3763 1.388 . S
C3762 C3761 1.366 . S
C3762 C3766 1.385 . S
C3763 H3738 0.951 . S
C3763 C3761 1.388 . S
C3763 C3764 1.366 . S
C3764 C3763 1.366 . S
C3764 C3765 1.414 . S
C3764 C3767 1.499 . S
C3765 H3739 0.950 . S
C3765 C3764 1.414 . S
C3765 C3766 1.374 . S
C3766 H3740 0.950 . S
C3766 C3762 1.385 . S
C3766 C3765 1.374 . S
C3767 C3764 1.499 . S
C3767 C3768 1.373 . S
C3767 C3769 1.389 . S
C3768 H3741 0.950 . S
C3768 C3754 1.377 . S
C3768 C3767 1.373 . S
C3769 C3753 1.377 . S
C3769 C3767 1.389 . S
C3769 C3770 1.524 . S
C3770 C3769 1.524 . S
C3770 C3771 1.397 . S
C3770 C3775 1.363 . S
C3771 H3742 0.950 . S
C3771 C3770 1.397 . S
C3771 C3772 1.334 . S
C3772 H3743 0.950 . S
C3772 C3771 1.334 . S
C3772 C3773 1.287 . S
C3773 C3772 1.287 . S
C3773 C3774 1.524 . S
C3773 H3776 0.999 . S
C3774 H3744 0.950 . S
C3774 C3773 1.524 . S
C3774 C3775 1.415 . S
C3775 H3745 0.950 . S
C3775 C3770 1.363 . S
C3775 C3774 1.415 . S
H3776 C3773 0.999 . S
H3777 C3758 0.913 . S
H3778 C3796 0.951 . S
H3779 C3798 0.951 . S
H3780 C3800 0.950 . S
H3781 C3801 0.950 . S
H3782 C3803 0.957 . S
H3783 C3806 0.950 . S
H3784 C3807 0.950 . S
H3785 C3809 0.950 . S
H3786 C3810 0.950 . S
H3787 C3811 0.951 . S
H3788 C3813 0.951 . S
H3789 C3815 0.950 . S
H3790 C3816 0.950 . S
H3791 C3818 0.950 . S
H3792 C3821 0.950 . S
H3793 C3822 0.950 . S
H3794 C3824 0.950 . S
H3795 C3825 0.950 . S
C3796 H3778 0.951 . S
C3796 C3797 1.366 . S
C3796 C3798 1.388 . S
C3797 C3796 1.366 . S
C3797 C3801 1.385 1_556 S
C3798 H3779 0.951 . S
C3798 C3796 1.388 . S
C3798 C3799 1.366 . S
C3799 C3798 1.366 . S
C3799 C3800 1.414 1_556 S
C3799 C3802 1.499 . S
C3800 H3780 0.950 . S
C3800 C3799 1.414 1_554 S
C3800 C3801 1.374 . S
C3801 H3781 0.950 . S
C3801 C3797 1.385 1_554 S
C3801 C3800 1.374 . S
C3802 C3799 1.499 . S
C3802 C3803 1.373 . S
C3802 C3804 1.389 . S
C3803 H3782 0.957 . S
C3803 C3802 1.373 . S
C3803 C3819 1.377 . S
C3804 C3802 1.389 . S
C3804 C3805 1.524 . S
C3804 C3818 1.377 . S
C3805 C3804 1.524 . S
C3805 C3806 1.397 1_556 S
C3805 C3810 1.363 . S
C3806 H3783 0.950 . S
C3806 C3805 1.397 1_554 S
C3806 C3807 1.334 . S
C3807 H3784 0.950 . S
C3807 C3806 1.334 . S
C3807 C3808 1.287 1_554 S
C3808 C3807 1.287 1_556 S
C3808 C3809 1.524 . S
C3808 H3827 0.913 . S
C3809 H3785 0.950 . S
C3809 C3808 1.524 . S
C3809 C3810 1.415 . S
C3810 H3786 0.950 . S
C3810 C3805 1.363 . S
C3810 C3809 1.415 . S
C3811 H3787 0.951 . S
C3811 C3812 1.366 . S
C3811 C3813 1.388 . S
C3812 C3811 1.366 . S
C3812 C3816 1.385 1_554 S
C3813 H3788 0.951 . S
C3813 C3811 1.388 . S
C3813 C3814 1.366 1_554 S
C3814 C3813 1.366 1_556 S
C3814 C3815 1.414 . S
C3814 C3817 1.499 . S
C3815 H3789 0.950 . S
C3815 C3814 1.414 . S
C3815 C3816 1.374 . S
C3816 H3790 0.950 . S
C3816 C3812 1.385 1_556 S
C3816 C3815 1.374 . S
C3817 C3814 1.499 . S
C3817 C3818 1.373 . S
C3817 C3819 1.389 . S
C3818 H3791 0.950 . S
C3818 C3804 1.377 . S
C3818 C3817 1.373 . S
C3819 C3803 1.377 . S
C3819 C3817 1.389 . S
C3819 C3820 1.527 . S
C3820 C3819 1.527 . S
C3820 C3821 1.443 . S
C3820 C3825 1.322 1_556 S
C3821 H3792 0.950 . S
C3821 C3820 1.443 . S
C3821 C3822 1.334 . S
C3822 H3793 0.950 . S
C3822 C3821 1.334 . S
C3822 C3823 1.287 . S
C3823 C3822 1.287 . S
C3823 C3824 1.524 1_556 S
C3823 H3826 0.999 . S
C3824 H3794 0.950 . S
C3824 C3823 1.524 1_554 S
C3824 C3825 1.415 . S
C3825 H3795 0.950 . S
C3825 C3820 1.322 1_554 S
C3825 C3824 1.415 . S
H3826 C3823 0.999 . S
H3827 C3808 0.913 . S
H3828 C3846 0.951 . S
H3829 C3848 0.951 . S
H3830 C3850 0.950 . S
H3831 C3851 0.950 . S
H3832 C3853 0.950 . S
H3833 C3856 0.950 . S
H3834 C3857 0.950 . S
H3835 C3859 0.950 . S
H3836 C3860 0.950 . S
H3837 C3861 0.951 . S
H3838 C3863 0.951 . S
H3839 C3865 0.950 . S
H3840 C3866 0.950 . S
H3841 C3868 0.950 . S
H3842 C3871 0.950 . S
H3843 C3872 0.950 . S
H3844 C3874 0.950 . S
H3845 C3875 0.950 . S
C3846 H3828 0.951 . S
C3846 C3847 1.366 . S
C3846 C3848 1.388 . S
C3847 C3846 1.366 . S
C3847 C3851 1.385 . S
C3848 H3829 0.951 . S
C3848 C3846 1.388 . S
C3848 C3849 1.366 . S
C3849 C3848 1.366 . S
C3849 C3850 1.414 . S
C3849 C3852 1.499 . S
C3850 H3830 0.950 . S
C3850 C3849 1.414 . S
C3850 C3851 1.374 . S
C3851 H3831 0.950 . S
C3851 C3847 1.385 . S
C3851 C3850 1.374 . S
C3852 C3849 1.499 . S
C3852 C3853 1.373 . S
C3852 C3854 1.389 . S
C3853 H3832 0.950 . S
C3853 C3852 1.373 . S
C3853 C3869 1.377 . S
C3854 C3852 1.389 . S
C3854 C3855 1.524 . S
C3854 C3868 1.377 . S
C3855 C3854 1.524 . S
C3855 C3856 1.397 . S
C3855 C3860 1.363 . S
C3856 H3833 0.950 . S
C3856 C3855 1.397 . S
C3856 C3857 1.334 . S
C3857 H3834 0.950 . S
C3857 C3856 1.334 . S
C3857 C3858 1.287 . S
C3858 C3857 1.287 . S
C3858 C3859 1.524 . S
C3858 H3877 0.913 . S
C3859 H3835 0.950 . S
C3859 C3858 1.524 . S
C3859 C3860 1.415 . S
C3860 H3836 0.950 . S
C3860 C3855 1.363 . S
C3860 C3859 1.415 . S
C3861 H3837 0.951 . S
C3861 C3862 1.366 . S
C3861 C3863 1.388 . S
C3862 C3861 1.366 . S
C3862 C3866 1.385 . S
C3863 H3838 0.951 . S
C3863 C3861 1.388 . S
C3863 C3864 1.366 . S
C3864 C3863 1.366 . S
C3864 C3865 1.414 . S
C3864 C3867 1.499 . S
C3865 H3839 0.950 . S
C3865 C3864 1.414 . S
C3865 C3866 1.374 . S
C3866 H3840 0.950 . S
C3866 C3862 1.385 . S
C3866 C3865 1.374 . S
C3867 C3864 1.499 . S
C3867 C3868 1.373 . S
C3867 C3869 1.389 . S
C3868 H3841 0.950 . S
C3868 C3854 1.377 . S
C3868 C3867 1.373 . S
C3869 C3853 1.377 . S
C3869 C3867 1.389 . S
C3869 C3870 1.524 . S
C3870 C3869 1.524 . S
C3870 C3871 1.397 . S
C3870 C3875 1.363 . S
C3871 H3842 0.950 . S
C3871 C3870 1.397 . S
C3871 C3872 1.334 . S
C3872 H3843 0.950 . S
C3872 C3871 1.334 . S
C3872 C3873 1.287 . S
C3873 C3872 1.287 . S
C3873 C3874 1.524 . S
C3873 H3876 0.999 . S
C3874 H3844 0.950 . S
C3874 C3873 1.524 . S
C3874 C3875 1.415 . S
C3875 H3845 0.950 . S
C3875 C3870 1.363 . S
C3875 C3874 1.415 . S
H3876 C3873 0.999 . S
H3877 C3858 0.913 . S
H3878 C3896 0.951 . S
H3879 C3898 0.951 . S
H3880 C3900 0.950 . S
H3881 C3901 0.950 . S
H3882 C3903 0.950 . S
H3883 C3906 0.950 . S
H3884 C3907 0.950 . S
H3885 C3909 0.950 . S
H3886 C3910 0.950 . S
H3887 C3911 0.951 . S
H3888 C3913 0.951 . S
H3889 C3915 0.950 . S
H3890 C3916 0.950 . S
H3891 C3918 0.962 . S
H3892 C3921 0.950 . S
H3893 C3922 0.950 . S
H3894 C3924 0.950 . S
H3895 C3925 0.950 . S
C3896 H3878 0.951 . S
C3896 C3897 1.366 1_556 S
C3896 C3898 1.388 . S
C3897 C3896 1.366 1_554 S
C3897 C3901 1.385 . S
C3898 H3879 0.951 . S
C3898 C3896 1.388 . S
C3898 C3899 1.366 1_556 S
C3899 C3898 1.366 1_554 S
C3899 C3900 1.414 . S
C3899 C3902 1.499 . S
C3900 H3880 0.950 . S
C3900 C3899 1.414 . S
C3900 C3901 1.374 . S
C3901 H3881 0.950 . S
C3901 C3897 1.385 . S
C3901 C3900 1.374 . S
C3902 C3899 1.499 . S
C3902 C3903 1.373 . S
C3902 C3904 1.389 . S
C3903 H3882 0.950 . S
C3903 C3902 1.373 . S
C3903 C3919 1.377 . S
C3904 C3902 1.389 . S
C3904 C3905 1.524 . S
C3904 C3918 1.365 1_554 S
C3905 C3904 1.524 . S
C3905 C3906 1.397 . S
C3905 C3910 1.363 1_554 S
C3906 H3883 0.950 . S
C3906 C3905 1.397 . S
C3906 C3907 1.334 . S
C3907 H3884 0.950 . S
C3907 C3906 1.334 . S
C3907 C3908 1.287 . S
C3908 C3907 1.287 . S
C3908 C3909 1.524 1_554 S
C3908 H3927 0.913 . S
C3909 H3885 0.950 . S
C3909 C3908 1.524 1_556 S
C3909 C3910 1.415 . S
C3910 H3886 0.950 . S
C3910 C3905 1.363 1_556 S
C3910 C3909 1.415 . S
C3911 H3887 0.951 . S
C3911 C3912 1.366 1_554 S
C3911 C3913 1.388 . S
C3912 C3911 1.366 1_556 S
C3912 C3916 1.385 . S
C3913 H3888 0.951 . S
C3913 C3911 1.388 . S
C3913 C3914 1.366 1_554 S
C3914 C3913 1.366 1_556 S
C3914 C3915 1.414 . S
C3914 C3917 1.499 . S
C3915 H3889 0.950 . S
C3915 C3914 1.414 . S
C3915 C3916 1.374 . S
C3916 H3890 0.950 . S
C3916 C3912 1.385 . S
C3916 C3915 1.374 . S
C3917 C3914 1.499 . S
C3917 C3918 1.380 . S
C3917 C3919 1.389 1_556 S
C3918 H3891 0.962 . S
C3918 C3904 1.365 1_556 S
C3918 C3917 1.380 . S
C3919 C3903 1.377 . S
C3919 C3917 1.389 1_554 S
C3919 C3920 1.524 1_554 S
C3920 C3919 1.524 1_556 S
C3920 C3921 1.397 . S
C3920 C3925 1.363 1_556 S
C3921 H3892 0.950 . S
C3921 C3920 1.397 . S
C3921 C3922 1.334 . S
C3922 H3893 0.950 . S
C3922 C3921 1.334 . S
C3922 C3923 1.287 . S
C3923 C3922 1.287 . S
C3923 C3924 1.524 1_556 S
C3923 H3926 0.999 . S
C3924 H3894 0.950 . S
C3924 C3923 1.524 1_554 S
C3924 C3925 1.415 . S
C3925 H3895 0.950 . S
C3925 C3920 1.363 1_554 S
C3925 C3924 1.415 . S
H3926 C3923 0.999 . S
H3927 C3908 0.913 . S
H3928 C3946 0.951 . S
H3929 C3948 0.951 . S
H3930 C3950 0.950 . S
H3931 C3951 0.950 . S
H3932 C3953 0.950 . S
H3933 C3956 0.950 . S
H3934 C3957 0.950 . S
H3935 C3959 0.950 . S
H3936 C3960 0.950 . S
H3937 C3961 0.951 . S
H3938 C3963 0.951 . S
H3939 C3965 0.950 . S
H3940 C3966 0.950 . S
H3941 C3968 0.950 . S
H3942 C3971 0.950 . S
H3943 C3972 0.950 . S
H3944 C3974 0.950 . S
H3945 C3975 0.950 . S
C3946 H3928 0.951 . S
C3946 C3947 1.366 . S
C3946 C3948 1.388 . S
C3947 C3946 1.366 . S
C3947 C3951 1.385 . S
C3948 H3929 0.951 . S
C3948 C3946 1.388 . S
C3948 C3949 1.366 . S
C3949 C3948 1.366 . S
C3949 C3950 1.414 . S
C3949 C3952 1.499 . S
C3950 H3930 0.950 . S
C3950 C3949 1.414 . S
C3950 C3951 1.374 . S
C3951 H3931 0.950 . S
C3951 C3947 1.385 . S
C3951 C3950 1.374 . S
C3952 C3949 1.499 . S
C3952 C3953 1.373 . S
C3952 C3954 1.389 . S
C3953 H3932 0.950 . S
C3953 C3952 1.373 . S
C3953 C3969 1.377 . S
C3954 C3952 1.389 . S
C3954 C3955 1.524 . S
C3954 C3968 1.377 . S
C3955 C3954 1.524 . S
C3955 C3956 1.397 . S
C3955 C3960 1.363 . S
C3956 H3933 0.950 . S
C3956 C3955 1.397 . S
C3956 C3957 1.334 . S
C3957 H3934 0.950 . S
C3957 C3956 1.334 . S
C3957 C3958 1.287 . S
C3958 C3957 1.287 . S
C3958 C3959 1.524 . S
C3958 H3977 0.913 . S
C3959 H3935 0.950 . S
C3959 C3958 1.524 . S
C3959 C3960 1.415 . S
C3960 H3936 0.950 . S
C3960 C3955 1.363 . S
C3960 C3959 1.415 . S
C3961 H3937 0.951 . S
C3961 C3962 1.366 . S
C3961 C3963 1.388 . S
C3962 C3961 1.366 . S
C3962 C3966 1.385 . S
C3963 H3938 0.951 . S
C3963 C3961 1.388 . S
C3963 C3964 1.366 . S
C3964 C3963 1.366 . S
C3964 C3965 1.414 . S
C3964 C3967 1.499 . S
C3965 H3939 0.950 . S
C3965 C3964 1.414 . S
C3965 C3966 1.374 . S
C3966 H3940 0.950 . S
C3966 C3962 1.385 . S
C3966 C3965 1.374 . S
C3967 C3964 1.499 . S
C3967 C3968 1.373 . S
C3967 C3969 1.389 . S
C3968 H3941 0.950 . S
C3968 C3954 1.377 . S
C3968 C3967 1.373 . S
C3969 C3953 1.377 . S
C3969 C3967 1.389 . S
C3969 C3970 1.524 . S
C3970 C3969 1.524 . S
C3970 C3971 1.397 . S
C3970 C3975 1.363 . S
C3971 H3942 0.950 . S
C3971 C3970 1.397 . S
C3971 C3972 1.334 . S
C3972 H3943 0.950 . S
C3972 C3971 1.334 . S
C3972 C3973 1.287 . S
C3973 C3972 1.287 . S
C3973 C3974 1.524 . S
C3973 H3976 0.999 . S
C3974 H3944 0.950 . S
C3974 C3973 1.524 . S
C3974 C3975 1.415 . S
C3975 H3945 0.950 . S
C3975 C3970 1.363 . S
C3975 C3974 1.415 . S
H3976 C3973 0.999 . S
H3977 C3958 0.913 . S
H3978 C3996 0.951 . S
H3979 C3998 0.951 . S
H3980 C4000 0.950 . S
H3981 C4001 0.950 . S
H3982 C4003 0.950 . S
H3983 C4006 0.950 . S
H3984 C4007 0.950 . S
H3985 C4009 0.950 . S
H3986 C4010 0.950 . S
H3987 C4011 0.951 . S
H3988 C4013 0.951 . S
H3989 C4015 0.950 . S
H3990 C4016 0.950 . S
H3991 C4018 0.950 . S
H3992 C4021 0.950 . S
H3993 C4022 0.950 . S
H3994 C4024 0.950 . S
H3995 C4025 0.950 . S
C3996 H3978 0.951 . S
C3996 C3997 1.366 . S
C3996 C3998 1.388 . S
C3997 C3996 1.366 . S
C3997 C4001 1.385 1_655 S
C3998 H3979 0.951 . S
C3998 C3996 1.388 . S
C3998 C3999 1.366 . S
C3999 C3998 1.366 . S
C3999 C4000 1.414 1_655 S
C3999 C4002 1.499 . S
C4000 H3980 0.950 . S
C4000 C3999 1.414 1_455 S
C4000 C4001 1.374 . S
C4001 H3981 0.950 . S
C4001 C3997 1.385 1_455 S
C4001 C4000 1.374 . S
C4002 C3999 1.499 . S
C4002 C4003 1.373 1_655 S
C4002 C4004 1.389 . S
C4003 H3982 0.950 . S
C4003 C4002 1.373 1_455 S
C4003 C4019 1.377 . S
C4004 C4002 1.389 . S
C4004 C4005 1.524 . S
C4004 C4018 1.377 . S
C4005 C4004 1.524 . S
C4005 C4006 1.397 . S
C4005 C4010 1.363 . S
C4006 H3983 0.950 . S
C4006 C4005 1.397 . S
C4006 C4007 1.334 . S
C4007 H3984 0.950 . S
C4007 C4006 1.334 . S
C4007 C4008 1.287 . S
C4008 C4007 1.287 . S
C4008 C4009 1.524 . S
C4008 H4027 0.913 . S
C4009 H3985 0.950 . S
C4009 C4008 1.524 . S
C4009 C4010 1.415 . S
C4010 H3986 0.950 . S
C4010 C4005 1.363 . S
C4010 C4009 1.415 . S
C4011 H3987 0.951 . S
C4011 C4012 1.366 . S
C4011 C4013 1.388 . S
C4012 C4011 1.366 . S
C4012 C4016 1.385 1_455 S
C4013 H3988 0.951 . S
C4013 C4011 1.388 . S
C4013 C4014 1.335 1_455 S
C4014 C4013 1.335 1_655 S
C4014 C4015 1.444 . S
C4014 C4017 1.502 . S
C4015 H3989 0.950 . S
C4015 C4014 1.444 . S
C4015 C4016 1.374 . S
C4016 H3990 0.950 . S
C4016 C4012 1.385 1_655 S
C4016 C4015 1.374 . S
C4017 C4014 1.502 . S
C4017 C4018 1.373 . S
C4017 C4019 1.389 1_655 S
C4018 H3991 0.950 . S
C4018 C4004 1.377 . S
C4018 C4017 1.373 . S
C4019 C4003 1.377 . S
C4019 C4017 1.389 1_455 S
C4019 C4020 1.524 . S
C4020 C4019 1.524 . S
C4020 C4021 1.397 . S
C4020 C4025 1.363 . S
C4021 H3992 0.950 . S
C4021 C4020 1.397 . S
C4021 C4022 1.334 . S
C4022 H3993 0.950 . S
C4022 C4021 1.334 . S
C4022 C4023 1.287 . S
C4023 C4022 1.287 . S
C4023 C4024 1.524 . S
C4023 H4026 0.999 . S
C4024 H3994 0.950 . S
C4024 C4023 1.524 . S
C4024 C4025 1.415 . S
C4025 H3995 0.950 . S
C4025 C4020 1.363 . S
C4025 C4024 1.415 . S
H4026 C4023 0.999 . S
H4027 C4008 0.913 . S
H4028 C4046 0.951 . S
H4029 C4048 0.951 . S
H4030 C4050 0.950 . S
H4031 C4051 0.950 . S
H4032 C4053 0.950 . S
H4033 C4056 0.950 . S
H4034 C4057 0.950 . S
H4035 C4059 0.950 . S
H4036 C4060 0.950 . S
H4037 C4061 0.951 . S
H4038 C4063 0.951 . S
H4039 C4065 0.950 . S
H4040 C4066 0.950 . S
H4041 C4068 0.950 . S
H4042 C4071 0.950 . S
H4043 C4072 0.950 . S
H4044 C4074 0.950 . S
H4045 C4075 0.950 . S
C4046 H4028 0.951 . S
C4046 C4047 1.366 . S
C4046 C4048 1.388 . S
C4047 C4046 1.366 . S
C4047 C4051 1.385 . S
C4048 H4029 0.951 . S
C4048 C4046 1.388 . S
C4048 C4049 1.366 . S
C4049 C4048 1.366 . S
C4049 C4050 1.414 . S
C4049 C4052 1.499 . S
C4050 H4030 0.950 . S
C4050 C4049 1.414 . S
C4050 C4051 1.374 . S
C4051 H4031 0.950 . S
C4051 C4047 1.385 . S
C4051 C4050 1.374 . S
C4052 C4049 1.499 . S
C4052 C4053 1.373 . S
C4052 C4054 1.389 . S
C4053 H4032 0.950 . S
C4053 C4052 1.373 . S
C4053 C4069 1.377 . S
C4054 C4052 1.389 . S
C4054 C4055 1.524 . S
C4054 C4068 1.377 . S
C4055 C4054 1.524 . S
C4055 C4056 1.397 . S
C4055 C4060 1.363 . S
C4056 H4033 0.950 . S
C4056 C4055 1.397 . S
C4056 C4057 1.334 . S
C4057 H4034 0.950 . S
C4057 C4056 1.334 . S
C4057 C4058 1.287 . S
C4058 C4057 1.287 . S
C4058 C4059 1.524 . S
C4058 H4077 0.913 . S
C4059 H4035 0.950 . S
C4059 C4058 1.524 . S
C4059 C4060 1.415 . S
C4060 H4036 0.950 . S
C4060 C4055 1.363 . S
C4060 C4059 1.415 . S
C4061 H4037 0.951 . S
C4061 C4062 1.366 . S
C4061 C4063 1.388 . S
C4062 C4061 1.366 . S
C4062 C4066 1.385 . S
C4063 H4038 0.951 . S
C4063 C4061 1.388 . S
C4063 C4064 1.366 . S
C4064 C4063 1.366 . S
C4064 C4065 1.414 . S
C4064 C4067 1.499 . S
C4065 H4039 0.950 . S
C4065 C4064 1.414 . S
C4065 C4066 1.374 . S
C4066 H4040 0.950 . S
C4066 C4062 1.385 . S
C4066 C4065 1.374 . S
C4067 C4064 1.499 . S
C4067 C4068 1.373 . S
C4067 C4069 1.389 . S
C4068 H4041 0.950 . S
C4068 C4054 1.377 . S
C4068 C4067 1.373 . S
C4069 C4053 1.377 . S
C4069 C4067 1.389 . S
C4069 C4070 1.524 . S
C4070 C4069 1.524 . S
C4070 C4071 1.397 . S
C4070 C4075 1.363 . S
C4071 H4042 0.950 . S
C4071 C4070 1.397 . S
C4071 C4072 1.334 . S
C4072 H4043 0.950 . S
C4072 C4071 1.334 . S
C4072 C4073 1.287 . S
C4073 C4072 1.287 . S
C4073 C4074 1.524 . S
C4073 H4076 0.999 . S
C4074 H4044 0.950 . S
C4074 C4073 1.524 . S
C4074 C4075 1.415 . S
C4075 H4045 0.950 . S
C4075 C4070 1.363 . S
C4075 C4074 1.415 . S
H4076 C4073 0.999 . S
H4077 C4058 0.913 . S
H4078 C4096 0.951 . S
H4079 C4098 0.951 . S
H4080 C4100 0.950 . S
H4081 C4101 0.950 . S
H4082 C4103 0.950 . S
H4083 C4106 0.950 . S
H4084 C4107 0.950 . S
H4085 C4109 0.950 . S
H4086 C4110 0.950 . S
H4087 C4111 0.951 . S
H4088 C4113 0.951 . S
H4089 C4115 0.950 . S
H4090 C4116 0.950 . S
H4091 C4118 0.950 . S
H4092 C4121 0.950 . S
H4093 C4122 0.950 . S
H4094 C4124 0.950 . S
H4095 C4125 0.950 . S
C4096 H4078 0.951 . S
C4096 C4097 1.366 . S
C4096 C4098 1.388 . S
C4097 C4096 1.366 . S
C4097 C4101 1.385 1_455 S
C4098 H4079 0.951 . S
C4098 C4096 1.388 . S
C4098 C4099 1.366 . S
C4099 C4098 1.366 . S
C4099 C4100 1.414 1_455 S
C4099 C4102 1.499 . S
C4100 H4080 0.950 . S
C4100 C4099 1.414 1_655 S
C4100 C4101 1.374 . S
C4101 H4081 0.950 . S
C4101 C4097 1.385 1_655 S
C4101 C4100 1.374 . S
C4102 C4099 1.499 . S
C4102 C4103 1.373 1_455 S
C4102 C4104 1.389 . S
C4103 H4082 0.950 . S
C4103 C4102 1.373 1_655 S
C4103 C4119 1.377 . S
C4104 C4102 1.389 . S
C4104 C4105 1.524 . S
C4104 C4118 1.377 . S
C4105 C4104 1.524 . S
C4105 C4106 1.397 . S
C4105 C4110 1.363 . S
C4106 H4083 0.950 . S
C4106 C4105 1.397 . S
C4106 C4107 1.334 . S
C4107 H4084 0.950 . S
C4107 C4106 1.334 . S
C4107 C4108 1.287 . S
C4108 C4107 1.287 . S
C4108 C4109 1.524 . S
C4108 H4127 0.913 . S
C4109 H4085 0.950 . S
C4109 C4108 1.524 . S
C4109 C4110 1.415 . S
C4110 H4086 0.950 . S
C4110 C4105 1.363 . S
C4110 C4109 1.415 . S
C4111 H4087 0.951 . S
C4111 C4112 1.366 . S
C4111 C4113 1.388 . S
C4112 C4111 1.366 . S
C4112 C4116 1.385 1_655 S
C4113 H4088 0.951 . S
C4113 C4111 1.388 . S
C4113 C4114 1.366 . S
C4114 C4113 1.366 . S
C4114 C4115 1.414 1_655 S
C4114 C4117 1.501 . S
C4115 H4089 0.950 . S
C4115 C4114 1.414 1_455 S
C4115 C4116 1.374 . S
C4116 H4090 0.950 . S
C4116 C4112 1.385 1_455 S
C4116 C4115 1.374 . S
C4117 C4114 1.501 . S
C4117 C4118 1.362 1_655 S
C4117 C4119 1.399 . S
C4118 H4091 0.950 . S
C4118 C4104 1.377 . S
C4118 C4117 1.362 1_455 S
C4119 C4103 1.377 . S
C4119 C4117 1.399 . S
C4119 C4120 1.524 . S
C4120 C4119 1.524 . S
C4120 C4121 1.397 . S
C4120 C4125 1.363 . S
C4121 H4092 0.950 . S
C4121 C4120 1.397 . S
C4121 C4122 1.334 . S
C4122 H4093 0.950 . S
C4122 C4121 1.334 . S
C4122 C4123 1.287 . S
C4123 C4122 1.287 . S
C4123 C4124 1.524 . S
C4123 H4126 0.999 . S
C4124 H4094 0.950 . S
C4124 C4123 1.524 . S
C4124 C4125 1.415 . S
C4125 H4095 0.950 . S
C4125 C4120 1.363 . S
C4125 C4124 1.415 . S
H4126 C4123 0.999 . S
H4127 C4108 0.913 . S
H4128 C4146 0.951 . S
H4129 C4148 0.951 . S
H4130 C4150 0.950 . S
H4131 C4151 0.950 . S
H4132 C4153 0.950 . S
H4133 C4156 0.950 . S
H4134 C4157 0.950 . S
H4135 C4159 0.950 . S
H4136 C4160 0.950 . S
H4137 C4161 0.951 . S
H4138 C4163 0.951 . S
H4139 C4165 0.950 . S
H4140 C4166 0.950 . S
H4141 C4168 0.950 . S
H4142 C4171 0.950 . S
H4143 C4172 0.950 . S
H4144 C4174 0.950 . S
H4145 C4175 0.950 . S
C4146 H4128 0.951 . S
C4146 C4147 1.366 . S
C4146 C4148 1.388 . S
C4147 C4146 1.366 . S
C4147 C4151 1.385 . S
C4148 H4129 0.951 . S
C4148 C4146 1.388 . S
C4148 C4149 1.366 . S
C4149 C4148 1.366 . S
C4149 C4150 1.414 . S
C4149 C4152 1.499 . S
C4150 H4130 0.950 . S
C4150 C4149 1.414 . S
C4150 C4151 1.374 . S
C4151 H4131 0.950 . S
C4151 C4147 1.385 . S
C4151 C4150 1.374 . S
C4152 C4149 1.499 . S
C4152 C4153 1.373 . S
C4152 C4154 1.389 . S
C4153 H4132 0.950 . S
C4153 C4152 1.373 . S
C4153 C4169 1.377 . S
C4154 C4152 1.389 . S
C4154 C4155 1.524 . S
C4154 C4168 1.377 . S
C4155 C4154 1.524 . S
C4155 C4156 1.397 . S
C4155 C4160 1.363 . S
C4156 H4133 0.950 . S
C4156 C4155 1.397 . S
C4156 C4157 1.334 . S
C4157 H4134 0.950 . S
C4157 C4156 1.334 . S
C4157 C4158 1.287 . S
C4158 C4157 1.287 . S
C4158 C4159 1.524 . S
C4158 H4177 0.913 . S
C4159 H4135 0.950 . S
C4159 C4158 1.524 . S
C4159 C4160 1.415 . S
C4160 H4136 0.950 . S
C4160 C4155 1.363 . S
C4160 C4159 1.415 . S
C4161 H4137 0.951 . S
C4161 C4162 1.366 . S
C4161 C4163 1.388 . S
C4162 C4161 1.366 . S
C4162 C4166 1.385 . S
C4163 H4138 0.951 . S
C4163 C4161 1.388 . S
C4163 C4164 1.366 . S
C4164 C4163 1.366 . S
C4164 C4165 1.414 . S
C4164 C4167 1.499 . S
C4165 H4139 0.950 . S
C4165 C4164 1.414 . S
C4165 C4166 1.374 . S
C4166 H4140 0.950 . S
C4166 C4162 1.385 . S
C4166 C4165 1.374 . S
C4167 C4164 1.499 . S
C4167 C4168 1.373 . S
C4167 C4169 1.389 . S
C4168 H4141 0.950 . S
C4168 C4154 1.377 . S
C4168 C4167 1.373 . S
C4169 C4153 1.377 . S
C4169 C4167 1.389 . S
C4169 C4170 1.524 . S
C4170 C4169 1.524 . S
C4170 C4171 1.397 . S
C4170 C4175 1.363 . S
C4171 H4142 0.950 . S
C4171 C4170 1.397 . S
C4171 C4172 1.334 . S
C4172 H4143 0.950 . S
C4172 C4171 1.334 . S
C4172 C4173 1.287 . S
C4173 C4172 1.287 . S
C4173 C4174 1.524 . S
C4173 H4176 0.999 . S
C4174 H4144 0.950 . S
C4174 C4173 1.524 . S
C4174 C4175 1.415 . S
C4175 H4145 0.950 . S
C4175 C4170 1.363 . S
C4175 C4174 1.415 . S
H4176 C4173 0.999 . S
H4177 C4158 0.913 . S
H4178 C4196 0.951 . S
H4179 C4198 0.951 . S
H4180 C4200 0.950 . S
H4181 C4201 0.950 . S
H4182 C4203 0.950 . S
H4183 C4206 0.950 . S
H4184 C4207 0.950 . S
H4185 C4209 0.950 . S
H4186 C4210 0.950 . S
H4187 C4211 0.951 . S
H4188 C4213 0.951 . S
H4189 C4215 0.950 . S
H4190 C4216 0.950 . S
H4191 C4218 0.950 . S
H4192 C4221 0.950 . S
H4193 C4222 0.950 . S
H4194 C4224 0.950 . S
H4195 C4225 0.950 . S
C4196 H4178 0.951 . S
C4196 C4197 1.366 . S
C4196 C4198 1.388 . S
C4197 C4196 1.366 . S
C4197 C4201 1.385 . S
C4198 H4179 0.951 . S
C4198 C4196 1.388 . S
C4198 C4199 1.366 . S
C4199 C4198 1.366 . S
C4199 C4200 1.414 . S
C4199 C4202 1.499 . S
C4200 H4180 0.950 . S
C4200 C4199 1.414 . S
C4200 C4201 1.374 . S
C4201 H4181 0.950 . S
C4201 C4197 1.385 . S
C4201 C4200 1.374 . S
C4202 C4199 1.499 . S
C4202 C4203 1.373 . S
C4202 C4204 1.389 . S
C4203 H4182 0.950 . S
C4203 C4202 1.373 . S
C4203 C4219 1.377 . S
C4204 C4202 1.389 . S
C4204 C4205 1.524 . S
C4204 C4218 1.377 . S
C4205 C4204 1.524 . S
C4205 C4206 1.397 . S
C4205 C4210 1.363 . S
C4206 H4183 0.950 . S
C4206 C4205 1.397 . S
C4206 C4207 1.334 . S
C4207 H4184 0.950 . S
C4207 C4206 1.334 . S
C4207 C4208 1.287 . S
C4208 C4207 1.287 . S
C4208 C4209 1.524 . S
C4208 H4227 0.913 . S
C4209 H4185 0.950 . S
C4209 C4208 1.524 . S
C4209 C4210 1.415 . S
C4210 H4186 0.950 . S
C4210 C4205 1.363 . S
C4210 C4209 1.415 . S
C4211 H4187 0.951 . S
C4211 C4212 1.366 . S
C4211 C4213 1.388 . S
C4212 C4211 1.366 . S
C4212 C4216 1.385 . S
C4213 H4188 0.951 . S
C4213 C4211 1.388 . S
C4213 C4214 1.366 . S
C4214 C4213 1.366 . S
C4214 C4215 1.414 . S
C4214 C4217 1.499 . S
C4215 H4189 0.950 . S
C4215 C4214 1.414 . S
C4215 C4216 1.374 . S
C4216 H4190 0.950 . S
C4216 C4212 1.385 . S
C4216 C4215 1.374 . S
C4217 C4214 1.499 . S
C4217 C4218 1.373 . S
C4217 C4219 1.389 . S
C4218 H4191 0.950 . S
C4218 C4204 1.377 . S
C4218 C4217 1.373 . S
C4219 C4203 1.377 . S
C4219 C4217 1.389 . S
C4219 C4220 1.524 . S
C4220 C4219 1.524 . S
C4220 C4221 1.397 . S
C4220 C4225 1.363 . S
C4221 H4192 0.950 . S
C4221 C4220 1.397 . S
C4221 C4222 1.334 . S
C4222 H4193 0.950 . S
C4222 C4221 1.334 . S
C4222 C4223 1.287 . S
C4223 C4222 1.287 . S
C4223 C4224 1.524 . S
C4223 H4226 0.999 . S
C4224 H4194 0.950 . S
C4224 C4223 1.524 . S
C4224 C4225 1.415 . S
C4225 H4195 0.950 . S
C4225 C4220 1.363 . S
C4225 C4224 1.415 . S
H4226 C4223 0.999 . S
H4227 C4208 0.913 . S
H4228 C4246 0.951 . S
H4229 C4248 0.951 . S
H4230 C4250 0.950 . S
H4231 C4251 0.950 . S
H4232 C4253 0.950 . S
H4233 C4256 0.950 . S
H4234 C4257 0.950 . S
H4235 C4259 0.950 . S
H4236 C4260 0.950 . S
H4237 C4261 0.951 . S
H4238 C4263 0.951 . S
H4239 C4265 0.950 . S
H4240 C4266 0.950 . S
H4241 C4268 0.950 . S
H4242 C4271 0.950 . S
H4243 C4272 0.950 . S
H4244 C4274 0.950 . S
H4245 C4275 0.950 1_545 S
C4246 H4228 0.951 . S
C4246 C4247 1.366 . S
C4246 C4248 1.388 . S
C4247 C4246 1.366 . S
C4247 C4251 1.385 . S
C4248 H4229 0.951 . S
C4248 C4246 1.388 . S
C4248 C4249 1.366 . S
C4249 C4248 1.366 . S
C4249 C4250 1.414 . S
C4249 C4252 1.499 . S
C4250 H4230 0.950 . S
C4250 C4249 1.414 . S
C4250 C4251 1.374 . S
C4251 H4231 0.950 . S
C4251 C4247 1.385 . S
C4251 C4250 1.374 . S
C4252 C4249 1.499 . S
C4252 C4253 1.373 . S
C4252 C4254 1.389 . S
C4253 H4232 0.950 . S
C4253 C4252 1.373 . S
C4253 C4269 1.377 . S
C4254 C4252 1.389 . S
C4254 C4255 1.524 . S
C4254 C4268 1.377 . S
C4255 C4254 1.524 . S
C4255 C4256 1.397 . S
C4255 C4260 1.363 . S
C4256 H4233 0.950 . S
C4256 C4255 1.397 . S
C4256 C4257 1.334 . S
C4257 H4234 0.950 . S
C4257 C4256 1.334 . S
C4257 C4258 1.287 . S
C4258 C4257 1.287 . S
C4258 C4259 1.524 . S
C4258 H4277 0.913 . S
C4259 H4235 0.950 . S
C4259 C4258 1.524 . S
C4259 C4260 1.415 . S
C4260 H4236 0.950 . S
C4260 C4255 1.363 . S
C4260 C4259 1.415 . S
C4261 H4237 0.951 . S
C4261 C4262 1.366 . S
C4261 C4263 1.388 . S
C4262 C4261 1.366 . S
C4262 C4266 1.385 . S
C4263 H4238 0.951 . S
C4263 C4261 1.388 . S
C4263 C4264 1.366 . S
C4264 C4263 1.366 . S
C4264 C4265 1.414 . S
C4264 C4267 1.499 . S
C4265 H4239 0.950 . S
C4265 C4264 1.414 . S
C4265 C4266 1.374 . S
C4266 H4240 0.950 . S
C4266 C4262 1.385 . S
C4266 C4265 1.374 . S
C4267 C4264 1.499 . S
C4267 C4268 1.373 . S
C4267 C4269 1.389 . S
C4268 H4241 0.950 . S
C4268 C4254 1.377 . S
C4268 C4267 1.373 . S
C4269 C4253 1.377 . S
C4269 C4267 1.389 . S
C4269 C4270 1.495 1_545 S
C4270 C4269 1.495 1_565 S
C4270 C4271 1.426 . S
C4270 C4275 1.367 . S
C4271 H4242 0.950 . S
C4271 C4270 1.426 . S
C4271 C4272 1.334 . S
C4272 H4243 0.950 . S
C4272 C4271 1.334 . S
C4272 C4273 1.287 . S
C4273 C4272 1.287 . S
C4273 C4274 1.524 . S
C4273 H4276 0.999 . S
C4274 H4244 0.950 . S
C4274 C4273 1.524 . S
C4274 C4275 1.415 . S
C4275 H4245 0.950 1_565 S
C4275 C4270 1.367 . S
C4275 C4274 1.415 . S
H4276 C4273 0.999 . S
H4277 C4258 0.913 . S
H4278 C4296 0.951 . S
H4279 C4298 0.951 . S
H4280 C4300 0.950 . S
H4281 C4301 0.950 . S
H4282 C4303 0.950 . S
H4283 C4306 0.950 . S
H4284 C4307 0.950 . S
H4285 C4309 0.950 . S
H4286 C4310 0.950 1_565 S
H4287 C4311 0.951 . S
H4288 C4313 0.951 . S
H4289 C4315 0.927 1_565 S
H4290 C4316 0.950 1_565 S
H4291 C4318 0.950 . S
H4292 C4321 0.950 . S
H4293 C4322 0.950 . S
H4294 C4324 0.950 . S
H4295 C4325 0.950 . S
C4296 H4278 0.951 . S
C4296 C4297 1.366 1_565 S
C4296 C4298 1.388 . S
C4297 C4296 1.366 1_545 S
C4297 C4301 1.385 . S
C4298 H4279 0.951 . S
C4298 C4296 1.388 . S
C4298 C4299 1.366 1_565 S
C4299 C4298 1.366 1_545 S
C4299 C4300 1.414 . S
C4299 C4302 1.499 . S
C4300 H4280 0.950 . S
C4300 C4299 1.414 . S
C4300 C4301 1.374 . S
C4301 H4281 0.950 . S
C4301 C4297 1.385 . S
C4301 C4300 1.374 . S
C4302 C4299 1.499 . S
C4302 C4303 1.373 . S
C4302 C4304 1.389 . S
C4303 H4282 0.950 . S
C4303 C4302 1.373 . S
C4303 C4319 1.377 . S
C4304 C4302 1.389 . S
C4304 C4305 1.524 . S
C4304 C4318 1.377 . S
C4305 C4304 1.524 . S
C4305 C4306 1.397 . S
C4305 C4310 1.363 . S
C4306 H4283 0.950 . S
C4306 C4305 1.397 . S
C4306 C4307 1.334 . S
C4307 H4284 0.950 . S
C4307 C4306 1.334 . S
C4307 C4308 1.287 . S
C4308 C4307 1.287 . S
C4308 C4309 1.524 . S
C4308 H4327 0.913 . S
C4309 H4285 0.950 . S
C4309 C4308 1.524 . S
C4309 C4310 1.415 . S
C4310 H4286 0.950 1_545 S
C4310 C4305 1.363 . S
C4310 C4309 1.415 . S
C4311 H4287 0.951 . S
C4311 C4312 1.366 . S
C4311 C4313 1.388 . S
C4312 C4311 1.366 . S
C4312 C4316 1.385 . S
C4313 H4288 0.951 . S
C4313 C4311 1.388 . S
C4313 C4314 1.366 . S
C4314 C4313 1.366 . S
C4314 C4315 1.434 . S
C4314 C4317 1.499 . S
C4315 H4289 0.927 1_545 S
C4315 C4314 1.434 . S
C4315 C4316 1.379 . S
C4316 H4290 0.950 1_545 S
C4316 C4312 1.385 . S
C4316 C4315 1.379 . S
C4317 C4314 1.499 . S
C4317 C4318 1.373 . S
C4317 C4319 1.389 . S
C4318 H4291 0.950 . S
C4318 C4304 1.377 . S
C4318 C4317 1.373 . S
C4319 C4303 1.377 . S
C4319 C4317 1.389 . S
C4319 C4320 1.524 . S
C4320 C4319 1.524 . S
C4320 C4321 1.397 1_545 S
C4320 C4325 1.363 . S
C4321 H4292 0.950 . S
C4321 C4320 1.397 1_565 S
C4321 C4322 1.334 . S
C4322 H4293 0.950 . S
C4322 C4321 1.334 . S
C4322 C4323 1.287 . S
C4323 C4322 1.287 . S
C4323 C4324 1.524 1_565 S
C4323 H4326 0.999 . S
C4324 H4294 0.950 . S
C4324 C4323 1.524 1_545 S
C4324 C4325 1.415 . S
C4325 H4295 0.950 . S
C4325 C4320 1.363 . S
C4325 C4324 1.415 . S
H4326 C4323 0.999 . S
H4327 C4308 0.913 . S
H4328 C4346 0.951 . S
H4329 C4348 0.951 . S
H4330 C4350 0.950 . S
H4331 C4351 0.950 . S
H4332 C4353 0.950 . S
H4333 C4356 0.950 . S
H4334 C4357 0.950 . S
H4335 C4359 0.950 . S
H4336 C4360 0.950 . S
H4337 C4361 0.951 . S
H4338 C4363 0.951 . S
H4339 C4365 0.950 . S
H4340 C4366 0.950 . S
H4341 C4368 0.950 . S
H4342 C4371 0.950 . S
H4343 C4372 0.950 . S
H4344 C4374 0.950 . S
H4345 C4375 0.950 . S
C4346 H4328 0.951 . S
C4346 C4347 1.366 . S
C4346 C4348 1.388 . S
C4347 C4346 1.366 . S
C4347 C4351 1.385 . S
C4348 H4329 0.951 . S
C4348 C4346 1.388 . S
C4348 C4349 1.366 . S
C4349 C4348 1.366 . S
C4349 C4350 1.414 . S
C4349 C4352 1.499 . S
C4350 H4330 0.950 . S
C4350 C4349 1.414 . S
C4350 C4351 1.374 . S
C4351 H4331 0.950 . S
C4351 C4347 1.385 . S
C4351 C4350 1.374 . S
C4352 C4349 1.499 . S
C4352 C4353 1.373 . S
C4352 C4354 1.389 . S
C4353 H4332 0.950 . S
C4353 C4352 1.373 . S
C4353 C4369 1.377 . S
C4354 C4352 1.389 . S
C4354 C4355 1.524 . S
C4354 C4368 1.377 . S
C4355 C4354 1.524 . S
C4355 C4356 1.397 . S
C4355 C4360 1.363 . S
C4356 H4333 0.950 . S
C4356 C4355 1.397 . S
C4356 C4357 1.334 . S
C4357 H4334 0.950 . S
C4357 C4356 1.334 . S
C4357 C4358 1.287 . S
C4358 C4357 1.287 . S
C4358 C4359 1.524 . S
C4358 H4377 0.913 . S
C4359 H4335 0.950 . S
C4359 C4358 1.524 . S
C4359 C4360 1.415 . S
C4360 H4336 0.950 . S
C4360 C4355 1.363 . S
C4360 C4359 1.415 . S
C4361 H4337 0.951 . S
C4361 C4362 1.366 . S
C4361 C4363 1.388 . S
C4362 C4361 1.366 . S
C4362 C4366 1.385 . S
C4363 H4338 0.951 . S
C4363 C4361 1.388 . S
C4363 C4364 1.366 . S
C4364 C4363 1.366 . S
C4364 C4365 1.414 . S
C4364 C4367 1.499 . S
C4365 H4339 0.950 . S
C4365 C4364 1.414 . S
C4365 C4366 1.374 . S
C4366 H4340 0.950 . S
C4366 C4362 1.385 . S
C4366 C4365 1.374 . S
C4367 C4364 1.499 . S
C4367 C4368 1.373 . S
C4367 C4369 1.389 . S
C4368 H4341 0.950 . S
C4368 C4354 1.377 . S
C4368 C4367 1.373 . S
C4369 C4353 1.377 . S
C4369 C4367 1.389 . S
C4369 C4370 1.524 . S
C4370 C4369 1.524 . S
C4370 C4371 1.397 . S
C4370 C4375 1.363 . S
C4371 H4342 0.950 . S
C4371 C4370 1.397 . S
C4371 C4372 1.334 . S
C4372 H4343 0.950 . S
C4372 C4371 1.334 . S
C4372 C4373 1.287 . S
C4373 C4372 1.287 . S
C4373 C4374 1.524 . S
C4373 H4376 0.999 . S
C4374 H4344 0.950 . S
C4374 C4373 1.524 . S
C4374 C4375 1.415 . S
C4375 H4345 0.950 . S
C4375 C4370 1.363 . S
C4375 C4374 1.415 . S
H4376 C4373 0.999 . S
H4377 C4358 0.913 . S
H4378 C4396 0.933 1_556 S
H4379 C4398 0.953 . S
H4380 C4400 0.950 . S
H4381 C4401 0.950 . S
H4382 C4403 0.956 . S
H4383 C4406 0.950 . S
H4384 C4407 0.950 . S
H4385 C4409 0.950 . S
H4386 C4410 0.950 . S
H4387 C4411 0.951 . S
H4388 C4413 0.951 . S
H4389 C4415 0.950 . S
H4390 C4416 0.950 . S
H4391 C4418 0.950 . S
H4392 C4421 0.950 . S
H4393 C4422 0.950 . S
H4394 C4424 0.950 . S
H4395 C4425 0.950 . S
C4396 H4378 0.933 1_554 S
C4396 C4397 1.380 . S
C4396 C4398 1.399 . S
C4397 C4396 1.380 . S
C4397 C4401 1.385 . S
C4398 H4379 0.953 . S
C4398 C4396 1.399 . S
C4398 C4399 1.366 . S
C4399 C4398 1.366 . S
C4399 C4400 1.414 . S
C4399 C4402 1.499 . S
C4400 H4380 0.950 . S
C4400 C4399 1.414 . S
C4400 C4401 1.374 . S
C4401 H4381 0.950 . S
C4401 C4397 1.385 . S
C4401 C4400 1.374 . S
C4402 C4399 1.499 . S
C4402 C4403 1.368 1_554 S
C4402 C4404 1.389 . S
C4403 H4382 0.956 . S
C4403 C4402 1.368 1_556 S
C4403 C4419 1.377 . S
C4404 C4402 1.389 . S
C4404 C4405 1.524 . S
C4404 C4418 1.377 . S
C4405 C4404 1.524 . S
C4405 C4406 1.397 . S
C4405 C4410 1.363 . S
C4406 H4383 0.950 . S
C4406 C4405 1.397 . S
C4406 C4407 1.334 . S
C4407 H4384 0.950 . S
C4407 C4406 1.334 . S
C4407 C4408 1.287 . S
C4408 C4407 1.287 . S
C4408 C4409 1.524 . S
C4408 H4427 0.913 . S
C4409 H4385 0.950 . S
C4409 C4408 1.524 . S
C4409 C4410 1.415 . S
C4410 H4386 0.950 . S
C4410 C4405 1.363 . S
C4410 C4409 1.415 . S
C4411 H4387 0.951 . S
C4411 C4412 1.366 . S
C4411 C4413 1.388 . S
C4412 C4411 1.366 . S
C4412 C4416 1.385 . S
C4413 H4388 0.951 . S
C4413 C4411 1.388 . S
C4413 C4414 1.366 . S
C4414 C4413 1.366 . S
C4414 C4415 1.414 . S
C4414 C4417 1.499 . S
C4415 H4389 0.950 . S
C4415 C4414 1.414 . S
C4415 C4416 1.374 . S
C4416 H4390 0.950 . S
C4416 C4412 1.385 . S
C4416 C4415 1.374 . S
C4417 C4414 1.499 . S
C4417 C4418 1.373 . S
C4417 C4419 1.376 1_554 S
C4418 H4391 0.950 . S
C4418 C4404 1.377 . S
C4418 C4417 1.373 . S
C4419 C4403 1.377 . S
C4419 C4417 1.376 1_556 S
C4419 C4420 1.539 . S
C4420 C4419 1.539 . S
C4420 C4421 1.397 . S
C4420 C4425 1.363 . S
C4421 H4392 0.950 . S
C4421 C4420 1.397 . S
C4421 C4422 1.334 . S
C4422 H4393 0.950 . S
C4422 C4421 1.334 . S
C4422 C4423 1.287 . S
C4423 C4422 1.287 . S
C4423 C4424 1.524 . S
C4423 H4426 0.999 . S
C4424 H4394 0.950 . S
C4424 C4423 1.524 . S
C4424 C4425 1.415 . S
C4425 H4395 0.950 . S
C4425 C4420 1.363 . S
C4425 C4424 1.415 . S
H4426 C4423 0.999 . S
H4427 C4408 0.913 . S
H4428 C4446 0.951 . S
H4429 C4448 0.951 . S
H4430 C4450 0.950 . S
H4431 C4451 0.950 . S
H4432 C4453 0.950 . S
H4433 C4456 0.950 . S
H4434 C4457 0.950 . S
H4435 C4459 0.950 . S
H4436 C4460 0.950 . S
H4437 C4461 0.951 . S
H4438 C4463 0.951 . S
H4439 C4465 0.950 . S
H4440 C4466 0.950 . S
H4441 C4468 0.950 . S
H4442 C4471 0.950 . S
H4443 C4472 0.950 . S
H4444 C4474 0.950 . S
H4445 C4475 0.950 . S
C4446 H4428 0.951 . S
C4446 C4447 1.366 . S
C4446 C4448 1.388 . S
C4447 C4446 1.366 . S
C4447 C4451 1.385 . S
C4448 H4429 0.951 . S
C4448 C4446 1.388 . S
C4448 C4449 1.366 . S
C4449 C4448 1.366 . S
C4449 C4450 1.414 . S
C4449 C4452 1.499 . S
C4450 H4430 0.950 . S
C4450 C4449 1.414 . S
C4450 C4451 1.374 . S
C4451 H4431 0.950 . S
C4451 C4447 1.385 . S
C4451 C4450 1.374 . S
C4452 C4449 1.499 . S
C4452 C4453 1.373 . S
C4452 C4454 1.389 . S
C4453 H4432 0.950 . S
C4453 C4452 1.373 . S
C4453 C4469 1.377 . S
C4454 C4452 1.389 . S
C4454 C4455 1.524 . S
C4454 C4468 1.377 . S
C4455 C4454 1.524 . S
C4455 C4456 1.397 . S
C4455 C4460 1.363 . S
C4456 H4433 0.950 . S
C4456 C4455 1.397 . S
C4456 C4457 1.334 . S
C4457 H4434 0.950 . S
C4457 C4456 1.334 . S
C4457 C4458 1.287 . S
C4458 C4457 1.287 . S
C4458 C4459 1.524 . S
C4458 H4477 0.913 . S
C4459 H4435 0.950 . S
C4459 C4458 1.524 . S
C4459 C4460 1.415 . S
C4460 H4436 0.950 . S
C4460 C4455 1.363 . S
C4460 C4459 1.415 . S
C4461 H4437 0.951 . S
C4461 C4462 1.366 . S
C4461 C4463 1.388 . S
C4462 C4461 1.366 . S
C4462 C4466 1.385 . S
C4463 H4438 0.951 . S
C4463 C4461 1.388 . S
C4463 C4464 1.366 . S
C4464 C4463 1.366 . S
C4464 C4465 1.414 . S
C4464 C4467 1.499 . S
C4465 H4439 0.950 . S
C4465 C4464 1.414 . S
C4465 C4466 1.374 . S
C4466 H4440 0.950 . S
C4466 C4462 1.385 . S
C4466 C4465 1.374 . S
C4467 C4464 1.499 . S
C4467 C4468 1.373 . S
C4467 C4469 1.389 . S
C4468 H4441 0.950 . S
C4468 C4454 1.377 . S
C4468 C4467 1.373 . S
C4469 C4453 1.377 . S
C4469 C4467 1.389 . S
C4469 C4470 1.524 . S
C4470 C4469 1.524 . S
C4470 C4471 1.397 . S
C4470 C4475 1.363 . S
C4471 H4442 0.950 . S
C4471 C4470 1.397 . S
C4471 C4472 1.334 . S
C4472 H4443 0.950 . S
C4472 C4471 1.334 . S
C4472 C4473 1.287 . S
C4473 C4472 1.287 . S
C4473 C4474 1.524 . S
C4473 H4476 0.999 . S
C4474 H4444 0.950 . S
C4474 C4473 1.524 . S
C4474 C4475 1.415 . S
C4475 H4445 0.950 . S
C4475 C4470 1.363 . S
C4475 C4474 1.415 . S
H4476 C4473 0.999 . S
H4477 C4458 0.913 . S
H4478 C4496 0.951 . S
H4479 C4498 0.951 . S
H4480 C4500 0.950 . S
H4481 C4501 0.950 . S
H4482 C4503 0.950 . S
H4483 C4506 0.950 . S
H4484 C4507 0.950 . S
H4485 C4509 0.950 . S
H4486 C4510 0.950 . S
H4487 C4511 0.951 . S
H4488 C4513 0.951 . S
H4489 C4515 0.950 . S
H4490 C4516 0.950 . S
H4491 C4518 0.909 1_556 S
H4492 C4521 0.950 . S
H4493 C4522 0.950 . S
H4494 C4524 0.950 . S
H4495 C4525 0.950 . S
C4496 H4478 0.951 . S
C4496 C4497 1.366 . S
C4496 C4498 1.388 . S
C4497 C4496 1.366 . S
C4497 C4501 1.385 . S
C4498 H4479 0.951 . S
C4498 C4496 1.388 . S
C4498 C4499 1.366 . S
C4499 C4498 1.366 . S
C4499 C4500 1.414 . S
C4499 C4502 1.499 . S
C4500 H4480 0.950 . S
C4500 C4499 1.414 . S
C4500 C4501 1.374 . S
C4501 H4481 0.950 . S
C4501 C4497 1.385 . S
C4501 C4500 1.374 . S
C4502 C4499 1.499 . S
C4502 C4503 1.373 . S
C4502 C4504 1.389 . S
C4503 H4482 0.950 . S
C4503 C4502 1.373 . S
C4503 C4519 1.377 . S
C4504 C4502 1.389 . S
C4504 C4505 1.524 1_554 S
C4504 C4518 1.377 . S
C4505 C4504 1.524 1_556 S
C4505 C4506 1.397 . S
C4505 C4510 1.363 . S
C4506 H4483 0.950 . S
C4506 C4505 1.397 . S
C4506 C4507 1.334 . S
C4507 H4484 0.950 . S
C4507 C4506 1.334 . S
C4507 C4508 1.287 . S
C4508 C4507 1.287 . S
C4508 C4509 1.524 . S
C4508 H4527 0.913 . S
C4509 H4485 0.950 . S
C4509 C4508 1.524 . S
C4509 C4510 1.415 . S
C4510 H4486 0.950 . S
C4510 C4505 1.363 . S
C4510 C4509 1.415 . S
C4511 H4487 0.951 . S
C4511 C4512 1.366 . S
C4511 C4513 1.388 . S
C4512 C4511 1.366 . S
C4512 C4516 1.385 . S
C4513 H4488 0.951 . S
C4513 C4511 1.388 . S
C4513 C4514 1.366 . S
C4514 C4513 1.366 . S
C4514 C4515 1.414 . S
C4514 C4517 1.499 . S
C4515 H4489 0.950 . S
C4515 C4514 1.414 . S
C4515 C4516 1.374 . S
C4516 H4490 0.950 . S
C4516 C4512 1.385 . S
C4516 C4515 1.374 . S
C4517 C4514 1.499 . S
C4517 C4518 1.373 . S
C4517 C4519 1.389 . S
C4518 H4491 0.909 1_554 S
C4518 C4504 1.377 . S
C4518 C4517 1.373 . S
C4519 C4503 1.377 . S
C4519 C4517 1.389 . S
C4519 C4520 1.524 . S
C4520 C4519 1.524 . S
C4520 C4521 1.397 . S
C4520 C4525 1.363 . S
C4521 H4492 0.950 . S
C4521 C4520 1.397 . S
C4521 C4522 1.334 . S
C4522 H4493 0.950 . S
C4522 C4521 1.334 . S
C4522 C4523 1.287 . S
C4523 C4522 1.287 . S
C4523 C4524 1.524 . S
C4523 H4526 0.999 . S
C4524 H4494 0.950 . S
C4524 C4523 1.524 . S
C4524 C4525 1.415 . S
C4525 H4495 0.950 . S
C4525 C4520 1.363 . S
C4525 C4524 1.415 . S
H4526 C4523 0.999 . S
H4527 C4508 0.913 . S
H4528 C4546 0.951 . S
H4529 C4548 0.951 . S
H4530 C4550 0.950 . S
H4531 C4551 0.950 . S
H4532 C4553 0.950 . S
H4533 C4556 0.950 . S
H4534 C4557 0.950 . S
H4535 C4559 0.950 . S
H4536 C4560 0.950 . S
H4537 C4561 0.951 . S
H4538 C4563 0.951 . S
H4539 C4565 0.950 . S
H4540 C4566 0.950 . S
H4541 C4568 0.950 . S
H4542 C4571 0.950 . S
H4543 C4572 0.950 . S
H4544 C4574 0.950 . S
H4545 C4575 0.950 . S
C4546 H4528 0.951 . S
C4546 C4547 1.366 . S
C4546 C4548 1.388 . S
C4547 C4546 1.366 . S
C4547 C4551 1.385 . S
C4548 H4529 0.951 . S
C4548 C4546 1.388 . S
C4548 C4549 1.366 . S
C4549 C4548 1.366 . S
C4549 C4550 1.414 . S
C4549 C4552 1.499 . S
C4550 H4530 0.950 . S
C4550 C4549 1.414 . S
C4550 C4551 1.374 . S
C4551 H4531 0.950 . S
C4551 C4547 1.385 . S
C4551 C4550 1.374 . S
C4552 C4549 1.499 . S
C4552 C4553 1.373 . S
C4552 C4554 1.389 . S
C4553 H4532 0.950 . S
C4553 C4552 1.373 . S
C4553 C4569 1.377 . S
C4554 C4552 1.389 . S
C4554 C4555 1.524 . S
C4554 C4568 1.377 . S
C4555 C4554 1.524 . S
C4555 C4556 1.397 . S
C4555 C4560 1.363 . S
C4556 H4533 0.950 . S
C4556 C4555 1.397 . S
C4556 C4557 1.334 . S
C4557 H4534 0.950 . S
C4557 C4556 1.334 . S
C4557 C4558 1.287 . S
C4558 C4557 1.287 . S
C4558 C4559 1.524 . S
C4558 H4577 0.913 . S
C4559 H4535 0.950 . S
C4559 C4558 1.524 . S
C4559 C4560 1.415 . S
C4560 H4536 0.950 . S
C4560 C4555 1.363 . S
C4560 C4559 1.415 . S
C4561 H4537 0.951 . S
C4561 C4562 1.366 . S
C4561 C4563 1.388 . S
C4562 C4561 1.366 . S
C4562 C4566 1.385 . S
C4563 H4538 0.951 . S
C4563 C4561 1.388 . S
C4563 C4564 1.366 . S
C4564 C4563 1.366 . S
C4564 C4565 1.414 . S
C4564 C4567 1.499 . S
C4565 H4539 0.950 . S
C4565 C4564 1.414 . S
C4565 C4566 1.374 . S
C4566 H4540 0.950 . S
C4566 C4562 1.385 . S
C4566 C4565 1.374 . S
C4567 C4564 1.499 . S
C4567 C4568 1.373 . S
C4567 C4569 1.389 . S
C4568 H4541 0.950 . S
C4568 C4554 1.377 . S
C4568 C4567 1.373 . S
C4569 C4553 1.377 . S
C4569 C4567 1.389 . S
C4569 C4570 1.524 . S
C4570 C4569 1.524 . S
C4570 C4571 1.397 . S
C4570 C4575 1.363 . S
C4571 H4542 0.950 . S
C4571 C4570 1.397 . S
C4571 C4572 1.334 . S
C4572 H4543 0.950 . S
C4572 C4571 1.334 . S
C4572 C4573 1.287 . S
C4573 C4572 1.287 . S
C4573 C4574 1.524 . S
C4573 H4576 0.999 . S
C4574 H4544 0.950 . S
C4574 C4573 1.524 . S
C4574 C4575 1.415 . S
C4575 H4545 0.950 . S
C4575 C4570 1.363 . S
C4575 C4574 1.415 . S
H4576 C4573 0.999 . S
H4577 C4558 0.913 . S
H4578 C4596 0.951 . S
H4579 C4598 0.951 . S
H4580 C4600 0.960 . S
H4581 C4601 0.946 1_655 S
H4582 C4603 0.950 . S
H4583 C4606 0.950 . S
H4584 C4607 0.950 . S
H4585 C4609 0.950 . S
H4586 C4610 0.950 . S
H4587 C4611 0.951 . S
H4588 C4613 0.951 . S
H4589 C4615 0.950 . S
H4590 C4616 0.950 . S
H4591 C4618 0.950 . S
H4592 C4621 0.950 . S
H4593 C4622 0.950 . S
H4594 C4624 0.950 . S
H4595 C4625 0.950 . S
C4596 H4578 0.951 . S
C4596 C4597 1.366 . S
C4596 C4598 1.388 . S
C4597 C4596 1.366 . S
C4597 C4601 1.385 . S
C4598 H4579 0.951 . S
C4598 C4596 1.388 . S
C4598 C4599 1.366 . S
C4599 C4598 1.366 . S
C4599 C4600 1.414 . S
C4599 C4602 1.499 . S
C4600 H4580 0.960 . S
C4600 C4599 1.414 . S
C4600 C4601 1.374 . S
C4601 H4581 0.946 1_455 S
C4601 C4597 1.385 . S
C4601 C4600 1.374 . S
C4602 C4599 1.499 . S
C4602 C4603 1.373 . S
C4602 C4604 1.389 1_455 S
C4603 H4582 0.950 . S
C4603 C4602 1.373 . S
C4603 C4619 1.377 . S
C4604 C4602 1.389 1_655 S
C4604 C4605 1.524 . S
C4604 C4618 1.376 . S
C4605 C4604 1.524 . S
C4605 C4606 1.397 . S
C4605 C4610 1.363 . S
C4606 H4583 0.950 . S
C4606 C4605 1.397 . S
C4606 C4607 1.334 . S
C4607 H4584 0.950 . S
C4607 C4606 1.334 . S
C4607 C4608 1.287 . S
C4608 C4607 1.287 . S
C4608 C4609 1.524 . S
C4608 H4627 0.913 . S
C4609 H4585 0.950 . S
C4609 C4608 1.524 . S
C4609 C4610 1.415 . S
C4610 H4586 0.950 . S
C4610 C4605 1.363 . S
C4610 C4609 1.415 . S
C4611 H4587 0.951 . S
C4611 C4612 1.366 . S
C4611 C4613 1.388 . S
C4612 C4611 1.366 . S
C4612 C4616 1.385 . S
C4613 H4588 0.951 . S
C4613 C4611 1.388 . S
C4613 C4614 1.366 . S
C4614 C4613 1.366 . S
C4614 C4615 1.414 . S
C4614 C4617 1.499 . S
C4615 H4589 0.950 . S
C4615 C4614 1.414 . S
C4615 C4616 1.374 . S
C4616 H4590 0.950 . S
C4616 C4612 1.385 . S
C4616 C4615 1.374 . S
C4617 C4614 1.499 . S
C4617 C4618 1.374 1_455 S
C4617 C4619 1.389 . S
C4618 H4591 0.950 . S
C4618 C4604 1.376 . S
C4618 C4617 1.374 1_655 S
C4619 C4603 1.377 . S
C4619 C4617 1.389 . S
C4619 C4620 1.524 . S
C4620 C4619 1.524 . S
C4620 C4621 1.397 . S
C4620 C4625 1.363 . S
C4621 H4592 0.950 . S
C4621 C4620 1.397 . S
C4621 C4622 1.334 . S
C4622 H4593 0.950 . S
C4622 C4621 1.334 . S
C4622 C4623 1.287 . S
C4623 C4622 1.287 . S
C4623 C4624 1.524 . S
C4623 H4626 0.999 . S
C4624 H4594 0.950 . S
C4624 C4623 1.524 . S
C4624 C4625 1.415 . S
C4625 H4595 0.950 . S
C4625 C4620 1.363 . S
C4625 C4624 1.415 . S
H4626 C4623 0.999 . S
H4627 C4608 0.913 . S
H4628 C4646 0.951 . S
H4629 C4648 0.951 . S
H4630 C4650 0.950 . S
H4631 C4651 0.950 . S
H4632 C4653 0.950 . S
H4633 C4656 0.950 . S
H4634 C4657 0.950 . S
H4635 C4659 0.950 . S
H4636 C4660 0.950 . S
H4637 C4661 0.951 . S
H4638 C4663 0.951 . S
H4639 C4665 0.950 . S
H4640 C4666 0.950 . S
H4641 C4668 0.950 . S
H4642 C4671 0.950 . S
H4643 C4672 0.950 . S
H4644 C4674 0.950 . S
H4645 C4675 0.950 . S
C4646 H4628 0.951 . S
C4646 C4647 1.366 . S
C4646 C4648 1.388 . S
C4647 C4646 1.366 . S
C4647 C4651 1.385 . S
C4648 H4629 0.951 . S
C4648 C4646 1.388 . S
C4648 C4649 1.366 . S
C4649 C4648 1.366 . S
C4649 C4650 1.414 . S
C4649 C4652 1.499 . S
C4650 H4630 0.950 . S
C4650 C4649 1.414 . S
C4650 C4651 1.374 . S
C4651 H4631 0.950 . S
C4651 C4647 1.385 . S
C4651 C4650 1.374 . S
C4652 C4649 1.499 . S
C4652 C4653 1.373 . S
C4652 C4654 1.389 . S
C4653 H4632 0.950 . S
C4653 C4652 1.373 . S
C4653 C4669 1.377 . S
C4654 C4652 1.389 . S
C4654 C4655 1.524 . S
C4654 C4668 1.377 . S
C4655 C4654 1.524 . S
C4655 C4656 1.397 . S
C4655 C4660 1.363 . S
C4656 H4633 0.950 . S
C4656 C4655 1.397 . S
C4656 C4657 1.334 . S
C4657 H4634 0.950 . S
C4657 C4656 1.334 . S
C4657 C4658 1.287 . S
C4658 C4657 1.287 . S
C4658 C4659 1.524 . S
C4658 H4677 0.913 . S
C4659 H4635 0.950 . S
C4659 C4658 1.524 . S
C4659 C4660 1.415 . S
C4660 H4636 0.950 . S
C4660 C4655 1.363 . S
C4660 C4659 1.415 . S
C4661 H4637 0.951 . S
C4661 C4662 1.366 . S
C4661 C4663 1.388 . S
C4662 C4661 1.366 . S
C4662 C4666 1.385 . S
C4663 H4638 0.951 . S
C4663 C4661 1.388 . S
C4663 C4664 1.366 . S
C4664 C4663 1.366 . S
C4664 C4665 1.414 . S
C4664 C4667 1.499 . S
C4665 H4639 0.950 . S
C4665 C4664 1.414 . S
C4665 C4666 1.374 . S
C4666 H4640 0.950 . S
C4666 C4662 1.385 . S
C4666 C4665 1.374 . S
C4667 C4664 1.499 . S
C4667 C4668 1.373 . S
C4667 C4669 1.389 . S
C4668 H4641 0.950 . S
C4668 C4654 1.377 . S
C4668 C4667 1.373 . S
C4669 C4653 1.377 . S
C4669 C4667 1.389 . S
C4669 C4670 1.524 . S
C4670 C4669 1.524 . S
C4670 C4671 1.397 . S
C4670 C4675 1.363 . S
C4671 H4642 0.950 . S
C4671 C4670 1.397 . S
C4671 C4672 1.334 . S
C4672 H4643 0.950 . S
C4672 C4671 1.334 . S
C4672 C4673 1.287 . S
C4673 C4672 1.287 . S
C4673 C4674 1.524 . S
C4673 H4676 0.999 . S
C4674 H4644 0.950 . S
C4674 C4673 1.524 . S
C4674 C4675 1.415 . S
C4675 H4645 0.950 . S
C4675 C4670 1.363 . S
C4675 C4674 1.415 . S
H4676 C4673 0.999 . S
H4677 C4658 0.913 . S
H4678 C4696 0.951 1_655 S
H4679 C4698 0.951 1_655 S
H4680 C4700 0.950 . S
H4681 C4701 0.950 . S
H4682 C4703 0.950 . S
H4683 C4706 0.926 1_455 S
H4684 C4707 0.950 . S
H4685 C4709 0.950 . S
H4686 C4710 0.950 . S
H4687 C4711 0.951 . S
H4688 C4713 0.951 . S
H4689 C4715 0.950 . S
H4690 C4716 0.950 . S
H4691 C4718 0.909 1_655 S
H4692 C4721 0.950 . S
H4693 C4722 0.950 . S
H4694 C4724 0.950 . S
H4695 C4725 0.950 . S
C4696 H4678 0.951 1_455 S
C4696 C4697 1.366 . S
C4696 C4698 1.388 . S
C4697 C4696 1.366 . S
C4697 C4701 1.385 . S
C4698 H4679 0.951 1_455 S
C4698 C4696 1.388 . S
C4698 C4699 1.366 . S
C4699 C4698 1.366 . S
C4699 C4700 1.414 . S
C4699 C4702 1.499 . S
C4700 H4680 0.950 . S
C4700 C4699 1.414 . S
C4700 C4701 1.374 . S
C4701 H4681 0.950 . S
C4701 C4697 1.385 . S
C4701 C4700 1.374 . S
C4702 C4699 1.499 . S
C4702 C4703 1.373 . S
C4702 C4704 1.389 . S
C4703 H4682 0.950 . S
C4703 C4702 1.373 . S
C4703 C4719 1.377 . S
C4704 C4702 1.389 . S
C4704 C4705 1.524 1_455 S
C4704 C4718 1.377 . S
C4705 C4704 1.524 1_655 S
C4705 C4706 1.397 . S
C4705 C4710 1.363 . S
C4706 H4683 0.926 1_655 S
C4706 C4705 1.397 . S
C4706 C4707 1.334 . S
C4707 H4684 0.950 . S
C4707 C4706 1.334 . S
C4707 C4708 1.287 . S
C4708 C4707 1.287 . S
C4708 C4709 1.524 . S
C4708 H4727 0.913 . S
C4709 H4685 0.950 . S
C4709 C4708 1.524 . S
C4709 C4710 1.415 . S
C4710 H4686 0.950 . S
C4710 C4705 1.363 . S
C4710 C4709 1.415 . S
C4711 H4687 0.951 . S
C4711 C4712 1.366 . S
C4711 C4713 1.388 . S
C4712 C4711 1.366 . S
C4712 C4716 1.385 . S
C4713 H4688 0.951 . S
C4713 C4711 1.388 . S
C4713 C4714 1.366 . S
C4714 C4713 1.366 . S
C4714 C4715 1.414 . S
C4714 C4717 1.499 . S
C4715 H4689 0.950 . S
C4715 C4714 1.414 . S
C4715 C4716 1.374 . S
C4716 H4690 0.950 . S
C4716 C4712 1.385 . S
C4716 C4715 1.374 . S
C4717 C4714 1.499 . S
C4717 C4718 1.373 . S
C4717 C4719 1.389 . S
C4718 H4691 0.909 1_455 S
C4718 C4704 1.377 . S
C4718 C4717 1.373 . S
C4719 C4703 1.377 . S
C4719 C4717 1.389 . S
C4719 C4720 1.524 . S
C4720 C4719 1.524 . S
C4720 C4721 1.397 . S
C4720 C4725 1.363 . S
C4721 H4692 0.950 . S
C4721 C4720 1.397 . S
C4721 C4722 1.334 . S
C4722 H4693 0.950 . S
C4722 C4721 1.334 . S
C4722 C4723 1.287 . S
C4723 C4722 1.287 . S
C4723 C4724 1.524 . S
C4723 H4726 0.999 . S
C4724 H4694 0.950 . S
C4724 C4723 1.524 . S
C4724 C4725 1.415 . S
C4725 H4695 0.950 . S
C4725 C4720 1.363 . S
C4725 C4724 1.415 . S
H4726 C4723 0.999 . S
H4727 C4708 0.913 . S
H4728 C4746 0.951 . S
H4729 C4748 0.951 . S
H4730 C4750 0.950 . S
H4731 C4751 0.950 . S
H4732 C4753 0.950 . S
H4733 C4756 0.950 . S
H4734 C4757 0.950 . S
H4735 C4759 0.950 . S
H4736 C4760 0.950 . S
H4737 C4761 0.951 . S
H4738 C4763 0.951 . S
H4739 C4765 0.950 . S
H4740 C4766 0.950 . S
H4741 C4768 0.950 . S
H4742 C4771 0.950 . S
H4743 C4772 0.950 . S
H4744 C4774 0.950 . S
H4745 C4775 0.950 . S
C4746 H4728 0.951 . S
C4746 C4747 1.366 . S
C4746 C4748 1.388 . S
C4747 C4746 1.366 . S
C4747 C4751 1.385 . S
C4748 H4729 0.951 . S
C4748 C4746 1.388 . S
C4748 C4749 1.366 . S
C4749 C4748 1.366 . S
C4749 C4750 1.414 . S
C4749 C4752 1.499 . S
C4750 H4730 0.950 . S
C4750 C4749 1.414 . S
C4750 C4751 1.374 . S
C4751 H4731 0.950 . S
C4751 C4747 1.385 . S
C4751 C4750 1.374 . S
C4752 C4749 1.499 . S
C4752 C4753 1.373 . S
C4752 C4754 1.389 . S
C4753 H4732 0.950 . S
C4753 C4752 1.373 . S
C4753 C4769 1.377 . S
C4754 C4752 1.389 . S
C4754 C4755 1.524 . S
C4754 C4768 1.377 . S
C4755 C4754 1.524 . S
C4755 C4756 1.397 . S
C4755 C4760 1.363 . S
C4756 H4733 0.950 . S
C4756 C4755 1.397 . S
C4756 C4757 1.334 . S
C4757 H4734 0.950 . S
C4757 C4756 1.334 . S
C4757 C4758 1.287 . S
C4758 C4757 1.287 . S
C4758 C4759 1.524 . S
C4758 H4777 0.913 . S
C4759 H4735 0.950 . S
C4759 C4758 1.524 . S
C4759 C4760 1.415 . S
C4760 H4736 0.950 . S
C4760 C4755 1.363 . S
C4760 C4759 1.415 . S
C4761 H4737 0.951 . S
C4761 C4762 1.366 . S
C4761 C4763 1.388 . S
C4762 C4761 1.366 . S
C4762 C4766 1.385 . S
C4763 H4738 0.951 . S
C4763 C4761 1.388 . S
C4763 C4764 1.366 . S
C4764 C4763 1.366 . S
C4764 C4765 1.414 . S
C4764 C4767 1.499 . S
C4765 H4739 0.950 . S
C4765 C4764 1.414 . S
C4765 C4766 1.374 . S
C4766 H4740 0.950 . S
C4766 C4762 1.385 . S
C4766 C4765 1.374 . S
C4767 C4764 1.499 . S
C4767 C4768 1.373 . S
C4767 C4769 1.389 . S
C4768 H4741 0.950 . S
C4768 C4754 1.377 . S
C4768 C4767 1.373 . S
C4769 C4753 1.377 . S
C4769 C4767 1.389 . S
C4769 C4770 1.524 . S
C4770 C4769 1.524 . S
C4770 C4771 1.397 . S
C4770 C4775 1.363 . S
C4771 H4742 0.950 . S
C4771 C4770 1.397 . S
C4771 C4772 1.334 . S
C4772 H4743 0.950 . S
C4772 C4771 1.334 . S
C4772 C4773 1.287 . S
C4773 C4772 1.287 . S
C4773 C4774 1.524 . S
C4773 H4776 0.999 . S
C4774 H4744 0.950 . S
C4774 C4773 1.524 . S
C4774 C4775 1.415 . S
C4775 H4745 0.950 . S
C4775 C4770 1.363 . S
C4775 C4774 1.415 . S
H4776 C4773 0.999 . S
H4777 C4758 0.913 . S
H4778 C4796 0.951 . S
H4779 C4798 0.951 . S
H4780 C4800 0.950 . S
H4781 C4801 0.950 . S
H4782 C4803 0.950 . S
H4783 C4806 0.950 . S
H4784 C4807 0.950 . S
H4785 C4809 0.950 . S
H4786 C4810 0.950 . S
H4787 C4811 0.951 . S
H4788 C4813 0.951 . S
H4789 C4815 0.950 . S
H4790 C4816 0.950 . S
H4791 C4818 0.950 . S
H4792 C4821 0.950 . S
H4793 C4822 0.950 . S
H4794 C4824 0.950 . S
H4795 C4825 0.950 . S
C4796 H4778 0.951 . S
C4796 C4797 1.366 . S
C4796 C4798 1.388 . S
C4797 C4796 1.366 . S
C4797 C4801 1.385 . S
C4798 H4779 0.951 . S
C4798 C4796 1.388 . S
C4798 C4799 1.366 . S
C4799 C4798 1.366 . S
C4799 C4800 1.414 . S
C4799 C4802 1.499 . S
C4800 H4780 0.950 . S
C4800 C4799 1.414 . S
C4800 C4801 1.374 . S
C4801 H4781 0.950 . S
C4801 C4797 1.385 . S
C4801 C4800 1.374 . S
C4802 C4799 1.499 . S
C4802 C4803 1.373 . S
C4802 C4804 1.389 . S
C4803 H4782 0.950 . S
C4803 C4802 1.373 . S
C4803 C4819 1.377 . S
C4804 C4802 1.389 . S
C4804 C4805 1.524 . S
C4804 C4818 1.377 . S
C4805 C4804 1.524 . S
C4805 C4806 1.397 . S
C4805 C4810 1.363 . S
C4806 H4783 0.950 . S
C4806 C4805 1.397 . S
C4806 C4807 1.334 . S
C4807 H4784 0.950 . S
C4807 C4806 1.334 . S
C4807 C4808 1.287 . S
C4808 C4807 1.287 . S
C4808 C4809 1.524 . S
C4808 H4827 0.913 . S
C4809 H4785 0.950 . S
C4809 C4808 1.524 . S
C4809 C4810 1.415 . S
C4810 H4786 0.950 . S
C4810 C4805 1.363 . S
C4810 C4809 1.415 . S
C4811 H4787 0.951 . S
C4811 C4812 1.366 . S
C4811 C4813 1.388 . S
C4812 C4811 1.366 . S
C4812 C4816 1.385 . S
C4813 H4788 0.951 . S
C4813 C4811 1.388 . S
C4813 C4814 1.366 . S
C4814 C4813 1.366 . S
C4814 C4815 1.414 . S
C4814 C4817 1.499 . S
C4815 H4789 0.950 . S
C4815 C4814 1.414 . S
C4815 C4816 1.374 . S
C4816 H4790 0.950 . S
C4816 C4812 1.385 . S
C4816 C4815 1.374 . S
C4817 C4814 1.499 . S
C4817 C4818 1.373 . S
C4817 C4819 1.389 . S
C4818 H4791 0.950 . S
C4818 C4804 1.377 . S
C4818 C4817 1.373 . S
C4819 C4803 1.377 . S
C4819 C4817 1.389 . S
C4819 C4820 1.524 . S
C4820 C4819 1.524 . S
C4820 C4821 1.397 . S
C4820 C4825 1.363 . S
C4821 H4792 0.950 . S
C4821 C4820 1.397 . S
C4821 C4822 1.334 . S
C4822 H4793 0.950 . S
C4822 C4821 1.334 . S
C4822 C4823 1.287 . S
C4823 C4822 1.287 . S
C4823 C4824 1.524 . S
C4823 H4826 0.999 . S
C4824 H4794 0.950 . S
C4824 C4823 1.524 . S
C4824 C4825 1.415 . S
C4825 H4795 0.950 . S
C4825 C4820 1.363 . S
C4825 C4824 1.415 . S
H4826 C4823 0.999 . S
H4827 C4808 0.913 . S
H4828 C4846 0.915 1_545 S
H4829 C4848 0.951 1_545 S
H4830 C4850 0.950 . S
H4831 C4851 0.950 . S
H4832 C4853 0.950 . S
H4833 C4856 0.950 1_565 S
H4834 C4857 0.950 . S
H4835 C4859 0.950 . S
H4836 C4860 0.950 . S
H4837 C4861 0.951 . S
H4838 C4863 0.951 . S
H4839 C4865 0.950 . S
H4840 C4866 0.950 . S
H4841 C4868 1.005 . S
H4842 C4871 0.950 . S
H4843 C4872 0.950 . S
H4844 C4874 0.950 . S
H4845 C4875 0.950 . S
C4846 H4828 0.915 1_565 S
C4846 C4847 1.399 . S
C4846 C4848 1.392 . S
C4847 C4846 1.399 . S
C4847 C4851 1.385 . S
C4848 H4829 0.951 1_565 S
C4848 C4846 1.392 . S
C4848 C4849 1.366 . S
C4849 C4848 1.366 . S
C4849 C4850 1.414 . S
C4849 C4852 1.499 . S
C4850 H4830 0.950 . S
C4850 C4849 1.414 . S
C4850 C4851 1.374 . S
C4851 H4831 0.950 . S
C4851 C4847 1.385 . S
C4851 C4850 1.374 . S
C4852 C4849 1.499 . S
C4852 C4853 1.373 . S
C4852 C4854 1.389 . S
C4853 H4832 0.950 . S
C4853 C4852 1.373 . S
C4853 C4869 1.377 . S
C4854 C4852 1.389 . S
C4854 C4855 1.524 1_565 S
C4854 C4868 1.377 . S
C4855 C4854 1.524 1_545 S
C4855 C4856 1.397 . S
C4855 C4860 1.363 . S
C4856 H4833 0.950 1_545 S
C4856 C4855 1.397 . S
C4856 C4857 1.334 . S
C4857 H4834 0.950 . S
C4857 C4856 1.334 . S
C4857 C4858 1.287 . S
C4858 C4857 1.287 . S
C4858 C4859 1.524 . S
C4858 H4877 0.913 . S
C4859 H4835 0.950 . S
C4859 C4858 1.524 . S
C4859 C4860 1.415 . S
C4860 H4836 0.950 . S
C4860 C4855 1.363 . S
C4860 C4859 1.415 . S
C4861 H4837 0.951 . S
C4861 C4862 1.366 . S
C4861 C4863 1.388 . S
C4862 C4861 1.366 . S
C4862 C4866 1.385 . S
C4863 H4838 0.951 . S
C4863 C4861 1.388 . S
C4863 C4864 1.366 . S
C4864 C4863 1.366 . S
C4864 C4865 1.414 . S
C4864 C4867 1.499 . S
C4865 H4839 0.950 . S
C4865 C4864 1.414 . S
C4865 C4866 1.374 . S
C4866 H4840 0.950 . S
C4866 C4862 1.385 . S
C4866 C4865 1.374 . S
C4867 C4864 1.499 . S
C4867 C4868 1.373 . S
C4867 C4869 1.389 . S
C4868 H4841 1.005 . S
C4868 C4854 1.377 . S
C4868 C4867 1.373 . S
C4869 C4853 1.377 . S
C4869 C4867 1.389 . S
C4869 C4870 1.524 . S
C4870 C4869 1.524 . S
C4870 C4871 1.397 . S
C4870 C4875 1.363 . S
C4871 H4842 0.950 . S
C4871 C4870 1.397 . S
C4871 C4872 1.334 . S
C4872 H4843 0.950 . S
C4872 C4871 1.334 . S
C4872 C4873 1.287 . S
C4873 C4872 1.287 . S
C4873 C4874 1.524 . S
C4873 H4876 0.999 . S
C4874 H4844 0.950 . S
C4874 C4873 1.524 . S
C4874 C4875 1.415 . S
C4875 H4845 0.950 . S
C4875 C4870 1.363 . S
C4875 C4874 1.415 . S
H4876 C4873 0.999 . S
H4877 C4858 0.913 . S
H4878 C4896 0.953 . S
H4879 C4898 0.951 1_545 S
H4880 C4900 0.950 . S
H4881 C4901 0.950 . S
H4882 C4903 0.925 1_545 S
H4883 C4906 0.950 . S
H4884 C4907 0.950 . S
H4885 C4909 0.950 . S
H4886 C4910 0.950 . S
H4887 C4911 0.951 . S
H4888 C4913 0.951 . S
H4889 C4915 0.950 . S
H4890 C4916 0.950 . S
H4891 C4918 0.950 . S
H4892 C4921 0.950 . S
H4893 C4922 0.950 . S
H4894 C4924 0.950 . S
H4895 C4925 0.950 1_565 S
C4896 H4878 0.953 . S
C4896 C4897 1.364 1_545 S
C4896 C4898 1.387 1_545 S
C4897 C4896 1.364 1_565 S
C4897 C4901 1.385 . S
C4898 H4879 0.951 1_565 S
C4898 C4896 1.387 1_565 S
C4898 C4899 1.366 . S
C4899 C4898 1.366 . S
C4899 C4900 1.414 . S
C4899 C4902 1.499 . S
C4900 H4880 0.950 . S
C4900 C4899 1.414 . S
C4900 C4901 1.374 . S
C4901 H4881 0.950 . S
C4901 C4897 1.385 . S
C4901 C4900 1.374 . S
C4902 C4899 1.499 . S
C4902 C4903 1.401 . S
C4902 C4904 1.389 . S
C4903 H4882 0.925 1_565 S
C4903 C4902 1.401 . S
C4903 C4919 1.377 . S
C4904 C4902 1.389 . S
C4904 C4905 1.524 . S
C4904 C4918 1.377 . S
C4905 C4904 1.524 . S
C4905 C4906 1.397 . S
C4905 C4910 1.363 . S
C4906 H4883 0.950 . S
C4906 C4905 1.397 . S
C4906 C4907 1.334 . S
C4907 H4884 0.950 . S
C4907 C4906 1.334 . S
C4907 C4908 1.287 . S
C4908 C4907 1.287 . S
C4908 C4909 1.524 . S
C4908 H4927 0.913 . S
C4909 H4885 0.950 . S
C4909 C4908 1.524 . S
C4909 C4910 1.415 . S
C4910 H4886 0.950 . S
C4910 C4905 1.363 . S
C4910 C4909 1.415 . S
C4911 H4887 0.951 . S
C4911 C4912 1.366 . S
C4911 C4913 1.388 . S
C4912 C4911 1.366 . S
C4912 C4916 1.385 . S
C4913 H4888 0.951 . S
C4913 C4911 1.388 . S
C4913 C4914 1.366 . S
C4914 C4913 1.366 . S
C4914 C4915 1.414 . S
C4914 C4917 1.499 . S
C4915 H4889 0.950 . S
C4915 C4914 1.414 . S
C4915 C4916 1.374 . S
C4916 H4890 0.950 . S
C4916 C4912 1.385 . S
C4916 C4915 1.374 . S
C4917 C4914 1.499 . S
C4917 C4918 1.373 . S
C4917 C4919 1.410 . S
C4918 H4891 0.950 . S
C4918 C4904 1.377 . S
C4918 C4917 1.373 . S
C4919 C4903 1.377 . S
C4919 C4917 1.410 . S
C4919 C4920 1.502 1_565 S
C4920 C4919 1.502 1_545 S
C4920 C4921 1.397 . S
C4920 C4925 1.363 . S
C4921 H4892 0.950 . S
C4921 C4920 1.397 . S
C4921 C4922 1.334 . S
C4922 H4893 0.950 . S
C4922 C4921 1.334 . S
C4922 C4923 1.287 . S
C4923 C4922 1.287 . S
C4923 C4924 1.524 . S
C4923 H4926 0.999 . S
C4924 H4894 0.950 . S
C4924 C4923 1.524 . S
C4924 C4925 1.415 . S
C4925 H4895 0.950 1_545 S
C4925 C4920 1.363 . S
C4925 C4924 1.415 . S
H4926 C4923 0.999 . S
H4927 C4908 0.913 . S
H4928 C4946 0.951 . S
H4929 C4948 0.951 . S
H4930 C4950 0.950 . S
H4931 C4951 0.950 . S
H4932 C4953 0.950 . S
H4933 C4956 0.950 . S
H4934 C4957 0.950 . S
H4935 C4959 0.950 . S
H4936 C4960 0.950 . S
H4937 C4961 0.951 . S
H4938 C4963 0.951 . S
H4939 C4965 0.950 . S
H4940 C4966 0.950 . S
H4941 C4968 0.950 . S
H4942 C4971 0.950 . S
H4943 C4972 0.950 . S
H4944 C4974 0.950 . S
H4945 C4975 0.950 . S
C4946 H4928 0.951 . S
C4946 C4947 1.366 . S
C4946 C4948 1.388 . S
C4947 C4946 1.366 . S
C4947 C4951 1.385 . S
C4948 H4929 0.951 . S
C4948 C4946 1.388 . S
C4948 C4949 1.366 . S
C4949 C4948 1.366 . S
C4949 C4950 1.414 . S
C4949 C4952 1.499 . S
C4950 H4930 0.950 . S
C4950 C4949 1.414 . S
C4950 C4951 1.374 . S
C4951 H4931 0.950 . S
C4951 C4947 1.385 . S
C4951 C4950 1.374 . S
C4952 C4949 1.499 . S
C4952 C4953 1.373 . S
C4952 C4954 1.389 . S
C4953 H4932 0.950 . S
C4953 C4952 1.373 . S
C4953 C4969 1.377 . S
C4954 C4952 1.389 . S
C4954 C4955 1.524 . S
C4954 C4968 1.377 . S
C4955 C4954 1.524 . S
C4955 C4956 1.397 . S
C4955 C4960 1.363 . S
C4956 H4933 0.950 . S
C4956 C4955 1.397 . S
C4956 C4957 1.334 . S
C4957 H4934 0.950 . S
C4957 C4956 1.334 . S
C4957 C4958 1.287 . S
C4958 C4957 1.287 . S
C4958 C4959 1.524 . S
C4958 H4977 0.913 . S
C4959 H4935 0.950 . S
C4959 C4958 1.524 . S
C4959 C4960 1.415 . S
C4960 H4936 0.950 . S
C4960 C4955 1.363 . S
C4960 C4959 1.415 . S
C4961 H4937 0.951 . S
C4961 C4962 1.366 . S
C4961 C4963 1.388 . S
C4962 C4961 1.366 . S
C4962 C4966 1.385 . S
C4963 H4938 0.951 . S
C4963 C4961 1.388 . S
C4963 C4964 1.366 . S
C4964 C4963 1.366 . S
C4964 C4965 1.414 . S
C4964 C4967 1.499 . S
C4965 H4939 0.950 . S
C4965 C4964 1.414 . S
C4965 C4966 1.374 . S
C4966 H4940 0.950 . S
C4966 C4962 1.385 . S
C4966 C4965 1.374 . S
C4967 C4964 1.499 . S
C4967 C4968 1.373 . S
C4967 C4969 1.389 . S
C4968 H4941 0.950 . S
C4968 C4954 1.377 . S
C4968 C4967 1.373 . S
C4969 C4953 1.377 . S
C4969 C4967 1.389 . S
C4969 C4970 1.524 . S
C4970 C4969 1.524 . S
C4970 C4971 1.397 . S
C4970 C4975 1.363 . S
C4971 H4942 0.950 . S
C4971 C4970 1.397 . S
C4971 C4972 1.334 . S
C4972 H4943 0.950 . S
C4972 C4971 1.334 . S
C4972 C4973 1.287 . S
C4973 C4972 1.287 . S
C4973 C4974 1.524 . S
C4973 H4976 0.999 . S
C4974 H4944 0.950 . S
C4974 C4973 1.524 . S
C4974 C4975 1.415 . S
C4975 H4945 0.950 . S
C4975 C4970 1.363 . S
C4975 C4974 1.415 . S
H4976 C4973 0.999 . S
H4977 C4958 0.913 . S
H4978 C4996 0.951 . S
H4979 C4998 0.951 . S
H4980 C5000 0.950 . S
H4981 C5001 0.950 . S
H4982 C5003 0.950 . S
H4983 C5006 0.950 . S
H4984 C5007 0.950 . S
H4985 C5009 0.950 . S
H4986 C5010 0.950 . S
H4987 C5011 0.951 . S
H4988 C5013 0.951 . S
H4989 C5015 0.950 . S
H4990 C5016 0.950 . S
H4991 C5018 0.950 . S
H4992 C5021 0.950 . S
H4993 C5022 0.950 . S
H4994 C5024 0.950 . S
H4995 C5025 0.950 . S
C4996 H4978 0.951 . S
C4996 C4997 1.366 . S
C4996 C4998 1.388 . S
C4997 C4996 1.366 . S
C4997 C5001 1.385 . S
C4998 H4979 0.951 . S
C4998 C4996 1.388 . S
C4998 C4999 1.366 . S
C4999 C4998 1.366 . S
C4999 C5000 1.414 . S
C4999 C5002 1.499 . S
C5000 H4980 0.950 . S
C5000 C4999 1.414 . S
C5000 C5001 1.374 . S
C5001 H4981 0.950 . S
C5001 C4997 1.385 . S
C5001 C5000 1.374 . S
C5002 C4999 1.499 . S
C5002 C5003 1.373 1_556 S
C5002 C5004 1.389 . S
C5003 H4982 0.950 . S
C5003 C5002 1.373 1_554 S
C5003 C5019 1.377 . S
C5004 C5002 1.389 . S
C5004 C5005 1.524 . S
C5004 C5018 1.377 . S
C5005 C5004 1.524 . S
C5005 C5006 1.397 . S
C5005 C5010 1.363 . S
C5006 H4983 0.950 . S
C5006 C5005 1.397 . S
C5006 C5007 1.334 . S
C5007 H4984 0.950 . S
C5007 C5006 1.334 . S
C5007 C5008 1.287 . S
C5008 C5007 1.287 . S
C5008 C5009 1.524 . S
C5008 H5027 0.913 . S
C5009 H4985 0.950 . S
C5009 C5008 1.524 . S
C5009 C5010 1.415 . S
C5010 H4986 0.950 . S
C5010 C5005 1.363 . S
C5010 C5009 1.415 . S
C5011 H4987 0.951 . S
C5011 C5012 1.366 . S
C5011 C5013 1.388 . S
C5012 C5011 1.366 . S
C5012 C5016 1.385 . S
C5013 H4988 0.951 . S
C5013 C5011 1.388 . S
C5013 C5014 1.366 . S
C5014 C5013 1.366 . S
C5014 C5015 1.414 . S
C5014 C5017 1.499 . S
C5015 H4989 0.950 . S
C5015 C5014 1.414 . S
C5015 C5016 1.374 . S
C5016 H4990 0.950 . S
C5016 C5012 1.385 . S
C5016 C5015 1.374 . S
C5017 C5014 1.499 . S
C5017 C5018 1.373 . S
C5017 C5019 1.389 1_556 S
C5018 H4991 0.950 . S
C5018 C5004 1.377 . S
C5018 C5017 1.373 . S
C5019 C5003 1.377 . S
C5019 C5017 1.389 1_554 S
C5019 C5020 1.524 . S
C5020 C5019 1.524 . S
C5020 C5021 1.397 . S
C5020 C5025 1.363 . S
C5021 H4992 0.950 . S
C5021 C5020 1.397 . S
C5021 C5022 1.334 . S
C5022 H4993 0.950 . S
C5022 C5021 1.334 . S
C5022 C5023 1.287 . S
C5023 C5022 1.287 . S
C5023 C5024 1.524 . S
C5023 H5026 0.999 . S
C5024 H4994 0.950 . S
C5024 C5023 1.524 . S
C5024 C5025 1.415 . S
C5025 H4995 0.950 . S
C5025 C5020 1.363 . S
C5025 C5024 1.415 . S
H5026 C5023 0.999 . S
H5027 C5008 0.913 . S
H5028 C5046 0.951 . S
H5029 C5048 0.951 . S
H5030 C5050 0.950 . S
H5031 C5051 0.950 . S
H5032 C5053 0.950 . S
H5033 C5056 0.950 . S
H5034 C5057 0.950 . S
H5035 C5059 0.950 . S
H5036 C5060 0.950 . S
H5037 C5061 0.951 . S
H5038 C5063 0.951 . S
H5039 C5065 0.950 . S
H5040 C5066 0.950 . S
H5041 C5068 0.950 . S
H5042 C5071 0.950 . S
H5043 C5072 0.950 . S
H5044 C5074 0.950 . S
H5045 C5075 0.950 . S
C5046 H5028 0.951 . S
C5046 C5047 1.366 . S
C5046 C5048 1.388 . S
C5047 C5046 1.366 . S
C5047 C5051 1.385 . S
C5048 H5029 0.951 . S
C5048 C5046 1.388 . S
C5048 C5049 1.366 . S
C5049 C5048 1.366 . S
C5049 C5050 1.414 . S
C5049 C5052 1.499 . S
C5050 H5030 0.950 . S
C5050 C5049 1.414 . S
C5050 C5051 1.374 . S
C5051 H5031 0.950 . S
C5051 C5047 1.385 . S
C5051 C5050 1.374 . S
C5052 C5049 1.499 . S
C5052 C5053 1.373 . S
C5052 C5054 1.389 . S
C5053 H5032 0.950 . S
C5053 C5052 1.373 . S
C5053 C5069 1.377 . S
C5054 C5052 1.389 . S
C5054 C5055 1.524 . S
C5054 C5068 1.377 . S
C5055 C5054 1.524 . S
C5055 C5056 1.397 . S
C5055 C5060 1.363 . S
C5056 H5033 0.950 . S
C5056 C5055 1.397 . S
C5056 C5057 1.334 . S
C5057 H5034 0.950 . S
C5057 C5056 1.334 . S
C5057 C5058 1.287 . S
C5058 C5057 1.287 . S
C5058 C5059 1.524 . S
C5058 H5077 0.913 . S
C5059 H5035 0.950 . S
C5059 C5058 1.524 . S
C5059 C5060 1.415 . S
C5060 H5036 0.950 . S
C5060 C5055 1.363 . S
C5060 C5059 1.415 . S
C5061 H5037 0.951 . S
C5061 C5062 1.366 . S
C5061 C5063 1.388 . S
C5062 C5061 1.366 . S
C5062 C5066 1.385 . S
C5063 H5038 0.951 . S
C5063 C5061 1.388 . S
C5063 C5064 1.366 . S
C5064 C5063 1.366 . S
C5064 C5065 1.414 . S
C5064 C5067 1.499 . S
C5065 H5039 0.950 . S
C5065 C5064 1.414 . S
C5065 C5066 1.374 . S
C5066 H5040 0.950 . S
C5066 C5062 1.385 . S
C5066 C5065 1.374 . S
C5067 C5064 1.499 . S
C5067 C5068 1.373 . S
C5067 C5069 1.389 . S
C5068 H5041 0.950 . S
C5068 C5054 1.377 . S
C5068 C5067 1.373 . S
C5069 C5053 1.377 . S
C5069 C5067 1.389 . S
C5069 C5070 1.524 . S
C5070 C5069 1.524 . S
C5070 C5071 1.397 . S
C5070 C5075 1.363 . S
C5071 H5042 0.950 . S
C5071 C5070 1.397 . S
C5071 C5072 1.334 . S
C5072 H5043 0.950 . S
C5072 C5071 1.334 . S
C5072 C5073 1.287 . S
C5073 C5072 1.287 . S
C5073 C5074 1.524 . S
C5073 H5076 0.999 . S
C5074 H5044 0.950 . S
C5074 C5073 1.524 . S
C5074 C5075 1.415 . S
C5075 H5045 0.950 . S
C5075 C5070 1.363 . S
C5075 C5074 1.415 . S
H5076 C5073 0.999 . S
H5077 C5058 0.913 . S
H5078 C5096 0.951 . S
H5079 C5098 0.951 . S
H5080 C5100 0.950 . S
H5081 C5101 0.950 . S
H5082 C5103 0.933 1_554 S
H5083 C5106 0.950 . S
H5084 C5107 0.950 . S
H5085 C5109 0.950 . S
H5086 C5110 0.950 . S
H5087 C5111 0.951 . S
H5088 C5113 0.951 . S
H5089 C5115 0.950 . S
H5090 C5116 0.950 . S
H5091 C5118 0.950 . S
H5092 C5121 0.950 . S
H5093 C5122 0.950 . S
H5094 C5124 0.950 . S
H5095 C5125 0.950 . S
C5096 H5078 0.951 . S
C5096 C5097 1.366 . S
C5096 C5098 1.388 . S
C5097 C5096 1.366 . S
C5097 C5101 1.385 . S
C5098 H5079 0.951 . S
C5098 C5096 1.388 . S
C5098 C5099 1.366 . S
C5099 C5098 1.366 . S
C5099 C5100 1.414 . S
C5099 C5102 1.499 . S
C5100 H5080 0.950 . S
C5100 C5099 1.414 . S
C5100 C5101 1.374 . S
C5101 H5081 0.950 . S
C5101 C5097 1.385 . S
C5101 C5100 1.374 . S
C5102 C5099 1.499 . S
C5102 C5103 1.373 . S
C5102 C5104 1.389 . S
C5103 H5082 0.933 1_556 S
C5103 C5102 1.373 . S
C5103 C5119 1.377 . S
C5104 C5102 1.389 . S
C5104 C5105 1.524 . S
C5104 C5118 1.377 . S
C5105 C5104 1.524 . S
C5105 C5106 1.397 . S
C5105 C5110 1.363 . S
C5106 H5083 0.950 . S
C5106 C5105 1.397 . S
C5106 C5107 1.334 . S
C5107 H5084 0.950 . S
C5107 C5106 1.334 . S
C5107 C5108 1.287 . S
C5108 C5107 1.287 . S
C5108 C5109 1.524 . S
C5108 H5127 0.913 . S
C5109 H5085 0.950 . S
C5109 C5108 1.524 . S
C5109 C5110 1.415 . S
C5110 H5086 0.950 . S
C5110 C5105 1.363 . S
C5110 C5109 1.415 . S
C5111 H5087 0.951 . S
C5111 C5112 1.366 . S
C5111 C5113 1.388 . S
C5112 C5111 1.366 . S
C5112 C5116 1.385 . S
C5113 H5088 0.951 . S
C5113 C5111 1.388 . S
C5113 C5114 1.366 . S
C5114 C5113 1.366 . S
C5114 C5115 1.414 . S
C5114 C5117 1.499 . S
C5115 H5089 0.950 . S
C5115 C5114 1.414 . S
C5115 C5116 1.374 . S
C5116 H5090 0.950 . S
C5116 C5112 1.385 . S
C5116 C5115 1.374 . S
C5117 C5114 1.499 . S
C5117 C5118 1.373 . S
C5117 C5119 1.389 . S
C5118 H5091 0.950 . S
C5118 C5104 1.377 . S
C5118 C5117 1.373 . S
C5119 C5103 1.377 . S
C5119 C5117 1.389 . S
C5119 C5120 1.524 1_556 S
C5120 C5119 1.524 1_554 S
C5120 C5121 1.397 . S
C5120 C5125 1.363 . S
C5121 H5092 0.950 . S
C5121 C5120 1.397 . S
C5121 C5122 1.334 . S
C5122 H5093 0.950 . S
C5122 C5121 1.334 . S
C5122 C5123 1.287 . S
C5123 C5122 1.287 . S
C5123 C5124 1.524 . S
C5123 H5126 0.999 . S
C5124 H5094 0.950 . S
C5124 C5123 1.524 . S
C5124 C5125 1.415 . S
C5125 H5095 0.950 . S
C5125 C5120 1.363 . S
C5125 C5124 1.415 . S
H5126 C5123 0.999 . S
H5127 C5108 0.913 . S
H5128 C5146 0.951 . S
H5129 C5148 0.951 . S
H5130 C5150 0.950 . S
H5131 C5151 0.950 . S
H5132 C5153 0.950 . S
H5133 C5156 0.950 . S
H5134 C5157 0.950 . S
H5135 C5159 0.950 . S
H5136 C5160 0.950 . S
H5137 C5161 0.951 . S
H5138 C5163 0.951 . S
H5139 C5165 0.950 . S
H5140 C5166 0.950 . S
H5141 C5168 0.950 . S
H5142 C5171 0.950 . S
H5143 C5172 0.950 . S
H5144 C5174 0.950 . S
H5145 C5175 0.950 . S
C5146 H5128 0.951 . S
C5146 C5147 1.366 . S
C5146 C5148 1.388 . S
C5147 C5146 1.366 . S
C5147 C5151 1.385 . S
C5148 H5129 0.951 . S
C5148 C5146 1.388 . S
C5148 C5149 1.366 . S
C5149 C5148 1.366 . S
C5149 C5150 1.414 . S
C5149 C5152 1.499 . S
C5150 H5130 0.950 . S
C5150 C5149 1.414 . S
C5150 C5151 1.374 . S
C5151 H5131 0.950 . S
C5151 C5147 1.385 . S
C5151 C5150 1.374 . S
C5152 C5149 1.499 . S
C5152 C5153 1.373 . S
C5152 C5154 1.389 . S
C5153 H5132 0.950 . S
C5153 C5152 1.373 . S
C5153 C5169 1.377 . S
C5154 C5152 1.389 . S
C5154 C5155 1.524 . S
C5154 C5168 1.377 . S
C5155 C5154 1.524 . S
C5155 C5156 1.397 . S
C5155 C5160 1.363 . S
C5156 H5133 0.950 . S
C5156 C5155 1.397 . S
C5156 C5157 1.334 . S
C5157 H5134 0.950 . S
C5157 C5156 1.334 . S
C5157 C5158 1.287 . S
C5158 C5157 1.287 . S
C5158 C5159 1.524 . S
C5158 H5177 0.913 . S
C5159 H5135 0.950 . S
C5159 C5158 1.524 . S
C5159 C5160 1.415 . S
C5160 H5136 0.950 . S
C5160 C5155 1.363 . S
C5160 C5159 1.415 . S
C5161 H5137 0.951 . S
C5161 C5162 1.366 . S
C5161 C5163 1.388 . S
C5162 C5161 1.366 . S
C5162 C5166 1.385 . S
C5163 H5138 0.951 . S
C5163 C5161 1.388 . S
C5163 C5164 1.366 . S
C5164 C5163 1.366 . S
C5164 C5165 1.414 . S
C5164 C5167 1.499 . S
C5165 H5139 0.950 . S
C5165 C5164 1.414 . S
C5165 C5166 1.374 . S
C5166 H5140 0.950 . S
C5166 C5162 1.385 . S
C5166 C5165 1.374 . S
C5167 C5164 1.499 . S
C5167 C5168 1.373 . S
C5167 C5169 1.389 . S
C5168 H5141 0.950 . S
C5168 C5154 1.377 . S
C5168 C5167 1.373 . S
C5169 C5153 1.377 . S
C5169 C5167 1.389 . S
C5169 C5170 1.524 . S
C5170 C5169 1.524 . S
C5170 C5171 1.397 . S
C5170 C5175 1.363 . S
C5171 H5142 0.950 . S
C5171 C5170 1.397 . S
C5171 C5172 1.334 . S
C5172 H5143 0.950 . S
C5172 C5171 1.334 . S
C5172 C5173 1.287 . S
C5173 C5172 1.287 . S
C5173 C5174 1.524 . S
C5173 H5176 0.999 . S
C5174 H5144 0.950 . S
C5174 C5173 1.524 . S
C5174 C5175 1.415 . S
C5175 H5145 0.950 . S
C5175 C5170 1.363 . S
C5175 C5174 1.415 . S
H5176 C5173 0.999 . S
H5177 C5158 0.913 . S
H5178 C5196 0.951 . S
H5179 C5198 0.951 . S
H5180 C5200 0.950 . S
H5181 C5201 0.950 . S
H5182 C5203 0.950 . S
H5183 C5206 0.950 . S
H5184 C5207 0.950 . S
H5185 C5209 0.950 . S
H5186 C5210 0.970 . S
H5187 C5211 0.936 1_455 S
H5188 C5213 0.951 1_455 S
H5189 C5215 0.950 . S
H5190 C5216 0.950 . S
H5191 C5218 0.950 . S
H5192 C5221 0.950 . S
H5193 C5222 0.950 . S
H5194 C5224 0.950 . S
H5195 C5225 0.950 . S
C5196 H5178 0.951 . S
C5196 C5197 1.366 . S
C5196 C5198 1.388 . S
C5197 C5196 1.366 . S
C5197 C5201 1.385 1_655 S
C5198 H5179 0.951 . S
C5198 C5196 1.388 . S
C5198 C5199 1.366 . S
C5199 C5198 1.366 . S
C5199 C5200 1.414 1_655 S
C5199 C5202 1.499 . S
C5200 H5180 0.950 . S
C5200 C5199 1.414 1_455 S
C5200 C5201 1.374 . S
C5201 H5181 0.950 . S
C5201 C5197 1.385 1_455 S
C5201 C5200 1.374 . S
C5202 C5199 1.499 . S
C5202 C5203 1.373 . S
C5202 C5204 1.389 . S
C5203 H5182 0.950 . S
C5203 C5202 1.373 . S
C5203 C5219 1.377 . S
C5204 C5202 1.389 . S
C5204 C5205 1.524 1_655 S
C5204 C5218 1.377 . S
C5205 C5204 1.524 1_455 S
C5205 C5206 1.397 . S
C5205 C5210 1.354 1_455 S
C5206 H5183 0.950 . S
C5206 C5205 1.397 . S
C5206 C5207 1.334 . S
C5207 H5184 0.950 . S
C5207 C5206 1.334 . S
C5207 C5208 1.287 . S
C5208 C5207 1.287 . S
C5208 C5209 1.524 . S
C5208 H5227 0.913 . S
C5209 H5185 0.950 . S
C5209 C5208 1.524 . S
C5209 C5210 1.405 1_455 S
C5210 H5186 0.970 . S
C5210 C5205 1.354 1_655 S
C5210 C5209 1.405 1_655 S
C5211 H5187 0.936 1_655 S
C5211 C5212 1.366 . S
C5211 C5213 1.388 . S
C5212 C5211 1.366 . S
C5212 C5216 1.385 . S
C5213 H5188 0.951 1_655 S
C5213 C5211 1.388 . S
C5213 C5214 1.366 . S
C5214 C5213 1.366 . S
C5214 C5215 1.414 . S
C5214 C5217 1.499 . S
C5215 H5189 0.950 . S
C5215 C5214 1.414 . S
C5215 C5216 1.374 . S
C5216 H5190 0.950 . S
C5216 C5212 1.385 . S
C5216 C5215 1.374 . S
C5217 C5214 1.499 . S
C5217 C5218 1.373 . S
C5217 C5219 1.389 . S
C5218 H5191 0.950 . S
C5218 C5204 1.377 . S
C5218 C5217 1.373 . S
C5219 C5203 1.377 . S
C5219 C5217 1.389 . S
C5219 C5220 1.524 . S
C5220 C5219 1.524 . S
C5220 C5221 1.397 . S
C5220 C5225 1.363 . S
C5221 H5192 0.950 . S
C5221 C5220 1.397 . S
C5221 C5222 1.334 . S
C5222 H5193 0.950 . S
C5222 C5221 1.334 . S
C5222 C5223 1.287 . S
C5223 C5222 1.287 . S
C5223 C5224 1.524 . S
C5223 H5226 0.999 . S
C5224 H5194 0.950 . S
C5224 C5223 1.524 . S
C5224 C5225 1.415 . S
C5225 H5195 0.950 . S
C5225 C5220 1.363 . S
C5225 C5224 1.415 . S
H5226 C5223 0.999 . S
H5227 C5208 0.913 . S
H5228 C5246 0.951 . S
H5229 C5248 0.951 . S
H5230 C5250 0.950 . S
H5231 C5251 0.950 . S
H5232 C5253 0.950 . S
H5233 C5256 0.950 . S
H5234 C5257 0.950 . S
H5235 C5259 0.950 . S
H5236 C5260 0.950 . S
H5237 C5261 0.951 . S
H5238 C5263 0.951 . S
H5239 C5265 0.950 . S
H5240 C5266 0.950 . S
H5241 C5268 0.950 . S
H5242 C5271 0.950 . S
H5243 C5272 0.950 . S
H5244 C5274 0.950 . S
H5245 C5275 0.950 . S
C5246 H5228 0.951 . S
C5246 C5247 1.366 . S
C5246 C5248 1.388 . S
C5247 C5246 1.366 . S
C5247 C5251 1.385 . S
C5248 H5229 0.951 . S
C5248 C5246 1.388 . S
C5248 C5249 1.366 . S
C5249 C5248 1.366 . S
C5249 C5250 1.414 . S
C5249 C5252 1.499 . S
C5250 H5230 0.950 . S
C5250 C5249 1.414 . S
C5250 C5251 1.374 . S
C5251 H5231 0.950 . S
C5251 C5247 1.385 . S
C5251 C5250 1.374 . S
C5252 C5249 1.499 . S
C5252 C5253 1.373 . S
C5252 C5254 1.389 . S
C5253 H5232 0.950 . S
C5253 C5252 1.373 . S
C5253 C5269 1.377 . S
C5254 C5252 1.389 . S
C5254 C5255 1.524 . S
C5254 C5268 1.377 . S
C5255 C5254 1.524 . S
C5255 C5256 1.397 . S
C5255 C5260 1.363 . S
C5256 H5233 0.950 . S
C5256 C5255 1.397 . S
C5256 C5257 1.334 . S
C5257 H5234 0.950 . S
C5257 C5256 1.334 . S
C5257 C5258 1.287 . S
C5258 C5257 1.287 . S
C5258 C5259 1.524 . S
C5258 H5277 0.913 . S
C5259 H5235 0.950 . S
C5259 C5258 1.524 . S
C5259 C5260 1.415 . S
C5260 H5236 0.950 . S
C5260 C5255 1.363 . S
C5260 C5259 1.415 . S
C5261 H5237 0.951 . S
C5261 C5262 1.366 . S
C5261 C5263 1.388 . S
C5262 C5261 1.366 . S
C5262 C5266 1.385 . S
C5263 H5238 0.951 . S
C5263 C5261 1.388 . S
C5263 C5264 1.366 . S
C5264 C5263 1.366 . S
C5264 C5265 1.414 . S
C5264 C5267 1.499 . S
C5265 H5239 0.950 . S
C5265 C5264 1.414 . S
C5265 C5266 1.374 . S
C5266 H5240 0.950 . S
C5266 C5262 1.385 . S
C5266 C5265 1.374 . S
C5267 C5264 1.499 . S
C5267 C5268 1.373 . S
C5267 C5269 1.389 . S
C5268 H5241 0.950 . S
C5268 C5254 1.377 . S
C5268 C5267 1.373 . S
C5269 C5253 1.377 . S
C5269 C5267 1.389 . S
C5269 C5270 1.524 . S
C5270 C5269 1.524 . S
C5270 C5271 1.397 . S
C5270 C5275 1.363 . S
C5271 H5242 0.950 . S
C5271 C5270 1.397 . S
C5271 C5272 1.334 . S
C5272 H5243 0.950 . S
C5272 C5271 1.334 . S
C5272 C5273 1.287 . S
C5273 C5272 1.287 . S
C5273 C5274 1.524 . S
C5273 H5276 0.999 . S
C5274 H5244 0.950 . S
C5274 C5273 1.524 . S
C5274 C5275 1.415 . S
C5275 H5245 0.950 . S
C5275 C5270 1.363 . S
C5275 C5274 1.415 . S
H5276 C5273 0.999 . S
H5277 C5258 0.913 . S
H5278 C5296 0.951 . S
H5279 C5298 0.951 . S
H5280 C5300 0.950 . S
H5281 C5301 0.950 . S
H5282 C5303 0.950 . S
H5283 C5306 0.950 . S
H5284 C5307 0.950 . S
H5285 C5309 0.950 . S
H5286 C5310 0.950 . S
H5287 C5311 0.951 . S
H5288 C5313 0.951 . S
H5289 C5315 0.950 . S
H5290 C5316 0.950 . S
H5291 C5318 0.950 . S
H5292 C5321 0.950 . S
H5293 C5322 0.950 . S
H5294 C5324 0.950 . S
H5295 C5325 0.950 . S
C5296 H5278 0.951 . S
C5296 C5297 1.366 . S
C5296 C5298 1.388 . S
C5297 C5296 1.366 . S
C5297 C5301 1.385 . S
C5298 H5279 0.951 . S
C5298 C5296 1.388 . S
C5298 C5299 1.366 . S
C5299 C5298 1.366 . S
C5299 C5300 1.414 . S
C5299 C5302 1.499 . S
C5300 H5280 0.950 . S
C5300 C5299 1.414 . S
C5300 C5301 1.374 . S
C5301 H5281 0.950 . S
C5301 C5297 1.385 . S
C5301 C5300 1.374 . S
C5302 C5299 1.499 . S
C5302 C5303 1.373 . S
C5302 C5304 1.389 . S
C5303 H5282 0.950 . S
C5303 C5302 1.373 . S
C5303 C5319 1.377 . S
C5304 C5302 1.389 . S
C5304 C5305 1.524 . S
C5304 C5318 1.377 . S
C5305 C5304 1.524 . S
C5305 C5306 1.397 1_655 S
C5305 C5310 1.363 . S
C5306 H5283 0.950 . S
C5306 C5305 1.397 1_455 S
C5306 C5307 1.334 . S
C5307 H5284 0.950 . S
C5307 C5306 1.334 . S
C5307 C5308 1.287 . S
C5308 C5307 1.287 . S
C5308 C5309 1.524 1_455 S
C5308 H5327 0.913 . S
C5309 H5285 0.950 . S
C5309 C5308 1.524 1_655 S
C5309 C5310 1.415 . S
C5310 H5286 0.950 . S
C5310 C5305 1.363 . S
C5310 C5309 1.415 . S
C5311 H5287 0.951 . S
C5311 C5312 1.366 . S
C5311 C5313 1.388 . S
C5312 C5311 1.366 . S
C5312 C5316 1.385 . S
C5313 H5288 0.951 . S
C5313 C5311 1.388 . S
C5313 C5314 1.366 . S
C5314 C5313 1.366 . S
C5314 C5315 1.414 . S
C5314 C5317 1.499 . S
C5315 H5289 0.950 . S
C5315 C5314 1.414 . S
C5315 C5316 1.374 . S
C5316 H5290 0.950 . S
C5316 C5312 1.385 . S
C5316 C5315 1.374 . S
C5317 C5314 1.499 . S
C5317 C5318 1.373 . S
C5317 C5319 1.389 . S
C5318 H5291 0.950 . S
C5318 C5304 1.377 . S
C5318 C5317 1.373 . S
C5319 C5303 1.377 . S
C5319 C5317 1.389 . S
C5319 C5320 1.524 . S
C5320 C5319 1.524 . S
C5320 C5321 1.397 . S
C5320 C5325 1.363 . S
C5321 H5292 0.950 . S
C5321 C5320 1.397 . S
C5321 C5322 1.334 . S
C5322 H5293 0.950 . S
C5322 C5321 1.334 . S
C5322 C5323 1.287 . S
C5323 C5322 1.287 . S
C5323 C5324 1.524 . S
C5323 H5326 0.999 . S
C5324 H5294 0.950 . S
C5324 C5323 1.524 . S
C5324 C5325 1.415 . S
C5325 H5295 0.950 . S
C5325 C5320 1.363 . S
C5325 C5324 1.415 . S
H5326 C5323 0.999 . S
H5327 C5308 0.913 . S
C1762 C1713 2.143 . S
C1747 C15 2.193 . S
C1812 C1617 1.195 . S
C1797 C55 1.148 . S
C1862 C1681 0.637 . S
C1847 C95 0.541 . S
C1912 C1649 2.247 . S
C1897 C135 2.140 . S
C1962 C1425 2.143 . S
C1947 C175 2.193 . S
C1997 C215 2.132 . S
C2012 C1457 2.254 . S
C2062 C1361 1.195 . S
C2047 C255 1.148 . S
C2097 C295 0.541 . S
C2112 C1393 0.635 . S
C2162 C1585 2.143 . S
C2147 C335 2.193 . S
C2197 C375 2.132 . S
C2212 C1521 2.254 . S
C2247 C415 1.149 . S
C2262 C1489 1.195 . S
C2312 C1553 0.639 . S
C2297 C455 0.541 . S
C2362 C1329 2.095 . S
C2347 C495 2.193 . S
C2397 C535 1.143 . S
C2412 C1233 1.166 . S
C2462 C1297 0.583 . S
C2447 C575 0.539 . S
C2497 C615 2.131 . S
C2512 C1265 2.114 . S
C2562 C1041 2.096 . S
C2547 C655 2.193 . S
C2612 C1073 2.108 . S
C2597 C695 2.139 . S
C2647 C735 1.144 . S
C2662 C977 1.166 . S
C2697 C775 0.539 . S
C2712 C1009 0.583 . S
C2747 C815 2.184 . S
C2762 C1201 2.104 . S
C2797 C855 2.132 . S
C2812 C1137 2.115 . S
C2862 C1105 1.165 . S
C2847 C895 1.143 . S
C2897 C935 0.539 . S
C2912 C1169 0.583 . S
C2962 C989 1.560 . S
C2947 C21 1.604 . S
C3012 C1021 1.482 . S
C2997 C61 1.512 . S
C3047 C101 0.281 . S
C3062 C1053 0.423 . S
C3097 C141 0.522 . S
C3112 C1085 0.570 . S
C3162 C1117 1.560 . S
C3147 C181 1.604 . S
C3197 C221 0.522 . S
C3212 C1149 0.570 . S
C3262 C1181 1.481 . S
C3247 C261 1.511 . S
C3312 C1213 0.421 . S
C3297 C301 0.280 . S
C3362 C1245 1.561 . S
C3347 C341 1.604 . S
C3397 C381 0.522 . S
C3412 C1277 0.571 . S
C3447 C421 1.518 . S
C3462 C1309 1.475 . S
C3497 C461 0.281 . S
C3512 C1341 0.423 . S
C3547 C501 1.557 . S
C3562 C1373 1.567 . S
C3597 C541 1.390 . S
C3612 C1405 1.434 . S
C3647 C581 0.366 . S
C3662 C1437 0.315 . S
C3697 C621 0.551 . S
C3712 C1469 0.528 . S
C3747 C661 1.557 . S
C3762 C1501 1.568 . S
C3812 C1533 0.528 . S
C3797 C701 0.551 . S
C3862 C1565 1.438 . S
C3847 C741 1.383 . S
C3912 C1597 0.315 . S
C3897 C781 0.364 . S
C3962 C1629 1.567 . S
C3947 C821 1.557 . S
C3997 C861 0.550 . S
C4012 C1661 0.528 . S
C4047 C901 1.391 . S
C4062 C1693 1.433 . S
C4097 C941 0.365 . S
C4112 C1725 0.312 . S
C4147 C2 1.670 . S
C4162 C1239 1.659 . S
C4212 C1335 1.149 . S
C4197 C42 1.175 . S
C4247 C82 1.124 . S
C4262 C1271 1.074 . S
C4312 C1303 2.393 . S
C4297 C122 2.252 . S
C4347 C162 1.670 . S
C4362 C983 1.660 . S
C4397 C202 2.252 . S
C4412 C1015 2.393 . S
C4447 C242 1.183 . S
C4462 C1047 1.142 . S
C4497 C282 1.124 . S
C4512 C1079 1.075 . S
C4562 C1111 1.660 . S
C4547 C322 1.670 . S
C4612 C1175 2.393 . S
C4597 C362 2.251 . S
C4647 C402 1.183 . S
C4662 C1207 1.140 . S
C4697 C442 1.124 . S
C4712 C1143 1.075 . S
C4762 C1623 1.637 . S
C4747 C482 1.648 . S
C4812 C1719 1.165 . S
C4797 C522 1.119 . S
C4847 C562 1.125 . S
C4862 C1655 1.119 . S
C4912 C1687 2.202 . S
C4897 C602 2.240 . S
C4947 C642 1.648 . S
C4962 C1367 1.636 . S
C4997 C682 2.240 . S
C5012 C1399 2.202 . S
C5047 C722 1.128 . S
C5062 C1431 1.158 . S
C5112 C1463 1.127 . S
C5097 C762 1.118 . S
C5162 C1495 1.637 . S
C5147 C802 1.647 . S
C5212 C1559 2.202 . S
C5197 C842 2.241 . S
C5247 C882 1.127 . S
C5262 C1591 1.158 . S
C5312 C1527 1.128 . S
C5297 C922 1.118 . S
