# Generated by pormake.
# Topology rtl, (3,6)-cn, num edge types: 1
# Building blocks:
#     Node 0, Type 0, BuildingBlock: MIDCAF_clean_linker_0, # of connection points: 3
#     Node 1, Type 0, BuildingBlock: MIDCAF_clean_linker_0, # of connection points: 3
#     Node 2, Type 0, BuildingBlock: MIDCAF_clean_linker_0, # of connection points: 3
#     Node 3, Type 0, BuildingBlock: MIDCAF_clean_linker_0, # of connection points: 3
#     Node 4, Type 1, BuildingBlock: FUNLAD_clean_sbu_0, # of connection points: 6
#     Node 5, Type 1, BuildingBlock: FUNLAD_clean_sbu_0, # of connection points: 6
#     Edge 6, Type (0, 1), BuildingBlock: FUNLAD_clean_linker_0, # of connection points: 2
#     Edge 7, Type (0, 1), BuildingBlock: FUNLAD_clean_linker_0, # of connection points: 2
#     Edge 8, Type (0, 1), BuildingBlock: FUNLAD_clean_linker_0, # of connection points: 2
#     Edge 9, Type (0, 1), BuildingBlock: FUNLAD_clean_linker_0, # of connection points: 2
#     Edge 10, Type (0, 1), BuildingBlock: FUNLAD_clean_linker_0, # of connection points: 2
#     Edge 11, Type (0, 1), BuildingBlock: FUNLAD_clean_linker_0, # of connection points: 2
#     Edge 12, Type (0, 1), BuildingBlock: FUNLAD_clean_linker_0, # of connection points: 2
#     Edge 13, Type (0, 1), BuildingBlock: FUNLAD_clean_linker_0, # of connection points: 2
#     Edge 14, Type (0, 1), BuildingBlock: FUNLAD_clean_linker_0, # of connection points: 2
#     Edge 15, Type (0, 1), BuildingBlock: FUNLAD_clean_linker_0, # of connection points: 2
#     Edge 16, Type (0, 1), BuildingBlock: FUNLAD_clean_linker_0, # of connection points: 2
#     Edge 17, Type (0, 1), BuildingBlock: FUNLAD_clean_linker_0, # of connection points: 2
# Relax obj value: 0.029
# Max RMSD: 0.089
# Mean RMSD: 0.077
data_MOF--net-rtl--node1-FUNLAD_clean_sbu_0--node2-MIDCAF_clean_linker_0--edge1-FUNLAD_clean_linker_0
_symmetry_space_group_name_H-M    P1
_symmetry_Int_Tables_number       1
_symmetry_cell_setting            triclinic
loop_
_symmetry_equiv_pos_as_xyz
'x, y, z'
_cell_length_a     54.609791
_cell_length_b     44.544346
_cell_length_c     32.076032
_cell_angle_alpha  89.769687
_cell_angle_beta   90.924548
_cell_angle_gamma 90.446773
loop_
_atom_site_label
_atom_site_type_symbol
_atom_site_fract_x
_atom_site_fract_y
_atom_site_fract_z
_atom_type_partial_charge
C0 C 0.07055 0.80124 0.1296 0.0
C1 C 0.08575 0.80185 0.16543 0.0
C2 C 0.1085 0.78725 0.16424 0.0
C3 C 0.11606 0.77304 0.12789 0.0
H4 H 0.16366 0.70859 0.08325 0.0
H5 H 0.19905 0.67568 0.08304 0.0
H6 H 0.1947 0.67133 0.94863 0.0
H7 H 0.15909 0.70377 0.94866 0.0
H8 H 0.12485 0.74819 0.89965 0.0
H9 H 0.11049 0.77065 0.83442 0.0
H10 H 0.05583 0.81992 0.90115 0.0
H11 H 0.06984 0.79725 0.9663 0.0
H12 H 0.06621 0.78779 0.06597 0.0
H13 H 0.05268 0.81158 0.12957 0.0
H14 H 0.12086 0.78755 0.19097 0.0
H15 H 0.13391 0.76261 0.1278 0.0
N16 N 0.12883 0.74087 0.05224 0.0
N17 N 0.12738 0.7395 0.97915 0.0
N18 N 0.09997 0.76968 0.01524 0.0
C19 C 0.13753 0.73003 0.01582 0.0
C20 C 0.10858 0.75931 0.97856 0.0
C21 C 0.10997 0.76059 0.05218 0.0
C22 C 0.15851 0.70902 0.01596 0.0
C23 C 0.17011 0.70052 0.05361 0.0
C24 C 0.1905 0.68175 0.05352 0.0
C25 C 0.19975 0.67097 0.01582 0.0
C26 C 0.18788 0.67897 0.97825 0.0
C27 C 0.16752 0.69778 0.9783 0.0
C28 C 0.09864 0.77104 0.93841 0.0
C29 C 0.10961 0.76358 0.90047 0.0
C30 C 0.10148 0.77658 0.86305 0.0
C31 C 0.08213 0.7972 0.86265 0.0
C32 C 0.07064 0.8039 0.90034 0.0
C33 C 0.07881 0.79101 0.93777 0.0
C34 C 0.1012 0.77343 0.09171 0.0
C35 C 0.07825 0.7874 0.09313 0.0
C36 C 0.56278 0.69709 0.4076 0.0
C37 C 0.57327 0.70286 0.36868 0.0
C38 C 0.59013 0.72665 0.36491 0.0
C39 C 0.59724 0.74343 0.39987 0.0
H40 H 0.65627 0.79141 0.44264 0.0
H41 H 0.69526 0.8182 0.44014 0.0
H42 H 0.68874 0.8418 0.56987 0.0
H43 H 0.64964 0.81506 0.57264 0.0
H44 H 0.62261 0.75642 0.62543 0.0
H45 H 0.61008 0.73211 0.68983 0.0
H46 H 0.53997 0.70993 0.63297 0.0
H47 H 0.55291 0.73313 0.56812 0.0
H48 H 0.5617 0.70832 0.47216 0.0
H49 H 0.54946 0.67916 0.41125 0.0
H50 H 0.59858 0.73151 0.33529 0.0
H51 H 0.61089 0.76097 0.39615 0.0
N52 N 0.61692 0.77059 0.47519 0.0
N53 N 0.61771 0.77511 0.54805 0.0
N54 N 0.58775 0.7452 0.51506 0.0
C55 C 0.62722 0.7824 0.51039 0.0
C56 C 0.59785 0.75667 0.55056 0.0
C57 C 0.59712 0.75205 0.47724 0.0
C58 C 0.64985 0.80086 0.50796 0.0
C59 C 0.66295 0.80253 0.4706 0.0
C60 C 0.68537 0.81774 0.46915 0.0
C61 C 0.69507 0.83188 0.50486 0.0
C62 C 0.68161 0.83122 0.5418 0.0
C63 C 0.65927 0.81575 0.5434 0.0
C64 C 0.58888 0.74633 0.59149 0.0
C65 C 0.60439 0.74675 0.62688 0.0
C66 C 0.59714 0.73288 0.66392 0.0
C67 C 0.57413 0.71862 0.66648 0.0
C68 C 0.55808 0.71995 0.6318 0.0
C69 C 0.56543 0.73344 0.59466 0.0
C70 C 0.58752 0.73684 0.43925 0.0
C71 C 0.56974 0.71395 0.44246 0.0
C72 C 0.94762 0.21483 0.89626 0.0
C73 C 0.93543 0.21836 0.85769 0.0
C74 C 0.91435 0.23627 0.85555 0.0
C75 C 0.90521 0.24954 0.8915 0.0
H76 H 0.8525 0.30795 0.93469 0.0
H77 H 0.8153 0.33782 0.93237 0.0
H78 H 0.81224 0.3349 0.06678 0.0
H79 H 0.84912 0.30471 0.0693 0.0
H80 H 0.88239 0.26001 0.11948 0.0
H81 H 0.8938 0.23432 0.1841 0.0
H82 H 0.95367 0.19162 0.1217 0.0
H83 H 0.94265 0.21753 0.05738 0.0
H84 H 0.948 0.22403 0.96153 0.0
H85 H 0.96376 0.20095 0.89905 0.0
H86 H 0.90472 0.23966 0.82614 0.0
H87 H 0.8886 0.26259 0.8889 0.0
N88 N 0.88648 0.27513 0.96799 0.0
N89 N 0.88404 0.27311 0.04093 0.0
N90 N 0.91411 0.24576 0.00679 0.0
C91 C 0.87556 0.28389 0.00373 0.0
C92 C 0.90335 0.25409 0.04274 0.0
C93 C 0.90587 0.25615 0.96932 0.0
C94 C 0.8538 0.30366 0.00217 0.0
C95 C 0.84401 0.31378 0.96381 0.0
C96 C 0.82273 0.33106 0.96244 0.0
C97 C 0.81073 0.33858 -0.00063 0.0
C98 C 0.82083 0.32908 0.03773 0.0
C99 C 0.84209 0.31186 0.03913 0.0
C100 C 0.91147 0.24071 0.08302 0.0
C101 C 0.89817 0.24543 0.11959 0.0
C102 C 0.90461 0.23058 0.15661 0.0
C103 C 0.92455 0.21081 0.15796 0.0
C104 C 0.93836 0.20692 0.12183 0.0
C105 C 0.9319 0.22167 0.08482 0.0
C106 C 0.91685 0.24496 0.93041 0.0
C107 C 0.93843 0.22792 0.93219 0.0
C108 C 0.43594 0.29624 0.62709 0.0
C109 C 0.42248 0.29049 0.66325 0.0
C110 C 0.40249 0.27046 0.66101 0.0
C111 C 0.39578 0.25699 0.62318 0.0
H112 H 0.34611 0.19868 0.57038 0.0
H113 H 0.30887 0.16848 0.56568 0.0
H114 H 0.31541 0.16497 0.43176 0.0
H115 H 0.3524 0.19566 0.43618 0.0
H116 H 0.39212 0.23515 0.3916 0.0
H117 H 0.40594 0.2595 0.32798 0.0
H118 H 0.44862 0.32265 0.40147 0.0
H119 H 0.43543 0.29793 0.46491 0.0
H120 H 0.43972 0.28837 0.56189 0.0
H121 H 0.45129 0.3118 0.62772 0.0
H122 H 0.39195 0.26533 0.68848 0.0
H123 H 0.38005 0.24205 0.62246 0.0
N124 N 0.38196 0.23081 0.54358 0.0
N125 N 0.38393 0.23119 0.47061 0.0
N126 N 0.41075 0.26141 0.51011 0.0
C127 C 0.37357 0.22062 0.50605 0.0
C128 C 0.40256 0.25155 0.47235 0.0
C129 C 0.40064 0.2511 0.54588 0.0
C130 C 0.35219 0.19992 0.50363 0.0
C131 C 0.33977 0.1913 0.53991 0.0
C132 C 0.31846 0.17381 0.53726 0.0
C133 C 0.30908 0.1645 0.49832 0.0
C134 C 0.32194 0.17223 0.46218 0.0
C135 C 0.34324 0.18972 0.46479 0.0
C136 C 0.4125 0.26467 0.43351 0.0
C137 C 0.40465 0.25404 0.39423 0.0
C138 C 0.41246 0.26811 0.35771 0.0
C139 C 0.42825 0.29317 0.35957 0.0
C140 C 0.4367 0.30318 0.39879 0.0
C141 C 0.42898 0.28906 0.43528 0.0
C142 C 0.40882 0.26344 0.5867 0.0
C143 C 0.42918 0.28293 0.58926 0.0
C144 C 0.01296 0.96283 0.45141 0.0
N145 N 0.05473 0.02729 0.51627 0.0
C146 C 0.07341 0.00726 0.51822 0.0
C147 C 0.09769 0.0173 0.5194 0.0
C148 C 0.1028 0.04823 0.51837 0.0
C149 C 0.08315 0.06838 0.51654 0.0
C150 C 0.05915 0.05738 0.51558 0.0
Zn151 Zn 0.01944 0.0119 0.51376 0.0
C152 C 0.98923 0.04519 0.451 0.0
N153 N 0.94581 0.97951 0.50812 0.0
C154 C 0.94149 0.94946 0.50571 0.0
C155 C 0.92705 0.99939 0.5096 0.0
C156 C 0.90281 0.98921 0.50921 0.0
C157 C 0.89777 0.95826 0.50696 0.0
C158 C 0.91754 0.93832 0.5049 0.0
Zn159 Zn 0.98108 0.99492 0.51051 0.0
O160 O 0.02904 0.98015 0.46767 0.0
C161 C 0.01115 0.96174 0.57356 0.0
O162 O 0.99096 0.96429 0.46346 0.0
H163 H 0.93089 0.0232 0.51149 0.0
H164 H 0.06948 0.98343 0.5186 0.0
H165 H 0.95667 0.93405 0.50455 0.0
O166 O 0.02744 0.98012 0.56121 0.0
O167 O 0.98978 0.96274 0.55733 0.0
H168 H 0.04403 0.0729 0.51418 0.0
O169 O 0.9717 0.02594 0.55707 0.0
O170 O 0.00929 0.04357 0.5598 0.0
O171 O 0.97281 0.0273 0.46414 0.0
O172 O 0.01084 0.04352 0.46611 0.0
C173 C 0.98731 0.04434 0.57221 0.0
H174 H 0.11231 0.001 0.52036 0.0
H175 H 0.08627 0.09242 0.51624 0.0
H176 H 0.88822 0.00542 0.51141 0.0
H177 H 0.91458 0.91432 0.50242 0.0
C178 C 0.49047 0.45952 0.94812 0.0
N179 N 0.55802 0.47782 0.00724 0.0
C180 C 0.56134 0.44759 0.00849 0.0
C181 C 0.58488 0.4357 0.01007 0.0
C182 C 0.60529 0.45506 0.01019 0.0
C183 C 0.60138 0.48617 0.00798 0.0
C184 C 0.57745 0.49713 0.00668 0.0
Zn185 Zn 0.52293 0.49357 0.00794 0.0
C186 C 0.51413 0.54224 0.94652 0.0
N187 N 0.44909 0.52439 0.00993 0.0
C188 C 0.42963 0.50516 0.01174 0.0
C189 C 0.44591 0.55464 0.01076 0.0
C190 C 0.42256 0.56664 0.01449 0.0
C191 C 0.40218 0.54739 0.01726 0.0
C192 C 0.40587 0.51625 0.01527 0.0
Zn193 Zn 0.48413 0.50857 0.00848 0.0
O194 O 0.51247 0.46233 0.96119 0.0
C195 C 0.49279 0.45997 0.07001 0.0
O196 O 0.47403 0.47624 0.96304 0.0
H197 H 0.46158 0.56956 0.0091 0.0
H198 H 0.54567 0.4326 0.00869 0.0
H199 H 0.43259 0.48118 0.01116 0.0
O200 O 0.51412 0.4618 0.0549 0.0
O201 O 0.47616 0.47744 0.05643 0.0
H202 H 0.57439 0.52109 0.00578 0.0
O203 O 0.49487 0.5407 0.05394 0.0
O204 O 0.53284 0.52501 0.05454 0.0
O205 O 0.49258 0.5394 0.96046 0.0
O206 O 0.53113 0.52573 0.96118 0.0
C207 C 0.51669 0.5427 0.06808 0.0
H208 H 0.58708 0.41156 0.01112 0.0
H209 H 0.61663 0.50186 0.00831 0.0
H210 H 0.42048 0.5908 0.01525 0.0
H211 H 0.39064 0.50063 0.01757 0.0
C212 C 0.27937 0.12554 0.52424 0.0
C213 C 0.28534 0.14809 0.49528 0.0
C214 C 0.25647 0.11128 0.52253 0.0
C215 C 0.23896 0.11948 0.49192 0.0
C216 C 0.24524 0.1414 0.46233 0.0
C217 C 0.2681 0.15563 0.46405 0.0
C218 C 0.21397 0.10601 0.48955 0.0
C219 C 0.20293 0.09229 0.52181 0.0
C220 C 0.17729 0.08092 0.51956 0.0
C221 C 0.17026 0.05736 0.54609 0.0
C222 C 0.14616 0.04657 0.54555 0.0
C223 C 0.12847 0.05944 0.5188 0.0
H224 H 0.16395 0.1128 0.47306 0.0
C225 C 0.13542 0.08325 0.49258 0.0
C226 C 0.15953 0.09394 0.49299 0.0
H227 H 0.12223 0.09357 0.47151 0.0
H228 H 0.29245 0.11881 0.54817 0.0
H229 H 0.25279 0.09377 0.54506 0.0
H230 H 0.23221 0.14807 0.43827 0.0
H231 H 0.27199 0.17313 0.44151 0.0
H232 H 0.20401 0.10856 0.4602 0.0
H233 H 0.21273 0.0892 0.55116 0.0
H234 H 0.18349 0.0472 0.56726 0.0
H235 H 0.14127 0.02847 0.56655 0.0
C236 C 0.24239 0.65981 0.04127 0.0
C237 C 0.22221 0.65234 0.01553 0.0
C238 C 0.26396 0.64322 0.03985 0.0
C239 C 0.2658 0.6185 0.01283 0.0
C240 C 0.24559 0.61103 0.9872 0.0
C241 C 0.22401 0.62767 0.98858 0.0
C242 C 0.28884 0.60117 0.00872 0.0
C243 C 0.30664 0.60045 0.03833 0.0
C244 C 0.33062 0.58554 0.03283 0.0
C245 C 0.35082 0.59597 0.05635 0.0
C246 C 0.37393 0.58346 0.05141 0.0
C247 C 0.37737 0.55992 0.02313 0.0
H248 H 0.31866 0.55213 0.98741 0.0
C249 C 0.35705 0.54876 0.00045 0.0
C250 C 0.33389 0.56145 0.00519 0.0
H251 H 0.35913 0.53058 0.97851 0.0
H252 H 0.2418 0.67909 0.06168 0.0
H253 H 0.27929 0.6506 0.05903 0.0
H254 H 0.24651 0.59228 0.96588 0.0
H255 H 0.20873 0.62121 0.96855 0.0
H256 H 0.29123 0.5891 0.97977 0.0
H257 H 0.30421 0.61239 0.06736 0.0
H258 H 0.34881 0.61424 0.0782 0.0
H259 H 0.38914 0.59216 0.06992 0.0
C260 C 0.72397 0.87434 0.52192 0.0
C261 C 0.71972 0.84598 0.5041 0.0
C262 C 0.74747 0.88706 0.52218 0.0
C263 C 0.76716 0.8715 0.50482 0.0
C264 C 0.76288 0.8431 0.48732 0.0
C265 C 0.73938 0.83056 0.48663 0.0
C266 C 0.79256 0.88349 0.50621 0.0
C267 C 0.79797 0.91301 0.50594 0.0
C268 C 0.82357 0.92439 0.50683 0.0
C269 C 0.82921 0.95138 0.48635 0.0
C270 C 0.85325 0.96236 0.4862 0.0
C271 C 0.87212 0.94678 0.50717 0.0
H272 H 0.83844 0.88868 0.54572 0.0
C273 C 0.86628 0.92012 0.52857 0.0
C274 C 0.8423 0.90902 0.52838 0.0
H275 H 0.88017 0.90796 0.54602 0.0
H276 H 0.70912 0.88667 0.53565 0.0
H277 H 0.75022 0.90867 0.53689 0.0
H278 H 0.77778 0.83054 0.47413 0.0
H279 H 0.7367 0.80846 0.47326 0.0
H280 H 0.80732 0.86728 0.50527 0.0
H281 H 0.78338 0.92932 0.50251 0.0
H282 H 0.81505 0.96373 0.46977 0.0
H283 H 0.85709 0.98282 0.46908 0.0
C284 C 0.7679 0.34661 0.02367 0.0
C285 C 0.78731 0.35536 0.99797 0.0
C286 C 0.74568 0.36191 0.0222 0.0
C287 C 0.74238 0.3866 0.99519 0.0
C288 C 0.7617 0.39513 0.96917 0.0
C289 C 0.78395 0.37975 0.97058 0.0
C290 C 0.71876 0.40301 0.99196 0.0
C291 C 0.70221 0.40332 0.02271 0.0
C292 C 0.67778 0.41766 0.01893 0.0
C293 C 0.65899 0.40712 0.04461 0.0
C294 C 0.63556 0.41933 0.04181 0.0
C295 C 0.63041 0.44269 0.01352 0.0
H296 H 0.68694 0.45087 0.97162 0.0
C297 C 0.64934 0.45387 0.9885 0.0
C298 C 0.67281 0.44148 0.9911 0.0
H299 H 0.64592 0.4719 0.96646 0.0
H300 H 0.76967 0.32743 0.04433 0.0
H301 H 0.73104 0.35367 0.04155 0.0
H302 H 0.75962 0.41385 0.94776 0.0
H303 H 0.79858 0.38712 0.95048 0.0
H304 H 0.71499 0.41494 0.96303 0.0
H305 H 0.70616 0.3916 0.05174 0.0
H306 H 0.66234 0.38905 0.06664 0.0
H307 H 0.62149 0.41059 0.06205 0.0
C308 C 0.06536 0.84568 0.19931 0.0
C309 C 0.07825 0.81855 0.20327 0.0
C310 C 0.05862 0.86174 0.23456 0.0
C311 C 0.06472 0.85117 0.27471 0.0
C312 C 0.07786 0.82435 0.27882 0.0
C313 C 0.08436 0.80805 0.24354 0.0
C314 C 0.05857 0.86844 0.31255 0.0
C315 C 0.03819 0.88514 0.31488 0.0
C316 C 0.03224 0.90362 0.35169 0.0
C317 C 0.0076 0.90933 0.36022 0.0
C318 C 0.00133 0.92797 0.39324 0.0
C319 C 0.01963 0.94183 0.41792 0.0
H320 H 0.06979 0.91382 0.37038 0.0
C321 C 0.04433 0.93611 0.40943 0.0
C322 C 0.05059 0.91712 0.37673 0.0
H323 H 0.05886 0.94652 0.42781 0.0
H324 H 0.06093 0.85498 0.1689 0.0
H325 H 0.04922 0.88286 0.23018 0.0
H326 H 0.08292 0.81585 0.30943 0.0
H327 H 0.09404 0.78712 0.24791 0.0
H328 H 0.07069 0.86644 0.33959 0.0
H329 H 0.02487 0.8846 0.28934 0.0
H330 H 0.99313 0.89941 0.34117 0.0
H331 H 0.98213 0.93203 0.39884 0.0
C332 C 0.55488 0.67319 0.69922 0.0
C333 C 0.56755 0.70062 0.70391 0.0
C334 C 0.54957 0.65538 0.73382 0.0
C335 C 0.55687 0.66451 0.77406 0.0
C336 C 0.56967 0.69173 0.7789 0.0
C337 C 0.5748 0.70976 0.74424 0.0
C338 C 0.5524 0.64522 0.81102 0.0
C339 C 0.53272 0.62698 0.81363 0.0
C340 C 0.52853 0.60632 0.84918 0.0
C341 C 0.50441 0.59841 0.85916 0.0
C342 C 0.49976 0.57793 0.89117 0.0
C343 C 0.51919 0.56444 0.91334 0.0
H344 H 0.56686 0.598 0.86389 0.0
C345 C 0.54338 0.57219 0.90322 0.0
C346 C 0.54803 0.59301 0.87153 0.0
H347 H 0.55874 0.56211 0.9197 0.0
H348 H 0.54966 0.66493 0.66862 0.0
H349 H 0.54043 0.63403 0.72872 0.0
H350 H 0.57564 0.69914 0.80958 0.0
H351 H 0.58444 0.73082 0.74907 0.0
H352 H 0.56527 0.6468 0.83712 0.0
H353 H 0.51861 0.62779 0.78937 0.0
H354 H 0.4891 0.60813 0.84212 0.0
H355 H 0.48091 0.57234 0.89808 0.0
C356 C 0.95453 0.18821 0.20916 0.0
C357 C 0.93017 0.19299 0.19611 0.0
C358 C 0.95982 0.16957 0.24326 0.0
C359 C 0.94079 0.15539 0.26518 0.0
C360 C 0.91647 0.1605 0.25238 0.0
C361 C 0.91119 0.17918 0.2184 0.0
C362 C 0.94548 0.1337 0.29971 0.0
C363 C 0.96623 0.13334 0.32307 0.0
C364 C 0.97139 0.11075 0.35639 0.0
C365 C 0.9957 0.10708 0.37038 0.0
C366 C 0.00154 0.08586 0.40112 0.0
C367 C 0.98314 0.06782 0.41866 0.0
H368 H 0.93381 0.09571 0.36618 0.0
C369 C 0.95876 0.07178 0.40524 0.0
C370 C 0.95289 0.09309 0.37469 0.0
H371 H 0.94409 0.05853 0.41857 0.0
H372 H 0.96955 0.19861 0.19268 0.0
H373 H 0.97884 0.16568 0.25127 0.0
H374 H 0.90146 0.14967 0.26842 0.0
H375 H 0.89224 0.182 0.20876 0.0
H376 H 0.93108 0.1174 0.3055 0.0
H377 H 0.98047 0.14989 0.31719 0.0
H378 H 0.01031 0.12048 0.35719 0.0
H379 H 0.0205 0.08349 0.41092 0.0
C380 C 0.45325 0.31024 0.71541 0.0
C381 C 0.42871 0.3064 0.70262 0.0
C382 C 0.45922 0.32705 0.75088 0.0
C383 C 0.44071 0.34072 0.77411 0.0
C384 C 0.41616 0.33589 0.76216 0.0
C385 C 0.4102 0.31899 0.72677 0.0
C386 C 0.44614 0.36032 0.81062 0.0
C387 C 0.46779 0.37448 0.81685 0.0
C388 C 0.47278 0.39549 0.85187 0.0
C389 C 0.49714 0.40016 0.86501 0.0
C390 C 0.50282 0.42064 0.89662 0.0
C391 C 0.48426 0.43724 0.91547 0.0
H392 H 0.43522 0.40983 0.8607 0.0
C393 C 0.45985 0.43267 0.9023 0.0
C394 C 0.45414 0.41204 0.87079 0.0
H395 H 0.44513 0.44525 0.91602 0.0
H396 H 0.46789 0.30023 0.69794 0.0
H397 H 0.47833 0.32906 0.75983 0.0
H398 H 0.40151 0.34588 0.77963 0.0
H399 H 0.39111 0.31659 0.71759 0.0
H400 H 0.43136 0.36396 0.83221 0.0
H401 H 0.48268 0.3709 0.79551 0.0
H402 H 0.51186 0.38792 0.85073 0.0
H403 H 0.52184 0.42366 0.90593 0.0
C404 C 0.56293 0.69485 0.29292 0.0
C405 C 0.56772 0.68294 0.33282 0.0
C406 C 0.55825 0.67578 0.25913 0.0
C407 C 0.5584 0.64441 0.26467 0.0
C408 C 0.5635 0.6326 0.30444 0.0
C409 C 0.56793 0.65163 0.33821 0.0
C410 C 0.5541 0.6233 0.22964 0.0
C411 C 0.5399 0.62981 0.19619 0.0
C412 C 0.53464 0.60769 0.16272 0.0
C413 C 0.51197 0.60862 0.14161 0.0
C414 C 0.50613 0.58751 0.11086 0.0
C415 C 0.52306 0.56533 0.10011 0.0
H416 H 0.56975 0.58511 0.16616 0.0
C417 C 0.54606 0.56495 0.12038 0.0
C418 C 0.5518 0.5859 0.1514 0.0
H419 H 0.55959 0.54832 0.11253 0.0
H420 H 0.56273 0.71891 0.28788 0.0
H421 H 0.55502 0.68567 0.22868 0.0
H422 H 0.56396 0.60854 0.30946 0.0
H423 H 0.572 0.6418 0.36846 0.0
H424 H 0.56157 0.60086 0.23302 0.0
H425 H 0.53034 0.65109 0.19469 0.0
H426 H 0.49854 0.62537 0.14947 0.0
H427 H 0.48833 0.58859 0.09555 0.0
C428 C 0.9268 0.18634 0.79507 0.0
C429 C 0.94381 0.20172 0.82059 0.0
C430 C 0.93467 0.16834 0.76241 0.0
C431 C 0.95983 0.16553 0.75418 0.0
C432 C 0.97676 0.18144 0.77925 0.0
C433 C 0.96887 0.19933 0.81205 0.0
C434 C 0.9693 0.14497 0.7217 0.0
C435 C 0.95534 0.1329 0.69093 0.0
C436 C 0.9644 0.11041 0.66085 0.0
C437 C 0.94736 0.09077 0.64206 0.0
C438 C 0.95487 0.06915 0.61372 0.0
C439 C 0.97965 0.06687 0.60308 0.0
H440 H 0.00285 0.12361 0.66282 0.0
C441 C 0.99675 0.08675 0.62143 0.0
C442 C 0.98922 0.10834 0.65002 0.0
H443 H 0.01594 0.08577 0.61355 0.0
H444 H 0.9074 0.18722 0.80139 0.0
H445 H 0.92087 0.15597 0.745 0.0
H446 H 0.99623 0.1797 0.77384 0.0
H447 H 0.98243 0.21108 0.83102 0.0
H448 H 0.98851 0.13905 0.7242 0.0
H449 H 0.93611 0.13856 0.6882 0.0
H450 H 0.92811 0.09197 0.64959 0.0
H451 H 0.94116 0.05435 0.59996 0.0
C452 C 0.45855 0.32202 0.31649 0.0
C453 C 0.43493 0.3098 0.32106 0.0
C454 C 0.46424 0.3396 0.28174 0.0
C455 C 0.44644 0.34512 0.25039 0.0
C456 C 0.42299 0.33243 0.25467 0.0
C457 C 0.41729 0.31497 0.2895 0.0
C458 C 0.45095 0.36533 0.21418 0.0
C459 C 0.47336 0.37433 0.202 0.0
C460 C 0.47748 0.39594 0.16728 0.0
C461 C 0.50052 0.39685 0.14851 0.0
C462 C 0.50546 0.41748 0.11677 0.0
C463 C 0.48745 0.43784 0.1032 0.0
H464 H 0.44178 0.41738 0.16836 0.0
C465 C 0.46441 0.43707 0.12203 0.0
C466 C 0.45949 0.41649 0.15386 0.0
H467 H 0.45021 0.45264 0.11257 0.0
H468 H 0.47263 0.31827 0.34006 0.0
H469 H 0.48238 0.34938 0.28048 0.0
H470 H 0.40884 0.33645 0.23129 0.0
H471 H 0.39879 0.30635 0.29229 0.0
H472 H 0.43494 0.37265 0.19654 0.0
H473 H 0.48955 0.36508 0.21709 0.0
H474 H 0.5148 0.38152 0.15846 0.0
H475 H 0.52344 0.41751 0.10297 0.0
C476 C 0.04986 0.81767 0.8138 0.0
C477 C 0.0747 0.81283 0.8235 0.0
C478 C 0.04298 0.83402 0.77824 0.0
C479 C 0.06088 0.84616 0.75171 0.0
C480 C 0.08566 0.84049 0.76089 0.0
C481 C 0.09251 0.82408 0.79634 0.0
C482 C 0.05486 0.86518 0.71466 0.0
C483 C 0.03282 0.87775 0.70717 0.0
C484 C 0.02797 0.89853 0.67166 0.0
C485 C 0.00395 0.90112 0.65587 0.0
C486 C 0.99852 0.92132 0.62361 0.0
C487 C 0.01697 0.9397 0.60685 0.0
H488 H 0.06503 0.91638 0.66706 0.0
C489 C 0.041 0.93723 0.62277 0.0
C490 C 0.04646 0.91693 0.65485 0.0
H491 H 0.05562 0.9512 0.61074 0.0
H492 H 0.03569 0.80878 0.83374 0.0
H493 H 0.02364 0.83688 0.77199 0.0
H494 H 0.09989 0.84937 0.74105 0.0
H495 H 0.11183 0.82099 0.8031 0.0
H496 H 0.06964 0.86969 0.69322 0.0
H497 H 0.01759 0.87303 0.72746 0.0
H498 H 0.98933 0.88747 0.66853 0.0
H499 H 0.97979 0.92276 0.61218 0.0
loop_
_geom_bond_atom_site_label_1
_geom_bond_atom_site_label_2
_geom_bond_distance
_geom_bond_site_symmetry_2
_ccdc_geom_bond_type
C0 C1 1.384 . S
C0 H13 0.947 . S
C0 C35 1.382 . S
C1 C0 1.384 . S
C1 C2 1.378 . S
C2 C1 1.378 . S
C2 C3 1.378 . S
C2 H14 0.952 . S
C3 C2 1.378 . S
C3 H15 0.950 . S
C3 C34 1.383 . S
H4 C23 0.947 . S
H5 C24 0.946 . S
H6 C26 0.953 . S
H7 C27 0.945 . S
H8 C29 0.952 . S
H9 C30 0.949 . S
H10 C32 0.950 . S
H11 C33 0.948 . S
H12 C35 0.951 . S
H13 C0 0.947 . S
H14 C2 0.952 . S
H15 C3 0.950 . S
N16 C19 1.382 . S
N16 C21 1.363 . S
N17 C19 1.371 1_556 S
N17 C20 1.372 . S
N18 C20 1.361 1_554 S
N18 C21 1.377 . S
C19 N16 1.382 . S
C19 N17 1.371 1_554 S
C19 C22 1.480 . S
C20 N17 1.372 . S
C20 N18 1.361 1_556 S
C20 C28 1.457 . S
C21 N16 1.363 . S
C21 N18 1.377 . S
C21 C34 1.479 . S
C22 C19 1.480 . S
C22 C23 1.383 . S
C22 C27 1.385 1_554 S
C23 H4 0.947 . S
C23 C22 1.383 . S
C23 C24 1.388 . S
C24 H5 0.946 . S
C24 C23 1.388 . S
C24 C25 1.384 . S
C25 C24 1.384 . S
C25 C26 1.377 1_554 S
C26 H6 0.953 . S
C26 C25 1.377 1_556 S
C26 C27 1.369 . S
C27 H7 0.945 . S
C27 C22 1.385 1_556 S
C27 C26 1.369 . S
C28 C20 1.457 . S
C28 C29 1.372 . S
C28 C33 1.364 . S
C29 H8 0.952 . S
C29 C28 1.372 . S
C29 C30 1.389 . S
C30 H9 0.949 . S
C30 C29 1.389 . S
C30 C31 1.387 . S
C31 C30 1.387 . S
C31 C32 1.372 . S
C32 H10 0.950 . S
C32 C31 1.372 . S
C32 C33 1.379 . S
C33 H11 0.948 . S
C33 C28 1.364 . S
C33 C32 1.379 . S
C34 C3 1.383 . S
C34 C21 1.479 . S
C34 C35 1.398 . S
C35 C0 1.382 . S
C35 H12 0.951 . S
C35 C34 1.398 . S
C36 C37 1.384 . S
C36 H49 0.947 . S
C36 C71 1.382 . S
C37 C36 1.384 . S
C37 C38 1.378 . S
C38 C37 1.378 . S
C38 C39 1.378 . S
C38 H50 0.952 . S
C39 C38 1.378 . S
C39 H51 0.950 . S
C39 C70 1.383 . S
H40 C59 0.947 . S
H41 C60 0.946 . S
H42 C62 0.953 . S
H43 C63 0.945 . S
H44 C65 0.952 . S
H45 C66 0.949 . S
H46 C68 0.950 . S
H47 C69 0.948 . S
H48 C71 0.951 . S
H49 C36 0.947 . S
H50 C38 0.952 . S
H51 C39 0.950 . S
N52 C55 1.382 . S
N52 C57 1.363 . S
N53 C55 1.371 . S
N53 C56 1.372 . S
N54 C56 1.361 . S
N54 C57 1.377 . S
C55 N52 1.382 . S
C55 N53 1.371 . S
C55 C58 1.480 . S
C56 N53 1.372 . S
C56 N54 1.361 . S
C56 C64 1.457 . S
C57 N52 1.363 . S
C57 N54 1.377 . S
C57 C70 1.479 . S
C58 C55 1.480 . S
C58 C59 1.383 . S
C58 C63 1.385 . S
C59 H40 0.947 . S
C59 C58 1.383 . S
C59 C60 1.388 . S
C60 H41 0.946 . S
C60 C59 1.388 . S
C60 C61 1.384 . S
C61 C60 1.384 . S
C61 C62 1.377 . S
C62 H42 0.953 . S
C62 C61 1.377 . S
C62 C63 1.369 . S
C63 H43 0.945 . S
C63 C58 1.385 . S
C63 C62 1.369 . S
C64 C56 1.457 . S
C64 C65 1.372 . S
C64 C69 1.364 . S
C65 H44 0.952 . S
C65 C64 1.372 . S
C65 C66 1.389 . S
C66 H45 0.949 . S
C66 C65 1.389 . S
C66 C67 1.387 . S
C67 C66 1.387 . S
C67 C68 1.372 . S
C68 H46 0.950 . S
C68 C67 1.372 . S
C68 C69 1.379 . S
C69 H47 0.948 . S
C69 C64 1.364 . S
C69 C68 1.379 . S
C70 C39 1.383 . S
C70 C57 1.479 . S
C70 C71 1.398 . S
C71 C36 1.382 . S
C71 H48 0.951 . S
C71 C70 1.398 . S
C72 C73 1.384 . S
C72 H85 0.947 . S
C72 C107 1.382 . S
C73 C72 1.384 . S
C73 C74 1.378 . S
C74 C73 1.378 . S
C74 C75 1.378 . S
C74 H86 0.952 . S
C75 C74 1.378 . S
C75 H87 0.950 . S
C75 C106 1.383 . S
H76 C95 0.947 . S
H77 C96 0.946 . S
H78 C98 0.953 . S
H79 C99 0.945 . S
H80 C101 0.952 . S
H81 C102 0.949 . S
H82 C104 0.950 . S
H83 C105 0.948 . S
H84 C107 0.951 . S
H85 C72 0.947 . S
H86 C74 0.952 . S
H87 C75 0.950 . S
N88 C91 1.382 1_556 S
N88 C93 1.363 . S
N89 C91 1.371 . S
N89 C92 1.372 . S
N90 C92 1.361 . S
N90 C93 1.377 1_554 S
C91 N88 1.382 1_554 S
C91 N89 1.371 . S
C91 C94 1.480 . S
C92 N89 1.372 . S
C92 N90 1.361 . S
C92 C100 1.457 . S
C93 N88 1.363 . S
C93 N90 1.377 1_556 S
C93 C106 1.479 . S
C94 C91 1.480 . S
C94 C95 1.383 1_554 S
C94 C99 1.385 . S
C95 H76 0.947 . S
C95 C94 1.383 1_556 S
C95 C96 1.388 . S
C96 H77 0.946 . S
C96 C95 1.388 . S
C96 C97 1.384 1_556 S
C97 C96 1.384 1_554 S
C97 C98 1.377 . S
C98 H78 0.953 . S
C98 C97 1.377 . S
C98 C99 1.369 . S
C99 H79 0.945 . S
C99 C94 1.385 . S
C99 C98 1.369 . S
C100 C92 1.457 . S
C100 C101 1.372 . S
C100 C105 1.364 . S
C101 H80 0.952 . S
C101 C100 1.372 . S
C101 C102 1.389 . S
C102 H81 0.949 . S
C102 C101 1.389 . S
C102 C103 1.387 . S
C103 C102 1.387 . S
C103 C104 1.372 . S
C104 H82 0.950 . S
C104 C103 1.372 . S
C104 C105 1.379 . S
C105 H83 0.948 . S
C105 C100 1.364 . S
C105 C104 1.379 . S
C106 C75 1.383 . S
C106 C93 1.479 . S
C106 C107 1.398 . S
C107 C72 1.382 . S
C107 H84 0.951 . S
C107 C106 1.398 . S
C108 C109 1.384 . S
C108 H121 0.947 . S
C108 C143 1.382 . S
C109 C108 1.384 . S
C109 C110 1.378 . S
C110 C109 1.378 . S
C110 C111 1.378 . S
C110 H122 0.952 . S
C111 C110 1.378 . S
C111 H123 0.950 . S
C111 C142 1.383 . S
H112 C131 0.947 . S
H113 C132 0.946 . S
H114 C134 0.953 . S
H115 C135 0.945 . S
H116 C137 0.952 . S
H117 C138 0.949 . S
H118 C140 0.950 . S
H119 C141 0.948 . S
H120 C143 0.951 . S
H121 C108 0.947 . S
H122 C110 0.952 . S
H123 C111 0.950 . S
N124 C127 1.382 . S
N124 C129 1.363 . S
N125 C127 1.371 . S
N125 C128 1.372 . S
N126 C128 1.361 . S
N126 C129 1.377 . S
C127 N124 1.382 . S
C127 N125 1.371 . S
C127 C130 1.480 . S
C128 N125 1.372 . S
C128 N126 1.361 . S
C128 C136 1.457 . S
C129 N124 1.363 . S
C129 N126 1.377 . S
C129 C142 1.479 . S
C130 C127 1.480 . S
C130 C131 1.383 . S
C130 C135 1.385 . S
C131 H112 0.947 . S
C131 C130 1.383 . S
C131 C132 1.388 . S
C132 H113 0.946 . S
C132 C131 1.388 . S
C132 C133 1.384 . S
C133 C132 1.384 . S
C133 C134 1.377 . S
C134 H114 0.953 . S
C134 C133 1.377 . S
C134 C135 1.369 . S
C135 H115 0.945 . S
C135 C130 1.385 . S
C135 C134 1.369 . S
C136 C128 1.457 . S
C136 C137 1.372 . S
C136 C141 1.364 . S
C137 H116 0.952 . S
C137 C136 1.372 . S
C137 C138 1.389 . S
C138 H117 0.949 . S
C138 C137 1.389 . S
C138 C139 1.387 . S
C139 C138 1.387 . S
C139 C140 1.372 . S
C140 H118 0.950 . S
C140 C139 1.372 . S
C140 C141 1.379 . S
C141 H119 0.948 . S
C141 C136 1.364 . S
C141 C140 1.379 . S
C142 C111 1.383 . S
C142 C129 1.479 . S
C142 C143 1.398 . S
C143 C108 1.382 . S
C143 H120 0.951 . S
C143 C142 1.398 . S
C144 O160 1.251 . S
C144 O162 1.254 1_455 S
N145 C146 1.333 . S
N145 C150 1.307 . S
N145 Zn151 2.020 . S
C146 N145 1.333 . S
C146 C147 1.379 . S
C146 H164 0.952 . S
C147 C146 1.379 . S
C147 C148 1.390 . S
C147 H174 0.949 . S
C148 C147 1.390 . S
C148 C149 1.357 . S
C149 C148 1.357 . S
C149 C150 1.370 . S
C149 H175 0.950 . S
C150 N145 1.307 . S
C150 C149 1.370 . S
C150 H168 0.948 . S
Zn151 N145 2.020 . S
Zn151 O160 2.039 1_545 S
Zn151 O166 2.034 1_545 S
Zn151 O170 2.025 . S
Zn151 O172 2.024 . S
C152 O171 1.246 . S
C152 O172 1.249 1_655 S
N153 C154 1.307 . S
N153 C155 1.333 . S
N153 Zn159 2.020 . S
C154 N153 1.307 . S
C154 C158 1.370 . S
C154 H165 0.948 . S
C155 N153 1.333 . S
C155 C156 1.379 . S
C155 H163 0.966 . S
C156 C155 1.379 . S
C156 C157 1.390 . S
C156 H176 0.949 . S
C157 C156 1.390 . S
C157 C158 1.357 . S
C158 C154 1.370 . S
C158 C157 1.357 . S
C158 H177 0.950 . S
Zn159 N153 2.020 . S
Zn159 O162 2.025 . S
Zn159 O167 2.024 . S
Zn159 O169 2.039 1_565 S
Zn159 O171 2.034 1_565 S
O160 C144 1.251 . S
O160 Zn151 2.039 1_565 S
C161 O166 1.246 . S
C161 O167 1.249 1_455 S
O162 C144 1.254 1_655 S
O162 Zn159 2.025 . S
H163 C155 0.966 . S
H164 C146 0.952 . S
H165 C154 0.948 . S
O166 Zn151 2.034 1_565 S
O166 C161 1.246 . S
O167 Zn159 2.024 . S
O167 C161 1.249 1_655 S
H168 C150 0.948 . S
O169 Zn159 2.039 1_545 S
O169 C173 1.251 . S
O170 Zn151 2.025 . S
O170 C173 1.254 1_455 S
O171 C152 1.246 . S
O171 Zn159 2.034 1_545 S
O172 Zn151 2.024 . S
O172 C152 1.249 1_455 S
C173 O169 1.251 . S
C173 O170 1.254 1_655 S
H174 C147 0.949 . S
H175 C149 0.950 . S
H176 C156 0.949 . S
H177 C158 0.950 . S
C178 O194 1.251 . S
C178 O196 1.254 . S
N179 C180 1.337 . S
N179 C184 1.307 . S
N179 Zn185 2.020 . S
C180 N179 1.337 . S
C180 C181 1.379 1_554 S
C180 H198 0.948 1_554 S
C181 C180 1.379 1_556 S
C181 C182 1.385 1_556 S
C181 H208 0.955 . S
C182 C181 1.385 1_554 S
C182 C183 1.357 . S
C183 C182 1.357 . S
C183 C184 1.370 . S
C183 H209 0.950 . S
C184 N179 1.307 . S
C184 C183 1.370 . S
C184 H202 0.948 . S
Zn185 N179 2.020 . S
Zn185 O194 2.039 1_554 S
Zn185 O200 2.034 . S
Zn185 O204 2.025 . S
Zn185 O206 2.024 1_554 S
C186 O205 1.246 . S
C186 O206 1.249 . S
N187 C188 1.307 . S
N187 C189 1.333 . S
N187 Zn193 2.020 . S
C188 N187 1.307 . S
C188 C192 1.370 . S
C188 H199 0.948 1_554 S
C189 N187 1.333 . S
C189 C190 1.379 . S
C189 H197 0.952 . S
C190 C189 1.379 . S
C190 C191 1.390 . S
C190 H210 0.949 . S
C191 C190 1.390 . S
C191 C192 1.357 . S
C192 C188 1.370 . S
C192 C191 1.357 . S
C192 H211 0.950 1_554 S
Zn193 N187 2.020 . S
Zn193 O196 2.025 1_554 S
Zn193 O201 2.024 . S
Zn193 O203 2.039 . S
Zn193 O205 2.034 1_554 S
O194 C178 1.251 . S
O194 Zn185 2.039 1_556 S
C195 O200 1.246 . S
C195 O201 1.249 . S
O196 C178 1.254 . S
O196 Zn193 2.025 1_556 S
H197 C189 0.952 . S
H198 C180 0.948 1_556 S
H199 C188 0.948 1_556 S
O200 Zn185 2.034 . S
O200 C195 1.246 . S
O201 Zn193 2.024 . S
O201 C195 1.249 . S
H202 C184 0.948 . S
O203 Zn193 2.039 . S
O203 C207 1.251 . S
O204 Zn185 2.025 . S
O204 C207 1.254 . S
O205 C186 1.246 . S
O205 Zn193 2.034 1_556 S
O206 Zn185 2.024 1_556 S
O206 C186 1.249 . S
C207 O203 1.251 . S
C207 O204 1.254 . S
H208 C181 0.955 . S
H209 C183 0.950 . S
H210 C190 0.949 . S
H211 C192 0.950 1_556 S
C212 C213 1.386 . S
C212 C214 1.383 . S
C212 H228 0.951 . S
C213 C212 1.386 . S
C213 C217 1.383 . S
C214 C212 1.383 . S
C214 C215 1.402 . S
C214 H229 0.951 . S
C215 C214 1.402 . S
C215 C216 1.375 . S
C215 C218 1.481 . S
C216 C215 1.375 . S
C216 C217 1.367 . S
C216 H230 0.951 . S
C217 C213 1.383 . S
C217 C216 1.367 . S
C217 H231 0.950 . S
C218 C215 1.481 . S
C218 C219 1.297 . S
C218 H232 0.950 . S
C219 C218 1.297 . S
C219 C220 1.479 . S
C219 H233 0.950 . S
C220 C219 1.479 . S
C220 C221 1.375 . S
C220 C226 1.404 . S
C221 C220 1.375 . S
C221 C222 1.369 . S
C221 H234 0.950 . S
C222 C221 1.369 . S
C222 C223 1.392 . S
C222 H235 0.951 . S
C223 C222 1.392 . S
C223 C225 1.384 . S
H224 C226 0.949 . S
C225 C223 1.384 . S
C225 C226 1.385 . S
C225 H227 0.950 . S
C226 C220 1.404 . S
C226 H224 0.949 . S
C226 C225 1.385 . S
H227 C225 0.950 . S
H228 C212 0.951 . S
H229 C214 0.951 . S
H230 C216 0.951 . S
H231 C217 0.950 . S
H232 C218 0.950 . S
H233 C219 0.950 . S
H234 C221 0.950 . S
H235 C222 0.951 . S
C236 C237 1.386 . S
C236 C238 1.383 . S
C236 H252 0.951 . S
C237 C236 1.386 . S
C237 C241 1.383 1_554 S
C238 C236 1.383 . S
C238 C239 1.402 . S
C238 H253 0.951 . S
C239 C238 1.402 . S
C239 C240 1.375 1_554 S
C239 C242 1.481 . S
C240 C239 1.375 1_556 S
C240 C241 1.367 . S
C240 H254 0.951 . S
C241 C237 1.383 1_556 S
C241 C240 1.367 . S
C241 H255 0.950 . S
C242 C239 1.481 . S
C242 C243 1.297 . S
C242 H256 0.950 1_554 S
C243 C242 1.297 . S
C243 C244 1.479 . S
C243 H257 0.950 . S
C244 C243 1.479 . S
C244 C245 1.375 . S
C244 C250 1.405 1_554 S
C245 C244 1.375 . S
C245 C246 1.369 . S
C245 H258 0.950 . S
C246 C245 1.369 . S
C246 C247 1.392 . S
C246 H259 0.951 . S
C247 C246 1.392 . S
C247 C249 1.384 1_554 S
H248 C250 0.948 . S
C249 C247 1.384 1_556 S
C249 C250 1.385 . S
C249 H251 0.950 . S
C250 C244 1.405 1_556 S
C250 H248 0.948 . S
C250 C249 1.385 . S
H251 C249 0.950 . S
H252 C236 0.951 . S
H253 C238 0.951 . S
H254 C240 0.951 . S
H255 C241 0.950 . S
H256 C242 0.950 1_556 S
H257 C243 0.950 . S
H258 C245 0.950 . S
H259 C246 0.951 . S
C260 C261 1.386 . S
C260 C262 1.383 . S
C260 H276 0.951 . S
C261 C260 1.386 . S
C261 C265 1.383 . S
C262 C260 1.383 . S
C262 C263 1.402 . S
C262 H277 0.951 . S
C263 C262 1.402 . S
C263 C264 1.375 . S
C263 C266 1.481 . S
C264 C263 1.375 . S
C264 C265 1.367 . S
C264 H278 0.951 . S
C265 C261 1.383 . S
C265 C264 1.367 . S
C265 H279 0.950 . S
C266 C263 1.481 . S
C266 C267 1.297 . S
C266 H280 0.950 . S
C267 C266 1.297 . S
C267 C268 1.479 . S
C267 H281 0.950 . S
C268 C267 1.479 . S
C268 C269 1.375 . S
C268 C274 1.404 . S
C269 C268 1.375 . S
C269 C270 1.369 . S
C269 H282 0.950 . S
C270 C269 1.369 . S
C270 C271 1.392 . S
C270 H283 0.951 . S
C271 C270 1.392 . S
C271 C273 1.384 . S
H272 C274 0.949 . S
C273 C271 1.384 . S
C273 C274 1.385 . S
C273 H275 0.950 . S
C274 C268 1.404 . S
C274 H272 0.949 . S
C274 C273 1.385 . S
H275 C273 0.950 . S
H276 C260 0.951 . S
H277 C262 0.951 . S
H278 C264 0.951 . S
H279 C265 0.950 . S
H280 C266 0.950 . S
H281 C267 0.950 . S
H282 C269 0.950 . S
H283 C270 0.951 . S
C284 C285 1.386 . S
C284 C286 1.383 . S
C284 H300 0.951 . S
C285 C284 1.386 . S
C285 C289 1.383 1_554 S
C286 C284 1.383 . S
C286 C287 1.402 1_554 S
C286 H301 0.951 . S
C287 C286 1.402 1_556 S
C287 C288 1.375 . S
C287 C290 1.481 . S
C288 C287 1.375 . S
C288 C289 1.367 . S
C288 H302 0.951 . S
C289 C285 1.383 1_556 S
C289 C288 1.367 . S
C289 H303 0.950 . S
C290 C287 1.481 . S
C290 C291 1.297 1_556 S
C290 H304 0.950 . S
C291 C290 1.297 1_554 S
C291 C292 1.479 . S
C291 H305 0.950 . S
C292 C291 1.479 . S
C292 C293 1.375 . S
C292 C298 1.404 1_554 S
C293 C292 1.375 . S
C293 C294 1.369 . S
C293 H306 0.950 . S
C294 C293 1.369 . S
C294 C295 1.392 . S
C294 H307 0.951 . S
C295 C294 1.392 . S
C295 C297 1.384 1_554 S
H296 C298 0.949 . S
C297 C295 1.384 1_556 S
C297 C298 1.385 . S
C297 H299 0.950 . S
C298 C292 1.404 1_556 S
C298 H296 0.949 . S
C298 C297 1.385 . S
H299 C297 0.950 . S
H300 C284 0.951 . S
H301 C286 0.951 . S
H302 C288 0.951 . S
H303 C289 0.950 . S
H304 C290 0.950 . S
H305 C291 0.950 . S
H306 C293 0.950 . S
H307 C294 0.951 . S
C308 C309 1.386 . S
C308 C310 1.383 . S
C308 H324 0.951 . S
C309 C308 1.386 . S
C309 C313 1.383 . S
C310 C308 1.383 . S
C310 C311 1.402 . S
C310 H325 0.951 . S
C311 C310 1.402 . S
C311 C312 1.375 . S
C311 C314 1.481 . S
C312 C311 1.375 . S
C312 C313 1.367 . S
C312 H326 0.951 . S
C313 C309 1.383 . S
C313 C312 1.367 . S
C313 H327 0.950 . S
C314 C311 1.481 . S
C314 C315 1.297 . S
C314 H328 0.950 . S
C315 C314 1.297 . S
C315 C316 1.479 . S
C315 H329 0.950 . S
C316 C315 1.479 . S
C316 C317 1.375 . S
C316 C322 1.404 . S
C317 C316 1.375 . S
C317 C318 1.369 . S
C317 H330 0.950 . S
C318 C317 1.369 . S
C318 C319 1.392 . S
C318 H331 0.951 . S
C319 C318 1.392 . S
C319 C321 1.384 . S
H320 C322 0.949 . S
C321 C319 1.384 . S
C321 C322 1.385 . S
C321 H323 0.950 . S
C322 C316 1.404 . S
C322 H320 0.949 . S
C322 C321 1.385 . S
H323 C321 0.950 . S
H324 C308 0.951 . S
H325 C310 0.951 . S
H326 C312 0.951 . S
H327 C313 0.950 . S
H328 C314 0.950 . S
H329 C315 0.950 . S
H330 C317 0.950 . S
H331 C318 0.951 . S
C332 C333 1.386 . S
C332 C334 1.383 . S
C332 H348 0.951 . S
C333 C332 1.386 . S
C333 C337 1.383 . S
C334 C332 1.383 . S
C334 C335 1.402 . S
C334 H349 0.951 . S
C335 C334 1.402 . S
C335 C336 1.375 . S
C335 C338 1.481 . S
C336 C335 1.375 . S
C336 C337 1.367 . S
C336 H350 0.951 . S
C337 C333 1.383 . S
C337 C336 1.367 . S
C337 H351 0.950 . S
C338 C335 1.481 . S
C338 C339 1.297 . S
C338 H352 0.950 . S
C339 C338 1.297 . S
C339 C340 1.479 . S
C339 H353 0.950 . S
C340 C339 1.479 . S
C340 C341 1.375 . S
C340 C346 1.404 . S
C341 C340 1.375 . S
C341 C342 1.369 . S
C341 H354 0.950 . S
C342 C341 1.369 . S
C342 C343 1.392 . S
C342 H355 0.951 . S
C343 C342 1.392 . S
C343 C345 1.384 . S
H344 C346 0.949 . S
C345 C343 1.384 . S
C345 C346 1.385 . S
C345 H347 0.950 . S
C346 C340 1.404 . S
C346 H344 0.949 . S
C346 C345 1.385 . S
H347 C345 0.950 . S
H348 C332 0.951 . S
H349 C334 0.951 . S
H350 C336 0.951 . S
H351 C337 0.950 . S
H352 C338 0.950 . S
H353 C339 0.950 . S
H354 C341 0.950 . S
H355 C342 0.951 . S
C356 C357 1.386 . S
C356 C358 1.383 . S
C356 H372 0.951 . S
C357 C356 1.386 . S
C357 C361 1.383 . S
C358 C356 1.383 . S
C358 C359 1.402 . S
C358 H373 0.951 . S
C359 C358 1.402 . S
C359 C360 1.375 . S
C359 C362 1.481 . S
C360 C359 1.375 . S
C360 C361 1.367 . S
C360 H374 0.951 . S
C361 C357 1.383 . S
C361 C360 1.367 . S
C361 H375 0.950 . S
C362 C359 1.481 . S
C362 C363 1.297 . S
C362 H376 0.950 . S
C363 C362 1.297 . S
C363 C364 1.479 . S
C363 H377 0.950 . S
C364 C363 1.479 . S
C364 C365 1.375 . S
C364 C370 1.404 . S
C365 C364 1.375 . S
C365 C366 1.369 . S
C365 H378 0.950 1_655 S
C366 C365 1.369 . S
C366 C367 1.392 . S
C366 H379 0.951 1_655 S
C367 C366 1.392 . S
C367 C369 1.384 . S
H368 C370 0.949 . S
C369 C367 1.384 . S
C369 C370 1.385 . S
C369 H371 0.950 . S
C370 C364 1.404 . S
C370 H368 0.949 . S
C370 C369 1.385 . S
H371 C369 0.950 . S
H372 C356 0.951 . S
H373 C358 0.951 . S
H374 C360 0.951 . S
H375 C361 0.950 . S
H376 C362 0.950 . S
H377 C363 0.950 . S
H378 C365 0.950 1_455 S
H379 C366 0.951 1_455 S
C380 C381 1.386 . S
C380 C382 1.383 . S
C380 H396 0.951 . S
C381 C380 1.386 . S
C381 C385 1.383 . S
C382 C380 1.383 . S
C382 C383 1.402 . S
C382 H397 0.951 . S
C383 C382 1.402 . S
C383 C384 1.375 . S
C383 C386 1.481 . S
C384 C383 1.375 . S
C384 C385 1.367 . S
C384 H398 0.951 . S
C385 C381 1.383 . S
C385 C384 1.367 . S
C385 H399 0.950 . S
C386 C383 1.481 . S
C386 C387 1.297 . S
C386 H400 0.950 . S
C387 C386 1.297 . S
C387 C388 1.479 . S
C387 H401 0.950 . S
C388 C387 1.479 . S
C388 C389 1.375 . S
C388 C394 1.404 . S
C389 C388 1.375 . S
C389 C390 1.369 . S
C389 H402 0.950 . S
C390 C389 1.369 . S
C390 C391 1.392 . S
C390 H403 0.951 . S
C391 C390 1.392 . S
C391 C393 1.384 . S
H392 C394 0.949 . S
C393 C391 1.384 . S
C393 C394 1.385 . S
C393 H395 0.950 . S
C394 C388 1.404 . S
C394 H392 0.949 . S
C394 C393 1.385 . S
H395 C393 0.950 . S
H396 C380 0.951 . S
H397 C382 0.951 . S
H398 C384 0.951 . S
H399 C385 0.950 . S
H400 C386 0.950 . S
H401 C387 0.950 . S
H402 C389 0.950 . S
H403 C390 0.951 . S
C404 C405 1.386 . S
C404 C406 1.383 . S
C404 H420 0.951 . S
C405 C404 1.386 . S
C405 C409 1.383 . S
C406 C404 1.383 . S
C406 C407 1.402 . S
C406 H421 0.951 . S
C407 C406 1.402 . S
C407 C408 1.375 . S
C407 C410 1.481 . S
C408 C407 1.375 . S
C408 C409 1.367 . S
C408 H422 0.951 . S
C409 C405 1.383 . S
C409 C408 1.367 . S
C409 H423 0.950 . S
C410 C407 1.481 . S
C410 C411 1.297 . S
C410 H424 0.950 . S
C411 C410 1.297 . S
C411 C412 1.479 . S
C411 H425 0.950 . S
C412 C411 1.479 . S
C412 C413 1.375 . S
C412 C418 1.404 . S
C413 C412 1.375 . S
C413 C414 1.369 . S
C413 H426 0.950 . S
C414 C413 1.369 . S
C414 C415 1.392 . S
C414 H427 0.951 . S
C415 C414 1.392 . S
C415 C417 1.384 . S
H416 C418 0.949 . S
C417 C415 1.384 . S
C417 C418 1.385 . S
C417 H419 0.950 . S
C418 C412 1.404 . S
C418 H416 0.949 . S
C418 C417 1.385 . S
H419 C417 0.950 . S
H420 C404 0.951 . S
H421 C406 0.951 . S
H422 C408 0.951 . S
H423 C409 0.950 . S
H424 C410 0.950 . S
H425 C411 0.950 . S
H426 C413 0.950 . S
H427 C414 0.951 . S
C428 C429 1.386 . S
C428 C430 1.383 . S
C428 H444 0.951 . S
C429 C428 1.386 . S
C429 C433 1.383 . S
C430 C428 1.383 . S
C430 C431 1.402 . S
C430 H445 0.951 . S
C431 C430 1.402 . S
C431 C432 1.375 . S
C431 C434 1.481 . S
C432 C431 1.375 . S
C432 C433 1.367 . S
C432 H446 0.951 . S
C433 C429 1.383 . S
C433 C432 1.367 . S
C433 H447 0.950 . S
C434 C431 1.481 . S
C434 C435 1.297 . S
C434 H448 0.950 . S
C435 C434 1.297 . S
C435 C436 1.479 . S
C435 H449 0.950 . S
C436 C435 1.479 . S
C436 C437 1.375 . S
C436 C442 1.404 . S
C437 C436 1.375 . S
C437 C438 1.369 . S
C437 H450 0.950 . S
C438 C437 1.369 . S
C438 C439 1.392 . S
C438 H451 0.951 . S
C439 C438 1.392 . S
C439 C441 1.384 . S
H440 C442 0.949 . S
C441 C439 1.384 . S
C441 C442 1.385 . S
C441 H443 0.950 1_655 S
C442 C436 1.404 . S
C442 H440 0.949 . S
C442 C441 1.385 . S
H443 C441 0.950 1_455 S
H444 C428 0.951 . S
H445 C430 0.951 . S
H446 C432 0.951 . S
H447 C433 0.950 . S
H448 C434 0.950 . S
H449 C435 0.950 . S
H450 C437 0.950 . S
H451 C438 0.951 . S
C452 C453 1.386 . S
C452 C454 1.383 . S
C452 H468 0.951 . S
C453 C452 1.386 . S
C453 C457 1.383 . S
C454 C452 1.383 . S
C454 C455 1.402 . S
C454 H469 0.951 . S
C455 C454 1.402 . S
C455 C456 1.375 . S
C455 C458 1.481 . S
C456 C455 1.375 . S
C456 C457 1.367 . S
C456 H470 0.951 . S
C457 C453 1.383 . S
C457 C456 1.367 . S
C457 H471 0.950 . S
C458 C455 1.481 . S
C458 C459 1.297 . S
C458 H472 0.950 . S
C459 C458 1.297 . S
C459 C460 1.479 . S
C459 H473 0.950 . S
C460 C459 1.479 . S
C460 C461 1.375 . S
C460 C466 1.404 . S
C461 C460 1.375 . S
C461 C462 1.369 . S
C461 H474 0.950 . S
C462 C461 1.369 . S
C462 C463 1.392 . S
C462 H475 0.951 . S
C463 C462 1.392 . S
C463 C465 1.384 . S
H464 C466 0.949 . S
C465 C463 1.384 . S
C465 C466 1.385 . S
C465 H467 0.950 . S
C466 C460 1.404 . S
C466 H464 0.949 . S
C466 C465 1.385 . S
H467 C465 0.950 . S
H468 C452 0.951 . S
H469 C454 0.951 . S
H470 C456 0.951 . S
H471 C457 0.950 . S
H472 C458 0.950 . S
H473 C459 0.950 . S
H474 C461 0.950 . S
H475 C462 0.951 . S
C476 C477 1.386 . S
C476 C478 1.383 . S
C476 H492 0.951 . S
C477 C476 1.386 . S
C477 C481 1.383 . S
C478 C476 1.383 . S
C478 C479 1.402 . S
C478 H493 0.951 . S
C479 C478 1.402 . S
C479 C480 1.375 . S
C479 C482 1.481 . S
C480 C479 1.375 . S
C480 C481 1.367 . S
C480 H494 0.951 . S
C481 C477 1.383 . S
C481 C480 1.367 . S
C481 H495 0.950 . S
C482 C479 1.481 . S
C482 C483 1.297 . S
C482 H496 0.950 . S
C483 C482 1.297 . S
C483 C484 1.479 . S
C483 H497 0.950 . S
C484 C483 1.479 . S
C484 C485 1.375 . S
C484 C490 1.404 . S
C485 C484 1.375 . S
C485 C486 1.369 . S
C485 H498 0.950 . S
C486 C485 1.369 . S
C486 C487 1.392 . S
C486 H499 0.951 . S
C487 C486 1.392 . S
C487 C489 1.384 . S
H488 C490 0.949 . S
C489 C487 1.384 . S
C489 C490 1.385 . S
C489 H491 0.950 . S
C490 C484 1.404 . S
C490 H488 0.949 . S
C490 C489 1.385 . S
H491 C489 0.950 . S
H492 C476 0.951 . S
H493 C478 0.951 . S
H494 C480 0.951 . S
H495 C481 0.950 . S
H496 C482 0.950 . S
H497 C483 0.950 . S
H498 C485 0.950 . S
H499 C486 0.951 . S
C223 C148 1.634 . S
C213 C133 1.621 . S
C237 C25 1.551 . S
C247 C191 1.547 . S
C261 C61 1.568 . S
C271 C157 1.639 . S
C285 C97 1.571 . S
C295 C182 1.536 . S
C319 C144 1.600 . S
C309 C1 1.600 . S
C343 C186 1.711 . S
C333 C67 1.642 . S
C357 C103 1.606 . S
C367 C152 1.587 . S
C381 C109 1.673 . S
C391 C178 1.700 . S
C415 C207 1.706 . S
C405 C37 1.628 . S
C439 C173 1.606 . S
C429 C73 1.621 . S
C463 C195 1.690 . S
C453 C139 1.702 . S
C477 C31 1.553 . S
C487 C161 1.616 . S
