# Generated by pormake.
# Topology pto, (3,4)-cn, num edge types: 1
# Building blocks:
#     Node 0, Type 0, BuildingBlock: ESEHIV_clean_linker_0, # of connection points: 3
#     Node 1, Type 0, BuildingBlock: ESEHIV_clean_linker_0, # of connection points: 3
#     Node 2, Type 0, BuildingBlock: ESEHIV_clean_linker_0, # of connection points: 3
#     Node 3, Type 0, BuildingBlock: ESEHIV_clean_linker_0, # of connection points: 3
#     Node 4, Type 0, BuildingBlock: ESEHIV_clean_linker_0, # of connection points: 3
#     Node 5, Type 0, BuildingBlock: ESEHIV_clean_linker_0, # of connection points: 3
#     Node 6, Type 0, BuildingBlock: ESEHIV_clean_linker_0, # of connection points: 3
#     Node 7, Type 0, BuildingBlock: ESEHIV_clean_linker_0, # of connection points: 3
#     Node 8, Type 1, BuildingBlock: NAWXER_clean_sbu_0, # of connection points: 4
#     Node 9, Type 1, BuildingBlock: NAWXER_clean_sbu_0, # of connection points: 4
#     Node 10, Type 1, BuildingBlock: NAWXER_clean_sbu_0, # of connection points: 4
#     Node 11, Type 1, BuildingBlock: NAWXER_clean_sbu_0, # of connection points: 4
#     Node 12, Type 1, BuildingBlock: NAWXER_clean_sbu_0, # of connection points: 4
#     Node 13, Type 1, BuildingBlock: NAWXER_clean_sbu_0, # of connection points: 4
#     Edge 14, Type (0, 1), BuildingBlock: OJICUG_clean_linker_0, # of connection points: 2
#     Edge 15, Type (0, 1), BuildingBlock: OJICUG_clean_linker_0, # of connection points: 2
#     Edge 16, Type (0, 1), BuildingBlock: OJICUG_clean_linker_0, # of connection points: 2
#     Edge 17, Type (0, 1), BuildingBlock: OJICUG_clean_linker_0, # of connection points: 2
#     Edge 18, Type (0, 1), BuildingBlock: OJICUG_clean_linker_0, # of connection points: 2
#     Edge 19, Type (0, 1), BuildingBlock: OJICUG_clean_linker_0, # of connection points: 2
#     Edge 20, Type (0, 1), BuildingBlock: OJICUG_clean_linker_0, # of connection points: 2
#     Edge 21, Type (0, 1), BuildingBlock: OJICUG_clean_linker_0, # of connection points: 2
#     Edge 22, Type (0, 1), BuildingBlock: OJICUG_clean_linker_0, # of connection points: 2
#     Edge 23, Type (0, 1), BuildingBlock: OJICUG_clean_linker_0, # of connection points: 2
#     Edge 24, Type (0, 1), BuildingBlock: OJICUG_clean_linker_0, # of connection points: 2
#     Edge 25, Type (0, 1), BuildingBlock: OJICUG_clean_linker_0, # of connection points: 2
#     Edge 26, Type (0, 1), BuildingBlock: OJICUG_clean_linker_0, # of connection points: 2
#     Edge 27, Type (0, 1), BuildingBlock: OJICUG_clean_linker_0, # of connection points: 2
#     Edge 28, Type (0, 1), BuildingBlock: OJICUG_clean_linker_0, # of connection points: 2
#     Edge 29, Type (0, 1), BuildingBlock: OJICUG_clean_linker_0, # of connection points: 2
#     Edge 30, Type (0, 1), BuildingBlock: OJICUG_clean_linker_0, # of connection points: 2
#     Edge 31, Type (0, 1), BuildingBlock: OJICUG_clean_linker_0, # of connection points: 2
#     Edge 32, Type (0, 1), BuildingBlock: OJICUG_clean_linker_0, # of connection points: 2
#     Edge 33, Type (0, 1), BuildingBlock: OJICUG_clean_linker_0, # of connection points: 2
#     Edge 34, Type (0, 1), BuildingBlock: OJICUG_clean_linker_0, # of connection points: 2
#     Edge 35, Type (0, 1), BuildingBlock: OJICUG_clean_linker_0, # of connection points: 2
#     Edge 36, Type (0, 1), BuildingBlock: OJICUG_clean_linker_0, # of connection points: 2
#     Edge 37, Type (0, 1), BuildingBlock: OJICUG_clean_linker_0, # of connection points: 2
# Relax obj value: 0.000
# Max RMSD: 0.005
# Mean RMSD: 0.003
data_MOF--net-pto--node1-NAWXER_clean_sbu_0--node2-ESEHIV_clean_linker_0--edge1-OJICUG_clean_linker_0
_symmetry_space_group_name_H-M    P1
_symmetry_Int_Tables_number       1
_symmetry_cell_setting            triclinic
loop_
_symmetry_equiv_pos_as_xyz
'x, y, z'
_cell_length_a     28.482893
_cell_length_b     27.026706
_cell_length_c     25.449217
_cell_angle_alpha  90.293005
_cell_angle_beta   89.877867
_cell_angle_gamma 90.271368
loop_
_atom_site_label
_atom_site_type_symbol
_atom_site_fract_x
_atom_site_fract_y
_atom_site_fract_z
_atom_type_partial_charge
H0 H 0.26132 0.32595 0.23097 0.0
H1 H 0.29037 0.18063 0.28957 0.0
H2 H 0.16915 0.26023 0.345 0.0
C3 C 0.25226 0.29521 0.25623 0.0
C4 C 0.21254 0.29872 0.28901 0.0
C5 C 0.28018 0.25238 0.25539 0.0
C6 C 0.26793 0.21284 0.28844 0.0
C7 C 0.2281 0.21533 0.32138 0.0
C8 C 0.20063 0.25845 0.32113 0.0
H9 H 0.25583 0.65514 0.84527 0.0
H10 H 0.3132 0.77476 0.75465 0.0
H11 H 0.16443 0.75064 0.75804 0.0
C12 C 0.25095 0.68658 0.81974 0.0
C13 C 0.20575 0.69736 0.80054 0.0
C14 C 0.28985 0.716 0.80547 0.0
C15 C 0.28299 0.75495 0.7697 0.0
C16 C 0.23794 0.76882 0.75313 0.0
C17 C 0.1995 0.7401 0.76967 0.0
H18 H 0.67349 0.77718 0.25996 0.0
H19 H 0.80521 0.75209 0.33802 0.0
H20 H 0.76141 0.65694 0.21116 0.0
C21 C 0.70513 0.75566 0.26519 0.0
C22 C 0.71372 0.71556 0.23121 0.0
C23 C 0.73767 0.76944 0.30403 0.0
C24 C 0.77858 0.74082 0.31002 0.0
C25 C 0.78733 0.69997 0.27703 0.0
C26 C 0.75431 0.68725 0.23805 0.0
H27 H 0.68388 0.17702 0.7727 0.0
H28 H 0.81224 0.24309 0.71727 0.0
H29 H 0.75317 0.28973 0.86472 0.0
C30 C 0.71296 0.20249 0.77826 0.0
C31 C 0.71446 0.23254 0.82346 0.0
C32 C 0.74812 0.20603 0.73964 0.0
C33 C 0.78527 0.23985 0.74713 0.0
C34 C 0.78761 0.27032 0.79206 0.0
C35 C 0.75221 0.26595 0.83032 0.0
H36 H 0.74029 0.8343 0.7308 0.0
H37 H 0.77848 0.69209 0.79115 0.0
H38 H 0.85862 0.75721 0.66529 0.0
C39 C 0.76351 0.80265 0.73081 0.0
C40 C 0.80046 0.80029 0.69413 0.0
C41 C 0.75505 0.76377 0.76585 0.0
C42 C 0.78483 0.72245 0.7644 0.0
C43 C 0.82249 0.71969 0.72851 0.0
C44 C 0.83014 0.75902 0.69354 0.0
H45 H 0.72217 0.23677 0.2526 0.0
H46 H 0.77748 0.35951 0.16485 0.0
H47 H 0.87027 0.26479 0.25132 0.0
C48 C 0.75197 0.25774 0.23824 0.0
C49 C 0.7972 0.24492 0.2551 0.0
C50 C 0.74444 0.29724 0.20333 0.0
C51 C 0.78283 0.32772 0.18978 0.0
C52 C 0.82812 0.31752 0.20905 0.0
C53 C 0.83508 0.27462 0.23932 0.0
H54 H 0.22733 0.26667 0.67301 0.0
H55 H 0.35766 0.23812 0.75249 0.0
H56 H 0.26991 0.3579 0.80343 0.0
C57 C 0.25367 0.27695 0.70178 0.0
C58 C 0.24472 0.31684 0.73588 0.0
C59 C 0.29423 0.24785 0.70751 0.0
C60 C 0.32629 0.26012 0.74746 0.0
C61 C 0.31756 0.29944 0.78251 0.0
C62 C 0.27723 0.32824 0.77582 0.0
H63 H 0.21435 0.77843 0.29053 0.0
H64 H 0.27528 0.7284 0.14533 0.0
H65 H 0.34338 0.84323 0.23536 0.0
C66 C 0.24161 0.78114 0.26092 0.0
C67 C 0.27869 0.81503 0.26811 0.0
C68 C 0.23992 0.74964 0.21681 0.0
C69 C 0.27572 0.7531 0.179 0.0
C70 C 0.31335 0.78662 0.18561 0.0
C71 C 0.31428 0.81775 0.22995 0.0
C72 C 0.9734 0.46759 0.19958 0.0
C73 C 0.09245 0.60053 0.20823 0.0
O74 O 0.98557 0.4824 0.24536 0.0
Zn75 Zn 0.02901 0.53387 0.28453 0.0
O76 O 0.99089 0.48837 0.15904 0.0
Zn77 Zn 0.03158 0.53506 0.19857 0.0
O78 O 0.07803 0.48436 0.2355 0.0
O79 O 0.07018 0.48821 0.32179 0.0
O80 O 0.07517 0.58271 0.166 0.0
O81 O 0.07734 0.58494 0.25259 0.0
O82 O 0.98182 0.57521 0.31964 0.0
O83 O 0.9796 0.58069 0.23325 0.0
C84 C 0.08956 0.46917 0.28129 0.0
C85 C 0.96313 0.59279 0.27834 0.0
C86 C 0.93833 0.4163 0.80318 0.0
C87 C 0.05962 0.548 0.81264 0.0
O88 O 0.95596 0.43334 0.84561 0.0
Zn89 Zn 1.00075 0.4807 0.81385 0.0
O90 O 0.95385 0.432 0.75905 0.0
Zn91 Zn 1.00315 0.48239 0.72763 0.0
O92 O 0.05003 0.44074 0.69252 0.0
O93 O 0.05213 0.43494 0.77891 0.0
O94 O 0.04716 0.53328 0.76694 0.0
O95 O 0.0422 0.5272 0.85325 0.0
O96 O 0.95553 0.53235 0.77723 0.0
O97 O 0.96269 0.52916 0.6908 0.0
C98 C 0.06856 0.42293 0.7338 0.0
C99 C 0.94414 0.54833 0.73174 0.0
C100 C 0.22617 0.93188 0.60634 0.0
C101 C 0.21152 0.05707 0.4687 0.0
O102 O 0.18854 0.95015 0.58825 0.0
Zn103 Zn 0.21646 0.99545 0.53734 0.0
O104 O 0.26583 0.94615 0.58793 0.0
Zn105 Zn 0.2915 0.99516 0.52913 0.0
O106 O 0.32915 0.04266 0.56851 0.0
O107 O 0.25278 0.05097 0.58173 0.0
O108 O 0.25381 0.04382 0.47786 0.0
O109 O 0.17755 0.03873 0.49495 0.0
O110 O 0.24305 0.94762 0.4775 0.0
O111 O 0.32046 0.95139 0.47755 0.0
C112 C 0.29504 0.06546 0.58978 0.0
C113 C 0.28255 0.93441 0.45795 0.0
C114 C 0.59097 0.70096 0.05099 0.0
C115 C 0.4682 0.70027 0.91419 0.0
O116 O 0.57234 0.66159 0.0324 0.0
Zn117 Zn 0.53177 0.69456 0.98007 0.0
O118 O 0.57895 0.74292 0.03258 0.0
Zn119 Zn 0.53482 0.7759 0.97727 0.0
O120 O 0.49239 0.81377 0.02306 0.0
O121 O 0.48497 0.73273 0.03052 0.0
O122 O 0.48541 0.7423 0.92731 0.0
O123 O 0.48509 0.66101 0.93423 0.0
O124 O 0.58143 0.72437 0.92602 0.0
O125 O 0.57973 0.80604 0.92913 0.0
C126 C 0.47223 0.77637 0.04379 0.0
C127 C 0.59694 0.76634 0.91018 0.0
C128 C 0.80821 0.95771 0.54176 0.0
C129 C 0.80724 0.08469 0.4041 0.0
O130 O 0.76793 0.97414 0.52842 0.0
Zn131 Zn 0.73558 0.0255 0.47724 0.0
O132 O 0.84531 0.97598 0.52115 0.0
Zn133 Zn 0.8118 0.02196 0.4749 0.0
O134 O 0.78399 0.07077 0.5323 0.0
O135 O 0.70669 0.0708 0.52818 0.0
O136 O 0.84354 0.06608 0.4251 0.0
O137 O 0.76642 0.07191 0.42025 0.0
O138 O 0.699 0.97908 0.43479 0.0
O139 O 0.7758 0.96824 0.42773 0.0
C140 C 0.74443 0.08604 0.54974 0.0
C141 C 0.73377 0.95499 0.41648 0.0
C142 C 0.56392 0.31289 0.09883 0.0
C143 C 0.4386 0.31227 0.96472 0.0
O144 O 0.5464 0.27093 0.08595 0.0
Zn145 Zn 0.49595 0.23734 0.03726 0.0
O146 O 0.54644 0.35229 0.07969 0.0
Zn147 Zn 0.49864 0.31885 0.0351 0.0
O148 O 0.45068 0.28878 0.0908 0.0
O149 O 0.45193 0.20717 0.08703 0.0
O150 O 0.45702 0.35163 0.98362 0.0
O151 O 0.45098 0.27028 0.98275 0.0
O152 O 0.53827 0.20023 0.98996 0.0
O153 O 0.54476 0.28138 0.98337 0.0
C154 C 0.43558 0.24681 0.10712 0.0
C155 C 0.55777 0.23807 0.96927 0.0
C156 C 0.16314 0.36352 0.3348 0.0
C157 C 0.18257 0.34379 0.28824 0.0
H158 H 0.11878 0.41894 0.36953 0.0
C159 C 0.17247 0.36693 0.24036 0.0
H160 H 0.17065 0.34688 0.37246 0.0
C161 C 0.1434 0.40823 0.23881 0.0
C162 C 0.12324 0.42758 0.28506 0.0
H163 H 0.1861 0.35242 0.20366 0.0
H164 H 0.13607 0.42441 0.20087 0.0
C165 C 0.13375 0.40503 0.33323 0.0
C166 C 0.15957 0.63419 0.85443 0.0
C167 C 0.1657 0.66215 0.80813 0.0
H168 H 0.1206 0.57606 0.89308 0.0
C169 C 0.13439 0.65424 0.76638 0.0
H170 H 0.18274 0.63961 0.88765 0.0
C171 C 0.09897 0.61899 0.7699 0.0
C172 C 0.09377 0.58956 0.81495 0.0
H173 H 0.1382 0.6739 0.72964 0.0
H174 H 0.07634 0.61386 0.73611 0.0
C175 C 0.12373 0.59818 0.85787 0.0
C176 C 0.85817 0.66567 0.23226 0.0
C177 C 0.83329 0.67418 0.27901 0.0
H178 H 0.91853 0.63461 0.19565 0.0
C179 C 0.85298 0.6586 0.32683 0.0
H180 H 0.84458 0.67829 0.19495 0.0
C181 C 0.89596 0.63327 0.32743 0.0
C182 C 0.92012 0.62362 0.28023 0.0
H183 H 0.83461 0.66496 0.36354 0.0
H184 H 0.90969 0.62039 0.36455 0.0
C185 C 0.90093 0.64092 0.23285 0.0
C186 C 0.84808 0.3188 0.84501 0.0
C187 C 0.82551 0.30856 0.79683 0.0
H188 H 0.90166 0.3608 0.88525 0.0
C189 C 0.83953 0.33523 0.75222 0.0
H190 H 0.83821 0.2989 0.88019 0.0
C191 C 0.87579 0.36992 0.75502 0.0
C192 C 0.89913 0.37965 0.80267 0.0
H193 H 0.82222 0.32959 0.7148 0.0
H194 H 0.88535 0.38932 0.7194 0.0
C195 C 0.88454 0.35409 0.84792 0.0
C196 C 0.19864 0.18228 0.40808 0.0
C197 C 0.21612 0.17342 0.357 0.0
H198 H 0.18211 0.15136 0.48354 0.0
C199 C 0.2247 0.12425 0.34139 0.0
H200 H 0.19216 0.21959 0.42186 0.0
C201 C 0.21951 0.08553 0.37707 0.0
C202 C 0.20432 0.09492 0.42855 0.0
H203 H 0.237 0.11573 0.3021 0.0
H204 H 0.22937 0.04844 0.36514 0.0
C205 C 0.19261 0.14326 0.44347 0.0
C206 C 0.36566 0.75077 0.83889 0.0
C207 C 0.33726 0.709 0.82967 0.0
H208 H 0.42887 0.7803 0.86968 0.0
C209 C 0.35416 0.66235 0.8456 0.0
H210 H 0.35393 0.78763 0.82914 0.0
C211 C 0.39777 0.65822 0.8713 0.0
C212 C 0.42537 0.7006 0.88091 0.0
H213 H 0.33366 0.62913 0.83877 0.0
H214 H 0.40922 0.6223 0.88474 0.0
C215 C 0.40902 0.74655 0.86307 0.0
C216 C 0.71159 0.85861 0.31146 0.0
C217 C 0.7311 0.8161 0.33488 0.0
H218 H 0.69619 0.93621 0.31947 0.0
C219 C 0.74683 0.81951 0.3871 0.0
H220 H 0.69986 0.85788 0.27104 0.0
C221 C 0.74545 0.86458 0.41408 0.0
C222 C 0.72741 0.90702 0.39 0.0
H223 H 0.76118 0.7876 0.40686 0.0
H224 H 0.7596 0.86661 0.45355 0.0
C225 C 0.70949 0.90363 0.33897 0.0
C226 C 0.65573 0.2775 0.87811 0.0
C227 C 0.67449 0.23235 0.86111 0.0
H228 H 0.60455 0.31448 0.92436 0.0
C229 C 0.65375 0.18799 0.8789 0.0
H230 H 0.67009 0.31228 0.86429 0.0
C231 C 0.61543 0.18905 0.9138 0.0
C232 C 0.59703 0.23453 0.93098 0.0
H233 H 0.66753 0.15257 0.86631 0.0
H234 H 0.60047 0.15451 0.92746 0.0
C235 C 0.61764 0.27859 0.91235 0.0
C236 C 0.26288 0.85342 0.7214 0.0
C237 C 0.23172 0.81282 0.71809 0.0
H238 H 0.28571 0.92224 0.6884 0.0
C239 C 0.19588 0.81426 0.67991 0.0
H240 H 0.28993 0.85498 0.75117 0.0
C241 C 0.19236 0.85428 0.64522 0.0
C242 C 0.22525 0.89308 0.64708 0.0
H243 H 0.17146 0.78375 0.67538 0.0
H244 H 0.16535 0.85367 0.61532 0.0
C245 C 0.26017 0.89248 0.68581 0.0
C246 C 0.66423 0.66292 0.16962 0.0
C247 C 0.68403 0.7089 0.18389 0.0
H248 H 0.61852 0.62379 0.11603 0.0
C249 C 0.67574 0.75009 0.15218 0.0
H250 H 0.67059 0.63047 0.19332 0.0
C251 C 0.64699 0.74626 0.1084 0.0
C252 C 0.62518 0.70111 0.09491 0.0
H253 H 0.6915 0.78567 0.1614 0.0
H254 H 0.64131 0.77942 0.08558 0.0
C255 C 0.63467 0.65908 0.12546 0.0
C256 C 0.70347 0.16623 0.66445 0.0
C257 C 0.74612 0.17516 0.69097 0.0
H258 H 0.66918 0.13133 0.5987 0.0
C259 C 0.78753 0.155 0.67012 0.0
H260 H 0.67095 0.18171 0.67909 0.0
C261 C 0.78659 0.12715 0.62393 0.0
C262 C 0.74413 0.11803 0.59732 0.0
H263 H 0.82085 0.1602 0.68986 0.0
H264 H 0.81942 0.11211 0.60958 0.0
C265 C 0.70246 0.13779 0.61813 0.0
C266 C 0.33305 0.20517 0.19282 0.0
C267 C 0.32204 0.24924 0.21999 0.0
H268 H 0.37765 0.16949 0.13602 0.0
C269 C 0.35068 0.29102 0.21191 0.0
H270 H 0.31161 0.17232 0.19776 0.0
C271 C 0.388 0.28948 0.17629 0.0
C272 C 0.3982 0.24599 0.14795 0.0
H273 H 0.34416 0.32522 0.23298 0.0
H274 H 0.40867 0.32278 0.17064 0.0
C275 C 0.37083 0.20352 0.1573 0.0
C276 C 0.86936 0.65412 0.68061 0.0
C277 C 0.85357 0.6756 0.72802 0.0
H278 H 0.9102 0.59661 0.64419 0.0
C279 C 0.86735 0.65437 0.77569 0.0
H280 H 0.85896 0.66935 0.64315 0.0
C281 C 0.89581 0.6127 0.77622 0.0
C282 C 0.91185 0.5911 0.72907 0.0
H283 H 0.85665 0.67039 0.81291 0.0
H284 H 0.90574 0.59788 0.81404 0.0
C285 C 0.89833 0.61223 0.68113 0.0
C286 C 0.8978 0.36191 0.24506 0.0
C287 C 0.86754 0.35348 0.20248 0.0
H288 H 0.95505 0.40267 0.27651 0.0
C289 C 0.87433 0.38119 0.15617 0.0
H290 H 0.89332 0.34241 0.28182 0.0
C291 C 0.91009 0.41729 0.15337 0.0
C292 C 0.93921 0.42621 0.19696 0.0
H293 H 0.85183 0.37538 0.12246 0.0
H294 H 0.9139 0.43915 0.11806 0.0
C295 C 0.93314 0.39722 0.24218 0.0
C296 C 0.17321 0.34995 0.78021 0.0
C297 C 0.19889 0.34277 0.73377 0.0
H298 H 0.11194 0.37948 0.8163 0.0
C299 C 0.17984 0.3592 0.68594 0.0
H300 H 0.18631 0.33659 0.81745 0.0
C301 C 0.13662 0.38401 0.68507 0.0
C302 C 0.11163 0.39229 0.73199 0.0
H303 H 0.19884 0.35382 0.64946 0.0
H304 H 0.12339 0.3976 0.64802 0.0
C305 C 0.13021 0.37419 0.77934 0.0
C306 C 0.18047 0.69927 0.16476 0.0
C307 C 0.20263 0.71086 0.21281 0.0
H308 H 0.12798 0.65531 0.1252 0.0
C309 C 0.18905 0.6848 0.25797 0.0
H310 H 0.19012 0.7187 0.1292 0.0
C311 C 0.15359 0.64925 0.25576 0.0
C312 C 0.1307 0.63809 0.2082 0.0
H313 H 0.20615 0.69155 0.29532 0.0
H314 H 0.14433 0.6303 0.29176 0.0
C315 C 0.14482 0.66313 0.16246 0.0
C316 C 0.84804 0.86194 0.64146 0.0
C317 C 0.80478 0.83919 0.65364 0.0
H318 H 0.8835 0.91812 0.5963 0.0
C319 C 0.76432 0.85402 0.62703 0.0
H320 H 0.87982 0.85085 0.6614 0.0
C321 C 0.76636 0.89184 0.59053 0.0
C322 C 0.809 0.91612 0.57928 0.0
H323 H 0.73077 0.8363 0.63451 0.0
H324 H 0.734 0.90209 0.57121 0.0
C325 C 0.85014 0.90033 0.60444 0.0
C326 C 0.66916 0.26198 0.16914 0.0
C327 C 0.69684 0.30401 0.17957 0.0
H328 H 0.60604 0.23217 0.13852 0.0
C329 C 0.67888 0.35081 0.16567 0.0
H330 H 0.68176 0.22508 0.1773 0.0
C331 C 0.63476 0.3549 0.14106 0.0
C332 C 0.60772 0.31231 0.13052 0.0
H333 H 0.69888 0.38419 0.17344 0.0
H334 H 0.62238 0.39102 0.12937 0.0
C335 C 0.62533 0.26611 0.14602 0.0
C336 C 0.28531 0.20055 0.62262 0.0
C337 C 0.30055 0.20211 0.67514 0.0
H338 H 0.27173 0.15549 0.55472 0.0
C339 C 0.3187 0.15849 0.69753 0.0
H340 H 0.27197 0.23338 0.60367 0.0
C341 C 0.31975 0.11417 0.66876 0.0
C342 C 0.30222 0.11263 0.61745 0.0
H343 H 0.33002 0.15785 0.73809 0.0
H344 H 0.33196 0.08069 0.68743 0.0
C345 C 0.28563 0.15615 0.59435 0.0
C346 C 0.37299 0.73982 0.13428 0.0
C347 C 0.35394 0.78552 0.14901 0.0
H348 H 0.42501 0.70134 0.09066 0.0
C349 C 0.37499 0.82927 0.13012 0.0
H350 H 0.35834 0.70554 0.1491 0.0
C351 C 0.41392 0.82704 0.09624 0.0
C352 C 0.43254 0.78101 0.08122 0.0
H353 H 0.36099 0.86507 0.14104 0.0
H354 H 0.42912 0.8611 0.08161 0.0
C355 C 0.41167 0.73758 0.10101 0.0
C356 C 0.83846 0.20149 0.33006 0.0
C357 C 0.80422 0.20115 0.29002 0.0
H358 H 0.86709 0.16409 0.39711 0.0
C359 C 0.77503 0.15922 0.28501 0.0
H360 H 0.86136 0.23315 0.33566 0.0
C361 C 0.77766 0.12055 0.32098 0.0
C362 C 0.81047 0.12192 0.362 0.0
H363 H 0.74931 0.15656 0.25384 0.0
H364 H 0.75328 0.08982 0.31732 0.0
C365 C 0.84184 0.16197 0.3654 0.0
C366 C 0.36546 0.35139 0.84635 0.0
C367 C 0.34708 0.30528 0.83019 0.0
H368 H 0.40944 0.39031 0.90186 0.0
C369 C 0.35638 0.26339 0.86052 0.0
H370 H 0.35837 0.38437 0.82377 0.0
C371 C 0.38459 0.2668 0.90485 0.0
C372 C 0.40485 0.31222 0.92029 0.0
H373 H 0.34174 0.22764 0.84992 0.0
H374 H 0.39108 0.23315 0.92655 0.0
C375 C 0.39446 0.35481 0.89101 0.0
C376 C 0.23925 0.86671 0.33704 0.0
C377 C 0.28061 0.84623 0.31644 0.0
H378 H 0.20746 0.90974 0.39763 0.0
C379 C 0.32322 0.85474 0.34314 0.0
H380 H 0.20598 0.86176 0.3171 0.0
C381 C 0.32424 0.88303 0.38946 0.0
C382 C 0.28261 0.90293 0.41016 0.0
H383 H 0.35568 0.83893 0.32873 0.0
H384 H 0.35747 0.88909 0.40912 0.0
C385 C 0.24018 0.89438 0.38334 0.0
C386 C 0.70078 0.80953 0.82782 0.0
C387 C 0.71393 0.76534 0.80222 0.0
H388 H 0.65332 0.84483 0.88178 0.0
C389 C 0.68704 0.72246 0.81103 0.0
H390 H 0.7209 0.8432 0.82225 0.0
C391 C 0.64874 0.72336 0.8453 0.0
C392 C 0.63594 0.76725 0.87148 0.0
H393 H 0.6953 0.68808 0.7911 0.0
H394 H 0.62918 0.68938 0.85131 0.0
C395 C 0.66209 0.81051 0.86199 0.0
loop_
_geom_bond_atom_site_label_1
_geom_bond_atom_site_label_2
_geom_bond_distance
_geom_bond_site_symmetry_2
_ccdc_geom_bond_type
H0 C3 0.931 . S
H1 C6 0.928 . S
H2 C8 0.930 . S
C3 H0 0.931 . S
C3 C4 1.413 . S
C3 C5 1.360 . S
C4 C3 1.413 . S
C4 C8 1.429 . S
C5 C3 1.360 . S
C5 C6 1.372 . S
C6 H1 0.928 . S
C6 C5 1.372 . S
C6 C7 1.404 . S
C7 C6 1.404 . S
C7 C8 1.391 . S
C8 H2 0.930 . S
C8 C4 1.429 . S
C8 C7 1.391 . S
H9 C12 0.931 . S
H10 C15 0.928 . S
H11 C17 0.930 . S
C12 H9 0.931 . S
C12 C13 1.413 . S
C12 C14 1.360 . S
C13 C12 1.413 . S
C13 C17 1.429 . S
C14 C12 1.360 . S
C14 C15 1.372 . S
C15 H10 0.928 . S
C15 C14 1.372 . S
C15 C16 1.404 . S
C16 C15 1.404 . S
C16 C17 1.391 . S
C17 H11 0.930 . S
C17 C13 1.429 . S
C17 C16 1.391 . S
H18 C21 0.931 . S
H19 C24 0.928 . S
H20 C26 0.930 . S
C21 H18 0.931 . S
C21 C22 1.413 . S
C21 C23 1.360 . S
C22 C21 1.413 . S
C22 C26 1.429 . S
C23 C21 1.360 . S
C23 C24 1.372 . S
C24 H19 0.928 . S
C24 C23 1.372 . S
C24 C25 1.404 . S
C25 C24 1.404 . S
C25 C26 1.391 . S
C26 H20 0.930 . S
C26 C22 1.429 . S
C26 C25 1.391 . S
H27 C30 0.931 . S
H28 C33 0.928 . S
H29 C35 0.930 . S
C30 H27 0.931 . S
C30 C31 1.413 . S
C30 C32 1.360 . S
C31 C30 1.413 . S
C31 C35 1.429 . S
C32 C30 1.360 . S
C32 C33 1.372 . S
C33 H28 0.928 . S
C33 C32 1.372 . S
C33 C34 1.404 . S
C34 C33 1.404 . S
C34 C35 1.391 . S
C35 H29 0.930 . S
C35 C31 1.429 . S
C35 C34 1.391 . S
H36 C39 0.931 . S
H37 C42 0.928 . S
H38 C44 0.930 . S
C39 H36 0.931 . S
C39 C40 1.413 . S
C39 C41 1.360 . S
C40 C39 1.413 . S
C40 C44 1.429 . S
C41 C39 1.360 . S
C41 C42 1.372 . S
C42 H37 0.928 . S
C42 C41 1.372 . S
C42 C43 1.404 . S
C43 C42 1.404 . S
C43 C44 1.391 . S
C44 H38 0.930 . S
C44 C40 1.429 . S
C44 C43 1.391 . S
H45 C48 0.931 . S
H46 C51 0.928 . S
H47 C53 0.930 . S
C48 H45 0.931 . S
C48 C49 1.413 . S
C48 C50 1.360 . S
C49 C48 1.413 . S
C49 C53 1.429 . S
C50 C48 1.360 . S
C50 C51 1.372 . S
C51 H46 0.928 . S
C51 C50 1.372 . S
C51 C52 1.404 . S
C52 C51 1.404 . S
C52 C53 1.391 . S
C53 H47 0.930 . S
C53 C49 1.429 . S
C53 C52 1.391 . S
H54 C57 0.931 . S
H55 C60 0.928 . S
H56 C62 0.930 . S
C57 H54 0.931 . S
C57 C58 1.413 . S
C57 C59 1.360 . S
C58 C57 1.413 . S
C58 C62 1.429 . S
C59 C57 1.360 . S
C59 C60 1.372 . S
C60 H55 0.928 . S
C60 C59 1.372 . S
C60 C61 1.404 . S
C61 C60 1.404 . S
C61 C62 1.391 . S
C62 H56 0.930 . S
C62 C58 1.429 . S
C62 C61 1.391 . S
H63 C66 0.931 . S
H64 C69 0.928 . S
H65 C71 0.930 . S
C66 H63 0.931 . S
C66 C67 1.413 . S
C66 C68 1.360 . S
C67 C66 1.413 . S
C67 C71 1.429 . S
C68 C66 1.360 . S
C68 C69 1.372 . S
C69 H64 0.928 . S
C69 C68 1.372 . S
C69 C70 1.404 . S
C70 C69 1.404 . S
C70 C71 1.391 . S
C71 H65 0.930 . S
C71 C67 1.429 . S
C71 C70 1.391 . S
C72 O74 1.247 . S
C72 O76 1.258 . S
C73 O80 1.247 . S
C73 O81 1.258 . S
O74 C72 1.247 . S
O74 Zn75 2.028 1_655 S
Zn75 O74 2.028 1_455 S
Zn75 O79 2.035 . S
Zn75 O81 2.035 . S
Zn75 O82 2.028 1_455 S
O76 C72 1.258 . S
O76 Zn77 2.035 1_655 S
Zn77 O76 2.035 1_455 S
Zn77 O78 2.028 . S
Zn77 O80 2.028 . S
Zn77 O83 2.035 1_455 S
O78 Zn77 2.028 . S
O78 C84 1.247 . S
O79 Zn75 2.035 . S
O79 C84 1.258 . S
O80 C73 1.247 . S
O80 Zn77 2.028 . S
O81 C73 1.258 . S
O81 Zn75 2.035 . S
O82 Zn75 2.028 1_655 S
O82 C85 1.247 . S
O83 Zn77 2.035 1_655 S
O83 C85 1.258 . S
C84 O78 1.247 . S
C84 O79 1.258 . S
C85 O82 1.247 . S
C85 O83 1.258 . S
C86 O88 1.247 . S
C86 O90 1.258 . S
C87 O94 1.247 . S
C87 O95 1.258 . S
O88 C86 1.247 . S
O88 Zn89 2.028 1_655 S
Zn89 O88 2.028 1_455 S
Zn89 O93 2.035 . S
Zn89 O95 2.035 . S
Zn89 O96 2.028 1_455 S
O90 C86 1.258 . S
O90 Zn91 2.035 1_655 S
Zn91 O90 2.035 1_455 S
Zn91 O92 2.028 . S
Zn91 O94 2.028 . S
Zn91 O97 2.035 1_455 S
O92 Zn91 2.028 . S
O92 C98 1.247 . S
O93 Zn89 2.035 . S
O93 C98 1.258 . S
O94 C87 1.247 . S
O94 Zn91 2.028 . S
O95 C87 1.258 . S
O95 Zn89 2.035 . S
O96 Zn89 2.028 1_655 S
O96 C99 1.247 . S
O97 Zn91 2.035 1_655 S
O97 C99 1.258 . S
C98 O92 1.247 . S
C98 O93 1.258 . S
C99 O96 1.247 . S
C99 O97 1.258 . S
C100 O102 1.247 . S
C100 O104 1.258 . S
C101 O108 1.247 . S
C101 O109 1.258 . S
O102 C100 1.247 . S
O102 Zn103 2.022 1_565 S
Zn103 O102 2.022 1_545 S
Zn103 O107 2.041 . S
Zn103 O109 2.041 . S
Zn103 O110 2.022 1_545 S
O104 C100 1.258 . S
O104 Zn105 2.035 1_565 S
Zn105 O104 2.035 1_545 S
Zn105 O106 2.028 . S
Zn105 O108 2.028 . S
Zn105 O111 2.035 1_545 S
O106 Zn105 2.028 . S
O106 C112 1.247 . S
O107 Zn103 2.041 . S
O107 C112 1.258 . S
O108 C101 1.247 . S
O108 Zn105 2.028 . S
O109 C101 1.258 . S
O109 Zn103 2.041 . S
O110 Zn103 2.022 1_565 S
O110 C113 1.247 . S
O111 Zn105 2.035 1_565 S
O111 C113 1.258 . S
C112 O106 1.247 . S
C112 O107 1.258 . S
C113 O110 1.247 . S
C113 O111 1.258 . S
C114 O116 1.247 . S
C114 O118 1.258 . S
C115 O122 1.247 . S
C115 O123 1.258 . S
O116 C114 1.247 . S
O116 Zn117 2.028 1_554 S
Zn117 O116 2.028 1_556 S
Zn117 O121 2.035 1_556 S
Zn117 O123 2.035 . S
Zn117 O124 2.028 . S
O118 C114 1.258 . S
O118 Zn119 2.046 . S
Zn119 O118 2.046 . S
Zn119 O120 2.039 . S
Zn119 O122 2.017 1_554 S
Zn119 O125 2.024 1_554 S
O120 Zn119 2.039 . S
O120 C126 1.247 . S
O121 Zn117 2.035 1_554 S
O121 C126 1.258 . S
O122 C115 1.247 . S
O122 Zn119 2.017 1_556 S
O123 C115 1.258 . S
O123 Zn117 2.035 . S
O124 Zn117 2.028 . S
O124 C127 1.247 . S
O125 Zn119 2.024 1_556 S
O125 C127 1.258 . S
C126 O120 1.247 . S
C126 O121 1.258 . S
C127 O124 1.247 . S
C127 O125 1.258 . S
C128 O130 1.247 . S
C128 O132 1.258 . S
C129 O136 1.247 . S
C129 O137 1.258 . S
O130 C128 1.247 . S
O130 Zn131 2.028 1_565 S
Zn131 O130 2.028 1_545 S
Zn131 O135 2.035 . S
Zn131 O137 2.035 . S
Zn131 O138 2.028 1_545 S
O132 C128 1.258 . S
O132 Zn133 2.019 1_565 S
Zn133 O132 2.019 1_545 S
Zn133 O134 2.044 . S
Zn133 O136 2.044 . S
Zn133 O139 2.019 1_545 S
O134 Zn133 2.044 . S
O134 C140 1.247 . S
O135 Zn131 2.035 . S
O135 C140 1.258 . S
O136 C129 1.247 . S
O136 Zn133 2.044 . S
O137 C129 1.258 . S
O137 Zn131 2.035 . S
O138 Zn131 2.028 1_565 S
O138 C141 1.247 . S
O139 Zn133 2.019 1_565 S
O139 C141 1.258 . S
C140 O134 1.247 . S
C140 O135 1.258 . S
C141 O138 1.247 . S
C141 O139 1.258 . S
C142 O144 1.247 . S
C142 O146 1.258 . S
C143 O150 1.247 . S
C143 O151 1.258 . S
O144 C142 1.247 . S
O144 Zn145 2.028 . S
Zn145 O144 2.028 . S
Zn145 O149 2.035 . S
Zn145 O151 2.035 1_554 S
Zn145 O152 2.028 1_554 S
O146 C142 1.258 . S
O146 Zn147 2.035 . S
Zn147 O146 2.035 . S
Zn147 O148 2.028 . S
Zn147 O150 2.028 1_554 S
Zn147 O153 2.035 1_554 S
O148 Zn147 2.028 . S
O148 C154 1.247 . S
O149 Zn145 2.035 . S
O149 C154 1.258 . S
O150 C143 1.247 . S
O150 Zn147 2.028 1_556 S
O151 C143 1.258 . S
O151 Zn145 2.035 1_556 S
O152 Zn145 2.028 1_556 S
O152 C155 1.247 . S
O153 Zn147 2.035 1_556 S
O153 C155 1.258 . S
C154 O148 1.247 . S
C154 O149 1.258 . S
C155 O152 1.247 . S
C155 O153 1.258 . S
C156 C157 1.387 . S
C156 H160 0.950 . S
C156 C165 1.390 . S
C157 C156 1.387 . S
C157 C159 1.387 . S
H158 C165 0.950 . S
C159 C157 1.387 . S
C159 C161 1.390 . S
C159 H163 0.950 . S
H160 C156 0.950 . S
C161 C159 1.390 . S
C161 C162 1.387 . S
C161 H164 0.950 . S
C162 C161 1.387 . S
C162 C165 1.387 . S
H163 C159 0.950 . S
H164 C161 0.950 . S
C165 C156 1.390 . S
C165 H158 0.950 . S
C165 C162 1.387 . S
C166 C167 1.387 . S
C166 H170 0.950 . S
C166 C175 1.390 . S
C167 C166 1.387 . S
C167 C169 1.387 . S
H168 C175 0.950 . S
C169 C167 1.387 . S
C169 C171 1.390 . S
C169 H173 0.950 . S
H170 C166 0.950 . S
C171 C169 1.390 . S
C171 C172 1.387 . S
C171 H174 0.950 . S
C172 C171 1.387 . S
C172 C175 1.387 . S
H173 C169 0.950 . S
H174 C171 0.950 . S
C175 C166 1.390 . S
C175 H168 0.950 . S
C175 C172 1.387 . S
C176 C177 1.387 . S
C176 H180 0.950 . S
C176 C185 1.390 . S
C177 C176 1.387 . S
C177 C179 1.387 . S
H178 C185 0.950 . S
C179 C177 1.387 . S
C179 C181 1.390 . S
C179 H183 0.950 . S
H180 C176 0.950 . S
C181 C179 1.390 . S
C181 C182 1.387 . S
C181 H184 0.950 . S
C182 C181 1.387 . S
C182 C185 1.387 . S
H183 C179 0.950 . S
H184 C181 0.950 . S
C185 C176 1.390 . S
C185 H178 0.950 . S
C185 C182 1.387 . S
C186 C187 1.387 . S
C186 H190 0.950 . S
C186 C195 1.390 . S
C187 C186 1.387 . S
C187 C189 1.387 . S
H188 C195 0.950 . S
C189 C187 1.387 . S
C189 C191 1.390 . S
C189 H193 0.950 . S
H190 C186 0.950 . S
C191 C189 1.390 . S
C191 C192 1.387 . S
C191 H194 0.950 . S
C192 C191 1.387 . S
C192 C195 1.387 . S
H193 C189 0.950 . S
H194 C191 0.950 . S
C195 C186 1.390 . S
C195 H188 0.950 . S
C195 C192 1.387 . S
C196 C197 1.387 . S
C196 H200 0.950 . S
C196 C205 1.390 . S
C197 C196 1.387 . S
C197 C199 1.387 . S
H198 C205 0.950 . S
C199 C197 1.387 . S
C199 C201 1.390 . S
C199 H203 0.950 . S
H200 C196 0.950 . S
C201 C199 1.390 . S
C201 C202 1.387 . S
C201 H204 0.950 . S
C202 C201 1.387 . S
C202 C205 1.387 . S
H203 C199 0.950 . S
H204 C201 0.950 . S
C205 C196 1.390 . S
C205 H198 0.950 . S
C205 C202 1.387 . S
C206 C207 1.387 . S
C206 H210 0.950 . S
C206 C215 1.390 . S
C207 C206 1.387 . S
C207 C209 1.387 . S
H208 C215 0.950 . S
C209 C207 1.387 . S
C209 C211 1.390 . S
C209 H213 0.950 . S
H210 C206 0.950 . S
C211 C209 1.390 . S
C211 C212 1.387 . S
C211 H214 0.950 . S
C212 C211 1.387 . S
C212 C215 1.387 . S
H213 C209 0.950 . S
H214 C211 0.950 . S
C215 C206 1.390 . S
C215 H208 0.950 . S
C215 C212 1.387 . S
C216 C217 1.387 . S
C216 H220 0.950 . S
C216 C225 1.390 . S
C217 C216 1.387 . S
C217 C219 1.387 . S
H218 C225 0.950 . S
C219 C217 1.387 . S
C219 C221 1.390 . S
C219 H223 0.950 . S
H220 C216 0.950 . S
C221 C219 1.390 . S
C221 C222 1.387 . S
C221 H224 0.950 . S
C222 C221 1.387 . S
C222 C225 1.387 . S
H223 C219 0.950 . S
H224 C221 0.950 . S
C225 C216 1.390 . S
C225 H218 0.950 . S
C225 C222 1.387 . S
C226 C227 1.387 . S
C226 H230 0.950 . S
C226 C235 1.390 . S
C227 C226 1.387 . S
C227 C229 1.387 . S
H228 C235 0.950 . S
C229 C227 1.387 . S
C229 C231 1.390 . S
C229 H233 0.950 . S
H230 C226 0.950 . S
C231 C229 1.390 . S
C231 C232 1.387 . S
C231 H234 0.950 . S
C232 C231 1.387 . S
C232 C235 1.387 . S
H233 C229 0.950 . S
H234 C231 0.950 . S
C235 C226 1.390 . S
C235 H228 0.950 . S
C235 C232 1.387 . S
C236 C237 1.387 . S
C236 H240 0.950 . S
C236 C245 1.390 . S
C237 C236 1.387 . S
C237 C239 1.387 . S
H238 C245 0.950 . S
C239 C237 1.387 . S
C239 C241 1.390 . S
C239 H243 0.950 . S
H240 C236 0.950 . S
C241 C239 1.390 . S
C241 C242 1.387 . S
C241 H244 0.950 . S
C242 C241 1.387 . S
C242 C245 1.387 . S
H243 C239 0.950 . S
H244 C241 0.950 . S
C245 C236 1.390 . S
C245 H238 0.950 . S
C245 C242 1.387 . S
C246 C247 1.387 . S
C246 H250 0.950 . S
C246 C255 1.390 . S
C247 C246 1.387 . S
C247 C249 1.387 . S
H248 C255 0.950 . S
C249 C247 1.387 . S
C249 C251 1.390 . S
C249 H253 0.950 . S
H250 C246 0.950 . S
C251 C249 1.390 . S
C251 C252 1.387 . S
C251 H254 0.950 . S
C252 C251 1.387 . S
C252 C255 1.387 . S
H253 C249 0.950 . S
H254 C251 0.950 . S
C255 C246 1.390 . S
C255 H248 0.950 . S
C255 C252 1.387 . S
C256 C257 1.387 . S
C256 H260 0.950 . S
C256 C265 1.390 . S
C257 C256 1.387 . S
C257 C259 1.387 . S
H258 C265 0.950 . S
C259 C257 1.387 . S
C259 C261 1.390 . S
C259 H263 0.950 . S
H260 C256 0.950 . S
C261 C259 1.390 . S
C261 C262 1.387 . S
C261 H264 0.950 . S
C262 C261 1.387 . S
C262 C265 1.387 . S
H263 C259 0.950 . S
H264 C261 0.950 . S
C265 C256 1.390 . S
C265 H258 0.950 . S
C265 C262 1.387 . S
C266 C267 1.387 . S
C266 H270 0.950 . S
C266 C275 1.390 . S
C267 C266 1.387 . S
C267 C269 1.387 . S
H268 C275 0.950 . S
C269 C267 1.387 . S
C269 C271 1.390 . S
C269 H273 0.950 . S
H270 C266 0.950 . S
C271 C269 1.390 . S
C271 C272 1.387 . S
C271 H274 0.950 . S
C272 C271 1.387 . S
C272 C275 1.387 . S
H273 C269 0.950 . S
H274 C271 0.950 . S
C275 C266 1.390 . S
C275 H268 0.950 . S
C275 C272 1.387 . S
C276 C277 1.387 . S
C276 H280 0.950 . S
C276 C285 1.390 . S
C277 C276 1.387 . S
C277 C279 1.387 . S
H278 C285 0.950 . S
C279 C277 1.387 . S
C279 C281 1.390 . S
C279 H283 0.950 . S
H280 C276 0.950 . S
C281 C279 1.390 . S
C281 C282 1.387 . S
C281 H284 0.950 . S
C282 C281 1.387 . S
C282 C285 1.387 . S
H283 C279 0.950 . S
H284 C281 0.950 . S
C285 C276 1.390 . S
C285 H278 0.950 . S
C285 C282 1.387 . S
C286 C287 1.387 . S
C286 H290 0.950 . S
C286 C295 1.390 . S
C287 C286 1.387 . S
C287 C289 1.387 . S
H288 C295 0.950 . S
C289 C287 1.387 . S
C289 C291 1.390 . S
C289 H293 0.950 . S
H290 C286 0.950 . S
C291 C289 1.390 . S
C291 C292 1.387 . S
C291 H294 0.950 . S
C292 C291 1.387 . S
C292 C295 1.387 . S
H293 C289 0.950 . S
H294 C291 0.950 . S
C295 C286 1.390 . S
C295 H288 0.950 . S
C295 C292 1.387 . S
C296 C297 1.387 . S
C296 H300 0.950 . S
C296 C305 1.390 . S
C297 C296 1.387 . S
C297 C299 1.387 . S
H298 C305 0.950 . S
C299 C297 1.387 . S
C299 C301 1.390 . S
C299 H303 0.950 . S
H300 C296 0.950 . S
C301 C299 1.390 . S
C301 C302 1.387 . S
C301 H304 0.950 . S
C302 C301 1.387 . S
C302 C305 1.387 . S
H303 C299 0.950 . S
H304 C301 0.950 . S
C305 C296 1.390 . S
C305 H298 0.950 . S
C305 C302 1.387 . S
C306 C307 1.387 . S
C306 H310 0.950 . S
C306 C315 1.390 . S
C307 C306 1.387 . S
C307 C309 1.387 . S
H308 C315 0.950 . S
C309 C307 1.387 . S
C309 C311 1.390 . S
C309 H313 0.950 . S
H310 C306 0.950 . S
C311 C309 1.390 . S
C311 C312 1.387 . S
C311 H314 0.950 . S
C312 C311 1.387 . S
C312 C315 1.387 . S
H313 C309 0.950 . S
H314 C311 0.950 . S
C315 C306 1.390 . S
C315 H308 0.950 . S
C315 C312 1.387 . S
C316 C317 1.387 . S
C316 H320 0.950 . S
C316 C325 1.390 . S
C317 C316 1.387 . S
C317 C319 1.387 . S
H318 C325 0.950 . S
C319 C317 1.387 . S
C319 C321 1.390 . S
C319 H323 0.950 . S
H320 C316 0.950 . S
C321 C319 1.390 . S
C321 C322 1.387 . S
C321 H324 0.950 . S
C322 C321 1.387 . S
C322 C325 1.387 . S
H323 C319 0.950 . S
H324 C321 0.950 . S
C325 C316 1.390 . S
C325 H318 0.950 . S
C325 C322 1.387 . S
C326 C327 1.387 . S
C326 H330 0.950 . S
C326 C335 1.390 . S
C327 C326 1.387 . S
C327 C329 1.387 . S
H328 C335 0.950 . S
C329 C327 1.387 . S
C329 C331 1.390 . S
C329 H333 0.950 . S
H330 C326 0.950 . S
C331 C329 1.390 . S
C331 C332 1.387 . S
C331 H334 0.950 . S
C332 C331 1.387 . S
C332 C335 1.387 . S
H333 C329 0.950 . S
H334 C331 0.950 . S
C335 C326 1.390 . S
C335 H328 0.950 . S
C335 C332 1.387 . S
C336 C337 1.387 . S
C336 H340 0.950 . S
C336 C345 1.390 . S
C337 C336 1.387 . S
C337 C339 1.387 . S
H338 C345 0.950 . S
C339 C337 1.387 . S
C339 C341 1.390 . S
C339 H343 0.950 . S
H340 C336 0.950 . S
C341 C339 1.390 . S
C341 C342 1.387 . S
C341 H344 0.950 . S
C342 C341 1.387 . S
C342 C345 1.387 . S
H343 C339 0.950 . S
H344 C341 0.950 . S
C345 C336 1.390 . S
C345 H338 0.950 . S
C345 C342 1.387 . S
C346 C347 1.387 . S
C346 H350 0.950 . S
C346 C355 1.390 . S
C347 C346 1.387 . S
C347 C349 1.387 . S
H348 C355 0.950 . S
C349 C347 1.387 . S
C349 C351 1.390 . S
C349 H353 0.950 . S
H350 C346 0.950 . S
C351 C349 1.390 . S
C351 C352 1.387 . S
C351 H354 0.950 . S
C352 C351 1.387 . S
C352 C355 1.387 . S
H353 C349 0.950 . S
H354 C351 0.950 . S
C355 C346 1.390 . S
C355 H348 0.950 . S
C355 C352 1.387 . S
C356 C357 1.387 . S
C356 H360 0.950 . S
C356 C365 1.390 . S
C357 C356 1.387 . S
C357 C359 1.387 . S
H358 C365 0.950 . S
C359 C357 1.387 . S
C359 C361 1.390 . S
C359 H363 0.950 . S
H360 C356 0.950 . S
C361 C359 1.390 . S
C361 C362 1.387 . S
C361 H364 0.950 . S
C362 C361 1.387 . S
C362 C365 1.387 . S
H363 C359 0.950 . S
H364 C361 0.950 . S
C365 C356 1.390 . S
C365 H358 0.950 . S
C365 C362 1.387 . S
C366 C367 1.387 . S
C366 H370 0.950 . S
C366 C375 1.390 . S
C367 C366 1.387 . S
C367 C369 1.387 . S
H368 C375 0.950 . S
C369 C367 1.387 . S
C369 C371 1.390 . S
C369 H373 0.950 . S
H370 C366 0.950 . S
C371 C369 1.390 . S
C371 C372 1.387 . S
C371 H374 0.950 . S
C372 C371 1.387 . S
C372 C375 1.387 . S
H373 C369 0.950 . S
H374 C371 0.950 . S
C375 C366 1.390 . S
C375 H368 0.950 . S
C375 C372 1.387 . S
C376 C377 1.387 . S
C376 H380 0.950 . S
C376 C385 1.390 . S
C377 C376 1.387 . S
C377 C379 1.387 . S
H378 C385 0.950 . S
C379 C377 1.387 . S
C379 C381 1.390 . S
C379 H383 0.950 . S
H380 C376 0.950 . S
C381 C379 1.390 . S
C381 C382 1.387 . S
C381 H384 0.950 . S
C382 C381 1.387 . S
C382 C385 1.387 . S
H383 C379 0.950 . S
H384 C381 0.950 . S
C385 C376 1.390 . S
C385 H378 0.950 . S
C385 C382 1.387 . S
C386 C387 1.387 . S
C386 H390 0.950 . S
C386 C395 1.390 . S
C387 C386 1.387 . S
C387 C389 1.387 . S
H388 C395 0.950 . S
C389 C387 1.387 . S
C389 C391 1.390 . S
C389 H393 0.950 . S
H390 C386 0.950 . S
C391 C389 1.390 . S
C391 C392 1.387 . S
C391 H394 0.950 . S
C392 C391 1.387 . S
C392 C395 1.387 . S
H393 C389 0.950 . S
H394 C391 0.950 . S
C395 C386 1.390 . S
C395 H388 0.950 . S
C395 C392 1.387 . S
C162 C84 1.504 . S
C157 C4 1.505 . S
C172 C87 1.502 . S
C167 C13 1.504 . S
C182 C85 1.503 . S
C177 C25 1.505 . S
C192 C86 1.502 . S
C187 C34 1.504 . S
C202 C101 1.498 . S
C197 C7 1.499 . S
C212 C115 1.504 . S
C207 C14 1.507 . S
C217 C23 1.502 . S
C222 C141 1.502 . S
C232 C155 1.506 . S
C227 C31 1.509 . S
C242 C100 1.497 . S
C237 C16 1.498 . S
C247 C22 1.510 . S
C252 C114 1.508 . S
C262 C140 1.501 . S
C257 C32 1.502 . S
C272 C154 1.505 . S
C267 C5 1.508 . S
C277 C43 1.507 . S
C282 C99 1.505 . S
C292 C72 1.506 . S
C287 C52 1.507 . S
C297 C58 1.504 . S
C302 C98 1.502 . S
C307 C68 1.506 . S
C312 C73 1.504 . S
C322 C128 1.507 . S
C317 C40 1.508 . S
C332 C142 1.503 . S
C327 C50 1.505 . S
C342 C112 1.501 . S
C337 C59 1.503 . S
C347 C70 1.502 . S
C352 C126 1.499 . S
C362 C129 1.507 . S
C357 C49 1.507 . S
C372 C143 1.498 . S
C367 C61 1.501 . S
C382 C113 1.502 . S
C377 C67 1.504 . S
C387 C41 1.506 . S
C392 C127 1.503 . S
