# Generated by pormake.
# Topology pyr, (3,6)-cn, num edge types: 1
# Building blocks:
#     Node 0, Type 0, BuildingBlock: BELTOD_clean_linker_0, # of connection points: 3
#     Node 1, Type 0, BuildingBlock: BELTOD_clean_linker_0, # of connection points: 3
#     Node 2, Type 0, BuildingBlock: BELTOD_clean_linker_0, # of connection points: 3
#     Node 3, Type 0, BuildingBlock: BELTOD_clean_linker_0, # of connection points: 3
#     Node 4, Type 0, BuildingBlock: BELTOD_clean_linker_0, # of connection points: 3
#     Node 5, Type 0, BuildingBlock: BELTOD_clean_linker_0, # of connection points: 3
#     Node 6, Type 0, BuildingBlock: BELTOD_clean_linker_0, # of connection points: 3
#     Node 7, Type 0, BuildingBlock: BELTOD_clean_linker_0, # of connection points: 3
#     Node 8, Type 1, BuildingBlock: GEDQOX_clean_sbu_0, # of connection points: 6
#     Node 9, Type 1, BuildingBlock: GEDQOX_clean_sbu_0, # of connection points: 6
#     Node 10, Type 1, BuildingBlock: GEDQOX_clean_sbu_0, # of connection points: 6
#     Node 11, Type 1, BuildingBlock: GEDQOX_clean_sbu_0, # of connection points: 6
#     Edge 12, Type (0, 1), BuildingBlock: KIFKEQ_clean_linker_1, # of connection points: 2
#     Edge 13, Type (0, 1), BuildingBlock: KIFKEQ_clean_linker_1, # of connection points: 2
#     Edge 14, Type (0, 1), BuildingBlock: KIFKEQ_clean_linker_1, # of connection points: 2
#     Edge 15, Type (0, 1), BuildingBlock: KIFKEQ_clean_linker_1, # of connection points: 2
#     Edge 16, Type (0, 1), BuildingBlock: KIFKEQ_clean_linker_1, # of connection points: 2
#     Edge 17, Type (0, 1), BuildingBlock: KIFKEQ_clean_linker_1, # of connection points: 2
#     Edge 18, Type (0, 1), BuildingBlock: KIFKEQ_clean_linker_1, # of connection points: 2
#     Edge 19, Type (0, 1), BuildingBlock: KIFKEQ_clean_linker_1, # of connection points: 2
#     Edge 20, Type (0, 1), BuildingBlock: KIFKEQ_clean_linker_1, # of connection points: 2
#     Edge 21, Type (0, 1), BuildingBlock: KIFKEQ_clean_linker_1, # of connection points: 2
#     Edge 22, Type (0, 1), BuildingBlock: KIFKEQ_clean_linker_1, # of connection points: 2
#     Edge 23, Type (0, 1), BuildingBlock: KIFKEQ_clean_linker_1, # of connection points: 2
#     Edge 24, Type (0, 1), BuildingBlock: KIFKEQ_clean_linker_1, # of connection points: 2
#     Edge 25, Type (0, 1), BuildingBlock: KIFKEQ_clean_linker_1, # of connection points: 2
#     Edge 26, Type (0, 1), BuildingBlock: KIFKEQ_clean_linker_1, # of connection points: 2
#     Edge 27, Type (0, 1), BuildingBlock: KIFKEQ_clean_linker_1, # of connection points: 2
#     Edge 28, Type (0, 1), BuildingBlock: KIFKEQ_clean_linker_1, # of connection points: 2
#     Edge 29, Type (0, 1), BuildingBlock: KIFKEQ_clean_linker_1, # of connection points: 2
#     Edge 30, Type (0, 1), BuildingBlock: KIFKEQ_clean_linker_1, # of connection points: 2
#     Edge 31, Type (0, 1), BuildingBlock: KIFKEQ_clean_linker_1, # of connection points: 2
#     Edge 32, Type (0, 1), BuildingBlock: KIFKEQ_clean_linker_1, # of connection points: 2
#     Edge 33, Type (0, 1), BuildingBlock: KIFKEQ_clean_linker_1, # of connection points: 2
#     Edge 34, Type (0, 1), BuildingBlock: KIFKEQ_clean_linker_1, # of connection points: 2
#     Edge 35, Type (0, 1), BuildingBlock: KIFKEQ_clean_linker_1, # of connection points: 2
# Relax obj value: 0.110
# Max RMSD: 0.157
# Mean RMSD: 0.059
data_MOF--net-pyr--node1-GEDQOX_clean_sbu_0--node2-BELTOD_clean_linker_0--edge1-KIFKEQ_clean_linker_1
_symmetry_space_group_name_H-M    P1
_symmetry_Int_Tables_number       1
_symmetry_cell_setting            triclinic
loop_
_symmetry_equiv_pos_as_xyz
'x, y, z'
_cell_length_a     45.725035
_cell_length_b     45.971594
_cell_length_c     40.060227
_cell_angle_alpha  86.602735
_cell_angle_beta   90.048806
_cell_angle_gamma 84.632117
loop_
_atom_site_label
_atom_site_type_symbol
_atom_site_fract_x
_atom_site_fract_y
_atom_site_fract_z
_atom_type_partial_charge
P0 P 0.21051 0.20075 0.20464 0.0
H1 H 0.25029 0.22192 0.15387 0.0
H2 H 0.29208 0.19807 0.12472 0.0
H3 H 0.27062 0.11397 0.16637 0.0
H4 H 0.22865 0.138 0.19513 0.0
H5 H 0.19447 0.25997 0.22527 0.0
H6 H 0.16704 0.30322 0.1988 0.0
H7 H 0.14959 0.25431 0.11341 0.0
H8 H 0.17765 0.21069 0.14023 0.0
H9 H 0.22538 0.15743 0.25949 0.0
H10 H 0.14676 0.19249 0.20632 0.0
O11 O 0.23234 0.21441 0.23197 0.0
H12 H 0.19614 0.13045 0.29922 0.0
H13 H 0.11716 0.16489 0.24557 0.0
C14 C 0.23592 0.18186 0.17644 0.0
C15 C 0.25404 0.19826 0.156 0.0
C16 C 0.27825 0.18457 0.13965 0.0
C17 C 0.28509 0.15402 0.14338 0.0
C18 C 0.26603 0.13748 0.16263 0.0
C19 C 0.24187 0.15126 0.17916 0.0
C20 C 0.18871 0.23211 0.18451 0.0
C21 C 0.18496 0.25841 0.20077 0.0
C22 C 0.16923 0.28328 0.18552 0.0
C23 C 0.15635 0.28248 0.15373 0.0
C24 C 0.15922 0.25575 0.13789 0.0
C25 C 0.17535 0.23082 0.15312 0.0
C26 C 0.18838 0.17709 0.22987 0.0
C27 C 0.20179 0.15887 0.25596 0.0
C28 C 0.18493 0.14328 0.2787 0.0
C29 C 0.15407 0.14544 0.27598 0.0
C30 C 0.14077 0.16298 0.24897 0.0
C31 C 0.15773 0.17862 0.22619 0.0
P32 P 0.40185 0.83454 0.71611 0.0
H33 H 0.45128 0.86609 0.73252 0.0
H34 H 0.46618 0.88673 0.78382 0.0
H35 H 0.39888 0.84406 0.83809 0.0
H36 H 0.38488 0.82238 0.7866 0.0
H37 H 0.42577 0.82165 0.65084 0.0
H38 H 0.44535 0.77632 0.62719 0.0
H39 H 0.43872 0.73018 0.7236 0.0
H40 H 0.41904 0.77606 0.74736 0.0
H41 H 0.35239 0.86331 0.75218 0.0
H42 H 0.36555 0.79861 0.67858 0.0
O43 O 0.40624 0.86262 0.68879 0.0
H44 H 0.29943 0.86289 0.74642 0.0
H45 H 0.313 0.7997 0.67072 0.0
C46 C 0.41623 0.84372 0.75556 0.0
C47 C 0.44002 0.86077 0.75555 0.0
C48 C 0.44839 0.87271 0.78487 0.0
C49 C 0.43306 0.86784 0.8148 0.0
C50 C 0.41094 0.84848 0.81538 0.0
C51 C 0.40275 0.83627 0.78592 0.0
C52 C 0.4214 0.80226 0.70098 0.0
C53 C 0.42909 0.80198 0.66715 0.0
C54 C 0.43998 0.77597 0.65354 0.0
C55 C 0.4433 0.7497 0.67349 0.0
C56 C 0.43654 0.75018 0.70772 0.0
C57 C 0.42541 0.77632 0.72132 0.0
C58 C 0.36309 0.83034 0.71662 0.0
C59 C 0.34395 0.84843 0.73541 0.0
C60 C 0.31356 0.84853 0.73162 0.0
C61 C 0.30168 0.8314 0.70789 0.0
C62 C 0.32105 0.81273 0.68978 0.0
C63 C 0.35137 0.81221 0.69412 0.0
P64 P 0.77758 0.36924 0.81414 0.0
H65 H 0.79748 0.35664 0.88334 0.0
H66 H 0.82719 0.38267 0.92022 0.0
H67 H 0.82795 0.45362 0.8445 0.0
H68 H 0.79755 0.42782 0.8083 0.0
H69 H 0.76826 0.30864 0.80319 0.0
H70 H 0.73321 0.27606 0.82608 0.0
H71 H 0.69849 0.34326 0.89025 0.0
H72 H 0.7346 0.37524 0.86814 0.0
H73 H 0.7773 0.3744 0.74086 0.0
H74 H 0.72735 0.41263 0.82123 0.0
O75 O 0.80447 0.35025 0.79434 0.0
H76 H 0.74224 0.39941 0.70021 0.0
H77 H 0.6919 0.43738 0.78061 0.0
C78 C 0.79471 0.39063 0.84342 0.0
C79 C 0.80335 0.37818 0.87509 0.0
C80 C 0.82064 0.39295 0.89601 0.0
C81 C 0.83004 0.42026 0.88536 0.0
C82 C 0.8207 0.43292 0.85382 0.0
C83 C 0.80333 0.41815 0.83301 0.0
C84 C 0.7543 0.34418 0.83431 0.0
C85 C 0.7535 0.31615 0.82266 0.0
C86 C 0.73315 0.29766 0.8355 0.0
C87 C 0.7128 0.30708 0.85985 0.0
C88 C 0.71402 0.33512 0.87184 0.0
C89 C 0.73458 0.35351 0.85912 0.0
C90 C 0.75488 0.39162 0.78408 0.0
C91 C 0.75909 0.38858 0.74976 0.0
C92 C 0.73907 0.40292 0.72651 0.0
C93 C 0.71427 0.42019 0.73729 0.0
C94 C 0.71068 0.42398 0.77166 0.0
C95 C 0.73094 0.40992 0.79485 0.0
P96 P 0.77468 0.8732 0.28535 0.0
H97 H 0.77259 0.92989 0.31442 0.0
H98 H 0.80824 0.95363 0.34667 0.0
H99 H 0.87195 0.87928 0.33688 0.0
H100 H 0.83596 0.85511 0.30587 0.0
H101 H 0.75421 0.81981 0.26143 0.0
H102 H 0.77706 0.78172 0.22758 0.0
H103 H 0.85133 0.83201 0.21019 0.0
H104 H 0.82799 0.87062 0.24364 0.0
H105 H 0.71186 0.86868 0.29713 0.0
H106 H 0.79451 0.83197 0.34047 0.0
O107 O 0.75172 0.89823 0.26448 0.0
H108 H 0.6859 0.83565 0.33417 0.0
H109 H 0.76889 0.79874 0.37714 0.0
C110 C 0.80196 0.89123 0.30664 0.0
C111 C 0.79433 0.91884 0.31887 0.0
C112 C 0.81459 0.93229 0.3374 0.0
C113 C 0.84286 0.91836 0.34381 0.0
C114 C 0.85044 0.89065 0.3317 0.0
C115 C 0.82995 0.87695 0.31378 0.0
C116 C 0.79007 0.84741 0.25645 0.0
C117 C 0.77534 0.82283 0.25026 0.0
C118 C 0.78828 0.80115 0.23063 0.0
C119 C 0.81617 0.80373 0.21677 0.0
C120 C 0.83004 0.82928 0.22115 0.0
C121 C 0.8168 0.85124 0.24039 0.0
C122 C 0.75506 0.85309 0.31646 0.0
C123 C 0.72437 0.85398 0.31511 0.0
C124 C 0.70959 0.83491 0.33608 0.0
C125 C 0.72534 0.81455 0.35859 0.0
C126 C 0.75605 0.81447 0.36054 0.0
C127 C 0.77076 0.83348 0.33954 0.0
P128 P 0.86276 0.88464 0.90294 0.0
H129 H 0.83272 0.89003 0.96678 0.0
H130 H 0.78317 0.90858 0.98249 0.0
H131 H 0.75847 0.92027 0.87816 0.0
H132 H 0.80829 0.90148 0.8626 0.0
H133 H 0.91288 0.84936 0.87617 0.0
H134 H 0.93487 0.79972 0.89019 0.0
H135 H 0.86288 0.78508 0.95693 0.0
H136 H 0.8407 0.83473 0.9422 0.0
H137 H 0.89622 0.93432 0.88396 0.0
H138 H 0.85281 0.87041 0.83285 0.0
O139 O 0.88236 0.89931 0.93167 0.0
H140 H 0.91402 0.95402 0.83118 0.0
H141 H 0.86932 0.89116 0.77903 0.0
C142 C 0.8245 0.89452 0.91346 0.0
C143 C 0.81663 0.89633 0.9472 0.0
C144 C 0.78823 0.9072 0.9562 0.0
C145 C 0.76674 0.91638 0.93166 0.0
C146 C 0.77434 0.91337 0.89781 0.0
C147 C 0.80293 0.90262 0.88881 0.0
C148 C 0.87464 0.84575 0.90738 0.0
C149 C 0.9013 0.83524 0.89306 0.0
C150 C 0.91416 0.80686 0.90155 0.0
C151 C 0.90089 0.78824 0.92497 0.0
C152 C 0.87367 0.79854 0.93854 0.0
C153 C 0.86084 0.82703 0.93004 0.0
C154 C 0.87319 0.90071 0.86258 0.0
C155 C 0.89011 0.92469 0.86126 0.0
C156 C 0.90014 0.93623 0.83071 0.0
C157 C 0.89318 0.92445 0.80032 0.0
C158 C 0.87562 0.90069 0.80171 0.0
C159 C 0.86584 0.88891 0.83251 0.0
P160 P 0.70045 0.29938 0.22687 0.0
H161 H 0.66688 0.35695 0.22877 0.0
H162 H 0.63755 0.38013 0.27264 0.0
H163 H 0.64934 0.29963 0.33457 0.0
H164 H 0.67905 0.27682 0.29087 0.0
H165 H 0.7438 0.24844 0.21983 0.0
H166 H 0.78594 0.22837 0.25433 0.0
H167 H 0.77368 0.30263 0.31581 0.0
H168 H 0.73176 0.32256 0.28126 0.0
H169 H 0.67229 0.29582 0.16193 0.0
H170 H 0.69095 0.23947 0.2508 0.0
O171 O 0.70819 0.32473 0.19748 0.0
H172 H 0.64911 0.25678 0.1363 0.0
H173 H 0.66755 0.20037 0.22543 0.0
C174 C 0.67523 0.31523 0.25667 0.0
C175 C 0.66281 0.34419 0.25159 0.0
C176 C 0.64592 0.35736 0.27664 0.0
C177 C 0.6413 0.34175 0.30717 0.0
C178 C 0.65283 0.31234 0.31152 0.0
C179 C 0.6696 0.2992 0.28644 0.0
C180 C 0.73391 0.28635 0.24888 0.0
C181 C 0.75018 0.2604 0.24071 0.0
C182 C 0.7743 0.24899 0.26038 0.0
C183 C 0.78282 0.26371 0.28809 0.0
C184 C 0.7677 0.29078 0.29463 0.0
C185 C 0.74354 0.30206 0.27507 0.0
C186 C 0.6838 0.27036 0.208 0.0
C187 C 0.67151 0.27501 0.17589 0.0
C188 C 0.65808 0.25274 0.16136 0.0
C189 C 0.65661 0.22545 0.17881 0.0
C190 C 0.66872 0.221 0.21118 0.0
C191 C 0.68198 0.24337 0.22575 0.0
P192 P 0.36151 0.60904 0.15209 0.0
H193 H 0.33481 0.57799 0.10039 0.0
H194 H 0.28402 0.57006 0.0876 0.0
H195 H 0.25429 0.62125 0.17011 0.0
H196 H 0.30547 0.62861 0.18336 0.0
H197 H 0.41015 0.6277 0.11138 0.0
H198 H 0.42686 0.67575 0.09751 0.0
H199 H 0.34954 0.71659 0.14393 0.0
H200 H 0.333 0.6683 0.15797 0.0
H201 H 0.35082 0.56381 0.20372 0.0
H202 H 0.39138 0.64503 0.19759 0.0
O203 O 0.38319 0.58324 0.13418 0.0
H204 H 0.36741 0.55501 0.26202 0.0
H205 H 0.40775 0.63644 0.25523 0.0
C206 C 0.32391 0.60359 0.14306 0.0
C207 C 0.31744 0.58737 0.11591 0.0
C208 C 0.28841 0.58285 0.10859 0.0
C209 C 0.26527 0.59496 0.12794 0.0
C210 C 0.27173 0.61181 0.1547 0.0
C211 C 0.3009 0.61595 0.16233 0.0
C212 C 0.37015 0.64441 0.13538 0.0
C213 C 0.39635 0.64697 0.11779 0.0
C214 C 0.4059 0.67451 0.10983 0.0
C215 C 0.38956 0.69995 0.11973 0.0
C216 C 0.36269 0.69735 0.1362 0.0
C217 C 0.35306 0.66978 0.14394 0.0
C218 C 0.36945 0.60521 0.19631 0.0
C219 C 0.36273 0.58001 0.21506 0.0
C220 C 0.37237 0.57494 0.24826 0.0
C221 C 0.38886 0.59507 0.26325 0.0
C222 C 0.39469 0.62074 0.24465 0.0
C223 C 0.38529 0.62565 0.21147 0.0
P224 P 0.26198 0.19287 0.75731 0.0
H225 H 0.2664 0.15406 0.70229 0.0
H226 H 0.23002 0.1294 0.6725 0.0
H227 H 0.16168 0.1673 0.73544 0.0
H228 H 0.19809 0.19196 0.76495 0.0
H229 H 0.32409 0.20157 0.76342 0.0
H230 H 0.35666 0.22961 0.72858 0.0
H231 H 0.28715 0.24906 0.65517 0.0
H232 H 0.25514 0.22035 0.68968 0.0
H233 H 0.26302 0.20659 0.828 0.0
H234 H 0.22515 0.24559 0.73542 0.0
O235 O 0.28002 0.16801 0.78371 0.0
H236 H 0.24291 0.24916 0.8572 0.0
H237 H 0.20588 0.2886 0.76402 0.0
C238 C 0.23486 0.17535 0.73527 0.0
C239 C 0.24354 0.1572 0.70949 0.0
C240 C 0.22277 0.14299 0.69265 0.0
C241 C 0.19294 0.14655 0.70151 0.0
C242 C 0.18439 0.16455 0.72765 0.0
C243 C 0.20523 0.17864 0.74457 0.0
C244 C 0.28743 0.20844 0.72883 0.0
C245 C 0.31618 0.2112 0.73938 0.0
C246 C 0.33466 0.22751 0.7196 0.0
C247 C 0.32449 0.24169 0.68912 0.0
C248 C 0.29588 0.23806 0.6782 0.0
C249 C 0.27749 0.22167 0.69796 0.0
C250 C 0.24543 0.22293 0.77961 0.0
C251 C 0.25028 0.22426 0.81399 0.0
C252 C 0.23898 0.24874 0.83058 0.0
C253 C 0.22282 0.27237 0.81296 0.0
C254 C 0.21782 0.27067 0.7785 0.0
C255 C 0.229 0.24617 0.76203 0.0
Nd256 Nd 0.03256 1.00227 0.52728 0.0
Nd257 Nd 0.99644 0.05859 0.53014 0.0
C258 C 0.06406 0.95225 0.51797 0.0
C259 C 0.08278 0.9329 0.54142 0.0
C260 C 0.08692 0.90264 0.53778 0.0
C261 C 0.10458 0.88454 0.56067 0.0
C262 C 0.11807 0.89653 0.58763 0.0
C263 C 0.11358 0.92685 0.59113 0.0
C264 C 0.09615 0.94477 0.56835 0.0
C265 C 0.05264 0.0377 0.57379 0.0
C266 C 0.98638 1.00609 0.58717 0.0
C267 C 0.96577 0.10893 0.53996 0.0
C268 C 0.95164 0.13175 0.51657 0.0
C269 C 0.96147 0.13452 0.48344 0.0
C270 C 0.94541 0.15305 0.45979 0.0
C271 C 0.91909 0.16887 0.46881 0.0
C272 C 0.90997 0.16691 0.50235 0.0
C273 C 0.92615 0.14845 0.52605 0.0
C274 C 0.97694 1.02317 0.48346 0.0
C275 C 0.04263 0.05494 0.47043 0.0
O276 O 0.0359 0.95393 0.52406 0.0
O277 O 0.07337 0.97786 0.51049 0.0
O278 O 0.05228 1.0097 0.57849 0.0
O279 O 0.04351 0.04613 0.54488 0.0
O280 O 1.00017 0.98784 0.56702 0.0
O281 O 0.98581 0.03471 0.58079 0.0
O282 O 0.9945 0.10572 0.53989 0.0
O283 O 0.95419 0.08399 0.54049 0.0
O284 O 0.97766 0.05116 0.47838 0.0
O285 O 0.98556 1.01476 0.51258 0.0
O286 O 0.02925 0.07304 0.49103 0.0
O287 O 0.04247 0.02628 0.47621 0.0
H288 H 0.0766 0.89306 0.51725 0.0
H289 H 0.10763 0.86125 0.55735 0.0
H290 H 0.1242 0.93695 0.61104 0.0
H291 H 0.09344 0.96805 0.57164 0.0
H292 H 0.9809 0.12143 0.47553 0.0
H293 H 0.95279 0.1538 0.4341 0.0
H294 H 0.88991 0.17905 0.51005 0.0
H295 H 0.91815 0.14638 0.55145 0.0
Nd296 Nd 0.52719 1.01177 0.05851 0.0
Nd297 Nd 0.51688 0.05331 1.00272 0.0
C298 C 0.53618 0.96385 0.09852 0.0
C299 C 0.52361 0.9354 0.10044 0.0
C300 C 0.52152 0.91928 0.07195 0.0
C301 C 0.50729 0.89363 0.07357 0.0
C302 C 0.49471 0.88365 0.10366 0.0
C303 C 0.4973 0.89963 0.13226 0.0
C304 C 0.51166 0.9252 0.13065 0.0
C305 C 0.47893 0.05141 0.06788 0.0
C306 C 0.48801 0.99512 0.99514 0.0
C307 C 0.50757 0.10116 0.96273 0.0
C308 C 0.52677 0.12408 0.95316 0.0
C309 C 0.51519 0.15074 0.93757 0.0
C310 C 0.53366 0.17263 0.92908 0.0
C311 C 0.56401 0.16812 0.93608 0.0
C312 C 0.57536 0.14129 0.95192 0.0
C313 C 0.5569 0.11956 0.96049 0.0
C314 C 0.56593 1.01459 0.99336 0.0
C315 C 0.55692 0.07037 0.06585 0.0
O316 O 0.55274 0.96947 0.0728 0.0
O317 O 0.51821 0.98634 0.10561 0.0
O318 O 0.49932 0.04393 0.09005 0.0
O319 O 0.48449 0.03854 0.0412 0.0
O320 O 0.50774 0.98515 0.01802 0.0
O321 O 0.48265 0.02343 0.98854 0.0
O322 O 0.49976 0.09992 0.9941 0.0
O323 O 0.51554 0.07534 0.95196 0.0
O324 O 0.54637 1.02303 0.97058 0.0
O325 O 0.55962 0.02684 0.02025 0.0
O326 O 0.53947 0.07981 0.04055 0.0
O327 O 0.55946 0.04258 0.07628 0.0
H328 H 0.53048 0.92666 0.04826 0.0
H329 H 0.50613 0.88166 0.0512 0.0
H330 H 0.48754 0.89284 0.15573 0.0
H331 H 0.51282 0.93742 0.15285 0.0
H332 H 0.4919 0.15466 0.93208 0.0
H333 H 0.52411 0.19316 0.91734 0.0
H334 H 0.59862 0.13682 0.95723 0.0
H335 H 0.56617 0.09911 0.97276 0.0
Nd336 Nd 0.50769 0.50477 0.52778 0.0
Nd337 Nd 0.56221 0.53501 0.50958 0.0
C338 C 0.45527 0.48661 0.53978 0.0
C339 C 0.44382 0.45854 0.54904 0.0
C340 C 0.41373 0.45749 0.55462 0.0
C341 C 0.40284 0.43119 0.56558 0.0
C342 C 0.42196 0.40554 0.57121 0.0
C343 C 0.45211 0.40663 0.56484 0.0
C344 C 0.46295 0.43294 0.55382 0.0
C345 C 0.5557 0.48611 0.56725 0.0
C346 C 0.51488 0.57025 0.55345 0.0
C347 C 0.61428 0.55375 0.49707 0.0
C348 C 0.62516 0.58231 0.48893 0.0
C349 C 0.60711 0.60824 0.49298 0.0
C350 C 0.61697 0.63532 0.48323 0.0
C351 C 0.645 0.63687 0.46912 0.0
C352 C 0.66312 0.61075 0.46561 0.0
C353 C 0.65324 0.5837 0.47544 0.0
C354 C 0.51393 0.55271 0.46967 0.0
C355 C 0.55531 0.47001 0.48333 0.0
O356 O 0.47135 0.49683 0.56256 0.0
O357 O 0.46625 0.48942 0.50976 0.0
O358 O 0.53656 0.46896 0.55818 0.0
O359 O 0.54827 0.51223 0.55722 0.0
O360 O 0.49639 0.55235 0.5427 0.0
O361 O 0.54324 0.56602 0.5477 0.0
O362 O 0.59778 0.54429 0.47416 0.0
O363 O 0.60408 0.54955 0.52729 0.0
O364 O 0.53259 0.57036 0.47874 0.0
O365 O 0.522 0.5269 0.48013 0.0
O366 O 0.57373 0.48765 0.4947 0.0
O367 O 0.52689 0.47411 0.48906 0.0
H368 H 0.39872 0.47713 0.55116 0.0
H369 H 0.37958 0.43118 0.57068 0.0
H370 H 0.46733 0.38719 0.56858 0.0
H371 H 0.4863 0.43344 0.54953 0.0
H372 H 0.58526 0.60749 0.50328 0.0
H373 H 0.60261 0.65501 0.48662 0.0
H374 H 0.68462 0.61112 0.45437 0.0
H375 H 0.66733 0.56383 0.47191 0.0
Nd376 Nd 1.00627 0.5308 0.05947 0.0
Nd377 Nd 0.04898 0.53336 1.00384 0.0
C378 C 0.95983 0.53791 0.09841 0.0
C379 C 0.944 0.56507 0.10897 0.0
C380 C 0.91958 0.56452 0.12999 0.0
C381 C 0.90522 0.59076 0.1402 0.0
C382 C 0.91495 0.61794 0.12923 0.0
C383 C 0.93923 0.61814 0.10773 0.0
C384 C 0.95379 0.59202 0.09813 0.0
C385 C 0.05879 0.55044 0.07674 0.0
C386 C 1.00389 0.59012 1.00741 0.0
C387 C 0.09586 0.52858 0.96513 0.0
C388 C 0.11357 0.50356 0.95194 0.0
C389 C 0.13128 0.50763 0.92385 0.0
C390 C 0.14628 0.4835 0.90964 0.0
C391 C 0.14383 0.45497 0.92346 0.0
C392 C 0.12649 0.45112 0.95204 0.0
C393 C 0.11138 0.47518 0.96602 0.0
C394 C 0.99667 0.51344 0.98635 0.0
C395 C 0.05077 0.47368 0.05566 0.0
O396 O 0.95798 0.53362 0.06652 0.0
O397 O 0.98665 0.53262 0.10995 0.0
O398 O 0.04489 0.53258 0.09563 0.0
O399 O 0.04463 0.55816 0.05018 0.0
O400 O 0.98919 0.57261 0.02708 0.0
O401 O 0.03098 0.58171 0.99839 0.0
O402 O 0.09729 0.53095 0.99746 0.0
O403 O 0.06904 0.53317 0.9535 0.0
O404 O 1.01076 0.53109 0.96739 0.0
O405 O 1.01065 0.50579 1.01308 0.0
O406 O 0.06555 0.49102 0.03576 0.0
O407 O 1.02376 0.48228 0.06488 0.0
H408 H 0.91187 0.54386 0.13878 0.0
H409 H 0.88687 0.5897 0.15715 0.0
H410 H 0.94708 0.6385 0.09816 0.0
H411 H 0.97289 0.59291 0.08234 0.0
H412 H 0.13306 0.52939 0.91254 0.0
H413 H 0.15963 0.48712 0.88773 0.0
H414 H 0.12377 0.42942 0.96295 0.0
H415 H 0.09743 0.47152 0.98734 0.0
H416 H 0.10063 0.16549 0.30191 0.0
H417 H 0.16644 0.0916 0.30991 0.0
H418 H 0.07267 0.14276 0.34628 0.0
H419 H 0.13924 0.06959 0.35553 0.0
H420 H 0.07157 0.02545 0.42029 0.0
H421 H 0.09673 0.0461 0.37186 0.0
H422 H 0.0739 0.13305 0.40486 0.0
H423 H 0.04821 0.11254 0.45244 0.0
C424 C 0.10912 0.14429 0.31288 0.0
C425 C 0.13602 0.13058 0.3021 0.0
C426 C 0.09321 0.13137 0.33883 0.0
C427 C 0.10367 0.10433 0.35501 0.0
C428 C 0.13022 0.09027 0.3437 0.0
C429 C 0.14609 0.10316 0.31768 0.0
C430 C 0.07182 0.04898 0.41712 0.0
C431 C 0.05777 0.06723 0.44043 0.0
C432 C 0.08644 0.06088 0.38937 0.0
C433 C 0.08748 0.09139 0.38414 0.0
C434 C 0.07327 0.10955 0.40747 0.0
C435 C 0.05864 0.09769 0.43506 0.0
H436 H 0.44129 0.92562 0.81416 0.0
H437 H 0.43639 0.84935 0.88159 0.0
H438 H 0.45085 0.95451 0.86091 0.0
H439 H 0.44499 0.87887 0.92908 0.0
H440 H 0.5015 0.93592 0.99355 0.0
H441 H 0.485 0.90377 0.95256 0.0
H442 H 0.42698 0.97546 0.90863 0.0
H443 H 0.44399 1.00775 0.94901 0.0
C444 C 0.44234 0.91496 0.83904 0.0
C445 C 0.43848 0.88505 0.84407 0.0
C446 C 0.44733 0.9317 0.86597 0.0
C447 C 0.44843 0.91909 0.89881 0.0
C448 C 0.44436 0.88919 0.90404 0.0
C449 C 0.43928 0.87235 0.87692 0.0
C450 C 0.48488 0.9447 0.9755 0.0
C451 C 0.47443 0.97453 0.97418 0.0
C452 C 0.47532 0.92622 0.95207 0.0
C453 C 0.45506 0.93718 0.92694 0.0
C454 C 0.44315 0.96651 0.92716 0.0
C455 C 0.45279 0.98499 0.95043 0.0
H456 H 0.72123 0.45014 0.6771 0.0
H457 H 0.6553 0.41699 0.74235 0.0
H458 H 0.68311 0.46698 0.63544 0.0
H459 H 0.61734 0.43377 0.70084 0.0
H460 H 0.56728 0.43305 0.60071 0.0
H461 H 0.6059 0.41852 0.64221 0.0
H462 H 0.63711 0.50425 0.62956 0.0
H463 H 0.59814 0.51896 0.58829 0.0
C464 C 0.69859 0.44663 0.68257 0.0
C465 C 0.69119 0.43232 0.71295 0.0
C466 C 0.67681 0.45636 0.65886 0.0
C467 C 0.64734 0.45152 0.66489 0.0
C468 C 0.63993 0.43755 0.69544 0.0
C469 C 0.6616 0.42821 0.7193 0.0
C470 C 0.58241 0.44877 0.60676 0.0
C471 C 0.57973 0.47713 0.59136 0.0
C472 C 0.6044 0.44051 0.6306 0.0
C473 C 0.62438 0.46032 0.63917 0.0
C474 C 0.62207 0.48852 0.62327 0.0
C475 C 0.59978 0.49693 0.59974 0.0
H476 H 0.79496 0.77178 0.16824 0.0
H477 H 0.87166 0.77894 0.22893 0.0
H478 H 0.81902 0.72787 0.14492 0.0
H479 H 0.89533 0.73456 0.20692 0.0
H480 H 0.94076 0.66718 0.1438 0.0
H481 H 0.9173 0.7134 0.16057 0.0
H482 H 0.83293 0.6781 0.15995 0.0
H483 H 0.85619 0.63248 0.14042 0.0
C484 C 0.81702 0.76393 0.17648 0.0
C485 C 0.83154 0.77877 0.20023 0.0
C486 C 0.83073 0.73866 0.16338 0.0
C487 C 0.85911 0.72745 0.17414 0.0
C488 C 0.87373 0.74273 0.19752 0.0
C489 C 0.86018 0.76819 0.21022 0.0
C490 C 0.91712 0.66936 0.14655 0.0
C491 C 0.90041 0.64599 0.14051 0.0
C492 C 0.90368 0.69584 0.15674 0.0
C493 C 0.87318 0.6996 0.1618 0.0
C494 C 0.85642 0.67623 0.15587 0.0
C495 C 0.86984 0.64981 0.1452 0.0
H496 H 0.29405 0.1016 0.11273 0.0
H497 H 0.33975 0.17406 0.1423 0.0
H498 H 0.34032 0.07782 0.09243 0.0
H499 H 0.38564 0.15061 0.12164 0.0
H500 H 0.46651 0.08283 0.12229 0.0
H501 H 0.41974 0.10785 0.13833 0.0
H502 H 0.37938 0.08198 0.04865 0.0
H503 H 0.42662 0.05679 0.0325 0.0
C504 C 0.31388 0.11255 0.1148 0.0
C505 C 0.31298 0.13985 0.12921 0.0
C506 C 0.34041 0.099 0.10287 0.0
C507 C 0.36687 0.11218 0.10543 0.0
C508 C 0.36584 0.13961 0.11948 0.0
C509 C 0.33936 0.15325 0.13106 0.0
C510 C 0.44773 0.08258 0.10583 0.0
C511 C 0.45037 0.06779 0.07609 0.0
C512 C 0.42086 0.09709 0.11498 0.0
C513 C 0.39563 0.09705 0.09483 0.0
C514 C 0.39825 0.0823 0.06493 0.0
C515 C 0.42536 0.06803 0.05554 0.0
H516 H 0.26504 0.88211 0.70708 0.0
H517 H 0.26598 0.79043 0.68756 0.0
H518 H 0.21572 0.89091 0.68451 0.0
H519 H 0.21671 0.79992 0.66319 0.0
H520 H 0.16032 0.85314 0.57262 0.0
H521 H 0.20043 0.83136 0.60892 0.0
H522 H 0.1627 0.87784 0.69145 0.0
H523 H 0.1222 0.89914 0.65545 0.0
C524 C 0.25456 0.86358 0.69891 0.0
C525 C 0.26983 0.83554 0.69903 0.0
C526 C 0.2262 0.86873 0.68578 0.0
C527 C 0.21248 0.84611 0.67199 0.0
C528 C 0.22696 0.81777 0.67346 0.0
C529 C 0.25523 0.81245 0.68721 0.0
C530 C 0.15998 0.85788 0.59879 0.0
C531 C 0.13844 0.87833 0.611 0.0
C532 C 0.18296 0.8454 0.61958 0.0
C533 C 0.18481 0.85328 0.65282 0.0
C534 C 0.16195 0.87174 0.66577 0.0
C535 C 0.1389 0.88401 0.64511 0.0
H536 H 0.83117 0.47873 0.89527 0.0
H537 H 0.87732 0.39403 0.92132 0.0
H538 H 0.86917 0.50223 0.9235 0.0
H539 H 0.91499 0.41753 0.94981 0.0
H540 H 0.96893 0.46909 0.0175 0.0
H541 H 0.92574 0.44731 0.99739 0.0
H542 H 0.92106 0.50829 0.91082 0.0
H543 H 0.96383 0.53 0.93095 0.0
C544 C 0.8493 0.4651 0.90716 0.0
C545 C 0.85125 0.43449 0.90578 0.0
C546 C 0.87103 0.47857 0.92338 0.0
C547 C 0.89518 0.46174 0.93871 0.0
C548 C 0.8965 0.4311 0.93859 0.0
C549 C 0.87483 0.41763 0.92226 0.0
C550 C 0.95847 0.4779 0.99432 0.0
C551 C 0.9698 0.50106 0.97563 0.0
C552 C 0.93385 0.46541 0.98276 0.0
C553 C 0.91998 0.47609 0.95252 0.0
C554 C 0.93097 0.49979 0.93441 0.0
C555 C 0.95562 0.51208 0.9458 0.0
H556 H 0.68226 0.78282 0.3369 0.0
H557 H 0.73481 0.79455 0.4239 0.0
H558 H 0.66114 0.74213 0.3665 0.0
H559 H 0.71353 0.75377 0.45369 0.0
H560 H 0.6997 0.65589 0.47491 0.0
H561 H 0.71692 0.70097 0.45053 0.0
H562 H 0.62969 0.72811 0.41208 0.0
H563 H 0.61277 0.68245 0.43519 0.0
C564 C 0.68882 0.77713 0.36262 0.0
C565 C 0.71026 0.79189 0.37802 0.0
C566 C 0.67672 0.75376 0.37961 0.0
C567 C 0.68573 0.7446 0.41243 0.0
C568 C 0.70647 0.75998 0.42824 0.0
C569 C 0.71862 0.78336 0.41121 0.0
C570 C 0.68421 0.67145 0.4612 0.0
C571 C 0.65491 0.66545 0.45681 0.0
C572 C 0.69399 0.69748 0.44758 0.0
C573 C 0.67469 0.71813 0.42927 0.0
C574 C 0.64519 0.71251 0.42571 0.0
C575 C 0.63542 0.68647 0.4393 0.0
H576 H 0.17378 0.33791 0.15023 0.0
H577 H 0.10315 0.28895 0.12019 0.0
H578 H 0.14777 0.38286 0.1258 0.0
H579 H 0.07705 0.33418 0.09534 0.0
H580 H 1.02654 0.42846 0.09086 0.0
H581 H 0.0515 0.38172 0.11283 0.0
H582 H 0.13313 0.40632 0.07077 0.0
H583 H 0.10842 0.4528 0.04904 0.0
C584 C 0.15265 0.33672 0.1384 0.0
C585 C 0.14058 0.30971 0.13733 0.0
C586 C 0.13781 0.36253 0.12411 0.0
C587 C 0.11024 0.36229 0.10852 0.0
C588 C 0.09811 0.33528 0.10735 0.0
C589 C 0.1132 0.30929 0.12132 0.0
C590 C 0.04979 0.42385 0.08619 0.0
C591 C 0.06538 0.44459 0.06818 0.0
C592 C 0.06409 0.39694 0.09864 0.0
C593 C 0.09443 0.39019 0.09376 0.0
C594 C 0.10986 0.41082 0.07542 0.0
C595 C 0.09557 0.43751 0.06273 0.0
H596 H 0.6819 0.2719 0.8231 0.0
H597 H 0.69146 0.29934 0.92355 0.0
H598 H 0.64541 0.23979 0.84247 0.0
H599 H 0.65356 0.26843 0.94262 0.0
H600 H 0.61113 0.18371 0.97106 0.0
H601 H 0.64619 0.21798 0.95301 0.0
H602 H 0.59629 0.23978 0.86181 0.0
H603 H 0.56222 0.20419 0.87896 0.0
C604 C 0.67624 0.2711 0.84936 0.0
C605 C 0.68988 0.28806 0.8718 0.0
C606 C 0.6549 0.253 0.86039 0.0
C607 C 0.6464 0.25154 0.89412 0.0
C608 C 0.65978 0.26875 0.91653 0.0
C609 C 0.68129 0.28675 0.90552 0.0
C610 C 0.60774 0.19564 0.94703 0.0
C611 C 0.58398 0.19091 0.92632 0.0
C612 C 0.62765 0.21563 0.93687 0.0
C613 C 0.62421 0.23158 0.90585 0.0
C614 C 0.59992 0.22752 0.88561 0.0
C615 C 0.58012 0.20738 0.89567 0.0
H616 H 0.89857 0.92971 0.32684 0.0
H617 H 0.83486 0.9384 0.40591 0.0
H618 H 0.93346 0.95374 0.36005 0.0
H619 H 0.86989 0.96179 0.43934 0.0
H620 H 0.95441 0.97154 0.50042 0.0
H621 H 0.92311 0.94475 0.46597 0.0
H622 H 0.93151 1.00791 0.38328 0.0
H623 H 0.96227 0.03518 0.41796 0.0
C624 C 0.89218 0.93661 0.35139 0.0
C625 C 0.86411 0.93237 0.36389 0.0
C626 C 0.91202 0.95037 0.37026 0.0
C627 C 0.90429 0.95944 0.4022 0.0
C628 C 0.87638 0.95477 0.41486 0.0
C629 C 0.85635 0.94161 0.39573 0.0
C630 C 0.94977 0.97955 0.4748 0.0
C631 C 0.96053 1.0055 0.46183 0.0
C632 C 0.93182 0.9643 0.45521 0.0
C633 C 0.92491 0.9744 0.42212 0.0
C634 C 0.93666 0.99968 0.40871 0.0
C635 C 0.95412 1.01527 0.42853 0.0
H636 H 0.42246 0.73048 0.61595 0.0
H637 H 0.48482 0.70616 0.69607 0.0
H638 H 0.43915 0.68611 0.58835 0.0
H639 H 0.50132 0.66133 0.6686 0.0
H640 H 0.54684 0.60784 0.58513 0.0
H641 H 0.52856 0.64975 0.6161 0.0
H642 H 0.43937 0.63197 0.59597 0.0
H643 H 0.45757 0.59003 0.56473 0.0
C644 C 0.43973 0.71557 0.62767 0.0
C645 C 0.45256 0.72187 0.65798 0.0
C646 C 0.44907 0.69003 0.61204 0.0
C647 C 0.47158 0.67029 0.62628 0.0
C648 C 0.4841 0.67631 0.65692 0.0
C649 C 0.47455 0.7018 0.67274 0.0
C650 C 0.52331 0.6128 0.58728 0.0
C651 C 0.50365 0.59564 0.57231 0.0
C652 C 0.51287 0.63669 0.60528 0.0
C653 C 0.48256 0.64408 0.60852 0.0
C654 C 0.46287 0.62689 0.59367 0.0
C655 C 0.47331 0.60284 0.57586 0.0
H656 H 0.90314 0.98156 0.78219 0.0
H657 H 0.90985 0.8953 0.74389 0.0
H658 H 0.92559 1.00061 0.73178 0.0
H659 H 0.93008 0.91491 0.69212 0.0
H660 H 0.99467 0.95078 0.61721 0.0
H661 H 0.97167 0.93147 0.6675 0.0
H662 H 0.92075 1.01483 0.67579 0.0
H663 H 0.945 0.03443 0.62642 0.0
C664 C 0.90927 0.96653 0.76304 0.0
C665 C 0.90482 0.93663 0.76774 0.0
C666 C 0.92179 0.97768 0.73358 0.0
C667 C 0.92992 0.95948 0.7074 0.0
C668 C 0.92475 0.92971 0.71171 0.0
C669 C 0.91257 0.91846 0.74141 0.0
C670 C 0.97856 0.96501 0.62979 0.0
C671 C 0.97181 0.99424 0.61772 0.0
C672 C 0.9651 0.95383 0.65865 0.0
C673 C 0.94409 0.97139 0.67615 0.0
C674 C 0.93715 1.0006 0.66371 0.0
C675 C 0.95097 1.01189 0.63512 0.0
H676 H 0.60483 0.23033 0.14418 0.0
H677 H 0.676 0.16726 0.17859 0.0
H678 H 0.58169 0.19203 0.11759 0.0
H679 H 0.65302 0.12883 0.15154 0.0
H680 H 0.58653 0.06322 0.12589 0.0
H681 H 0.61093 0.10016 0.15411 0.0
H682 H 0.58944 0.16239 0.07059 0.0
H683 H 0.56459 0.126 0.043 0.0
C684 C 0.61565 0.20829 0.14581 0.0
C685 C 0.64231 0.20185 0.1633 0.0
C686 C 0.60242 0.18632 0.13053 0.0
C687 C 0.61562 0.15737 0.13217 0.0
C688 C 0.64211 0.15082 0.15008 0.0
C689 C 0.6553 0.17283 0.16553 0.0
C690 C 0.58717 0.08477 0.11357 0.0
C691 C 0.57339 0.09175 0.08239 0.0
C692 C 0.60122 0.1059 0.12967 0.0
C693 C 0.60185 0.13436 0.11479 0.0
C694 C 0.58876 0.14095 0.08316 0.0
C695 C 0.57463 0.11997 0.06724 0.0
H696 H 0.39164 0.63201 0.31419 0.0
H697 H 0.41668 0.54331 0.28832 0.0
H698 H 0.41814 0.62236 0.36724 0.0
H699 H 0.44352 0.53375 0.34084 0.0
H700 H 0.4751 0.51721 0.44655 0.0
H701 H 0.44054 0.52766 0.40009 0.0
H702 H 0.46815 0.61495 0.38614 0.0
H703 H 0.50191 0.60471 0.43349 0.0
C704 C 0.40269 0.61041 0.31994 0.0
C705 C 0.40209 0.58843 0.29705 0.0
C706 C 0.41797 0.6049 0.35026 0.0
C707 C 0.43315 0.57732 0.35832 0.0
C708 C 0.43173 0.55511 0.33582 0.0
C709 C 0.41632 0.56057 0.30562 0.0
C710 C 0.47345 0.53876 0.43383 0.0
C711 C 0.49129 0.5601 0.44347 0.0
C712 C 0.45381 0.54469 0.40703 0.0
C713 C 0.45172 0.57205 0.38906 0.0
C714 C 0.4689 0.59375 0.39956 0.0
C715 C 0.4884 0.58785 0.42657 0.0
H716 H 0.25061 0.29999 0.861 0.0
H717 H 0.16995 0.3051 0.80371 0.0
H718 H 0.2329 0.34452 0.88785 0.0
H719 H 0.15257 0.34983 0.83014 0.0
H720 H 0.14511 0.44524 0.85691 0.0
H721 H 0.16525 0.40128 0.83051 0.0
H722 H 0.19356 0.36187 0.92711 0.0
H723 H 0.17394 0.40612 0.95348 0.0
C724 C 0.229 0.31042 0.85435 0.0
C725 C 0.21173 0.29897 0.83013 0.0
C726 C 0.21893 0.33598 0.86966 0.0
C727 C 0.19145 0.35076 0.86091 0.0
C728 C 0.17408 0.33921 0.83693 0.0
C729 C 0.18405 0.31358 0.82179 0.0
C730 C 0.15605 0.42737 0.87244 0.0
C731 C 0.15793 0.4291 0.90726 0.0
C732 C 0.16727 0.40209 0.85737 0.0
C733 C 0.18078 0.37807 0.87679 0.0
C734 C 0.18338 0.38009 0.9115 0.0
C735 C 0.17198 0.40531 0.9266 0.0
H736 H 0.75325 0.95556 0.97983 0.0
H737 H 0.71253 0.9078 0.9058 0.0
H738 H 0.70525 0.97801 0.99545 0.0
H739 H 0.66432 0.92968 0.92187 0.0
H740 H 0.58525 0.99662 0.93297 0.0
H741 H 0.63297 0.97286 0.91876 0.0
H742 H 0.66017 0.97205 0.0222 0.0
H743 H 0.61242 0.997 0.03604 0.0
C744 C 0.734 0.94951 0.96713 0.0
C745 C 0.73695 0.92977 0.94147 0.0
C746 C 0.70629 0.96239 0.9762 0.0
C747 C 0.6805 0.95585 0.96007 0.0
C748 C 0.6835 0.93586 0.93459 0.0
C749 C 0.71125 0.92316 0.92533 0.0
C750 C 0.60139 0.99135 0.95275 0.0
C751 C 0.59497 0.99886 0.98566 0.0
C752 C 0.62885 0.97743 0.94462 0.0
C753 C 0.65082 0.97028 0.9692 0.0
C754 C 0.64419 0.97751 1.00233 0.0
C755 C 0.61668 0.99166 1.01041 0.0
H756 H 0.78948 0.20699 0.31265 0.0
H757 H 0.82732 0.2893 0.31752 0.0
H758 H 0.8237 0.18506 0.35572 0.0
H759 H 0.86129 0.26741 0.36129 0.0
H760 H 0.93512 0.20537 0.41673 0.0
H761 H 0.90377 0.22851 0.37115 0.0
H762 H 0.82872 0.19191 0.41661 0.0
H763 H 0.85997 0.16843 0.46159 0.0
C764 C 0.80541 0.22028 0.32257 0.0
C765 C 0.8057 0.24987 0.31173 0.0
C766 C 0.82475 0.20782 0.34752 0.0
C767 C 0.8449 0.22464 0.36211 0.0
C768 C 0.846 0.25394 0.35043 0.0
C769 C 0.82648 0.26649 0.32557 0.0
C770 C 0.9119 0.20239 0.41696 0.0
C771 C 0.89998 0.18513 0.44273 0.0
C772 C 0.89398 0.21573 0.39101 0.0
C773 C 0.86389 0.21176 0.39021 0.0
C774 C 0.85192 0.195 0.41634 0.0
C775 C 0.86974 0.18188 0.44233 0.0
H776 H 0.24454 0.5425 0.11841 0.0
H777 H 0.21697 0.63478 0.12058 0.0
H778 H 0.19416 0.53286 0.10576 0.0
H779 H 0.1664 0.62511 0.10763 0.0
H780 H 0.08887 0.59267 0.04483 0.0
H781 H 0.13879 0.60466 0.05747 0.0
H782 H 0.14534 0.53773 0.13809 0.0
H783 H 0.09561 0.52607 0.12586 0.0
C784 C 0.22768 0.56071 0.11603 0.0
C785 C 0.2346 0.58937 0.12048 0.0
C786 C 0.19888 0.55519 0.10898 0.0
C787 C 0.17644 0.57825 0.10574 0.0
C788 C 0.18335 0.60698 0.10982 0.0
C789 C 0.21215 0.61247 0.11746 0.0
C790 C 0.10099 0.58071 0.06535 0.0
C791 C 0.08844 0.5585 0.08442 0.0
C792 C 0.12942 0.58761 0.07264 0.0
C793 C 0.14588 0.57204 0.09869 0.0
C794 C 0.13321 0.54991 0.11772 0.0
C795 C 0.10472 0.54335 0.1108 0.0
H796 H 0.33087 0.24923 0.62107 0.0
H797 H 0.3586 0.28099 0.71431 0.0
H798 H 0.35698 0.28622 0.59028 0.0
H799 H 0.38473 0.31761 0.68366 0.0
H800 H 0.44668 0.36732 0.62043 0.0
H801 H 0.42633 0.32451 0.64667 0.0
H802 H 0.35064 0.33988 0.5812 0.0
H803 H 0.37147 0.38214 0.55418 0.0
C804 C 0.34264 0.26398 0.63499 0.0
C805 C 0.34262 0.26214 0.67016 0.0
C806 C 0.35758 0.28514 0.61736 0.0
C807 C 0.37289 0.30486 0.63453 0.0
C808 C 0.37356 0.30245 0.66966 0.0
C809 C 0.35859 0.28138 0.68726 0.0
C810 C 0.42598 0.36122 0.61117 0.0
C811 C 0.41062 0.3782 0.58531 0.0
C812 C 0.41418 0.33687 0.62644 0.0
C813 C 0.38679 0.32892 0.61617 0.0
C814 C 0.3719 0.34529 0.58952 0.0
C815 C 0.38367 0.36969 0.5743 0.0
H816 H 0.95973 0.77366 0.93756 0.0
H817 H 0.87666 0.73609 0.93857 0.0
H818 H 0.98448 0.72654 0.95705 0.0
H819 H 0.90147 0.68875 0.95777 0.0
H820 H 0.94958 0.61536 0.02417 0.0
H821 H 0.92527 0.66257 1.00449 0.0
H822 H 1.00002 0.67825 0.94233 0.0
H823 H 1.02477 0.63124 0.96296 0.0
C824 C 0.94672 0.75526 0.94147 0.0
C825 C 0.91607 0.75888 0.93629 0.0
C826 C 0.961 0.72808 0.95271 0.0
C827 C 0.94516 0.70353 0.9591 0.0
C828 C 0.9145 0.70712 0.95376 0.0
C829 C 0.90019 0.73436 0.94262 0.0
C830 C 0.96097 0.62886 1.00641 0.0
C831 C 0.98929 0.61933 0.9953 0.0
C832 C 0.94683 0.65598 0.99482 0.0
C833 C 0.96045 0.67448 0.97157 0.0
C834 C 0.98885 0.66495 0.96052 0.0
C835 C 1.00306 0.63782 0.97225 0.0
H836 H 0.39106 0.7412 0.1657 0.0
H837 H 0.41651 0.72321 0.06462 0.0
H838 H 0.41518 0.78637 0.16095 0.0
H839 H 0.44119 0.76823 0.0601 0.0
H840 H 0.45774 0.86617 0.05634 0.0
H841 H 0.43072 0.82277 0.05907 0.0
H842 H 0.46728 0.79787 0.15715 0.0
H843 H 0.49477 0.84084 0.15427 0.0
C844 C 0.40144 0.74712 0.14229 0.0
C845 C 0.40187 0.72867 0.11551 0.0
C846 C 0.41555 0.7728 0.13972 0.0
C847 C 0.43027 0.7807 0.11026 0.0
C848 C 0.42991 0.76276 0.08307 0.0
C849 C 0.41596 0.73693 0.08572 0.0
C850 C 0.46033 0.85127 0.07833 0.0
C851 C 0.47847 0.85704 0.1051 0.0
C852 C 0.44475 0.82647 0.07991 0.0
C853 C 0.44676 0.80704 0.10839 0.0
C854 C 0.4649 0.81274 0.13511 0.0
C855 C 0.48063 0.83739 0.13345 0.0
H856 H 0.19801 0.08987 0.68386 0.0
H857 H 0.13814 0.16849 0.67942 0.0
H858 H 0.16224 0.06463 0.65428 0.0
H859 H 0.10195 0.14295 0.6505 0.0
H860 H 0.08154 1.0193 0.63161 0.0
H861 H 0.11393 0.04634 0.66395 0.0
H862 H 0.09578 0.12211 0.59546 0.0
H863 H 0.06302 0.09506 0.56328 0.0
C864 C 0.17721 0.10176 0.67652 0.0
C865 C 0.17092 0.13118 0.68389 0.0
C866 C 0.15658 0.08722 0.65992 0.0
C867 C 0.12922 0.10177 0.6502 0.0
C868 C 0.12291 0.13121 0.65752 0.0
C869 C 0.14352 0.14574 0.67431 0.0
C870 C 0.08426 0.04182 0.62365 0.0
C871 C 0.06999 0.05505 0.59483 0.0
C872 C 0.10294 0.05724 0.64204 0.0
C873 C 0.10765 0.08624 0.63205 0.0
C874 C 0.09248 0.09983 0.60388 0.0
C875 C 0.07383 0.08435 0.5854 0.0
H876 H 0.59132 0.37971 0.30459 0.0
H877 H 0.6576 0.33781 0.37294 0.0
H878 H 0.5693 0.40736 0.34996 0.0
H879 H 0.63519 0.36486 0.41838 0.0
H880 H 0.61262 0.45096 0.4722 0.0
H881 H 0.63161 0.41689 0.43147 0.0
H882 H 0.54301 0.40218 0.40421 0.0
H883 H 0.52386 0.43656 0.44488 0.0
C884 C 0.601 0.37622 0.32935 0.0
C885 C 0.62624 0.35666 0.33515 0.0
C886 C 0.58824 0.39181 0.3554 0.0
C887 C 0.60057 0.38831 0.38772 0.0
C888 C 0.62534 0.36818 0.39368 0.0
C889 C 0.638 0.35249 0.36771 0.0
C890 C 0.59715 0.44022 0.45785 0.0
C891 C 0.56672 0.44661 0.46167 0.0
C892 C 0.60805 0.42056 0.43461 0.0
C893 C 0.58879 0.40696 0.41452 0.0
C894 C 0.55837 0.41259 0.4191 0.0
C895 C 0.54743 0.43211 0.44256 0.0
loop_
_geom_bond_atom_site_label_1
_geom_bond_atom_site_label_2
_geom_bond_distance
_geom_bond_site_symmetry_2
_ccdc_geom_bond_type
P0 O11 1.490 . S
P0 C14 1.812 . S
P0 C20 1.803 . S
P0 C26 1.819 . S
H1 C15 0.941 . S
H2 C16 0.939 . S
H3 C18 0.940 . S
H4 C19 0.940 . S
H5 C21 0.939 . S
H6 C22 0.942 . S
H7 C24 0.940 . S
H8 C25 0.939 . S
H9 C27 0.941 . S
H10 C31 0.939 . S
O11 P0 1.490 . S
H12 C28 0.939 . S
H13 C30 0.940 . S
C14 P0 1.812 . S
C14 C15 1.389 . S
C14 C19 1.391 . S
C15 H1 0.941 . S
C15 C14 1.389 . S
C15 C16 1.397 . S
C16 H2 0.939 . S
C16 C15 1.397 . S
C16 C17 1.378 . S
C17 C16 1.378 . S
C17 C18 1.378 . S
C18 H3 0.940 . S
C18 C17 1.378 . S
C18 C19 1.396 . S
C19 H4 0.940 . S
C19 C14 1.391 . S
C19 C18 1.396 . S
C20 P0 1.803 . S
C20 C21 1.378 . S
C20 C25 1.400 . S
C21 H5 0.939 . S
C21 C20 1.378 . S
C21 C22 1.361 . S
C22 H6 0.942 . S
C22 C21 1.361 . S
C22 C23 1.369 . S
C23 C22 1.369 . S
C23 C24 1.404 . S
C24 H7 0.940 . S
C24 C23 1.404 . S
C24 C25 1.389 . S
C25 H8 0.939 . S
C25 C20 1.400 . S
C25 C24 1.389 . S
C26 P0 1.819 . S
C26 C27 1.391 . S
C26 C31 1.391 . S
C27 H9 0.941 . S
C27 C26 1.391 . S
C27 C28 1.396 . S
C28 H12 0.939 . S
C28 C27 1.396 . S
C28 C29 1.397 . S
C29 C28 1.397 . S
C29 C30 1.385 . S
C30 H13 0.940 . S
C30 C29 1.385 . S
C30 C31 1.388 . S
C31 H10 0.939 . S
C31 C26 1.391 . S
C31 C30 1.388 . S
P32 O43 1.490 . S
P32 C46 1.812 . S
P32 C52 1.803 . S
P32 C58 1.819 . S
H33 C47 0.941 . S
H34 C48 0.939 . S
H35 C50 0.940 . S
H36 C51 0.940 . S
H37 C53 0.939 . S
H38 C54 0.942 . S
H39 C56 0.940 . S
H40 C57 0.939 . S
H41 C59 0.941 . S
H42 C63 0.939 . S
O43 P32 1.490 . S
H44 C60 0.939 . S
H45 C62 0.940 . S
C46 P32 1.812 . S
C46 C47 1.389 . S
C46 C51 1.391 . S
C47 H33 0.941 . S
C47 C46 1.389 . S
C47 C48 1.397 . S
C48 H34 0.939 . S
C48 C47 1.397 . S
C48 C49 1.378 . S
C49 C48 1.378 . S
C49 C50 1.378 . S
C50 H35 0.940 . S
C50 C49 1.378 . S
C50 C51 1.396 . S
C51 H36 0.940 . S
C51 C46 1.391 . S
C51 C50 1.396 . S
C52 P32 1.803 . S
C52 C53 1.378 . S
C52 C57 1.400 . S
C53 H37 0.939 . S
C53 C52 1.378 . S
C53 C54 1.361 . S
C54 H38 0.942 . S
C54 C53 1.361 . S
C54 C55 1.369 . S
C55 C54 1.369 . S
C55 C56 1.404 . S
C56 H39 0.940 . S
C56 C55 1.404 . S
C56 C57 1.389 . S
C57 H40 0.939 . S
C57 C52 1.400 . S
C57 C56 1.389 . S
C58 P32 1.819 . S
C58 C59 1.391 . S
C58 C63 1.391 . S
C59 H41 0.941 . S
C59 C58 1.391 . S
C59 C60 1.396 . S
C60 H44 0.939 . S
C60 C59 1.396 . S
C60 C61 1.397 . S
C61 C60 1.397 . S
C61 C62 1.385 . S
C62 H45 0.940 . S
C62 C61 1.385 . S
C62 C63 1.388 . S
C63 H42 0.939 . S
C63 C58 1.391 . S
C63 C62 1.388 . S
P64 O75 1.490 . S
P64 C78 1.812 . S
P64 C84 1.803 . S
P64 C90 1.819 . S
H65 C79 0.941 . S
H66 C80 0.939 . S
H67 C82 0.940 . S
H68 C83 0.940 . S
H69 C85 0.939 . S
H70 C86 0.942 . S
H71 C88 0.940 . S
H72 C89 0.939 . S
H73 C91 0.941 . S
H74 C95 0.939 . S
O75 P64 1.490 . S
H76 C92 0.939 . S
H77 C94 0.940 . S
C78 P64 1.812 . S
C78 C79 1.389 . S
C78 C83 1.391 . S
C79 H65 0.941 . S
C79 C78 1.389 . S
C79 C80 1.397 . S
C80 H66 0.939 . S
C80 C79 1.397 . S
C80 C81 1.378 . S
C81 C80 1.378 . S
C81 C82 1.378 . S
C82 H67 0.940 . S
C82 C81 1.378 . S
C82 C83 1.396 . S
C83 H68 0.940 . S
C83 C78 1.391 . S
C83 C82 1.396 . S
C84 P64 1.803 . S
C84 C85 1.378 . S
C84 C89 1.400 . S
C85 H69 0.939 . S
C85 C84 1.378 . S
C85 C86 1.361 . S
C86 H70 0.942 . S
C86 C85 1.361 . S
C86 C87 1.369 . S
C87 C86 1.369 . S
C87 C88 1.404 . S
C88 H71 0.940 . S
C88 C87 1.404 . S
C88 C89 1.389 . S
C89 H72 0.939 . S
C89 C84 1.400 . S
C89 C88 1.389 . S
C90 P64 1.819 . S
C90 C91 1.391 . S
C90 C95 1.391 . S
C91 H73 0.941 . S
C91 C90 1.391 . S
C91 C92 1.396 . S
C92 H76 0.939 . S
C92 C91 1.396 . S
C92 C93 1.397 . S
C93 C92 1.397 . S
C93 C94 1.385 . S
C94 H77 0.940 . S
C94 C93 1.385 . S
C94 C95 1.388 . S
C95 H74 0.939 . S
C95 C90 1.391 . S
C95 C94 1.388 . S
P96 O107 1.490 . S
P96 C110 1.812 . S
P96 C116 1.803 . S
P96 C122 1.819 . S
H97 C111 0.941 . S
H98 C112 0.939 . S
H99 C114 0.940 . S
H100 C115 0.940 . S
H101 C117 0.939 . S
H102 C118 0.942 . S
H103 C120 0.940 . S
H104 C121 0.939 . S
H105 C123 0.941 . S
H106 C127 0.939 . S
O107 P96 1.490 . S
H108 C124 0.939 . S
H109 C126 0.940 . S
C110 P96 1.812 . S
C110 C111 1.389 . S
C110 C115 1.391 . S
C111 H97 0.941 . S
C111 C110 1.389 . S
C111 C112 1.397 . S
C112 H98 0.939 . S
C112 C111 1.397 . S
C112 C113 1.378 . S
C113 C112 1.378 . S
C113 C114 1.378 . S
C114 H99 0.940 . S
C114 C113 1.378 . S
C114 C115 1.396 . S
C115 H100 0.940 . S
C115 C110 1.391 . S
C115 C114 1.396 . S
C116 P96 1.803 . S
C116 C117 1.378 . S
C116 C121 1.400 . S
C117 H101 0.939 . S
C117 C116 1.378 . S
C117 C118 1.361 . S
C118 H102 0.942 . S
C118 C117 1.361 . S
C118 C119 1.369 . S
C119 C118 1.369 . S
C119 C120 1.404 . S
C120 H103 0.940 . S
C120 C119 1.404 . S
C120 C121 1.389 . S
C121 H104 0.939 . S
C121 C116 1.400 . S
C121 C120 1.389 . S
C122 P96 1.819 . S
C122 C123 1.391 . S
C122 C127 1.391 . S
C123 H105 0.941 . S
C123 C122 1.391 . S
C123 C124 1.396 . S
C124 H108 0.939 . S
C124 C123 1.396 . S
C124 C125 1.397 . S
C125 C124 1.397 . S
C125 C126 1.385 . S
C126 H109 0.940 . S
C126 C125 1.385 . S
C126 C127 1.388 . S
C127 H106 0.939 . S
C127 C122 1.391 . S
C127 C126 1.388 . S
P128 O139 1.490 . S
P128 C142 1.812 . S
P128 C148 1.803 . S
P128 C154 1.819 . S
H129 C143 0.941 . S
H130 C144 0.939 . S
H131 C146 0.940 . S
H132 C147 0.940 . S
H133 C149 0.939 . S
H134 C150 0.942 . S
H135 C152 0.940 . S
H136 C153 0.939 . S
H137 C155 0.941 . S
H138 C159 0.939 . S
O139 P128 1.490 . S
H140 C156 0.939 . S
H141 C158 0.940 . S
C142 P128 1.812 . S
C142 C143 1.389 . S
C142 C147 1.391 . S
C143 H129 0.941 . S
C143 C142 1.389 . S
C143 C144 1.397 . S
C144 H130 0.939 . S
C144 C143 1.397 . S
C144 C145 1.378 . S
C145 C144 1.378 . S
C145 C146 1.378 . S
C146 H131 0.940 . S
C146 C145 1.378 . S
C146 C147 1.396 . S
C147 H132 0.940 . S
C147 C142 1.391 . S
C147 C146 1.396 . S
C148 P128 1.803 . S
C148 C149 1.378 . S
C148 C153 1.400 . S
C149 H133 0.939 . S
C149 C148 1.378 . S
C149 C150 1.361 . S
C150 H134 0.942 . S
C150 C149 1.361 . S
C150 C151 1.369 . S
C151 C150 1.369 . S
C151 C152 1.404 . S
C152 H135 0.940 . S
C152 C151 1.404 . S
C152 C153 1.389 . S
C153 H136 0.939 . S
C153 C148 1.400 . S
C153 C152 1.389 . S
C154 P128 1.819 . S
C154 C155 1.391 . S
C154 C159 1.391 . S
C155 H137 0.941 . S
C155 C154 1.391 . S
C155 C156 1.396 . S
C156 H140 0.939 . S
C156 C155 1.396 . S
C156 C157 1.397 . S
C157 C156 1.397 . S
C157 C158 1.385 . S
C158 H141 0.940 . S
C158 C157 1.385 . S
C158 C159 1.388 . S
C159 H138 0.939 . S
C159 C154 1.391 . S
C159 C158 1.388 . S
P160 O171 1.490 . S
P160 C174 1.812 . S
P160 C180 1.803 . S
P160 C186 1.819 . S
H161 C175 0.941 . S
H162 C176 0.939 . S
H163 C178 0.940 . S
H164 C179 0.940 . S
H165 C181 0.939 . S
H166 C182 0.942 . S
H167 C184 0.940 . S
H168 C185 0.939 . S
H169 C187 0.941 . S
H170 C191 0.939 . S
O171 P160 1.490 . S
H172 C188 0.939 . S
H173 C190 0.940 . S
C174 P160 1.812 . S
C174 C175 1.389 . S
C174 C179 1.391 . S
C175 H161 0.941 . S
C175 C174 1.389 . S
C175 C176 1.397 . S
C176 H162 0.939 . S
C176 C175 1.397 . S
C176 C177 1.378 . S
C177 C176 1.378 . S
C177 C178 1.378 . S
C178 H163 0.940 . S
C178 C177 1.378 . S
C178 C179 1.396 . S
C179 H164 0.940 . S
C179 C174 1.391 . S
C179 C178 1.396 . S
C180 P160 1.803 . S
C180 C181 1.378 . S
C180 C185 1.400 . S
C181 H165 0.939 . S
C181 C180 1.378 . S
C181 C182 1.361 . S
C182 H166 0.942 . S
C182 C181 1.361 . S
C182 C183 1.369 . S
C183 C182 1.369 . S
C183 C184 1.404 . S
C184 H167 0.940 . S
C184 C183 1.404 . S
C184 C185 1.389 . S
C185 H168 0.939 . S
C185 C180 1.400 . S
C185 C184 1.389 . S
C186 P160 1.819 . S
C186 C187 1.391 . S
C186 C191 1.391 . S
C187 H169 0.941 . S
C187 C186 1.391 . S
C187 C188 1.396 . S
C188 H172 0.939 . S
C188 C187 1.396 . S
C188 C189 1.397 . S
C189 C188 1.397 . S
C189 C190 1.385 . S
C190 H173 0.940 . S
C190 C189 1.385 . S
C190 C191 1.388 . S
C191 H170 0.939 . S
C191 C186 1.391 . S
C191 C190 1.388 . S
P192 O203 1.490 . S
P192 C206 1.812 . S
P192 C212 1.803 . S
P192 C218 1.819 . S
H193 C207 0.941 . S
H194 C208 0.939 . S
H195 C210 0.940 . S
H196 C211 0.940 . S
H197 C213 0.939 . S
H198 C214 0.942 . S
H199 C216 0.940 . S
H200 C217 0.939 . S
H201 C219 0.941 . S
H202 C223 0.939 . S
O203 P192 1.490 . S
H204 C220 0.939 . S
H205 C222 0.940 . S
C206 P192 1.812 . S
C206 C207 1.389 . S
C206 C211 1.391 . S
C207 H193 0.941 . S
C207 C206 1.389 . S
C207 C208 1.397 . S
C208 H194 0.939 . S
C208 C207 1.397 . S
C208 C209 1.378 . S
C209 C208 1.378 . S
C209 C210 1.378 . S
C210 H195 0.940 . S
C210 C209 1.378 . S
C210 C211 1.396 . S
C211 H196 0.940 . S
C211 C206 1.391 . S
C211 C210 1.396 . S
C212 P192 1.803 . S
C212 C213 1.378 . S
C212 C217 1.400 . S
C213 H197 0.939 . S
C213 C212 1.378 . S
C213 C214 1.361 . S
C214 H198 0.942 . S
C214 C213 1.361 . S
C214 C215 1.369 . S
C215 C214 1.369 . S
C215 C216 1.404 . S
C216 H199 0.940 . S
C216 C215 1.404 . S
C216 C217 1.389 . S
C217 H200 0.939 . S
C217 C212 1.400 . S
C217 C216 1.389 . S
C218 P192 1.819 . S
C218 C219 1.391 . S
C218 C223 1.391 . S
C219 H201 0.941 . S
C219 C218 1.391 . S
C219 C220 1.396 . S
C220 H204 0.939 . S
C220 C219 1.396 . S
C220 C221 1.397 . S
C221 C220 1.397 . S
C221 C222 1.385 . S
C222 H205 0.940 . S
C222 C221 1.385 . S
C222 C223 1.388 . S
C223 H202 0.939 . S
C223 C218 1.391 . S
C223 C222 1.388 . S
P224 O235 1.490 . S
P224 C238 1.812 . S
P224 C244 1.803 . S
P224 C250 1.819 . S
H225 C239 0.941 . S
H226 C240 0.939 . S
H227 C242 0.940 . S
H228 C243 0.940 . S
H229 C245 0.939 . S
H230 C246 0.942 . S
H231 C248 0.940 . S
H232 C249 0.939 . S
H233 C251 0.941 . S
H234 C255 0.939 . S
O235 P224 1.490 . S
H236 C252 0.939 . S
H237 C254 0.940 . S
C238 P224 1.812 . S
C238 C239 1.389 . S
C238 C243 1.391 . S
C239 H225 0.941 . S
C239 C238 1.389 . S
C239 C240 1.397 . S
C240 H226 0.939 . S
C240 C239 1.397 . S
C240 C241 1.378 . S
C241 C240 1.378 . S
C241 C242 1.378 . S
C242 H227 0.940 . S
C242 C241 1.378 . S
C242 C243 1.396 . S
C243 H228 0.940 . S
C243 C238 1.391 . S
C243 C242 1.396 . S
C244 P224 1.803 . S
C244 C245 1.378 . S
C244 C249 1.400 . S
C245 H229 0.939 . S
C245 C244 1.378 . S
C245 C246 1.361 . S
C246 H230 0.942 . S
C246 C245 1.361 . S
C246 C247 1.369 . S
C247 C246 1.369 . S
C247 C248 1.404 . S
C248 H231 0.940 . S
C248 C247 1.404 . S
C248 C249 1.389 . S
C249 H232 0.939 . S
C249 C244 1.400 . S
C249 C248 1.389 . S
C250 P224 1.819 . S
C250 C251 1.391 . S
C250 C255 1.391 . S
C251 H233 0.941 . S
C251 C250 1.391 . S
C251 C252 1.396 . S
C252 H236 0.939 . S
C252 C251 1.396 . S
C252 C253 1.397 . S
C253 C252 1.397 . S
C253 C254 1.385 . S
C254 H237 0.940 . S
C254 C253 1.385 . S
C254 C255 1.388 . S
C255 H234 0.939 . S
C255 C250 1.391 . S
C255 C254 1.388 . S
Nd256 C258 2.836 . S
Nd256 O276 2.500 . S
Nd256 O277 2.492 . S
Nd256 O278 2.487 1_565 S
Nd256 O279 2.682 1_565 S
Nd256 O280 2.410 . S
Nd256 O285 2.414 1_455 S
Nd256 O287 2.424 1_565 S
Nd257 C267 2.836 . S
Nd257 O279 2.414 1_655 S
Nd257 O281 2.424 1_545 S
Nd257 O282 2.500 . S
Nd257 O283 2.492 . S
Nd257 O284 2.487 1_545 S
Nd257 O285 2.682 1_545 S
Nd257 O286 2.410 . S
C258 Nd256 2.836 . S
C258 C259 1.498 . S
C258 O276 1.258 . S
C258 O277 1.239 . S
C259 C258 1.498 . S
C259 C260 1.366 . S
C259 C264 1.407 . S
C260 C259 1.366 . S
C260 C261 1.392 . S
C260 H288 0.930 . S
C261 C260 1.392 . S
C261 C262 1.398 . S
C261 H289 0.929 . S
C262 C261 1.398 . S
C262 C263 1.352 . S
C263 C262 1.352 . S
C263 C264 1.384 . S
C263 H290 0.930 . S
C264 C259 1.407 . S
C264 C263 1.384 . S
C264 H291 0.929 . S
C265 O278 1.241 . S
C265 O279 1.273 . S
C266 O280 1.251 1_655 S
C266 O281 1.268 . S
C267 Nd257 2.836 . S
C267 C268 1.498 . S
C267 O282 1.258 . S
C267 O283 1.239 . S
C268 C267 1.498 . S
C268 C269 1.366 . S
C268 C273 1.407 . S
C269 C268 1.366 . S
C269 C270 1.392 . S
C269 H292 0.930 . S
C270 C269 1.392 . S
C270 C271 1.398 . S
C270 H293 0.929 . S
C271 C270 1.398 . S
C271 C272 1.352 . S
C272 C271 1.352 . S
C272 C273 1.384 . S
C272 H294 0.930 . S
C273 C268 1.407 . S
C273 C272 1.384 . S
C273 H295 0.929 . S
C274 O284 1.241 . S
C274 O285 1.273 . S
C275 O286 1.251 1_455 S
C275 O287 1.268 . S
O276 Nd256 2.500 . S
O276 C258 1.258 . S
O277 Nd256 2.492 . S
O277 C258 1.239 . S
O278 Nd256 2.487 1_545 S
O278 C265 1.241 . S
O279 Nd256 2.682 1_545 S
O279 Nd257 2.414 1_455 S
O279 C265 1.273 . S
O280 Nd256 2.410 . S
O280 C266 1.251 1_455 S
O281 Nd257 2.424 1_565 S
O281 C266 1.268 . S
O282 Nd257 2.500 . S
O282 C267 1.258 . S
O283 Nd257 2.492 . S
O283 C267 1.239 . S
O284 Nd257 2.487 1_565 S
O284 C274 1.241 . S
O285 Nd256 2.414 1_655 S
O285 Nd257 2.682 1_565 S
O285 C274 1.273 . S
O286 Nd257 2.410 . S
O286 C275 1.251 1_655 S
O287 Nd256 2.424 1_545 S
O287 C275 1.268 . S
H288 C260 0.930 . S
H289 C261 0.929 . S
H290 C263 0.930 . S
H291 C264 0.929 . S
H292 C269 0.930 . S
H293 C270 0.929 . S
H294 C272 0.930 . S
H295 C273 0.929 . S
Nd296 C298 2.836 . S
Nd296 O316 2.500 . S
Nd296 O317 2.492 . S
Nd296 O318 2.487 1_565 S
Nd296 O319 2.682 1_565 S
Nd296 O320 2.410 1_554 S
Nd296 O325 2.414 1_554 S
Nd296 O327 2.424 1_565 S
Nd297 C307 2.836 . S
Nd297 O319 2.414 1_556 S
Nd297 O321 2.424 1_545 S
Nd297 O322 2.500 . S
Nd297 O323 2.492 . S
Nd297 O324 2.487 . S
Nd297 O325 2.682 1_545 S
Nd297 O326 2.410 1_556 S
C298 Nd296 2.836 . S
C298 C299 1.498 . S
C298 O316 1.258 . S
C298 O317 1.239 . S
C299 C298 1.498 . S
C299 C300 1.366 . S
C299 C304 1.407 . S
C300 C299 1.366 . S
C300 C301 1.392 . S
C300 H328 0.930 . S
C301 C300 1.392 . S
C301 C302 1.398 . S
C301 H329 0.929 . S
C302 C301 1.398 . S
C302 C303 1.352 . S
C303 C302 1.352 . S
C303 C304 1.384 . S
C303 H330 0.930 . S
C304 C299 1.407 . S
C304 C303 1.384 . S
C304 H331 0.929 . S
C305 O318 1.241 . S
C305 O319 1.273 . S
C306 O320 1.251 . S
C306 O321 1.268 . S
C307 Nd297 2.836 . S
C307 C308 1.498 . S
C307 O322 1.258 . S
C307 O323 1.239 . S
C308 C307 1.498 . S
C308 C309 1.366 . S
C308 C313 1.407 . S
C309 C308 1.366 . S
C309 C310 1.392 . S
C309 H332 0.930 . S
C310 C309 1.392 . S
C310 C311 1.398 . S
C310 H333 0.929 . S
C311 C310 1.398 . S
C311 C312 1.352 . S
C312 C311 1.352 . S
C312 C313 1.384 . S
C312 H334 0.930 . S
C313 C308 1.407 . S
C313 C312 1.384 . S
C313 H335 0.929 . S
C314 O324 1.241 1_565 S
C314 O325 1.273 . S
C315 O326 1.251 . S
C315 O327 1.268 . S
O316 Nd296 2.500 . S
O316 C298 1.258 . S
O317 Nd296 2.492 . S
O317 C298 1.239 . S
O318 Nd296 2.487 1_545 S
O318 C305 1.241 . S
O319 Nd296 2.682 1_545 S
O319 Nd297 2.414 1_554 S
O319 C305 1.273 . S
O320 Nd296 2.410 1_556 S
O320 C306 1.251 . S
O321 Nd297 2.424 1_565 S
O321 C306 1.268 . S
O322 Nd297 2.500 . S
O322 C307 1.258 . S
O323 Nd297 2.492 . S
O323 C307 1.239 . S
O324 Nd297 2.487 . S
O324 C314 1.241 1_545 S
O325 Nd296 2.414 1_556 S
O325 Nd297 2.682 1_565 S
O325 C314 1.273 . S
O326 Nd297 2.410 1_554 S
O326 C315 1.251 . S
O327 Nd296 2.424 1_545 S
O327 C315 1.268 . S
H328 C300 0.930 . S
H329 C301 0.929 . S
H330 C303 0.930 . S
H331 C304 0.929 . S
H332 C309 0.930 . S
H333 C310 0.929 . S
H334 C312 0.930 . S
H335 C313 0.929 . S
Nd336 C338 2.836 . S
Nd336 O356 2.500 . S
Nd336 O357 2.492 . S
Nd336 O358 2.487 . S
Nd336 O359 2.682 . S
Nd336 O360 2.410 . S
Nd336 O365 2.414 . S
Nd336 O367 2.424 . S
Nd337 C347 2.836 . S
Nd337 O359 2.414 . S
Nd337 O361 2.424 . S
Nd337 O362 2.500 . S
Nd337 O363 2.492 . S
Nd337 O364 2.487 . S
Nd337 O365 2.682 . S
Nd337 O366 2.410 . S
C338 Nd336 2.836 . S
C338 C339 1.498 . S
C338 O356 1.258 . S
C338 O357 1.239 . S
C339 C338 1.498 . S
C339 C340 1.366 . S
C339 C344 1.407 . S
C340 C339 1.366 . S
C340 C341 1.392 . S
C340 H368 0.930 . S
C341 C340 1.392 . S
C341 C342 1.398 . S
C341 H369 0.929 . S
C342 C341 1.398 . S
C342 C343 1.352 . S
C343 C342 1.352 . S
C343 C344 1.384 . S
C343 H370 0.930 . S
C344 C339 1.407 . S
C344 C343 1.384 . S
C344 H371 0.929 . S
C345 O358 1.241 . S
C345 O359 1.273 . S
C346 O360 1.251 . S
C346 O361 1.268 . S
C347 Nd337 2.836 . S
C347 C348 1.498 . S
C347 O362 1.258 . S
C347 O363 1.239 . S
C348 C347 1.498 . S
C348 C349 1.366 . S
C348 C353 1.407 . S
C349 C348 1.366 . S
C349 C350 1.392 . S
C349 H372 0.930 . S
C350 C349 1.392 . S
C350 C351 1.398 . S
C350 H373 0.929 . S
C351 C350 1.398 . S
C351 C352 1.352 . S
C352 C351 1.352 . S
C352 C353 1.384 . S
C352 H374 0.930 . S
C353 C348 1.407 . S
C353 C352 1.384 . S
C353 H375 0.929 . S
C354 O364 1.241 . S
C354 O365 1.273 . S
C355 O366 1.251 . S
C355 O367 1.268 . S
O356 Nd336 2.500 . S
O356 C338 1.258 . S
O357 Nd336 2.492 . S
O357 C338 1.239 . S
O358 Nd336 2.487 . S
O358 C345 1.241 . S
O359 Nd336 2.682 . S
O359 Nd337 2.414 . S
O359 C345 1.273 . S
O360 Nd336 2.410 . S
O360 C346 1.251 . S
O361 Nd337 2.424 . S
O361 C346 1.268 . S
O362 Nd337 2.500 . S
O362 C347 1.258 . S
O363 Nd337 2.492 . S
O363 C347 1.239 . S
O364 Nd337 2.487 . S
O364 C354 1.241 . S
O365 Nd336 2.414 . S
O365 Nd337 2.682 . S
O365 C354 1.273 . S
O366 Nd337 2.410 . S
O366 C355 1.251 . S
O367 Nd336 2.424 . S
O367 C355 1.268 . S
H368 C340 0.930 . S
H369 C341 0.929 . S
H370 C343 0.930 . S
H371 C344 0.929 . S
H372 C349 0.930 . S
H373 C350 0.929 . S
H374 C352 0.930 . S
H375 C353 0.929 . S
Nd376 C378 2.836 . S
Nd376 O396 2.500 . S
Nd376 O397 2.492 . S
Nd376 O398 2.487 1_655 S
Nd376 O399 2.682 1_655 S
Nd376 O400 2.410 . S
Nd376 O405 2.414 1_554 S
Nd376 O407 2.424 1_655 S
Nd377 C387 2.836 . S
Nd377 O399 2.414 1_556 S
Nd377 O401 2.424 1_455 S
Nd377 O402 2.500 . S
Nd377 O403 2.492 . S
Nd377 O404 2.487 1_455 S
Nd377 O405 2.682 1_455 S
Nd377 O406 2.410 . S
C378 Nd376 2.836 . S
C378 C379 1.498 . S
C378 O396 1.258 . S
C378 O397 1.239 . S
C379 C378 1.498 . S
C379 C380 1.366 . S
C379 C384 1.407 . S
C380 C379 1.366 . S
C380 C381 1.392 . S
C380 H408 0.930 . S
C381 C380 1.392 . S
C381 C382 1.398 . S
C381 H409 0.929 . S
C382 C381 1.398 . S
C382 C383 1.352 . S
C383 C382 1.352 . S
C383 C384 1.384 . S
C383 H410 0.930 . S
C384 C379 1.407 . S
C384 C383 1.384 . S
C384 H411 0.929 . S
C385 O398 1.241 . S
C385 O399 1.273 . S
C386 O400 1.251 1_556 S
C386 O401 1.268 . S
C387 Nd377 2.836 . S
C387 C388 1.498 . S
C387 O402 1.258 . S
C387 O403 1.239 . S
C388 C387 1.498 . S
C388 C389 1.366 . S
C388 C393 1.407 . S
C389 C388 1.366 . S
C389 C390 1.392 . S
C389 H412 0.930 . S
C390 C389 1.392 . S
C390 C391 1.398 . S
C390 H413 0.929 . S
C391 C390 1.398 . S
C391 C392 1.352 . S
C392 C391 1.352 . S
C392 C393 1.384 . S
C392 H414 0.930 . S
C393 C388 1.407 . S
C393 C392 1.384 . S
C393 H415 0.929 . S
C394 O404 1.241 . S
C394 O405 1.273 . S
C395 O406 1.251 1_554 S
C395 O407 1.268 . S
O396 Nd376 2.500 . S
O396 C378 1.258 . S
O397 Nd376 2.492 . S
O397 C378 1.239 . S
O398 Nd376 2.487 1_455 S
O398 C385 1.241 . S
O399 Nd376 2.682 1_455 S
O399 Nd377 2.414 1_554 S
O399 C385 1.273 . S
O400 Nd376 2.410 . S
O400 C386 1.251 1_554 S
O401 Nd377 2.424 1_655 S
O401 C386 1.268 . S
O402 Nd377 2.500 . S
O402 C387 1.258 . S
O403 Nd377 2.492 . S
O403 C387 1.239 . S
O404 Nd377 2.487 1_655 S
O404 C394 1.241 . S
O405 Nd376 2.414 1_556 S
O405 Nd377 2.682 1_655 S
O405 C394 1.273 . S
O406 Nd377 2.410 . S
O406 C395 1.251 1_556 S
O407 Nd376 2.424 1_455 S
O407 C395 1.268 . S
H408 C380 0.930 . S
H409 C381 0.929 . S
H410 C383 0.930 . S
H411 C384 0.929 . S
H412 C389 0.930 . S
H413 C390 0.929 . S
H414 C392 0.930 . S
H415 C393 0.929 . S
H416 C424 0.950 . S
H417 C429 0.950 . S
H418 C426 0.950 . S
H419 C428 0.950 . S
H420 C430 0.950 . S
H421 C432 0.950 . S
H422 C434 0.950 . S
H423 C435 0.950 . S
C424 H416 0.950 . S
C424 C425 1.386 . S
C424 C426 1.391 . S
C425 C424 1.386 . S
C425 C429 1.393 . S
C426 H418 0.950 . S
C426 C424 1.391 . S
C426 C427 1.400 . S
C427 C426 1.400 . S
C427 C428 1.398 . S
C427 C433 1.491 . S
C428 H419 0.950 . S
C428 C427 1.398 . S
C428 C429 1.391 . S
C429 H417 0.950 . S
C429 C425 1.393 . S
C429 C428 1.391 . S
C430 H420 0.950 . S
C430 C431 1.386 . S
C430 C432 1.391 . S
C431 C430 1.386 . S
C431 C435 1.393 . S
C432 H421 0.950 . S
C432 C430 1.391 . S
C432 C433 1.400 . S
C433 C427 1.491 . S
C433 C432 1.400 . S
C433 C434 1.398 . S
C434 H422 0.950 . S
C434 C433 1.398 . S
C434 C435 1.391 . S
C435 H423 0.950 . S
C435 C431 1.393 . S
C435 C434 1.391 . S
H436 C444 0.950 . S
H437 C449 0.950 . S
H438 C446 0.950 . S
H439 C448 0.950 . S
H440 C450 0.950 . S
H441 C452 0.950 . S
H442 C454 0.950 . S
H443 C455 0.950 . S
C444 H436 0.950 . S
C444 C445 1.386 . S
C444 C446 1.391 . S
C445 C444 1.386 . S
C445 C449 1.393 . S
C446 H438 0.950 . S
C446 C444 1.391 . S
C446 C447 1.400 . S
C447 C446 1.400 . S
C447 C448 1.398 . S
C447 C453 1.491 . S
C448 H439 0.950 . S
C448 C447 1.398 . S
C448 C449 1.391 . S
C449 H437 0.950 . S
C449 C445 1.393 . S
C449 C448 1.391 . S
C450 H440 0.950 . S
C450 C451 1.386 . S
C450 C452 1.391 . S
C451 C450 1.386 . S
C451 C455 1.393 . S
C452 H441 0.950 . S
C452 C450 1.391 . S
C452 C453 1.400 . S
C453 C447 1.491 . S
C453 C452 1.400 . S
C453 C454 1.398 . S
C454 H442 0.950 . S
C454 C453 1.398 . S
C454 C455 1.391 . S
C455 H443 0.950 . S
C455 C451 1.393 . S
C455 C454 1.391 . S
H456 C464 0.950 . S
H457 C469 0.950 . S
H458 C466 0.950 . S
H459 C468 0.950 . S
H460 C470 0.950 . S
H461 C472 0.950 . S
H462 C474 0.950 . S
H463 C475 0.950 . S
C464 H456 0.950 . S
C464 C465 1.386 . S
C464 C466 1.391 . S
C465 C464 1.386 . S
C465 C469 1.393 . S
C466 H458 0.950 . S
C466 C464 1.391 . S
C466 C467 1.400 . S
C467 C466 1.400 . S
C467 C468 1.398 . S
C467 C473 1.491 . S
C468 H459 0.950 . S
C468 C467 1.398 . S
C468 C469 1.391 . S
C469 H457 0.950 . S
C469 C465 1.393 . S
C469 C468 1.391 . S
C470 H460 0.950 . S
C470 C471 1.386 . S
C470 C472 1.391 . S
C471 C470 1.386 . S
C471 C475 1.393 . S
C472 H461 0.950 . S
C472 C470 1.391 . S
C472 C473 1.400 . S
C473 C467 1.491 . S
C473 C472 1.400 . S
C473 C474 1.398 . S
C474 H462 0.950 . S
C474 C473 1.398 . S
C474 C475 1.391 . S
C475 H463 0.950 . S
C475 C471 1.393 . S
C475 C474 1.391 . S
H476 C484 0.950 . S
H477 C489 0.950 . S
H478 C486 0.950 . S
H479 C488 0.950 . S
H480 C490 0.950 . S
H481 C492 0.950 . S
H482 C494 0.950 . S
H483 C495 0.950 . S
C484 H476 0.950 . S
C484 C485 1.386 . S
C484 C486 1.391 . S
C485 C484 1.386 . S
C485 C489 1.393 . S
C486 H478 0.950 . S
C486 C484 1.391 . S
C486 C487 1.400 . S
C487 C486 1.400 . S
C487 C488 1.398 . S
C487 C493 1.491 . S
C488 H479 0.950 . S
C488 C487 1.398 . S
C488 C489 1.391 . S
C489 H477 0.950 . S
C489 C485 1.393 . S
C489 C488 1.391 . S
C490 H480 0.950 . S
C490 C491 1.386 . S
C490 C492 1.391 . S
C491 C490 1.386 . S
C491 C495 1.393 . S
C492 H481 0.950 . S
C492 C490 1.391 . S
C492 C493 1.400 . S
C493 C487 1.491 . S
C493 C492 1.400 . S
C493 C494 1.398 . S
C494 H482 0.950 . S
C494 C493 1.398 . S
C494 C495 1.391 . S
C495 H483 0.950 . S
C495 C491 1.393 . S
C495 C494 1.391 . S
H496 C504 0.950 . S
H497 C509 0.950 . S
H498 C506 0.950 . S
H499 C508 0.950 . S
H500 C510 0.950 . S
H501 C512 0.950 . S
H502 C514 0.950 . S
H503 C515 0.950 1_556 S
C504 H496 0.950 . S
C504 C505 1.386 . S
C504 C506 1.391 . S
C505 C504 1.386 . S
C505 C509 1.393 . S
C506 H498 0.950 . S
C506 C504 1.391 . S
C506 C507 1.400 . S
C507 C506 1.400 . S
C507 C508 1.398 . S
C507 C513 1.491 . S
C508 H499 0.950 . S
C508 C507 1.398 . S
C508 C509 1.391 . S
C509 H497 0.950 . S
C509 C505 1.393 . S
C509 C508 1.391 . S
C510 H500 0.950 . S
C510 C511 1.386 . S
C510 C512 1.391 . S
C511 C510 1.386 . S
C511 C515 1.393 . S
C512 H501 0.950 . S
C512 C510 1.391 . S
C512 C513 1.400 . S
C513 C507 1.491 . S
C513 C512 1.400 . S
C513 C514 1.398 . S
C514 H502 0.950 . S
C514 C513 1.398 . S
C514 C515 1.391 . S
C515 H503 0.950 1_554 S
C515 C511 1.393 . S
C515 C514 1.391 . S
H516 C524 0.950 . S
H517 C529 0.950 . S
H518 C526 0.950 . S
H519 C528 0.950 . S
H520 C530 0.950 . S
H521 C532 0.950 . S
H522 C534 0.950 . S
H523 C535 0.950 . S
C524 H516 0.950 . S
C524 C525 1.386 . S
C524 C526 1.391 . S
C525 C524 1.386 . S
C525 C529 1.393 . S
C526 H518 0.950 . S
C526 C524 1.391 . S
C526 C527 1.400 . S
C527 C526 1.400 . S
C527 C528 1.398 . S
C527 C533 1.491 . S
C528 H519 0.950 . S
C528 C527 1.398 . S
C528 C529 1.391 . S
C529 H517 0.950 . S
C529 C525 1.393 . S
C529 C528 1.391 . S
C530 H520 0.950 . S
C530 C531 1.386 . S
C530 C532 1.391 . S
C531 C530 1.386 . S
C531 C535 1.393 . S
C532 H521 0.950 . S
C532 C530 1.391 . S
C532 C533 1.400 . S
C533 C527 1.491 . S
C533 C532 1.400 . S
C533 C534 1.398 . S
C534 H522 0.950 . S
C534 C533 1.398 . S
C534 C535 1.391 . S
C535 H523 0.950 . S
C535 C531 1.393 . S
C535 C534 1.391 . S
H536 C544 0.950 . S
H537 C549 0.950 . S
H538 C546 0.950 . S
H539 C548 0.950 . S
H540 C550 0.950 . S
H541 C552 0.950 . S
H542 C554 0.950 . S
H543 C555 0.950 . S
C544 H536 0.950 . S
C544 C545 1.386 . S
C544 C546 1.391 . S
C545 C544 1.386 . S
C545 C549 1.393 . S
C546 H538 0.950 . S
C546 C544 1.391 . S
C546 C547 1.400 . S
C547 C546 1.400 . S
C547 C548 1.398 . S
C547 C553 1.491 . S
C548 H539 0.950 . S
C548 C547 1.398 . S
C548 C549 1.391 . S
C549 H537 0.950 . S
C549 C545 1.393 . S
C549 C548 1.391 . S
C550 H540 0.950 . S
C550 C551 1.386 . S
C550 C552 1.391 . S
C551 C550 1.386 . S
C551 C555 1.393 . S
C552 H541 0.950 . S
C552 C550 1.391 . S
C552 C553 1.400 . S
C553 C547 1.491 . S
C553 C552 1.400 . S
C553 C554 1.398 . S
C554 H542 0.950 . S
C554 C553 1.398 . S
C554 C555 1.391 . S
C555 H543 0.950 . S
C555 C551 1.393 . S
C555 C554 1.391 . S
H556 C564 0.950 . S
H557 C569 0.950 . S
H558 C566 0.950 . S
H559 C568 0.950 . S
H560 C570 0.950 . S
H561 C572 0.950 . S
H562 C574 0.950 . S
H563 C575 0.950 . S
C564 H556 0.950 . S
C564 C565 1.386 . S
C564 C566 1.391 . S
C565 C564 1.386 . S
C565 C569 1.393 . S
C566 H558 0.950 . S
C566 C564 1.391 . S
C566 C567 1.400 . S
C567 C566 1.400 . S
C567 C568 1.398 . S
C567 C573 1.491 . S
C568 H559 0.950 . S
C568 C567 1.398 . S
C568 C569 1.391 . S
C569 H557 0.950 . S
C569 C565 1.393 . S
C569 C568 1.391 . S
C570 H560 0.950 . S
C570 C571 1.386 . S
C570 C572 1.391 . S
C571 C570 1.386 . S
C571 C575 1.393 . S
C572 H561 0.950 . S
C572 C570 1.391 . S
C572 C573 1.400 . S
C573 C567 1.491 . S
C573 C572 1.400 . S
C573 C574 1.398 . S
C574 H562 0.950 . S
C574 C573 1.398 . S
C574 C575 1.391 . S
C575 H563 0.950 . S
C575 C571 1.393 . S
C575 C574 1.391 . S
H576 C584 0.950 . S
H577 C589 0.950 . S
H578 C586 0.950 . S
H579 C588 0.950 . S
H580 C590 0.950 . S
H581 C592 0.950 . S
H582 C594 0.950 . S
H583 C595 0.950 . S
C584 H576 0.950 . S
C584 C585 1.386 . S
C584 C586 1.391 . S
C585 C584 1.386 . S
C585 C589 1.393 . S
C586 H578 0.950 . S
C586 C584 1.391 . S
C586 C587 1.400 . S
C587 C586 1.400 . S
C587 C588 1.398 . S
C587 C593 1.491 . S
C588 H579 0.950 . S
C588 C587 1.398 . S
C588 C589 1.391 . S
C589 H577 0.950 . S
C589 C585 1.393 . S
C589 C588 1.391 . S
C590 H580 0.950 . S
C590 C591 1.386 . S
C590 C592 1.391 . S
C591 C590 1.386 . S
C591 C595 1.393 . S
C592 H581 0.950 . S
C592 C590 1.391 . S
C592 C593 1.400 . S
C593 C587 1.491 . S
C593 C592 1.400 . S
C593 C594 1.398 . S
C594 H582 0.950 . S
C594 C593 1.398 . S
C594 C595 1.391 . S
C595 H583 0.950 . S
C595 C591 1.393 . S
C595 C594 1.391 . S
H596 C604 0.950 . S
H597 C609 0.950 . S
H598 C606 0.950 . S
H599 C608 0.950 . S
H600 C610 0.950 . S
H601 C612 0.950 . S
H602 C614 0.950 . S
H603 C615 0.950 . S
C604 H596 0.950 . S
C604 C605 1.386 . S
C604 C606 1.391 . S
C605 C604 1.386 . S
C605 C609 1.393 . S
C606 H598 0.950 . S
C606 C604 1.391 . S
C606 C607 1.400 . S
C607 C606 1.400 . S
C607 C608 1.398 . S
C607 C613 1.491 . S
C608 H599 0.950 . S
C608 C607 1.398 . S
C608 C609 1.391 . S
C609 H597 0.950 . S
C609 C605 1.393 . S
C609 C608 1.391 . S
C610 H600 0.950 . S
C610 C611 1.386 . S
C610 C612 1.391 . S
C611 C610 1.386 . S
C611 C615 1.393 . S
C612 H601 0.950 . S
C612 C610 1.391 . S
C612 C613 1.400 . S
C613 C607 1.491 . S
C613 C612 1.400 . S
C613 C614 1.398 . S
C614 H602 0.950 . S
C614 C613 1.398 . S
C614 C615 1.391 . S
C615 H603 0.950 . S
C615 C611 1.393 . S
C615 C614 1.391 . S
H616 C624 0.950 . S
H617 C629 0.950 . S
H618 C626 0.950 . S
H619 C628 0.950 . S
H620 C630 0.950 . S
H621 C632 0.950 . S
H622 C634 0.950 . S
H623 C635 0.950 1_455 S
C624 H616 0.950 . S
C624 C625 1.386 . S
C624 C626 1.391 . S
C625 C624 1.386 . S
C625 C629 1.393 . S
C626 H618 0.950 . S
C626 C624 1.391 . S
C626 C627 1.400 . S
C627 C626 1.400 . S
C627 C628 1.398 . S
C627 C633 1.491 . S
C628 H619 0.950 . S
C628 C627 1.398 . S
C628 C629 1.391 . S
C629 H617 0.950 . S
C629 C625 1.393 . S
C629 C628 1.391 . S
C630 H620 0.950 . S
C630 C631 1.386 . S
C630 C632 1.391 . S
C631 C630 1.386 . S
C631 C635 1.393 . S
C632 H621 0.950 . S
C632 C630 1.391 . S
C632 C633 1.400 . S
C633 C627 1.491 . S
C633 C632 1.400 . S
C633 C634 1.398 . S
C634 H622 0.950 . S
C634 C633 1.398 . S
C634 C635 1.391 . S
C635 H623 0.950 1_655 S
C635 C631 1.393 . S
C635 C634 1.391 . S
H636 C644 0.950 . S
H637 C649 0.950 . S
H638 C646 0.950 . S
H639 C648 0.950 . S
H640 C650 0.950 . S
H641 C652 0.950 . S
H642 C654 0.950 . S
H643 C655 0.950 . S
C644 H636 0.950 . S
C644 C645 1.386 . S
C644 C646 1.391 . S
C645 C644 1.386 . S
C645 C649 1.393 . S
C646 H638 0.950 . S
C646 C644 1.391 . S
C646 C647 1.400 . S
C647 C646 1.400 . S
C647 C648 1.398 . S
C647 C653 1.491 . S
C648 H639 0.950 . S
C648 C647 1.398 . S
C648 C649 1.391 . S
C649 H637 0.950 . S
C649 C645 1.393 . S
C649 C648 1.391 . S
C650 H640 0.950 . S
C650 C651 1.386 . S
C650 C652 1.391 . S
C651 C650 1.386 . S
C651 C655 1.393 . S
C652 H641 0.950 . S
C652 C650 1.391 . S
C652 C653 1.400 . S
C653 C647 1.491 . S
C653 C652 1.400 . S
C653 C654 1.398 . S
C654 H642 0.950 . S
C654 C653 1.398 . S
C654 C655 1.391 . S
C655 H643 0.950 . S
C655 C651 1.393 . S
C655 C654 1.391 . S
H656 C664 0.950 . S
H657 C669 0.950 . S
H658 C666 0.950 . S
H659 C668 0.950 . S
H660 C670 0.950 . S
H661 C672 0.950 . S
H662 C674 0.950 . S
H663 C675 0.950 . S
C664 H656 0.950 . S
C664 C665 1.386 . S
C664 C666 1.391 . S
C665 C664 1.386 . S
C665 C669 1.393 . S
C666 H658 0.950 . S
C666 C664 1.391 . S
C666 C667 1.400 . S
C667 C666 1.400 . S
C667 C668 1.398 . S
C667 C673 1.491 . S
C668 H659 0.950 . S
C668 C667 1.398 . S
C668 C669 1.391 . S
C669 H657 0.950 . S
C669 C665 1.393 . S
C669 C668 1.391 . S
C670 H660 0.950 . S
C670 C671 1.386 . S
C670 C672 1.391 . S
C671 C670 1.386 . S
C671 C675 1.393 . S
C672 H661 0.950 . S
C672 C670 1.391 . S
C672 C673 1.400 . S
C673 C667 1.491 . S
C673 C672 1.400 . S
C673 C674 1.398 . S
C674 H662 0.950 . S
C674 C673 1.398 . S
C674 C675 1.391 . S
C675 H663 0.950 . S
C675 C671 1.393 . S
C675 C674 1.391 . S
H676 C684 0.950 . S
H677 C689 0.950 . S
H678 C686 0.950 . S
H679 C688 0.950 . S
H680 C690 0.950 . S
H681 C692 0.950 . S
H682 C694 0.950 . S
H683 C695 0.950 . S
C684 H676 0.950 . S
C684 C685 1.386 . S
C684 C686 1.391 . S
C685 C684 1.386 . S
C685 C689 1.393 . S
C686 H678 0.950 . S
C686 C684 1.391 . S
C686 C687 1.400 . S
C687 C686 1.400 . S
C687 C688 1.398 . S
C687 C693 1.491 . S
C688 H679 0.950 . S
C688 C687 1.398 . S
C688 C689 1.391 . S
C689 H677 0.950 . S
C689 C685 1.393 . S
C689 C688 1.391 . S
C690 H680 0.950 . S
C690 C691 1.386 . S
C690 C692 1.391 . S
C691 C690 1.386 . S
C691 C695 1.393 . S
C692 H681 0.950 . S
C692 C690 1.391 . S
C692 C693 1.400 . S
C693 C687 1.491 . S
C693 C692 1.400 . S
C693 C694 1.398 . S
C694 H682 0.950 . S
C694 C693 1.398 . S
C694 C695 1.391 . S
C695 H683 0.950 . S
C695 C691 1.393 . S
C695 C694 1.391 . S
H696 C704 0.950 . S
H697 C709 0.950 . S
H698 C706 0.950 . S
H699 C708 0.950 . S
H700 C710 0.950 . S
H701 C712 0.950 . S
H702 C714 0.950 . S
H703 C715 0.950 . S
C704 H696 0.950 . S
C704 C705 1.386 . S
C704 C706 1.391 . S
C705 C704 1.386 . S
C705 C709 1.393 . S
C706 H698 0.950 . S
C706 C704 1.391 . S
C706 C707 1.400 . S
C707 C706 1.400 . S
C707 C708 1.398 . S
C707 C713 1.491 . S
C708 H699 0.950 . S
C708 C707 1.398 . S
C708 C709 1.391 . S
C709 H697 0.950 . S
C709 C705 1.393 . S
C709 C708 1.391 . S
C710 H700 0.950 . S
C710 C711 1.386 . S
C710 C712 1.391 . S
C711 C710 1.386 . S
C711 C715 1.393 . S
C712 H701 0.950 . S
C712 C710 1.391 . S
C712 C713 1.400 . S
C713 C707 1.491 . S
C713 C712 1.400 . S
C713 C714 1.398 . S
C714 H702 0.950 . S
C714 C713 1.398 . S
C714 C715 1.391 . S
C715 H703 0.950 . S
C715 C711 1.393 . S
C715 C714 1.391 . S
H716 C724 0.950 . S
H717 C729 0.950 . S
H718 C726 0.950 . S
H719 C728 0.950 . S
H720 C730 0.950 . S
H721 C732 0.950 . S
H722 C734 0.950 . S
H723 C735 0.950 . S
C724 H716 0.950 . S
C724 C725 1.386 . S
C724 C726 1.391 . S
C725 C724 1.386 . S
C725 C729 1.393 . S
C726 H718 0.950 . S
C726 C724 1.391 . S
C726 C727 1.400 . S
C727 C726 1.400 . S
C727 C728 1.398 . S
C727 C733 1.491 . S
C728 H719 0.950 . S
C728 C727 1.398 . S
C728 C729 1.391 . S
C729 H717 0.950 . S
C729 C725 1.393 . S
C729 C728 1.391 . S
C730 H720 0.950 . S
C730 C731 1.386 . S
C730 C732 1.391 . S
C731 C730 1.386 . S
C731 C735 1.393 . S
C732 H721 0.950 . S
C732 C730 1.391 . S
C732 C733 1.400 . S
C733 C727 1.491 . S
C733 C732 1.400 . S
C733 C734 1.398 . S
C734 H722 0.950 . S
C734 C733 1.398 . S
C734 C735 1.391 . S
C735 H723 0.950 . S
C735 C731 1.393 . S
C735 C734 1.391 . S
H736 C744 0.950 . S
H737 C749 0.950 . S
H738 C746 0.950 . S
H739 C748 0.950 . S
H740 C750 0.950 . S
H741 C752 0.950 . S
H742 C754 0.950 1_554 S
H743 C755 0.950 1_554 S
C744 H736 0.950 . S
C744 C745 1.386 . S
C744 C746 1.391 . S
C745 C744 1.386 . S
C745 C749 1.393 . S
C746 H738 0.950 . S
C746 C744 1.391 . S
C746 C747 1.400 . S
C747 C746 1.400 . S
C747 C748 1.398 . S
C747 C753 1.491 . S
C748 H739 0.950 . S
C748 C747 1.398 . S
C748 C749 1.391 . S
C749 H737 0.950 . S
C749 C745 1.393 . S
C749 C748 1.391 . S
C750 H740 0.950 . S
C750 C751 1.386 . S
C750 C752 1.391 . S
C751 C750 1.386 . S
C751 C755 1.393 . S
C752 H741 0.950 . S
C752 C750 1.391 . S
C752 C753 1.400 . S
C753 C747 1.491 . S
C753 C752 1.400 . S
C753 C754 1.398 . S
C754 H742 0.950 1_556 S
C754 C753 1.398 . S
C754 C755 1.391 . S
C755 H743 0.950 1_556 S
C755 C751 1.393 . S
C755 C754 1.391 . S
H756 C764 0.950 . S
H757 C769 0.950 . S
H758 C766 0.950 . S
H759 C768 0.950 . S
H760 C770 0.950 . S
H761 C772 0.950 . S
H762 C774 0.950 . S
H763 C775 0.950 . S
C764 H756 0.950 . S
C764 C765 1.386 . S
C764 C766 1.391 . S
C765 C764 1.386 . S
C765 C769 1.393 . S
C766 H758 0.950 . S
C766 C764 1.391 . S
C766 C767 1.400 . S
C767 C766 1.400 . S
C767 C768 1.398 . S
C767 C773 1.491 . S
C768 H759 0.950 . S
C768 C767 1.398 . S
C768 C769 1.391 . S
C769 H757 0.950 . S
C769 C765 1.393 . S
C769 C768 1.391 . S
C770 H760 0.950 . S
C770 C771 1.386 . S
C770 C772 1.391 . S
C771 C770 1.386 . S
C771 C775 1.393 . S
C772 H761 0.950 . S
C772 C770 1.391 . S
C772 C773 1.400 . S
C773 C767 1.491 . S
C773 C772 1.400 . S
C773 C774 1.398 . S
C774 H762 0.950 . S
C774 C773 1.398 . S
C774 C775 1.391 . S
C775 H763 0.950 . S
C775 C771 1.393 . S
C775 C774 1.391 . S
H776 C784 0.950 . S
H777 C789 0.950 . S
H778 C786 0.950 . S
H779 C788 0.950 . S
H780 C790 0.950 . S
H781 C792 0.950 . S
H782 C794 0.950 . S
H783 C795 0.950 . S
C784 H776 0.950 . S
C784 C785 1.386 . S
C784 C786 1.391 . S
C785 C784 1.386 . S
C785 C789 1.393 . S
C786 H778 0.950 . S
C786 C784 1.391 . S
C786 C787 1.400 . S
C787 C786 1.400 . S
C787 C788 1.398 . S
C787 C793 1.491 . S
C788 H779 0.950 . S
C788 C787 1.398 . S
C788 C789 1.391 . S
C789 H777 0.950 . S
C789 C785 1.393 . S
C789 C788 1.391 . S
C790 H780 0.950 . S
C790 C791 1.386 . S
C790 C792 1.391 . S
C791 C790 1.386 . S
C791 C795 1.393 . S
C792 H781 0.950 . S
C792 C790 1.391 . S
C792 C793 1.400 . S
C793 C787 1.491 . S
C793 C792 1.400 . S
C793 C794 1.398 . S
C794 H782 0.950 . S
C794 C793 1.398 . S
C794 C795 1.391 . S
C795 H783 0.950 . S
C795 C791 1.393 . S
C795 C794 1.391 . S
H796 C804 0.950 . S
H797 C809 0.950 . S
H798 C806 0.950 . S
H799 C808 0.950 . S
H800 C810 0.950 . S
H801 C812 0.950 . S
H802 C814 0.950 . S
H803 C815 0.950 . S
C804 H796 0.950 . S
C804 C805 1.386 . S
C804 C806 1.391 . S
C805 C804 1.386 . S
C805 C809 1.393 . S
C806 H798 0.950 . S
C806 C804 1.391 . S
C806 C807 1.400 . S
C807 C806 1.400 . S
C807 C808 1.398 . S
C807 C813 1.491 . S
C808 H799 0.950 . S
C808 C807 1.398 . S
C808 C809 1.391 . S
C809 H797 0.950 . S
C809 C805 1.393 . S
C809 C808 1.391 . S
C810 H800 0.950 . S
C810 C811 1.386 . S
C810 C812 1.391 . S
C811 C810 1.386 . S
C811 C815 1.393 . S
C812 H801 0.950 . S
C812 C810 1.391 . S
C812 C813 1.400 . S
C813 C807 1.491 . S
C813 C812 1.400 . S
C813 C814 1.398 . S
C814 H802 0.950 . S
C814 C813 1.398 . S
C814 C815 1.391 . S
C815 H803 0.950 . S
C815 C811 1.393 . S
C815 C814 1.391 . S
H816 C824 0.950 . S
H817 C829 0.950 . S
H818 C826 0.950 . S
H819 C828 0.950 . S
H820 C830 0.950 . S
H821 C832 0.950 . S
H822 C834 0.950 . S
H823 C835 0.950 . S
C824 H816 0.950 . S
C824 C825 1.386 . S
C824 C826 1.391 . S
C825 C824 1.386 . S
C825 C829 1.393 . S
C826 H818 0.950 . S
C826 C824 1.391 . S
C826 C827 1.400 . S
C827 C826 1.400 . S
C827 C828 1.398 . S
C827 C833 1.491 . S
C828 H819 0.950 . S
C828 C827 1.398 . S
C828 C829 1.391 . S
C829 H817 0.950 . S
C829 C825 1.393 . S
C829 C828 1.391 . S
C830 H820 0.950 . S
C830 C831 1.386 . S
C830 C832 1.391 . S
C831 C830 1.386 . S
C831 C835 1.393 . S
C832 H821 0.950 . S
C832 C830 1.391 . S
C832 C833 1.400 . S
C833 C827 1.491 . S
C833 C832 1.400 . S
C833 C834 1.398 . S
C834 H822 0.950 . S
C834 C833 1.398 . S
C834 C835 1.391 . S
C835 H823 0.950 . S
C835 C831 1.393 . S
C835 C834 1.391 . S
H836 C844 0.950 . S
H837 C849 0.950 . S
H838 C846 0.950 . S
H839 C848 0.950 . S
H840 C850 0.950 . S
H841 C852 0.950 . S
H842 C854 0.950 . S
H843 C855 0.950 . S
C844 H836 0.950 . S
C844 C845 1.386 . S
C844 C846 1.391 . S
C845 C844 1.386 . S
C845 C849 1.393 . S
C846 H838 0.950 . S
C846 C844 1.391 . S
C846 C847 1.400 . S
C847 C846 1.400 . S
C847 C848 1.398 . S
C847 C853 1.491 . S
C848 H839 0.950 . S
C848 C847 1.398 . S
C848 C849 1.391 . S
C849 H837 0.950 . S
C849 C845 1.393 . S
C849 C848 1.391 . S
C850 H840 0.950 . S
C850 C851 1.386 . S
C850 C852 1.391 . S
C851 C850 1.386 . S
C851 C855 1.393 . S
C852 H841 0.950 . S
C852 C850 1.391 . S
C852 C853 1.400 . S
C853 C847 1.491 . S
C853 C852 1.400 . S
C853 C854 1.398 . S
C854 H842 0.950 . S
C854 C853 1.398 . S
C854 C855 1.391 . S
C855 H843 0.950 . S
C855 C851 1.393 . S
C855 C854 1.391 . S
H856 C864 0.950 . S
H857 C869 0.950 . S
H858 C866 0.950 . S
H859 C868 0.950 . S
H860 C870 0.950 . S
H861 C872 0.950 . S
H862 C874 0.950 . S
H863 C875 0.950 . S
C864 H856 0.950 . S
C864 C865 1.386 . S
C864 C866 1.391 . S
C865 C864 1.386 . S
C865 C869 1.393 . S
C866 H858 0.950 . S
C866 C864 1.391 . S
C866 C867 1.400 . S
C867 C866 1.400 . S
C867 C868 1.398 . S
C867 C873 1.491 . S
C868 H859 0.950 . S
C868 C867 1.398 . S
C868 C869 1.391 . S
C869 H857 0.950 . S
C869 C865 1.393 . S
C869 C868 1.391 . S
C870 H860 0.950 . S
C870 C871 1.386 . S
C870 C872 1.391 . S
C871 C870 1.386 . S
C871 C875 1.393 . S
C872 H861 0.950 . S
C872 C870 1.391 . S
C872 C873 1.400 . S
C873 C867 1.491 . S
C873 C872 1.400 . S
C873 C874 1.398 . S
C874 H862 0.950 . S
C874 C873 1.398 . S
C874 C875 1.391 . S
C875 H863 0.950 . S
C875 C871 1.393 . S
C875 C874 1.391 . S
H876 C884 0.950 . S
H877 C889 0.950 . S
H878 C886 0.950 . S
H879 C888 0.950 . S
H880 C890 0.950 . S
H881 C892 0.950 . S
H882 C894 0.950 . S
H883 C895 0.950 . S
C884 H876 0.950 . S
C884 C885 1.386 . S
C884 C886 1.391 . S
C885 C884 1.386 . S
C885 C889 1.393 . S
C886 H878 0.950 . S
C886 C884 1.391 . S
C886 C887 1.400 . S
C887 C886 1.400 . S
C887 C888 1.398 . S
C887 C893 1.491 . S
C888 H879 0.950 . S
C888 C887 1.398 . S
C888 C889 1.391 . S
C889 H877 0.950 . S
C889 C885 1.393 . S
C889 C888 1.391 . S
C890 H880 0.950 . S
C890 C891 1.386 . S
C890 C892 1.391 . S
C891 C890 1.386 . S
C891 C895 1.393 . S
C892 H881 0.950 . S
C892 C890 1.391 . S
C892 C893 1.400 . S
C893 C887 1.491 . S
C893 C892 1.400 . S
C893 C894 1.398 . S
C894 H882 0.950 . S
C894 C893 1.398 . S
C894 C895 1.391 . S
C895 H883 0.950 . S
C895 C891 1.393 . S
C895 C894 1.391 . S
C425 C29 2.879 . S
C431 C275 2.918 . S
C445 C49 2.164 . S
C451 C306 2.367 . S
C471 C345 1.363 . S
C465 C93 1.347 . S
C485 C119 0.493 . S
C491 C382 0.473 . S
C511 C305 2.770 . S
C505 C17 2.808 . S
C531 C262 1.492 . S
C525 C61 1.395 . S
C551 C394 1.394 . S
C545 C81 1.391 . S
C571 C351 1.088 . S
C565 C125 1.085 . S
C585 C23 2.215 . S
C591 C395 2.253 . S
C611 C311 1.264 . S
C605 C87 1.224 . S
C625 C113 0.571 . S
C631 C274 0.626 . S
C645 C55 2.281 . S
C651 C346 2.438 . S
C671 C266 2.862 . S
C665 C157 2.852 . S
C685 C189 2.406 . S
C691 C315 2.428 . S
C705 C221 1.400 . S
C711 C354 1.351 . S
C725 C253 0.518 . S
C731 C391 0.491 . S
C745 C145 2.909 . S
C751 C314 2.837 . S
C771 C271 1.419 . S
C765 C183 1.430 . S
C791 C385 1.454 . S
C785 C209 1.489 . S
C811 C342 1.033 . S
C805 C247 1.065 . S
C825 C151 2.262 . S
C831 C386 2.276 . S
C851 C302 1.248 . S
C845 C215 1.238 . S
C871 C265 0.583 . S
C865 C241 0.543 . S
C885 C177 2.487 . S
C891 C355 2.461 . S
