# Generated by pormake.
# Topology anh, (6,3)-cn, num edge types: 1
# Building blocks:
#     Node 0, Type 0, BuildingBlock: VOLQOD_clean_sbu_1, # of connection points: 6
#     Node 1, Type 0, BuildingBlock: VOLQOD_clean_sbu_1, # of connection points: 6
#     Node 2, Type 0, BuildingBlock: VOLQOD_clean_sbu_1, # of connection points: 6
#     Node 3, Type 1, BuildingBlock: INOVEN_clean_linker_0, # of connection points: 3
#     Node 4, Type 1, BuildingBlock: INOVEN_clean_linker_0, # of connection points: 3
#     Node 5, Type 1, BuildingBlock: INOVEN_clean_linker_0, # of connection points: 3
#     Node 6, Type 1, BuildingBlock: INOVEN_clean_linker_0, # of connection points: 3
#     Node 7, Type 1, BuildingBlock: INOVEN_clean_linker_0, # of connection points: 3
#     Node 8, Type 1, BuildingBlock: INOVEN_clean_linker_0, # of connection points: 3
#     Edge 9, Type (0, 1), BuildingBlock: EZIPEK_clean_linker_0, # of connection points: 2
#     Edge 10, Type (0, 1), BuildingBlock: EZIPEK_clean_linker_0, # of connection points: 2
#     Edge 11, Type (0, 1), BuildingBlock: EZIPEK_clean_linker_0, # of connection points: 2
#     Edge 12, Type (0, 1), BuildingBlock: EZIPEK_clean_linker_0, # of connection points: 2
#     Edge 13, Type (0, 1), BuildingBlock: EZIPEK_clean_linker_0, # of connection points: 2
#     Edge 14, Type (0, 1), BuildingBlock: EZIPEK_clean_linker_0, # of connection points: 2
#     Edge 15, Type (0, 1), BuildingBlock: EZIPEK_clean_linker_0, # of connection points: 2
#     Edge 16, Type (0, 1), BuildingBlock: EZIPEK_clean_linker_0, # of connection points: 2
#     Edge 17, Type (0, 1), BuildingBlock: EZIPEK_clean_linker_0, # of connection points: 2
#     Edge 18, Type (0, 1), BuildingBlock: EZIPEK_clean_linker_0, # of connection points: 2
#     Edge 19, Type (0, 1), BuildingBlock: EZIPEK_clean_linker_0, # of connection points: 2
#     Edge 20, Type (0, 1), BuildingBlock: EZIPEK_clean_linker_0, # of connection points: 2
#     Edge 21, Type (0, 1), BuildingBlock: EZIPEK_clean_linker_0, # of connection points: 2
#     Edge 22, Type (0, 1), BuildingBlock: EZIPEK_clean_linker_0, # of connection points: 2
#     Edge 23, Type (0, 1), BuildingBlock: EZIPEK_clean_linker_0, # of connection points: 2
#     Edge 24, Type (0, 1), BuildingBlock: EZIPEK_clean_linker_0, # of connection points: 2
#     Edge 25, Type (0, 1), BuildingBlock: EZIPEK_clean_linker_0, # of connection points: 2
#     Edge 26, Type (0, 1), BuildingBlock: EZIPEK_clean_linker_0, # of connection points: 2
# Relax obj value: 0.157
# Max RMSD: 0.216
# Mean RMSD: 0.130
data_MOF--net-anh--node1-VOLQOD_clean_sbu_1--node2-INOVEN_clean_linker_0--edge1-EZIPEK_clean_linker_0
_symmetry_space_group_name_H-M    P1
_symmetry_Int_Tables_number       1
_symmetry_cell_setting            triclinic
loop_
_symmetry_equiv_pos_as_xyz
'x, y, z'
_cell_length_a     22.123125
_cell_length_b     21.931153
_cell_length_c     41.611552
_cell_angle_alpha  92.017339
_cell_angle_beta   93.002691
_cell_angle_gamma 119.99729
loop_
_atom_site_label
_atom_site_type_symbol
_atom_site_fract_x
_atom_site_fract_y
_atom_site_fract_z
_atom_type_partial_charge
O0 O 0.05971 0.64002 0.23023 0.0
Zn1 Zn 0.05995 0.65738 0.18303 0.0
O2 O 0.0648 0.58352 0.15766 0.0
Zn3 Zn 0.98097 0.53215 0.12926 0.0
Zn4 Zn 0.07518 0.51983 0.18625 0.0
Zn5 Zn 0.14218 0.62319 0.13088 0.0
O6 O 0.0003 0.52321 0.08308 0.0
O7 O 0.11176 0.6083 0.08388 0.0
O8 O 0.97375 0.66416 0.16957 0.0
O9 O 0.9253 0.58014 0.12955 0.0
O10 O 0.91753 0.44094 0.14743 0.0
O11 O -0.0146 0.42747 0.18443 0.0
O12 O 0.1544 0.50371 0.17579 0.0
O13 O 0.14824 0.74915 0.18005 0.0
O14 O 0.19917 0.57665 0.13673 0.0
O15 O 0.20538 0.72469 0.1439 0.0
C16 C 0.07577 0.60114 0.24638 0.0
C17 C 0.05453 0.56249 0.06857 0.0
C18 C 0.92588 0.40672 0.16958 0.0
C19 C 0.92605 0.62925 0.14694 0.0
C20 C 0.19917 0.53159 0.15507 0.0
C21 C 0.20148 0.76717 0.16411 0.0
O22 O 0.08881 0.5566 0.23265 0.0
O23 O 0.46876 0.07335 0.42669 0.0
Zn24 Zn 0.4487 0.07492 0.47302 0.0
O25 O 0.52577 0.07701 0.50013 0.0
Zn26 Zn 0.57179 0.16118 0.52986 0.0
Zn27 Zn 0.59707 0.0749 0.47429 0.0
Zn28 Zn 0.48458 -0.00464 0.52513 0.0
O29 O 0.56209 0.13873 0.57659 0.0
O30 O 0.49585 0.02175 0.57225 0.0
O31 O 0.44291 0.16373 0.48202 0.0
O32 O 0.52916 0.22096 0.52083 0.0
O33 O 0.67338 0.22351 0.52247 0.0
O34 O 0.68859 0.16919 0.48026 0.0
O35 O 0.61258 -0.00771 0.48457 0.0
O36 O 0.35409 0.98589 0.47729 0.0
O37 O 0.53009 0.9388 0.51847 0.0
O38 O 0.38303 0.93087 0.51266 0.0
C39 C 0.51552 0.0684 0.41216 0.0
C40 C 0.52888 0.07996 0.58925 0.0
C41 C 0.71095 0.22226 0.5006 0.0
C42 C 0.4802 0.21706 0.50185 0.0
C43 C 0.57876 0.9418 0.50252 0.0
C44 C 0.33663 0.93319 0.49434 0.0
O45 O 0.56563 0.06563 0.42724 0.0
O46 O 0.47025 0.43355 0.75118 0.0
Zn47 Zn 0.4403 0.40755 0.79604 0.0
O48 O 0.51074 0.47842 0.82764 0.0
Zn49 Zn 0.47288 0.52511 0.8526 0.0
Zn50 Zn 0.5912 0.54924 0.80715 0.0
Zn51 Zn 0.54087 0.43192 0.85693 0.0
O52 O 0.50156 0.53568 0.90024 0.0
O53 O 0.54289 0.4621 0.90319 0.0
O54 O 0.34676 0.40084 0.80043 0.0
O55 O 0.36944 0.47113 0.84492 0.0
O56 O 0.50186 0.61965 0.83644 0.0
O57 O 0.592 0.64141 0.80797 0.0
O58 O 0.68209 0.56111 0.8275 0.0
O59 O 0.42635 0.31061 0.80317 0.0
O60 O 0.63831 0.45865 0.85008 0.0
O61 O 0.48468 0.32763 0.85039 0.0
C62 C 0.5281 0.47859 0.74071 0.0
C63 C 0.52782 0.50528 0.91657 0.0
C64 C 0.55051 0.6595 0.81929 0.0
C65 C 0.3271 0.42698 0.82258 0.0
C66 C 0.69017 0.51474 0.84163 0.0
C67 C 0.44338 0.28618 0.82717 0.0
O68 O 0.58053 0.5223 0.75963 0.0
H69 H 0.50469 0.05639 0.17991 0.0
H70 H 0.40071 0.98109 0.26653 0.0
H71 H 0.61098 0.15645 0.27267 0.0
N72 N 0.62385 0.15785 0.20839 0.0
N73 N 0.6711 0.21425 0.22215 0.0
C74 C 0.50436 0.06141 0.2059 0.0
C75 C 0.44538 0.01448 0.22113 0.0
C76 C 0.56385 0.11321 0.22426 0.0
C77 C 0.56434 0.11781 0.2581 0.0
C78 C 0.50555 0.0702 0.27335 0.0
C79 C 0.44572 0.01917 0.25477 0.0
H80 H 0.53338 0.54988 0.51329 0.0
H81 H 0.51279 0.41456 0.5897 0.0
H82 H 0.58726 0.63418 0.61227 0.0
N83 N 0.5823 0.6694 0.55338 0.0
N84 N 0.56099 0.68138 0.52736 0.0
C85 C 0.53906 0.54276 0.53867 0.0
C86 C 0.52263 0.47575 0.54864 0.0
C87 C 0.56478 0.60064 0.56171 0.0
C88 C 0.57021 0.59024 0.59449 0.0
C89 C 0.5496 0.52291 0.60463 0.0
C90 C 0.52771 0.46644 0.5817 0.0
H91 H 0.95506 0.47444 0.83926 0.0
H92 H 0.94805 0.56406 0.9318 0.0
H93 H 0.09408 0.49244 0.9202 0.0
N94 N 0.06224 0.45736 0.85587 0.0
N95 N 0.11033 0.44793 0.86655 0.0
C96 C 0.97504 0.49137 0.86425 0.0
C97 C 0.94541 0.52101 0.88396 0.0
C98 C 0.0301 0.48293 0.87678 0.0
C99 C 0.0534 0.50118 0.90973 0.0
C100 C 0.02261 0.52887 0.92962 0.0
C101 C 0.97153 0.54223 0.9163 0.0
H102 H 0.05778 0.60959 0.47813 0.0
H103 H 0.15806 0.71577 0.39485 0.0
H104 H -0.00894 0.4999 0.38387 0.0
N105 N 0.96559 0.48431 0.44461 0.0
N106 N 0.95892 0.47607 0.47398 0.0
C107 C 0.0634 0.60847 0.45245 0.0
C108 C 0.11427 0.66965 0.43894 0.0
C109 C 0.01961 0.54649 0.43257 0.0
C110 C 0.02599 0.54686 0.3993 0.0
C111 C 0.07543 0.60776 0.38562 0.0
C112 C 0.11999 0.66861 0.40551 0.0
H113 H 0.46679 -0.00368 0.81374 0.0
H114 H 0.48103 0.12563 0.73575 0.0
H115 H 0.53247 0.96243 0.72248 0.0
N116 N 0.51012 0.91959 0.78318 0.0
N117 N 0.5412 0.89337 0.76926 0.0
C118 C 0.47905 0.01065 0.78928 0.0
C119 C 0.4729 0.06647 0.77728 0.0
C120 C 0.50295 0.97462 0.77011 0.0
C121 C 0.51674 0.99182 0.73804 0.0
C122 C 0.50762 0.04541 0.72555 0.0
C123 C 0.48733 0.08365 0.7454 0.0
H124 H 0.61735 0.60557 0.14789 0.0
H125 H 0.69626 0.59353 0.05671 0.0
H126 H 0.48184 0.54003 0.06033 0.0
N127 N 0.4862 0.5589 0.12453 0.0
N128 N 0.42569 0.51123 0.11511 0.0
C129 C 0.60961 0.59584 0.12187 0.0
C130 C 0.66476 0.60248 0.10416 0.0
C131 C 0.54308 0.57127 0.10629 0.0
C132 C 0.53293 0.55787 0.07263 0.0
C133 C 0.58825 0.56723 0.05464 0.0
C134 C 0.65402 0.58884 0.07048 0.0
C135 C 0.24159 0.46651 0.12203 0.0
C136 C 0.25073 0.50907 0.15029 0.0
C137 C 0.36829 0.52726 0.16192 0.0
C138 C 0.36477 0.49943 0.13016 0.0
N139 N 0.29749 0.43494 0.08115 0.0
N140 N 0.32126 0.57932 0.19804 0.0
C141 C 0.30048 0.46515 0.11092 0.0
C142 C 0.31329 0.53842 0.17085 0.0
N143 N 0.17675 0.42824 0.10587 0.0
N144 N 0.42188 0.53934 0.18382 0.0
H145 H 0.28106 0.58665 0.20577 0.0
H146 H 0.36877 0.60892 0.21187 0.0
H147 H 0.45842 0.52425 0.17876 0.0
H148 H 0.42457 0.55515 0.208 0.0
H149 H 0.16503 0.39198 0.0864 0.0
H150 H 0.13285 0.42853 0.11375 0.0
H151 H 0.25494 0.41603 0.06405 0.0
H152 H 0.33953 0.43125 0.07307 0.0
C153 C 0.84092 0.28783 0.49301 0.0
C154 C 0.77742 0.28846 0.49583 0.0
C155 C 0.84022 0.41657 0.49071 0.0
C156 C 0.90066 0.41414 0.48391 0.0
N157 N 0.96001 0.34904 0.47648 0.0
N158 N 0.71433 0.35203 0.49034 0.0
C159 C 0.90147 0.35008 0.48449 0.0
C160 C 0.77649 0.35264 0.49314 0.0
N161 N 0.84395 0.22877 0.49958 0.0
N162 N 0.8439 0.48051 0.49439 0.0
H163 H 0.66566 0.30609 0.48943 0.0
H164 H 0.7107 0.39625 0.48524 0.0
H165 H 0.89002 0.52794 0.49195 0.0
H166 H 0.80357 0.48679 0.50267 0.0
H167 H 0.89009 0.22687 0.50073 0.0
H168 H 0.80113 0.18309 0.50663 0.0
H169 H 0.96213 0.30293 0.47299 0.0
H170 H 0.00564 0.39478 0.47159 0.0
C171 C 0.6051 0.79031 0.81527 0.0
C172 C 0.54918 0.72081 0.80667 0.0
C173 C 0.48703 0.76686 0.77446 0.0
C174 C 0.54412 0.83574 0.78186 0.0
N175 N 0.66063 0.91483 0.80512 0.0
N176 N 0.44344 0.64121 0.77328 0.0
C177 C 0.6043 0.84797 0.80102 0.0
C178 C 0.49165 0.7085 0.78502 0.0
N179 N 0.6575 0.80102 0.83769 0.0
N180 N 0.42825 0.7577 0.75739 0.0
H181 H 0.44533 0.59675 0.7799 0.0
H182 H 0.40476 0.62944 0.75485 0.0
H183 H 0.42503 0.79954 0.74794 0.0
H184 H 0.38136 0.70976 0.75432 0.0
H185 H 0.69653 0.85064 0.84727 0.0
H186 H 0.65941 0.75965 0.84841 0.0
H187 H 0.70895 0.92723 0.81633 0.0
H188 H 0.66001 0.95772 0.79533 0.0
C189 C 0.86061 0.68781 0.12595 0.0
C190 C 0.86236 0.63498 0.14386 0.0
C191 C 0.73458 0.56461 0.13894 0.0
C192 C 0.73218 0.61725 0.12088 0.0
N193 N 0.79065 0.73569 0.10359 0.0
N194 N 0.80317 0.53491 0.17562 0.0
C195 C 0.79467 0.68131 0.11654 0.0
C196 C 0.79981 0.57756 0.15326 0.0
N197 N 0.92158 0.74216 0.11675 0.0
N198 N 0.67563 0.50025 0.14048 0.0
H199 H 0.8506 0.54339 0.18652 0.0
H200 H 0.75935 0.49594 0.18568 0.0
H201 H 0.62677 0.48723 0.12962 0.0
H202 H 0.67624 0.45736 0.15012 0.0
H203 H 0.92357 0.77802 0.1005 0.0
H204 H 0.97054 0.7493 0.12439 0.0
H205 H 0.83381 0.78581 0.10226 0.0
H206 H 0.74298 0.73229 0.09664 0.0
C207 C 0.21162 0.86529 0.46727 0.0
C208 C 0.26479 0.86815 0.48911 0.0
C209 C 0.20955 0.73958 0.48347 0.0
C210 C 0.16055 0.7365 0.45918 0.0
N211 N 0.10025 0.79215 0.4356 0.0
N212 N 0.28261 0.80495 0.53155 0.0
C213 C 0.15696 0.79827 0.45343 0.0
C214 C 0.25382 0.80431 0.50163 0.0
N215 N 0.21236 0.9261 0.46053 0.0
N216 N 0.21685 0.68223 0.48827 0.0
H217 H 0.30731 0.85032 0.54725 0.0
H218 H 0.27233 0.75894 0.5424 0.0
H219 H 0.18736 0.63407 0.47482 0.0
H220 H 0.25695 0.68488 0.50368 0.0
H221 H 0.18216 0.9298 0.44152 0.0
H222 H 0.24242 0.973 0.47488 0.0
H223 H 0.09135 0.83384 0.43214 0.0
H224 H 0.05851 0.74352 0.42629 0.0
C225 C 0.47324 0.19394 0.84151 0.0
C226 C 0.42686 0.21114 0.82497 0.0
C227 C 0.38784 0.10744 0.7876 0.0
C228 C 0.45017 0.10713 0.79751 0.0
N229 N 0.5542 0.15242 0.83448 0.0
N230 N 0.32287 0.17003 0.78943 0.0
C231 C 0.49279 0.14981 0.82511 0.0
C232 C 0.37793 0.16263 0.80037 0.0
N233 N 0.49725 0.21834 0.87282 0.0
N234 N 0.33886 0.05504 0.76623 0.0
H235 H 0.31074 0.2048 0.80133 0.0
H236 H 0.28939 0.14202 0.76913 0.0
H237 H 0.34455 0.01314 0.75749 0.0
H238 H 0.29058 0.0497 0.75913 0.0
H239 H 0.5283 0.20358 0.88634 0.0
H240 H 0.4774 0.24431 0.88637 0.0
H241 H 0.58978 0.18857 0.85258 0.0
H242 H 0.57267 0.12327 0.8225 0.0
C243 C 0.60408 0.8702 0.53917 0.0
C244 C 0.59552 0.88488 0.50699 0.0
C245 C 0.57903 0.76954 0.48862 0.0
C246 C 0.57464 0.75063 0.52101 0.0
N247 N 0.5608 0.77875 0.57617 0.0
N248 N 0.57098 0.84677 0.45035 0.0
C249 C 0.5821 0.79993 0.54629 0.0
C250 C 0.58306 0.83454 0.48133 0.0
N251 N 0.63042 0.92318 0.56314 0.0
N252 N 0.57892 0.72487 0.4649 0.0
H253 H 0.57501 0.89417 0.44406 0.0
H254 H 0.5534 0.80859 0.43116 0.0
H255 H 0.57431 0.67636 0.46967 0.0
H256 H 0.58856 0.73814 0.44118 0.0
H257 H 0.64247 0.91615 0.58679 0.0
H258 H 0.64709 0.97548 0.5584 0.0
H259 H 0.56098 0.81269 0.5944 0.0
H260 H 0.53287 0.72599 0.58136 0.0
C261 C 0.81604 0.55094 0.83207 0.0
C262 C 0.7605 0.52765 0.85265 0.0
C263 C 0.82252 0.49202 0.89042 0.0
C264 C 0.88191 0.52295 0.87225 0.0
N265 N 0.94065 0.59801 0.82962 0.0
N266 N 0.72593 0.50301 0.90709 0.0
C267 C 0.88057 0.5575 0.84416 0.0
C268 C 0.76868 0.50704 0.88372 0.0
N269 N 0.8068 0.56354 0.80082 0.0
N270 N 0.81555 0.44571 0.91304 0.0
H271 H 0.68896 0.51903 0.90386 0.0
H272 H 0.73362 0.49245 0.93073 0.0
H273 H 0.85102 0.42801 0.91692 0.0
H274 H 0.7701 0.41853 0.92501 0.0
H275 H 0.8439 0.57386 0.78422 0.0
H276 H 0.7599 0.55744 0.79065 0.0
H277 H 0.94306 0.629 0.81076 0.0
H278 H -0.01068 0.60632 0.83853 0.0
C279 C 0.32139 0.82634 0.19131 0.0
C280 C 0.26639 0.8322 0.17528 0.0
C281 C 0.33033 0.95978 0.18805 0.0
C282 C 0.38649 0.95383 0.20245 0.0
N283 N 0.44332 0.88561 0.21117 0.0
N284 N 0.22155 0.90355 0.1537 0.0
C285 C 0.3846 0.88839 0.20178 0.0
C286 C 0.27177 0.8988 0.17218 0.0
N287 N 0.31169 0.76175 0.19857 0.0
N288 N 0.33222 0.02304 0.19047 0.0
H289 H 0.17803 0.85943 0.1419 0.0
H290 H 0.22554 0.9512 0.14801 0.0
H291 H 0.37539 0.06907 0.20116 0.0
H292 H 0.28977 0.02921 0.1836 0.0
H293 H 0.34726 0.7555 0.21347 0.0
H294 H 0.26529 0.71427 0.19255 0.0
H295 H 0.4469 0.84025 0.20784 0.0
H296 H 0.49075 0.93014 0.21948 0.0
C297 C 0.42253 0.28435 0.51997 0.0
C298 C 0.47244 0.28014 0.50164 0.0
C299 C 0.54515 0.40855 0.50474 0.0
C300 C 0.49835 0.41303 0.52553 0.0
N301 N 0.38172 0.35932 0.54303 0.0
N302 N 0.56291 0.33544 0.46557 0.0
C303 C 0.43283 0.35201 0.52948 0.0
C304 C 0.52725 0.34165 0.49007 0.0
N305 N 0.36805 0.22416 0.52984 0.0
N306 N 0.60899 0.46625 0.50118 0.0
H307 H 0.5502 0.2863 0.45479 0.0
H308 H 0.59947 0.37846 0.45401 0.0
H309 H 0.62533 0.51617 0.51193 0.0
H310 H 0.64783 0.46363 0.48915 0.0
H311 H 0.33435 0.22401 0.54644 0.0
H312 H 0.35844 0.17406 0.52215 0.0
H313 H 0.33113 0.31752 0.54467 0.0
H314 H 0.38855 0.4088 0.54985 0.0
C315 C 0.23885 0.4604 0.80878 0.0
C316 C 0.25424 0.41087 0.82197 0.0
C317 C 0.15339 0.36863 0.85398 0.0
C318 C 0.14801 0.42808 0.84632 0.0
N319 N 0.18743 0.53366 0.81743 0.0
N320 N 0.22372 0.31177 0.85371 0.0
C321 C 0.18963 0.47382 0.82318 0.0
C322 C 0.20953 0.36181 0.843 0.0
N323 N 0.27379 0.49641 0.78346 0.0
N324 N 0.10542 0.32018 0.87248 0.0
H325 H 0.26312 0.30466 0.84468 0.0
H326 H 0.198 0.27862 0.87171 0.0
H327 H 0.06436 0.32539 0.88078 0.0
H328 H 0.10304 0.27297 0.87762 0.0
H329 H 0.26153 0.52969 0.771 0.0
H330 H 0.3106 0.48715 0.77298 0.0
H331 H 0.22245 0.57287 0.80364 0.0
H332 H 0.15414 0.5473 0.8283 0.0
C333 C 0.8537 0.3583 0.21663 0.0
C334 C 0.86249 0.3519 0.18324 0.0
C335 C 0.73875 0.26202 0.17407 0.0
C336 C 0.73369 0.26046 0.208 0.0
N337 N 0.78912 0.29974 0.26177 0.0
N338 N 0.81622 0.28765 0.13126 0.0
C339 C 0.79235 0.30605 0.22926 0.0
C340 C 0.80594 0.30018 0.16231 0.0
N341 N 0.90033 0.41686 0.23588 0.0
N342 N 0.68016 0.23309 0.1531 0.0
H343 H 0.8653 0.31394 0.1221 0.0
H344 H 0.77769 0.24626 0.11592 0.0
H345 H 0.62998 0.21395 0.16055 0.0
H346 H 0.6822 0.23788 0.12829 0.0
H347 H 0.8919 0.42604 0.25952 0.0
H348 H 0.94288 0.46053 0.22751 0.0
H349 H 0.83294 0.32666 0.27823 0.0
H350 H 0.74387 0.26327 0.27197 0.0
C351 C 0.02872 0.48752 0.01734 0.0
C352 C 0.05118 0.55472 0.033 0.0
C353 C 0.07073 0.60668 0.98073 0.0
C354 C 0.03832 0.53808 0.96508 0.0
N355 N 0.97488 0.41146 0.96863 0.0
N356 N 0.08283 0.67686 0.02934 0.0
C357 C 0.01435 0.47788 0.98337 0.0
C358 C 0.06985 0.61422 0.01467 0.0
N359 N 0.02323 0.43347 0.03472 0.0
N360 N 0.10285 0.66453 0.96316 0.0
H361 H 0.08003 0.68412 0.05399 0.0
H362 H 0.08955 0.71958 0.0166 0.0
H363 H 0.10473 0.6606 0.9382 0.0
H364 H 0.13324 0.7158 0.97363 0.0
H365 H 0.01382 0.38552 0.02401 0.0
H366 H 0.03538 0.43899 0.0596 0.0
H367 H 0.94978 0.36641 0.98139 0.0
H368 H 0.96167 0.40155 0.94383 0.0
C369 C 0.5087 0.01137 0.35786 0.0
C370 C 0.51309 0.06884 0.37666 0.0
C371 C 0.5062 0.12419 0.32755 0.0
C372 C 0.50849 0.07013 0.30895 0.0
N373 N 0.52522 0.96943 0.30633 0.0
N374 N 0.53028 0.18682 0.37992 0.0
C375 C 0.51358 0.01569 0.32408 0.0
C376 C 0.51565 0.12721 0.36167 0.0
N377 N 0.49707 0.95153 0.37207 0.0
N378 N 0.49323 0.17152 0.31264 0.0
H379 H 0.53946 0.19206 0.40497 0.0
H380 H 0.54001 0.23358 0.37004 0.0
H381 H 0.48636 0.17112 0.28762 0.0
H382 H 0.48334 0.20726 0.32508 0.0
H383 H 0.48592 0.90518 0.35903 0.0
H384 H 0.49202 0.94581 0.39672 0.0
H385 H 0.53683 0.93349 0.3166 0.0
H386 H 0.52965 0.97111 0.2815 0.0
C387 C 0.58364 0.47994 0.68937 0.0
C388 C 0.53213 0.48658 0.70559 0.0
C389 C 0.48789 0.509 0.65485 0.0
C390 C 0.54391 0.50992 0.63938 0.0
N391 N 0.65043 0.50497 0.64226 0.0
N392 N 0.44477 0.52221 0.70524 0.0
C393 C 0.59334 0.49771 0.65673 0.0
C394 C 0.48662 0.50491 0.68874 0.0
N395 N 0.62166 0.45457 0.70486 0.0
N396 N 0.43475 0.51016 0.63705 0.0
H397 H 0.44312 0.52177 0.73022 0.0
H398 H 0.41671 0.54373 0.69454 0.0
H399 H 0.43343 0.51302 0.61208 0.0
H400 H 0.38879 0.50164 0.64664 0.0
H401 H 0.65499 0.44179 0.6934 0.0
H402 H 0.61532 0.44041 0.72865 0.0
H403 H 0.69217 0.50415 0.65458 0.0
H404 H 0.65873 0.51736 0.61831 0.0
C405 C 0.4591 0.04983 0.63718 0.0
C406 C 0.52547 0.07833 0.62455 0.0
C407 C 0.58148 0.09476 0.67901 0.0
C408 C 0.51428 0.05818 0.69089 0.0
N409 N 0.38838 0.99143 0.68085 0.0
N410 N 0.64938 0.12044 0.63237 0.0
C411 C 0.45279 0.03327 0.66988 0.0
C412 C 0.58679 0.09937 0.64518 0.0
N413 N 0.40244 0.04046 0.61809 0.0
N414 N 0.64001 0.12611 0.70011 0.0
H415 H 0.65543 0.12451 0.60772 0.0
H416 H 0.69416 0.1287 0.64586 0.0
H417 H 0.6379 0.12316 0.72503 0.0
H418 H 0.69005 0.15977 0.6932 0.0
H419 H 0.35431 0.02671 0.62685 0.0
H420 H 0.40537 0.05325 0.59408 0.0
H421 H 0.34231 0.96533 0.66577 0.0
H422 H 0.38133 0.97756 0.70465 0.0
C423 C 0.51241 0.4663 0.97294 0.0
C424 C 0.54323 0.52161 0.95189 0.0
C425 C 0.60179 0.60767 -0.00165 0.0
C426 C 0.57572 0.5516 0.01914 0.0
N427 N 0.51748 0.42667 0.02611 0.0
N428 N 0.62845 0.6427 0.94399 0.0
C429 C 0.53434 0.48056 0.00638 0.0
C430 C 0.59101 0.59181 0.96441 0.0
N431 N 0.46007 0.40082 0.9612 0.0
N432 N 0.63499 0.67608 0.01099 0.0
H433 H 0.62318 0.63309 0.91899 0.0
H434 H 0.66941 0.69279 0.95194 0.0
H435 H 0.64451 0.68993 0.03573 0.0
H436 H 0.64801 0.71883 -0.00297 0.0
H437 H 0.43058 0.36052 0.97591 0.0
H438 H 0.44143 0.38861 0.93694 0.0
H439 H 0.49373 0.3739 0.01761 0.0
H440 H 0.53306 0.43512 0.05074 0.0
C441 C 0.13721 0.61668 0.30116 0.0
C442 C 0.07712 0.60606 0.28208 0.0
C443 C 0.02137 0.60785 0.3312 0.0
C444 C 0.07729 0.60901 0.35002 0.0
N445 N 0.1841 0.60443 0.35293 0.0
N446 N 0.95639 0.57857 0.27908 0.0
C447 C 0.13413 0.61067 0.33502 0.0
C448 C 0.01767 0.59838 0.2971 0.0
N449 N 0.19814 0.63546 0.28717 0.0
N450 N 0.97269 0.61769 0.34585 0.0
H451 H 0.95022 0.56922 0.25408 0.0
H452 H 0.90948 0.56451 0.28922 0.0
H453 H 0.97392 0.62554 0.3708 0.0
H454 H 0.93517 0.62492 0.33314 0.0
H455 H 0.24544 0.6507 0.30036 0.0
H456 H 0.2033 0.64286 0.26263 0.0
H457 H 0.22251 0.59758 0.34275 0.0
H458 H 0.18366 0.60005 0.37781 0.0
loop_
_geom_bond_atom_site_label_1
_geom_bond_atom_site_label_2
_geom_bond_distance
_geom_bond_site_symmetry_2
_ccdc_geom_bond_type
O0 Zn1 1.953 . S
O0 C16 1.225 . S
Zn1 O0 1.953 . S
Zn1 O2 1.949 . S
Zn1 O8 1.919 1_455 S
Zn1 O13 1.924 . S
O2 Zn1 1.949 . S
O2 Zn3 1.923 1_455 S
O2 Zn4 1.950 . S
O2 Zn5 1.945 . S
Zn3 O2 1.923 1_655 S
Zn3 O6 1.933 . S
Zn3 O9 1.941 . S
Zn3 O10 1.965 . S
Zn4 O2 1.950 . S
Zn4 O11 1.938 1_455 S
Zn4 O12 1.906 . S
Zn4 O22 1.953 . S
Zn5 O2 1.945 . S
Zn5 O7 1.932 . S
Zn5 O14 1.977 . S
Zn5 O15 1.910 . S
O6 Zn3 1.933 . S
O6 C17 1.226 1_655 S
O7 Zn5 1.932 . S
O7 C17 1.307 . S
O8 Zn1 1.919 1_655 S
O8 C19 1.253 . S
O9 Zn3 1.941 . S
O9 C19 1.283 . S
O10 Zn3 1.965 . S
O10 C18 1.303 . S
O11 Zn4 1.938 1_655 S
O11 C18 1.247 . S
O12 Zn4 1.906 . S
O12 C20 1.304 . S
O13 Zn1 1.924 . S
O13 C21 1.311 . S
O14 Zn5 1.977 . S
O14 C20 1.272 . S
O15 Zn5 1.910 . S
O15 C21 1.231 . S
C16 O0 1.225 . S
C16 O22 1.298 . S
C17 O6 1.226 1_455 S
C17 O7 1.307 . S
C18 O10 1.303 . S
C18 O11 1.247 . S
C19 O8 1.253 . S
C19 O9 1.283 . S
C20 O12 1.304 . S
C20 O14 1.272 . S
C21 O13 1.311 . S
C21 O15 1.231 . S
O22 Zn4 1.953 . S
O22 C16 1.298 . S
O23 Zn24 1.953 . S
O23 C39 1.225 . S
Zn24 O23 1.953 . S
Zn24 O25 1.949 . S
Zn24 O31 1.919 . S
Zn24 O36 1.924 1_545 S
O25 Zn24 1.949 . S
O25 Zn26 1.923 . S
O25 Zn27 1.950 . S
O25 Zn28 1.945 1_545 S
Zn26 O25 1.923 . S
Zn26 O29 1.933 . S
Zn26 O32 1.941 . S
Zn26 O33 1.965 . S
Zn27 O25 1.950 . S
Zn27 O34 1.938 . S
Zn27 O35 1.906 1_545 S
Zn27 O45 1.953 . S
Zn28 O25 1.945 1_565 S
Zn28 O30 1.932 1_565 S
Zn28 O37 1.977 . S
Zn28 O38 1.910 . S
O29 Zn26 1.933 . S
O29 C40 1.226 . S
O30 Zn28 1.932 1_545 S
O30 C40 1.307 . S
O31 Zn24 1.919 . S
O31 C42 1.253 . S
O32 Zn26 1.941 . S
O32 C42 1.283 . S
O33 Zn26 1.965 . S
O33 C41 1.303 . S
O34 Zn27 1.938 . S
O34 C41 1.247 . S
O35 Zn27 1.906 1_565 S
O35 C43 1.304 . S
O36 Zn24 1.924 1_565 S
O36 C44 1.311 . S
O37 Zn28 1.977 . S
O37 C43 1.272 . S
O38 Zn28 1.910 . S
O38 C44 1.231 . S
C39 O23 1.225 . S
C39 O45 1.298 . S
C40 O29 1.226 . S
C40 O30 1.307 . S
C41 O33 1.303 . S
C41 O34 1.247 . S
C42 O31 1.253 . S
C42 O32 1.283 . S
C43 O35 1.304 . S
C43 O37 1.272 . S
C44 O36 1.311 . S
C44 O38 1.231 . S
O45 Zn27 1.953 . S
O45 C39 1.298 . S
O46 Zn47 1.953 . S
O46 C62 1.225 . S
Zn47 O46 1.953 . S
Zn47 O48 1.949 . S
Zn47 O54 1.919 . S
Zn47 O59 1.924 . S
O48 Zn47 1.949 . S
O48 Zn49 1.923 . S
O48 Zn50 1.950 . S
O48 Zn51 1.945 . S
Zn49 O48 1.923 . S
Zn49 O52 1.933 . S
Zn49 O55 1.941 . S
Zn49 O56 1.965 . S
Zn50 O48 1.950 . S
Zn50 O57 1.938 . S
Zn50 O58 1.906 . S
Zn50 O68 1.953 . S
Zn51 O48 1.945 . S
Zn51 O53 1.932 . S
Zn51 O60 1.977 . S
Zn51 O61 1.910 . S
O52 Zn49 1.933 . S
O52 C63 1.226 . S
O53 Zn51 1.932 . S
O53 C63 1.307 . S
O54 Zn47 1.919 . S
O54 C65 1.253 . S
O55 Zn49 1.941 . S
O55 C65 1.283 . S
O56 Zn49 1.965 . S
O56 C64 1.303 . S
O57 Zn50 1.938 . S
O57 C64 1.247 . S
O58 Zn50 1.906 . S
O58 C66 1.304 . S
O59 Zn47 1.924 . S
O59 C67 1.311 . S
O60 Zn51 1.977 . S
O60 C66 1.272 . S
O61 Zn51 1.910 . S
O61 C67 1.231 . S
C62 O46 1.225 . S
C62 O68 1.298 . S
C63 O52 1.226 . S
C63 O53 1.307 . S
C64 O56 1.303 . S
C64 O57 1.247 . S
C65 O54 1.253 . S
C65 O55 1.283 . S
C66 O58 1.304 . S
C66 O60 1.272 . S
C67 O59 1.311 . S
C67 O61 1.231 . S
O68 Zn50 1.953 . S
O68 C62 1.298 . S
H69 C74 0.929 . S
H70 C79 0.931 . S
H71 C77 0.930 . S
N72 N73 1.234 . S
N72 C76 1.453 . S
N73 N72 1.234 . S
C74 H69 0.929 . S
C74 C75 1.373 1_545 S
C74 C76 1.368 . S
C75 C74 1.373 1_565 S
C75 C79 1.397 . S
C76 N72 1.453 . S
C76 C74 1.368 . S
C76 C77 1.373 . S
C77 H71 0.930 . S
C77 C76 1.373 . S
C77 C78 1.371 . S
C78 C77 1.371 . S
C78 C79 1.383 1_545 S
C79 H70 0.931 . S
C79 C75 1.397 . S
C79 C78 1.383 1_565 S
H80 C85 0.929 . S
H81 C90 0.931 . S
H82 C88 0.930 . S
N83 N84 1.234 . S
N83 C87 1.453 . S
N84 N83 1.234 . S
C85 H80 0.929 . S
C85 C86 1.373 . S
C85 C87 1.368 . S
C86 C85 1.373 . S
C86 C90 1.397 . S
C87 N83 1.453 . S
C87 C85 1.368 . S
C87 C88 1.373 . S
C88 H82 0.930 . S
C88 C87 1.373 . S
C88 C89 1.371 . S
C89 C88 1.371 . S
C89 C90 1.383 . S
C90 H81 0.931 . S
C90 C86 1.397 . S
C90 C89 1.383 . S
H91 C96 0.929 . S
H92 C101 0.931 . S
H93 C99 0.930 . S
N94 N95 1.234 . S
N94 C98 1.453 . S
N95 N94 1.234 . S
C96 H91 0.929 . S
C96 C97 1.373 1_455 S
C96 C98 1.368 . S
C97 C96 1.373 1_655 S
C97 C101 1.397 . S
C98 N94 1.453 . S
C98 C96 1.368 . S
C98 C99 1.373 . S
C99 H93 0.930 . S
C99 C98 1.373 . S
C99 C100 1.371 . S
C100 C99 1.371 . S
C100 C101 1.383 1_455 S
C101 H92 0.931 . S
C101 C97 1.397 . S
C101 C100 1.383 1_655 S
H102 C107 0.929 . S
H103 C112 0.931 . S
H104 C110 0.930 1_655 S
N105 N106 1.234 . S
N105 C109 1.453 1_655 S
N106 N105 1.234 . S
C107 H102 0.929 . S
C107 C108 1.373 . S
C107 C109 1.368 . S
C108 C107 1.373 . S
C108 C112 1.397 . S
C109 N105 1.453 1_455 S
C109 C107 1.368 . S
C109 C110 1.373 . S
C110 H104 0.930 1_455 S
C110 C109 1.373 . S
C110 C111 1.371 . S
C111 C110 1.371 . S
C111 C112 1.383 . S
C112 H103 0.931 . S
C112 C108 1.397 . S
C112 C111 1.383 . S
H113 C118 0.929 . S
H114 C123 0.931 . S
H115 C121 0.930 1_565 S
N116 N117 1.234 . S
N116 C120 1.453 1_565 S
N117 N116 1.234 . S
C118 H113 0.929 . S
C118 C119 1.373 . S
C118 C120 1.368 . S
C119 C118 1.373 . S
C119 C123 1.397 . S
C120 N116 1.453 1_545 S
C120 C118 1.368 . S
C120 C121 1.373 . S
C121 H115 0.930 1_545 S
C121 C120 1.373 . S
C121 C122 1.371 . S
C122 C121 1.371 . S
C122 C123 1.383 . S
C123 H114 0.931 . S
C123 C119 1.397 . S
C123 C122 1.383 . S
H124 C129 0.929 . S
H125 C134 0.931 . S
H126 C132 0.930 . S
N127 N128 1.234 . S
N127 C131 1.453 . S
N128 N127 1.234 . S
C129 H124 0.929 . S
C129 C130 1.373 . S
C129 C131 1.368 . S
C130 C129 1.373 . S
C130 C134 1.397 . S
C131 N127 1.453 . S
C131 C129 1.368 . S
C131 C132 1.373 . S
C132 H126 0.930 . S
C132 C131 1.373 . S
C132 C133 1.371 . S
C133 C132 1.371 . S
C133 C134 1.383 . S
C134 H125 0.931 . S
C134 C130 1.397 . S
C134 C133 1.383 . S
C135 C136 1.363 . S
C135 C141 1.379 . S
C135 N143 1.356 . S
C136 C135 1.363 . S
C136 C142 1.363 . S
C137 C138 1.363 . S
C137 C142 1.379 . S
C137 N144 1.356 . S
C138 C137 1.363 . S
C138 C141 1.363 . S
N139 C141 1.356 . S
N139 H151 0.984 . S
N139 H152 0.985 . S
N140 C142 1.356 . S
N140 H145 0.984 . S
N140 H146 0.985 . S
C141 C135 1.379 . S
C141 C138 1.363 . S
C141 N139 1.356 . S
C142 C136 1.363 . S
C142 C137 1.379 . S
C142 N140 1.356 . S
N143 C135 1.356 . S
N143 H149 0.984 . S
N143 H150 0.984 . S
N144 C137 1.356 . S
N144 H147 0.984 . S
N144 H148 0.985 . S
H145 N140 0.984 . S
H146 N140 0.985 . S
H147 N144 0.984 . S
H148 N144 0.985 . S
H149 N143 0.984 . S
H150 N143 0.984 . S
H151 N139 0.984 . S
H152 N139 0.985 . S
C153 C154 1.363 . S
C153 C159 1.379 . S
C153 N161 1.356 . S
C154 C153 1.363 . S
C154 C160 1.363 . S
C155 C156 1.363 . S
C155 C160 1.379 . S
C155 N162 1.356 . S
C156 C155 1.363 . S
C156 C159 1.363 . S
N157 C159 1.356 . S
N157 H169 0.984 . S
N157 H170 0.985 . S
N158 C160 1.356 . S
N158 H163 0.984 . S
N158 H164 0.985 . S
C159 C153 1.379 . S
C159 C156 1.363 . S
C159 N157 1.356 . S
C160 C154 1.363 . S
C160 C155 1.379 . S
C160 N158 1.356 . S
N161 C153 1.356 . S
N161 H167 0.984 . S
N161 H168 0.984 . S
N162 C155 1.356 . S
N162 H165 0.984 . S
N162 H166 0.985 . S
H163 N158 0.984 . S
H164 N158 0.985 . S
H165 N162 0.984 . S
H166 N162 0.985 . S
H167 N161 0.984 . S
H168 N161 0.984 . S
H169 N157 0.984 . S
H170 N157 0.985 . S
C171 C172 1.363 . S
C171 C177 1.379 . S
C171 N179 1.356 . S
C172 C171 1.363 . S
C172 C178 1.363 . S
C173 C174 1.363 . S
C173 C178 1.379 . S
C173 N180 1.356 . S
C174 C173 1.363 . S
C174 C177 1.363 . S
N175 C177 1.356 . S
N175 H187 0.984 . S
N175 H188 0.985 . S
N176 C178 1.356 . S
N176 H181 0.984 . S
N176 H182 0.985 . S
C177 C171 1.379 . S
C177 C174 1.363 . S
C177 N175 1.356 . S
C178 C172 1.363 . S
C178 C173 1.379 . S
C178 N176 1.356 . S
N179 C171 1.356 . S
N179 H185 0.984 . S
N179 H186 0.984 . S
N180 C173 1.356 . S
N180 H183 0.984 . S
N180 H184 0.985 . S
H181 N176 0.984 . S
H182 N176 0.985 . S
H183 N180 0.984 . S
H184 N180 0.985 . S
H185 N179 0.984 . S
H186 N179 0.984 . S
H187 N175 0.984 . S
H188 N175 0.985 . S
C189 C190 1.363 . S
C189 C195 1.379 . S
C189 N197 1.356 . S
C190 C189 1.363 . S
C190 C196 1.363 . S
C191 C192 1.363 . S
C191 C196 1.379 . S
C191 N198 1.356 . S
C192 C191 1.363 . S
C192 C195 1.363 . S
N193 C195 1.356 . S
N193 H205 0.984 . S
N193 H206 0.985 . S
N194 C196 1.356 . S
N194 H199 0.984 . S
N194 H200 0.985 . S
C195 C189 1.379 . S
C195 C192 1.363 . S
C195 N193 1.356 . S
C196 C190 1.363 . S
C196 C191 1.379 . S
C196 N194 1.356 . S
N197 C189 1.356 . S
N197 H203 0.984 . S
N197 H204 0.984 . S
N198 C191 1.356 . S
N198 H201 0.984 . S
N198 H202 0.985 . S
H199 N194 0.984 . S
H200 N194 0.985 . S
H201 N198 0.984 . S
H202 N198 0.985 . S
H203 N197 0.984 . S
H204 N197 0.984 . S
H205 N193 0.984 . S
H206 N193 0.985 . S
C207 C208 1.363 . S
C207 C213 1.379 . S
C207 N215 1.356 . S
C208 C207 1.363 . S
C208 C214 1.363 . S
C209 C210 1.363 . S
C209 C214 1.379 . S
C209 N216 1.356 . S
C210 C209 1.363 . S
C210 C213 1.363 . S
N211 C213 1.356 . S
N211 H223 0.984 . S
N211 H224 0.985 . S
N212 C214 1.356 . S
N212 H217 0.984 . S
N212 H218 0.985 . S
C213 C207 1.379 . S
C213 C210 1.363 . S
C213 N211 1.356 . S
C214 C208 1.363 . S
C214 C209 1.379 . S
C214 N212 1.356 . S
N215 C207 1.356 . S
N215 H221 0.984 . S
N215 H222 0.984 . S
N216 C209 1.356 . S
N216 H219 0.984 . S
N216 H220 0.985 . S
H217 N212 0.984 . S
H218 N212 0.985 . S
H219 N216 0.984 . S
H220 N216 0.985 . S
H221 N215 0.984 . S
H222 N215 0.984 . S
H223 N211 0.984 . S
H224 N211 0.985 . S
C225 C226 1.363 . S
C225 C231 1.379 . S
C225 N233 1.356 . S
C226 C225 1.363 . S
C226 C232 1.363 . S
C227 C228 1.363 . S
C227 C232 1.379 . S
C227 N234 1.356 . S
C228 C227 1.363 . S
C228 C231 1.363 . S
N229 C231 1.356 . S
N229 H241 0.984 . S
N229 H242 0.985 . S
N230 C232 1.356 . S
N230 H235 0.984 . S
N230 H236 0.985 . S
C231 C225 1.379 . S
C231 C228 1.363 . S
C231 N229 1.356 . S
C232 C226 1.363 . S
C232 C227 1.379 . S
C232 N230 1.356 . S
N233 C225 1.356 . S
N233 H239 0.984 . S
N233 H240 0.984 . S
N234 C227 1.356 . S
N234 H237 0.984 . S
N234 H238 0.985 . S
H235 N230 0.984 . S
H236 N230 0.985 . S
H237 N234 0.984 . S
H238 N234 0.985 . S
H239 N233 0.984 . S
H240 N233 0.984 . S
H241 N229 0.984 . S
H242 N229 0.985 . S
C243 C244 1.363 . S
C243 C249 1.379 . S
C243 N251 1.356 . S
C244 C243 1.363 . S
C244 C250 1.363 . S
C245 C246 1.363 . S
C245 C250 1.379 . S
C245 N252 1.356 . S
C246 C245 1.363 . S
C246 C249 1.363 . S
N247 C249 1.356 . S
N247 H259 0.984 . S
N247 H260 0.985 . S
N248 C250 1.356 . S
N248 H253 0.984 . S
N248 H254 0.985 . S
C249 C243 1.379 . S
C249 C246 1.363 . S
C249 N247 1.356 . S
C250 C244 1.363 . S
C250 C245 1.379 . S
C250 N248 1.356 . S
N251 C243 1.356 . S
N251 H257 0.984 . S
N251 H258 0.984 . S
N252 C245 1.356 . S
N252 H255 0.984 . S
N252 H256 0.985 . S
H253 N248 0.984 . S
H254 N248 0.985 . S
H255 N252 0.984 . S
H256 N252 0.985 . S
H257 N251 0.984 . S
H258 N251 0.984 . S
H259 N247 0.984 . S
H260 N247 0.985 . S
C261 C262 1.363 . S
C261 C267 1.379 . S
C261 N269 1.356 . S
C262 C261 1.363 . S
C262 C268 1.363 . S
C263 C264 1.363 . S
C263 C268 1.379 . S
C263 N270 1.356 . S
C264 C263 1.363 . S
C264 C267 1.363 . S
N265 C267 1.356 . S
N265 H277 0.984 1_655 S
N265 H278 0.985 1_655 S
N266 C268 1.356 . S
N266 H271 0.984 . S
N266 H272 0.985 . S
C267 C261 1.379 . S
C267 C264 1.363 . S
C267 N265 1.356 . S
C268 C262 1.363 . S
C268 C263 1.379 . S
C268 N266 1.356 . S
N269 C261 1.356 . S
N269 H275 0.984 . S
N269 H276 0.984 . S
N270 C263 1.356 . S
N270 H273 0.984 . S
N270 H274 0.985 . S
H271 N266 0.984 . S
H272 N266 0.985 . S
H273 N270 0.984 . S
H274 N270 0.985 . S
H275 N269 0.984 . S
H276 N269 0.984 . S
H277 N265 0.984 1_455 S
H278 N265 0.985 1_455 S
C279 C280 1.363 . S
C279 C285 1.379 . S
C279 N287 1.356 . S
C280 C279 1.363 . S
C280 C286 1.363 . S
C281 C282 1.363 . S
C281 C286 1.379 . S
C281 N288 1.356 . S
C282 C281 1.363 . S
C282 C285 1.363 . S
N283 C285 1.356 . S
N283 H295 0.984 . S
N283 H296 0.985 . S
N284 C286 1.356 . S
N284 H289 0.984 . S
N284 H290 0.985 . S
C285 C279 1.379 . S
C285 C282 1.363 . S
C285 N283 1.356 . S
C286 C280 1.363 . S
C286 C281 1.379 . S
C286 N284 1.356 . S
N287 C279 1.356 . S
N287 H293 0.984 . S
N287 H294 0.984 . S
N288 C281 1.356 . S
N288 H291 0.984 . S
N288 H292 0.985 . S
H289 N284 0.984 . S
H290 N284 0.985 . S
H291 N288 0.984 . S
H292 N288 0.985 . S
H293 N287 0.984 . S
H294 N287 0.984 . S
H295 N283 0.984 . S
H296 N283 0.985 . S
C297 C298 1.363 . S
C297 C303 1.379 . S
C297 N305 1.356 . S
C298 C297 1.363 . S
C298 C304 1.363 . S
C299 C300 1.363 . S
C299 C304 1.379 . S
C299 N306 1.356 . S
C300 C299 1.363 . S
C300 C303 1.363 . S
N301 C303 1.356 . S
N301 H313 0.984 . S
N301 H314 0.985 . S
N302 C304 1.356 . S
N302 H307 0.984 . S
N302 H308 0.985 . S
C303 C297 1.379 . S
C303 C300 1.363 . S
C303 N301 1.356 . S
C304 C298 1.363 . S
C304 C299 1.379 . S
C304 N302 1.356 . S
N305 C297 1.356 . S
N305 H311 0.984 . S
N305 H312 0.984 . S
N306 C299 1.356 . S
N306 H309 0.984 . S
N306 H310 0.985 . S
H307 N302 0.984 . S
H308 N302 0.985 . S
H309 N306 0.984 . S
H310 N306 0.985 . S
H311 N305 0.984 . S
H312 N305 0.984 . S
H313 N301 0.984 . S
H314 N301 0.985 . S
C315 C316 1.363 . S
C315 C321 1.379 . S
C315 N323 1.356 . S
C316 C315 1.363 . S
C316 C322 1.363 . S
C317 C318 1.363 . S
C317 C322 1.379 . S
C317 N324 1.356 . S
C318 C317 1.363 . S
C318 C321 1.363 . S
N319 C321 1.356 . S
N319 H331 0.984 . S
N319 H332 0.985 . S
N320 C322 1.356 . S
N320 H325 0.984 . S
N320 H326 0.985 . S
C321 C315 1.379 . S
C321 C318 1.363 . S
C321 N319 1.356 . S
C322 C316 1.363 . S
C322 C317 1.379 . S
C322 N320 1.356 . S
N323 C315 1.356 . S
N323 H329 0.984 . S
N323 H330 0.984 . S
N324 C317 1.356 . S
N324 H327 0.984 . S
N324 H328 0.985 . S
H325 N320 0.984 . S
H326 N320 0.985 . S
H327 N324 0.984 . S
H328 N324 0.985 . S
H329 N323 0.984 . S
H330 N323 0.984 . S
H331 N319 0.984 . S
H332 N319 0.985 . S
C333 C334 1.363 . S
C333 C339 1.379 . S
C333 N341 1.356 . S
C334 C333 1.363 . S
C334 C340 1.363 . S
C335 C336 1.363 . S
C335 C340 1.379 . S
C335 N342 1.356 . S
C336 C335 1.363 . S
C336 C339 1.363 . S
N337 C339 1.356 . S
N337 H349 0.984 . S
N337 H350 0.985 . S
N338 C340 1.356 . S
N338 H343 0.984 . S
N338 H344 0.985 . S
C339 C333 1.379 . S
C339 C336 1.363 . S
C339 N337 1.356 . S
C340 C334 1.363 . S
C340 C335 1.379 . S
C340 N338 1.356 . S
N341 C333 1.356 . S
N341 H347 0.984 . S
N341 H348 0.984 . S
N342 C335 1.356 . S
N342 H345 0.984 . S
N342 H346 0.985 . S
H343 N338 0.984 . S
H344 N338 0.985 . S
H345 N342 0.984 . S
H346 N342 0.985 . S
H347 N341 0.984 . S
H348 N341 0.984 . S
H349 N337 0.984 . S
H350 N337 0.985 . S
C351 C352 1.363 . S
C351 C357 1.379 1_554 S
C351 N359 1.356 . S
C352 C351 1.363 . S
C352 C358 1.363 . S
C353 C354 1.363 . S
C353 C358 1.379 1_556 S
C353 N360 1.356 . S
C354 C353 1.363 . S
C354 C357 1.363 . S
N355 C357 1.356 . S
N355 H367 0.984 . S
N355 H368 0.985 . S
N356 C358 1.356 . S
N356 H361 0.984 . S
N356 H362 0.985 . S
C357 C351 1.379 1_556 S
C357 C354 1.363 . S
C357 N355 1.356 . S
C358 C352 1.363 . S
C358 C353 1.379 1_554 S
C358 N356 1.356 . S
N359 C351 1.356 . S
N359 H365 0.984 . S
N359 H366 0.984 . S
N360 C353 1.356 . S
N360 H363 0.984 . S
N360 H364 0.985 . S
H361 N356 0.984 . S
H362 N356 0.985 . S
H363 N360 0.984 . S
H364 N360 0.985 . S
H365 N359 0.984 . S
H366 N359 0.984 . S
H367 N355 0.984 . S
H368 N355 0.985 . S
C369 C370 1.360 1_565 S
C369 C375 1.379 1_565 S
C369 N377 1.359 . S
C370 C369 1.360 1_545 S
C370 C376 1.363 . S
C371 C372 1.363 . S
C371 C376 1.379 . S
C371 N378 1.356 . S
C372 C371 1.363 . S
C372 C375 1.363 . S
N373 C375 1.356 1_565 S
N373 H385 0.984 . S
N373 H386 0.985 . S
N374 C376 1.356 . S
N374 H379 0.984 . S
N374 H380 0.985 . S
C375 C369 1.379 1_545 S
C375 C372 1.363 . S
C375 N373 1.356 1_545 S
C376 C370 1.363 . S
C376 C371 1.379 . S
C376 N374 1.356 . S
N377 C369 1.359 . S
N377 H383 0.984 . S
N377 H384 0.984 . S
N378 C371 1.356 . S
N378 H381 0.984 . S
N378 H382 0.985 . S
H379 N374 0.984 . S
H380 N374 0.985 . S
H381 N378 0.984 . S
H382 N378 0.985 . S
H383 N377 0.984 . S
H384 N377 0.984 . S
H385 N373 0.984 . S
H386 N373 0.985 . S
C387 C388 1.363 . S
C387 C393 1.379 . S
C387 N395 1.356 . S
C388 C387 1.363 . S
C388 C394 1.363 . S
C389 C390 1.363 . S
C389 C394 1.379 . S
C389 N396 1.356 . S
C390 C389 1.363 . S
C390 C393 1.363 . S
N391 C393 1.356 . S
N391 H403 0.984 . S
N391 H404 0.985 . S
N392 C394 1.356 . S
N392 H397 0.984 . S
N392 H398 0.985 . S
C393 C387 1.379 . S
C393 C390 1.363 . S
C393 N391 1.356 . S
C394 C388 1.363 . S
C394 C389 1.379 . S
C394 N392 1.356 . S
N395 C387 1.356 . S
N395 H401 0.984 . S
N395 H402 0.984 . S
N396 C389 1.356 . S
N396 H399 0.984 . S
N396 H400 0.985 . S
H397 N392 0.984 . S
H398 N392 0.985 . S
H399 N396 0.984 . S
H400 N396 0.985 . S
H401 N395 0.984 . S
H402 N395 0.984 . S
H403 N391 0.984 . S
H404 N391 0.985 . S
C405 C406 1.363 . S
C405 C411 1.379 . S
C405 N413 1.356 1_545 S
C406 C405 1.363 . S
C406 C412 1.363 . S
C407 C408 1.363 . S
C407 C412 1.379 . S
C407 N414 1.356 . S
C408 C407 1.363 . S
C408 C411 1.363 . S
N409 C411 1.356 1_565 S
N409 H421 0.984 . S
N409 H422 0.985 . S
N410 C412 1.356 . S
N410 H415 0.984 . S
N410 H416 0.985 . S
C411 C405 1.379 . S
C411 C408 1.363 . S
C411 N409 1.356 1_545 S
C412 C406 1.363 . S
C412 C407 1.379 . S
C412 N410 1.356 . S
N413 C405 1.356 1_565 S
N413 H419 0.984 . S
N413 H420 0.984 . S
N414 C407 1.356 . S
N414 H417 0.984 . S
N414 H418 0.985 . S
H415 N410 0.984 . S
H416 N410 0.985 . S
H417 N414 0.984 . S
H418 N414 0.985 . S
H419 N413 0.984 . S
H420 N413 0.984 . S
H421 N409 0.984 . S
H422 N409 0.985 . S
C423 C424 1.363 . S
C423 C429 1.379 1_556 S
C423 N431 1.356 . S
C424 C423 1.363 . S
C424 C430 1.363 . S
C425 C426 1.363 . S
C425 C430 1.379 1_554 S
C425 N432 1.356 . S
C426 C425 1.363 . S
C426 C429 1.363 . S
N427 C429 1.356 . S
N427 H439 0.984 . S
N427 H440 0.985 . S
N428 C430 1.356 . S
N428 H433 0.984 . S
N428 H434 0.985 . S
C429 C423 1.379 1_554 S
C429 C426 1.363 . S
C429 N427 1.356 . S
C430 C424 1.363 . S
C430 C425 1.379 1_556 S
C430 N428 1.356 . S
N431 C423 1.356 . S
N431 H437 0.984 . S
N431 H438 0.984 . S
N432 C425 1.356 . S
N432 H435 0.984 . S
N432 H436 0.985 . S
H433 N428 0.984 . S
H434 N428 0.985 . S
H435 N432 0.984 . S
H436 N432 0.985 . S
H437 N431 0.984 . S
H438 N431 0.984 . S
H439 N427 0.984 . S
H440 N427 0.985 . S
C441 C442 1.363 . S
C441 C447 1.379 . S
C441 N449 1.356 . S
C442 C441 1.363 . S
C442 C448 1.363 1_455 S
C443 C444 1.363 1_655 S
C443 C448 1.379 . S
C443 N450 1.356 . S
C444 C443 1.363 1_455 S
C444 C447 1.363 . S
N445 C447 1.356 . S
N445 H457 0.984 . S
N445 H458 0.985 . S
N446 C448 1.356 . S
N446 H451 0.984 . S
N446 H452 0.985 . S
C447 C441 1.379 . S
C447 C444 1.363 . S
C447 N445 1.356 . S
C448 C442 1.363 1_655 S
C448 C443 1.379 . S
C448 N446 1.356 . S
N449 C441 1.356 . S
N449 H455 0.984 . S
N449 H456 0.984 . S
N450 C443 1.356 . S
N450 H453 0.984 . S
N450 H454 0.985 . S
H451 N446 0.984 . S
H452 N446 0.985 . S
H453 N450 0.984 . S
H454 N450 0.985 . S
H455 N449 0.984 . S
H456 N449 0.984 . S
H457 N445 0.984 . S
H458 N445 0.985 . S
C136 C20 1.349 . S
C138 N128 1.366 . S
C154 C41 1.399 . S
C156 N106 1.376 . S
C172 C64 1.433 . S
C174 N117 1.412 . S
C190 C19 1.366 . S
C192 C130 1.468 . S
C210 C108 1.426 . S
C208 C44 1.402 . S
C228 C119 1.371 . S
C226 C67 1.358 . S
C244 C43 1.344 . S
C246 N84 1.366 . S
C262 C66 1.290 . S
C264 C97 1.357 . S
C280 C21 1.401 . S
C282 C75 1.425 . S
C300 C86 1.448 . S
C298 C42 1.351 . S
C318 N95 1.411 . S
C316 C65 1.365 . S
C334 C18 1.401 . S
C336 N73 1.377 . S
C354 C100 1.518 . S
C352 C17 1.518 . S
C370 C39 1.532 . S
C372 C78 1.524 . S
C388 C62 1.529 . S
C390 C89 1.521 . S
C408 C122 1.513 . S
C406 C40 1.511 . S
C426 C133 1.511 . S
C424 C63 1.519 . S
C442 C16 1.529 . S
C444 C111 1.521 . S
