# Generated by pormake.
# Topology anh, (6,3)-cn, num edge types: 1
# Building blocks:
#     Node 0, Type 0, BuildingBlock: INOVEN_clean_sbu_0, # of connection points: 6
#     Node 1, Type 0, BuildingBlock: INOVEN_clean_sbu_0, # of connection points: 6
#     Node 2, Type 0, BuildingBlock: INOVEN_clean_sbu_0, # of connection points: 6
#     Node 3, Type 1, BuildingBlock: VETTIZ_charged_linker_0, # of connection points: 3
#     Node 4, Type 1, BuildingBlock: VETTIZ_charged_linker_0, # of connection points: 3
#     Node 5, Type 1, BuildingBlock: VETTIZ_charged_linker_0, # of connection points: 3
#     Node 6, Type 1, BuildingBlock: VETTIZ_charged_linker_0, # of connection points: 3
#     Node 7, Type 1, BuildingBlock: VETTIZ_charged_linker_0, # of connection points: 3
#     Node 8, Type 1, BuildingBlock: VETTIZ_charged_linker_0, # of connection points: 3
#     Edge 9, Type (0, 1), None
#     Edge 10, Type (0, 1), None
#     Edge 11, Type (0, 1), None
#     Edge 12, Type (0, 1), None
#     Edge 13, Type (0, 1), None
#     Edge 14, Type (0, 1), None
#     Edge 15, Type (0, 1), None
#     Edge 16, Type (0, 1), None
#     Edge 17, Type (0, 1), None
#     Edge 18, Type (0, 1), None
#     Edge 19, Type (0, 1), None
#     Edge 20, Type (0, 1), None
#     Edge 21, Type (0, 1), None
#     Edge 22, Type (0, 1), None
#     Edge 23, Type (0, 1), None
#     Edge 24, Type (0, 1), None
#     Edge 25, Type (0, 1), None
#     Edge 26, Type (0, 1), None
# Relax obj value: 0.285
# Max RMSD: 0.267
# Mean RMSD: 0.187
data_MOF--net-anh--node1-INOVEN_clean_sbu_0--node2-VETTIZ_charged_linker_0--edge1-none
_symmetry_space_group_name_H-M    P1
_symmetry_Int_Tables_number       1
_symmetry_cell_setting            triclinic
loop_
_symmetry_equiv_pos_as_xyz
'x, y, z'
_cell_length_a     21.145483
_cell_length_b     26.357203
_cell_length_c     37.618161
_cell_angle_alpha  92.498901
_cell_angle_beta   89.471435
_cell_angle_gamma 134.36345
loop_
_atom_site_label
_atom_site_type_symbol
_atom_site_fract_x
_atom_site_fract_y
_atom_site_fract_z
_atom_type_partial_charge
Gd0 Gd 0.24308 0.57268 0.13847 0.0
Gd1 Gd 0.14551 0.6106 0.153 0.0
C2 C 0.35683 0.7439 0.1427 0.0
C3 C 0.31617 0.53195 0.11577 0.0
C4 C 0.27278 0.45748 0.11403 0.0
C5 C 0.1864 0.40309 0.09928 0.0
C6 C 0.31496 0.43947 0.12878 0.0
C7 C 0.19329 0.31627 0.10711 0.0
C8 C 0.27532 0.36936 0.12562 0.0
C9 C 0.14674 0.33302 0.09612 0.0
C10 C 0.21752 0.57974 0.20834 0.0
C11 C 1.03722 0.44319 0.15397 0.0
C12 C 1.05727 0.63636 0.17802 0.0
C13 C 0.95995 0.58403 0.1757 0.0
C14 C 0.91969 0.59837 0.15501 0.0
C15 C 0.91012 0.51335 0.18462 0.0
C16 C 0.79254 0.47178 0.14422 0.0
C17 C 0.82709 0.45734 0.16854 0.0
C18 C 0.83629 0.54237 0.13928 0.0
C19 C 0.11779 0.55606 0.08544 0.0
O20 O 0.36046 0.69531 0.13885 0.0
O21 O 0.27996 0.7236 0.14818 0.0
O22 O 0.28299 0.54642 0.09411 0.0
O23 O 0.33359 0.56108 0.14781 0.0
O24 O 0.20548 0.52824 0.19346 0.0
O25 O 0.24073 0.62338 0.18578 0.0
O26 O 1.04823 0.49539 0.16916 0.0
O27 O 1.10166 0.46053 0.13444 0.0
O28 O 1.09574 0.65905 0.1472 0.0
O29 O 1.0904 0.62022 0.19846 0.0
O30 O 1.05712 0.54205 0.10507 0.0
O31 O 0.19147 0.60032 0.10201 0.0
H32 H 0.15087 0.41497 0.08853 0.0
H33 H 0.38026 0.48009 0.14126 0.0
H34 H 0.31369 0.35871 0.13419 0.0
H35 H 1.08402 0.29355 0.08158 0.0
H36 H 0.95654 0.6521 0.14774 0.0
H37 H 0.93871 0.50043 0.20096 0.0
H38 H 0.79384 0.40307 0.17261 0.0
H39 H 0.80976 0.55402 0.12049 0.0
Gd40 Gd 0.74033 0.09777 0.48188 0.0
Gd41 Gd 0.62608 0.11988 0.46586 0.0
C42 C 0.52587 0.957 0.47115 0.0
C43 C 0.81642 0.06088 0.5062 0.0
C44 C 0.78668 0.99575 0.51939 0.0
C45 C 0.83128 0.97611 0.50923 0.0
C46 C 0.71286 0.95182 0.54103 0.0
C47 C 0.73077 0.87053 0.54326 0.0
C48 C 0.68555 0.88992 0.55313 0.0
C49 C 0.80332 0.91374 0.52095 0.0
C50 C 0.71851 0.10207 0.41203 0.0
C51 C 0.84489 0.26063 0.47101 0.0
C52 C 0.55464 0.16007 0.44011 0.0
C53 C 0.57207 0.2246 0.44583 0.0
C54 C 0.5008 0.21844 0.44904 0.0
C55 C 0.65878 0.29136 0.45233 0.0
C56 C 0.60181 0.34279 0.46903 0.0
C57 C 0.67346 0.34999 0.46397 0.0
C58 C 0.51558 0.27725 0.46063 0.0
C59 C 0.64137 0.11175 0.53601 0.0
O60 O 0.59996 0.98462 0.48814 0.0
O61 O 0.52523 1.0001 0.45459 0.0
O62 O 0.80107 0.05833 0.47232 0.0
O63 O 0.80031 0.09267 0.52597 0.0
O64 O 0.79422 0.13404 0.42694 0.0
O65 O 0.65844 0.06938 0.43436 0.0
O66 O 0.7655 0.2325 0.46054 0.0
O67 O 0.8526 0.21875 0.48324 0.0
O68 O 0.52419 0.12057 0.46756 0.0
O69 O 0.61537 0.16737 0.42379 0.0
O70 O 0.57045 0.08876 0.5205 0.0
O71 O 0.70401 0.14466 0.51459 0.0
H72 H 0.88792 1.00917 0.4923 0.0
H73 H 0.67636 0.96527 0.54862 0.0
H74 H 0.62901 0.85708 0.57011 0.0
H75 H 0.83971 0.90019 0.5133 0.0
H76 H 0.43346 0.16733 0.44442 0.0
H77 H 0.71494 0.2976 0.4502 0.0
H78 H 0.74028 0.39993 0.47098 0.0
H79 H 0.45945 0.27053 0.46516 0.0
Gd80 Gd 0.7127 0.63623 0.8328 0.0
Gd81 Gd 0.59598 0.48514 0.84479 0.0
C82 C 0.49924 0.55341 0.84381 0.0
C83 C 0.81372 0.76381 0.81047 0.0
C84 C 0.79983 0.80927 0.79996 0.0
C85 C 0.7329 0.80257 0.81469 0.0
C86 C 0.85309 0.85916 0.7741 0.0
C87 C 0.771 0.89328 0.77668 0.0
C88 C 0.83907 0.90065 0.76267 0.0
C89 C 0.7189 0.84433 0.80328 0.0
C90 C 0.68446 0.60047 0.90148 0.0
C91 C 0.81043 0.56891 0.83906 0.0
C92 C 0.49859 0.35555 0.86238 0.0
C93 C 0.51387 0.30842 0.8576 0.0
C94 C 0.4495 0.2418 0.83947 0.0
C95 C 0.59618 0.33254 0.86657 0.0
C96 C 0.5519 0.22758 0.83624 0.0
C97 C 0.61468 0.29221 0.85624 0.0
C98 C 0.46848 0.20212 0.8287 0.0
C99 C 0.63325 0.51649 0.77624 0.0
O100 O 0.57875 0.61118 0.83151 0.0
O101 O 0.49549 0.50174 0.85367 0.0
O102 O 0.80528 0.75011 0.84413 0.0
O103 O 0.7779 0.70813 0.78934 0.0
O104 O 0.6778 0.64195 0.88935 0.0
O105 O 0.7024 0.57995 0.87659 0.0
O106 O 0.72844 0.51076 0.8489 0.0
O107 O 0.8189 0.62333 0.82962 0.0
O108 O 0.48536 0.37195 0.83291 0.0
O109 O 0.55034 0.41007 0.88531 0.0
O110 O 0.63102 0.47219 0.7913 0.0
O111 O 0.61387 0.54158 0.7978 0.0
H112 H 0.69053 0.76427 0.83462 0.0
H113 H 0.90519 0.86555 0.76239 0.0
H114 H 0.88142 0.93834 0.74251 0.0
H115 H 0.6654 0.83659 0.81443 0.0
H116 H 0.38597 0.2221 0.83193 0.0
H117 H 0.64796 0.38413 0.88 0.0
H118 H 0.68003 0.31375 0.86186 0.0
H119 H 0.41919 0.15282 0.813 0.0
C120 C 0.90693 0.30154 0.14896 0.0
C121 C 0.96673 0.36952 0.16856 0.0
C122 C 0.95981 0.36926 0.20564 0.0
C123 C 0.84148 0.2403 0.2044 0.0
C124 C 0.84285 0.23683 0.16772 0.0
C125 C 0.76804 0.15798 0.15388 0.0
H126 H 0.4223 0.80553 0.20741 0.0
C127 C 0.77161 0.16763 0.21749 0.0
C128 C 0.72511 0.1168 0.18844 0.0
H129 H 0.47834 0.86063 0.09797 0.0
H130 H 0.6042 0.98793 0.11727 0.0
H131 H 0.61735 0.90204 0.2347 0.0
H132 H 0.43512 0.9241 0.23191 0.0
H133 H 0.49351 0.96603 0.27258 0.0
H134 H 0.42923 0.87274 0.26406 0.0
H135 H 0.52714 0.8584 0.26442 0.0
H136 H 0.6348 0.94551 0.27543 0.0
C137 C 0.80818 0.13512 0.13306 0.0
C138 C 0.7013 0.14943 0.13074 0.0
C139 C 0.75834 0.14754 0.35139 0.0
C140 C 0.70171 0.09061 0.37345 0.0
C141 C 0.62966 1.02239 0.35828 0.0
C142 C 0.61628 1.01078 0.32124 0.0
C143 C 0.67481 0.0684 0.29917 0.0
C144 C 0.74288 0.13539 0.31457 0.0
C145 C 0.79444 0.19118 0.28774 0.0
C146 C 0.75009 0.14615 0.25308 0.0
C147 C 0.68044 0.07459 0.25997 0.0
C148 C 0.89243 0.22877 0.29164 0.0
C149 C 0.77835 0.24012 0.29443 0.0
C150 C 0.46159 0.84411 0.18724 0.0
C151 C 0.44022 0.82172 0.1513 0.0
C152 C 0.49344 0.87543 0.12612 0.0
C153 C 0.56584 0.94923 0.13724 0.0
C154 C 0.58504 0.97027 0.17395 0.0
C155 C 0.53183 0.91642 0.19772 0.0
C156 C 0.55544 0.94359 0.23549 0.0
C157 C 0.63182 1.02252 0.23156 0.0
C158 C 0.65207 0.04125 0.1955 0.0
C159 C 0.58471 0.91068 0.25377 0.0
C160 C 0.47439 0.92551 0.25219 0.0
H161 H 0.90228 0.31324 0.25151 0.0
H162 H 0.90876 0.29907 0.12022 0.0
H163 H 0.67526 0.16845 0.14594 0.0
H164 H 0.64439 0.09312 0.12209 0.0
H165 H 0.73325 0.18078 0.10663 0.0
H166 H 0.85804 0.1436 0.14996 0.0
H167 H 0.84139 0.16655 0.10905 0.0
H168 H 0.75648 0.07807 0.1244 0.0
H169 H 0.81265 0.20076 0.36241 0.0
H170 H 0.58522 0.97773 0.37503 0.0
H171 H 0.56131 0.95721 0.3114 0.0
H172 H 0.89658 0.19065 0.29889 0.0
H173 H 0.92864 0.27208 0.31282 0.0
H174 H 0.92894 0.25047 0.2667 0.0
H175 H 0.71561 0.21276 0.30842 0.0
H176 H 0.77018 0.25587 0.26938 0.0
H177 H 0.83264 0.28849 0.31109 0.0
H178 H 1.00286 0.41875 0.22166 0.0
C179 C 0.89969 0.30659 0.22326 0.0
C180 C 0.69691 0.75864 0.5354 0.0
C181 C 0.70554 0.80752 0.55774 0.0
C182 C 0.69394 0.79783 0.59454 0.0
C183 C 0.67112 0.6944 0.58676 0.0
C184 C 0.67917 0.70226 0.55045 0.0
C185 C 0.6678 0.64507 0.53087 0.0
H186 H 0.61346 0.35975 0.53989 0.0
C187 C 0.65862 0.63362 0.59425 0.0
C188 C 0.65626 0.60406 0.56167 0.0
H189 H 0.62009 0.44939 0.44502 0.0
H190 H 0.64104 0.53943 0.48119 0.0
H191 H 0.76956 0.50277 0.5814 0.0
H192 H 0.48821 0.36684 0.58288 0.0
H193 H 0.52766 0.39265 0.62731 0.0
H194 H 0.54333 0.34379 0.6008 0.0
H195 H 0.69967 0.42421 0.60632 0.0
H196 H 0.74692 0.50904 0.62547 0.0
C197 C 0.75333 0.6808 0.51062 0.0
C198 C 0.58328 0.59973 0.50667 0.0
C199 C 0.64272 0.5734 0.72242 0.0
C200 C 0.63903 0.52379 0.73765 0.0
C201 C 0.6397 0.47966 0.71555 0.0
C202 C 0.64209 0.48372 0.67862 0.0
C203 C 0.64443 0.53277 0.66358 0.0
C204 C 0.64624 0.57739 0.68538 0.0
C205 C 0.6537 0.62873 0.66465 0.0
C206 C 0.65374 0.60611 0.6268 0.0
C207 C 0.64738 0.54955 0.62643 0.0
C208 C 0.74286 0.70499 0.67576 0.0
C209 C 0.57054 0.61511 0.67147 0.0
C210 C 0.61963 0.39902 0.52704 0.0
C211 C 0.61539 0.39832 0.48992 0.0
C212 C 0.62323 0.44956 0.47376 0.0
C213 C 0.63514 0.50135 0.49477 0.0
C214 C 0.63859 0.50111 0.53215 0.0
C215 C 0.63067 0.45025 0.54754 0.0
C216 C 0.63347 0.45619 0.58742 0.0
C217 C 0.64315 0.51849 0.59368 0.0
C218 C 0.64687 0.54514 0.56136 0.0
C219 C 0.7161 0.47345 0.60113 0.0
C220 C 0.54403 0.38631 0.6006 0.0
H221 H 0.6701 0.73776 0.63745 0.0
H222 H 0.70421 0.76444 0.50691 0.0
H223 H 0.53249 0.5965 0.5189 0.0
H224 H 0.55027 0.54393 0.50272 0.0
H225 H 0.59825 0.62298 0.48032 0.0
H226 H 0.81277 0.7235 0.52781 0.0
H227 H 0.75684 0.70526 0.4864 0.0
H228 H 0.75952 0.64368 0.50272 0.0
H229 H 0.64312 0.6084 0.73887 0.0
H230 H 0.63728 0.4412 0.72681 0.0
H231 H 0.64161 0.44822 0.66326 0.0
H232 H 0.79404 0.70534 0.68307 0.0
H233 H 0.73525 0.72736 0.69918 0.0
H234 H 0.77216 0.74197 0.654 0.0
H235 H 0.51098 0.55749 0.67409 0.0
H236 H 0.55353 0.6302 0.64925 0.0
H237 H 0.57886 0.64364 0.69642 0.0
H238 H 0.70074 0.83512 0.61219 0.0
C239 C 0.67687 0.7416 0.60917 0.0
C240 C 0.37778 0.57156 0.83286 0.0
C241 C 0.41738 0.54941 0.85235 0.0
C242 C 0.37294 0.51862 0.88449 0.0
C243 C 0.27316 0.5395 0.88041 0.0
C244 C 0.30305 0.56356 0.84698 0.0
C245 C 0.2415 0.57526 0.83256 0.0
H246 H 0.85297 0.52368 0.89265 0.0
C247 C 0.20224 0.5397 0.89134 0.0
C248 C 0.17391 0.55647 0.86309 0.0
H249 H 0.96334 0.6181 0.79286 0.0
H250 H 1.07532 0.61161 0.80094 0.0
H251 H 0.86766 0.41426 0.8922 0.0
H252 H 1.02579 0.63 0.92604 0.0
H253 H 1.06362 0.60747 0.9559 0.0
H254 H 0.94799 0.56072 0.95501 0.0
H255 H 0.84743 0.44344 0.93064 0.0
H256 H 0.91179 0.42197 0.93363 0.0
C257 C 0.18808 0.52613 0.79936 0.0
C258 C 0.30125 0.65307 0.82337 0.0
C259 C 0.16858 0.54961 0.02559 0.0
C260 C 1.10597 0.54091 0.04632 0.0
C261 C 1.02976 0.51703 0.0292 0.0
C262 C 1.01943 0.50769 -0.00788 0.0
C263 C 1.08677 0.52376 0.97122 0.0
C264 C 0.15632 0.53917 -0.01185 0.0
C265 C 0.20638 0.53406 0.96215 0.0
C266 C 0.16927 0.53104 0.92613 0.0
C267 C 1.09933 0.52592 0.93189 0.0
C268 C 0.18012 0.46352 0.96913 0.0
C269 C 0.30641 0.60125 0.96769 0.0
C270 C 0.89898 0.54279 0.87143 0.0
C271 C 0.89144 0.57095 0.84192 0.0
C272 C 0.96078 0.59571 0.81691 0.0
C273 C 1.02756 0.59134 0.82149 0.0
C274 C 1.03334 0.56314 0.85227 0.0
C275 C 0.96761 0.54213 0.87618 0.0
C276 C 0.98314 0.52631 0.91041 0.0
C277 C 1.06219 0.53488 0.90423 0.0
C278 C 1.09754 0.55402 0.86907 0.0
C279 C 0.89816 0.44774 0.91746 0.0
C280 C 1.00565 0.58307 0.93848 0.0
H281 H 0.28126 0.4906 0.92268 0.0
H282 H 0.40292 0.59326 0.80701 0.0
H283 H 0.34023 0.68873 0.84738 0.0
H284 H 0.26093 0.66253 0.81357 0.0
H285 H 0.34817 0.66721 0.80246 0.0
H286 H 0.14494 0.46974 0.80597 0.0
H287 H 0.23294 0.53793 0.77804 0.0
H288 H 0.1454 0.53292 0.78904 0.0
H289 H 0.22464 0.56297 0.03824 0.0
H290 H 0.97846 0.50696 0.04443 0.0
H291 H 0.95931 0.48913 0.98145 0.0
H292 H 0.12849 0.4316 -0.01056 0.0
H293 H 0.23761 0.47376 0.97919 0.0
H294 H 0.15081 0.42747 0.94482 0.0
H295 H 0.31968 0.64996 0.96569 0.0
H296 H 0.34706 0.60374 0.94785 0.0
H297 H 0.33048 0.60319 -0.00568 0.0
H298 H 0.39138 0.49752 0.90065 0.0
C299 C 0.30589 0.51442 0.89789 0.0
C300 C 0.98319 0.40062 0.47386 0.0
C301 C 0.92585 0.33102 0.45623 0.0
C302 C 0.94438 0.32641 0.42108 0.0
C303 C 1.06389 0.45488 0.41904 0.0
C304 C 1.05362 0.46245 0.4546 0.0
C305 C 0.12786 0.54183 0.46715 0.0
H306 H 0.44872 0.88995 0.40761 0.0
C307 C 0.13424 0.52611 0.40446 0.0
C308 C 0.17449 0.57952 0.43222 0.0
H309 H 0.42886 0.8412 0.51724 0.0
H310 H 0.3042 0.71278 0.50063 0.0
H311 H 0.45714 0.7869 0.38233 0.0
H312 H 0.24408 0.77419 0.3846 0.0
H313 H 0.22886 0.73076 0.3441 0.0
H314 H 0.32978 0.82319 0.35268 0.0
H315 H 0.44399 0.82708 0.34997 0.0
H316 H 0.39577 0.7377 0.34322 0.0
C317 C 0.19072 0.54995 0.493 0.0
C318 C 1.0886 0.56815 0.48462 0.0
C319 C 0.17266 0.53611 0.27006 0.0
C320 C 0.21759 0.59202 0.24691 0.0
C321 C 0.26341 0.66092 0.26089 0.0
C322 C 0.26716 0.67457 0.29754 0.0
C323 C 0.22361 0.61857 0.32068 0.0
C324 C 0.17517 0.5505 0.30669 0.0
C325 C 0.12536 0.49682 0.33482 0.0
C326 C 0.1565 0.54458 0.36841 0.0
C327 C 0.2153 0.61569 0.35991 0.0
C328 C 0.15645 0.45813 0.33523 0.0
C329 C 1.02503 0.44781 0.32614 0.0
C330 C 0.41798 0.85249 0.42845 0.0
C331 C 0.4494 0.87709 0.4637 0.0
C332 C 0.40705 0.82465 0.48961 0.0
C333 C 0.33492 0.75014 0.48001 0.0
C334 C 0.30643 0.72685 0.44392 0.0
C335 C 0.35063 0.77922 0.41921 0.0
C336 C 0.32473 0.74927 0.38181 0.0
C337 C 0.25851 0.67031 0.38719 0.0
C338 C 0.24246 0.6544 0.42363 0.0
C339 C 0.40921 0.77662 0.36304 0.0
C340 C 0.28009 0.77062 0.36458 0.0
H341 H 1.01904 0.37716 0.37572 0.0
H342 H 0.97344 0.40658 0.50144 0.0
H343 H 1.04183 0.5602 0.46576 0.0
H344 H 0.14166 0.62559 0.49254 0.0
H345 H 1.05221 0.53867 0.50878 0.0
H346 H 0.21597 0.52832 0.48025 0.0
H347 H 0.15568 0.52059 0.51736 0.0
H348 H 0.24849 0.60609 0.50116 0.0
H349 H 0.13536 0.48231 0.25993 0.0
H350 H 0.29785 0.70474 0.2435 0.0
H351 H 0.3047 0.72855 0.30633 0.0
H352 H 0.22701 0.49409 0.32788 0.0
H353 H 0.11671 0.4113 0.31604 0.0
H354 H 0.15425 0.44112 0.36197 0.0
H355 H 1.0124 0.47637 0.31201 0.0
H356 H 0.98472 0.42947 0.35007 0.0
H357 H 0.99838 0.40106 0.30868 0.0
H358 H 0.90543 0.275 0.40742 0.0
C359 C 1.01147 0.38664 0.40263 0.0
C360 C 0.72946 0.9641 0.78303 0.0
C361 C 0.75133 0.93294 0.7615 0.0
C362 C 0.75397 0.9393 0.72435 0.0
C363 C 0.71538 1.00687 0.73048 0.0
C364 C 0.71206 1.00105 0.76695 0.0
C365 C 0.68909 0.03876 0.78523 0.0
H366 H 0.55632 0.21099 0.76574 0.0
C367 C 0.69286 0.04698 0.72162 0.0
C368 C 0.67641 0.0657 0.75359 0.0
H369 H 0.60852 0.16912 0.86521 0.0
H370 H 0.64987 0.11361 0.83299 0.0
H371 H 0.72999 0.26973 0.73135 0.0
H372 H 0.46154 0.06634 0.72447 0.0
H373 H 0.50165 0.07977 0.68141 0.0
H374 H 0.49804 0.14104 0.70168 0.0
H375 H 0.6459 0.25275 0.70514 0.0
H376 H 0.71224 0.23877 0.68689 0.0
C377 C 0.76848 0.10062 0.80955 0.0
C378 C 0.60267 0.98398 0.8054 0.0
C379 C 0.67977 0.08776 0.59144 0.0
C380 C 0.65193 0.11647 0.57495 0.0
C381 C 0.62517 0.14364 0.59606 0.0
C382 C 0.62643 0.14272 0.63319 0.0
C383 C 0.65325 0.11304 0.64953 0.0
C384 C 0.67915 0.08601 0.62874 0.0
C385 C 0.70035 0.05279 0.6508 0.0
C386 C 0.68436 0.06565 0.68829 0.0
C387 C 0.65735 0.10121 0.68719 0.0
C388 C 0.79889 0.09436 0.64569 0.0
C389 C 0.6345 0.97242 0.63954 0.0
C390 C 0.57574 0.18922 0.78066 0.0
C391 C 0.57756 0.19313 0.81791 0.0
C392 C 0.60584 0.16606 0.83638 0.0
C393 C 0.62979 0.13398 0.81764 0.0
C394 C 0.6271 0.13027 0.78006 0.0
C395 C 0.60154 0.15893 0.76253 0.0
C396 C 0.60721 0.1555 0.723 0.0
C397 C 0.63931 0.11925 0.71912 0.0
C398 C 0.64999 0.10306 0.7524 0.0
C399 C 0.67678 0.23287 0.71063 0.0
C400 C 0.51268 0.10879 0.70649 0.0
H401 H 0.73942 0.97808 0.68049 0.0
H402 H 0.72719 0.96067 0.81166 0.0
H403 H 0.55149 0.93588 0.78782 0.0
H404 H 0.57404 1.00457 0.81438 0.0
H405 H 0.61408 0.96711 0.82904 0.0
H406 H 0.83183 0.12918 0.79584 0.0
H407 H 0.77069 0.0807 0.83447 0.0
H408 H 0.76733 0.14104 0.81648 0.0
H409 H 0.6974 0.0641 0.57571 0.0
H410 H 0.60242 0.16512 0.58373 0.0
H411 H 0.60495 0.16417 0.64762 0.0
H412 H 0.8402 0.1525 0.64596 0.0
H413 H 0.80796 0.0785 0.61977 0.0
H414 H 0.82713 0.08751 0.66722 0.0
H415 H 0.5722 0.95241 0.62747 0.0
H416 H 0.61266 0.93889 0.66244 0.0
H417 H 0.66348 0.96166 0.61963 0.0
H418 H 0.76855 0.91493 0.70693 0.0
C419 C 0.73635 0.9758 0.70888 0.0
C420 C 0.63326 0.37544 0.12588 0.0
C421 C 0.7224 0.4165 0.11852 0.0
C422 C 0.74664 0.41604 0.08361 0.0
C423 C 0.60141 0.35736 0.06266 0.0
C424 C 0.5726 0.34459 0.09709 0.0
C425 C 0.47673 0.30611 0.09821 0.0
H426 H 0.17544 0.29129 0.03665 0.0
C427 C 0.53597 0.34477 0.0396 0.0
C428 C 0.45924 0.30911 0.05935 0.0
H429 H 0.18211 0.2121 0.13276 0.0
H430 H 0.28225 0.20694 0.10562 0.0
H431 H 0.34148 0.40686 0.04832 0.0
H432 H 0.24805 0.24006 0.97156 0.0
H433 H 0.3279 0.32314 0.95196 0.0
H434 H 0.2293 0.29672 0.96951 0.0
H435 H 0.31908 0.40927 0.00302 0.0
H436 H 0.42686 0.44909 0.01869 0.0
C437 C 0.46863 0.34874 0.12398 0.0
C438 C 0.42152 0.22896 0.10909 0.0
C439 C 0.66752 0.52958 0.94799 0.0
C440 C 0.63574 0.55492 0.93132 0.0
C441 C 0.54889 0.52263 0.93695 0.0
C442 C 0.49246 0.46289 0.95746 0.0
C443 C 0.52531 0.43833 0.97444 0.0
C444 C 0.61216 0.47257 0.97013 0.0
C445 C 0.63678 0.44052 -0.00935 0.0
C446 C 0.551 0.38372 0.01008 0.0
C447 C 0.48559 0.38148 -0.00064 0.0
C448 C 0.7179 0.49965 0.01572 0.0
C449 C 0.65505 0.40645 0.96364 0.0
C450 C 0.19446 0.26893 0.05128 0.0
C451 C 0.17772 0.25814 0.08774 0.0
C452 C 0.19884 0.22511 0.10518 0.0
C453 C 0.25982 0.22518 0.09008 0.0
C454 C 0.30073 0.26135 0.05876 0.0
C455 C 0.26471 0.27908 0.03866 0.0
C456 C 0.32677 0.3305 0.01088 0.0
C457 C 0.40289 0.3366 0.01612 0.0
C458 C 0.38841 0.29789 0.04498 0.0
C459 C 0.3548 0.40242 0.02028 0.0
C460 C 0.28082 0.29629 0.97387 0.0
H461 H 0.70565 0.38728 0.02888 0.0
H462 H 0.61362 0.37333 0.15287 0.0
H463 H 0.46184 0.21642 0.11087 0.0
H464 H 0.36747 0.18923 0.08926 0.0
H465 H 0.3921 0.21954 0.13556 0.0
H466 H 0.51535 0.40522 0.11684 0.0
H467 H 0.48372 0.34728 0.15189 0.0
H468 H 0.40205 0.32814 0.12365 0.0
H469 H 0.73351 0.55242 0.94297 0.0
H470 H 0.5232 0.54085 0.92364 0.0
H471 H 0.4253 0.43786 0.95899 0.0
H472 H 0.75626 0.55397 0.00681 0.0
H473 H 0.76665 0.49567 0.0165 0.0
H474 H 0.6973 0.49862 0.04317 0.0
H475 H 0.60148 0.3736 0.94276 0.0
H476 H 0.65672 0.37026 0.97612 0.0
H477 H 0.71889 0.44792 0.95043 0.0
H478 H 0.81483 0.44524 0.07787 0.0
C479 C 0.68513 0.38493 0.05544 0.0
loop_
_geom_bond_atom_site_label_1
_geom_bond_atom_site_label_2
_geom_bond_distance
_geom_bond_site_symmetry_2
_ccdc_geom_bond_type
Gd0 C3 2.818 . S
Gd0 O20 2.377 . S
Gd0 O22 2.448 . S
Gd0 O23 2.506 . S
Gd0 O24 2.435 . S
Gd0 O25 2.717 . S
Gd0 O27 2.395 1_455 S
Gd0 O31 2.327 . S
Gd1 C12 2.818 . S
Gd1 O21 2.395 1_655 S
Gd1 O25 2.327 1_655 S
Gd1 O26 2.377 . S
Gd1 O28 2.448 . S
Gd1 O29 2.506 . S
Gd1 O30 2.435 1_655 S
Gd1 O31 2.717 1_655 S
C2 O20 1.240 . S
C2 O21 1.240 . S
C3 Gd0 2.818 . S
C3 C4 1.510 . S
C3 O22 1.249 . S
C3 O23 1.252 . S
C4 C3 1.510 . S
C4 C5 1.404 . S
C4 C6 1.352 . S
C5 C4 1.404 . S
C5 C9 1.389 . S
C5 H32 0.930 . S
C6 C4 1.352 . S
C6 C8 1.374 . S
C6 H33 0.931 . S
C7 C8 1.359 . S
C7 C9 1.364 . S
C8 C6 1.374 . S
C8 C7 1.359 . S
C8 H34 0.931 . S
C9 C5 1.389 . S
C9 C7 1.364 . S
C9 H35 0.931 . S
C10 O24 1.256 . S
C10 O25 1.257 . S
C11 O26 1.240 . S
C11 O27 1.240 . S
C12 Gd1 2.818 . S
C12 C13 1.510 . S
C12 O28 1.249 . S
C12 O29 1.252 . S
C13 C12 1.510 . S
C13 C14 1.404 . S
C13 C15 1.352 . S
C14 C13 1.404 . S
C14 C18 1.389 . S
C14 H36 0.930 . S
C15 C13 1.352 . S
C15 C17 1.374 . S
C15 H37 0.931 . S
C16 C17 1.359 . S
C16 C18 1.364 . S
C17 C15 1.374 . S
C17 C16 1.359 . S
C17 H38 0.931 . S
C18 C14 1.389 . S
C18 C16 1.364 . S
C18 H39 0.931 . S
C19 O30 1.256 . S
C19 O31 1.257 . S
O20 Gd0 2.377 . S
O20 C2 1.240 . S
O21 Gd1 2.395 1_455 S
O21 C2 1.240 . S
O22 Gd0 2.448 . S
O22 C3 1.249 . S
O23 Gd0 2.506 . S
O23 C3 1.252 . S
O24 Gd0 2.435 . S
O24 C10 1.256 . S
O25 Gd0 2.717 . S
O25 Gd1 2.327 1_455 S
O25 C10 1.257 . S
O26 Gd1 2.377 . S
O26 C11 1.240 . S
O27 Gd0 2.395 1_655 S
O27 C11 1.240 . S
O28 Gd1 2.448 . S
O28 C12 1.249 . S
O29 Gd1 2.506 . S
O29 C12 1.252 . S
O30 Gd1 2.435 1_455 S
O30 C19 1.256 . S
O31 Gd0 2.327 . S
O31 Gd1 2.717 1_455 S
O31 C19 1.257 . S
H32 C5 0.930 . S
H33 C6 0.931 . S
H34 C8 0.931 . S
H35 C9 0.931 . S
H36 C14 0.930 . S
H37 C15 0.931 . S
H38 C17 0.931 . S
H39 C18 0.931 . S
Gd40 C43 2.818 . S
Gd40 O60 2.377 . S
Gd40 O62 2.448 . S
Gd40 O63 2.506 . S
Gd40 O64 2.435 . S
Gd40 O65 2.717 1_565 S
Gd40 O67 2.395 1_565 S
Gd40 O71 2.327 1_565 S
Gd41 C52 2.818 . S
Gd41 O61 2.395 1_545 S
Gd41 O65 2.327 . S
Gd41 O66 2.377 . S
Gd41 O68 2.448 . S
Gd41 O69 2.506 . S
Gd41 O70 2.435 . S
Gd41 O71 2.717 . S
C42 O60 1.240 . S
C42 O61 1.240 . S
C43 Gd40 2.818 . S
C43 C44 1.510 . S
C43 O62 1.249 . S
C43 O63 1.252 . S
C44 C43 1.510 . S
C44 C45 1.404 . S
C44 C46 1.352 . S
C45 C44 1.404 . S
C45 C49 1.389 . S
C45 H72 0.930 . S
C46 C44 1.352 . S
C46 C48 1.374 . S
C46 H73 0.931 . S
C47 C48 1.359 . S
C47 C49 1.364 . S
C48 C46 1.374 . S
C48 C47 1.359 . S
C48 H74 0.931 . S
C49 C45 1.389 . S
C49 C47 1.364 . S
C49 H75 0.931 . S
C50 O64 1.256 1_545 S
C50 O65 1.257 . S
C51 O66 1.240 . S
C51 O67 1.240 . S
C52 Gd41 2.818 . S
C52 C53 1.510 . S
C52 O68 1.249 . S
C52 O69 1.252 . S
C53 C52 1.510 . S
C53 C54 1.404 . S
C53 C55 1.352 . S
C54 C53 1.404 . S
C54 C58 1.389 . S
C54 H76 0.930 . S
C55 C53 1.352 . S
C55 C57 1.374 . S
C55 H77 0.931 . S
C56 C57 1.359 . S
C56 C58 1.364 . S
C57 C55 1.374 . S
C57 C56 1.359 . S
C57 H78 0.931 . S
C58 C54 1.389 . S
C58 C56 1.364 . S
C58 H79 0.931 . S
C59 O70 1.256 . S
C59 O71 1.257 . S
O60 Gd40 2.377 . S
O60 C42 1.240 . S
O61 Gd41 2.395 1_565 S
O61 C42 1.240 . S
O62 Gd40 2.448 . S
O62 C43 1.249 . S
O63 Gd40 2.506 . S
O63 C43 1.252 . S
O64 Gd40 2.435 . S
O64 C50 1.256 1_565 S
O65 Gd40 2.717 1_545 S
O65 Gd41 2.327 . S
O65 C50 1.257 . S
O66 Gd41 2.377 . S
O66 C51 1.240 . S
O67 Gd40 2.395 1_545 S
O67 C51 1.240 . S
O68 Gd41 2.448 . S
O68 C52 1.249 . S
O69 Gd41 2.506 . S
O69 C52 1.252 . S
O70 Gd41 2.435 . S
O70 C59 1.256 . S
O71 Gd40 2.327 1_545 S
O71 Gd41 2.717 . S
O71 C59 1.257 . S
H72 C45 0.930 . S
H73 C46 0.931 . S
H74 C48 0.931 . S
H75 C49 0.931 . S
H76 C54 0.930 . S
H77 C55 0.931 . S
H78 C57 0.931 . S
H79 C58 0.931 . S
Gd80 C83 2.818 . S
Gd80 O100 2.377 . S
Gd80 O102 2.448 . S
Gd80 O103 2.506 . S
Gd80 O104 2.435 . S
Gd80 O105 2.717 . S
Gd80 O107 2.395 . S
Gd80 O111 2.327 . S
Gd81 C92 2.818 . S
Gd81 O101 2.395 . S
Gd81 O105 2.327 . S
Gd81 O106 2.377 . S
Gd81 O108 2.448 . S
Gd81 O109 2.506 . S
Gd81 O110 2.435 . S
Gd81 O111 2.717 . S
C82 O100 1.240 . S
C82 O101 1.240 . S
C83 Gd80 2.818 . S
C83 C84 1.510 . S
C83 O102 1.249 . S
C83 O103 1.252 . S
C84 C83 1.510 . S
C84 C85 1.404 . S
C84 C86 1.352 . S
C85 C84 1.404 . S
C85 C89 1.389 . S
C85 H112 0.930 . S
C86 C84 1.352 . S
C86 C88 1.374 . S
C86 H113 0.931 . S
C87 C88 1.359 . S
C87 C89 1.364 . S
C88 C86 1.374 . S
C88 C87 1.359 . S
C88 H114 0.931 . S
C89 C85 1.389 . S
C89 C87 1.364 . S
C89 H115 0.931 . S
C90 O104 1.256 . S
C90 O105 1.257 . S
C91 O106 1.240 . S
C91 O107 1.240 . S
C92 Gd81 2.818 . S
C92 C93 1.510 . S
C92 O108 1.249 . S
C92 O109 1.252 . S
C93 C92 1.510 . S
C93 C94 1.404 . S
C93 C95 1.352 . S
C94 C93 1.404 . S
C94 C98 1.389 . S
C94 H116 0.930 . S
C95 C93 1.352 . S
C95 C97 1.374 . S
C95 H117 0.931 . S
C96 C97 1.359 . S
C96 C98 1.364 . S
C97 C95 1.374 . S
C97 C96 1.359 . S
C97 H118 0.931 . S
C98 C94 1.389 . S
C98 C96 1.364 . S
C98 H119 0.931 . S
C99 O110 1.256 . S
C99 O111 1.257 . S
O100 Gd80 2.377 . S
O100 C82 1.240 . S
O101 Gd81 2.395 . S
O101 C82 1.240 . S
O102 Gd80 2.448 . S
O102 C83 1.249 . S
O103 Gd80 2.506 . S
O103 C83 1.252 . S
O104 Gd80 2.435 . S
O104 C90 1.256 . S
O105 Gd80 2.717 . S
O105 Gd81 2.327 . S
O105 C90 1.257 . S
O106 Gd81 2.377 . S
O106 C91 1.240 . S
O107 Gd80 2.395 . S
O107 C91 1.240 . S
O108 Gd81 2.448 . S
O108 C92 1.249 . S
O109 Gd81 2.506 . S
O109 C92 1.252 . S
O110 Gd81 2.435 . S
O110 C99 1.256 . S
O111 Gd80 2.327 . S
O111 Gd81 2.717 . S
O111 C99 1.257 . S
H112 C85 0.930 . S
H113 C86 0.931 . S
H114 C88 0.931 . S
H115 C89 0.931 . S
H116 C94 0.930 . S
H117 C95 0.931 . S
H118 C97 0.931 . S
H119 C98 0.931 . S
C120 C121 1.391 . S
C120 C124 1.391 . S
C120 H162 0.948 . S
C121 C120 1.391 . S
C121 C122 1.391 . S
C122 C121 1.391 . S
C122 H178 0.947 . S
C122 C179 1.392 . S
C123 C124 1.391 . S
C123 C127 1.397 . S
C123 C179 1.419 . S
C124 C120 1.391 . S
C124 C123 1.391 . S
C124 C125 1.399 . S
C125 C124 1.399 . S
C125 C128 1.396 . S
C125 C137 1.453 . S
C125 C138 1.684 . S
H126 C150 0.948 . S
C127 C123 1.397 . S
C127 C128 1.394 . S
C127 C146 1.723 . S
C128 C125 1.396 . S
C128 C127 1.394 . S
C128 C158 1.723 1_545 S
H129 C152 0.947 . S
H130 C153 0.948 . S
H131 C159 0.982 . S
H132 C160 0.979 . S
H133 C160 0.980 . S
H134 C160 0.983 . S
H135 C159 0.979 . S
H136 C159 0.977 . S
C137 C125 1.453 . S
C137 H166 0.982 . S
C137 H167 0.979 . S
C137 H168 0.977 . S
C138 C125 1.684 . S
C138 H163 0.979 . S
C138 H164 0.980 . S
C138 H165 0.983 . S
C139 C140 1.391 . S
C139 C144 1.391 . S
C139 H169 0.948 . S
C140 C139 1.391 . S
C140 C141 1.391 1_545 S
C141 C140 1.391 1_565 S
C141 C142 1.392 . S
C141 H170 0.947 . S
C142 C141 1.392 . S
C142 C143 1.419 1_565 S
C142 H171 0.948 . S
C143 C142 1.419 1_545 S
C143 C144 1.391 . S
C143 C147 1.397 . S
C144 C139 1.391 . S
C144 C143 1.391 . S
C144 C145 1.399 . S
C145 C144 1.399 . S
C145 C146 1.396 . S
C145 C148 1.453 . S
C145 C149 1.684 . S
C146 C127 1.723 . S
C146 C145 1.396 . S
C146 C147 1.394 . S
C147 C143 1.397 . S
C147 C146 1.394 . S
C147 C157 1.723 1_545 S
C148 C145 1.453 . S
C148 H172 0.982 . S
C148 H173 0.979 . S
C148 H174 0.977 . S
C149 C145 1.684 . S
C149 H175 0.979 . S
C149 H176 0.980 . S
C149 H177 0.983 . S
C150 H126 0.948 . S
C150 C151 1.391 . S
C150 C155 1.391 . S
C151 C150 1.391 . S
C151 C152 1.391 . S
C152 H129 0.947 . S
C152 C151 1.391 . S
C152 C153 1.392 . S
C153 H130 0.948 . S
C153 C152 1.392 . S
C153 C154 1.419 . S
C154 C153 1.419 . S
C154 C155 1.391 . S
C154 C158 1.397 . S
C155 C150 1.391 . S
C155 C154 1.391 . S
C155 C156 1.399 . S
C156 C155 1.399 . S
C156 C157 1.396 . S
C156 C159 1.453 . S
C156 C160 1.684 . S
C157 C147 1.723 1_565 S
C157 C156 1.396 . S
C157 C158 1.394 . S
C158 C128 1.723 1_565 S
C158 C154 1.397 . S
C158 C157 1.394 . S
C159 H131 0.982 . S
C159 H135 0.979 . S
C159 H136 0.977 . S
C159 C156 1.453 . S
C160 H132 0.979 . S
C160 H133 0.980 . S
C160 H134 0.983 . S
C160 C156 1.684 . S
H161 C179 0.948 . S
H162 C120 0.948 . S
H163 C138 0.979 . S
H164 C138 0.980 . S
H165 C138 0.983 . S
H166 C137 0.982 . S
H167 C137 0.979 . S
H168 C137 0.977 . S
H169 C139 0.948 . S
H170 C141 0.947 . S
H171 C142 0.948 . S
H172 C148 0.982 . S
H173 C148 0.979 . S
H174 C148 0.977 . S
H175 C149 0.979 . S
H176 C149 0.980 . S
H177 C149 0.983 . S
H178 C122 0.947 . S
C179 C122 1.392 . S
C179 C123 1.419 . S
C179 H161 0.948 . S
C180 C181 1.391 . S
C180 C184 1.391 . S
C180 H222 0.948 . S
C181 C180 1.391 . S
C181 C182 1.391 . S
C182 C181 1.391 . S
C182 H238 0.947 . S
C182 C239 1.392 . S
C183 C184 1.391 . S
C183 C187 1.397 . S
C183 C239 1.419 . S
C184 C180 1.391 . S
C184 C183 1.391 . S
C184 C185 1.399 . S
C185 C184 1.399 . S
C185 C188 1.396 . S
C185 C197 1.453 . S
C185 C198 1.684 . S
H186 C210 0.948 . S
C187 C183 1.397 . S
C187 C188 1.394 . S
C187 C206 1.723 . S
C188 C185 1.396 . S
C188 C187 1.394 . S
C188 C218 1.723 . S
H189 C212 0.947 . S
H190 C213 0.948 . S
H191 C219 0.982 . S
H192 C220 0.979 . S
H193 C220 0.980 . S
H194 C220 0.983 . S
H195 C219 0.979 . S
H196 C219 0.977 . S
C197 C185 1.453 . S
C197 H226 0.982 . S
C197 H227 0.979 . S
C197 H228 0.977 . S
C198 C185 1.684 . S
C198 H223 0.979 . S
C198 H224 0.980 . S
C198 H225 0.983 . S
C199 C200 1.391 . S
C199 C204 1.391 . S
C199 H229 0.948 . S
C200 C199 1.391 . S
C200 C201 1.391 . S
C201 C200 1.391 . S
C201 C202 1.392 . S
C201 H230 0.947 . S
C202 C201 1.392 . S
C202 C203 1.419 . S
C202 H231 0.948 . S
C203 C202 1.419 . S
C203 C204 1.391 . S
C203 C207 1.397 . S
C204 C199 1.391 . S
C204 C203 1.391 . S
C204 C205 1.399 . S
C205 C204 1.399 . S
C205 C206 1.396 . S
C205 C208 1.453 . S
C205 C209 1.684 . S
C206 C187 1.723 . S
C206 C205 1.396 . S
C206 C207 1.394 . S
C207 C203 1.397 . S
C207 C206 1.394 . S
C207 C217 1.723 . S
C208 C205 1.453 . S
C208 H232 0.982 . S
C208 H233 0.979 . S
C208 H234 0.977 . S
C209 C205 1.684 . S
C209 H235 0.979 . S
C209 H236 0.980 . S
C209 H237 0.983 . S
C210 H186 0.948 . S
C210 C211 1.391 . S
C210 C215 1.391 . S
C211 C210 1.391 . S
C211 C212 1.391 . S
C212 H189 0.947 . S
C212 C211 1.391 . S
C212 C213 1.392 . S
C213 H190 0.948 . S
C213 C212 1.392 . S
C213 C214 1.419 . S
C214 C213 1.419 . S
C214 C215 1.391 . S
C214 C218 1.397 . S
C215 C210 1.391 . S
C215 C214 1.391 . S
C215 C216 1.399 . S
C216 C215 1.399 . S
C216 C217 1.396 . S
C216 C219 1.453 . S
C216 C220 1.684 . S
C217 C207 1.723 . S
C217 C216 1.396 . S
C217 C218 1.394 . S
C218 C188 1.723 . S
C218 C214 1.397 . S
C218 C217 1.394 . S
C219 H191 0.982 . S
C219 H195 0.979 . S
C219 H196 0.977 . S
C219 C216 1.453 . S
C220 H192 0.979 . S
C220 H193 0.980 . S
C220 H194 0.983 . S
C220 C216 1.684 . S
H221 C239 0.948 . S
H222 C180 0.948 . S
H223 C198 0.979 . S
H224 C198 0.980 . S
H225 C198 0.983 . S
H226 C197 0.982 . S
H227 C197 0.979 . S
H228 C197 0.977 . S
H229 C199 0.948 . S
H230 C201 0.947 . S
H231 C202 0.948 . S
H232 C208 0.982 . S
H233 C208 0.979 . S
H234 C208 0.977 . S
H235 C209 0.979 . S
H236 C209 0.980 . S
H237 C209 0.983 . S
H238 C182 0.947 . S
C239 C182 1.392 . S
C239 C183 1.419 . S
C239 H221 0.948 . S
C240 C241 1.391 . S
C240 C244 1.391 . S
C240 H282 0.948 . S
C241 C240 1.391 . S
C241 C242 1.391 . S
C242 C241 1.391 . S
C242 H298 0.947 . S
C242 C299 1.392 . S
C243 C244 1.391 . S
C243 C247 1.397 . S
C243 C299 1.419 . S
C244 C240 1.391 . S
C244 C243 1.391 . S
C244 C245 1.399 . S
C245 C244 1.399 . S
C245 C248 1.396 . S
C245 C257 1.453 . S
C245 C258 1.684 . S
H246 C270 0.948 . S
C247 C243 1.397 . S
C247 C248 1.394 . S
C247 C266 1.723 . S
C248 C245 1.396 . S
C248 C247 1.394 . S
C248 C278 1.723 . S
H249 C272 0.947 . S
H250 C273 0.948 . S
H251 C279 0.982 . S
H252 C280 0.979 1_455 S
H253 C280 0.980 . S
H254 C280 0.983 . S
H255 C279 0.979 . S
H256 C279 0.977 . S
C257 C245 1.453 . S
C257 H286 0.982 . S
C257 H287 0.979 . S
C257 H288 0.977 . S
C258 C245 1.684 . S
C258 H283 0.979 . S
C258 H284 0.980 . S
C258 H285 0.983 . S
C259 C260 1.391 . S
C259 C264 1.391 . S
C259 H289 0.948 . S
C260 C259 1.391 . S
C260 C261 1.391 . S
C261 C260 1.391 . S
C261 C262 1.392 . S
C261 H290 0.947 1_455 S
C262 C261 1.392 . S
C262 C263 1.419 1_554 S
C262 H291 0.948 1_454 S
C263 C262 1.419 1_556 S
C263 C264 1.391 1_556 S
C263 C267 1.397 . S
C264 C259 1.391 . S
C264 C263 1.391 1_554 S
C264 C265 1.399 1_554 S
C265 C264 1.399 1_556 S
C265 C266 1.396 . S
C265 C268 1.453 . S
C265 C269 1.684 . S
C266 C247 1.723 . S
C266 C265 1.396 . S
C266 C267 1.394 . S
C267 C263 1.397 . S
C267 C266 1.394 . S
C267 C277 1.723 . S
C268 C265 1.453 . S
C268 H292 0.982 . S
C268 H293 0.979 . S
C268 H294 0.977 . S
C269 C265 1.684 . S
C269 H295 0.979 . S
C269 H296 0.980 . S
C269 H297 0.983 1_556 S
C270 H246 0.948 . S
C270 C271 1.391 . S
C270 C275 1.391 . S
C271 C270 1.391 . S
C271 C272 1.391 . S
C272 H249 0.947 . S
C272 C271 1.391 . S
C272 C273 1.392 1_655 S
C273 H250 0.948 . S
C273 C272 1.392 1_455 S
C273 C274 1.418 . S
C274 C273 1.418 . S
C274 C275 1.388 1_455 S
C274 C278 1.400 . S
C275 C270 1.391 . S
C275 C274 1.388 1_655 S
C275 C276 1.399 . S
C276 C275 1.399 . S
C276 C277 1.396 1_655 S
C276 C279 1.453 . S
C276 C280 1.684 . S
C277 C267 1.723 . S
C277 C276 1.396 1_455 S
C277 C278 1.394 . S
C278 C248 1.723 . S
C278 C274 1.400 . S
C278 C277 1.394 . S
C279 H251 0.982 . S
C279 H255 0.979 . S
C279 H256 0.977 . S
C279 C276 1.453 . S
C280 H252 0.979 1_655 S
C280 H253 0.980 . S
C280 H254 0.983 . S
C280 C276 1.684 . S
H281 C299 0.948 . S
H282 C240 0.948 . S
H283 C258 0.979 . S
H284 C258 0.980 . S
H285 C258 0.983 . S
H286 C257 0.982 . S
H287 C257 0.979 . S
H288 C257 0.977 . S
H289 C259 0.948 . S
H290 C261 0.947 1_655 S
H291 C262 0.948 1_656 S
H292 C268 0.982 . S
H293 C268 0.979 . S
H294 C268 0.977 . S
H295 C269 0.979 . S
H296 C269 0.980 . S
H297 C269 0.983 1_554 S
H298 C242 0.947 . S
C299 C242 1.392 . S
C299 C243 1.419 . S
C299 H281 0.948 . S
C300 C301 1.391 . S
C300 C304 1.391 . S
C300 H342 0.948 . S
C301 C300 1.391 . S
C301 C302 1.391 . S
C302 C301 1.391 . S
C302 H358 0.947 . S
C302 C359 1.392 . S
C303 C304 1.391 . S
C303 C307 1.397 . S
C303 C359 1.419 . S
C304 C300 1.391 . S
C304 C303 1.391 . S
C304 C305 1.399 . S
C305 C304 1.399 . S
C305 C308 1.396 . S
C305 C317 1.453 . S
C305 C318 1.684 . S
H306 C330 0.948 . S
C307 C303 1.397 . S
C307 C308 1.394 . S
C307 C326 1.723 . S
C308 C305 1.396 . S
C308 C307 1.394 . S
C308 C338 1.723 1_655 S
H309 C332 0.947 . S
H310 C333 0.948 . S
H311 C339 0.982 . S
H312 C340 0.979 . S
H313 C340 0.980 . S
H314 C340 0.983 . S
H315 C339 0.979 . S
H316 C339 0.977 . S
C317 C305 1.453 . S
C317 H346 0.982 1_655 S
C317 H347 0.979 . S
C317 H348 0.977 1_655 S
C318 C305 1.684 . S
C318 H343 0.979 . S
C318 H344 0.980 . S
C318 H345 0.983 . S
C319 C320 1.391 1_655 S
C319 C324 1.391 . S
C319 H349 0.948 . S
C320 C319 1.391 1_455 S
C320 C321 1.391 . S
C321 C320 1.391 . S
C321 C322 1.392 . S
C321 H350 0.947 . S
C322 C321 1.392 . S
C322 C323 1.419 . S
C322 H351 0.948 . S
C323 C322 1.419 . S
C323 C324 1.391 1_455 S
C323 C327 1.397 . S
C324 C319 1.391 . S
C324 C323 1.391 1_655 S
C324 C325 1.399 . S
C325 C324 1.399 . S
C325 C326 1.396 . S
C325 C328 1.453 . S
C325 C329 1.684 . S
C326 C307 1.723 . S
C326 C325 1.396 . S
C326 C327 1.394 1_655 S
C327 C323 1.397 . S
C327 C326 1.394 1_455 S
C327 C337 1.723 . S
C328 C325 1.453 . S
C328 H352 0.982 . S
C328 H353 0.979 . S
C328 H354 0.977 . S
C329 C325 1.684 . S
C329 H355 0.979 . S
C329 H356 0.980 . S
C329 H357 0.983 . S
C330 H306 0.948 . S
C330 C331 1.391 . S
C330 C335 1.391 . S
C331 C330 1.391 . S
C331 C332 1.391 . S
C332 H309 0.947 . S
C332 C331 1.391 . S
C332 C333 1.392 . S
C333 H310 0.948 . S
C333 C332 1.392 . S
C333 C334 1.419 . S
C334 C333 1.419 . S
C334 C335 1.391 . S
C334 C338 1.397 . S
C335 C330 1.391 . S
C335 C334 1.391 . S
C335 C336 1.399 . S
C336 C335 1.399 . S
C336 C337 1.396 . S
C336 C339 1.453 . S
C336 C340 1.684 . S
C337 C327 1.723 . S
C337 C336 1.396 . S
C337 C338 1.394 . S
C338 C308 1.723 1_455 S
C338 C334 1.397 . S
C338 C337 1.394 . S
C339 H311 0.982 . S
C339 H315 0.979 . S
C339 H316 0.977 . S
C339 C336 1.453 . S
C340 H312 0.979 . S
C340 H313 0.980 . S
C340 H314 0.983 . S
C340 C336 1.684 . S
H341 C359 0.948 . S
H342 C300 0.948 . S
H343 C318 0.979 . S
H344 C318 0.980 . S
H345 C318 0.983 . S
H346 C317 0.982 1_455 S
H347 C317 0.979 . S
H348 C317 0.977 1_455 S
H349 C319 0.948 . S
H350 C321 0.947 . S
H351 C322 0.948 . S
H352 C328 0.982 . S
H353 C328 0.979 . S
H354 C328 0.977 . S
H355 C329 0.979 . S
H356 C329 0.980 . S
H357 C329 0.983 . S
H358 C302 0.947 . S
C359 C302 1.392 . S
C359 C303 1.419 . S
C359 H341 0.948 . S
C360 C361 1.391 . S
C360 C364 1.391 . S
C360 H402 0.948 . S
C361 C360 1.391 . S
C361 C362 1.391 . S
C362 C361 1.391 . S
C362 H418 0.947 . S
C362 C419 1.392 . S
C363 C364 1.391 . S
C363 C367 1.397 . S
C363 C419 1.419 . S
C364 C360 1.391 . S
C364 C363 1.391 . S
C364 C365 1.399 . S
C365 C364 1.399 . S
C365 C368 1.396 . S
C365 C377 1.453 1_565 S
C365 C378 1.684 . S
H366 C390 0.948 . S
C367 C363 1.397 . S
C367 C368 1.394 . S
C367 C386 1.723 . S
C368 C365 1.396 . S
C368 C367 1.394 . S
C368 C398 1.723 1_565 S
H369 C392 0.947 . S
H370 C393 0.948 . S
H371 C399 0.982 . S
H372 C400 0.979 . S
H373 C400 0.980 . S
H374 C400 0.983 . S
H375 C399 0.979 . S
H376 C399 0.977 . S
C377 C365 1.453 1_545 S
C377 H406 0.982 . S
C377 H407 0.979 . S
C377 H408 0.977 . S
C378 C365 1.684 . S
C378 H403 0.979 . S
C378 H404 0.980 . S
C378 H405 0.983 . S
C379 C380 1.391 . S
C379 C384 1.391 . S
C379 H409 0.948 . S
C380 C379 1.391 . S
C380 C381 1.391 1_565 S
C381 C380 1.391 1_545 S
C381 C382 1.392 . S
C381 H410 0.947 . S
C382 C381 1.392 . S
C382 C383 1.419 . S
C382 H411 0.948 . S
C383 C382 1.419 . S
C383 C384 1.391 1_545 S
C383 C387 1.397 . S
C384 C379 1.391 . S
C384 C383 1.391 1_565 S
C384 C385 1.399 . S
C385 C384 1.399 . S
C385 C386 1.396 . S
C385 C388 1.453 . S
C385 C389 1.684 . S
C386 C367 1.723 . S
C386 C385 1.396 . S
C386 C387 1.394 1_565 S
C387 C383 1.397 . S
C387 C386 1.394 1_545 S
C387 C397 1.723 . S
C388 C385 1.453 . S
C388 H412 0.982 . S
C388 H413 0.979 . S
C388 H414 0.977 . S
C389 C385 1.684 . S
C389 H415 0.979 . S
C389 H416 0.980 . S
C389 H417 0.983 . S
C390 H366 0.948 . S
C390 C391 1.391 . S
C390 C395 1.391 . S
C391 C390 1.391 . S
C391 C392 1.391 . S
C392 H369 0.947 . S
C392 C391 1.391 . S
C392 C393 1.392 . S
C393 H370 0.948 . S
C393 C392 1.392 . S
C393 C394 1.419 . S
C394 C393 1.419 . S
C394 C395 1.391 . S
C394 C398 1.397 . S
C395 C390 1.391 . S
C395 C394 1.391 . S
C395 C396 1.399 . S
C396 C395 1.399 . S
C396 C397 1.396 . S
C396 C399 1.453 . S
C396 C400 1.684 . S
C397 C387 1.723 . S
C397 C396 1.396 . S
C397 C398 1.394 . S
C398 C368 1.723 1_545 S
C398 C394 1.397 . S
C398 C397 1.394 . S
C399 H371 0.982 . S
C399 H375 0.979 . S
C399 H376 0.977 . S
C399 C396 1.453 . S
C400 H372 0.979 . S
C400 H373 0.980 . S
C400 H374 0.983 . S
C400 C396 1.684 . S
H401 C419 0.948 . S
H402 C360 0.948 . S
H403 C378 0.979 . S
H404 C378 0.980 . S
H405 C378 0.983 . S
H406 C377 0.982 . S
H407 C377 0.979 . S
H408 C377 0.977 . S
H409 C379 0.948 . S
H410 C381 0.947 . S
H411 C382 0.948 . S
H412 C388 0.982 . S
H413 C388 0.979 . S
H414 C388 0.977 . S
H415 C389 0.979 . S
H416 C389 0.980 . S
H417 C389 0.983 . S
H418 C362 0.947 . S
C419 C362 1.392 . S
C419 C363 1.419 . S
C419 H401 0.948 . S
C420 C421 1.391 . S
C420 C424 1.391 . S
C420 H462 0.948 . S
C421 C420 1.391 . S
C421 C422 1.391 . S
C422 C421 1.391 . S
C422 H478 0.947 . S
C422 C479 1.392 . S
C423 C424 1.391 . S
C423 C427 1.397 . S
C423 C479 1.419 . S
C424 C420 1.391 . S
C424 C423 1.391 . S
C424 C425 1.399 . S
C425 C424 1.399 . S
C425 C428 1.396 . S
C425 C437 1.453 . S
C425 C438 1.684 . S
H426 C450 0.948 . S
C427 C423 1.397 . S
C427 C428 1.394 . S
C427 C446 1.723 . S
C428 C425 1.396 . S
C428 C427 1.394 . S
C428 C458 1.723 . S
H429 C452 0.947 . S
H430 C453 0.948 . S
H431 C459 0.982 . S
H432 C460 0.979 . S
H433 C460 0.980 . S
H434 C460 0.983 . S
H435 C459 0.979 . S
H436 C459 0.977 . S
C437 C425 1.453 . S
C437 H466 0.982 . S
C437 H467 0.979 . S
C437 H468 0.977 . S
C438 C425 1.684 . S
C438 H463 0.979 . S
C438 H464 0.980 . S
C438 H465 0.983 . S
C439 C440 1.391 . S
C439 C444 1.391 . S
C439 H469 0.948 . S
C440 C439 1.391 . S
C440 C441 1.391 . S
C441 C440 1.391 . S
C441 C442 1.392 . S
C441 H470 0.947 . S
C442 C441 1.392 . S
C442 C443 1.419 . S
C442 H471 0.948 . S
C443 C442 1.419 . S
C443 C444 1.391 . S
C443 C447 1.397 1_556 S
C444 C439 1.391 . S
C444 C443 1.391 . S
C444 C445 1.399 1_556 S
C445 C444 1.399 1_554 S
C445 C446 1.396 . S
C445 C448 1.453 . S
C445 C449 1.684 1_554 S
C446 C427 1.723 . S
C446 C445 1.396 . S
C446 C447 1.394 . S
C447 C443 1.397 1_554 S
C447 C446 1.394 . S
C447 C457 1.723 . S
C448 C445 1.453 . S
C448 H472 0.982 . S
C448 H473 0.979 1_554 S
C448 H474 0.977 . S
C449 C445 1.684 1_556 S
C449 H475 0.979 . S
C449 H476 0.980 1_556 S
C449 H477 0.983 . S
C450 H426 0.948 . S
C450 C451 1.391 . S
C450 C455 1.391 . S
C451 C450 1.391 . S
C451 C452 1.391 . S
C452 H429 0.947 . S
C452 C451 1.391 . S
C452 C453 1.392 . S
C453 H430 0.948 . S
C453 C452 1.392 . S
C453 C454 1.419 . S
C454 C453 1.419 . S
C454 C455 1.391 . S
C454 C458 1.397 . S
C455 C450 1.391 . S
C455 C454 1.391 . S
C455 C456 1.399 . S
C456 C455 1.399 . S
C456 C457 1.396 . S
C456 C459 1.453 . S
C456 C460 1.684 . S
C457 C447 1.723 . S
C457 C456 1.396 . S
C457 C458 1.394 . S
C458 C428 1.723 . S
C458 C454 1.397 . S
C458 C457 1.394 . S
C459 H431 0.982 . S
C459 H435 0.979 . S
C459 H436 0.977 . S
C459 C456 1.453 . S
C460 H432 0.979 . S
C460 H433 0.980 . S
C460 H434 0.983 . S
C460 C456 1.684 . S
H461 C479 0.948 . S
H462 C420 0.948 . S
H463 C438 0.979 . S
H464 C438 0.980 . S
H465 C438 0.983 . S
H466 C437 0.982 . S
H467 C437 0.979 . S
H468 C437 0.977 . S
H469 C439 0.948 . S
H470 C441 0.947 . S
H471 C442 0.948 . S
H472 C448 0.982 . S
H473 C448 0.979 1_556 S
H474 C448 0.977 . S
H475 C449 0.979 . S
H476 C449 0.980 1_554 S
H477 C449 0.983 . S
H478 C422 0.947 . S
C479 C422 1.392 . S
C479 C423 1.419 . S
C479 H461 0.948 . S
C7 C451 3.580 . S
C51 C301 2.602 . S
C87 C361 2.764 . S
C16 C421 2.138 . S
C331 C42 3.425 . S
C391 C96 1.566 . S
C47 C181 1.750 . S
C91 C271 5.116 . S
C2 C151 3.602 . S
C211 C56 1.770 . S
C241 C82 4.733 . S
C11 C121 2.613 . S
C260 C19 1.983 . S
C50 C140 1.176 . S
C99 C200 1.345 . S
C380 C59 1.444 1_565 S
C440 C90 2.028 . S
C10 C320 1.190 . S
