# Generated by pormake.
# Topology zzz, (3,6)-cn, num edge types: 1
# Building blocks:
#     Node 0, Type 0, BuildingBlock: BETDIP_clean_linker_0, # of connection points: 3
#     Node 1, Type 0, BuildingBlock: BETDIP_clean_linker_0, # of connection points: 3
#     Node 2, Type 0, BuildingBlock: BETDIP_clean_linker_0, # of connection points: 3
#     Node 3, Type 0, BuildingBlock: BETDIP_clean_linker_0, # of connection points: 3
#     Node 4, Type 0, BuildingBlock: BETDIP_clean_linker_0, # of connection points: 3
#     Node 5, Type 0, BuildingBlock: BETDIP_clean_linker_0, # of connection points: 3
#     Node 6, Type 0, BuildingBlock: BETDIP_clean_linker_0, # of connection points: 3
#     Node 7, Type 0, BuildingBlock: BETDIP_clean_linker_0, # of connection points: 3
#     Node 8, Type 1, BuildingBlock: BETFAJ_clean_sbu_0, # of connection points: 6
#     Node 9, Type 1, BuildingBlock: BETFAJ_clean_sbu_0, # of connection points: 6
#     Node 10, Type 1, BuildingBlock: BETFAJ_clean_sbu_0, # of connection points: 6
#     Node 11, Type 1, BuildingBlock: BETFAJ_clean_sbu_0, # of connection points: 6
#     Edge 12, Type (0, 1), BuildingBlock: EZIPEK_clean_linker_0, # of connection points: 2
#     Edge 13, Type (0, 1), BuildingBlock: EZIPEK_clean_linker_0, # of connection points: 2
#     Edge 14, Type (0, 1), BuildingBlock: EZIPEK_clean_linker_0, # of connection points: 2
#     Edge 15, Type (0, 1), BuildingBlock: EZIPEK_clean_linker_0, # of connection points: 2
#     Edge 16, Type (0, 1), BuildingBlock: EZIPEK_clean_linker_0, # of connection points: 2
#     Edge 17, Type (0, 1), BuildingBlock: EZIPEK_clean_linker_0, # of connection points: 2
#     Edge 18, Type (0, 1), BuildingBlock: EZIPEK_clean_linker_0, # of connection points: 2
#     Edge 19, Type (0, 1), BuildingBlock: EZIPEK_clean_linker_0, # of connection points: 2
#     Edge 20, Type (0, 1), BuildingBlock: EZIPEK_clean_linker_0, # of connection points: 2
#     Edge 21, Type (0, 1), BuildingBlock: EZIPEK_clean_linker_0, # of connection points: 2
#     Edge 22, Type (0, 1), BuildingBlock: EZIPEK_clean_linker_0, # of connection points: 2
#     Edge 23, Type (0, 1), BuildingBlock: EZIPEK_clean_linker_0, # of connection points: 2
#     Edge 24, Type (0, 1), BuildingBlock: EZIPEK_clean_linker_0, # of connection points: 2
#     Edge 25, Type (0, 1), BuildingBlock: EZIPEK_clean_linker_0, # of connection points: 2
#     Edge 26, Type (0, 1), BuildingBlock: EZIPEK_clean_linker_0, # of connection points: 2
#     Edge 27, Type (0, 1), BuildingBlock: EZIPEK_clean_linker_0, # of connection points: 2
#     Edge 28, Type (0, 1), BuildingBlock: EZIPEK_clean_linker_0, # of connection points: 2
#     Edge 29, Type (0, 1), BuildingBlock: EZIPEK_clean_linker_0, # of connection points: 2
#     Edge 30, Type (0, 1), BuildingBlock: EZIPEK_clean_linker_0, # of connection points: 2
#     Edge 31, Type (0, 1), BuildingBlock: EZIPEK_clean_linker_0, # of connection points: 2
#     Edge 32, Type (0, 1), BuildingBlock: EZIPEK_clean_linker_0, # of connection points: 2
#     Edge 33, Type (0, 1), BuildingBlock: EZIPEK_clean_linker_0, # of connection points: 2
#     Edge 34, Type (0, 1), BuildingBlock: EZIPEK_clean_linker_0, # of connection points: 2
#     Edge 35, Type (0, 1), BuildingBlock: EZIPEK_clean_linker_0, # of connection points: 2
# Relax obj value: 0.371
# Max RMSD: 0.212
# Mean RMSD: 0.160
data_MOF--net-zzz--node1-BETFAJ_clean_sbu_0--node2-BETDIP_clean_linker_0--edge1-EZIPEK_clean_linker_0
_symmetry_space_group_name_H-M    P1
_symmetry_Int_Tables_number       1
_symmetry_cell_setting            triclinic
loop_
_symmetry_equiv_pos_as_xyz
'x, y, z'
_cell_length_a     38.341961
_cell_length_b     38.079785
_cell_length_c     10.030128
_cell_angle_alpha  89.773486
_cell_angle_beta   90.319784
_cell_angle_gamma 89.945314
loop_
_atom_site_label
_atom_site_type_symbol
_atom_site_fract_x
_atom_site_fract_y
_atom_site_fract_z
_atom_type_partial_charge
H0 H 0.78948 0.54976 0.58149 0.0
H1 H 0.74882 0.48516 0.26291 0.0
H2 H 0.85279 0.46898 0.40487 0.0
H3 H 0.73586 0.55312 0.20341 0.0
C4 C 0.71839 0.54925 0.28715 0.0
C5 C 0.79268 0.52848 0.51131 0.0
C6 C 0.82494 0.50985 0.50602 0.0
C7 C 0.76516 0.52021 0.42035 0.0
C8 C 0.76948 0.49213 0.33175 0.0
C9 C 0.80059 0.47346 0.32807 0.0
C10 C 0.8281 0.48275 0.41309 0.0
N11 N 0.73339 0.54 0.41386 0.0
H12 H 0.04279 0.75647 0.59778 0.0
H13 H 0.96908 0.73223 0.2833 0.0
H14 H 0.96932 0.83386 0.46313 0.0
H15 H 0.97416 0.67629 0.38443 0.0
C16 C 1.0021 0.67654 0.36652 0.0
C17 C 1.02093 0.76384 0.53488 0.0
C18 C 1.00667 0.79837 0.54332 0.0
C19 C 1.00669 0.73908 0.44279 0.0
C20 C 0.97901 0.74977 0.35897 0.0
C21 C 0.96576 0.78386 0.36361 0.0
C22 C 0.97896 0.80718 0.45921 0.0
N23 N 1.02177 0.70481 0.42463 0.0
H24 H 0.76598 0.99502 0.46531 0.0
H25 H 0.81025 0.07749 0.22358 0.0
H26 H 0.70507 0.08614 0.35956 0.0
H27 H 0.81661 1.01093 0.095 0.0
C28 C 0.83515 1.01021 0.17735 0.0
C29 C 0.76336 1.01999 0.41423 0.0
C30 C 0.73189 0.03955 0.42456 0.0
C31 C 0.79116 0.03288 0.33453 0.0
C32 C 0.78831 0.06633 0.27604 0.0
C33 C 0.75734 0.0853 0.28298 0.0
C34 C 0.72922 0.07134 0.35438 0.0
N35 N 0.82192 1.01273 0.31014 0.0
H36 H 0.55611 0.78957 0.55938 0.0
H37 H 0.47097 0.82343 0.30627 0.0
H38 H 0.47404 0.7176 0.45519 0.0
H39 H 0.56307 0.82905 0.23443 0.0
C40 C 0.55027 0.85104 0.28262 0.0
C41 C 0.53204 0.78386 0.50687 0.0
C42 C 0.51641 0.75013 0.5194 0.0
C43 C 0.51613 0.81009 0.42499 0.0
C44 C 0.48394 0.80298 0.36341 0.0
C45 C 0.46903 0.76948 0.37222 0.0
C46 C 0.48569 0.74346 0.44829 0.0
N47 N 0.5317 0.84371 0.40278 0.0
H48 H 0.28684 0.51747 0.11669 0.0
H49 H 0.31728 0.6142 0.30996 0.0
H50 H 0.21386 0.60231 0.15894 0.0
H51 H 0.37132 0.59451 0.26707 0.0
C52 C 0.36909 0.56758 0.30133 0.0
C53 C 0.28123 0.54414 0.14685 0.0
C54 C 0.2479 0.55893 0.11923 0.0
C55 C 0.30693 0.56384 0.21712 0.0
C56 C 0.29854 0.59823 0.25777 0.0
C57 C 0.26459 0.61113 0.24477 0.0
C58 C 0.24014 0.59211 0.17036 0.0
N59 N 0.33904 0.54778 0.26067 0.0
H60 H 0.06217 0.26593 0.04521 0.0
H61 H 0.99118 0.30253 0.34868 0.0
H62 H 0.97781 0.20072 0.18055 0.0
H63 H 0.05 0.32045 0.42928 0.0
C64 C 0.05227 0.33713 0.3416 0.0
C65 C 0.03933 0.26209 0.1065 0.0
C66 C 1.02075 0.2296 0.10059 0.0
C67 C 0.02884 0.2889 0.19748 0.0
C68 C 0.99936 0.28309 0.27721 0.0
C69 C 0.98092 0.25172 0.27038 0.0
C70 C 0.99152 0.2256 0.18151 0.0
N71 N 0.04778 0.32124 0.21275 0.0
H72 H 0.29838 0.05396 0.22608 0.0
H73 H 0.25851 0.96439 0.44149 0.0
H74 H 0.35812 0.95843 0.25022 0.0
H75 H 0.20518 1.00228 0.27909 0.0
C76 C 0.21044 1.01855 0.36563 0.0
C77 C 0.30085 1.02682 0.25741 0.0
C78 C 0.33067 1.00717 0.22115 0.0
C79 C 0.27429 1.01111 0.33517 0.0
C80 C 0.27823 0.97618 0.37861 0.0
C81 C 0.30916 0.95782 0.35361 0.0
C82 C 0.33436 0.97291 0.2708 0.0
N83 N 0.24527 0.03103 0.38128 0.0
H84 H 0.49573 0.29 0.08945 0.0
H85 H 0.57148 0.24177 0.35421 0.0
H86 H 0.58603 0.34744 0.22029 0.0
H87 H 0.54782 0.18984 0.22398 0.0
C88 C 0.52333 0.19727 0.26993 0.0
C89 C 0.52007 0.29116 0.1445 0.0
C90 C 0.54063 0.32232 0.14023 0.0
C91 C 0.53118 0.26156 0.22166 0.0
C92 C 0.56298 0.26349 0.29204 0.0
C93 C 0.58244 0.2944 0.29279 0.0
C94 C 0.57122 0.32321 0.21656 0.0
N95 N 0.50926 0.23138 0.24005 0.0
Sm96 Sm 0.04769 1.00496 0.95126 0.0
Sm97 Sm 1.01408 1.02071 0.69448 0.0
C98 C 0.05529 0.98089 0.1934 0.0
C99 C 0.02855 0.95667 0.24434 0.0
C100 C 0.99413 0.96106 0.19706 0.0
C101 C 0.97134 0.9327 0.19144 0.0
C102 C 0.98171 0.90008 0.24146 0.0
C103 C 1.01437 0.89682 0.30513 0.0
C104 C 0.03805 0.92466 0.30355 0.0
C105 C 0.09532 1.02239 0.75028 0.0
C106 C 0.0284 0.93713 0.76019 0.0
C107 C 0.9903 0.03404 0.45426 0.0
C108 C 0.96899 0.06456 0.41698 0.0
C109 C 0.98175 0.08769 0.32014 0.0
C110 C 0.96996 0.12228 0.31599 0.0
C111 C 0.9455 0.1341 0.40931 0.0
C112 C 0.93049 0.11038 0.49883 0.0
C113 C 0.94193 0.07561 0.50173 0.0
C114 C 0.9672 1.02236 0.90394 0.0
C115 C 0.03349 0.08754 0.88578 0.0
O116 O 0.04432 1.01293 0.1705 0.0
O117 O 0.07358 0.96828 0.0945 0.0
O118 O 0.06866 1.00342 0.74111 0.0
O119 O 0.09951 0.03054 0.87525 0.0
O120 O 0.03815 0.94748 0.88044 0.0
O121 O 1.01929 0.96028 0.66786 0.0
O122 O 1.02211 0.04215 0.49155 0.0
O123 O 0.97553 1.01096 0.53286 0.0
O124 O 0.99096 0.99969 0.88795 0.0
O125 O 0.96763 0.04464 0.80677 0.0
O126 O 0.0316 0.07713 0.75989 0.0
O127 O 0.03459 0.06385 0.98207 0.0
H128 H 0.98597 0.98546 0.1513 0.0
H129 H 0.9466 0.93557 0.14037 0.0
H130 H 1.02288 0.87156 0.34291 0.0
H131 H 0.0645 0.91994 0.33687 0.0
H132 H 1.00292 0.07991 0.25544 0.0
H133 H 0.98211 0.14047 0.2473 0.0
H134 H 0.91201 0.11934 0.5726 0.0
H135 H 0.93179 0.0584 0.57841 0.0
Sm136 Sm 0.53573 0.05749 0.8712 0.0
Sm137 Sm 0.51409 1.00591 0.70103 0.0
C138 C 0.56354 0.10867 0.01531 0.0
C139 C 0.59759 0.1227 0.05385 0.0
C140 C 0.62484 0.10013 0.08982 0.0
C141 C 0.65796 0.11362 0.11254 0.0
C142 C 0.66453 0.14983 0.09855 0.0
C143 C 0.6372 0.17259 0.06462 0.0
C144 C 0.60379 0.15901 0.04244 0.0
C145 C 0.49971 0.08617 0.65216 0.0
C146 C 0.59652 1.02664 0.6836 0.0
C147 C 0.494 0.96144 0.51267 0.0
C148 C 0.46942 0.93197 0.50316 0.0
C149 C 0.45054 0.92733 0.38511 0.0
C150 C 0.42045 0.90682 0.38456 0.0
C151 C 0.40896 0.88982 0.50204 0.0
C152 C 0.43148 0.89003 0.6136 0.0
C153 C 0.46101 0.91162 0.61534 0.0
C154 C 0.52719 0.97556 0.94978 0.0
C155 C 0.45783 0.03264 0.92105 0.0
O156 O 0.55364 0.07862 0.06667 0.0
O157 O 0.55633 0.1114 0.88878 0.0
O158 O 0.52349 0.06309 0.64722 0.0
O159 O 0.49175 0.09058 0.77568 0.0
O160 O 0.59036 0.04185 0.79827 0.0
O161 O 0.57025 1.01274 0.61693 0.0
O162 O 0.47974 0.99227 0.53037 0.0
O163 O 0.52171 0.95675 0.58661 0.0
O164 O 0.54676 0.99807 0.89306 0.0
O165 O 0.49962 0.9708 0.87789 0.0
O166 O 0.46078 1.02161 0.79649 0.0
O167 O 0.48577 0.04433 0.98281 0.0
H168 H 0.62079 0.07203 0.09712 0.0
H169 H 0.67877 0.09556 0.13817 0.0
H170 H 0.64183 0.20049 0.05319 0.0
H171 H 0.58295 0.17669 0.01289 0.0
H172 H 0.45744 0.94169 0.29579 0.0
H173 H 0.40472 0.90714 0.29464 0.0
H174 H 0.42555 0.87537 0.70265 0.0
H175 H 0.47597 0.91395 0.70677 0.0
Sm176 Sm 0.51004 0.5461 0.94934 0.0
Sm177 Sm 0.55601 0.53315 0.74327 0.0
C178 C 0.47291 0.57034 0.1514 0.0
C179 C 0.44958 0.60053 0.17201 0.0
C180 C 0.45414 0.62105 0.28588 0.0
C181 C 0.43605 0.65256 0.29926 0.0
C182 C 0.41287 0.66441 0.19893 0.0
C183 C 0.40626 0.6423 0.08969 0.0
C184 C 0.42473 0.61076 0.07568 0.0
C185 C 0.47416 0.53466 0.70977 0.0
C186 C 0.53664 0.61415 0.77206 0.0
C187 C 0.59105 0.50956 0.53541 0.0
C188 C 0.60844 0.47619 0.50549 0.0
C189 C 0.59756 0.45741 0.39292 0.0
C190 C 0.60757 0.42255 0.37699 0.0
C191 C 0.62839 0.406 0.47396 0.0
C192 C 0.64159 0.4254 0.58134 0.0
C193 C 0.63165 0.46044 0.59716 0.0
C194 C 0.59225 0.54669 0.97866 0.0
C195 C 0.52983 0.46494 0.92136 0.0
O196 O 0.50577 0.578 0.13363 0.0
O197 O 0.46192 0.54568 0.07167 0.0
O198 O 0.50087 0.55361 0.72492 0.0
O199 O 0.46629 0.52036 0.82279 0.0
O200 O 0.52851 0.60322 0.89331 0.0
O201 O 0.5441 0.59032 0.68205 0.0
O202 O 0.55716 0.50749 0.54562 0.0
O203 O 0.60511 0.52926 0.62736 0.0
O204 O 0.56586 0.52682 0.96865 0.0
O205 O 0.59891 0.56121 0.86463 0.0
O206 O 0.53901 0.4757 0.80091 0.0
O207 O 0.52163 0.48872 0.01086 0.0
H208 H 0.47285 0.61344 0.36215 0.0
H209 H 0.44168 0.6685 0.3857 0.0
H210 H 0.38736 0.64933 0.01403 0.0
H211 H 0.42016 0.59488 0.98805 0.0
H212 H 0.57957 0.46904 0.32158 0.0
H213 H 0.59692 0.40778 0.29414 0.0
H214 H 0.65721 0.4127 0.65792 0.0
H215 H 0.64015 0.47429 0.68564 0.0
Sm216 Sm 0.03619 0.49169 0.88323 0.0
Sm217 Sm 0.04441 0.54737 0.70615 0.0
C218 C 1.01573 0.44568 0.06491 0.0
C219 C 0.9809 0.43296 0.10256 0.0
C220 C 0.96327 0.44914 0.20811 0.0
C221 C 0.92807 0.44251 0.22836 0.0
C222 C 0.90991 0.42008 0.14207 0.0
C223 C 0.92778 0.40176 0.04302 0.0
C224 C 0.9633 0.40788 0.02417 0.0
C225 C 0.05296 0.46608 0.63261 0.0
C226 C 0.9657 0.52042 0.72809 0.0
C227 C 0.06252 0.59133 0.51304 0.0
C228 C 0.09055 0.61626 0.48098 0.0
C229 C 0.11061 0.61 0.36755 0.0
C230 C 0.14156 0.62822 0.34797 0.0
C231 C 0.15245 0.65388 0.43947 0.0
C232 C 0.12988 0.6637 0.5426 0.0
C233 C 0.09936 0.64441 0.56526 0.0
C234 C 0.02625 0.5725 0.95555 0.0
C235 C 0.11428 0.52183 0.88266 0.0
O236 O 1.02223 0.47857 0.0918 0.0
O237 O 0.02674 0.43669 0.94712 0.0
O238 O 0.03115 0.49041 0.65574 0.0
O239 O 0.06902 0.45763 0.74209 0.0
O240 O 0.97774 0.50666 0.84051 0.0
O241 O 0.98795 0.53441 0.64407 0.0
O242 O 0.07137 0.55812 0.51524 0.0
O243 O 0.04115 0.5997 0.60872 0.0
O244 O 0.04848 0.54856 0.93388 0.0
O245 O 1.01284 0.58344 0.84406 0.0
O246 O 0.1024 0.54144 0.78254 0.0
O247 O 0.09319 0.49976 0.94242 0.0
H248 H 0.97619 0.46835 0.27056 0.0
H249 H 0.91438 0.45702 0.30471 0.0
H250 H 0.91383 0.38475 0.97485 0.0
H251 H 0.97627 0.3948 0.94257 0.0
H252 H 0.10338 0.58951 0.29831 0.0
H253 H 0.15808 0.62068 0.26559 0.0
H254 H 0.13708 0.68441 0.61108 0.0
H255 H 0.08369 0.65048 0.65169 0.0
C256 C 0.17657 0.05184 0.54798 0.0
C257 C 0.18258 1.02108 0.47084 0.0
C258 C 0.12634 0.99822 0.54579 0.0
C259 C 0.12336 1.02484 0.64416 0.0
N260 N 0.14632 0.07907 0.73304 0.0
N261 N 0.16668 0.96052 0.43186 0.0
C262 C 0.14903 0.05205 0.64486 0.0
C263 C 0.15867 0.99288 0.48155 0.0
N264 N 0.19515 0.08169 0.52275 0.0
N265 N 0.09808 0.9795 0.50395 0.0
H266 H 0.19086 0.95452 0.39057 0.0
H267 H 0.15078 0.93866 0.44735 0.0
H268 H 0.07254 0.98635 0.52618 0.0
H269 H 0.09981 0.96133 0.42704 0.0
H270 H 0.18957 0.10583 0.56622 0.0
H271 H 0.21382 0.08343 0.44814 0.0
H272 H 0.16651 0.09671 0.75158 0.0
H273 H 0.12397 0.08357 0.7888 0.0
C274 C 0.50231 0.13573 0.31563 0.0
C275 C 0.50685 0.17064 0.36163 0.0
C276 C 0.48922 0.15041 0.58446 0.0
C277 C 0.49473 0.1147 0.547 0.0
N278 N 0.50137 0.0734 0.36727 0.0
N279 N 0.50631 0.2108 0.54751 0.0
C280 C 0.49957 0.10738 0.40926 0.0
C281 C 0.50043 0.178 0.49793 0.0
N282 N 0.49907 0.12995 0.18198 0.0
N283 N 0.47166 0.15839 0.69842 0.0
H284 H 0.51407 0.23192 0.48868 0.0
H285 H 0.506 0.21622 0.64932 0.0
H286 H 0.45805 0.13968 0.75325 0.0
H287 H 0.46549 0.18407 0.72519 0.0
H288 H 0.4913 0.10596 0.14219 0.0
H289 H 0.50049 0.15027 0.11202 0.0
H290 H 0.509 0.06627 0.27165 0.0
H291 H 0.49569 0.05226 0.42954 0.0
C292 C 0.41414 0.52543 0.40238 0.0
C293 C 0.39372 0.55653 0.41157 0.0
C294 C 0.42767 0.57415 0.61049 0.0
C295 C 0.44663 0.5421 0.60629 0.0
N296 N 0.45474 0.48489 0.50998 0.0
N297 N 0.37685 0.60719 0.53991 0.0
C298 C 0.43876 0.51697 0.50596 0.0
C299 C 0.39948 0.57998 0.51975 0.0
N300 N 0.41151 0.50498 0.29116 0.0
N301 N 0.43665 0.59935 0.70113 0.0
H302 H 0.35545 0.61203 0.47858 0.0
H303 H 0.37706 0.62293 0.62451 0.0
H304 H 0.45478 0.59522 0.77716 0.0
H305 H 0.42765 0.62514 0.69648 0.0
H306 H 0.42839 0.48429 0.27058 0.0
H307 H 0.39411 0.51042 0.21356 0.0
H308 H 0.44762 0.464 0.44899 0.0
H309 H 0.47365 0.47835 0.58112 0.0
C310 C 1.01979 0.39234 0.39933 0.0
C311 C 0.05198 0.3761 0.36845 0.0
C312 C 0.08285 0.42683 0.46618 0.0
C313 C 0.051 0.43983 0.51919 0.0
N314 N 0.98798 0.43591 0.52596 0.0
N315 N 0.11449 0.37782 0.36863 0.0
C316 C 1.01904 0.42315 0.48121 0.0
C317 C 0.0836 0.39369 0.39886 0.0
N318 N 0.98985 0.37804 0.34899 0.0
N319 N 0.1124 0.44658 0.47934 0.0
H320 H 0.11566 0.35462 0.31365 0.0
H321 H 0.13866 0.3867 0.40208 0.0
H322 H 0.11239 0.47109 0.52566 0.0
H323 H 0.13596 0.44047 0.4338 0.0
H324 H 0.96483 0.38727 0.36703 0.0
H325 H 0.99044 0.35851 0.27662 0.0
H326 H 0.9645 0.42235 0.52032 0.0
H327 H 0.98524 0.4604 0.56916 0.0
C328 C 0.8931 0.04106 0.15048 0.0
C329 C 0.87303 1.00991 0.14017 0.0
C330 C 0.91491 0.98641 0.97791 0.0
C331 C 0.93535 1.01745 0.98851 0.0
N332 N 0.93987 0.07726 0.06336 0.0
N333 N 0.86893 0.94994 0.07006 0.0
C334 C 0.92338 0.04553 0.06951 0.0
C335 C 0.88536 0.98169 0.06194 0.0
N336 N 0.88388 0.06596 0.24116 0.0
N337 N 0.92134 0.96313 0.87768 0.0
H338 H 0.84747 0.94581 0.13179 0.0
H339 H 0.87868 0.92706 0.02751 0.0
H340 H 0.94061 0.96705 0.80633 0.0
H341 H 0.9052 0.94194 0.85576 0.0
H342 H 0.89782 0.0889 0.25771 0.0
H343 H 0.8641 0.06208 0.31014 0.0
H344 H 0.92885 0.10056 0.09693 0.0
H345 H 0.96382 0.08085 0.01689 0.0
C346 C 0.55144 0.91831 0.25565 0.0
C347 C 0.54537 0.88427 0.20142 0.0
C348 C 0.54024 0.91137 0.97913 0.0
C349 C 0.53985 0.94546 0.0355 0.0
N350 N 0.54519 0.98183 0.22955 0.0
N351 N 0.52805 0.84972 0.01041 0.0
C352 C 0.54562 0.94909 0.17469 0.0
C353 C 0.53817 0.88123 0.06275 0.0
N354 N 0.56453 0.92124 0.38172 0.0
N355 N 0.54417 0.90776 0.84479 0.0
H356 H 0.52508 0.82704 0.06761 0.0
H357 H 0.51903 0.84704 0.91275 0.0
H358 H 0.54904 0.9293 0.78342 0.0
H359 H 0.5474 0.88357 0.79814 0.0
H360 H 0.57343 0.94489 0.42058 0.0
H361 H 0.5693 0.89959 0.44312 0.0
H362 H 0.54606 0.9864 0.33175 0.0
H363 H 0.54255 1.00454 0.17172 0.0
C364 C 0.6635 0.51627 0.2286 0.0
C365 C 0.68007 0.54884 0.25387 0.0
C366 C 0.63165 0.57912 0.13797 0.0
C367 C 0.61881 0.54642 0.09054 0.0
N368 N 0.62369 0.48307 0.08907 0.0
N369 N 0.67996 0.61171 0.23522 0.0
C370 C 0.63468 0.51468 0.13724 0.0
C371 C 0.66382 0.58041 0.21069 0.0
N372 N 0.67569 0.48678 0.29117 0.0
N373 N 0.61273 0.60898 0.11472 0.0
H374 H 0.70227 0.61357 0.29492 0.0
H375 H 0.67219 0.63544 0.19244 0.0
H376 H 0.58891 0.60879 0.06387 0.0
H377 H 0.61878 0.63323 0.15641 0.0
H378 H 0.66513 0.46186 0.27945 0.0
H379 H 0.69443 0.4879 0.36651 0.0
H380 H 0.63694 0.45953 0.10449 0.0
H381 H 0.60215 0.48034 0.02713 0.0
C382 C 0.0396 0.65386 0.17153 0.0
C383 C 1.0159 0.64751 0.27822 0.0
C384 C 1.00267 0.58913 0.18187 0.0
C385 C 0.02641 0.59552 0.07687 0.0
N386 N 0.0745 0.62933 0.99266 0.0
N387 N 0.98192 0.6052 0.40153 0.0
C388 C 0.0473 0.6263 0.07934 0.0
C389 C 0.99976 0.61382 0.28835 0.0
N390 N 0.05262 0.68676 0.15001 0.0
N391 N 0.9819 0.55998 0.17746 0.0
H392 H 0.97997 0.62206 0.48289 0.0
H393 H 0.97233 0.58015 0.42102 0.0
H394 H 0.98428 0.54083 0.10399 0.0
H395 H 0.96101 0.55577 0.24141 0.0
H396 H 0.06645 0.69367 0.06479 0.0
H397 H 0.0472 0.7082 0.21001 0.0
H398 H 0.09309 0.6492 0.99879 0.0
H399 H 0.08047 0.60999 0.92295 0.0
C400 C 0.97192 0.22651 0.48586 0.0
C401 C 0.9556 0.24182 0.37453 0.0
C402 C 0.91665 0.19158 0.35843 0.0
C403 C 0.94215 0.17217 0.43039 0.0
N404 N 0.99422 0.17131 0.56813 0.0
N405 N 0.90438 0.24654 0.24052 0.0
C406 C 0.96919 0.1898 0.50057 0.0
C407 C 0.92401 0.22733 0.32778 0.0
N408 N 0.99341 0.24626 0.5638 0.0
N409 N 0.88721 0.17527 0.31356 0.0
H410 H 0.91122 0.27243 0.21745 0.0
H411 H 0.88224 0.23719 0.19195 0.0
H412 H 0.88204 0.149 0.33577 0.0
H413 H 0.86721 0.18807 0.26231 0.0
H414 H 1.00633 0.23642 0.64754 0.0
H415 H 0.99548 0.27334 0.54983 0.0
H416 H 1.01658 0.18289 0.60777 0.0
H417 H 0.99368 0.14404 0.57721 0.0
C418 C 0.32708 0.89458 0.34611 0.0
C419 C 0.31843 0.92455 0.42359 0.0
C420 C 0.35193 0.89978 0.60753 0.0
C421 C 0.37107 0.88012 0.51404 0.0
N422 N 0.36579 0.84374 0.32257 0.0
N423 N 0.31704 0.95095 0.64431 0.0
C424 C 0.35358 0.87135 0.39456 0.0
C425 C 0.32838 0.92535 0.56022 0.0
N426 N 0.31179 0.89032 0.22416 0.0
N427 N 0.35637 0.89523 0.74078 0.0
H428 H 0.29982 0.97074 0.61594 0.0
H429 H 0.32539 0.95222 0.74349 0.0
H430 H 0.37135 0.87491 0.78135 0.0
H431 H 0.37135 0.87491 0.78135 0.0
H432 H 0.31757 0.86991 0.15933 0.0
H433 H 0.29223 0.90732 0.19028 0.0
H434 H 0.35541 0.83571 0.23166 0.0
H435 H 0.38636 0.82837 0.35915 0.0
C436 C 0.64144 0.31514 0.34416 0.0
C437 C 0.61013 0.3007 0.39332 0.0
C438 C 0.60194 0.34915 0.54263 0.0
C439 C 0.62918 0.36731 0.47626 0.0
N440 N 0.68151 0.36489 0.3454 0.0
N441 N 0.57627 0.29244 0.59056 0.0
C442 C 0.65184 0.349 0.38944 0.0
C443 C 0.59693 0.31333 0.51408 0.0
N444 N 0.65793 0.29824 0.24301 0.0
N445 N 0.57838 0.36674 0.61898 0.0
H446 H 0.57211 0.26613 0.56648 0.0
H447 H 0.56668 0.30032 0.68283 0.0
H448 H 0.58017 0.39354 0.63818 0.0
H449 H 0.55573 0.35505 0.65517 0.0
H450 H 0.67936 0.30823 0.19227 0.0
H451 H 0.64914 0.27374 0.21027 0.0
H452 H 0.69972 0.35269 0.2845 0.0
H453 H 0.68877 0.38988 0.37779 0.0
C454 C 0.23284 0.66788 0.25612 0.0
C455 C 0.25158 0.64127 0.3247 0.0
C456 C 0.21373 0.64806 0.51689 0.0
C457 C 0.18937 0.66556 0.43317 0.0
N458 N 0.17943 0.70281 0.24448 0.0
N459 N 0.26752 0.6164 0.53945 0.0
C460 C 0.2009 0.68012 0.31115 0.0
C461 C 0.24513 0.63564 0.46214 0.0
N462 N 0.24448 0.67867 0.13447 0.0
N463 N 0.20658 0.64027 0.64632 0.0
H464 H 0.29141 0.60722 0.50603 0.0
H465 H 0.26288 0.61134 0.64013 0.0
H466 H 0.18426 0.64865 0.6958 0.0
H467 H 0.18426 0.64865 0.6958 0.0
H468 H 0.2322 0.69754 0.07551 0.0
H469 H 0.26788 0.6691 0.09575 0.0
H470 H 0.18483 0.71365 0.15155 0.0
H471 H 0.15601 0.71125 0.28657 0.0
C472 C 0.96701 0.80662 0.14184 0.0
C473 C 0.94536 0.79855 0.24974 0.0
C474 C 0.92967 0.85997 0.27134 0.0
C475 C 0.96193 0.86788 0.20782 0.0
N476 N 1.00771 0.8497 0.05756 0.0
N477 N 0.89067 0.81295 0.34558 0.0
C478 C 0.97888 0.84164 0.13069 0.0
C479 C 0.92031 0.8239 0.28429 0.0
N480 N 0.97878 0.78029 0.06247 0.0
N481 N 0.91079 0.88575 0.33167 0.0
H482 H 0.88615 0.78617 0.36096 0.0
H483 H 0.87043 0.82962 0.3728 0.0
H484 H 0.91772 0.91215 0.32737 0.0
H485 H 0.88861 0.88097 0.38816 0.0
H486 H 0.99518 0.78428 0.98146 0.0
H487 H 0.96944 0.75471 0.07337 0.0
H488 H 1.02333 0.83089 0.01215 0.0
H489 H 1.01643 0.87547 0.0454 0.0
C490 C 0.74913 0.12315 0.07841 0.0
C491 C 0.753 0.12034 0.21918 0.0
C492 C 0.71114 0.16758 0.25086 0.0
C493 C 0.70065 0.16225 0.11784 0.0
N494 N 0.72082 0.15477 0.89569 0.0
N495 N 0.75142 0.15059 0.4285 0.0
C496 C 0.72469 0.14787 0.02815 0.0
C497 C 0.73944 0.14734 0.30095 0.0
N498 N 0.76531 0.10016 0.99512 0.0
N499 N 0.69134 0.18842 0.3305 0.0
H500 H 0.77167 0.13471 0.46443 0.0
H501 H 0.74316 0.17004 0.49376 0.0
H502 H 0.67047 0.20286 0.29118 0.0
H503 H 0.6953 0.19113 0.43267 0.0
H504 H 0.76015 0.09897 0.89323 0.0
H505 H 0.78346 0.08173 0.02782 0.0
H506 H 0.73877 0.14681 0.82426 0.0
H507 H 0.70091 0.17134 0.86148 0.0
C508 C 0.43738 0.7524 0.16293 0.0
C509 C 0.43634 0.75947 0.30141 0.0
C510 C 0.39116 0.7149 0.32958 0.0
C511 C 0.4006 0.7017 0.20344 0.0
N512 N 0.41006 0.72142 0.97902 0.0
N513 N 0.40266 0.75846 0.50221 0.0
C514 C 0.41599 0.72519 0.11209 0.0
C515 C 0.40898 0.74502 0.37888 0.0
N516 N 0.46036 0.76955 0.08269 0.0
N517 N 0.3686 0.69588 0.40545 0.0
H518 H 0.41634 0.78031 0.53729 0.0
H519 H 0.3831 0.7495 0.56518 0.0
H520 H 0.35639 0.67357 0.36669 0.0
H521 H 0.36207 0.70194 0.50322 0.0
H522 H 0.46477 0.76248 0.98433 0.0
H523 H 0.47552 0.79044 0.11535 0.0
H524 H 0.41876 0.7394 0.90811 0.0
H525 H 0.39266 0.70278 0.94242 0.0
C526 C 0.82174 0.46145 0.10681 0.0
C527 C 0.80749 0.44723 0.22368 0.0
C528 C 0.85164 0.40131 0.22458 0.0
C529 C 0.87168 0.42274 0.13882 0.0
N530 N 0.87602 0.47424 0.99782 0.0
N531 N 0.80139 0.39638 0.3644 0.0
C532 C 0.85636 0.4524 0.07502 0.0
C533 C 0.81914 0.41404 0.26854 0.0
N534 N 0.8035 0.48589 0.03553 0.0
N535 N 0.86479 0.37055 0.27331 0.0
H536 H 0.77771 0.40545 0.40231 0.0
H537 H 0.77771 0.40545 0.40231 0.0
H538 H 0.88895 0.36075 0.24335 0.0
H539 H 0.85096 0.35485 0.34021 0.0
H540 H 0.81212 0.49598 0.94474 0.0
H541 H 0.77814 0.49296 0.06154 0.0
H542 H 0.86716 0.49857 0.96383 0.0
H543 H 0.90204 0.46909 0.9759 0.0
C544 C 0.05811 0.17503 0.05811 0.0
C545 C 0.03036 0.19764 0.0179 0.0
C546 C 1.005 0.14855 0.88772 0.0
C547 C 0.03362 0.12633 0.92223 0.0
N548 N 0.09063 0.12104 0.02286 0.0
N549 N 0.98099 0.20766 0.87435 0.0
C550 C 0.06116 0.1405 1.00176 0.0
C551 C 1.00525 0.18485 0.92505 0.0
N552 N 0.08034 0.18554 0.15705 0.0
N553 N 0.9763 0.13458 0.82684 0.0
H554 H 0.98094 0.23433 0.89811 0.0
H555 H 0.96317 0.20112 0.79989 0.0
H556 H 0.97533 0.10888 0.79269 0.0
H557 H 0.95267 0.14783 0.81644 0.0
H558 H 0.09804 0.16879 0.20414 0.0
H559 H 0.07959 0.21058 0.19846 0.0
H560 H 0.11322 0.13108 0.06636 0.0
H561 H 0.09356 0.0956 0.98691 0.0
C562 C 0.35955 1.0264 1.00328 0.0
C563 C 0.3608 1.02195 0.14381 0.0
C564 C 0.42459 1.0227 0.13652 0.0
C565 C 0.42392 0.02985 0.99665 0.0
N566 N 0.38912 0.04864 0.80713 0.0
N567 N 0.3927 1.02667 0.346 0.0
C568 C 0.39089 0.03471 0.93262 0.0
C569 C 0.39309 1.02435 0.21052 0.0
N570 N 0.32882 1.02162 0.93656 0.0
N571 N 0.45429 1.01062 0.19686 0.0
H572 H 0.41482 0.03077 0.40493 0.0
H573 H 0.41482 0.03077 0.40493 0.0
H574 H 0.47615 1.00247 0.14444 0.0
H575 H 0.45553 1.00354 0.29678 0.0
H576 H 0.32713 1.02061 0.8329 0.0
H577 H 0.30546 1.01633 0.98544 0.0
H578 H 0.36563 0.0552 0.76051 0.0
H579 H 0.41098 0.05756 0.75596 0.0
C580 C 0.50402 0.37763 0.09145 0.0
C581 C 0.53247 0.35524 0.05936 0.0
C582 C 0.55927 0.40438 0.93363 0.0
C583 C 0.52981 0.42622 0.95901 0.0
N584 N 0.47023 0.42959 0.03403 0.0
N585 N 0.58322 0.34521 0.92484 0.0
C586 C 0.501 0.41153 0.02925 0.0
C587 C 0.55857 0.36804 0.97109 0.0
N588 N 0.4809 0.36764 0.1874 0.0
N589 N 0.58892 0.41855 0.88111 0.0
H590 H 0.58239 0.31833 0.9453 0.0
H591 H 0.60266 0.35205 0.85769 0.0
H592 H 0.59087 0.44448 0.84924 0.0
H593 H 0.61265 0.40528 0.87783 0.0
H594 H 0.46228 0.38455 0.22684 0.0
H595 H 0.48204 0.34334 0.23531 0.0
H596 H 0.44738 0.41896 0.07275 0.0
H597 H 0.46654 0.45372 0.9864 0.0
C598 C 0.18998 0.5291 0.13542 0.0
C599 C 0.21809 0.53966 0.05365 0.0
C600 C 0.18021 0.5311 0.85604 0.0
C601 C 0.15053 0.52712 0.93989 0.0
N602 N 0.12761 0.53009 0.16469 0.0
N603 N 0.2397 0.55259 0.83436 0.0
C604 C 0.15558 0.5277 0.0812 0.0
C605 C 0.21319 0.54091 0.91313 0.0
N606 N 0.19611 0.52164 0.26681 0.0
N607 N 0.17729 0.52442 0.72274 0.0
H608 H 0.26436 0.55858 0.87252 0.0
H609 H 0.23666 0.55793 0.73307 0.0
H610 H 0.15417 0.51584 0.67852 0.0
H611 H 0.19855 0.52389 0.65859 0.0
H612 H 0.17741 0.51069 0.3294 0.0
H613 H 0.22105 0.5229 0.30891 0.0
H614 H 0.13003 0.53269 0.26764 0.0
H615 H 0.10215 0.53417 0.13144 0.0
C616 C 0.04914 0.84798 0.59812 0.0
C617 C 1.01922 0.82786 0.63287 0.0
C618 C 0.99752 0.87807 0.76554 0.0
C619 C 0.02692 0.89841 0.72789 0.0
N620 N 0.08477 0.89994 0.63721 0.0
N621 N 0.96874 0.82102 0.77094 0.0
C622 C 0.05404 0.88237 0.65346 0.0
C623 C 0.99486 0.84214 0.72472 0.0
N624 N 0.07168 0.83525 0.50511 0.0
N625 N 0.97176 0.89343 0.83863 0.0
H626 H 0.96681 0.79462 0.74428 0.0
H627 H 0.9509 0.82838 0.84336 0.0
H628 H 0.97459 0.91824 0.88064 0.0
H629 H 0.94757 0.88209 0.85668 0.0
H630 H 0.09124 0.85024 0.46134 0.0
H631 H 0.06956 0.81005 0.46578 0.0
H632 H 0.10685 0.88889 0.59431 0.0
H633 H 0.08917 0.9247 0.67813 0.0
C634 C 0.67892 1.00136 0.48455 0.0
C635 C 0.70143 0.03005 0.5128 0.0
C636 C 0.65501 0.05681 0.64673 0.0
C637 C 0.63314 1.02698 0.62771 0.0
N638 N 0.63038 0.96604 0.56202 0.0
N639 N 0.71426 0.07837 0.65892 0.0
C640 C 0.64688 0.99773 0.55652 0.0
C641 C 0.6906 0.05522 0.60799 0.0
N642 N 0.68716 0.97831 0.38584 0.0
N643 N 0.64156 0.08788 0.69113 0.0
H644 H 0.74062 0.07768 0.63338 0.0
H645 H 0.70827 0.09527 0.73691 0.0
H646 H 0.61501 0.09216 0.70515 0.0
H647 H 0.65618 0.11091 0.69626 0.0
H648 H 0.66982 0.95925 0.35157 0.0
H649 H 0.71027 0.97991 0.33198 0.0
H650 H 0.64081 0.94328 0.52074 0.0
H651 H 0.60848 0.96165 0.62091 0.0
C652 C 0.55666 0.69845 0.57337 0.0
C653 C 0.52894 0.72102 0.61109 0.0
C654 C 0.50908 0.67601 0.77282 0.0
C655 C 0.53622 0.65274 0.73228 0.0
N656 N 0.59256 0.64774 0.62801 0.0
N657 N 0.48182 0.73244 0.76419 0.0
C658 C 0.56205 0.66583 0.64274 0.0
C659 C 0.50689 0.71044 0.71749 0.0
N660 N 0.57674 0.70718 0.46627 0.0
N661 N 0.48413 0.66557 0.86125 0.0
H662 H 0.47847 0.75834 0.73193 0.0
H663 H 0.47847 0.75834 0.73193 0.0
H664 H 0.48253 0.64067 0.9029 0.0
H665 H 0.46397 0.68206 0.89149 0.0
H666 H 0.59428 0.68988 0.42235 0.0
H667 H 0.57428 0.73112 0.41621 0.0
H668 H 0.61364 0.65725 0.57372 0.0
H669 H 0.59839 0.62515 0.68298 0.0
C670 C 0.87706 0.54785 0.5774 0.0
C671 C 0.85681 0.51681 0.59241 0.0
C672 C 0.90752 0.48798 0.70057 0.0
C673 C 0.92719 0.51965 0.69272 0.0
N674 N 0.92616 0.58232 0.65639 0.0
N675 N 0.85019 0.46082 0.70118 0.0
C676 C 0.91049 0.55038 0.64135 0.0
C677 C 0.87128 0.48818 0.66579 0.0
N678 N 0.86554 0.57423 0.49572 0.0
N679 N 0.92356 0.45708 0.73384 0.0
H680 H 0.82347 0.46075 0.68045 0.0
H681 H 0.8583 0.44015 0.76226 0.0
H682 H 0.94969 0.4552 0.76133 0.0
H683 H 0.91146 0.43272 0.72494 0.0
H684 H 0.88111 0.59543 0.46807 0.0
H685 H 0.84147 0.57363 0.44721 0.0
H686 H 0.91392 0.60594 0.63194 0.0
H687 H 0.94985 0.58548 0.70642 0.0
loop_
_geom_bond_atom_site_label_1
_geom_bond_atom_site_label_2
_geom_bond_distance
_geom_bond_site_symmetry_2
_ccdc_geom_bond_type
H0 C5 0.930 . S
H1 C8 0.930 . S
H2 C10 0.930 . S
H3 C4 1.016 . S
C4 H3 1.016 . S
C4 N11 1.286 . S
C5 H0 0.930 . S
C5 C6 1.397 . S
C5 C7 1.361 . S
C6 C5 1.397 . S
C6 C10 1.390 . S
C7 C5 1.361 . S
C7 C8 1.393 . S
C7 N11 1.413 . S
C8 H1 0.930 . S
C8 C7 1.393 . S
C8 C9 1.399 . S
C9 C8 1.399 . S
C9 C10 1.381 . S
C10 H2 0.930 . S
C10 C6 1.390 . S
C10 C9 1.381 . S
N11 C4 1.286 . S
N11 C7 1.413 . S
H12 C17 0.930 . S
H13 C20 0.930 . S
H14 C22 0.930 . S
H15 C16 1.016 . S
C16 H15 1.016 . S
C16 N23 1.286 1_655 S
C17 H12 0.930 . S
C17 C18 1.397 . S
C17 C19 1.361 . S
C18 C17 1.397 . S
C18 C22 1.390 1_455 S
C19 C17 1.361 . S
C19 C20 1.393 . S
C19 N23 1.413 . S
C20 H13 0.930 . S
C20 C19 1.393 . S
C20 C21 1.403 . S
C21 C20 1.403 . S
C21 C22 1.379 1_455 S
C22 H14 0.930 . S
C22 C18 1.390 1_655 S
C22 C21 1.379 1_655 S
N23 C16 1.286 1_455 S
N23 C19 1.413 . S
H24 C29 0.930 . S
H25 C32 0.930 . S
H26 C34 0.930 . S
H27 C28 1.016 . S
C28 H27 1.016 . S
C28 N35 1.286 1_565 S
C29 H24 0.930 . S
C29 C30 1.397 . S
C29 C31 1.361 . S
C30 C29 1.397 . S
C30 C34 1.390 1_545 S
C31 C29 1.361 . S
C31 C32 1.393 . S
C31 N35 1.413 . S
C32 H25 0.930 . S
C32 C31 1.393 . S
C32 C33 1.403 . S
C33 C32 1.403 . S
C33 C34 1.379 1_545 S
C34 H26 0.930 . S
C34 C30 1.390 1_565 S
C34 C33 1.379 1_565 S
N35 C28 1.286 1_545 S
N35 C31 1.413 . S
H36 C41 0.930 . S
H37 C44 0.930 . S
H38 C46 0.930 . S
H39 C40 1.016 . S
C40 H39 1.016 . S
C40 N47 1.286 . S
C41 H36 0.930 . S
C41 C42 1.397 . S
C41 C43 1.361 . S
C42 C41 1.397 . S
C42 C46 1.390 . S
C43 C41 1.361 . S
C43 C44 1.393 . S
C43 N47 1.413 . S
C44 H37 0.930 . S
C44 C43 1.393 . S
C44 C45 1.399 . S
C45 C44 1.399 . S
C45 C46 1.381 . S
C46 H38 0.930 . S
C46 C42 1.390 . S
C46 C45 1.381 . S
N47 C40 1.286 . S
N47 C43 1.413 . S
H48 C53 0.930 . S
H49 C56 0.930 . S
H50 C58 0.930 1_556 S
H51 C52 1.016 . S
C52 H51 1.016 . S
C52 N59 1.286 . S
C53 H48 0.930 . S
C53 C54 1.397 . S
C53 C55 1.361 1_556 S
C54 C53 1.397 . S
C54 C58 1.390 1_556 S
C55 C53 1.361 1_554 S
C55 C56 1.393 . S
C55 N59 1.413 . S
C56 H49 0.930 . S
C56 C55 1.393 . S
C56 C57 1.399 . S
C57 C56 1.399 . S
C57 C58 1.381 . S
C58 H50 0.930 1_554 S
C58 C54 1.390 1_554 S
C58 C57 1.381 . S
N59 C52 1.286 . S
N59 C55 1.413 . S
H60 C65 0.930 . S
H61 C68 0.930 . S
H62 C70 0.931 . S
H63 C64 1.026 . S
C64 H63 1.026 . S
C64 N71 1.272 1_655 S
C65 H60 0.930 . S
C65 C66 1.397 . S
C65 C67 1.361 1_556 S
C66 C65 1.397 . S
C66 C70 1.390 1_456 S
C67 C65 1.361 1_554 S
C67 C68 1.393 . S
C67 N71 1.413 . S
C68 H61 0.930 . S
C68 C67 1.393 . S
C68 C69 1.404 . S
C69 C68 1.404 . S
C69 C70 1.378 1_455 S
C70 H62 0.931 . S
C70 C66 1.390 1_654 S
C70 C69 1.378 1_655 S
N71 C64 1.272 1_455 S
N71 C67 1.413 . S
H72 C77 0.930 . S
H73 C80 0.930 . S
H74 C82 0.930 1_556 S
H75 C76 1.026 . S
C76 H75 1.026 . S
C76 N83 1.272 1_565 S
C77 H72 0.930 . S
C77 C78 1.397 . S
C77 C79 1.361 1_556 S
C78 C77 1.397 . S
C78 C82 1.390 1_546 S
C79 C77 1.361 1_554 S
C79 C80 1.393 . S
C79 N83 1.413 . S
C80 H73 0.930 . S
C80 C79 1.393 . S
C80 C81 1.404 . S
C81 C80 1.404 . S
C81 C82 1.378 1_545 S
C82 H74 0.930 1_554 S
C82 C78 1.390 1_564 S
C82 C81 1.378 1_565 S
N83 C76 1.272 1_545 S
N83 C79 1.413 . S
H84 C89 0.930 . S
H85 C92 0.930 . S
H86 C94 0.930 1_556 S
H87 C88 1.016 . S
C88 H87 1.016 . S
C88 N95 1.286 . S
C89 H84 0.930 . S
C89 C90 1.397 . S
C89 C91 1.361 1_556 S
C90 C89 1.397 . S
C90 C94 1.390 1_556 S
C91 C89 1.361 1_554 S
C91 C92 1.393 . S
C91 N95 1.413 . S
C92 H85 0.930 . S
C92 C91 1.393 . S
C92 C93 1.399 . S
C93 C92 1.399 . S
C93 C94 1.381 . S
C94 H86 0.930 1_554 S
C94 C90 1.390 1_554 S
C94 C93 1.381 . S
N95 C88 1.286 . S
N95 C91 1.413 . S
Sm96 C98 2.846 1_556 S
Sm96 O116 2.543 1_556 S
Sm96 O117 2.450 1_556 S
Sm96 O118 2.681 1_565 S
Sm96 O119 2.464 . S
Sm96 O120 2.396 . S
Sm96 O124 2.386 1_455 S
Sm96 O127 2.408 1_565 S
Sm97 C107 2.846 . S
Sm97 O118 2.386 1_655 S
Sm97 O121 2.408 1_545 S
Sm97 O122 2.543 . S
Sm97 O123 2.450 . S
Sm97 O124 2.681 1_545 S
Sm97 O125 2.464 . S
Sm97 O126 2.396 . S
C98 Sm96 2.846 1_554 S
C98 C99 1.506 . S
C98 O116 1.261 . S
C98 O117 1.242 . S
C99 C98 1.506 . S
C99 C100 1.358 . S
C99 C104 1.382 . S
C100 C99 1.358 . S
C100 C101 1.385 . S
C100 H128 0.930 1_455 S
C101 C100 1.385 . S
C101 C102 1.395 . S
C101 H129 0.954 . S
C102 C101 1.395 . S
C102 C103 1.335 . S
C103 C102 1.335 . S
C103 C104 1.398 . S
C103 H130 0.930 . S
C104 C99 1.382 . S
C104 C103 1.398 . S
C104 H131 0.929 . S
C105 O118 1.271 1_565 S
C105 O119 1.251 . S
C106 O120 1.252 1_655 S
C106 O121 1.272 . S
C107 Sm97 2.846 . S
C107 C108 1.506 . S
C107 O122 1.261 . S
C107 O123 1.242 . S
C108 C107 1.506 . S
C108 C109 1.358 . S
C108 C113 1.382 . S
C109 C108 1.358 . S
C109 C110 1.385 . S
C109 H132 0.930 1_655 S
C110 C109 1.385 . S
C110 C111 1.395 . S
C110 H133 0.947 . S
C111 C110 1.395 . S
C111 C112 1.335 . S
C112 C111 1.335 . S
C112 C113 1.398 . S
C112 H134 0.930 . S
C113 C108 1.382 . S
C113 C112 1.398 . S
C113 H135 0.929 . S
C114 O124 1.271 1_545 S
C114 O125 1.251 . S
C115 O126 1.252 1_455 S
C115 O127 1.272 . S
O116 Sm96 2.543 1_554 S
O116 C98 1.261 . S
O117 Sm96 2.450 1_554 S
O117 C98 1.242 . S
O118 Sm96 2.681 1_545 S
O118 Sm97 2.386 1_455 S
O118 C105 1.271 1_545 S
O119 Sm96 2.464 . S
O119 C105 1.251 . S
O120 Sm96 2.396 . S
O120 C106 1.252 1_455 S
O121 Sm97 2.408 1_565 S
O121 C106 1.272 . S
O122 Sm97 2.543 . S
O122 C107 1.261 . S
O123 Sm97 2.450 . S
O123 C107 1.242 . S
O124 Sm96 2.386 1_655 S
O124 Sm97 2.681 1_565 S
O124 C114 1.271 1_565 S
O125 Sm97 2.464 . S
O125 C114 1.251 . S
O126 Sm97 2.396 . S
O126 C115 1.252 1_655 S
O127 Sm96 2.408 1_545 S
O127 C115 1.272 . S
H128 C100 0.930 1_655 S
H129 C101 0.954 . S
H130 C103 0.930 . S
H131 C104 0.929 . S
H132 C109 0.930 1_455 S
H133 C110 0.947 . S
H134 C112 0.930 . S
H135 C113 0.929 . S
Sm136 C138 2.846 1_556 S
Sm136 O156 2.543 1_556 S
Sm136 O157 2.450 1_556 S
Sm136 O158 2.681 . S
Sm136 O159 2.464 . S
Sm136 O160 2.396 . S
Sm136 O164 2.386 1_545 S
Sm136 O167 2.408 . S
Sm137 C147 2.846 . S
Sm137 O158 2.386 1_565 S
Sm137 O161 2.408 . S
Sm137 O162 2.543 . S
Sm137 O163 2.450 . S
Sm137 O164 2.681 . S
Sm137 O165 2.464 . S
Sm137 O166 2.396 . S
C138 Sm136 2.846 1_554 S
C138 C139 1.506 . S
C138 O156 1.261 . S
C138 O157 1.242 . S
C139 C138 1.506 . S
C139 C140 1.358 . S
C139 C144 1.382 . S
C140 C139 1.358 . S
C140 C141 1.385 . S
C140 H168 0.930 1_545 S
C141 C140 1.385 . S
C141 C142 1.395 . S
C141 H169 0.929 1_545 S
C142 C141 1.395 . S
C142 C143 1.335 . S
C143 C142 1.335 . S
C143 C144 1.398 . S
C143 H170 0.930 . S
C144 C139 1.382 . S
C144 C143 1.398 . S
C144 H171 0.929 . S
C145 O158 1.271 . S
C145 O159 1.251 . S
C146 O160 1.252 1_565 S
C146 O161 1.272 . S
C147 Sm137 2.846 . S
C147 C148 1.506 . S
C147 O162 1.261 . S
C147 O163 1.242 . S
C148 C147 1.506 . S
C148 C149 1.358 . S
C148 C153 1.382 . S
C149 C148 1.358 . S
C149 C150 1.385 . S
C149 H172 0.930 1_565 S
C150 C149 1.385 . S
C150 C151 1.395 . S
C150 H173 0.929 1_565 S
C151 C150 1.395 . S
C151 C152 1.335 . S
C152 C151 1.335 . S
C152 C153 1.398 . S
C152 H174 0.930 . S
C153 C148 1.382 . S
C153 C152 1.398 . S
C153 H175 0.929 . S
C154 O164 1.271 . S
C154 O165 1.251 . S
C155 O166 1.252 1_545 S
C155 O167 1.272 . S
O156 Sm136 2.543 1_554 S
O156 C138 1.261 . S
O157 Sm136 2.450 1_554 S
O157 C138 1.242 . S
O158 Sm136 2.681 . S
O158 Sm137 2.386 1_545 S
O158 C145 1.271 . S
O159 Sm136 2.464 . S
O159 C145 1.251 . S
O160 Sm136 2.396 . S
O160 C146 1.252 1_545 S
O161 Sm137 2.408 . S
O161 C146 1.272 . S
O162 Sm137 2.543 . S
O162 C147 1.261 . S
O163 Sm137 2.450 . S
O163 C147 1.242 . S
O164 Sm136 2.386 1_565 S
O164 Sm137 2.681 . S
O164 C154 1.271 . S
O165 Sm137 2.464 . S
O165 C154 1.251 . S
O166 Sm137 2.396 . S
O166 C155 1.252 1_565 S
O167 Sm136 2.408 . S
O167 C155 1.272 . S
H168 C140 0.930 1_565 S
H169 C141 0.929 1_565 S
H170 C143 0.930 . S
H171 C144 0.929 . S
H172 C149 0.930 1_545 S
H173 C150 0.929 1_545 S
H174 C152 0.930 . S
H175 C153 0.929 . S
Sm176 C178 2.846 1_556 S
Sm176 O196 2.543 1_556 S
Sm176 O197 2.450 1_556 S
Sm176 O198 2.681 . S
Sm176 O199 2.464 . S
Sm176 O200 2.396 . S
Sm176 O204 2.386 . S
Sm176 O207 2.408 . S
Sm177 C187 2.846 . S
Sm177 O198 2.386 . S
Sm177 O201 2.408 . S
Sm177 O202 2.543 . S
Sm177 O203 2.450 . S
Sm177 O204 2.681 . S
Sm177 O205 2.464 . S
Sm177 O206 2.396 . S
C178 Sm176 2.846 1_554 S
C178 C179 1.506 . S
C178 O196 1.261 . S
C178 O197 1.242 . S
C179 C178 1.506 . S
C179 C180 1.358 . S
C179 C184 1.382 . S
C180 C179 1.358 . S
C180 C181 1.385 . S
C180 H208 0.930 . S
C181 C180 1.385 . S
C181 C182 1.395 . S
C181 H209 0.929 . S
C182 C181 1.395 . S
C182 C183 1.335 . S
C183 C182 1.335 . S
C183 C184 1.398 . S
C183 H210 0.930 . S
C184 C179 1.382 . S
C184 C183 1.398 . S
C184 H211 0.929 . S
C185 O198 1.271 . S
C185 O199 1.251 . S
C186 O200 1.252 . S
C186 O201 1.272 . S
C187 Sm177 2.846 . S
C187 C188 1.506 . S
C187 O202 1.261 . S
C187 O203 1.242 . S
C188 C187 1.506 . S
C188 C189 1.358 . S
C188 C193 1.382 . S
C189 C188 1.358 . S
C189 C190 1.385 . S
C189 H212 0.930 . S
C190 C189 1.385 . S
C190 C191 1.395 . S
C190 H213 0.929 . S
C191 C190 1.395 . S
C191 C192 1.335 . S
C192 C191 1.335 . S
C192 C193 1.398 . S
C192 H214 0.930 . S
C193 C188 1.382 . S
C193 C192 1.398 . S
C193 H215 0.929 . S
C194 O204 1.271 . S
C194 O205 1.251 . S
C195 O206 1.252 . S
C195 O207 1.272 . S
O196 Sm176 2.543 1_554 S
O196 C178 1.261 . S
O197 Sm176 2.450 1_554 S
O197 C178 1.242 . S
O198 Sm176 2.681 . S
O198 Sm177 2.386 . S
O198 C185 1.271 . S
O199 Sm176 2.464 . S
O199 C185 1.251 . S
O200 Sm176 2.396 . S
O200 C186 1.252 . S
O201 Sm177 2.408 . S
O201 C186 1.272 . S
O202 Sm177 2.543 . S
O202 C187 1.261 . S
O203 Sm177 2.450 . S
O203 C187 1.242 . S
O204 Sm176 2.386 . S
O204 Sm177 2.681 . S
O204 C194 1.271 . S
O205 Sm177 2.464 . S
O205 C194 1.251 . S
O206 Sm177 2.396 . S
O206 C195 1.252 . S
O207 Sm176 2.408 . S
O207 C195 1.272 . S
H208 C180 0.930 . S
H209 C181 0.929 . S
H210 C183 0.930 . S
H211 C184 0.929 . S
H212 C189 0.930 . S
H213 C190 0.929 . S
H214 C192 0.930 . S
H215 C193 0.929 . S
Sm216 C218 2.846 1_556 S
Sm216 O236 2.543 1_556 S
Sm216 O237 2.450 1_556 S
Sm216 O238 2.681 1_655 S
Sm216 O239 2.464 . S
Sm216 O240 2.396 . S
Sm216 O244 2.386 . S
Sm216 O247 2.408 1_655 S
Sm217 C227 2.846 . S
Sm217 O238 2.386 . S
Sm217 O241 2.408 1_455 S
Sm217 O242 2.543 . S
Sm217 O243 2.450 . S
Sm217 O244 2.681 1_455 S
Sm217 O245 2.464 . S
Sm217 O246 2.396 . S
C218 Sm216 2.846 1_554 S
C218 C219 1.506 . S
C218 O236 1.261 . S
C218 O237 1.242 . S
C219 C218 1.506 . S
C219 C220 1.358 . S
C219 C224 1.382 . S
C220 C219 1.358 . S
C220 C221 1.385 . S
C220 H248 0.930 . S
C221 C220 1.385 . S
C221 C222 1.395 . S
C221 H249 0.929 . S
C222 C221 1.395 . S
C222 C223 1.335 . S
C223 C222 1.335 . S
C223 C224 1.398 . S
C223 H250 0.930 . S
C224 C219 1.382 . S
C224 C223 1.398 . S
C224 H251 0.929 . S
C225 O238 1.265 1_655 S
C225 O239 1.261 . S
C226 O240 1.252 . S
C226 O241 1.272 . S
C227 Sm217 2.846 . S
C227 C228 1.506 . S
C227 O242 1.261 . S
C227 O243 1.242 . S
C228 C227 1.506 . S
C228 C229 1.358 . S
C228 C233 1.382 . S
C229 C228 1.358 . S
C229 C230 1.385 . S
C229 H252 0.930 . S
C230 C229 1.385 . S
C230 C231 1.395 . S
C230 H253 0.929 . S
C231 C230 1.395 . S
C231 C232 1.335 . S
C232 C231 1.335 . S
C232 C233 1.398 . S
C232 H254 0.930 . S
C233 C228 1.382 . S
C233 C232 1.398 . S
C233 H255 0.929 . S
C234 O244 1.263 1_455 S
C234 O245 1.264 . S
C235 O246 1.252 . S
C235 O247 1.272 . S
O236 Sm216 2.543 1_554 S
O236 C218 1.261 . S
O237 Sm216 2.450 1_554 S
O237 C218 1.242 . S
O238 Sm216 2.681 1_455 S
O238 Sm217 2.386 . S
O238 C225 1.265 1_455 S
O239 Sm216 2.464 . S
O239 C225 1.261 . S
O240 Sm216 2.396 . S
O240 C226 1.252 . S
O241 Sm217 2.408 1_655 S
O241 C226 1.272 . S
O242 Sm217 2.543 . S
O242 C227 1.261 . S
O243 Sm217 2.450 . S
O243 C227 1.242 . S
O244 Sm216 2.386 . S
O244 Sm217 2.681 1_655 S
O244 C234 1.263 1_655 S
O245 Sm217 2.464 . S
O245 C234 1.264 . S
O246 Sm217 2.396 . S
O246 C235 1.252 . S
O247 Sm216 2.408 1_455 S
O247 C235 1.272 . S
H248 C220 0.930 . S
H249 C221 0.929 . S
H250 C223 0.930 . S
H251 C224 0.929 . S
H252 C229 0.930 . S
H253 C230 0.929 . S
H254 C232 0.930 . S
H255 C233 0.929 . S
C256 C257 1.368 . S
C256 C262 1.379 . S
C256 N264 1.356 . S
C257 C256 1.368 . S
C257 C263 1.358 1_545 S
C258 C259 1.349 1_565 S
C258 C263 1.379 . S
C258 N265 1.356 . S
C259 C258 1.349 1_545 S
C259 C262 1.377 . S
N260 C262 1.356 . S
N260 H272 0.984 . S
N260 H273 0.985 . S
N261 C263 1.356 . S
N261 H266 0.984 . S
N261 H267 0.985 . S
C262 C256 1.379 . S
C262 C259 1.377 . S
C262 N260 1.356 . S
C263 C257 1.358 1_565 S
C263 C258 1.379 . S
C263 N261 1.356 . S
N264 C256 1.356 . S
N264 H270 0.984 . S
N264 H271 0.984 . S
N265 C258 1.356 . S
N265 H268 0.984 . S
N265 H269 0.985 . S
H266 N261 0.984 . S
H267 N261 0.985 . S
H268 N265 0.984 . S
H269 N265 0.985 . S
H270 N264 0.984 . S
H271 N264 0.984 . S
H272 N260 0.984 . S
H273 N260 0.985 . S
C274 C275 1.363 . S
C274 C280 1.379 . S
C274 N282 1.356 . S
C275 C274 1.363 . S
C275 C281 1.363 . S
C276 C277 1.363 . S
C276 C281 1.379 . S
C276 N283 1.356 . S
C277 C276 1.363 . S
C277 C280 1.363 . S
N278 C280 1.356 . S
N278 H290 0.984 . S
N278 H291 0.985 . S
N279 C281 1.356 . S
N279 H284 0.984 . S
N279 H285 0.985 . S
C280 C274 1.379 . S
C280 C277 1.363 . S
C280 N278 1.356 . S
C281 C275 1.363 . S
C281 C276 1.379 . S
C281 N279 1.356 . S
N282 C274 1.356 . S
N282 H288 0.984 . S
N282 H289 0.984 . S
N283 C276 1.356 . S
N283 H286 0.984 . S
N283 H287 0.985 . S
H284 N279 0.984 . S
H285 N279 0.985 . S
H286 N283 0.984 . S
H287 N283 0.985 . S
H288 N282 0.984 . S
H289 N282 0.984 . S
H290 N278 0.984 . S
H291 N278 0.985 . S
C292 C293 1.363 . S
C292 C298 1.379 . S
C292 N300 1.356 . S
C293 C292 1.363 . S
C293 C299 1.363 . S
C294 C295 1.363 . S
C294 C299 1.379 . S
C294 N301 1.356 . S
C295 C294 1.363 . S
C295 C298 1.363 . S
N296 C298 1.356 . S
N296 H308 0.984 . S
N296 H309 0.985 . S
N297 C299 1.356 . S
N297 H302 0.984 . S
N297 H303 0.985 . S
C298 C292 1.379 . S
C298 C295 1.363 . S
C298 N296 1.356 . S
C299 C293 1.363 . S
C299 C294 1.379 . S
C299 N297 1.356 . S
N300 C292 1.356 . S
N300 H306 0.984 . S
N300 H307 0.984 . S
N301 C294 1.356 . S
N301 H304 0.984 . S
N301 H305 0.985 . S
H302 N297 0.984 . S
H303 N297 0.985 . S
H304 N301 0.984 . S
H305 N301 0.985 . S
H306 N300 0.984 . S
H307 N300 0.984 . S
H308 N296 0.984 . S
H309 N296 0.985 . S
C310 C311 1.349 1_655 S
C310 C316 1.379 . S
C310 N318 1.356 . S
C311 C310 1.349 1_455 S
C311 C317 1.378 . S
C312 C313 1.363 . S
C312 C317 1.379 . S
C312 N319 1.356 . S
C313 C312 1.363 . S
C313 C316 1.363 1_455 S
N314 C316 1.356 . S
N314 H326 0.984 . S
N314 H327 0.985 . S
N315 C317 1.356 . S
N315 H320 0.984 . S
N315 H321 0.985 . S
C316 C310 1.379 . S
C316 C313 1.363 1_655 S
C316 N314 1.356 . S
C317 C311 1.378 . S
C317 C312 1.379 . S
C317 N315 1.356 . S
N318 C310 1.356 . S
N318 H324 0.984 . S
N318 H325 0.984 . S
N319 C312 1.356 . S
N319 H322 0.984 . S
N319 H323 0.985 . S
H320 N315 0.984 . S
H321 N315 0.985 . S
H322 N319 0.984 . S
H323 N319 0.985 . S
H324 N318 0.984 . S
H325 N318 0.984 . S
H326 N314 0.984 . S
H327 N314 0.985 . S
C328 C329 1.364 1_545 S
C328 C334 1.379 . S
C328 N336 1.356 . S
C329 C328 1.364 1_565 S
C329 C335 1.362 . S
C330 C331 1.371 . S
C330 C335 1.379 . S
C330 N337 1.356 . S
C331 C330 1.371 . S
C331 C334 1.355 1_565 S
N332 C334 1.356 . S
N332 H344 0.984 . S
N332 H345 0.985 1_554 S
N333 C335 1.356 . S
N333 H338 0.984 . S
N333 H339 0.985 . S
C334 C328 1.379 . S
C334 C331 1.355 1_545 S
C334 N332 1.356 . S
C335 C329 1.362 . S
C335 C330 1.379 . S
C335 N333 1.356 . S
N336 C328 1.356 . S
N336 H342 0.984 . S
N336 H343 0.984 . S
N337 C330 1.356 . S
N337 H340 0.984 . S
N337 H341 0.985 . S
H338 N333 0.984 . S
H339 N333 0.985 . S
H340 N337 0.984 . S
H341 N337 0.985 . S
H342 N336 0.984 . S
H343 N336 0.984 . S
H344 N332 0.984 . S
H345 N332 0.985 1_556 S
C346 C347 1.363 . S
C346 C352 1.379 . S
C346 N354 1.356 . S
C347 C346 1.363 . S
C347 C353 1.363 . S
C348 C349 1.363 . S
C348 C353 1.379 . S
C348 N355 1.356 1_554 S
C349 C348 1.363 . S
C349 C352 1.363 . S
N350 C352 1.356 . S
N350 H362 0.984 . S
N350 H363 0.985 . S
N351 C353 1.356 . S
N351 H356 0.984 . S
N351 H357 0.985 . S
C352 C346 1.379 . S
C352 C349 1.363 . S
C352 N350 1.356 . S
C353 C347 1.363 . S
C353 C348 1.379 . S
C353 N351 1.356 . S
N354 C346 1.356 . S
N354 H360 0.984 . S
N354 H361 0.984 . S
N355 C348 1.356 1_556 S
N355 H358 0.984 . S
N355 H359 0.985 . S
H356 N351 0.984 . S
H357 N351 0.985 . S
H358 N355 0.984 . S
H359 N355 0.985 . S
H360 N354 0.984 . S
H361 N354 0.984 . S
H362 N350 0.984 . S
H363 N350 0.985 . S
C364 C365 1.363 . S
C364 C370 1.379 . S
C364 N372 1.356 . S
C365 C364 1.363 . S
C365 C371 1.363 . S
C366 C367 1.363 . S
C366 C371 1.379 . S
C366 N373 1.356 . S
C367 C366 1.363 . S
C367 C370 1.363 . S
N368 C370 1.356 1_556 S
N368 H380 0.984 . S
N368 H381 0.985 . S
N369 C371 1.356 . S
N369 H374 0.984 . S
N369 H375 0.985 . S
C370 C364 1.379 . S
C370 C367 1.363 . S
C370 N368 1.356 1_554 S
C371 C365 1.363 . S
C371 C366 1.379 . S
C371 N369 1.356 . S
N372 C364 1.356 . S
N372 H378 0.984 . S
N372 H379 0.984 . S
N373 C366 1.356 . S
N373 H376 0.984 . S
N373 H377 0.985 . S
H374 N369 0.984 . S
H375 N369 0.985 . S
H376 N373 0.984 . S
H377 N373 0.985 . S
H378 N372 0.984 . S
H379 N372 0.984 . S
H380 N368 0.984 . S
H381 N368 0.985 . S
C382 C383 1.372 . S
C382 C388 1.379 . S
C382 N390 1.356 . S
C383 C382 1.372 . S
C383 C389 1.355 1_655 S
C384 C385 1.363 1_455 S
C384 C389 1.379 . S
C384 N391 1.356 . S
C385 C384 1.363 1_655 S
C385 C388 1.363 . S
N386 C388 1.356 1_556 S
N386 H398 0.984 . S
N386 H399 0.985 . S
N387 C389 1.356 . S
N387 H392 0.984 . S
N387 H393 0.985 . S
C388 C382 1.379 . S
C388 C385 1.363 . S
C388 N386 1.356 1_554 S
C389 C383 1.355 1_455 S
C389 C384 1.379 . S
C389 N387 1.356 . S
N390 C382 1.356 . S
N390 H396 0.984 . S
N390 H397 0.984 . S
N391 C384 1.356 . S
N391 H394 0.984 . S
N391 H395 0.985 . S
H392 N387 0.984 . S
H393 N387 0.985 . S
H394 N391 0.984 . S
H395 N391 0.985 . S
H396 N390 0.984 . S
H397 N390 0.984 . S
H398 N386 0.984 . S
H399 N386 0.985 . S
C400 C401 1.363 1_455 S
C400 C406 1.379 1_455 S
C400 N408 1.356 . S
C401 C400 1.363 1_655 S
C401 C407 1.363 . S
C402 C403 1.363 . S
C402 C407 1.379 . S
C402 N409 1.356 . S
C403 C402 1.363 . S
C403 C406 1.363 . S
N404 C406 1.356 . S
N404 H416 0.993 . S
N404 H417 0.985 . S
N405 C407 1.356 . S
N405 H410 0.984 . S
N405 H411 0.985 . S
C406 C400 1.379 1_655 S
C406 C403 1.363 . S
C406 N404 1.356 . S
C407 C401 1.363 . S
C407 C402 1.379 . S
C407 N405 1.356 . S
N408 C400 1.356 . S
N408 H414 0.984 . S
N408 H415 0.984 . S
N409 C402 1.356 . S
N409 H412 0.984 . S
N409 H413 0.985 . S
H410 N405 0.984 . S
H411 N405 0.985 . S
H412 N409 0.984 . S
H413 N409 0.985 . S
H414 N408 0.984 . S
H415 N408 0.984 . S
H416 N404 0.993 . S
H417 N404 0.985 . S
C418 C419 1.363 . S
C418 C424 1.379 . S
C418 N426 1.356 . S
C419 C418 1.363 . S
C419 C425 1.363 1_565 S
C420 C421 1.363 . S
C420 C425 1.379 1_565 S
C420 N427 1.356 . S
C421 C420 1.363 . S
C421 C424 1.363 . S
N422 C424 1.356 . S
N422 H434 0.984 . S
N422 H435 0.985 . S
N423 C425 1.356 . S
N423 H428 0.984 . S
N423 H429 0.985 . S
C424 C418 1.379 . S
C424 C421 1.363 . S
C424 N422 1.356 . S
C425 C419 1.363 1_545 S
C425 C420 1.379 1_545 S
C425 N423 1.356 . S
N426 C418 1.356 . S
N426 H432 0.984 1_554 S
N426 H433 0.984 . S
N427 C420 1.356 . S
N427 H430 0.984 . S
N427 H431 0.985 . S
H428 N423 0.984 . S
H429 N423 0.985 . S
H430 N427 0.984 . S
H431 N427 0.985 . S
H432 N426 0.984 1_556 S
H433 N426 0.984 . S
H434 N422 0.984 . S
H435 N422 0.985 . S
C436 C437 1.363 . S
C436 C442 1.379 . S
C436 N444 1.356 1_554 S
C437 C436 1.363 . S
C437 C443 1.363 . S
C438 C439 1.363 . S
C438 C443 1.379 . S
C438 N445 1.356 . S
C439 C438 1.363 . S
C439 C442 1.363 . S
N440 C442 1.356 . S
N440 H452 0.984 . S
N440 H453 0.985 . S
N441 C443 1.356 . S
N441 H446 0.984 . S
N441 H447 0.985 . S
C442 C436 1.379 . S
C442 C439 1.363 . S
C442 N440 1.356 . S
C443 C437 1.363 . S
C443 C438 1.379 . S
C443 N441 1.356 . S
N444 C436 1.356 1_556 S
N444 H450 0.984 . S
N444 H451 0.984 . S
N445 C438 1.356 . S
N445 H448 0.984 . S
N445 H449 0.985 . S
H446 N441 0.984 . S
H447 N441 0.985 . S
H448 N445 0.984 . S
H449 N445 0.985 . S
H450 N444 0.984 . S
H451 N444 0.984 . S
H452 N440 0.984 . S
H453 N440 0.985 . S
C454 C455 1.363 . S
C454 C460 1.379 . S
C454 N462 1.356 1_554 S
C455 C454 1.363 . S
C455 C461 1.363 . S
C456 C457 1.363 . S
C456 C461 1.379 . S
C456 N463 1.356 . S
C457 C456 1.363 . S
C457 C460 1.363 . S
N458 C460 1.356 . S
N458 H470 0.984 . S
N458 H471 0.985 . S
N459 C461 1.356 . S
N459 H464 0.984 . S
N459 H465 0.985 . S
C460 C454 1.379 . S
C460 C457 1.363 . S
C460 N458 1.356 . S
C461 C455 1.363 . S
C461 C456 1.379 . S
C461 N459 1.356 . S
N462 C454 1.356 1_556 S
N462 H468 0.984 . S
N462 H469 0.984 . S
N463 C456 1.356 . S
N463 H466 0.984 . S
N463 H467 0.985 . S
H464 N459 0.984 . S
H465 N459 0.985 . S
H466 N463 0.984 . S
H467 N463 0.985 . S
H468 N462 0.984 . S
H469 N462 0.984 . S
H470 N458 0.984 . S
H471 N458 0.985 . S
C472 C473 1.363 . S
C472 C478 1.379 . S
C472 N480 1.356 . S
C473 C472 1.363 . S
C473 C479 1.363 . S
C474 C475 1.363 . S
C474 C479 1.379 . S
C474 N481 1.356 . S
C475 C474 1.363 . S
C475 C478 1.363 . S
N476 C478 1.356 . S
N476 H488 0.984 . S
N476 H489 0.985 . S
N477 C479 1.356 1_655 S
N477 H482 0.984 . S
N477 H483 0.985 . S
C478 C472 1.379 . S
C478 C475 1.363 . S
C478 N476 1.356 . S
C479 C473 1.363 . S
C479 C474 1.379 . S
C479 N477 1.356 1_455 S
N480 C472 1.356 . S
N480 H486 0.984 . S
N480 H487 0.984 1_455 S
N481 C474 1.356 . S
N481 H484 0.984 . S
N481 H485 0.985 . S
H482 N477 0.984 . S
H483 N477 0.985 . S
H484 N481 0.984 . S
H485 N481 0.985 . S
H486 N480 0.984 . S
H487 N480 0.984 1_655 S
H488 N476 0.984 . S
H489 N476 0.985 . S
C490 C491 1.363 . S
C490 C496 1.379 . S
C490 N498 1.356 1_545 S
C491 C490 1.363 . S
C491 C497 1.363 . S
C492 C493 1.363 . S
C492 C497 1.379 . S
C492 N499 1.356 . S
C493 C492 1.363 . S
C493 C496 1.363 . S
N494 C496 1.356 . S
N494 H506 0.984 . S
N494 H507 0.985 . S
N495 C497 1.359 . S
N495 H500 0.980 1_545 S
N495 H501 0.986 . S
C496 C490 1.379 . S
C496 C493 1.363 . S
C496 N494 1.356 . S
C497 C491 1.363 . S
C497 C492 1.379 . S
C497 N495 1.359 . S
N498 C490 1.356 1_565 S
N498 H504 0.984 . S
N498 H505 0.984 . S
N499 C492 1.356 . S
N499 H502 0.984 . S
N499 H503 0.985 . S
H500 N495 0.980 1_565 S
H501 N495 0.986 . S
H502 N499 0.984 . S
H503 N499 0.985 . S
H504 N498 0.984 . S
H505 N498 0.984 . S
H506 N494 0.984 . S
H507 N494 0.985 . S
C508 C509 1.363 . S
C508 C514 1.379 . S
C508 N516 1.356 . S
C509 C508 1.363 . S
C509 C515 1.363 . S
C510 C511 1.363 . S
C510 C515 1.379 . S
C510 N517 1.356 . S
C511 C510 1.363 . S
C511 C514 1.363 . S
N512 C514 1.356 . S
N512 H524 0.984 . S
N512 H525 0.985 . S
N513 C515 1.356 . S
N513 H518 0.984 . S
N513 H519 0.985 . S
C514 C508 1.379 . S
C514 C511 1.363 . S
C514 N512 1.356 . S
C515 C509 1.363 . S
C515 C510 1.379 . S
C515 N513 1.356 . S
N516 C508 1.356 . S
N516 H522 0.984 . S
N516 H523 0.984 . S
N517 C510 1.356 . S
N517 H520 0.984 . S
N517 H521 0.985 . S
H518 N513 0.984 . S
H519 N513 0.985 . S
H520 N517 0.984 . S
H521 N517 0.985 . S
H522 N516 0.984 . S
H523 N516 0.984 . S
H524 N512 0.984 . S
H525 N512 0.985 . S
C526 C527 1.363 . S
C526 C532 1.379 . S
C526 N534 1.356 . S
C527 C526 1.363 . S
C527 C533 1.363 . S
C528 C529 1.363 . S
C528 C533 1.379 . S
C528 N535 1.356 . S
C529 C528 1.363 . S
C529 C532 1.363 . S
N530 C532 1.356 . S
N530 H542 0.984 . S
N530 H543 0.985 . S
N531 C533 1.356 . S
N531 H536 0.984 . S
N531 H537 0.985 . S
C532 C526 1.379 . S
C532 C529 1.363 . S
C532 N530 1.356 . S
C533 C527 1.363 . S
C533 C528 1.379 . S
C533 N531 1.356 . S
N534 C526 1.356 . S
N534 H540 0.984 . S
N534 H541 0.984 . S
N535 C528 1.356 . S
N535 H538 0.984 . S
N535 H539 0.985 . S
H536 N531 0.984 . S
H537 N531 0.985 . S
H538 N535 0.984 . S
H539 N535 0.985 . S
H540 N534 0.984 . S
H541 N534 0.984 . S
H542 N530 0.984 . S
H543 N530 0.985 . S
C544 C545 1.363 . S
C544 C550 1.379 . S
C544 N552 1.356 1_556 S
C545 C544 1.363 . S
C545 C551 1.363 1_455 S
C546 C547 1.363 1_655 S
C546 C551 1.379 . S
C546 N553 1.356 . S
C547 C546 1.363 1_455 S
C547 C550 1.363 . S
N548 C550 1.356 1_554 S
N548 H560 0.984 . S
N548 H561 0.985 . S
N549 C551 1.356 . S
N549 H554 0.984 . S
N549 H555 0.985 . S
C550 C544 1.379 . S
C550 C547 1.363 . S
C550 N548 1.356 1_556 S
C551 C545 1.363 1_655 S
C551 C546 1.379 . S
C551 N549 1.356 . S
N552 C544 1.356 1_554 S
N552 H558 0.984 . S
N552 H559 0.984 1_554 S
N553 C546 1.356 . S
N553 H556 0.984 . S
N553 H557 0.985 . S
H554 N549 0.984 . S
H555 N549 0.985 . S
H556 N553 0.984 . S
H557 N553 0.985 . S
H558 N552 0.984 . S
H559 N552 0.984 1_556 S
H560 N548 0.984 . S
H561 N548 0.985 . S
C562 C563 1.363 . S
C562 C568 1.379 . S
C562 N570 1.356 . S
C563 C562 1.363 . S
C563 C569 1.363 . S
C564 C565 1.363 . S
C564 C569 1.379 . S
C564 N571 1.356 1_556 S
C565 C564 1.363 . S
C565 C568 1.363 . S
N566 C568 1.356 . S
N566 H578 0.984 . S
N566 H579 0.985 . S
N567 C569 1.356 1_564 S
N567 H572 0.984 . S
N567 H573 0.985 . S
C568 C562 1.379 . S
C568 C565 1.363 . S
C568 N566 1.356 . S
C569 C563 1.363 . S
C569 C564 1.379 . S
C569 N567 1.356 1_546 S
N570 C562 1.356 . S
N570 H576 0.984 . S
N570 H577 0.984 . S
N571 C564 1.356 1_554 S
N571 H574 0.984 . S
N571 H575 0.985 . S
H572 N567 0.984 . S
H573 N567 0.985 . S
H574 N571 0.984 . S
H575 N571 0.985 . S
H576 N570 0.984 . S
H577 N570 0.984 . S
H578 N566 0.984 . S
H579 N566 0.985 . S
C580 C581 1.363 . S
C580 C586 1.379 . S
C580 N588 1.356 . S
C581 C580 1.363 . S
C581 C587 1.363 . S
C582 C583 1.363 . S
C582 C587 1.379 . S
C582 N589 1.356 . S
C583 C582 1.363 . S
C583 C586 1.363 . S
N584 C586 1.356 1_554 S
N584 H596 0.984 . S
N584 H597 0.986 . S
N585 C587 1.356 . S
N585 H590 0.984 . S
N585 H591 0.985 . S
C586 C580 1.379 . S
C586 C583 1.363 . S
C586 N584 1.356 1_556 S
C587 C581 1.363 . S
C587 C582 1.379 . S
C587 N585 1.356 . S
N588 C580 1.356 . S
N588 H594 0.984 1_556 S
N588 H595 0.984 . S
N589 C582 1.356 . S
N589 H592 0.984 . S
N589 H593 0.985 . S
H590 N585 0.984 . S
H591 N585 0.985 . S
H592 N589 0.984 . S
H593 N589 0.985 . S
H594 N588 0.984 1_554 S
H595 N588 0.984 . S
H596 N584 0.984 . S
H597 N584 0.986 . S
C598 C599 1.363 . S
C598 C604 1.379 . S
C598 N606 1.356 1_556 S
C599 C598 1.363 . S
C599 C605 1.363 . S
C600 C601 1.363 . S
C600 C605 1.379 . S
C600 N607 1.356 . S
C601 C600 1.363 . S
C601 C604 1.363 . S
N602 C604 1.356 1_554 S
N602 H614 0.984 . S
N602 H615 0.985 . S
N603 C605 1.356 . S
N603 H608 0.984 . S
N603 H609 0.985 . S
C604 C598 1.379 . S
C604 C601 1.363 . S
C604 N602 1.356 1_556 S
C605 C599 1.363 . S
C605 C600 1.379 . S
C605 N603 1.356 . S
N606 C598 1.356 1_554 S
N606 H612 0.984 . S
N606 H613 0.982 1_554 S
N607 C600 1.356 . S
N607 H610 0.984 . S
N607 H611 0.985 . S
H608 N603 0.984 . S
H609 N603 0.985 . S
H610 N607 0.984 . S
H611 N607 0.985 . S
H612 N606 0.984 . S
H613 N606 0.982 1_556 S
H614 N602 0.984 . S
H615 N602 0.985 . S
C616 C617 1.363 1_455 S
C616 C622 1.379 . S
C616 N624 1.356 . S
C617 C616 1.363 1_655 S
C617 C623 1.363 . S
C618 C619 1.363 . S
C618 C623 1.379 . S
C618 N625 1.356 . S
C619 C618 1.363 . S
C619 C622 1.363 1_655 S
N620 C622 1.356 . S
N620 H632 0.984 . S
N620 H633 0.985 . S
N621 C623 1.356 . S
N621 H626 0.984 . S
N621 H627 0.985 . S
C622 C616 1.379 . S
C622 C619 1.363 1_455 S
C622 N620 1.356 . S
C623 C617 1.363 . S
C623 C618 1.379 . S
C623 N621 1.356 . S
N624 C616 1.356 . S
N624 H630 0.984 . S
N624 H631 0.984 . S
N625 C618 1.356 . S
N625 H628 0.984 . S
N625 H629 0.985 . S
H626 N621 0.984 . S
H627 N621 0.985 . S
H628 N625 0.984 . S
H629 N625 0.985 . S
H630 N624 0.984 . S
H631 N624 0.984 . S
H632 N620 0.984 . S
H633 N620 0.985 . S
C634 C635 1.363 . S
C634 C640 1.379 . S
C634 N642 1.356 . S
C635 C634 1.363 . S
C635 C641 1.363 . S
C636 C637 1.363 . S
C636 C641 1.379 . S
C636 N643 1.356 . S
C637 C636 1.363 . S
C637 C640 1.363 . S
N638 C640 1.356 . S
N638 H650 0.984 1_556 S
N638 H651 0.985 . S
N639 C641 1.356 1_545 S
N639 H644 0.984 . S
N639 H645 0.985 . S
C640 C634 1.379 . S
C640 C637 1.363 . S
C640 N638 1.356 . S
C641 C635 1.363 . S
C641 C636 1.379 . S
C641 N639 1.356 1_565 S
N642 C634 1.356 . S
N642 H648 0.984 1_556 S
N642 H649 0.984 . S
N643 C636 1.356 . S
N643 H646 0.984 . S
N643 H647 0.987 . S
H644 N639 0.984 . S
H645 N639 0.985 . S
H646 N643 0.984 . S
H647 N643 0.987 . S
H648 N642 0.984 1_554 S
H649 N642 0.984 . S
H650 N638 0.984 1_554 S
H651 N638 0.985 . S
C652 C653 1.363 . S
C652 C658 1.379 . S
C652 N660 1.356 . S
C653 C652 1.363 . S
C653 C659 1.363 . S
C654 C655 1.363 . S
C654 C659 1.379 . S
C654 N661 1.356 . S
C655 C654 1.363 . S
C655 C658 1.363 . S
N656 C658 1.356 . S
N656 H668 0.984 . S
N656 H669 0.985 . S
N657 C659 1.356 . S
N657 H662 0.984 . S
N657 H663 0.985 . S
C658 C652 1.379 . S
C658 C655 1.363 . S
C658 N656 1.356 . S
C659 C653 1.363 . S
C659 C654 1.379 . S
C659 N657 1.356 . S
N660 C652 1.356 . S
N660 H666 0.984 1_556 S
N660 H667 0.984 . S
N661 C654 1.356 . S
N661 H664 0.984 . S
N661 H665 0.985 . S
H662 N657 0.984 . S
H663 N657 0.985 . S
H664 N661 0.984 . S
H665 N661 0.985 . S
H666 N660 0.984 1_554 S
H667 N660 0.984 . S
H668 N656 0.984 . S
H669 N656 0.985 . S
C670 C671 1.363 . S
C670 C676 1.379 . S
C670 N678 1.356 . S
C671 C670 1.363 . S
C671 C677 1.363 . S
C672 C673 1.363 . S
C672 C677 1.379 . S
C672 N679 1.356 . S
C673 C672 1.363 . S
C673 C676 1.363 . S
N674 C676 1.356 . S
N674 H686 0.984 . S
N674 H687 0.985 . S
N675 C677 1.356 . S
N675 H680 0.984 . S
N675 H681 0.985 . S
C676 C670 1.379 . S
C676 C673 1.363 . S
C676 N674 1.356 . S
C677 C671 1.363 . S
C677 C672 1.379 . S
C677 N675 1.356 . S
N678 C670 1.356 . S
N678 H684 0.984 . S
N678 H685 0.984 . S
N679 C672 1.356 . S
N679 H682 0.984 . S
N679 H683 0.985 . S
H680 N675 0.984 . S
H681 N675 0.985 . S
H682 N679 0.984 . S
H683 N679 0.985 . S
H684 N678 0.984 . S
H685 N678 0.984 . S
H686 N674 0.984 . S
H687 N674 0.985 . S
C257 C76 1.921 1_545 S
C259 C105 2.202 1_545 S
C277 C145 2.221 . S
C275 C88 1.941 . S
C295 C185 2.232 . S
C293 C52 1.957 . S
C313 C225 2.214 1_455 S
C311 C64 1.935 1_455 S
C331 C114 2.204 1_564 S
C329 C28 1.925 . S
C347 C40 1.939 . S
C349 C154 2.223 1_554 S
C365 C4 1.952 . S
C367 C194 2.232 1_554 S
C383 C16 1.936 . S
C385 C234 2.215 1_654 S
C403 C111 0.826 . S
C401 C69 0.831 1_655 S
C421 C151 0.824 . S
C419 C81 0.829 1_565 S
C439 C191 0.814 . S
C437 C93 0.822 . S
C455 C57 0.824 . S
C457 C231 0.811 . S
C473 C21 0.832 . S
C475 C102 0.828 . S
C493 C142 0.824 . S
C491 C33 0.829 . S
C511 C182 0.814 . S
C509 C45 0.817 . S
C527 C9 0.818 . S
C529 C222 0.817 . S
C545 C66 2.262 . S
C547 C115 2.583 . S
C563 C78 2.222 . S
C565 C155 2.547 . S
C583 C195 2.533 . S
C581 C90 2.207 . S
C601 C235 2.574 . S
C599 C54 2.243 . S
C617 C18 2.274 1_655 S
C619 C106 2.591 . S
C637 C146 2.547 . S
C635 C30 2.233 1_565 S
C655 C186 2.533 . S
C653 C42 2.226 . S
C671 C6 2.264 . S
C673 C226 2.578 . S
