# Generated by pormake.
# Topology dag, (6,3)-cn, num edge types: 1
# Building blocks:
#     Node 0, Type 0, BuildingBlock: IZENUY_clean_sbu_0, # of connection points: 6
#     Node 1, Type 0, BuildingBlock: IZENUY_clean_sbu_0, # of connection points: 6
#     Node 2, Type 0, BuildingBlock: IZENUY_clean_sbu_0, # of connection points: 6
#     Node 3, Type 0, BuildingBlock: IZENUY_clean_sbu_0, # of connection points: 6
#     Node 4, Type 1, BuildingBlock: MIDCAF_clean_linker_0, # of connection points: 3
#     Node 5, Type 1, BuildingBlock: MIDCAF_clean_linker_0, # of connection points: 3
#     Node 6, Type 1, BuildingBlock: MIDCAF_clean_linker_0, # of connection points: 3
#     Node 7, Type 1, BuildingBlock: MIDCAF_clean_linker_0, # of connection points: 3
#     Node 8, Type 1, BuildingBlock: MIDCAF_clean_linker_0, # of connection points: 3
#     Node 9, Type 1, BuildingBlock: MIDCAF_clean_linker_0, # of connection points: 3
#     Node 10, Type 1, BuildingBlock: MIDCAF_clean_linker_0, # of connection points: 3
#     Node 11, Type 1, BuildingBlock: MIDCAF_clean_linker_0, # of connection points: 3
#     Edge 12, Type (0, 1), None
#     Edge 13, Type (0, 1), None
#     Edge 14, Type (0, 1), None
#     Edge 15, Type (0, 1), None
#     Edge 16, Type (0, 1), None
#     Edge 17, Type (0, 1), None
#     Edge 18, Type (0, 1), None
#     Edge 19, Type (0, 1), None
#     Edge 20, Type (0, 1), None
#     Edge 21, Type (0, 1), None
#     Edge 22, Type (0, 1), None
#     Edge 23, Type (0, 1), None
#     Edge 24, Type (0, 1), None
#     Edge 25, Type (0, 1), None
#     Edge 26, Type (0, 1), None
#     Edge 27, Type (0, 1), None
#     Edge 28, Type (0, 1), None
#     Edge 29, Type (0, 1), None
#     Edge 30, Type (0, 1), None
#     Edge 31, Type (0, 1), None
#     Edge 32, Type (0, 1), None
#     Edge 33, Type (0, 1), None
#     Edge 34, Type (0, 1), None
#     Edge 35, Type (0, 1), None
# Relax obj value: 0.260
# Max RMSD: 0.197
# Mean RMSD: 0.162
data_MOF--net-dag--node1-IZENUY_clean_sbu_0--node2-MIDCAF_clean_linker_0--edge1-none
_symmetry_space_group_name_H-M    P1
_symmetry_Int_Tables_number       1
_symmetry_cell_setting            triclinic
loop_
_symmetry_equiv_pos_as_xyz
'x, y, z'
_cell_length_a     25.612301
_cell_length_b     26.654384
_cell_length_c     22.518408
_cell_angle_alpha  95.006002
_cell_angle_beta   90.211641
_cell_angle_gamma 90.10281
loop_
_atom_site_label
_atom_site_type_symbol
_atom_site_fract_x
_atom_site_fract_y
_atom_site_fract_z
_atom_type_partial_charge
Fe0 Fe 0.22276 0.85444 0.10068 0.0
Fe1 Fe 0.11993 0.87887 0.04171 0.0
O2 O 0.16286 0.83372 0.06683 0.0
Fe3 Fe 0.14683 0.76855 0.05791 0.0
O4 O 0.15252 0.76304 0.1378 0.0
O5 O 0.22765 0.80256 0.14802 0.0
O6 O 0.1886 0.88988 0.1616 0.0
C7 C 0.15393 0.92221 0.15323 0.0
C8 C 0.25356 0.7734 0.02644 0.0
O9 O 0.13658 0.92721 0.10138 0.0
C10 C 0.11298 0.79937 0.9511 0.0
O11 O 0.22974 0.91075 0.05958 0.0
O12 O 0.16875 0.90042 0.9917 0.0
O13 O 0.21489 0.74891 0.04439 0.0
O14 O 0.25908 0.81992 0.04162 0.0
C15 C 0.04973 0.81625 0.08856 0.0
O16 O 0.09519 0.83877 0.97866 0.0
O17 O 0.13999 0.76838 0.97714 0.0
C18 C 0.21166 0.91947 0.0092 0.0
O19 O 0.06828 0.86006 0.08898 0.0
O20 O 0.07587 0.77794 0.06905 0.0
C21 C 0.19301 0.77484 0.16802 0.0
Fe22 Fe 0.72311 0.64227 0.48554 0.0
Fe23 Fe 0.64673 0.72799 0.52601 0.0
O24 O 0.66326 0.66296 0.51884 0.0
Fe25 Fe 0.62093 0.61785 0.54516 0.0
O26 O 0.67028 0.59793 0.59588 0.0
O27 O 0.73071 0.58683 0.52805 0.0
O28 O 0.75947 0.67807 0.54388 0.0
C29 C 0.75371 0.72469 0.55807 0.0
C30 C 0.65447 0.57304 0.43454 0.0
O31 O 0.71471 0.74851 0.53965 0.0
C32 C 0.54984 0.67855 0.49642 0.0
O33 O 0.72755 0.69325 0.43692 0.0
O34 O 0.65228 0.73222 0.44587 0.0
O35 O 0.63766 0.56873 0.48663 0.0
O36 O 0.68879 0.60556 0.42533 0.0
C37 C 0.61328 0.69896 0.63368 0.0
O38 O 0.57582 0.71757 0.51451 0.0
O39 O 0.56884 0.63509 0.4973 0.0
C40 C 0.69281 0.72043 0.41616 0.0
O41 O 0.6399 0.72968 0.60685 0.0
O42 O 0.59615 0.65867 0.60723 0.0
C43 C 0.71312 0.57889 0.57877 0.0
Fe44 Fe 0.85974 0.22595 0.04069 0.0
Fe45 Fe 0.88373 0.11586 0.05411 0.0
O46 O 0.84209 0.16152 0.02784 0.0
Fe47 Fe 0.78383 0.14245 0.98951 0.0
O48 O 0.80246 0.17396 0.92522 0.0
O49 O 0.82933 0.2451 0.97197 0.0
O50 O 0.92026 0.21605 -0.00093 0.0
C51 C 0.95504 0.18641 0.01457 0.0
C52 C 0.75516 0.22953 0.06486 0.0
O53 O 0.94382 0.15264 0.04854 0.0
C54 C 0.78441 0.07492 0.07353 0.0
O55 O 0.89243 0.21855 0.11322 0.0
O56 O 0.87269 0.14091 0.12992 0.0
O57 O 0.74563 0.19695 0.02151 0.0
O58 O 0.80111 0.23968 0.08223 0.0
C59 C 0.86094 0.07268 0.94297 0.0
O60 O 0.8327 0.06964 0.0647 0.0
O61 O 0.75949 0.10893 0.05066 0.0
C62 C 0.88577 0.18493 0.14931 0.0
O63 O 0.8959 0.08909 0.9793 0.0
O64 O 0.81325 0.08487 0.95124 0.0
C65 C 0.81326 0.21997 0.92509 0.0
Fe66 Fe 0.38301 0.38031 0.53255 0.0
Fe67 Fe 0.28355 0.35405 0.59774 0.0
O68 O 0.34177 0.33488 0.55998 0.0
Fe69 Fe 0.35975 0.2705 0.54882 0.0
O70 O 0.42034 0.28171 0.59057 0.0
O71 O 0.44332 0.34431 0.5395 0.0
O72 O 0.39529 0.40868 0.60678 0.0
C73 C 0.36043 0.42538 0.64268 0.0
C74 C 0.3854 0.30959 0.43908 0.0
O75 O 0.31281 0.41243 0.63479 0.0
C76 C 0.25513 0.2656 0.52417 0.0
O77 O 0.33169 0.42571 0.52041 0.0
O78 O 0.25872 0.38632 0.53567 0.0
O79 O 0.39226 0.27682 0.4762 0.0
O80 O 0.37189 0.35369 0.45722 0.0
C81 C 0.31339 0.27793 0.66417 0.0
O82 O 0.24557 0.29878 0.56678 0.0
O83 O 0.30107 0.25556 0.50723 0.0
C84 C 0.28335 0.41997 0.51181 0.0
O85 O 0.30257 0.32382 0.66299 0.0
O86 O 0.32958 0.25229 0.6179 0.0
C87 C 0.45487 0.31135 0.57444 0.0
C88 C 0.89519 0.1555 0.25034 0.0
C89 C 0.90835 0.19085 0.21 0.0
C90 C 0.95134 0.22289 0.22289 0.0
C91 C 0.98509 0.21421 0.27001 0.0
H92 H 0.08598 0.24393 0.45087 0.0
H93 H 0.15261 0.29215 0.50996 0.0
H94 H 0.26218 0.17063 0.47237 0.0
H95 H 0.19668 0.12268 0.41456 0.0
H96 H 0.17381 0.031 0.32511 0.0
H97 H 0.20609 0.9637 0.2532 0.0
H98 H 0.05643 0.95849 0.16414 0.0
H99 H 0.02387 0.02395 0.23542 0.0
H100 H 0.92146 0.11487 0.32257 0.0
H101 H 0.86176 0.13084 0.24209 0.0
H102 H 0.96232 0.25059 0.19274 0.0
H103 H 0.02143 0.23508 0.27463 0.0
N104 N 0.05351 0.17416 0.36992 0.0
N105 N 0.11126 0.10532 0.36106 0.0
N106 N 0.03388 0.10236 0.30601 0.0
C107 C 0.09847 0.15188 0.38658 0.0
C108 C 0.07913 0.08028 0.32069 0.0
C109 C 0.02067 0.14883 0.33038 0.0
C110 C 0.13611 0.17967 0.42725 0.0
C111 C 0.12416 0.22737 0.45582 0.0
C112 C 0.1621 0.2549 0.48983 0.0
C113 C 0.2126 0.23534 0.495 0.0
C114 C 0.22374 0.18697 0.46845 0.0
C115 C 0.18597 0.15938 0.43533 0.0
C116 C 0.09646 0.03365 0.2855 0.0
C117 C 0.14748 0.01469 0.29093 0.0
C118 C 0.16607 0.97626 0.24984 0.0
C119 C 0.13409 0.95693 0.20249 0.0
C120 C 0.08229 0.97358 0.19954 0.0
C121 C 0.06357 0.0111 0.2407 0.0
C122 C 0.97603 0.17344 0.30415 0.0
C123 C 0.92909 0.14654 0.29676 0.0
C124 C 0.42826 0.47898 0.69713 0.0
C125 C 0.37534 0.46575 0.68917 0.0
C126 C 0.33758 0.49351 0.72316 0.0
C127 C 0.35233 0.53535 0.7617 0.0
H128 H 0.31411 0.63146 0.91488 0.0
H129 H 0.25279 0.67463 0.98313 0.0
H130 H 0.34355 0.81151 0.98219 0.0
H131 H 0.40532 0.76814 0.91361 0.0
H132 H 0.48008 0.75437 0.75282 0.0
H133 H 0.54207 0.76932 0.67368 0.0
H134 H 0.63933 0.64957 0.72791 0.0
H135 H 0.57718 0.63398 0.80585 0.0
H136 H 0.48387 0.53067 0.73841 0.0
H137 H 0.45859 0.45805 0.67246 0.0
H138 H 0.29653 0.48413 0.71836 0.0
H139 H 0.32221 0.55733 0.78539 0.0
N140 N 0.38812 0.62338 0.83928 0.0
N141 N 0.44526 0.69296 0.84813 0.0
N142 N 0.46548 0.6213 0.78453 0.0
C143 C 0.40056 0.67015 0.86466 0.0
C144 C 0.47816 0.6681 0.80869 0.0
C145 C 0.42047 0.59873 0.79914 0.0
C146 C 0.36456 0.69637 0.90828 0.0
C147 C 0.32127 0.67072 0.92925 0.0
C148 C 0.28609 0.69548 0.96871 0.0
C149 C 0.29319 0.74657 0.98814 0.0
C150 C 0.33697 0.77209 0.96814 0.0
C151 C 0.37238 0.74721 0.92873 0.0
C152 C 0.52388 0.69272 0.78473 0.0
C153 C 0.5165 0.73369 0.7504 0.0
C154 C 0.55211 0.74246 0.7053 0.0
C155 C 0.59526 0.71054 0.69499 0.0
C156 C 0.60663 0.67505 0.73565 0.0
C157 C 0.57094 0.66593 0.78004 0.0
C158 C 0.40504 0.55024 0.7666 0.0
C159 C 0.44287 0.52072 0.73512 0.0
C160 C 0.68087 0.78835 0.34605 0.0
C161 C 0.70464 0.74345 0.36031 0.0
C162 C 0.74398 0.72209 0.32289 0.0
C163 C 0.76132 0.74628 0.27431 0.0
H164 H 0.9031 0.76291 0.18733 0.0
H165 H 0.99662 0.75704 0.1627 0.0
H166 H 0.97577 0.86685 0.03492 0.0
H167 H 0.88356 0.87205 0.0575 0.0
H168 H 0.72789 0.91287 0.0463 0.0
H169 H 0.7383 0.99643 0.01084 0.0
H170 H 0.77446 0.05778 0.18971 0.0
H171 H 0.76225 0.9744 0.2256 0.0
H172 H 0.6807 0.84831 0.28841 0.0
H173 H 0.6504 0.80565 0.37404 0.0
H174 H 0.76256 0.68708 0.33206 0.0
H175 H 0.79261 0.72901 0.24757 0.0
N176 N 0.80926 0.80474 0.18901 0.0
N177 N 0.80797 0.87177 0.12899 0.0
N178 N 0.74 0.86304 0.19678 0.0
C179 C 0.83208 0.8304 0.14655 0.0
C180 C 0.76224 0.88816 0.15337 0.0
C181 C 0.76282 0.8203 0.2137 0.0
C182 C 0.88585 0.81866 0.12521 0.0
C183 C 0.9183 0.78486 0.15297 0.0
C184 C 0.97172 0.78148 0.13909 0.0
C185 C 0.99313 0.81226 0.09792 0.0
C186 C 0.96016 0.8434 0.06766 0.0
C187 C 0.9072 0.84626 0.08068 0.0
C188 C 0.74366 0.93759 0.13867 0.0
C189 C 0.73427 0.9449 0.0786 0.0
C190 C 0.74037 0.9926 0.05832 0.0
C191 C 0.75673 0.03321 0.09781 0.0
C192 C 0.76071 0.02706 0.15888 0.0
C193 C 0.7535 0.97948 0.17938 0.0
C194 C 0.73984 0.79262 0.26168 0.0
C195 C 0.6984 0.81281 0.29711 0.0
C196 C 0.80879 0.29753 0.8692 0.0
C197 C 0.79809 0.24607 0.87225 0.0
C198 C 0.76841 0.22037 0.82644 0.0
C199 C 0.74778 0.24594 0.78035 0.0
H200 H 0.58592 0.27722 0.7089 0.0
H201 H 0.49537 0.26979 0.67258 0.0
H202 H 0.5394 0.342 0.51569 0.0
H203 H 0.62862 0.34913 0.55134 0.0
H204 H 0.779 0.41823 0.57396 0.0
H205 H 0.77078 0.49919 0.53193 0.0
H206 H 0.70019 0.56235 0.6957 0.0
H207 H 0.70995 0.48141 0.73789 0.0
H208 H 0.79656 0.36293 0.82194 0.0
H209 H 0.83159 0.31838 0.9037 0.0
H210 H 0.75943 0.1807 0.82712 0.0
H211 H 0.72412 0.22514 0.74661 0.0
N212 N 0.68792 0.30598 0.7035 0.0
N213 N 0.68602 0.37427 0.64515 0.0
N214 N 0.75201 0.36969 0.71678 0.0
C215 C 0.66485 0.33064 0.66016 0.0
C216 C 0.72924 0.39388 0.6729 0.0
C217 C 0.73207 0.32493 0.7313 0.0
C218 C 0.61409 0.31454 0.6334 0.0
C219 C 0.57635 0.29007 0.66587 0.0
C220 C 0.52455 0.28601 0.64526 0.0
C221 C 0.51013 0.30644 0.59209 0.0
C222 C 0.54899 0.32694 0.55754 0.0
C223 C 0.60027 0.33086 0.57788 0.0
C224 C 0.74558 0.44413 0.65914 0.0
C225 C 0.7647 0.45035 0.60201 0.0
C226 C 0.75952 0.49661 0.57789 0.0
C227 C 0.73374 0.53672 0.61014 0.0
C228 C 0.71976 0.53188 0.6697 0.0
C229 C 0.7259 0.48584 0.69414 0.0
C230 C 0.75692 0.29768 0.77833 0.0
C231 C 0.78869 0.32303 0.8224 0.0
C232 C 0.39523 0.33727 0.33726 0.0
C233 C 0.40834 0.30284 0.37878 0.0
C234 C 0.45155 0.27103 0.36735 0.0
C235 C 0.48552 0.27915 0.32047 0.0
H236 H 0.58637 0.24913 0.13848 0.0
H237 H 0.65289 0.20183 0.07898 0.0
H238 H 0.76194 0.32423 0.11749 0.0
H239 H 0.69659 0.37126 0.17563 0.0
H240 H 0.67324 0.46352 0.26327 0.0
H241 H 0.70562 0.53175 0.3343 0.0
H242 H 0.55759 0.53445 0.42551 0.0
H243 H 0.52494 0.46804 0.35513 0.0
H244 H 0.42169 0.37673 0.26429 0.0
H245 H 0.36166 0.36172 0.34438 0.0
H246 H 0.46252 0.24404 0.39843 0.0
H247 H 0.522 0.2586 0.31698 0.0
N248 N 0.55386 0.3186 0.21975 0.0
N249 N 0.61143 0.38785 0.22873 0.0
N250 N 0.53432 0.39034 0.28355 0.0
C251 C 0.59869 0.34118 0.20323 0.0
C252 C 0.57943 0.41269 0.269 0.0
C253 C 0.52113 0.34377 0.25918 0.0
C254 C 0.63626 0.31377 0.16255 0.0
C255 C 0.62441 0.26607 0.13365 0.0
C256 C 0.66229 0.23907 0.09941 0.0
C257 C 0.71262 0.25916 0.09434 0.0
C258 C 0.72365 0.30749 0.1213 0.0
C259 C 0.68594 0.33455 0.15463 0.0
C260 C 0.59672 0.45956 0.304 0.0
C261 C 0.64729 0.47943 0.29778 0.0
C262 C 0.66594 0.51839 0.33837 0.0
C263 C 0.63448 0.53737 0.38603 0.0
C264 C 0.58308 0.51968 0.38987 0.0
C265 C 0.5643 0.48161 0.3492 0.0
C266 C 0.47643 0.3191 0.28506 0.0
C267 C 0.42932 0.34564 0.29105 0.0
C268 C 0.30892 0.20117 0.72142 0.0
C269 C 0.29796 0.25241 0.7173 0.0
C270 C 0.26769 0.27827 0.7621 0.0
C271 C 0.24682 0.25304 0.80827 0.0
H272 H 0.08517 0.22167 0.88046 0.0
H273 H 0.99471 0.22822 0.91645 0.0
H274 H 0.04009 0.15748 0.07415 0.0
H275 H 0.12926 0.15131 0.0389 0.0
H276 H 0.27743 0.08063 0.01669 0.0
H277 H 0.26889 -0.00075 0.05774 0.0
H278 H 0.19879 0.93708 0.8925 0.0
H279 H 0.20893 0.01842 0.85128 0.0
H280 H 0.29673 0.13627 0.76952 0.0
H281 H 0.33213 0.18017 0.68771 0.0
H282 H 0.25846 0.31778 0.76054 0.0
H283 H 0.22274 0.27395 0.84122 0.0
N284 N 0.18756 0.19361 0.8863 0.0
N285 N 0.18558 0.12544 0.94489 0.0
N286 N 0.25111 0.12967 0.87322 0.0
C287 C 0.16461 0.16909 0.92976 0.0
C288 C 0.22847 0.10564 0.91717 0.0
C289 C 0.23143 0.17448 0.85856 0.0
C290 C 0.11404 0.1852 0.95643 0.0
C291 C 0.07593 0.20903 0.92364 0.0
C292 C 0.02419 0.21257 0.94405 0.0
C293 C 0.01019 0.19222 0.99732 0.0
C294 C 0.04939 0.17247 0.03223 0.0
C295 C 0.10062 0.16911 0.01211 0.0
C296 C 0.24435 0.05525 0.93083 0.0
C297 C 0.26315 0.04866 0.98815 0.0
C298 C 0.25779 0.00216 0.0117 0.0
C299 C 0.23212 0.96218 0.97868 0.0
C300 C 0.21829 0.96745 0.91907 0.0
C301 C 0.22466 0.01371 0.89519 0.0
C302 C 0.25628 0.20148 0.81137 0.0
C303 C 0.28856 0.17602 0.76826 0.0
C304 C 0.24415 0.77259 0.26165 0.0
C305 C 0.2048 0.75139 0.22366 0.0
C306 C 0.18078 0.7064 0.23732 0.0
C307 C 0.19806 0.6817 0.28628 0.0
H308 H 0.26304 0.51925 0.35839 0.0
H309 H 0.27514 0.43627 0.39522 0.0
H310 H 0.23497 0.49786 0.57244 0.0
H311 H 0.22472 0.58111 0.53608 0.0
H312 H 0.38455 0.61873 0.5238 0.0
H313 H 0.47674 0.62452 0.54671 0.0
H314 H 0.49552 0.73929 0.42473 0.0
H315 H 0.40192 0.73284 0.39974 0.0
H316 H 0.29253 0.76531 0.33746 0.0
H317 H 0.26289 0.80767 0.25296 0.0
H318 H 0.15027 0.68925 0.20891 0.0
H319 H 0.18018 0.64614 0.29454 0.0
N320 N 0.23918 0.63105 0.38681 0.0
N321 N 0.3074 0.6217 0.45465 0.0
N322 N 0.30894 0.68907 0.39518 0.0
C323 C 0.26141 0.60562 0.43009 0.0
C324 C 0.33176 0.6631 0.43746 0.0
C325 C 0.2623 0.6738 0.37025 0.0
C326 C 0.24248 0.5562 0.44443 0.0
C327 C 0.25337 0.51427 0.40432 0.0
C328 C 0.26051 0.4669 0.42538 0.0
C329 C 0.2554 0.46096 0.48636 0.0
C330 C 0.2379 0.50149 0.525 0.0
C331 C 0.2319 0.54903 0.50421 0.0
C332 C 0.38572 0.6746 0.45893 0.0
C333 C 0.40772 0.64568 0.50191 0.0
C334 C 0.46072 0.64885 0.51507 0.0
C335 C 0.49315 0.6816 0.48653 0.0
C336 C 0.47109 0.71354 0.44694 0.0
C337 C 0.41762 0.70982 0.43285 0.0
C338 C 0.2395 0.70174 0.3223 0.0
C339 C 0.26123 0.74816 0.31024 0.0
C340 C 0.9289 0.02118 0.8869 0.0
C341 C 0.87588 0.03331 0.89553 0.0
C342 C 0.83811 0.0053 0.86133 0.0
C343 C 0.85301 0.96415 0.82203 0.0
H344 H 0.81417 0.86802 0.66811 0.0
H345 H 0.75238 0.82371 0.60055 0.0
H346 H 0.84468 0.68812 0.60183 0.0
H347 H 0.90683 0.73257 0.66962 0.0
H348 H 0.98144 0.74542 0.82716 0.0
H349 H 0.04264 0.72911 0.90704 0.0
H350 H 0.13963 0.85163 0.85965 0.0
H351 H 0.07821 0.86863 0.78108 0.0
H352 H 0.98477 0.9709 0.84442 0.0
H353 H 0.95921 0.04238 0.91168 0.0
H354 H 0.79698 0.01386 0.86662 0.0
H355 H 0.82291 0.94184 0.79829 0.0
N356 N 0.88907 0.87719 0.74348 0.0
N357 N 0.94647 0.80807 0.73479 0.0
N358 N 0.96676 0.87989 0.79837 0.0
C359 C 0.9016 0.83052 0.71814 0.0
C360 C 0.97951 0.83318 0.77425 0.0
C361 C 0.92155 0.9021 0.78366 0.0
C362 C 0.86537 0.80381 0.67477 0.0
C363 C 0.82156 0.82881 0.65392 0.0
C364 C 0.78612 0.80341 0.61487 0.0
C365 C 0.79351 0.75233 0.5958 0.0
C366 C 0.83784 0.7275 0.61563 0.0
C367 C 0.87348 0.75301 0.65459 0.0
C368 C 0.02509 0.80861 0.79873 0.0
C369 C 0.01766 0.76654 0.83125 0.0
C370 C 0.05281 0.75699 0.87675 0.0
C371 C 0.09562 0.78919 0.8892 0.0
C372 C 0.10717 0.82596 0.85025 0.0
C373 C 0.07189 0.83588 0.80552 0.0
C374 C 0.90587 0.95021 0.81657 0.0
C375 C 0.94366 0.98012 0.84814 0.0
loop_
_geom_bond_atom_site_label_1
_geom_bond_atom_site_label_2
_geom_bond_distance
_geom_bond_site_symmetry_2
_ccdc_geom_bond_type
Fe0 O2 1.918 . S
Fe0 O5 1.997 . S
Fe0 O6 2.002 . S
Fe0 O11 1.976 . S
Fe0 O14 1.996 . S
Fe1 O2 1.918 . S
Fe1 O9 1.997 . S
Fe1 O12 1.996 . S
Fe1 O16 1.976 1_554 S
Fe1 O19 2.002 . S
O2 Fe0 1.918 . S
O2 Fe1 1.918 . S
O2 Fe3 1.918 . S
Fe3 O2 1.918 . S
Fe3 O4 2.002 . S
Fe3 O13 1.976 . S
Fe3 O17 1.996 1_554 S
Fe3 O20 1.997 . S
O4 Fe3 2.002 . S
O4 C21 1.295 . S
O5 Fe0 1.997 . S
O5 C21 1.235 . S
O6 Fe0 2.002 . S
O6 C7 1.295 . S
C7 O6 1.295 . S
C7 O9 1.235 . S
C8 O13 1.287 . S
C8 O14 1.255 . S
O9 Fe1 1.997 . S
O9 C7 1.235 . S
C10 O16 1.287 . S
C10 O17 1.255 . S
O11 Fe0 1.976 . S
O11 C18 1.287 . S
O12 Fe1 1.996 . S
O12 C18 1.255 . S
O13 Fe3 1.976 . S
O13 C8 1.287 . S
O14 Fe0 1.996 . S
O14 C8 1.255 . S
C15 O19 1.295 . S
C15 O20 1.235 . S
O16 Fe1 1.976 1_556 S
O16 C10 1.287 . S
O17 Fe3 1.996 1_556 S
O17 C10 1.255 . S
C18 O11 1.287 . S
C18 O12 1.255 . S
O19 Fe1 2.002 . S
O19 C15 1.295 . S
O20 Fe3 1.997 . S
O20 C15 1.235 . S
C21 O4 1.295 . S
C21 O5 1.235 . S
Fe22 O24 1.918 . S
Fe22 O27 1.997 . S
Fe22 O28 2.002 . S
Fe22 O33 1.976 . S
Fe22 O36 1.996 . S
Fe23 O24 1.918 . S
Fe23 O31 1.997 . S
Fe23 O34 1.996 . S
Fe23 O38 1.976 . S
Fe23 O41 2.002 . S
O24 Fe22 1.918 . S
O24 Fe23 1.918 . S
O24 Fe25 1.918 . S
Fe25 O24 1.918 . S
Fe25 O26 2.002 . S
Fe25 O35 1.976 . S
Fe25 O39 1.996 . S
Fe25 O42 1.997 . S
O26 Fe25 2.002 . S
O26 C43 1.295 . S
O27 Fe22 1.997 . S
O27 C43 1.235 . S
O28 Fe22 2.002 . S
O28 C29 1.295 . S
C29 O28 1.295 . S
C29 O31 1.235 . S
C30 O35 1.287 . S
C30 O36 1.255 . S
O31 Fe23 1.997 . S
O31 C29 1.235 . S
C32 O38 1.287 . S
C32 O39 1.255 . S
O33 Fe22 1.976 . S
O33 C40 1.287 . S
O34 Fe23 1.996 . S
O34 C40 1.255 . S
O35 Fe25 1.976 . S
O35 C30 1.287 . S
O36 Fe22 1.996 . S
O36 C30 1.255 . S
C37 O41 1.295 . S
C37 O42 1.235 . S
O38 Fe23 1.976 . S
O38 C32 1.287 . S
O39 Fe25 1.996 . S
O39 C32 1.255 . S
C40 O33 1.287 . S
C40 O34 1.255 . S
O41 Fe23 2.002 . S
O41 C37 1.295 . S
O42 Fe25 1.997 . S
O42 C37 1.235 . S
C43 O26 1.295 . S
C43 O27 1.235 . S
Fe44 O46 1.918 . S
Fe44 O49 1.997 1_554 S
Fe44 O50 2.002 1_554 S
Fe44 O55 1.976 . S
Fe44 O58 1.996 . S
Fe45 O46 1.918 . S
Fe45 O53 1.997 1_554 S
Fe45 O56 1.996 . S
Fe45 O60 1.976 . S
Fe45 O63 2.002 1_554 S
O46 Fe44 1.918 . S
O46 Fe45 1.918 . S
O46 Fe47 1.918 1_554 S
Fe47 O46 1.918 1_556 S
Fe47 O48 2.002 . S
Fe47 O57 1.976 1_556 S
Fe47 O61 1.996 1_556 S
Fe47 O64 1.997 . S
O48 Fe47 2.002 . S
O48 C65 1.295 . S
O49 Fe44 1.997 1_556 S
O49 C65 1.235 . S
O50 Fe44 2.002 1_556 S
O50 C51 1.295 . S
C51 O50 1.295 . S
C51 O53 1.235 . S
C52 O57 1.287 . S
C52 O58 1.255 . S
O53 Fe45 1.997 1_556 S
O53 C51 1.235 . S
C54 O60 1.287 . S
C54 O61 1.255 . S
O55 Fe44 1.976 . S
O55 C62 1.287 . S
O56 Fe45 1.996 . S
O56 C62 1.255 . S
O57 Fe47 1.976 1_554 S
O57 C52 1.287 . S
O58 Fe44 1.996 . S
O58 C52 1.255 . S
C59 O63 1.295 . S
C59 O64 1.235 . S
O60 Fe45 1.976 . S
O60 C54 1.287 . S
O61 Fe47 1.996 1_554 S
O61 C54 1.255 . S
C62 O55 1.287 . S
C62 O56 1.255 . S
O63 Fe45 2.002 1_556 S
O63 C59 1.295 . S
O64 Fe47 1.997 . S
O64 C59 1.235 . S
C65 O48 1.295 . S
C65 O49 1.235 . S
Fe66 O68 1.918 . S
Fe66 O71 1.997 . S
Fe66 O72 2.002 . S
Fe66 O77 1.976 . S
Fe66 O80 1.996 . S
Fe67 O68 1.918 . S
Fe67 O75 1.997 . S
Fe67 O78 1.996 . S
Fe67 O82 1.976 . S
Fe67 O85 2.002 . S
O68 Fe66 1.918 . S
O68 Fe67 1.918 . S
O68 Fe69 1.918 . S
Fe69 O68 1.918 . S
Fe69 O70 2.002 . S
Fe69 O79 1.976 . S
Fe69 O83 1.996 . S
Fe69 O86 1.997 . S
O70 Fe69 2.002 . S
O70 C87 1.295 . S
O71 Fe66 1.997 . S
O71 C87 1.235 . S
O72 Fe66 2.002 . S
O72 C73 1.295 . S
C73 O72 1.295 . S
C73 O75 1.235 . S
C74 O79 1.287 . S
C74 O80 1.255 . S
O75 Fe67 1.997 . S
O75 C73 1.235 . S
C76 O82 1.287 . S
C76 O83 1.255 . S
O77 Fe66 1.976 . S
O77 C84 1.287 . S
O78 Fe67 1.996 . S
O78 C84 1.255 . S
O79 Fe69 1.976 . S
O79 C74 1.287 . S
O80 Fe66 1.996 . S
O80 C74 1.255 . S
C81 O85 1.295 . S
C81 O86 1.235 . S
O82 Fe67 1.976 . S
O82 C76 1.287 . S
O83 Fe69 1.996 . S
O83 C76 1.255 . S
C84 O77 1.287 . S
C84 O78 1.255 . S
O85 Fe67 2.002 . S
O85 C81 1.295 . S
O86 Fe69 1.997 . S
O86 C81 1.235 . S
C87 O70 1.295 . S
C87 O71 1.235 . S
C88 C89 1.384 . S
C88 H101 0.947 . S
C88 C123 1.382 . S
C89 C88 1.384 . S
C89 C90 1.378 . S
C90 C89 1.378 . S
C90 C91 1.378 . S
C90 H102 0.952 . S
C91 C90 1.378 . S
C91 H103 0.950 . S
C91 C122 1.383 . S
H92 C111 0.947 . S
H93 C112 0.946 . S
H94 C114 0.953 . S
H95 C115 0.945 . S
H96 C117 0.952 . S
H97 C118 0.949 . S
H98 C120 0.950 . S
H99 C121 0.948 . S
H100 C123 0.951 . S
H101 C88 0.947 . S
H102 C90 0.952 . S
H103 C91 0.950 . S
N104 C107 1.382 . S
N104 C109 1.363 . S
N105 C107 1.371 . S
N105 C108 1.372 . S
N106 C108 1.361 . S
N106 C109 1.377 . S
C107 N104 1.382 . S
C107 N105 1.371 . S
C107 C110 1.480 . S
C108 N105 1.372 . S
C108 N106 1.361 . S
C108 C116 1.457 . S
C109 N104 1.363 . S
C109 N106 1.377 . S
C109 C122 1.479 1_455 S
C110 C107 1.480 . S
C110 C111 1.383 . S
C110 C115 1.385 . S
C111 H92 0.947 . S
C111 C110 1.383 . S
C111 C112 1.388 . S
C112 H93 0.946 . S
C112 C111 1.388 . S
C112 C113 1.384 . S
C113 C112 1.384 . S
C113 C114 1.377 . S
C114 H94 0.953 . S
C114 C113 1.377 . S
C114 C115 1.369 . S
C115 H95 0.945 . S
C115 C110 1.385 . S
C115 C114 1.369 . S
C116 C108 1.457 . S
C116 C117 1.372 . S
C116 C121 1.364 . S
C117 H96 0.952 . S
C117 C116 1.372 . S
C117 C118 1.389 1_545 S
C118 H97 0.949 . S
C118 C117 1.389 1_565 S
C118 C119 1.387 . S
C119 C118 1.387 . S
C119 C120 1.372 . S
C120 H98 0.950 . S
C120 C119 1.372 . S
C120 C121 1.379 1_565 S
C121 H99 0.948 . S
C121 C116 1.364 . S
C121 C120 1.379 1_545 S
C122 C91 1.383 . S
C122 C109 1.479 1_655 S
C122 C123 1.398 . S
C123 C88 1.382 . S
C123 H100 0.951 . S
C123 C122 1.398 . S
C124 C125 1.384 . S
C124 H137 0.947 . S
C124 C159 1.382 . S
C125 C124 1.384 . S
C125 C126 1.378 . S
C126 C125 1.378 . S
C126 C127 1.378 . S
C126 H138 0.952 . S
C127 C126 1.378 . S
C127 H139 0.950 . S
C127 C158 1.383 . S
H128 C147 0.947 . S
H129 C148 0.946 . S
H130 C150 0.953 1_554 S
H131 C151 0.945 . S
H132 C153 0.952 . S
H133 C154 0.949 . S
H134 C156 0.950 . S
H135 C157 0.948 . S
H136 C159 0.951 . S
H137 C124 0.947 . S
H138 C126 0.952 . S
H139 C127 0.950 . S
N140 C143 1.382 . S
N140 C145 1.363 . S
N141 C143 1.371 . S
N141 C144 1.372 . S
N142 C144 1.361 . S
N142 C145 1.377 . S
C143 N140 1.382 . S
C143 N141 1.371 . S
C143 C146 1.480 . S
C144 N141 1.372 . S
C144 N142 1.361 . S
C144 C152 1.457 . S
C145 N140 1.363 . S
C145 N142 1.377 . S
C145 C158 1.479 . S
C146 C143 1.480 . S
C146 C147 1.383 . S
C146 C151 1.385 . S
C147 H128 0.947 . S
C147 C146 1.383 . S
C147 C148 1.388 1_556 S
C148 H129 0.946 . S
C148 C147 1.388 1_554 S
C148 C149 1.384 . S
C149 C148 1.384 . S
C149 C150 1.377 1_554 S
C150 H130 0.953 1_556 S
C150 C149 1.377 1_556 S
C150 C151 1.369 . S
C151 H131 0.945 . S
C151 C146 1.385 . S
C151 C150 1.369 . S
C152 C144 1.457 . S
C152 C153 1.372 . S
C152 C157 1.364 . S
C153 H132 0.952 . S
C153 C152 1.372 . S
C153 C154 1.389 . S
C154 H133 0.949 . S
C154 C153 1.389 . S
C154 C155 1.387 . S
C155 C154 1.387 . S
C155 C156 1.372 . S
C156 H134 0.950 . S
C156 C155 1.372 . S
C156 C157 1.379 . S
C157 H135 0.948 . S
C157 C152 1.364 . S
C157 C156 1.379 . S
C158 C127 1.383 . S
C158 C145 1.479 . S
C158 C159 1.398 . S
C159 C124 1.382 . S
C159 H136 0.951 . S
C159 C158 1.398 . S
C160 C161 1.384 . S
C160 H173 0.947 . S
C160 C195 1.382 . S
C161 C160 1.384 . S
C161 C162 1.378 . S
C162 C161 1.378 . S
C162 C163 1.378 . S
C162 H174 0.952 . S
C163 C162 1.378 . S
C163 H175 0.950 . S
C163 C194 1.383 . S
H164 C183 0.947 . S
H165 C184 0.946 . S
H166 C186 0.953 . S
H167 C187 0.945 . S
H168 C189 0.952 . S
H169 C190 0.949 1_545 S
H170 C192 0.950 1_545 S
H171 C193 0.948 . S
H172 C195 0.951 . S
H173 C160 0.947 . S
H174 C162 0.952 . S
H175 C163 0.950 . S
N176 C179 1.382 . S
N176 C181 1.363 . S
N177 C179 1.371 . S
N177 C180 1.372 . S
N178 C180 1.361 . S
N178 C181 1.377 . S
C179 N176 1.382 . S
C179 N177 1.371 . S
C179 C182 1.480 . S
C180 N177 1.372 . S
C180 N178 1.361 . S
C180 C188 1.457 . S
C181 N176 1.363 . S
C181 N178 1.377 . S
C181 C194 1.479 . S
C182 C179 1.480 . S
C182 C183 1.383 . S
C182 C187 1.385 . S
C183 H164 0.947 . S
C183 C182 1.383 . S
C183 C184 1.388 . S
C184 H165 0.946 . S
C184 C183 1.388 . S
C184 C185 1.384 . S
C185 C184 1.384 . S
C185 C186 1.377 . S
C186 H166 0.953 . S
C186 C185 1.377 . S
C186 C187 1.369 . S
C187 H167 0.945 . S
C187 C182 1.385 . S
C187 C186 1.369 . S
C188 C180 1.457 . S
C188 C189 1.372 . S
C188 C193 1.364 . S
C189 H168 0.952 . S
C189 C188 1.372 . S
C189 C190 1.389 . S
C190 H169 0.949 1_565 S
C190 C189 1.389 . S
C190 C191 1.387 1_565 S
C191 C190 1.387 1_545 S
C191 C192 1.372 1_545 S
C192 H170 0.950 1_565 S
C192 C191 1.372 1_565 S
C192 C193 1.379 . S
C193 H171 0.948 . S
C193 C188 1.364 . S
C193 C192 1.379 . S
C194 C163 1.383 . S
C194 C181 1.479 . S
C194 C195 1.398 . S
C195 C160 1.382 . S
C195 H172 0.951 . S
C195 C194 1.398 . S
C196 C197 1.384 . S
C196 H209 0.947 . S
C196 C231 1.382 . S
C197 C196 1.384 . S
C197 C198 1.378 . S
C198 C197 1.378 . S
C198 C199 1.378 . S
C198 H210 0.952 . S
C199 C198 1.378 . S
C199 H211 0.950 . S
C199 C230 1.383 . S
H200 C219 0.947 . S
H201 C220 0.946 . S
H202 C222 0.953 . S
H203 C223 0.945 . S
H204 C225 0.952 . S
H205 C226 0.949 . S
H206 C228 0.950 . S
H207 C229 0.948 . S
H208 C231 0.951 . S
H209 C196 0.947 . S
H210 C198 0.952 . S
H211 C199 0.950 . S
N212 C215 1.382 . S
N212 C217 1.363 . S
N213 C215 1.371 . S
N213 C216 1.372 . S
N214 C216 1.361 . S
N214 C217 1.377 . S
C215 N212 1.382 . S
C215 N213 1.371 . S
C215 C218 1.480 . S
C216 N213 1.372 . S
C216 N214 1.361 . S
C216 C224 1.457 . S
C217 N212 1.363 . S
C217 N214 1.377 . S
C217 C230 1.479 . S
C218 C215 1.480 . S
C218 C219 1.383 . S
C218 C223 1.385 . S
C219 H200 0.947 . S
C219 C218 1.383 . S
C219 C220 1.388 . S
C220 H201 0.946 . S
C220 C219 1.388 . S
C220 C221 1.384 . S
C221 C220 1.384 . S
C221 C222 1.377 . S
C222 H202 0.953 . S
C222 C221 1.377 . S
C222 C223 1.369 . S
C223 H203 0.945 . S
C223 C218 1.385 . S
C223 C222 1.369 . S
C224 C216 1.457 . S
C224 C225 1.372 . S
C224 C229 1.364 . S
C225 H204 0.952 . S
C225 C224 1.372 . S
C225 C226 1.389 . S
C226 H205 0.949 . S
C226 C225 1.389 . S
C226 C227 1.387 . S
C227 C226 1.387 . S
C227 C228 1.372 . S
C228 H206 0.950 . S
C228 C227 1.372 . S
C228 C229 1.379 . S
C229 H207 0.948 . S
C229 C224 1.364 . S
C229 C228 1.379 . S
C230 C199 1.383 . S
C230 C217 1.479 . S
C230 C231 1.398 . S
C231 C196 1.382 . S
C231 H208 0.951 . S
C231 C230 1.398 . S
C232 C233 1.384 . S
C232 H245 0.947 . S
C232 C267 1.382 . S
C233 C232 1.384 . S
C233 C234 1.378 . S
C234 C233 1.378 . S
C234 C235 1.378 . S
C234 H246 0.952 . S
C235 C234 1.378 . S
C235 H247 0.950 . S
C235 C266 1.383 . S
H236 C255 0.947 . S
H237 C256 0.946 . S
H238 C258 0.953 . S
H239 C259 0.945 . S
H240 C261 0.952 . S
H241 C262 0.949 . S
H242 C264 0.950 . S
H243 C265 0.948 . S
H244 C267 0.951 . S
H245 C232 0.947 . S
H246 C234 0.952 . S
H247 C235 0.950 . S
N248 C251 1.382 . S
N248 C253 1.363 . S
N249 C251 1.371 . S
N249 C252 1.372 . S
N250 C252 1.361 . S
N250 C253 1.377 . S
C251 N248 1.382 . S
C251 N249 1.371 . S
C251 C254 1.480 . S
C252 N249 1.372 . S
C252 N250 1.361 . S
C252 C260 1.457 . S
C253 N248 1.363 . S
C253 N250 1.377 . S
C253 C266 1.479 . S
C254 C251 1.480 . S
C254 C255 1.383 . S
C254 C259 1.385 . S
C255 H236 0.947 . S
C255 C254 1.383 . S
C255 C256 1.388 . S
C256 H237 0.946 . S
C256 C255 1.388 . S
C256 C257 1.384 . S
C257 C256 1.384 . S
C257 C258 1.377 . S
C258 H238 0.953 . S
C258 C257 1.377 . S
C258 C259 1.369 . S
C259 H239 0.945 . S
C259 C254 1.385 . S
C259 C258 1.369 . S
C260 C252 1.457 . S
C260 C261 1.372 . S
C260 C265 1.364 . S
C261 H240 0.952 . S
C261 C260 1.372 . S
C261 C262 1.389 . S
C262 H241 0.949 . S
C262 C261 1.389 . S
C262 C263 1.387 . S
C263 C262 1.387 . S
C263 C264 1.372 . S
C264 H242 0.950 . S
C264 C263 1.372 . S
C264 C265 1.379 . S
C265 H243 0.948 . S
C265 C260 1.364 . S
C265 C264 1.379 . S
C266 C235 1.383 . S
C266 C253 1.479 . S
C266 C267 1.398 . S
C267 C232 1.382 . S
C267 H244 0.951 . S
C267 C266 1.398 . S
C268 C269 1.384 . S
C268 H281 0.947 . S
C268 C303 1.382 . S
C269 C268 1.384 . S
C269 C270 1.378 . S
C270 C269 1.378 . S
C270 C271 1.378 . S
C270 H282 0.952 . S
C271 C270 1.378 . S
C271 H283 0.950 . S
C271 C302 1.383 . S
H272 C291 0.947 . S
H273 C292 0.946 . S
H274 C294 0.953 . S
H275 C295 0.945 . S
H276 C297 0.952 . S
H277 C298 0.949 1_565 S
H278 C300 0.950 . S
H279 C301 0.948 . S
H280 C303 0.951 . S
H281 C268 0.947 . S
H282 C270 0.952 . S
H283 C271 0.950 . S
N284 C287 1.382 . S
N284 C289 1.363 . S
N285 C287 1.371 . S
N285 C288 1.372 . S
N286 C288 1.361 . S
N286 C289 1.377 . S
C287 N284 1.382 . S
C287 N285 1.371 . S
C287 C290 1.480 . S
C288 N285 1.372 . S
C288 N286 1.361 . S
C288 C296 1.457 . S
C289 N284 1.363 . S
C289 N286 1.377 . S
C289 C302 1.479 . S
C290 C287 1.480 . S
C290 C291 1.383 . S
C290 C295 1.385 1_556 S
C291 H272 0.947 . S
C291 C290 1.383 . S
C291 C292 1.388 . S
C292 H273 0.946 . S
C292 C291 1.388 . S
C292 C293 1.383 1_556 S
C293 C292 1.383 1_554 S
C293 C294 1.377 . S
C294 H274 0.953 . S
C294 C293 1.377 . S
C294 C295 1.369 . S
C295 H275 0.945 . S
C295 C290 1.385 1_554 S
C295 C294 1.369 . S
C296 C288 1.457 . S
C296 C297 1.372 1_556 S
C296 C301 1.364 . S
C297 H276 0.952 . S
C297 C296 1.372 1_554 S
C297 C298 1.389 . S
C298 H277 0.949 1_545 S
C298 C297 1.389 . S
C298 C299 1.387 1_545 S
C299 C298 1.387 1_565 S
C299 C300 1.372 1_564 S
C300 H278 0.950 . S
C300 C299 1.372 1_546 S
C300 C301 1.379 . S
C301 H279 0.948 . S
C301 C296 1.364 . S
C301 C300 1.379 . S
C302 C271 1.383 . S
C302 C289 1.479 . S
C302 C303 1.398 . S
C303 C268 1.382 . S
C303 H280 0.951 . S
C303 C302 1.398 . S
C304 C305 1.384 . S
C304 H317 0.947 . S
C304 C339 1.382 . S
C305 C304 1.384 . S
C305 C306 1.378 . S
C306 C305 1.378 . S
C306 C307 1.378 . S
C306 H318 0.952 . S
C307 C306 1.378 . S
C307 H319 0.950 . S
C307 C338 1.383 . S
H308 C327 0.947 . S
H309 C328 0.946 . S
H310 C330 0.953 . S
H311 C331 0.945 . S
H312 C333 0.952 . S
H313 C334 0.949 . S
H314 C336 0.950 . S
H315 C337 0.948 . S
H316 C339 0.951 . S
H317 C304 0.947 . S
H318 C306 0.952 . S
H319 C307 0.950 . S
N320 C323 1.382 . S
N320 C325 1.363 . S
N321 C323 1.371 . S
N321 C324 1.372 . S
N322 C324 1.361 . S
N322 C325 1.377 . S
C323 N320 1.382 . S
C323 N321 1.371 . S
C323 C326 1.480 . S
C324 N321 1.372 . S
C324 N322 1.361 . S
C324 C332 1.457 . S
C325 N320 1.363 . S
C325 N322 1.377 . S
C325 C338 1.479 . S
C326 C323 1.480 . S
C326 C327 1.383 . S
C326 C331 1.385 . S
C327 H308 0.947 . S
C327 C326 1.383 . S
C327 C328 1.388 . S
C328 H309 0.946 . S
C328 C327 1.388 . S
C328 C329 1.384 . S
C329 C328 1.384 . S
C329 C330 1.377 . S
C330 H310 0.953 . S
C330 C329 1.377 . S
C330 C331 1.369 . S
C331 H311 0.945 . S
C331 C326 1.385 . S
C331 C330 1.369 . S
C332 C324 1.457 . S
C332 C333 1.372 . S
C332 C337 1.364 . S
C333 H312 0.952 . S
C333 C332 1.372 . S
C333 C334 1.389 . S
C334 H313 0.949 . S
C334 C333 1.389 . S
C334 C335 1.387 . S
C335 C334 1.387 . S
C335 C336 1.372 . S
C336 H314 0.950 . S
C336 C335 1.372 . S
C336 C337 1.379 . S
C337 H315 0.948 . S
C337 C332 1.364 . S
C337 C336 1.379 . S
C338 C307 1.383 . S
C338 C325 1.479 . S
C338 C339 1.398 . S
C339 C304 1.382 . S
C339 H316 0.951 . S
C339 C338 1.398 . S
C340 C341 1.384 . S
C340 H353 0.947 . S
C340 C375 1.382 1_545 S
C341 C340 1.384 . S
C341 C342 1.378 . S
C342 C341 1.378 . S
C342 C343 1.378 1_545 S
C342 H354 0.952 . S
C343 C342 1.378 1_565 S
C343 H355 0.950 . S
C343 C374 1.383 . S
H344 C363 0.947 . S
H345 C364 0.946 . S
H346 C366 0.953 . S
H347 C367 0.945 . S
H348 C369 0.952 . S
H349 C370 0.949 . S
H350 C372 0.950 . S
H351 C373 0.948 . S
H352 C375 0.951 . S
H353 C340 0.947 . S
H354 C342 0.952 . S
H355 C343 0.950 . S
N356 C359 1.382 . S
N356 C361 1.363 . S
N357 C359 1.371 . S
N357 C360 1.372 . S
N358 C360 1.361 . S
N358 C361 1.377 . S
C359 N356 1.382 . S
C359 N357 1.371 . S
C359 C362 1.480 . S
C360 N357 1.372 . S
C360 N358 1.361 . S
C360 C368 1.457 1_655 S
C361 N356 1.363 . S
C361 N358 1.377 . S
C361 C374 1.479 . S
C362 C359 1.480 . S
C362 C363 1.383 . S
C362 C367 1.385 . S
C363 H344 0.947 . S
C363 C362 1.383 . S
C363 C364 1.388 . S
C364 H345 0.946 . S
C364 C363 1.388 . S
C364 C365 1.384 . S
C365 C364 1.384 . S
C365 C366 1.377 . S
C366 H346 0.953 . S
C366 C365 1.377 . S
C366 C367 1.369 . S
C367 H347 0.945 . S
C367 C362 1.385 . S
C367 C366 1.369 . S
C368 C360 1.457 1_455 S
C368 C369 1.372 . S
C368 C373 1.364 . S
C369 H348 0.952 . S
C369 C368 1.372 . S
C369 C370 1.389 . S
C370 H349 0.949 . S
C370 C369 1.389 . S
C370 C371 1.387 . S
C371 C370 1.387 . S
C371 C372 1.372 . S
C372 H350 0.950 . S
C372 C371 1.372 . S
C372 C373 1.379 . S
C373 H351 0.948 . S
C373 C368 1.364 . S
C373 C372 1.379 . S
C374 C343 1.383 . S
C374 C361 1.479 . S
C374 C375 1.398 . S
C375 C340 1.382 1_565 S
C375 H352 0.951 . S
C375 C374 1.398 . S
C7 C119 2.348 . S
C37 C155 2.555 . S
C54 C191 2.793 . S
C221 C87 2.050 . S
C263 C30 2.226 . S
C51 C293 2.175 1_656 S
C84 C329 2.930 . S
C10 C371 2.453 . S
C59 C341 2.370 . S
C233 C74 2.550 . S
C299 C18 2.988 . S
C32 C335 2.202 . S
C125 C73 2.382 . S
C15 C185 2.012 1_455 S
C227 C43 3.046 . S
C89 C62 2.534 . S
C305 C21 2.742 . S
C365 C29 1.782 . S
C52 C257 1.719 . S
C269 C81 2.659 . S
C161 C40 2.464 . S
C65 C197 2.614 . S
C113 C76 1.727 . S
C149 C8 1.819 . S
