# Generated by pormake.
# Topology zzz, (3,6)-cn, num edge types: 1
# Building blocks:
#     Node 0, Type 0, BuildingBlock: KAKCAD_clean_linker_0, # of connection points: 3
#     Node 1, Type 0, BuildingBlock: KAKCAD_clean_linker_0, # of connection points: 3
#     Node 2, Type 0, BuildingBlock: KAKCAD_clean_linker_0, # of connection points: 3
#     Node 3, Type 0, BuildingBlock: KAKCAD_clean_linker_0, # of connection points: 3
#     Node 4, Type 0, BuildingBlock: KAKCAD_clean_linker_0, # of connection points: 3
#     Node 5, Type 0, BuildingBlock: KAKCAD_clean_linker_0, # of connection points: 3
#     Node 6, Type 0, BuildingBlock: KAKCAD_clean_linker_0, # of connection points: 3
#     Node 7, Type 0, BuildingBlock: KAKCAD_clean_linker_0, # of connection points: 3
#     Node 8, Type 1, BuildingBlock: FUNLAD_clean_sbu_0, # of connection points: 6
#     Node 9, Type 1, BuildingBlock: FUNLAD_clean_sbu_0, # of connection points: 6
#     Node 10, Type 1, BuildingBlock: FUNLAD_clean_sbu_0, # of connection points: 6
#     Node 11, Type 1, BuildingBlock: FUNLAD_clean_sbu_0, # of connection points: 6
#     Edge 12, Type (0, 1), None
#     Edge 13, Type (0, 1), None
#     Edge 14, Type (0, 1), None
#     Edge 15, Type (0, 1), None
#     Edge 16, Type (0, 1), None
#     Edge 17, Type (0, 1), None
#     Edge 18, Type (0, 1), None
#     Edge 19, Type (0, 1), None
#     Edge 20, Type (0, 1), None
#     Edge 21, Type (0, 1), None
#     Edge 22, Type (0, 1), None
#     Edge 23, Type (0, 1), None
#     Edge 24, Type (0, 1), None
#     Edge 25, Type (0, 1), None
#     Edge 26, Type (0, 1), None
#     Edge 27, Type (0, 1), None
#     Edge 28, Type (0, 1), None
#     Edge 29, Type (0, 1), None
#     Edge 30, Type (0, 1), None
#     Edge 31, Type (0, 1), None
#     Edge 32, Type (0, 1), None
#     Edge 33, Type (0, 1), None
#     Edge 34, Type (0, 1), None
#     Edge 35, Type (0, 1), None
# Relax obj value: 0.252
# Max RMSD: 0.254
# Mean RMSD: 0.197
data_MOF--net-zzz--node1-FUNLAD_clean_sbu_0--node2-KAKCAD_clean_linker_0--edge1-none
_symmetry_space_group_name_H-M    P1
_symmetry_Int_Tables_number       1
_symmetry_cell_setting            triclinic
loop_
_symmetry_equiv_pos_as_xyz
'x, y, z'
_cell_length_a     32.196241
_cell_length_b     37.978771
_cell_length_c     12.827151
_cell_angle_alpha  83.803892
_cell_angle_beta   82.95427
_cell_angle_gamma 92.281363
loop_
_atom_site_label
_atom_site_type_symbol
_atom_site_fract_x
_atom_site_fract_y
_atom_site_fract_z
_atom_type_partial_charge
C0 C 0.93411 0.43067 0.98722 0.0
C1 C 0.97476 0.43205 0.01456 0.0
C2 C 0.89984 0.42569 0.06533 0.0
C3 C 0.90547 0.42125 0.17339 0.0
C4 C 0.94672 0.41625 0.19809 0.0
C5 C 0.98122 0.42291 0.11949 0.0
C6 C 0.87072 0.42924 0.25602 0.0
C7 C 0.82936 0.43249 0.23225 0.0
C8 C 0.8006 0.45136 0.29254 0.0
C9 C 0.81113 0.46373 0.38581 0.0
C10 C 0.85044 0.45681 0.41782 0.0
C11 C 0.88001 0.44044 0.35198 0.0
C12 C 0.86408 0.46847 0.51501 0.0
C13 C 0.87705 0.50413 0.51726 0.0
C14 C 0.87623 0.4425 0.58991 0.0
C15 C 0.90495 0.45126 0.6571 0.0
C16 C 0.92154 0.48623 0.65167 0.0
C17 C 0.7627 0.46205 0.24603 0.0
C18 C 0.76447 0.49405 0.17926 0.0
C19 C 0.72885 0.43748 0.24856 0.0
C20 C 0.69761 0.44449 0.1835 0.0
C21 C 0.70019 0.47589 0.11312 0.0
C22 C 0.73357 0.50088 0.1131 0.0
C23 C 0.90551 0.51304 0.58608 0.0
H24 H 0.92867 0.43765 0.90596 0.0
H25 H 0.86963 0.42916 0.03872 0.0
H26 H 0.95315 0.40999 0.27849 0.0
H27 H 1.01262 0.42349 0.1417 0.0
H28 H 0.81963 0.42272 0.16253 0.0
H29 H 0.91116 0.4388 0.37457 0.0
H30 H 0.78924 0.47864 0.43225 0.0
H31 H 0.86868 0.52446 0.45872 0.0
H32 H 0.867 0.41481 0.58861 0.0
H33 H 0.91675 0.43015 0.70735 0.0
H34 H 0.79096 0.51293 0.1743 0.0
H35 H 0.7276 0.41223 0.29731 0.0
H36 H 0.91812 0.54016 0.58009 0.0
H37 H 0.73613 0.52544 0.06073 0.0
H38 H 0.67239 0.42462 0.18491 0.0
C39 C 0.05711 0.87088 0.88718 0.0
C40 C 0.06803 0.90194 0.93049 0.0
C41 C 0.04429 0.83975 0.95296 0.0
C42 C 0.04259 0.83918 0.06289 0.0
C43 C 0.05992 0.86852 0.1042 0.0
C44 C 0.07246 0.89983 0.03835 0.0
C45 C 1.01513 0.81192 0.13313 0.0
C46 C 1.01404 0.77622 0.11514 0.0
C47 C 0.98415 0.75168 0.17509 0.0
C48 C 0.95529 0.76289 0.25477 0.0
C49 C 0.95622 0.79868 0.27295 0.0
C50 C 0.98608 0.82276 0.21187 0.0
C51 C 0.93081 0.8118 0.36304 0.0
C52 C 0.91072 0.84372 0.34471 0.0
C53 C 0.94119 0.80152 0.46442 0.0
C54 C 0.94027 0.82611 0.53797 0.0
C55 C 0.92901 0.86099 0.51009 0.0
C56 C 0.98296 0.71477 0.14976 0.0
C57 C 0.94773 0.70045 0.11149 0.0
C58 C 0.01934 0.69565 0.14936 0.0
C59 C 0.02123 0.66344 0.10672 0.0
C60 C 0.98692 0.65 0.06243 0.0
C61 C 0.94979 0.66835 0.06736 0.0
C62 C 0.91017 0.86847 0.41784 0.0
H63 H 0.05424 0.87157 0.80368 0.0
H64 H 0.03151 0.81756 0.91847 0.0
H65 H 0.06008 0.86838 0.18866 0.0
H66 H 0.08134 0.92321 0.07368 0.0
H67 H 0.03586 0.7676 0.05285 0.0
H68 H 0.98654 0.85041 0.22593 0.0
H69 H 0.93272 0.74397 0.3026 0.0
H70 H 0.90201 0.85194 0.26713 0.0
H71 H 0.95635 0.77692 0.48083 0.0
H72 H 0.95394 0.81948 0.6102 0.0
H73 H 0.91952 0.71503 0.11027 0.0
H74 H 0.0469 0.70641 0.17811 0.0
H75 H 0.90074 0.89498 0.39501 0.0
H76 H 0.92282 0.65839 0.03447 0.0
H77 H 0.05037 0.65005 0.10323 0.0
C78 C 0.66622 0.00201 0.91088 0.0
C79 C 0.63385 0.02533 0.92668 0.0
C80 C 0.70192 0.00507 0.96067 0.0
C81 C 0.70561 0.03116 0.02867 0.0
C82 C 0.67457 0.05615 0.0388 0.0
C83 C 0.63898 0.05349 0.98685 0.0
C84 C 0.73613 0.0267 0.10524 0.0
C85 C 0.77786 0.01979 0.07333 0.0
C86 C 0.80422 0.00739 0.14763 0.0
C87 C 0.78776 0.00165 0.25641 0.0
C88 C 0.7455 0.00889 0.28821 0.0
C89 C 0.72078 0.02206 0.21225 0.0
C90 C 0.72303 0.0008 0.39686 0.0
C91 C 0.70217 0.96724 0.4266 0.0
C92 C 0.70874 0.02947 0.44925 0.0
C93 C 0.67225 0.02557 0.52183 0.0
C94 C 0.64929 0.99275 0.54517 0.0
C95 C 0.84756 -0.00125 0.10586 0.0
C96 C 0.85282 0.97611 0.02594 0.0
C97 C 0.88315 0.01742 0.12983 0.0
C98 C 0.92264 0.0151 0.0704 0.0
C99 C 0.92719 0.99415 0.98572 0.0
C100 C 0.89194 0.97385 0.96683 0.0
C101 C 0.66584 0.96316 0.50099 0.0
H102 H 0.66335 0.9806 0.86231 0.0
H103 H 0.72504 0.98524 0.95247 0.0
H104 H 0.6768 0.07641 0.09146 0.0
H105 H 0.61457 0.07203 -0.00148 0.0
H106 H 0.78945 0.02301 0.98963 0.0
H107 H 0.68792 0.02603 0.23638 0.0
H108 H 0.807 0.99089 0.31446 0.0
H109 H 0.71164 0.94492 0.38509 0.0
H110 H 0.7234 0.05579 0.42598 0.0
H111 H 0.66102 0.04879 0.55631 0.0
H112 H 0.82601 0.96142 0.00548 0.0
H113 H 0.87998 0.0354 0.19004 0.0
H114 H 0.64923 0.93743 0.51836 0.0
H115 H 0.89412 0.95708 0.90343 0.0
H116 H 0.94911 0.03099 0.08759 0.0
C117 C 0.53592 0.62471 0.63338 0.0
C118 C 0.56706 0.59994 0.62211 0.0
C119 C 0.5331 0.65205 0.55288 0.0
C120 C 0.56121 0.65483 0.45962 0.0
C121 C 0.59586 0.63324 0.45514 0.0
C122 C 0.59882 0.60587 0.53617 0.0
C123 C 0.54521 0.66691 0.35945 0.0
C124 C 0.55212 0.70149 0.30728 0.0
C125 C 0.53913 0.70946 0.20647 0.0
C126 C 0.52058 0.68227 0.1581 0.0
C127 C 0.51309 0.64776 0.21088 0.0
C128 C 0.52374 0.64117 0.31351 0.0
C129 C 0.49939 0.61746 0.15584 0.0
C130 C 0.47341 0.62182 0.07498 0.0
C131 C 0.51586 0.58407 0.17819 0.0
C132 C 0.50919 0.55686 0.11735 0.0
C133 C 0.48694 0.56238 0.03038 0.0
C134 C 0.54483 0.74589 0.14997 0.0
C135 C 0.52741 0.77446 0.19719 0.0
C136 C 0.56458 0.75181 0.04522 0.0
C137 C 0.56636 0.78555 0.98822 0.0
C138 C 0.54773 0.81413 0.0339 0.0
C139 C 0.52846 0.80806 0.13968 0.0
C140 C 0.46733 0.59443 0.01224 0.0
H141 H 0.51101 0.62058 0.69917 0.0
H142 H 0.50573 0.66779 0.55747 0.0
H143 H 0.61743 0.63442 0.38288 0.0
H144 H 0.6228 0.58692 0.52515 0.0
H145 H 0.56802 0.72173 0.34359 0.0
H146 H 0.517 0.61512 0.35746 0.0
H147 H 0.51271 0.68806 0.07854 0.0
H148 H 0.45943 0.64684 0.05684 0.0
H149 H 0.53673 0.57934 0.2376 0.0
H150 H 0.52472 0.53236 0.13284 0.0
H151 H 0.51146 0.77046 0.27732 0.0
H152 H 0.57844 0.7302 0.00713 0.0
H153 H 0.4503 0.59936 0.94482 0.0
H154 H 0.51296 0.82894 0.17766 0.0
H155 H 0.58234 0.78907 0.90821 0.0
C156 C 0.11884 0.59021 0.49456 0.0
C157 C 0.0877 0.5636 0.49185 0.0
C158 C 0.15054 0.59759 0.40919 0.0
C159 C 0.15117 0.57821 0.32142 0.0
C160 C 0.116 0.556 0.31293 0.0
C161 C 0.08457 0.54871 0.3978 0.0
C162 C 0.19112 0.57364 0.25435 0.0
C163 C 0.22749 0.56803 0.30201 0.0
C164 C 0.26282 0.55385 0.24911 0.0
C165 C 0.26036 0.54339 0.14728 0.0
C166 C 0.22414 0.54983 0.0978 0.0
C167 C 0.19082 0.56641 0.15018 0.0
C168 C 0.21553 0.53496 0.0002 0.0
C169 C 0.20406 0.55841 0.91752 0.0
C170 C 0.20221 0.49892 0.0078 0.0
C171 C 0.17303 0.4877 0.94376 0.0
C172 C 0.15684 0.51254 0.87239 0.0
C173 C 0.29978 0.54791 0.30771 0.0
C174 C 0.31003 0.57236 0.37661 0.0
C175 C 0.3216 0.5166 0.30653 0.0
C176 C 0.35121 0.50922 0.37691 0.0
C177 C 0.35904 0.5326 0.45181 0.0
C178 C 0.33811 0.5645 0.44898 0.0
C179 C 0.17448 0.5474 0.85517 0.0
H180 H 0.12162 0.60205 0.56674 0.0
H181 H 0.17671 0.61555 0.4167 0.0
H182 H 0.11504 0.54061 0.24688 0.0
H183 H 0.06044 0.52827 0.3943 0.0
H184 H 0.2271 0.57198 0.3845 0.0
H185 H 0.16257 0.57041 0.11314 0.0
H186 H 0.28595 0.53031 0.10729 0.0
H187 H 0.21345 0.58637 0.9109 0.0
H188 H 0.20999 0.48047 0.07209 0.0
H189 H 0.15974 0.46071 0.95856 0.0
H190 H 0.29473 0.59723 0.37825 0.0
H191 H 0.31467 0.49713 0.25448 0.0
H192 H 0.1626 0.56697 0.79999 0.0
H193 H 0.34186 0.58332 0.50499 0.0
H194 H 0.36734 0.48486 0.37313 0.0
C195 C 0.99249 0.09327 0.49622 0.0
C196 C 1.00323 0.09026 0.59936 0.0
C197 C 0.99925 0.12577 0.43271 0.0
C198 C 0.01732 0.15535 0.47138 0.0
C199 C 0.02179 0.15347 0.57916 0.0
C200 C 1.01468 0.12117 0.64275 0.0
C201 C 0.04143 0.18363 0.39716 0.0
C202 C 0.04376 0.21897 0.41891 0.0
C203 C 0.07324 0.24372 0.35801 0.0
C204 C 0.10047 0.23303 0.27411 0.0
C205 C 0.09797 0.19774 0.25213 0.0
C206 C 0.06828 0.17358 0.3128 0.0
C207 C 0.12435 0.18426 0.16487 0.0
C208 C 0.11188 0.1897 0.06381 0.0
C209 C 0.1486 0.15531 0.18999 0.0
C210 C 0.15333 0.12873 0.12308 0.0
C211 C 0.13465 0.13135 0.02952 0.0
C212 C 0.07665 0.28001 0.38787 0.0
C213 C 0.04105 0.30009 0.39643 0.0
C214 C 0.11399 0.2931 0.4194 0.0
C215 C 0.11507 0.32515 0.46373 0.0
C216 C 0.07901 0.34474 0.47526 0.0
C217 C 0.04229 0.3323 0.43899 0.0
C218 C 0.11705 0.16332 0.99617 0.0
H219 H 0.9828 0.07003 0.46137 0.0
H220 H 0.99452 0.12681 0.35027 0.0
H221 H 0.03537 0.17576 0.6117 0.0
H222 H 0.02215 0.11983 0.72316 0.0
H223 H 0.02381 0.22694 0.48578 0.0
H224 H 0.06747 0.14614 0.29633 0.0
H225 H 0.12341 0.25185 0.22715 0.0
H226 H 0.09284 0.21168 0.04331 0.0
H227 H 0.15837 0.15064 0.26799 0.0
H228 H 0.16768 0.1046 0.14959 0.0
H229 H 1.01191 0.29032 0.37293 0.0
H230 H 0.14168 0.27775 0.41434 0.0
H231 H 0.10249 0.16613 0.92413 0.0
H232 H 1.01392 0.3467 0.44786 0.0
H233 H 0.14378 0.3343 0.49069 0.0
C234 C 0.43686 0.93883 0.53134 0.0
C235 C 0.44181 0.9669 0.59193 0.0
C236 C 0.40128 0.93612 0.47936 0.0
C237 C 0.3701 0.96096 0.48988 0.0
C238 C 0.37362 0.98694 0.55832 0.0
C239 C 0.40929 0.99006 0.60816 0.0
C240 C 0.33955 0.96541 0.41341 0.0
C241 C 0.29783 0.97228 0.44553 0.0
C242 C 0.27145 0.98484 0.37151 0.0
C243 C 0.28786 0.99073 0.2627 0.0
C244 C 0.3301 0.98348 0.23062 0.0
C245 C 0.35486 0.97019 0.30636 0.0
C246 C 0.35252 0.99168 0.12196 0.0
C247 C 0.36669 0.96305 0.06919 0.0
C248 C 0.37346 0.02521 0.09248 0.0
C249 C 0.40976 0.0293 0.01798 0.0
C250 C 0.42619 -0.00026 0.97341 0.0
C251 C 0.22819 0.99354 0.41372 0.0
C252 C 0.19251 0.97497 0.38986 0.0
C253 C 0.22312 0.01602 0.49409 0.0
C254 C 0.18412 0.01818 0.55382 0.0
C255 C 0.1488 0.99797 0.53502 0.0
C256 C 0.15313 0.97722 0.44984 0.0
C257 C 0.40315 0.96695 0.9965 0.0
H258 H 0.46138 0.92042 0.51936 0.0
H259 H 0.39917 0.91593 0.42639 0.0
H260 H 0.35037 0.00665 0.56686 0.0
H261 H 0.41203 0.01139 0.65707 0.0
H262 H 0.28628 0.96893 0.52927 0.0
H263 H 0.38771 0.96625 0.28206 0.0
H264 H 0.2686 0.00161 0.20487 0.0
H265 H 0.35196 0.93674 0.09224 0.0
H266 H 0.36409 0.0475 0.13428 0.0
H267 H 0.42644 0.05501 0.00084 0.0
H268 H 0.19554 0.95711 0.32932 0.0
H269 H 0.25002 0.03063 0.51445 0.0
H270 H 0.41429 0.94376 0.96174 0.0
H271 H 0.12658 0.9614 0.43276 0.0
H272 H 0.18206 0.03483 0.61753 0.0
C273 C 0.45348 0.39927 0.05314 0.0
C274 C 0.48443 0.40231 0.96521 0.0
C275 C 0.45554 0.37305 0.13792 0.0
C276 C 0.48821 0.34941 0.1348 0.0
C277 C 0.51522 0.34935 0.04055 0.0
C278 C 0.51365 0.37586 0.95692 0.0
C279 C 0.5034 0.33538 0.23463 0.0
C280 C 0.5076 0.29899 0.26399 0.0
C281 C 0.52638 0.28778 0.35527 0.0
C282 C 0.54204 0.31373 0.41329 0.0
C283 C 0.53863 0.35004 0.38341 0.0
C284 C 0.51859 0.36037 0.29517 0.0
C285 C 0.55332 0.37737 0.44748 0.0
C286 C 0.54798 0.3709 0.55838 0.0
C287 C 0.56868 0.41136 0.39933 0.0
C288 C 0.57431 0.43903 0.46076 0.0
C289 C 0.56623 0.43268 0.57097 0.0
C290 C 0.52876 0.2494 0.39421 0.0
C291 C 0.49536 0.22467 0.39016 0.0
C292 C 0.56306 0.2378 0.44489 0.0
C293 C 0.56273 0.20338 0.49608 0.0
C294 C 0.52871 0.17927 0.49536 0.0
C295 C 0.49552 0.18985 0.43954 0.0
C296 C 0.55467 0.39828 0.61929 0.0
H297 H 0.43101 0.41956 0.06204 0.0
H298 H 0.43471 0.3739 0.21055 0.0
H299 H 0.54103 0.33187 0.03668 0.0
H300 H 0.53814 0.37782 0.89043 0.0
H301 H 0.49659 0.27972 0.21581 0.0
H302 H 0.51494 0.38828 0.27217 0.0
H303 H 0.55644 0.30565 0.48333 0.0
H304 H 0.53567 0.34544 0.59876 0.0
H305 H 0.57432 0.41709 0.31409 0.0
H306 H 0.58268 0.46562 0.42227 0.0
H307 H 0.46831 0.23255 0.35265 0.0
H308 H 0.59004 0.25554 0.44695 0.0
H309 H 0.54732 0.39323 0.70436 0.0
H310 H 0.46902 0.17156 0.43748 0.0
H311 H 0.5891 0.1956 0.53665 0.0
C312 C 0.06442 0.93659 0.86946 0.0
N313 N 0.98893 0.94687 0.63087 0.0
C314 C 1.01122 0.91937 0.59962 0.0
C315 C 0.9915 0.89088 0.56298 0.0
C316 C 0.94828 0.89049 0.55718 0.0
C317 C 0.92598 0.91975 0.58589 0.0
C318 C 0.94705 0.94776 0.62412 0.0
Zn319 Zn 0.02084 0.98163 0.70697 0.0
C320 C 0.96719 0.99481 0.91233 0.0
N321 N 0.08866 0.04468 0.88817 0.0
C322 C 0.10976 0.07261 0.82543 0.0
C323 C 0.08724 0.04182 0.99505 0.0
C324 C 0.10547 0.06886 0.04291 0.0
C325 C 0.12494 0.0991 0.97993 0.0
C326 C 0.12809 0.10027 0.86985 0.0
Zn327 Zn 0.05522 0.01038 0.8144 0.0
O328 O 0.04276 0.93754 0.79316 0.0
C329 C 0.10894 0.99721 0.60882 0.0
O330 O 0.07607 0.96548 0.90143 0.0
H331 H 0.07021 0.01946 0.04327 0.0
H332 H 0.04435 0.91891 0.60599 0.0
H333 H 0.11059 0.07445 0.74052 0.0
O334 O 0.07499 0.98279 0.58835 0.0
O335 O 0.10892 0.01009 0.69636 0.0
H336 H 0.92983 0.96973 0.65054 0.0
O337 O 0.03309 0.05451 0.72903 0.0
O338 O 0.99897 0.02652 0.62209 0.0
O339 O 1.00083 0.01027 0.9315 0.0
O340 O 0.9675 0.98088 0.8262 0.0
C341 C 1.01041 0.05539 0.65469 0.0
H342 H 1.01019 0.86946 0.53803 0.0
H343 H 0.89273 0.92064 0.58033 0.0
H344 H 0.10172 0.06725 0.12841 0.0
H345 H 0.14273 0.12314 0.81886 0.0
C346 C 0.48041 0.97354 0.63802 0.0
N347 N 0.53049 0.0759 0.66211 0.0
C348 C 0.5271 0.07952 0.55658 0.0
C349 C 0.52521 0.11308 0.50109 0.0
C350 C 0.528 0.14332 0.55388 0.0
C351 C 0.53163 0.13902 0.66249 0.0
C352 C 0.53238 0.10487 0.71562 0.0
Zn353 Zn 0.53505 0.02537 0.73685 0.0
C354 C 0.46726 0.00202 0.90461 0.0
N355 N 0.5449 0.91671 0.8575 0.0
C356 C 0.5449 0.88725 0.8058 0.0
C357 C 0.54648 0.91398 0.96365 0.0
C358 C 0.54843 0.88096 0.02178 0.0
C359 C 0.54771 0.84988 0.97148 0.0
C360 C 0.54601 0.85349 0.86148 0.0
Zn361 Zn 0.54046 0.96705 0.78168 0.0
O362 O 0.49204 0.00555 0.64392 0.0
C363 C 0.60822 0.99045 0.6139 0.0
O364 O 0.49816 0.94841 0.6854 0.0
H365 H 0.54588 0.93752 0.00412 0.0
H366 H 0.52649 0.05637 0.51452 0.0
H367 H 0.54337 0.88986 0.72157 0.0
O368 O 0.58863 0.01863 0.62454 0.0
O369 O 0.59352 0.96146 0.66752 0.0
H370 H 0.53502 0.10158 0.7993 0.0
O371 O 0.58344 0.98682 0.87479 0.0
O372 O 0.57755 0.04393 0.83307 0.0
O373 O 0.48674 0.97382 0.89363 0.0
O374 O 0.48207 0.03101 0.85131 0.0
C375 C 0.59521 0.01878 0.88058 0.0
H376 H 0.52285 0.11543 0.41712 0.0
H377 H 0.53379 0.16185 0.70577 0.0
H378 H 0.55054 0.88002 0.10558 0.0
H379 H 0.54462 0.8305 0.81874 0.0
C380 C 0.55908 0.46179 0.63533 0.0
N381 N 0.44366 0.50942 0.68263 0.0
C382 C 0.42546 0.48219 0.6406 0.0
C383 C 0.39708 0.4889 0.56694 0.0
C384 C 0.38822 0.52412 0.5332 0.0
C385 C 0.40736 0.55144 0.57983 0.0
C386 C 0.43395 0.54345 0.65594 0.0
Zn387 Zn 0.49404 0.50241 0.76678 0.0
C388 C 0.49416 0.43667 0.89958 0.0
N389 N 0.60786 0.4921 0.90245 0.0
C390 C 0.64898 0.49942 0.86418 0.0
C391 C 0.59612 0.48036 0.00661 0.0
C392 C 0.62582 0.47505 0.07616 0.0
C393 C 0.66837 0.48217 0.03936 0.0
C394 C 0.67995 0.49474 0.93186 0.0
Zn395 Zn 0.5587 0.49876 0.81396 0.0
O396 O 0.52184 0.472 0.64961 0.0
C397 C 0.5586 0.56441 0.68156 0.0
O398 O 0.58569 0.47024 0.69501 0.0
H399 H 0.56337 0.47523 0.03687 0.0
H400 H 0.43387 0.4553 0.66172 0.0
H401 H 0.65774 0.5089 0.7815 0.0
O402 O 0.52236 0.54987 0.68298 0.0
O403 O 0.5855 0.54826 0.73093 0.0
H404 H 0.44842 0.5649 0.68998 0.0
O405 O 0.53043 0.52679 0.93256 0.0
O406 O 0.46768 0.53291 0.885 0.0
O407 O 0.53142 0.44981 0.89183 0.0
O408 O 0.46666 0.45418 0.85633 0.0
C409 C 0.4942 0.53869 0.94757 0.0
H410 H 0.38273 0.46659 0.53647 0.0
H411 H 0.40322 0.57913 0.55633 0.0
H412 H 0.61545 0.46585 0.15852 0.0
H413 H 0.71258 0.50033 0.90019 0.0
C414 C 0.06732 0.54408 0.59035 0.0
N415 N 0.06599 0.43375 0.64781 0.0
C416 C 0.05362 0.43532 0.54973 0.0
C417 C 0.05941 0.40707 0.4898 0.0
C418 C 0.0783 0.37691 0.53082 0.0
C419 C 0.09275 0.3766 0.62993 0.0
C420 C 0.08605 0.40548 0.68779 0.0
Zn421 Zn 0.04934 0.47392 0.73512 0.0
C422 C 0.11656 0.505 0.83335 0.0
N423 N 1.00964 0.56322 0.88407 0.0
C424 C 0.98894 0.59093 0.84316 0.0
C425 C 0.02032 0.56156 0.98384 0.0
C426 C 1.01163 0.58907 0.04535 0.0
C427 C 0.99154 0.61854 0.00404 0.0
C428 C 0.97938 0.61902 0.90236 0.0
Zn429 Zn 0.0274 0.52334 0.79703 0.0
O430 O 0.06998 0.51064 0.60205 0.0
C431 C 0.96066 0.49261 0.69712 0.0
O432 O 0.05074 0.55973 0.66613 0.0
H433 H 0.03649 0.53915 0.01516 0.0
H434 H 0.03785 0.45806 0.51908 0.0
H435 H 0.98076 0.59165 0.76369 0.0
O436 O 0.98879 0.47027 0.6874 0.0
O437 O 0.96783 0.52047 0.74011 0.0
H438 H 0.09553 0.40481 0.76598 0.0
O439 O 1.00337 0.48597 0.92749 0.0
O440 O 0.02713 0.43772 0.86674 0.0
O441 O 0.08752 0.52628 0.84886 0.0
O442 O 0.11003 0.47786 0.78641 0.0
C443 C 1.00648 0.45255 0.93877 0.0
H444 H 0.04817 0.40838 0.4133 0.0
H445 H 0.10713 0.3536 0.66451 0.0
H446 H 0.02122 0.58761 0.12369 0.0
H447 H 0.96428 0.64152 0.86727 0.0
loop_
_geom_bond_atom_site_label_1
_geom_bond_atom_site_label_2
_geom_bond_distance
_geom_bond_site_symmetry_2
_ccdc_geom_bond_type
C0 C1 1.386 . S
C0 C2 1.397 . S
C0 H24 0.931 . S
C1 C0 1.386 . S
C1 C5 1.397 . S
C2 C0 1.397 . S
C2 C3 1.384 1_556 S
C2 H25 0.930 . S
C3 C2 1.384 1_554 S
C3 C4 1.377 . S
C3 C6 1.481 . S
C4 C3 1.377 . S
C4 C5 1.389 1_554 S
C4 H26 0.929 . S
C5 C1 1.397 . S
C5 C4 1.389 1_556 S
C5 H27 0.930 1_556 S
C6 C3 1.481 . S
C6 C7 1.387 . S
C6 C11 1.390 . S
C7 C6 1.387 . S
C7 C8 1.401 . S
C7 H28 0.930 . S
C8 C7 1.401 . S
C8 C9 1.376 . S
C8 C17 1.511 . S
C9 C8 1.376 . S
C9 C10 1.392 . S
C9 H30 0.931 . S
C10 C9 1.392 . S
C10 C11 1.361 . S
C10 C12 1.500 . S
C11 C6 1.390 . S
C11 C10 1.361 . S
C11 H29 0.931 . S
C12 C10 1.500 . S
C12 C13 1.371 . S
C12 C14 1.365 . S
C13 C12 1.371 . S
C13 C23 1.386 . S
C13 H31 0.931 . S
C14 C12 1.365 . S
C14 C15 1.409 . S
C14 H32 0.929 . S
C15 C14 1.409 . S
C15 C16 1.380 . S
C15 H33 0.930 . S
C16 C15 1.380 . S
C16 C23 1.357 . S
C17 C8 1.511 . S
C17 C18 1.341 . S
C17 C19 1.371 . S
C18 C17 1.341 . S
C18 C22 1.394 . S
C18 H34 0.930 . S
C19 C17 1.371 . S
C19 C20 1.392 . S
C19 H35 0.931 . S
C20 C19 1.392 . S
C20 C21 1.331 . S
C20 H38 0.932 . S
C21 C20 1.331 . S
C21 C22 1.336 . S
C22 C18 1.394 . S
C22 C21 1.336 . S
C22 H37 0.929 1_554 S
C23 C13 1.386 . S
C23 C16 1.357 . S
C23 H36 0.928 . S
H24 C0 0.931 . S
H25 C2 0.930 . S
H26 C4 0.929 . S
H27 C5 0.930 1_554 S
H28 C7 0.930 . S
H29 C11 0.931 . S
H30 C9 0.931 . S
H31 C13 0.931 . S
H32 C14 0.929 . S
H33 C15 0.930 . S
H34 C18 0.930 . S
H35 C19 0.931 . S
H36 C23 0.928 . S
H37 C22 0.929 1_556 S
H38 C20 0.932 . S
C39 C40 1.386 . S
C39 C41 1.397 . S
C39 H63 0.931 . S
C40 C39 1.386 . S
C40 C44 1.397 . S
C41 C39 1.397 . S
C41 C42 1.384 . S
C41 H64 0.930 . S
C42 C41 1.384 . S
C42 C43 1.377 . S
C42 C45 1.481 . S
C43 C42 1.377 . S
C43 C44 1.389 . S
C43 H65 0.929 . S
C44 C40 1.397 . S
C44 C43 1.389 . S
C44 H66 0.931 . S
C45 C42 1.481 . S
C45 C46 1.387 . S
C45 C50 1.390 1_556 S
C46 C45 1.387 . S
C46 C47 1.401 . S
C46 H67 0.930 . S
C47 C46 1.401 . S
C47 C48 1.376 1_556 S
C47 C56 1.511 . S
C48 C47 1.376 1_554 S
C48 C49 1.392 . S
C48 H69 0.931 . S
C49 C48 1.392 . S
C49 C50 1.361 . S
C49 C51 1.500 . S
C50 C45 1.390 1_554 S
C50 C49 1.361 . S
C50 H68 0.931 . S
C51 C49 1.500 . S
C51 C52 1.371 . S
C51 C53 1.365 . S
C52 C51 1.371 . S
C52 C62 1.386 . S
C52 H70 0.931 . S
C53 C51 1.365 . S
C53 C54 1.409 . S
C53 H71 0.929 . S
C54 C53 1.409 . S
C54 C55 1.380 . S
C54 H72 0.930 . S
C55 C54 1.380 . S
C55 C62 1.357 . S
C56 C47 1.511 . S
C56 C57 1.341 . S
C56 C58 1.371 1_556 S
C57 C56 1.341 . S
C57 C61 1.394 . S
C57 H73 0.930 . S
C58 C56 1.371 1_554 S
C58 C59 1.392 . S
C58 H74 0.931 . S
C59 C58 1.392 . S
C59 C60 1.331 1_554 S
C59 H77 0.932 . S
C60 C59 1.331 1_556 S
C60 C61 1.336 . S
C61 C57 1.394 . S
C61 C60 1.336 . S
C61 H76 0.929 . S
C62 C52 1.386 . S
C62 C55 1.357 . S
C62 H75 0.928 . S
H63 C39 0.931 . S
H64 C41 0.930 . S
H65 C43 0.929 . S
H66 C44 0.931 . S
H67 C46 0.930 . S
H68 C50 0.931 . S
H69 C48 0.931 . S
H70 C52 0.931 . S
H71 C53 0.929 . S
H72 C54 0.930 . S
H73 C57 0.930 . S
H74 C58 0.931 . S
H75 C62 0.928 . S
H76 C61 0.929 . S
H77 C59 0.932 . S
C78 C79 1.395 . S
C78 C80 1.397 . S
C78 H102 0.931 . S
C79 C78 1.395 . S
C79 C83 1.388 1_565 S
C80 C78 1.397 . S
C80 C81 1.389 . S
C80 H103 0.930 . S
C81 C80 1.389 . S
C81 C82 1.372 1_565 S
C81 C84 1.480 1_556 S
C82 C81 1.372 1_545 S
C82 C83 1.389 . S
C82 H104 0.929 1_556 S
C83 C79 1.388 1_545 S
C83 C82 1.389 . S
C83 H105 0.931 . S
C84 C81 1.480 1_554 S
C84 C85 1.387 . S
C84 C89 1.392 . S
C85 C84 1.387 . S
C85 C86 1.404 . S
C85 H106 0.930 1_554 S
C86 C85 1.404 . S
C86 C87 1.373 . S
C86 C95 1.515 . S
C87 C86 1.373 . S
C87 C88 1.393 . S
C87 H108 0.931 . S
C88 C87 1.393 . S
C88 C89 1.361 . S
C88 C90 1.496 1_565 S
C89 C84 1.392 . S
C89 C88 1.361 . S
C89 H107 0.930 . S
C90 C88 1.496 1_545 S
C90 C91 1.361 1_545 S
C90 C92 1.378 . S
C91 C90 1.361 1_565 S
C91 C101 1.386 . S
C91 H109 0.931 . S
C92 C90 1.378 . S
C92 C93 1.409 . S
C92 H110 0.929 . S
C93 C92 1.409 . S
C93 C94 1.381 . S
C93 H111 0.930 . S
C94 C93 1.381 . S
C94 C101 1.356 1_545 S
C95 C86 1.515 . S
C95 C96 1.341 1_554 S
C95 C97 1.371 1_565 S
C96 C95 1.341 1_556 S
C96 C100 1.394 . S
C96 H112 0.930 . S
C97 C95 1.371 1_545 S
C97 C98 1.392 . S
C97 H113 0.931 . S
C98 C97 1.392 . S
C98 C99 1.319 1_545 S
C98 H116 0.932 . S
C99 C98 1.319 1_565 S
C99 C100 1.346 1_554 S
C100 C96 1.394 . S
C100 C99 1.346 1_556 S
C100 H115 0.929 . S
C101 C91 1.386 . S
C101 C94 1.356 1_565 S
C101 H114 0.928 . S
H102 C78 0.931 . S
H103 C80 0.930 . S
H104 C82 0.929 1_554 S
H105 C83 0.931 . S
H106 C85 0.930 1_556 S
H107 C89 0.930 . S
H108 C87 0.931 . S
H109 C91 0.931 . S
H110 C92 0.929 . S
H111 C93 0.930 . S
H112 C96 0.930 . S
H113 C97 0.931 . S
H114 C101 0.928 . S
H115 C100 0.929 . S
H116 C98 0.932 . S
C117 C118 1.386 . S
C117 C119 1.397 . S
C117 H141 0.931 . S
C118 C117 1.386 . S
C118 C122 1.397 . S
C119 C117 1.397 . S
C119 C120 1.384 . S
C119 H142 0.930 . S
C120 C119 1.384 . S
C120 C121 1.377 . S
C120 C123 1.481 . S
C121 C120 1.377 . S
C121 C122 1.389 . S
C121 H143 0.929 . S
C122 C118 1.397 . S
C122 C121 1.389 . S
C122 H144 0.931 . S
C123 C120 1.481 . S
C123 C124 1.387 . S
C123 C128 1.390 . S
C124 C123 1.387 . S
C124 C125 1.401 . S
C124 H145 0.930 . S
C125 C124 1.401 . S
C125 C126 1.376 . S
C125 C134 1.511 . S
C126 C125 1.376 . S
C126 C127 1.392 . S
C126 H147 0.931 1_554 S
C127 C126 1.392 . S
C127 C128 1.361 . S
C127 C129 1.500 1_554 S
C128 C123 1.390 . S
C128 C127 1.361 . S
C128 H146 0.931 . S
C129 C127 1.500 1_556 S
C129 C130 1.371 . S
C129 C131 1.365 1_556 S
C130 C129 1.371 . S
C130 C140 1.386 . S
C130 H148 0.931 . S
C131 C129 1.365 1_554 S
C131 C132 1.409 1_554 S
C131 H149 0.929 . S
C132 C131 1.409 1_556 S
C132 C133 1.380 . S
C132 H150 0.930 . S
C133 C132 1.380 . S
C133 C140 1.357 . S
C134 C125 1.511 . S
C134 C135 1.341 . S
C134 C136 1.371 1_554 S
C135 C134 1.341 . S
C135 C139 1.394 . S
C135 H151 0.930 . S
C136 C134 1.371 1_556 S
C136 C137 1.392 . S
C136 H152 0.931 . S
C137 C136 1.392 . S
C137 C138 1.331 1_556 S
C137 H155 0.932 . S
C138 C137 1.331 1_554 S
C138 C139 1.336 . S
C139 C135 1.394 . S
C139 C138 1.336 . S
C139 H154 0.929 . S
C140 C130 1.386 . S
C140 C133 1.357 . S
C140 H153 0.928 . S
H141 C117 0.931 . S
H142 C119 0.930 . S
H143 C121 0.929 . S
H144 C122 0.931 . S
H145 C124 0.930 . S
H146 C128 0.931 . S
H147 C126 0.931 1_556 S
H148 C130 0.931 . S
H149 C131 0.929 . S
H150 C132 0.930 . S
H151 C135 0.930 . S
H152 C136 0.931 . S
H153 C140 0.928 . S
H154 C139 0.929 . S
H155 C137 0.932 . S
C156 C157 1.386 . S
C156 C158 1.397 . S
C156 H180 0.931 . S
C157 C156 1.386 . S
C157 C161 1.397 . S
C158 C156 1.397 . S
C158 C159 1.384 . S
C158 H181 0.930 . S
C159 C158 1.384 . S
C159 C160 1.377 . S
C159 C162 1.481 . S
C160 C159 1.377 . S
C160 C161 1.389 . S
C160 H182 0.929 . S
C161 C157 1.397 . S
C161 C160 1.389 . S
C161 H183 0.931 . S
C162 C159 1.481 . S
C162 C163 1.387 . S
C162 C167 1.390 . S
C163 C162 1.387 . S
C163 C164 1.401 . S
C163 H184 0.930 . S
C164 C163 1.401 . S
C164 C165 1.376 . S
C164 C173 1.511 . S
C165 C164 1.376 . S
C165 C166 1.392 . S
C165 H186 0.931 . S
C166 C165 1.392 . S
C166 C167 1.361 . S
C166 C168 1.500 . S
C167 C162 1.390 . S
C167 C166 1.361 . S
C167 H185 0.931 . S
C168 C166 1.500 . S
C168 C169 1.371 . S
C168 C170 1.365 . S
C169 C168 1.371 . S
C169 C179 1.386 1_554 S
C169 H187 0.931 . S
C170 C168 1.365 . S
C170 C171 1.409 1_554 S
C170 H188 0.929 . S
C171 C170 1.409 1_556 S
C171 C172 1.380 . S
C171 H189 0.930 . S
C172 C171 1.380 . S
C172 C179 1.357 . S
C173 C164 1.511 . S
C173 C174 1.341 . S
C173 C175 1.371 . S
C174 C173 1.341 . S
C174 C178 1.394 . S
C174 H190 0.930 . S
C175 C173 1.371 . S
C175 C176 1.392 . S
C175 H191 0.931 . S
C176 C175 1.392 . S
C176 C177 1.331 . S
C176 H194 0.932 . S
C177 C176 1.331 . S
C177 C178 1.336 . S
C178 C174 1.394 . S
C178 C177 1.336 . S
C178 H193 0.929 . S
C179 C169 1.386 1_556 S
C179 C172 1.357 . S
C179 H192 0.928 . S
H180 C156 0.931 . S
H181 C158 0.930 . S
H182 C160 0.929 . S
H183 C161 0.931 . S
H184 C163 0.930 . S
H185 C167 0.931 . S
H186 C165 0.931 . S
H187 C169 0.931 . S
H188 C170 0.929 . S
H189 C171 0.930 . S
H190 C174 0.930 . S
H191 C175 0.931 . S
H192 C179 0.928 . S
H193 C178 0.929 . S
H194 C176 0.932 . S
C195 C196 1.386 . S
C195 C197 1.397 . S
C195 H219 0.931 . S
C196 C195 1.386 . S
C196 C200 1.397 . S
C197 C195 1.397 . S
C197 C198 1.384 . S
C197 H220 0.930 . S
C198 C197 1.384 . S
C198 C199 1.377 . S
C198 C201 1.481 . S
C199 C198 1.377 . S
C199 C200 1.389 . S
C199 H221 0.929 . S
C200 C196 1.397 . S
C200 C199 1.389 . S
C200 H222 0.931 . S
C201 C198 1.481 . S
C201 C202 1.387 . S
C201 C206 1.390 . S
C202 C201 1.387 . S
C202 C203 1.401 . S
C202 H223 0.930 . S
C203 C202 1.401 . S
C203 C204 1.376 . S
C203 C212 1.511 . S
C204 C203 1.376 . S
C204 C205 1.392 . S
C204 H225 0.931 . S
C205 C204 1.392 . S
C205 C206 1.361 . S
C205 C207 1.500 . S
C206 C201 1.390 . S
C206 C205 1.361 . S
C206 H224 0.931 . S
C207 C205 1.500 . S
C207 C208 1.371 . S
C207 C209 1.365 . S
C208 C207 1.371 . S
C208 C218 1.386 . S
C208 H226 0.931 . S
C209 C207 1.365 . S
C209 C210 1.409 . S
C209 H227 0.929 . S
C210 C209 1.409 . S
C210 C211 1.380 . S
C210 H228 0.930 . S
C211 C210 1.380 . S
C211 C218 1.357 . S
C212 C203 1.511 . S
C212 C213 1.341 . S
C212 C214 1.371 . S
C213 C212 1.341 . S
C213 C217 1.394 . S
C213 H229 0.930 . S
C214 C212 1.371 . S
C214 C215 1.392 . S
C214 H230 0.931 . S
C215 C214 1.392 . S
C215 C216 1.331 . S
C215 H233 0.932 . S
C216 C215 1.331 . S
C216 C217 1.336 . S
C217 C213 1.394 . S
C217 C216 1.336 . S
C217 H232 0.929 . S
C218 C208 1.386 . S
C218 C211 1.357 . S
C218 H231 0.928 . S
H219 C195 0.931 . S
H220 C197 0.930 . S
H221 C199 0.929 . S
H222 C200 0.931 . S
H223 C202 0.930 . S
H224 C206 0.931 . S
H225 C204 0.931 . S
H226 C208 0.931 . S
H227 C209 0.929 . S
H228 C210 0.930 . S
H229 C213 0.930 . S
H230 C214 0.931 . S
H231 C218 0.928 . S
H232 C217 0.929 . S
H233 C215 0.932 . S
C234 C235 1.390 . S
C234 C236 1.397 . S
C234 H258 0.931 . S
C235 C234 1.390 . S
C235 C239 1.394 1_565 S
C236 C234 1.397 . S
C236 C237 1.384 . S
C236 H259 0.930 . S
C237 C236 1.384 . S
C237 C238 1.377 1_565 S
C237 C240 1.479 . S
C238 C237 1.377 1_545 S
C238 C239 1.389 . S
C238 H260 0.929 . S
C239 C235 1.394 1_545 S
C239 C238 1.389 . S
C239 H261 0.931 . S
C240 C237 1.479 . S
C240 C241 1.386 . S
C240 C245 1.392 . S
C241 C240 1.386 . S
C241 C242 1.401 . S
C241 H262 0.930 . S
C242 C241 1.401 . S
C242 C243 1.379 . S
C242 C251 1.510 . S
C243 C242 1.379 . S
C243 C244 1.392 . S
C243 H264 0.931 . S
C244 C243 1.392 . S
C244 C245 1.362 . S
C244 C246 1.502 1_565 S
C245 C240 1.392 . S
C245 C244 1.362 . S
C245 H263 0.931 . S
C246 C244 1.502 1_545 S
C246 C247 1.355 1_545 S
C246 C248 1.378 . S
C247 C246 1.355 1_565 S
C247 C257 1.386 . S
C247 H265 0.931 . S
C248 C246 1.378 . S
C248 C249 1.409 . S
C248 H266 0.929 . S
C249 C248 1.409 . S
C249 C250 1.385 1_554 S
C249 H267 0.930 . S
C250 C249 1.385 1_556 S
C250 C257 1.354 1_546 S
C251 C242 1.510 . S
C251 C252 1.341 . S
C251 C253 1.371 1_565 S
C252 C251 1.341 . S
C252 C256 1.394 . S
C252 H268 0.930 . S
C253 C251 1.371 1_545 S
C253 C254 1.392 . S
C253 H269 0.931 . S
C254 C253 1.392 . S
C254 C255 1.327 1_545 S
C254 H272 0.932 . S
C255 C254 1.327 1_565 S
C255 C256 1.342 . S
C256 C252 1.394 . S
C256 C255 1.342 . S
C256 H271 0.929 . S
C257 C247 1.386 . S
C257 C250 1.354 1_564 S
C257 H270 0.928 1_554 S
H258 C234 0.931 . S
H259 C236 0.930 . S
H260 C238 0.929 . S
H261 C239 0.931 . S
H262 C241 0.930 . S
H263 C245 0.931 . S
H264 C243 0.931 . S
H265 C247 0.931 . S
H266 C248 0.929 . S
H267 C249 0.930 . S
H268 C252 0.930 . S
H269 C253 0.931 . S
H270 C257 0.928 1_556 S
H271 C256 0.929 . S
H272 C254 0.932 . S
C273 C274 1.387 . S
C273 C275 1.393 1_556 S
C273 H297 0.934 . S
C274 C273 1.387 . S
C274 C278 1.397 1_556 S
C275 C273 1.393 1_554 S
C275 C276 1.384 . S
C275 H298 0.930 . S
C276 C275 1.384 . S
C276 C277 1.377 . S
C276 C279 1.481 . S
C277 C276 1.377 . S
C277 C278 1.389 . S
C277 H299 0.929 . S
C278 C274 1.397 1_554 S
C278 C277 1.389 . S
C278 H300 0.933 . S
C279 C276 1.481 . S
C279 C280 1.387 . S
C279 C284 1.390 . S
C280 C279 1.387 . S
C280 C281 1.401 . S
C280 H301 0.930 . S
C281 C280 1.401 . S
C281 C282 1.376 . S
C281 C290 1.511 . S
C282 C281 1.376 . S
C282 C283 1.392 . S
C282 H303 0.931 . S
C283 C282 1.392 . S
C283 C284 1.361 . S
C283 C285 1.500 . S
C284 C279 1.390 . S
C284 C283 1.361 . S
C284 H302 0.931 . S
C285 C283 1.500 . S
C285 C286 1.371 . S
C285 C287 1.365 . S
C286 C285 1.371 . S
C286 C296 1.386 . S
C286 H304 0.931 . S
C287 C285 1.365 . S
C287 C288 1.409 . S
C287 H305 0.929 . S
C288 C287 1.409 . S
C288 C289 1.380 . S
C288 H306 0.930 . S
C289 C288 1.380 . S
C289 C296 1.357 . S
C290 C281 1.511 . S
C290 C291 1.341 . S
C290 C292 1.371 . S
C291 C290 1.341 . S
C291 C295 1.394 . S
C291 H307 0.930 . S
C292 C290 1.371 . S
C292 C293 1.392 . S
C292 H308 0.931 . S
C293 C292 1.392 . S
C293 C294 1.331 . S
C293 H311 0.932 . S
C294 C293 1.331 . S
C294 C295 1.336 . S
C295 C291 1.394 . S
C295 C294 1.336 . S
C295 H310 0.929 . S
C296 C286 1.386 . S
C296 C289 1.357 . S
C296 H309 0.928 . S
H297 C273 0.934 . S
H298 C275 0.930 . S
H299 C277 0.929 . S
H300 C278 0.933 . S
H301 C280 0.930 . S
H302 C284 0.931 . S
H303 C282 0.931 . S
H304 C286 0.931 . S
H305 C287 0.929 . S
H306 C288 0.930 . S
H307 C291 0.930 . S
H308 C292 0.931 . S
H309 C296 0.928 . S
H310 C295 0.929 . S
H311 C293 0.932 . S
C312 O328 1.251 1_455 S
C312 O330 1.254 . S
N313 C314 1.333 . S
N313 C318 1.307 . S
N313 Zn319 2.020 1_655 S
C314 N313 1.333 . S
C314 C315 1.379 . S
C314 H332 0.962 . S
C315 C314 1.379 . S
C315 C316 1.390 . S
C315 H342 0.949 . S
C316 C315 1.390 . S
C316 C317 1.357 . S
C317 C316 1.357 . S
C317 C318 1.370 . S
C317 H343 0.950 . S
C318 N313 1.307 . S
C318 C317 1.370 . S
C318 H336 0.948 1_565 S
Zn319 N313 2.020 1_455 S
Zn319 O328 2.039 1_455 S
Zn319 O334 2.034 . S
Zn319 O338 2.025 1_565 S
Zn319 O340 2.024 1_465 S
C320 O339 1.246 . S
C320 O340 1.249 . S
N321 C322 1.307 . S
N321 C323 1.333 . S
N321 Zn327 2.020 1_554 S
C322 N321 1.307 . S
C322 C326 1.370 . S
C322 H333 0.948 1_545 S
C323 N321 1.333 . S
C323 C324 1.379 . S
C323 H331 0.952 1_554 S
C324 C323 1.379 . S
C324 C325 1.390 . S
C324 H344 0.949 . S
C325 C324 1.390 . S
C325 C326 1.357 . S
C326 C322 1.370 . S
C326 C325 1.357 . S
C326 H345 0.950 . S
Zn327 N321 2.020 1_556 S
Zn327 O330 2.025 1_545 S
Zn327 O335 2.024 1_545 S
Zn327 O337 2.039 . S
Zn327 O339 2.034 1_455 S
O328 C312 1.251 1_655 S
O328 Zn319 2.039 1_655 S
C329 O334 1.246 . S
C329 O335 1.249 . S
O330 C312 1.254 . S
O330 Zn327 2.025 1_565 S
H331 C323 0.952 1_556 S
H332 C314 0.962 . S
H333 C322 0.948 1_565 S
O334 Zn319 2.034 . S
O334 C329 1.246 . S
O335 Zn327 2.024 1_565 S
O335 C329 1.249 . S
H336 C318 0.948 1_545 S
O337 Zn327 2.039 . S
O337 C341 1.251 . S
O338 Zn319 2.025 1_545 S
O338 C341 1.254 . S
O339 C320 1.246 . S
O339 Zn327 2.034 1_655 S
O340 Zn319 2.024 1_645 S
O340 C320 1.249 . S
C341 O337 1.251 . S
C341 O338 1.254 . S
H342 C315 0.949 . S
H343 C317 0.950 . S
H344 C324 0.949 . S
H345 C326 0.950 . S
C346 O362 1.251 1_565 S
C346 O364 1.254 . S
N347 C348 1.333 . S
N347 C352 1.307 . S
N347 Zn353 2.020 . S
C348 N347 1.333 . S
C348 C349 1.379 . S
C348 H366 0.952 . S
C349 C348 1.379 . S
C349 C350 1.390 . S
C349 H376 0.949 . S
C350 C349 1.390 . S
C350 C351 1.357 . S
C351 C350 1.357 . S
C351 C352 1.370 . S
C351 H377 0.950 . S
C352 N347 1.307 . S
C352 C351 1.370 . S
C352 H370 0.948 . S
Zn353 N347 2.020 . S
Zn353 O362 2.039 . S
Zn353 O368 2.034 . S
Zn353 O372 2.025 . S
Zn353 O374 2.024 . S
C354 O373 1.246 1_545 S
C354 O374 1.249 . S
N355 C356 1.307 . S
N355 C357 1.333 . S
N355 Zn361 2.020 . S
C356 N355 1.307 . S
C356 C360 1.370 . S
C356 H367 0.948 . S
C357 N355 1.333 . S
C357 C358 1.379 . S
C357 H365 0.952 . S
C358 C357 1.379 . S
C358 C359 1.390 . S
C358 H378 0.949 1_556 S
C359 C358 1.390 . S
C359 C360 1.357 . S
C360 C356 1.370 . S
C360 C359 1.357 . S
C360 H379 0.950 . S
Zn361 N355 2.020 . S
Zn361 O364 2.025 . S
Zn361 O369 2.024 . S
Zn361 O371 2.039 . S
Zn361 O373 2.034 . S
O362 C346 1.251 1_545 S
O362 Zn353 2.039 . S
C363 O368 1.246 1_565 S
C363 O369 1.249 . S
O364 C346 1.254 . S
O364 Zn361 2.025 . S
H365 C357 0.952 . S
H366 C348 0.952 . S
H367 C356 0.948 . S
O368 Zn353 2.034 . S
O368 C363 1.246 1_545 S
O369 Zn361 2.024 . S
O369 C363 1.249 . S
H370 C352 0.948 . S
O371 Zn361 2.039 . S
O371 C375 1.251 1_565 S
O372 Zn353 2.025 . S
O372 C375 1.254 . S
O373 C354 1.246 1_565 S
O373 Zn361 2.034 . S
O374 Zn353 2.024 . S
O374 C354 1.249 . S
C375 O371 1.251 1_545 S
C375 O372 1.254 . S
H376 C349 0.949 . S
H377 C351 0.950 . S
H378 C358 0.949 1_554 S
H379 C360 0.950 . S
C380 O396 1.251 . S
C380 O398 1.254 . S
N381 C382 1.333 . S
N381 C386 1.307 . S
N381 Zn387 2.020 . S
C382 N381 1.333 . S
C382 C383 1.379 . S
C382 H400 0.952 . S
C383 C382 1.379 . S
C383 C384 1.390 . S
C383 H410 0.949 . S
C384 C383 1.390 . S
C384 C385 1.357 . S
C385 C384 1.357 . S
C385 C386 1.370 . S
C385 H411 0.950 . S
C386 N381 1.307 . S
C386 C385 1.370 . S
C386 H404 0.948 . S
Zn387 N381 2.020 . S
Zn387 O396 2.039 . S
Zn387 O402 2.034 . S
Zn387 O406 2.025 . S
Zn387 O408 2.024 . S
C388 O407 1.246 . S
C388 O408 1.249 . S
N389 C390 1.307 . S
N389 C391 1.333 . S
N389 Zn395 2.020 . S
C390 N389 1.307 . S
C390 C394 1.370 . S
C390 H401 0.948 . S
C391 N389 1.333 . S
C391 C392 1.379 . S
C391 H399 0.952 . S
C392 C391 1.379 . S
C392 C393 1.390 . S
C392 H412 0.949 1_556 S
C393 C392 1.390 . S
C393 C394 1.357 . S
C394 C390 1.370 . S
C394 C393 1.357 . S
C394 H413 0.950 . S
Zn395 N389 2.020 . S
Zn395 O398 2.025 . S
Zn395 O403 2.024 . S
Zn395 O405 2.039 . S
Zn395 O407 2.034 . S
O396 C380 1.251 . S
O396 Zn387 2.039 . S
C397 O402 1.246 . S
C397 O403 1.249 . S
O398 C380 1.254 . S
O398 Zn395 2.025 . S
H399 C391 0.952 . S
H400 C382 0.952 . S
H401 C390 0.948 . S
O402 Zn387 2.034 . S
O402 C397 1.246 . S
O403 Zn395 2.024 . S
O403 C397 1.249 . S
H404 C386 0.948 . S
O405 Zn395 2.039 . S
O405 C409 1.251 . S
O406 Zn387 2.025 . S
O406 C409 1.254 . S
O407 C388 1.246 . S
O407 Zn395 2.034 . S
O408 Zn387 2.024 . S
O408 C388 1.249 . S
C409 O405 1.251 . S
C409 O406 1.254 . S
H410 C383 0.949 . S
H411 C385 0.950 . S
H412 C392 0.949 1_554 S
H413 C394 0.950 . S
C414 O430 1.251 . S
C414 O432 1.254 . S
N415 C416 1.333 . S
N415 C420 1.307 . S
N415 Zn421 2.020 . S
C416 N415 1.333 . S
C416 C417 1.379 . S
C416 H434 0.952 . S
C417 C416 1.379 . S
C417 C418 1.390 . S
C417 H444 0.949 . S
C418 C417 1.390 . S
C418 C419 1.357 . S
C419 C418 1.357 . S
C419 C420 1.370 . S
C419 H445 0.950 . S
C420 N415 1.307 . S
C420 C419 1.370 . S
C420 H438 0.948 . S
Zn421 N415 2.020 . S
Zn421 O430 2.039 . S
Zn421 O436 2.034 1_455 S
Zn421 O440 2.025 1_455 S
Zn421 O442 2.024 . S
C422 O441 1.246 . S
C422 O442 1.249 . S
N423 C424 1.307 . S
N423 C425 1.333 . S
N423 Zn429 2.020 1_655 S
C424 N423 1.307 . S
C424 C428 1.370 . S
C424 H435 0.948 1_655 S
C425 N423 1.333 . S
C425 C426 1.379 . S
C425 H433 0.952 . S
C426 C425 1.379 . S
C426 C427 1.390 . S
C426 H446 0.949 . S
C427 C426 1.390 . S
C427 C428 1.357 . S
C428 C424 1.370 . S
C428 C427 1.357 . S
C428 H447 0.950 . S
Zn429 N423 2.020 1_455 S
Zn429 O432 2.025 . S
Zn429 O437 2.024 1_455 S
Zn429 O439 2.039 1_455 S
Zn429 O441 2.034 . S
O430 C414 1.251 . S
O430 Zn421 2.039 . S
C431 O436 1.246 . S
C431 O437 1.249 . S
O432 C414 1.254 . S
O432 Zn429 2.025 . S
H433 C425 0.952 . S
H434 C416 0.952 . S
H435 C424 0.948 1_455 S
O436 Zn421 2.034 1_655 S
O436 C431 1.246 . S
O437 Zn429 2.024 1_655 S
O437 C431 1.249 . S
H438 C420 0.948 . S
O439 Zn429 2.039 1_655 S
O439 C443 1.251 . S
O440 Zn421 2.025 1_655 S
O440 C443 1.254 . S
O441 C422 1.246 . S
O441 Zn429 2.034 . S
O442 Zn421 2.024 . S
O442 C422 1.249 . S
C443 O439 1.251 . S
C443 O440 1.254 . S
H444 C417 0.949 . S
H445 C419 0.950 . S
H446 C426 0.949 . S
H447 C428 0.950 . S
C255 C329 2.743 . S
C350 C294 2.536 . S
C384 C177 3.227 . S
C418 C216 2.227 . S
C320 C99 2.751 1_546 S
C138 C359 2.502 1_554 S
C21 C393 3.216 1_554 S
C60 C427 2.271 . S
C341 C196 3.870 . S
C346 C235 1.379 . S
C380 C289 1.813 . S
C157 C414 1.088 . S
C40 C312 3.889 1_655 S
C375 C79 1.382 1_545 S
C409 C133 1.830 . S
C1 C443 1.061 . S
C211 C325 3.105 . S
C250 C354 3.293 . S
C388 C274 2.738 . S
C422 C172 3.021 . S
C55 C316 3.104 . S
C363 C94 3.293 1_565 S
C397 C118 2.729 . S
C16 C431 3.030 . S
