# Generated by pormake.
# Topology ctn, (3,4)-cn, num edge types: 1
# Building blocks:
#     Node 0, Type 0, BuildingBlock: BETDAH_clean_linker_0, # of connection points: 3
#     Node 1, Type 0, BuildingBlock: BETDAH_clean_linker_0, # of connection points: 3
#     Node 2, Type 0, BuildingBlock: BETDAH_clean_linker_0, # of connection points: 3
#     Node 3, Type 0, BuildingBlock: BETDAH_clean_linker_0, # of connection points: 3
#     Node 4, Type 0, BuildingBlock: BETDAH_clean_linker_0, # of connection points: 3
#     Node 5, Type 0, BuildingBlock: BETDAH_clean_linker_0, # of connection points: 3
#     Node 6, Type 0, BuildingBlock: BETDAH_clean_linker_0, # of connection points: 3
#     Node 7, Type 0, BuildingBlock: BETDAH_clean_linker_0, # of connection points: 3
#     Node 8, Type 0, BuildingBlock: BETDAH_clean_linker_0, # of connection points: 3
#     Node 9, Type 0, BuildingBlock: BETDAH_clean_linker_0, # of connection points: 3
#     Node 10, Type 0, BuildingBlock: BETDAH_clean_linker_0, # of connection points: 3
#     Node 11, Type 0, BuildingBlock: BETDAH_clean_linker_0, # of connection points: 3
#     Node 12, Type 0, BuildingBlock: BETDAH_clean_linker_0, # of connection points: 3
#     Node 13, Type 0, BuildingBlock: BETDAH_clean_linker_0, # of connection points: 3
#     Node 14, Type 0, BuildingBlock: BETDAH_clean_linker_0, # of connection points: 3
#     Node 15, Type 0, BuildingBlock: BETDAH_clean_linker_0, # of connection points: 3
#     Node 16, Type 1, BuildingBlock: AZAVOO_clean_sbu_0, # of connection points: 4
#     Node 17, Type 1, BuildingBlock: AZAVOO_clean_sbu_0, # of connection points: 4
#     Node 18, Type 1, BuildingBlock: AZAVOO_clean_sbu_0, # of connection points: 4
#     Node 19, Type 1, BuildingBlock: AZAVOO_clean_sbu_0, # of connection points: 4
#     Node 20, Type 1, BuildingBlock: AZAVOO_clean_sbu_0, # of connection points: 4
#     Node 21, Type 1, BuildingBlock: AZAVOO_clean_sbu_0, # of connection points: 4
#     Node 22, Type 1, BuildingBlock: AZAVOO_clean_sbu_0, # of connection points: 4
#     Node 23, Type 1, BuildingBlock: AZAVOO_clean_sbu_0, # of connection points: 4
#     Node 24, Type 1, BuildingBlock: AZAVOO_clean_sbu_0, # of connection points: 4
#     Node 25, Type 1, BuildingBlock: AZAVOO_clean_sbu_0, # of connection points: 4
#     Node 26, Type 1, BuildingBlock: AZAVOO_clean_sbu_0, # of connection points: 4
#     Node 27, Type 1, BuildingBlock: AZAVOO_clean_sbu_0, # of connection points: 4
#     Edge 28, Type (0, 1), BuildingBlock: XUDNAN_clean_linker_2, # of connection points: 2
#     Edge 29, Type (0, 1), BuildingBlock: XUDNAN_clean_linker_2, # of connection points: 2
#     Edge 30, Type (0, 1), BuildingBlock: XUDNAN_clean_linker_2, # of connection points: 2
#     Edge 31, Type (0, 1), BuildingBlock: XUDNAN_clean_linker_2, # of connection points: 2
#     Edge 32, Type (0, 1), BuildingBlock: XUDNAN_clean_linker_2, # of connection points: 2
#     Edge 33, Type (0, 1), BuildingBlock: XUDNAN_clean_linker_2, # of connection points: 2
#     Edge 34, Type (0, 1), BuildingBlock: XUDNAN_clean_linker_2, # of connection points: 2
#     Edge 35, Type (0, 1), BuildingBlock: XUDNAN_clean_linker_2, # of connection points: 2
#     Edge 36, Type (0, 1), BuildingBlock: XUDNAN_clean_linker_2, # of connection points: 2
#     Edge 37, Type (0, 1), BuildingBlock: XUDNAN_clean_linker_2, # of connection points: 2
#     Edge 38, Type (0, 1), BuildingBlock: XUDNAN_clean_linker_2, # of connection points: 2
#     Edge 39, Type (0, 1), BuildingBlock: XUDNAN_clean_linker_2, # of connection points: 2
#     Edge 40, Type (0, 1), BuildingBlock: XUDNAN_clean_linker_2, # of connection points: 2
#     Edge 41, Type (0, 1), BuildingBlock: XUDNAN_clean_linker_2, # of connection points: 2
#     Edge 42, Type (0, 1), BuildingBlock: XUDNAN_clean_linker_2, # of connection points: 2
#     Edge 43, Type (0, 1), BuildingBlock: XUDNAN_clean_linker_2, # of connection points: 2
#     Edge 44, Type (0, 1), BuildingBlock: XUDNAN_clean_linker_2, # of connection points: 2
#     Edge 45, Type (0, 1), BuildingBlock: XUDNAN_clean_linker_2, # of connection points: 2
#     Edge 46, Type (0, 1), BuildingBlock: XUDNAN_clean_linker_2, # of connection points: 2
#     Edge 47, Type (0, 1), BuildingBlock: XUDNAN_clean_linker_2, # of connection points: 2
#     Edge 48, Type (0, 1), BuildingBlock: XUDNAN_clean_linker_2, # of connection points: 2
#     Edge 49, Type (0, 1), BuildingBlock: XUDNAN_clean_linker_2, # of connection points: 2
#     Edge 50, Type (0, 1), BuildingBlock: XUDNAN_clean_linker_2, # of connection points: 2
#     Edge 51, Type (0, 1), BuildingBlock: XUDNAN_clean_linker_2, # of connection points: 2
#     Edge 52, Type (0, 1), BuildingBlock: XUDNAN_clean_linker_2, # of connection points: 2
#     Edge 53, Type (0, 1), BuildingBlock: XUDNAN_clean_linker_2, # of connection points: 2
#     Edge 54, Type (0, 1), BuildingBlock: XUDNAN_clean_linker_2, # of connection points: 2
#     Edge 55, Type (0, 1), BuildingBlock: XUDNAN_clean_linker_2, # of connection points: 2
#     Edge 56, Type (0, 1), BuildingBlock: XUDNAN_clean_linker_2, # of connection points: 2
#     Edge 57, Type (0, 1), BuildingBlock: XUDNAN_clean_linker_2, # of connection points: 2
#     Edge 58, Type (0, 1), BuildingBlock: XUDNAN_clean_linker_2, # of connection points: 2
#     Edge 59, Type (0, 1), BuildingBlock: XUDNAN_clean_linker_2, # of connection points: 2
#     Edge 60, Type (0, 1), BuildingBlock: XUDNAN_clean_linker_2, # of connection points: 2
#     Edge 61, Type (0, 1), BuildingBlock: XUDNAN_clean_linker_2, # of connection points: 2
#     Edge 62, Type (0, 1), BuildingBlock: XUDNAN_clean_linker_2, # of connection points: 2
#     Edge 63, Type (0, 1), BuildingBlock: XUDNAN_clean_linker_2, # of connection points: 2
#     Edge 64, Type (0, 1), BuildingBlock: XUDNAN_clean_linker_2, # of connection points: 2
#     Edge 65, Type (0, 1), BuildingBlock: XUDNAN_clean_linker_2, # of connection points: 2
#     Edge 66, Type (0, 1), BuildingBlock: XUDNAN_clean_linker_2, # of connection points: 2
#     Edge 67, Type (0, 1), BuildingBlock: XUDNAN_clean_linker_2, # of connection points: 2
#     Edge 68, Type (0, 1), BuildingBlock: XUDNAN_clean_linker_2, # of connection points: 2
#     Edge 69, Type (0, 1), BuildingBlock: XUDNAN_clean_linker_2, # of connection points: 2
#     Edge 70, Type (0, 1), BuildingBlock: XUDNAN_clean_linker_2, # of connection points: 2
#     Edge 71, Type (0, 1), BuildingBlock: XUDNAN_clean_linker_2, # of connection points: 2
#     Edge 72, Type (0, 1), BuildingBlock: XUDNAN_clean_linker_2, # of connection points: 2
#     Edge 73, Type (0, 1), BuildingBlock: XUDNAN_clean_linker_2, # of connection points: 2
#     Edge 74, Type (0, 1), BuildingBlock: XUDNAN_clean_linker_2, # of connection points: 2
#     Edge 75, Type (0, 1), BuildingBlock: XUDNAN_clean_linker_2, # of connection points: 2
# Relax obj value: 0.051
# Max RMSD: 0.175
# Mean RMSD: 0.104
data_MOF--net-ctn--node1-AZAVOO_clean_sbu_0--node2-BETDAH_clean_linker_0--edge1-XUDNAN_clean_linker_2
_symmetry_space_group_name_H-M    P1
_symmetry_Int_Tables_number       1
_symmetry_cell_setting            triclinic
loop_
_symmetry_equiv_pos_as_xyz
'x, y, z'
_cell_length_a     52.710827
_cell_length_b     53.869177
_cell_length_c     54.524462
_cell_angle_alpha  98.500235
_cell_angle_beta   92.992499
_cell_angle_gamma 97.695968
loop_
_atom_site_label
_atom_site_type_symbol
_atom_site_fract_x
_atom_site_fract_y
_atom_site_fract_z
_atom_type_partial_charge
H0 H 0.07151 0.9922 0.07406 0.0
H1 H 0.06941 0.02024 0.00408 0.0
H2 H 0.01698 0.04146 0.05799 0.0
C3 C 0.06377 0.00402 0.06198 0.0
C4 C 0.04366 0.01742 0.06969 0.0
C5 C 0.07362 0.00511 0.03856 0.0
C6 C 0.06238 0.01928 0.02228 0.0
C7 C 0.0415 0.03173 0.0293 0.0
C8 C 0.03244 0.03086 0.05282 0.0
N9 N 0.02818 0.04419 0.01268 0.0
C10 C 0.04005 0.06041 0.99784 0.0
H11 H 0.34345 0.69816 0.27799 0.0
H12 H 0.37435 0.77241 0.26402 0.0
H13 H 0.29997 0.73725 0.23091 0.0
C14 C 0.34147 0.71488 0.26955 0.0
C15 C 0.31914 0.71555 0.25453 0.0
C16 C 0.36181 0.73499 0.27254 0.0
C17 C 0.35903 0.75647 0.26142 0.0
C18 C 0.33698 0.75741 0.24634 0.0
C19 C 0.31714 0.73668 0.24252 0.0
N20 N 0.33532 0.77969 0.23568 0.0
C21 C 0.32214 0.78001 0.213 0.0
H22 H 0.04452 0.44574 0.06518 0.0
H23 H 0.03702 0.52437 0.08574 0.0
H24 H 0.99817 0.48216 0.01789 0.0
C25 C 0.03667 0.46246 0.06123 0.0
C26 C 0.02116 0.46136 0.03923 0.0
C27 C 0.04218 0.48502 0.07816 0.0
C28 C 0.03252 0.50676 0.07284 0.0
C29 C 0.01616 0.50574 0.05152 0.0
C30 C 0.01025 0.48288 0.03476 0.0
N31 N 1.00682 0.52828 0.0471 0.0
C32 C 0.98264 0.52897 0.03599 0.0
H33 H 0.79812 0.8365 0.20315 0.0
H34 H 0.72035 0.79991 0.20167 0.0
H35 H 0.73915 0.87835 0.23279 0.0
C36 C 0.77844 0.83765 0.20739 0.0
C37 C 0.77155 0.86032 0.21998 0.0
C38 C 0.75997 0.816 0.20041 0.0
C39 C 0.73464 0.81656 0.20696 0.0
C40 C 0.72738 0.83918 0.21881 0.0
C41 C 0.74555 0.86096 0.22446 0.0
N42 N 0.7017 0.84086 0.2245 0.0
C43 C 0.6868 0.82222 0.2346 0.0
H44 H 0.07698 0.04817 0.4796 0.0
H45 H 0.09563 0.98814 0.51913 0.0
H46 H 0.02626 0.97793 0.47225 0.0
C47 C 0.07254 0.02946 0.48461 0.0
C48 C 0.04991 0.01411 0.47382 0.0
C49 C 0.0898 0.02035 0.50071 0.0
C50 C 0.08273 0.99606 0.50737 0.0
C51 C 0.05955 0.98107 0.49736 0.0
C52 C 0.04368 0.99001 0.48041 0.0
N53 N 0.05242 0.95599 0.50205 0.0
C54 C 0.05825 0.94697 0.52395 0.0
H55 H 0.27697 0.70406 0.82622 0.0
H56 H 0.21602 0.72635 0.78205 0.0
H57 H 0.2527 0.66261 0.75364 0.0
C58 C 0.26481 0.70183 0.80918 0.0
C59 C 0.26733 0.68197 0.79012 0.0
C60 C 0.24608 0.7179 0.80672 0.0
C61 C 0.23008 0.71384 0.78453 0.0
C62 C 0.23235 0.69379 0.76543 0.0
C63 C 0.25092 0.67799 0.76842 0.0
N64 N 0.21634 0.68888 0.74298 0.0
C65 C 0.19595 0.70179 0.73811 0.0
H66 H 0.94378 0.53109 0.51593 0.0
H67 H 1.00702 0.57466 0.48783 0.0
H68 H 0.97748 0.50017 0.44975 0.0
C69 C 0.9577 0.53298 0.50215 0.0
C70 C 0.95836 0.51274 0.48268 0.0
C71 C 0.97502 0.55554 0.50419 0.0
C72 C 0.99311 0.55767 0.48639 0.0
C73 C 0.99416 0.53797 0.46687 0.0
C74 C 0.97682 0.51539 0.46498 0.0
N75 N 0.01301 0.5422 0.44969 0.0
C76 C 0.01935 0.52485 0.4303 0.0
H77 H 0.84154 0.76562 0.81947 0.0
H78 H 0.81303 0.82939 0.79368 0.0
H79 H 0.7726 0.79052 0.84651 0.0
C80 C 0.82746 0.77858 0.81969 0.0
C81 C 0.80673 0.77566 0.8346 0.0
C82 C 0.82987 0.79789 0.80476 0.0
C83 C 0.81141 0.81462 0.80524 0.0
C84 C 0.79066 0.81182 0.82033 0.0
C85 C 0.78858 0.79245 0.83486 0.0
N86 N 0.77134 0.82787 0.82157 0.0
C87 C 0.76808 0.84569 0.80612 0.0
H88 H 0.35568 0.24037 0.31477 0.0
H89 H 0.31833 0.29813 0.28703 0.0
H90 H 0.29121 0.26744 0.35036 0.0
C91 C 0.34081 0.25247 0.31592 0.0
C92 C 0.32336 0.25117 0.33463 0.0
C93 C 0.3394 0.26968 0.29888 0.0
C94 C 0.31988 0.28523 0.30031 0.0
C95 C 0.30228 0.28395 0.3187 0.0
C96 C 0.30438 0.26727 0.33576 0.0
N97 N 0.28221 0.29913 0.32093 0.0
C98 C 0.27799 0.31746 0.30634 0.0
H99 H 0.54609 0.94043 0.55783 0.0
H100 H 0.48618 0.98679 0.57402 0.0
H101 H 0.48017 0.93328 0.50674 0.0
C102 C 0.52775 0.94622 0.55335 0.0
C103 C 0.51401 0.93455 0.53102 0.0
C104 C 0.51812 0.96532 0.56937 0.0
C105 C 0.49451 0.97278 0.56195 0.0
C106 C 0.48105 0.96152 0.53915 0.0
C107 C 0.49079 0.94228 0.52405 0.0
N108 N 0.45739 0.96856 0.53096 0.0
C109 C 0.44841 0.99098 0.54012 0.0
H110 H 0.28891 0.34839 0.68835 0.0
H111 H 0.21766 0.31862 0.71575 0.0
H112 H 0.25067 0.39622 0.7401 0.0
C113 C 0.27301 0.35103 0.69984 0.0
C114 C 0.27226 0.37478 0.71415 0.0
C115 C 0.25331 0.33068 0.70018 0.0
C116 C 0.23293 0.33416 0.71548 0.0
C117 C 0.23195 0.35799 0.72972 0.0
C118 C 0.25149 0.37805 0.7288 0.0
N119 N 0.21156 0.36286 0.74493 0.0
C120 C 0.1932 0.34455 0.75161 0.0
H121 H 0.83259 0.204 0.7728 0.0
H122 H 0.88052 0.27301 0.76414 0.0
H123 H 0.81293 0.24549 0.71485 0.0
C124 C 0.83669 0.22036 0.76346 0.0
C125 C 0.82 0.22307 0.74343 0.0
C126 C 0.8588 0.23804 0.77106 0.0
C127 C 0.86393 0.25877 0.75827 0.0
C128 C 0.84774 0.26156 0.73794 0.0
C129 C 0.82579 0.24346 0.73036 0.0
N130 N 0.854 0.28301 0.72592 0.0
C131 C 0.8423 0.28617 0.70339 0.0
H132 H 0.59624 0.51768 0.59323 0.0
H133 H 0.58951 0.50185 0.51293 0.0
H134 H 0.52814 0.52949 0.5518 0.0
C135 C 0.58552 0.51715 0.57562 0.0
C136 C 0.56116 0.52524 0.57538 0.0
C137 C 0.59602 0.50846 0.55314 0.0
C138 C 0.5818 0.50809 0.53046 0.0
C139 C 0.5575 0.51577 0.53014 0.0
C140 C 0.54721 0.52405 0.55244 0.0
N141 N 0.54274 0.51409 0.5074 0.0
C142 C 0.54629 0.53306 0.49273 0.0
H143 H 0.58776 0.52455 0.95629 0.0
H144 H 0.6006 0.52171 0.03413 0.0
H145 H 0.52865 0.4869 0.9955 0.0
C146 C 0.58117 0.51786 0.97299 0.0
C147 C 0.55604 0.50501 0.97299 0.0
C148 C 0.5973 0.52386 0.99496 0.0
C149 C 0.5884 0.51672 0.01699 0.0
C150 C 0.56409 0.50274 0.01712 0.0
C151 C 0.54786 0.49687 0.99512 0.0
N152 N 0.55585 0.49667 0.04013 0.0
C153 C 0.54271 0.4733 0.04314 0.0
H154 H 0.76828 0.21807 0.31694 0.0
H155 H 0.7079 0.24224 0.27395 0.0
H156 H 0.74924 0.18377 0.24083 0.0
C157 C 0.7564 0.21629 0.29975 0.0
C158 C 0.76087 0.1987 0.27933 0.0
C159 C 0.7373 0.23205 0.29812 0.0
C160 C 0.72271 0.2303 0.27539 0.0
C161 C 0.72718 0.21288 0.25466 0.0
C162 C 0.74625 0.19736 0.25678 0.0
N163 N 0.71298 0.21022 0.23132 0.0
C164 C 0.69138 0.22154 0.22668 0.0
H165 H 0.43604 0.03795 0.00579 0.0
H166 H 0.50279 0.04055 0.96361 0.0
H167 H 0.45388 0.97007 0.9619 0.0
C168 C 0.44851 0.0282 0.99382 0.0
C169 C 0.44206 1.00202 0.98534 0.0
C170 C 0.47072 0.04221 0.98677 0.0
C171 C 0.48573 0.03006 0.96936 0.0
C172 C 0.47903 0.00411 0.95993 0.0
C173 C 0.45779 0.99026 0.96848 0.0
N174 N 0.49323 0.99092 0.94214 0.0
C175 C 0.5137 1.00165 0.93023 0.0
Mg176 Mg 0.23991 0.85022 0.02292 0.0
O177 O 0.27712 0.87812 0.02251 0.0
O178 O 0.30914 0.85478 0.01731 0.0
Mg179 Mg 0.29361 0.81324 0.01807 0.0
C180 C 0.30068 0.87605 0.01957 0.0
C181 C 0.21037 0.89795 0.03232 0.0
O182 O 0.22101 0.89946 0.05492 0.0
O183 O 0.24054 0.83632 0.98112 0.0
O184 O 0.27234 0.81257 0.98022 0.0
O185 O 0.24534 0.85243 0.0646 0.0
O186 O 0.26051 0.82473 0.03745 0.0
C187 C 0.25442 0.82158 0.96929 0.0
C188 C 0.25833 0.83367 0.06031 0.0
O189 O 0.21509 0.88057 0.01542 0.0
Mg190 Mg 0.19213 0.51592 0.28026 0.0
O191 O 0.16615 0.50816 0.24382 0.0
O192 O 0.19152 0.51197 0.21251 0.0
Mg193 Mg 0.23331 0.52135 0.22834 0.0
C194 C 0.16933 0.50772 0.22067 0.0
C195 C 0.13866 0.51155 0.30285 0.0
O196 O 0.13697 0.53015 0.29001 0.0
O197 O 0.20485 0.47685 0.27147 0.0
O198 O 0.23131 0.48226 0.24133 0.0
O199 O 0.19122 0.55792 0.28381 0.0
O200 O 0.21955 0.53795 0.26341 0.0
C201 C 0.22062 0.46862 0.25629 0.0
C202 C 0.21036 0.55866 0.26988 0.0
O203 O 0.15881 0.5009 0.30209 0.0
Mg204 Mg 0.81858 0.66857 0.02613 0.0
O205 O 0.77902 0.64337 0.01998 0.0
O206 O 0.74854 0.66851 0.02463 0.0
Mg207 Mg 0.76822 0.70958 0.03015 0.0
C208 C 0.75544 0.64653 0.02055 0.0
C209 C 0.8334 0.61286 0.02005 0.0
O210 O 0.81267 0.60865 0.03206 0.0
O211 O 0.81362 0.67743 0.98648 0.0
O212 O 0.78229 0.70177 0.99086 0.0
O213 O 0.8179 0.67071 0.06759 0.0
O214 O 0.80285 0.69801 0.04626 0.0
C215 C 0.79799 0.69061 0.97763 0.0
C216 C 0.80657 0.69057 0.06732 0.0
O217 O 0.83967 0.63468 0.01405 0.0
Mg218 Mg 0.94383 0.05984 0.26895 0.0
O219 O 0.91627 0.02241 0.2618 0.0
O220 O 0.93844 0.98983 0.25425 0.0
Mg221 Mg 0.98104 0.00655 0.25991 0.0
C222 C 0.91726 0.99871 0.25632 0.0
C223 C 0.90111 0.09453 0.26576 0.0
O224 O 0.91135 0.09614 0.24449 0.0
O225 O 0.95352 0.05314 0.30881 0.0
O226 O 0.97625 0.02095 0.301 0.0
O227 O 0.94591 0.05994 0.22762 0.0
O228 O 0.9722 0.04279 0.25061 0.0
C229 C 0.9666 0.03691 0.3162 0.0
C230 C 0.96516 0.04752 0.22912 0.0
O231 O 0.91023 0.08101 0.28036 0.0
Mg232 Mg 0.31145 0.16612 0.54278 0.0
O233 O 0.27303 0.13901 0.53553 0.0
O234 O 0.24273 0.16239 0.5266 0.0
Mg235 Mg 0.261 0.20386 0.53002 0.0
C236 C 0.24973 0.14119 0.5296 0.0
C237 C 0.35342 0.13613 0.55627 0.0
O238 O 0.35761 0.15747 0.57201 0.0
O239 O 0.31377 0.16937 0.50136 0.0
O240 O 0.28357 0.19387 0.49569 0.0
O241 O 0.30426 0.17342 0.58289 0.0
O242 O 0.29223 0.19663 0.55538 0.0
C243 C 0.30137 0.18162 0.4876 0.0
C244 C 0.29257 0.19192 0.57789 0.0
O245 O 0.33451 0.13282 0.54006 0.0
Mg246 Mg 0.45699 0.55653 0.77309 0.0
O247 O 0.42871 0.52243 0.75479 0.0
O248 O 0.44914 0.48978 0.74186 0.0
Mg249 Mg 0.49233 0.50513 0.74965 0.0
C250 C 0.42848 0.49951 0.74468 0.0
C251 C 0.42001 0.59639 0.78949 0.0
O252 O 0.43879 0.6118 0.78251 0.0
O253 O 0.46415 0.53703 0.80675 0.0
O254 O 0.48911 0.50851 0.7923 0.0
O255 O 0.45961 0.57058 0.73712 0.0
O256 O 0.48524 0.54491 0.74958 0.0
C257 C 0.47809 0.51998 0.81009 0.0
C258 C 0.47782 0.55705 0.73241 0.0
O259 O 0.4226 0.57322 0.78927 0.0
Mg260 Mg 0.76057 0.36528 0.51809 0.0
O261 O 0.80112 0.38386 0.51003 0.0
O262 O 0.82375 0.35154 0.50309 0.0
Mg263 Mg 0.80026 0.31412 0.50844 0.0
C264 C 0.82186 0.3751 0.50439 0.0
C265 C 0.74681 0.41997 0.53207 0.0
O266 O 0.7656 0.42037 0.54899 0.0
O267 O 0.75209 0.34906 0.47636 0.0
O268 O 0.77413 0.31612 0.4742 0.0
O269 O 0.77181 0.3687 0.55923 0.0
O270 O 0.77596 0.33581 0.53147 0.0
C271 C 0.7587 0.32891 0.46443 0.0
C272 C 0.77905 0.34661 0.55423 0.0
O273 O 0.74175 0.40084 0.51496 0.0
Mg274 Mg 0.67729 0.03744 0.7661 0.0
O275 O 0.64562 0.02747 0.73372 0.0
O276 O 0.66652 0.02313 0.69884 0.0
Mg277 Mg 0.70976 0.03456 0.70802 0.0
C278 C 0.64582 0.02218 0.71007 0.0
C279 C 0.62939 0.03525 0.80044 0.0
O280 O 0.62162 0.05191 0.7875 0.0
O281 O 0.68861 0.99752 0.75907 0.0
O282 O 0.71149 0.99861 0.72576 0.0
O283 O 0.67763 0.07928 0.76674 0.0
O284 O 0.70122 0.05598 0.74336 0.0
C285 C 0.70284 0.9874 0.74333 0.0
C286 C 0.69426 0.07778 0.75012 0.0
O287 O 0.64981 0.02605 0.79517 0.0
Mg288 Mg 0.06069 0.25649 0.90842 0.0
O289 O 0.01965 0.24303 0.88995 0.0
O290 O 0.9959 0.22805 0.9188 0.0
Mg291 Mg 0.02046 0.23282 0.95521 0.0
C292 C 0.99827 0.23306 0.89679 0.0
C293 C 0.07198 0.26179 0.85388 0.0
O294 O 0.06148 0.23792 0.85117 0.0
O295 O 0.0467 0.29214 0.92823 0.0
O296 O 0.02218 0.27594 0.95606 0.0
O297 O 0.07135 0.21763 0.89924 0.0
O298 O 0.05464 0.23149 0.93405 0.0
C299 C 0.03177 0.29462 0.94589 0.0
C300 C 0.06267 0.2131 0.92014 0.0
O301 O 0.07296 0.27537 0.87518 0.0
Mg302 Mg 0.57163 0.72953 0.40351 0.0
O303 O 0.53278 0.72374 0.38147 0.0
O304 O 0.50129 0.71324 0.40539 0.0
Mg305 Mg 0.52115 0.71133 0.44362 0.0
C306 C 0.50901 0.7182 0.3846 0.0
C307 C 0.58694 0.73453 0.35047 0.0
O308 O 0.57328 0.71188 0.34729 0.0
O309 O 0.56249 0.76728 0.42326 0.0
O310 O 0.53343 0.75484 0.4491 0.0
O311 O 0.57539 0.68882 0.39348 0.0
O312 O 0.55744 0.7043 0.42704 0.0
C313 C 0.54767 0.77229 0.44058 0.0
C314 C 0.56362 0.68486 0.41308 0.0
O315 O 0.58983 0.74766 0.3721 0.0
Mg316 Mg 0.98949 0.76289 0.63831 0.0
O317 O 0.02801 0.75725 0.65763 0.0
O318 O 0.05197 0.74401 0.62698 0.0
Mg319 Mg 0.03019 0.74162 0.58923 0.0
C320 C 0.0488 0.74996 0.65007 0.0
C321 C 0.95395 0.77203 0.67884 0.0
O322 O 0.94299 0.75213 0.66317 0.0
O323 O 0.00852 0.80001 0.62705 0.0
O324 O 0.03126 0.785 0.59616 0.0
O325 O 0.97457 0.72214 0.63865 0.0
O326 O 0.99444 0.73593 0.60763 0.0
C327 C 0.0235 0.80352 0.60978 0.0
C328 C 0.98398 0.71708 0.61737 0.0
O329 O 0.97581 0.78295 0.6744 0.0
Mg330 Mg 0.48093 0.25425 0.11153 0.0
O331 O 0.51977 0.25355 0.13278 0.0
O332 O 0.54917 0.25094 0.1048 0.0
Mg333 Mg 0.52969 0.24953 0.06597 0.0
C334 C 0.54288 0.25228 0.12722 0.0
C335 C 0.45065 0.25049 0.15953 0.0
O336 O 0.44886 0.22631 0.15037 0.0
O337 O 0.49313 0.29546 0.10562 0.0
O338 O 0.52092 0.29029 0.07629 0.0
O339 O 0.47346 0.21153 0.10472 0.0
O340 O 0.49298 0.23452 0.07921 0.0
C341 C 0.5082 0.3044 0.09036 0.0
C342 C 0.48506 0.21245 0.08446 0.0
O343 O 0.46311 0.26675 0.14825 0.0
H344 H 0.28331 0.74673 0.84046 0.0
H345 H 0.20108 0.73468 0.82115 0.0
H346 H 0.19531 0.76573 0.85761 0.0
H347 H 0.27784 0.74587 0.90335 0.0
H348 H 0.30564 0.76917 0.91359 0.0
H349 H 0.3039 0.74995 0.8835 0.0
H350 H 0.3111 0.79053 0.86295 0.0
H351 H 0.31275 0.80992 0.89307 0.0
H352 H 0.29001 0.81414 0.8687 0.0
H353 H 0.19787 0.79496 0.89868 0.0
H354 H 0.2082 0.81649 0.94211 0.0
H355 H 0.28796 0.80628 0.93584 0.0
C356 C 0.26405 0.75063 0.84368 0.0
C357 C 0.24272 0.7382 0.82762 0.0
C358 C 0.21792 0.74427 0.83266 0.0
C359 C 0.21439 0.76187 0.85345 0.0
C360 C 0.23579 0.77324 0.86916 0.0
C361 C 0.26012 0.76774 0.86455 0.0
C362 C 0.27954 0.7801 0.88571 0.0
C363 C 0.29247 0.76008 0.89721 0.0
C364 C 0.29953 0.79985 0.87709 0.0
C365 C 0.26218 0.79267 0.90336 0.0
C366 C 0.23712 0.78912 0.89326 0.0
C367 C 0.21748 0.79808 0.90668 0.0
C368 C 0.22352 0.81035 0.93128 0.0
C369 C 0.24885 0.81299 0.94229 0.0
C370 C 0.26843 0.80455 0.92788 0.0
H371 H 0.02483 0.54142 0.38674 0.0
H372 H 0.04346 0.48321 0.4286 0.0
H373 H 0.07272 0.46929 0.39673 0.0
H374 H 0.0303 0.50576 0.32262 0.0
H375 H 0.04452 0.53428 0.31209 0.0
H376 H 0.02152 0.53598 0.3354 0.0
H377 H 0.05447 0.56855 0.3647 0.0
H378 H 0.07764 0.56673 0.34171 0.0
H379 H 0.08562 0.56031 0.37249 0.0
H380 H 0.1048 0.46646 0.36373 0.0
H381 H 0.13596 0.47416 0.33237 0.0
H382 H 0.09628 0.5347 0.31244 0.0
C383 C 0.03424 0.52502 0.38852 0.0
C384 C 0.03154 0.51283 0.40956 0.0
C385 C 0.04489 0.49222 0.41213 0.0
C386 C 0.06158 0.48431 0.39418 0.0
C387 C 0.06455 0.49727 0.37389 0.0
C388 C 0.05098 0.51703 0.37085 0.0
C389 C 0.05957 0.52972 0.34909 0.0
C390 C 0.03767 0.52621 0.32858 0.0
C391 C 0.06994 0.55798 0.35752 0.0
C392 C 0.08078 0.51471 0.34088 0.0
C393 C 0.08317 0.49585 0.35516 0.0
C394 C 0.10276 0.48085 0.35216 0.0
C395 C 0.12043 0.48542 0.33433 0.0
C396 C 0.11854 0.50496 0.31982 0.0
C397 C 0.09812 0.51941 0.32297 0.0
H398 H 0.84162 0.76462 0.86905 0.0
H399 H 0.76414 0.7413 0.83542 0.0
H400 H 0.75614 0.71098 0.86489 0.0
H401 H 0.85222 0.70077 0.88589 0.0
H402 H 0.86968 0.71536 0.91487 0.0
H403 H 0.87106 0.73164 0.88824 0.0
H404 H 0.85578 0.77046 0.91412 0.0
H405 H 0.85428 0.75433 0.94071 0.0
H406 H 0.82626 0.76615 0.92927 0.0
H407 H 0.75383 0.68934 0.9017 0.0
H408 H 0.75762 0.6772 0.94356 0.0
H409 H 0.83685 0.71297 0.95355 0.0
C410 C 0.82333 0.75243 0.86741 0.0
C411 C 0.80352 0.75508 0.84993 0.0
C412 C 0.77953 0.73946 0.84871 0.0
C413 C 0.77488 0.7221 0.86525 0.0
C414 C 0.79449 0.72047 0.88283 0.0
C415 C 0.81833 0.73504 0.88395 0.0
C416 C 0.83501 0.73168 0.90642 0.0
C417 C 0.85838 0.71911 0.89837 0.0
C418 C 0.8433 0.75716 0.92364 0.0
C419 C 0.81639 0.71395 0.91838 0.0
C420 C 0.79326 0.70741 0.9042 0.0
C421 C 0.77205 0.69366 0.91263 0.0
C422 C 0.77434 0.68686 0.93637 0.0
C423 C 0.79768 0.69361 0.95128 0.0
C424 C 0.81914 0.7068 0.94199 0.0
H425 H 0.03143 0.9861 0.42927 0.0
H426 H 0.033 0.06035 0.47318 0.0
H427 H 1.00764 0.0734 0.43888 0.0
H428 H 0.04043 0.0071 0.37243 0.0
H429 H 0.01982 0.98063 0.35427 0.0
H430 H 0.03579 0.97683 0.38314 0.0
H431 H 0.99193 0.96106 0.39911 0.0
H432 H 0.97579 0.96491 0.37025 0.0
H433 H 0.96664 0.98053 0.39933 0.0
H434 H 0.98357 0.07855 0.39827 0.0
H435 H 0.96649 0.07639 0.35465 0.0
H436 H 0.98166 0.99868 0.33839 0.0
C437 C 0.02596 0.00494 0.43195 0.0
C438 C 0.03388 0.02211 0.454 0.0
C439 C 0.02707 0.04688 0.45642 0.0
C440 C 0.01253 0.05437 0.43713 0.0
C441 C 1.00504 0.03687 0.41558 0.0
C442 C 0.01166 0.01269 0.41294 0.0
C443 C 1.00306 0.99795 0.38743 0.0
C444 C 0.02615 0.99019 0.3735 0.0
C445 C 0.98317 0.97474 0.38914 0.0
C446 C 0.99096 0.01773 0.37582 0.0
C447 C 0.99186 0.03996 0.39236 0.0
C448 C 0.98262 0.06115 0.38527 0.0
C449 C 0.97284 0.05973 0.36049 0.0
C450 C 0.97277 0.03739 0.34311 0.0
C451 C 0.98143 0.01605 0.35119 0.0
H452 H 0.26244 0.32225 0.65093 0.0
H453 H 0.24642 0.28342 0.71384 0.0
H454 H 0.25097 0.24256 0.6881 0.0
H455 H 0.22904 0.2714 0.60283 0.0
H456 H 0.25255 0.27719 0.58072 0.0
H457 H 0.24602 0.30289 0.60357 0.0
H458 H 0.29428 0.31259 0.61865 0.0
H459 H 0.30094 0.28699 0.59588 0.0
H460 H 0.31028 0.2877 0.62828 0.0
H461 H 0.26211 0.20694 0.65681 0.0
H462 H 0.27691 0.179 0.62191 0.0
H463 H 0.28352 0.24081 0.57885 0.0
C464 C 0.25967 0.30509 0.6592 0.0
C465 C 0.25415 0.30593 0.68437 0.0
C466 C 0.25047 0.28311 0.69453 0.0
C467 C 0.25306 0.25987 0.68007 0.0
C468 C 0.25891 0.25976 0.6554 0.0
C469 C 0.26187 0.28175 0.64497 0.0
C470 C 0.269 0.2767 0.61832 0.0
C471 C 0.24789 0.28238 0.6003 0.0
C472 C 0.29518 0.29189 0.61511 0.0
C473 C 0.27035 0.24854 0.61557 0.0
C474 C 0.26442 0.23909 0.63714 0.0
C475 C 0.26631 0.21402 0.63968 0.0
C476 C 0.27478 0.19831 0.6198 0.0
C477 C 0.28102 0.20768 0.5976 0.0
C478 C 0.27831 0.23299 0.59538 0.0
H479 H 0.55944 0.50594 0.61977 0.0
H480 H 0.53731 0.56719 0.5836 0.0
H481 H 0.51462 0.58198 0.62008 0.0
H482 H 0.50134 0.4922 0.64806 0.0
H483 H 0.51599 0.48613 0.67679 0.0
H484 H 0.53199 0.48083 0.64849 0.0
H485 H 0.57234 0.51091 0.66916 0.0
H486 H 0.55655 0.51611 0.69763 0.0
H487 H 0.56925 0.54272 0.68323 0.0
H488 H 0.49172 0.58841 0.65838 0.0
H489 H 0.47223 0.58827 0.69835 0.0
H490 H 0.50997 0.52408 0.71162 0.0
C491 C 0.55022 0.52274 0.61977 0.0
C492 C 0.54997 0.53528 0.5987 0.0
C493 C 0.53743 0.55704 0.59932 0.0
C494 C 0.52457 0.56566 0.62001 0.0
C495 C 0.52456 0.55252 0.64014 0.0
C496 C 0.53727 0.53172 0.64043 0.0
C497 C 0.53364 0.52088 0.66443 0.0
C498 C 0.51992 0.49338 0.65911 0.0
C499 C 0.55948 0.52277 0.6795 0.0
C500 C 0.51661 0.53862 0.6773 0.0
C501 C 0.51165 0.55666 0.66282 0.0
C502 C 0.49567 0.57457 0.67003 0.0
C503 C 0.48458 0.57423 0.69276 0.0
C504 C 0.48956 0.55621 0.70821 0.0
C505 C 0.50589 0.53819 0.70033 0.0
H506 H 0.82701 0.32929 0.6918 0.0
H507 H 0.83537 0.2521 0.6614 0.0
H508 H 0.82058 0.25947 0.6195 0.0
H509 H 0.76941 0.33281 0.65337 0.0
H510 H 0.77902 0.36545 0.65 0.0
H511 H 0.78976 0.35382 0.6775 0.0
H512 H 0.83696 0.36894 0.66958 0.0
H513 H 0.82638 0.38042 0.64194 0.0
H514 H 0.84898 0.358 0.64015 0.0
H515 H 0.806 0.27552 0.5812 0.0
H516 H 0.79046 0.29826 0.54881 0.0
H517 H 0.79135 0.36549 0.60389 0.0
C518 C 0.82544 0.31397 0.67627 0.0
C519 C 0.8321 0.29011 0.67949 0.0
C520 C 0.83015 0.27042 0.65902 0.0
C521 C 0.82186 0.27448 0.63526 0.0
C522 C 0.81565 0.29834 0.6325 0.0
C523 C 0.81715 0.31772 0.65244 0.0
C524 C 0.80937 0.34155 0.64434 0.0
C525 C 0.78547 0.34882 0.65706 0.0
C526 C 0.83176 0.36352 0.6493 0.0
C527 C 0.80335 0.33257 0.61671 0.0
C528 C 0.8072 0.30762 0.61033 0.0
C529 C 0.80295 0.29507 0.58596 0.0
C530 C 0.79427 0.30826 0.56764 0.0
C531 C 0.7899 0.33378 0.57372 0.0
C532 C 0.79463 0.34606 0.59862 0.0
H533 H 0.55186 0.94456 0.59867 0.0
H534 H 0.51853 0.01379 0.59542 0.0
H535 H 0.54322 0.03339 0.63452 0.0
H536 H 0.55928 0.94783 0.6655 0.0
H537 H 0.59029 0.93721 0.66484 0.0
H538 H 0.56691 0.92696 0.63876 0.0
H539 H 0.59954 0.94421 0.60922 0.0
H540 H 0.62305 0.95425 0.63512 0.0
H541 H 0.61445 0.97683 0.61596 0.0
H542 H 0.57323 0.04637 0.67354 0.0
H543 H 0.61005 0.05339 0.70524 0.0
H544 H 0.62783 0.97824 0.67911 0.0
C545 C 0.54966 0.96391 0.6058 0.0
C546 C 0.53272 0.97729 0.59358 0.0
C547 C 0.53055 1.00253 0.60442 0.0
C548 C 0.5447 0.01401 0.6267 0.0
C549 C 0.56138 1.0003 0.63788 0.0
C550 C 0.56422 0.97595 0.62752 0.0
C551 C 0.58549 0.96626 0.6415 0.0
C552 C 0.57485 0.9432 0.65335 0.0
C553 C 0.6069 0.96003 0.62444 0.0
C554 C 0.5945 0.98915 0.66112 0.0
C555 C 0.57987 0.00835 0.6592 0.0
C556 C 0.58475 0.03144 0.67524 0.0
C557 C 0.60554 0.03523 0.69324 0.0
C558 C 0.62144 0.01626 0.69459 0.0
C559 C 0.61568 0.99288 0.67853 0.0
H560 H 0.91179 0.24816 0.7763 0.0
H561 H 0.84565 0.22075 0.81424 0.0
H562 H 0.87447 0.21372 0.84873 0.0
H563 H 0.95425 0.20617 0.79533 0.0
H564 H 0.9823 0.22995 0.79984 0.0
H565 H 0.95665 0.23174 0.77727 0.0
H566 H 0.95273 0.2772 0.79865 0.0
H567 H 0.9785 0.27562 0.82113 0.0
H568 H 0.94796 0.28275 0.8314 0.0
H569 H 0.90996 0.20999 0.87924 0.0
H570 H 0.94983 0.21281 0.90559 0.0
H571 H 0.99334 0.24457 0.84914 0.0
C572 C 0.9033 0.24085 0.79191 0.0
C573 C 0.87635 0.23473 0.79229 0.0
C574 C 0.86618 0.22503 0.81311 0.0
C575 C 0.8824 0.22107 0.8329 0.0
C576 C 0.90879 0.22708 0.83178 0.0
C577 C 0.91922 0.23699 0.81198 0.0
C578 C 0.94824 0.2428 0.81597 0.0
C579 C 0.96111 0.2267 0.79591 0.0
C580 C 0.95739 0.27129 0.81685 0.0
C581 C 0.95242 0.23478 0.84121 0.0
C582 C 0.92939 0.22552 0.8498 0.0
C583 C 0.92814 0.21721 0.87273 0.0
C584 C 0.95098 0.21888 0.88756 0.0
C585 C 0.97484 0.22897 0.87954 0.0
C586 C 0.97549 0.23667 0.85583 0.0
H587 H 0.51066 0.88537 0.53801 0.0
H588 H 0.53757 0.93686 0.48796 0.0
H589 H 0.55118 0.90114 0.45995 0.0
H590 H 0.56014 0.84401 0.52959 0.0
H591 H 0.53803 0.81567 0.53068 0.0
H592 H 0.5324 0.84561 0.54745 0.0
H593 H 0.48715 0.83983 0.52456 0.0
H594 H 0.49267 0.80995 0.50766 0.0
H595 H 0.48399 0.83448 0.49104 0.0
H596 H 0.56085 0.85937 0.43714 0.0
H597 H 0.56406 0.8148 0.42025 0.0
H598 H 0.52881 0.79053 0.48458 0.0
C599 C 0.51978 0.88905 0.52131 0.0
C600 C 0.52349 0.91369 0.5151 0.0
C601 C 0.53492 0.918 0.49296 0.0
C602 C 0.54267 0.89788 0.47703 0.0
C603 C 0.53859 0.87364 0.48353 0.0
C604 C 0.52732 0.86915 0.50511 0.0
C605 C 0.52378 0.8412 0.50717 0.0
C606 C 0.53953 0.83634 0.53008 0.0
C607 C 0.4952 0.83076 0.50762 0.0
C608 C 0.53459 0.83059 0.48328 0.0
C609 C 0.54332 0.8496 0.47004 0.0
C610 C 0.55409 0.84434 0.44737 0.0
C611 C 0.55587 0.81896 0.43794 0.0
C612 C 0.54661 0.79913 0.45102 0.0
C613 C 0.53593 0.80519 0.47403 0.0
H614 H 0.1746 0.35494 0.7962 0.0
H615 H 0.16764 0.29879 0.72971 0.0
H616 H 0.13328 0.27223 0.74764 0.0
H617 H 0.16626 0.31157 0.83948 0.0
H618 H 0.14833 0.331 0.85982 0.0
H619 H 0.17138 0.34557 0.84114 0.0
H620 H 0.13607 0.36775 0.82217 0.0
H621 H 0.11285 0.35308 0.84068 0.0
H622 H 0.10694 0.34891 0.80736 0.0
H623 H 0.1006 0.25159 0.77378 0.0
H624 H 0.07363 0.2375 0.80625 0.0
H625 H 0.10222 0.30775 0.8555 0.0
C626 C 0.16571 0.33705 0.78546 0.0
C627 C 0.17348 0.32868 0.7617 0.0
C628 C 0.16173 0.3053 0.74801 0.0
C629 C 0.14223 0.29024 0.75801 0.0
C630 C 0.13485 0.29903 0.78161 0.0
C631 C 0.1463 0.3219 0.79516 0.0
C632 C 0.13553 0.32677 0.82034 0.0
C633 C 0.15663 0.32884 0.84143 0.0
C634 C 0.12204 0.35054 0.82277 0.0
C635 C 0.11641 0.30293 0.81907 0.0
C636 C 0.11615 0.28724 0.79653 0.0
C637 C 0.10058 0.26379 0.79142 0.0
C638 C 0.08529 0.25598 0.80999 0.0
C639 C 0.08573 0.27153 0.83343 0.0
C640 C 0.10122 0.29549 0.83774 0.0
H641 H 0.54024 0.58244 0.50475 0.0
H642 H 0.55809 0.52648 0.445 0.0
H643 H 0.56196 0.55896 0.41706 0.0
H644 H 0.50252 0.61611 0.46655 0.0
H645 H 0.51444 0.6469 0.48408 0.0
H646 H 0.51241 0.61917 0.49914 0.0
H647 H 0.56078 0.62997 0.51359 0.0
H648 H 0.56289 0.65781 0.49874 0.0
H649 H 0.58393 0.63454 0.49088 0.0
H650 H 0.56505 0.59763 0.39623 0.0
H651 H 0.56866 0.64021 0.38404 0.0
H652 H 0.54829 0.67125 0.45727 0.0
C653 C 0.54491 0.57716 0.48575 0.0
C654 C 0.54893 0.55219 0.47679 0.0
C655 C 0.55502 0.54567 0.45199 0.0
C656 C 0.55716 0.56392 0.43604 0.0
C657 C 0.55302 0.58849 0.44531 0.0
C658 C 0.54708 0.59518 0.46959 0.0
C659 C 0.54423 0.62305 0.47505 0.0
C660 C 0.51676 0.6265 0.48159 0.0
C661 C 0.56415 0.63717 0.49579 0.0
C662 C 0.54978 0.63106 0.45014 0.0
C663 C 0.55466 0.61079 0.43323 0.0
C664 C 0.56112 0.61362 0.40925 0.0
C665 C 0.5631 0.63789 0.4025 0.0
C666 C 0.55863 0.65904 0.41964 0.0
C667 C 0.5515 0.65542 0.44364 0.0
H668 H 0.84439 0.7596 0.77257 0.0
H669 H 0.86292 0.8403 0.79889 0.0
H670 H 0.89872 0.84263 0.7711 0.0
H671 H 0.90917 0.74608 0.76644 0.0
H672 H 0.90062 0.72337 0.7385 0.0
H673 H 0.8774 0.72822 0.76118 0.0
H674 H 0.84558 0.73818 0.72729 0.0
H675 H 0.86864 0.73324 0.70451 0.0
H676 H 0.8557 0.76276 0.70929 0.0
H677 H 0.93312 0.83539 0.74006 0.0
H678 H 0.95978 0.82007 0.7063 0.0
H679 H 0.91675 0.74468 0.70022 0.0
C680 C 0.85615 0.77773 0.77267 0.0
C681 C 0.85112 0.79973 0.78801 0.0
C682 C 0.86652 0.82322 0.78723 0.0
C683 C 0.88694 0.82468 0.77163 0.0
C684 C 0.8915 0.8025 0.75682 0.0
C685 C 0.87631 0.77954 0.7571 0.0
C686 C 0.8842 0.75865 0.73868 0.0
C687 C 0.8934 0.73786 0.75201 0.0
C688 C 0.86223 0.74757 0.71877 0.0
C689 C 0.90617 0.77338 0.72785 0.0
C690 C 0.91042 0.79858 0.73868 0.0
C691 C 0.92988 0.81569 0.73145 0.0
C692 C 0.945 0.80684 0.71238 0.0
C693 C 0.94024 0.78125 0.7006 0.0
C694 C 0.92077 0.7644 0.70875 0.0
H695 H 0.07516 0.90208 0.52312 0.0
H696 H 0.04025 0.95872 0.56915 0.0
H697 H 0.03202 0.92938 0.59983 0.0
H698 H 0.03125 0.85176 0.52938 0.0
H699 H 0.05316 0.82885 0.53005 0.0
H700 H 0.061 0.85579 0.51457 0.0
H701 H 0.10384 0.86869 0.54182 0.0
H702 H 0.09632 0.8415 0.55721 0.0
H703 H 0.10351 0.87279 0.57521 0.0
H704 H 0.02158 0.8913 0.62176 0.0
H705 H 0.01124 0.84874 0.6337 0.0
H706 H 0.05313 0.81728 0.57287 0.0
C707 C 0.06684 0.90861 0.54024 0.0
C708 C 0.0589 0.93271 0.54431 0.0
C709 C 0.04703 0.94046 0.56622 0.0
C710 C 0.04222 0.92389 0.58363 0.0
C711 C 0.04951 0.89976 0.57874 0.0
C712 C 0.0619 0.89229 0.5577 0.0
C713 C 0.06534 0.86461 0.55532 0.0
C714 C 0.05187 0.84937 0.53089 0.0
C715 C 0.09396 0.86174 0.55753 0.0
C716 C 0.05204 0.85735 0.57769 0.0
C717 C 0.04331 0.87788 0.5912 0.0
C718 C 0.02878 0.8752 0.61158 0.0
C719 C 0.02291 0.85092 0.61818 0.0
C720 C 0.03141 0.82957 0.60433 0.0
C721 C 0.0465 0.83313 0.58408 0.0
H722 H 0.18129 0.70722 0.69156 0.0
H723 H 0.16153 0.72134 0.76795 0.0
H724 H 0.12229 0.73807 0.75424 0.0
H725 H 0.15798 0.76282 0.67156 0.0
H726 H 0.1463 0.74577 0.64124 0.0
H727 H 0.1735 0.73695 0.65756 0.0
H728 H 0.15016 0.69084 0.65349 0.0
H729 H 0.12291 0.69952 0.63725 0.0
H730 H 0.11874 0.6852 0.6649 0.0
H731 H 0.0837 0.75066 0.73121 0.0
H732 H 0.0495 0.75794 0.70133 0.0
H733 H 0.09548 0.73533 0.64031 0.0
C734 C 0.16884 0.71425 0.70537 0.0
C735 C 0.17421 0.71331 0.73072 0.0
C736 C 0.15756 0.7222 0.74841 0.0
C737 C 0.13534 0.7317 0.74079 0.0
C738 C 0.1303 0.73214 0.71546 0.0
C739 C 0.1467 0.72374 0.69806 0.0
C740 C 0.1365 0.72507 0.67192 0.0
C741 C 0.15465 0.74377 0.65987 0.0
C742 C 0.13179 0.69858 0.65597 0.0
C743 C 0.11155 0.73507 0.67719 0.0
C744 C 0.10831 0.73924 0.70237 0.0
C745 C 0.08618 0.74766 0.71146 0.0
C746 C 0.06684 0.75173 0.69434 0.0
C747 C 0.06972 0.74726 0.66841 0.0
C748 C 0.09258 0.73907 0.65995 0.0
H749 H 0.98332 0.60679 0.50253 0.0
H750 H 0.96633 0.55264 0.55316 0.0
H751 H 0.967 0.58803 0.58768 0.0
H752 H 0.02829 0.65082 0.5453 0.0
H753 H 0.01859 0.67839 0.53445 0.0
H754 H 0.01578 0.6488 0.51354 0.0
H755 H 0.96737 0.65044 0.50414 0.0
H756 H 0.97005 0.68007 0.52494 0.0
H757 H 0.94682 0.6537 0.52949 0.0
H758 H 0.96931 0.62952 0.61667 0.0
H759 H 0.97336 0.67385 0.63789 0.0
H760 H 0.99157 0.70054 0.5687 0.0
C761 C 0.97996 0.60225 0.52088 0.0
C762 C 0.9747 0.5768 0.52501 0.0
C763 C 0.96995 0.5719 0.54933 0.0
C764 C 0.97052 0.59189 0.56914 0.0
C765 C 0.97606 0.61669 0.56439 0.0
C766 C 0.98078 0.62191 0.54087 0.0
C767 C 0.9866 0.65019 0.54072 0.0
C768 C 0.01394 0.65747 0.53305 0.0
C769 C 0.96651 0.65912 0.52382 0.0
C770 C 0.98431 0.66011 0.56783 0.0
C771 C 0.97813 0.6405 0.58118 0.0
C772 C 0.97429 0.64501 0.60644 0.0
C773 C 0.97663 0.67025 0.61832 0.0
C774 C 0.98295 0.69061 0.60497 0.0
C775 C 0.98704 0.68537 0.57946 0.0
H776 H 0.81759 0.87578 0.19988 0.0
H777 H 0.77099 0.89662 0.26118 0.0
H778 H 0.80184 0.93491 0.2752 0.0
H779 H 0.87779 0.89439 0.23735 0.0
H780 H 0.89495 0.90529 0.21232 0.0
H781 H 0.8681 0.88025 0.2056 0.0
H782 H 0.84634 0.90618 0.17634 0.0
H783 H 0.87304 0.93138 0.18308 0.0
H784 H 0.84091 0.93796 0.18812 0.0
H785 H 0.83666 0.97192 0.28198 0.0
H786 H 0.87649 1.00242 0.28434 0.0
H787 H 0.90368 0.95504 0.22268 0.0
C788 C 0.81381 0.88811 0.2164 0.0
C789 C 0.79115 0.88314 0.22886 0.0
C790 C 0.78739 0.90021 0.25043 0.0
C791 C 0.80502 0.92202 0.25882 0.0
C792 C 0.82683 0.92637 0.24594 0.0
C793 C 0.83162 0.90968 0.22552 0.0
C794 C 0.85744 0.91813 0.21606 0.0
C795 C 0.87565 0.89834 0.21795 0.0
C796 C 0.85422 0.92375 0.18931 0.0
C797 C 0.86626 0.94223 0.23431 0.0
C798 C 0.84805 0.94683 0.2511 0.0
C799 C 0.85122 0.96842 0.26913 0.0
C800 C 0.8738 0.98566 0.27026 0.0
C801 C 0.89311 0.98091 0.25383 0.0
C802 C 0.88928 0.95891 0.23563 0.0
H803 H 0.79589 0.18505 0.24587 0.0
H804 H 0.77038 0.17359 0.31831 0.0
H805 H 0.80337 0.14576 0.32284 0.0
H806 H 0.80871 0.12103 0.2267 0.0
H807 H 0.83659 0.13086 0.21084 0.0
H808 H 0.81093 0.14986 0.21335 0.0
H809 H 0.84323 0.18891 0.2338 0.0
H810 H 0.86897 0.17002 0.2314 0.0
H811 H 0.86302 0.1868 0.26119 0.0
H812 H 0.83934 0.1191 0.31949 0.0
H813 H 0.87558 0.09587 0.3085 0.0
H814 H 0.87722 0.12451 0.23813 0.0
C815 C 0.79706 0.17651 0.26259 0.0
C816 C 0.78055 0.1816 0.28177 0.0
C817 C 0.78302 0.17028 0.3035 0.0
C818 C 0.80161 0.15431 0.30619 0.0
C819 C 0.81762 0.14979 0.28699 0.0
C820 C 0.81552 0.16054 0.2656 0.0
C821 C 0.83522 0.15278 0.24781 0.0
C822 C 0.82207 0.13773 0.22322 0.0
C823 C 0.8537 0.17601 0.2433 0.0
C824 C 0.84873 0.13601 0.26254 0.0
C825 C 0.83829 0.13449 0.28507 0.0
C826 C 0.84766 0.12014 0.30187 0.0
C827 C 0.86826 0.10701 0.29547 0.0
C828 C 0.8793 0.10834 0.27246 0.0
C829 C 0.86927 0.12307 0.25587 0.0
H830 H 0.41163 0.95819 0.96111 0.0
H831 H 0.42069 0.01094 0.03066 0.0
H832 H 0.38326 0.9866 0.04523 0.0
H833 H 0.34299 0.94289 0.95586 0.0
H834 H 0.34331 0.90968 0.94495 0.0
H835 H 0.36905 0.93286 0.93856 0.0
H836 H 0.40223 0.90947 0.9592 0.0
H837 H 0.37663 0.88613 0.9655 0.0
H838 H 0.39872 0.90331 0.99055 0.0
H839 H 0.34421 0.95627 0.05239 0.0
H840 H 0.31072 0.91941 0.05349 0.0
H841 H 0.33169 0.88372 0.98237 0.0
C842 C 0.40614 0.96473 0.97952 0.0
C843 C 0.41927 0.98704 0.99436 0.0
C844 C 0.41071 0.99461 0.01828 0.0
C845 C 0.38948 0.98072 0.02693 0.0
C846 C 0.37719 0.9589 0.0118 0.0
C847 C 0.38553 0.95069 0.9888 0.0
C848 C 0.37042 0.92545 0.97702 0.0
C849 C 0.35556 0.92788 0.95266 0.0
C850 C 0.38805 0.90488 0.97283 0.0
C851 C 0.35238 0.92068 0.99707 0.0
C852 C 0.35615 0.94047 0.01675 0.0
C853 C 0.34122 0.94059 0.03717 0.0
C854 C 0.32225 0.91971 0.03763 0.0
C855 C 0.31894 0.89887 0.01812 0.0
C856 C 0.33409 0.89944 0.99759 0.0
H857 H 0.24594 0.35033 0.32166 0.0
H858 H 0.29452 0.32939 0.26262 0.0
H859 H 0.28253 0.36438 0.24139 0.0
H860 H 0.19502 0.36827 0.28283 0.0
H861 H 0.18965 0.39437 0.30581 0.0
H862 H 0.20107 0.36699 0.31544 0.0
H863 H 0.24015 0.39583 0.34026 0.0
H864 H 0.22879 0.42326 0.33082 0.0
H865 H 0.26075 0.41693 0.32462 0.0
H866 H 0.2666 0.40289 0.22796 0.0
H867 H 0.24927 0.44249 0.22371 0.0
H868 H 0.21074 0.43787 0.29172 0.0
C869 C 0.25385 0.3531 0.30415 0.0
C870 C 0.27102 0.33741 0.29356 0.0
C871 C 0.28126 0.34138 0.27082 0.0
C872 C 0.2745 0.36109 0.25868 0.0
C873 C 0.25745 0.3764 0.26962 0.0
C874 C 0.24727 0.3726 0.29185 0.0
C875 C 0.23018 0.39223 0.30022 0.0
C876 C 0.20233 0.37971 0.30112 0.0
C877 C 0.2406 0.40799 0.32547 0.0
C878 C 0.23261 0.40798 0.27944 0.0
C879 C 0.24827 0.39845 0.26188 0.0
C880 C 0.25418 0.41041 0.24151 0.0
C881 C 0.24422 0.43293 0.23927 0.0
C882 C 0.22854 0.44334 0.25733 0.0
C883 C 0.22238 0.43033 0.27742 0.0
H884 H 0.11878 0.05481 0.47646 0.0
H885 H 0.12025 0.02083 0.54405 0.0
H886 H 0.16319 0.04492 0.55664 0.0
H887 H 0.1853 0.06 0.46599 0.0
H888 H 0.18657 0.09079 0.45652 0.0
H889 H 0.15709 0.06894 0.45148 0.0
H890 H 0.13319 0.10255 0.47595 0.0
H891 H 0.16249 0.1246 0.48079 0.0
H892 H 0.14534 0.11692 0.50705 0.0
H893 H 0.20679 0.07296 0.56165 0.0
H894 H 0.24372 0.10673 0.56159 0.0
H895 H 0.21016 0.12617 0.49397 0.0
C896 C 0.1276 0.05252 0.49418 0.0
C897 C 0.11565 0.03552 0.50908 0.0
C898 C 0.12887 0.03307 0.53179 0.0
C899 C 0.15334 0.04685 0.53925 0.0
C900 C 0.16429 0.06342 0.52408 0.0
C901 C 0.15156 0.06664 0.50227 0.0
C902 C 0.16642 0.08706 0.49019 0.0
C903 C 0.17431 0.07602 0.46453 0.0
C904 C 0.15094 0.10908 0.48841 0.0
C905 C 0.18951 0.09499 0.5087 0.0
C906 C 0.18829 0.08072 0.52783 0.0
C907 C 0.20782 0.08432 0.54684 0.0
C908 C 0.22877 0.10339 0.54659 0.0
C909 C 0.22965 0.11897 0.52781 0.0
C910 C 0.20986 0.11452 0.50856 0.0
H911 H 0.78267 0.20975 0.77349 0.0
H912 H 0.8057 0.19323 0.69842 0.0
H913 H 0.77079 0.15667 0.68954 0.0
H914 H 0.77113 0.14903 0.78469 0.0
H915 H 0.74357 0.1526 0.80243 0.0
H916 H 0.76724 0.17963 0.80134 0.0
H917 H 0.73204 0.20374 0.7852 0.0
H918 H 0.70814 0.17674 0.78635 0.0
H919 H 0.71164 0.18954 0.75778 0.0
H920 H 0.73916 0.11765 0.69184 0.0
H921 H 0.71146 0.08133 0.70405 0.0
H922 H 0.70713 0.1249 0.77675 0.0
C923 C 0.77979 0.19884 0.75496 0.0
C924 C 0.79666 0.20421 0.73656 0.0
C925 C 0.79269 0.18949 0.71261 0.0
C926 C 0.77297 0.16872 0.70746 0.0
C927 C 0.75712 0.16339 0.72633 0.0
C928 C 0.76002 0.17837 0.74946 0.0
C929 C 0.74194 0.16758 0.76717 0.0
C930 C 0.75687 0.16187 0.79025 0.0
C931 C 0.72227 0.18547 0.77455 0.0
C932 C 0.72926 0.14349 0.75082 0.0
C933 C 0.73812 0.14144 0.72726 0.0
C934 C 0.73153 0.11938 0.70996 0.0
C935 C 0.71589 0.09881 0.71707 0.0
C936 C 0.70684 0.10055 0.74115 0.0
C937 C 0.71308 0.12341 0.75793 0.0
H938 H 0.40735 0.00488 0.5171 0.0
H939 H 0.46536 0.02867 0.57835 0.0
H940 H 0.44703 0.06863 0.5894 0.0
H941 H 0.40636 0.06622 0.49902 0.0
H942 H 0.37221 0.06141 0.49128 0.0
H943 H 0.38962 0.03467 0.4886 0.0
H944 H 0.35924 0.01331 0.51769 0.0
H945 H 0.3417 0.03996 0.52042 0.0
H946 H 0.35515 0.03027 0.54796 0.0
H947 H 0.42264 0.10593 0.5932 0.0
H948 H 0.394 0.13807 0.59007 0.0
H949 H 0.35157 0.08992 0.52607 0.0
C950 C 0.41603 0.01854 0.53289 0.0
C951 C 0.43757 0.01397 0.54705 0.0
C952 C 0.44872 0.03204 0.56747 0.0
C953 C 0.43847 0.0547 0.5738 0.0
C954 C 0.41714 0.05879 0.55944 0.0
C955 C 0.40603 0.04121 0.53942 0.0
C956 C 0.38339 0.05029 0.52691 0.0
C957 C 0.38819 0.05333 0.49985 0.0
C958 C 0.35839 0.03239 0.52834 0.0
C959 C 0.38348 0.07577 0.54299 0.0
C960 C 0.40311 0.08028 0.56163 0.0
C961 C 0.40719 0.10258 0.57871 0.0
C962 C 0.39078 0.12074 0.57674 0.0
C963 C 0.37048 0.11656 0.55783 0.0
C964 C 0.36686 0.0937 0.54075 0.0
H965 H 0.61034 0.46751 0.52354 0.0
H966 H 0.63993 0.52954 0.58251 0.0
H967 H 0.68261 0.51528 0.58167 0.0
H968 H 0.64502 0.42146 0.54422 0.0
H969 H 0.6505 0.40692 0.51336 0.0
H970 H 0.62264 0.4225 0.51836 0.0
H971 H 0.63605 0.451 0.48551 0.0
H972 H 0.66407 0.43561 0.48054 0.0
H973 H 0.66748 0.46958 0.48902 0.0
H974 H 0.72191 0.49345 0.57494 0.0
H975 H 0.7539 0.46475 0.5644 0.0
H976 H 0.69874 0.41782 0.50894 0.0
C977 C 0.62584 0.47834 0.53609 0.0
C978 C 0.62172 0.49974 0.55306 0.0
C979 C 0.64248 0.51295 0.56953 0.0
C980 C 0.66686 0.50513 0.56902 0.0
C981 C 0.67025 0.4841 0.5519 0.0
C982 C 0.65026 0.47086 0.53578 0.0
C983 C 0.65867 0.44843 0.51968 0.0
C984 C 0.6433 0.42335 0.52419 0.0
C985 C 0.65643 0.45134 0.49205 0.0
C986 C 0.68648 0.45091 0.52942 0.0
C987 C 0.69284 0.47169 0.5479 0.0
C988 C 0.71717 0.47725 0.56038 0.0
C989 C 0.73524 0.46083 0.55421 0.0
C990 C 0.72894 0.43909 0.53573 0.0
C991 C 0.70434 0.43446 0.52289 0.0
H992 H 0.73624 0.2232 0.34604 0.0
H993 H 0.72968 0.28205 0.30072 0.0
H994 H 0.72866 0.31319 0.33887 0.0
H995 H 0.69742 0.24685 0.39671 0.0
H996 H 0.71856 0.23802 0.41998 0.0
H997 H 0.71419 0.22 0.38909 0.0
H998 H 0.7634 0.22733 0.38542 0.0
H999 H 0.7679 0.24538 0.41617 0.0
H1000 H 0.78021 0.25929 0.3903 0.0
H1001 H 0.73353 0.33889 0.38306 0.0
H1002 H 0.74493 0.35601 0.42775 0.0
H1003 H 0.75009 0.27988 0.44249 0.0
C1004 C 0.73422 0.24256 0.34405 0.0
C1005 C 0.73311 0.2502 0.3204 0.0
C1006 C 0.73027 0.27569 0.31865 0.0
C1007 C 0.72975 0.29352 0.34023 0.0
C1008 C 0.73187 0.28547 0.36336 0.0
C1009 C 0.7339 0.26048 0.36526 0.0
C1010 C 0.73843 0.2568 0.39197 0.0
C1011 C 0.7158 0.23939 0.3999 0.0
C1012 C 0.764 0.24662 0.3962 0.0
C1013 C 0.73955 0.28376 0.40488 0.0
C1014 C 0.73524 0.30009 0.38829 0.0
C1015 C 0.73663 0.32618 0.39619 0.0
C1016 C 0.74305 0.33575 0.42157 0.0
C1017 C 0.74848 0.31927 0.43849 0.0
C1018 C 0.74613 0.29297 0.42997 0.0
H1019 H 0.5147 0.02842 0.89158 0.0
H1020 H 0.56032 0.98759 0.93562 0.0
H1021 H 0.59552 0.99261 0.90759 0.0
H1022 H 0.5323 1.00219 0.83296 0.0
H1023 H 0.53363 0.03089 0.81947 0.0
H1024 H 0.51283 0.02601 0.844 0.0
H1025 H 0.53453 0.06832 0.87017 0.0
H1026 H 0.5552 0.07351 0.84557 0.0
H1027 H 0.56889 0.07367 0.8766 0.0
H1028 H 0.62396 0.99882 0.873 0.0
H1029 H 0.64561 0.00875 0.83591 0.0
H1030 H 0.58215 0.04663 0.81437 0.0
C1031 C 0.5324 0.02113 0.89555 0.0
C1032 C 0.53519 0.00794 0.91582 0.0
C1033 C 0.55819 0.99807 0.92031 0.0
C1034 C 0.57816 1.00074 0.90446 0.0
C1035 C 0.57476 0.01342 0.88427 0.0
C1036 C 0.55261 0.02376 0.87992 0.0
C1037 C 0.55364 0.03584 0.85648 0.0
C1038 C 0.5318 0.02296 0.83709 0.0
C1039 C 0.55303 0.06454 0.86257 0.0
C1040 C 0.57959 0.03028 0.84812 0.0
C1041 C 0.59139 0.01729 0.86442 0.0
C1042 C 0.61504 0.00924 0.86024 0.0
C1043 C 0.62714 0.01487 0.83902 0.0
C1044 C 0.61568 0.02856 0.82221 0.0
C1045 C 0.59152 0.03629 0.82691 0.0
H1046 H 0.28386 0.22659 0.35709 0.0
H1047 H 0.36696 0.23752 0.35649 0.0
H1048 H 0.36972 0.21408 0.39193 0.0
H1049 H 0.28359 0.2418 0.42068 0.0
H1050 H 0.25531 0.21988 0.42358 0.0
H1051 H 0.25957 0.23231 0.39502 0.0
H1052 H 0.2547 0.18658 0.37072 0.0
H1053 H 0.25044 0.17397 0.39931 0.0
H1054 H 0.27524 0.16479 0.37978 0.0
H1055 H 0.36353 0.19355 0.43081 0.0
H1056 H 0.34944 0.18149 0.4706 0.0
H1057 H 0.27103 0.1884 0.44771 0.0
C1058 C 0.30273 0.22397 0.36416 0.0
C1059 C 0.32519 0.23408 0.35379 0.0
C1060 C 0.34936 0.22967 0.36361 0.0
C1061 C 0.35114 0.21642 0.3839 0.0
C1062 C 0.32861 0.2077 0.39425 0.0
C1063 C 0.30487 0.21141 0.38468 0.0
C1064 C 0.2838 0.20326 0.40088 0.0
C1065 C 0.26976 0.22565 0.41062 0.0
C1066 C 0.26493 0.18081 0.38683 0.0
C1067 C 0.29944 0.19521 0.4216 0.0
C1068 C 0.32517 0.19717 0.41715 0.0
C1069 C 0.3434 0.19172 0.43432 0.0
C1070 C 0.33522 0.18478 0.45683 0.0
C1071 C 0.30915 0.18398 0.46221 0.0
C1072 C 0.29106 0.18874 0.44406 0.0
H1073 H 0.5651 0.49184 0.92375 0.0
H1074 H 0.50618 0.51415 0.97164 0.0
H1075 H 0.47794 0.51643 0.93473 0.0
H1076 H 0.55702 0.53309 0.88167 0.0
H1077 H 0.56239 0.51168 0.85438 0.0
H1078 H 0.57664 0.5085 0.88425 0.0
H1079 H 0.5551 0.46168 0.87874 0.0
H1080 H 0.54087 0.46467 0.84872 0.0
H1081 H 0.52083 0.4542 0.87208 0.0
H1082 H 0.45856 0.52207 0.89305 0.0
H1083 H 0.44849 0.52786 0.84963 0.0
H1084 H 0.51941 0.50077 0.82866 0.0
C1085 C 0.54607 0.49674 0.92645 0.0
C1086 C 0.53783 0.50266 0.95064 0.0
C1087 C 0.51279 0.50907 0.95334 0.0
C1088 C 0.49664 0.51056 0.93246 0.0
C1089 C 0.50564 0.50531 0.90893 0.0
C1090 C 0.52964 0.49817 0.9058 0.0
C1091 C 0.53531 0.49491 0.87862 0.0
C1092 C 0.55925 0.51313 0.8745 0.0
C1093 C 0.53819 0.46722 0.86897 0.0
C1094 C 0.51111 0.50214 0.86705 0.0
C1095 C 0.49419 0.50798 0.88483 0.0
C1096 C 0.47143 0.51706 0.8789 0.0
C1097 C 0.46591 0.52038 0.8542 0.0
C1098 C 0.48298 0.51449 0.83567 0.0
C1099 C 0.50568 0.50491 0.84225 0.0
H1100 H 0.77453 0.81347 0.15332 0.0
H1101 H 0.75958 0.76797 0.21154 0.0
H1102 H 0.77006 0.73023 0.18397 0.0
H1103 H 0.74557 0.76549 0.10322 0.0
H1104 H 0.76834 0.77461 0.08149 0.0
H1105 H 0.76087 0.79791 0.10628 0.0
H1106 H 0.80914 0.80906 0.12114 0.0
H1107 H 0.81677 0.78588 0.09634 0.0
H1108 H 0.82686 0.78424 0.12808 0.0
H1109 H 0.78384 0.69788 0.14978 0.0
H1110 H 0.79657 0.67327 0.11136 0.0
H1111 H 0.79876 0.73987 0.07509 0.0
C1112 C 0.77371 0.79556 0.16026 0.0
C1113 C 0.76668 0.79349 0.18454 0.0
C1114 C 0.76518 0.76978 0.19299 0.0
C1115 C 0.77108 0.74836 0.17748 0.0
C1116 C 0.77794 0.75099 0.15351 0.0
C1117 C 0.77897 0.77399 0.1449 0.0
C1118 C 0.78578 0.77174 0.11814 0.0
C1119 C 0.76383 0.77779 0.1013 0.0
C1120 C 0.81115 0.78873 0.1158 0.0
C1121 C 0.78869 0.74395 0.11301 0.0
C1122 C 0.78436 0.73227 0.13364 0.0
C1123 C 0.787 0.7068 0.13345 0.0
C1124 C 0.79425 0.69298 0.11161 0.0
C1125 C 0.79833 0.7046 0.09022 0.0
C1126 C 0.79535 0.73035 0.09102 0.0
H1127 H 0.99519 0.02265 0.08607 0.0
H1128 H 0.07262 0.01474 0.11255 0.0
H1129 H 0.05919 0.01741 0.15509 0.0
H1130 H 0.98781 0.07113 0.13573 0.0
H1131 H 0.95405 0.06094 0.13753 0.0
H1132 H 0.96843 0.05474 0.10842 0.0
H1133 H 0.95193 0.00679 0.1054 0.0
H1134 H 0.93752 0.01283 0.13455 0.0
H1135 H 0.96002 0.99039 0.1306 0.0
H1136 H 0.03843 0.02253 0.19491 0.0
H1137 H 0.01267 0.03352 0.23017 0.0
H1138 H 0.95002 0.04326 0.17912 0.0
C1139 C 0.0095 0.02154 0.10066 0.0
C1140 C 0.03501 0.01805 0.09547 0.0
C1141 C 0.05276 0.01649 0.11551 0.0
C1142 C 0.04539 0.01822 0.13993 0.0
C1143 C 0.0203 0.02197 0.14427 0.0
C1144 C 1.00269 0.02393 0.12529 0.0
C1145 C 0.97761 0.03023 0.13537 0.0
C1146 C 0.97163 0.05578 0.12888 0.0
C1147 C 0.95546 0.00878 0.12591 0.0
C1148 C 0.98408 0.03184 0.16303 0.0
C1149 C 0.00865 0.02648 0.16761 0.0
C1150 C 0.01916 0.02674 0.19158 0.0
C1151 C 1.0043 0.03296 0.21149 0.0
C1152 C 0.97933 0.03927 0.20739 0.0
C1153 C 0.96905 0.03856 0.18279 0.0
H1154 H 0.29703 0.81766 0.20076 0.0
H1155 H 0.32483 0.74818 0.1706 0.0
H1156 H 0.31136 0.75444 0.12796 0.0
H1157 H 0.24096 0.81068 0.15603 0.0
H1158 H 0.24409 0.84415 0.15456 0.0
H1159 H 0.25473 0.8334 0.1826 0.0
H1160 H 0.29983 0.85876 0.18101 0.0
H1161 H 0.28943 0.86934 0.15282 0.0
H1162 H 0.31711 0.85304 0.15354 0.0
H1163 H 0.29722 0.76948 0.08891 0.0
H1164 H 0.28057 0.7905 0.05563 0.0
H1165 H 0.26127 0.85042 0.1109 0.0
C1166 C 0.29979 0.8036 0.18511 0.0
C1167 C 0.31162 0.7823 0.18865 0.0
C1168 C 0.31548 0.76443 0.16801 0.0
C1169 C 0.308 0.7679 0.14382 0.0
C1170 C 0.2967 0.78935 0.14079 0.0
C1171 C 0.29235 0.80678 0.16085 0.0
C1172 C 0.28026 0.82839 0.15236 0.0
C1173 C 0.25341 0.82919 0.16196 0.0
C1174 C 0.29771 0.85389 0.16041 0.0
C1175 C 0.27872 0.82052 0.12439 0.0
C1176 C 0.2884 0.79798 0.11817 0.0
C1177 C 0.28949 0.78707 0.09355 0.0
C1178 C 0.28011 0.79929 0.07475 0.0
C1179 C 0.2697 0.8222 0.0806 0.0
C1180 C 0.26913 0.83296 0.10582 0.0
H1181 H 0.09062 0.50976 0.0919 0.0
H1182 H 0.02803 0.46151 0.11707 0.0
H1183 H 0.05321 0.46289 0.15709 0.0
H1184 H 0.14101 0.48068 0.11833 0.0
H1185 H 0.16271 0.50997 0.12636 0.0
H1186 H 0.13927 0.50598 0.10033 0.0
H1187 H 0.12172 0.54662 0.11963 0.0
H1188 H 0.14507 0.5507 0.14575 0.0
H1189 H 0.1114 0.54907 0.1508 0.0
H1190 H 0.08496 0.47073 0.19476 0.0
H1191 H 0.12228 0.48116 0.22581 0.0
H1192 H 0.16511 0.52192 0.17466 0.0
C1193 C 0.08231 0.49961 0.10595 0.0
C1194 C 0.05746 0.48567 0.10173 0.0
C1195 C 0.0471 0.47229 0.12021 0.0
C1196 C 0.0612 0.47305 0.14292 0.0
C1197 C 0.08572 0.487 0.14662 0.0
C1198 C 0.09631 0.49979 0.12853 0.0
C1199 C 0.12343 0.51248 0.13672 0.0
C1200 C 0.14274 0.50162 0.11941 0.0
C1201 C 0.12551 0.54144 0.13832 0.0
C1202 C 0.12642 0.50492 0.16226 0.0
C1203 C 0.10437 0.49049 0.16777 0.0
C1204 C 0.1024 0.48186 0.19058 0.0
C1205 C 0.12364 0.48793 0.20812 0.0
C1206 C 0.14664 0.50214 0.20256 0.0
C1207 C 0.1479 0.51075 0.17933 0.0
H1208 H 0.36997 0.72013 0.31826 0.0
H1209 H 0.40956 0.74502 0.25645 0.0
H1210 H 0.45111 0.74131 0.27759 0.0
H1211 H 0.41656 0.75372 0.36611 0.0
H1212 H 0.41347 0.72921 0.38542 0.0
H1213 H 0.38667 0.73279 0.36501 0.0
H1214 H 0.38391 0.68582 0.34463 0.0
H1215 H 0.41079 0.68212 0.36493 0.0
H1216 H 0.41186 0.67465 0.3317 0.0
H1217 H 0.48815 0.73522 0.3051 0.0
H1218 H 0.51902 0.72979 0.33858 0.0
H1219 H 0.45597 0.70963 0.38352 0.0
C1220 C 0.38741 0.72464 0.30917 0.0
C1221 C 0.3866 0.73294 0.28575 0.0
C1222 C 0.4098 0.73892 0.27451 0.0
C1223 C 0.43346 0.73668 0.28628 0.0
C1224 C 0.43363 0.72852 0.30934 0.0
C1225 C 0.41129 0.72274 0.3208 0.0
C1226 C 0.41708 0.71537 0.34609 0.0
C1227 C 0.4079 0.73388 0.36688 0.0
C1228 C 0.4052 0.68785 0.34687 0.0
C1229 C 0.44615 0.71807 0.34707 0.0
C1230 C 0.45521 0.72543 0.32554 0.0
C1231 C 0.48131 0.72945 0.32206 0.0
C1232 C 0.49871 0.72627 0.34125 0.0
C1233 C 0.49002 0.71929 0.36381 0.0
C1234 C 0.4633 0.71489 0.36654 0.0
H1235 H 0.05779 0.43574 0.01829 0.0
H1236 H 0.97541 0.43363 0.01957 0.0
H1237 H 0.96894 0.39169 0.99249 0.0
H1238 H 0.05717 0.4043 0.95294 0.0
H1239 H 0.08345 0.38761 0.9599 0.0
H1240 H 0.08131 0.41822 0.97755 0.0
H1241 H 0.08313 0.39902 0.01836 0.0
H1242 H 0.08517 0.36839 1.00088 0.0
H1243 H 0.06003 0.37209 0.02174 0.0
H1244 H 0.97191 0.34775 0.97042 0.0
H1245 H 0.98386 0.30657 0.95167 0.0
H1246 H 0.06425 0.33868 0.9619 0.0
C1247 C 0.0384 0.42656 0.0125 0.0
C1248 C 0.01705 0.43772 0.02095 0.0
C1249 C 0.99195 0.42534 0.01309 0.0
C1250 C 0.98814 0.40157 0.99779 0.0
C1251 C 0.00966 0.3908 0.99017 0.0
C1252 C 0.0343 0.40311 0.99692 0.0
C1253 C 0.05419 0.38716 0.98694 0.0
C1254 C 0.06996 0.4001 0.96821 0.0
C1255 C 0.07164 0.38132 0.00825 0.0
C1256 C 0.03694 0.36355 0.97418 0.0
C1257 C 0.0113 0.36601 0.97631 0.0
C1258 C 0.99186 0.34583 0.96809 0.0
C1259 C 0.99879 0.32255 0.95757 0.0
C1260 C 0.02487 0.31979 0.95499 0.0
C1261 C 0.04414 0.34063 0.96306 0.0
H1262 H 0.6775 0.83034 0.28287 0.0
H1263 H 0.66077 0.77611 0.21507 0.0
H1264 H 0.63267 0.74753 0.23738 0.0
H1265 H 0.67977 0.78475 0.32494 0.0
H1266 H 0.66498 0.80307 0.34913 0.0
H1267 H 0.68368 0.81884 0.32774 0.0
H1268 H 0.64491 0.84083 0.31609 0.0
H1269 H 0.62606 0.82504 0.33737 0.0
H1270 H 0.61454 0.82177 0.30518 0.0
H1271 H 0.60625 0.72542 0.26723 0.0
H1272 H 0.58417 0.71061 0.30232 0.0
H1273 H 0.61839 0.77966 0.35073 0.0
C1274 C 0.66793 0.81237 0.27285 0.0
C1275 C 0.67109 0.80514 0.24744 0.0
C1276 C 0.65843 0.78171 0.23464 0.0
C1277 C 0.64249 0.76548 0.24714 0.0
C1278 C 0.63958 0.77316 0.27231 0.0
C1279 C 0.65201 0.79603 0.28504 0.0
C1280 C 0.6457 0.79986 0.31199 0.0
C1281 C 0.66998 0.80173 0.32948 0.0
C1282 C 0.63198 0.82326 0.318 0.0
C1283 C 0.62775 0.77558 0.31251 0.0
C1284 C 0.62443 0.76046 0.28945 0.0
C1285 C 0.60874 0.73708 0.28537 0.0
C1286 C 0.59625 0.72886 0.30544 0.0
C1287 C 0.59955 0.74396 0.32931 0.0
C1288 C 0.61544 0.76768 0.33274 0.0
H1289 H 0.0373 0.10989 0.01027 0.0
H1290 H 0.05991 0.05451 0.95272 0.0
H1291 H 0.06933 0.08807 0.92635 0.0
H1292 H 1.00516 0.1433 0.97047 0.0
H1293 H 0.01521 0.17414 0.9887 0.0
H1294 H 0.01227 0.14631 0.00357 0.0
H1295 H 0.05952 0.158 0.02176 0.0
H1296 H 0.06252 0.18605 0.00718 0.0
H1297 H 0.08464 0.16347 1.00116 0.0
H1298 H 0.07392 0.1276 0.90573 0.0
H1299 H 0.07466 0.1698 0.89286 0.0
H1300 H 0.04862 0.19887 0.9643 0.0
C1301 C 0.04472 0.10504 0.99229 0.0
C1302 C 0.04829 0.07996 0.98343 0.0
C1303 C 0.05746 0.07387 0.95974 0.0
C1304 C 0.06274 0.09274 0.94471 0.0
C1305 C 0.05865 0.11741 0.9538 0.0
C1306 C 0.05 0.12359 0.97713 0.0
C1307 C 0.04626 0.1512 0.98227 0.0
C1308 C 0.01805 0.15388 0.9865 0.0
C1309 C 0.06432 0.16552 0.0044 0.0
C1310 C 0.05387 0.15961 0.9581 0.0
C1311 C 0.06103 0.13992 0.94192 0.0
C1312 C 0.06848 0.14316 0.91831 0.0
C1313 C 0.06877 0.16719 0.91115 0.0
C1314 C 0.06158 0.18763 0.92752 0.0
C1315 C 0.05404 0.18364 0.95127 0.0
H1316 H 0.35722 0.23121 0.2684 0.0
H1317 H 0.36455 0.31319 0.28607 0.0
H1318 H 0.39499 0.31728 0.25348 0.0
H1319 H 0.42394 0.22789 0.25512 0.0
H1320 H 0.41573 0.20191 0.22986 0.0
H1321 H 0.39535 0.20545 0.2553 0.0
H1322 H 0.35647 0.20558 0.22423 0.0
H1323 H 0.37673 0.20208 0.19872 0.0
H1324 H 0.35846 0.22819 0.20285 0.0
H1325 H 0.42388 0.31248 0.21817 0.0
H1326 H 0.44824 0.2991 0.18221 0.0
H1327 H 0.42202 0.22025 0.18741 0.0
C1328 C 0.36551 0.25001 0.26563 0.0
C1329 C 0.35848 0.27189 0.2798 0.0
C1330 C 0.36944 0.29616 0.27529 0.0
C1331 C 0.38687 0.29868 0.25692 0.0
C1332 C 0.39321 0.27676 0.24314 0.0
C1333 C 0.38286 0.25288 0.24725 0.0
C1334 C 0.39219 0.23239 0.22925 0.0
C1335 C 0.40773 0.21594 0.24322 0.0
C1336 C 0.36962 0.21611 0.21279 0.0
C1337 C 0.40922 0.24846 0.21428 0.0
C1338 C 0.40968 0.274 0.22268 0.0
C1339 C 0.42374 0.29252 0.21149 0.0
C1340 C 0.43754 0.28473 0.19106 0.0
C1341 C 0.43711 0.25863 0.18193 0.0
C1342 C 0.42285 0.24035 0.19392 0.0
H1343 H 0.55961 0.42803 0.03265 0.0
H1344 H 0.50222 0.46604 0.07088 0.0
H1345 H 0.48692 0.42685 0.08786 0.0
H1346 H 0.5206 0.36556 0.01672 0.0
H1347 H 0.54745 0.34893 0.02162 0.0
H1348 H 0.55256 0.37952 0.01167 0.0
H1349 H 0.58546 0.39596 0.04949 0.0
H1350 H 0.58017 0.36555 0.05976 0.0
H1351 H 0.5758 0.39377 0.08042 0.0
H1352 H 0.47962 0.38383 0.10231 0.0
H1353 H 0.47879 0.3398 0.11062 0.0
H1354 H 0.54125 0.33044 0.06274 0.0
C1355 C 0.54348 0.42782 0.04419 0.0
C1356 C 0.53171 0.44966 0.05028 0.0
C1357 C 0.51109 0.44917 0.06581 0.0
C1358 C 0.50242 0.4271 0.07561 0.0
C1359 C 0.5147 0.40583 0.06964 0.0
C1360 C 0.53463 0.40596 0.05408 0.0
C1361 C 0.54491 0.38085 0.05092 0.0
C1362 C 0.54114 0.36795 0.02361 0.0
C1363 C 0.57326 0.38425 0.06074 0.0
C1364 C 0.52778 0.36659 0.0672 0.0
C1365 C 0.51053 0.38128 0.07793 0.0
C1366 C 0.49297 0.37212 0.09389 0.0
C1367 C 0.49273 0.34711 0.09862 0.0
C1368 C 0.5099 0.33154 0.08734 0.0
C1369 C 0.52779 0.3417 0.07166 0.0
H1370 H 0.68046 0.23019 0.18038 0.0
H1371 H 0.65067 0.23186 0.25301 0.0
H1372 H 0.60961 0.2429 0.23613 0.0
H1373 H 0.64912 0.28232 0.16148 0.0
H1374 H 0.64321 0.26687 0.12965 0.0
H1375 H 0.67069 0.26159 0.14821 0.0
H1376 H 0.65563 0.21311 0.13877 0.0
H1377 H 0.62806 0.21824 0.12032 0.0
H1378 H 0.62383 0.20069 0.14587 0.0
H1379 H 0.5707 0.25054 0.21002 0.0
H1380 H 0.53763 0.25445 0.1775 0.0
H1381 H 0.59361 0.24756 0.12209 0.0
C1382 C 0.66542 0.23345 0.19278 0.0
C1383 C 0.66853 0.23059 0.21795 0.0
C1384 C 0.6485 0.23436 0.23369 0.0
C1385 C 0.62521 0.24058 0.22425 0.0
C1386 C 0.62249 0.24294 0.1991 0.0
C1387 C 0.64216 0.23962 0.18364 0.0
C1388 C 0.63406 0.24181 0.1571 0.0
C1389 C 0.65023 0.2645 0.14862 0.0
C1390 C 0.63547 0.21698 0.13949 0.0
C1391 C 0.60658 0.24638 0.15984 0.0
C1392 C 0.60025 0.24715 0.18419 0.0
C1393 C 0.57556 0.2502 0.19094 0.0
C1394 C 0.55688 0.25237 0.1723 0.0
C1395 C 0.56294 0.25139 0.14716 0.0
C1396 C 0.58826 0.24857 0.14108 0.0
H1397 H 0.46625 0.06399 0.03492 0.0
H1398 H 0.49162 0.08213 0.96431 0.0
H1399 H 0.5017 0.12731 0.98294 0.0
H1400 H 0.43386 0.11691 0.04882 0.0
H1401 H 0.44217 0.12139 0.08182 0.0
H1402 H 0.43971 0.09028 0.06372 0.0
H1403 H 0.48613 0.08681 0.07957 0.0
H1404 H 0.48876 0.11797 0.0977 0.0
H1405 H 0.51199 0.11102 0.0755 0.0
H1406 H 0.50633 0.17088 0.00858 0.0
H1407 H 0.50386 0.20941 0.03847 0.0
H1408 H 0.47359 0.16285 0.09176 0.0
C1409 C 0.4739 0.07739 0.02326 0.0
C1410 C 0.47809 0.06937 0.99805 0.0
C1411 C 0.48855 0.08763 0.98372 0.0
C1412 C 0.49424 0.11338 0.99413 0.0
C1413 C 0.48941 0.12059 0.01889 0.0
C1414 C 0.47944 0.1031 0.03325 0.0
C1415 C 0.4745 0.11585 0.0589 0.0
C1416 C 0.44586 0.11081 0.06358 0.0
C1417 C 0.49136 0.10741 0.07911 0.0
C1418 C 0.48277 0.14337 0.05661 0.0
C1419 C 0.49163 0.14568 0.03351 0.0
C1420 C 0.49963 0.16927 0.02678 0.0
C1421 C 0.4982 0.19107 0.04396 0.0
C1422 C 0.48867 0.18919 0.06756 0.0
C1423 C 0.48113 0.16494 0.07396 0.0
H1424 H 0.32446 0.37432 0.71847 0.0
H1425 H 0.26709 0.42388 0.71047 0.0
H1426 H 0.3013 0.46058 0.71449 0.0
H1427 H 0.36469 0.41586 0.76431 0.0
H1428 H 0.39446 0.40776 0.75283 0.0
H1429 H 0.3658 0.38487 0.74693 0.0
H1430 H 0.37116 0.38027 0.69959 0.0
H1431 H 0.39997 0.40307 0.70534 0.0
H1432 H 0.37401 0.4081 0.68462 0.0
H1433 H 0.34077 0.49215 0.72305 0.0
H1434 H 0.38352 0.51696 0.73457 0.0
H1435 H 0.41618 0.44731 0.73626 0.0
C1436 C 0.31918 0.39282 0.71699 0.0
C1437 C 0.29311 0.39628 0.71417 0.0
C1438 C 0.28691 0.42085 0.71284 0.0
C1439 C 0.30621 0.44178 0.71496 0.0
C1440 C 0.33166 0.43783 0.71826 0.0
C1441 C 0.33826 0.41399 0.7191 0.0
C1442 C 0.36704 0.41529 0.72418 0.0
C1443 C 0.37336 0.40536 0.74851 0.0
C1444 C 0.37873 0.40082 0.70212 0.0
C1445 C 0.37546 0.44365 0.72661 0.0
C1446 C 0.3547 0.45621 0.72298 0.0
C1447 C 0.35724 0.48253 0.72561 0.0
C1448 C 0.38163 0.49646 0.73228 0.0
C1449 C 0.40326 0.48409 0.73622 0.0
C1450 C 0.40011 0.45729 0.73302 0.0
H1451 H 0.3194 0.69526 0.79669 0.0
H1452 H 0.25926 0.63081 0.78908 0.0
H1453 H 0.29201 0.60222 0.7922 0.0
H1454 H 0.36136 0.66425 0.75835 0.0
H1455 H 0.39038 0.67982 0.77619 0.0
H1456 H 0.36222 0.69537 0.77618 0.0
H1457 H 0.36405 0.70049 0.82427 0.0
H1458 H 0.39222 0.68487 0.82443 0.0
H1459 H 0.36443 0.6729 0.83933 0.0
H1460 H 0.33129 0.58063 0.79466 0.0
H1461 H 0.37404 0.56692 0.79238 0.0
H1462 H 0.40884 0.64526 0.79602 0.0
C1463 C 0.31323 0.67516 0.79611 0.0
C1464 C 0.28692 0.66513 0.79294 0.0
C1465 C 0.27939 0.63873 0.79162 0.0
C1466 C 0.29782 0.62244 0.79349 0.0
C1467 C 0.32369 0.63286 0.79642 0.0
C1468 C 0.33142 0.65859 0.79749 0.0
C1469 C 0.36042 0.66465 0.79859 0.0
C1470 C 0.36909 0.67673 0.77598 0.0
C1471 C 0.37089 0.68174 0.82312 0.0
C1472 C 0.36779 0.63829 0.7976 0.0
C1473 C 0.34634 0.62029 0.79682 0.0
C1474 C 0.34823 0.59457 0.79536 0.0
C1475 C 0.37264 0.58697 0.79414 0.0
C1476 C 0.39484 0.60499 0.79402 0.0
C1477 C 0.39229 0.63102 0.79614 0.0
H1478 H 0.90722 0.50717 0.49257 0.0
H1479 H 0.96853 0.46388 0.47106 0.0
H1480 H 0.93967 0.42421 0.47273 0.0
H1481 H 0.88336 0.46956 0.53682 0.0
H1482 H 0.8501 0.47209 0.52976 0.0
H1483 H 0.87479 0.49705 0.52492 0.0
H1484 H 0.85762 0.49269 0.47887 0.0
H1485 H 0.83278 0.46779 0.48359 0.0
H1486 H 0.85424 0.46219 0.45933 0.0
H1487 H 0.90529 0.38954 0.47928 0.0
H1488 H 0.86736 0.36182 0.48883 0.0
H1489 H 0.82815 0.42745 0.50707 0.0
C1490 C 0.91462 0.48936 0.48813 0.0
C1491 C 0.94025 0.48873 0.48163 0.0
C1492 C 0.94894 0.46493 0.4757 0.0
C1493 C 0.93272 0.44228 0.47677 0.0
C1494 C 0.90781 0.44367 0.48375 0.0
C1495 C 0.89872 0.46657 0.4892 0.0
C1496 C 0.87139 0.46282 0.49697 0.0
C1497 C 0.86983 0.47617 0.5237 0.0
C1498 C 0.85292 0.47191 0.47859 0.0
C1499 C 0.86664 0.43421 0.49536 0.0
C1500 C 0.88791 0.4236 0.48762 0.0
C1501 C 0.88847 0.39762 0.48521 0.0
C1502 C 0.86675 0.38202 0.49077 0.0
C1503 C 0.84459 0.39234 0.49873 0.0
C1504 C 0.84465 0.41888 0.50098 0.0
H1505 H 0.73826 0.88082 0.82104 0.0
H1506 H 0.78111 0.85263 0.75983 0.0
H1507 H 0.76675 0.88452 0.73561 0.0
H1508 H 0.68396 0.89353 0.7839 0.0
H1509 H 0.67995 0.92189 0.80454 0.0
H1510 H 0.69324 0.89664 0.81663 0.0
H1511 H 0.73356 0.92801 0.83543 0.0
H1512 H 0.72028 0.95337 0.82362 0.0
H1513 H 0.75164 0.94657 0.81559 0.0
H1514 H 0.74821 0.92014 0.71881 0.0
H1515 H 0.72885 0.95775 0.71111 0.0
H1516 H 0.69773 0.96223 0.78359 0.0
C1517 C 0.7446 0.88149 0.80253 0.0
C1518 C 0.76078 0.86461 0.79213 0.0
C1519 C 0.76876 0.86567 0.76795 0.0
C1520 C 0.76061 0.88358 0.75412 0.0
C1521 C 0.74446 0.90003 0.76485 0.0
C1522 C 0.73661 0.89916 0.78855 0.0
C1523 C 0.71974 0.91924 0.79606 0.0
C1524 C 0.69262 0.90709 0.80054 0.0
C1525 C 0.73205 0.9379 0.81903 0.0
C1526 C 0.71952 0.93181 0.77302 0.0
C1527 C 0.73373 0.92036 0.75516 0.0
C1528 C 0.73695 0.92917 0.73261 0.0
C1529 C 0.72583 0.95057 0.72842 0.0
C1530 C 0.71167 0.96299 0.74671 0.0
C1531 C 0.70816 0.95309 0.76909 0.0
H1532 H 0.61451 0.57084 0.02085 0.0
H1533 H 0.63788 0.50992 0.96985 0.0
H1534 H 0.68181 0.53388 0.97207 0.0
H1535 H 0.65024 0.62154 0.99508 0.0
H1536 H 0.65791 0.64159 0.02478 0.0
H1537 H 0.62889 0.61913 0.01967 0.0
H1538 H 0.64268 0.59943 0.05797 0.0
H1539 H 0.67184 0.62172 0.06309 0.0
H1540 H 0.67333 0.58815 0.05945 0.0
H1541 H 0.72364 0.56416 0.98146 0.0
H1542 H 0.75859 0.60025 0.99313 0.0
H1543 H 0.70656 0.64238 0.03568 0.0
C1544 C 0.62896 0.56262 0.01019 0.0
C1545 C 0.62311 0.53857 0.99531 0.0
C1546 C 0.6422 0.52838 0.98133 0.0
C1547 C 0.66713 0.54179 0.98259 0.0
C1548 C 0.67241 0.56545 0.99763 0.0
C1549 C 0.65373 0.57594 0.01087 0.0
C1550 C 0.66394 0.60212 0.02476 0.0
C1551 C 0.64938 0.62228 0.01551 0.0
C1552 C 0.66288 0.60288 0.05299 0.0
C1553 C 0.69134 0.60474 0.01739 0.0
C1554 C 0.696 0.58327 1.00203 0.0
C1555 C 0.72015 0.58113 0.99332 0.0
C1556 C 0.7399 0.60166 1.00015 0.0
C1557 C 0.73524 0.62415 0.01517 0.0
C1558 C 0.71065 0.62552 0.02399 0.0
H1559 H 0.29333 0.69493 0.29044 0.0
H1560 H 0.29913 0.68649 0.21076 0.0
H1561 H 0.26839 0.64666 0.20533 0.0
H1562 H 0.29129 0.63162 0.29677 0.0
H1563 H 0.2682 0.63162 0.32002 0.0
H1564 H 0.28858 0.66049 0.31727 0.0
H1565 H 0.2486 0.68291 0.31165 0.0
H1566 H 0.22804 0.65408 0.3145 0.0
H1567 H 0.22386 0.66926 0.28753 0.0
H1568 H 0.24236 0.60478 0.20954 0.0
H1569 H 0.21952 0.56616 0.22263 0.0
H1570 H 0.2276 0.60371 0.29911 0.0
C1571 C 0.28767 0.6849 0.27184 0.0
C1572 C 0.29844 0.69363 0.25098 0.0
C1573 C 0.29082 0.6801 0.2269 0.0
C1574 C 0.27346 0.65749 0.22368 0.0
C1575 C 0.26354 0.64907 0.24471 0.0
C1576 C 0.26999 0.66263 0.26829 0.0
C1577 C 0.25735 0.6491 0.2879 0.0
C1578 C 0.27756 0.64284 0.30658 0.0
C1579 C 0.23833 0.66477 0.30117 0.0
C1580 C 0.24349 0.62535 0.27181 0.0
C1581 C 0.24735 0.62563 0.24694 0.0
C1582 C 0.23864 0.60463 0.22885 0.0
C1583 C 0.22581 0.58279 0.23642 0.0
C1584 C 0.22147 0.58233 0.26173 0.0
C1585 C 0.23005 0.60399 0.27954 0.0
H1586 H 0.97157 0.57031 0.01783 0.0
H1587 H 0.93748 0.49886 0.03731 0.0
H1588 H 0.89403 0.51041 0.02972 0.0
H1589 H 0.93128 0.60707 0.04834 0.0
H1590 H 0.92932 0.62824 0.02584 0.0
H1591 H 0.95711 0.61254 0.0285 0.0
H1592 H 0.95038 0.5937 0.98168 0.0
H1593 H 0.92257 0.60953 0.97882 0.0
H1594 H 0.91989 0.57571 0.9694 0.0
H1595 H 0.85511 0.53254 0.02598 0.0
H1596 H 0.82385 0.56285 0.02581 0.0
H1597 H 0.8835 0.61981 0.0082 0.0
C1598 C 0.95485 0.5568 0.0196 0.0
C1599 C 0.95752 0.53356 0.02764 0.0
C1600 C 0.93553 0.51655 0.03068 0.0
C1601 C 0.91088 0.52299 0.02643 0.0
C1602 C 0.90875 0.54642 0.01905 0.0
C1603 C 0.93018 0.56296 0.01541 0.0
C1604 C 0.92291 0.58791 0.00978 0.0
C1605 C 0.93592 0.61024 0.02928 0.0
C1606 C 0.92932 0.59194 0.98334 0.0
C1607 C 0.89418 0.58327 0.0118 0.0
C1608 C 0.88631 0.55913 0.01685 0.0
C1609 C 0.86098 0.5513 0.02155 0.0
C1610 C 0.84336 0.56868 0.02148 0.0
C1611 C 0.85115 0.59365 0.0168 0.0
C1612 C 0.8768 0.60073 0.01138 0.0
H1613 H 0.11561 0.99886 0.06795 0.0
H1614 H 0.08006 0.97828 0.99275 0.0
H1615 H 0.11366 0.95156 0.98187 0.0
H1616 H 0.18249 0.99885 0.05256 0.0
H1617 H 0.19096 0.98513 0.07953 0.0
H1618 H 0.16596 0.00496 0.08047 0.0
H1619 H 0.13435 0.96888 0.09344 0.0
H1620 H 0.1592 0.94896 0.09252 0.0
H1621 H 0.12917 0.9381 0.0743 0.0
H1622 H 0.14915 0.92416 0.98025 0.0
H1623 H 0.18312 0.89826 0.98807 0.0
H1624 H 0.19431 0.93573 0.06479 0.0
C1625 C 0.11489 0.98887 0.04912 0.0
C1626 C 0.09509 0.99076 0.03121 0.0
C1627 C 0.09517 0.97753 0.00673 0.0
C1628 C 0.11414 0.96218 1.0004 0.0
C1629 C 0.13296 0.96029 0.01871 0.0
C1630 C 0.1335 0.97336 0.04256 0.0
C1631 C 0.15471 0.96687 0.05928 0.0
C1632 C 0.17472 0.99035 0.06849 0.0
C1633 C 0.14369 0.95499 0.08117 0.0
C1634 C 0.1657 0.94765 0.04127 0.0
C1635 C 0.15311 0.94431 0.01789 0.0
C1636 C 0.15928 0.9268 0.99844 0.0
C1637 C 0.17861 0.91215 0.00308 0.0
C1638 C 0.19146 0.91494 0.02704 0.0
C1639 C 0.18502 0.9332 0.04623 0.0
loop_
_geom_bond_atom_site_label_1
_geom_bond_atom_site_label_2
_geom_bond_distance
_geom_bond_site_symmetry_2
_ccdc_geom_bond_type
H0 C3 0.929 . S
H1 C6 0.929 . S
H2 C8 0.930 . S
C3 H0 0.929 . S
C3 C4 1.398 . S
C3 C5 1.396 . S
C4 C3 1.398 . S
C4 C8 1.407 . S
C5 C3 1.396 . S
C5 C6 1.394 . S
C6 H1 0.929 . S
C6 C5 1.394 . S
C6 C7 1.382 . S
C7 C6 1.382 . S
C7 C8 1.392 . S
C7 N9 1.420 . S
C8 H2 0.930 . S
C8 C4 1.407 . S
C8 C7 1.392 . S
N9 C7 1.420 . S
N9 C10 1.244 . S
C10 N9 1.244 . S
H11 C14 0.929 . S
H12 C17 0.929 . S
H13 C19 0.930 . S
C14 H11 0.929 . S
C14 C15 1.398 . S
C14 C16 1.396 . S
C15 C14 1.398 . S
C15 C19 1.407 . S
C16 C14 1.396 . S
C16 C17 1.394 . S
C17 H12 0.929 . S
C17 C16 1.394 . S
C17 C18 1.382 . S
C18 C17 1.382 . S
C18 C19 1.392 . S
C18 N20 1.420 . S
C19 H13 0.930 . S
C19 C15 1.407 . S
C19 C18 1.392 . S
N20 C18 1.420 . S
N20 C21 1.244 . S
C21 N20 1.244 . S
H22 C25 0.929 . S
H23 C28 0.930 . S
H24 C30 0.930 . S
C25 H22 0.929 . S
C25 C26 1.398 . S
C25 C27 1.396 . S
C26 C25 1.398 . S
C26 C30 1.407 1_455 S
C27 C25 1.396 . S
C27 C28 1.391 1_455 S
C28 H23 0.930 . S
C28 C27 1.391 1_655 S
C28 C29 1.383 . S
C29 C28 1.383 . S
C29 C30 1.392 . S
C29 N31 1.420 . S
C30 H24 0.930 . S
C30 C26 1.407 1_655 S
C30 C29 1.392 . S
N31 C29 1.420 . S
N31 C32 1.244 . S
C32 N31 1.244 . S
H33 C36 0.929 . S
H34 C39 0.929 . S
H35 C41 0.930 . S
C36 H33 0.929 . S
C36 C37 1.398 . S
C36 C38 1.396 . S
C37 C36 1.398 . S
C37 C41 1.407 . S
C38 C36 1.396 . S
C38 C39 1.394 . S
C39 H34 0.929 . S
C39 C38 1.394 . S
C39 C40 1.382 . S
C40 C39 1.382 . S
C40 C41 1.392 . S
C40 N42 1.420 . S
C41 H35 0.930 . S
C41 C37 1.407 . S
C41 C40 1.392 . S
N42 C40 1.420 . S
N42 C43 1.244 . S
C43 N42 1.244 . S
H44 C47 0.948 . S
H45 C50 0.929 . S
H46 C52 0.930 . S
C47 H44 0.948 . S
C47 C48 1.389 1_545 S
C47 C49 1.387 1_545 S
C48 C47 1.389 1_565 S
C48 C52 1.407 . S
C49 C47 1.387 1_565 S
C49 C50 1.394 . S
C50 H45 0.929 . S
C50 C49 1.394 . S
C50 C51 1.382 . S
C51 C50 1.382 . S
C51 C52 1.392 . S
C51 N53 1.420 . S
C52 H46 0.930 . S
C52 C48 1.407 . S
C52 C51 1.392 . S
N53 C51 1.420 . S
N53 C54 1.244 . S
C54 N53 1.244 . S
H55 C58 0.929 . S
H56 C61 0.929 . S
H57 C63 0.930 . S
C58 H55 0.929 . S
C58 C59 1.398 . S
C58 C60 1.396 . S
C59 C58 1.398 . S
C59 C63 1.407 . S
C60 C58 1.396 . S
C60 C61 1.394 . S
C61 H56 0.929 . S
C61 C60 1.394 . S
C61 C62 1.382 . S
C62 C61 1.382 . S
C62 C63 1.392 . S
C62 N64 1.420 . S
C63 H57 0.930 . S
C63 C59 1.407 . S
C63 C62 1.392 . S
N64 C62 1.420 . S
N64 C65 1.244 . S
C65 N64 1.244 . S
H66 C69 0.929 . S
H67 C72 0.929 1_455 S
H68 C74 0.930 . S
C69 H66 0.929 . S
C69 C70 1.398 . S
C69 C71 1.396 . S
C70 C69 1.398 . S
C70 C74 1.407 . S
C71 C69 1.396 . S
C71 C72 1.394 . S
C72 H67 0.929 1_655 S
C72 C71 1.394 . S
C72 C73 1.382 . S
C73 C72 1.382 . S
C73 C74 1.392 . S
C73 N75 1.420 1_655 S
C74 H68 0.930 . S
C74 C70 1.407 . S
C74 C73 1.392 . S
N75 C73 1.420 1_455 S
N75 C76 1.244 . S
C76 N75 1.244 . S
H77 C80 0.929 . S
H78 C83 0.929 . S
H79 C85 0.930 . S
C80 H77 0.929 . S
C80 C81 1.398 . S
C80 C82 1.396 . S
C81 C80 1.398 . S
C81 C85 1.407 . S
C82 C80 1.396 . S
C82 C83 1.394 . S
C83 H78 0.929 . S
C83 C82 1.394 . S
C83 C84 1.382 . S
C84 C83 1.382 . S
C84 C85 1.392 . S
C84 N86 1.420 . S
C85 H79 0.930 . S
C85 C81 1.407 . S
C85 C84 1.392 . S
N86 C84 1.420 . S
N86 C87 1.244 . S
C87 N86 1.244 . S
H88 C91 0.929 . S
H89 C94 0.929 . S
H90 C96 0.930 . S
C91 H88 0.929 . S
C91 C92 1.398 . S
C91 C93 1.396 . S
C92 C91 1.398 . S
C92 C96 1.407 . S
C93 C91 1.396 . S
C93 C94 1.394 . S
C94 H89 0.929 . S
C94 C93 1.394 . S
C94 C95 1.382 . S
C95 C94 1.382 . S
C95 C96 1.392 . S
C95 N97 1.420 . S
C96 H90 0.930 . S
C96 C92 1.407 . S
C96 C95 1.392 . S
N97 C95 1.420 . S
N97 C98 1.244 . S
C98 N97 1.244 . S
H99 C102 0.929 . S
H100 C105 0.929 1_545 S
H101 C107 0.930 . S
C102 H99 0.929 . S
C102 C103 1.398 . S
C102 C104 1.396 . S
C103 C102 1.398 . S
C103 C107 1.407 . S
C104 C102 1.396 . S
C104 C105 1.394 . S
C105 H100 0.929 1_565 S
C105 C104 1.394 . S
C105 C106 1.382 . S
C106 C105 1.382 . S
C106 C107 1.392 . S
C106 N108 1.420 1_565 S
C107 H101 0.930 . S
C107 C103 1.407 . S
C107 C106 1.392 . S
N108 C106 1.420 1_545 S
N108 C109 1.244 . S
C109 N108 1.244 . S
H110 C113 0.929 . S
H111 C116 0.929 . S
H112 C118 0.930 . S
C113 H110 0.929 . S
C113 C114 1.398 . S
C113 C115 1.396 . S
C114 C113 1.398 . S
C114 C118 1.407 . S
C115 C113 1.396 . S
C115 C116 1.394 . S
C116 H111 0.929 . S
C116 C115 1.394 . S
C116 C117 1.382 . S
C117 C116 1.382 . S
C117 C118 1.392 . S
C117 N119 1.420 . S
C118 H112 0.930 . S
C118 C114 1.407 . S
C118 C117 1.392 . S
N119 C117 1.420 . S
N119 C120 1.244 . S
C120 N119 1.244 . S
H121 C124 0.929 . S
H122 C127 0.929 . S
H123 C129 0.930 . S
C124 H121 0.929 . S
C124 C125 1.398 . S
C124 C126 1.396 . S
C125 C124 1.398 . S
C125 C129 1.407 . S
C126 C124 1.396 . S
C126 C127 1.394 . S
C127 H122 0.929 . S
C127 C126 1.394 . S
C127 C128 1.382 . S
C128 C127 1.382 . S
C128 C129 1.392 . S
C128 N130 1.420 . S
C129 H123 0.930 . S
C129 C125 1.407 . S
C129 C128 1.392 . S
N130 C128 1.420 . S
N130 C131 1.244 . S
C131 N130 1.244 . S
H132 C135 0.929 . S
H133 C138 0.929 . S
H134 C140 0.930 . S
C135 H132 0.929 . S
C135 C136 1.398 . S
C135 C137 1.396 . S
C136 C135 1.398 . S
C136 C140 1.407 . S
C137 C135 1.396 . S
C137 C138 1.394 . S
C138 H133 0.929 . S
C138 C137 1.394 . S
C138 C139 1.382 . S
C139 C138 1.382 . S
C139 C140 1.392 . S
C139 N141 1.420 . S
C140 H134 0.930 . S
C140 C136 1.407 . S
C140 C139 1.392 . S
N141 C139 1.420 . S
N141 C142 1.244 . S
C142 N141 1.244 . S
H143 C146 0.929 . S
H144 C149 0.929 . S
H145 C151 0.930 . S
C146 H143 0.929 . S
C146 C147 1.398 . S
C146 C148 1.396 . S
C147 C146 1.398 . S
C147 C151 1.407 . S
C148 C146 1.396 . S
C148 C149 1.394 1_556 S
C149 H144 0.929 . S
C149 C148 1.394 1_554 S
C149 C150 1.382 1_554 S
C150 C149 1.382 1_556 S
C150 C151 1.392 . S
C150 N152 1.420 1_556 S
C151 H145 0.930 . S
C151 C147 1.407 . S
C151 C150 1.392 . S
N152 C150 1.420 1_554 S
N152 C153 1.244 . S
C153 N152 1.244 . S
H154 C157 0.929 . S
H155 C160 0.929 . S
H156 C162 0.930 . S
C157 H154 0.929 . S
C157 C158 1.398 . S
C157 C159 1.396 . S
C158 C157 1.398 . S
C158 C162 1.407 . S
C159 C157 1.396 . S
C159 C160 1.394 . S
C160 H155 0.929 . S
C160 C159 1.394 . S
C160 C161 1.382 . S
C161 C160 1.382 . S
C161 C162 1.392 . S
C161 N163 1.420 . S
C162 H156 0.930 . S
C162 C158 1.407 . S
C162 C161 1.392 . S
N163 C161 1.420 . S
N163 C164 1.244 . S
C164 N163 1.244 . S
H165 C168 0.929 1_554 S
H166 C171 0.929 . S
H167 C173 0.930 1_565 S
C168 H165 0.929 1_556 S
C168 C169 1.398 . S
C168 C170 1.396 . S
C169 C168 1.398 . S
C169 C173 1.407 . S
C170 C168 1.396 . S
C170 C171 1.394 . S
C171 H166 0.929 . S
C171 C170 1.394 . S
C171 C172 1.382 . S
C172 C171 1.382 . S
C172 C173 1.392 . S
C172 N174 1.420 . S
C173 H167 0.930 1_545 S
C173 C169 1.407 . S
C173 C172 1.392 . S
N174 C172 1.420 . S
N174 C175 1.244 . S
C175 N174 1.244 . S
Mg176 O177 2.028 . S
Mg176 O183 1.986 1_554 S
Mg176 O185 2.114 . S
Mg176 O186 2.251 . S
Mg176 O189 2.010 . S
O177 Mg176 2.028 . S
O177 C180 1.250 . S
O178 Mg179 2.028 . S
O178 C180 1.248 . S
Mg179 O178 2.028 . S
Mg179 O184 2.032 1_554 S
Mg179 O186 2.079 . S
C180 O177 1.250 . S
C180 O178 1.248 . S
C181 O182 1.264 . S
C181 O189 1.249 . S
O182 C181 1.264 . S
O183 Mg176 1.986 1_556 S
O183 C187 1.246 . S
O184 Mg179 2.032 1_556 S
O184 C187 1.259 . S
O185 Mg176 2.114 . S
O185 C188 1.252 . S
O186 Mg176 2.251 . S
O186 Mg179 2.079 . S
O186 C188 1.273 . S
C187 O183 1.246 . S
C187 O184 1.259 . S
C188 O185 1.252 . S
C188 O186 1.273 . S
O189 Mg176 2.010 . S
O189 C181 1.249 . S
Mg190 O191 2.028 . S
Mg190 O197 1.986 . S
Mg190 O199 2.114 . S
Mg190 O200 2.251 . S
Mg190 O203 2.010 . S
O191 Mg190 2.028 . S
O191 C194 1.250 . S
O192 Mg193 2.028 . S
O192 C194 1.248 . S
Mg193 O192 2.028 . S
Mg193 O198 2.032 . S
Mg193 O200 2.079 . S
C194 O191 1.250 . S
C194 O192 1.248 . S
C195 O196 1.264 . S
C195 O203 1.249 . S
O196 C195 1.264 . S
O197 Mg190 1.986 . S
O197 C201 1.246 . S
O198 Mg193 2.032 . S
O198 C201 1.259 . S
O199 Mg190 2.114 . S
O199 C202 1.252 . S
O200 Mg190 2.251 . S
O200 Mg193 2.079 . S
O200 C202 1.273 . S
C201 O197 1.246 . S
C201 O198 1.259 . S
C202 O199 1.252 . S
C202 O200 1.273 . S
O203 Mg190 2.010 . S
O203 C195 1.249 . S
Mg204 O205 2.029 1_554 S
Mg204 O211 1.986 1_554 S
Mg204 O213 2.114 . S
Mg204 O214 2.251 . S
Mg204 O217 2.010 . S
O205 Mg204 2.029 1_556 S
O205 C208 1.252 . S
O206 Mg207 2.028 . S
O206 C208 1.248 . S
Mg207 O206 2.028 . S
Mg207 O212 2.032 . S
Mg207 O214 2.079 1_556 S
C208 O205 1.252 . S
C208 O206 1.248 . S
C209 O210 1.264 . S
C209 O217 1.249 . S
O210 C209 1.264 . S
O211 Mg204 1.986 1_556 S
O211 C215 1.246 . S
O212 Mg207 2.032 . S
O212 C215 1.259 . S
O213 Mg204 2.114 . S
O213 C216 1.252 . S
O214 Mg204 2.251 . S
O214 Mg207 2.079 1_554 S
O214 C216 1.273 . S
C215 O211 1.246 . S
C215 O212 1.259 . S
C216 O213 1.252 . S
C216 O214 1.273 . S
O217 Mg204 2.010 . S
O217 C209 1.249 . S
Mg218 O219 2.028 . S
Mg218 O225 1.986 . S
Mg218 O227 2.114 . S
Mg218 O228 2.251 . S
Mg218 O231 2.010 . S
O219 Mg218 2.028 . S
O219 C222 1.250 1_545 S
O220 Mg221 2.028 . S
O220 C222 1.248 . S
Mg221 O220 2.028 . S
Mg221 O226 2.032 1_565 S
Mg221 O228 2.079 1_565 S
C222 O219 1.250 1_565 S
C222 O220 1.248 . S
C223 O224 1.264 . S
C223 O231 1.249 . S
O224 C223 1.264 . S
O225 Mg218 1.986 . S
O225 C229 1.246 . S
O226 Mg221 2.032 1_545 S
O226 C229 1.259 . S
O227 Mg218 2.114 . S
O227 C230 1.252 . S
O228 Mg218 2.251 . S
O228 Mg221 2.079 1_545 S
O228 C230 1.273 . S
C229 O225 1.246 . S
C229 O226 1.259 . S
C230 O227 1.252 . S
C230 O228 1.273 . S
O231 Mg218 2.010 . S
O231 C223 1.249 . S
Mg232 O233 2.028 . S
Mg232 O239 1.986 . S
Mg232 O241 2.114 . S
Mg232 O242 2.251 . S
Mg232 O245 2.010 . S
O233 Mg232 2.028 . S
O233 C236 1.250 . S
O234 Mg235 2.028 . S
O234 C236 1.248 . S
Mg235 O234 2.028 . S
Mg235 O240 2.032 . S
Mg235 O242 2.079 . S
C236 O233 1.250 . S
C236 O234 1.248 . S
C237 O238 1.264 . S
C237 O245 1.249 . S
O238 C237 1.264 . S
O239 Mg232 1.986 . S
O239 C243 1.246 . S
O240 Mg235 2.032 . S
O240 C243 1.259 . S
O241 Mg232 2.114 . S
O241 C244 1.252 . S
O242 Mg232 2.251 . S
O242 Mg235 2.079 . S
O242 C244 1.273 . S
C243 O239 1.246 . S
C243 O240 1.259 . S
C244 O241 1.252 . S
C244 O242 1.273 . S
O245 Mg232 2.010 . S
O245 C237 1.249 . S
Mg246 O247 2.028 . S
Mg246 O253 1.986 . S
Mg246 O255 2.114 . S
Mg246 O256 2.251 . S
Mg246 O259 2.010 . S
O247 Mg246 2.028 . S
O247 C250 1.250 . S
O248 Mg249 2.028 . S
O248 C250 1.248 . S
Mg249 O248 2.028 . S
Mg249 O254 2.032 . S
Mg249 O256 2.079 . S
C250 O247 1.250 . S
C250 O248 1.248 . S
C251 O252 1.264 . S
C251 O259 1.249 . S
O252 C251 1.264 . S
O253 Mg246 1.986 . S
O253 C257 1.246 . S
O254 Mg249 2.032 . S
O254 C257 1.259 . S
O255 Mg246 2.114 . S
O255 C258 1.252 . S
O256 Mg246 2.251 . S
O256 Mg249 2.079 . S
O256 C258 1.273 . S
C257 O253 1.246 . S
C257 O254 1.259 . S
C258 O255 1.252 . S
C258 O256 1.273 . S
O259 Mg246 2.010 . S
O259 C251 1.249 . S
Mg260 O261 2.028 . S
Mg260 O267 1.986 . S
Mg260 O269 2.114 . S
Mg260 O270 2.251 . S
Mg260 O273 2.010 . S
O261 Mg260 2.028 . S
O261 C264 1.250 . S
O262 Mg263 2.028 . S
O262 C264 1.248 . S
Mg263 O262 2.028 . S
Mg263 O268 2.032 . S
Mg263 O270 2.079 . S
C264 O261 1.250 . S
C264 O262 1.248 . S
C265 O266 1.264 . S
C265 O273 1.249 . S
O266 C265 1.264 . S
O267 Mg260 1.986 . S
O267 C271 1.246 . S
O268 Mg263 2.032 . S
O268 C271 1.259 . S
O269 Mg260 2.114 . S
O269 C272 1.252 . S
O270 Mg260 2.251 . S
O270 Mg263 2.079 . S
O270 C272 1.273 . S
C271 O267 1.246 . S
C271 O268 1.259 . S
C272 O269 1.252 . S
C272 O270 1.273 . S
O273 Mg260 2.010 . S
O273 C265 1.249 . S
Mg274 O275 2.028 1_545 S
Mg274 O281 1.986 1_545 S
Mg274 O283 2.114 . S
Mg274 O284 2.251 . S
Mg274 O287 2.010 . S
O275 Mg274 2.028 1_565 S
O275 C278 1.250 . S
O276 Mg277 2.028 . S
O276 C278 1.248 . S
Mg277 O276 2.028 . S
Mg277 O282 2.032 . S
Mg277 O284 2.079 1_565 S
C278 O275 1.250 . S
C278 O276 1.248 . S
C279 O280 1.264 . S
C279 O287 1.249 . S
O280 C279 1.264 . S
O281 Mg274 1.986 1_565 S
O281 C285 1.246 . S
O282 Mg277 2.032 . S
O282 C285 1.259 . S
O283 Mg274 2.114 . S
O283 C286 1.252 . S
O284 Mg274 2.251 . S
O284 Mg277 2.079 1_545 S
O284 C286 1.273 . S
C285 O281 1.246 . S
C285 O282 1.259 . S
C286 O283 1.252 . S
C286 O284 1.273 . S
O287 Mg274 2.010 . S
O287 C279 1.249 . S
Mg288 O289 2.028 . S
Mg288 O295 1.986 . S
Mg288 O297 2.114 . S
Mg288 O298 2.251 . S
Mg288 O301 2.010 . S
O289 Mg288 2.028 . S
O289 C292 1.250 1_455 S
O290 Mg291 2.028 . S
O290 C292 1.248 . S
Mg291 O290 2.028 . S
Mg291 O296 2.032 . S
Mg291 O298 2.079 1_655 S
C292 O289 1.250 1_655 S
C292 O290 1.248 . S
C293 O294 1.264 . S
C293 O301 1.249 . S
O294 C293 1.264 . S
O295 Mg288 1.986 . S
O295 C299 1.246 . S
O296 Mg291 2.032 . S
O296 C299 1.259 1_655 S
O297 Mg288 2.114 . S
O297 C300 1.252 . S
O298 Mg288 2.251 . S
O298 Mg291 2.079 1_455 S
O298 C300 1.273 . S
C299 O295 1.246 . S
C299 O296 1.259 1_455 S
C300 O297 1.252 . S
C300 O298 1.273 . S
O301 Mg288 2.010 . S
O301 C293 1.249 . S
Mg302 O303 2.028 . S
Mg302 O309 1.986 . S
Mg302 O311 2.114 . S
Mg302 O312 2.251 . S
Mg302 O315 2.010 . S
O303 Mg302 2.028 . S
O303 C306 1.250 . S
O304 Mg305 2.028 . S
O304 C306 1.248 . S
Mg305 O304 2.028 . S
Mg305 O310 2.032 . S
Mg305 O312 2.079 . S
C306 O303 1.250 . S
C306 O304 1.248 . S
C307 O308 1.264 . S
C307 O315 1.249 . S
O308 C307 1.264 . S
O309 Mg302 1.986 . S
O309 C313 1.246 . S
O310 Mg305 2.032 . S
O310 C313 1.259 . S
O311 Mg302 2.114 . S
O311 C314 1.252 . S
O312 Mg302 2.251 . S
O312 Mg305 2.079 . S
O312 C314 1.273 . S
C313 O309 1.246 . S
C313 O310 1.259 . S
C314 O311 1.252 . S
C314 O312 1.273 . S
O315 Mg302 2.010 . S
O315 C307 1.249 . S
Mg316 O317 2.028 1_655 S
Mg316 O323 1.986 1_655 S
Mg316 O325 2.114 . S
Mg316 O326 2.251 1_655 S
Mg316 O329 2.010 . S
O317 Mg316 2.028 1_455 S
O317 C320 1.250 . S
O318 Mg319 2.028 . S
O318 C320 1.248 . S
Mg319 O318 2.028 . S
Mg319 O324 2.032 . S
Mg319 O326 2.079 . S
C320 O317 1.250 . S
C320 O318 1.248 . S
C321 O322 1.264 . S
C321 O329 1.249 . S
O322 C321 1.264 . S
O323 Mg316 1.986 1_455 S
O323 C327 1.246 . S
O324 Mg319 2.032 . S
O324 C327 1.259 . S
O325 Mg316 2.114 . S
O325 C328 1.252 . S
O326 Mg316 2.251 1_455 S
O326 Mg319 2.079 . S
O326 C328 1.273 1_455 S
C327 O323 1.246 . S
C327 O324 1.259 . S
C328 O325 1.252 . S
C328 O326 1.273 1_655 S
O329 Mg316 2.010 . S
O329 C321 1.249 . S
Mg330 O331 2.028 . S
Mg330 O337 1.986 . S
Mg330 O339 2.114 . S
Mg330 O340 2.251 . S
Mg330 O343 2.010 . S
O331 Mg330 2.028 . S
O331 C334 1.250 . S
O332 Mg333 2.028 . S
O332 C334 1.248 . S
Mg333 O332 2.028 . S
Mg333 O338 2.032 . S
Mg333 O340 2.079 . S
C334 O331 1.250 . S
C334 O332 1.248 . S
C335 O336 1.264 . S
C335 O343 1.249 . S
O336 C335 1.264 . S
O337 Mg330 1.986 . S
O337 C341 1.246 . S
O338 Mg333 2.032 . S
O338 C341 1.259 . S
O339 Mg330 2.114 . S
O339 C342 1.252 . S
O340 Mg330 2.251 . S
O340 Mg333 2.079 . S
O340 C342 1.273 . S
C341 O337 1.246 . S
C341 O338 1.259 . S
C342 O339 1.252 . S
C342 O340 1.273 . S
O343 Mg330 2.010 . S
O343 C335 1.249 . S
H344 C356 0.930 . S
H345 C358 0.930 . S
H346 C359 0.930 . S
H347 C363 0.959 . S
H348 C363 0.959 . S
H349 C363 0.961 . S
H350 C364 0.960 . S
H351 C364 0.961 . S
H352 C364 0.959 . S
H353 C367 0.929 . S
H354 C368 0.931 . S
H355 C370 0.930 . S
C356 H344 0.930 . S
C356 C357 1.399 . S
C356 C361 1.399 . S
C357 C356 1.399 . S
C357 C358 1.376 . S
C358 H345 0.930 . S
C358 C357 1.376 . S
C358 C359 1.388 . S
C359 H346 0.930 . S
C359 C358 1.388 . S
C359 C360 1.390 . S
C360 C359 1.390 . S
C360 C361 1.394 . S
C360 C366 1.465 . S
C361 C356 1.399 . S
C361 C360 1.394 . S
C361 C362 1.516 . S
C362 C361 1.516 . S
C362 C363 1.502 . S
C362 C364 1.561 . S
C362 C365 1.526 . S
C363 H347 0.959 . S
C363 H348 0.959 . S
C363 H349 0.961 . S
C363 C362 1.502 . S
C364 H350 0.960 . S
C364 H351 0.961 . S
C364 H352 0.959 . S
C364 C362 1.561 . S
C365 C362 1.526 . S
C365 C366 1.396 . S
C365 C370 1.390 . S
C366 C360 1.465 . S
C366 C365 1.396 . S
C366 C367 1.399 . S
C367 H353 0.929 . S
C367 C366 1.399 . S
C367 C368 1.385 . S
C368 H354 0.931 . S
C368 C367 1.385 . S
C368 C369 1.389 . S
C369 C368 1.389 . S
C369 C370 1.387 . S
C370 H355 0.930 . S
C370 C365 1.390 . S
C370 C369 1.387 . S
H371 C383 0.930 . S
H372 C385 0.930 . S
H373 C386 0.930 . S
H374 C390 0.959 . S
H375 C390 0.959 . S
H376 C390 0.961 . S
H377 C391 0.960 . S
H378 C391 0.961 . S
H379 C391 0.959 . S
H380 C394 0.929 . S
H381 C395 0.931 . S
H382 C397 0.930 . S
C383 H371 0.930 . S
C383 C384 1.399 . S
C383 C388 1.399 . S
C384 C383 1.399 . S
C384 C385 1.376 . S
C385 H372 0.930 . S
C385 C384 1.376 . S
C385 C386 1.388 . S
C386 H373 0.930 . S
C386 C385 1.388 . S
C386 C387 1.390 . S
C387 C386 1.390 . S
C387 C388 1.394 . S
C387 C393 1.465 . S
C388 C383 1.399 . S
C388 C387 1.394 . S
C388 C389 1.516 . S
C389 C388 1.516 . S
C389 C390 1.502 . S
C389 C391 1.561 . S
C389 C392 1.526 . S
C390 H374 0.959 . S
C390 H375 0.959 . S
C390 H376 0.961 . S
C390 C389 1.502 . S
C391 H377 0.960 . S
C391 H378 0.961 . S
C391 H379 0.959 . S
C391 C389 1.561 . S
C392 C389 1.526 . S
C392 C393 1.396 . S
C392 C397 1.390 . S
C393 C387 1.465 . S
C393 C392 1.396 . S
C393 C394 1.399 . S
C394 H380 0.929 . S
C394 C393 1.399 . S
C394 C395 1.385 . S
C395 H381 0.931 . S
C395 C394 1.385 . S
C395 C396 1.389 . S
C396 C395 1.389 . S
C396 C397 1.387 . S
C397 H382 0.930 . S
C397 C392 1.390 . S
C397 C396 1.387 . S
H398 C410 0.930 . S
H399 C412 0.930 . S
H400 C413 0.930 . S
H401 C417 0.959 . S
H402 C417 0.959 . S
H403 C417 0.961 . S
H404 C418 0.960 . S
H405 C418 0.961 . S
H406 C418 0.959 . S
H407 C421 0.929 . S
H408 C422 0.931 . S
H409 C424 0.930 . S
C410 H398 0.930 . S
C410 C411 1.399 . S
C410 C415 1.399 . S
C411 C410 1.399 . S
C411 C412 1.376 . S
C412 H399 0.930 . S
C412 C411 1.376 . S
C412 C413 1.388 . S
C413 H400 0.930 . S
C413 C412 1.388 . S
C413 C414 1.390 . S
C414 C413 1.390 . S
C414 C415 1.394 . S
C414 C420 1.465 . S
C415 C410 1.399 . S
C415 C414 1.394 . S
C415 C416 1.516 . S
C416 C415 1.516 . S
C416 C417 1.502 . S
C416 C418 1.561 . S
C416 C419 1.526 . S
C417 H401 0.959 . S
C417 H402 0.959 . S
C417 H403 0.961 . S
C417 C416 1.502 . S
C418 H404 0.960 . S
C418 H405 0.961 . S
C418 H406 0.959 . S
C418 C416 1.561 . S
C419 C416 1.526 . S
C419 C420 1.396 . S
C419 C424 1.390 . S
C420 C414 1.465 . S
C420 C419 1.396 . S
C420 C421 1.399 . S
C421 H407 0.929 . S
C421 C420 1.399 . S
C421 C422 1.385 . S
C422 H408 0.931 . S
C422 C421 1.385 . S
C422 C423 1.389 . S
C423 C422 1.389 . S
C423 C424 1.387 . S
C424 H409 0.930 . S
C424 C419 1.390 . S
C424 C423 1.387 . S
H425 C437 0.930 . S
H426 C439 0.930 . S
H427 C440 0.930 . S
H428 C444 0.959 . S
H429 C444 0.959 . S
H430 C444 0.961 . S
H431 C445 0.960 . S
H432 C445 0.961 . S
H433 C445 0.959 . S
H434 C448 0.929 . S
H435 C449 0.931 . S
H436 C451 0.930 . S
C437 H425 0.930 . S
C437 C438 1.399 . S
C437 C442 1.399 . S
C438 C437 1.399 . S
C438 C439 1.376 1_565 S
C439 H426 0.930 . S
C439 C438 1.376 1_545 S
C439 C440 1.388 . S
C440 H427 0.930 . S
C440 C439 1.388 . S
C440 C441 1.390 . S
C441 C440 1.390 . S
C441 C442 1.394 1_545 S
C441 C447 1.465 . S
C442 C437 1.399 . S
C442 C441 1.394 1_565 S
C442 C443 1.516 1_455 S
C443 C442 1.516 1_655 S
C443 C444 1.502 . S
C443 C445 1.561 1_565 S
C443 C446 1.526 1_565 S
C444 H428 0.959 . S
C444 H429 0.959 . S
C444 H430 0.961 . S
C444 C443 1.502 . S
C445 H431 0.960 . S
C445 H432 0.961 . S
C445 H433 0.959 . S
C445 C443 1.561 1_545 S
C446 C443 1.526 1_545 S
C446 C447 1.396 1_655 S
C446 C451 1.390 . S
C447 C441 1.465 . S
C447 C446 1.396 1_455 S
C447 C448 1.399 . S
C448 H434 0.929 . S
C448 C447 1.399 . S
C448 C449 1.385 . S
C449 H435 0.931 . S
C449 C448 1.385 . S
C449 C450 1.389 1_455 S
C450 C449 1.389 1_655 S
C450 C451 1.387 . S
C451 H436 0.930 . S
C451 C446 1.390 . S
C451 C450 1.387 . S
H452 C464 0.930 . S
H453 C466 0.930 . S
H454 C467 0.930 . S
H455 C471 0.959 . S
H456 C471 0.959 . S
H457 C471 0.961 . S
H458 C472 0.960 . S
H459 C472 0.961 . S
H460 C472 0.959 . S
H461 C475 0.929 . S
H462 C476 0.931 . S
H463 C478 0.930 . S
C464 H452 0.930 . S
C464 C465 1.399 . S
C464 C469 1.399 . S
C465 C464 1.399 . S
C465 C466 1.376 . S
C466 H453 0.930 . S
C466 C465 1.376 . S
C466 C467 1.388 . S
C467 H454 0.930 . S
C467 C466 1.388 . S
C467 C468 1.390 . S
C468 C467 1.390 . S
C468 C469 1.394 . S
C468 C474 1.465 . S
C469 C464 1.399 . S
C469 C468 1.394 . S
C469 C470 1.516 . S
C470 C469 1.516 . S
C470 C471 1.502 . S
C470 C472 1.561 . S
C470 C473 1.526 . S
C471 H455 0.959 . S
C471 H456 0.959 . S
C471 H457 0.961 . S
C471 C470 1.502 . S
C472 H458 0.960 . S
C472 H459 0.961 . S
C472 H460 0.959 . S
C472 C470 1.561 . S
C473 C470 1.526 . S
C473 C474 1.396 . S
C473 C478 1.390 . S
C474 C468 1.465 . S
C474 C473 1.396 . S
C474 C475 1.399 . S
C475 H461 0.929 . S
C475 C474 1.399 . S
C475 C476 1.385 . S
C476 H462 0.931 . S
C476 C475 1.385 . S
C476 C477 1.389 . S
C477 C476 1.389 . S
C477 C478 1.387 . S
C478 H463 0.930 . S
C478 C473 1.390 . S
C478 C477 1.387 . S
H479 C491 0.930 . S
H480 C493 0.930 . S
H481 C494 0.930 . S
H482 C498 0.959 . S
H483 C498 0.959 . S
H484 C498 0.961 . S
H485 C499 0.960 . S
H486 C499 0.961 . S
H487 C499 0.959 . S
H488 C502 0.929 . S
H489 C503 0.931 . S
H490 C505 0.930 . S
C491 H479 0.930 . S
C491 C492 1.399 . S
C491 C496 1.399 . S
C492 C491 1.399 . S
C492 C493 1.376 . S
C493 H480 0.930 . S
C493 C492 1.376 . S
C493 C494 1.388 . S
C494 H481 0.930 . S
C494 C493 1.388 . S
C494 C495 1.390 . S
C495 C494 1.390 . S
C495 C496 1.394 . S
C495 C501 1.465 . S
C496 C491 1.399 . S
C496 C495 1.394 . S
C496 C497 1.516 . S
C497 C496 1.516 . S
C497 C498 1.502 . S
C497 C499 1.561 . S
C497 C500 1.526 . S
C498 H482 0.959 . S
C498 H483 0.959 . S
C498 H484 0.961 . S
C498 C497 1.502 . S
C499 H485 0.960 . S
C499 H486 0.961 . S
C499 H487 0.959 . S
C499 C497 1.561 . S
C500 C497 1.526 . S
C500 C501 1.396 . S
C500 C505 1.390 . S
C501 C495 1.465 . S
C501 C500 1.396 . S
C501 C502 1.399 . S
C502 H488 0.929 . S
C502 C501 1.399 . S
C502 C503 1.385 . S
C503 H489 0.931 . S
C503 C502 1.385 . S
C503 C504 1.389 . S
C504 C503 1.389 . S
C504 C505 1.387 . S
C505 H490 0.930 . S
C505 C500 1.390 . S
C505 C504 1.387 . S
H506 C518 0.930 . S
H507 C520 0.930 . S
H508 C521 0.930 . S
H509 C525 0.959 . S
H510 C525 0.959 . S
H511 C525 0.961 . S
H512 C526 0.960 . S
H513 C526 0.961 . S
H514 C526 0.959 . S
H515 C529 0.929 . S
H516 C530 0.931 . S
H517 C532 0.930 . S
C518 H506 0.930 . S
C518 C519 1.399 . S
C518 C523 1.399 . S
C519 C518 1.399 . S
C519 C520 1.376 . S
C520 H507 0.930 . S
C520 C519 1.376 . S
C520 C521 1.388 . S
C521 H508 0.930 . S
C521 C520 1.388 . S
C521 C522 1.390 . S
C522 C521 1.390 . S
C522 C523 1.394 . S
C522 C528 1.465 . S
C523 C518 1.399 . S
C523 C522 1.394 . S
C523 C524 1.516 . S
C524 C523 1.516 . S
C524 C525 1.502 . S
C524 C526 1.561 . S
C524 C527 1.526 . S
C525 H509 0.959 . S
C525 H510 0.959 . S
C525 H511 0.961 . S
C525 C524 1.502 . S
C526 H512 0.960 . S
C526 H513 0.961 . S
C526 H514 0.959 . S
C526 C524 1.561 . S
C527 C524 1.526 . S
C527 C528 1.396 . S
C527 C532 1.390 . S
C528 C522 1.465 . S
C528 C527 1.396 . S
C528 C529 1.399 . S
C529 H515 0.929 . S
C529 C528 1.399 . S
C529 C530 1.385 . S
C530 H516 0.931 . S
C530 C529 1.385 . S
C530 C531 1.389 . S
C531 C530 1.389 . S
C531 C532 1.387 . S
C532 H517 0.930 . S
C532 C527 1.390 . S
C532 C531 1.387 . S
H533 C545 0.930 . S
H534 C547 0.930 . S
H535 C548 0.930 . S
H536 C552 0.959 . S
H537 C552 0.959 . S
H538 C552 0.961 . S
H539 C553 0.960 . S
H540 C553 0.961 . S
H541 C553 0.959 . S
H542 C556 0.929 . S
H543 C557 0.931 . S
H544 C559 0.930 . S
C545 H533 0.930 . S
C545 C546 1.399 . S
C545 C550 1.399 . S
C546 C545 1.399 . S
C546 C547 1.376 1_565 S
C547 H534 0.930 . S
C547 C546 1.376 1_545 S
C547 C548 1.388 . S
C548 H535 0.930 . S
C548 C547 1.388 . S
C548 C549 1.390 1_545 S
C549 C548 1.390 1_565 S
C549 C550 1.394 . S
C549 C555 1.463 . S
C550 C545 1.399 . S
C550 C549 1.394 . S
C550 C551 1.516 . S
C551 C550 1.516 . S
C551 C552 1.502 . S
C551 C553 1.561 . S
C551 C554 1.526 . S
C552 H536 0.959 . S
C552 H537 0.959 . S
C552 H538 0.961 . S
C552 C551 1.502 . S
C553 H539 0.960 . S
C553 H540 0.961 . S
C553 H541 0.959 . S
C553 C551 1.561 . S
C554 C551 1.526 . S
C554 C555 1.408 . S
C554 C559 1.390 . S
C555 C549 1.463 . S
C555 C554 1.408 . S
C555 C556 1.391 1_565 S
C556 H542 0.929 . S
C556 C555 1.391 1_545 S
C556 C557 1.385 . S
C557 H543 0.931 . S
C557 C556 1.385 . S
C557 C558 1.389 1_545 S
C558 C557 1.389 1_565 S
C558 C559 1.387 . S
C559 H544 0.930 . S
C559 C554 1.390 . S
C559 C558 1.387 . S
H560 C572 0.930 . S
H561 C574 0.930 . S
H562 C575 0.930 . S
H563 C579 0.959 . S
H564 C579 0.959 . S
H565 C579 0.961 . S
H566 C580 0.960 . S
H567 C580 0.961 . S
H568 C580 0.959 . S
H569 C583 0.929 . S
H570 C584 0.931 . S
H571 C586 0.930 . S
C572 H560 0.930 . S
C572 C573 1.399 . S
C572 C577 1.399 . S
C573 C572 1.399 . S
C573 C574 1.376 . S
C574 H561 0.930 . S
C574 C573 1.376 . S
C574 C575 1.388 . S
C575 H562 0.930 . S
C575 C574 1.388 . S
C575 C576 1.390 . S
C576 C575 1.390 . S
C576 C577 1.394 . S
C576 C582 1.465 . S
C577 C572 1.399 . S
C577 C576 1.394 . S
C577 C578 1.516 . S
C578 C577 1.516 . S
C578 C579 1.502 . S
C578 C580 1.561 . S
C578 C581 1.526 . S
C579 H563 0.959 . S
C579 H564 0.959 . S
C579 H565 0.961 . S
C579 C578 1.502 . S
C580 H566 0.960 . S
C580 H567 0.961 . S
C580 H568 0.959 . S
C580 C578 1.561 . S
C581 C578 1.526 . S
C581 C582 1.396 . S
C581 C586 1.390 . S
C582 C576 1.465 . S
C582 C581 1.396 . S
C582 C583 1.399 . S
C583 H569 0.929 . S
C583 C582 1.399 . S
C583 C584 1.385 . S
C584 H570 0.931 . S
C584 C583 1.385 . S
C584 C585 1.389 . S
C585 C584 1.389 . S
C585 C586 1.387 . S
C586 H571 0.930 . S
C586 C581 1.390 . S
C586 C585 1.387 . S
H587 C599 0.930 . S
H588 C601 0.930 . S
H589 C602 0.930 . S
H590 C606 0.959 . S
H591 C606 0.959 . S
H592 C606 0.961 . S
H593 C607 0.960 . S
H594 C607 0.961 . S
H595 C607 0.959 . S
H596 C610 0.929 . S
H597 C611 0.931 . S
H598 C613 0.930 . S
C599 H587 0.930 . S
C599 C600 1.399 . S
C599 C604 1.399 . S
C600 C599 1.399 . S
C600 C601 1.376 . S
C601 H588 0.930 . S
C601 C600 1.376 . S
C601 C602 1.388 . S
C602 H589 0.930 . S
C602 C601 1.388 . S
C602 C603 1.390 . S
C603 C602 1.390 . S
C603 C604 1.394 . S
C603 C609 1.465 . S
C604 C599 1.399 . S
C604 C603 1.394 . S
C604 C605 1.516 . S
C605 C604 1.516 . S
C605 C606 1.502 . S
C605 C607 1.561 . S
C605 C608 1.526 . S
C606 H590 0.959 . S
C606 H591 0.959 . S
C606 H592 0.961 . S
C606 C605 1.502 . S
C607 H593 0.960 . S
C607 H594 0.961 . S
C607 H595 0.959 . S
C607 C605 1.561 . S
C608 C605 1.526 . S
C608 C609 1.396 . S
C608 C613 1.390 . S
C609 C603 1.465 . S
C609 C608 1.396 . S
C609 C610 1.399 . S
C610 H596 0.929 . S
C610 C609 1.399 . S
C610 C611 1.385 . S
C611 H597 0.931 . S
C611 C610 1.385 . S
C611 C612 1.389 . S
C612 C611 1.389 . S
C612 C613 1.387 . S
C613 H598 0.930 . S
C613 C608 1.390 . S
C613 C612 1.387 . S
H614 C626 0.930 . S
H615 C628 0.930 . S
H616 C629 0.930 . S
H617 C633 0.959 . S
H618 C633 0.959 . S
H619 C633 0.961 . S
H620 C634 0.960 . S
H621 C634 0.961 . S
H622 C634 0.959 . S
H623 C637 0.929 . S
H624 C638 0.931 . S
H625 C640 0.930 . S
C626 H614 0.930 . S
C626 C627 1.399 . S
C626 C631 1.399 . S
C627 C626 1.399 . S
C627 C628 1.376 . S
C628 H615 0.930 . S
C628 C627 1.376 . S
C628 C629 1.388 . S
C629 H616 0.930 . S
C629 C628 1.388 . S
C629 C630 1.390 . S
C630 C629 1.390 . S
C630 C631 1.394 . S
C630 C636 1.465 . S
C631 C626 1.399 . S
C631 C630 1.394 . S
C631 C632 1.516 . S
C632 C631 1.516 . S
C632 C633 1.502 . S
C632 C634 1.561 . S
C632 C635 1.526 . S
C633 H617 0.959 . S
C633 H618 0.959 . S
C633 H619 0.961 . S
C633 C632 1.502 . S
C634 H620 0.960 . S
C634 H621 0.961 . S
C634 H622 0.959 . S
C634 C632 1.561 . S
C635 C632 1.526 . S
C635 C636 1.396 . S
C635 C640 1.390 . S
C636 C630 1.465 . S
C636 C635 1.396 . S
C636 C637 1.399 . S
C637 H623 0.929 . S
C637 C636 1.399 . S
C637 C638 1.385 . S
C638 H624 0.931 . S
C638 C637 1.385 . S
C638 C639 1.389 . S
C639 C638 1.389 . S
C639 C640 1.387 . S
C640 H625 0.930 . S
C640 C635 1.390 . S
C640 C639 1.387 . S
H641 C653 0.930 . S
H642 C655 0.930 . S
H643 C656 0.930 . S
H644 C660 0.959 . S
H645 C660 0.959 . S
H646 C660 0.961 . S
H647 C661 0.960 . S
H648 C661 0.961 . S
H649 C661 0.959 . S
H650 C664 0.929 . S
H651 C665 0.931 . S
H652 C667 0.930 . S
C653 H641 0.930 . S
C653 C654 1.399 . S
C653 C658 1.399 . S
C654 C653 1.399 . S
C654 C655 1.376 . S
C655 H642 0.930 . S
C655 C654 1.376 . S
C655 C656 1.388 . S
C656 H643 0.930 . S
C656 C655 1.388 . S
C656 C657 1.390 . S
C657 C656 1.390 . S
C657 C658 1.394 . S
C657 C663 1.465 . S
C658 C653 1.399 . S
C658 C657 1.394 . S
C658 C659 1.516 . S
C659 C658 1.516 . S
C659 C660 1.502 . S
C659 C661 1.561 . S
C659 C662 1.526 . S
C660 H644 0.959 . S
C660 H645 0.959 . S
C660 H646 0.961 . S
C660 C659 1.502 . S
C661 H647 0.960 . S
C661 H648 0.961 . S
C661 H649 0.959 . S
C661 C659 1.561 . S
C662 C659 1.526 . S
C662 C663 1.396 . S
C662 C667 1.390 . S
C663 C657 1.465 . S
C663 C662 1.396 . S
C663 C664 1.399 . S
C664 H650 0.929 . S
C664 C663 1.399 . S
C664 C665 1.385 . S
C665 H651 0.931 . S
C665 C664 1.385 . S
C665 C666 1.389 . S
C666 C665 1.389 . S
C666 C667 1.387 . S
C667 H652 0.930 . S
C667 C662 1.390 . S
C667 C666 1.387 . S
H668 C680 0.930 . S
H669 C682 0.930 . S
H670 C683 0.930 . S
H671 C687 0.959 . S
H672 C687 0.959 . S
H673 C687 0.961 . S
H674 C688 0.960 . S
H675 C688 0.961 . S
H676 C688 0.959 . S
H677 C691 0.929 . S
H678 C692 0.931 . S
H679 C694 0.930 . S
C680 H668 0.930 . S
C680 C681 1.399 . S
C680 C685 1.399 . S
C681 C680 1.399 . S
C681 C682 1.376 . S
C682 H669 0.930 . S
C682 C681 1.376 . S
C682 C683 1.388 . S
C683 H670 0.930 . S
C683 C682 1.388 . S
C683 C684 1.390 . S
C684 C683 1.390 . S
C684 C685 1.394 . S
C684 C690 1.465 . S
C685 C680 1.399 . S
C685 C684 1.394 . S
C685 C686 1.516 . S
C686 C685 1.516 . S
C686 C687 1.502 . S
C686 C688 1.561 . S
C686 C689 1.526 . S
C687 H671 0.959 . S
C687 H672 0.959 . S
C687 H673 0.961 . S
C687 C686 1.502 . S
C688 H674 0.960 . S
C688 H675 0.961 . S
C688 H676 0.959 . S
C688 C686 1.561 . S
C689 C686 1.526 . S
C689 C690 1.396 . S
C689 C694 1.390 . S
C690 C684 1.465 . S
C690 C689 1.396 . S
C690 C691 1.399 . S
C691 H677 0.929 . S
C691 C690 1.399 . S
C691 C692 1.385 . S
C692 H678 0.931 . S
C692 C691 1.385 . S
C692 C693 1.389 . S
C693 C692 1.389 . S
C693 C694 1.387 . S
C694 H679 0.930 . S
C694 C689 1.390 . S
C694 C693 1.387 . S
H695 C707 0.930 . S
H696 C709 0.930 . S
H697 C710 0.930 . S
H698 C714 0.959 . S
H699 C714 0.959 . S
H700 C714 0.961 . S
H701 C715 0.960 . S
H702 C715 0.961 . S
H703 C715 0.959 . S
H704 C718 0.929 1_655 S
H705 C719 0.931 1_655 S
H706 C721 0.930 . S
C707 H695 0.930 . S
C707 C708 1.399 . S
C707 C712 1.399 . S
C708 C707 1.399 . S
C708 C709 1.376 . S
C709 H696 0.930 . S
C709 C708 1.376 . S
C709 C710 1.388 . S
C710 H697 0.930 . S
C710 C709 1.388 . S
C710 C711 1.390 . S
C711 C710 1.390 . S
C711 C712 1.394 . S
C711 C717 1.465 . S
C712 C707 1.399 . S
C712 C711 1.394 . S
C712 C713 1.516 . S
C713 C712 1.516 . S
C713 C714 1.502 . S
C713 C715 1.561 . S
C713 C716 1.526 . S
C714 H698 0.959 . S
C714 H699 0.959 . S
C714 H700 0.961 . S
C714 C713 1.502 . S
C715 H701 0.960 . S
C715 H702 0.961 . S
C715 H703 0.959 . S
C715 C713 1.561 . S
C716 C713 1.526 . S
C716 C717 1.396 . S
C716 C721 1.390 . S
C717 C711 1.465 . S
C717 C716 1.396 . S
C717 C718 1.399 . S
C718 H704 0.929 1_455 S
C718 C717 1.399 . S
C718 C719 1.385 . S
C719 H705 0.931 1_455 S
C719 C718 1.385 . S
C719 C720 1.389 . S
C720 C719 1.389 . S
C720 C721 1.387 . S
C721 H706 0.930 . S
C721 C716 1.390 . S
C721 C720 1.387 . S
H722 C734 0.930 . S
H723 C736 0.930 . S
H724 C737 0.930 . S
H725 C741 0.959 . S
H726 C741 0.959 . S
H727 C741 0.961 . S
H728 C742 0.960 . S
H729 C742 0.961 . S
H730 C742 0.959 . S
H731 C745 0.929 . S
H732 C746 0.931 . S
H733 C748 0.930 . S
C734 H722 0.930 . S
C734 C735 1.399 . S
C734 C739 1.399 . S
C735 C734 1.399 . S
C735 C736 1.376 . S
C736 H723 0.930 . S
C736 C735 1.376 . S
C736 C737 1.388 . S
C737 H724 0.930 . S
C737 C736 1.388 . S
C737 C738 1.390 . S
C738 C737 1.390 . S
C738 C739 1.394 . S
C738 C744 1.465 . S
C739 C734 1.399 . S
C739 C738 1.394 . S
C739 C740 1.516 . S
C740 C739 1.516 . S
C740 C741 1.502 . S
C740 C742 1.561 . S
C740 C743 1.526 . S
C741 H725 0.959 . S
C741 H726 0.959 . S
C741 H727 0.961 . S
C741 C740 1.502 . S
C742 H728 0.960 . S
C742 H729 0.961 . S
C742 H730 0.959 . S
C742 C740 1.561 . S
C743 C740 1.526 . S
C743 C744 1.396 . S
C743 C748 1.390 . S
C744 C738 1.465 . S
C744 C743 1.396 . S
C744 C745 1.399 . S
C745 H731 0.929 . S
C745 C744 1.399 . S
C745 C746 1.385 . S
C746 H732 0.931 . S
C746 C745 1.385 . S
C746 C747 1.389 . S
C747 C746 1.389 . S
C747 C748 1.387 . S
C748 H733 0.930 . S
C748 C743 1.390 . S
C748 C747 1.387 . S
H749 C761 0.930 1_455 S
H750 C763 0.930 . S
H751 C764 0.930 . S
H752 C768 0.959 . S
H753 C768 0.959 . S
H754 C768 0.961 . S
H755 C769 0.960 . S
H756 C769 0.961 . S
H757 C769 0.959 . S
H758 C772 0.929 . S
H759 C773 0.931 . S
H760 C775 0.930 . S
C761 H749 0.930 1_655 S
C761 C762 1.399 . S
C761 C766 1.399 . S
C762 C761 1.399 . S
C762 C763 1.376 . S
C763 H750 0.930 . S
C763 C762 1.376 . S
C763 C764 1.388 . S
C764 H751 0.930 . S
C764 C763 1.388 . S
C764 C765 1.390 . S
C765 C764 1.390 . S
C765 C766 1.394 . S
C765 C771 1.465 . S
C766 C761 1.399 . S
C766 C765 1.394 . S
C766 C767 1.516 1_655 S
C767 C766 1.516 1_455 S
C767 C768 1.502 . S
C767 C769 1.561 1_455 S
C767 C770 1.526 1_455 S
C768 H752 0.959 . S
C768 H753 0.959 . S
C768 H754 0.961 . S
C768 C767 1.502 . S
C769 H755 0.960 . S
C769 H756 0.961 . S
C769 H757 0.959 . S
C769 C767 1.561 1_655 S
C770 C767 1.526 1_655 S
C770 C771 1.396 . S
C770 C775 1.390 1_655 S
C771 C765 1.465 . S
C771 C770 1.396 . S
C771 C772 1.399 . S
C772 H758 0.929 . S
C772 C771 1.399 . S
C772 C773 1.385 . S
C773 H759 0.931 . S
C773 C772 1.385 . S
C773 C774 1.389 . S
C774 C773 1.389 . S
C774 C775 1.387 1_655 S
C775 H760 0.930 . S
C775 C770 1.390 1_455 S
C775 C774 1.387 1_455 S
H776 C788 0.930 . S
H777 C790 0.930 . S
H778 C791 0.930 . S
H779 C795 0.959 . S
H780 C795 0.959 . S
H781 C795 0.961 . S
H782 C796 0.960 . S
H783 C796 0.961 . S
H784 C796 0.959 . S
H785 C799 0.929 . S
H786 C800 0.931 . S
H787 C802 0.930 . S
C788 H776 0.930 . S
C788 C789 1.399 . S
C788 C793 1.399 . S
C789 C788 1.399 . S
C789 C790 1.376 . S
C790 H777 0.930 . S
C790 C789 1.376 . S
C790 C791 1.388 . S
C791 H778 0.930 . S
C791 C790 1.388 . S
C791 C792 1.390 . S
C792 C791 1.390 . S
C792 C793 1.394 . S
C792 C798 1.465 . S
C793 C788 1.399 . S
C793 C792 1.394 . S
C793 C794 1.516 . S
C794 C793 1.516 . S
C794 C795 1.502 . S
C794 C796 1.561 . S
C794 C797 1.526 . S
C795 H779 0.959 . S
C795 H780 0.959 . S
C795 H781 0.961 . S
C795 C794 1.502 . S
C796 H782 0.960 . S
C796 H783 0.961 . S
C796 H784 0.959 . S
C796 C794 1.561 . S
C797 C794 1.526 . S
C797 C798 1.396 . S
C797 C802 1.390 . S
C798 C792 1.465 . S
C798 C797 1.396 . S
C798 C799 1.399 . S
C799 H785 0.929 . S
C799 C798 1.399 . S
C799 C800 1.385 . S
C800 H786 0.931 . S
C800 C799 1.385 . S
C800 C801 1.389 . S
C801 C800 1.389 . S
C801 C802 1.387 . S
C802 H787 0.930 . S
C802 C797 1.390 . S
C802 C801 1.387 . S
H803 C815 0.930 . S
H804 C817 0.930 . S
H805 C818 0.930 . S
H806 C822 0.959 . S
H807 C822 0.959 . S
H808 C822 0.961 . S
H809 C823 0.960 . S
H810 C823 0.961 . S
H811 C823 0.959 . S
H812 C826 0.929 . S
H813 C827 0.931 . S
H814 C829 0.930 . S
C815 H803 0.930 . S
C815 C816 1.399 . S
C815 C820 1.399 . S
C816 C815 1.399 . S
C816 C817 1.376 . S
C817 H804 0.930 . S
C817 C816 1.376 . S
C817 C818 1.388 . S
C818 H805 0.930 . S
C818 C817 1.388 . S
C818 C819 1.390 . S
C819 C818 1.390 . S
C819 C820 1.394 . S
C819 C825 1.465 . S
C820 C815 1.399 . S
C820 C819 1.394 . S
C820 C821 1.516 . S
C821 C820 1.516 . S
C821 C822 1.502 . S
C821 C823 1.561 . S
C821 C824 1.526 . S
C822 H806 0.959 . S
C822 H807 0.959 . S
C822 H808 0.961 . S
C822 C821 1.502 . S
C823 H809 0.960 . S
C823 H810 0.961 . S
C823 H811 0.959 . S
C823 C821 1.561 . S
C824 C821 1.526 . S
C824 C825 1.396 . S
C824 C829 1.390 . S
C825 C819 1.465 . S
C825 C824 1.396 . S
C825 C826 1.399 . S
C826 H812 0.929 . S
C826 C825 1.399 . S
C826 C827 1.385 . S
C827 H813 0.931 . S
C827 C826 1.385 . S
C827 C828 1.389 . S
C828 C827 1.389 . S
C828 C829 1.387 . S
C829 H814 0.930 . S
C829 C824 1.390 . S
C829 C828 1.387 . S
H830 C842 0.930 . S
H831 C844 0.939 . S
H832 C845 0.930 . S
H833 C849 0.959 . S
H834 C849 0.959 . S
H835 C849 0.961 . S
H836 C850 0.960 . S
H837 C850 0.961 . S
H838 C850 0.959 . S
H839 C853 0.929 . S
H840 C854 0.931 . S
H841 C856 0.930 1_556 S
C842 H830 0.930 . S
C842 C843 1.399 . S
C842 C847 1.399 . S
C843 C842 1.399 . S
C843 C844 1.376 1_556 S
C844 H831 0.939 . S
C844 C843 1.376 1_554 S
C844 C845 1.388 . S
C845 H832 0.930 . S
C845 C844 1.388 . S
C845 C846 1.390 . S
C846 C845 1.390 . S
C846 C847 1.394 1_554 S
C846 C852 1.465 . S
C847 C842 1.399 . S
C847 C846 1.394 1_556 S
C847 C848 1.516 . S
C848 C847 1.516 . S
C848 C849 1.502 . S
C848 C850 1.561 . S
C848 C851 1.526 1_556 S
C849 H833 0.959 . S
C849 H834 0.959 . S
C849 H835 0.961 . S
C849 C848 1.502 . S
C850 H836 0.960 . S
C850 H837 0.961 . S
C850 H838 0.959 . S
C850 C848 1.561 . S
C851 C848 1.526 1_554 S
C851 C852 1.396 . S
C851 C856 1.389 . S
C852 C846 1.465 . S
C852 C851 1.396 . S
C852 C853 1.399 . S
C853 H839 0.929 . S
C853 C852 1.399 . S
C853 C854 1.385 . S
C854 H840 0.931 . S
C854 C853 1.385 . S
C854 C855 1.389 . S
C855 C854 1.389 . S
C855 C856 1.387 . S
C856 H841 0.930 1_554 S
C856 C851 1.389 . S
C856 C855 1.387 . S
H857 C869 0.930 . S
H858 C871 0.930 . S
H859 C872 0.930 . S
H860 C876 0.959 . S
H861 C876 0.959 . S
H862 C876 0.961 . S
H863 C877 0.960 . S
H864 C877 0.961 . S
H865 C877 0.959 . S
H866 C880 0.929 . S
H867 C881 0.931 . S
H868 C883 0.930 . S
C869 H857 0.930 . S
C869 C870 1.399 . S
C869 C874 1.399 . S
C870 C869 1.399 . S
C870 C871 1.376 . S
C871 H858 0.930 . S
C871 C870 1.376 . S
C871 C872 1.388 . S
C872 H859 0.930 . S
C872 C871 1.388 . S
C872 C873 1.390 . S
C873 C872 1.390 . S
C873 C874 1.394 . S
C873 C879 1.465 . S
C874 C869 1.399 . S
C874 C873 1.394 . S
C874 C875 1.516 . S
C875 C874 1.516 . S
C875 C876 1.502 . S
C875 C877 1.561 . S
C875 C878 1.526 . S
C876 H860 0.959 . S
C876 H861 0.959 . S
C876 H862 0.961 . S
C876 C875 1.502 . S
C877 H863 0.960 . S
C877 H864 0.961 . S
C877 H865 0.959 . S
C877 C875 1.561 . S
C878 C875 1.526 . S
C878 C879 1.396 . S
C878 C883 1.390 . S
C879 C873 1.465 . S
C879 C878 1.396 . S
C879 C880 1.399 . S
C880 H866 0.929 . S
C880 C879 1.399 . S
C880 C881 1.385 . S
C881 H867 0.931 . S
C881 C880 1.385 . S
C881 C882 1.389 . S
C882 C881 1.389 . S
C882 C883 1.387 . S
C883 H868 0.930 . S
C883 C878 1.390 . S
C883 C882 1.387 . S
H884 C896 0.930 . S
H885 C898 0.930 . S
H886 C899 0.930 . S
H887 C903 0.959 . S
H888 C903 0.959 . S
H889 C903 0.961 . S
H890 C904 0.960 . S
H891 C904 0.961 . S
H892 C904 0.959 . S
H893 C907 0.929 . S
H894 C908 0.931 . S
H895 C910 0.930 . S
C896 H884 0.930 . S
C896 C897 1.399 . S
C896 C901 1.399 . S
C897 C896 1.399 . S
C897 C898 1.376 . S
C898 H885 0.930 . S
C898 C897 1.376 . S
C898 C899 1.388 . S
C899 H886 0.930 . S
C899 C898 1.388 . S
C899 C900 1.390 . S
C900 C899 1.390 . S
C900 C901 1.394 . S
C900 C906 1.465 . S
C901 C896 1.399 . S
C901 C900 1.394 . S
C901 C902 1.516 . S
C902 C901 1.516 . S
C902 C903 1.502 . S
C902 C904 1.561 . S
C902 C905 1.526 . S
C903 H887 0.959 . S
C903 H888 0.959 . S
C903 H889 0.961 . S
C903 C902 1.502 . S
C904 H890 0.960 . S
C904 H891 0.961 . S
C904 H892 0.959 . S
C904 C902 1.561 . S
C905 C902 1.526 . S
C905 C906 1.396 . S
C905 C910 1.390 . S
C906 C900 1.465 . S
C906 C905 1.396 . S
C906 C907 1.399 . S
C907 H893 0.929 . S
C907 C906 1.399 . S
C907 C908 1.385 . S
C908 H894 0.931 . S
C908 C907 1.385 . S
C908 C909 1.389 . S
C909 C908 1.389 . S
C909 C910 1.387 . S
C910 H895 0.930 . S
C910 C905 1.390 . S
C910 C909 1.387 . S
H911 C923 0.930 . S
H912 C925 0.930 . S
H913 C926 0.930 . S
H914 C930 0.959 . S
H915 C930 0.959 . S
H916 C930 0.961 . S
H917 C931 0.960 . S
H918 C931 0.961 . S
H919 C931 0.959 . S
H920 C934 0.929 . S
H921 C935 0.931 . S
H922 C937 0.930 . S
C923 H911 0.930 . S
C923 C924 1.399 . S
C923 C928 1.399 . S
C924 C923 1.399 . S
C924 C925 1.376 . S
C925 H912 0.930 . S
C925 C924 1.376 . S
C925 C926 1.388 . S
C926 H913 0.930 . S
C926 C925 1.388 . S
C926 C927 1.390 . S
C927 C926 1.390 . S
C927 C928 1.394 . S
C927 C933 1.465 . S
C928 C923 1.399 . S
C928 C927 1.394 . S
C928 C929 1.516 . S
C929 C928 1.516 . S
C929 C930 1.502 . S
C929 C931 1.561 . S
C929 C932 1.526 . S
C930 H914 0.959 . S
C930 H915 0.959 . S
C930 H916 0.961 . S
C930 C929 1.502 . S
C931 H917 0.960 . S
C931 H918 0.961 . S
C931 H919 0.959 . S
C931 C929 1.561 . S
C932 C929 1.526 . S
C932 C933 1.396 . S
C932 C937 1.390 . S
C933 C927 1.465 . S
C933 C932 1.396 . S
C933 C934 1.399 . S
C934 H920 0.929 . S
C934 C933 1.399 . S
C934 C935 1.385 . S
C935 H921 0.931 . S
C935 C934 1.385 . S
C935 C936 1.389 . S
C936 C935 1.389 . S
C936 C937 1.387 . S
C937 H922 0.930 . S
C937 C932 1.390 . S
C937 C936 1.387 . S
H938 C950 0.930 . S
H939 C952 0.930 . S
H940 C953 0.930 . S
H941 C957 0.959 . S
H942 C957 0.959 . S
H943 C957 0.961 . S
H944 C958 0.960 . S
H945 C958 0.961 . S
H946 C958 0.959 . S
H947 C961 0.929 . S
H948 C962 0.931 . S
H949 C964 0.930 . S
C950 H938 0.930 . S
C950 C951 1.399 . S
C950 C955 1.399 . S
C951 C950 1.399 . S
C951 C952 1.376 . S
C952 H939 0.930 . S
C952 C951 1.376 . S
C952 C953 1.388 . S
C953 H940 0.930 . S
C953 C952 1.388 . S
C953 C954 1.390 . S
C954 C953 1.390 . S
C954 C955 1.394 . S
C954 C960 1.465 . S
C955 C950 1.399 . S
C955 C954 1.394 . S
C955 C956 1.516 . S
C956 C955 1.516 . S
C956 C957 1.502 . S
C956 C958 1.561 . S
C956 C959 1.526 . S
C957 H941 0.959 . S
C957 H942 0.959 . S
C957 H943 0.961 . S
C957 C956 1.502 . S
C958 H944 0.960 . S
C958 H945 0.961 . S
C958 H946 0.959 . S
C958 C956 1.561 . S
C959 C956 1.526 . S
C959 C960 1.396 . S
C959 C964 1.390 . S
C960 C954 1.465 . S
C960 C959 1.396 . S
C960 C961 1.399 . S
C961 H947 0.929 . S
C961 C960 1.399 . S
C961 C962 1.385 . S
C962 H948 0.931 . S
C962 C961 1.385 . S
C962 C963 1.389 . S
C963 C962 1.389 . S
C963 C964 1.387 . S
C964 H949 0.930 . S
C964 C959 1.390 . S
C964 C963 1.387 . S
H965 C977 0.930 . S
H966 C979 0.930 . S
H967 C980 0.930 . S
H968 C984 0.959 . S
H969 C984 0.959 . S
H970 C984 0.961 . S
H971 C985 0.960 . S
H972 C985 0.961 . S
H973 C985 0.959 . S
H974 C988 0.929 . S
H975 C989 0.931 . S
H976 C991 0.930 . S
C977 H965 0.930 . S
C977 C978 1.399 . S
C977 C982 1.399 . S
C978 C977 1.399 . S
C978 C979 1.376 . S
C979 H966 0.930 . S
C979 C978 1.376 . S
C979 C980 1.388 . S
C980 H967 0.930 . S
C980 C979 1.388 . S
C980 C981 1.390 . S
C981 C980 1.390 . S
C981 C982 1.394 . S
C981 C987 1.465 . S
C982 C977 1.399 . S
C982 C981 1.394 . S
C982 C983 1.516 . S
C983 C982 1.516 . S
C983 C984 1.502 . S
C983 C985 1.561 . S
C983 C986 1.526 . S
C984 H968 0.959 . S
C984 H969 0.959 . S
C984 H970 0.961 . S
C984 C983 1.502 . S
C985 H971 0.960 . S
C985 H972 0.961 . S
C985 H973 0.959 . S
C985 C983 1.561 . S
C986 C983 1.526 . S
C986 C987 1.396 . S
C986 C991 1.390 . S
C987 C981 1.465 . S
C987 C986 1.396 . S
C987 C988 1.399 . S
C988 H974 0.929 . S
C988 C987 1.399 . S
C988 C989 1.385 . S
C989 H975 0.931 . S
C989 C988 1.385 . S
C989 C990 1.389 . S
C990 C989 1.389 . S
C990 C991 1.387 . S
C991 H976 0.930 . S
C991 C986 1.390 . S
C991 C990 1.387 . S
H992 C1004 0.930 . S
H993 C1006 0.930 . S
H994 C1007 0.930 . S
H995 C1011 0.959 . S
H996 C1011 0.959 . S
H997 C1011 0.961 . S
H998 C1012 0.960 . S
H999 C1012 0.961 . S
H1000 C1012 0.959 . S
H1001 C1015 0.929 . S
H1002 C1016 0.931 . S
H1003 C1018 0.930 . S
C1004 H992 0.930 . S
C1004 C1005 1.399 . S
C1004 C1009 1.399 . S
C1005 C1004 1.399 . S
C1005 C1006 1.376 . S
C1006 H993 0.930 . S
C1006 C1005 1.376 . S
C1006 C1007 1.388 . S
C1007 H994 0.930 . S
C1007 C1006 1.388 . S
C1007 C1008 1.390 . S
C1008 C1007 1.390 . S
C1008 C1009 1.394 . S
C1008 C1014 1.465 . S
C1009 C1004 1.399 . S
C1009 C1008 1.394 . S
C1009 C1010 1.516 . S
C1010 C1009 1.516 . S
C1010 C1011 1.502 . S
C1010 C1012 1.561 . S
C1010 C1013 1.526 . S
C1011 H995 0.959 . S
C1011 H996 0.959 . S
C1011 H997 0.961 . S
C1011 C1010 1.502 . S
C1012 H998 0.960 . S
C1012 H999 0.961 . S
C1012 H1000 0.959 . S
C1012 C1010 1.561 . S
C1013 C1010 1.526 . S
C1013 C1014 1.396 . S
C1013 C1018 1.390 . S
C1014 C1008 1.465 . S
C1014 C1013 1.396 . S
C1014 C1015 1.399 . S
C1015 H1001 0.929 . S
C1015 C1014 1.399 . S
C1015 C1016 1.385 . S
C1016 H1002 0.931 . S
C1016 C1015 1.385 . S
C1016 C1017 1.389 . S
C1017 C1016 1.389 . S
C1017 C1018 1.387 . S
C1018 H1003 0.930 . S
C1018 C1013 1.390 . S
C1018 C1017 1.387 . S
H1019 C1031 0.930 . S
H1020 C1033 0.911 1_565 S
H1021 C1034 0.930 . S
H1022 C1038 0.959 . S
H1023 C1038 0.959 . S
H1024 C1038 0.961 . S
H1025 C1039 0.960 . S
H1026 C1039 0.961 . S
H1027 C1039 0.959 . S
H1028 C1042 0.929 . S
H1029 C1043 0.931 . S
H1030 C1045 0.930 . S
C1031 H1019 0.930 . S
C1031 C1032 1.399 . S
C1031 C1036 1.399 . S
C1032 C1031 1.399 . S
C1032 C1033 1.403 . S
C1033 H1020 0.911 1_545 S
C1033 C1032 1.403 . S
C1033 C1034 1.382 1_545 S
C1034 H1021 0.930 . S
C1034 C1033 1.382 1_565 S
C1034 C1035 1.390 1_565 S
C1035 C1034 1.390 1_545 S
C1035 C1036 1.394 . S
C1035 C1041 1.465 . S
C1036 C1031 1.399 . S
C1036 C1035 1.394 . S
C1036 C1037 1.516 . S
C1037 C1036 1.516 . S
C1037 C1038 1.502 . S
C1037 C1039 1.561 . S
C1037 C1040 1.526 . S
C1038 H1022 0.959 . S
C1038 H1023 0.959 . S
C1038 H1024 0.961 . S
C1038 C1037 1.502 . S
C1039 H1025 0.960 . S
C1039 H1026 0.961 . S
C1039 H1027 0.959 . S
C1039 C1037 1.561 . S
C1040 C1037 1.526 . S
C1040 C1041 1.396 . S
C1040 C1045 1.390 . S
C1041 C1035 1.465 . S
C1041 C1040 1.396 . S
C1041 C1042 1.399 1_545 S
C1042 H1028 0.929 . S
C1042 C1041 1.399 1_565 S
C1042 C1043 1.385 . S
C1043 H1029 0.931 . S
C1043 C1042 1.385 . S
C1043 C1044 1.389 1_565 S
C1044 C1043 1.389 1_545 S
C1044 C1045 1.387 . S
C1045 H1030 0.930 . S
C1045 C1040 1.390 . S
C1045 C1044 1.387 . S
H1046 C1058 0.930 . S
H1047 C1060 0.930 . S
H1048 C1061 0.930 . S
H1049 C1065 0.959 . S
H1050 C1065 0.959 . S
H1051 C1065 0.961 . S
H1052 C1066 0.960 . S
H1053 C1066 0.961 . S
H1054 C1066 0.959 . S
H1055 C1069 0.929 . S
H1056 C1070 0.931 . S
H1057 C1072 0.930 . S
C1058 H1046 0.930 . S
C1058 C1059 1.399 . S
C1058 C1063 1.399 . S
C1059 C1058 1.399 . S
C1059 C1060 1.376 . S
C1060 H1047 0.930 . S
C1060 C1059 1.376 . S
C1060 C1061 1.388 . S
C1061 H1048 0.930 . S
C1061 C1060 1.388 . S
C1061 C1062 1.390 . S
C1062 C1061 1.390 . S
C1062 C1063 1.394 . S
C1062 C1068 1.465 . S
C1063 C1058 1.399 . S
C1063 C1062 1.394 . S
C1063 C1064 1.516 . S
C1064 C1063 1.516 . S
C1064 C1065 1.502 . S
C1064 C1066 1.561 . S
C1064 C1067 1.526 . S
C1065 H1049 0.959 . S
C1065 H1050 0.959 . S
C1065 H1051 0.961 . S
C1065 C1064 1.502 . S
C1066 H1052 0.960 . S
C1066 H1053 0.961 . S
C1066 H1054 0.959 . S
C1066 C1064 1.561 . S
C1067 C1064 1.526 . S
C1067 C1068 1.396 . S
C1067 C1072 1.390 . S
C1068 C1062 1.465 . S
C1068 C1067 1.396 . S
C1068 C1069 1.399 . S
C1069 H1055 0.929 . S
C1069 C1068 1.399 . S
C1069 C1070 1.385 . S
C1070 H1056 0.931 . S
C1070 C1069 1.385 . S
C1070 C1071 1.389 . S
C1071 C1070 1.389 . S
C1071 C1072 1.387 . S
C1072 H1057 0.930 . S
C1072 C1067 1.390 . S
C1072 C1071 1.387 . S
H1073 C1085 0.930 . S
H1074 C1087 0.930 . S
H1075 C1088 0.930 . S
H1076 C1092 0.959 . S
H1077 C1092 0.959 . S
H1078 C1092 0.961 . S
H1079 C1093 0.960 . S
H1080 C1093 0.961 . S
H1081 C1093 0.959 . S
H1082 C1096 0.929 . S
H1083 C1097 0.931 . S
H1084 C1099 0.930 . S
C1085 H1073 0.930 . S
C1085 C1086 1.399 . S
C1085 C1090 1.399 . S
C1086 C1085 1.399 . S
C1086 C1087 1.376 . S
C1087 H1074 0.930 . S
C1087 C1086 1.376 . S
C1087 C1088 1.388 . S
C1088 H1075 0.930 . S
C1088 C1087 1.388 . S
C1088 C1089 1.390 . S
C1089 C1088 1.390 . S
C1089 C1090 1.394 . S
C1089 C1095 1.465 . S
C1090 C1085 1.399 . S
C1090 C1089 1.394 . S
C1090 C1091 1.516 . S
C1091 C1090 1.516 . S
C1091 C1092 1.502 . S
C1091 C1093 1.561 . S
C1091 C1094 1.526 . S
C1092 H1076 0.959 . S
C1092 H1077 0.959 . S
C1092 H1078 0.961 . S
C1092 C1091 1.502 . S
C1093 H1079 0.960 . S
C1093 H1080 0.961 . S
C1093 H1081 0.959 . S
C1093 C1091 1.561 . S
C1094 C1091 1.526 . S
C1094 C1095 1.396 . S
C1094 C1099 1.390 . S
C1095 C1089 1.465 . S
C1095 C1094 1.396 . S
C1095 C1096 1.399 . S
C1096 H1082 0.929 . S
C1096 C1095 1.399 . S
C1096 C1097 1.385 . S
C1097 H1083 0.931 . S
C1097 C1096 1.385 . S
C1097 C1098 1.389 . S
C1098 C1097 1.389 . S
C1098 C1099 1.387 . S
C1099 H1084 0.930 . S
C1099 C1094 1.390 . S
C1099 C1098 1.387 . S
H1100 C1112 0.930 . S
H1101 C1114 0.930 . S
H1102 C1115 0.930 . S
H1103 C1119 0.959 . S
H1104 C1119 0.959 . S
H1105 C1119 0.961 . S
H1106 C1120 0.960 . S
H1107 C1120 0.961 . S
H1108 C1120 0.959 . S
H1109 C1123 0.929 . S
H1110 C1124 0.931 . S
H1111 C1126 0.930 . S
C1112 H1100 0.930 . S
C1112 C1113 1.399 . S
C1112 C1117 1.399 . S
C1113 C1112 1.399 . S
C1113 C1114 1.376 . S
C1114 H1101 0.930 . S
C1114 C1113 1.376 . S
C1114 C1115 1.388 . S
C1115 H1102 0.930 . S
C1115 C1114 1.388 . S
C1115 C1116 1.390 . S
C1116 C1115 1.390 . S
C1116 C1117 1.394 . S
C1116 C1122 1.465 . S
C1117 C1112 1.399 . S
C1117 C1116 1.394 . S
C1117 C1118 1.516 . S
C1118 C1117 1.516 . S
C1118 C1119 1.502 . S
C1118 C1120 1.561 . S
C1118 C1121 1.526 . S
C1119 H1103 0.959 . S
C1119 H1104 0.959 . S
C1119 H1105 0.961 . S
C1119 C1118 1.502 . S
C1120 H1106 0.960 . S
C1120 H1107 0.961 . S
C1120 H1108 0.959 . S
C1120 C1118 1.561 . S
C1121 C1118 1.526 . S
C1121 C1122 1.396 . S
C1121 C1126 1.390 . S
C1122 C1116 1.465 . S
C1122 C1121 1.396 . S
C1122 C1123 1.399 . S
C1123 H1109 0.929 . S
C1123 C1122 1.399 . S
C1123 C1124 1.385 . S
C1124 H1110 0.931 . S
C1124 C1123 1.385 . S
C1124 C1125 1.389 . S
C1125 C1124 1.389 . S
C1125 C1126 1.387 . S
C1126 H1111 0.930 . S
C1126 C1121 1.390 . S
C1126 C1125 1.387 . S
H1127 C1139 0.930 1_655 S
H1128 C1141 0.930 . S
H1129 C1142 0.930 . S
H1130 C1146 0.959 . S
H1131 C1146 0.959 . S
H1132 C1146 0.961 . S
H1133 C1147 0.960 . S
H1134 C1147 0.961 . S
H1135 C1147 0.959 . S
H1136 C1150 0.929 . S
H1137 C1151 0.931 1_455 S
H1138 C1153 0.930 . S
C1139 H1127 0.930 1_455 S
C1139 C1140 1.399 . S
C1139 C1144 1.412 . S
C1140 C1139 1.399 . S
C1140 C1141 1.376 . S
C1141 H1128 0.930 . S
C1141 C1140 1.376 . S
C1141 C1142 1.388 . S
C1142 H1129 0.930 . S
C1142 C1141 1.388 . S
C1142 C1143 1.390 . S
C1143 C1142 1.390 . S
C1143 C1144 1.413 . S
C1143 C1149 1.465 . S
C1144 C1139 1.412 . S
C1144 C1143 1.413 . S
C1144 C1145 1.486 1_455 S
C1145 C1144 1.486 1_655 S
C1145 C1146 1.502 . S
C1145 C1147 1.561 1_545 S
C1145 C1148 1.526 . S
C1146 H1130 0.959 . S
C1146 H1131 0.959 . S
C1146 H1132 0.961 . S
C1146 C1145 1.502 . S
C1147 H1133 0.960 . S
C1147 H1134 0.961 . S
C1147 H1135 0.959 . S
C1147 C1145 1.561 1_565 S
C1148 C1145 1.526 . S
C1148 C1149 1.396 1_655 S
C1148 C1153 1.390 . S
C1149 C1143 1.465 . S
C1149 C1148 1.396 1_455 S
C1149 C1150 1.399 . S
C1150 H1136 0.929 . S
C1150 C1149 1.399 . S
C1150 C1151 1.385 1_455 S
C1151 H1137 0.931 1_655 S
C1151 C1150 1.385 1_655 S
C1151 C1152 1.389 . S
C1152 C1151 1.389 . S
C1152 C1153 1.387 . S
C1153 H1138 0.930 . S
C1153 C1148 1.390 . S
C1153 C1152 1.387 . S
H1154 C1166 0.930 . S
H1155 C1168 0.930 . S
H1156 C1169 0.930 . S
H1157 C1173 0.959 . S
H1158 C1173 0.959 . S
H1159 C1173 0.961 . S
H1160 C1174 0.960 . S
H1161 C1174 0.961 . S
H1162 C1174 0.959 . S
H1163 C1177 0.929 . S
H1164 C1178 0.931 . S
H1165 C1180 0.930 . S
C1166 H1154 0.930 . S
C1166 C1167 1.399 . S
C1166 C1171 1.399 . S
C1167 C1166 1.399 . S
C1167 C1168 1.376 . S
C1168 H1155 0.930 . S
C1168 C1167 1.376 . S
C1168 C1169 1.388 . S
C1169 H1156 0.930 . S
C1169 C1168 1.388 . S
C1169 C1170 1.390 . S
C1170 C1169 1.390 . S
C1170 C1171 1.394 . S
C1170 C1176 1.465 . S
C1171 C1166 1.399 . S
C1171 C1170 1.394 . S
C1171 C1172 1.516 . S
C1172 C1171 1.516 . S
C1172 C1173 1.502 . S
C1172 C1174 1.561 . S
C1172 C1175 1.526 . S
C1173 H1157 0.959 . S
C1173 H1158 0.959 . S
C1173 H1159 0.961 . S
C1173 C1172 1.502 . S
C1174 H1160 0.960 . S
C1174 H1161 0.961 . S
C1174 H1162 0.959 . S
C1174 C1172 1.561 . S
C1175 C1172 1.526 . S
C1175 C1176 1.396 . S
C1175 C1180 1.390 . S
C1176 C1170 1.465 . S
C1176 C1175 1.396 . S
C1176 C1177 1.399 . S
C1177 H1163 0.929 . S
C1177 C1176 1.399 . S
C1177 C1178 1.385 . S
C1178 H1164 0.931 . S
C1178 C1177 1.385 . S
C1178 C1179 1.389 . S
C1179 C1178 1.389 . S
C1179 C1180 1.387 . S
C1180 H1165 0.930 . S
C1180 C1175 1.390 . S
C1180 C1179 1.387 . S
H1181 C1193 0.930 . S
H1182 C1195 0.930 . S
H1183 C1196 0.930 . S
H1184 C1200 0.959 . S
H1185 C1200 0.959 . S
H1186 C1200 0.961 . S
H1187 C1201 0.960 . S
H1188 C1201 0.961 . S
H1189 C1201 0.959 . S
H1190 C1204 0.929 . S
H1191 C1205 0.931 . S
H1192 C1207 0.930 . S
C1193 H1181 0.930 . S
C1193 C1194 1.399 . S
C1193 C1198 1.399 . S
C1194 C1193 1.399 . S
C1194 C1195 1.376 . S
C1195 H1182 0.930 . S
C1195 C1194 1.376 . S
C1195 C1196 1.388 . S
C1196 H1183 0.930 . S
C1196 C1195 1.388 . S
C1196 C1197 1.390 . S
C1197 C1196 1.390 . S
C1197 C1198 1.394 . S
C1197 C1203 1.465 . S
C1198 C1193 1.399 . S
C1198 C1197 1.394 . S
C1198 C1199 1.516 . S
C1199 C1198 1.516 . S
C1199 C1200 1.502 . S
C1199 C1201 1.561 . S
C1199 C1202 1.526 . S
C1200 H1184 0.959 . S
C1200 H1185 0.959 . S
C1200 H1186 0.961 . S
C1200 C1199 1.502 . S
C1201 H1187 0.960 . S
C1201 H1188 0.961 . S
C1201 H1189 0.959 . S
C1201 C1199 1.561 . S
C1202 C1199 1.526 . S
C1202 C1203 1.396 . S
C1202 C1207 1.390 . S
C1203 C1197 1.465 . S
C1203 C1202 1.396 . S
C1203 C1204 1.399 . S
C1204 H1190 0.929 . S
C1204 C1203 1.399 . S
C1204 C1205 1.385 . S
C1205 H1191 0.931 . S
C1205 C1204 1.385 . S
C1205 C1206 1.389 . S
C1206 C1205 1.389 . S
C1206 C1207 1.387 . S
C1207 H1192 0.930 . S
C1207 C1202 1.390 . S
C1207 C1206 1.387 . S
H1208 C1220 0.930 . S
H1209 C1222 0.930 . S
H1210 C1223 0.930 . S
H1211 C1227 0.959 . S
H1212 C1227 0.959 . S
H1213 C1227 0.961 . S
H1214 C1228 0.960 . S
H1215 C1228 0.961 . S
H1216 C1228 0.959 . S
H1217 C1231 0.929 . S
H1218 C1232 0.931 . S
H1219 C1234 0.930 . S
C1220 H1208 0.930 . S
C1220 C1221 1.399 . S
C1220 C1225 1.399 . S
C1221 C1220 1.399 . S
C1221 C1222 1.376 . S
C1222 H1209 0.930 . S
C1222 C1221 1.376 . S
C1222 C1223 1.388 . S
C1223 H1210 0.930 . S
C1223 C1222 1.388 . S
C1223 C1224 1.390 . S
C1224 C1223 1.390 . S
C1224 C1225 1.394 . S
C1224 C1230 1.465 . S
C1225 C1220 1.399 . S
C1225 C1224 1.394 . S
C1225 C1226 1.516 . S
C1226 C1225 1.516 . S
C1226 C1227 1.502 . S
C1226 C1228 1.561 . S
C1226 C1229 1.526 . S
C1227 H1211 0.959 . S
C1227 H1212 0.959 . S
C1227 H1213 0.961 . S
C1227 C1226 1.502 . S
C1228 H1214 0.960 . S
C1228 H1215 0.961 . S
C1228 H1216 0.959 . S
C1228 C1226 1.561 . S
C1229 C1226 1.526 . S
C1229 C1230 1.396 . S
C1229 C1234 1.390 . S
C1230 C1224 1.465 . S
C1230 C1229 1.396 . S
C1230 C1231 1.399 . S
C1231 H1217 0.929 . S
C1231 C1230 1.399 . S
C1231 C1232 1.385 . S
C1232 H1218 0.931 . S
C1232 C1231 1.385 . S
C1232 C1233 1.389 . S
C1233 C1232 1.389 . S
C1233 C1234 1.387 . S
C1234 H1219 0.930 . S
C1234 C1229 1.390 . S
C1234 C1233 1.387 . S
H1235 C1247 0.930 . S
H1236 C1249 0.930 . S
H1237 C1250 0.930 . S
H1238 C1254 0.959 1_556 S
H1239 C1254 0.959 . S
H1240 C1254 0.961 . S
H1241 C1255 0.960 . S
H1242 C1255 0.961 . S
H1243 C1255 0.959 1_655 S
H1244 C1258 0.929 . S
H1245 C1259 0.931 1_655 S
H1246 C1261 0.930 . S
C1247 H1235 0.930 . S
C1247 C1248 1.399 . S
C1247 C1252 1.399 1_554 S
C1248 C1247 1.399 . S
C1248 C1249 1.376 1_454 S
C1249 H1236 0.930 . S
C1249 C1248 1.376 1_656 S
C1249 C1250 1.388 . S
C1250 H1237 0.930 . S
C1250 C1249 1.388 . S
C1250 C1251 1.390 1_655 S
C1251 C1250 1.390 1_455 S
C1251 C1252 1.394 . S
C1251 C1257 1.465 . S
C1252 C1247 1.399 1_556 S
C1252 C1251 1.394 . S
C1252 C1253 1.516 . S
C1253 C1252 1.516 . S
C1253 C1254 1.502 1_556 S
C1253 C1255 1.561 1_556 S
C1253 C1256 1.526 . S
C1254 H1238 0.959 1_554 S
C1254 H1239 0.959 . S
C1254 H1240 0.961 . S
C1254 C1253 1.502 1_554 S
C1255 H1241 0.960 . S
C1255 H1242 0.961 . S
C1255 H1243 0.959 1_455 S
C1255 C1253 1.561 1_554 S
C1256 C1253 1.526 . S
C1256 C1257 1.396 . S
C1256 C1261 1.390 . S
C1257 C1251 1.465 . S
C1257 C1256 1.396 . S
C1257 C1258 1.399 1_455 S
C1258 H1244 0.929 . S
C1258 C1257 1.399 1_655 S
C1258 C1259 1.385 1_655 S
C1259 H1245 0.931 1_455 S
C1259 C1258 1.385 1_455 S
C1259 C1260 1.389 . S
C1260 C1259 1.389 . S
C1260 C1261 1.387 . S
C1261 H1246 0.930 . S
C1261 C1256 1.390 . S
C1261 C1260 1.387 . S
H1262 C1274 0.930 . S
H1263 C1276 0.930 . S
H1264 C1277 0.930 . S
H1265 C1281 0.959 . S
H1266 C1281 0.959 . S
H1267 C1281 0.961 . S
H1268 C1282 0.960 . S
H1269 C1282 0.961 . S
H1270 C1282 0.959 . S
H1271 C1285 0.929 . S
H1272 C1286 0.931 . S
H1273 C1288 0.930 . S
C1274 H1262 0.930 . S
C1274 C1275 1.399 . S
C1274 C1279 1.399 . S
C1275 C1274 1.399 . S
C1275 C1276 1.376 . S
C1276 H1263 0.930 . S
C1276 C1275 1.376 . S
C1276 C1277 1.388 . S
C1277 H1264 0.930 . S
C1277 C1276 1.388 . S
C1277 C1278 1.390 . S
C1278 C1277 1.390 . S
C1278 C1279 1.394 . S
C1278 C1284 1.465 . S
C1279 C1274 1.399 . S
C1279 C1278 1.394 . S
C1279 C1280 1.516 . S
C1280 C1279 1.516 . S
C1280 C1281 1.502 . S
C1280 C1282 1.561 . S
C1280 C1283 1.526 . S
C1281 H1265 0.959 . S
C1281 H1266 0.959 . S
C1281 H1267 0.961 . S
C1281 C1280 1.502 . S
C1282 H1268 0.960 . S
C1282 H1269 0.961 . S
C1282 H1270 0.959 . S
C1282 C1280 1.561 . S
C1283 C1280 1.526 . S
C1283 C1284 1.396 . S
C1283 C1288 1.390 . S
C1284 C1278 1.465 . S
C1284 C1283 1.396 . S
C1284 C1285 1.399 . S
C1285 H1271 0.929 . S
C1285 C1284 1.399 . S
C1285 C1286 1.385 . S
C1286 H1272 0.931 . S
C1286 C1285 1.385 . S
C1286 C1287 1.389 . S
C1287 C1286 1.389 . S
C1287 C1288 1.387 . S
C1288 H1273 0.930 . S
C1288 C1283 1.390 . S
C1288 C1287 1.387 . S
H1289 C1301 0.925 1_554 S
H1290 C1303 0.930 . S
H1291 C1304 0.930 . S
H1292 C1308 0.959 1_556 S
H1293 C1308 0.959 . S
H1294 C1308 0.961 . S
H1295 C1309 0.960 1_554 S
H1296 C1309 0.961 . S
H1297 C1309 0.959 . S
H1298 C1312 0.929 . S
H1299 C1313 0.931 . S
H1300 C1315 0.930 . S
C1301 H1289 0.925 1_556 S
C1301 C1302 1.400 . S
C1301 C1306 1.403 . S
C1302 C1301 1.400 . S
C1302 C1303 1.376 . S
C1303 H1290 0.930 . S
C1303 C1302 1.376 . S
C1303 C1304 1.388 . S
C1304 H1291 0.930 . S
C1304 C1303 1.388 . S
C1304 C1305 1.390 . S
C1305 C1304 1.390 . S
C1305 C1306 1.394 . S
C1305 C1311 1.465 . S
C1306 C1301 1.403 . S
C1306 C1305 1.394 . S
C1306 C1307 1.516 . S
C1307 C1306 1.516 . S
C1307 C1308 1.502 1_556 S
C1307 C1309 1.561 . S
C1307 C1310 1.526 . S
C1308 H1292 0.959 1_554 S
C1308 H1293 0.959 . S
C1308 H1294 0.961 . S
C1308 C1307 1.502 1_554 S
C1309 H1295 0.960 1_556 S
C1309 H1296 0.961 . S
C1309 H1297 0.959 . S
C1309 C1307 1.561 . S
C1310 C1307 1.526 . S
C1310 C1311 1.396 . S
C1310 C1315 1.390 . S
C1311 C1305 1.465 . S
C1311 C1310 1.396 . S
C1311 C1312 1.399 . S
C1312 H1298 0.929 . S
C1312 C1311 1.399 . S
C1312 C1313 1.385 . S
C1313 H1299 0.931 . S
C1313 C1312 1.385 . S
C1313 C1314 1.389 . S
C1314 C1313 1.389 . S
C1314 C1315 1.387 . S
C1315 H1300 0.930 . S
C1315 C1310 1.390 . S
C1315 C1314 1.387 . S
H1316 C1328 0.930 . S
H1317 C1330 0.930 . S
H1318 C1331 0.930 . S
H1319 C1335 0.959 . S
H1320 C1335 0.959 . S
H1321 C1335 0.961 . S
H1322 C1336 0.960 . S
H1323 C1336 0.961 . S
H1324 C1336 0.959 . S
H1325 C1339 0.929 . S
H1326 C1340 0.931 . S
H1327 C1342 0.930 . S
C1328 H1316 0.930 . S
C1328 C1329 1.399 . S
C1328 C1333 1.399 . S
C1329 C1328 1.399 . S
C1329 C1330 1.376 . S
C1330 H1317 0.930 . S
C1330 C1329 1.376 . S
C1330 C1331 1.388 . S
C1331 H1318 0.930 . S
C1331 C1330 1.388 . S
C1331 C1332 1.390 . S
C1332 C1331 1.390 . S
C1332 C1333 1.394 . S
C1332 C1338 1.465 . S
C1333 C1328 1.399 . S
C1333 C1332 1.394 . S
C1333 C1334 1.516 . S
C1334 C1333 1.516 . S
C1334 C1335 1.502 . S
C1334 C1336 1.561 . S
C1334 C1337 1.526 . S
C1335 H1319 0.959 . S
C1335 H1320 0.959 . S
C1335 H1321 0.961 . S
C1335 C1334 1.502 . S
C1336 H1322 0.960 . S
C1336 H1323 0.961 . S
C1336 H1324 0.959 . S
C1336 C1334 1.561 . S
C1337 C1334 1.526 . S
C1337 C1338 1.396 . S
C1337 C1342 1.390 . S
C1338 C1332 1.465 . S
C1338 C1337 1.396 . S
C1338 C1339 1.399 . S
C1339 H1325 0.929 . S
C1339 C1338 1.399 . S
C1339 C1340 1.385 . S
C1340 H1326 0.931 . S
C1340 C1339 1.385 . S
C1340 C1341 1.389 . S
C1341 C1340 1.389 . S
C1341 C1342 1.387 . S
C1342 H1327 0.930 . S
C1342 C1337 1.390 . S
C1342 C1341 1.387 . S
H1343 C1355 0.930 . S
H1344 C1357 0.930 . S
H1345 C1358 0.930 . S
H1346 C1362 0.959 . S
H1347 C1362 0.959 . S
H1348 C1362 0.961 . S
H1349 C1363 0.960 . S
H1350 C1363 0.961 . S
H1351 C1363 0.959 . S
H1352 C1366 0.929 . S
H1353 C1367 0.931 . S
H1354 C1369 0.930 . S
C1355 H1343 0.930 . S
C1355 C1356 1.399 . S
C1355 C1360 1.399 . S
C1356 C1355 1.399 . S
C1356 C1357 1.376 . S
C1357 H1344 0.930 . S
C1357 C1356 1.376 . S
C1357 C1358 1.388 . S
C1358 H1345 0.930 . S
C1358 C1357 1.388 . S
C1358 C1359 1.390 . S
C1359 C1358 1.390 . S
C1359 C1360 1.394 . S
C1359 C1365 1.465 . S
C1360 C1355 1.399 . S
C1360 C1359 1.394 . S
C1360 C1361 1.516 . S
C1361 C1360 1.516 . S
C1361 C1362 1.502 . S
C1361 C1363 1.561 . S
C1361 C1364 1.526 . S
C1362 H1346 0.959 . S
C1362 H1347 0.959 . S
C1362 H1348 0.961 . S
C1362 C1361 1.502 . S
C1363 H1349 0.960 . S
C1363 H1350 0.961 . S
C1363 H1351 0.959 . S
C1363 C1361 1.561 . S
C1364 C1361 1.526 . S
C1364 C1365 1.396 . S
C1364 C1369 1.390 . S
C1365 C1359 1.465 . S
C1365 C1364 1.396 . S
C1365 C1366 1.399 . S
C1366 H1352 0.929 . S
C1366 C1365 1.399 . S
C1366 C1367 1.385 . S
C1367 H1353 0.931 . S
C1367 C1366 1.385 . S
C1367 C1368 1.389 . S
C1368 C1367 1.389 . S
C1368 C1369 1.387 . S
C1369 H1354 0.930 . S
C1369 C1364 1.390 . S
C1369 C1368 1.387 . S
H1370 C1382 0.930 . S
H1371 C1384 0.930 . S
H1372 C1385 0.930 . S
H1373 C1389 0.959 . S
H1374 C1389 0.959 . S
H1375 C1389 0.961 . S
H1376 C1390 0.960 . S
H1377 C1390 0.961 . S
H1378 C1390 0.959 . S
H1379 C1393 0.929 . S
H1380 C1394 0.931 . S
H1381 C1396 0.930 . S
C1382 H1370 0.930 . S
C1382 C1383 1.399 . S
C1382 C1387 1.399 . S
C1383 C1382 1.399 . S
C1383 C1384 1.376 . S
C1384 H1371 0.930 . S
C1384 C1383 1.376 . S
C1384 C1385 1.388 . S
C1385 H1372 0.930 . S
C1385 C1384 1.388 . S
C1385 C1386 1.390 . S
C1386 C1385 1.390 . S
C1386 C1387 1.394 . S
C1386 C1392 1.465 . S
C1387 C1382 1.399 . S
C1387 C1386 1.394 . S
C1387 C1388 1.516 . S
C1388 C1387 1.516 . S
C1388 C1389 1.502 . S
C1388 C1390 1.561 . S
C1388 C1391 1.526 . S
C1389 H1373 0.959 . S
C1389 H1374 0.959 . S
C1389 H1375 0.961 . S
C1389 C1388 1.502 . S
C1390 H1376 0.960 . S
C1390 H1377 0.961 . S
C1390 H1378 0.959 . S
C1390 C1388 1.561 . S
C1391 C1388 1.526 . S
C1391 C1392 1.396 . S
C1391 C1396 1.390 . S
C1392 C1386 1.465 . S
C1392 C1391 1.396 . S
C1392 C1393 1.399 . S
C1393 H1379 0.929 . S
C1393 C1392 1.399 . S
C1393 C1394 1.385 . S
C1394 H1380 0.931 . S
C1394 C1393 1.385 . S
C1394 C1395 1.389 . S
C1395 C1394 1.389 . S
C1395 C1396 1.387 . S
C1396 H1381 0.930 . S
C1396 C1391 1.390 . S
C1396 C1395 1.387 . S
H1397 C1409 0.930 . S
H1398 C1411 0.930 . S
H1399 C1412 0.930 . S
H1400 C1416 0.959 . S
H1401 C1416 0.959 . S
H1402 C1416 0.961 . S
H1403 C1417 0.960 . S
H1404 C1417 0.961 . S
H1405 C1417 0.959 . S
H1406 C1420 0.929 . S
H1407 C1421 0.931 . S
H1408 C1423 0.930 . S
C1409 H1397 0.930 . S
C1409 C1410 1.399 . S
C1409 C1414 1.399 . S
C1410 C1409 1.399 . S
C1410 C1411 1.376 1_554 S
C1411 H1398 0.930 . S
C1411 C1410 1.376 1_556 S
C1411 C1412 1.388 1_556 S
C1412 H1399 0.930 . S
C1412 C1411 1.388 1_554 S
C1412 C1413 1.390 . S
C1413 C1412 1.390 . S
C1413 C1414 1.394 . S
C1413 C1419 1.465 . S
C1414 C1409 1.399 . S
C1414 C1413 1.394 . S
C1414 C1415 1.516 . S
C1415 C1414 1.516 . S
C1415 C1416 1.502 . S
C1415 C1417 1.561 . S
C1415 C1418 1.526 . S
C1416 H1400 0.959 . S
C1416 H1401 0.959 . S
C1416 H1402 0.961 . S
C1416 C1415 1.502 . S
C1417 H1403 0.960 . S
C1417 H1404 0.961 . S
C1417 H1405 0.959 . S
C1417 C1415 1.561 . S
C1418 C1415 1.526 . S
C1418 C1419 1.396 . S
C1418 C1423 1.390 . S
C1419 C1413 1.465 . S
C1419 C1418 1.396 . S
C1419 C1420 1.399 . S
C1420 H1406 0.929 . S
C1420 C1419 1.399 . S
C1420 C1421 1.385 . S
C1421 H1407 0.931 . S
C1421 C1420 1.385 . S
C1421 C1422 1.389 . S
C1422 C1421 1.389 . S
C1422 C1423 1.387 . S
C1423 H1408 0.930 . S
C1423 C1418 1.390 . S
C1423 C1422 1.387 . S
H1424 C1436 0.930 . S
H1425 C1438 0.930 . S
H1426 C1439 0.930 . S
H1427 C1443 0.959 . S
H1428 C1443 0.959 . S
H1429 C1443 0.961 . S
H1430 C1444 0.960 . S
H1431 C1444 0.961 . S
H1432 C1444 0.959 . S
H1433 C1447 0.929 . S
H1434 C1448 0.931 . S
H1435 C1450 0.930 . S
C1436 H1424 0.930 . S
C1436 C1437 1.399 . S
C1436 C1441 1.399 . S
C1437 C1436 1.399 . S
C1437 C1438 1.376 . S
C1438 H1425 0.930 . S
C1438 C1437 1.376 . S
C1438 C1439 1.388 . S
C1439 H1426 0.930 . S
C1439 C1438 1.388 . S
C1439 C1440 1.390 . S
C1440 C1439 1.390 . S
C1440 C1441 1.394 . S
C1440 C1446 1.465 . S
C1441 C1436 1.399 . S
C1441 C1440 1.394 . S
C1441 C1442 1.516 . S
C1442 C1441 1.516 . S
C1442 C1443 1.502 . S
C1442 C1444 1.561 . S
C1442 C1445 1.526 . S
C1443 H1427 0.959 . S
C1443 H1428 0.959 . S
C1443 H1429 0.961 . S
C1443 C1442 1.502 . S
C1444 H1430 0.960 . S
C1444 H1431 0.961 . S
C1444 H1432 0.959 . S
C1444 C1442 1.561 . S
C1445 C1442 1.526 . S
C1445 C1446 1.396 . S
C1445 C1450 1.390 . S
C1446 C1440 1.465 . S
C1446 C1445 1.396 . S
C1446 C1447 1.399 . S
C1447 H1433 0.929 . S
C1447 C1446 1.399 . S
C1447 C1448 1.385 . S
C1448 H1434 0.931 . S
C1448 C1447 1.385 . S
C1448 C1449 1.389 . S
C1449 C1448 1.389 . S
C1449 C1450 1.387 . S
C1450 H1435 0.930 . S
C1450 C1445 1.390 . S
C1450 C1449 1.387 . S
H1451 C1463 0.930 . S
H1452 C1465 0.930 . S
H1453 C1466 0.930 . S
H1454 C1470 0.959 . S
H1455 C1470 0.959 . S
H1456 C1470 0.961 . S
H1457 C1471 0.960 . S
H1458 C1471 0.961 . S
H1459 C1471 0.959 . S
H1460 C1474 0.929 . S
H1461 C1475 0.931 . S
H1462 C1477 0.930 . S
C1463 H1451 0.930 . S
C1463 C1464 1.399 . S
C1463 C1468 1.399 . S
C1464 C1463 1.399 . S
C1464 C1465 1.376 . S
C1465 H1452 0.930 . S
C1465 C1464 1.376 . S
C1465 C1466 1.388 . S
C1466 H1453 0.930 . S
C1466 C1465 1.388 . S
C1466 C1467 1.390 . S
C1467 C1466 1.390 . S
C1467 C1468 1.394 . S
C1467 C1473 1.465 . S
C1468 C1463 1.399 . S
C1468 C1467 1.394 . S
C1468 C1469 1.516 . S
C1469 C1468 1.516 . S
C1469 C1470 1.502 . S
C1469 C1471 1.561 . S
C1469 C1472 1.526 . S
C1470 H1454 0.959 . S
C1470 H1455 0.959 . S
C1470 H1456 0.961 . S
C1470 C1469 1.502 . S
C1471 H1457 0.960 . S
C1471 H1458 0.961 . S
C1471 H1459 0.959 . S
C1471 C1469 1.561 . S
C1472 C1469 1.526 . S
C1472 C1473 1.396 . S
C1472 C1477 1.390 . S
C1473 C1467 1.465 . S
C1473 C1472 1.396 . S
C1473 C1474 1.399 . S
C1474 H1460 0.929 . S
C1474 C1473 1.399 . S
C1474 C1475 1.385 . S
C1475 H1461 0.931 . S
C1475 C1474 1.385 . S
C1475 C1476 1.389 . S
C1476 C1475 1.389 . S
C1476 C1477 1.387 . S
C1477 H1462 0.930 . S
C1477 C1472 1.390 . S
C1477 C1476 1.387 . S
H1478 C1490 0.930 . S
H1479 C1492 0.930 . S
H1480 C1493 0.930 . S
H1481 C1497 0.959 . S
H1482 C1497 0.959 . S
H1483 C1497 0.961 . S
H1484 C1498 0.960 . S
H1485 C1498 0.961 . S
H1486 C1498 0.959 . S
H1487 C1501 0.929 . S
H1488 C1502 0.931 . S
H1489 C1504 0.930 . S
C1490 H1478 0.930 . S
C1490 C1491 1.399 . S
C1490 C1495 1.399 . S
C1491 C1490 1.399 . S
C1491 C1492 1.376 . S
C1492 H1479 0.930 . S
C1492 C1491 1.376 . S
C1492 C1493 1.388 . S
C1493 H1480 0.930 . S
C1493 C1492 1.388 . S
C1493 C1494 1.390 . S
C1494 C1493 1.390 . S
C1494 C1495 1.394 . S
C1494 C1500 1.465 . S
C1495 C1490 1.399 . S
C1495 C1494 1.394 . S
C1495 C1496 1.516 . S
C1496 C1495 1.516 . S
C1496 C1497 1.502 . S
C1496 C1498 1.561 . S
C1496 C1499 1.526 . S
C1497 H1481 0.959 . S
C1497 H1482 0.959 . S
C1497 H1483 0.961 . S
C1497 C1496 1.502 . S
C1498 H1484 0.960 . S
C1498 H1485 0.961 . S
C1498 H1486 0.959 . S
C1498 C1496 1.561 . S
C1499 C1496 1.526 . S
C1499 C1500 1.396 . S
C1499 C1504 1.390 . S
C1500 C1494 1.465 . S
C1500 C1499 1.396 . S
C1500 C1501 1.399 . S
C1501 H1487 0.929 . S
C1501 C1500 1.399 . S
C1501 C1502 1.385 . S
C1502 H1488 0.931 . S
C1502 C1501 1.385 . S
C1502 C1503 1.389 . S
C1503 C1502 1.389 . S
C1503 C1504 1.387 . S
C1504 H1489 0.930 . S
C1504 C1499 1.390 . S
C1504 C1503 1.387 . S
H1505 C1517 0.930 . S
H1506 C1519 0.930 . S
H1507 C1520 0.930 . S
H1508 C1524 0.959 . S
H1509 C1524 0.959 . S
H1510 C1524 0.961 . S
H1511 C1525 0.960 . S
H1512 C1525 0.961 . S
H1513 C1525 0.959 . S
H1514 C1528 0.929 . S
H1515 C1529 0.931 . S
H1516 C1531 0.930 . S
C1517 H1505 0.930 . S
C1517 C1518 1.399 . S
C1517 C1522 1.399 . S
C1518 C1517 1.399 . S
C1518 C1519 1.376 . S
C1519 H1506 0.930 . S
C1519 C1518 1.376 . S
C1519 C1520 1.388 . S
C1520 H1507 0.930 . S
C1520 C1519 1.388 . S
C1520 C1521 1.390 . S
C1521 C1520 1.390 . S
C1521 C1522 1.394 . S
C1521 C1527 1.465 . S
C1522 C1517 1.399 . S
C1522 C1521 1.394 . S
C1522 C1523 1.516 . S
C1523 C1522 1.516 . S
C1523 C1524 1.502 . S
C1523 C1525 1.561 . S
C1523 C1526 1.526 . S
C1524 H1508 0.959 . S
C1524 H1509 0.959 . S
C1524 H1510 0.961 . S
C1524 C1523 1.502 . S
C1525 H1511 0.960 . S
C1525 H1512 0.961 . S
C1525 H1513 0.959 . S
C1525 C1523 1.561 . S
C1526 C1523 1.526 . S
C1526 C1527 1.396 . S
C1526 C1531 1.390 . S
C1527 C1521 1.465 . S
C1527 C1526 1.396 . S
C1527 C1528 1.399 . S
C1528 H1514 0.929 . S
C1528 C1527 1.399 . S
C1528 C1529 1.385 . S
C1529 H1515 0.931 . S
C1529 C1528 1.385 . S
C1529 C1530 1.389 . S
C1530 C1529 1.389 . S
C1530 C1531 1.387 . S
C1531 H1516 0.930 . S
C1531 C1526 1.390 . S
C1531 C1530 1.387 . S
H1532 C1544 0.930 . S
H1533 C1546 0.930 . S
H1534 C1547 0.930 . S
H1535 C1551 0.959 . S
H1536 C1551 0.959 . S
H1537 C1551 0.961 . S
H1538 C1552 0.960 . S
H1539 C1552 0.961 . S
H1540 C1552 0.959 . S
H1541 C1555 0.929 . S
H1542 C1556 0.931 . S
H1543 C1558 0.930 . S
C1544 H1532 0.930 . S
C1544 C1545 1.399 1_554 S
C1544 C1549 1.399 . S
C1545 C1544 1.399 1_556 S
C1545 C1546 1.376 . S
C1546 H1533 0.930 . S
C1546 C1545 1.376 . S
C1546 C1547 1.388 . S
C1547 H1534 0.930 . S
C1547 C1546 1.388 . S
C1547 C1548 1.390 . S
C1548 C1547 1.390 . S
C1548 C1549 1.394 1_556 S
C1548 C1554 1.465 . S
C1549 C1544 1.399 . S
C1549 C1548 1.394 1_554 S
C1549 C1550 1.516 . S
C1550 C1549 1.516 . S
C1550 C1551 1.502 . S
C1550 C1552 1.561 . S
C1550 C1553 1.526 . S
C1551 H1535 0.959 . S
C1551 H1536 0.959 . S
C1551 H1537 0.961 . S
C1551 C1550 1.502 . S
C1552 H1538 0.960 . S
C1552 H1539 0.961 . S
C1552 H1540 0.959 . S
C1552 C1550 1.561 . S
C1553 C1550 1.526 . S
C1553 C1554 1.396 1_554 S
C1553 C1558 1.390 . S
C1554 C1548 1.465 . S
C1554 C1553 1.396 1_556 S
C1554 C1555 1.399 . S
C1555 H1541 0.929 . S
C1555 C1554 1.399 . S
C1555 C1556 1.385 . S
C1556 H1542 0.931 . S
C1556 C1555 1.385 . S
C1556 C1557 1.389 . S
C1557 C1556 1.389 . S
C1557 C1558 1.387 1_556 S
C1558 H1543 0.930 . S
C1558 C1553 1.390 . S
C1558 C1557 1.387 1_554 S
H1559 C1571 0.930 . S
H1560 C1573 0.930 . S
H1561 C1574 0.930 . S
H1562 C1578 0.959 . S
H1563 C1578 0.959 . S
H1564 C1578 0.961 . S
H1565 C1579 0.960 . S
H1566 C1579 0.961 . S
H1567 C1579 0.959 . S
H1568 C1582 0.929 . S
H1569 C1583 0.931 . S
H1570 C1585 0.930 . S
C1571 H1559 0.930 . S
C1571 C1572 1.399 . S
C1571 C1576 1.399 . S
C1572 C1571 1.399 . S
C1572 C1573 1.376 . S
C1573 H1560 0.930 . S
C1573 C1572 1.376 . S
C1573 C1574 1.388 . S
C1574 H1561 0.930 . S
C1574 C1573 1.388 . S
C1574 C1575 1.390 . S
C1575 C1574 1.390 . S
C1575 C1576 1.394 . S
C1575 C1581 1.465 . S
C1576 C1571 1.399 . S
C1576 C1575 1.394 . S
C1576 C1577 1.516 . S
C1577 C1576 1.516 . S
C1577 C1578 1.502 . S
C1577 C1579 1.561 . S
C1577 C1580 1.526 . S
C1578 H1562 0.959 . S
C1578 H1563 0.959 . S
C1578 H1564 0.961 . S
C1578 C1577 1.502 . S
C1579 H1565 0.960 . S
C1579 H1566 0.961 . S
C1579 H1567 0.959 . S
C1579 C1577 1.561 . S
C1580 C1577 1.526 . S
C1580 C1581 1.396 . S
C1580 C1585 1.390 . S
C1581 C1575 1.465 . S
C1581 C1580 1.396 . S
C1581 C1582 1.399 . S
C1582 H1568 0.929 . S
C1582 C1581 1.399 . S
C1582 C1583 1.385 . S
C1583 H1569 0.931 . S
C1583 C1582 1.385 . S
C1583 C1584 1.389 . S
C1584 C1583 1.389 . S
C1584 C1585 1.387 . S
C1585 H1570 0.930 . S
C1585 C1580 1.390 . S
C1585 C1584 1.387 . S
H1586 C1598 0.930 . S
H1587 C1600 0.930 . S
H1588 C1601 0.930 . S
H1589 C1605 0.959 1_554 S
H1590 C1605 0.959 . S
H1591 C1605 0.961 . S
H1592 C1606 0.960 . S
H1593 C1606 0.961 . S
H1594 C1606 0.959 . S
H1595 C1609 0.929 . S
H1596 C1610 0.931 . S
H1597 C1612 0.894 1_556 S
C1598 H1586 0.930 . S
C1598 C1599 1.399 . S
C1598 C1603 1.399 . S
C1599 C1598 1.399 . S
C1599 C1600 1.376 . S
C1600 H1587 0.930 . S
C1600 C1599 1.376 . S
C1600 C1601 1.388 . S
C1601 H1588 0.930 . S
C1601 C1600 1.388 . S
C1601 C1602 1.390 . S
C1602 C1601 1.390 . S
C1602 C1603 1.394 . S
C1602 C1608 1.465 . S
C1603 C1598 1.399 . S
C1603 C1602 1.394 . S
C1603 C1604 1.516 1_554 S
C1604 C1603 1.516 1_556 S
C1604 C1605 1.502 . S
C1604 C1606 1.561 . S
C1604 C1607 1.526 1_556 S
C1605 H1589 0.959 1_556 S
C1605 H1590 0.959 . S
C1605 H1591 0.961 . S
C1605 C1604 1.502 . S
C1606 H1592 0.960 . S
C1606 H1593 0.961 . S
C1606 H1594 0.959 . S
C1606 C1604 1.561 . S
C1607 C1604 1.526 1_554 S
C1607 C1608 1.396 . S
C1607 C1612 1.406 . S
C1608 C1602 1.465 . S
C1608 C1607 1.396 . S
C1608 C1609 1.399 . S
C1609 H1595 0.929 . S
C1609 C1608 1.399 . S
C1609 C1610 1.385 . S
C1610 H1596 0.931 . S
C1610 C1609 1.385 . S
C1610 C1611 1.389 . S
C1611 C1610 1.389 . S
C1611 C1612 1.407 . S
C1612 H1597 0.894 1_554 S
C1612 C1607 1.406 . S
C1612 C1611 1.407 . S
H1613 C1625 0.930 . S
H1614 C1627 0.930 . S
H1615 C1628 0.930 . S
H1616 C1632 0.959 . S
H1617 C1632 0.959 . S
H1618 C1632 0.961 . S
H1619 C1633 0.960 . S
H1620 C1633 0.961 . S
H1621 C1633 0.959 . S
H1622 C1636 0.955 . S
H1623 C1637 0.931 . S
H1624 C1639 0.930 . S
C1625 H1613 0.930 . S
C1625 C1626 1.399 . S
C1625 C1630 1.399 1_545 S
C1626 C1625 1.399 . S
C1626 C1627 1.376 1_545 S
C1627 H1614 0.930 . S
C1627 C1626 1.376 1_565 S
C1627 C1628 1.388 . S
C1628 H1615 0.930 . S
C1628 C1627 1.388 . S
C1628 C1629 1.390 . S
C1629 C1628 1.390 . S
C1629 C1630 1.394 . S
C1629 C1635 1.465 . S
C1630 C1625 1.399 1_565 S
C1630 C1629 1.394 . S
C1630 C1631 1.516 . S
C1631 C1630 1.516 . S
C1631 C1632 1.502 1_565 S
C1631 C1633 1.561 . S
C1631 C1634 1.526 . S
C1632 H1616 0.959 . S
C1632 H1617 0.959 . S
C1632 H1618 0.961 . S
C1632 C1631 1.502 1_545 S
C1633 H1619 0.960 . S
C1633 H1620 0.961 . S
C1633 H1621 0.959 . S
C1633 C1631 1.561 . S
C1634 C1631 1.526 . S
C1634 C1635 1.396 . S
C1634 C1639 1.390 . S
C1635 C1629 1.465 . S
C1635 C1634 1.396 . S
C1635 C1636 1.399 . S
C1636 H1622 0.955 . S
C1636 C1635 1.399 . S
C1636 C1637 1.385 . S
C1637 H1623 0.931 . S
C1637 C1636 1.385 . S
C1637 C1638 1.389 . S
C1638 C1637 1.389 . S
C1638 C1639 1.387 . S
C1639 H1624 0.930 . S
C1639 C1634 1.390 . S
C1639 C1638 1.387 . S
C369 C187 1.519 . S
C357 C60 1.549 . S
C396 C195 1.105 . S
C384 C76 1.354 . S
C411 C81 1.633 . S
C423 C215 1.586 . S
C450 C229 1.564 . S
C438 C48 1.582 . S
C477 C244 1.517 . S
C465 C115 1.520 . S
C504 C258 1.611 . S
C492 C136 1.602 . S
C519 C131 1.405 . S
C531 C272 1.394 . S
C558 C278 1.466 . S
C546 C104 1.519 . S
C573 C126 1.542 . S
C585 C292 1.488 . S
C612 C313 1.433 . S
C600 C103 1.446 . S
C627 C120 1.376 . S
C639 C293 1.211 . S
C666 C314 1.421 . S
C654 C142 1.424 . S
C681 C82 1.473 . S
C693 C321 1.227 . S
C708 C54 1.788 . S
C720 C327 1.767 . S
C735 C65 1.422 . S
C747 C320 1.363 . S
C762 C71 1.220 . S
C774 C328 1.248 . S
C789 C37 1.565 . S
C801 C222 1.548 . S
C816 C158 1.926 . S
C828 C223 1.716 . S
C855 C180 1.368 . S
C843 C169 1.409 1_565 S
C882 C201 1.222 . S
C870 C98 1.212 . S
C897 C49 1.701 1_545 S
C909 C236 1.662 . S
C936 C286 1.447 . S
C924 C125 1.438 . S
C963 C237 1.173 . S
C951 C109 1.330 . S
C990 C265 1.528 . S
C978 C137 1.785 . S
C1017 C271 1.484 . S
C1005 C159 1.540 . S
C1032 C175 1.350 . S
C1044 C279 1.077 . S
C1059 C92 1.618 . S
C1071 C243 1.606 . S
C1098 C257 1.566 . S
C1086 C147 1.594 . S
C1113 C38 1.512 . S
C1125 C216 1.520 . S
C1152 C230 1.613 . S
C1140 C4 1.604 . S
C1179 C188 1.391 . S
C1167 C21 1.410 . S
C1206 C194 1.495 . S
C1194 C27 1.503 . S
C1221 C16 1.528 . S
C1233 C306 1.525 . S
C1248 C26 1.446 . S
C1260 C299 1.424 . S
C1275 C43 1.376 . S
C1287 C307 1.236 . S
C1302 C10 1.432 1_556 S
C1314 C300 1.437 . S
C1341 C335 1.214 . S
C1329 C93 1.476 . S
C1368 C341 1.754 . S
C1356 C153 1.785 . S
C1395 C334 1.334 . S
C1383 C164 1.426 . S
C1410 C170 1.259 1_554 S
C1422 C342 1.245 . S
C1437 C114 1.573 . S
C1449 C250 1.553 . S
C1476 C251 1.743 . S
C1464 C59 1.931 . S
C1503 C264 1.362 . S
C1491 C70 1.411 . S
C1530 C285 1.220 . S
C1518 C87 1.226 . S
C1545 C148 1.693 . S
C1557 C208 1.690 . S
C1584 C202 1.446 . S
C1572 C15 1.444 . S
C1599 C32 1.334 . S
C1611 C209 1.214 . S
C1638 C181 1.460 . S
C1626 C5 1.799 . S
