# Generated by pormake.
# Topology pts, (4,4)-cn, num edge types: 1
# Building blocks:
#     Node 0, Type 0, BuildingBlock: NAHDIM_clean_linker_0, # of connection points: 4
#     Node 1, Type 0, BuildingBlock: NAHDIM_clean_linker_0, # of connection points: 4
#     Node 2, Type 1, BuildingBlock: AZAVOO_clean_sbu_0, # of connection points: 4
#     Node 3, Type 1, BuildingBlock: AZAVOO_clean_sbu_0, # of connection points: 4
#     Edge 4, Type (0, 1), BuildingBlock: TEMPAE_clean_linker_10, # of connection points: 2
#     Edge 5, Type (0, 1), BuildingBlock: TEMPAE_clean_linker_10, # of connection points: 2
#     Edge 6, Type (0, 1), BuildingBlock: TEMPAE_clean_linker_10, # of connection points: 2
#     Edge 7, Type (0, 1), BuildingBlock: TEMPAE_clean_linker_10, # of connection points: 2
#     Edge 8, Type (0, 1), BuildingBlock: TEMPAE_clean_linker_10, # of connection points: 2
#     Edge 9, Type (0, 1), BuildingBlock: TEMPAE_clean_linker_10, # of connection points: 2
#     Edge 10, Type (0, 1), BuildingBlock: TEMPAE_clean_linker_10, # of connection points: 2
#     Edge 11, Type (0, 1), BuildingBlock: TEMPAE_clean_linker_10, # of connection points: 2
# Relax obj value: 0.016
# Max RMSD: 0.067
# Mean RMSD: 0.062
data_MOF--net-pts--node1-AZAVOO_clean_sbu_0--node2-NAHDIM_clean_linker_0--edge1-TEMPAE_clean_linker_10
_symmetry_space_group_name_H-M    P1
_symmetry_Int_Tables_number       1
_symmetry_cell_setting            triclinic
loop_
_symmetry_equiv_pos_as_xyz
'x, y, z'
_cell_length_a     32.025325
_cell_length_b     32.634321
_cell_length_c     53.331992
_cell_angle_alpha  90.566872
_cell_angle_beta   95.634298
_cell_angle_gamma 89.963107
loop_
_atom_site_label
_atom_site_type_symbol
_atom_site_fract_x
_atom_site_fract_y
_atom_site_fract_z
_atom_type_partial_charge
C0 C 0.71689 0.97522 0.15815 0.0
C1 C 0.74982 0.98785 0.14058 0.0
C2 C 0.70286 0.0242 0.10893 0.0
C3 C 0.68409 0.98925 0.09699 0.0
C4 C 0.64801 0.99262 0.07995 0.0
C5 C 0.63033 0.03169 0.07464 0.0
C6 C 0.64996 0.06705 0.08589 0.0
C7 C 0.68621 0.06282 0.10277 0.0
C8 C 0.62818 0.95431 0.06799 0.0
C9 C 0.63206 0.10916 0.0805 0.0
C10 C 0.3147 0.97678 0.08986 0.0
C11 C 0.34423 0.98865 0.11317 0.0
C12 C 0.40318 0.02322 0.09551 0.0
C13 C 0.42156 0.06128 0.09196 0.0
C14 C 0.45751 0.06471 0.07904 0.0
C15 C 0.47569 0.029 0.06952 0.0
C16 C 0.45751 0.99028 0.07313 0.0
C17 C 0.42134 0.98774 0.08596 0.0
C18 C 0.47604 0.1065 0.07548 0.0
C19 C 0.47632 0.95157 0.06335 0.0
C20 C 0.38614 0.03117 0.90553 0.0
C21 C 0.40158 0.0701 0.91337 0.0
C22 C 0.44107 0.07441 0.92714 0.0
C23 C 0.46561 0.03919 0.93323 0.0
C24 C 0.45066 0.00014 0.92485 0.0
C25 C 0.41114 0.99671 0.91107 0.0
C26 C 0.45629 0.11652 0.93566 0.0
C27 C 0.47609 0.96195 0.93092 0.0
C28 C 0.79392 0.08837 0.92963 0.0
C29 C 0.76777 0.0623 0.9099 0.0
C30 C 0.69347 0.07225 0.91531 0.0
C31 C 0.66798 0.10493 0.92131 0.0
C32 C 0.63145 0.09835 0.93327 0.0
C33 C 0.61974 0.05789 0.93884 0.0
C34 C 0.64449 0.0245 0.93185 0.0
C35 C 0.68114 0.03202 0.92014 0.0
C36 C 0.6056 0.13466 0.94022 0.0
C37 C 0.63221 0.98092 0.93684 0.0
C38 C 0.59009 0.03509 0.0584 0.0
C39 C 0.55291 0.03193 0.06998 0.0
C40 C 0.51379 0.03221 0.05584 0.0
C41 C 0.51149 0.03523 0.0293 0.0
C42 C 0.47275 0.03435 0.01442 0.0
C43 C 0.47084 0.03661 0.9883 0.0
C44 C 0.50756 0.04059 0.97604 0.0
C45 C 0.50589 0.04286 0.94948 0.0
C46 C 0.54288 0.04815 0.93795 0.0
C47 C 0.58187 0.05068 0.95224 0.0
C48 C 0.58427 0.04709 0.97879 0.0
C49 C 0.62302 0.04821 0.99371 0.0
C50 C 0.62507 0.04404 0.01977 0.0
C51 C 0.58839 0.03948 0.03196 0.0
C52 C 0.54893 0.03909 0.01734 0.0
C53 C 0.54692 0.04229 0.9907 0.0
C54 C 0.29464 0.06474 0.91114 0.0
C55 C 0.31619 0.05407 0.88746 0.0
O56 O 0.7363 0.02205 0.12676 0.0
O57 O 0.7289 0.08058 0.90421 0.0
O58 O 0.34746 0.02518 0.89295 0.0
O59 O 0.36815 0.02245 0.10808 0.0
H60 H 0.75524 0.96208 0.12749 0.0
H61 H 0.68699 0.96638 0.14717 0.0
H62 H 0.71053 0.00098 0.17102 0.0
H63 H 0.72808 0.94839 0.16959 0.0
H64 H 0.69701 0.95916 0.10107 0.0
H65 H 0.70106 0.08967 0.11184 0.0
H66 H 0.59627 0.95041 0.07409 0.0
H67 H 0.64683 0.92637 0.0731 0.0
H68 H 0.62475 0.95721 0.04716 0.0
H69 H 0.65172 0.13375 0.09015 0.0
H70 H 0.60004 0.11104 0.08676 0.0
H71 H 0.6292 0.11469 0.05989 0.0
H72 H 0.36519 0.96234 0.11858 0.0
H73 H 0.29526 0.94995 0.094 0.0
H74 H 0.33296 0.96837 0.07393 0.0
H75 H 0.29367 0.00275 0.08391 0.0
H76 H 0.40743 0.08849 0.09933 0.0
H77 H 0.40763 0.95795 0.08833 0.0
H78 H 0.47762 0.11213 0.0551 0.0
H79 H 0.50861 0.10767 0.08477 0.0
H80 H 0.45752 0.13142 0.08342 0.0
H81 H 0.45931 0.92363 0.06838 0.0
H82 H 0.50967 0.94899 0.07111 0.0
H83 H 0.47565 0.95289 0.04252 0.0
H84 H 0.33011 0.08234 0.88029 0.0
H85 H 0.38301 0.09727 0.90914 0.0
H86 H 0.39919 0.96685 0.90486 0.0
H87 H 0.46018 0.11802 0.95656 0.0
H88 H 0.4343 0.14109 0.92859 0.0
H89 H 0.48747 0.12244 0.92898 0.0
H90 H 0.4607 0.93399 0.92232 0.0
H91 H 0.48081 0.95804 0.95166 0.0
H92 H 0.50757 0.96506 0.92407 0.0
H93 H 0.76437 0.03154 0.91823 0.0
H94 H 0.82535 0.07437 0.93421 0.0
H95 H 0.77796 0.09016 0.94718 0.0
H96 H 0.79788 0.11999 0.92268 0.0
H97 H 0.67735 0.13581 0.91707 0.0
H98 H 0.69958 0.0064 0.9144 0.0
H99 H 0.60247 0.13463 0.96077 0.0
H100 H 0.57353 0.13226 0.9303 0.0
H101 H 0.61961 0.16427 0.93525 0.0
H102 H 0.65351 0.95823 0.92907 0.0
H103 H 0.59964 0.97503 0.92841 0.0
H104 H 0.63281 0.97623 0.95746 0.0
H105 H 0.55445 0.02879 0.09029 0.0
H106 H 0.44344 0.03154 0.02279 0.0
H107 H 0.44012 0.0354 0.97785 0.0
H108 H 0.5413 0.05039 0.9176 0.0
H109 H 0.65227 0.05193 0.9854 0.0
H110 H 0.65576 0.04471 0.03027 0.0
H111 H 0.28129 0.03682 0.91905 0.0
H112 H 0.26899 0.0872 0.90654 0.0
H113 H 0.31734 0.07867 0.92583 0.0
C114 C 0.15314 0.28104 0.58589 0.0
C115 C 0.1153 0.2941 0.59954 0.0
C116 C 0.07431 0.34286 0.57197 0.0
C117 C 0.03555 0.34878 0.55806 0.0
C118 C 0.0242 0.38709 0.54783 0.0
C119 C 0.0528 0.42015 0.55126 0.0
C120 C 0.0927 0.4141 0.56458 0.0
C121 C 0.10306 0.37555 0.57488 0.0
C122 C 0.98119 0.39251 0.53394 0.0
C123 C 0.12407 0.44863 0.56833 0.0
C124 C 0.93768 0.59114 0.67962 0.0
C125 C 0.96486 0.60936 0.6605 0.0
C126 C 0.95995 0.58975 0.61587 0.0
C127 C 0.00267 0.59301 0.61227 0.0
C128 C 0.01864 0.57415 0.59144 0.0
C129 C 0.99131 0.5517 0.57391 0.0
C130 C 0.94792 0.55009 0.57688 0.0
C131 C 0.93275 0.56965 0.59771 0.0
C132 C 0.06489 0.57729 0.58849 0.0
C133 C 0.91784 0.52645 0.55857 0.0
C134 C 0.94737 0.69173 0.43 0.0
C135 C 0.99058 0.69105 0.43786 0.0
C136 C 0.01089 0.65415 0.44481 0.0
C137 C 0.98751 0.61732 0.44386 0.0
C138 C 0.94436 0.61774 0.43509 0.0
C139 C 0.92495 0.65499 0.42806 0.0
C140 C 0.05713 0.65453 0.45357 0.0
C141 C 0.91858 0.57895 0.43361 0.0
C142 C 0.15888 0.43317 0.34208 0.0
C143 C 0.13766 0.40447 0.35951 0.0
C144 C 0.08588 0.44146 0.38247 0.0
C145 C 0.11417 0.46528 0.39832 0.0
C146 C 0.1001 0.48903 0.41795 0.0
C147 C 0.05703 0.48869 0.4219 0.0
C148 C 0.02859 0.46465 0.40599 0.0
C149 C 0.04339 0.4417 0.38633 0.0
C150 C 0.13111 0.51493 0.4343 0.0
C151 C 0.98246 0.46348 0.4096 0.0
C152 C 0.0396 0.46177 0.54278 0.0
C153 C 0.02373 0.4878 0.56048 0.0
C154 C 0.00863 0.52677 0.55391 0.0
C155 C 0.00913 0.54036 0.52886 0.0
C156 C 0.99352 0.5791 0.52147 0.0
C157 C 0.99302 0.59168 0.49658 0.0
C158 C 0.00875 0.56626 0.47823 0.0
C159 C 0.00771 0.57849 0.45281 0.0
C160 C 0.02429 0.55287 0.43514 0.0
C161 C 0.04135 0.51467 0.442 0.0
C162 C 0.04183 0.50144 0.46723 0.0
C163 C 0.0577 0.46277 0.47469 0.0
C164 C 0.05733 0.44978 0.49947 0.0
C165 C 0.04103 0.47497 0.51771 0.0
C166 C 0.02542 0.51432 0.51069 0.0
C167 C 0.02556 0.52744 0.4854 0.0
C168 C 0.89863 0.78959 0.4388 0.0
C169 C 0.93782 0.76593 0.43291 0.0
O170 O 0.08231 0.3053 0.58216 0.0
O171 O 0.09778 0.41863 0.36294 0.0
O172 O 0.92616 0.72703 0.4243 0.0
O173 O 0.94387 0.60529 0.63659 0.0
H174 H 0.12437 0.32036 0.6124 0.0
H175 H 0.16374 0.30669 0.57457 0.0
H176 H 0.14487 0.25467 0.573 0.0
H177 H 0.17966 0.2721 0.59976 0.0
H178 H 0.01372 0.32335 0.55575 0.0
H179 H 0.13353 0.37141 0.5852 0.0
H180 H 0.96399 0.41712 0.54314 0.0
H181 H 0.96226 0.36395 0.5334 0.0
H182 H 0.98427 0.40213 0.51431 0.0
H183 H 0.15536 0.43795 0.57657 0.0
H184 H 0.1124 0.47208 0.58116 0.0
H185 H 0.12762 0.46368 0.55007 0.0
H186 H 0.99455 0.59134 0.66199 0.0
H187 H 0.95391 0.5937 0.69897 0.0
H188 H 0.93178 0.55818 0.67522 0.0
H189 H 0.90699 0.6072 0.67904 0.0
H190 H 0.02361 0.61003 0.62575 0.0
H191 H 0.89971 0.56794 0.60046 0.0
H192 H 0.06965 0.58667 0.56901 0.0
H193 H 0.07971 0.54677 0.59164 0.0
H194 H 0.08109 0.59956 0.60201 0.0
H195 H 0.88502 0.52812 0.56359 0.0
H196 H 0.92749 0.49378 0.55813 0.0
H197 H 0.91885 0.53866 0.53929 0.0
H198 H 0.958 0.76404 0.45111 0.0
H199 H 0.00856 0.71916 0.43862 0.0
H200 H 0.89178 0.65578 0.42165 0.0
H201 H 0.06194 0.64453 0.47348 0.0
H202 H 0.07132 0.68538 0.45215 0.0
H203 H 0.0739 0.63245 0.44215 0.0
H204 H 0.88527 0.58452 0.42657 0.0
H205 H 0.9197 0.56487 0.45253 0.0
H206 H 0.93208 0.55654 0.42086 0.0
H207 H 0.15736 0.40339 0.37789 0.0
H208 H 0.19036 0.42119 0.33875 0.0
H209 H 0.16294 0.46406 0.35089 0.0
H210 H 0.13969 0.43636 0.3237 0.0
H211 H 0.14702 0.46614 0.39521 0.0
H212 H 0.02178 0.42348 0.3739 0.0
H213 H 0.13195 0.50491 0.45417 0.0
H214 H 0.12095 0.54748 0.43365 0.0
H215 H 0.16333 0.5129 0.42833 0.0
H216 H 0.96533 0.43985 0.39748 0.0
H217 H 0.96831 0.49383 0.40489 0.0
H218 H 0.97805 0.45719 0.42959 0.0
H219 H 0.02257 0.47732 0.57966 0.0
H220 H 0.9811 0.59994 0.53481 0.0
H221 H 0.98017 0.62165 0.49193 0.0
H222 H 0.02329 0.56251 0.41567 0.0
H223 H 0.07039 0.44201 0.46141 0.0
H224 H 0.06984 0.41969 0.50416 0.0
H225 H 0.87548 0.79143 0.42192 0.0
H226 H 0.90721 0.82114 0.44546 0.0
H227 H 0.88353 0.77381 0.45392 0.0
Mg228 Mg 0.09662 0.01788 0.29259 0.0
O229 O 0.03245 0.02024 0.26888 0.0
O230 O 0.98375 0.03034 0.2956 0.0
Mg231 Mg 0.01588 0.0357 0.3356 0.0
C232 C 0.9942 0.02479 0.27332 0.0
C233 C 0.16843 0.03424 0.25875 0.0
O234 O 0.18646 0.04553 0.28093 0.0
O235 O 0.09633 0.08756 0.2978 0.0
O236 O 0.04888 0.09474 0.32552 0.0
O237 O 0.08922 0.95046 0.29838 0.0
O238 O 0.06757 0.99801 0.32378 0.0
C239 C 0.07589 0.10992 0.31214 0.0
C240 C 0.06983 0.95976 0.31785 0.0
O241 O 0.13047 0.0223 0.25699 0.0
Mg242 Mg 0.99291 0.98031 0.7271 0.0
O243 O 0.05466 0.97589 0.75283 0.0
O244 O 0.10375 0.95009 0.73022 0.0
Mg245 Mg 0.07346 0.93726 0.69026 0.0
C246 C 0.09239 0.96451 0.75083 0.0
C247 C 0.92366 0.0134 0.75649 0.0
O248 O 0.90419 0.99184 0.73795 0.0
O249 O 0.01869 0.03651 0.70842 0.0
O250 O 0.06542 0.0069 0.68544 0.0
O251 O 0.97551 0.9163 0.73586 0.0
O252 O 0.01144 0.93278 0.70418 0.0
C253 C 0.04628 0.03865 0.69269 0.0
C254 C 0.99523 0.90468 0.71696 0.0
O255 O 0.96324 0.01759 0.75715 0.0
C256 C 0.29816 0.03614 0.13657 0.0
C257 C 0.31882 0.99837 0.13502 0.0
C258 C 0.27319 0.04459 0.15624 0.0
C259 C 0.26842 0.0144 0.17464 0.0
C260 C 0.2889 0.97612 0.17304 0.0
C261 C 0.31366 0.96853 0.1532 0.0
C262 C 0.25174 0.08569 0.15726 0.0
C263 C 0.28446 0.94306 0.19222 0.0
C264 C 0.23544 0.04385 0.23893 0.0
C265 C 0.19305 0.03221 0.2366 0.0
C266 C 0.26006 0.03924 0.2187 0.0
C267 C 0.24188 0.02256 0.19556 0.0
C268 C 0.19882 0.01187 0.19284 0.0
C269 C 0.17491 0.01685 0.21338 0.0
C270 C 0.30583 0.05114 0.22231 0.0
C271 C 0.17826 0.99407 0.16844 0.0
H272 H 0.3014 0.05898 0.12227 0.0
H273 H 0.32894 0.93905 0.15182 0.0
H274 H 0.21725 0.08139 0.15619 0.0
H275 H 0.26151 0.1013 0.17546 0.0
H276 H 0.25904 0.10601 0.14167 0.0
H277 H 0.30266 0.91508 0.18838 0.0
H278 H 0.29536 0.95468 0.21136 0.0
H279 H 0.25096 0.9345 0.19231 0.0
H280 H 0.24973 0.05589 0.25675 0.0
H281 H 0.14217 0.00786 0.21136 0.0
H282 H 0.31319 0.0727 0.2074 0.0
H283 H 0.32563 0.02353 0.22058 0.0
H284 H 0.31463 0.06572 0.24099 0.0
H285 H 0.18337 0.0145 0.15253 0.0
H286 H 0.14398 0.98948 0.16892 0.0
H287 H 0.19278 0.96409 0.16456 0.0
C288 C 0.07644 0.22732 0.60404 0.0
C289 C 0.10167 0.25896 0.61523 0.0
C290 C 0.06568 0.19346 0.61807 0.0
C291 C 0.08114 0.19074 0.6438 0.0
C292 C 0.1064 0.22267 0.65526 0.0
C293 C 0.11647 0.25634 0.6408 0.0
C294 C 0.03873 0.16001 0.60514 0.0
C295 C 0.12384 0.22064 0.68256 0.0
C296 C 0.02955 0.11259 0.68339 0.0
C297 C 0.0563 0.07876 0.68188 0.0
C298 C 0.03763 0.14965 0.67152 0.0
C299 C 0.07346 0.15299 0.65807 0.0
C300 C 0.10127 0.11942 0.65722 0.0
C301 C 0.09229 0.08276 0.66904 0.0
C302 C 0.00723 0.18481 0.67274 0.0
C303 C 0.14008 0.12187 0.64331 0.0
H304 H 0.06559 0.22881 0.58417 0.0
H305 H 0.13654 0.2804 0.64939 0.0
H306 H 0.0572 0.1313 0.60456 0.0
H307 H 0.01156 0.15361 0.61591 0.0
H308 H 0.02682 0.16814 0.58555 0.0
H309 H 0.14057 0.24921 0.68908 0.0
H310 H 0.09823 0.21508 0.69468 0.0
H311 H 0.14606 0.19459 0.68523 0.0
H312 H 0.00168 0.10978 0.69325 0.0
H313 H 0.11343 0.05698 0.66798 0.0
H314 H 0.99241 0.19151 0.65353 0.0
H315 H 0.02411 0.21291 0.67986 0.0
H316 H 0.98212 0.17812 0.68507 0.0
H317 H 0.1309 0.12641 0.62292 0.0
H318 H 0.15963 0.09377 0.64557 0.0
H319 H 0.1595 0.14858 0.65017 0.0
C320 C 0.81807 0.96428 0.16341 0.0
C321 C 0.79089 0.99678 0.15636 0.0
C322 C 0.85336 0.97012 0.18084 0.0
C323 C 0.86186 0.00954 0.19143 0.0
C324 C 0.83546 0.04286 0.1837 0.0
C325 C 0.79993 0.03599 0.16655 0.0
C326 C 0.88025 0.93363 0.1889 0.0
C327 C 0.84374 0.08544 0.19435 0.0
C328 C 0.91905 0.01424 0.25715 0.0
C329 C 0.9605 0.02216 0.2522 0.0
C330 C 0.88678 0.01026 0.23753 0.0
C331 C 0.89592 0.01497 0.21229 0.0
C332 C 0.93751 0.02372 0.20712 0.0
C333 C 0.96943 0.02685 0.22714 0.0
C334 C 0.84296 0.00027 0.24384 0.0
C335 C 0.94828 0.02961 0.18047 0.0
H336 H 0.81072 0.93382 0.15596 0.0
H337 H 0.77865 0.06112 0.16163 0.0
H338 H 0.91378 0.94034 0.18714 0.0
H339 H 0.87729 0.9271 0.20903 0.0
H340 H 0.87117 0.90569 0.1776 0.0
H341 H 0.82334 0.10877 0.18427 0.0
H342 H 0.83801 0.08615 0.21453 0.0
H343 H 0.87703 0.09406 0.19328 0.0
H344 H 0.91187 0.01028 0.27642 0.0
H345 H 0.00132 0.03321 0.22317 0.0
H346 H 0.83234 0.97096 0.23461 0.0
H347 H 0.82075 0.0244 0.23651 0.0
H348 H 0.8411 0.99755 0.26445 0.0
H349 H 0.94164 0.00104 0.16935 0.0
H350 H 0.98176 0.0379 0.17968 0.0
H351 H 0.92836 0.05407 0.17126 0.0
C352 C 0.94355 0.6841 0.6605 0.0
C353 C 0.97394 0.654 0.66681 0.0
C354 C 0.95005 0.72494 0.66836 0.0
C355 C 0.98764 0.73586 0.68314 0.0
C356 C 0.01868 0.70573 0.68929 0.0
C357 C 0.01138 0.6651 0.68111 0.0
C358 C 0.9162 0.7562 0.66139 0.0
C359 C 0.05907 0.71618 0.70507 0.0
C360 C 0.01378 0.84939 0.68715 0.0
C361 C 0.99753 0.8609 0.70968 0.0
C362 C 0.01195 0.80853 0.67862 0.0
C363 C 0.99348 0.77849 0.693 0.0
C364 C 0.97847 0.78964 0.71622 0.0
C365 C 0.98062 0.83073 0.72426 0.0
C366 C 0.02832 0.7978 0.65378 0.0
C367 C 0.95879 0.75842 0.73216 0.0
H368 H 0.91426 0.67547 0.64984 0.0
H369 H 0.03462 0.64175 0.68633 0.0
H370 H 0.90374 0.76824 0.6787 0.0
H371 H 0.92942 0.78254 0.65182 0.0
H372 H 0.88972 0.74315 0.64879 0.0
H373 H 0.08095 0.68972 0.70705 0.0
H374 H 0.07505 0.742 0.69658 0.0
H375 H 0.05212 0.72629 0.72415 0.0
H376 H 0.02674 0.87252 0.67571 0.0
H377 H 0.96808 0.83935 0.74172 0.0
H378 H 0.0019 0.78798 0.64002 0.0
H379 H 0.05057 0.77173 0.65612 0.0
H380 H 0.04444 0.82406 0.64577 0.0
H381 H 0.92953 0.7464 0.72182 0.0
H382 H 0.95107 0.77152 0.75045 0.0
H383 H 0.98027 0.73204 0.73595 0.0
C384 C 0.26792 0.06251 0.8474 0.0
C385 C 0.28403 0.03731 0.86718 0.0
C386 C 0.23675 0.04829 0.82905 0.0
C387 C 0.22091 0.00799 0.83066 0.0
C388 C 0.23683 0.98243 0.85067 0.0
C389 C 0.26814 0.99743 0.86873 0.0
C390 C 0.2206 0.07651 0.80801 0.0
C391 C 0.22055 0.93939 0.85311 0.0
C392 C 0.11388 0.98899 0.79502 0.0
C393 C 0.12476 0.97144 0.7724 0.0
C394 C 0.14476 -0.00028 0.81451 0.0
C395 C 0.1876 0.99286 0.81134 0.0
C396 C 0.19871 0.97374 0.78901 0.0
C397 C 0.16721 0.96321 0.76985 0.0
C398 C 0.13163 0.01979 0.83814 0.0
C399 C 0.24403 0.96586 0.78492 0.0
H400 H 0.27962 0.09355 0.84635 0.0
H401 H 0.28003 0.9781 0.88424 0.0
H402 H 0.22527 0.06226 0.78951 0.0
H403 H 0.18641 0.08145 0.80844 0.0
H404 H 0.23655 0.10679 0.8093 0.0
H405 H 0.23647 0.92332 0.86965 0.0
H406 H 0.18635 0.94017 0.85495 0.0
H407 H 0.22509 0.92131 0.83586 0.0
H408 H 0.08124 0.99536 0.79729 0.0
H409 H 0.17608 0.94958 0.75254 0.0
H410 H 0.14324 0.05183 0.83949 0.0
H411 H 0.1458 0.00353 0.85506 0.0
H412 H 0.097 0.02018 0.83849 0.0
H413 H 0.26078 0.99548 0.78398 0.0
H414 H 0.2473 0.9483 0.76727 0.0
H415 H 0.25982 0.94864 0.801 0.0
C416 C 0.15507 0.32879 0.36082 0.0
C417 C 0.13375 0.36153 0.34848 0.0
C418 C 0.14825 0.28829 0.35232 0.0
C419 C 0.11957 0.28037 0.33088 0.0
C420 C 0.09962 0.31345 0.31756 0.0
C421 C 0.10678 0.35362 0.32659 0.0
C422 C 0.17002 0.25384 0.3671 0.0
C423 C 0.06908 0.30631 0.29453 0.0
C424 C 0.11796 0.17233 0.30312 0.0
C425 C 0.08521 0.15441 0.31487 0.0
C426 C 0.12897 0.21368 0.3076 0.0
C427 C 0.10682 0.23748 0.32426 0.0
C428 C 0.07301 0.21989 0.33555 0.0
C429 C 0.06256 0.17874 0.33067 0.0
C430 C 0.16495 0.23159 0.29504 0.0
C431 C 0.04853 0.24421 0.35344 0.0
H432 H 0.17606 0.33474 0.37767 0.0
H433 H 0.09021 0.37884 0.31701 0.0
H434 H 0.14655 0.23585 0.37634 0.0
H435 H 0.18514 0.23266 0.35434 0.0
H436 H 0.19423 0.26524 0.38187 0.0
H437 H 0.06035 0.33526 0.28455 0.0
H438 H 0.08259 0.28489 0.28121 0.0
H439 H 0.04008 0.29195 0.30018 0.0
H440 H 0.13562 0.15387 0.29086 0.0
H441 H 0.03705 0.16542 0.33976 0.0
H442 H 0.19103 0.23958 0.30951 0.0
H443 H 0.15498 0.26031 0.28522 0.0
H444 H 0.17699 0.21 0.28121 0.0
H445 H 0.06974 0.25413 0.3701 0.0
H446 H 0.02233 0.22631 0.36009 0.0
H447 H 0.03541 0.27228 0.34412 0.0
C448 C 0.8107 0.02132 0.88121 0.0
C449 C 0.79016 0.058 0.88625 0.0
C450 C 0.83267 0.01701 0.85983 0.0
C451 C 0.83452 0.05034 0.84317 0.0
C452 C 0.81429 0.08767 0.84829 0.0
C453 C 0.79238 0.09107 0.8698 0.0
C454 C 0.85376 0.97667 0.85503 0.0
C455 C 0.81572 0.12392 0.83104 0.0
C456 C 0.92165 0.04463 0.79961 0.0
C457 C 0.90041 0.02766 0.77767 0.0
C458 C 0.90031 0.05365 0.82082 0.0
C459 C 0.85675 0.04548 0.82005 0.0
C460 C 0.83487 0.03003 0.79761 0.0
C461 C 0.85692 0.02136 0.77672 0.0
C462 C 0.92469 0.07037 0.84436 0.0
C463 C 0.78842 0.021 0.79598 0.0
H464 H 0.80954 0.99589 0.89405 0.0
H465 H 0.77703 0.11966 0.87384 0.0
H466 H 0.84057 0.96358 0.83666 0.0
H467 H 0.8878 0.98153 0.8539 0.0
H468 H 0.84976 0.95393 0.86997 0.0
H469 H 0.79907 0.15103 0.83796 0.0
H470 H 0.84878 0.13254 0.8292 0.0
H471 H 0.8012 0.11565 0.81192 0.0
H472 H 0.95521 0.04969 0.80051 0.0
H473 H 0.84014 0.00848 0.75982 0.0
H474 H 0.92542 0.04725 0.85952 0.0
H475 H 0.90909 0.09811 0.85119 0.0
H476 H 0.95751 0.07829 0.84125 0.0
H477 H 0.78256 0.99591 0.80909 0.0
H478 H 0.7755 0.01173 0.77667 0.0
H479 H 0.77101 0.04831 0.80184 0.0
C480 C 0.94142 0.79265 0.38872 0.0
C481 C 0.96035 0.78818 0.4134 0.0
C482 C 0.95995 0.81701 0.3713 0.0
C483 C 0.9986 0.83681 0.37867 0.0
C484 C 0.01897 0.83047 0.40311 0.0
C485 C 0.99939 0.80653 0.42026 0.0
C486 C 0.93702 0.82337 0.34553 0.0
C487 C 0.06053 0.8505 0.41156 0.0
C488 C 0.06026 0.88628 0.32946 0.0
C489 C 0.05018 0.92781 0.33241 0.0
C490 C 0.04352 0.85607 0.34422 0.0
C491 C 0.01547 0.86765 0.36196 0.0
C492 C 0.00436 0.90933 0.36451 0.0
C493 C 0.02225 0.93885 0.34997 0.0
C494 C 0.05666 0.81198 0.34133 0.0
C495 C 0.97396 0.92292 0.3829 0.0
H496 H 0.91135 0.77823 0.38335 0.0
H497 H 0.0142 0.80293 0.43927 0.0
H498 H 0.92601 0.85557 0.34388 0.0
H499 H 0.95837 0.81808 0.33066 0.0
H500 H 0.90944 0.80277 0.3419 0.0
H501 H 0.07451 0.83866 0.42997 0.0
H502 H 0.08308 0.84544 0.39732 0.0
H503 H 0.0561 0.88408 0.41343 0.0
H504 H 0.08206 0.87748 0.31605 0.0
H505 H 0.01431 0.97062 0.35256 0.0
H506 H 0.02865 0.79217 0.33722 0.0
H507 H 0.07341 0.80125 0.35927 0.0
H508 H 0.07754 0.80778 0.32606 0.0
H509 H 0.94418 0.90548 0.37947 0.0
H510 H 0.96669 0.95616 0.38151 0.0
H511 H 0.98731 0.91644 0.40244 0.0
loop_
_geom_bond_atom_site_label_1
_geom_bond_atom_site_label_2
_geom_bond_distance
_geom_bond_site_symmetry_2
_ccdc_geom_bond_type
C0 C1 1.560 . S
C0 H61 0.959 . S
C0 H62 0.959 . S
C0 H63 0.960 . S
C1 C0 1.560 . S
C1 O56 1.426 . S
C1 H60 0.980 . S
C2 C3 1.407 1_545 S
C2 C7 1.418 . S
C2 O56 1.334 . S
C3 C2 1.407 1_565 S
C3 C4 1.360 . S
C3 H64 0.929 . S
C4 C3 1.360 . S
C4 C5 1.401 1_565 S
C4 C8 1.527 . S
C5 C4 1.401 1_545 S
C5 C6 1.405 . S
C5 C38 1.587 1_545 S
C6 C5 1.405 . S
C6 C7 1.332 . S
C6 C9 1.496 . S
C7 C2 1.418 . S
C7 C6 1.332 . S
C7 H65 0.929 . S
C8 C4 1.527 . S
C8 H66 0.959 . S
C8 H67 0.961 . S
C8 H68 0.961 . S
C9 C6 1.496 . S
C9 H69 0.960 . S
C9 H70 0.960 . S
C9 H71 0.961 . S
C10 C11 1.517 . S
C10 H73 0.946 1_565 S
C10 H74 0.960 . S
C10 H75 0.959 . S
C11 C10 1.517 . S
C11 O59 1.468 . S
C11 H72 0.980 1_565 S
C12 C13 1.340 1_565 S
C12 C17 1.367 . S
C12 O59 1.408 . S
C13 C12 1.340 1_545 S
C13 C14 1.409 . S
C13 H76 0.938 . S
C14 C13 1.409 . S
C14 C15 1.449 1_545 S
C14 C18 1.535 . S
C15 C14 1.449 1_565 S
C15 C16 1.384 . S
C15 C40 1.553 . S
C16 C15 1.384 . S
C16 C17 1.364 . S
C16 C19 1.450 . S
C17 C12 1.367 . S
C17 C16 1.364 . S
C17 H77 0.931 . S
C18 C14 1.535 . S
C18 H78 0.959 . S
C18 H79 0.961 . S
C18 H80 0.959 . S
C19 C16 1.450 . S
C19 H81 0.960 . S
C19 H82 0.960 . S
C19 H83 0.960 . S
C20 C21 1.309 1_565 S
C20 C25 1.304 . S
C20 O58 1.435 . S
C21 C20 1.309 1_545 S
C21 C22 1.476 . S
C21 H85 0.930 . S
C22 C21 1.476 . S
C22 C23 1.400 1_545 S
C22 C26 1.567 . S
C23 C22 1.400 1_565 S
C23 C24 1.373 . S
C23 C45 1.432 . S
C24 C23 1.373 . S
C24 C25 1.339 . S
C24 C27 1.530 . S
C25 C20 1.304 . S
C25 C24 1.339 . S
C25 H86 0.930 . S
C26 C22 1.567 . S
C26 H87 0.961 . S
C26 H88 0.960 . S
C26 H89 0.958 . S
C27 C24 1.530 . S
C27 H90 0.961 . S
C27 H91 0.960 . S
C27 H92 0.960 . S
C28 C29 1.530 . S
C28 H94 0.961 . S
C28 H95 0.961 . S
C28 H96 0.959 . S
C29 C28 1.530 . S
C29 O57 1.412 . S
C29 H93 0.980 . S
C30 C31 1.288 . S
C30 C35 1.377 1_545 S
C30 O57 1.393 . S
C31 C30 1.288 . S
C31 C32 1.369 . S
C31 H97 0.932 . S
C32 C31 1.369 . S
C32 C33 1.398 . S
C32 C36 1.527 . S
C33 C32 1.398 . S
C33 C34 1.380 1_545 S
C33 C47 1.497 . S
C34 C33 1.380 1_565 S
C34 C35 1.383 . S
C34 C37 1.603 . S
C35 C30 1.377 1_565 S
C35 C34 1.383 . S
C35 H98 0.929 . S
C36 C32 1.527 . S
C36 H99 0.961 . S
C36 H100 0.959 . S
C36 H101 0.959 . S
C37 C34 1.603 . S
C37 H102 0.960 . S
C37 H103 0.962 . S
C37 H104 0.961 . S
C38 C5 1.587 1_565 S
C38 C39 1.360 . S
C38 C51 1.412 . S
C39 C38 1.360 . S
C39 C40 1.365 . S
C39 H105 0.929 . S
C40 C15 1.553 . S
C40 C39 1.365 . S
C40 C41 1.404 . S
C41 C40 1.404 . S
C41 C42 1.395 . S
C41 C52 1.451 . S
C42 C41 1.395 . S
C42 C43 1.322 1_554 S
C42 H106 0.930 . S
C43 C42 1.322 1_556 S
C43 C44 1.459 . S
C43 H107 0.929 . S
C44 C43 1.459 . S
C44 C45 1.445 . S
C44 C53 1.395 . S
C45 C23 1.432 . S
C45 C44 1.445 . S
C45 C46 1.370 . S
C46 C45 1.370 . S
C46 C47 1.438 1_565 S
C46 H108 0.930 . S
C47 C33 1.497 . S
C47 C46 1.438 1_545 S
C47 C48 1.360 1_545 S
C48 C47 1.360 1_565 S
C48 C49 1.401 1_565 S
C48 C53 1.446 . S
C49 C48 1.401 1_545 S
C49 C50 1.347 1_556 S
C49 H109 0.929 . S
C50 C49 1.347 1_554 S
C50 C51 1.455 1_545 S
C50 H110 0.930 . S
C51 C38 1.412 . S
C51 C50 1.455 1_565 S
C51 C52 1.331 . S
C52 C41 1.451 . S
C52 C51 1.331 . S
C52 C53 1.497 1_554 S
C53 C44 1.395 . S
C53 C48 1.446 . S
C53 C52 1.497 1_556 S
C54 C55 1.578 1_565 S
C54 H111 0.962 . S
C54 H112 0.959 . S
C54 H113 0.958 . S
C55 C54 1.578 1_545 S
C55 O58 1.452 1_545 S
C55 H84 0.982 . S
O56 C1 1.426 . S
O56 C2 1.334 . S
O57 C29 1.412 . S
O57 C30 1.393 . S
O58 C20 1.435 . S
O58 C55 1.452 1_565 S
O59 C11 1.468 . S
O59 C12 1.408 . S
H60 C1 0.980 . S
H61 C0 0.959 . S
H62 C0 0.959 . S
H63 C0 0.960 . S
H64 C3 0.929 . S
H65 C7 0.929 . S
H66 C8 0.959 . S
H67 C8 0.961 . S
H68 C8 0.961 . S
H69 C9 0.960 . S
H70 C9 0.960 . S
H71 C9 0.961 . S
H72 C11 0.980 1_545 S
H73 C10 0.946 1_545 S
H74 C10 0.960 . S
H75 C10 0.959 . S
H76 C13 0.938 . S
H77 C17 0.931 . S
H78 C18 0.959 . S
H79 C18 0.961 . S
H80 C18 0.959 . S
H81 C19 0.960 . S
H82 C19 0.960 . S
H83 C19 0.960 . S
H84 C55 0.982 . S
H85 C21 0.930 . S
H86 C25 0.930 . S
H87 C26 0.961 . S
H88 C26 0.960 . S
H89 C26 0.958 . S
H90 C27 0.961 . S
H91 C27 0.960 . S
H92 C27 0.960 . S
H93 C29 0.980 . S
H94 C28 0.961 . S
H95 C28 0.961 . S
H96 C28 0.959 . S
H97 C31 0.932 . S
H98 C35 0.929 . S
H99 C36 0.961 . S
H100 C36 0.959 . S
H101 C36 0.959 . S
H102 C37 0.960 . S
H103 C37 0.962 . S
H104 C37 0.961 . S
H105 C39 0.929 . S
H106 C42 0.930 . S
H107 C43 0.929 . S
H108 C46 0.930 . S
H109 C49 0.929 . S
H110 C50 0.930 . S
H111 C54 0.962 . S
H112 C54 0.959 . S
H113 C54 0.958 . S
C114 C115 1.560 . S
C114 H175 0.959 . S
C114 H176 0.959 . S
C114 H177 0.960 . S
C115 C114 1.560 . S
C115 O170 1.426 . S
C115 H174 0.980 . S
C116 C117 1.407 . S
C116 C121 1.418 . S
C116 O170 1.334 . S
C117 C116 1.407 . S
C117 C118 1.360 . S
C117 H178 0.929 1_455 S
C118 C117 1.360 . S
C118 C119 1.401 . S
C118 C122 1.527 1_455 S
C119 C118 1.401 . S
C119 C120 1.405 . S
C119 C152 1.587 . S
C120 C119 1.405 . S
C120 C121 1.332 . S
C120 C123 1.496 . S
C121 C116 1.418 . S
C121 C120 1.332 . S
C121 H179 0.929 . S
C122 C118 1.527 1_655 S
C122 H180 0.959 . S
C122 H181 0.961 . S
C122 H182 0.961 . S
C123 C120 1.496 . S
C123 H183 0.960 . S
C123 H184 0.960 . S
C123 H185 0.961 . S
C124 C125 1.517 1_655 S
C124 H187 0.961 1_655 S
C124 H188 0.960 . S
C124 H189 0.959 . S
C125 C124 1.517 1_455 S
C125 O173 1.468 1_455 S
C125 H186 0.980 . S
C126 C127 1.349 1_655 S
C126 C131 1.367 . S
C126 O173 1.408 . S
C127 C126 1.349 1_455 S
C127 C128 1.407 . S
C127 H190 0.930 . S
C128 C127 1.407 . S
C128 C129 1.449 1_455 S
C128 C132 1.535 . S
C129 C128 1.449 1_655 S
C129 C130 1.384 . S
C129 C154 1.553 1_655 S
C130 C129 1.384 . S
C130 C131 1.364 . S
C130 C133 1.450 . S
C131 C126 1.367 . S
C131 C130 1.364 . S
C131 H191 0.931 . S
C132 C128 1.535 . S
C132 H192 0.959 . S
C132 H193 0.961 . S
C132 H194 0.959 . S
C133 C130 1.450 . S
C133 H195 0.960 . S
C133 H196 0.960 . S
C133 H197 0.960 . S
C134 C135 1.309 . S
C134 C139 1.304 1_455 S
C134 O172 1.435 . S
C135 C134 1.309 . S
C135 C136 1.476 . S
C135 H199 0.930 . S
C136 C135 1.476 . S
C136 C137 1.400 . S
C136 C140 1.567 . S
C137 C136 1.400 . S
C137 C138 1.373 1_455 S
C137 C159 1.432 . S
C138 C137 1.373 1_655 S
C138 C139 1.339 . S
C138 C141 1.530 . S
C139 C134 1.304 1_655 S
C139 C138 1.339 . S
C139 H200 0.930 . S
C140 C136 1.567 . S
C140 H201 0.961 . S
C140 H202 0.960 . S
C140 H203 0.958 . S
C141 C138 1.530 . S
C141 H204 0.961 . S
C141 H205 0.960 . S
C141 H206 0.960 . S
C142 C143 1.530 . S
C142 H208 0.961 . S
C142 H209 0.961 . S
C142 H210 0.959 . S
C143 C142 1.530 . S
C143 O171 1.412 . S
C143 H207 0.980 . S
C144 C145 1.288 . S
C144 C149 1.377 . S
C144 O171 1.393 . S
C145 C144 1.288 . S
C145 C146 1.369 . S
C145 H211 0.932 . S
C146 C145 1.369 . S
C146 C147 1.398 . S
C146 C150 1.527 . S
C147 C146 1.398 . S
C147 C148 1.380 . S
C147 C161 1.497 . S
C148 C147 1.380 . S
C148 C149 1.383 . S
C148 C151 1.603 1_455 S
C149 C144 1.377 . S
C149 C148 1.383 . S
C149 H212 0.929 . S
C150 C146 1.527 . S
C150 H213 0.961 . S
C150 H214 0.959 . S
C150 H215 0.959 . S
C151 C148 1.603 1_655 S
C151 H216 0.960 . S
C151 H217 0.962 . S
C151 H218 0.961 . S
C152 C119 1.587 . S
C152 C153 1.360 . S
C152 C165 1.412 . S
C153 C152 1.360 . S
C153 C154 1.365 . S
C153 H219 0.929 . S
C154 C129 1.553 1_455 S
C154 C153 1.365 . S
C154 C155 1.404 . S
C155 C154 1.404 . S
C155 C156 1.395 . S
C155 C166 1.451 . S
C156 C155 1.395 . S
C156 C157 1.322 . S
C156 H220 0.930 . S
C157 C156 1.322 . S
C157 C158 1.459 . S
C157 H221 0.929 . S
C158 C157 1.459 . S
C158 C159 1.445 . S
C158 C167 1.395 . S
C159 C137 1.432 . S
C159 C158 1.445 . S
C159 C160 1.370 . S
C160 C159 1.370 . S
C160 C161 1.438 . S
C160 H222 0.930 . S
C161 C147 1.497 . S
C161 C160 1.438 . S
C161 C162 1.360 . S
C162 C161 1.360 . S
C162 C163 1.401 . S
C162 C167 1.446 . S
C163 C162 1.401 . S
C163 C164 1.347 . S
C163 H223 0.929 . S
C164 C163 1.347 . S
C164 C165 1.455 . S
C164 H224 0.930 . S
C165 C152 1.412 . S
C165 C164 1.455 . S
C165 C166 1.331 . S
C166 C155 1.451 . S
C166 C165 1.331 . S
C166 C167 1.497 . S
C167 C158 1.395 . S
C167 C162 1.446 . S
C167 C166 1.497 . S
C168 C169 1.582 . S
C168 H225 0.962 . S
C168 H226 0.959 . S
C168 H227 0.958 . S
C169 C168 1.582 . S
C169 O172 1.458 . S
C169 H198 0.980 . S
O170 C115 1.426 . S
O170 C116 1.334 . S
O171 C143 1.412 . S
O171 C144 1.393 . S
O172 C134 1.435 . S
O172 C169 1.458 . S
O173 C125 1.468 1_655 S
O173 C126 1.408 . S
H174 C115 0.980 . S
H175 C114 0.959 . S
H176 C114 0.959 . S
H177 C114 0.960 . S
H178 C117 0.929 1_655 S
H179 C121 0.929 . S
H180 C122 0.959 . S
H181 C122 0.961 . S
H182 C122 0.961 . S
H183 C123 0.960 . S
H184 C123 0.960 . S
H185 C123 0.961 . S
H186 C125 0.980 . S
H187 C124 0.961 1_455 S
H188 C124 0.960 . S
H189 C124 0.959 . S
H190 C127 0.930 . S
H191 C131 0.931 . S
H192 C132 0.959 . S
H193 C132 0.961 . S
H194 C132 0.959 . S
H195 C133 0.960 . S
H196 C133 0.960 . S
H197 C133 0.960 . S
H198 C169 0.980 . S
H199 C135 0.930 . S
H200 C139 0.930 . S
H201 C140 0.961 . S
H202 C140 0.960 . S
H203 C140 0.958 . S
H204 C141 0.961 . S
H205 C141 0.960 . S
H206 C141 0.960 . S
H207 C143 0.980 . S
H208 C142 0.961 . S
H209 C142 0.961 . S
H210 C142 0.959 . S
H211 C145 0.932 . S
H212 C149 0.929 . S
H213 C150 0.961 . S
H214 C150 0.959 . S
H215 C150 0.959 . S
H216 C151 0.960 . S
H217 C151 0.962 . S
H218 C151 0.961 . S
H219 C153 0.929 . S
H220 C156 0.930 . S
H221 C157 0.929 . S
H222 C160 0.930 . S
H223 C163 0.929 . S
H224 C164 0.930 . S
H225 C168 0.962 . S
H226 C168 0.959 . S
H227 C168 0.958 . S
Mg228 O229 2.028 . S
Mg228 O235 1.986 . S
Mg228 O237 2.114 1_545 S
Mg228 O238 2.251 1_545 S
Mg228 O241 2.010 . S
O229 Mg228 2.028 . S
O229 C232 1.250 . S
O230 Mg231 2.029 . S
O230 C232 1.248 1_655 S
Mg231 O230 2.029 . S
Mg231 O236 2.024 1_655 S
Mg231 O238 2.065 1_645 S
C232 O229 1.250 . S
C232 O230 1.248 1_455 S
C233 O234 1.264 . S
C233 O241 1.249 . S
O234 C233 1.264 . S
O235 Mg228 1.986 . S
O235 C239 1.246 . S
O236 Mg231 2.024 1_455 S
O236 C239 1.259 . S
O237 Mg228 2.114 1_565 S
O237 C240 1.252 . S
O238 Mg228 2.251 1_565 S
O238 Mg231 2.065 1_465 S
O238 C240 1.273 . S
C239 O235 1.246 . S
C239 O236 1.259 . S
C240 O237 1.252 . S
C240 O238 1.273 . S
O241 Mg228 2.010 . S
O241 C233 1.249 . S
Mg242 O243 2.028 1_655 S
Mg242 O249 1.986 . S
Mg242 O251 2.114 1_545 S
Mg242 O252 2.251 1_645 S
Mg242 O255 2.010 . S
O243 Mg242 2.028 1_455 S
O243 C246 1.250 . S
O244 Mg245 2.028 . S
O244 C246 1.248 . S
Mg245 O244 2.028 . S
Mg245 O250 2.032 . S
Mg245 O252 2.079 1_545 S
C246 O243 1.250 . S
C246 O244 1.248 . S
C247 O248 1.264 . S
C247 O255 1.249 . S
O248 C247 1.264 . S
O249 Mg242 1.986 . S
O249 C253 1.246 1_655 S
O250 Mg245 2.032 . S
O250 C253 1.259 . S
O251 Mg242 2.114 1_565 S
O251 C254 1.252 1_655 S
O252 Mg242 2.251 1_465 S
O252 Mg245 2.079 1_565 S
O252 C254 1.273 . S
C253 O249 1.246 1_455 S
C253 O250 1.259 . S
C254 O251 1.252 1_455 S
C254 O252 1.273 . S
O255 Mg242 2.010 . S
O255 C247 1.249 . S
C256 C257 1.391 . S
C256 C258 1.394 . S
C256 H272 0.931 . S
C257 C256 1.391 . S
C257 C261 1.376 1_545 S
C258 C256 1.394 . S
C258 C259 1.369 . S
C258 C262 1.531 . S
C259 C258 1.369 . S
C259 C260 1.410 1_545 S
C259 C267 1.503 . S
C260 C259 1.410 1_565 S
C260 C261 1.392 . S
C260 C263 1.511 . S
C261 C257 1.376 1_565 S
C261 C260 1.392 . S
C261 H273 0.929 . S
C262 C258 1.531 . S
C262 H274 0.960 . S
C262 H275 0.962 . S
C262 H276 0.960 . S
C263 C260 1.511 . S
C263 H277 0.963 . S
C263 H278 0.961 1_565 S
C263 H279 0.961 . S
C264 C265 1.370 . S
C264 C266 1.363 . S
C264 H280 0.931 . S
C265 C264 1.370 . S
C265 C269 1.408 1_545 S
C266 C264 1.363 . S
C266 C267 1.370 . S
C266 C270 1.524 . S
C267 C259 1.503 . S
C267 C266 1.370 . S
C267 C268 1.403 1_545 S
C268 C267 1.403 1_565 S
C268 C269 1.404 . S
C268 C271 1.539 . S
C269 C265 1.408 1_565 S
C269 C268 1.404 . S
C269 H281 0.930 . S
C270 C266 1.524 . S
C270 H282 0.956 . S
C270 H283 0.961 . S
C270 H284 0.961 . S
C271 C268 1.539 . S
C271 H285 0.958 . S
C271 H286 0.961 . S
C271 H287 0.960 . S
H272 C256 0.931 . S
H273 C261 0.929 . S
H274 C262 0.960 . S
H275 C262 0.962 . S
H276 C262 0.960 . S
H277 C263 0.963 . S
H278 C263 0.961 1_545 S
H279 C263 0.961 . S
H280 C264 0.931 . S
H281 C269 0.930 . S
H282 C270 0.956 . S
H283 C270 0.961 . S
H284 C270 0.961 . S
H285 C271 0.958 . S
H286 C271 0.961 . S
H287 C271 0.960 . S
C288 C289 1.391 . S
C288 C290 1.394 . S
C288 H304 0.931 . S
C289 C288 1.391 . S
C289 C293 1.376 . S
C290 C288 1.394 . S
C290 C291 1.369 . S
C290 C294 1.531 . S
C291 C290 1.369 . S
C291 C292 1.410 . S
C291 C299 1.503 . S
C292 C291 1.410 . S
C292 C293 1.392 . S
C292 C295 1.511 . S
C293 C289 1.376 . S
C293 C292 1.392 . S
C293 H305 0.929 . S
C294 C290 1.531 . S
C294 H306 0.960 . S
C294 H307 0.962 . S
C294 H308 0.960 . S
C295 C292 1.511 . S
C295 H309 0.961 . S
C295 H310 0.961 . S
C295 H311 0.961 . S
C296 C297 1.370 1_655 S
C296 C298 1.363 . S
C296 H312 0.931 . S
C297 C296 1.370 1_455 S
C297 C301 1.408 . S
C298 C296 1.363 . S
C298 C299 1.370 1_655 S
C298 C302 1.524 . S
C299 C291 1.503 . S
C299 C298 1.370 1_455 S
C299 C300 1.403 . S
C300 C299 1.403 . S
C300 C301 1.404 . S
C300 C303 1.539 . S
C301 C297 1.408 . S
C301 C300 1.404 . S
C301 H313 0.930 . S
C302 C298 1.524 . S
C302 H314 0.956 . S
C302 H315 0.961 . S
C302 H316 0.961 . S
C303 C300 1.539 . S
C303 H317 0.958 . S
C303 H318 0.961 . S
C303 H319 0.960 . S
H304 C288 0.931 . S
H305 C293 0.929 . S
H306 C294 0.960 . S
H307 C294 0.962 . S
H308 C294 0.960 . S
H309 C295 0.961 . S
H310 C295 0.961 . S
H311 C295 0.961 . S
H312 C296 0.931 . S
H313 C301 0.930 . S
H314 C302 0.956 . S
H315 C302 0.961 . S
H316 C302 0.961 . S
H317 C303 0.958 . S
H318 C303 0.961 . S
H319 C303 0.960 . S
C320 C321 1.391 1_565 S
C320 C322 1.394 . S
C320 H336 0.931 . S
C321 C320 1.391 1_545 S
C321 C325 1.376 . S
C322 C320 1.394 . S
C322 C323 1.369 1_565 S
C322 C326 1.531 . S
C323 C322 1.369 1_545 S
C323 C324 1.410 . S
C323 C331 1.503 . S
C324 C323 1.410 . S
C324 C325 1.392 . S
C324 C327 1.511 . S
C325 C321 1.376 . S
C325 C324 1.392 . S
C325 H337 0.929 . S
C326 C322 1.531 . S
C326 H338 0.960 . S
C326 H339 0.962 . S
C326 H340 0.960 . S
C327 C324 1.511 . S
C327 H341 0.961 . S
C327 H342 0.961 . S
C327 H343 0.961 . S
C328 C329 1.370 . S
C328 C330 1.363 . S
C328 H344 0.931 . S
C329 C328 1.370 . S
C329 C333 1.408 1_545 S
C330 C328 1.363 . S
C330 C331 1.370 . S
C330 C334 1.524 . S
C331 C323 1.503 . S
C331 C330 1.370 . S
C331 C332 1.403 1_545 S
C332 C331 1.403 1_565 S
C332 C333 1.404 . S
C332 C335 1.539 . S
C333 C329 1.408 1_565 S
C333 C332 1.404 . S
C333 H345 0.930 1_655 S
C334 C330 1.524 . S
C334 H346 0.956 . S
C334 H347 0.961 . S
C334 H348 0.961 . S
C335 C332 1.539 . S
C335 H349 0.958 . S
C335 H350 0.961 . S
C335 H351 0.960 . S
H336 C320 0.931 . S
H337 C325 0.929 . S
H338 C326 0.960 . S
H339 C326 0.962 . S
H340 C326 0.960 . S
H341 C327 0.961 . S
H342 C327 0.961 . S
H343 C327 0.961 . S
H344 C328 0.931 . S
H345 C333 0.930 1_455 S
H346 C334 0.956 . S
H347 C334 0.961 . S
H348 C334 0.961 . S
H349 C335 0.958 . S
H350 C335 0.961 . S
H351 C335 0.960 . S
C352 C353 1.391 . S
C352 C354 1.394 . S
C352 H368 0.931 . S
C353 C352 1.391 . S
C353 C357 1.376 . S
C354 C352 1.394 . S
C354 C355 1.369 . S
C354 C358 1.531 . S
C355 C354 1.369 . S
C355 C356 1.410 . S
C355 C363 1.503 . S
C356 C355 1.410 . S
C356 C357 1.392 . S
C356 C359 1.511 . S
C357 C353 1.376 . S
C357 C356 1.392 . S
C357 H369 0.929 . S
C358 C354 1.531 . S
C358 H370 0.960 1_455 S
C358 H371 0.962 . S
C358 H372 0.960 1_455 S
C359 C356 1.511 . S
C359 H373 0.961 . S
C359 H374 0.961 . S
C359 H375 0.961 1_455 S
C360 C361 1.370 . S
C360 C362 1.363 . S
C360 H376 0.931 . S
C361 C360 1.370 . S
C361 C365 1.408 1_455 S
C362 C360 1.363 . S
C362 C363 1.370 . S
C362 C366 1.524 . S
C363 C355 1.503 . S
C363 C362 1.370 . S
C363 C364 1.403 1_455 S
C364 C363 1.403 1_655 S
C364 C365 1.404 . S
C364 C367 1.539 . S
C365 C361 1.408 1_655 S
C365 C364 1.404 . S
C365 H377 0.930 . S
C366 C362 1.524 . S
C366 H378 0.956 . S
C366 H379 0.961 . S
C366 H380 0.961 . S
C367 C364 1.539 . S
C367 H381 0.958 . S
C367 H382 0.961 . S
C367 H383 0.960 . S
H368 C352 0.931 . S
H369 C357 0.929 . S
H370 C358 0.960 1_655 S
H371 C358 0.962 . S
H372 C358 0.960 1_655 S
H373 C359 0.961 . S
H374 C359 0.961 . S
H375 C359 0.961 1_655 S
H376 C360 0.931 . S
H377 C365 0.930 . S
H378 C366 0.956 . S
H379 C366 0.961 . S
H380 C366 0.961 . S
H381 C367 0.958 . S
H382 C367 0.961 . S
H383 C367 0.960 . S
C384 C385 1.391 . S
C384 C386 1.394 . S
C384 H400 0.931 . S
C385 C384 1.391 . S
C385 C389 1.376 . S
C386 C384 1.394 . S
C386 C387 1.369 . S
C386 C390 1.531 . S
C387 C386 1.369 . S
C387 C388 1.410 . S
C387 C395 1.503 . S
C388 C387 1.410 . S
C388 C389 1.392 . S
C388 C391 1.511 . S
C389 C385 1.376 . S
C389 C388 1.392 . S
C389 H401 0.929 . S
C390 C386 1.531 . S
C390 H402 0.960 . S
C390 H403 0.962 . S
C390 H404 0.960 . S
C391 C388 1.511 . S
C391 H405 0.961 . S
C391 H406 0.961 . S
C391 H407 0.961 . S
C392 C393 1.370 1_565 S
C392 C394 1.363 . S
C392 H408 0.931 . S
C393 C392 1.370 1_545 S
C393 C397 1.408 . S
C394 C392 1.363 . S
C394 C395 1.370 1_565 S
C394 C398 1.524 . S
C395 C387 1.503 . S
C395 C394 1.370 1_545 S
C395 C396 1.403 . S
C396 C395 1.403 . S
C396 C397 1.404 . S
C396 C399 1.539 . S
C397 C393 1.408 . S
C397 C396 1.404 . S
C397 H409 0.930 . S
C398 C394 1.524 . S
C398 H410 0.956 . S
C398 H411 0.961 . S
C398 H412 0.961 . S
C399 C396 1.539 . S
C399 H413 0.958 . S
C399 H414 0.961 . S
C399 H415 0.960 . S
H400 C384 0.931 . S
H401 C389 0.929 . S
H402 C390 0.960 . S
H403 C390 0.962 . S
H404 C390 0.960 . S
H405 C391 0.961 . S
H406 C391 0.961 . S
H407 C391 0.961 . S
H408 C392 0.931 . S
H409 C397 0.930 . S
H410 C398 0.956 . S
H411 C398 0.961 . S
H412 C398 0.961 . S
H413 C399 0.958 . S
H414 C399 0.961 . S
H415 C399 0.960 . S
C416 C417 1.391 . S
C416 C418 1.394 . S
C416 H432 0.931 . S
C417 C416 1.391 . S
C417 C421 1.376 . S
C418 C416 1.394 . S
C418 C419 1.369 . S
C418 C422 1.531 . S
C419 C418 1.369 . S
C419 C420 1.410 . S
C419 C427 1.503 . S
C420 C419 1.410 . S
C420 C421 1.392 . S
C420 C423 1.511 1_455 S
C421 C417 1.376 . S
C421 C420 1.392 . S
C421 H433 0.929 . S
C422 C418 1.531 . S
C422 H434 0.960 . S
C422 H435 0.962 . S
C422 H436 0.960 . S
C423 C420 1.511 1_655 S
C423 H437 0.961 . S
C423 H438 0.961 1_655 S
C423 H439 0.961 . S
C424 C425 1.370 . S
C424 C426 1.363 . S
C424 H440 0.931 . S
C425 C424 1.370 . S
C425 C429 1.408 . S
C426 C424 1.363 . S
C426 C427 1.370 . S
C426 C430 1.524 . S
C427 C419 1.503 . S
C427 C426 1.370 . S
C427 C428 1.403 . S
C428 C427 1.403 . S
C428 C429 1.404 . S
C428 C431 1.539 . S
C429 C425 1.408 . S
C429 C428 1.404 . S
C429 H441 0.930 . S
C430 C426 1.524 . S
C430 H442 0.956 . S
C430 H443 0.961 . S
C430 H444 0.961 . S
C431 C428 1.539 . S
C431 H445 0.958 . S
C431 H446 0.961 1_455 S
C431 H447 0.960 1_455 S
H432 C416 0.931 . S
H433 C421 0.929 . S
H434 C422 0.960 . S
H435 C422 0.962 . S
H436 C422 0.960 . S
H437 C423 0.961 . S
H438 C423 0.961 1_455 S
H439 C423 0.961 . S
H440 C424 0.931 . S
H441 C429 0.930 . S
H442 C430 0.956 . S
H443 C430 0.961 . S
H444 C430 0.961 . S
H445 C431 0.958 . S
H446 C431 0.961 1_655 S
H447 C431 0.960 1_655 S
C448 C449 1.391 1_565 S
C448 C450 1.394 . S
C448 H464 0.931 . S
C449 C448 1.391 1_545 S
C449 C453 1.376 . S
C450 C448 1.394 . S
C450 C451 1.369 1_565 S
C450 C454 1.531 . S
C451 C450 1.369 1_545 S
C451 C452 1.410 . S
C451 C459 1.503 . S
C452 C451 1.410 . S
C452 C453 1.392 . S
C452 C455 1.511 . S
C453 C449 1.376 . S
C453 C452 1.392 . S
C453 H465 0.929 . S
C454 C450 1.531 . S
C454 H466 0.960 . S
C454 H467 0.962 . S
C454 H468 0.960 . S
C455 C452 1.511 . S
C455 H469 0.961 . S
C455 H470 0.961 . S
C455 H471 0.961 . S
C456 C457 1.370 . S
C456 C458 1.363 . S
C456 H472 0.931 . S
C457 C456 1.370 . S
C457 C461 1.408 1_545 S
C458 C456 1.363 . S
C458 C459 1.370 . S
C458 C462 1.524 . S
C459 C451 1.503 . S
C459 C458 1.370 . S
C459 C460 1.403 1_545 S
C460 C459 1.403 1_565 S
C460 C461 1.404 . S
C460 C463 1.539 . S
C461 C457 1.408 1_565 S
C461 C460 1.404 . S
C461 H473 0.930 . S
C462 C458 1.524 . S
C462 H474 0.956 . S
C462 H475 0.961 . S
C462 H476 0.961 . S
C463 C460 1.539 . S
C463 H477 0.958 . S
C463 H478 0.961 . S
C463 H479 0.960 . S
H464 C448 0.931 . S
H465 C453 0.929 . S
H466 C454 0.960 . S
H467 C454 0.962 . S
H468 C454 0.960 . S
H469 C455 0.961 . S
H470 C455 0.961 . S
H471 C455 0.961 . S
H472 C456 0.931 . S
H473 C461 0.930 . S
H474 C462 0.956 . S
H475 C462 0.961 . S
H476 C462 0.961 . S
H477 C463 0.958 . S
H478 C463 0.961 . S
H479 C463 0.960 . S
C480 C481 1.391 . S
C480 C482 1.394 . S
C480 H496 0.931 . S
C481 C480 1.391 . S
C481 C485 1.376 . S
C482 C480 1.394 . S
C482 C483 1.369 . S
C482 C486 1.531 . S
C483 C482 1.369 . S
C483 C484 1.410 . S
C483 C491 1.503 . S
C484 C483 1.410 . S
C484 C485 1.392 . S
C484 C487 1.511 . S
C485 C481 1.376 . S
C485 C484 1.392 . S
C485 H497 0.929 . S
C486 C482 1.531 . S
C486 H498 0.960 . S
C486 H499 0.962 . S
C486 H500 0.960 . S
C487 C484 1.511 . S
C487 H501 0.961 . S
C487 H502 0.961 . S
C487 H503 0.961 1_455 S
C488 C489 1.370 . S
C488 C490 1.363 . S
C488 H504 0.931 . S
C489 C488 1.370 . S
C489 C493 1.408 . S
C490 C488 1.363 . S
C490 C491 1.370 . S
C490 C494 1.524 . S
C491 C483 1.503 . S
C491 C490 1.370 . S
C491 C492 1.403 . S
C492 C491 1.403 . S
C492 C493 1.404 . S
C492 C495 1.539 1_455 S
C493 C489 1.408 . S
C493 C492 1.404 . S
C493 H505 0.930 . S
C494 C490 1.524 . S
C494 H506 0.956 . S
C494 H507 0.961 . S
C494 H508 0.961 . S
C495 C492 1.539 1_655 S
C495 H509 0.958 1_655 S
C495 H510 0.961 . S
C495 H511 0.960 . S
H496 C480 0.931 . S
H497 C485 0.929 . S
H498 C486 0.960 . S
H499 C486 0.962 . S
H500 C486 0.960 . S
H501 C487 0.961 . S
H502 C487 0.961 . S
H503 C487 0.961 1_655 S
H504 C488 0.931 . S
H505 C493 0.930 . S
H506 C494 0.956 . S
H507 C494 0.961 . S
H508 C494 0.961 . S
H509 C495 0.958 1_455 S
H510 C495 0.961 . S
H511 C495 0.960 . S
C265 C233 1.282 . S
C257 C11 0.893 1_545 S
C297 C253 1.303 . S
C289 C115 1.048 . S
C329 C232 1.325 1_655 S
C321 C1 1.149 . S
C361 C254 1.496 . S
C353 C125 0.862 . S
C393 C246 1.548 . S
C385 C55 1.235 . S
C425 C239 1.391 . S
C417 C143 1.107 . S
C457 C247 1.182 . S
C449 C29 1.189 . S
C481 C169 1.120 . S
C489 C240 1.588 . S
