# Generated by pormake.
# Topology pyr, (3,6)-cn, num edge types: 1
# Building blocks:
#     Node 0, Type 0, BuildingBlock: QEWDON_clean_linker_0, # of connection points: 3
#     Node 1, Type 0, BuildingBlock: QEWDON_clean_linker_0, # of connection points: 3
#     Node 2, Type 0, BuildingBlock: QEWDON_clean_linker_0, # of connection points: 3
#     Node 3, Type 0, BuildingBlock: QEWDON_clean_linker_0, # of connection points: 3
#     Node 4, Type 0, BuildingBlock: QEWDON_clean_linker_0, # of connection points: 3
#     Node 5, Type 0, BuildingBlock: QEWDON_clean_linker_0, # of connection points: 3
#     Node 6, Type 0, BuildingBlock: QEWDON_clean_linker_0, # of connection points: 3
#     Node 7, Type 0, BuildingBlock: QEWDON_clean_linker_0, # of connection points: 3
#     Node 8, Type 1, BuildingBlock: GEDQOX_clean_sbu_0, # of connection points: 6
#     Node 9, Type 1, BuildingBlock: GEDQOX_clean_sbu_0, # of connection points: 6
#     Node 10, Type 1, BuildingBlock: GEDQOX_clean_sbu_0, # of connection points: 6
#     Node 11, Type 1, BuildingBlock: GEDQOX_clean_sbu_0, # of connection points: 6
#     Edge 12, Type (0, 1), BuildingBlock: MIFKUJ_clean_linker_0, # of connection points: 2
#     Edge 13, Type (0, 1), BuildingBlock: MIFKUJ_clean_linker_0, # of connection points: 2
#     Edge 14, Type (0, 1), BuildingBlock: MIFKUJ_clean_linker_0, # of connection points: 2
#     Edge 15, Type (0, 1), BuildingBlock: MIFKUJ_clean_linker_0, # of connection points: 2
#     Edge 16, Type (0, 1), BuildingBlock: MIFKUJ_clean_linker_0, # of connection points: 2
#     Edge 17, Type (0, 1), BuildingBlock: MIFKUJ_clean_linker_0, # of connection points: 2
#     Edge 18, Type (0, 1), BuildingBlock: MIFKUJ_clean_linker_0, # of connection points: 2
#     Edge 19, Type (0, 1), BuildingBlock: MIFKUJ_clean_linker_0, # of connection points: 2
#     Edge 20, Type (0, 1), BuildingBlock: MIFKUJ_clean_linker_0, # of connection points: 2
#     Edge 21, Type (0, 1), BuildingBlock: MIFKUJ_clean_linker_0, # of connection points: 2
#     Edge 22, Type (0, 1), BuildingBlock: MIFKUJ_clean_linker_0, # of connection points: 2
#     Edge 23, Type (0, 1), BuildingBlock: MIFKUJ_clean_linker_0, # of connection points: 2
#     Edge 24, Type (0, 1), BuildingBlock: MIFKUJ_clean_linker_0, # of connection points: 2
#     Edge 25, Type (0, 1), BuildingBlock: MIFKUJ_clean_linker_0, # of connection points: 2
#     Edge 26, Type (0, 1), BuildingBlock: MIFKUJ_clean_linker_0, # of connection points: 2
#     Edge 27, Type (0, 1), BuildingBlock: MIFKUJ_clean_linker_0, # of connection points: 2
#     Edge 28, Type (0, 1), BuildingBlock: MIFKUJ_clean_linker_0, # of connection points: 2
#     Edge 29, Type (0, 1), BuildingBlock: MIFKUJ_clean_linker_0, # of connection points: 2
#     Edge 30, Type (0, 1), BuildingBlock: MIFKUJ_clean_linker_0, # of connection points: 2
#     Edge 31, Type (0, 1), BuildingBlock: MIFKUJ_clean_linker_0, # of connection points: 2
#     Edge 32, Type (0, 1), BuildingBlock: MIFKUJ_clean_linker_0, # of connection points: 2
#     Edge 33, Type (0, 1), BuildingBlock: MIFKUJ_clean_linker_0, # of connection points: 2
#     Edge 34, Type (0, 1), BuildingBlock: MIFKUJ_clean_linker_0, # of connection points: 2
#     Edge 35, Type (0, 1), BuildingBlock: MIFKUJ_clean_linker_0, # of connection points: 2
# Relax obj value: 0.193
# Max RMSD: 0.287
# Mean RMSD: 0.202
data_MOF--net-pyr--node1-GEDQOX_clean_sbu_0--node2-QEWDON_clean_linker_0--edge1-MIFKUJ_clean_linker_0
_symmetry_space_group_name_H-M    P1
_symmetry_Int_Tables_number       1
_symmetry_cell_setting            triclinic
loop_
_symmetry_equiv_pos_as_xyz
'x, y, z'
_cell_length_a     50.176443
_cell_length_b     50.335483
_cell_length_c     48.806899
_cell_angle_alpha  88.918832
_cell_angle_beta   92.573802
_cell_angle_gamma 98.012324
loop_
_atom_site_label
_atom_site_type_symbol
_atom_site_fract_x
_atom_site_fract_y
_atom_site_fract_z
_atom_type_partial_charge
H0 H 0.25092 0.22547 0.17625 0.0
C1 C 0.2396 0.21526 0.19266 0.0
C2 C 0.24722 0.19047 0.20329 0.0
C3 C 0.21907 0.22842 0.20406 0.0
H4 H 0.23783 0.15988 0.23444 0.0
C5 C 0.23287 0.17881 0.22647 0.0
C6 C 0.21213 0.1909 0.23918 0.0
C7 C 0.20596 0.21582 0.22728 0.0
C8 C 0.21804 0.25864 0.19769 0.0
H9 H 0.19203 0.22671 0.23713 0.0
C10 C 0.19741 0.27127 0.18207 0.0
C11 C 0.20011 0.30043 0.1779 0.0
C12 C 0.24007 0.27581 0.2089 0.0
H13 H 0.25587 0.26763 0.22081 0.0
C14 C 0.24237 0.30352 0.2055 0.0
H15 H 0.18013 0.25877 0.17293 0.0
C16 C 0.22296 0.31551 0.19041 0.0
H17 H 0.22601 0.3372 0.18849 0.0
H18 H 0.25966 0.31601 0.21468 0.0
H19 H 0.36709 0.82138 0.82603 0.0
C20 C 0.37957 0.81014 0.81441 0.0
C21 C 0.40776 0.81674 0.81608 0.0
C22 C 0.36739 0.7884 0.79876 0.0
H23 H 0.44541 0.80722 0.80174 0.0
C24 C 0.42373 0.80176 0.80103 0.0
C25 C 0.41158 0.78045 0.78434 0.0
C26 C 0.38343 0.7736 0.78404 0.0
C27 C 0.3378 0.78111 0.79722 0.0
H28 H 0.37376 0.75677 0.77202 0.0
C29 C 0.32119 0.79967 0.78714 0.0
C30 C 0.29323 0.79195 0.78273 0.0
C31 C 0.32626 0.75495 0.80401 0.0
H32 H 0.33877 0.74035 0.81177 0.0
C33 C 0.29853 0.74736 0.80059 0.0
H34 H 0.33026 0.81986 0.78201 0.0
C35 C 0.28212 0.76557 0.7898 0.0
H36 H 0.26086 0.75865 0.78624 0.0
H37 H 0.28978 0.7271 0.80572 0.0
H38 H 0.74784 0.51476 0.93184 0.0
C39 C 0.74108 0.4952 0.9407 0.0
C40 C 0.75952 0.47712 0.94687 0.0
C41 C 0.71368 0.48793 0.94538 0.0
H42 H 0.76419 0.43792 0.96349 0.0
C43 C 0.75004 0.4517 0.9578 0.0
C44 C 0.72251 0.44393 0.96181 0.0
C45 C 0.70443 0.46235 0.95572 0.0
C46 C 0.69434 0.50648 0.93786 0.0
H47 H 0.68302 0.45662 0.95816 0.0
C48 C 0.68343 0.50687 0.91096 0.0
C49 C 0.6645 0.5241 0.90348 0.0
C50 C 0.6864 0.52339 0.9575 0.0
H51 H 0.69464 0.52316 0.97839 0.0
C52 C 0.66773 0.54071 0.95019 0.0
H53 H 0.68989 0.49385 0.89587 0.0
C54 C 0.6568 0.54111 0.92335 0.0
H55 H 0.64208 0.55444 0.91825 0.0
H56 H 0.66159 0.55375 0.96539 0.0
H57 H 0.85383 0.86687 0.28866 0.0
C58 C 0.84526 0.84971 0.30069 0.0
C59 C 0.85119 0.84874 0.329 0.0
C60 C 0.82814 0.82864 0.28791 0.0
H61 H 0.84498 0.82571 0.36625 0.0
C62 C 0.83991 0.8266 0.34445 0.0
C63 C 0.82262 0.80546 0.33209 0.0
C64 C 0.81708 0.80643 0.30364 0.0
C65 C 0.82144 0.83001 0.25817 0.0
H66 H 0.80349 0.79041 0.29387 0.0
C67 C 0.82559 0.80896 0.24112 0.0
C68 C 0.81932 0.8101 0.21279 0.0
C69 C 0.81085 0.85232 0.24671 0.0
H70 H 0.80745 0.86876 0.25952 0.0
C71 C 0.80413 0.85333 0.21865 0.0
H72 H 0.83388 0.79177 0.2499 0.0
C73 C 0.80826 0.83232 0.20174 0.0
H74 H 0.80333 0.83368 0.17997 0.0
H75 H 0.79582 0.8705 0.20997 0.0
H76 H 0.86515 0.86107 0.91714 0.0
C77 C 0.87493 0.87209 0.90024 0.0
C78 C 0.89923 0.864 0.89079 0.0
C79 C 0.8622 0.89347 0.8878 0.0
H80 H 0.92913 0.87271 0.86024 0.0
C81 C 0.91082 0.87846 0.86764 0.0
C82 C 0.89902 0.89956 0.85346 0.0
C83 C 0.87467 0.90662 0.86428 0.0
C84 C 0.83229 0.89544 0.89401 0.0
H85 H 0.8643 0.92134 0.8534 0.0
C86 C 0.82102 0.91596 0.90915 0.0
C87 C 0.79199 0.91396 0.91341 0.0
C88 C 0.81389 0.87393 0.88392 0.0
H89 H 0.82093 0.85813 0.8726 0.0
C90 C 0.78638 0.87201 0.88794 0.0
H91 H 0.83441 0.93294 0.91734 0.0
C92 C 0.77572 0.89146 0.90227 0.0
H93 H 0.75414 0.88879 0.90469 0.0
H94 H 0.77299 0.85501 0.87975 0.0
H95 H 0.70006 0.25917 0.40111 0.0
C96 C 0.69565 0.25263 0.38016 0.0
C97 C 0.71366 0.23843 0.36708 0.0
C98 C 0.67084 0.25628 0.36709 0.0
H99 H 0.72059 0.2176 0.33029 0.0
C100 C 0.70694 0.2287 0.34048 0.0
C101 C 0.68259 0.23285 0.32698 0.0
C102 C 0.66475 0.24681 0.34029 0.0
C103 C 0.64954 0.26623 0.38252 0.0
H104 H 0.64543 0.24912 0.33033 0.0
C105 C 0.65347 0.29167 0.39487 0.0
C106 C 0.63221 0.30085 0.40832 0.0
C107 C 0.62463 0.24982 0.38455 0.0
H108 H 0.62127 0.23009 0.37547 0.0
C109 C 0.6039 0.25853 0.39846 0.0
H110 H 0.67253 0.30454 0.39314 0.0
C111 C 0.60757 0.28385 0.41019 0.0
H112 H 0.59108 0.29012 0.42086 0.0
H113 H 0.58485 0.24565 0.40004 0.0
H114 H 0.39234 0.63794 0.23875 0.0
C115 C 0.37185 0.63751 0.23051 0.0
C116 C 0.36543 0.65809 0.21268 0.0
C117 C 0.35228 0.61577 0.23687 0.0
H118 H 0.33379 0.67305 0.18813 0.0
C119 C 0.33895 0.65709 0.20173 0.0
C120 C 0.3191 0.63562 0.20804 0.0
C121 C 0.32599 0.61485 0.22542 0.0
C122 C 0.35965 0.59376 0.25497 0.0
H123 H 0.31076 0.59827 0.23056 0.0
C124 C 0.37413 0.59956 0.27997 0.0
C125 C 0.38277 0.57892 0.29658 0.0
C126 C 0.35305 0.56697 0.24689 0.0
H127 H 0.34201 0.56202 0.22766 0.0
C128 C 0.36141 0.54636 0.26318 0.0
H129 H 0.37828 0.62023 0.28649 0.0
C130 C 0.37636 0.55222 0.28767 0.0
H131 H 0.38322 0.53577 0.2993 0.0
H132 H 0.35664 0.52577 0.2566 0.0
H133 H 0.25558 0.33181 0.80457 0.0
C134 C 0.24469 0.31632 0.79162 0.0
C135 C 0.24343 0.3205 0.76313 0.0
C136 C 0.23173 0.29255 0.8035 0.0
H137 H 0.22898 0.30322 0.72424 0.0
C138 C 0.22977 0.30028 0.74632 0.0
C139 C 0.21711 0.27627 0.75774 0.0
C140 C 0.21791 0.2726 0.78633 0.0
C141 C 0.23203 0.28908 0.83384 0.0
H142 H 0.20768 0.25425 0.79515 0.0
C143 C 0.22933 0.31091 0.8505 0.0
C144 C 0.22986 0.30834 0.87923 0.0
C145 C 0.23509 0.26424 0.84636 0.0
H146 H 0.2375 0.24707 0.83413 0.0
C147 C 0.23561 0.26148 0.87493 0.0
H148 H 0.22692 0.33012 0.84103 0.0
C149 C 0.23309 0.28338 0.89133 0.0
H150 H 0.23339 0.28072 0.91341 0.0
H151 H 0.23806 0.2423 0.8844 0.0
Nd152 Nd 0.06675 0.02977 0.54452 0.0
Nd153 Nd 0.0308 0.07038 0.54518 0.0
C154 C 0.0898 0.98562 0.54676 0.0
C155 C 0.10319 0.97117 0.56873 0.0
C156 C 0.09775 0.94312 0.57081 0.0
C157 C 0.11092 0.92926 0.59122 0.0
C158 C 0.12996 0.94326 0.60964 0.0
C159 C 0.135 0.97137 0.60782 0.0
C160 C 0.12161 0.98521 0.5877 0.0
C161 C 0.08848 0.07466 0.5732 0.0
C162 C 1.02413 0.02656 0.59674 0.0
C163 C 1.00709 0.11429 0.5458 0.0
C164 C 0.99066 0.12959 0.52748 0.0
C165 C 0.98012 0.15151 0.53785 0.0
C166 C 0.96109 0.16382 0.52229 0.0
C167 C 0.95219 0.15435 0.49603 0.0
C168 C 0.96376 0.13304 0.48525 0.0
C169 C 0.98279 0.12072 0.50088 0.0
C170 C 1.00877 0.02584 0.51606 0.0
C171 C 0.07438 0.07322 0.49324 0.0
O172 O 0.06377 0.98529 0.5481 0.0
O173 O 0.10227 1.00914 0.53974 0.0
O174 O 0.10227 0.06155 0.5578 0.0
O175 O 0.06465 0.06325 0.57435 0.0
O176 O 0.03929 1.01335 0.58157 0.0
O177 O 1.02051 0.05125 0.58868 0.0
O178 O 0.03247 0.11471 0.54047 0.0
O179 O 0.99551 0.09046 0.5528 0.0
O180 O 0.99535 0.03893 0.53186 0.0
O181 O 0.03277 0.03696 0.51502 0.0
O182 O 0.05854 0.08638 0.50784 0.0
O183 O 0.07821 0.0487 0.50158 0.0
H184 H 0.08351 0.93194 0.55648 0.0
H185 H 0.10677 0.90756 0.59216 0.0
H186 H 0.14931 0.98265 0.62201 0.0
H187 H 0.12589 1.00691 0.58686 0.0
H188 H 0.98577 0.15841 0.55847 0.0
H189 H 0.95241 0.1799 0.53141 0.0
H190 H 0.95764 0.12548 0.46497 0.0
H191 H 0.99065 0.10369 0.49262 0.0
Nd192 Nd 0.51954 0.03324 0.08199 0.0
Nd193 Nd 0.5239 0.06666 0.04344 0.0
C194 C 0.51103 0.9907 0.1151 0.0
C195 C 0.51124 0.96139 0.11679 0.0
C196 C 0.5308 0.95095 0.13366 0.0
C197 C 0.52883 0.92337 0.13894 0.0
C198 C 0.50707 0.9057 0.1277 0.0
C199 C 0.48827 0.91609 0.10971 0.0
C200 C 0.49034 0.94361 0.10429 0.0
C201 C 0.48175 0.06948 0.09126 0.0
C202 C 0.49297 1.01258 0.02462 0.0
C203 C 0.52534 0.11113 1.0132 0.0
C204 C 0.54488 0.13534 1.01019 0.0
C205 C 0.53599 0.15912 1.00067 0.0
C206 C 0.55394 0.1829 0.99992 0.0
C207 C 0.58106 0.18318 1.00867 0.0
C208 C 0.59 0.15917 1.01783 0.0
C209 C 0.57197 0.13542 1.01875 0.0
C210 C 0.56372 0.0334 0.03298 0.0
C211 C 0.561 0.08254 0.09895 0.0
O212 O 0.53407 1.0062 0.11426 0.0
O213 O 0.4923 0.99952 0.09953 0.0
O214 O 0.50036 0.06325 0.10843 0.0
O215 O 0.48523 0.05855 0.06834 0.0
O216 O 0.50851 1.00574 0.04501 0.0
O217 O 0.49046 0.038 0.02183 0.0
O218 O 0.51453 0.10811 0.037 0.0
O219 O 0.53217 0.0889 1.00433 0.0
O220 O 0.54689 0.04202 1.01516 0.0
O221 O 0.55859 0.04149 0.05689 0.0
O222 O 0.55028 0.09195 0.07641 0.0
O223 O 0.55415 0.05741 0.10559 0.0
H224 H 0.54707 0.96421 0.14363 0.0
H225 H 0.54389 0.916 0.15253 0.0
H226 H 0.47104 0.9032 0.10096 0.0
H227 H 0.47486 0.95099 0.09127 0.0
H228 H 0.51507 0.15938 0.99423 0.0
H229 H 0.54663 0.20109 0.99248 0.0
H230 H 0.61074 0.15892 0.02488 0.0
H231 H 0.57904 0.11723 0.02657 0.0
Nd232 Nd 0.53162 0.55215 0.57951 0.0
Nd233 Nd 0.58662 0.58604 0.58417 0.0
C234 C 0.48016 0.53402 0.56959 0.0
C235 C 0.45569 0.53057 0.58525 0.0
C236 C 0.43196 0.51641 0.57379 0.0
C237 C 0.40964 0.50951 0.58986 0.0
C238 C 0.41079 0.51664 0.61769 0.0
C239 C 0.43419 0.53225 0.6286 0.0
C240 C 0.4565 0.53912 0.61249 0.0
C241 C 0.56166 0.54143 0.62593 0.0
C242 C 0.53866 0.60923 0.6128 0.0
C243 C 0.63793 0.6063 0.59057 0.0
C244 C 0.65981 0.612 0.57154 0.0
C245 C 0.68417 0.62717 0.58011 0.0
C246 C 0.70358 0.63587 0.56105 0.0
C247 C 0.69879 0.62962 0.5331 0.0
C248 C 0.67482 0.61325 0.5249 0.0
C249 C 0.65546 0.60454 0.54399 0.0
C250 C 0.55577 0.59539 0.53778 0.0
C251 C 0.58027 0.52765 0.55365 0.0
O252 O 0.49072 0.55874 0.56429 0.0
O253 O 0.49814 0.51864 0.57743 0.0
O254 O 0.54511 0.52329 0.61304 0.0
O255 O 0.56017 0.56423 0.6156 0.0
O256 O 0.52246 0.59237 0.597 0.0
O257 O 0.56469 0.60759 0.61528 0.0
O258 O 0.62904 0.58095 0.59494 0.0
O259 O 0.61854 0.621 0.58668 0.0
O260 O 0.57143 0.61435 0.5504 0.0
O261 O 0.55843 0.57315 0.54852 0.0
O262 O 0.59623 0.54507 0.56906 0.0
O263 O 0.55431 0.52936 0.55031 0.0
H264 H 0.43108 0.50969 0.55277 0.0
H265 H 0.39208 0.49726 0.58089 0.0
H266 H 0.43558 0.53833 0.64984 0.0
H267 H 0.47474 0.55017 0.62158 0.0
H268 H 0.68777 0.63309 0.60134 0.0
H269 H 0.722 0.64816 0.56803 0.0
H270 H 0.67033 0.60837 0.50352 0.0
H271 H 0.63661 0.59295 0.53705 0.0
Nd272 Nd 1.02056 0.56812 0.04724 0.0
Nd273 Nd 0.07333 0.59023 0.02255 0.0
C274 C 0.96928 0.55132 0.05585 0.0
C275 C 0.9454 0.56474 0.05872 0.0
C276 C 0.94386 0.58966 0.04597 0.0
C277 C 0.92383 0.60478 0.05248 0.0
C278 C 0.90473 0.59512 0.07182 0.0
C279 C 0.90521 0.56921 0.08311 0.0
C280 C 0.9255 0.55419 0.0767 0.0
C281 C 0.05607 0.59842 0.0823 0.0
C282 C 1.025 0.62855 1.01278 0.0
C283 C 0.12467 0.60482 1.01273 0.0
C284 C 0.14701 0.58917 1.00923 0.0
C285 C 0.15152 0.56832 0.0277 0.0
C286 C 0.16846 0.54981 0.02109 0.0
C287 C 0.18117 0.55183 0.99591 0.0
C288 C 0.17844 0.57405 0.9786 0.0
C289 C 0.16145 0.59253 0.9852 0.0
C290 C 0.03745 0.55939 0.98815 0.0
C291 C 0.06877 0.52978 0.05707 0.0
O292 O 0.97941 0.55244 0.03152 0.0
O293 O 0.98773 0.55572 0.07563 0.0
O294 O 0.04023 0.57726 0.09001 0.0
O295 O 0.05151 0.6038 0.05735 0.0
O296 O 1.00945 0.60729 0.02317 0.0
O297 O 0.05157 0.62828 1.0129 0.0
O298 O 0.11516 0.60475 0.03728 0.0
O299 O 0.10565 0.60184 0.99336 0.0
O300 O 0.05179 0.58148 0.98039 0.0
O301 O 0.0429 0.55431 1.01293 0.0
O302 O 0.08443 0.55082 0.04636 0.0
O303 O 0.04231 0.53036 0.05733 0.0
H304 H 0.95894 0.598 0.03196 0.0
H305 H 0.92441 0.62471 0.04359 0.0
H306 H 0.89054 0.56096 0.09771 0.0
H307 H 0.92632 0.53488 0.08665 0.0
H308 H 0.14079 0.56534 0.04651 0.0
H309 H 0.17004 0.5329 0.03483 0.0
H310 H 0.18839 0.57642 0.95929 0.0
H311 H 0.1584 0.60855 0.97075 0.0
H312 H 0.22698 0.15203 0.27812 0.0
H313 H 0.20434 0.13289 0.31863 0.0
H314 H 0.14133 0.1816 0.30317 0.0
H315 H 0.16306 0.20014 0.26201 0.0
H316 H 0.15192 0.1814 0.3577 0.0
H317 H 0.13357 0.10992 0.29281 0.0
H318 H 0.14502 0.07712 0.2599 0.0
H319 H 0.19228 0.0423 0.32286 0.0
H320 H 0.18139 0.07513 0.35607 0.0
H321 H 0.0643 0.11837 0.46141 0.0
H322 H 0.0855 0.13723 0.41973 0.0
H323 H 0.13827 0.07659 0.4235 0.0
H324 H 0.11593 0.05688 0.46418 0.0
H325 H 0.13316 0.08336 0.37429 0.0
H326 H 0.15457 0.15434 0.43884 0.0
H327 H 0.14598 0.18766 0.47263 0.0
H328 H 0.09708 0.22408 0.41235 0.0
H329 H 0.10515 0.19079 0.37828 0.0
C330 C 0.20811 0.1587 0.28259 0.0
C331 C 0.19762 0.17829 0.26533 0.0
C332 C 0.19493 0.1475 0.30645 0.0
C333 C 0.17044 0.15519 0.31493 0.0
C334 C 0.16004 0.17487 0.29804 0.0
C335 C 0.17298 0.18582 0.27398 0.0
C336 C 0.15589 0.14305 0.34095 0.0
C337 C 0.14762 0.15989 0.36094 0.0
C338 C 0.15037 0.11492 0.34673 0.0
C339 C 0.15688 0.09515 0.32685 0.0
C340 C 0.14656 0.09539 0.29959 0.0
C341 C 0.15293 0.07677 0.28089 0.0
C342 C 0.16943 0.05769 0.28927 0.0
C343 C 0.17954 0.05713 0.31639 0.0
C344 C 0.17326 0.07572 0.33516 0.0
C345 C 0.08046 0.10893 0.45354 0.0
C346 C 0.08802 0.08578 0.46708 0.0
C347 C 0.0931 0.12012 0.42937 0.0
C348 C 0.1147 0.10935 0.41758 0.0
C349 C 0.12203 0.08604 0.43114 0.0
C350 C 0.10907 0.07459 0.45498 0.0
C351 C 0.12922 0.1217 0.39143 0.0
C352 C 0.13747 0.10489 0.37129 0.0
C353 C 0.13515 0.14991 0.38575 0.0
C354 C 0.13022 0.1699 0.40613 0.0
C355 C 0.14185 0.16936 0.43286 0.0
C356 C 0.13709 0.18825 0.45204 0.0
C357 C 0.12092 0.20792 0.44466 0.0
C358 C 0.10955 0.2088 0.41805 0.0
C359 C 0.11422 0.18994 0.39879 0.0
H360 H 0.11726 0.22253 0.45954 0.0
H361 H 0.17433 0.04329 0.27476 0.0
H362 H 0.44778 0.81555 0.85577 0.0
H363 H 0.46343 0.85008 0.88995 0.0
H364 H 0.41081 0.90212 0.85186 0.0
H365 H 0.39496 0.86761 0.81784 0.0
H366 H 0.46343 0.92885 0.86881 0.0
H367 H 0.3892 0.86826 0.90432 0.0
H368 H 0.36552 0.82369 0.91672 0.0
H369 H 0.4311 0.81083 0.97274 0.0
H370 H 0.45537 0.85518 0.96031 0.0
H371 H 0.4622 0.02025 0.97784 0.0
H372 H 0.44803 0.98787 0.94133 0.0
H373 H 0.48645 0.92807 0.98649 0.0
H374 H 0.49988 0.95991 0.02322 0.0
H375 H 0.44107 0.90536 0.96508 0.0
H376 H 0.51587 0.96415 0.93116 0.0
H377 H 0.54191 1.00761 0.91884 0.0
H378 H 0.47917 0.02281 0.8603 0.0
H379 H 0.45255 0.97958 0.87258 0.0
C380 C 0.43998 0.83456 0.8544 0.0
C381 C 0.42008 0.83888 0.83426 0.0
C382 C 0.4488 0.85419 0.87399 0.0
C383 C 0.43809 0.87856 0.87357 0.0
C384 C 0.4193 0.88346 0.85257 0.0
C385 C 0.41021 0.86372 0.83324 0.0
C386 C 0.44506 0.89819 0.89601 0.0
C387 C 0.45832 0.92387 0.88983 0.0
C388 C 0.4389 0.89145 0.9235 0.0
C389 C 0.42422 0.86491 0.93117 0.0
C390 C 0.39867 0.85583 0.91911 0.0
C391 C 0.38512 0.83063 0.92617 0.0
C392 C 0.39683 0.81441 0.94545 0.0
C393 C 0.42208 0.8234 0.95777 0.0
C394 C 0.43573 0.84857 0.95074 0.0
C395 C 0.46737 1.00011 0.98009 0.0
C396 C 0.48226 0.99272 1.0034 0.0
C397 C 0.45945 0.98166 0.9591 0.0
C398 C 0.46658 0.9556 0.96086 0.0
C399 C 0.48074 0.94802 0.98453 0.0
C400 C 0.48845 0.96632 1.00555 0.0
C401 C 0.45963 0.9362 0.93805 0.0
C402 C 0.44628 0.91048 0.94412 0.0
C403 C 0.46609 0.94282 0.91054 0.0
C404 C 0.48209 0.96876 0.903 0.0
C405 C 0.50753 0.97685 0.9158 0.0
C406 C 0.52241 1.00143 0.90881 0.0
C407 C 0.51217 0.01799 0.88885 0.0
C408 C 0.48705 1.00998 0.87579 0.0
C409 C 0.47206 0.98543 0.88275 0.0
H410 H 0.52372 0.03702 0.88345 0.0
H411 H 0.38631 0.79491 0.9509 0.0
H412 H 0.65619 0.56756 0.87149 0.0
H413 H 0.63784 0.56773 0.82425 0.0
H414 H 0.62851 0.48122 0.82379 0.0
H415 H 0.64684 0.48091 0.87108 0.0
H416 H 0.65012 0.5018 0.7775 0.0
H417 H 0.57418 0.51337 0.82895 0.0
H418 H 0.54883 0.53341 0.86341 0.0
H419 H 0.56137 0.60924 0.82081 0.0
H420 H 0.58716 0.58976 0.78629 0.0
H421 H 0.56442 0.49418 0.6538 0.0
H422 H 0.5821 0.48861 0.70103 0.0
H423 H 0.60344 0.57439 0.70718 0.0
H424 H 0.5862 0.58006 0.66019 0.0
H425 H 0.57343 0.55067 0.75083 0.0
H426 H 0.65136 0.53832 0.70045 0.0
H427 H 0.67566 0.51712 0.66594 0.0
H428 H 0.65743 0.44081 0.7067 0.0
H429 H 0.63265 0.46152 0.74125 0.0
C430 C 0.64995 0.54858 0.86143 0.0
C431 C 0.65289 0.52423 0.87501 0.0
C432 C 0.63952 0.54869 0.83443 0.0
C433 C 0.63157 0.52446 0.82062 0.0
C434 C 0.63457 0.50013 0.83407 0.0
C435 C 0.64508 0.5 0.86105 0.0
C436 C 0.6204 0.52464 0.79201 0.0
C437 C 0.63307 0.51211 0.77173 0.0
C438 C 0.59835 0.53833 0.78446 0.0
C439 C 0.58282 0.55015 0.80516 0.0
C440 C 0.57173 0.53438 0.82705 0.0
C441 C 0.55725 0.54563 0.84657 0.0
C442 C 0.55355 0.5726 0.84434 0.0
C443 C 0.56428 0.58836 0.82253 0.0
C444 C 0.57881 0.57722 0.80296 0.0
C445 C 0.57311 0.51177 0.66521 0.0
C446 C 0.57386 0.53753 0.65345 0.0
C447 C 0.58319 0.50858 0.69209 0.0
C448 C 0.59397 0.53112 0.70751 0.0
C449 C 0.59508 0.55678 0.69561 0.0
C450 C 0.58531 0.55996 0.66874 0.0
C451 C 0.60343 0.52825 0.73638 0.0
C452 C 0.59036 0.54022 0.75669 0.0
C453 C 0.62492 0.51386 0.74394 0.0
C454 C 0.63988 0.50141 0.72324 0.0
C455 C 0.65231 0.51697 0.70191 0.0
C456 C 0.66622 0.50506 0.68237 0.0
C457 C 0.66802 0.47762 0.68407 0.0
C458 C 0.65597 0.46206 0.70537 0.0
C459 C 0.64201 0.47387 0.72494 0.0
H460 H 0.6788 0.46843 0.66893 0.0
H461 H 0.54232 0.58127 0.85947 0.0
H462 H 0.78575 0.78347 0.17354 0.0
H463 H 0.795 0.74648 0.14491 0.0
H464 H 0.87474 0.75101 0.183 0.0
H465 H 0.86563 0.78788 0.21155 0.0
H466 H 0.8743 0.74573 0.12634 0.0
H467 H 0.82847 0.70493 0.20452 0.0
H468 H 0.7913 0.69684 0.23633 0.0
H469 H 0.73627 0.66912 0.16969 0.0
H470 H 0.77309 0.67744 0.13739 0.0
H471 H 0.89074 0.59964 0.12483 0.0
H472 H 0.86908 0.63502 0.14395 0.0
H473 H 0.85799 0.6686 0.06299 0.0
H474 H 0.87897 0.63261 0.04339 0.0
H475 H 0.82097 0.65568 0.13731 0.0
H476 H 0.87948 0.73938 0.0715 0.0
H477 H 0.92019 0.74682 0.0442 0.0
H478 H 0.95494 0.68697 0.09202 0.0
H479 H 0.91511 0.67999 0.1204 0.0
C480 C 0.8053 0.77667 0.17558 0.0
C481 C 0.82494 0.78836 0.19483 0.0
C482 C 0.81052 0.75556 0.15933 0.0
C483 C 0.83552 0.74604 0.16194 0.0
C484 C 0.85535 0.75814 0.18066 0.0
C485 C 0.85005 0.779 0.19709 0.0
C486 C 0.84085 0.72276 0.14602 0.0
C487 C 0.86244 0.72611 0.12841 0.0
C488 C 0.82558 0.69714 0.14913 0.0
C489 C 0.80344 0.69214 0.1685 0.0
C490 C 0.80839 0.69736 0.19661 0.0
C491 C 0.7874 0.69269 0.21474 0.0
C492 C 0.76142 0.68256 0.20503 0.0
C493 C 0.75639 0.67703 0.17717 0.0
C494 C 0.77731 0.68172 0.15895 0.0
C495 C 0.88284 0.61388 0.11087 0.0
C496 C 0.8869 0.6134 0.08255 0.0
C497 C 0.87054 0.63421 0.1219 0.0
C498 C 0.86231 0.65459 0.10492 0.0
C499 C 0.86452 0.65318 0.07645 0.0
C500 C 0.87665 0.6327 0.06533 0.0
C501 C 0.85434 0.67864 0.11749 0.0
C502 C 0.83235 0.67545 0.13459 0.0
C503 C 0.86962 0.70431 0.11433 0.0
C504 C 0.89399 0.70874 0.09771 0.0
C505 C 0.89583 0.72784 0.07623 0.0
C506 C 0.91876 0.73201 0.06058 0.0
C507 C 0.93993 0.71713 0.0661 0.0
C508 C 0.93842 0.69833 0.08759 0.0
C509 C 0.9157 0.69431 0.10353 0.0
H510 H 0.95757 0.72029 0.05384 0.0
H511 H 0.7452 0.67893 0.2191 0.0
H512 H 0.26495 0.19126 0.1489 0.0
H513 H 0.30207 0.17174 0.12974 0.0
H514 H 0.32184 0.13992 0.20926 0.0
H515 H 0.28483 0.15958 0.22861 0.0
H516 H 0.36839 0.15631 0.1869 0.0
H517 H 0.29021 0.10035 0.1498 0.0
H518 H 0.24655 0.09053 0.12418 0.0
H519 H 0.28209 0.1263 0.05149 0.0
H520 H 0.3259 0.13664 0.07679 0.0
H521 H 0.46618 0.07625 0.14411 0.0
H522 H 0.42781 0.09445 0.16128 0.0
H523 H 0.40073 0.11069 0.07851 0.0
H524 H 0.43879 0.09054 0.06114 0.0
H525 H 0.35742 0.10326 0.10171 0.0
H526 H 0.43316 0.16276 0.13665 0.0
H527 H 0.47684 0.17695 0.16072 0.0
H528 H 0.44695 0.13926 0.235 0.0
H529 H 0.40288 0.12498 0.21135 0.0
C530 C 0.27701 0.1802 0.16265 0.0
C531 C 0.27076 0.17746 0.19083 0.0
C532 C 0.29859 0.16855 0.15135 0.0
C533 C 0.31566 0.15347 0.16742 0.0
C534 C 0.30968 0.15102 0.19563 0.0
C535 C 0.28788 0.16236 0.20688 0.0
C536 C 0.33957 0.14084 0.15529 0.0
C537 C 0.36555 0.1444 0.16846 0.0
C538 C 0.33751 0.12573 0.13049 0.0
C539 C 0.31126 0.1195 0.11526 0.0
C540 C 0.28867 0.10629 0.12841 0.0
C541 C 0.2639 0.1006 0.11393 0.0
C542 C 0.26153 0.10785 0.08624 0.0
C543 C 0.28394 0.12074 0.07295 0.0
C544 C 0.30875 0.12649 0.08734 0.0
C545 C 0.45224 0.08365 0.12923 0.0
C546 C 0.4566 0.08156 0.10083 0.0
C547 C 0.42991 0.09475 0.13934 0.0
C548 C 0.41054 0.10555 0.12188 0.0
C549 C 0.41464 0.10313 0.0933 0.0
C550 C 0.43688 0.09145 0.0831 0.0
C551 C 0.38644 0.11863 0.13339 0.0
C552 C 0.36037 0.11515 0.12015 0.0
C553 C 0.38848 0.13431 0.15789 0.0
C554 C 0.41489 0.14254 0.17216 0.0
C555 C 0.43597 0.15736 0.15807 0.0
C556 C 0.46078 0.16546 0.17166 0.0
C557 C 0.4648 0.15885 0.19933 0.0
C558 C 0.44386 0.1443 0.21354 0.0
C559 C 0.41892 0.13628 0.20009 0.0
H560 H 0.48408 0.1651 0.20976 0.0
H561 H 0.24234 0.10343 0.07507 0.0
H562 H 0.24048 0.79691 0.79231 0.0
H563 H 0.21102 0.82404 0.76641 0.0
H564 H 0.27723 0.85725 0.7174 0.0
H565 H 0.30652 0.82922 0.74196 0.0
H566 H 0.24266 0.89563 0.73764 0.0
H567 H 0.23887 0.81113 0.68986 0.0
H568 H 0.23154 0.76175 0.68729 0.0
H569 H 0.1506 0.76027 0.71298 0.0
H570 H 0.15762 0.80966 0.71611 0.0
H571 H 0.18415 0.94994 0.61982 0.0
H572 H 0.20982 0.92581 0.65317 0.0
H573 H 0.13601 0.87993 0.67956 0.0
H574 H 0.11028 0.90359 0.64542 0.0
H575 H 0.17165 0.84808 0.67518 0.0
H576 H 0.17222 0.93159 0.719 0.0
H577 H 0.17815 0.98079 0.72348 0.0
H578 H 0.26234 0.9847 0.70876 0.0
H579 H 0.25685 0.93555 0.70378 0.0
C580 C 0.24883 0.80984 0.77594 0.0
C581 C 0.27594 0.81061 0.76918 0.0
C582 C 0.23199 0.8255 0.76135 0.0
C583 C 0.242 0.84252 0.74002 0.0
C584 C 0.26922 0.84431 0.73395 0.0
C585 C 0.28598 0.82834 0.74819 0.0
C586 C 0.22379 0.85728 0.72287 0.0
C587 C 0.22722 0.88536 0.72381 0.0
C588 C 0.20316 0.84369 0.70559 0.0
C589 C 0.19888 0.81404 0.70355 0.0
C590 C 0.2196 0.80025 0.69522 0.0
C591 C 0.21548 0.77227 0.69361 0.0
C592 C 0.19064 0.75787 0.70006 0.0
C593 C 0.16984 0.77144 0.70805 0.0
C594 C 0.17388 0.79943 0.70973 0.0
C595 C 0.17341 0.93483 0.63289 0.0
C596 C 0.14525 0.92869 0.63018 0.0
C597 C 0.18807 0.92113 0.65204 0.0
C598 C 0.17484 0.9014 0.66932 0.0
C599 C 0.14667 0.89513 0.66654 0.0
C600 C 0.132 0.9086 0.64705 0.0
C601 C 0.19061 0.88672 0.68952 0.0
C602 C 0.18678 0.85856 0.68919 0.0
C603 C 0.21061 0.90029 0.70769 0.0
C604 C 0.21407 0.92987 0.71081 0.0
C605 C 0.19197 0.94295 0.71653 0.0
C606 C 0.19525 0.97084 0.71918 0.0
C607 C 0.2206 0.98587 0.71636 0.0
C608 C 0.24272 0.97303 0.71093 0.0
C609 C 0.23954 0.94515 0.70822 0.0
H610 H 0.2231 1.00745 0.71841 0.0
H611 H 0.18749 0.73621 0.69879 0.0
H612 H 0.79061 0.52579 0.95528 0.0
H613 H 0.83926 0.53667 0.95113 0.0
H614 H 0.84329 0.45612 0.92476 0.0
H615 H 0.79448 0.44529 0.92767 0.0
H616 H 0.87719 0.47329 0.97112 0.0
H617 H 0.85678 0.50228 0.87992 0.0
H618 H 0.83367 0.52689 0.84407 0.0
H619 H 0.86682 0.60175 0.88088 0.0
H620 H 0.88982 0.57759 0.91722 0.0
H621 H 1.01844 0.50739 0.97728 0.0
H622 H 0.97324 0.48957 0.95932 0.0
H623 H 0.9524 0.5701 0.95479 0.0
H624 H 0.99841 0.58783 0.96948 0.0
H625 H 0.92729 0.54636 0.91656 0.0
H626 H 0.93454 0.51791 1.01392 0.0
H627 H 0.9548 0.49467 0.05312 0.0
H628 H 0.94414 0.4214 1.00787 0.0
H629 H 0.92381 0.44419 0.96858 0.0
C630 C 0.80168 0.51057 0.94789 0.0
C631 C 0.78865 0.48457 0.94211 0.0
C632 C 0.82949 0.51682 0.94558 0.0
C633 C 0.84473 0.49717 0.93761 0.0
C634 C 0.83178 0.47149 0.93098 0.0
C635 C 0.80394 0.46531 0.93293 0.0
C636 C 0.87441 0.50275 0.93899 0.0
C637 C 0.8883 0.48893 0.95886 0.0
C638 C 0.88862 0.52345 0.9233 0.0
C639 C 0.87488 0.53808 0.90142 0.0
C640 C 0.85897 0.52398 0.88052 0.0
C641 C 0.84592 0.53786 0.86007 0.0
C642 C 0.84874 0.56586 0.86022 0.0
C643 C 0.86465 0.58006 0.88079 0.0
C644 C 0.87773 0.56628 0.9013 0.0
C645 C 1.00423 0.52115 0.97174 0.0
C646 C 1.01163 0.54885 0.97463 0.0
C647 C 0.97828 0.511 0.96196 0.0
C648 C 0.95889 0.52832 0.95658 0.0
C649 C 0.96679 0.55617 0.95873 0.0
C650 C 0.99307 0.56636 0.96722 0.0
C651 C 0.93017 0.5178 0.94978 0.0
C652 C 0.91637 0.53053 0.92872 0.0
C653 C 0.91583 0.49644 0.96481 0.0
C654 C 0.92817 0.48284 0.98828 0.0
C655 C 0.93681 0.49693 1.01235 0.0
C656 C 0.94821 0.48384 0.03455 0.0
C657 C 0.95096 0.45668 0.03287 0.0
C658 C 0.94211 0.44247 1.00909 0.0
C659 C 0.93059 0.45543 0.9869 0.0
H660 H 0.95983 0.44661 0.05006 0.0
H661 H 0.83862 0.57657 0.84437 0.0
H662 H 0.80101 0.80856 0.38188 0.0
H663 H 0.78458 0.77183 0.41263 0.0
H664 H 0.79868 0.71444 0.35229 0.0
H665 H 0.81589 0.75139 0.32133 0.0
H666 H 0.74791 0.70272 0.37941 0.0
H667 H 0.84209 0.72199 0.40186 0.0
H668 H 0.88492 0.75115 0.4122 0.0
H669 H 0.85211 0.77969 0.48404 0.0
H670 H 0.80892 0.75104 0.47389 0.0
H671 H 0.71555 0.60696 0.48719 0.0
H672 H 0.7414 0.63007 0.45015 0.0
H673 H 0.74873 0.70423 0.49455 0.0
H674 H 0.72307 0.68145 0.53137 0.0
H675 H 0.79469 0.69941 0.47097 0.0
H676 H 0.69929 0.68806 0.44401 0.0
H677 H 0.65506 0.6612 0.43393 0.0
H678 H 0.68915 0.61953 0.3711 0.0
H679 H 0.73369 0.64594 0.38108 0.0
C680 C 0.80079 0.78815 0.37513 0.0
C681 C 0.81021 0.78288 0.34936 0.0
C682 C 0.79129 0.76719 0.39269 0.0
C683 C 0.7909 0.74049 0.38488 0.0
C684 C 0.79903 0.73498 0.35869 0.0
C685 C 0.80873 0.75607 0.34104 0.0
C686 C 0.78246 0.7187 0.40472 0.0
C687 C 0.75846 0.70146 0.39919 0.0
C688 C 0.79611 0.7174 0.4306 0.0
C689 C 0.8222 0.73443 0.43702 0.0
C690 C 0.84394 0.73461 0.41977 0.0
C691 C 0.8683 0.75104 0.42561 0.0
C692 C 0.87122 0.76728 0.44874 0.0
C693 C 0.84982 0.76709 0.46612 0.0
C694 C 0.8254 0.75072 0.46036 0.0
C695 C 0.7229 0.62814 0.48911 0.0
C696 C 0.71721 0.64239 0.51219 0.0
C697 C 0.73766 0.64129 0.46797 0.0
C698 C 0.74671 0.66893 0.46946 0.0
C699 C 0.74204 0.68287 0.493 0.0
C700 C 0.72743 0.66977 0.51412 0.0
C701 C 0.75961 0.68404 0.44606 0.0
C702 C 0.78449 0.70008 0.45094 0.0
C703 C 0.74664 0.68437 0.41969 0.0
C704 C 0.71985 0.66872 0.41351 0.0
C705 C 0.69737 0.67304 0.42817 0.0
C706 C 0.67226 0.65792 0.42246 0.0
C707 C 0.66932 0.6386 0.40195 0.0
C708 C 0.69148 0.63445 0.38703 0.0
C709 C 0.71665 0.64949 0.3927 0.0
H710 H 0.64986 0.62691 0.39756 0.0
H711 H 0.89009 0.78 0.45322 0.0
H712 H 0.2135 0.33499 0.13461 0.0
H713 H 0.19041 0.37104 0.1149 0.0
H714 H 0.12192 0.3443 0.16316 0.0
H715 H 0.14548 0.30807 0.18346 0.0
H716 H 0.1045 0.36323 0.11086 0.0
H717 H 0.1692 0.40002 0.18094 0.0
H718 H 0.21443 0.4093 0.20351 0.0
H719 H 0.24479 0.44995 0.13082 0.0
H720 H 0.19983 0.44058 0.10767 0.0
H721 H 0.04422 0.48462 0.08546 0.0
H722 H 0.06335 0.44587 0.10491 0.0
H723 H 0.14085 0.47808 0.07509 0.0
H724 H 0.12179 0.51736 0.05638 0.0
H725 H 0.15272 0.45573 0.11965 0.0
H726 H 0.09319 0.41779 0.04753 0.0
H727 H 0.05027 0.40764 0.02065 0.0
H728 H 1.01298 0.36843 0.09089 0.0
H729 H 0.05563 0.37864 0.11829 0.0
C730 C 0.19319 0.33609 0.1407 0.0
C731 C 0.18163 0.31747 0.16061 0.0
C732 C 0.17993 0.35735 0.1295 0.0
C733 C 0.15408 0.36159 0.13739 0.0
C734 C 0.14172 0.34225 0.15625 0.0
C735 C 0.15524 0.32095 0.16779 0.0
C736 C 0.1409 0.38645 0.12673 0.0
C737 C 0.11507 0.3834 0.11328 0.0
C738 C 0.15426 0.41344 0.12849 0.0
C739 C 0.1812 0.41935 0.14248 0.0
C740 C 0.18557 0.41078 0.1697 0.0
C741 C 0.21115 0.41608 0.18261 0.0
C742 C 0.23249 0.43015 0.16859 0.0
C743 C 0.22826 0.43901 0.14164 0.0
C744 C 0.20273 0.43372 0.12862 0.0
C745 C 0.06537 0.48366 0.08283 0.0
C746 C 0.08104 0.50494 0.06888 0.0
C747 C 0.07651 0.46091 0.09399 0.0
C748 C 0.104 0.45768 0.0916 0.0
C749 C 0.11971 0.47909 0.07779 0.0
C750 C 0.10859 0.50196 0.06678 0.0
C751 C 0.11626 0.43263 0.1035 0.0
C752 C 0.14196 0.43563 0.1173 0.0
C753 C 0.10309 0.40553 0.10137 0.0
C754 C 0.07749 0.39925 0.08502 0.0
C755 C 0.07578 0.40716 0.05728 0.0
C756 C 0.05152 0.40138 0.04195 0.0
C757 C 1.02889 0.38748 0.05409 0.0
C758 C 0.03051 0.37925 0.08155 0.0
C759 C 0.05472 0.38501 0.09698 0.0
H760 H 1.01011 0.38304 0.04219 0.0
H761 H 0.25228 0.43423 0.17862 0.0
H762 H 0.68288 0.42761 0.99785 0.0
H763 H 0.6643 0.38162 1.00981 0.0
H764 H 0.72168 0.35159 0.95937 0.0
H765 H 0.7394 0.39738 0.94619 0.0
H766 H 0.67375 0.32652 0.94822 0.0
H767 H 0.72655 0.34738 0.03035 0.0
H768 H 0.74398 0.37356 0.0711 0.0
H769 H 0.66462 0.36422 0.10257 0.0
H770 H 0.64662 0.3383 0.06181 0.0
H771 H 0.63173 0.19171 0.98912 0.0
H772 H 0.6614 0.23457 0.98572 0.0
H773 H 0.60228 0.27454 0.02385 0.0
H774 H 0.57268 0.23177 0.02754 0.0
H775 H 0.65573 0.29235 0.04258 0.0
H776 H 0.60328 0.27567 0.9571 0.0
H777 H 0.58671 0.24901 0.91639 0.0
H778 H 0.66792 0.25009 0.89166 0.0
H779 H 0.68499 0.27646 0.93248 0.0
C780 C 0.69152 0.41121 0.98928 0.0
C781 C 0.71258 0.41618 0.97101 0.0
C782 C 0.68113 0.38494 0.99644 0.0
C783 C 0.69182 0.36317 0.98573 0.0
C784 C 0.71321 0.36809 0.96797 0.0
C785 C 0.72346 0.39431 0.96065 0.0
C786 C 0.67933 0.33528 0.99136 0.0
C787 C 0.67036 0.3189 0.96891 0.0
C788 C 0.67447 0.32547 1.01831 0.0
C789 C 0.68519 0.34107 0.04289 0.0
C790 C 0.71276 0.35109 0.04585 0.0
C791 C 0.72276 0.36585 0.06897 0.0
C792 C 0.70541 0.3706 0.08938 0.0
C793 C 0.67804 0.36055 0.08673 0.0
C794 C 0.66793 0.34579 0.06363 0.0
C795 C 0.62528 0.20959 0.99713 0.0
C796 C 0.59983 0.20856 1.00832 0.0
C797 C 0.64217 0.234 0.99512 0.0
C798 C 0.63387 0.25765 1.00436 0.0
C799 C 0.60899 0.25646 1.01662 0.0
C800 C 0.59203 0.23213 1.01845 0.0
C801 C 0.65011 0.28396 0.99947 0.0
C802 C 0.65962 0.29998 0.02199 0.0
C803 C 0.65569 0.29344 0.9726 0.0
C804 C 0.64542 0.27775 0.94798 0.0
C805 C 0.61761 0.27003 0.94309 0.0
C806 C 0.60813 0.25501 0.91998 0.0
C807 C 0.62626 0.24779 0.90149 0.0
C808 C 0.65391 0.25565 0.90603 0.0
C809 C 0.6635 0.27064 0.92914 0.0
H810 H 0.61888 0.23616 0.8836 0.0
H811 H 0.71319 0.38203 0.10727 0.0
H812 H 0.84038 0.87571 0.3738 0.0
H813 H 0.87103 0.90881 0.40004 0.0
H814 H 0.93294 0.904 0.3425 0.0
H815 H 0.90208 0.87069 0.31598 0.0
H816 H 0.95016 0.89851 0.39795 0.0
H817 H 0.90624 0.9591 0.34207 0.0
H818 H 0.86779 0.97752 0.31938 0.0
H819 H 0.83746 0.99176 0.39787 0.0
H820 H 0.87551 0.97302 0.42105 0.0
H821 H 0.03144 1.00525 0.47267 0.0
H822 H 1.00809 0.97704 0.43612 0.0
H823 H 0.93306 0.97569 0.47639 0.0
H824 H 0.95616 1.00409 0.51262 0.0
H825 H 0.92736 0.98751 0.42285 0.0
H826 H 0.96738 0.92156 0.47822 0.0
H827 H 1.00495 0.90217 0.50154 0.0
H828 H 0.04196 0.89745 0.42447 0.0
H829 H 1.00476 0.91718 0.40073 0.0
C830 C 0.86043 0.88195 0.3666 0.0
C831 C 0.86896 0.87074 0.34295 0.0
C832 C 0.87787 0.90089 0.38151 0.0
C833 C 0.90418 0.9089 0.3731 0.0
C834 C 0.91267 0.89808 0.34922 0.0
C835 C 0.89505 0.87927 0.33405 0.0
C836 C 0.92292 0.92758 0.39033 0.0
C837 C 0.94559 0.91825 0.40295 0.0
C838 C 0.91658 0.95308 0.39713 0.0
C839 C 0.89368 0.96449 0.3833 0.0
C840 C 0.89127 0.96596 0.3545 0.0
C841 C 0.86956 0.9765 0.34155 0.0
C842 C 0.85017 0.98577 0.35717 0.0
C843 C 0.85249 0.98457 0.38579 0.0
C844 C 0.87415 0.97402 0.39885 0.0
C845 C 1.01001 0.99869 0.4738 0.0
C846 C 0.99554 1.0069 0.49537 0.0
C847 C 0.99672 0.98259 0.45295 0.0
C848 C 0.96883 0.9743 0.45354 0.0
C849 C 0.95455 0.98202 0.47544 0.0
C850 C 0.96778 0.99813 0.49618 0.0
C851 C 0.95415 0.95812 0.43115 0.0
C852 C 0.93225 0.96798 0.41751 0.0
C853 C 0.96116 0.93308 0.42352 0.0
C854 C 0.98347 0.92116 0.43776 0.0
C855 C 0.98365 0.91661 0.46628 0.0
C856 C 1.00486 0.90551 0.47957 0.0
C857 C 1.02588 0.89867 0.46451 0.0
C858 C 1.0257 0.90282 0.43612 0.0
C859 C 1.00455 0.91395 0.42274 0.0
H860 H 0.04228 0.89007 0.47484 0.0
H861 H 0.83338 0.99392 0.34711 0.0
H862 H 0.46078 0.76331 0.79641 0.0
H863 H 0.48475 0.73543 0.76796 0.0
H864 H 0.42224 0.735 0.70435 0.0
H865 H 0.39877 0.76338 0.73199 0.0
H866 H 0.43464 0.68362 0.71827 0.0
H867 H 0.48023 0.77191 0.69553 0.0
H868 H 0.50636 0.81599 0.70616 0.0
H869 H 0.57047 0.77725 0.74274 0.0
H870 H 0.54454 0.73291 0.73266 0.0
H871 H 0.48902 0.6258 0.60682 0.0
H872 H 0.46955 0.65599 0.63643 0.0
H873 H 0.54219 0.66485 0.6882 0.0
H874 H 0.56214 0.6356 0.65803 0.0
H875 H 0.5258 0.71091 0.68321 0.0
H876 H 0.4826 0.62294 0.70519 0.0
H877 H 0.45728 0.57817 0.69595 0.0
H878 H 0.38961 0.61441 0.66401 0.0
H879 H 0.41468 0.65942 0.67261 0.0
C880 C 0.45238 0.75764 0.77619 0.0
C881 C 0.42763 0.76531 0.76669 0.0
C882 C 0.46602 0.74159 0.76002 0.0
C883 C 0.45512 0.73295 0.73413 0.0
C884 C 0.43083 0.74114 0.72439 0.0
C885 C 0.41739 0.7573 0.74032 0.0
C886 C 0.46852 0.71492 0.71719 0.0
C887 C 0.45449 0.68963 0.71039 0.0
C888 C 0.49471 0.72247 0.70762 0.0
C889 C 0.51032 0.74911 0.71363 0.0
C890 C 0.49979 0.77279 0.70607 0.0
C891 C 0.51459 0.79782 0.71195 0.0
C892 C 0.54002 0.79942 0.7252 0.0
C893 C 0.55075 0.77599 0.73253 0.0
C894 C 0.53602 0.7509 0.72672 0.0
C895 C 0.50088 0.63429 0.62444 0.0
C896 C 0.5271 0.62825 0.63009 0.0
C897 C 0.48967 0.65143 0.64149 0.0
C898 C 0.50416 0.66235 0.66495 0.0
C899 C 0.53054 0.6567 0.67031 0.0
C900 C 0.54193 0.63992 0.65302 0.0
C901 C 0.49182 0.67956 0.68393 0.0
C902 C 0.50604 0.7047 0.69119 0.0
C903 C 0.4659 0.67169 0.69427 0.0
C904 C 0.45063 0.6446 0.68934 0.0
C905 C 0.46239 0.62138 0.69603 0.0
C906 C 0.44807 0.59595 0.69092 0.0
C907 C 0.42187 0.59345 0.67936 0.0
C908 C 0.40992 0.61637 0.67294 0.0
C909 C 0.42416 0.64186 0.67794 0.0
H910 H 0.41081 0.57375 0.67544 0.0
H911 H 0.55145 0.81882 0.72972 0.0
H912 H 0.89541 0.95082 0.82931 0.0
H913 H 0.91547 0.97181 0.78804 0.0
H914 H 0.95249 0.90146 0.77422 0.0
H915 H 0.9323 0.8802 0.81503 0.0
H916 H 0.98789 0.94072 0.75977 0.0
H917 H 0.894 0.92345 0.7337 0.0
H918 H 0.84544 0.92544 0.73717 0.0
H919 H 0.86002 1.01148 0.73235 0.0
H920 H 0.90875 1.01001 0.7292 0.0
H921 H 1.02795 0.97629 0.62149 0.0
H922 H 1.00755 0.95585 0.66297 0.0
H923 H 0.97045 0.02657 0.67518 0.0
H924 H 0.99053 0.04686 0.63336 0.0
H925 H 0.93533 0.98767 0.69074 0.0
H926 H 0.02906 1.00518 0.71656 0.0
H927 H 0.0776 1.00342 0.71253 0.0
H928 H 0.0635 0.91739 0.71779 0.0
H929 H 1.01479 0.91863 0.72151 0.0
C930 C 0.90751 0.93936 0.8176 0.0
C931 C 0.91168 0.91322 0.82686 0.0
C932 C 0.91924 0.95167 0.79341 0.0
C933 C 0.93584 0.93866 0.77667 0.0
C934 C 0.94018 0.9127 0.78597 0.0
C935 C 0.92842 0.90036 0.81004 0.0
C936 C 0.94861 0.95176 0.75 0.0
C937 C 0.976 0.95061 0.74468 0.0
C938 C 0.93426 0.96565 0.72958 0.0
C939 C 0.90504 0.96662 0.73152 0.0
C940 C 0.88687 0.9428 0.73359 0.0
C941 C 0.85931 0.94384 0.73546 0.0
C942 C 0.84966 0.96858 0.73506 0.0
C943 C 0.86754 0.99233 0.73271 0.0
C944 C 0.89512 0.99141 0.73087 0.0
C945 C 1.01554 0.98774 0.63289 0.0
C946 C 1.01142 1.01371 0.62327 0.0
C947 C 1.00379 0.97591 0.65721 0.0
C948 C 0.98726 0.98931 0.67365 0.0
C949 C 0.98287 0.01514 0.66378 0.0
C950 C 0.99466 0.027 0.63947 0.0
C951 C 0.97458 0.9766 0.7005 0.0
C952 C 0.94722 0.97781 0.70585 0.0
C953 C 0.98898 0.96283 0.72098 0.0
C954 C 1.01824 0.96199 0.71904 0.0
C955 C 0.03629 0.98588 0.7167 0.0
C956 C 0.06383 0.98498 0.71449 0.0
C957 C 0.07362 0.9603 0.71483 0.0
C958 C 0.05588 0.93648 0.71749 0.0
C959 C 1.02831 0.93727 0.71968 0.0
H960 H 0.09494 0.95964 0.71308 0.0
H961 H 0.82832 0.96934 0.73651 0.0
H962 H 0.67925 0.18022 0.31434 0.0
H963 H 0.66365 0.15874 0.27101 0.0
H964 H 0.65311 0.23596 0.23533 0.0
H965 H 0.6673 0.25725 0.27945 0.0
H966 H 0.61315 0.20353 0.21969 0.0
H967 H 0.70652 0.19872 0.21857 0.0
H968 H 0.75135 0.18976 0.23595 0.0
H969 H 0.72172 0.10584 0.24366 0.0
H970 H 0.6766 0.11432 0.2267 0.0
H971 H 0.57896 0.13632 0.09247 0.0
H972 H 0.60581 0.16602 0.12572 0.0
H973 H 0.61046 0.09873 0.18095 0.0
H974 H 0.58423 0.069 0.14784 0.0
H975 H 0.6581 0.13199 0.18058 0.0
H976 H 0.56212 0.1419 0.18556 0.0
H977 H 0.51974 0.15328 0.16387 0.0
H978 H 0.55887 0.23232 0.14423 0.0
H979 H 0.60159 0.22121 0.16539 0.0
C980 C 0.67384 0.19259 0.29712 0.0
C981 C 0.67465 0.22037 0.30007 0.0
C982 C 0.66509 0.18035 0.27226 0.0
C983 C 0.65776 0.19572 0.2495 0.0
C984 C 0.65874 0.2236 0.25245 0.0
C985 C 0.6669 0.23579 0.27758 0.0
C986 C 0.64776 0.1824 0.22323 0.0
C987 C 0.62337 0.18829 0.21091 0.0
C988 C 0.66093 0.16248 0.21145 0.0
C989 C 0.68811 0.1572 0.2215 0.0
C990 C 0.70951 0.17837 0.22412 0.0
C991 C 0.73499 0.17337 0.23389 0.0
C992 C 0.73937 0.14726 0.24094 0.0
C993 C 0.7183 0.12606 0.23819 0.0
C994 C 0.69277 0.13095 0.22846 0.0
C995 C 0.58597 0.12783 0.11158 0.0
C996 C 0.57921 0.10033 0.11763 0.0
C997 C 0.60126 0.14483 0.13058 0.0
C998 C 0.60982 0.13466 0.15602 0.0
C999 C 0.60407 0.10705 0.1615 0.0
C1000 C 0.58893 0.09008 0.14255 0.0
C1001 C 0.62331 0.15265 0.17782 0.0
C1002 C 0.64829 0.14759 0.18925 0.0
C1003 C 0.61105 0.17376 0.18837 0.0
C1004 C 0.58506 0.18066 0.17679 0.0
C1005 C 0.56166 0.16168 0.17657 0.0
C1006 C 0.53759 0.16809 0.16435 0.0
C1007 C 0.53664 0.1935 0.1526 0.0
C1008 C 0.55966 0.21264 0.15328 0.0
C1009 C 0.58379 0.2063 0.16538 0.0
H1010 H 0.51811 0.19842 0.14291 0.0
H1011 H 0.7591 0.14343 0.24851 0.0
H1012 H 0.41911 0.6239 0.30912 0.0
H1013 H 0.44554 0.63354 0.35157 0.0
H1014 H 0.41167 0.55695 0.38516 0.0
H1015 H 0.38288 0.54843 0.34403 0.0
H1016 H 0.41728 0.58944 0.42385 0.0
H1017 H 0.47687 0.5706 0.35433 0.0
H1018 H 0.49887 0.57639 0.31001 0.0
H1019 H 0.53113 0.65743 0.3306 0.0
H1020 H 0.50904 0.65221 0.37493 0.0
H1021 H 0.52105 0.55633 0.51316 0.0
H1022 H 0.49057 0.5604 0.47356 0.0
H1023 H 0.51881 0.64521 0.46806 0.0
H1024 H 0.54967 0.64126 0.5082 0.0
H1025 H 0.5158 0.61608 0.41705 0.0
H1026 H 0.45974 0.62815 0.49226 0.0
H1027 H 0.44179 0.61536 0.53758 0.0
H1028 H 0.40585 0.5389 0.50632 0.0
H1029 H 0.42389 0.55109 0.46088 0.0
C1030 C 0.41664 0.60931 0.3257 0.0
C1031 C 0.39882 0.58518 0.32277 0.0
C1032 C 0.43223 0.6147 0.34992 0.0
C1033 C 0.43123 0.5957 0.37142 0.0
C1034 C 0.41303 0.57193 0.36886 0.0
C1035 C 0.39685 0.56686 0.345 0.0
C1036 C 0.44961 0.60002 0.39623 0.0
C1037 C 0.43881 0.59519 0.42224 0.0
C1038 C 0.47776 0.60794 0.3944 0.0
C1039 C 0.49104 0.61113 0.36777 0.0
C1040 C 0.4885 0.58971 0.34931 0.0
C1041 C 0.50101 0.59288 0.32421 0.0
C1042 C 0.51631 0.61729 0.31745 0.0
C1043 C 0.51921 0.63856 0.33583 0.0
C1044 C 0.50672 0.63551 0.36095 0.0
C1045 C 0.5208 0.5759 0.50361 0.0
C1046 C 0.53764 0.59853 0.51375 0.0
C1047 C 0.50331 0.57818 0.48104 0.0
C1048 C 0.50226 0.60314 0.46815 0.0
C1049 C 0.5193 0.62581 0.47791 0.0
C1050 C 0.53681 0.62356 0.50076 0.0
C1051 C 0.48344 0.605 0.44423 0.0
C1052 C 0.49417 0.61094 0.41849 0.0
C1053 C 0.45539 0.59732 0.44624 0.0
C1054 C 0.44323 0.59054 0.47314 0.0
C1055 C 0.44801 0.60861 0.49503 0.0
C1056 C 0.43785 0.60145 0.52076 0.0
C1057 C 0.42271 0.57632 0.52483 0.0
C1058 C 0.41755 0.55837 0.50312 0.0
C1059 C 0.42768 0.56543 0.47735 0.0
H1060 H 0.41498 0.57076 0.5448 0.0
H1061 H 0.52598 0.6197 0.29801 0.0
H1062 H 0.19612 0.34595 0.86978 0.0
H1063 H 0.19589 0.38774 0.89418 0.0
H1064 H 0.25693 0.36603 0.95201 0.0
H1065 H 0.25812 0.32436 0.927 0.0
H1066 H 0.20922 0.38827 0.97401 0.0
H1067 H 0.27983 0.40783 0.91009 0.0
H1068 H 0.29888 0.40692 0.86447 0.0
H1069 H 0.23882 0.45251 0.83049 0.0
H1070 H 0.21912 0.45332 0.87582 0.0
H1071 H 0.21449 0.52128 0.02493 0.0
H1072 H 0.23036 0.48027 1.00963 0.0
H1073 H 0.19151 0.4896 0.93001 0.0
H1074 H 0.17583 0.53026 0.94499 0.0
H1075 H 0.23769 0.47336 0.92371 0.0
H1076 H 0.16248 0.44832 0.98116 0.0
H1077 H 0.13627 0.4444 0.02296 0.0
H1078 H 0.19784 0.40656 0.06567 0.0
H1079 H 0.22473 0.41077 0.02428 0.0
C1080 C 0.20963 0.35005 0.88759 0.0
C1081 C 0.22748 0.33203 0.89617 0.0
C1082 C 0.20935 0.37386 0.90157 0.0
C1083 C 0.22666 0.38001 0.92458 0.0
C1084 C 0.24352 0.36155 0.93417 0.0
C1085 C 0.24405 0.33775 0.91996 0.0
C1086 C 0.22736 0.40621 0.93783 0.0
C1087 C 0.21609 0.40698 0.96347 0.0
C1088 C 0.23571 0.4304 0.92354 0.0
C1089 C 0.24791 0.43051 0.89636 0.0
C1090 C 0.27058 0.41753 0.89286 0.0
C1091 C 0.28151 0.41704 0.86705 0.0
C1092 C 0.27005 0.42962 0.84459 0.0
C1093 C 0.24768 0.44278 0.84791 0.0
C1094 C 0.23665 0.4433 0.87367 0.0
C1095 C 0.20962 0.51468 1.00408 0.0
C1096 C 0.19396 0.52907 0.98615 0.0
C1097 C 0.21864 0.49125 0.99539 0.0
C1098 C 0.21189 0.48171 0.96876 0.0
C1099 C 0.19714 0.49663 0.9506 0.0
C1100 C 0.18827 0.52001 0.95918 0.0
C1101 C 0.21882 0.4556 0.95979 0.0
C1102 C 0.23153 0.4548 0.93481 0.0
C1103 C 0.2112 0.43134 0.97444 0.0
C1104 C 0.1958 0.43023 0.99975 0.0
C1105 C 0.17065 0.43958 0.9996 0.0
C1106 C 0.15564 0.43723 0.02317 0.0
C1107 C 0.16543 0.42526 0.04689 0.0
C1108 C 0.19037 0.41589 0.04726 0.0
C1109 C 0.20552 0.4183 0.02378 0.0
H1110 H 0.1536 0.42299 0.06487 0.0
H1111 H 0.27851 0.42919 0.82461 0.0
H1112 H 0.75729 0.94732 0.89067 0.0
H1113 H 0.72191 0.96751 0.91187 0.0
H1114 H 0.75039 0.9428 0.9915 0.0
H1115 H 0.78547 0.92161 0.96979 0.0
H1116 H 0.69985 0.93684 0.99587 0.0
H1117 H 0.75316 0.01529 0.96191 0.0
H1118 H 0.77801 0.04513 0.92822 0.0
H1119 H 0.70556 0.04495 0.87789 0.0
H1120 H 0.68034 1.01484 0.91113 0.0
H1121 H 0.60693 1.01337 0.06362 0.0
H1122 H 0.64662 0.99569 0.04661 0.0
H1123 H 0.61929 1.00993 0.96353 0.0
H1124 H 0.58001 0.02726 0.98033 0.0
H1125 H 0.67101 0.02258 0.9634 0.0
H1126 H 0.61816 0.94337 0.99848 0.0
H1127 H 0.59397 0.91478 0.03356 0.0
H1128 H 0.66687 0.91829 0.08374 0.0
H1129 H 0.69143 0.94721 0.04909 0.0
C1130 C 0.75698 0.94706 0.91285 0.0
C1131 C 0.77599 0.93362 0.92812 0.0
C1132 C 0.73614 0.95872 0.92528 0.0
C1133 C 0.73266 0.95788 0.95405 0.0
C1134 C 0.75179 0.94455 0.96946 0.0
C1135 C 0.77266 0.93271 0.9569 0.0
C1136 C 0.70893 0.9698 0.96748 0.0
C1137 C 0.69413 0.95587 0.9888 0.0
C1138 C 0.69987 0.99457 0.95894 0.0
C1139 C 0.71493 1.01259 0.93888 0.0
C1140 C 0.74257 0.02147 0.94356 0.0
C1141 C 0.75672 0.03845 0.92456 0.0
C1142 C 0.74339 0.04687 0.90089 0.0
C1143 C 0.71587 0.03837 0.89621 0.0
C1144 C 0.70163 0.02137 0.91514 0.0
C1145 C 0.6092 1.01276 0.0417 0.0
C1146 C 0.58938 0.02215 0.02374 0.0
C1147 C 0.63223 1.00233 0.03173 0.0
C1148 C 0.63695 1.00078 1.00321 0.0
C1149 C 0.61721 1.01047 0.98549 0.0
C1150 C 0.59422 0.02054 0.99537 0.0
C1151 C 0.66189 0.98957 0.99156 0.0
C1152 C 0.67685 1.00361 0.97051 0.0
C1153 C 0.67122 0.96509 1.00054 0.0
C1154 C 0.65655 0.94769 0.02134 0.0
C1155 C 0.62899 0.93821 1.01709 0.0
C1156 C 0.61522 0.92192 0.03688 0.0
C1157 C 0.62886 0.91479 0.0609 0.0
C1158 C 0.65632 0.92387 0.06514 0.0
C1159 C 0.67018 0.9402 0.04543 0.0
H1160 H 0.61816 0.90217 0.07619 0.0
H1161 H 0.75437 0.06002 0.88621 0.0
H1162 H 0.75194 0.27189 0.39655 0.0
H1163 H 0.7935 0.26036 0.41955 0.0
H1164 H 0.77254 0.17834 0.39373 0.0
H1165 H 0.73116 0.18966 0.37097 0.0
H1166 H 0.78996 0.1822 0.44806 0.0
H1167 H 0.81815 0.21899 0.36023 0.0
H1168 H 0.82334 0.25374 0.32383 0.0
H1169 H 0.86931 0.30871 0.38003 0.0
H1170 H 0.86405 0.27438 0.4169 0.0
H1171 H 0.90986 0.12653 0.46676 0.0
H1172 H 0.87069 0.14369 0.44544 0.0
H1173 H 0.9029 0.22373 0.47105 0.0
H1174 H 0.94278 0.20684 0.49165 0.0
H1175 H 0.88011 0.22424 0.41976 0.0
H1176 H 0.85439 0.18717 0.50695 0.0
H1177 H 0.84919 0.15286 0.54377 0.0
H1178 H 0.79829 0.09931 0.48994 0.0
H1179 H 0.8035 0.13317 0.45264 0.0
C1180 C 0.75621 0.2514 0.39595 0.0
C1181 C 0.73847 0.23173 0.38177 0.0
C1182 C 0.77997 0.24488 0.40894 0.0
C1183 C 0.78619 0.21853 0.40814 0.0
C1184 C 0.76817 0.19879 0.39454 0.0
C1185 C 0.74464 0.20533 0.38138 0.0
C1186 C 0.81149 0.21129 0.42129 0.0
C1187 C 0.80967 0.19123 0.44173 0.0
C1188 C 0.8372 0.22362 0.41355 0.0
C1189 C 0.84043 0.24423 0.3914 0.0
C1190 C 0.82916 0.23857 0.3649 0.0
C1191 C 0.83215 0.25817 0.34417 0.0
C1192 C 0.84657 0.28345 0.34964 0.0
C1193 C 0.85809 0.28914 0.37584 0.0
C1194 C 0.85513 0.26962 0.39666 0.0
C1195 C 0.90896 0.14788 0.46741 0.0
C1196 C 0.92949 0.16528 0.48104 0.0
C1197 C 0.88635 0.15762 0.45547 0.0
C1198 C 0.8836 0.18492 0.45709 0.0
C1199 C 0.90449 0.20255 0.46973 0.0
C1200 C 0.92718 0.19282 0.48166 0.0
C1201 C 0.85856 0.19478 0.44622 0.0
C1202 C 0.86042 0.21535 0.42627 0.0
C1203 C 0.83283 0.18302 0.45451 0.0
C1204 C 0.82953 0.16263 0.47693 0.0
C1205 C 0.84225 0.168 0.50289 0.0
C1206 C 0.83927 0.14865 0.52386 0.0
C1207 C 0.82346 0.1239 0.51918 0.0
C1208 C 0.81055 0.11848 0.49352 0.0
C1209 C 0.81348 0.13776 0.47247 0.0
H1210 H 0.82118 0.10894 0.53544 0.0
H1211 H 0.84888 0.29859 0.33356 0.0
H1212 H 0.28678 0.59324 0.18441 0.0
H1213 H 0.24131 0.59273 0.16375 0.0
H1214 H 0.24334 0.67604 0.18408 0.0
H1215 H 0.28862 0.67657 0.20514 0.0
H1216 H 0.19547 0.64623 0.19607 0.0
H1217 H 0.2535 0.65952 0.12031 0.0
H1218 H 0.28886 0.64972 0.09006 0.0
H1219 H 0.24258 0.57382 0.06967 0.0
H1220 H 0.20718 0.58291 0.10023 0.0
H1221 H 0.09313 0.64097 0.06856 0.0
H1222 H 0.1374 0.6544 0.09134 0.0
H1223 H 0.11813 0.59486 0.15476 0.0
H1224 H 0.07418 0.58108 0.13189 0.0
H1225 H 0.17544 0.61985 0.09907 0.0
H1226 H 0.1517 0.61827 0.21445 0.0
H1227 H 0.1161 0.62965 0.24358 0.0
H1228 H 0.09391 0.68608 0.18259 0.0
H1229 H 0.12961 0.67534 0.15327 0.0
C1230 C 0.27741 0.61136 0.18468 0.0
C1231 C 0.29126 0.63497 0.19627 0.0
C1232 C 0.25157 0.61111 0.17269 0.0
C1233 C 0.23912 0.63444 0.17213 0.0
C1234 C 0.25265 0.65787 0.18421 0.0
C1235 C 0.27855 0.65818 0.19605 0.0
C1236 C 0.21197 0.63438 0.15891 0.0
C1237 C 0.19108 0.64053 0.17485 0.0
C1238 C 0.20641 0.6274 0.13108 0.0
C1239 C 0.2278 0.62179 0.11283 0.0
C1240 C 0.25099 0.64061 0.10962 0.0
C1241 C 0.27102 0.6352 0.09237 0.0
C1242 C 0.26801 0.61113 0.07802 0.0
C1243 C 0.24493 0.59243 0.08086 0.0
C1244 C 0.22487 0.5977 0.09814 0.0
C1245 C 0.09824 0.63104 0.08757 0.0
C1246 C 0.0805 0.60971 0.09825 0.0
C1247 C 0.12347 0.63872 0.10053 0.0
C1248 C 0.131 0.62557 0.12467 0.0
C1249 C 0.11261 0.60538 0.13625 0.0
C1250 C 0.08753 0.59752 0.12315 0.0
C1251 C 0.15887 0.63104 0.13642 0.0
C1252 C 0.17989 0.62578 0.12023 0.0
C1253 C 0.16456 0.63898 0.16393 0.0
C1254 C 0.14321 0.64581 0.18157 0.0
C1255 C 0.13931 0.63319 0.20731 0.0
C1256 C 0.11909 0.63952 0.22384 0.0
C1257 C 0.1027 0.65852 0.21491 0.0
C1258 C 0.10655 0.67129 0.18944 0.0
C1259 C 0.12674 0.66505 0.17284 0.0
H1260 H 0.08706 0.66338 0.22773 0.0
H1261 H 0.28353 0.607 0.06465 0.0
H1262 H 0.22207 0.35162 0.72382 0.0
H1263 H 0.2444 0.39219 0.70159 0.0
H1264 H 0.31623 0.38724 0.75238 0.0
H1265 H 0.29388 0.34687 0.77489 0.0
H1266 H 0.30695 0.43881 0.74567 0.0
H1267 H 0.30897 0.36185 0.68742 0.0
H1268 H 0.28761 0.32253 0.66119 0.0
H1269 H 0.24222 0.37303 0.6114 0.0
H1270 H 0.26306 0.41262 0.63761 0.0
H1271 H 0.4164 0.49542 0.66906 0.0
H1272 H 0.38168 0.46997 0.69591 0.0
H1273 H 0.32119 0.4851 0.63414 0.0
H1274 H 0.35607 0.51078 0.60698 0.0
H1275 H 0.31782 0.43333 0.64548 0.0
H1276 H 0.32231 0.51172 0.69874 0.0
H1277 H 0.34389 0.55088 0.72501 0.0
H1278 H 0.37686 0.4987 0.78404 0.0
H1279 H 0.35588 0.45922 0.75789 0.0
C1280 C 0.24261 0.35926 0.73026 0.0
C1281 C 0.25638 0.34594 0.75084 0.0
C1282 C 0.25529 0.38246 0.71765 0.0
C1283 C 0.2821 0.39252 0.72508 0.0
C1284 C 0.29552 0.37985 0.74636 0.0
C1285 C 0.28277 0.35676 0.75915 0.0
C1286 C 0.29689 0.41503 0.70951 0.0
C1287 C 0.30946 0.43765 0.72379 0.0
C1288 C 0.29939 0.41382 0.6808 0.0
C1289 C 0.28735 0.39013 0.66465 0.0
C1290 C 0.29433 0.36454 0.67096 0.0
C1291 C 0.28232 0.34221 0.6561 0.0
C1292 C 0.2635 0.34526 0.63469 0.0
C1293 C 0.25676 0.37069 0.62802 0.0
C1294 C 0.26867 0.39308 0.64285 0.0
C1295 C 0.39563 0.4941 0.66152 0.0
C1296 C 0.38902 0.5051 0.63583 0.0
C1297 C 0.37575 0.47948 0.67693 0.0
C1298 C 0.34877 0.47575 0.66714 0.0
C1299 C 0.34189 0.48771 0.64207 0.0
C1300 C 0.36183 0.50231 0.62657 0.0
C1301 C 0.32854 0.45698 0.68172 0.0
C1302 C 0.31494 0.43493 0.66726 0.0
C1303 C 0.32513 0.45877 0.71024 0.0
C1304 C 0.33761 0.48247 0.72623 0.0
C1305 C 0.33431 0.50858 0.71722 0.0
C1306 C 0.34642 0.53084 0.73211 0.0
C1307 C 0.36176 0.52728 0.75616 0.0
C1308 C 0.36497 0.50143 0.7654 0.0
C1309 C 0.35294 0.47909 0.75057 0.0
H1310 H 0.37113 0.54455 0.76764 0.0
H1311 H 0.25419 0.32795 0.62325 0.0
H1312 H 0.87451 0.81606 0.91541 0.0
H1313 H 0.89424 0.77789 0.93506 0.0
H1314 H 0.97344 0.81733 0.91743 0.0
H1315 H 0.95366 0.85528 0.89706 0.0
H1316 H 0.97771 0.76946 0.91036 0.0
H1317 H 0.94002 0.80413 0.98953 0.0
H1318 H 0.90435 0.81827 1.01683 0.0
H1319 H 0.85776 0.74041 1.00772 0.0
H1320 H 0.89308 0.72588 0.98021 0.0
H1321 H 0.04961 0.67772 0.99119 0.0
H1322 H 0.02941 0.71612 0.97216 0.0
H1323 H 0.95036 0.67453 0.98687 0.0
H1324 H 0.97059 0.6364 1.00627 0.0
H1325 H 0.94574 0.7231 0.99559 0.0
H1326 H 0.98284 0.68765 0.91796 0.0
H1327 H 1.01788 0.6724 0.89064 0.0
H1328 H 0.06449 0.75058 0.89587 0.0
H1329 H 0.02985 0.76621 0.92352 0.0
C1330 C 0.89621 0.8171 0.91587 0.0
C1331 C 0.91196 0.83985 0.90425 0.0
C1332 C 0.9078 0.79477 0.92754 0.0
C1333 C 0.93604 0.79381 0.92895 0.0
C1334 C 0.95176 0.81648 0.91718 0.0
C1335 C 0.94015 0.83867 0.90523 0.0
C1336 C 0.94907 0.76953 0.94188 0.0
C1337 C 0.97074 0.75986 0.92928 0.0
C1338 C 0.94036 0.75528 0.96633 0.0
C1339 C 0.91905 0.76403 0.9826 0.0
C1340 C 0.92208 0.7901 0.99321 0.0
C1341 C 0.90194 0.79817 1.00874 0.0
C1342 C 0.87876 0.78028 1.01392 0.0
C1343 C 0.87567 0.75428 1.00359 0.0
C1344 C 0.89575 0.7461 0.98807 0.0
C1345 C 1.02788 0.67649 0.99045 0.0
C1346 C 1.0122 0.65306 1.00073 0.0
C1347 C 1.01605 0.69881 0.97912 0.0
C1348 C 0.98771 0.69912 0.97703 0.0
C1349 C 0.9721 0.67582 0.98768 0.0
C1350 C 0.98393 0.65352 0.99901 0.0
C1351 C 0.97449 0.72324 0.96416 0.0
C1352 C 0.95276 0.73281 0.97673 0.0
C1353 C 0.98304 0.7373 0.93961 0.0
C1354 C 1.0039 0.728 0.92306 0.0
C1355 C 1.00065 0.70153 0.91345 0.0
C1356 C 1.02042 0.69283 0.89788 0.0
C1357 C 0.04343 0.71049 0.8916 0.0
C1358 C 0.04668 0.73691 0.9008 0.0
C1359 C 1.02698 0.74571 0.91641 0.0
H1360 H 0.05871 0.70372 0.87954 0.0
H1361 H 0.86323 0.78655 0.026 0.0
H1362 H 0.40322 0.68703 0.24659 0.0
H1363 H 0.43587 0.72579 0.23429 0.0
H1364 H 0.4071 0.71876 0.14975 0.0
H1365 H 0.37489 0.67971 0.16177 0.0
H1366 H 0.46245 0.731 0.15475 0.0
H1367 H 0.38361 0.76189 0.19055 0.0
H1368 H 0.35019 0.7649 0.22551 0.0
H1369 H 0.41338 0.79645 0.28311 0.0
H1370 H 0.44722 0.79328 0.24856 0.0
H1371 H 0.48756 0.86149 0.09697 0.0
H1372 H 0.47204 0.81635 0.11388 0.0
H1373 H 0.50075 0.83969 0.19578 0.0
H1374 H 0.51492 0.88525 0.17933 0.0
H1375 H 0.45114 0.81754 0.19665 0.0
H1376 H 0.52965 0.79306 0.15858 0.0
H1377 H 0.56307 0.79039 0.12358 0.0
H1378 H 0.50203 0.74717 0.07064 0.0
H1379 H 0.46813 0.74991 0.10516 0.0
C1380 C 0.40416 0.69351 0.22532 0.0
C1381 C 0.38631 0.68055 0.20518 0.0
C1382 C 0.42273 0.71569 0.21836 0.0
C1383 C 0.4237 0.72526 0.19116 0.0
C1384 C 0.40665 0.71169 0.17086 0.0
C1385 C 0.38807 0.6896 0.1778 0.0
C1386 C 0.44106 0.75045 0.18401 0.0
C1387 C 0.46001 0.74999 0.16379 0.0
C1388 C 0.4383 0.77503 0.19639 0.0
C1389 C 0.41795 0.77705 0.2171 0.0
C1390 C 0.39039 0.76927 0.21074 0.0
C1391 C 0.37137 0.77103 0.23047 0.0
C1392 C 0.37967 0.78078 0.25654 0.0
C1393 C 0.40699 0.78885 0.26292 0.0
C1394 C 0.42609 0.78708 0.24328 0.0
C1395 C 0.49079 0.85698 0.11854 0.0
C1396 C 0.50226 0.87713 0.1368 0.0
C1397 C 0.48222 0.83102 0.12815 0.0
C1398 C 0.48534 0.82454 0.15612 0.0
C1399 C 0.49815 0.84421 0.17411 0.0
C1400 C 0.50649 0.87023 0.16458 0.0
C1401 C 0.47249 0.79835 0.167 0.0
C1402 C 0.45418 0.79858 0.1879 0.0
C1403 C 0.47596 0.77362 0.15526 0.0
C1404 C 0.4963 0.77186 0.13442 0.0
C1405 C 0.5233 0.78316 0.1394 0.0
C1406 C 0.54234 0.7816 0.11965 0.0
C1407 C 0.53467 0.76866 0.09488 0.0
C1408 C 0.50794 0.7572 0.08983 0.0
C1409 C 0.48881 0.75871 0.1095 0.0
H1410 H 0.54944 0.76748 0.07962 0.0
H1411 H 0.36491 0.78214 0.27179 0.0
H1412 H 0.23662 0.25511 0.7132 0.0
H1413 H 0.213 0.22143 0.682 0.0
H1414 H 0.14203 0.2167 0.72966 0.0
H1415 H 0.16599 0.2499 0.76146 0.0
H1416 H 0.14923 0.1685 0.71523 0.0
H1417 H 0.14756 0.25214 0.66783 0.0
H1418 H 0.16685 0.29615 0.64916 0.0
H1419 H 0.21571 0.25761 0.5966 0.0
H1420 H 0.197 0.21337 0.61525 0.0
H1421 H 0.0634 0.09925 0.61189 0.0
H1422 H 0.08361 0.13479 0.64304 0.0
H1423 H 0.16017 0.13562 0.60595 0.0
H1424 H 0.14006 0.1001 0.57469 0.0
H1425 H 0.14738 0.18684 0.61493 0.0
H1426 H 0.14939 0.10309 0.66491 0.0
H1427 H 0.12874 0.05958 0.68363 0.0
H1428 H 0.07677 0.09965 0.73117 0.0
H1429 H 0.09687 0.1434 0.71241 0.0
C1430 C 0.21597 0.24684 0.71698 0.0
C1431 C 0.20302 0.25515 0.73957 0.0
C1432 C 0.20246 0.2277 0.69911 0.0
C1433 C 0.17554 0.21695 0.70315 0.0
C1434 C 0.16275 0.2248 0.72609 0.0
C1435 C 0.17642 0.24371 0.74422 0.0
C1436 C 0.16083 0.19754 0.68339 0.0
C1437 C 0.14847 0.17271 0.69335 0.0
C1438 C 0.16008 0.20288 0.65477 0.0
C1439 C 0.17103 0.22944 0.64311 0.0
C1440 C 0.16253 0.25305 0.6524 0.0
C1441 C 0.17335 0.27805 0.64181 0.0
C1442 C 0.19255 0.27968 0.62175 0.0
C1443 C 0.20086 0.25631 0.61216 0.0
C1444 C 0.19013 0.23127 0.6227 0.0
C1445 C 0.08452 0.1071 0.61034 0.0
C1446 C 0.10028 0.09683 0.5911 0.0
C1447 C 0.09601 0.12734 0.62813 0.0
C1448 C 0.12342 0.13759 0.62694 0.0
C1449 C 0.13899 0.12791 0.60718 0.0
C1450 C 0.12753 0.10759 0.58946 0.0
C1451 C 0.13612 0.15785 0.64681 0.0
C1452 C 0.14805 0.1828 0.63684 0.0
C1453 C 0.13622 0.15275 0.67541 0.0
C1454 C 0.12445 0.12649 0.68706 0.0
C1455 C 0.13344 0.10261 0.67922 0.0
C1456 C 0.12185 0.0779 0.68985 0.0
C1457 C 0.1014 0.07684 0.70852 0.0
C1458 C 0.09258 0.1005 0.71668 0.0
C1459 C 0.10408 0.12526 0.70607 0.0
H1460 H 0.09243 0.0577 0.71671 0.0
H1461 H 0.20094 0.29906 0.61362 0.0
H1462 H 0.67363 0.32667 0.44098 0.0
H1463 H 0.67459 0.36966 0.46441 0.0
H1464 H 0.59725 0.37895 0.42595 0.0
H1465 H 0.59657 0.33674 0.40218 0.0
H1466 H 0.62864 0.42593 0.42753 0.0
H1467 H 0.6039 0.35221 0.49157 0.0
H1468 H 0.61159 0.31157 0.51809 0.0
H1469 H 0.68291 0.3545 0.55685 0.0
H1470 H 0.67578 0.39533 0.53027 0.0
H1471 H 0.55541 0.49558 0.51304 0.0
H1472 H 0.57379 0.4616 0.48764 0.0
H1473 H 0.64919 0.47831 0.53417 0.0
H1474 H 0.63091 0.51273 0.55982 0.0
H1475 H 0.62998 0.42292 0.52926 0.0
H1476 H 0.64842 0.49935 0.4709 0.0
H1477 H 0.63848 0.5397 0.44521 0.0
H1478 H 0.57758 0.49167 0.39607 0.0
H1479 H 0.58686 0.45106 0.42174 0.0
C1480 C 0.65714 0.33821 0.43718 0.0
C1481 C 0.63486 0.32818 0.42005 0.0
C1482 C 0.65759 0.36264 0.45071 0.0
C1483 C 0.63578 0.37737 0.44727 0.0
C1484 C 0.61427 0.36798 0.42903 0.0
C1485 C 0.61381 0.34371 0.41561 0.0
C1486 C 0.63411 0.40169 0.46364 0.0
C1487 C 0.62897 0.42527 0.44977 0.0
C1488 C 0.63528 0.40117 0.49271 0.0
C1489 C 0.63952 0.37668 0.50869 0.0
C1490 C 0.62133 0.35291 0.50559 0.0
C1491 C 0.62557 0.32986 0.52066 0.0
C1492 C 0.64778 0.33042 0.53907 0.0
C1493 C 0.66575 0.35407 0.54252 0.0
C1494 C 0.66163 0.37717 0.52747 0.0
C1495 C 0.57592 0.49213 0.51796 0.0
C1496 C 0.5917 0.50693 0.53848 0.0
C1497 C 0.58645 0.47275 0.50328 0.0
C1498 C 0.61295 0.46763 0.5088 0.0
C1499 C 0.62873 0.48206 0.52951 0.0
C1500 C 0.61826 0.50173 0.54409 0.0
C1501 C 0.62359 0.44672 0.49307 0.0
C1502 C 0.63036 0.42383 0.50705 0.0
C1503 C 0.62377 0.44781 0.46409 0.0
C1504 C 0.61827 0.47215 0.44836 0.0
C1505 C 0.63279 0.4974 0.45473 0.0
C1506 C 0.62728 0.52033 0.44016 0.0
C1507 C 0.60739 0.51826 0.41904 0.0
C1508 C 0.59299 0.49324 0.41243 0.0
C1509 C 0.5984 0.47025 0.42696 0.0
H1510 H 0.60315 0.53603 0.40779 0.0
H1511 H 0.65102 0.31256 0.55073 0.0
loop_
_geom_bond_atom_site_label_1
_geom_bond_atom_site_label_2
_geom_bond_distance
_geom_bond_site_symmetry_2
_ccdc_geom_bond_type
H0 C1 0.949 . S
C1 H0 0.949 . S
C1 C2 1.395 . S
C1 C3 1.391 . S
C2 C1 1.395 . S
C2 C5 1.390 . S
C3 C1 1.391 . S
C3 C7 1.387 . S
C3 C8 1.491 . S
H4 C5 0.950 . S
C5 C2 1.390 . S
C5 H4 0.950 . S
C5 C6 1.378 . S
C6 C5 1.378 . S
C6 C7 1.409 . S
C7 C3 1.387 . S
C7 C6 1.409 . S
C7 H9 0.951 . S
C8 C3 1.491 . S
C8 C10 1.382 . S
C8 C12 1.404 . S
H9 C7 0.951 . S
C10 C8 1.382 . S
C10 C11 1.390 . S
C10 H15 0.949 . S
C11 C10 1.390 . S
C11 C16 1.399 . S
C12 C8 1.404 . S
C12 H13 0.950 . S
C12 C14 1.375 . S
H13 C12 0.950 . S
C14 C12 1.375 . S
C14 C16 1.382 . S
C14 H18 0.950 . S
H15 C10 0.949 . S
C16 C11 1.399 . S
C16 C14 1.382 . S
C16 H17 0.952 . S
H17 C16 0.952 . S
H18 C14 0.950 . S
H19 C20 0.949 . S
C20 H19 0.949 . S
C20 C21 1.395 . S
C20 C22 1.391 . S
C21 C20 1.395 . S
C21 C24 1.390 . S
C22 C20 1.391 . S
C22 C26 1.387 . S
C22 C27 1.491 . S
H23 C24 0.950 . S
C24 C21 1.390 . S
C24 H23 0.950 . S
C24 C25 1.378 . S
C25 C24 1.378 . S
C25 C26 1.409 . S
C26 C22 1.387 . S
C26 C25 1.409 . S
C26 H28 0.951 . S
C27 C22 1.491 . S
C27 C29 1.382 . S
C27 C31 1.404 . S
H28 C26 0.951 . S
C29 C27 1.382 . S
C29 C30 1.390 . S
C29 H34 0.949 . S
C30 C29 1.390 . S
C30 C35 1.399 . S
C31 C27 1.404 . S
C31 H32 0.950 . S
C31 C33 1.375 . S
H32 C31 0.950 . S
C33 C31 1.375 . S
C33 C35 1.382 . S
C33 H37 0.950 . S
H34 C29 0.949 . S
C35 C30 1.399 . S
C35 C33 1.382 . S
C35 H36 0.952 . S
H36 C35 0.952 . S
H37 C33 0.950 . S
H38 C39 0.949 . S
C39 H38 0.949 . S
C39 C40 1.395 . S
C39 C41 1.391 . S
C40 C39 1.395 . S
C40 C43 1.390 . S
C41 C39 1.391 . S
C41 C45 1.387 . S
C41 C46 1.491 . S
H42 C43 0.950 . S
C43 C40 1.390 . S
C43 H42 0.950 . S
C43 C44 1.378 . S
C44 C43 1.378 . S
C44 C45 1.409 . S
C45 C41 1.387 . S
C45 C44 1.409 . S
C45 H47 0.951 . S
C46 C41 1.491 . S
C46 C48 1.382 . S
C46 C50 1.404 . S
H47 C45 0.951 . S
C48 C46 1.382 . S
C48 C49 1.390 . S
C48 H53 0.949 . S
C49 C48 1.390 . S
C49 C54 1.399 . S
C50 C46 1.404 . S
C50 H51 0.950 . S
C50 C52 1.375 . S
H51 C50 0.950 . S
C52 C50 1.375 . S
C52 C54 1.382 . S
C52 H56 0.950 . S
H53 C48 0.949 . S
C54 C49 1.399 . S
C54 C52 1.382 . S
C54 H55 0.952 . S
H55 C54 0.952 . S
H56 C52 0.950 . S
H57 C58 0.949 . S
C58 H57 0.949 . S
C58 C59 1.395 . S
C58 C60 1.391 . S
C59 C58 1.395 . S
C59 C62 1.390 . S
C60 C58 1.391 . S
C60 C64 1.387 . S
C60 C65 1.491 . S
H61 C62 0.950 . S
C62 C59 1.390 . S
C62 H61 0.950 . S
C62 C63 1.378 . S
C63 C62 1.378 . S
C63 C64 1.409 . S
C64 C60 1.387 . S
C64 C63 1.409 . S
C64 H66 0.951 . S
C65 C60 1.491 . S
C65 C67 1.382 . S
C65 C69 1.404 . S
H66 C64 0.951 . S
C67 C65 1.382 . S
C67 C68 1.390 . S
C67 H72 0.949 . S
C68 C67 1.390 . S
C68 C73 1.399 . S
C69 C65 1.404 . S
C69 H70 0.950 . S
C69 C71 1.375 . S
H70 C69 0.950 . S
C71 C69 1.375 . S
C71 C73 1.382 . S
C71 H75 0.950 . S
H72 C67 0.949 . S
C73 C68 1.399 . S
C73 C71 1.382 . S
C73 H74 0.952 . S
H74 C73 0.952 . S
H75 C71 0.950 . S
H76 C77 0.949 . S
C77 H76 0.949 . S
C77 C78 1.395 . S
C77 C79 1.391 . S
C78 C77 1.395 . S
C78 C81 1.390 . S
C79 C77 1.391 . S
C79 C83 1.387 . S
C79 C84 1.491 . S
H80 C81 0.950 . S
C81 C78 1.390 . S
C81 H80 0.950 . S
C81 C82 1.378 . S
C82 C81 1.378 . S
C82 C83 1.409 . S
C83 C79 1.387 . S
C83 C82 1.409 . S
C83 H85 0.951 . S
C84 C79 1.491 . S
C84 C86 1.382 . S
C84 C88 1.404 . S
H85 C83 0.951 . S
C86 C84 1.382 . S
C86 C87 1.390 . S
C86 H91 0.949 . S
C87 C86 1.390 . S
C87 C92 1.399 . S
C88 C84 1.404 . S
C88 H89 0.950 . S
C88 C90 1.375 . S
H89 C88 0.950 . S
C90 C88 1.375 . S
C90 C92 1.382 . S
C90 H94 0.950 . S
H91 C86 0.949 . S
C92 C87 1.399 . S
C92 C90 1.382 . S
C92 H93 0.952 . S
H93 C92 0.952 . S
H94 C90 0.950 . S
H95 C96 0.949 . S
C96 H95 0.949 . S
C96 C97 1.395 . S
C96 C98 1.391 . S
C97 C96 1.395 . S
C97 C100 1.390 . S
C98 C96 1.391 . S
C98 C102 1.387 . S
C98 C103 1.491 . S
H99 C100 0.950 . S
C100 C97 1.390 . S
C100 H99 0.950 . S
C100 C101 1.378 . S
C101 C100 1.378 . S
C101 C102 1.409 . S
C102 C98 1.387 . S
C102 C101 1.409 . S
C102 H104 0.951 . S
C103 C98 1.491 . S
C103 C105 1.382 . S
C103 C107 1.404 . S
H104 C102 0.951 . S
C105 C103 1.382 . S
C105 C106 1.390 . S
C105 H110 0.949 . S
C106 C105 1.390 . S
C106 C111 1.399 . S
C107 C103 1.404 . S
C107 H108 0.950 . S
C107 C109 1.375 . S
H108 C107 0.950 . S
C109 C107 1.375 . S
C109 C111 1.382 . S
C109 H113 0.950 . S
H110 C105 0.949 . S
C111 C106 1.399 . S
C111 C109 1.382 . S
C111 H112 0.952 . S
H112 C111 0.952 . S
H113 C109 0.950 . S
H114 C115 0.949 . S
C115 H114 0.949 . S
C115 C116 1.395 . S
C115 C117 1.391 . S
C116 C115 1.395 . S
C116 C119 1.390 . S
C117 C115 1.391 . S
C117 C121 1.387 . S
C117 C122 1.491 . S
H118 C119 0.950 . S
C119 C116 1.390 . S
C119 H118 0.950 . S
C119 C120 1.378 . S
C120 C119 1.378 . S
C120 C121 1.409 . S
C121 C117 1.387 . S
C121 C120 1.409 . S
C121 H123 0.951 . S
C122 C117 1.491 . S
C122 C124 1.382 . S
C122 C126 1.404 . S
H123 C121 0.951 . S
C124 C122 1.382 . S
C124 C125 1.390 . S
C124 H129 0.949 . S
C125 C124 1.390 . S
C125 C130 1.399 . S
C126 C122 1.404 . S
C126 H127 0.950 . S
C126 C128 1.375 . S
H127 C126 0.950 . S
C128 C126 1.375 . S
C128 C130 1.382 . S
C128 H132 0.950 . S
H129 C124 0.949 . S
C130 C125 1.399 . S
C130 C128 1.382 . S
C130 H131 0.952 . S
H131 C130 0.952 . S
H132 C128 0.950 . S
H133 C134 0.949 . S
C134 H133 0.949 . S
C134 C135 1.395 . S
C134 C136 1.391 . S
C135 C134 1.395 . S
C135 C138 1.390 . S
C136 C134 1.391 . S
C136 C140 1.387 . S
C136 C141 1.491 . S
H137 C138 0.950 . S
C138 C135 1.390 . S
C138 H137 0.950 . S
C138 C139 1.378 . S
C139 C138 1.378 . S
C139 C140 1.409 . S
C140 C136 1.387 . S
C140 C139 1.409 . S
C140 H142 0.951 . S
C141 C136 1.491 . S
C141 C143 1.382 . S
C141 C145 1.404 . S
H142 C140 0.951 . S
C143 C141 1.382 . S
C143 C144 1.390 . S
C143 H148 0.949 . S
C144 C143 1.390 . S
C144 C149 1.399 . S
C145 C141 1.404 . S
C145 H146 0.950 . S
C145 C147 1.375 . S
H146 C145 0.950 . S
C147 C145 1.375 . S
C147 C149 1.382 . S
C147 H151 0.950 . S
H148 C143 0.949 . S
C149 C144 1.399 . S
C149 C147 1.382 . S
C149 H150 0.952 . S
H150 C149 0.952 . S
H151 C147 0.950 . S
Nd152 C154 2.836 1_545 S
Nd152 O172 2.500 1_545 S
Nd152 O173 2.482 1_545 S
Nd152 O174 2.487 . S
Nd152 O175 2.682 . S
Nd152 O176 2.410 . S
Nd152 O181 2.414 1_445 S
Nd152 O183 2.424 . S
Nd153 C163 2.836 . S
Nd153 O175 2.414 1_655 S
Nd153 O177 2.424 . S
Nd153 O178 2.500 . S
Nd153 O179 2.492 . S
Nd153 O180 2.487 1_545 S
Nd153 O181 2.682 1_545 S
Nd153 O182 2.410 . S
C154 Nd152 2.836 1_565 S
C154 C155 1.498 . S
C154 O172 1.258 . S
C154 O173 1.260 . S
C155 C154 1.498 . S
C155 C156 1.366 . S
C155 C160 1.407 . S
C156 C155 1.366 . S
C156 C157 1.392 . S
C156 H184 0.930 . S
C157 C156 1.392 . S
C157 C158 1.398 . S
C157 H185 0.929 . S
C158 C157 1.398 . S
C158 C159 1.352 . S
C159 C158 1.352 . S
C159 C160 1.384 . S
C159 H186 0.930 . S
C160 C155 1.407 . S
C160 C159 1.384 . S
C160 H187 0.929 . S
C161 O174 1.241 . S
C161 O175 1.273 . S
C162 O176 1.251 1_665 S
C162 O177 1.268 1_565 S
C163 Nd153 2.836 . S
C163 C164 1.498 . S
C163 O178 1.258 . S
C163 O179 1.239 . S
C164 C163 1.498 . S
C164 C165 1.366 . S
C164 C169 1.407 . S
C165 C164 1.366 . S
C165 C166 1.392 . S
C165 H188 0.930 . S
C166 C165 1.392 . S
C166 C167 1.398 . S
C166 H189 0.929 . S
C167 C166 1.398 . S
C167 C168 1.352 . S
C168 C167 1.352 . S
C168 C169 1.384 . S
C168 H190 0.930 . S
C169 C164 1.407 . S
C169 C168 1.384 . S
C169 H191 0.929 . S
C170 O180 1.241 . S
C170 O181 1.273 . S
C171 O182 1.251 1_455 S
C171 O183 1.268 . S
O172 Nd152 2.500 1_565 S
O172 C154 1.258 . S
O173 Nd152 2.482 1_565 S
O173 C154 1.260 . S
O174 Nd152 2.487 . S
O174 C161 1.241 . S
O175 Nd152 2.682 . S
O175 Nd153 2.414 1_455 S
O175 C161 1.273 . S
O176 Nd152 2.410 . S
O176 C162 1.251 1_445 S
O177 Nd153 2.424 . S
O177 C162 1.268 1_545 S
O178 Nd153 2.500 . S
O178 C163 1.258 . S
O179 Nd153 2.492 . S
O179 C163 1.239 . S
O180 Nd153 2.487 1_565 S
O180 C170 1.241 . S
O181 Nd152 2.414 1_665 S
O181 Nd153 2.682 1_565 S
O181 C170 1.273 . S
O182 Nd153 2.410 . S
O182 C171 1.251 1_655 S
O183 Nd152 2.424 . S
O183 C171 1.268 . S
H184 C156 0.930 . S
H185 C157 0.929 . S
H186 C159 0.930 . S
H187 C160 0.929 . S
H188 C165 0.930 . S
H189 C166 0.929 . S
H190 C168 0.930 . S
H191 C169 0.929 . S
Nd192 C194 2.836 1_545 S
Nd192 O212 2.500 1_545 S
Nd192 O213 2.492 1_545 S
Nd192 O214 2.487 . S
Nd192 O215 2.682 . S
Nd192 O216 2.410 1_545 S
Nd192 O221 2.414 . S
Nd192 O223 2.424 . S
Nd193 C203 2.836 . S
Nd193 O215 2.414 . S
Nd193 O217 2.424 . S
Nd193 O218 2.500 . S
Nd193 O219 2.492 . S
Nd193 O220 2.487 . S
Nd193 O221 2.682 . S
Nd193 O222 2.410 . S
C194 Nd192 2.836 1_565 S
C194 C195 1.498 . S
C194 O212 1.258 . S
C194 O213 1.239 . S
C195 C194 1.498 . S
C195 C196 1.366 . S
C195 C200 1.407 . S
C196 C195 1.366 . S
C196 C197 1.392 . S
C196 H224 0.930 . S
C197 C196 1.392 . S
C197 C198 1.398 . S
C197 H225 0.929 . S
C198 C197 1.398 . S
C198 C199 1.352 . S
C199 C198 1.352 . S
C199 C200 1.384 . S
C199 H226 0.930 . S
C200 C195 1.407 . S
C200 C199 1.384 . S
C200 H227 0.929 . S
C201 O214 1.241 . S
C201 O215 1.273 . S
C202 O216 1.251 . S
C202 O217 1.268 1_565 S
C203 Nd193 2.836 . S
C203 C204 1.498 . S
C203 O218 1.258 . S
C203 O219 1.239 . S
C204 C203 1.498 . S
C204 C205 1.366 . S
C204 C209 1.407 . S
C205 C204 1.366 . S
C205 C206 1.392 . S
C205 H228 0.930 . S
C206 C205 1.392 . S
C206 C207 1.398 . S
C206 H229 0.929 . S
C207 C206 1.398 . S
C207 C208 1.352 . S
C208 C207 1.352 . S
C208 C209 1.384 . S
C208 H230 0.930 1_554 S
C209 C204 1.407 . S
C209 C208 1.384 . S
C209 H231 0.929 . S
C210 O220 1.241 . S
C210 O221 1.273 . S
C211 O222 1.251 . S
C211 O223 1.268 . S
O212 Nd192 2.500 1_565 S
O212 C194 1.258 . S
O213 Nd192 2.492 1_565 S
O213 C194 1.239 . S
O214 Nd192 2.487 . S
O214 C201 1.241 . S
O215 Nd192 2.682 . S
O215 Nd193 2.414 . S
O215 C201 1.273 . S
O216 Nd192 2.410 1_565 S
O216 C202 1.251 . S
O217 Nd193 2.424 . S
O217 C202 1.268 1_545 S
O218 Nd193 2.500 . S
O218 C203 1.258 . S
O219 Nd193 2.492 . S
O219 C203 1.239 . S
O220 Nd193 2.487 . S
O220 C210 1.241 . S
O221 Nd192 2.414 . S
O221 Nd193 2.682 . S
O221 C210 1.273 . S
O222 Nd193 2.410 . S
O222 C211 1.251 . S
O223 Nd192 2.424 . S
O223 C211 1.268 . S
H224 C196 0.930 . S
H225 C197 0.929 . S
H226 C199 0.930 . S
H227 C200 0.929 . S
H228 C205 0.930 . S
H229 C206 0.929 . S
H230 C208 0.930 1_556 S
H231 C209 0.929 . S
Nd232 C234 2.836 . S
Nd232 O252 2.500 . S
Nd232 O253 2.492 . S
Nd232 O254 2.487 . S
Nd232 O255 2.682 . S
Nd232 O256 2.410 . S
Nd232 O261 2.414 . S
Nd232 O263 2.424 . S
Nd233 C243 2.836 . S
Nd233 O255 2.414 . S
Nd233 O257 2.424 . S
Nd233 O258 2.500 . S
Nd233 O259 2.492 . S
Nd233 O260 2.487 . S
Nd233 O261 2.682 . S
Nd233 O262 2.410 . S
C234 Nd232 2.836 . S
C234 C235 1.498 . S
C234 O252 1.258 . S
C234 O253 1.239 . S
C235 C234 1.498 . S
C235 C236 1.366 . S
C235 C240 1.407 . S
C236 C235 1.366 . S
C236 C237 1.392 . S
C236 H264 0.930 . S
C237 C236 1.392 . S
C237 C238 1.398 . S
C237 H265 0.929 . S
C238 C237 1.398 . S
C238 C239 1.352 . S
C239 C238 1.352 . S
C239 C240 1.384 . S
C239 H266 0.930 . S
C240 C235 1.407 . S
C240 C239 1.384 . S
C240 H267 0.929 . S
C241 O254 1.241 . S
C241 O255 1.273 . S
C242 O256 1.251 . S
C242 O257 1.268 . S
C243 Nd233 2.836 . S
C243 C244 1.498 . S
C243 O258 1.258 . S
C243 O259 1.239 . S
C244 C243 1.498 . S
C244 C245 1.366 . S
C244 C249 1.407 . S
C245 C244 1.366 . S
C245 C246 1.392 . S
C245 H268 0.930 . S
C246 C245 1.392 . S
C246 C247 1.398 . S
C246 H269 0.929 . S
C247 C246 1.398 . S
C247 C248 1.352 . S
C248 C247 1.352 . S
C248 C249 1.384 . S
C248 H270 0.930 . S
C249 C244 1.407 . S
C249 C248 1.384 . S
C249 H271 0.929 . S
C250 O260 1.241 . S
C250 O261 1.273 . S
C251 O262 1.251 . S
C251 O263 1.268 . S
O252 Nd232 2.500 . S
O252 C234 1.258 . S
O253 Nd232 2.492 . S
O253 C234 1.239 . S
O254 Nd232 2.487 . S
O254 C241 1.241 . S
O255 Nd232 2.682 . S
O255 Nd233 2.414 . S
O255 C241 1.273 . S
O256 Nd232 2.410 . S
O256 C242 1.251 . S
O257 Nd233 2.424 . S
O257 C242 1.268 . S
O258 Nd233 2.500 . S
O258 C243 1.258 . S
O259 Nd233 2.492 . S
O259 C243 1.239 . S
O260 Nd233 2.487 . S
O260 C250 1.241 . S
O261 Nd232 2.414 . S
O261 Nd233 2.682 . S
O261 C250 1.273 . S
O262 Nd233 2.410 . S
O262 C251 1.251 . S
O263 Nd232 2.424 . S
O263 C251 1.268 . S
H264 C236 0.930 . S
H265 C237 0.929 . S
H266 C239 0.930 . S
H267 C240 0.929 . S
H268 C245 0.930 . S
H269 C246 0.929 . S
H270 C248 0.930 . S
H271 C249 0.929 . S
Nd272 C274 2.836 1_455 S
Nd272 O292 2.500 1_455 S
Nd272 O293 2.492 . S
Nd272 O294 2.487 . S
Nd272 O295 2.682 . S
Nd272 O296 2.410 . S
Nd272 O301 2.414 1_455 S
Nd272 O303 2.424 . S
Nd273 C283 2.836 . S
Nd273 O295 2.414 1_556 S
Nd273 O297 2.424 . S
Nd273 O298 2.500 . S
Nd273 O299 2.492 . S
Nd273 O300 2.487 1_455 S
Nd273 O301 2.682 1_456 S
Nd273 O302 2.410 . S
C274 Nd272 2.836 1_655 S
C274 C275 1.498 . S
C274 O292 1.258 . S
C274 O293 1.239 1_655 S
C275 C274 1.498 . S
C275 C276 1.366 . S
C275 C280 1.407 . S
C276 C275 1.366 . S
C276 C277 1.392 . S
C276 H304 0.930 . S
C277 C276 1.392 . S
C277 C278 1.398 . S
C277 H305 0.929 . S
C278 C277 1.398 . S
C278 C279 1.352 . S
C279 C278 1.352 . S
C279 C280 1.384 . S
C279 H306 0.930 . S
C280 C275 1.407 . S
C280 C279 1.384 . S
C280 H307 0.929 1_655 S
C281 O294 1.241 . S
C281 O295 1.273 . S
C282 O296 1.251 . S
C282 O297 1.268 1_554 S
C283 Nd273 2.836 . S
C283 C284 1.498 . S
C283 O298 1.258 . S
C283 O299 1.239 . S
C284 C283 1.498 . S
C284 C285 1.366 . S
C284 C289 1.407 . S
C285 C284 1.366 . S
C285 C286 1.392 . S
C285 H308 0.930 . S
C286 C285 1.392 . S
C286 C287 1.398 . S
C286 H309 0.929 . S
C287 C286 1.398 . S
C287 C288 1.352 . S
C288 C287 1.352 . S
C288 C289 1.384 . S
C288 H310 0.930 . S
C289 C284 1.407 . S
C289 C288 1.384 . S
C289 H311 0.929 . S
C290 O300 1.241 . S
C290 O301 1.273 1_556 S
C291 O302 1.251 1_554 S
C291 O303 1.268 . S
O292 Nd272 2.500 1_655 S
O292 C274 1.258 . S
O293 Nd272 2.492 . S
O293 C274 1.239 1_455 S
O294 Nd272 2.487 . S
O294 C281 1.241 . S
O295 Nd272 2.682 . S
O295 Nd273 2.414 1_554 S
O295 C281 1.273 . S
O296 Nd272 2.410 . S
O296 C282 1.251 . S
O297 Nd273 2.424 . S
O297 C282 1.268 1_556 S
O298 Nd273 2.500 . S
O298 C283 1.258 . S
O299 Nd273 2.492 . S
O299 C283 1.239 . S
O300 Nd273 2.487 1_655 S
O300 C290 1.241 . S
O301 Nd272 2.414 1_655 S
O301 Nd273 2.682 1_654 S
O301 C290 1.273 1_554 S
O302 Nd273 2.410 . S
O302 C291 1.251 1_556 S
O303 Nd272 2.424 . S
O303 C291 1.268 . S
H304 C276 0.930 . S
H305 C277 0.929 . S
H306 C279 0.930 . S
H307 C280 0.929 1_455 S
H308 C285 0.930 . S
H309 C286 0.929 . S
H310 C288 0.930 . S
H311 C289 0.929 . S
H312 C330 0.951 . S
H313 C332 0.951 . S
H314 C334 0.950 . S
H315 C335 0.950 . S
H316 C337 0.950 . S
H317 C340 0.950 . S
H318 C341 0.950 . S
H319 C343 0.950 . S
H320 C344 0.950 . S
H321 C345 0.951 . S
H322 C347 0.951 . S
H323 C349 0.950 . S
H324 C350 0.950 . S
H325 C352 0.950 . S
H326 C355 0.950 . S
H327 C356 0.950 . S
H328 C358 0.950 . S
H329 C359 0.950 . S
C330 H312 0.951 . S
C330 C331 1.366 . S
C330 C332 1.388 . S
C331 C330 1.366 . S
C331 C335 1.385 . S
C332 H313 0.951 . S
C332 C330 1.388 . S
C332 C333 1.366 . S
C333 C332 1.366 . S
C333 C334 1.414 . S
C333 C336 1.499 . S
C334 H314 0.950 . S
C334 C333 1.414 . S
C334 C335 1.374 . S
C335 H315 0.950 . S
C335 C331 1.385 . S
C335 C334 1.374 . S
C336 C333 1.499 . S
C336 C337 1.373 . S
C336 C338 1.389 . S
C337 H316 0.950 . S
C337 C336 1.373 . S
C337 C353 1.377 . S
C338 C336 1.389 . S
C338 C339 1.524 . S
C338 C352 1.377 . S
C339 C338 1.524 . S
C339 C340 1.397 . S
C339 C344 1.363 . S
C340 H317 0.950 . S
C340 C339 1.397 . S
C340 C341 1.334 . S
C341 H318 0.950 . S
C341 C340 1.334 . S
C341 C342 1.287 . S
C342 C341 1.287 . S
C342 C343 1.524 . S
C342 H361 0.913 . S
C343 H319 0.950 . S
C343 C342 1.524 . S
C343 C344 1.415 . S
C344 H320 0.950 . S
C344 C339 1.363 . S
C344 C343 1.415 . S
C345 H321 0.951 . S
C345 C346 1.366 . S
C345 C347 1.388 . S
C346 C345 1.366 . S
C346 C350 1.385 . S
C347 H322 0.951 . S
C347 C345 1.388 . S
C347 C348 1.366 . S
C348 C347 1.366 . S
C348 C349 1.414 . S
C348 C351 1.499 . S
C349 H323 0.950 . S
C349 C348 1.414 . S
C349 C350 1.374 . S
C350 H324 0.950 . S
C350 C346 1.385 . S
C350 C349 1.374 . S
C351 C348 1.499 . S
C351 C352 1.373 . S
C351 C353 1.389 . S
C352 H325 0.950 . S
C352 C338 1.377 . S
C352 C351 1.373 . S
C353 C337 1.377 . S
C353 C351 1.389 . S
C353 C354 1.524 . S
C354 C353 1.524 . S
C354 C355 1.397 . S
C354 C359 1.363 . S
C355 H326 0.950 . S
C355 C354 1.397 . S
C355 C356 1.334 . S
C356 H327 0.950 . S
C356 C355 1.334 . S
C356 C357 1.287 . S
C357 C356 1.287 . S
C357 C358 1.524 . S
C357 H360 0.999 . S
C358 H328 0.950 . S
C358 C357 1.524 . S
C358 C359 1.415 . S
C359 H329 0.950 . S
C359 C354 1.363 . S
C359 C358 1.415 . S
H360 C357 0.999 . S
H361 C342 0.913 . S
H362 C380 0.951 . S
H363 C382 0.951 . S
H364 C384 0.950 . S
H365 C385 0.950 . S
H366 C387 0.950 . S
H367 C390 0.950 . S
H368 C391 0.950 . S
H369 C393 0.950 . S
H370 C394 0.950 . S
H371 C395 0.951 1_554 S
H372 C397 0.951 . S
H373 C399 0.950 . S
H374 C400 0.950 . S
H375 C402 0.950 . S
H376 C405 0.950 . S
H377 C406 0.950 . S
H378 C408 0.950 . S
H379 C409 0.950 . S
C380 H362 0.951 . S
C380 C381 1.366 . S
C380 C382 1.388 . S
C381 C380 1.366 . S
C381 C385 1.385 . S
C382 H363 0.951 . S
C382 C380 1.388 . S
C382 C383 1.366 . S
C383 C382 1.366 . S
C383 C384 1.414 . S
C383 C386 1.499 . S
C384 H364 0.950 . S
C384 C383 1.414 . S
C384 C385 1.374 . S
C385 H365 0.950 . S
C385 C381 1.385 . S
C385 C384 1.374 . S
C386 C383 1.499 . S
C386 C387 1.373 . S
C386 C388 1.389 . S
C387 H366 0.950 . S
C387 C386 1.373 . S
C387 C403 1.377 . S
C388 C386 1.389 . S
C388 C389 1.524 . S
C388 C402 1.377 . S
C389 C388 1.524 . S
C389 C390 1.397 . S
C389 C394 1.363 . S
C390 H367 0.950 . S
C390 C389 1.397 . S
C390 C391 1.334 . S
C391 H368 0.950 . S
C391 C390 1.334 . S
C391 C392 1.287 . S
C392 C391 1.287 . S
C392 C393 1.524 . S
C392 H411 0.913 . S
C393 H369 0.950 . S
C393 C392 1.524 . S
C393 C394 1.415 . S
C394 H370 0.950 . S
C394 C389 1.363 . S
C394 C393 1.415 . S
C395 H371 0.951 1_556 S
C395 C396 1.366 1_556 S
C395 C397 1.388 . S
C396 C395 1.366 1_554 S
C396 C400 1.385 1_554 S
C397 H372 0.951 . S
C397 C395 1.388 . S
C397 C398 1.366 . S
C398 C397 1.366 . S
C398 C399 1.414 . S
C398 C401 1.499 . S
C399 H373 0.950 . S
C399 C398 1.414 . S
C399 C400 1.374 . S
C400 H374 0.950 . S
C400 C396 1.385 1_556 S
C400 C399 1.374 . S
C401 C398 1.499 . S
C401 C402 1.373 . S
C401 C403 1.389 . S
C402 H375 0.950 . S
C402 C388 1.377 . S
C402 C401 1.373 . S
C403 C387 1.377 . S
C403 C401 1.389 . S
C403 C404 1.524 . S
C404 C403 1.524 . S
C404 C405 1.397 . S
C404 C409 1.363 . S
C405 H376 0.950 . S
C405 C404 1.397 . S
C405 C406 1.334 . S
C406 H377 0.950 . S
C406 C405 1.334 . S
C406 C407 1.287 . S
C407 C406 1.287 . S
C407 C408 1.524 . S
C407 H410 0.999 . S
C408 H378 0.950 . S
C408 C407 1.524 . S
C408 C409 1.415 . S
C409 H379 0.950 . S
C409 C404 1.363 . S
C409 C408 1.415 . S
H410 C407 0.999 . S
H411 C392 0.913 . S
H412 C430 0.951 . S
H413 C432 0.951 . S
H414 C434 0.950 . S
H415 C435 0.950 . S
H416 C437 0.950 . S
H417 C440 0.950 . S
H418 C441 0.950 . S
H419 C443 0.950 . S
H420 C444 0.950 . S
H421 C445 0.951 . S
H422 C447 0.951 . S
H423 C449 0.950 . S
H424 C450 0.950 . S
H425 C452 0.950 . S
H426 C455 0.950 . S
H427 C456 0.950 . S
H428 C458 0.950 . S
H429 C459 0.950 . S
C430 H412 0.951 . S
C430 C431 1.366 . S
C430 C432 1.388 . S
C431 C430 1.366 . S
C431 C435 1.385 . S
C432 H413 0.951 . S
C432 C430 1.388 . S
C432 C433 1.366 . S
C433 C432 1.366 . S
C433 C434 1.414 . S
C433 C436 1.499 . S
C434 H414 0.950 . S
C434 C433 1.414 . S
C434 C435 1.374 . S
C435 H415 0.950 . S
C435 C431 1.385 . S
C435 C434 1.374 . S
C436 C433 1.499 . S
C436 C437 1.373 . S
C436 C438 1.389 . S
C437 H416 0.950 . S
C437 C436 1.373 . S
C437 C453 1.377 . S
C438 C436 1.389 . S
C438 C439 1.524 . S
C438 C452 1.377 . S
C439 C438 1.524 . S
C439 C440 1.397 . S
C439 C444 1.363 . S
C440 H417 0.950 . S
C440 C439 1.397 . S
C440 C441 1.334 . S
C441 H418 0.950 . S
C441 C440 1.334 . S
C441 C442 1.287 . S
C442 C441 1.287 . S
C442 C443 1.524 . S
C442 H461 0.913 . S
C443 H419 0.950 . S
C443 C442 1.524 . S
C443 C444 1.415 . S
C444 H420 0.950 . S
C444 C439 1.363 . S
C444 C443 1.415 . S
C445 H421 0.951 . S
C445 C446 1.366 . S
C445 C447 1.388 . S
C446 C445 1.366 . S
C446 C450 1.385 . S
C447 H422 0.951 . S
C447 C445 1.388 . S
C447 C448 1.366 . S
C448 C447 1.366 . S
C448 C449 1.414 . S
C448 C451 1.499 . S
C449 H423 0.950 . S
C449 C448 1.414 . S
C449 C450 1.374 . S
C450 H424 0.950 . S
C450 C446 1.385 . S
C450 C449 1.374 . S
C451 C448 1.499 . S
C451 C452 1.373 . S
C451 C453 1.389 . S
C452 H425 0.950 . S
C452 C438 1.377 . S
C452 C451 1.373 . S
C453 C437 1.377 . S
C453 C451 1.389 . S
C453 C454 1.524 . S
C454 C453 1.524 . S
C454 C455 1.397 . S
C454 C459 1.363 . S
C455 H426 0.950 . S
C455 C454 1.397 . S
C455 C456 1.334 . S
C456 H427 0.950 . S
C456 C455 1.334 . S
C456 C457 1.287 . S
C457 C456 1.287 . S
C457 C458 1.524 . S
C457 H460 0.999 . S
C458 H428 0.950 . S
C458 C457 1.524 . S
C458 C459 1.415 . S
C459 H429 0.950 . S
C459 C454 1.363 . S
C459 C458 1.415 . S
H460 C457 0.999 . S
H461 C442 0.913 . S
H462 C480 0.951 . S
H463 C482 0.951 . S
H464 C484 0.950 . S
H465 C485 0.950 . S
H466 C487 0.950 . S
H467 C490 0.950 . S
H468 C491 0.950 . S
H469 C493 0.950 . S
H470 C494 0.950 . S
H471 C495 0.951 . S
H472 C497 0.951 . S
H473 C499 0.950 . S
H474 C500 0.950 . S
H475 C502 0.950 . S
H476 C505 0.950 . S
H477 C506 0.950 . S
H478 C508 0.950 . S
H479 C509 0.950 . S
C480 H462 0.951 . S
C480 C481 1.366 . S
C480 C482 1.388 . S
C481 C480 1.366 . S
C481 C485 1.385 . S
C482 H463 0.951 . S
C482 C480 1.388 . S
C482 C483 1.366 . S
C483 C482 1.366 . S
C483 C484 1.414 . S
C483 C486 1.499 . S
C484 H464 0.950 . S
C484 C483 1.414 . S
C484 C485 1.374 . S
C485 H465 0.950 . S
C485 C481 1.385 . S
C485 C484 1.374 . S
C486 C483 1.499 . S
C486 C487 1.373 . S
C486 C488 1.389 . S
C487 H466 0.950 . S
C487 C486 1.373 . S
C487 C503 1.377 . S
C488 C486 1.389 . S
C488 C489 1.524 . S
C488 C502 1.377 . S
C489 C488 1.524 . S
C489 C490 1.397 . S
C489 C494 1.363 . S
C490 H467 0.950 . S
C490 C489 1.397 . S
C490 C491 1.334 . S
C491 H468 0.950 . S
C491 C490 1.334 . S
C491 C492 1.287 . S
C492 C491 1.287 . S
C492 C493 1.524 . S
C492 H511 0.913 . S
C493 H469 0.950 . S
C493 C492 1.524 . S
C493 C494 1.415 . S
C494 H470 0.950 . S
C494 C489 1.363 . S
C494 C493 1.415 . S
C495 H471 0.951 . S
C495 C496 1.366 . S
C495 C497 1.388 . S
C496 C495 1.366 . S
C496 C500 1.385 . S
C497 H472 0.951 . S
C497 C495 1.388 . S
C497 C498 1.366 . S
C498 C497 1.366 . S
C498 C499 1.414 . S
C498 C501 1.499 . S
C499 H473 0.950 . S
C499 C498 1.414 . S
C499 C500 1.374 . S
C500 H474 0.950 . S
C500 C496 1.385 . S
C500 C499 1.374 . S
C501 C498 1.499 . S
C501 C502 1.373 . S
C501 C503 1.389 . S
C502 H475 0.950 . S
C502 C488 1.377 . S
C502 C501 1.373 . S
C503 C487 1.377 . S
C503 C501 1.389 . S
C503 C504 1.524 . S
C504 C503 1.524 . S
C504 C505 1.397 . S
C504 C509 1.363 . S
C505 H476 0.950 . S
C505 C504 1.397 . S
C505 C506 1.334 . S
C506 H477 0.950 . S
C506 C505 1.334 . S
C506 C507 1.287 . S
C507 C506 1.287 . S
C507 C508 1.524 . S
C507 H510 0.999 . S
C508 H478 0.950 . S
C508 C507 1.524 . S
C508 C509 1.415 . S
C509 H479 0.950 . S
C509 C504 1.363 . S
C509 C508 1.415 . S
H510 C507 0.999 . S
H511 C492 0.913 . S
H512 C530 0.951 . S
H513 C532 0.951 . S
H514 C534 0.950 . S
H515 C535 0.950 . S
H516 C537 0.950 . S
H517 C540 0.950 . S
H518 C541 0.950 . S
H519 C543 0.950 . S
H520 C544 0.950 . S
H521 C545 0.951 . S
H522 C547 0.951 . S
H523 C549 0.950 . S
H524 C550 0.950 . S
H525 C552 0.950 . S
H526 C555 0.950 . S
H527 C556 0.950 . S
H528 C558 0.950 . S
H529 C559 0.950 . S
C530 H512 0.951 . S
C530 C531 1.366 . S
C530 C532 1.388 . S
C531 C530 1.366 . S
C531 C535 1.385 . S
C532 H513 0.951 . S
C532 C530 1.388 . S
C532 C533 1.366 . S
C533 C532 1.366 . S
C533 C534 1.414 . S
C533 C536 1.499 . S
C534 H514 0.950 . S
C534 C533 1.414 . S
C534 C535 1.374 . S
C535 H515 0.950 . S
C535 C531 1.385 . S
C535 C534 1.374 . S
C536 C533 1.499 . S
C536 C537 1.373 . S
C536 C538 1.389 . S
C537 H516 0.950 . S
C537 C536 1.373 . S
C537 C553 1.377 . S
C538 C536 1.389 . S
C538 C539 1.524 . S
C538 C552 1.377 . S
C539 C538 1.524 . S
C539 C540 1.397 . S
C539 C544 1.363 . S
C540 H517 0.950 . S
C540 C539 1.397 . S
C540 C541 1.334 . S
C541 H518 0.950 . S
C541 C540 1.334 . S
C541 C542 1.287 . S
C542 C541 1.287 . S
C542 C543 1.524 . S
C542 H561 0.913 . S
C543 H519 0.950 . S
C543 C542 1.524 . S
C543 C544 1.415 . S
C544 H520 0.950 . S
C544 C539 1.363 . S
C544 C543 1.415 . S
C545 H521 0.951 . S
C545 C546 1.366 . S
C545 C547 1.388 . S
C546 C545 1.366 . S
C546 C550 1.385 . S
C547 H522 0.951 . S
C547 C545 1.388 . S
C547 C548 1.366 . S
C548 C547 1.366 . S
C548 C549 1.414 . S
C548 C551 1.499 . S
C549 H523 0.950 . S
C549 C548 1.414 . S
C549 C550 1.374 . S
C550 H524 0.950 . S
C550 C546 1.385 . S
C550 C549 1.374 . S
C551 C548 1.499 . S
C551 C552 1.373 . S
C551 C553 1.389 . S
C552 H525 0.950 . S
C552 C538 1.377 . S
C552 C551 1.373 . S
C553 C537 1.377 . S
C553 C551 1.389 . S
C553 C554 1.524 . S
C554 C553 1.524 . S
C554 C555 1.397 . S
C554 C559 1.363 . S
C555 H526 0.950 . S
C555 C554 1.397 . S
C555 C556 1.334 . S
C556 H527 0.950 . S
C556 C555 1.334 . S
C556 C557 1.287 . S
C557 C556 1.287 . S
C557 C558 1.524 . S
C557 H560 0.999 . S
C558 H528 0.950 . S
C558 C557 1.524 . S
C558 C559 1.415 . S
C559 H529 0.950 . S
C559 C554 1.363 . S
C559 C558 1.415 . S
H560 C557 0.999 . S
H561 C542 0.913 . S
H562 C580 0.951 . S
H563 C582 0.951 . S
H564 C584 0.950 . S
H565 C585 0.950 . S
H566 C587 0.950 . S
H567 C590 0.950 . S
H568 C591 0.950 . S
H569 C593 0.950 . S
H570 C594 0.950 . S
H571 C595 0.951 . S
H572 C597 0.951 . S
H573 C599 0.950 . S
H574 C600 0.950 . S
H575 C602 0.950 . S
H576 C605 0.950 . S
H577 C606 0.950 . S
H578 C608 0.950 . S
H579 C609 0.950 . S
C580 H562 0.951 . S
C580 C581 1.366 . S
C580 C582 1.388 . S
C581 C580 1.366 . S
C581 C585 1.385 . S
C582 H563 0.951 . S
C582 C580 1.388 . S
C582 C583 1.366 . S
C583 C582 1.366 . S
C583 C584 1.414 . S
C583 C586 1.499 . S
C584 H564 0.950 . S
C584 C583 1.414 . S
C584 C585 1.374 . S
C585 H565 0.950 . S
C585 C581 1.385 . S
C585 C584 1.374 . S
C586 C583 1.499 . S
C586 C587 1.373 . S
C586 C588 1.389 . S
C587 H566 0.950 . S
C587 C586 1.373 . S
C587 C603 1.377 . S
C588 C586 1.389 . S
C588 C589 1.524 . S
C588 C602 1.377 . S
C589 C588 1.524 . S
C589 C590 1.397 . S
C589 C594 1.363 . S
C590 H567 0.950 . S
C590 C589 1.397 . S
C590 C591 1.334 . S
C591 H568 0.950 . S
C591 C590 1.334 . S
C591 C592 1.287 . S
C592 C591 1.287 . S
C592 C593 1.524 . S
C592 H611 0.913 . S
C593 H569 0.950 . S
C593 C592 1.524 . S
C593 C594 1.415 . S
C594 H570 0.950 . S
C594 C589 1.363 . S
C594 C593 1.415 . S
C595 H571 0.951 . S
C595 C596 1.366 . S
C595 C597 1.388 . S
C596 C595 1.366 . S
C596 C600 1.385 . S
C597 H572 0.951 . S
C597 C595 1.388 . S
C597 C598 1.366 . S
C598 C597 1.366 . S
C598 C599 1.414 . S
C598 C601 1.499 . S
C599 H573 0.950 . S
C599 C598 1.414 . S
C599 C600 1.374 . S
C600 H574 0.950 . S
C600 C596 1.385 . S
C600 C599 1.374 . S
C601 C598 1.499 . S
C601 C602 1.373 . S
C601 C603 1.389 . S
C602 H575 0.950 . S
C602 C588 1.377 . S
C602 C601 1.373 . S
C603 C587 1.377 . S
C603 C601 1.389 . S
C603 C604 1.524 . S
C604 C603 1.524 . S
C604 C605 1.397 . S
C604 C609 1.363 . S
C605 H576 0.950 . S
C605 C604 1.397 . S
C605 C606 1.334 . S
C606 H577 0.950 . S
C606 C605 1.334 . S
C606 C607 1.287 . S
C607 C606 1.287 . S
C607 C608 1.524 . S
C607 H610 0.999 . S
C608 H578 0.950 . S
C608 C607 1.524 . S
C608 C609 1.415 . S
C609 H579 0.950 . S
C609 C604 1.363 . S
C609 C608 1.415 . S
H610 C607 0.999 . S
H611 C592 0.913 . S
H612 C630 0.951 . S
H613 C632 0.951 . S
H614 C634 0.950 . S
H615 C635 0.950 . S
H616 C637 0.950 . S
H617 C640 0.950 . S
H618 C641 0.950 . S
H619 C643 0.950 . S
H620 C644 0.950 . S
H621 C645 0.951 . S
H622 C647 0.951 . S
H623 C649 0.950 . S
H624 C650 0.950 1_554 S
H625 C652 0.950 . S
H626 C655 0.950 . S
H627 C656 0.950 1_554 S
H628 C658 0.950 . S
H629 C659 0.950 . S
C630 H612 0.951 . S
C630 C631 1.366 . S
C630 C632 1.388 . S
C631 C630 1.366 . S
C631 C635 1.385 . S
C632 H613 0.951 . S
C632 C630 1.388 . S
C632 C633 1.366 . S
C633 C632 1.366 . S
C633 C634 1.414 . S
C633 C636 1.499 . S
C634 H614 0.950 . S
C634 C633 1.414 . S
C634 C635 1.374 . S
C635 H615 0.950 . S
C635 C631 1.385 . S
C635 C634 1.374 . S
C636 C633 1.499 . S
C636 C637 1.373 . S
C636 C638 1.389 . S
C637 H616 0.950 . S
C637 C636 1.373 . S
C637 C653 1.377 . S
C638 C636 1.389 . S
C638 C639 1.524 . S
C638 C652 1.377 . S
C639 C638 1.524 . S
C639 C640 1.397 . S
C639 C644 1.363 . S
C640 H617 0.950 . S
C640 C639 1.397 . S
C640 C641 1.334 . S
C641 H618 0.950 . S
C641 C640 1.334 . S
C641 C642 1.287 . S
C642 C641 1.287 . S
C642 C643 1.524 . S
C642 H661 0.913 . S
C643 H619 0.950 . S
C643 C642 1.524 . S
C643 C644 1.415 . S
C644 H620 0.950 . S
C644 C639 1.363 . S
C644 C643 1.415 . S
C645 H621 0.951 . S
C645 C646 1.366 . S
C645 C647 1.388 . S
C646 C645 1.366 . S
C646 C650 1.385 . S
C647 H622 0.951 . S
C647 C645 1.388 . S
C647 C648 1.366 . S
C648 C647 1.366 . S
C648 C649 1.414 . S
C648 C651 1.499 . S
C649 H623 0.950 . S
C649 C648 1.414 . S
C649 C650 1.374 . S
C650 H624 0.950 1_556 S
C650 C646 1.385 . S
C650 C649 1.374 . S
C651 C648 1.499 . S
C651 C652 1.373 . S
C651 C653 1.389 . S
C652 H625 0.950 . S
C652 C638 1.377 . S
C652 C651 1.373 . S
C653 C637 1.377 . S
C653 C651 1.389 . S
C653 C654 1.524 . S
C654 C653 1.524 . S
C654 C655 1.397 . S
C654 C659 1.363 . S
C655 H626 0.950 . S
C655 C654 1.397 . S
C655 C656 1.334 . S
C656 H627 0.950 1_556 S
C656 C655 1.334 . S
C656 C657 1.287 . S
C657 C656 1.287 . S
C657 C658 1.524 . S
C657 H660 0.999 . S
C658 H628 0.950 . S
C658 C657 1.524 . S
C658 C659 1.415 . S
C659 H629 0.950 . S
C659 C654 1.363 . S
C659 C658 1.415 . S
H660 C657 0.999 . S
H661 C642 0.913 . S
H662 C680 0.951 . S
H663 C682 0.951 . S
H664 C684 0.950 . S
H665 C685 0.950 . S
H666 C687 0.950 . S
H667 C690 0.950 . S
H668 C691 0.950 . S
H669 C693 0.950 . S
H670 C694 0.950 . S
H671 C695 0.951 . S
H672 C697 0.951 . S
H673 C699 0.950 . S
H674 C700 0.950 . S
H675 C702 0.950 . S
H676 C705 0.950 . S
H677 C706 0.950 . S
H678 C708 0.950 . S
H679 C709 0.950 . S
C680 H662 0.951 . S
C680 C681 1.366 . S
C680 C682 1.388 . S
C681 C680 1.366 . S
C681 C685 1.385 . S
C682 H663 0.951 . S
C682 C680 1.388 . S
C682 C683 1.366 . S
C683 C682 1.366 . S
C683 C684 1.414 . S
C683 C686 1.499 . S
C684 H664 0.950 . S
C684 C683 1.414 . S
C684 C685 1.374 . S
C685 H665 0.950 . S
C685 C681 1.385 . S
C685 C684 1.374 . S
C686 C683 1.499 . S
C686 C687 1.373 . S
C686 C688 1.389 . S
C687 H666 0.950 . S
C687 C686 1.373 . S
C687 C703 1.377 . S
C688 C686 1.389 . S
C688 C689 1.524 . S
C688 C702 1.377 . S
C689 C688 1.524 . S
C689 C690 1.397 . S
C689 C694 1.363 . S
C690 H667 0.950 . S
C690 C689 1.397 . S
C690 C691 1.334 . S
C691 H668 0.950 . S
C691 C690 1.334 . S
C691 C692 1.287 . S
C692 C691 1.287 . S
C692 C693 1.524 . S
C692 H711 0.913 . S
C693 H669 0.950 . S
C693 C692 1.524 . S
C693 C694 1.415 . S
C694 H670 0.950 . S
C694 C689 1.363 . S
C694 C693 1.415 . S
C695 H671 0.951 . S
C695 C696 1.366 . S
C695 C697 1.388 . S
C696 C695 1.366 . S
C696 C700 1.385 . S
C697 H672 0.951 . S
C697 C695 1.388 . S
C697 C698 1.366 . S
C698 C697 1.366 . S
C698 C699 1.414 . S
C698 C701 1.499 . S
C699 H673 0.950 . S
C699 C698 1.414 . S
C699 C700 1.374 . S
C700 H674 0.950 . S
C700 C696 1.385 . S
C700 C699 1.374 . S
C701 C698 1.499 . S
C701 C702 1.373 . S
C701 C703 1.389 . S
C702 H675 0.950 . S
C702 C688 1.377 . S
C702 C701 1.373 . S
C703 C687 1.377 . S
C703 C701 1.389 . S
C703 C704 1.524 . S
C704 C703 1.524 . S
C704 C705 1.397 . S
C704 C709 1.363 . S
C705 H676 0.950 . S
C705 C704 1.397 . S
C705 C706 1.334 . S
C706 H677 0.950 . S
C706 C705 1.334 . S
C706 C707 1.287 . S
C707 C706 1.287 . S
C707 C708 1.524 . S
C707 H710 0.999 . S
C708 H678 0.950 . S
C708 C707 1.524 . S
C708 C709 1.415 . S
C709 H679 0.950 . S
C709 C704 1.363 . S
C709 C708 1.415 . S
H710 C707 0.999 . S
H711 C692 0.913 . S
H712 C730 0.951 . S
H713 C732 0.951 . S
H714 C734 0.950 . S
H715 C735 0.950 . S
H716 C737 0.950 . S
H717 C740 0.950 . S
H718 C741 0.950 . S
H719 C743 0.950 . S
H720 C744 0.950 . S
H721 C745 0.951 . S
H722 C747 0.951 . S
H723 C749 0.950 . S
H724 C750 0.950 . S
H725 C752 0.950 . S
H726 C755 0.950 . S
H727 C756 0.941 1_656 S
H728 C758 0.950 . S
H729 C759 0.950 . S
C730 H712 0.951 . S
C730 C731 1.366 . S
C730 C732 1.388 . S
C731 C730 1.366 . S
C731 C735 1.385 . S
C732 H713 0.951 . S
C732 C730 1.388 . S
C732 C733 1.366 . S
C733 C732 1.366 . S
C733 C734 1.414 . S
C733 C736 1.499 . S
C734 H714 0.950 . S
C734 C733 1.414 . S
C734 C735 1.374 . S
C735 H715 0.950 . S
C735 C731 1.385 . S
C735 C734 1.374 . S
C736 C733 1.499 . S
C736 C737 1.373 . S
C736 C738 1.389 . S
C737 H716 0.950 . S
C737 C736 1.373 . S
C737 C753 1.377 . S
C738 C736 1.389 . S
C738 C739 1.524 . S
C738 C752 1.377 . S
C739 C738 1.524 . S
C739 C740 1.397 . S
C739 C744 1.363 . S
C740 H717 0.950 . S
C740 C739 1.397 . S
C740 C741 1.334 . S
C741 H718 0.950 . S
C741 C740 1.334 . S
C741 C742 1.287 . S
C742 C741 1.287 . S
C742 C743 1.524 . S
C742 H761 0.913 . S
C743 H719 0.950 . S
C743 C742 1.524 . S
C743 C744 1.415 . S
C744 H720 0.950 . S
C744 C739 1.363 . S
C744 C743 1.415 . S
C745 H721 0.951 . S
C745 C746 1.366 . S
C745 C747 1.388 . S
C746 C745 1.366 . S
C746 C750 1.385 . S
C747 H722 0.951 . S
C747 C745 1.388 . S
C747 C748 1.366 . S
C748 C747 1.366 . S
C748 C749 1.414 . S
C748 C751 1.499 . S
C749 H723 0.950 . S
C749 C748 1.414 . S
C749 C750 1.374 . S
C750 H724 0.950 . S
C750 C746 1.385 . S
C750 C749 1.374 . S
C751 C748 1.499 . S
C751 C752 1.373 . S
C751 C753 1.389 . S
C752 H725 0.950 . S
C752 C738 1.377 . S
C752 C751 1.373 . S
C753 C737 1.377 . S
C753 C751 1.389 . S
C753 C754 1.524 . S
C754 C753 1.524 . S
C754 C755 1.397 . S
C754 C759 1.363 . S
C755 H726 0.950 . S
C755 C754 1.397 . S
C755 C756 1.334 . S
C756 H727 0.941 1_454 S
C756 C755 1.334 . S
C756 C757 1.287 1_455 S
C757 C756 1.287 1_655 S
C757 C758 1.524 . S
C757 H760 0.999 . S
C758 H728 0.950 . S
C758 C757 1.524 . S
C758 C759 1.415 1_655 S
C759 H729 0.950 . S
C759 C754 1.363 . S
C759 C758 1.415 1_455 S
H760 C757 0.999 . S
H761 C742 0.913 . S
H762 C780 0.951 . S
H763 C782 0.951 . S
H764 C784 0.950 . S
H765 C785 0.950 . S
H766 C787 0.950 . S
H767 C790 0.950 . S
H768 C791 0.940 1_556 S
H769 C793 0.950 . S
H770 C794 0.950 . S
H771 C795 0.951 . S
H772 C797 0.951 . S
H773 C799 0.950 . S
H774 C800 0.950 . S
H775 C802 0.950 1_554 S
H776 C805 0.950 . S
H777 C806 0.950 . S
H778 C808 0.950 . S
H779 C809 0.950 . S
C780 H762 0.951 . S
C780 C781 1.366 . S
C780 C782 1.388 . S
C781 C780 1.366 . S
C781 C785 1.385 . S
C782 H763 0.951 . S
C782 C780 1.388 . S
C782 C783 1.366 . S
C783 C782 1.366 . S
C783 C784 1.414 . S
C783 C786 1.499 . S
C784 H764 0.950 . S
C784 C783 1.414 . S
C784 C785 1.374 . S
C785 H765 0.950 . S
C785 C781 1.385 . S
C785 C784 1.374 . S
C786 C783 1.499 . S
C786 C787 1.373 . S
C786 C788 1.389 . S
C787 H766 0.950 . S
C787 C786 1.373 . S
C787 C803 1.377 . S
C788 C786 1.389 . S
C788 C789 1.524 . S
C788 C802 1.377 . S
C789 C788 1.524 . S
C789 C790 1.397 . S
C789 C794 1.363 1_556 S
C790 H767 0.950 . S
C790 C789 1.397 . S
C790 C791 1.323 1_556 S
C791 H768 0.940 1_554 S
C791 C790 1.323 1_554 S
C791 C792 1.309 . S
C792 C791 1.309 . S
C792 C793 1.524 . S
C792 H811 0.913 . S
C793 H769 0.950 . S
C793 C792 1.524 . S
C793 C794 1.415 . S
C794 H770 0.950 . S
C794 C789 1.363 1_554 S
C794 C793 1.415 . S
C795 H771 0.951 . S
C795 C796 1.366 1_556 S
C795 C797 1.388 . S
C796 C795 1.366 1_554 S
C796 C800 1.385 . S
C797 H772 0.951 . S
C797 C795 1.388 . S
C797 C798 1.366 . S
C798 C797 1.366 . S
C798 C799 1.414 1_556 S
C798 C801 1.499 . S
C799 H773 0.950 . S
C799 C798 1.414 1_554 S
C799 C800 1.374 . S
C800 H774 0.950 . S
C800 C796 1.385 . S
C800 C799 1.374 . S
C801 C798 1.499 . S
C801 C802 1.373 . S
C801 C803 1.389 . S
C802 H775 0.950 1_556 S
C802 C788 1.377 . S
C802 C801 1.373 . S
C803 C787 1.377 . S
C803 C801 1.389 . S
C803 C804 1.524 . S
C804 C803 1.524 . S
C804 C805 1.397 . S
C804 C809 1.363 . S
C805 H776 0.950 . S
C805 C804 1.397 . S
C805 C806 1.334 . S
C806 H777 0.950 . S
C806 C805 1.334 . S
C806 C807 1.287 . S
C807 C806 1.287 . S
C807 C808 1.524 . S
C807 H810 0.999 . S
C808 H778 0.950 . S
C808 C807 1.524 . S
C808 C809 1.415 . S
C809 H779 0.950 . S
C809 C804 1.363 . S
C809 C808 1.415 . S
H810 C807 0.999 . S
H811 C792 0.913 . S
H812 C830 0.951 . S
H813 C832 0.951 . S
H814 C834 0.950 . S
H815 C835 0.950 . S
H816 C837 0.950 . S
H817 C840 0.950 . S
H818 C841 0.950 . S
H819 C843 0.950 . S
H820 C844 0.950 . S
H821 C845 0.951 1_455 S
H822 C847 0.951 . S
H823 C849 0.950 . S
H824 C850 0.950 . S
H825 C852 0.950 . S
H826 C855 0.950 . S
H827 C856 0.950 . S
H828 C858 0.950 . S
H829 C859 0.950 . S
C830 H812 0.951 . S
C830 C831 1.366 . S
C830 C832 1.388 . S
C831 C830 1.366 . S
C831 C835 1.385 . S
C832 H813 0.951 . S
C832 C830 1.388 . S
C832 C833 1.366 . S
C833 C832 1.366 . S
C833 C834 1.414 . S
C833 C836 1.499 . S
C834 H814 0.950 . S
C834 C833 1.414 . S
C834 C835 1.374 . S
C835 H815 0.950 . S
C835 C831 1.385 . S
C835 C834 1.374 . S
C836 C833 1.499 . S
C836 C837 1.373 . S
C836 C838 1.389 . S
C837 H816 0.950 . S
C837 C836 1.373 . S
C837 C853 1.377 . S
C838 C836 1.389 . S
C838 C839 1.524 . S
C838 C852 1.377 . S
C839 C838 1.524 . S
C839 C840 1.397 . S
C839 C844 1.363 . S
C840 H817 0.950 . S
C840 C839 1.397 . S
C840 C841 1.334 . S
C841 H818 0.950 . S
C841 C840 1.334 . S
C841 C842 1.287 . S
C842 C841 1.287 . S
C842 C843 1.524 . S
C842 H861 0.913 . S
C843 H819 0.950 . S
C843 C842 1.524 . S
C843 C844 1.415 . S
C844 H820 0.950 . S
C844 C839 1.363 . S
C844 C843 1.415 . S
C845 H821 0.951 1_655 S
C845 C846 1.366 . S
C845 C847 1.388 . S
C846 C845 1.366 . S
C846 C850 1.385 . S
C847 H822 0.951 . S
C847 C845 1.388 . S
C847 C848 1.366 . S
C848 C847 1.366 . S
C848 C849 1.414 . S
C848 C851 1.499 . S
C849 H823 0.950 . S
C849 C848 1.414 . S
C849 C850 1.374 . S
C850 H824 0.950 . S
C850 C846 1.385 . S
C850 C849 1.374 . S
C851 C848 1.499 . S
C851 C852 1.373 . S
C851 C853 1.389 . S
C852 H825 0.950 . S
C852 C838 1.377 . S
C852 C851 1.373 . S
C853 C837 1.377 . S
C853 C851 1.389 . S
C853 C854 1.524 . S
C854 C853 1.524 . S
C854 C855 1.397 . S
C854 C859 1.363 . S
C855 H826 0.950 . S
C855 C854 1.397 . S
C855 C856 1.334 . S
C856 H827 0.950 . S
C856 C855 1.334 . S
C856 C857 1.287 1_655 S
C857 C856 1.287 1_455 S
C857 C858 1.524 . S
C857 H860 0.999 . S
C858 H828 0.950 . S
C858 C857 1.524 . S
C858 C859 1.415 1_455 S
C859 H829 0.950 . S
C859 C854 1.363 . S
C859 C858 1.415 1_655 S
H860 C857 0.999 . S
H861 C842 0.913 . S
H862 C880 0.951 . S
H863 C882 0.951 . S
H864 C884 0.950 . S
H865 C885 0.950 . S
H866 C887 0.950 . S
H867 C890 0.950 . S
H868 C891 0.950 . S
H869 C893 0.950 . S
H870 C894 0.950 . S
H871 C895 0.951 . S
H872 C897 0.951 . S
H873 C899 0.950 . S
H874 C900 0.950 . S
H875 C902 0.950 . S
H876 C905 0.950 . S
H877 C906 0.950 . S
H878 C908 0.950 . S
H879 C909 0.950 . S
C880 H862 0.951 . S
C880 C881 1.366 . S
C880 C882 1.388 . S
C881 C880 1.366 . S
C881 C885 1.385 . S
C882 H863 0.951 . S
C882 C880 1.388 . S
C882 C883 1.366 . S
C883 C882 1.366 . S
C883 C884 1.414 . S
C883 C886 1.499 . S
C884 H864 0.950 . S
C884 C883 1.414 . S
C884 C885 1.374 . S
C885 H865 0.950 . S
C885 C881 1.385 . S
C885 C884 1.374 . S
C886 C883 1.499 . S
C886 C887 1.373 . S
C886 C888 1.389 . S
C887 H866 0.950 . S
C887 C886 1.373 . S
C887 C903 1.377 . S
C888 C886 1.389 . S
C888 C889 1.524 . S
C888 C902 1.377 . S
C889 C888 1.524 . S
C889 C890 1.397 . S
C889 C894 1.363 . S
C890 H867 0.950 . S
C890 C889 1.397 . S
C890 C891 1.334 . S
C891 H868 0.950 . S
C891 C890 1.334 . S
C891 C892 1.287 . S
C892 C891 1.287 . S
C892 C893 1.524 . S
C892 H911 0.913 . S
C893 H869 0.950 . S
C893 C892 1.524 . S
C893 C894 1.415 . S
C894 H870 0.950 . S
C894 C889 1.363 . S
C894 C893 1.415 . S
C895 H871 0.951 . S
C895 C896 1.366 . S
C895 C897 1.388 . S
C896 C895 1.366 . S
C896 C900 1.385 . S
C897 H872 0.951 . S
C897 C895 1.388 . S
C897 C898 1.366 . S
C898 C897 1.366 . S
C898 C899 1.414 . S
C898 C901 1.499 . S
C899 H873 0.950 . S
C899 C898 1.414 . S
C899 C900 1.374 . S
C900 H874 0.950 . S
C900 C896 1.385 . S
C900 C899 1.374 . S
C901 C898 1.499 . S
C901 C902 1.373 . S
C901 C903 1.389 . S
C902 H875 0.950 . S
C902 C888 1.377 . S
C902 C901 1.373 . S
C903 C887 1.377 . S
C903 C901 1.389 . S
C903 C904 1.524 . S
C904 C903 1.524 . S
C904 C905 1.397 . S
C904 C909 1.363 . S
C905 H876 0.950 . S
C905 C904 1.397 . S
C905 C906 1.334 . S
C906 H877 0.950 . S
C906 C905 1.334 . S
C906 C907 1.287 . S
C907 C906 1.287 . S
C907 C908 1.524 . S
C907 H910 0.999 . S
C908 H878 0.950 . S
C908 C907 1.524 . S
C908 C909 1.415 . S
C909 H879 0.950 . S
C909 C904 1.363 . S
C909 C908 1.415 . S
H910 C907 0.999 . S
H911 C892 0.913 . S
H912 C930 0.951 . S
H913 C932 0.951 . S
H914 C934 0.950 . S
H915 C935 0.950 . S
H916 C937 0.950 . S
H917 C940 0.950 . S
H918 C941 0.950 . S
H919 C943 0.950 . S
H920 C944 0.950 . S
H921 C945 0.951 . S
H922 C947 0.951 . S
H923 C949 0.950 . S
H924 C950 0.950 . S
H925 C952 0.950 . S
H926 C955 0.950 . S
H927 C956 0.950 1_545 S
H928 C958 0.950 . S
H929 C959 0.950 1_655 S
C930 H912 0.951 . S
C930 C931 1.366 . S
C930 C932 1.388 . S
C931 C930 1.366 . S
C931 C935 1.385 . S
C932 H913 0.951 . S
C932 C930 1.388 . S
C932 C933 1.366 . S
C933 C932 1.366 . S
C933 C934 1.414 . S
C933 C936 1.499 . S
C934 H914 0.950 . S
C934 C933 1.414 . S
C934 C935 1.374 . S
C935 H915 0.950 . S
C935 C931 1.385 . S
C935 C934 1.374 . S
C936 C933 1.499 . S
C936 C937 1.373 . S
C936 C938 1.389 . S
C937 H916 0.950 . S
C937 C936 1.373 . S
C937 C953 1.377 . S
C938 C936 1.389 . S
C938 C939 1.524 . S
C938 C952 1.377 . S
C939 C938 1.524 . S
C939 C940 1.397 . S
C939 C944 1.363 . S
C940 H917 0.950 . S
C940 C939 1.397 . S
C940 C941 1.334 . S
C941 H918 0.950 . S
C941 C940 1.334 . S
C941 C942 1.287 . S
C942 C941 1.287 . S
C942 C943 1.524 . S
C942 H961 0.913 . S
C943 H919 0.950 . S
C943 C942 1.524 . S
C943 C944 1.415 . S
C944 H920 0.950 . S
C944 C939 1.363 . S
C944 C943 1.415 . S
C945 H921 0.951 . S
C945 C946 1.366 . S
C945 C947 1.388 . S
C946 C945 1.366 . S
C946 C950 1.385 . S
C947 H922 0.951 . S
C947 C945 1.388 . S
C947 C948 1.366 . S
C948 C947 1.366 . S
C948 C949 1.414 . S
C948 C951 1.499 . S
C949 H923 0.950 . S
C949 C948 1.414 . S
C949 C950 1.374 . S
C950 H924 0.950 . S
C950 C946 1.385 . S
C950 C949 1.374 . S
C951 C948 1.499 . S
C951 C952 1.373 . S
C951 C953 1.389 . S
C952 H925 0.950 . S
C952 C938 1.377 . S
C952 C951 1.373 . S
C953 C937 1.377 . S
C953 C951 1.389 . S
C953 C954 1.524 . S
C954 C953 1.524 . S
C954 C955 1.397 . S
C954 C959 1.363 1_655 S
C955 H926 0.950 . S
C955 C954 1.397 . S
C955 C956 1.334 1_655 S
C956 H927 0.950 1_565 S
C956 C955 1.334 1_455 S
C956 C957 1.287 . S
C957 C956 1.287 . S
C957 C958 1.524 . S
C957 H960 0.999 . S
C958 H928 0.950 . S
C958 C957 1.524 . S
C958 C959 1.415 . S
C959 H929 0.950 1_455 S
C959 C954 1.363 1_455 S
C959 C958 1.415 . S
H960 C957 0.999 . S
H961 C942 0.913 . S
H962 C980 0.951 . S
H963 C982 0.951 . S
H964 C984 0.950 . S
H965 C985 0.950 . S
H966 C987 0.950 . S
H967 C990 0.950 . S
H968 C991 0.950 . S
H969 C993 0.950 . S
H970 C994 0.950 . S
H971 C995 0.951 . S
H972 C997 0.951 . S
H973 C999 0.950 . S
H974 C1000 0.950 . S
H975 C1002 0.950 . S
H976 C1005 0.950 . S
H977 C1006 0.950 . S
H978 C1008 0.950 . S
H979 C1009 0.950 . S
C980 H962 0.951 . S
C980 C981 1.366 . S
C980 C982 1.388 . S
C981 C980 1.366 . S
C981 C985 1.385 . S
C982 H963 0.951 . S
C982 C980 1.388 . S
C982 C983 1.366 . S
C983 C982 1.366 . S
C983 C984 1.414 . S
C983 C986 1.499 . S
C984 H964 0.950 . S
C984 C983 1.414 . S
C984 C985 1.374 . S
C985 H965 0.950 . S
C985 C981 1.385 . S
C985 C984 1.374 . S
C986 C983 1.499 . S
C986 C987 1.373 . S
C986 C988 1.389 . S
C987 H966 0.950 . S
C987 C986 1.373 . S
C987 C1003 1.377 . S
C988 C986 1.389 . S
C988 C989 1.524 . S
C988 C1002 1.377 . S
C989 C988 1.524 . S
C989 C990 1.397 . S
C989 C994 1.363 . S
C990 H967 0.950 . S
C990 C989 1.397 . S
C990 C991 1.334 . S
C991 H968 0.950 . S
C991 C990 1.334 . S
C991 C992 1.287 . S
C992 C991 1.287 . S
C992 C993 1.524 . S
C992 H1011 0.913 . S
C993 H969 0.950 . S
C993 C992 1.524 . S
C993 C994 1.415 . S
C994 H970 0.950 . S
C994 C989 1.363 . S
C994 C993 1.415 . S
C995 H971 0.951 . S
C995 C996 1.366 . S
C995 C997 1.388 . S
C996 C995 1.366 . S
C996 C1000 1.385 . S
C997 H972 0.951 . S
C997 C995 1.388 . S
C997 C998 1.366 . S
C998 C997 1.366 . S
C998 C999 1.414 . S
C998 C1001 1.499 . S
C999 H973 0.950 . S
C999 C998 1.414 . S
C999 C1000 1.374 . S
C1000 H974 0.950 . S
C1000 C996 1.385 . S
C1000 C999 1.374 . S
C1001 C998 1.499 . S
C1001 C1002 1.373 . S
C1001 C1003 1.389 . S
C1002 H975 0.950 . S
C1002 C988 1.377 . S
C1002 C1001 1.373 . S
C1003 C987 1.377 . S
C1003 C1001 1.389 . S
C1003 C1004 1.524 . S
C1004 C1003 1.524 . S
C1004 C1005 1.397 . S
C1004 C1009 1.363 . S
C1005 H976 0.950 . S
C1005 C1004 1.397 . S
C1005 C1006 1.334 . S
C1006 H977 0.950 . S
C1006 C1005 1.334 . S
C1006 C1007 1.287 . S
C1007 C1006 1.287 . S
C1007 C1008 1.524 . S
C1007 H1010 0.999 . S
C1008 H978 0.950 . S
C1008 C1007 1.524 . S
C1008 C1009 1.415 . S
C1009 H979 0.950 . S
C1009 C1004 1.363 . S
C1009 C1008 1.415 . S
H1010 C1007 0.999 . S
H1011 C992 0.913 . S
H1012 C1030 0.951 . S
H1013 C1032 0.951 . S
H1014 C1034 0.950 . S
H1015 C1035 0.950 . S
H1016 C1037 0.950 . S
H1017 C1040 0.950 . S
H1018 C1041 0.950 . S
H1019 C1043 0.950 . S
H1020 C1044 0.950 . S
H1021 C1045 0.951 . S
H1022 C1047 0.951 . S
H1023 C1049 0.950 . S
H1024 C1050 0.950 . S
H1025 C1052 0.950 . S
H1026 C1055 0.950 . S
H1027 C1056 0.950 . S
H1028 C1058 0.950 . S
H1029 C1059 0.950 . S
C1030 H1012 0.951 . S
C1030 C1031 1.366 . S
C1030 C1032 1.388 . S
C1031 C1030 1.366 . S
C1031 C1035 1.385 . S
C1032 H1013 0.951 . S
C1032 C1030 1.388 . S
C1032 C1033 1.366 . S
C1033 C1032 1.366 . S
C1033 C1034 1.414 . S
C1033 C1036 1.499 . S
C1034 H1014 0.950 . S
C1034 C1033 1.414 . S
C1034 C1035 1.374 . S
C1035 H1015 0.950 . S
C1035 C1031 1.385 . S
C1035 C1034 1.374 . S
C1036 C1033 1.499 . S
C1036 C1037 1.373 . S
C1036 C1038 1.389 . S
C1037 H1016 0.950 . S
C1037 C1036 1.373 . S
C1037 C1053 1.377 . S
C1038 C1036 1.389 . S
C1038 C1039 1.524 . S
C1038 C1052 1.377 . S
C1039 C1038 1.524 . S
C1039 C1040 1.397 . S
C1039 C1044 1.363 . S
C1040 H1017 0.950 . S
C1040 C1039 1.397 . S
C1040 C1041 1.334 . S
C1041 H1018 0.950 . S
C1041 C1040 1.334 . S
C1041 C1042 1.287 . S
C1042 C1041 1.287 . S
C1042 C1043 1.524 . S
C1042 H1061 0.913 . S
C1043 H1019 0.950 . S
C1043 C1042 1.524 . S
C1043 C1044 1.415 . S
C1044 H1020 0.950 . S
C1044 C1039 1.363 . S
C1044 C1043 1.415 . S
C1045 H1021 0.951 . S
C1045 C1046 1.366 . S
C1045 C1047 1.388 . S
C1046 C1045 1.366 . S
C1046 C1050 1.385 . S
C1047 H1022 0.951 . S
C1047 C1045 1.388 . S
C1047 C1048 1.366 . S
C1048 C1047 1.366 . S
C1048 C1049 1.414 . S
C1048 C1051 1.499 . S
C1049 H1023 0.950 . S
C1049 C1048 1.414 . S
C1049 C1050 1.374 . S
C1050 H1024 0.950 . S
C1050 C1046 1.385 . S
C1050 C1049 1.374 . S
C1051 C1048 1.499 . S
C1051 C1052 1.373 . S
C1051 C1053 1.389 . S
C1052 H1025 0.950 . S
C1052 C1038 1.377 . S
C1052 C1051 1.373 . S
C1053 C1037 1.377 . S
C1053 C1051 1.389 . S
C1053 C1054 1.524 . S
C1054 C1053 1.524 . S
C1054 C1055 1.397 . S
C1054 C1059 1.363 . S
C1055 H1026 0.950 . S
C1055 C1054 1.397 . S
C1055 C1056 1.334 . S
C1056 H1027 0.950 . S
C1056 C1055 1.334 . S
C1056 C1057 1.287 . S
C1057 C1056 1.287 . S
C1057 C1058 1.524 . S
C1057 H1060 0.999 . S
C1058 H1028 0.950 . S
C1058 C1057 1.524 . S
C1058 C1059 1.415 . S
C1059 H1029 0.950 . S
C1059 C1054 1.363 . S
C1059 C1058 1.415 . S
H1060 C1057 0.999 . S
H1061 C1042 0.913 . S
H1062 C1080 0.951 . S
H1063 C1082 0.951 . S
H1064 C1084 0.950 . S
H1065 C1085 0.950 . S
H1066 C1087 0.950 . S
H1067 C1090 0.950 . S
H1068 C1091 0.950 . S
H1069 C1093 0.950 . S
H1070 C1094 0.950 . S
H1071 C1095 0.951 . S
H1072 C1097 0.951 . S
H1073 C1099 0.950 . S
H1074 C1100 0.950 . S
H1075 C1102 0.950 . S
H1076 C1105 0.950 . S
H1077 C1106 0.950 . S
H1078 C1108 0.950 . S
H1079 C1109 0.950 . S
C1080 H1062 0.951 . S
C1080 C1081 1.366 . S
C1080 C1082 1.388 . S
C1081 C1080 1.366 . S
C1081 C1085 1.385 . S
C1082 H1063 0.951 . S
C1082 C1080 1.388 . S
C1082 C1083 1.366 . S
C1083 C1082 1.366 . S
C1083 C1084 1.414 . S
C1083 C1086 1.499 . S
C1084 H1064 0.950 . S
C1084 C1083 1.414 . S
C1084 C1085 1.374 . S
C1085 H1065 0.950 . S
C1085 C1081 1.385 . S
C1085 C1084 1.374 . S
C1086 C1083 1.499 . S
C1086 C1087 1.373 . S
C1086 C1088 1.389 . S
C1087 H1066 0.950 . S
C1087 C1086 1.373 . S
C1087 C1103 1.377 . S
C1088 C1086 1.389 . S
C1088 C1089 1.524 . S
C1088 C1102 1.377 . S
C1089 C1088 1.524 . S
C1089 C1090 1.397 . S
C1089 C1094 1.363 . S
C1090 H1067 0.950 . S
C1090 C1089 1.397 . S
C1090 C1091 1.334 . S
C1091 H1068 0.950 . S
C1091 C1090 1.334 . S
C1091 C1092 1.287 . S
C1092 C1091 1.287 . S
C1092 C1093 1.524 . S
C1092 H1111 0.913 . S
C1093 H1069 0.950 . S
C1093 C1092 1.524 . S
C1093 C1094 1.415 . S
C1094 H1070 0.950 . S
C1094 C1089 1.363 . S
C1094 C1093 1.415 . S
C1095 H1071 0.951 . S
C1095 C1096 1.366 . S
C1095 C1097 1.388 . S
C1096 C1095 1.366 . S
C1096 C1100 1.385 . S
C1097 H1072 0.951 . S
C1097 C1095 1.388 . S
C1097 C1098 1.366 . S
C1098 C1097 1.366 . S
C1098 C1099 1.414 . S
C1098 C1101 1.499 . S
C1099 H1073 0.950 . S
C1099 C1098 1.414 . S
C1099 C1100 1.374 . S
C1100 H1074 0.950 . S
C1100 C1096 1.385 . S
C1100 C1099 1.374 . S
C1101 C1098 1.499 . S
C1101 C1102 1.373 . S
C1101 C1103 1.389 . S
C1102 H1075 0.950 . S
C1102 C1088 1.377 . S
C1102 C1101 1.373 . S
C1103 C1087 1.377 . S
C1103 C1101 1.389 . S
C1103 C1104 1.524 . S
C1104 C1103 1.524 . S
C1104 C1105 1.397 . S
C1104 C1109 1.363 . S
C1105 H1076 0.950 . S
C1105 C1104 1.397 . S
C1105 C1106 1.334 . S
C1106 H1077 0.950 . S
C1106 C1105 1.334 . S
C1106 C1107 1.287 . S
C1107 C1106 1.287 . S
C1107 C1108 1.524 . S
C1107 H1110 0.999 . S
C1108 H1078 0.950 . S
C1108 C1107 1.524 . S
C1108 C1109 1.415 . S
C1109 H1079 0.950 . S
C1109 C1104 1.363 . S
C1109 C1108 1.415 . S
H1110 C1107 0.999 . S
H1111 C1092 0.913 . S
H1112 C1130 0.951 . S
H1113 C1132 0.951 . S
H1114 C1134 0.950 1_554 S
H1115 C1135 0.950 . S
H1116 C1137 0.950 . S
H1117 C1140 0.950 . S
H1118 C1141 0.950 1_565 S
H1119 C1143 0.950 . S
H1120 C1144 0.950 . S
H1121 C1145 0.951 . S
H1122 C1147 0.951 . S
H1123 C1149 0.950 1_546 S
H1124 C1150 0.950 . S
H1125 C1152 0.950 . S
H1126 C1155 0.950 . S
H1127 C1156 0.950 . S
H1128 C1158 0.950 . S
H1129 C1159 0.950 . S
C1130 H1112 0.951 . S
C1130 C1131 1.366 . S
C1130 C1132 1.388 . S
C1131 C1130 1.366 . S
C1131 C1135 1.385 . S
C1132 H1113 0.951 . S
C1132 C1130 1.388 . S
C1132 C1133 1.366 . S
C1133 C1132 1.366 . S
C1133 C1134 1.414 . S
C1133 C1136 1.499 . S
C1134 H1114 0.950 1_556 S
C1134 C1133 1.414 . S
C1134 C1135 1.374 . S
C1135 H1115 0.950 . S
C1135 C1131 1.385 . S
C1135 C1134 1.374 . S
C1136 C1133 1.499 . S
C1136 C1137 1.373 . S
C1136 C1138 1.389 . S
C1137 H1116 0.950 . S
C1137 C1136 1.373 . S
C1137 C1153 1.377 1_556 S
C1138 C1136 1.389 . S
C1138 C1139 1.524 . S
C1138 C1152 1.377 1_556 S
C1139 C1138 1.524 . S
C1139 C1140 1.397 1_556 S
C1139 C1144 1.363 1_565 S
C1140 H1117 0.950 . S
C1140 C1139 1.397 1_554 S
C1140 C1141 1.334 1_565 S
C1141 H1118 0.950 1_545 S
C1141 C1140 1.334 1_545 S
C1141 C1142 1.287 . S
C1142 C1141 1.287 . S
C1142 C1143 1.524 1_554 S
C1142 H1161 0.913 . S
C1143 H1119 0.950 . S
C1143 C1142 1.524 1_556 S
C1143 C1144 1.415 . S
C1144 H1120 0.950 . S
C1144 C1139 1.363 1_545 S
C1144 C1143 1.415 . S
C1145 H1121 0.951 . S
C1145 C1146 1.366 . S
C1145 C1147 1.388 . S
C1146 C1145 1.366 . S
C1146 C1150 1.385 1_565 S
C1147 H1122 0.951 . S
C1147 C1145 1.388 . S
C1147 C1148 1.366 . S
C1148 C1147 1.366 . S
C1148 C1149 1.414 . S
C1148 C1151 1.499 . S
C1149 H1123 0.950 1_564 S
C1149 C1148 1.414 . S
C1149 C1150 1.374 1_565 S
C1150 H1124 0.950 . S
C1150 C1146 1.385 1_545 S
C1150 C1149 1.374 1_545 S
C1151 C1148 1.499 . S
C1151 C1152 1.373 . S
C1151 C1153 1.389 . S
C1152 H1125 0.950 . S
C1152 C1138 1.377 1_554 S
C1152 C1151 1.373 . S
C1153 C1137 1.377 1_554 S
C1153 C1151 1.389 . S
C1153 C1154 1.524 . S
C1154 C1153 1.524 . S
C1154 C1155 1.397 1_554 S
C1154 C1159 1.363 . S
C1155 H1126 0.950 . S
C1155 C1154 1.397 1_556 S
C1155 C1156 1.334 . S
C1156 H1127 0.950 . S
C1156 C1155 1.334 . S
C1156 C1157 1.287 . S
C1157 C1156 1.287 . S
C1157 C1158 1.524 1_556 S
C1157 H1160 0.999 . S
C1158 H1128 0.950 . S
C1158 C1157 1.524 1_554 S
C1158 C1159 1.415 . S
C1159 H1129 0.950 . S
C1159 C1154 1.363 . S
C1159 C1158 1.415 . S
H1160 C1157 0.999 . S
H1161 C1142 0.913 . S
H1162 C1180 0.951 . S
H1163 C1182 0.951 . S
H1164 C1184 0.950 . S
H1165 C1185 0.950 . S
H1166 C1187 0.950 . S
H1167 C1190 0.950 . S
H1168 C1191 0.950 . S
H1169 C1193 0.950 . S
H1170 C1194 0.950 . S
H1171 C1195 0.951 . S
H1172 C1197 0.951 . S
H1173 C1199 0.950 . S
H1174 C1200 0.950 . S
H1175 C1202 0.950 . S
H1176 C1205 0.950 . S
H1177 C1206 0.950 . S
H1178 C1208 0.950 . S
H1179 C1209 0.950 . S
C1180 H1162 0.951 . S
C1180 C1181 1.366 . S
C1180 C1182 1.388 . S
C1181 C1180 1.366 . S
C1181 C1185 1.385 . S
C1182 H1163 0.951 . S
C1182 C1180 1.388 . S
C1182 C1183 1.366 . S
C1183 C1182 1.366 . S
C1183 C1184 1.414 . S
C1183 C1186 1.499 . S
C1184 H1164 0.950 . S
C1184 C1183 1.414 . S
C1184 C1185 1.374 . S
C1185 H1165 0.950 . S
C1185 C1181 1.385 . S
C1185 C1184 1.374 . S
C1186 C1183 1.499 . S
C1186 C1187 1.373 . S
C1186 C1188 1.389 . S
C1187 H1166 0.950 . S
C1187 C1186 1.373 . S
C1187 C1203 1.377 . S
C1188 C1186 1.389 . S
C1188 C1189 1.524 . S
C1188 C1202 1.377 . S
C1189 C1188 1.524 . S
C1189 C1190 1.397 . S
C1189 C1194 1.363 . S
C1190 H1167 0.950 . S
C1190 C1189 1.397 . S
C1190 C1191 1.334 . S
C1191 H1168 0.950 . S
C1191 C1190 1.334 . S
C1191 C1192 1.287 . S
C1192 C1191 1.287 . S
C1192 C1193 1.524 . S
C1192 H1211 0.913 . S
C1193 H1169 0.950 . S
C1193 C1192 1.524 . S
C1193 C1194 1.415 . S
C1194 H1170 0.950 . S
C1194 C1189 1.363 . S
C1194 C1193 1.415 . S
C1195 H1171 0.951 . S
C1195 C1196 1.366 . S
C1195 C1197 1.388 . S
C1196 C1195 1.366 . S
C1196 C1200 1.385 . S
C1197 H1172 0.951 . S
C1197 C1195 1.388 . S
C1197 C1198 1.366 . S
C1198 C1197 1.366 . S
C1198 C1199 1.414 . S
C1198 C1201 1.499 . S
C1199 H1173 0.950 . S
C1199 C1198 1.414 . S
C1199 C1200 1.374 . S
C1200 H1174 0.950 . S
C1200 C1196 1.385 . S
C1200 C1199 1.374 . S
C1201 C1198 1.499 . S
C1201 C1202 1.373 . S
C1201 C1203 1.389 . S
C1202 H1175 0.950 . S
C1202 C1188 1.377 . S
C1202 C1201 1.373 . S
C1203 C1187 1.377 . S
C1203 C1201 1.389 . S
C1203 C1204 1.524 . S
C1204 C1203 1.524 . S
C1204 C1205 1.397 . S
C1204 C1209 1.363 . S
C1205 H1176 0.950 . S
C1205 C1204 1.397 . S
C1205 C1206 1.334 . S
C1206 H1177 0.950 . S
C1206 C1205 1.334 . S
C1206 C1207 1.287 . S
C1207 C1206 1.287 . S
C1207 C1208 1.524 . S
C1207 H1210 0.999 . S
C1208 H1178 0.950 . S
C1208 C1207 1.524 . S
C1208 C1209 1.415 . S
C1209 H1179 0.950 . S
C1209 C1204 1.363 . S
C1209 C1208 1.415 . S
H1210 C1207 0.999 . S
H1211 C1192 0.913 . S
H1212 C1230 0.951 . S
H1213 C1232 0.951 . S
H1214 C1234 0.950 . S
H1215 C1235 0.950 . S
H1216 C1237 0.950 . S
H1217 C1240 0.950 . S
H1218 C1241 0.950 . S
H1219 C1243 0.950 . S
H1220 C1244 0.950 . S
H1221 C1245 0.951 . S
H1222 C1247 0.951 . S
H1223 C1249 0.950 . S
H1224 C1250 0.950 . S
H1225 C1252 0.950 . S
H1226 C1255 0.950 . S
H1227 C1256 0.950 . S
H1228 C1258 0.950 . S
H1229 C1259 0.950 . S
C1230 H1212 0.951 . S
C1230 C1231 1.366 . S
C1230 C1232 1.388 . S
C1231 C1230 1.366 . S
C1231 C1235 1.385 . S
C1232 H1213 0.951 . S
C1232 C1230 1.388 . S
C1232 C1233 1.366 . S
C1233 C1232 1.366 . S
C1233 C1234 1.414 . S
C1233 C1236 1.499 . S
C1234 H1214 0.950 . S
C1234 C1233 1.414 . S
C1234 C1235 1.374 . S
C1235 H1215 0.950 . S
C1235 C1231 1.385 . S
C1235 C1234 1.374 . S
C1236 C1233 1.499 . S
C1236 C1237 1.373 . S
C1236 C1238 1.389 . S
C1237 H1216 0.950 . S
C1237 C1236 1.373 . S
C1237 C1253 1.377 . S
C1238 C1236 1.389 . S
C1238 C1239 1.524 . S
C1238 C1252 1.377 . S
C1239 C1238 1.524 . S
C1239 C1240 1.397 . S
C1239 C1244 1.363 . S
C1240 H1217 0.950 . S
C1240 C1239 1.397 . S
C1240 C1241 1.334 . S
C1241 H1218 0.950 . S
C1241 C1240 1.334 . S
C1241 C1242 1.287 . S
C1242 C1241 1.287 . S
C1242 C1243 1.524 . S
C1242 H1261 0.913 . S
C1243 H1219 0.950 . S
C1243 C1242 1.524 . S
C1243 C1244 1.415 . S
C1244 H1220 0.950 . S
C1244 C1239 1.363 . S
C1244 C1243 1.415 . S
C1245 H1221 0.951 . S
C1245 C1246 1.366 . S
C1245 C1247 1.388 . S
C1246 C1245 1.366 . S
C1246 C1250 1.385 . S
C1247 H1222 0.951 . S
C1247 C1245 1.388 . S
C1247 C1248 1.366 . S
C1248 C1247 1.366 . S
C1248 C1249 1.414 . S
C1248 C1251 1.499 . S
C1249 H1223 0.950 . S
C1249 C1248 1.414 . S
C1249 C1250 1.374 . S
C1250 H1224 0.950 . S
C1250 C1246 1.385 . S
C1250 C1249 1.374 . S
C1251 C1248 1.499 . S
C1251 C1252 1.373 . S
C1251 C1253 1.389 . S
C1252 H1225 0.950 . S
C1252 C1238 1.377 . S
C1252 C1251 1.373 . S
C1253 C1237 1.377 . S
C1253 C1251 1.389 . S
C1253 C1254 1.524 . S
C1254 C1253 1.524 . S
C1254 C1255 1.397 . S
C1254 C1259 1.363 . S
C1255 H1226 0.950 . S
C1255 C1254 1.397 . S
C1255 C1256 1.334 . S
C1256 H1227 0.950 . S
C1256 C1255 1.334 . S
C1256 C1257 1.287 . S
C1257 C1256 1.287 . S
C1257 C1258 1.524 . S
C1257 H1260 0.999 . S
C1258 H1228 0.950 . S
C1258 C1257 1.524 . S
C1258 C1259 1.415 . S
C1259 H1229 0.950 . S
C1259 C1254 1.363 . S
C1259 C1258 1.415 . S
H1260 C1257 0.999 . S
H1261 C1242 0.913 . S
H1262 C1280 0.951 . S
H1263 C1282 0.951 . S
H1264 C1284 0.950 . S
H1265 C1285 0.950 . S
H1266 C1287 0.950 . S
H1267 C1290 0.950 . S
H1268 C1291 0.950 . S
H1269 C1293 0.950 . S
H1270 C1294 0.950 . S
H1271 C1295 0.951 . S
H1272 C1297 0.951 . S
H1273 C1299 0.950 . S
H1274 C1300 0.950 . S
H1275 C1302 0.950 . S
H1276 C1305 0.950 . S
H1277 C1306 0.950 . S
H1278 C1308 0.950 . S
H1279 C1309 0.950 . S
C1280 H1262 0.951 . S
C1280 C1281 1.366 . S
C1280 C1282 1.388 . S
C1281 C1280 1.366 . S
C1281 C1285 1.385 . S
C1282 H1263 0.951 . S
C1282 C1280 1.388 . S
C1282 C1283 1.366 . S
C1283 C1282 1.366 . S
C1283 C1284 1.414 . S
C1283 C1286 1.499 . S
C1284 H1264 0.950 . S
C1284 C1283 1.414 . S
C1284 C1285 1.374 . S
C1285 H1265 0.950 . S
C1285 C1281 1.385 . S
C1285 C1284 1.374 . S
C1286 C1283 1.499 . S
C1286 C1287 1.373 . S
C1286 C1288 1.389 . S
C1287 H1266 0.950 . S
C1287 C1286 1.373 . S
C1287 C1303 1.377 . S
C1288 C1286 1.389 . S
C1288 C1289 1.524 . S
C1288 C1302 1.377 . S
C1289 C1288 1.524 . S
C1289 C1290 1.397 . S
C1289 C1294 1.363 . S
C1290 H1267 0.950 . S
C1290 C1289 1.397 . S
C1290 C1291 1.334 . S
C1291 H1268 0.950 . S
C1291 C1290 1.334 . S
C1291 C1292 1.287 . S
C1292 C1291 1.287 . S
C1292 C1293 1.524 . S
C1292 H1311 0.913 . S
C1293 H1269 0.950 . S
C1293 C1292 1.524 . S
C1293 C1294 1.415 . S
C1294 H1270 0.950 . S
C1294 C1289 1.363 . S
C1294 C1293 1.415 . S
C1295 H1271 0.951 . S
C1295 C1296 1.366 . S
C1295 C1297 1.388 . S
C1296 C1295 1.366 . S
C1296 C1300 1.385 . S
C1297 H1272 0.951 . S
C1297 C1295 1.388 . S
C1297 C1298 1.366 . S
C1298 C1297 1.366 . S
C1298 C1299 1.414 . S
C1298 C1301 1.499 . S
C1299 H1273 0.950 . S
C1299 C1298 1.414 . S
C1299 C1300 1.374 . S
C1300 H1274 0.950 . S
C1300 C1296 1.385 . S
C1300 C1299 1.374 . S
C1301 C1298 1.499 . S
C1301 C1302 1.373 . S
C1301 C1303 1.389 . S
C1302 H1275 0.950 . S
C1302 C1288 1.377 . S
C1302 C1301 1.373 . S
C1303 C1287 1.377 . S
C1303 C1301 1.389 . S
C1303 C1304 1.524 . S
C1304 C1303 1.524 . S
C1304 C1305 1.397 . S
C1304 C1309 1.363 . S
C1305 H1276 0.950 . S
C1305 C1304 1.397 . S
C1305 C1306 1.334 . S
C1306 H1277 0.950 . S
C1306 C1305 1.334 . S
C1306 C1307 1.287 . S
C1307 C1306 1.287 . S
C1307 C1308 1.524 . S
C1307 H1310 0.999 . S
C1308 H1278 0.950 . S
C1308 C1307 1.524 . S
C1308 C1309 1.415 . S
C1309 H1279 0.950 . S
C1309 C1304 1.363 . S
C1309 C1308 1.415 . S
H1310 C1307 0.999 . S
H1311 C1292 0.913 . S
H1312 C1330 0.951 . S
H1313 C1332 0.951 . S
H1314 C1334 0.950 . S
H1315 C1335 0.950 . S
H1316 C1337 0.950 . S
H1317 C1340 0.950 . S
H1318 C1341 0.950 . S
H1319 C1343 0.950 . S
H1320 C1344 0.950 . S
H1321 C1345 0.951 . S
H1322 C1347 0.951 1_455 S
H1323 C1349 0.950 . S
H1324 C1350 0.950 . S
H1325 C1352 0.950 . S
H1326 C1355 0.950 . S
H1327 C1356 0.950 . S
H1328 C1358 0.950 . S
H1329 C1359 0.950 . S
C1330 H1312 0.951 . S
C1330 C1331 1.366 . S
C1330 C1332 1.388 . S
C1331 C1330 1.366 . S
C1331 C1335 1.385 . S
C1332 H1313 0.951 . S
C1332 C1330 1.388 . S
C1332 C1333 1.366 . S
C1333 C1332 1.366 . S
C1333 C1334 1.414 . S
C1333 C1336 1.499 . S
C1334 H1314 0.950 . S
C1334 C1333 1.414 . S
C1334 C1335 1.374 . S
C1335 H1315 0.950 . S
C1335 C1331 1.385 . S
C1335 C1334 1.374 . S
C1336 C1333 1.499 . S
C1336 C1337 1.373 . S
C1336 C1338 1.389 . S
C1337 H1316 0.950 . S
C1337 C1336 1.373 . S
C1337 C1353 1.377 . S
C1338 C1336 1.389 . S
C1338 C1339 1.524 . S
C1338 C1352 1.377 . S
C1339 C1338 1.524 . S
C1339 C1340 1.397 . S
C1339 C1344 1.363 . S
C1340 H1317 0.950 . S
C1340 C1339 1.397 . S
C1340 C1341 1.334 1_556 S
C1341 H1318 0.950 . S
C1341 C1340 1.334 1_554 S
C1341 C1342 1.287 . S
C1342 C1341 1.287 . S
C1342 C1343 1.524 1_554 S
C1342 H1361 0.913 . S
C1343 H1319 0.950 . S
C1343 C1342 1.524 1_556 S
C1343 C1344 1.415 . S
C1344 H1320 0.950 . S
C1344 C1339 1.363 . S
C1344 C1343 1.415 . S
C1345 H1321 0.951 . S
C1345 C1346 1.366 1_455 S
C1345 C1347 1.388 1_455 S
C1346 C1345 1.366 1_655 S
C1346 C1350 1.385 . S
C1347 H1322 0.951 1_655 S
C1347 C1345 1.388 1_655 S
C1347 C1348 1.366 . S
C1348 C1347 1.366 . S
C1348 C1349 1.414 . S
C1348 C1351 1.499 . S
C1349 H1323 0.950 . S
C1349 C1348 1.414 . S
C1349 C1350 1.374 . S
C1350 H1324 0.950 . S
C1350 C1346 1.385 . S
C1350 C1349 1.374 . S
C1351 C1348 1.499 . S
C1351 C1352 1.373 . S
C1351 C1353 1.389 . S
C1352 H1325 0.950 . S
C1352 C1338 1.377 . S
C1352 C1351 1.373 . S
C1353 C1337 1.377 . S
C1353 C1351 1.389 . S
C1353 C1354 1.524 . S
C1354 C1353 1.524 . S
C1354 C1355 1.397 . S
C1354 C1359 1.363 1_655 S
C1355 H1326 0.950 . S
C1355 C1354 1.397 . S
C1355 C1356 1.334 1_655 S
C1356 H1327 0.950 . S
C1356 C1355 1.334 1_455 S
C1356 C1357 1.287 . S
C1357 C1356 1.287 . S
C1357 C1358 1.524 . S
C1357 H1360 0.999 . S
C1358 H1328 0.950 . S
C1358 C1357 1.524 . S
C1358 C1359 1.415 . S
C1359 H1329 0.950 . S
C1359 C1354 1.363 1_455 S
C1359 C1358 1.415 . S
H1360 C1357 0.999 . S
H1361 C1342 0.913 . S
H1362 C1380 0.951 . S
H1363 C1382 0.951 . S
H1364 C1384 0.950 . S
H1365 C1385 0.950 . S
H1366 C1387 0.950 . S
H1367 C1390 0.950 . S
H1368 C1391 0.950 . S
H1369 C1393 0.950 . S
H1370 C1394 0.950 . S
H1371 C1395 0.951 . S
H1372 C1397 0.951 . S
H1373 C1399 0.950 . S
H1374 C1400 0.950 . S
H1375 C1402 0.950 . S
H1376 C1405 0.950 . S
H1377 C1406 0.950 . S
H1378 C1408 0.950 . S
H1379 C1409 0.950 . S
C1380 H1362 0.951 . S
C1380 C1381 1.366 . S
C1380 C1382 1.388 . S
C1381 C1380 1.366 . S
C1381 C1385 1.385 . S
C1382 H1363 0.951 . S
C1382 C1380 1.388 . S
C1382 C1383 1.366 . S
C1383 C1382 1.366 . S
C1383 C1384 1.414 . S
C1383 C1386 1.499 . S
C1384 H1364 0.950 . S
C1384 C1383 1.414 . S
C1384 C1385 1.374 . S
C1385 H1365 0.950 . S
C1385 C1381 1.385 . S
C1385 C1384 1.374 . S
C1386 C1383 1.499 . S
C1386 C1387 1.373 . S
C1386 C1388 1.389 . S
C1387 H1366 0.950 . S
C1387 C1386 1.373 . S
C1387 C1403 1.377 . S
C1388 C1386 1.389 . S
C1388 C1389 1.524 . S
C1388 C1402 1.377 . S
C1389 C1388 1.524 . S
C1389 C1390 1.397 . S
C1389 C1394 1.363 . S
C1390 H1367 0.950 . S
C1390 C1389 1.397 . S
C1390 C1391 1.334 . S
C1391 H1368 0.950 . S
C1391 C1390 1.334 . S
C1391 C1392 1.287 . S
C1392 C1391 1.287 . S
C1392 C1393 1.524 . S
C1392 H1411 0.913 . S
C1393 H1369 0.950 . S
C1393 C1392 1.524 . S
C1393 C1394 1.415 . S
C1394 H1370 0.950 . S
C1394 C1389 1.363 . S
C1394 C1393 1.415 . S
C1395 H1371 0.951 . S
C1395 C1396 1.366 . S
C1395 C1397 1.388 . S
C1396 C1395 1.366 . S
C1396 C1400 1.385 . S
C1397 H1372 0.951 . S
C1397 C1395 1.388 . S
C1397 C1398 1.366 . S
C1398 C1397 1.366 . S
C1398 C1399 1.414 . S
C1398 C1401 1.499 . S
C1399 H1373 0.950 . S
C1399 C1398 1.414 . S
C1399 C1400 1.374 . S
C1400 H1374 0.950 . S
C1400 C1396 1.385 . S
C1400 C1399 1.374 . S
C1401 C1398 1.499 . S
C1401 C1402 1.373 . S
C1401 C1403 1.389 . S
C1402 H1375 0.950 . S
C1402 C1388 1.377 . S
C1402 C1401 1.373 . S
C1403 C1387 1.377 . S
C1403 C1401 1.389 . S
C1403 C1404 1.524 . S
C1404 C1403 1.524 . S
C1404 C1405 1.397 . S
C1404 C1409 1.363 . S
C1405 H1376 0.950 . S
C1405 C1404 1.397 . S
C1405 C1406 1.334 . S
C1406 H1377 0.950 . S
C1406 C1405 1.334 . S
C1406 C1407 1.287 . S
C1407 C1406 1.287 . S
C1407 C1408 1.524 . S
C1407 H1410 0.999 . S
C1408 H1378 0.950 . S
C1408 C1407 1.524 . S
C1408 C1409 1.415 . S
C1409 H1379 0.950 . S
C1409 C1404 1.363 . S
C1409 C1408 1.415 . S
H1410 C1407 0.999 . S
H1411 C1392 0.913 . S
H1412 C1430 0.951 . S
H1413 C1432 0.951 . S
H1414 C1434 0.950 . S
H1415 C1435 0.950 . S
H1416 C1437 0.950 . S
H1417 C1440 0.950 . S
H1418 C1441 0.950 . S
H1419 C1443 0.950 . S
H1420 C1444 0.950 . S
H1421 C1445 0.951 . S
H1422 C1447 0.951 . S
H1423 C1449 0.950 . S
H1424 C1450 0.950 . S
H1425 C1452 0.950 . S
H1426 C1455 0.950 . S
H1427 C1456 0.950 . S
H1428 C1458 0.950 . S
H1429 C1459 0.950 . S
C1430 H1412 0.951 . S
C1430 C1431 1.366 . S
C1430 C1432 1.388 . S
C1431 C1430 1.366 . S
C1431 C1435 1.385 . S
C1432 H1413 0.951 . S
C1432 C1430 1.388 . S
C1432 C1433 1.366 . S
C1433 C1432 1.366 . S
C1433 C1434 1.414 . S
C1433 C1436 1.499 . S
C1434 H1414 0.950 . S
C1434 C1433 1.414 . S
C1434 C1435 1.374 . S
C1435 H1415 0.950 . S
C1435 C1431 1.385 . S
C1435 C1434 1.374 . S
C1436 C1433 1.499 . S
C1436 C1437 1.373 . S
C1436 C1438 1.389 . S
C1437 H1416 0.950 . S
C1437 C1436 1.373 . S
C1437 C1453 1.377 . S
C1438 C1436 1.389 . S
C1438 C1439 1.524 . S
C1438 C1452 1.377 . S
C1439 C1438 1.524 . S
C1439 C1440 1.397 . S
C1439 C1444 1.363 . S
C1440 H1417 0.950 . S
C1440 C1439 1.397 . S
C1440 C1441 1.334 . S
C1441 H1418 0.950 . S
C1441 C1440 1.334 . S
C1441 C1442 1.287 . S
C1442 C1441 1.287 . S
C1442 C1443 1.524 . S
C1442 H1461 0.913 . S
C1443 H1419 0.950 . S
C1443 C1442 1.524 . S
C1443 C1444 1.415 . S
C1444 H1420 0.950 . S
C1444 C1439 1.363 . S
C1444 C1443 1.415 . S
C1445 H1421 0.951 . S
C1445 C1446 1.366 . S
C1445 C1447 1.388 . S
C1446 C1445 1.366 . S
C1446 C1450 1.385 . S
C1447 H1422 0.951 . S
C1447 C1445 1.388 . S
C1447 C1448 1.366 . S
C1448 C1447 1.366 . S
C1448 C1449 1.414 . S
C1448 C1451 1.499 . S
C1449 H1423 0.950 . S
C1449 C1448 1.414 . S
C1449 C1450 1.374 . S
C1450 H1424 0.950 . S
C1450 C1446 1.385 . S
C1450 C1449 1.374 . S
C1451 C1448 1.499 . S
C1451 C1452 1.373 . S
C1451 C1453 1.389 . S
C1452 H1425 0.950 . S
C1452 C1438 1.377 . S
C1452 C1451 1.373 . S
C1453 C1437 1.377 . S
C1453 C1451 1.389 . S
C1453 C1454 1.524 . S
C1454 C1453 1.524 . S
C1454 C1455 1.397 . S
C1454 C1459 1.363 . S
C1455 H1426 0.950 . S
C1455 C1454 1.397 . S
C1455 C1456 1.334 . S
C1456 H1427 0.950 . S
C1456 C1455 1.334 . S
C1456 C1457 1.287 . S
C1457 C1456 1.287 . S
C1457 C1458 1.524 . S
C1457 H1460 0.999 . S
C1458 H1428 0.950 . S
C1458 C1457 1.524 . S
C1458 C1459 1.415 . S
C1459 H1429 0.950 . S
C1459 C1454 1.363 . S
C1459 C1458 1.415 . S
H1460 C1457 0.999 . S
H1461 C1442 0.913 . S
H1462 C1480 0.951 . S
H1463 C1482 0.951 . S
H1464 C1484 0.950 . S
H1465 C1485 0.950 . S
H1466 C1487 0.950 . S
H1467 C1490 0.950 . S
H1468 C1491 0.950 . S
H1469 C1493 0.950 . S
H1470 C1494 0.950 . S
H1471 C1495 0.951 . S
H1472 C1497 0.951 . S
H1473 C1499 0.950 . S
H1474 C1500 0.950 . S
H1475 C1502 0.950 . S
H1476 C1505 0.950 . S
H1477 C1506 0.950 . S
H1478 C1508 0.950 . S
H1479 C1509 0.950 . S
C1480 H1462 0.951 . S
C1480 C1481 1.366 . S
C1480 C1482 1.388 . S
C1481 C1480 1.366 . S
C1481 C1485 1.385 . S
C1482 H1463 0.951 . S
C1482 C1480 1.388 . S
C1482 C1483 1.366 . S
C1483 C1482 1.366 . S
C1483 C1484 1.414 . S
C1483 C1486 1.499 . S
C1484 H1464 0.950 . S
C1484 C1483 1.414 . S
C1484 C1485 1.374 . S
C1485 H1465 0.950 . S
C1485 C1481 1.385 . S
C1485 C1484 1.374 . S
C1486 C1483 1.499 . S
C1486 C1487 1.373 . S
C1486 C1488 1.389 . S
C1487 H1466 0.950 . S
C1487 C1486 1.373 . S
C1487 C1503 1.377 . S
C1488 C1486 1.389 . S
C1488 C1489 1.524 . S
C1488 C1502 1.377 . S
C1489 C1488 1.524 . S
C1489 C1490 1.397 . S
C1489 C1494 1.363 . S
C1490 H1467 0.950 . S
C1490 C1489 1.397 . S
C1490 C1491 1.334 . S
C1491 H1468 0.950 . S
C1491 C1490 1.334 . S
C1491 C1492 1.287 . S
C1492 C1491 1.287 . S
C1492 C1493 1.524 . S
C1492 H1511 0.913 . S
C1493 H1469 0.950 . S
C1493 C1492 1.524 . S
C1493 C1494 1.415 . S
C1494 H1470 0.950 . S
C1494 C1489 1.363 . S
C1494 C1493 1.415 . S
C1495 H1471 0.951 . S
C1495 C1496 1.366 . S
C1495 C1497 1.388 . S
C1496 C1495 1.366 . S
C1496 C1500 1.385 . S
C1497 H1472 0.951 . S
C1497 C1495 1.388 . S
C1497 C1498 1.366 . S
C1498 C1497 1.366 . S
C1498 C1499 1.414 . S
C1498 C1501 1.499 . S
C1499 H1473 0.950 . S
C1499 C1498 1.414 . S
C1499 C1500 1.374 . S
C1500 H1474 0.950 . S
C1500 C1496 1.385 . S
C1500 C1499 1.374 . S
C1501 C1498 1.499 . S
C1501 C1502 1.373 . S
C1501 C1503 1.389 . S
C1502 H1475 0.950 . S
C1502 C1488 1.377 . S
C1502 C1501 1.373 . S
C1503 C1487 1.377 . S
C1503 C1501 1.389 . S
C1503 C1504 1.524 . S
C1504 C1503 1.524 . S
C1504 C1505 1.397 . S
C1504 C1509 1.363 . S
C1505 H1476 0.950 . S
C1505 C1504 1.397 . S
C1505 C1506 1.334 . S
C1506 H1477 0.950 . S
C1506 C1505 1.334 . S
C1506 C1507 1.287 . S
C1507 C1506 1.287 . S
C1507 C1508 1.524 . S
C1507 H1510 0.999 . S
C1508 H1478 0.950 . S
C1508 C1507 1.524 . S
C1508 C1509 1.415 . S
C1509 H1479 0.950 . S
C1509 C1504 1.363 . S
C1509 C1508 1.415 . S
H1510 C1507 0.999 . S
H1511 C1492 0.913 . S
C331 C6 3.231 . S
C346 C171 3.198 . S
C381 C21 2.761 . S
C396 C202 2.782 . S
C446 C241 0.521 . S
C431 C49 0.582 . S
C481 C68 0.583 . S
C496 C278 0.270 . S
C546 C201 3.756 . S
C531 C2 3.796 . S
C596 C158 1.251 . S
C581 C30 1.206 . S
C646 C290 0.848 . S
C631 C40 0.851 . S
C696 C247 0.736 . S
C681 C63 0.736 . S
C731 C11 2.274 . S
C746 C291 2.520 . S
C796 C207 1.608 . S
C781 C44 1.613 . S
C831 C59 0.310 . S
C846 C170 0.491 . S
C881 C25 2.747 . S
C896 C242 2.773 . S
C946 C162 3.301 . S
C931 C82 3.346 . S
C981 C101 2.378 . S
C996 C211 2.421 . S
C1031 C125 0.916 . S
C1046 C250 0.914 . S
C1081 C144 0.386 . S
C1096 C287 0.297 . S
C1131 C87 2.520 . S
C1146 C210 2.625 1_565 S
C1196 C167 2.146 . S
C1181 C97 2.107 . S
C1246 C281 0.940 . S
C1231 C120 0.990 . S
C1296 C238 0.801 . S
C1281 C135 0.805 . S
C1331 C78 2.642 . S
C1346 C282 2.663 1_656 S
C1396 C198 1.273 . S
C1381 C116 1.276 . S
C1446 C161 0.715 . S
C1431 C139 0.708 . S
C1481 C106 2.205 . S
C1496 C251 2.495 . S
