# Generated by pormake.
# Topology zzz, (3,6)-cn, num edge types: 1
# Building blocks:
#     Node 0, Type 0, BuildingBlock: BELTOD_clean_linker_0, # of connection points: 3
#     Node 1, Type 0, BuildingBlock: BELTOD_clean_linker_0, # of connection points: 3
#     Node 2, Type 0, BuildingBlock: BELTOD_clean_linker_0, # of connection points: 3
#     Node 3, Type 0, BuildingBlock: BELTOD_clean_linker_0, # of connection points: 3
#     Node 4, Type 0, BuildingBlock: BELTOD_clean_linker_0, # of connection points: 3
#     Node 5, Type 0, BuildingBlock: BELTOD_clean_linker_0, # of connection points: 3
#     Node 6, Type 0, BuildingBlock: BELTOD_clean_linker_0, # of connection points: 3
#     Node 7, Type 0, BuildingBlock: BELTOD_clean_linker_0, # of connection points: 3
#     Node 8, Type 1, BuildingBlock: BETDEL_clean_sbu_0, # of connection points: 6
#     Node 9, Type 1, BuildingBlock: BETDEL_clean_sbu_0, # of connection points: 6
#     Node 10, Type 1, BuildingBlock: BETDEL_clean_sbu_0, # of connection points: 6
#     Node 11, Type 1, BuildingBlock: BETDEL_clean_sbu_0, # of connection points: 6
#     Edge 12, Type (0, 1), BuildingBlock: ZUJKAS_clean_linker_0, # of connection points: 2
#     Edge 13, Type (0, 1), BuildingBlock: ZUJKAS_clean_linker_0, # of connection points: 2
#     Edge 14, Type (0, 1), BuildingBlock: ZUJKAS_clean_linker_0, # of connection points: 2
#     Edge 15, Type (0, 1), BuildingBlock: ZUJKAS_clean_linker_0, # of connection points: 2
#     Edge 16, Type (0, 1), BuildingBlock: ZUJKAS_clean_linker_0, # of connection points: 2
#     Edge 17, Type (0, 1), BuildingBlock: ZUJKAS_clean_linker_0, # of connection points: 2
#     Edge 18, Type (0, 1), BuildingBlock: ZUJKAS_clean_linker_0, # of connection points: 2
#     Edge 19, Type (0, 1), BuildingBlock: ZUJKAS_clean_linker_0, # of connection points: 2
#     Edge 20, Type (0, 1), BuildingBlock: ZUJKAS_clean_linker_0, # of connection points: 2
#     Edge 21, Type (0, 1), BuildingBlock: ZUJKAS_clean_linker_0, # of connection points: 2
#     Edge 22, Type (0, 1), BuildingBlock: ZUJKAS_clean_linker_0, # of connection points: 2
#     Edge 23, Type (0, 1), BuildingBlock: ZUJKAS_clean_linker_0, # of connection points: 2
#     Edge 24, Type (0, 1), BuildingBlock: ZUJKAS_clean_linker_0, # of connection points: 2
#     Edge 25, Type (0, 1), BuildingBlock: ZUJKAS_clean_linker_0, # of connection points: 2
#     Edge 26, Type (0, 1), BuildingBlock: ZUJKAS_clean_linker_0, # of connection points: 2
#     Edge 27, Type (0, 1), BuildingBlock: ZUJKAS_clean_linker_0, # of connection points: 2
#     Edge 28, Type (0, 1), BuildingBlock: ZUJKAS_clean_linker_0, # of connection points: 2
#     Edge 29, Type (0, 1), BuildingBlock: ZUJKAS_clean_linker_0, # of connection points: 2
#     Edge 30, Type (0, 1), BuildingBlock: ZUJKAS_clean_linker_0, # of connection points: 2
#     Edge 31, Type (0, 1), BuildingBlock: ZUJKAS_clean_linker_0, # of connection points: 2
#     Edge 32, Type (0, 1), BuildingBlock: ZUJKAS_clean_linker_0, # of connection points: 2
#     Edge 33, Type (0, 1), BuildingBlock: ZUJKAS_clean_linker_0, # of connection points: 2
#     Edge 34, Type (0, 1), BuildingBlock: ZUJKAS_clean_linker_0, # of connection points: 2
#     Edge 35, Type (0, 1), BuildingBlock: ZUJKAS_clean_linker_0, # of connection points: 2
# Relax obj value: 0.303
# Max RMSD: 0.213
# Mean RMSD: 0.198
data_MOF--net-zzz--node1-BETDEL_clean_sbu_0--node2-BELTOD_clean_linker_0--edge1-ZUJKAS_clean_linker_0
_symmetry_space_group_name_H-M    P1
_symmetry_Int_Tables_number       1
_symmetry_cell_setting            triclinic
loop_
_symmetry_equiv_pos_as_xyz
'x, y, z'
_cell_length_a     67.265207
_cell_length_b     66.657081
_cell_length_c     23.330029
_cell_angle_alpha  91.24904
_cell_angle_beta   89.470547
_cell_angle_gamma 96.197125
loop_
_atom_site_label
_atom_site_type_symbol
_atom_site_fract_x
_atom_site_fract_y
_atom_site_fract_z
_atom_type_partial_charge
P0 P 0.73318 0.42216 0.11678 0.0
H1 H 0.73838 0.4164 0.23955 0.0
H2 H 0.76316 0.43247 0.3066 0.0
H3 H 0.78144 0.4779 0.18208 0.0
H4 H 0.7568 0.46162 0.1148 0.0
H5 H 0.70184 0.40318 0.04402 0.0
H6 H 0.67656 0.4162 0.9853 0.0
H7 H 0.69525 0.47659 0.04901 0.0
H8 H 0.72067 0.46338 0.10773 0.0
H9 H 0.76781 0.4 0.12495 0.0
H10 H 0.74271 0.43682 0.00046 0.0
O11 O 0.72442 0.39993 0.14382 0.0
H12 H 0.7982 0.40004 0.0669 0.0
H13 H 0.77262 0.43627 0.94118 0.0
C14 C 0.74556 0.43792 0.1723 0.0
C15 C 0.74718 0.43022 0.2273 0.0
C16 C 0.76147 0.43932 0.26549 0.0
C17 C 0.77434 0.45632 0.24931 0.0
C18 C 0.7716 0.46494 0.19592 0.0
C19 C 0.75741 0.45571 0.15754 0.0
C20 C 0.71298 0.43223 0.08078 0.0
C21 C 0.70026 0.41918 0.04623 0.0
C22 C 0.68578 0.42666 0.01268 0.0
C23 C 0.68382 0.44744 0.01261 0.0
C24 C 0.69648 0.46052 0.04784 0.0
C25 C 0.71096 0.45296 0.0817 0.0
C26 C 0.7529 0.41816 0.06674 0.0
C27 C 0.76858 0.40751 0.08414 0.0
C28 C 0.78595 0.40755 0.05086 0.0
C29 C 0.78792 0.4183 0.99954 0.0
C30 C 0.77173 0.42814 0.98095 0.0
C31 C 0.75445 0.42823 0.01453 0.0
P32 P 0.00583 0.73826 0.14095 0.0
H33 H 0.00659 0.74891 0.26255 0.0
H34 H 0.98719 0.77177 0.31537 0.0
H35 H 0.9442 0.76806 0.17793 0.0
H36 H 0.96414 0.74527 0.12452 0.0
H37 H 0.02338 0.72434 0.03613 0.0
H38 H 0.01681 0.69394 0.97673 0.0
H39 H 0.96794 0.67271 0.08915 0.0
H40 H 0.9744 0.70373 0.14806 0.0
H41 H 0.03072 0.77616 0.16217 0.0
H42 H 0.99083 0.74999 0.03046 0.0
O43 O 0.02624 0.73426 0.17727 0.0
H44 H 0.03312 0.8087 0.11437 0.0
H45 H 0.99325 0.78232 0.98242 0.0
C46 C 0.98683 0.74539 0.18955 0.0
C47 C 0.99248 0.75215 0.24488 0.0
C48 C 0.98129 0.76534 0.2752 0.0
C49 C 0.96429 0.77212 0.25044 0.0
C50 C 0.95741 0.76342 0.19777 0.0
C51 C 0.96864 0.75016 0.1675 0.0
C52 C 0.99915 0.71643 0.09576 0.0
C53 C 0.01106 0.71329 0.0476 0.0
C54 C 0.00742 0.69577 0.01403 0.0
C55 C 0.99197 0.68078 0.02849 0.0
C56 C 0.97986 0.68404 0.07665 0.0
C57 C 0.98353 0.70173 0.11033 0.0
C58 C 0.01117 0.76049 0.09882 0.0
C59 C 0.02299 0.77726 0.12203 0.0
C60 C 0.02414 0.79588 0.09511 0.0
C61 C 0.01342 0.79802 0.04457 0.0
C62 C 0.00196 0.78104 0.02074 0.0
C63 C 0.00067 0.7625 0.048 0.0
P64 P 0.77572 0.05669 0.13581 0.0
H65 H 0.77051 0.05479 0.26048 0.0
H66 H 0.74333 0.03876 0.31932 0.0
H67 H 0.71792 0.00705 0.16913 0.0
H68 H 0.74538 0.0228 0.1109 0.0
H69 H 0.81338 0.07513 0.09146 0.0
H70 H 0.83962 0.06238 0.03334 0.0
H71 H 0.80978 0.00183 0.04565 0.0
H72 H 0.7832 0.01494 0.10344 0.0
H73 H 0.74594 0.08525 0.13797 0.0
H74 H 0.76927 0.04443 0.01491 0.0
O75 O 0.78465 0.07706 0.17418 0.0
H76 H 0.72041 0.09228 0.06932 0.0
H77 H 0.74376 0.05112 0.94674 0.0
C78 C 0.75985 0.04017 0.18118 0.0
C79 C 0.75943 0.04393 0.24048 0.0
C80 C 0.74376 0.03488 0.27403 0.0
C81 C 0.7282 0.02194 0.24877 0.0
C82 C 0.72965 0.01688 0.19011 0.0
C83 C 0.74536 0.02591 0.15664 0.0
C84 C 0.79655 0.04595 0.10271 0.0
C85 C 0.81271 0.05903 0.08293 0.0
C86 C 0.82778 0.05168 0.04968 0.0
C87 C 0.82694 0.03103 0.03499 0.0
C88 C 0.81086 0.01783 0.05594 0.0
C89 C 0.79574 0.02526 0.08945 0.0
C90 C 0.75972 0.06461 0.08126 0.0
C91 C 0.74587 0.07817 0.09572 0.0
C92 C 0.73119 0.08204 0.05665 0.0
C93 C 0.73006 0.07225 0.00257 0.0
C94 C 0.74443 0.05918 0.98761 0.0
C95 C 0.75905 0.0553 0.02674 0.0
P96 P 0.51445 0.76837 0.18141 0.0
H97 H 0.52332 0.76976 0.3043 0.0
H98 H 0.54032 0.74678 0.36184 0.0
H99 H 0.56292 0.72038 0.20677 0.0
H100 H 0.54678 0.744 0.15012 0.0
H101 H 0.49513 0.80376 0.15443 0.0
H102 H 0.50379 0.83162 0.09003 0.0
H103 H 0.56051 0.80922 0.05272 0.0
H104 H 0.5518 0.78127 0.11849 0.0
H105 H 0.48596 0.73302 0.19917 0.0
H106 H 0.52295 0.75812 0.06082 0.0
O107 O 0.496 0.77382 0.22549 0.0
H108 H 0.47801 0.70195 0.14273 0.0
H109 H 0.51581 0.72701 0.00532 0.0
C110 C 0.53332 0.75821 0.22287 0.0
C111 C 0.5326 0.75958 0.28283 0.0
C112 C 0.54219 0.74627 0.31569 0.0
C113 C 0.55242 0.73121 0.28894 0.0
C114 C 0.55515 0.73166 0.22908 0.0
C115 C 0.54579 0.74517 0.19638 0.0
C116 C 0.52292 0.79058 0.14183 0.0
C117 C 0.50967 0.80508 0.13371 0.0
C118 C 0.51465 0.82105 0.09685 0.0
C119 C 0.53287 0.82265 0.06649 0.0
C120 C 0.54637 0.80833 0.07558 0.0
C121 C 0.54146 0.79246 0.11334 0.0
C122 C 0.50477 0.74805 0.13397 0.0
C123 C 0.49197 0.73205 0.15608 0.0
C124 C 0.48768 0.71417 0.12406 0.0
C125 C 0.49641 0.71186 0.0696 0.0
C126 C 0.50856 0.7283 0.04667 0.0
C127 C 0.5127 0.74621 0.07857 0.0
P128 P 0.25683 0.47008 0.039 0.0
H129 H 0.24684 0.44784 0.93218 0.0
H130 H 0.22727 0.45805 0.85338 0.0
H131 H 0.24017 0.52044 0.90779 0.0
H132 H 0.25963 0.50993 0.9877 0.0
H133 H 0.26812 0.46302 0.15441 0.0
H134 H 0.29923 0.4695 0.20733 0.0
H135 H 0.32813 0.49728 0.05827 0.0
H136 H 0.29646 0.4909 0.00533 0.0
H137 H 0.21394 0.46177 0.03036 0.0
H138 H 0.2559 0.50444 0.12084 0.0
O139 O 0.25168 0.44504 0.04131 0.0
H140 H 0.18649 0.48058 0.06241 0.0
H141 H 0.22828 0.52293 0.15455 0.0
C142 C 0.25452 0.47808 0.96639 0.0
C143 C 0.24641 0.46381 0.92563 0.0
C144 C 0.23506 0.46972 0.88037 0.0
C145 C 0.23163 0.49004 0.87517 0.0
C146 C 0.24213 0.5046 0.91141 0.0
C147 C 0.25359 0.49865 0.95657 0.0
C148 C 0.28003 0.47649 0.07613 0.0
C149 C 0.28113 0.47059 0.1331 0.0
C150 C 0.29898 0.47417 0.16319 0.0
C151 C 0.31625 0.48365 0.1368 0.0
C152 C 0.31505 0.48997 0.07977 0.0
C153 C 0.29703 0.48631 0.04946 0.0
C154 C 0.23687 0.48135 0.07452 0.0
C155 C 0.21717 0.47484 0.05849 0.0
C156 C 0.20156 0.48573 0.07606 0.0
C157 C 0.20539 0.50324 0.11045 0.0
C158 C 0.22503 0.50944 0.12809 0.0
C159 C 0.24075 0.49873 0.10943 0.0
P160 P 0.11039 0.26774 0.03857 0.0
H161 H 0.12439 0.2588 0.92264 0.0
H162 H 0.10994 0.2347 0.8503 0.0
H163 H 0.0542 0.22852 0.94496 0.0
H164 H 0.06869 0.25278 0.01684 0.0
H165 H 0.12606 0.29366 0.13177 0.0
H166 H 0.11416 0.32246 0.18251 0.0
H167 H 0.06317 0.31904 0.06991 0.0
H168 H 0.07563 0.29056 0.018 0.0
H169 H 0.12707 0.22945 0.04006 0.0
H170 H 0.08387 0.2594 0.13811 0.0
O171 O 0.13481 0.2726 0.02487 0.0
H172 H 0.11571 0.19774 0.08615 0.0
H173 H 0.07298 0.22799 0.1862 0.0
C174 C 0.09758 0.25776 0.97499 0.0
C175 C 0.1088 0.25297 0.92664 0.0
C176 C 0.10059 0.23896 0.88561 0.0
C177 C 0.08104 0.22942 0.89246 0.0
C178 C 0.06925 0.23567 0.93818 0.0
C179 C 0.07749 0.24968 0.9792 0.0
C180 C 0.10176 0.28998 0.07119 0.0
C181 C 0.11243 0.29927 0.11758 0.0
C182 C 0.1055 0.31562 0.1469 0.0
C183 C 0.08758 0.32296 0.13072 0.0
C184 C 0.07709 0.31386 0.08326 0.0
C185 C 0.08413 0.29747 0.05374 0.0
C186 C 0.10659 0.24686 0.08631 0.0
C187 C 0.11573 0.22938 0.07334 0.0
C188 C 0.10915 0.21122 0.09968 0.0
C189 C 0.09326 0.21024 0.13951 0.0
C190 C 0.08499 0.22812 0.15495 0.0
C191 C 0.09146 0.24623 0.12813 0.0
P192 P 0.2552 0.04242 0.04587 0.0
H193 H 0.26458 0.05473 0.92777 0.0
H194 H 0.28883 0.04331 0.85883 0.0
H195 H 0.29596 0.99231 0.96467 0.0
H196 H 0.27143 0.00353 0.03291 0.0
H197 H 0.22095 0.06402 0.07432 0.0
H198 H 0.18832 0.05307 0.1153 0.0
H199 H 0.19993 0.99086 0.09375 0.0
H200 H 0.23284 0.00204 0.05229 0.0
H201 H 0.29775 0.05044 0.06658 0.0
H202 H 0.24581 0.02479 0.16021 0.0
O203 O 0.25746 0.06722 0.03483 0.0
H204 H 0.31935 0.03958 0.14059 0.0
H205 H 0.2673 0.01416 0.23461 0.0
C206 C 0.26641 0.03015 0.98592 0.0
C207 C 0.27075 0.04067 0.9351 0.0
C208 C 0.28465 0.03415 0.89572 0.0
C209 C 0.29451 0.01713 0.90703 0.0
C210 C 0.28873 0.00561 0.95531 0.0
C211 C 0.2746 0.01195 0.99411 0.0
C212 C 0.22928 0.03385 0.05965 0.0
C213 C 0.21627 0.04799 0.07645 0.0
C214 C 0.19754 0.04169 0.1 0.0
C215 C 0.19153 0.02109 0.10805 0.0
C216 C 0.20419 0.00685 0.08842 0.0
C217 C 0.22291 0.0132 0.06416 0.0
C218 C 0.27019 0.03817 0.10718 0.0
C219 C 0.29097 0.04286 0.10367 0.0
C220 C 0.30331 0.03667 0.14614 0.0
C221 C 0.29504 0.02579 0.19322 0.0
C222 C 0.27413 0.02215 0.19827 0.0
C223 C 0.2618 0.02831 0.15564 0.0
P224 P 0.41606 0.23032 0.00991 0.0
H225 H 0.40622 0.23878 0.89152 0.0
H226 H 0.42211 0.26393 0.82673 0.0
H227 H 0.47402 0.27197 0.93587 0.0
H228 H 0.45778 0.24717 0.00133 0.0
H229 H 0.39938 0.20488 0.10076 0.0
H230 H 0.41214 0.17837 0.15585 0.0
H231 H 0.46588 0.18327 0.05193 0.0
H232 H 0.45295 0.20981 0.99678 0.0
H233 H 0.39773 0.26764 0.00453 0.0
H234 H 0.43675 0.24063 0.11893 0.0
O235 O 0.39263 0.22346 0.98877 0.0
H236 H 0.40555 0.30024 0.0542 0.0
H237 H 0.4443 0.27296 0.16902 0.0
C238 C 0.43088 0.24088 0.95103 0.0
C239 C 0.42137 0.24525 0.90027 0.0
C240 C 0.43049 0.25974 0.86321 0.0
C241 C 0.44921 0.2702 0.87664 0.0
C242 C 0.45946 0.26439 0.92478 0.0
C243 C 0.45033 0.24992 0.96175 0.0
C244 C 0.42519 0.20932 0.04477 0.0
C245 C 0.4138 0.20005 0.08932 0.0
C246 C 0.4211 0.18487 0.12071 0.0
C247 C 0.44004 0.17872 0.10829 0.0
C248 C 0.45133 0.18785 0.06291 0.0
C249 C 0.44393 0.203 0.03124 0.0
C250 C 0.41634 0.25161 0.05861 0.0
C251 C 0.40731 0.26852 0.04177 0.0
C252 C 0.41196 0.28716 0.06969 0.0
C253 C 0.42559 0.28909 0.11521 0.0
C254 C 0.43357 0.27183 0.13445 0.0
C255 C 0.42915 0.25327 0.10595 0.0
Dy256 Dy 0.00614 0.99108 0.60924 0.0
C257 C 0.00227 0.03294 0.3976 0.0
C258 C 0.00802 0.97256 0.71193 0.0
Dy259 Dy 0.99752 0.0152 0.50174 0.0
O260 O 0.02309 0.97718 0.67781 0.0
O261 O 0.99191 0.97841 0.6904 0.0
O262 O 0.03044 0.97789 0.55856 0.0
O263 O 0.02411 0.00748 0.54381 0.0
C264 C 0.03442 0.99374 0.52737 0.0
C265 C 0.96885 0.01308 0.58197 0.0
O266 O 0.98903 0.98325 0.47004 0.0
O267 O 0.98942 0.9665 0.5567 0.0
O268 O 0.98869 0.03652 0.4354 0.0
O269 O 0.01261 0.01908 0.416 0.0
O270 O 0.97193 0.02804 0.54692 0.0
O271 O 0.97952 0.99934 0.56784 0.0
O272 O 0.01088 0.0232 0.64316 0.0
O273 O 0.01421 0.03928 0.55563 0.0
C274 C 0.9859 0.96661 0.5008 0.0
C275 C 0.01517 0.03967 0.61236 0.0
Dy276 Dy 0.49412 0.98694 0.53435 0.0
C277 C 0.55933 0.03471 0.64612 0.0
C278 C 0.45953 0.96978 0.48526 0.0
Dy279 Dy 0.52463 0.01669 0.60005 0.0
O280 O 0.47597 0.9754 0.4576 0.0
O281 O 0.46227 0.97297 0.53977 0.0
O282 O 0.51925 0.97188 0.49373 0.0
O283 O 0.52321 0.00292 0.51491 0.0
C284 C 0.53188 0.98811 0.49715 0.0
C285 C 0.48686 0.01546 0.63832 0.0
O286 O 0.51803 0.03614 0.52743 0.0
O287 O 0.48773 0.01769 0.50583 0.0
O288 O 0.54174 0.04046 0.65587 0.0
O289 O 0.55794 0.01925 0.61108 0.0
O290 O 0.49963 0.03151 0.64259 0.0
O291 O 0.49551 0.00079 0.61957 0.0
O292 O 0.50241 0.9656 0.60007 0.0
O293 O 0.52881 0.98685 0.63961 0.0
C294 C 0.50053 0.03418 0.50108 0.0
C295 C 0.51787 0.96903 0.6352 0.0
Dy296 Dy 0.50502 0.51146 0.62256 0.0
C297 C 0.50514 0.46646 0.41407 0.0
C298 C 0.50555 0.53493 0.71988 0.0
Dy299 Dy 0.51463 0.4891 0.51037 0.0
O300 O 0.48998 0.52387 0.69996 0.0
O301 O 0.52096 0.53293 0.6871 0.0
O302 O 0.47242 0.50839 0.5979 0.0
O303 O 0.49464 0.51123 0.53462 0.0
C304 C 0.47614 0.50804 0.54328 0.0
C305 C 0.54418 0.49282 0.58703 0.0
O306 O 0.52409 0.52055 0.4826 0.0
O307 O 0.5241 0.53541 0.57387 0.0
O308 O 0.52335 0.47134 0.43204 0.0
O309 O 0.49254 0.47413 0.4482 0.0
O310 O 0.54734 0.49097 0.53198 0.0
O311 O 0.52571 0.48998 0.59762 0.0
O312 O 0.49966 0.47965 0.65298 0.0
O313 O 0.49783 0.46449 0.56248 0.0
C314 C 0.52857 0.53615 0.51824 0.0
C315 C 0.49507 0.46365 0.61886 0.0
Dy316 Dy 0.99407 0.48313 0.60869 0.0
C317 C 0.03529 0.51521 0.40513 0.0
C318 C 0.96973 0.46556 0.69136 0.0
Dy319 Dy 0.01372 0.50837 0.50277 0.0
O320 O 0.97206 0.45819 0.64009 0.0
O321 O 0.98097 0.48261 0.69809 0.0
O322 O 0.01097 0.45751 0.57894 0.0
O323 O 0.00144 0.47743 0.51898 0.0
C324 C 0.01135 0.46266 0.52549 0.0
C325 C 0.00423 0.53276 0.59015 0.0
O326 O 0.98215 0.502 0.473 0.0
O327 O 0.96777 0.49298 0.56177 0.0
O328 O 0.02167 0.52632 0.42357 0.0
O329 O 0.03693 0.5005 0.43978 0.0
O330 O 0.01258 0.53965 0.54286 0.0
O331 O 0.00196 0.51388 0.58599 0.0
O332 O 0.02447 0.49273 0.64414 0.0
O333 O 0.03988 0.50258 0.55726 0.0
C334 C 0.96636 0.4979 0.50709 0.0
C335 C 0.04064 0.49829 0.61262 0.0
H336 H 0.1547 0.035 0.10125 0.0
H337 H 0.12647 0.02865 0.16804 0.0
H338 H 0.15877 0.98717 0.25967 0.0
H339 H 0.18713 0.99361 0.19372 0.0
H340 H 0.10311 0.99034 0.20518 0.0
H341 H 0.14677 0.03318 0.37809 0.0
H342 H 0.15362 0.03533 0.30326 0.0
H343 H 0.15881 0.01357 0.34218 0.0
C344 C 0.15569 0.02436 0.13525 0.0
C345 C 0.17321 0.01489 0.14234 0.0
C346 C 0.13954 0.02069 0.17319 0.0
C347 C 0.14066 0.00764 0.21912 0.0
C348 C 0.1577 0.99742 0.22471 0.0
H349 H 0.05275 0.96373 0.47466 0.0
H350 H 0.07771 0.96705 0.39706 0.0
C351 C 0.17381 0.00099 0.18665 0.0
C352 C 0.12461 0.0057 0.26326 0.0
H353 H 0.11492 0.01723 0.40345 0.0
C354 C 0.10566 0.99618 0.24854 0.0
C355 C 0.12794 0.01361 0.31953 0.0
C356 C 0.14782 0.02465 0.33691 0.0
C357 C 0.09003 0.99402 0.28917 0.0
C358 C 0.09353 0.00154 0.34573 0.0
C359 C 0.11236 0.01137 0.3601 0.0
C360 C 0.07783 0.99939 0.39082 0.0
C361 C 0.06981 0.98395 0.27139 0.0
C362 C 0.06981 0.01651 0.41326 0.0
C363 C 0.05559 0.01466 0.45746 0.0
C364 C 0.04927 0.99566 0.48023 0.0
C365 C 0.05736 0.97854 0.45783 0.0
C366 C 0.0715 0.9804 0.41336 0.0
H367 H 0.06855 0.98211 0.22407 0.0
H368 H 0.06732 0.96879 0.29055 0.0
H369 H 0.05779 0.99285 0.28744 0.0
H370 H 0.07459 0.03132 0.39659 0.0
H371 H 0.04967 0.02811 0.47417 0.0
H372 H 0.47782 0.17933 0.15146 0.0
H373 H 0.49037 0.15486 0.21522 0.0
H374 H 0.43286 0.11935 0.2112 0.0
H375 H 0.42035 0.14346 0.14665 0.0
H376 H 0.47441 0.14396 0.32476 0.0
H377 H 0.47245 0.07766 0.17623 0.0
H378 H 0.47161 0.10304 0.15149 0.0
H379 H 0.44947 0.08907 0.1798 0.0
C380 C 0.46797 0.16611 0.16331 0.0
C381 C 0.4481 0.1633 0.14392 0.0
C382 C 0.47512 0.15223 0.20002 0.0
C383 C 0.46261 0.13521 0.21742 0.0
C384 C 0.44286 0.13223 0.19758 0.0
H385 H 0.46528 0.03622 0.44537 0.0
H386 H 0.45723 0.06161 0.37811 0.0
C387 C 0.43568 0.14612 0.16113 0.0
C388 C 0.46981 0.121 0.25848 0.0
H389 H 0.47656 0.07147 0.27535 0.0
C390 C 0.4751 0.12815 0.3139 0.0
C391 C 0.47065 0.1004 0.24409 0.0
C392 C 0.46593 0.09207 0.18452 0.0
C393 C 0.48052 0.11506 0.35605 0.0
C394 C 0.48101 0.09437 0.34194 0.0
C395 C 0.47611 0.08733 0.28613 0.0
C396 C 0.48592 0.07957 0.38478 0.0
C397 C 0.48497 0.12334 0.41582 0.0
C398 C 0.50474 0.08126 0.41102 0.0
C399 C 0.5094 0.06677 0.44986 0.0
C400 C 0.49536 0.05025 0.4627 0.0
C401 C 0.47648 0.04872 0.43654 0.0
C402 C 0.47184 0.06321 0.39795 0.0
H403 H 0.47934 0.13826 0.42305 0.0
H404 H 0.47819 0.11279 0.44854 0.0
H405 H 0.5014 0.12527 0.42227 0.0
H406 H 0.51597 0.09356 0.40067 0.0
H407 H 0.52413 0.06833 0.46889 0.0
H408 H 0.33177 0.45665 0.20519 0.0
H409 H 0.36092 0.46239 0.26717 0.0
H410 H 0.37354 0.52267 0.20316 0.0
H411 H 0.34384 0.51724 0.14204 0.0
H412 H 0.40104 0.47244 0.24536 0.0
H413 H 0.36944 0.53219 0.37654 0.0
H414 H 0.35461 0.51614 0.32623 0.0
H415 H 0.37149 0.53687 0.30106 0.0
C416 C 0.34069 0.47118 0.20436 0.0
C417 C 0.33529 0.48662 0.16939 0.0
C418 C 0.35745 0.47437 0.23953 0.0
C419 C 0.3692 0.49307 0.2406 0.0
C420 C 0.36444 0.50825 0.20382 0.0
H421 H 0.4821 0.51361 0.4287 0.0
H422 H 0.45691 0.51028 0.35295 0.0
C423 C 0.3476 0.50506 0.1685 0.0
C424 C 0.38595 0.49664 0.28185 0.0
H425 H 0.40154 0.52429 0.4013 0.0
C426 C 0.40127 0.48389 0.27918 0.0
C427 C 0.386 0.51135 0.32656 0.0
C428 C 0.36945 0.52483 0.33335 0.0
C429 C 0.41654 0.48534 0.32023 0.0
C430 C 0.41665 0.50016 0.36461 0.0
C431 C 0.40145 0.51302 0.36701 0.0
C432 C 0.432 0.50212 0.41024 0.0
C433 C 0.43193 0.47047 0.31724 0.0
C434 C 0.42631 0.49909 0.46775 0.0
C435 C 0.44066 0.50103 0.51111 0.0
C436 C 0.46094 0.50613 0.49767 0.0
C437 C 0.46658 0.50943 0.44019 0.0
C438 C 0.45224 0.50745 0.39685 0.0
H439 H 0.4275 0.45759 0.28732 0.0
H440 H 0.44641 0.47819 0.30208 0.0
H441 H 0.43428 0.46446 0.36037 0.0
H442 H 0.41075 0.49506 0.47902 0.0
H443 H 0.4359 0.49847 0.55507 0.0
H444 H 0.08742 0.32829 0.24715 0.0
H445 H 0.07522 0.35579 0.30329 0.0
H446 H 0.05731 0.3827 0.14825 0.0
H447 H 0.06982 0.35528 0.09125 0.0
H448 H 0.08755 0.39854 0.29369 0.0
H449 H 0.00636 0.37811 0.2522 0.0
H450 H 0.02459 0.36047 0.23971 0.0
H451 H 0.0228 0.38062 0.19091 0.0
C452 C 0.08107 0.34013 0.22476 0.0
C453 C 0.0797 0.33961 0.16458 0.0
C454 C 0.07402 0.35579 0.25701 0.0
C455 C 0.06527 0.3712 0.22996 0.0
C456 C 0.06378 0.37079 0.16996 0.0
H457 H 0.00786 0.4674 0.40996 0.0
H458 H 0.02222 0.44778 0.33267 0.0
C459 C 0.0709 0.35509 0.13751 0.0
C460 C 0.05789 0.38763 0.26528 0.0
H461 H 0.01518 0.40571 0.31467 0.0
C462 C 0.07174 0.40025 0.29789 0.0
C463 C 0.03729 0.38993 0.27025 0.0
C464 C 0.0218 0.37654 0.23678 0.0
C465 C 0.06548 0.41476 0.33659 0.0
C466 C 0.04481 0.41638 0.34368 0.0
C467 C 0.03102 0.40438 0.30924 0.0
C468 C 0.03712 0.42918 0.3898 0.0
C469 C 0.08104 0.42811 0.36994 0.0
C470 C 0.04069 0.42517 0.4474 0.0
C471 C 0.03255 0.43631 0.4914 0.0
C472 C 0.02062 0.45163 0.47862 0.0
C473 C 0.01713 0.45575 0.42095 0.0
C474 C 0.02527 0.44455 0.37684 0.0
H475 H 0.09577 0.42938 0.34761 0.0
H476 H 0.07641 0.44348 0.37689 0.0
H477 H 0.08297 0.42146 0.41246 0.0
H478 H 0.04944 0.4131 0.45838 0.0
H479 H 0.0354 0.43276 0.53546 0.0
H480 H 0.86729 0.04261 0.03161 0.0
H481 H 0.89098 0.0351 0.95623 0.0
H482 H 0.84497 0.99511 0.87262 0.0
H483 H 0.82089 0.00328 0.94642 0.0
H484 H 0.90541 0.00088 0.91263 0.0
H485 H 0.86123 0.0357 0.74897 0.0
H486 H 0.85615 0.03791 0.82472 0.0
H487 H 0.84775 0.01504 0.78574 0.0
C488 C 0.86218 0.0322 0.99723 0.0
C489 C 0.84207 0.02385 0.9946 0.0
C490 C 0.8758 0.02779 0.95439 0.0
C491 C 0.86964 0.0149 0.90809 0.0
C492 C 0.84994 0.00546 0.90729 0.0
H493 H 0.95462 0.98011 0.64369 0.0
H494 H 0.93044 0.97888 0.72325 0.0
C495 C 0.83624 0.00996 0.94997 0.0
C496 C 0.88355 0.01246 0.85921 0.0
H497 H 0.89015 0.02184 0.71659 0.0
C498 C 0.90206 0.00534 0.86965 0.0
C499 C 0.87925 0.01858 0.80333 0.0
C500 C 0.86011 0.02741 0.78989 0.0
C501 C 0.91647 0.00437 0.82589 0.0
C502 C 0.91207 0.01034 0.76994 0.0
C503 C 0.89345 0.01718 0.75941 0.0
C504 C 0.92691 0.01079 0.72229 0.0
C505 C 0.93653 0.9977 0.8405 0.0
C506 C 0.93261 0.02899 0.69434 0.0
C507 C 0.94621 0.02965 0.64864 0.0
C508 C 0.95443 0.01214 0.63008 0.0
C509 C 0.9487 0.99389 0.65777 0.0
C510 C 0.93496 0.99319 0.70334 0.0
H511 H 0.93927 0.9985 0.88743 0.0
H512 H 0.93698 0.98181 0.82585 0.0
H513 H 0.94885 0.00712 0.81873 0.0
H514 H 0.92656 0.04274 0.70808 0.0
H515 H 0.95038 0.04392 0.62807 0.0
H516 H 0.52779 0.86267 0.07647 0.0
H517 H 0.52875 0.88709 0.99939 0.0
H518 H 0.54699 0.84234 0.87943 0.0
H519 H 0.54621 0.81785 0.95654 0.0
H520 H 0.56637 0.88157 0.86189 0.0
H521 H 0.48401 0.88114 0.8797 0.0
H522 H 0.49693 0.88759 0.94566 0.0
H523 H 0.49743 0.86278 0.91419 0.0
C524 C 0.53225 0.85813 0.03379 0.0
C525 C 0.53672 0.83831 0.02235 0.0
C526 C 0.53273 0.87205 0.98983 0.0
C527 C 0.53748 0.86636 0.93352 0.0
C528 C 0.54317 0.84698 0.92258 0.0
H529 H 0.50042 0.92993 0.63747 0.0
H530 H 0.5067 0.90391 0.70522 0.0
C531 C 0.54281 0.83305 0.96669 0.0
C532 C 0.53526 0.88019 0.88568 0.0
H533 H 0.50094 0.90571 0.8194 0.0
C534 C 0.55207 0.88681 0.85235 0.0
C535 C 0.51649 0.88664 0.87258 0.0
C536 C 0.49763 0.87903 0.90449 0.0
C537 C 0.55071 0.90024 0.80724 0.0
C538 C 0.5321 0.90741 0.79593 0.0
C539 C 0.51522 0.90033 0.82835 0.0
C540 C 0.52974 0.9226 0.75164 0.0
C541 C 0.56913 0.90641 0.77178 0.0
C542 C 0.54066 0.94174 0.75508 0.0
C543 C 0.53717 0.95664 0.71629 0.0
C544 C 0.5225 0.95277 0.67365 0.0
C545 C 0.5118 0.93346 0.66979 0.0
C546 C 0.51537 0.91855 0.70846 0.0
H547 H 0.58015 0.89518 0.77407 0.0
H548 H 0.56528 0.90825 0.72614 0.0
H549 H 0.57643 0.92107 0.78853 0.0
H550 H 0.55147 0.94539 0.78886 0.0
H551 H 0.54565 0.97134 0.72078 0.0
H552 H 0.6892 0.48096 0.9458 0.0
H553 H 0.66601 0.49195 0.87559 0.0
H554 H 0.62235 0.44252 0.92068 0.0
H555 H 0.64535 0.43151 0.99112 0.0
H556 H 0.63005 0.44514 0.80315 0.0
H557 H 0.61421 0.51914 0.89698 0.0
H558 H 0.64027 0.51582 0.88902 0.0
H559 H 0.62496 0.50039 0.93804 0.0
C560 C 0.6745 0.47269 0.94165 0.0
C561 C 0.66914 0.45532 0.97397 0.0
C562 C 0.66127 0.47898 0.90147 0.0
C563 C 0.64241 0.46813 0.89321 0.0
C564 C 0.63685 0.4511 0.92636 0.0
H565 H 0.53894 0.49295 0.70284 0.0
H566 H 0.56385 0.48839 0.77594 0.0
C567 C 0.65003 0.44479 0.96644 0.0
C568 C 0.62891 0.47364 0.84758 0.0
H569 H 0.60142 0.5107 0.80414 0.0
C570 C 0.62381 0.45949 0.80329 0.0
C571 C 0.62072 0.49232 0.84813 0.0
C572 C 0.62514 0.50777 0.89578 0.0
C573 C 0.61071 0.46347 0.75953 0.0
C574 C 0.60272 0.48224 0.7596 0.0
C575 C 0.60777 0.49641 0.80392 0.0
C576 C 0.58826 0.4869 0.71552 0.0
C577 C 0.60511 0.44732 0.71441 0.0
C578 C 0.59388 0.48813 0.65747 0.0
C579 C 0.57967 0.49071 0.61559 0.0
C580 C 0.55965 0.49213 0.6312 0.0
C581 C 0.55425 0.49176 0.68955 0.0
C582 C 0.56846 0.48921 0.73135 0.0
H583 H 0.60913 0.43233 0.72729 0.0
H584 H 0.58881 0.44602 0.70567 0.0
H585 H 0.61318 0.45142 0.67392 0.0
H586 H 0.60917 0.48669 0.6445 0.0
H587 H 0.58425 0.49109 0.57095 0.0
H588 H 0.02071 0.65863 0.98576 0.0
H589 H 0.01653 0.62975 0.91957 0.0
H590 H 0.95249 0.63014 0.92786 0.0
H591 H 0.95661 0.65979 0.99267 0.0
H592 H 0.99705 0.59166 0.9259 0.0
H593 H 0.96398 0.63533 0.757 0.0
H594 H 0.97544 0.6473 0.82033 0.0
H595 H 0.9509 0.63377 0.8245 0.0
C596 C 0.00571 0.65267 0.97336 0.0
C597 C 0.98901 0.66179 0.99352 0.0
C598 C 0.00334 0.63601 0.93594 0.0
C599 C 0.98423 0.628 0.91793 0.0
C600 C 0.9674 0.63634 0.94031 0.0
H601 H 0.98164 0.52106 0.68425 0.0
H602 H 0.97347 0.54227 0.76676 0.0
C603 C 0.96977 0.65315 0.97775 0.0
C604 C 0.98241 0.61169 0.87338 0.0
H605 H 0.97071 0.60248 0.73248 0.0
C606 C 0.99102 0.59385 0.88381 0.0
C607 C 0.97465 0.61469 0.81841 0.0
C608 C 0.96584 0.63383 0.80393 0.0
C609 C 0.99297 0.57936 0.84005 0.0
C610 C 0.98572 0.58265 0.78468 0.0
C611 C 0.97622 0.60001 0.77503 0.0
C612 C 0.98982 0.56955 0.73467 0.0
C613 C 0.00382 0.56129 0.85261 0.0
C614 C 0.00124 0.57792 0.6887 0.0
C615 C 0.00576 0.56589 0.6417 0.0
C616 C 0.99901 0.54523 0.63982 0.0
C617 C 0.98732 0.53685 0.68532 0.0
C618 C 0.98267 0.54896 0.73237 0.0
H619 H 0.01182 0.56303 0.89416 0.0
H620 H 0.99285 0.54764 0.85467 0.0
H621 H 0.0148 0.55875 0.8181 0.0
H622 H 0.00691 0.59377 0.68952 0.0
H623 H 0.01475 0.57274 0.60708 0.0
H624 H 0.11238 0.17771 0.17039 0.0
H625 H 0.09704 0.14449 0.19958 0.0
H626 H 0.03856 0.16495 0.18818 0.0
H627 H 0.0536 0.19772 0.15621 0.0
H628 H 0.07443 0.13443 0.29207 0.0
H629 H 0.03039 0.11278 0.09696 0.0
H630 H 0.04967 0.13383 0.09908 0.0
H631 H 0.02499 0.13667 0.12647 0.0
C632 C 0.09624 0.17506 0.17343 0.0
C633 C 0.08424 0.19042 0.16089 0.0
C634 C 0.0875 0.15609 0.19029 0.0
C635 C 0.06663 0.1521 0.19478 0.0
C636 C 0.05466 0.1675 0.18349 0.0
H637 H 0.98494 0.06556 0.36191 0.0
H638 H 0.00081 0.09284 0.30285 0.0
C639 C 0.06334 0.18639 0.16629 0.0
C640 C 0.05736 0.13218 0.21413 0.0
H641 H 0.02124 0.09364 0.18125 0.0
C642 C 0.06303 0.12537 0.26744 0.0
C643 C 0.04251 0.12033 0.1818 0.0
C644 C 0.03668 0.12617 0.12264 0.0
C645 C 0.05369 0.10747 0.29034 0.0
C646 C 0.03836 0.09605 0.25896 0.0
C647 C 0.03298 0.10253 0.2051 0.0
C648 C 0.02716 0.07796 0.28356 0.0
C649 C 0.05977 0.10117 0.34885 0.0
C650 C 0.03638 0.06025 0.2897 0.0
C651 C 0.02732 0.04462 0.32303 0.0
C652 C 0.00898 0.04661 0.35087 0.0
C653 C 0.99906 0.06367 0.34085 0.0
C654 C 0.0081 0.07925 0.30726 0.0
H655 H 0.07018 0.11296 0.37052 0.0
H656 H 0.04637 0.09779 0.37659 0.0
H657 H 0.0673 0.08719 0.34447 0.0
H658 H 0.05108 0.05901 0.27144 0.0
H659 H 0.03531 0.03163 0.33012 0.0
H660 H 0.29017 0.98821 0.23959 0.0
H661 H 0.31341 0.97293 0.30102 0.0
H662 H 0.35356 0.02793 0.29854 0.0
H663 H 0.33011 0.04356 0.23905 0.0
H664 H 0.35138 0.96595 0.27345 0.0
H665 H 0.35208 0.01511 0.46736 0.0
H666 H 0.33301 0.01481 0.41326 0.0
H667 H 0.35682 0.02959 0.40387 0.0
C668 C 0.3037 0.99724 0.25338 0.0
C669 C 0.30827 0.01715 0.23458 0.0
C670 C 0.31703 0.98842 0.28811 0.0
C671 C 0.33508 0.99937 0.30494 0.0
C672 C 0.33952 0.01934 0.28707 0.0
H673 H 0.45076 0.97063 0.37189 0.0
H674 H 0.41787 0.97284 0.33084 0.0
C675 C 0.32621 0.02818 0.25249 0.0
C676 C 0.35003 0.98957 0.33753 0.0
H677 H 0.38082 0.99677 0.453 0.0
C678 C 0.35758 0.97245 0.3133 0.0
C679 C 0.35782 0.99777 0.39009 0.0
C680 C 0.34935 0.0152 0.42046 0.0
C681 C 0.37362 0.96411 0.33835 0.0
C682 C 0.38255 0.97342 0.38821 0.0
C683 C 0.37413 0.98973 0.4144 0.0
C684 C 0.40171 0.96795 0.41097 0.0
C685 C 0.38103 0.94564 0.3106 0.0
C686 C 0.4036 0.96418 0.46954 0.0
C687 C 0.42246 0.96315 0.4932 0.0
C688 C 0.4397 0.96592 0.45861 0.0
C689 C 0.43769 0.96828 0.3994 0.0
C690 C 0.41886 0.96944 0.37583 0.0
H691 H 0.36874 0.93629 0.28788 0.0
H692 H 0.39271 0.95042 0.27833 0.0
H693 H 0.38756 0.93619 0.34258 0.0
H694 H 0.39058 0.96307 0.49747 0.0
H695 H 0.42363 0.9614 0.53907 0.0
H696 H 0.43916 0.32242 0.05512 0.0
H697 H 0.45502 0.3547 0.09302 0.0
H698 H 0.44494 0.33358 0.26549 0.0
H699 H 0.42954 0.30106 0.22765 0.0
H700 H 0.44259 0.38358 0.16032 0.0
H701 H 0.50404 0.3508 0.26795 0.0
H702 H 0.48739 0.33637 0.21847 0.0
H703 H 0.4801 0.33965 0.29232 0.0
C704 C 0.44014 0.32477 0.10114 0.0
C705 C 0.43319 0.30926 0.13856 0.0
C706 C 0.44929 0.34316 0.1227 0.0
C707 C 0.45161 0.34637 0.18201 0.0
C708 C 0.44389 0.3312 0.2195 0.0
H709 H 0.46731 0.45337 0.38404 0.0
H710 H 0.4561 0.42604 0.31754 0.0
C711 C 0.43495 0.31271 0.19795 0.0
C712 C 0.46204 0.36559 0.2048 0.0
H713 H 0.49859 0.38453 0.2975 0.0
C714 C 0.45501 0.38383 0.18975 0.0
C715 C 0.47865 0.36599 0.24176 0.0
C716 C 0.48813 0.34716 0.25553 0.0
C717 C 0.4634 0.40235 0.21328 0.0
C718 C 0.47885 0.40253 0.25417 0.0
C719 C 0.48661 0.38441 0.26666 0.0
C720 C 0.48586 0.42085 0.28866 0.0
C721 C 0.45552 0.42146 0.19419 0.0
C722 C 0.5064 0.427 0.29539 0.0
C723 C 0.5129 0.44252 0.33453 0.0
C724 C 0.49891 0.45205 0.3673 0.0
C725 C 0.47841 0.4464 0.35888 0.0
C726 C 0.47196 0.43086 0.3204 0.0
H727 H 0.4502 0.41987 0.14921 0.0
H728 H 0.44255 0.42449 0.22157 0.0
H729 H 0.46707 0.43464 0.19742 0.0
H730 H 0.5174 0.41939 0.27165 0.0
H731 H 0.52878 0.44657 0.34049 0.0
H732 H 0.17851 0.51825 0.04122 0.0
H733 H 0.14788 0.53259 0.07067 0.0
H734 H 0.16364 0.527 0.2482 0.0
H735 H 0.19458 0.51355 0.21866 0.0
H736 H 0.11928 0.51211 0.12171 0.0
H737 H 0.13948 0.57847 0.26087 0.0
H738 H 0.15765 0.56817 0.21442 0.0
H739 H 0.15268 0.55841 0.28534 0.0
C740 C 0.17561 0.52066 0.08648 0.0
C741 C 0.18872 0.51474 0.12785 0.0
C742 C 0.15819 0.52891 0.10326 0.0
C743 C 0.15349 0.53113 0.16167 0.0
C744 C 0.16715 0.52609 0.20291 0.0
H745 H 0.05926 0.48995 0.35517 0.0
H746 H 0.08479 0.49788 0.28209 0.0
C747 C 0.18475 0.51819 0.1861 0.0
C748 C 0.13306 0.5351 0.17978 0.0
H749 H 0.10834 0.55717 0.28829 0.0
C750 C 0.11684 0.52249 0.15689 0.0
C751 C 0.12957 0.54894 0.22465 0.0
C752 C 0.14581 0.5644 0.24711 0.0
C753 C 0.0978 0.52173 0.18194 0.0
C754 C 0.09505 0.53349 0.23185 0.0
C755 C 0.1106 0.54779 0.25069 0.0
C756 C 0.07781 0.52851 0.27056 0.0
C757 C 0.08108 0.50741 0.15682 0.0
C758 C 0.06543 0.54314 0.28851 0.0
C759 C 0.05073 0.53858 0.33054 0.0
C760 C 0.04858 0.51949 0.3556 0.0
C761 C 0.06061 0.50477 0.33641 0.0
C762 C 0.0751 0.50925 0.29434 0.0
H763 H 0.08298 0.50564 0.10968 0.0
H764 H 0.08138 0.49231 0.17574 0.0
H765 H 0.06625 0.51269 0.16589 0.0
H766 H 0.06747 0.55816 0.27105 0.0
H767 H 0.04166 0.5502 0.34509 0.0
H768 H 0.00887 0.83404 0.09873 0.0
H769 H 0.00641 0.8667 0.05461 0.0
H770 H 0.01514 0.83989 0.88755 0.0
H771 H 0.01739 0.8072 0.93128 0.0
H772 H 0.03246 0.89069 0.98887 0.0
H773 H 0.96399 0.86576 0.86589 0.0
H774 H 0.97292 0.85092 0.92209 0.0
H775 H 0.98352 0.85005 0.85103 0.0
C776 C 0.01044 0.83517 0.05263 0.0
C777 C 0.01323 0.81806 0.01835 0.0
C778 C 0.00894 0.8538 0.0275 0.0
C779 C 0.01016 0.85562 0.96774 0.0
C780 C 0.01359 0.8387 0.93363 0.0
H781 H 0.0397 0.9548 0.7501 0.0
H782 H 0.03931 0.9287 0.82187 0.0
C783 C 0.01496 0.82006 0.95864 0.0
C784 C 0.00805 0.87519 0.94075 0.0
H785 H 0.98268 0.89652 0.83626 0.0
C786 C 0.02142 0.89207 0.956 0.0
C787 C 0.9933 0.87713 0.89898 0.0
C788 C 0.97748 0.86005 0.88398 0.0
C789 C 0.02114 0.91053 0.92828 0.0
C790 C 0.00741 0.91196 0.88331 0.0
C791 C 0.99336 0.89539 0.8703 0.0
C792 C 0.00827 0.92981 0.84608 0.0
C793 C 0.03562 0.92823 0.94732 0.0
C794 C 0.99094 0.93915 0.83551 0.0
C795 C 0.99107 0.95391 0.79374 0.0
C796 C 0.00853 0.95951 0.76192 0.0
C797 C 0.02607 0.95085 0.77433 0.0
C798 C 0.0259 0.93602 0.8157 0.0
H799 H 0.03952 0.92715 0.99324 0.0
H800 H 0.04965 0.92823 0.92193 0.0
H801 H 0.0294 0.94279 0.94099 0.0
H802 H 0.97714 0.93452 0.85822 0.0
H803 H 0.97733 0.96035 0.78486 0.0
H804 H 0.73065 0.07605 0.88568 0.0
H805 H 0.7018 0.07437 0.82175 0.0
H806 H 0.66207 0.07079 0.96813 0.0
H807 H 0.6907 0.07197 0.03215 0.0
H808 H 0.65441 0.03939 0.88593 0.0
H809 H 0.66096 0.1147 0.78564 0.0
H810 H 0.68339 0.10226 0.78456 0.0
H811 H 0.67327 0.1101 0.85187 0.0
C812 C 0.71577 0.07515 0.90423 0.0
C813 C 0.71296 0.07411 0.96397 0.0
C814 C 0.69933 0.0744 0.8677 0.0
C815 C 0.67984 0.07265 0.89032 0.0
C816 C 0.67702 0.07231 0.94993 0.0
H817 H 0.56404 0.06552 0.72541 0.0
H818 H 0.59404 0.07626 0.78208 0.0
C819 C 0.69342 0.07311 0.98645 0.0
C820 C 0.66237 0.06898 0.85201 0.0
H821 H 0.63702 0.08947 0.74555 0.0
C822 C 0.65056 0.05037 0.85541 0.0
C823 C 0.6574 0.08338 0.81244 0.0
C824 C 0.66929 0.10382 0.80849 0.0
C825 C 0.63401 0.04563 0.81975 0.0
C826 C 0.62928 0.05983 0.7793 0.0
C827 C 0.64087 0.07859 0.77637 0.0
C828 C 0.61215 0.05527 0.7403 0.0
C829 C 0.62159 0.02552 0.82578 0.0
C830 C 0.61269 0.04034 0.6972 0.0
C831 C 0.59566 0.03421 0.66491 0.0
C832 C 0.57784 0.04293 0.67534 0.0
C833 C 0.57759 0.05854 0.71669 0.0
C834 C 0.59468 0.0647 0.74892 0.0
H835 H 0.62495 0.01795 0.86597 0.0
H836 H 0.60539 0.02742 0.82522 0.0
H837 H 0.62478 0.01548 0.78903 0.0
H838 H 0.62612 0.033 0.68981 0.0
H839 H 0.59626 0.02221 0.63308 0.0
H840 H 0.49258 0.70431 0.95381 0.0
H841 H 0.49265 0.67191 0.90312 0.0
H842 H 0.4948 0.64186 0.06448 0.0
H843 H 0.49593 0.67431 0.11542 0.0
H844 H 0.52163 0.62953 0.99134 0.0
H845 H 0.44891 0.62662 0.88124 0.0
H846 H 0.46465 0.64933 0.86575 0.0
H847 H 0.45602 0.64469 0.93807 0.0
C848 C 0.49305 0.69082 0.9786 0.0
C849 C 0.49421 0.69197 0.03878 0.0
C850 C 0.49282 0.67225 0.94954 0.0
C851 C 0.49339 0.6544 0.98003 0.0
C852 C 0.49419 0.65543 0.04009 0.0
H853 H 0.47519 0.53857 0.79586 0.0
H854 H 0.47253 0.56579 0.86676 0.0
C855 C 0.49461 0.674 0.06918 0.0
C856 C 0.49437 0.63485 0.9491 0.0
H857 H 0.47178 0.6042 0.8444 0.0
C858 C 0.5106 0.62386 0.95969 0.0
C859 C 0.47981 0.62724 0.90855 0.0
C860 C 0.46126 0.63748 0.89817 0.0
C861 C 0.51303 0.60586 0.92936 0.0
C862 C 0.49916 0.59897 0.88618 0.0
C863 C 0.48256 0.60958 0.87707 0.0
C864 C 0.50182 0.58123 0.84845 0.0
C865 C 0.53038 0.59439 0.94422 0.0
C866 C 0.51929 0.58067 0.81524 0.0
C867 C 0.52094 0.56497 0.77537 0.0
C868 C 0.50499 0.5498 0.76729 0.0
C869 C 0.48772 0.55008 0.80141 0.0
C870 C 0.48616 0.56564 0.84175 0.0
H871 H 0.53518 0.59756 0.98926 0.0
H872 H 0.52653 0.57786 0.93828 0.0
H873 H 0.54328 0.59925 0.91595 0.0
H874 H 0.53135 0.59277 0.81846 0.0
H875 H 0.53433 0.5652 0.74913 0.0
H876 H 0.80604 0.45216 0.94917 0.0
H877 H 0.83824 0.45638 0.89952 0.0
H878 H 0.84655 0.39436 0.93094 0.0
H879 H 0.81395 0.38974 0.97963 0.0
H880 H 0.88058 0.42573 0.95922 0.0
H881 H 0.85059 0.42997 0.73915 0.0
H882 H 0.83999 0.44567 0.79235 0.0
H883 H 0.83585 0.4187 0.79759 0.0
C884 C 0.81447 0.43926 0.94464 0.0
C885 C 0.80728 0.42053 0.96786 0.0
C886 C 0.83294 0.44177 0.91663 0.0
C887 C 0.84462 0.42564 0.91135 0.0
C888 C 0.83767 0.40696 0.9347 0.0
H889 H 0.94672 0.42977 0.68098 0.0
H890 H 0.91778 0.41772 0.73964 0.0
C891 C 0.81909 0.40439 0.96255 0.0
C892 C 0.86414 0.42853 0.88156 0.0
H893 H 0.88528 0.43981 0.75131 0.0
C894 C 0.88169 0.42861 0.91367 0.0
C895 C 0.86542 0.43212 0.82216 0.0
C896 C 0.84699 0.43147 0.78551 0.0
C897 C 0.9006 0.43287 0.88798 0.0
C898 C 0.90184 0.43727 0.82897 0.0
C899 C 0.88427 0.43654 0.79666 0.0
C900 C 0.9211 0.44308 0.79952 0.0
C901 C 0.91907 0.43265 0.92401 0.0
C902 C 0.9328 0.46114 0.81455 0.0
C903 C 0.94941 0.46805 0.78108 0.0
C904 C 0.95438 0.45705 0.732 0.0
C905 C 0.94318 0.43856 0.71859 0.0
C906 C 0.92666 0.43165 0.75201 0.0
H907 H 0.91585 0.42406 0.96392 0.0
H908 H 0.93105 0.42592 0.89959 0.0
H909 H 0.92476 0.44838 0.93635 0.0
H910 H 0.92854 0.47036 0.85047 0.0
H911 H 0.95776 0.48242 0.79205 0.0
H912 H 0.102 0.19804 0.86252 0.0
H913 H 0.08998 0.1667 0.81231 0.0
H914 H 0.03199 0.18774 0.79392 0.0
H915 H 0.04394 0.21926 0.84499 0.0
H916 H 0.02925 0.1493 0.83229 0.0
H917 H 0.07991 0.15612 0.64377 0.0
H918 H 0.09327 0.15853 0.71015 0.0
H919 H 0.07692 0.17709 0.69213 0.0
C920 C 0.08682 0.19625 0.84663 0.0
C921 C 0.074 0.21128 0.85704 0.0
C922 C 0.07995 0.17827 0.81798 0.0
C923 C 0.06019 0.17499 0.79843 0.0
C924 C 0.04734 0.19 0.80839 0.0
H925 H 0.01844 0.07693 0.56521 0.0
H926 H 0.02825 0.10945 0.61185 0.0
C927 C 0.05418 0.20799 0.83748 0.0
C928 C 0.0528 0.15551 0.76993 0.0
H929 H 0.06272 0.12346 0.65981 0.0
C930 C 0.03645 0.14371 0.79428 0.0
C931 C 0.06207 0.14831 0.72003 0.0
C932 C 0.07888 0.16077 0.68964 0.0
C933 C 0.02936 0.12472 0.77071 0.0
C934 C 0.03921 0.11715 0.72228 0.0
C935 C 0.05533 0.12913 0.69739 0.0
C936 C 0.03268 0.09715 0.69527 0.0
C937 C 0.01118 0.11317 0.79732 0.0
C938 C 0.03198 0.0793 0.72656 0.0
C939 C 0.02617 0.06055 0.7 0.0
C940 C 0.02129 0.05932 0.64146 0.0
C941 C 0.02219 0.07724 0.6103 0.0
C942 C 0.02779 0.09591 0.63691 0.0
H943 H 0.00222 0.12326 0.82287 0.0
H944 H 0.00143 0.10517 0.76405 0.0
H945 H 0.01606 0.10178 0.82659 0.0
H946 H 0.03616 0.07982 0.77131 0.0
H947 H 0.02574 0.04703 0.72513 0.0
H948 H 0.29877 0.0136 0.7901 0.0
H949 H 0.32961 0.00938 0.73598 0.0
H950 H 0.36203 0.00964 0.89486 0.0
H951 H 0.33123 0.01277 0.94852 0.0
H952 H 0.36217 0.03258 0.72554 0.0
H953 H 0.38322 0.96295 0.81978 0.0
H954 H 0.35904 0.97154 0.83261 0.0
H955 H 0.38023 0.98117 0.87581 0.0
C956 C 0.31245 0.01232 0.81323 0.0
C957 C 0.31256 0.01312 0.87345 0.0
C958 C 0.33007 0.00998 0.78238 0.0
C959 C 0.34818 0.00869 0.81121 0.0
C960 C 0.34823 0.00975 0.87142 0.0
H961 H 0.46676 0.0458 0.68186 0.0
H962 H 0.43257 0.04334 0.71947 0.0
C963 C 0.3306 0.01165 0.90216 0.0
C964 C 0.36727 0.00763 0.77879 0.0
H965 H 0.41022 0.98458 0.77667 0.0
C966 C 0.37252 0.02185 0.73615 0.0
C967 C 0.38072 0.99337 0.79128 0.0
C968 C 0.37538 0.97628 0.83189 0.0
C969 C 0.3911 0.02279 0.70767 0.0
C970 C 0.40526 0.00973 0.724 0.0
C971 C 0.39965 0.99492 0.76477 0.0
C972 C 0.42605 0.01134 0.70036 0.0
C973 C 0.39516 0.03762 0.65992 0.0
C974 C 0.43427 0.99405 0.67954 0.0
C975 C 0.45409 0.99536 0.65998 0.0
C976 C 0.46598 0.01401 0.65962 0.0
C977 C 0.45785 0.03127 0.68077 0.0
C978 C 0.43818 0.0299 0.70159 0.0
H979 H 0.38104 0.04069 0.63906 0.0
H980 H 0.40228 0.05216 0.67792 0.0
H981 H 0.40522 0.03202 0.62664 0.0
H982 H 0.4254 0.97949 0.67878 0.0
H983 H 0.46016 0.98168 0.64585 0.0
H984 H 0.46531 0.30612 0.92309 0.0
H985 H 0.47371 0.33799 0.87468 0.0
H986 H 0.45757 0.3089 0.71227 0.0
H987 H 0.44906 0.27676 0.76062 0.0
H988 H 0.50054 0.34957 0.78786 0.0
H989 H 0.42231 0.3551 0.72045 0.0
H990 H 0.42862 0.33705 0.77198 0.0
H991 H 0.43246 0.33249 0.69668 0.0
C992 C 0.46393 0.30634 0.8769 0.0
C993 C 0.45654 0.28885 0.84567 0.0
C994 C 0.46861 0.32464 0.84935 0.0
C995 C 0.46592 0.3259 0.79007 0.0
C996 C 0.45931 0.30834 0.75829 0.0
H997 H 0.48255 0.42814 0.56278 0.0
H998 H 0.4755 0.39469 0.6039 0.0
C999 C 0.45454 0.28999 0.7859 0.0
C1000 C 0.46967 0.34576 0.76223 0.0
H1001 H 0.44682 0.38078 0.68959 0.0
C1002 C 0.4888 0.35639 0.76633 0.0
C1003 C 0.4543 0.35465 0.73436 0.0
C1004 C 0.43321 0.34436 0.7309 0.0
C1005 C 0.49303 0.37563 0.74299 0.0
C1006 C 0.47763 0.38457 0.71555 0.0
C1007 C 0.45856 0.37386 0.7108 0.0
C1008 C 0.48106 0.40502 0.69137 0.0
C1009 C 0.514 0.38615 0.74726 0.0
C1010 C 0.48601 0.42198 0.72719 0.0
C1011 C 0.49 0.44117 0.7039 0.0
C1012 C 0.48909 0.44371 0.64431 0.0
C1013 C 0.48351 0.42673 0.60881 0.0
C1014 C 0.47946 0.40759 0.63218 0.0
H1015 H 0.52502 0.37549 0.75737 0.0
H1016 H 0.51857 0.39378 0.70663 0.0
H1017 H 0.51451 0.39783 0.78201 0.0
H1018 H 0.48696 0.42034 0.77314 0.0
H1019 H 0.4942 0.45391 0.7325 0.0
H1020 H 0.20388 0.51568 0.90379 0.0
H1021 H 0.17261 0.51934 0.85498 0.0
H1022 H 0.1887 0.4791 0.71933 0.0
H1023 H 0.2203 0.47551 0.76757 0.0
H1024 H 0.16257 0.53121 0.74309 0.0
H1025 H 0.13573 0.45109 0.78585 0.0
H1026 H 0.15738 0.46419 0.82059 0.0
H1027 H 0.15916 0.455 0.74797 0.0
C1028 C 0.20114 0.50808 0.86268 0.0
C1029 C 0.21465 0.49523 0.83972 0.0
C1030 C 0.18312 0.51007 0.83508 0.0
C1031 C 0.17816 0.49919 0.78417 0.0
C1032 C 0.19208 0.48732 0.75923 0.0
H1033 H 0.07702 0.50923 0.56238 0.0
H1034 H 0.11005 0.51018 0.60499 0.0
C1035 C 0.21015 0.48533 0.78677 0.0
C1036 C 0.15795 0.49938 0.75926 0.0
H1037 H 0.11462 0.46925 0.73105 0.0
C1038 C 0.15208 0.51767 0.7403 0.0
C1039 C 0.14417 0.48177 0.7568 0.0
C1040 C 0.14928 0.46191 0.77931 0.0
C1041 C 0.13289 0.51876 0.71799 0.0
C1042 C 0.11931 0.50102 0.71402 0.0
C1043 C 0.12509 0.4828 0.73382 0.0
C1044 C 0.0991 0.50095 0.68885 0.0
C1045 C 0.1272 0.53894 0.69977 0.0
C1046 C 0.08189 0.49505 0.72152 0.0
C1047 C 0.06286 0.49437 0.69718 0.0
C1048 C 0.06069 0.49944 0.6395 0.0
C1049 C 0.07802 0.50531 0.607 0.0
C1050 C 0.09698 0.506 0.63136 0.0
H1051 H 0.13703 0.55165 0.71954 0.0
H1052 H 0.12876 0.54002 0.65251 0.0
H1053 H 0.11143 0.54069 0.71149 0.0
H1054 H 0.0832 0.49097 0.76592 0.0
H1055 H 0.0499 0.48973 0.72347 0.0
H1056 H 0.95307 0.80383 0.19066 0.0
H1057 H 0.94878 0.83748 0.22836 0.0
H1058 H 0.95521 0.81709 0.40059 0.0
H1059 H 0.95869 0.78301 0.36345 0.0
H1060 H 0.92762 0.84701 0.38975 0.0
H1061 H 0.00126 0.86895 0.28522 0.0
H1062 H 0.98183 0.85794 0.23838 0.0
H1063 H 0.99119 0.84296 0.29306 0.0
C1064 C 0.95276 0.80619 0.23672 0.0
C1065 C 0.95652 0.79072 0.27401 0.0
C1066 C 0.95054 0.82556 0.25812 0.0
C1067 C 0.95223 0.82987 0.31707 0.0
C1068 C 0.95408 0.8141 0.35484 0.0
H1069 H 0.97663 0.92986 0.54983 0.0
H1070 H 0.96568 0.89775 0.50219 0.0
C1071 C 0.95617 0.79466 0.33352 0.0
C1072 C 0.95452 0.85104 0.33872 0.0
H1073 H 0.9868 0.89423 0.33715 0.0
C1074 C 0.94045 0.85742 0.37798 0.0
C1075 C 0.97133 0.86455 0.3233 0.0
C1076 C 0.98738 0.85829 0.28307 0.0
C1077 C 0.94283 0.87697 0.40257 0.0
C1078 C 0.95992 0.89027 0.38824 0.0
C1079 C 0.97367 0.88404 0.34786 0.0
C1080 C 0.96471 0.91017 0.41746 0.0
C1081 C 0.92705 0.88318 0.44363 0.0
C1082 C 0.96816 0.92784 0.38554 0.0
C1083 C 0.97465 0.9463 0.41261 0.0
C1084 C 0.97797 0.94737 0.47211 0.0
C1085 C 0.9742 0.92966 0.50397 0.0
C1086 C 0.96772 0.91126 0.47689 0.0
H1087 H 0.91238 0.87421 0.43596 0.0
H1088 H 0.9316 0.88047 0.48817 0.0
H1089 H 0.92519 0.89945 0.43996 0.0
H1090 H 0.96611 0.92728 0.33949 0.0
H1091 H 0.97742 0.9596 0.38673 0.0
H1092 H 0.70518 0.98512 0.24701 0.0
H1093 H 0.67231 0.97686 0.29243 0.0
H1094 H 0.67601 0.03654 0.3691 0.0
H1095 H 0.70851 0.04505 0.32344 0.0
H1096 H 0.65968 0.98109 0.41835 0.0
H1097 H 0.62392 0.02904 0.2662 0.0
H1098 H 0.64765 0.01959 0.25133 0.0
H1099 H 0.64631 0.04057 0.30024 0.0
C1100 C 0.69905 0.99643 0.27389 0.0
C1101 C 0.70951 0.01576 0.28152 0.0
C1102 C 0.68033 0.99165 0.29997 0.0
C1103 C 0.67172 0.00617 0.33362 0.0
C1104 C 0.6824 0.02517 0.34301 0.0
H1105 H 0.55827 0.022 0.49167 0.0
H1106 H 0.59251 0.02497 0.45426 0.0
C1107 C 0.70108 0.02993 0.31725 0.0
C1108 C 0.65112 0.00201 0.35663 0.0
H1109 H 0.60416 0.01631 0.34435 0.0
C1110 C 0.64746 0.98862 0.40203 0.0
C1111 C 0.63529 0.01191 0.33513 0.0
C1112 C 0.63834 0.02598 0.28524 0.0
C1113 C 0.62842 0.98538 0.42781 0.0
C1114 C 0.61262 0.99551 0.40674 0.0
C1115 C 0.61628 0.00861 0.36061 0.0
C1116 C 0.59224 0.99321 0.43248 0.0
C1117 C 0.62555 0.9717 0.47856 0.0
C1118 C 0.58067 0.97436 0.43268 0.0
C1119 C 0.5611 0.97261 0.45447 0.0
C1120 C 0.55274 0.98971 0.47593 0.0
C1121 C 0.56436 0.00853 0.47578 0.0
C1122 C 0.58391 0.01026 0.45427 0.0
H1123 H 0.64004 0.96917 0.49817 0.0
H1124 H 0.61599 0.97806 0.51188 0.0
H1125 H 0.61803 0.95682 0.46424 0.0
H1126 H 0.58662 0.96108 0.41497 0.0
H1127 H 0.55244 0.95793 0.45382 0.0
H1128 H 0.58453 0.70883 0.27631 0.0
H1129 H 0.58717 0.67524 0.31485 0.0
H1130 H 0.53293 0.67909 0.41219 0.0
H1131 H 0.52974 0.71206 0.37307 0.0
H1132 H 0.58459 0.65891 0.43864 0.0
H1133 H 0.52316 0.62997 0.29136 0.0
H1134 H 0.53827 0.65373 0.28097 0.0
H1135 H 0.51856 0.65189 0.33367 0.0
C1136 C 0.57333 0.70265 0.30659 0.0
C1137 C 0.55685 0.71317 0.32116 0.0
C1138 C 0.57494 0.68353 0.32875 0.0
C1139 C 0.5601 0.67469 0.36572 0.0
C1140 C 0.54447 0.68568 0.38346 0.0
H1141 H 0.53636 0.57238 0.57541 0.0
H1142 H 0.54778 0.60504 0.53501 0.0
C1143 C 0.54281 0.70468 0.36137 0.0
C1144 C 0.55956 0.65329 0.38159 0.0
H1145 H 0.53103 0.60811 0.36491 0.0
C1146 C 0.57309 0.64768 0.42209 0.0
C1147 C 0.54476 0.63866 0.35903 0.0
C1148 C 0.53044 0.64374 0.31345 0.0
C1149 C 0.57151 0.62791 0.44285 0.0
C1150 C 0.55581 0.61362 0.42309 0.0
C1151 C 0.54298 0.61906 0.38036 0.0
C1152 C 0.55137 0.59342 0.44861 0.0
C1153 C 0.58655 0.62259 0.48598 0.0
C1154 C 0.54936 0.57596 0.41343 0.0
C1155 C 0.54251 0.55722 0.43627 0.0
C1156 C 0.53748 0.5556 0.49477 0.0
C1157 C 0.54012 0.57303 0.53021 0.0
C1158 C 0.54687 0.59174 0.50727 0.0
H1159 H 0.60094 0.63233 0.48165 0.0
H1160 H 0.58066 0.62503 0.52987 0.0
H1161 H 0.58945 0.60655 0.48114 0.0
H1162 H 0.55261 0.57692 0.36794 0.0
H1163 H 0.54073 0.54412 0.40776 0.0
H1164 H 0.80091 0.43325 0.29426 0.0
H1165 H 0.83189 0.4444 0.34437 0.0
H1166 H 0.81934 0.50632 0.33328 0.0
H1167 H 0.78844 0.49516 0.28095 0.0
H1168 H 0.85666 0.50349 0.3054 0.0
H1169 H 0.84166 0.46217 0.50599 0.0
H1170 H 0.839 0.44497 0.44584 0.0
H1171 H 0.82238 0.46436 0.45401 0.0
C1172 C 0.80453 0.44922 0.30354 0.0
C1173 C 0.79212 0.46333 0.28446 0.0
C1174 C 0.82224 0.45558 0.3324 0.0
C1175 C 0.82776 0.47618 0.34401 0.0
C1176 C 0.81532 0.49034 0.32528 0.0
H1177 H 0.93202 0.50425 0.5645 0.0
H1178 H 0.8982 0.50244 0.52592 0.0
C1179 C 0.79768 0.48397 0.29552 0.0
C1180 C 0.84713 0.4828 0.37247 0.0
H1181 H 0.87643 0.47215 0.48402 0.0
C1182 C 0.86087 0.49688 0.34498 0.0
C1183 C 0.85256 0.47457 0.42479 0.0
C1184 C 0.838 0.46087 0.45962 0.0
C1185 C 0.88015 0.50221 0.36689 0.0
C1186 C 0.88614 0.49264 0.41654 0.0
C1187 C 0.87207 0.47928 0.44542 0.0
C1188 C 0.90697 0.49571 0.43862 0.0
C1189 C 0.89378 0.51814 0.33663 0.0
C1190 C 0.92329 0.4927 0.40251 0.0
C1191 C 0.94271 0.49416 0.4243 0.0
C1192 C 0.94613 0.49807 0.483 0.0
C1193 C 0.92984 0.50114 0.51909 0.0
C1194 C 0.91049 0.5001 0.49706 0.0
H1195 H 0.88506 0.52884 0.31439 0.0
H1196 H 0.90421 0.52686 0.36694 0.0
H1197 H 0.90267 0.51078 0.30358 0.0
H1198 H 0.92098 0.48861 0.35772 0.0
H1199 H 0.95493 0.49145 0.3956 0.0
loop_
_geom_bond_atom_site_label_1
_geom_bond_atom_site_label_2
_geom_bond_distance
_geom_bond_site_symmetry_2
_ccdc_geom_bond_type
P0 O11 1.490 . S
P0 C14 1.812 . S
P0 C20 1.803 . S
P0 C26 1.819 1_554 S
H1 C15 0.941 . S
H2 C16 0.939 . S
H3 C18 0.940 . S
H4 C19 0.940 . S
H5 C21 0.939 . S
H6 C22 0.942 . S
H7 C24 0.940 . S
H8 C25 0.939 . S
H9 C27 0.941 . S
H10 C31 0.939 . S
O11 P0 1.490 . S
H12 C28 0.939 . S
H13 C30 0.940 . S
C14 P0 1.812 . S
C14 C15 1.389 . S
C14 C19 1.391 . S
C15 H1 0.941 . S
C15 C14 1.389 . S
C15 C16 1.397 . S
C16 H2 0.939 . S
C16 C15 1.397 . S
C16 C17 1.378 . S
C17 C16 1.378 . S
C17 C18 1.378 . S
C18 H3 0.940 . S
C18 C17 1.378 . S
C18 C19 1.396 . S
C19 H4 0.940 . S
C19 C14 1.391 . S
C19 C18 1.396 . S
C20 P0 1.803 . S
C20 C21 1.378 1_554 S
C20 C25 1.400 . S
C21 H5 0.939 . S
C21 C20 1.378 1_556 S
C21 C22 1.361 . S
C22 H6 0.942 . S
C22 C21 1.361 . S
C22 C23 1.369 . S
C23 C22 1.369 . S
C23 C24 1.404 1_556 S
C24 H7 0.940 . S
C24 C23 1.404 1_554 S
C24 C25 1.389 . S
C25 H8 0.939 . S
C25 C20 1.400 . S
C25 C24 1.389 . S
C26 P0 1.819 1_556 S
C26 C27 1.391 . S
C26 C31 1.391 . S
C27 H9 0.941 . S
C27 C26 1.391 . S
C27 C28 1.396 . S
C28 H12 0.939 . S
C28 C27 1.396 . S
C28 C29 1.397 . S
C29 C28 1.397 . S
C29 C30 1.385 . S
C30 H13 0.940 . S
C30 C29 1.385 . S
C30 C31 1.388 . S
C31 H10 0.939 . S
C31 C26 1.391 . S
C31 C30 1.388 . S
P32 O43 1.490 . S
P32 C46 1.812 . S
P32 C52 1.803 1_554 S
P32 C58 1.819 1_554 S
H33 C47 0.941 . S
H34 C48 0.939 . S
H35 C50 0.940 . S
H36 C51 0.940 . S
H37 C53 0.939 . S
H38 C54 0.942 . S
H39 C56 0.940 1_554 S
H40 C57 0.939 . S
H41 C59 0.941 . S
H42 C63 0.939 . S
O43 P32 1.490 . S
H44 C60 0.939 . S
H45 C62 0.940 . S
C46 P32 1.812 . S
C46 C47 1.389 . S
C46 C51 1.391 . S
C47 H33 0.941 . S
C47 C46 1.389 . S
C47 C48 1.397 . S
C48 H34 0.939 . S
C48 C47 1.397 . S
C48 C49 1.378 . S
C49 C48 1.378 . S
C49 C50 1.378 . S
C50 H35 0.940 . S
C50 C49 1.378 . S
C50 C51 1.396 . S
C51 H36 0.940 . S
C51 C46 1.391 . S
C51 C50 1.396 . S
C52 P32 1.803 1_556 S
C52 C53 1.378 . S
C52 C57 1.400 1_556 S
C53 H37 0.939 . S
C53 C52 1.378 . S
C53 C54 1.361 . S
C54 H38 0.942 . S
C54 C53 1.361 . S
C54 C55 1.369 . S
C55 C54 1.369 . S
C55 C56 1.404 . S
C56 H39 0.940 1_556 S
C56 C55 1.404 . S
C56 C57 1.389 1_556 S
C57 H40 0.939 . S
C57 C52 1.400 1_554 S
C57 C56 1.389 1_554 S
C58 P32 1.819 1_556 S
C58 C59 1.391 . S
C58 C63 1.391 . S
C59 H41 0.941 . S
C59 C58 1.391 . S
C59 C60 1.396 . S
C60 H44 0.939 . S
C60 C59 1.396 . S
C60 C61 1.397 . S
C61 C60 1.397 . S
C61 C62 1.385 . S
C62 H45 0.940 . S
C62 C61 1.385 . S
C62 C63 1.388 . S
C63 H42 0.939 . S
C63 C58 1.391 . S
C63 C62 1.388 . S
P64 O75 1.490 . S
P64 C78 1.812 . S
P64 C84 1.803 . S
P64 C90 1.819 1_554 S
H65 C79 0.941 . S
H66 C80 0.939 . S
H67 C82 0.940 . S
H68 C83 0.950 . S
H69 C85 0.939 . S
H70 C86 0.942 . S
H71 C88 0.940 . S
H72 C89 0.957 . S
H73 C91 0.941 1_554 S
H74 C95 0.926 1_565 S
O75 P64 1.490 . S
H76 C92 0.939 . S
H77 C94 0.940 . S
C78 P64 1.812 . S
C78 C79 1.389 . S
C78 C83 1.376 1_545 S
C79 H65 0.941 . S
C79 C78 1.389 . S
C79 C80 1.397 . S
C80 H66 0.939 . S
C80 C79 1.397 . S
C80 C81 1.378 . S
C81 C80 1.378 . S
C81 C82 1.378 1_545 S
C82 H67 0.940 . S
C82 C81 1.378 1_565 S
C82 C83 1.402 . S
C83 H68 0.950 . S
C83 C78 1.376 1_565 S
C83 C82 1.402 . S
C84 P64 1.803 . S
C84 C85 1.378 1_554 S
C84 C89 1.367 1_545 S
C85 H69 0.939 . S
C85 C84 1.378 1_556 S
C85 C86 1.361 . S
C86 H70 0.942 . S
C86 C85 1.361 . S
C86 C87 1.369 . S
C87 C86 1.369 . S
C87 C88 1.404 1_546 S
C88 H71 0.940 . S
C88 C87 1.404 1_564 S
C88 C89 1.405 . S
C89 H72 0.957 . S
C89 C84 1.367 1_565 S
C89 C88 1.405 . S
C90 P64 1.819 1_556 S
C90 C91 1.391 . S
C90 C95 1.391 . S
C91 H73 0.941 1_556 S
C91 C90 1.391 . S
C91 C92 1.396 . S
C92 H76 0.939 . S
C92 C91 1.396 . S
C92 C93 1.397 . S
C93 C92 1.397 . S
C93 C94 1.385 1_545 S
C94 H77 0.940 . S
C94 C93 1.385 1_565 S
C94 C95 1.388 1_565 S
C95 H74 0.926 1_545 S
C95 C90 1.391 . S
C95 C94 1.388 1_545 S
P96 O107 1.490 . S
P96 C110 1.812 . S
P96 C116 1.803 . S
P96 C122 1.819 . S
H97 C111 0.941 . S
H98 C112 0.939 . S
H99 C114 0.940 . S
H100 C115 0.940 . S
H101 C117 0.939 . S
H102 C118 0.942 1_556 S
H103 C120 0.940 . S
H104 C121 0.939 . S
H105 C123 0.941 . S
H106 C127 0.939 . S
O107 P96 1.490 . S
H108 C124 0.939 . S
H109 C126 0.940 . S
C110 P96 1.812 . S
C110 C111 1.389 . S
C110 C115 1.391 . S
C111 H97 0.941 . S
C111 C110 1.389 . S
C111 C112 1.397 . S
C112 H98 0.939 . S
C112 C111 1.397 . S
C112 C113 1.378 . S
C113 C112 1.378 . S
C113 C114 1.378 . S
C114 H99 0.940 . S
C114 C113 1.378 . S
C114 C115 1.396 . S
C115 H100 0.940 . S
C115 C110 1.391 . S
C115 C114 1.396 . S
C116 P96 1.803 . S
C116 C117 1.378 . S
C116 C121 1.400 . S
C117 H101 0.939 . S
C117 C116 1.378 . S
C117 C118 1.361 . S
C118 H102 0.942 1_554 S
C118 C117 1.361 . S
C118 C119 1.369 . S
C119 C118 1.369 . S
C119 C120 1.404 . S
C120 H103 0.940 . S
C120 C119 1.404 . S
C120 C121 1.389 . S
C121 H104 0.939 . S
C121 C116 1.400 . S
C121 C120 1.389 . S
C122 P96 1.819 . S
C122 C123 1.391 . S
C122 C127 1.391 1_554 S
C123 H105 0.941 . S
C123 C122 1.391 . S
C123 C124 1.396 1_554 S
C124 H108 0.939 . S
C124 C123 1.396 1_556 S
C124 C125 1.397 . S
C125 C124 1.397 . S
C125 C126 1.385 . S
C126 H109 0.940 . S
C126 C125 1.385 . S
C126 C127 1.388 . S
C127 H106 0.939 . S
C127 C122 1.391 1_556 S
C127 C126 1.388 . S
P128 O139 1.490 . S
P128 C142 1.812 . S
P128 C148 1.803 . S
P128 C154 1.819 . S
H129 C143 0.941 . S
H130 C144 0.939 . S
H131 C146 0.940 . S
H132 C147 0.940 . S
H133 C149 0.939 . S
H134 C150 0.942 . S
H135 C152 0.940 . S
H136 C153 0.939 . S
H137 C155 0.941 . S
H138 C159 0.939 . S
O139 P128 1.490 . S
H140 C156 0.939 . S
H141 C158 0.940 . S
C142 P128 1.812 . S
C142 C143 1.389 1_554 S
C142 C147 1.391 . S
C143 H129 0.941 . S
C143 C142 1.389 1_556 S
C143 C144 1.397 . S
C144 H130 0.939 . S
C144 C143 1.397 . S
C144 C145 1.378 . S
C145 C144 1.378 . S
C145 C146 1.378 . S
C146 H131 0.940 . S
C146 C145 1.378 . S
C146 C147 1.396 1_556 S
C147 H132 0.940 . S
C147 C142 1.391 . S
C147 C146 1.396 1_554 S
C148 P128 1.803 . S
C148 C149 1.378 . S
C148 C153 1.400 . S
C149 H133 0.939 . S
C149 C148 1.378 . S
C149 C150 1.361 . S
C150 H134 0.942 . S
C150 C149 1.361 . S
C150 C151 1.369 . S
C151 C150 1.369 . S
C151 C152 1.404 . S
C152 H135 0.940 . S
C152 C151 1.404 . S
C152 C153 1.389 . S
C153 H136 0.939 . S
C153 C148 1.400 . S
C153 C152 1.389 . S
C154 P128 1.819 . S
C154 C155 1.391 . S
C154 C159 1.391 . S
C155 H137 0.941 . S
C155 C154 1.391 . S
C155 C156 1.396 . S
C156 H140 0.939 . S
C156 C155 1.396 . S
C156 C157 1.397 . S
C157 C156 1.397 . S
C157 C158 1.385 . S
C158 H141 0.940 . S
C158 C157 1.385 . S
C158 C159 1.388 . S
C159 H138 0.939 . S
C159 C154 1.391 . S
C159 C158 1.388 . S
P160 O171 1.490 . S
P160 C174 1.812 . S
P160 C180 1.803 . S
P160 C186 1.819 . S
H161 C175 0.941 . S
H162 C176 0.939 . S
H163 C178 0.940 . S
H164 C179 0.940 . S
H165 C181 0.939 . S
H166 C182 0.942 . S
H167 C184 0.940 . S
H168 C185 0.939 . S
H169 C187 0.941 . S
H170 C191 0.939 . S
O171 P160 1.490 . S
H172 C188 0.939 . S
H173 C190 0.940 . S
C174 P160 1.812 . S
C174 C175 1.389 . S
C174 C179 1.391 . S
C175 H161 0.941 . S
C175 C174 1.389 . S
C175 C176 1.397 1_554 S
C176 H162 0.939 . S
C176 C175 1.397 1_556 S
C176 C177 1.378 . S
C177 C176 1.378 . S
C177 C178 1.378 1_556 S
C178 H163 0.940 . S
C178 C177 1.378 1_554 S
C178 C179 1.396 . S
C179 H164 0.940 . S
C179 C174 1.391 . S
C179 C178 1.396 . S
C180 P160 1.803 . S
C180 C181 1.378 . S
C180 C185 1.400 . S
C181 H165 0.939 . S
C181 C180 1.378 . S
C181 C182 1.361 . S
C182 H166 0.942 . S
C182 C181 1.361 . S
C182 C183 1.369 . S
C183 C182 1.369 . S
C183 C184 1.404 . S
C184 H167 0.940 . S
C184 C183 1.404 . S
C184 C185 1.389 . S
C185 H168 0.939 . S
C185 C180 1.400 . S
C185 C184 1.389 . S
C186 P160 1.819 . S
C186 C187 1.391 . S
C186 C191 1.391 . S
C187 H169 0.941 . S
C187 C186 1.391 . S
C187 C188 1.396 . S
C188 H172 0.939 . S
C188 C187 1.396 . S
C188 C189 1.397 . S
C189 C188 1.397 . S
C189 C190 1.385 . S
C190 H173 0.940 . S
C190 C189 1.385 . S
C190 C191 1.388 . S
C191 H170 0.939 . S
C191 C186 1.391 . S
C191 C190 1.388 . S
P192 O203 1.490 . S
P192 C206 1.812 . S
P192 C212 1.803 . S
P192 C218 1.819 . S
H193 C207 0.941 . S
H194 C208 0.939 . S
H195 C210 0.940 . S
H196 C211 0.943 . S
H197 C213 0.939 . S
H198 C214 0.942 . S
H199 C216 0.940 . S
H200 C217 0.953 . S
H201 C219 0.941 . S
H202 C223 0.935 1_565 S
O203 P192 1.490 . S
H204 C220 0.939 . S
H205 C222 0.940 . S
C206 P192 1.812 . S
C206 C207 1.389 1_554 S
C206 C211 1.387 1_545 S
C207 H193 0.941 . S
C207 C206 1.389 1_556 S
C207 C208 1.397 . S
C208 H194 0.939 . S
C208 C207 1.397 . S
C208 C209 1.378 . S
C209 C208 1.378 . S
C209 C210 1.378 1_545 S
C210 H195 0.940 . S
C210 C209 1.378 1_565 S
C210 C211 1.398 1_556 S
C211 H196 0.943 . S
C211 C206 1.387 1_565 S
C211 C210 1.398 1_554 S
C212 P192 1.803 . S
C212 C213 1.378 . S
C212 C217 1.381 1_545 S
C213 H197 0.939 . S
C213 C212 1.378 . S
C213 C214 1.361 . S
C214 H198 0.942 . S
C214 C213 1.361 . S
C214 C215 1.369 . S
C215 C214 1.369 . S
C215 C216 1.404 1_545 S
C216 H199 0.940 . S
C216 C215 1.404 1_565 S
C216 C217 1.395 . S
C217 H200 0.953 . S
C217 C212 1.381 1_565 S
C217 C216 1.395 . S
C218 P192 1.819 . S
C218 C219 1.391 . S
C218 C223 1.391 . S
C219 H201 0.941 . S
C219 C218 1.391 . S
C219 C220 1.396 . S
C220 H204 0.939 . S
C220 C219 1.396 . S
C220 C221 1.397 . S
C221 C220 1.397 . S
C221 C222 1.385 1_545 S
C222 H205 0.940 . S
C222 C221 1.385 1_565 S
C222 C223 1.388 1_565 S
C223 H202 0.935 1_545 S
C223 C218 1.391 . S
C223 C222 1.388 1_545 S
P224 O235 1.490 . S
P224 C238 1.812 . S
P224 C244 1.803 . S
P224 C250 1.819 . S
H225 C239 0.941 . S
H226 C240 0.939 . S
H227 C242 0.940 . S
H228 C243 0.940 . S
H229 C245 0.939 . S
H230 C246 0.942 . S
H231 C248 0.940 . S
H232 C249 0.939 . S
H233 C251 0.941 . S
H234 C255 0.939 . S
O235 P224 1.490 . S
H236 C252 0.939 . S
H237 C254 0.940 . S
C238 P224 1.812 . S
C238 C239 1.389 1_554 S
C238 C243 1.391 . S
C239 H225 0.941 . S
C239 C238 1.389 1_556 S
C239 C240 1.397 . S
C240 H226 0.939 . S
C240 C239 1.397 . S
C240 C241 1.378 . S
C241 C240 1.378 . S
C241 C242 1.378 . S
C242 H227 0.940 . S
C242 C241 1.378 . S
C242 C243 1.396 1_556 S
C243 H228 0.940 . S
C243 C238 1.391 . S
C243 C242 1.396 1_554 S
C244 P224 1.803 . S
C244 C245 1.378 . S
C244 C249 1.400 . S
C245 H229 0.939 . S
C245 C244 1.378 . S
C245 C246 1.361 . S
C246 H230 0.942 . S
C246 C245 1.361 . S
C246 C247 1.369 . S
C247 C246 1.369 . S
C247 C248 1.404 . S
C248 H231 0.940 . S
C248 C247 1.404 . S
C248 C249 1.389 . S
C249 H232 0.939 . S
C249 C244 1.400 . S
C249 C248 1.389 . S
C250 P224 1.819 . S
C250 C251 1.391 . S
C250 C255 1.391 . S
C251 H233 0.941 . S
C251 C250 1.391 . S
C251 C252 1.396 . S
C252 H236 0.939 . S
C252 C251 1.396 . S
C252 C253 1.397 . S
C253 C252 1.397 . S
C253 C254 1.385 . S
C254 H237 0.940 . S
C254 C253 1.385 . S
C254 C255 1.388 . S
C255 H234 0.939 . S
C255 C250 1.391 . S
C255 C254 1.388 . S
Dy256 O260 2.398 . S
Dy256 O261 2.491 1_455 S
Dy256 O262 2.403 . S
Dy256 O263 2.664 1_565 S
Dy256 O267 2.326 . S
Dy256 O271 2.310 1_455 S
Dy256 O272 2.351 1_565 S
C257 O268 1.185 1_455 S
C257 O269 1.355 . S
C258 O260 1.185 . S
C258 O261 1.355 1_455 S
Dy259 O263 2.268 1_655 S
Dy259 O266 2.360 1_545 S
Dy259 O268 2.412 . S
Dy259 O269 2.462 1_655 S
Dy259 O270 2.446 . S
Dy259 O271 2.678 1_545 S
Dy259 O273 2.316 1_655 S
O260 Dy256 2.398 . S
O260 C258 1.185 . S
O261 Dy256 2.491 1_655 S
O261 C258 1.355 1_655 S
O262 Dy256 2.403 . S
O262 C264 1.254 . S
O263 Dy256 2.664 1_545 S
O263 Dy259 2.268 1_455 S
O263 C264 1.268 1_545 S
C264 O262 1.254 . S
C264 O263 1.268 1_565 S
C265 O270 1.254 . S
C265 O271 1.268 1_545 S
O266 Dy259 2.360 1_565 S
O266 C274 1.249 . S
O267 Dy256 2.326 . S
O267 C274 1.267 1_455 S
O268 C257 1.185 1_655 S
O268 Dy259 2.412 . S
O269 C257 1.355 . S
O269 Dy259 2.462 1_455 S
O270 Dy259 2.446 . S
O270 C265 1.254 . S
O271 Dy256 2.310 1_655 S
O271 Dy259 2.678 1_565 S
O271 C265 1.268 1_565 S
O272 Dy256 2.351 1_545 S
O272 C275 1.249 . S
O273 Dy259 2.316 1_455 S
O273 C275 1.267 . S
C274 O266 1.249 . S
C274 O267 1.267 1_655 S
C275 O272 1.249 . S
C275 O273 1.267 . S
Dy276 O280 2.398 . S
Dy276 O281 2.491 . S
Dy276 O282 2.403 . S
Dy276 O283 2.664 . S
Dy276 O287 2.326 1_565 S
Dy276 O291 2.310 1_565 S
Dy276 O292 2.351 . S
C277 O288 1.185 . S
C277 O289 1.355 . S
C278 O280 1.185 . S
C278 O281 1.355 . S
Dy279 O283 2.310 1_545 S
Dy279 O286 2.351 . S
Dy279 O288 2.398 . S
Dy279 O289 2.491 . S
Dy279 O290 2.403 . S
Dy279 O291 2.664 . S
Dy279 O293 2.326 1_545 S
O280 Dy276 2.398 . S
O280 C278 1.185 . S
O281 Dy276 2.491 . S
O281 C278 1.355 . S
O282 Dy276 2.403 . S
O282 C284 1.254 . S
O283 Dy276 2.664 . S
O283 Dy279 2.310 1_565 S
O283 C284 1.268 . S
C284 O282 1.254 . S
C284 O283 1.268 . S
C285 O290 1.254 . S
C285 O291 1.268 . S
O286 Dy279 2.351 . S
O286 C294 1.249 . S
O287 Dy276 2.326 1_545 S
O287 C294 1.267 . S
O288 C277 1.185 . S
O288 Dy279 2.398 . S
O289 C277 1.355 . S
O289 Dy279 2.491 . S
O290 Dy279 2.403 . S
O290 C285 1.254 . S
O291 Dy276 2.310 1_545 S
O291 Dy279 2.664 . S
O291 C285 1.268 . S
O292 Dy276 2.351 . S
O292 C295 1.249 . S
O293 Dy279 2.326 1_565 S
O293 C295 1.267 . S
C294 O286 1.249 . S
C294 O287 1.267 . S
C295 O292 1.249 . S
C295 O293 1.267 . S
Dy296 O300 2.398 . S
Dy296 O301 2.491 . S
Dy296 O302 2.403 . S
Dy296 O303 2.664 . S
Dy296 O307 2.326 . S
Dy296 O311 2.310 . S
Dy296 O312 2.351 . S
C297 O308 1.185 . S
C297 O309 1.355 . S
C298 O300 1.185 . S
C298 O301 1.355 . S
Dy299 O303 2.310 . S
Dy299 O306 2.351 . S
Dy299 O308 2.398 . S
Dy299 O309 2.491 . S
Dy299 O310 2.403 . S
Dy299 O311 2.664 . S
Dy299 O313 2.326 . S
O300 Dy296 2.398 . S
O300 C298 1.185 . S
O301 Dy296 2.491 . S
O301 C298 1.355 . S
O302 Dy296 2.403 . S
O302 C304 1.254 . S
O303 Dy296 2.664 . S
O303 Dy299 2.310 . S
O303 C304 1.268 . S
C304 O302 1.254 . S
C304 O303 1.268 . S
C305 O310 1.254 . S
C305 O311 1.268 . S
O306 Dy299 2.351 . S
O306 C314 1.249 . S
O307 Dy296 2.326 . S
O307 C314 1.267 . S
O308 C297 1.185 . S
O308 Dy299 2.398 . S
O309 C297 1.355 . S
O309 Dy299 2.491 . S
O310 Dy299 2.403 . S
O310 C305 1.254 . S
O311 Dy296 2.310 . S
O311 Dy299 2.664 . S
O311 C305 1.268 . S
O312 Dy296 2.351 . S
O312 C315 1.249 . S
O313 Dy299 2.326 . S
O313 C315 1.267 . S
C314 O306 1.249 . S
C314 O307 1.267 . S
C315 O312 1.249 . S
C315 O313 1.267 . S
Dy316 O320 2.398 . S
Dy316 O321 2.491 . S
Dy316 O322 2.403 1_655 S
Dy316 O323 2.664 1_655 S
Dy316 O327 2.326 . S
Dy316 O331 2.310 . S
Dy316 O332 2.351 1_655 S
C317 O328 1.185 . S
C317 O329 1.355 . S
C318 O320 1.185 . S
C318 O321 1.355 . S
Dy319 O323 2.310 . S
Dy319 O326 2.351 1_455 S
Dy319 O328 2.398 . S
Dy319 O329 2.491 . S
Dy319 O330 2.403 . S
Dy319 O331 2.664 1_455 S
Dy319 O333 2.326 . S
O320 Dy316 2.398 . S
O320 C318 1.185 . S
O321 Dy316 2.491 . S
O321 C318 1.355 . S
O322 Dy316 2.403 1_455 S
O322 C324 1.254 . S
O323 Dy316 2.664 1_455 S
O323 Dy319 2.310 . S
O323 C324 1.268 . S
C324 O322 1.254 . S
C324 O323 1.268 . S
C325 O330 1.254 1_655 S
C325 O331 1.268 . S
O326 Dy319 2.351 1_655 S
O326 C334 1.249 . S
O327 Dy316 2.326 . S
O327 C334 1.267 . S
O328 C317 1.185 . S
O328 Dy319 2.398 . S
O329 C317 1.355 . S
O329 Dy319 2.491 . S
O330 Dy319 2.403 . S
O330 C325 1.254 1_455 S
O331 Dy316 2.310 . S
O331 Dy319 2.664 1_655 S
O331 C325 1.268 . S
O332 Dy316 2.351 1_455 S
O332 C335 1.249 . S
O333 Dy319 2.326 . S
O333 C335 1.267 . S
C334 O326 1.249 . S
C334 O327 1.267 . S
C335 O332 1.249 . S
C335 O333 1.267 . S
H336 C344 0.929 . S
H337 C346 0.930 . S
H338 C348 0.930 . S
H339 C351 0.929 . S
H340 C354 0.930 . S
H341 C356 0.960 . S
H342 C356 0.960 . S
H343 C356 0.960 1_565 S
C344 H336 0.929 . S
C344 C345 1.381 . S
C344 C346 1.384 . S
C345 C344 1.381 . S
C345 C351 1.386 1_545 S
C346 H337 0.930 . S
C346 C344 1.384 . S
C346 C347 1.371 . S
C347 C346 1.371 . S
C347 C348 1.400 1_545 S
C347 C352 1.491 1_545 S
C348 H338 0.930 . S
C348 C347 1.400 1_565 S
C348 C351 1.386 . S
H349 C365 0.930 . S
H350 C366 0.931 . S
C351 H339 0.929 . S
C351 C345 1.386 1_565 S
C351 C348 1.386 . S
C352 C347 1.491 1_565 S
C352 C354 1.395 . S
C352 C355 1.401 1_565 S
H353 C359 0.935 . S
C354 H340 0.930 . S
C354 C352 1.395 . S
C354 C357 1.403 . S
C355 C352 1.401 1_545 S
C355 C356 1.524 . S
C355 C359 1.400 . S
C356 H341 0.960 . S
C356 H342 0.960 . S
C356 H343 0.960 1_545 S
C356 C355 1.524 . S
C357 C354 1.403 . S
C357 C358 1.392 . S
C357 C361 1.495 . S
C358 C357 1.392 . S
C358 C359 1.384 1_565 S
C358 C360 1.478 . S
C359 H353 0.935 . S
C359 C355 1.400 . S
C359 C358 1.384 1_545 S
C360 C358 1.478 . S
C360 C362 1.381 1_565 S
C360 C366 1.383 . S
C361 C357 1.495 . S
C361 H367 0.959 . S
C361 H368 0.961 . S
C361 H369 0.960 1_565 S
C362 C360 1.381 1_545 S
C362 C363 1.394 . S
C362 H370 0.930 . S
C363 C362 1.394 . S
C363 C364 1.383 1_545 S
C363 H371 0.929 . S
C364 C363 1.383 1_565 S
C364 C365 1.377 . S
C365 H349 0.930 . S
C365 C364 1.377 . S
C365 C366 1.379 . S
C366 H350 0.931 . S
C366 C360 1.383 . S
C366 C365 1.379 . S
H367 C361 0.959 . S
H368 C361 0.961 . S
H369 C361 0.960 1_545 S
H370 C362 0.930 . S
H371 C363 0.929 . S
H372 C380 0.929 . S
H373 C382 0.930 . S
H374 C384 0.930 . S
H375 C387 0.929 . S
H376 C390 0.930 . S
H377 C392 0.960 . S
H378 C392 0.960 . S
H379 C392 0.960 . S
C380 H372 0.929 . S
C380 C381 1.377 . S
C380 C382 1.384 . S
C381 C380 1.377 . S
C381 C387 1.390 . S
C382 H373 0.930 . S
C382 C380 1.384 . S
C382 C383 1.372 . S
C383 C382 1.372 . S
C383 C384 1.400 . S
C383 C388 1.490 . S
C384 H374 0.930 . S
C384 C383 1.400 . S
C384 C387 1.386 . S
H385 C401 0.930 . S
H386 C402 0.931 . S
C387 H375 0.929 . S
C387 C381 1.390 . S
C387 C384 1.386 . S
C388 C383 1.490 . S
C388 C390 1.395 . S
C388 C391 1.403 . S
H389 C395 0.930 . S
C390 H376 0.930 . S
C390 C388 1.395 . S
C390 C393 1.403 . S
C391 C388 1.403 . S
C391 C392 1.524 . S
C391 C395 1.400 . S
C392 H377 0.960 . S
C392 H378 0.960 . S
C392 H379 0.960 . S
C392 C391 1.524 . S
C393 C390 1.403 . S
C393 C394 1.392 . S
C393 C397 1.495 . S
C394 C393 1.392 . S
C394 C395 1.385 . S
C394 C396 1.478 . S
C395 H389 0.930 . S
C395 C391 1.400 . S
C395 C394 1.385 . S
C396 C394 1.478 . S
C396 C398 1.381 . S
C396 C402 1.383 . S
C397 C393 1.495 . S
C397 H403 0.959 . S
C397 H404 0.961 . S
C397 H405 0.960 . S
C398 C396 1.381 . S
C398 C399 1.394 . S
C398 H406 0.930 . S
C399 C398 1.394 . S
C399 C400 1.383 . S
C399 H407 0.929 . S
C400 C399 1.383 . S
C400 C401 1.377 . S
C401 H385 0.930 . S
C401 C400 1.377 . S
C401 C402 1.379 . S
C402 H386 0.931 . S
C402 C396 1.383 . S
C402 C401 1.379 . S
H403 C397 0.959 . S
H404 C397 0.961 . S
H405 C397 0.960 . S
H406 C398 0.930 . S
H407 C399 0.929 . S
H408 C416 0.929 . S
H409 C418 0.930 . S
H410 C420 0.930 . S
H411 C423 0.929 . S
H412 C426 0.930 . S
H413 C428 0.960 . S
H414 C428 0.960 . S
H415 C428 0.960 . S
C416 H408 0.929 . S
C416 C417 1.377 . S
C416 C418 1.384 . S
C417 C416 1.377 . S
C417 C423 1.390 . S
C418 H409 0.930 . S
C418 C416 1.384 . S
C418 C419 1.372 . S
C419 C418 1.372 . S
C419 C420 1.400 . S
C419 C424 1.490 . S
C420 H410 0.930 . S
C420 C419 1.400 . S
C420 C423 1.386 . S
H421 C437 0.930 . S
H422 C438 0.931 . S
C423 H411 0.929 . S
C423 C417 1.390 . S
C423 C420 1.386 . S
C424 C419 1.490 . S
C424 C426 1.395 . S
C424 C427 1.403 . S
H425 C431 0.930 . S
C426 H412 0.930 . S
C426 C424 1.395 . S
C426 C429 1.403 . S
C427 C424 1.403 . S
C427 C428 1.524 . S
C427 C431 1.400 . S
C428 H413 0.960 . S
C428 H414 0.960 . S
C428 H415 0.960 . S
C428 C427 1.524 . S
C429 C426 1.403 . S
C429 C430 1.392 . S
C429 C433 1.495 . S
C430 C429 1.392 . S
C430 C431 1.385 . S
C430 C432 1.478 . S
C431 H425 0.930 . S
C431 C427 1.400 . S
C431 C430 1.385 . S
C432 C430 1.478 . S
C432 C434 1.381 . S
C432 C438 1.383 . S
C433 C429 1.495 . S
C433 H439 0.959 . S
C433 H440 0.961 . S
C433 H441 0.960 . S
C434 C432 1.381 . S
C434 C435 1.394 . S
C434 H442 0.930 . S
C435 C434 1.394 . S
C435 C436 1.383 . S
C435 H443 0.929 . S
C436 C435 1.383 . S
C436 C437 1.377 . S
C437 H421 0.930 . S
C437 C436 1.377 . S
C437 C438 1.379 . S
C438 H422 0.931 . S
C438 C432 1.383 . S
C438 C437 1.379 . S
H439 C433 0.959 . S
H440 C433 0.961 . S
H441 C433 0.960 . S
H442 C434 0.930 . S
H443 C435 0.929 . S
H444 C452 0.929 . S
H445 C454 0.930 . S
H446 C456 0.930 . S
H447 C459 0.929 . S
H448 C462 0.930 . S
H449 C464 0.960 . S
H450 C464 0.960 . S
H451 C464 0.960 . S
C452 H444 0.929 . S
C452 C453 1.377 . S
C452 C454 1.384 . S
C453 C452 1.377 . S
C453 C459 1.390 . S
C454 H445 0.930 . S
C454 C452 1.384 . S
C454 C455 1.372 . S
C455 C454 1.372 . S
C455 C456 1.400 . S
C455 C460 1.490 . S
C456 H446 0.930 . S
C456 C455 1.400 . S
C456 C459 1.386 . S
H457 C473 0.930 . S
H458 C474 0.931 . S
C459 H447 0.929 . S
C459 C453 1.390 . S
C459 C456 1.386 . S
C460 C455 1.490 . S
C460 C462 1.395 . S
C460 C463 1.403 . S
H461 C467 0.930 . S
C462 H448 0.930 . S
C462 C460 1.395 . S
C462 C465 1.403 . S
C463 C460 1.403 . S
C463 C464 1.524 . S
C463 C467 1.400 . S
C464 H449 0.960 . S
C464 H450 0.960 . S
C464 H451 0.960 . S
C464 C463 1.524 . S
C465 C462 1.403 . S
C465 C466 1.392 . S
C465 C469 1.495 . S
C466 C465 1.392 . S
C466 C467 1.385 . S
C466 C468 1.478 . S
C467 H461 0.930 . S
C467 C463 1.400 . S
C467 C466 1.385 . S
C468 C466 1.478 . S
C468 C470 1.381 . S
C468 C474 1.383 . S
C469 C465 1.495 . S
C469 H475 0.959 . S
C469 H476 0.961 . S
C469 H477 0.960 . S
C470 C468 1.381 . S
C470 C471 1.394 . S
C470 H478 0.930 . S
C471 C470 1.394 . S
C471 C472 1.383 . S
C471 H479 0.929 . S
C472 C471 1.383 . S
C472 C473 1.377 . S
C473 H457 0.930 . S
C473 C472 1.377 . S
C473 C474 1.379 . S
C474 H458 0.931 . S
C474 C468 1.383 . S
C474 C473 1.379 . S
H475 C469 0.959 . S
H476 C469 0.961 . S
H477 C469 0.960 . S
H478 C470 0.930 . S
H479 C471 0.929 . S
H480 C488 0.929 . S
H481 C490 0.930 . S
H482 C492 0.930 . S
H483 C495 0.929 . S
H484 C498 0.930 . S
H485 C500 0.960 . S
H486 C500 0.960 1_545 S
H487 C500 0.960 . S
C488 H480 0.929 . S
C488 C489 1.403 . S
C488 C490 1.384 . S
C489 C488 1.403 . S
C489 C495 1.363 1_545 S
C490 H481 0.930 . S
C490 C488 1.384 . S
C490 C491 1.372 . S
C491 C490 1.372 . S
C491 C492 1.400 1_545 S
C491 C496 1.490 . S
C492 H482 0.930 . S
C492 C491 1.400 1_565 S
C492 C495 1.386 . S
H493 C509 0.930 . S
H494 C510 0.931 . S
C495 H483 0.929 . S
C495 C489 1.363 1_565 S
C495 C492 1.386 . S
C496 C491 1.490 . S
C496 C498 1.395 . S
C496 C499 1.404 . S
H497 C503 0.927 1_565 S
C498 H484 0.930 . S
C498 C496 1.395 . S
C498 C501 1.403 . S
C499 C496 1.404 . S
C499 C500 1.524 1_545 S
C499 C503 1.401 . S
C500 H485 0.960 . S
C500 H486 0.960 1_565 S
C500 H487 0.960 . S
C500 C499 1.524 1_565 S
C501 C498 1.403 . S
C501 C502 1.392 . S
C501 C505 1.495 . S
C502 C501 1.392 . S
C502 C503 1.387 . S
C502 C504 1.478 . S
C503 H497 0.927 1_545 S
C503 C499 1.401 . S
C503 C502 1.387 . S
C504 C502 1.478 . S
C504 C506 1.381 . S
C504 C510 1.383 1_545 S
C505 C501 1.495 . S
C505 H511 0.959 . S
C505 H512 0.961 1_545 S
C505 H513 0.960 . S
C506 C504 1.381 . S
C506 C507 1.394 . S
C506 H514 0.930 . S
C507 C506 1.394 . S
C507 C508 1.383 . S
C507 H515 0.929 . S
C508 C507 1.383 . S
C508 C509 1.377 1_545 S
C509 H493 0.930 . S
C509 C508 1.377 1_565 S
C509 C510 1.379 . S
C510 H494 0.931 . S
C510 C504 1.383 1_565 S
C510 C509 1.379 . S
H511 C505 0.959 . S
H512 C505 0.961 1_565 S
H513 C505 0.960 . S
H514 C506 0.930 . S
H515 C507 0.929 . S
H516 C524 0.929 1_554 S
H517 C526 0.930 . S
H518 C528 0.930 . S
H519 C531 0.929 . S
H520 C534 0.930 . S
H521 C536 0.960 . S
H522 C536 0.960 . S
H523 C536 0.960 . S
C524 H516 0.929 1_556 S
C524 C525 1.377 . S
C524 C526 1.384 . S
C525 C524 1.377 . S
C525 C531 1.390 . S
C526 H517 0.930 . S
C526 C524 1.384 . S
C526 C527 1.372 . S
C527 C526 1.372 . S
C527 C528 1.400 . S
C527 C532 1.490 . S
C528 H518 0.930 . S
C528 C527 1.400 . S
C528 C531 1.386 . S
H529 C545 0.930 . S
H530 C546 0.931 . S
C531 H519 0.929 . S
C531 C525 1.390 . S
C531 C528 1.386 . S
C532 C527 1.490 . S
C532 C534 1.395 . S
C532 C535 1.403 . S
H533 C539 0.930 . S
C534 H520 0.930 . S
C534 C532 1.395 . S
C534 C537 1.403 . S
C535 C532 1.403 . S
C535 C536 1.524 . S
C535 C539 1.400 . S
C536 H521 0.960 . S
C536 H522 0.960 . S
C536 H523 0.960 . S
C536 C535 1.524 . S
C537 C534 1.403 . S
C537 C538 1.392 . S
C537 C541 1.495 . S
C538 C537 1.392 . S
C538 C539 1.385 . S
C538 C540 1.478 . S
C539 H533 0.930 . S
C539 C535 1.400 . S
C539 C538 1.385 . S
C540 C538 1.478 . S
C540 C542 1.381 . S
C540 C546 1.383 . S
C541 C537 1.495 . S
C541 H547 0.959 . S
C541 H548 0.961 . S
C541 H549 0.960 . S
C542 C540 1.381 . S
C542 C543 1.394 . S
C542 H550 0.930 . S
C543 C542 1.394 . S
C543 C544 1.383 . S
C543 H551 0.929 . S
C544 C543 1.383 . S
C544 C545 1.377 . S
C545 H529 0.930 . S
C545 C544 1.377 . S
C545 C546 1.379 . S
C546 H530 0.931 . S
C546 C540 1.383 . S
C546 C545 1.379 . S
H547 C541 0.959 . S
H548 C541 0.961 . S
H549 C541 0.960 . S
H550 C542 0.930 . S
H551 C543 0.929 . S
H552 C560 0.929 . S
H553 C562 0.930 . S
H554 C564 0.930 . S
H555 C567 0.929 . S
H556 C570 0.930 . S
H557 C572 0.960 . S
H558 C572 0.960 . S
H559 C572 0.960 . S
C560 H552 0.929 . S
C560 C561 1.377 . S
C560 C562 1.384 . S
C561 C560 1.377 . S
C561 C567 1.390 . S
C562 H553 0.930 . S
C562 C560 1.384 . S
C562 C563 1.372 . S
C563 C562 1.372 . S
C563 C564 1.400 . S
C563 C568 1.490 . S
C564 H554 0.930 . S
C564 C563 1.400 . S
C564 C567 1.386 . S
H565 C581 0.930 . S
H566 C582 0.931 . S
C567 H555 0.929 . S
C567 C561 1.390 . S
C567 C564 1.386 . S
C568 C563 1.490 . S
C568 C570 1.395 . S
C568 C571 1.403 . S
H569 C575 0.930 . S
C570 H556 0.930 . S
C570 C568 1.395 . S
C570 C573 1.403 . S
C571 C568 1.403 . S
C571 C572 1.524 . S
C571 C575 1.400 . S
C572 H557 0.960 . S
C572 H558 0.960 . S
C572 H559 0.960 . S
C572 C571 1.524 . S
C573 C570 1.403 . S
C573 C574 1.392 . S
C573 C577 1.495 . S
C574 C573 1.392 . S
C574 C575 1.385 . S
C574 C576 1.478 . S
C575 H569 0.930 . S
C575 C571 1.400 . S
C575 C574 1.385 . S
C576 C574 1.478 . S
C576 C578 1.381 . S
C576 C582 1.383 . S
C577 C573 1.495 . S
C577 H583 0.959 . S
C577 H584 0.961 . S
C577 H585 0.960 . S
C578 C576 1.381 . S
C578 C579 1.394 . S
C578 H586 0.930 . S
C579 C578 1.394 . S
C579 C580 1.383 . S
C579 H587 0.929 . S
C580 C579 1.383 . S
C580 C581 1.377 . S
C581 H565 0.930 . S
C581 C580 1.377 . S
C581 C582 1.379 . S
C582 H566 0.931 . S
C582 C576 1.383 . S
C582 C581 1.379 . S
H583 C577 0.959 . S
H584 C577 0.961 . S
H585 C577 0.960 . S
H586 C578 0.930 . S
H587 C579 0.929 . S
H588 C596 0.929 . S
H589 C598 0.930 . S
H590 C600 0.930 . S
H591 C603 0.929 . S
H592 C606 0.930 . S
H593 C608 0.960 . S
H594 C608 0.960 . S
H595 C608 0.960 . S
C596 H588 0.929 . S
C596 C597 1.377 . S
C596 C598 1.384 . S
C597 C596 1.377 . S
C597 C603 1.390 . S
C598 H589 0.930 . S
C598 C596 1.384 . S
C598 C599 1.372 . S
C599 C598 1.372 . S
C599 C600 1.400 . S
C599 C604 1.490 . S
C600 H590 0.930 . S
C600 C599 1.400 . S
C600 C603 1.386 . S
H601 C617 0.930 . S
H602 C618 0.931 . S
C603 H591 0.929 . S
C603 C597 1.390 . S
C603 C600 1.386 . S
C604 C599 1.490 . S
C604 C606 1.395 . S
C604 C607 1.403 . S
H605 C611 0.930 . S
C606 H592 0.930 . S
C606 C604 1.395 . S
C606 C609 1.403 . S
C607 C604 1.403 . S
C607 C608 1.524 . S
C607 C611 1.400 . S
C608 H593 0.960 . S
C608 H594 0.960 . S
C608 H595 0.960 . S
C608 C607 1.524 . S
C609 C606 1.403 . S
C609 C610 1.392 . S
C609 C613 1.495 . S
C610 C609 1.392 . S
C610 C611 1.385 . S
C610 C612 1.478 . S
C611 H605 0.930 . S
C611 C607 1.400 . S
C611 C610 1.385 . S
C612 C610 1.478 . S
C612 C614 1.381 . S
C612 C618 1.383 . S
C613 C609 1.495 . S
C613 H619 0.959 . S
C613 H620 0.961 . S
C613 H621 0.960 . S
C614 C612 1.381 . S
C614 C615 1.394 1_655 S
C614 H622 0.930 1_655 S
C615 C614 1.394 1_455 S
C615 C616 1.383 1_455 S
C615 H623 0.929 . S
C616 C615 1.383 1_655 S
C616 C617 1.377 . S
C617 H601 0.930 . S
C617 C616 1.377 . S
C617 C618 1.379 . S
C618 H602 0.931 . S
C618 C612 1.383 . S
C618 C617 1.379 . S
H619 C613 0.959 . S
H620 C613 0.961 . S
H621 C613 0.960 . S
H622 C614 0.930 1_455 S
H623 C615 0.929 . S
H624 C632 0.929 . S
H625 C634 0.930 . S
H626 C636 0.930 . S
H627 C639 0.929 . S
H628 C642 0.930 . S
H629 C644 0.960 . S
H630 C644 0.960 . S
H631 C644 0.960 . S
C632 H624 0.929 . S
C632 C633 1.377 . S
C632 C634 1.384 . S
C633 C632 1.377 . S
C633 C639 1.390 . S
C634 H625 0.930 . S
C634 C632 1.384 . S
C634 C635 1.372 . S
C635 C634 1.372 . S
C635 C636 1.400 . S
C635 C640 1.490 . S
C636 H626 0.930 . S
C636 C635 1.400 . S
C636 C639 1.386 . S
H637 C653 0.930 1_655 S
H638 C654 0.931 . S
C639 H627 0.929 . S
C639 C633 1.390 . S
C639 C636 1.386 . S
C640 C635 1.490 . S
C640 C642 1.395 . S
C640 C643 1.403 . S
H641 C647 0.930 . S
C642 H628 0.930 . S
C642 C640 1.395 . S
C642 C645 1.403 . S
C643 C640 1.403 . S
C643 C644 1.524 . S
C643 C647 1.400 . S
C644 H629 0.960 . S
C644 H630 0.960 . S
C644 H631 0.960 . S
C644 C643 1.524 . S
C645 C642 1.403 . S
C645 C646 1.392 . S
C645 C649 1.495 . S
C646 C645 1.392 . S
C646 C647 1.385 . S
C646 C648 1.478 . S
C647 H641 0.930 . S
C647 C643 1.400 . S
C647 C646 1.385 . S
C648 C646 1.478 . S
C648 C650 1.381 . S
C648 C654 1.383 . S
C649 C645 1.495 . S
C649 H655 0.959 . S
C649 H656 0.961 . S
C649 H657 0.960 . S
C650 C648 1.381 . S
C650 C651 1.394 . S
C650 H658 0.930 . S
C651 C650 1.394 . S
C651 C652 1.383 . S
C651 H659 0.929 . S
C652 C651 1.383 . S
C652 C653 1.377 . S
C653 H637 0.930 1_455 S
C653 C652 1.377 . S
C653 C654 1.379 . S
C654 H638 0.931 . S
C654 C648 1.383 . S
C654 C653 1.379 . S
H655 C649 0.959 . S
H656 C649 0.961 . S
H657 C649 0.960 . S
H658 C650 0.930 . S
H659 C651 0.929 . S
H660 C668 0.929 . S
H661 C670 0.930 . S
H662 C672 0.930 . S
H663 C675 0.929 . S
H664 C678 0.930 . S
H665 C680 0.960 . S
H666 C680 0.959 1_565 S
H667 C680 0.960 . S
C668 H660 0.929 . S
C668 C669 1.338 1_565 S
C668 C670 1.384 . S
C669 C668 1.338 1_545 S
C669 C675 1.421 . S
C670 H661 0.930 . S
C670 C668 1.384 . S
C670 C671 1.372 . S
C671 C670 1.372 . S
C671 C672 1.400 1_565 S
C671 C676 1.490 . S
C672 H662 0.930 . S
C672 C671 1.400 1_545 S
C672 C675 1.386 . S
H673 C689 0.930 . S
H674 C690 0.931 . S
C675 H663 0.929 . S
C675 C669 1.421 . S
C675 C672 1.386 . S
C676 C671 1.490 . S
C676 C678 1.395 . S
C676 C679 1.403 1_565 S
H677 C683 0.936 . S
C678 H664 0.930 . S
C678 C676 1.395 . S
C678 C681 1.403 . S
C679 C676 1.403 1_545 S
C679 C680 1.524 . S
C679 C683 1.404 . S
C680 H665 0.960 . S
C680 H666 0.959 1_545 S
C680 H667 0.960 . S
C680 C679 1.524 . S
C681 C678 1.403 . S
C681 C682 1.392 . S
C681 C685 1.495 . S
C682 C681 1.392 . S
C682 C683 1.377 1_565 S
C682 C684 1.478 . S
C683 H677 0.936 . S
C683 C679 1.404 . S
C683 C682 1.377 1_545 S
C684 C682 1.478 . S
C684 C686 1.381 . S
C684 C690 1.383 1_565 S
C685 C681 1.495 . S
C685 H691 0.959 . S
C685 H692 0.961 . S
C685 H693 0.960 . S
C686 C684 1.381 . S
C686 C687 1.394 . S
C686 H694 0.930 . S
C687 C686 1.394 . S
C687 C688 1.383 . S
C687 H695 0.929 . S
C688 C687 1.383 . S
C688 C689 1.377 1_565 S
C689 H673 0.930 . S
C689 C688 1.377 1_545 S
C689 C690 1.379 . S
C690 H674 0.931 . S
C690 C684 1.383 1_545 S
C690 C689 1.379 . S
H691 C685 0.959 . S
H692 C685 0.961 . S
H693 C685 0.960 . S
H694 C686 0.930 . S
H695 C687 0.929 . S
H696 C704 0.929 . S
H697 C706 0.930 . S
H698 C708 0.930 . S
H699 C711 0.929 . S
H700 C714 0.930 . S
H701 C716 0.960 . S
H702 C716 0.960 . S
H703 C716 0.960 . S
C704 H696 0.929 . S
C704 C705 1.377 . S
C704 C706 1.384 . S
C705 C704 1.377 . S
C705 C711 1.390 . S
C706 H697 0.930 . S
C706 C704 1.384 . S
C706 C707 1.372 . S
C707 C706 1.372 . S
C707 C708 1.400 . S
C707 C712 1.490 . S
C708 H698 0.930 . S
C708 C707 1.400 . S
C708 C711 1.386 . S
H709 C725 0.930 . S
H710 C726 0.931 . S
C711 H699 0.929 . S
C711 C705 1.390 . S
C711 C708 1.386 . S
C712 C707 1.490 . S
C712 C714 1.395 . S
C712 C715 1.403 . S
H713 C719 0.930 . S
C714 H700 0.930 . S
C714 C712 1.395 . S
C714 C717 1.403 . S
C715 C712 1.403 . S
C715 C716 1.524 . S
C715 C719 1.400 . S
C716 H701 0.960 . S
C716 H702 0.960 . S
C716 H703 0.960 . S
C716 C715 1.524 . S
C717 C714 1.403 . S
C717 C718 1.392 . S
C717 C721 1.495 . S
C718 C717 1.392 . S
C718 C719 1.385 . S
C718 C720 1.478 . S
C719 H713 0.930 . S
C719 C715 1.400 . S
C719 C718 1.385 . S
C720 C718 1.478 . S
C720 C722 1.381 . S
C720 C726 1.383 . S
C721 C717 1.495 . S
C721 H727 0.959 . S
C721 H728 0.961 . S
C721 H729 0.960 . S
C722 C720 1.381 . S
C722 C723 1.394 . S
C722 H730 0.930 . S
C723 C722 1.394 . S
C723 C724 1.383 . S
C723 H731 0.929 . S
C724 C723 1.383 . S
C724 C725 1.377 . S
C725 H709 0.930 . S
C725 C724 1.377 . S
C725 C726 1.379 . S
C726 H710 0.931 . S
C726 C720 1.383 . S
C726 C725 1.379 . S
H727 C721 0.959 . S
H728 C721 0.961 . S
H729 C721 0.960 . S
H730 C722 0.930 . S
H731 C723 0.929 . S
H732 C740 0.929 . S
H733 C742 0.930 . S
H734 C744 0.930 . S
H735 C747 0.929 . S
H736 C750 0.930 . S
H737 C752 0.960 . S
H738 C752 0.960 . S
H739 C752 0.960 . S
C740 H732 0.929 . S
C740 C741 1.377 . S
C740 C742 1.384 . S
C741 C740 1.377 . S
C741 C747 1.390 . S
C742 H733 0.930 . S
C742 C740 1.384 . S
C742 C743 1.372 . S
C743 C742 1.372 . S
C743 C744 1.400 . S
C743 C748 1.490 . S
C744 H734 0.930 . S
C744 C743 1.400 . S
C744 C747 1.386 . S
H745 C761 0.930 . S
H746 C762 0.931 . S
C747 H735 0.929 . S
C747 C741 1.390 . S
C747 C744 1.386 . S
C748 C743 1.490 . S
C748 C750 1.395 . S
C748 C751 1.403 . S
H749 C755 0.930 . S
C750 H736 0.930 . S
C750 C748 1.395 . S
C750 C753 1.403 . S
C751 C748 1.403 . S
C751 C752 1.524 . S
C751 C755 1.400 . S
C752 H737 0.960 . S
C752 H738 0.960 . S
C752 H739 0.960 . S
C752 C751 1.524 . S
C753 C750 1.403 . S
C753 C754 1.392 . S
C753 C757 1.495 . S
C754 C753 1.392 . S
C754 C755 1.385 . S
C754 C756 1.478 . S
C755 H749 0.930 . S
C755 C751 1.400 . S
C755 C754 1.385 . S
C756 C754 1.478 . S
C756 C758 1.381 . S
C756 C762 1.383 . S
C757 C753 1.495 . S
C757 H763 0.959 . S
C757 H764 0.961 . S
C757 H765 0.960 . S
C758 C756 1.381 . S
C758 C759 1.394 . S
C758 H766 0.930 . S
C759 C758 1.394 . S
C759 C760 1.383 . S
C759 H767 0.929 . S
C760 C759 1.383 . S
C760 C761 1.377 . S
C761 H745 0.930 . S
C761 C760 1.377 . S
C761 C762 1.379 . S
C762 H746 0.931 . S
C762 C756 1.383 . S
C762 C761 1.379 . S
H763 C757 0.959 . S
H764 C757 0.961 . S
H765 C757 0.960 . S
H766 C758 0.930 . S
H767 C759 0.929 . S
H768 C776 0.929 . S
H769 C778 0.930 . S
H770 C780 0.930 . S
H771 C783 0.929 . S
H772 C786 0.930 . S
H773 C788 0.960 . S
H774 C788 0.960 . S
H775 C788 0.960 . S
C776 H768 0.929 . S
C776 C777 1.377 . S
C776 C778 1.384 . S
C777 C776 1.377 . S
C777 C783 1.390 . S
C778 H769 0.930 . S
C778 C776 1.384 . S
C778 C779 1.372 . S
C779 C778 1.372 . S
C779 C780 1.400 . S
C779 C784 1.490 . S
C780 H770 0.930 . S
C780 C779 1.400 . S
C780 C783 1.386 . S
H781 C797 0.930 . S
H782 C798 0.931 . S
C783 H771 0.929 . S
C783 C777 1.390 . S
C783 C780 1.386 . S
C784 C779 1.490 . S
C784 C786 1.395 . S
C784 C787 1.403 . S
H785 C791 0.930 . S
C786 H772 0.930 . S
C786 C784 1.395 . S
C786 C789 1.403 . S
C787 C784 1.403 . S
C787 C788 1.524 . S
C787 C791 1.400 . S
C788 H773 0.960 . S
C788 H774 0.960 . S
C788 H775 0.960 . S
C788 C787 1.524 . S
C789 C786 1.403 . S
C789 C790 1.392 . S
C789 C793 1.495 1_655 S
C790 C789 1.392 . S
C790 C791 1.385 . S
C790 C792 1.478 . S
C791 H785 0.930 . S
C791 C787 1.400 . S
C791 C790 1.385 . S
C792 C790 1.478 . S
C792 C794 1.381 . S
C792 C798 1.383 . S
C793 C789 1.495 1_455 S
C793 H799 0.959 . S
C793 H800 0.961 . S
C793 H801 0.960 . S
C794 C792 1.381 . S
C794 C795 1.394 1_655 S
C794 H802 0.930 . S
C795 C794 1.394 1_455 S
C795 C796 1.383 . S
C795 H803 0.929 . S
C796 C795 1.383 . S
C796 C797 1.377 1_455 S
C797 H781 0.930 . S
C797 C796 1.377 1_655 S
C797 C798 1.379 . S
C798 H782 0.931 . S
C798 C792 1.383 . S
C798 C797 1.379 . S
H799 C793 0.959 . S
H800 C793 0.961 . S
H801 C793 0.960 . S
H802 C794 0.930 . S
H803 C795 0.929 . S
H804 C812 0.929 . S
H805 C814 0.930 . S
H806 C816 0.930 . S
H807 C819 0.929 . S
H808 C822 0.930 . S
H809 C824 0.960 . S
H810 C824 0.960 1_545 S
H811 C824 0.960 . S
C812 H804 0.929 . S
C812 C813 1.354 1_545 S
C812 C814 1.384 . S
C813 C812 1.354 1_565 S
C813 C819 1.408 . S
C814 H805 0.930 . S
C814 C812 1.384 . S
C814 C815 1.372 . S
C815 C814 1.372 . S
C815 C816 1.400 1_545 S
C815 C820 1.490 . S
C816 H806 0.930 . S
C816 C815 1.400 1_565 S
C816 C819 1.386 . S
H817 C833 0.930 . S
H818 C834 0.931 . S
C819 H807 0.929 . S
C819 C813 1.408 . S
C819 C816 1.386 . S
C820 C815 1.490 . S
C820 C822 1.395 . S
C820 C823 1.403 . S
H821 C827 0.932 . S
C822 H808 0.930 . S
C822 C820 1.395 . S
C822 C825 1.403 . S
C823 C820 1.403 . S
C823 C824 1.524 1_545 S
C823 C827 1.400 . S
C824 H809 0.960 . S
C824 H810 0.960 1_565 S
C824 H811 0.960 . S
C824 C823 1.524 1_565 S
C825 C822 1.403 . S
C825 C826 1.392 . S
C825 C829 1.495 . S
C826 C825 1.392 . S
C826 C827 1.385 . S
C826 C828 1.478 . S
C827 H821 0.932 . S
C827 C823 1.400 . S
C827 C826 1.385 . S
C828 C826 1.478 . S
C828 C830 1.381 . S
C828 C834 1.383 1_545 S
C829 C825 1.495 . S
C829 H835 0.959 . S
C829 H836 0.961 . S
C829 H837 0.960 . S
C830 C828 1.381 . S
C830 C831 1.394 . S
C830 H838 0.930 . S
C831 C830 1.394 . S
C831 C832 1.383 . S
C831 H839 0.929 . S
C832 C831 1.383 . S
C832 C833 1.377 1_545 S
C833 H817 0.930 . S
C833 C832 1.377 1_565 S
C833 C834 1.379 . S
C834 H818 0.931 . S
C834 C828 1.383 1_565 S
C834 C833 1.379 . S
H835 C829 0.959 . S
H836 C829 0.961 . S
H837 C829 0.960 . S
H838 C830 0.930 . S
H839 C831 0.929 . S
H840 C848 0.929 . S
H841 C850 0.930 . S
H842 C852 0.930 . S
H843 C855 0.929 . S
H844 C858 0.930 . S
H845 C860 0.960 . S
H846 C860 0.960 . S
H847 C860 0.960 . S
C848 H840 0.929 . S
C848 C849 1.377 . S
C848 C850 1.384 . S
C849 C848 1.377 . S
C849 C855 1.390 . S
C850 H841 0.930 . S
C850 C848 1.384 . S
C850 C851 1.372 . S
C851 C850 1.372 . S
C851 C852 1.400 . S
C851 C856 1.490 . S
C852 H842 0.930 . S
C852 C851 1.400 . S
C852 C855 1.386 . S
H853 C869 0.930 . S
H854 C870 0.931 . S
C855 H843 0.929 . S
C855 C849 1.390 . S
C855 C852 1.386 . S
C856 C851 1.490 . S
C856 C858 1.395 . S
C856 C859 1.403 . S
H857 C863 0.930 . S
C858 H844 0.930 . S
C858 C856 1.395 . S
C858 C861 1.403 . S
C859 C856 1.403 . S
C859 C860 1.524 . S
C859 C863 1.400 . S
C860 H845 0.960 . S
C860 H846 0.960 . S
C860 H847 0.960 . S
C860 C859 1.524 . S
C861 C858 1.403 . S
C861 C862 1.392 . S
C861 C865 1.495 . S
C862 C861 1.392 . S
C862 C863 1.385 . S
C862 C864 1.478 . S
C863 H857 0.930 . S
C863 C859 1.400 . S
C863 C862 1.385 . S
C864 C862 1.478 . S
C864 C866 1.381 . S
C864 C870 1.383 . S
C865 C861 1.495 . S
C865 H871 0.959 . S
C865 H872 0.961 . S
C865 H873 0.960 . S
C866 C864 1.381 . S
C866 C867 1.394 . S
C866 H874 0.930 . S
C867 C866 1.394 . S
C867 C868 1.383 . S
C867 H875 0.929 . S
C868 C867 1.383 . S
C868 C869 1.377 . S
C869 H853 0.930 . S
C869 C868 1.377 . S
C869 C870 1.379 . S
C870 H854 0.931 . S
C870 C864 1.383 . S
C870 C869 1.379 . S
H871 C865 0.959 . S
H872 C865 0.961 . S
H873 C865 0.960 . S
H874 C866 0.930 . S
H875 C867 0.929 . S
H876 C884 0.929 . S
H877 C886 0.930 . S
H878 C888 0.930 . S
H879 C891 0.929 . S
H880 C894 0.930 . S
H881 C896 0.960 . S
H882 C896 0.960 . S
H883 C896 0.960 . S
C884 H876 0.929 . S
C884 C885 1.377 . S
C884 C886 1.384 . S
C885 C884 1.377 . S
C885 C891 1.390 . S
C886 H877 0.930 . S
C886 C884 1.384 . S
C886 C887 1.372 . S
C887 C886 1.372 . S
C887 C888 1.400 . S
C887 C892 1.490 . S
C888 H878 0.930 . S
C888 C887 1.400 . S
C888 C891 1.386 . S
H889 C905 0.930 . S
H890 C906 0.931 . S
C891 H879 0.929 . S
C891 C885 1.390 . S
C891 C888 1.386 . S
C892 C887 1.490 . S
C892 C894 1.395 . S
C892 C895 1.403 . S
H893 C899 0.930 . S
C894 H880 0.930 . S
C894 C892 1.395 . S
C894 C897 1.403 . S
C895 C892 1.403 . S
C895 C896 1.524 . S
C895 C899 1.400 . S
C896 H881 0.960 . S
C896 H882 0.960 . S
C896 H883 0.960 . S
C896 C895 1.524 . S
C897 C894 1.403 . S
C897 C898 1.392 . S
C897 C901 1.495 . S
C898 C897 1.392 . S
C898 C899 1.385 . S
C898 C900 1.478 . S
C899 H893 0.930 . S
C899 C895 1.400 . S
C899 C898 1.385 . S
C900 C898 1.478 . S
C900 C902 1.381 . S
C900 C906 1.383 . S
C901 C897 1.495 . S
C901 H907 0.959 . S
C901 H908 0.961 . S
C901 H909 0.960 . S
C902 C900 1.381 . S
C902 C903 1.394 . S
C902 H910 0.930 . S
C903 C902 1.394 . S
C903 C904 1.383 . S
C903 H911 0.929 . S
C904 C903 1.383 . S
C904 C905 1.377 . S
C905 H889 0.930 . S
C905 C904 1.377 . S
C905 C906 1.379 . S
C906 H890 0.931 . S
C906 C900 1.383 . S
C906 C905 1.379 . S
H907 C901 0.959 . S
H908 C901 0.961 . S
H909 C901 0.960 . S
H910 C902 0.930 . S
H911 C903 0.929 . S
H912 C920 0.929 . S
H913 C922 0.930 . S
H914 C924 0.930 . S
H915 C927 0.929 . S
H916 C930 0.930 . S
H917 C932 0.960 . S
H918 C932 0.960 . S
H919 C932 0.960 . S
C920 H912 0.929 . S
C920 C921 1.377 . S
C920 C922 1.384 . S
C921 C920 1.377 . S
C921 C927 1.390 . S
C922 H913 0.930 . S
C922 C920 1.384 . S
C922 C923 1.372 . S
C923 C922 1.372 . S
C923 C924 1.400 . S
C923 C928 1.490 . S
C924 H914 0.930 . S
C924 C923 1.400 . S
C924 C927 1.386 . S
H925 C941 0.930 . S
H926 C942 0.931 . S
C927 H915 0.929 . S
C927 C921 1.390 . S
C927 C924 1.386 . S
C928 C923 1.490 . S
C928 C930 1.395 . S
C928 C931 1.403 . S
H929 C935 0.930 . S
C930 H916 0.930 . S
C930 C928 1.395 . S
C930 C933 1.403 . S
C931 C928 1.403 . S
C931 C932 1.524 . S
C931 C935 1.400 . S
C932 H917 0.960 . S
C932 H918 0.960 . S
C932 H919 0.960 . S
C932 C931 1.524 . S
C933 C930 1.403 . S
C933 C934 1.392 . S
C933 C937 1.495 . S
C934 C933 1.392 . S
C934 C935 1.385 . S
C934 C936 1.478 . S
C935 H929 0.930 . S
C935 C931 1.400 . S
C935 C934 1.385 . S
C936 C934 1.478 . S
C936 C938 1.381 . S
C936 C942 1.383 . S
C937 C933 1.495 . S
C937 H943 0.959 . S
C937 H944 0.961 . S
C937 H945 0.960 . S
C938 C936 1.381 . S
C938 C939 1.394 . S
C938 H946 0.930 . S
C939 C938 1.394 . S
C939 C940 1.383 . S
C939 H947 0.929 . S
C940 C939 1.383 . S
C940 C941 1.377 . S
C941 H925 0.930 . S
C941 C940 1.377 . S
C941 C942 1.379 . S
C942 H926 0.931 . S
C942 C936 1.383 . S
C942 C941 1.379 . S
H943 C937 0.959 . S
H944 C937 0.961 . S
H945 C937 0.960 . S
H946 C938 0.930 . S
H947 C939 0.929 . S
H948 C956 0.929 . S
H949 C958 0.930 . S
H950 C960 0.930 . S
H951 C963 0.929 . S
H952 C966 0.930 . S
H953 C968 0.960 . S
H954 C968 0.960 . S
H955 C968 0.960 . S
C956 H948 0.929 . S
C956 C957 1.379 1_565 S
C956 C958 1.384 . S
C957 C956 1.379 1_545 S
C957 C963 1.389 . S
C958 H949 0.930 . S
C958 C956 1.384 . S
C958 C959 1.366 1_565 S
C959 C958 1.366 1_545 S
C959 C960 1.408 . S
C959 C964 1.489 . S
C960 H950 0.930 . S
C960 C959 1.408 . S
C960 C963 1.386 . S
H961 C977 0.930 . S
H962 C978 0.931 . S
C963 H951 0.929 . S
C963 C957 1.389 . S
C963 C960 1.386 . S
C964 C959 1.489 . S
C964 C966 1.395 . S
C964 C967 1.403 1_545 S
H965 C971 0.930 . S
C966 H952 0.930 . S
C966 C964 1.395 . S
C966 C969 1.403 . S
C967 C964 1.403 1_565 S
C967 C968 1.524 . S
C967 C971 1.400 . S
C968 H953 0.960 . S
C968 H954 0.960 . S
C968 H955 0.960 . S
C968 C967 1.524 . S
C969 C966 1.403 . S
C969 C970 1.392 . S
C969 C973 1.495 . S
C970 C969 1.392 . S
C970 C971 1.385 1_545 S
C970 C972 1.478 . S
C971 H965 0.930 . S
C971 C967 1.400 . S
C971 C970 1.385 1_565 S
C972 C970 1.478 . S
C972 C974 1.381 1_545 S
C972 C978 1.383 . S
C973 C969 1.495 . S
C973 H979 0.959 . S
C973 H980 0.961 . S
C973 H981 0.960 . S
C974 C972 1.381 1_565 S
C974 C975 1.394 . S
C974 H982 0.930 . S
C975 C974 1.394 . S
C975 C976 1.383 1_565 S
C975 H983 0.929 . S
C976 C975 1.383 1_545 S
C976 C977 1.377 . S
C977 H961 0.930 . S
C977 C976 1.377 . S
C977 C978 1.379 . S
C978 H962 0.931 . S
C978 C972 1.383 . S
C978 C977 1.379 . S
H979 C973 0.959 . S
H980 C973 0.961 . S
H981 C973 0.960 . S
H982 C974 0.930 . S
H983 C975 0.929 . S
H984 C992 0.929 . S
H985 C994 0.930 . S
H986 C996 0.930 . S
H987 C999 0.929 . S
H988 C1002 0.930 . S
H989 C1004 0.960 . S
H990 C1004 0.960 . S
H991 C1004 0.960 . S
C992 H984 0.929 . S
C992 C993 1.377 . S
C992 C994 1.384 . S
C993 C992 1.377 . S
C993 C999 1.390 . S
C994 H985 0.930 . S
C994 C992 1.384 . S
C994 C995 1.372 . S
C995 C994 1.372 . S
C995 C996 1.400 . S
C995 C1000 1.490 . S
C996 H986 0.930 . S
C996 C995 1.400 . S
C996 C999 1.386 . S
H997 C1013 0.930 . S
H998 C1014 0.931 . S
C999 H987 0.929 . S
C999 C993 1.390 . S
C999 C996 1.386 . S
C1000 C995 1.490 . S
C1000 C1002 1.395 . S
C1000 C1003 1.403 . S
H1001 C1007 0.930 . S
C1002 H988 0.930 . S
C1002 C1000 1.395 . S
C1002 C1005 1.403 . S
C1003 C1000 1.403 . S
C1003 C1004 1.524 . S
C1003 C1007 1.400 . S
C1004 H989 0.960 . S
C1004 H990 0.960 . S
C1004 H991 0.960 . S
C1004 C1003 1.524 . S
C1005 C1002 1.403 . S
C1005 C1006 1.392 . S
C1005 C1009 1.495 . S
C1006 C1005 1.392 . S
C1006 C1007 1.385 . S
C1006 C1008 1.478 . S
C1007 H1001 0.930 . S
C1007 C1003 1.400 . S
C1007 C1006 1.385 . S
C1008 C1006 1.478 . S
C1008 C1010 1.381 . S
C1008 C1014 1.383 . S
C1009 C1005 1.495 . S
C1009 H1015 0.959 . S
C1009 H1016 0.961 . S
C1009 H1017 0.960 . S
C1010 C1008 1.381 . S
C1010 C1011 1.394 . S
C1010 H1018 0.930 . S
C1011 C1010 1.394 . S
C1011 C1012 1.383 . S
C1011 H1019 0.929 . S
C1012 C1011 1.383 . S
C1012 C1013 1.377 . S
C1013 H997 0.930 . S
C1013 C1012 1.377 . S
C1013 C1014 1.379 . S
C1014 H998 0.931 . S
C1014 C1008 1.383 . S
C1014 C1013 1.379 . S
H1015 C1009 0.959 . S
H1016 C1009 0.961 . S
H1017 C1009 0.960 . S
H1018 C1010 0.930 . S
H1019 C1011 0.929 . S
H1020 C1028 0.929 . S
H1021 C1030 0.930 . S
H1022 C1032 0.930 . S
H1023 C1035 0.929 . S
H1024 C1038 0.930 . S
H1025 C1040 0.960 . S
H1026 C1040 0.960 . S
H1027 C1040 0.960 . S
C1028 H1020 0.929 . S
C1028 C1029 1.377 . S
C1028 C1030 1.384 . S
C1029 C1028 1.377 . S
C1029 C1035 1.390 . S
C1030 H1021 0.930 . S
C1030 C1028 1.384 . S
C1030 C1031 1.372 . S
C1031 C1030 1.372 . S
C1031 C1032 1.400 . S
C1031 C1036 1.490 . S
C1032 H1022 0.930 . S
C1032 C1031 1.400 . S
C1032 C1035 1.386 . S
H1033 C1049 0.930 . S
H1034 C1050 0.931 . S
C1035 H1023 0.929 . S
C1035 C1029 1.390 . S
C1035 C1032 1.386 . S
C1036 C1031 1.490 . S
C1036 C1038 1.395 . S
C1036 C1039 1.403 . S
H1037 C1043 0.930 . S
C1038 H1024 0.930 . S
C1038 C1036 1.395 . S
C1038 C1041 1.403 . S
C1039 C1036 1.403 . S
C1039 C1040 1.524 . S
C1039 C1043 1.400 . S
C1040 H1025 0.960 . S
C1040 H1026 0.960 . S
C1040 H1027 0.960 . S
C1040 C1039 1.524 . S
C1041 C1038 1.403 . S
C1041 C1042 1.392 . S
C1041 C1045 1.495 . S
C1042 C1041 1.392 . S
C1042 C1043 1.385 . S
C1042 C1044 1.478 . S
C1043 H1037 0.930 . S
C1043 C1039 1.400 . S
C1043 C1042 1.385 . S
C1044 C1042 1.478 . S
C1044 C1046 1.381 . S
C1044 C1050 1.383 . S
C1045 C1041 1.495 . S
C1045 H1051 0.959 . S
C1045 H1052 0.961 . S
C1045 H1053 0.960 . S
C1046 C1044 1.381 . S
C1046 C1047 1.394 . S
C1046 H1054 0.930 . S
C1047 C1046 1.394 . S
C1047 C1048 1.383 . S
C1047 H1055 0.929 . S
C1048 C1047 1.383 . S
C1048 C1049 1.377 . S
C1049 H1033 0.930 . S
C1049 C1048 1.377 . S
C1049 C1050 1.379 . S
C1050 H1034 0.931 . S
C1050 C1044 1.383 . S
C1050 C1049 1.379 . S
H1051 C1045 0.959 . S
H1052 C1045 0.961 . S
H1053 C1045 0.960 . S
H1054 C1046 0.930 . S
H1055 C1047 0.929 . S
H1056 C1064 0.929 . S
H1057 C1066 0.930 . S
H1058 C1068 0.930 . S
H1059 C1071 0.929 . S
H1060 C1074 0.930 . S
H1061 C1076 0.960 . S
H1062 C1076 0.960 . S
H1063 C1076 0.960 . S
C1064 H1056 0.929 . S
C1064 C1065 1.377 . S
C1064 C1066 1.384 . S
C1065 C1064 1.377 . S
C1065 C1071 1.390 . S
C1066 H1057 0.930 . S
C1066 C1064 1.384 . S
C1066 C1067 1.372 . S
C1067 C1066 1.372 . S
C1067 C1068 1.400 . S
C1067 C1072 1.490 . S
C1068 H1058 0.930 . S
C1068 C1067 1.400 . S
C1068 C1071 1.386 . S
H1069 C1085 0.930 . S
H1070 C1086 0.931 . S
C1071 H1059 0.929 . S
C1071 C1065 1.390 . S
C1071 C1068 1.386 . S
C1072 C1067 1.490 . S
C1072 C1074 1.395 . S
C1072 C1075 1.403 . S
H1073 C1079 0.930 . S
C1074 H1060 0.930 . S
C1074 C1072 1.395 . S
C1074 C1077 1.403 . S
C1075 C1072 1.403 . S
C1075 C1076 1.524 . S
C1075 C1079 1.400 . S
C1076 H1061 0.960 . S
C1076 H1062 0.960 . S
C1076 H1063 0.960 . S
C1076 C1075 1.524 . S
C1077 C1074 1.403 . S
C1077 C1078 1.392 . S
C1077 C1081 1.495 . S
C1078 C1077 1.392 . S
C1078 C1079 1.385 . S
C1078 C1080 1.478 . S
C1079 H1073 0.930 . S
C1079 C1075 1.400 . S
C1079 C1078 1.385 . S
C1080 C1078 1.478 . S
C1080 C1082 1.381 . S
C1080 C1086 1.383 . S
C1081 C1077 1.495 . S
C1081 H1087 0.959 . S
C1081 H1088 0.961 . S
C1081 H1089 0.960 . S
C1082 C1080 1.381 . S
C1082 C1083 1.394 . S
C1082 H1090 0.930 . S
C1083 C1082 1.394 . S
C1083 C1084 1.383 . S
C1083 H1091 0.929 . S
C1084 C1083 1.383 . S
C1084 C1085 1.377 . S
C1085 H1069 0.930 . S
C1085 C1084 1.377 . S
C1085 C1086 1.379 . S
C1086 H1070 0.931 . S
C1086 C1080 1.383 . S
C1086 C1085 1.379 . S
H1087 C1081 0.959 . S
H1088 C1081 0.961 . S
H1089 C1081 0.960 . S
H1090 C1082 0.930 . S
H1091 C1083 0.929 . S
H1092 C1100 0.929 . S
H1093 C1102 0.930 . S
H1094 C1104 0.930 . S
H1095 C1107 0.929 . S
H1096 C1110 0.929 . S
H1097 C1112 0.960 . S
H1098 C1112 0.960 . S
H1099 C1112 0.960 1_545 S
C1100 H1092 0.929 . S
C1100 C1101 1.394 . S
C1100 C1102 1.384 . S
C1101 C1100 1.394 . S
C1101 C1107 1.372 1_565 S
C1102 H1093 0.930 . S
C1102 C1100 1.384 . S
C1102 C1103 1.372 . S
C1103 C1102 1.372 . S
C1103 C1104 1.400 1_565 S
C1103 C1108 1.490 . S
C1104 H1094 0.930 . S
C1104 C1103 1.400 1_545 S
C1104 C1107 1.386 . S
H1105 C1121 0.930 . S
H1106 C1122 0.931 . S
C1107 H1095 0.929 . S
C1107 C1101 1.372 1_545 S
C1107 C1104 1.386 . S
C1108 C1103 1.490 . S
C1108 C1110 1.395 . S
C1108 C1111 1.403 . S
H1109 C1115 0.930 . S
C1110 H1096 0.929 . S
C1110 C1108 1.395 . S
C1110 C1113 1.403 . S
C1111 C1108 1.403 . S
C1111 C1112 1.524 . S
C1111 C1115 1.400 . S
C1112 H1097 0.960 . S
C1112 H1098 0.960 . S
C1112 H1099 0.960 1_565 S
C1112 C1111 1.524 . S
C1113 C1110 1.403 . S
C1113 C1114 1.392 . S
C1113 C1117 1.494 1_565 S
C1114 C1113 1.392 . S
C1114 C1115 1.385 . S
C1114 C1116 1.478 . S
C1115 H1109 0.930 . S
C1115 C1111 1.400 . S
C1115 C1114 1.385 . S
C1116 C1114 1.478 . S
C1116 C1118 1.381 . S
C1116 C1122 1.383 1_565 S
C1117 C1113 1.494 1_545 S
C1117 H1123 0.958 . S
C1117 H1124 0.985 . S
C1117 H1125 0.939 1_545 S
C1118 C1116 1.381 . S
C1118 C1119 1.394 . S
C1118 H1126 0.930 . S
C1119 C1118 1.394 . S
C1119 C1120 1.383 . S
C1119 H1127 0.929 . S
C1120 C1119 1.383 . S
C1120 C1121 1.377 1_565 S
C1121 H1105 0.930 . S
C1121 C1120 1.377 1_545 S
C1121 C1122 1.379 . S
C1122 H1106 0.931 . S
C1122 C1116 1.383 1_545 S
C1122 C1121 1.379 . S
H1123 C1117 0.958 . S
H1124 C1117 0.985 . S
H1125 C1117 0.939 1_565 S
H1126 C1118 0.930 . S
H1127 C1119 0.929 . S
H1128 C1136 0.929 . S
H1129 C1138 0.930 . S
H1130 C1140 0.930 . S
H1131 C1143 0.929 . S
H1132 C1146 0.930 . S
H1133 C1148 0.960 . S
H1134 C1148 0.960 . S
H1135 C1148 0.960 . S
C1136 H1128 0.929 . S
C1136 C1137 1.377 . S
C1136 C1138 1.384 . S
C1137 C1136 1.377 . S
C1137 C1143 1.390 . S
C1138 H1129 0.930 . S
C1138 C1136 1.384 . S
C1138 C1139 1.372 . S
C1139 C1138 1.372 . S
C1139 C1140 1.400 . S
C1139 C1144 1.490 . S
C1140 H1130 0.930 . S
C1140 C1139 1.400 . S
C1140 C1143 1.386 . S
H1141 C1157 0.930 . S
H1142 C1158 0.931 . S
C1143 H1131 0.929 . S
C1143 C1137 1.390 . S
C1143 C1140 1.386 . S
C1144 C1139 1.490 . S
C1144 C1146 1.395 . S
C1144 C1147 1.403 . S
H1145 C1151 0.930 . S
C1146 H1132 0.930 . S
C1146 C1144 1.395 . S
C1146 C1149 1.403 . S
C1147 C1144 1.403 . S
C1147 C1148 1.524 . S
C1147 C1151 1.400 . S
C1148 H1133 0.960 . S
C1148 H1134 0.960 . S
C1148 H1135 0.960 . S
C1148 C1147 1.524 . S
C1149 C1146 1.403 . S
C1149 C1150 1.392 . S
C1149 C1153 1.495 . S
C1150 C1149 1.392 . S
C1150 C1151 1.385 . S
C1150 C1152 1.478 . S
C1151 H1145 0.930 . S
C1151 C1147 1.400 . S
C1151 C1150 1.385 . S
C1152 C1150 1.478 . S
C1152 C1154 1.381 . S
C1152 C1158 1.383 . S
C1153 C1149 1.495 . S
C1153 H1159 0.959 . S
C1153 H1160 0.961 . S
C1153 H1161 0.960 . S
C1154 C1152 1.381 . S
C1154 C1155 1.394 . S
C1154 H1162 0.930 . S
C1155 C1154 1.394 . S
C1155 C1156 1.383 . S
C1155 H1163 0.929 . S
C1156 C1155 1.383 . S
C1156 C1157 1.377 . S
C1157 H1141 0.930 . S
C1157 C1156 1.377 . S
C1157 C1158 1.379 . S
C1158 H1142 0.931 . S
C1158 C1152 1.383 . S
C1158 C1157 1.379 . S
H1159 C1153 0.959 . S
H1160 C1153 0.961 . S
H1161 C1153 0.960 . S
H1162 C1154 0.930 . S
H1163 C1155 0.929 . S
H1164 C1172 0.929 . S
H1165 C1174 0.930 . S
H1166 C1176 0.930 . S
H1167 C1179 0.929 . S
H1168 C1182 0.930 . S
H1169 C1184 0.960 . S
H1170 C1184 0.960 . S
H1171 C1184 0.960 . S
C1172 H1164 0.929 . S
C1172 C1173 1.377 . S
C1172 C1174 1.384 . S
C1173 C1172 1.377 . S
C1173 C1179 1.390 . S
C1174 H1165 0.930 . S
C1174 C1172 1.384 . S
C1174 C1175 1.372 . S
C1175 C1174 1.372 . S
C1175 C1176 1.400 . S
C1175 C1180 1.490 . S
C1176 H1166 0.930 . S
C1176 C1175 1.400 . S
C1176 C1179 1.386 . S
H1177 C1193 0.930 . S
H1178 C1194 0.931 . S
C1179 H1167 0.929 . S
C1179 C1173 1.390 . S
C1179 C1176 1.386 . S
C1180 C1175 1.490 . S
C1180 C1182 1.395 . S
C1180 C1183 1.403 . S
H1181 C1187 0.930 . S
C1182 H1168 0.930 . S
C1182 C1180 1.395 . S
C1182 C1185 1.403 . S
C1183 C1180 1.403 . S
C1183 C1184 1.524 . S
C1183 C1187 1.400 . S
C1184 H1169 0.960 . S
C1184 H1170 0.960 . S
C1184 H1171 0.960 . S
C1184 C1183 1.524 . S
C1185 C1182 1.403 . S
C1185 C1186 1.392 . S
C1185 C1189 1.495 . S
C1186 C1185 1.392 . S
C1186 C1187 1.385 . S
C1186 C1188 1.478 . S
C1187 H1181 0.930 . S
C1187 C1183 1.400 . S
C1187 C1186 1.385 . S
C1188 C1186 1.478 . S
C1188 C1190 1.381 . S
C1188 C1194 1.383 . S
C1189 C1185 1.495 . S
C1189 H1195 0.959 . S
C1189 H1196 0.961 . S
C1189 H1197 0.960 . S
C1190 C1188 1.381 . S
C1190 C1191 1.394 . S
C1190 H1198 0.930 . S
C1191 C1190 1.394 . S
C1191 C1192 1.383 . S
C1191 H1199 0.929 . S
C1192 C1191 1.383 . S
C1192 C1193 1.377 . S
C1193 H1177 0.930 . S
C1193 C1192 1.377 . S
C1193 C1194 1.379 . S
C1194 H1178 0.931 . S
C1194 C1188 1.383 . S
C1194 C1193 1.379 . S
H1195 C1189 0.959 . S
H1196 C1189 0.961 . S
H1197 C1189 0.960 . S
H1198 C1190 0.930 . S
H1199 C1191 0.929 . S
C345 C215 1.538 . S
C364 C264 1.588 . S
C400 C294 2.215 . S
C381 C247 2.190 . S
C436 C304 1.622 . S
C417 C151 1.508 . S
C472 C324 1.482 . S
C453 C183 1.458 . S
C508 C265 1.589 . S
C489 C87 1.536 . S
C525 C119 2.038 1_556 S
C544 C295 2.210 . S
C561 C23 1.609 . S
C580 C305 1.600 . S
C597 C55 1.350 . S
C616 C325 1.485 . S
C652 C257 0.533 . S
C633 C189 0.469 . S
C688 C278 0.363 . S
C669 C221 0.463 . S
C724 C297 0.797 . S
C705 C253 0.825 . S
C741 C157 0.520 . S
C760 C317 0.301 . S
C777 C61 0.622 . S
C796 C258 0.538 . S
C832 C277 0.262 . S
C813 C93 0.451 1_565 S
C868 C298 0.806 . S
C849 C125 0.799 . S
C885 C29 0.359 . S
C904 C318 0.313 . S
C921 C177 2.050 . S
C940 C275 2.110 . S
C957 C209 1.422 . S
C976 C285 1.516 . S
C1012 C315 2.250 . S
C993 C241 2.179 . S
C1048 C335 2.160 . S
C1029 C145 1.996 . S
C1065 C49 1.938 . S
C1084 C274 2.130 . S
C1120 C284 1.526 . S
C1101 C81 1.419 1_565 S
C1156 C314 2.271 . S
C1137 C113 2.044 . S
C1173 C17 2.113 . S
C1192 C334 2.171 . S
