# Generated by pormake.
# Topology anh, (6,3)-cn, num edge types: 1
# Building blocks:
#     Node 0, Type 0, BuildingBlock: INOVEN_clean_sbu_0, # of connection points: 6
#     Node 1, Type 0, BuildingBlock: INOVEN_clean_sbu_0, # of connection points: 6
#     Node 2, Type 0, BuildingBlock: INOVEN_clean_sbu_0, # of connection points: 6
#     Node 3, Type 1, BuildingBlock: BELTOD_clean_linker_0, # of connection points: 3
#     Node 4, Type 1, BuildingBlock: BELTOD_clean_linker_0, # of connection points: 3
#     Node 5, Type 1, BuildingBlock: BELTOD_clean_linker_0, # of connection points: 3
#     Node 6, Type 1, BuildingBlock: BELTOD_clean_linker_0, # of connection points: 3
#     Node 7, Type 1, BuildingBlock: BELTOD_clean_linker_0, # of connection points: 3
#     Node 8, Type 1, BuildingBlock: BELTOD_clean_linker_0, # of connection points: 3
#     Edge 9, Type (0, 1), BuildingBlock: AJUNOK_clean_linker_0, # of connection points: 2
#     Edge 10, Type (0, 1), BuildingBlock: AJUNOK_clean_linker_0, # of connection points: 2
#     Edge 11, Type (0, 1), BuildingBlock: AJUNOK_clean_linker_0, # of connection points: 2
#     Edge 12, Type (0, 1), BuildingBlock: AJUNOK_clean_linker_0, # of connection points: 2
#     Edge 13, Type (0, 1), BuildingBlock: AJUNOK_clean_linker_0, # of connection points: 2
#     Edge 14, Type (0, 1), BuildingBlock: AJUNOK_clean_linker_0, # of connection points: 2
#     Edge 15, Type (0, 1), BuildingBlock: AJUNOK_clean_linker_0, # of connection points: 2
#     Edge 16, Type (0, 1), BuildingBlock: AJUNOK_clean_linker_0, # of connection points: 2
#     Edge 17, Type (0, 1), BuildingBlock: AJUNOK_clean_linker_0, # of connection points: 2
#     Edge 18, Type (0, 1), BuildingBlock: AJUNOK_clean_linker_0, # of connection points: 2
#     Edge 19, Type (0, 1), BuildingBlock: AJUNOK_clean_linker_0, # of connection points: 2
#     Edge 20, Type (0, 1), BuildingBlock: AJUNOK_clean_linker_0, # of connection points: 2
#     Edge 21, Type (0, 1), BuildingBlock: AJUNOK_clean_linker_0, # of connection points: 2
#     Edge 22, Type (0, 1), BuildingBlock: AJUNOK_clean_linker_0, # of connection points: 2
#     Edge 23, Type (0, 1), BuildingBlock: AJUNOK_clean_linker_0, # of connection points: 2
#     Edge 24, Type (0, 1), BuildingBlock: AJUNOK_clean_linker_0, # of connection points: 2
#     Edge 25, Type (0, 1), BuildingBlock: AJUNOK_clean_linker_0, # of connection points: 2
#     Edge 26, Type (0, 1), BuildingBlock: AJUNOK_clean_linker_0, # of connection points: 2
# Relax obj value: 0.213
# Max RMSD: 0.230
# Mean RMSD: 0.161
data_MOF--net-anh--node1-INOVEN_clean_sbu_0--node2-BELTOD_clean_linker_0--edge1-AJUNOK_clean_linker_0
_symmetry_space_group_name_H-M    P1
_symmetry_Int_Tables_number       1
_symmetry_cell_setting            triclinic
loop_
_symmetry_equiv_pos_as_xyz
'x, y, z'
_cell_length_a     28.668075
_cell_length_b     33.46891
_cell_length_c     47.026469
_cell_angle_alpha  92.850881
_cell_angle_beta   89.757904
_cell_angle_gamma 130.9263
loop_
_atom_site_label
_atom_site_type_symbol
_atom_site_fract_x
_atom_site_fract_y
_atom_site_fract_z
_atom_type_partial_charge
Gd0 Gd 0.14628 0.54672 0.14838 0.0
Gd1 Gd 0.07283 0.57589 0.16396 0.0
C2 C 0.21582 0.67166 0.15999 0.0
C3 C 0.21704 0.53149 0.12693 0.0
C4 C 0.21373 0.486 0.12328 0.0
C5 C 0.16029 0.43522 0.13 0.0
C6 C 0.2653 0.49371 0.11388 0.0
C7 C 0.21063 0.40027 0.11817 0.0
C8 C 0.26381 0.4512 0.11136 0.0
C9 C 0.15867 0.3925 0.12739 0.0
C10 C 0.1263 0.54444 0.20467 0.0
C11 C 1.00324 0.44914 0.15573 0.0
C12 C 0.99469 0.58226 0.18532 0.0
C13 C 0.927 0.54748 0.18109 0.0
C14 C 0.88737 0.49531 0.18998 0.0
C15 C 0.9021 0.56438 0.16509 0.0
C16 C 0.80149 0.4758 0.16351 0.0
C17 C 0.83987 0.52873 0.15625 0.0
C18 C 0.82501 0.45978 0.18128 0.0
C19 C 0.08705 0.57263 0.10679 0.0
O20 O 0.214 0.63664 0.14424 0.0
O21 O 0.16689 0.65554 0.17421 0.0
O22 O 0.17709 0.52896 0.11166 0.0
O23 O 0.22309 0.54911 0.15325 0.0
O24 O 0.12458 0.50937 0.19035 0.0
O25 O 0.14047 0.58005 0.18883 0.0
O26 O 1.0012 0.48561 0.16595 0.0
O27 O 0.05439 0.46338 0.14476 0.0
O28 O 1.02678 0.60744 0.16311 0.0
O29 O 1.01533 0.56292 0.19873 0.0
O30 O 0.08882 0.60818 0.12047 0.0
O31 O 0.07582 0.53957 0.12381 0.0
H32 H 0.12021 0.42882 0.13753 0.0
H33 H 0.30688 0.53269 0.10868 0.0
H34 H 0.30426 0.45808 0.10393 0.0
H35 H 0.11738 0.35376 0.13302 0.0
H36 H 0.90495 0.4811 0.20252 0.0
H37 H 0.93145 0.60444 0.15819 0.0
H38 H 0.82221 0.54193 0.14282 0.0
H39 H 0.796 0.41907 0.18714 0.0
Gd40 Gd 0.64946 0.04552 0.47649 0.0
Gd41 Gd 0.57154 0.07214 0.46828 0.0
C42 C 0.50046 0.95018 0.46664 0.0
C43 C 0.69935 0.00746 0.49263 0.0
C44 C 0.6841 0.95744 0.49976 0.0
C45 C 0.70072 0.93469 0.48119 0.0
C46 C 0.6586 0.93469 0.52591 0.0
C47 C 0.67148 0.87033 0.51559 0.0
C48 C 0.65215 0.89142 0.53368 0.0
C49 C 0.69412 0.89146 0.48892 0.0
C50 C 0.64125 0.06277 0.42192 0.0
C51 C 0.72312 0.16856 0.47336 0.0
C52 C 0.52369 0.11367 0.45621 0.0
C53 C 0.53335 0.16111 0.46735 0.0
C54 C 0.50461 0.15947 0.49216 0.0
C55 C 0.57198 0.20877 0.45347 0.0
C56 C 0.55425 0.2523 0.48939 0.0
C57 C 0.58256 0.2539 0.46445 0.0
C58 C 0.51518 0.20454 0.5031 0.0
C59 C 0.58608 0.0604 0.52351 0.0
O60 O 0.55134 0.96652 0.48008 0.0
O61 O 0.50029 0.98494 0.45457 0.0
O62 O 0.69206 0.01225 0.46597 0.0
O63 O 0.68406 0.02829 0.51037 0.0
O64 O 0.69127 0.07831 0.43452 0.0
O65 O 0.59634 0.03655 0.43832 0.0
O66 O 0.66872 0.15265 0.46524 0.0
O67 O 0.7271 0.13406 0.48244 0.0
O68 O 0.49869 0.07512 0.47326 0.0
O69 O 0.56852 0.12212 0.44203 0.0
O70 O 0.53478 0.04372 0.51203 0.0
O71 O 0.62783 0.08431 0.50563 0.0
H72 H 0.72064 0.95136 0.46095 0.0
H73 H 0.64543 0.95128 0.54077 0.0
H74 H 0.63449 0.87589 0.55436 0.0
H75 H 0.70816 0.87533 0.47427 0.0
H76 H 0.47444 0.12351 0.50342 0.0
H77 H 0.59447 0.21133 0.43422 0.0
H78 H 0.61281 0.29009 0.45337 0.0
H79 H 0.49371 0.20226 0.52268 0.0
Gd80 Gd 0.60158 0.58171 0.86054 0.0
Gd81 Gd 0.5117 0.46479 0.8561 0.0
C82 C 0.44745 0.51935 0.86088 0.0
C83 C 0.66302 0.68017 0.8503 0.0
C84 C 0.65209 0.71544 0.84131 0.0
C85 C 0.60999 0.71785 0.85477 0.0
C86 C 0.68505 0.74766 0.81857 0.0
C87 C 0.63446 0.78432 0.82278 0.0
C88 C 0.67625 0.7815 0.80936 0.0
C89 C 0.60141 0.75208 0.84563 0.0
C90 C 0.57116 0.53555 0.91034 0.0
C91 C 0.66697 0.52829 0.86129 0.0
C92 C 0.45513 0.36562 0.86111 0.0
C93 C 0.46987 0.33226 0.85168 0.0
C94 C 0.51824 0.35149 0.83315 0.0
C95 C 0.43528 0.28077 0.86079 0.0
C96 C 0.49694 0.26787 0.83272 0.0
C97 C 0.44857 0.24881 0.85137 0.0
C98 C 0.53157 0.31965 0.82375 0.0
C99 C 0.54197 0.50876 0.80525 0.0
O100 O 0.50597 0.56335 0.85617 0.0
O101 O 0.43851 0.47513 0.86465 0.0
O102 O 0.64747 0.66258 0.8759 0.0
O103 O 0.6503 0.64431 0.83107 0.0
O104 O 0.6275 0.57693 0.90489 0.0
O105 O 0.5348 0.52231 0.88981 0.0
O106 O 0.60737 0.48296 0.8611 0.0
O107 O 0.67702 0.57339 0.85983 0.0
O108 O 0.44213 0.38256 0.84075 0.0
O109 O 0.49176 0.40261 0.88117 0.0
O110 O 0.48692 0.46669 0.81121 0.0
O111 O 0.57882 0.52399 0.8261 0.0
H112 H 0.58355 0.69323 0.87225 0.0
H113 H 0.7179 0.7467 0.80788 0.0
H114 H 0.70285 0.80607 0.79188 0.0
H115 H 0.56831 0.75278 0.8562 0.0
H116 H 0.54552 0.39109 0.82579 0.0
H117 H 0.39762 0.26509 0.87499 0.0
H118 H 0.42024 0.20883 0.85827 0.0
H119 H 0.56929 0.33566 0.80954 0.0
P120 P 0.64609 0.05019 0.20177 0.0
H121 H 0.60484 0.9582 0.16465 0.0
H122 H 0.50316 0.87222 0.15395 0.0
H123 H 0.41877 0.93243 0.18896 0.0
H124 H 0.52162 0.01795 0.20137 0.0
H125 H 0.77589 0.11551 0.18725 0.0
H126 H 0.85426 0.20616 0.17471 0.0
H127 H 0.71775 0.22321 0.17097 0.0
H128 H 0.63812 0.13097 0.18464 0.0
H129 H 0.57365 0.97198 0.24374 0.0
H130 H 0.69107 0.14174 0.24178 0.0
O131 O 0.6841 0.02823 0.20337 0.0
H132 H 0.56783 0.97883 0.29535 0.0
H133 H 0.6836 0.14856 0.29329 0.0
C134 C 0.57164 0.99506 0.18414 0.0
C135 C 0.56468 0.95356 0.16962 0.0
C136 C 0.50588 0.90384 0.16348 0.0
C137 C 0.45181 0.89399 0.17135 0.0
C138 C 0.45888 0.93725 0.18359 0.0
C139 C 0.51798 0.98693 0.19013 0.0
C140 C 0.69991 0.11506 0.1864 0.0
C141 C 0.76163 0.13771 0.18313 0.0
C142 C 0.8071 0.19022 0.17573 0.0
C143 C 0.79282 0.22244 0.17112 0.0
C144 C 0.73073 0.19975 0.17413 0.0
C145 C 0.68482 0.14668 0.18165 0.0
C146 C 0.63257 0.05622 0.23872 0.0
C147 C 0.59687 0.01064 0.25428 0.0
C148 C 0.59344 0.01457 0.28383 0.0
C149 C 0.62599 0.0643 0.29853 0.0
C150 C 0.65909 0.10974 0.28269 0.0
C151 C 0.66285 0.1058 0.25309 0.0
P152 P 0.68957 0.59521 0.59663 0.0
H153 H 0.71067 0.57622 0.53886 0.0
H154 H 0.67456 0.49568 0.51141 0.0
H155 H 0.55583 0.40142 0.57952 0.0
H156 H 0.5911 0.48166 0.60655 0.0
H157 H 0.76232 0.70836 0.60576 0.0
H158 H 0.75583 0.77087 0.58612 0.0
H159 H 0.59355 0.64268 0.53555 0.0
H160 H 0.59996 0.57974 0.55564 0.0
H161 H 0.71886 0.56417 0.64551 0.0
H162 H 0.59947 0.59617 0.62638 0.0
O163 O 0.76481 0.62678 0.59884 0.0
H164 H 0.68368 0.54674 0.69442 0.0
H165 H 0.56527 0.58012 0.67549 0.0
C166 C 0.65357 0.53506 0.5747 0.0
C167 C 0.67583 0.53808 0.54759 0.0
C168 C 0.6555 0.49211 0.53201 0.0
C169 C 0.61227 0.44216 0.54326 0.0
C170 C 0.58837 0.43916 0.57004 0.0
C171 C 0.60881 0.48519 0.58561 0.0
C172 C 0.68264 0.63971 0.58158 0.0
C173 C 0.72558 0.69367 0.59028 0.0
C174 C 0.72192 0.72937 0.57901 0.0
C175 C 0.67498 0.71179 0.55884 0.0
C176 C 0.6305 0.65731 0.55088 0.0
C177 C 0.63432 0.62145 0.56219 0.0
C178 C 0.66234 0.58205 0.63243 0.0
C179 C 0.68535 0.56777 0.6519 0.0
C180 C 0.66542 0.55804 0.67986 0.0
C181 C 0.6217 0.56203 0.68881 0.0
C182 C 0.59839 0.57605 0.66914 0.0
C183 C 0.61825 0.5856 0.64111 0.0
P184 P 0.0738 0.54507 0.88219 0.0
H185 H 0.17244 0.57821 0.83819 0.0
H186 H 0.25309 0.57278 0.83288 0.0
H187 H 0.18232 0.47168 0.90288 0.0
H188 H 0.10072 0.47652 0.90774 0.0
H189 H 1.03829 0.59668 0.84605 0.0
H190 H 0.95118 0.59332 0.84125 0.0
H191 H 0.84532 0.46179 0.89471 0.0
H192 H 0.93287 0.46459 0.89903 0.0
H193 H 0.15318 0.63208 0.92632 0.0
H194 H 1.00115 0.46342 0.92422 0.0
O195 O 0.12408 0.60843 0.87417 0.0
H196 H 0.15682 0.63599 0.97813 0.0
H197 H 1.00175 0.46763 0.97632 0.0
C198 C 0.12577 0.52713 0.87315 0.0
C199 C 0.17225 0.55355 0.85232 0.0
C200 C 0.22111 0.55132 0.84967 0.0
C201 C 0.22906 0.52271 0.86777 0.0
C202 C 0.18122 0.49475 0.88803 0.0
C203 C 0.13243 0.49723 0.89076 0.0
C204 C 0.99659 0.53084 0.87292 0.0
C205 C 0.99668 0.56604 0.85673 0.0
C206 C 0.94517 0.56474 0.85437 0.0
C207 C 0.88776 0.52821 0.86813 0.0
C208 C 0.88656 0.49153 0.88352 0.0
C209 C 0.93851 0.49303 0.88599 0.0
C210 C 0.07575 0.54755 0.92103 0.0
C211 C 0.11983 0.5958 0.93687 0.0
C212 C 0.12182 0.59808 0.96673 0.0
C213 C 0.07967 0.55219 0.98169 0.0
C214 C 1.0358 0.50375 0.96574 0.0
C215 C 1.03447 0.50142 0.9358 0.0
P216 P 0.1425 0.54242 0.42472 0.0
H217 H 0.25461 0.60429 0.46161 0.0
H218 H 0.3351 0.69868 0.47238 0.0
H219 H 0.21761 0.72444 0.43828 0.0
H220 H 0.1378 0.62892 0.42574 0.0
H221 H 0.09451 0.43463 0.42774 0.0
H222 H 0.99747 0.35193 0.44093 0.0
H223 H 0.9332 0.43381 0.46667 0.0
H224 H 1.0316 0.51773 0.45228 0.0
H225 H 0.21983 0.62358 0.38433 0.0
H226 H 1.03725 0.4693 0.3833 0.0
O227 O 0.19002 0.52986 0.42246 0.0
H228 H 0.20979 0.6253 0.33303 0.0
H229 H 1.02738 0.47091 0.33179 0.0
C230 C 0.18936 0.60863 0.44283 0.0
C231 C 0.24494 0.62969 0.4571 0.0
C232 C 0.29147 0.68443 0.46347 0.0
C233 C 0.28364 0.72027 0.4565 0.0
C234 C 0.2261 0.69864 0.44383 0.0
C235 C 0.17965 0.64361 0.43709 0.0
C236 C 0.07192 0.48348 0.43962 0.0
C237 C 0.06045 0.43563 0.43673 0.0
C238 C 1.00421 0.38768 0.4443 0.0
C239 C 0.95656 0.38529 0.45496 0.0
C240 C 0.96805 0.43344 0.45815 0.0
C241 C 1.02487 0.48187 0.45034 0.0
C242 C 0.12874 0.54697 0.388 0.0
C243 C 0.17673 0.59079 0.3733 0.0
C244 C 0.17103 0.59177 0.34389 0.0
C245 C 0.11749 0.54852 0.32845 0.0
C246 C 0.06901 0.50493 0.34321 0.0
C247 C 0.07457 0.50415 0.37273 0.0
P248 P 0.64719 0.0785 0.74455 0.0
H249 H 0.67314 0.13554 0.79933 0.0
H250 H 0.63358 0.1755 0.82111 0.0
H251 H 0.49598 0.10405 0.75256 0.0
H252 H 0.53711 0.06528 0.73042 0.0
H253 H 0.69628 0.02825 0.72819 0.0
H254 H 0.6872 0.95691 0.74711 0.0
H255 H 0.55605 0.92976 0.80728 0.0
H256 H 0.56687 1.00269 0.78862 0.0
H257 H 0.69901 0.1574 0.70241 0.0
H258 H 0.56466 0.98705 0.70286 0.0
O259 O 0.72277 0.12858 0.75068 0.0
H260 H 0.68554 0.15152 0.6506 0.0
H261 H 0.5514 0.98089 0.65076 0.0
C262 C 0.60851 0.09776 0.76313 0.0
C263 C 0.63371 0.12762 0.78923 0.0
C264 C 0.61072 0.15024 0.80179 0.0
C265 C 0.56134 0.14291 0.78867 0.0
C266 C 0.53433 0.11083 0.76312 0.0
C267 C 0.55758 0.08835 0.75052 0.0
C268 C 0.63218 0.02076 0.75689 0.0
C269 C 0.66507 0.00663 0.74528 0.0
C270 C 0.65974 0.96569 0.75612 0.0
C271 C 0.62132 0.93775 0.77893 0.0
C272 C 0.58703 0.95111 0.7901 0.0
C273 C 0.59265 0.99245 0.77925 0.0
C274 C 0.63387 0.07267 0.70643 0.0
C275 C 0.6669 0.11867 0.69132 0.0
C276 C 0.65947 0.11527 0.66168 0.0
C277 C 0.61851 0.06571 0.64652 0.0
C278 C 0.58374 0.01961 0.66185 0.0
C279 C 0.59137 0.02308 0.69159 0.0
P280 P 0.38387 0.24212 0.05325 0.0
H281 H 0.46933 0.22361 0.06063 0.0
H282 H 0.56598 0.27298 0.08914 0.0
H283 H 0.53056 0.36848 0.13025 0.0
H284 H 0.43519 0.32027 0.10141 0.0
H285 H 0.28897 0.23757 0.02681 0.0
H286 H 0.22645 0.25628 0.04701 0.0
H287 H 0.27114 0.24256 0.13159 0.0
H288 H 0.33482 0.22457 0.11108 0.0
H289 H 0.44347 0.25959 -0.00147 0.0
H290 H 0.40873 0.34162 0.05584 0.0
O291 O 0.35978 0.18591 0.03663 0.0
H292 H 0.49497 0.33279 0.96648 0.0
H293 H 0.45907 0.41386 0.02393 0.0
C294 C 0.44402 0.26708 0.07952 0.0
C295 C 0.48121 0.25386 0.07649 0.0
C296 C 0.53645 0.28219 0.0926 0.0
C297 C 0.5551 0.32415 0.11186 0.0
C298 C 0.51645 0.33568 0.11585 0.0
C299 C 0.46176 0.30787 0.09948 0.0
C300 C 0.31905 0.23262 0.06757 0.0
C301 C 0.28361 0.23671 0.04965 0.0
C302 C 0.24724 0.24689 0.06126 0.0
C303 C 0.24478 0.25187 0.09097 0.0
C304 C 0.27313 0.23985 0.10863 0.0
C305 C 0.30976 0.22983 0.09693 0.0
C306 C 0.42041 0.29436 0.02902 0.0
C307 C 0.44653 0.29304 0.00411 0.0
C308 C 0.47647 0.335 0.98604 0.0
C309 C 0.48073 0.3787 0.99285 0.0
C310 C 0.45596 0.3804 0.01818 0.0
C311 C 0.4268 0.33893 0.03627 0.0
C312 C 0.26052 0.36298 0.12756 0.0
C313 C 0.21069 0.35603 0.11553 0.0
C314 C 0.26798 0.3262 0.12144 0.0
C315 C 0.22595 0.28109 0.10297 0.0
H316 H 0.29565 0.39844 0.14076 0.0
H317 H 0.30947 0.33531 0.12965 0.0
S318 S 0.08296 0.24089 0.06922 0.0
N319 N 0.1152 0.29815 0.08666 0.0
N320 N 0.12883 0.22834 0.07542 0.0
C321 C 0.17333 0.27159 0.09256 0.0
C322 C 0.1657 0.30917 0.09883 0.0
C323 C 0.83925 0.24296 0.47939 0.0
C324 C 0.78118 0.22558 0.4707 0.0
C325 C 0.89478 0.29471 0.47514 0.0
C326 C 0.8956 0.33217 0.46188 0.0
H327 H 0.84222 0.21607 0.48921 0.0
H328 H 0.93777 0.30525 0.4821 0.0
S329 S 0.75633 0.30794 0.43566 0.0
N330 N 0.72829 0.2515 0.44889 0.0
N331 N 0.83208 0.34771 0.44049 0.0
C332 C 0.83776 0.31585 0.45373 0.0
C333 C 0.781 0.26305 0.45816 0.0
C334 C 0.61844 0.82253 0.78317 0.0
C335 C 0.62582 0.82083 0.81256 0.0
C336 C 0.61497 0.85912 0.77267 0.0
C337 C 0.61884 0.89584 0.79105 0.0
H338 H 0.61587 0.79558 0.76806 0.0
H339 H 0.60987 0.85899 0.74985 0.0
S340 S 0.63909 0.9085 0.86986 0.0
N341 N 0.63681 0.8592 0.85994 0.0
N342 N 0.63068 0.9281 0.84026 0.0
C343 C 0.62494 0.89388 0.82056 0.0
C344 C 0.62833 0.85643 0.83127 0.0
C345 C 0.68683 0.4062 0.16732 0.0
C346 C 0.73881 0.4363 0.15034 0.0
C347 C 0.6271 0.36915 0.1548 0.0
C348 C 0.618 0.36034 0.12502 0.0
H349 H 0.69238 0.41207 0.19032 0.0
H350 H 0.58783 0.34738 0.16841 0.0
S351 S 0.73927 0.42804 0.07146 0.0
N352 N 0.77761 0.45428 0.10247 0.0
N353 N 0.66553 0.38434 0.07898 0.0
C354 C 0.66972 0.38954 0.10793 0.0
C355 C 0.73017 0.42764 0.1206 0.0
C356 C 0.40049 0.86889 0.44197 0.0
C357 C 0.44367 0.89223 0.46513 0.0
C358 C 0.34857 0.81396 0.43966 0.0
C359 C 0.33666 0.77967 0.46063 0.0
H360 H 0.40775 0.89299 0.425 0.0
H361 H 0.31849 0.79809 0.4208 0.0
S362 S 0.43104 0.82244 0.52765 0.0
N363 N 0.46826 0.87725 0.51056 0.0
N364 N 0.37025 0.77546 0.50699 0.0
C365 C 0.37823 0.80323 0.48455 0.0
C366 C 0.43158 0.85889 0.4866 0.0
C367 C 0.51919 0.2301 0.79281 0.0
C368 C 0.51084 0.23388 0.82206 0.0
C369 C 0.53386 0.19962 0.78222 0.0
C370 C 0.54129 0.1718 0.80042 0.0
H371 H 0.51435 0.25095 0.77791 0.0
H372 H 0.54092 0.19893 0.75962 0.0
S373 S 0.52326 0.1676 0.87873 0.0
N374 N 0.51075 0.20674 0.86907 0.0
N375 N 0.53713 0.14876 0.84915 0.0
C376 C 0.53223 0.17462 0.82968 0.0
C377 C 0.51717 0.20563 0.84047 0.0
C378 C 0.61901 0.78279 0.53687 0.0
C379 C 0.67184 0.82881 0.52526 0.0
C380 C 0.6196 0.74422 0.54694 0.0
C381 C 0.67333 0.75073 0.54617 0.0
H382 H 0.57696 0.7766 0.5382 0.0
H383 H 0.57824 0.70975 0.55606 0.0
S384 S 0.82351 0.86364 0.51759 0.0
N385 N 0.77917 0.87834 0.51352 0.0
N386 N 0.77996 0.80584 0.53208 0.0
C387 C 0.72609 0.79619 0.53428 0.0
C388 C 0.72542 0.83518 0.52393 0.0
C389 C 0.7162 0.4823 0.86645 0.0
C390 C 0.72355 0.52855 0.86311 0.0
C391 C 0.76723 0.48241 0.86824 0.0
C392 C 0.83141 0.52865 0.86651 0.0
H393 H 0.66976 0.44472 0.86781 0.0
H394 H 0.75552 0.4448 0.87067 0.0
S395 S 0.88017 0.66233 0.85929 0.0
N396 N 0.80415 0.62322 0.8592 0.0
N397 N 0.89639 0.62363 0.86243 0.0
C398 C 0.83922 0.57522 0.86343 0.0
C399 C 0.78732 0.57511 0.86181 0.0
C400 C 0.31883 0.75078 0.14159 0.0
C401 C 0.27418 0.72905 0.16264 0.0
C402 C 0.37474 0.80406 0.14413 0.0
C403 C 0.38941 0.83831 0.16805 0.0
H404 H 0.31054 0.72645 0.12285 0.0
H405 H 0.40688 0.81842 0.12712 0.0
S406 S 0.28996 0.80001 0.23026 0.0
N407 N 0.24936 0.74608 0.20862 0.0
N408 N 0.35448 0.84466 0.21395 0.0
C409 C 0.34509 0.81683 0.18934 0.0
C410 C 0.28777 0.76281 0.18652 0.0
C411 C 0.62864 0.34909 0.50504 0.0
C412 C 0.5673 0.30082 0.50171 0.0
C413 C 0.64252 0.3947 0.51795 0.0
C414 C 0.59565 0.39394 0.52807 0.0
H415 H 0.66644 0.35133 0.49829 0.0
H416 H 0.69056 0.43051 0.52071 0.0
S417 S 0.42717 0.2792 0.52178 0.0
N418 N 0.45894 0.25617 0.50767 0.0
N419 N 0.48511 0.34181 0.53201 0.0
C420 C 0.53402 0.34637 0.52416 0.0
C421 C 0.51985 0.29991 0.51098 0.0
C422 C 0.33123 0.47801 0.87195 0.0
C423 C 0.39181 0.5204 0.86239 0.0
C424 C 0.28111 0.47909 0.87376 0.0
C425 C 0.28543 0.5223 0.86578 0.0
H426 H 0.32197 0.4429 0.87846 0.0
H427 H 0.23754 0.44451 0.88136 0.0
S428 S 0.43336 0.64544 0.83968 0.0
N429 N 0.45105 0.60833 0.84518 0.0
N430 N 0.36062 0.61037 0.84831 0.0
C431 C 0.34598 0.56498 0.8562 0.0
C432 C 0.39712 0.56405 0.85464 0.0
C433 C 0.89896 0.37473 0.17559 0.0
C434 C 0.94757 0.39114 0.15755 0.0
C435 C 0.84834 0.32054 0.17911 0.0
C436 C 0.84362 0.27992 0.16472 0.0
H437 H 0.90069 0.404 0.1878 0.0
H438 H 0.81367 0.31052 0.19403 0.0
S439 S 0.95413 0.3009 0.11212 0.0
N440 N 0.9845 0.36141 0.1233 0.0
N441 N 0.88975 0.26055 0.12945 0.0
C442 C 0.89057 0.2958 0.14566 0.0
C443 C 0.9422 0.3509 0.1422 0.0
C444 C 0.09208 0.60325 0.05837 0.0
C445 C 0.08501 0.56596 0.07507 0.0
C446 C 0.08997 0.59821 0.02845 0.0
C447 C 0.08104 0.55577 0.01372 0.0
H448 H 0.09907 0.6367 0.06848 0.0
H449 H 0.09476 0.62773 0.01675 0.0
S450 S 0.06164 0.44783 0.04755 0.0
N451 N 0.06848 0.48484 0.07467 0.0
N452 N 0.06694 0.47639 0.0186 0.0
C453 C 0.07426 0.51826 0.03023 0.0
C454 C 0.07578 0.52316 0.06078 0.0
C455 C 0.57945 0.03342 0.37586 0.0
C456 C 0.63671 0.06729 0.39101 0.0
C457 C 0.57598 0.03379 0.34603 0.0
C458 C 0.62952 0.06853 0.33034 0.0
H459 H 0.53729 1.00518 0.38696 0.0
H460 H 0.53113 1.00603 0.33511 0.0
S461 S 0.79023 0.16754 0.36039 0.0
N462 N 0.74767 0.13858 0.38837 0.0
N463 N 0.74131 0.13885 0.3326 0.0
C464 C 0.68672 0.10396 0.34549 0.0
C465 C 0.69024 0.10342 0.37573 0.0
C466 C 0.62434 0.56129 0.76973 0.0
C467 C 0.56126 0.52527 0.77581 0.0
C468 C 0.64347 0.5737 0.74162 0.0
C469 C 0.60027 0.55088 0.71854 0.0
H470 H 0.65927 0.57913 0.78672 0.0
H471 H 0.69252 0.6011 0.73789 0.0
S472 S 0.42965 0.4556 0.72314 0.0
N473 N 0.45561 0.46835 0.75651 0.0
N474 N 0.49159 0.49119 0.70377 0.0
C475 C 0.53711 0.51589 0.72442 0.0
C476 C 0.51762 0.50321 0.75302 0.0
C477 C 0.5447 0.03141 0.57212 0.0
C478 C 0.59585 0.06023 0.55449 0.0
C479 C 0.55227 0.03231 0.60171 0.0
C480 C 0.61136 0.06245 0.61489 0.0
H481 H 0.49831 0.00833 0.56304 0.0
H482 H 0.5116 0.01033 0.61445 0.0
S483 S 0.76012 0.14187 0.57815 0.0
N484 N 0.70752 0.11764 0.55229 0.0
N485 N 0.72174 0.11928 0.6078 0.0
C486 C 0.6628 0.09035 0.59742 0.0
C487 C 0.65507 0.08919 0.56727 0.0
C488 C 0.49253 0.47027 0.94329 0.0
C489 C 0.55279 0.5003 0.93348 0.0
C490 C 0.47026 0.43174 0.96289 0.0
C491 C 0.50698 0.42099 0.97284 0.0
H492 H 0.46202 0.47616 0.93546 0.0
H493 H 0.42333 0.40921 0.96976 0.0
S494 S 0.6677 0.48797 0.95326 0.0
N495 N 0.64906 0.51705 0.93509 0.0
N496 N 0.60653 0.44342 0.97161 0.0
C497 C 0.56743 0.45078 0.96326 0.0
C498 C 0.59061 0.49089 0.94369 0.0
C499 C 0.10388 0.50276 0.25103 0.0
C500 C 0.12054 0.54555 0.236 0.0
C501 C 0.10097 0.50335 0.2808 0.0
C502 C 0.11496 0.54692 0.29678 0.0
H503 H 0.09385 0.46872 0.23976 0.0
H504 H 0.08956 0.47011 0.29147 0.0
S505 S 0.15635 0.66716 0.26765 0.0
N506 N 0.14771 0.63143 0.23928 0.0
N507 N 0.14251 0.63259 0.29529 0.0
C508 C 0.12999 0.58934 0.282 0.0
C509 C 0.13258 0.58861 0.25161 0.0
loop_
_geom_bond_atom_site_label_1
_geom_bond_atom_site_label_2
_geom_bond_distance
_geom_bond_site_symmetry_2
_ccdc_geom_bond_type
Gd0 C3 2.818 . S
Gd0 O20 2.377 . S
Gd0 O22 2.448 . S
Gd0 O23 2.506 . S
Gd0 O24 2.435 . S
Gd0 O25 2.717 . S
Gd0 O27 2.395 1_455 S
Gd0 O31 2.327 . S
Gd1 C12 2.818 . S
Gd1 O21 2.395 1_655 S
Gd1 O25 2.327 1_655 S
Gd1 O26 2.377 . S
Gd1 O28 2.448 . S
Gd1 O29 2.506 . S
Gd1 O30 2.435 1_655 S
Gd1 O31 2.717 1_655 S
C2 O20 1.240 . S
C2 O21 1.240 . S
C3 Gd0 2.818 . S
C3 C4 1.510 . S
C3 O22 1.249 . S
C3 O23 1.252 . S
C4 C3 1.510 . S
C4 C5 1.404 . S
C4 C6 1.352 . S
C5 C4 1.404 . S
C5 C9 1.389 . S
C5 H32 0.930 . S
C6 C4 1.352 . S
C6 C8 1.374 . S
C6 H33 0.931 . S
C7 C8 1.359 . S
C7 C9 1.364 . S
C8 C6 1.374 . S
C8 C7 1.359 . S
C8 H34 0.931 . S
C9 C5 1.389 . S
C9 C7 1.364 . S
C9 H35 0.931 . S
C10 O24 1.256 . S
C10 O25 1.257 . S
C11 O26 1.240 . S
C11 O27 1.240 . S
C12 Gd1 2.818 . S
C12 C13 1.510 . S
C12 O28 1.249 . S
C12 O29 1.252 . S
C13 C12 1.510 . S
C13 C14 1.404 . S
C13 C15 1.352 . S
C14 C13 1.404 . S
C14 C18 1.389 . S
C14 H36 0.930 . S
C15 C13 1.352 . S
C15 C17 1.374 . S
C15 H37 0.931 . S
C16 C17 1.359 . S
C16 C18 1.364 . S
C17 C15 1.374 . S
C17 C16 1.359 . S
C17 H38 0.931 . S
C18 C14 1.389 . S
C18 C16 1.364 . S
C18 H39 0.931 . S
C19 O30 1.256 . S
C19 O31 1.257 . S
O20 Gd0 2.377 . S
O20 C2 1.240 . S
O21 Gd1 2.395 1_455 S
O21 C2 1.240 . S
O22 Gd0 2.448 . S
O22 C3 1.249 . S
O23 Gd0 2.506 . S
O23 C3 1.252 . S
O24 Gd0 2.435 . S
O24 C10 1.256 . S
O25 Gd0 2.717 . S
O25 Gd1 2.327 1_455 S
O25 C10 1.257 . S
O26 Gd1 2.377 . S
O26 C11 1.240 . S
O27 Gd0 2.395 1_655 S
O27 C11 1.240 . S
O28 Gd1 2.448 . S
O28 C12 1.249 . S
O29 Gd1 2.506 . S
O29 C12 1.252 . S
O30 Gd1 2.435 1_455 S
O30 C19 1.256 . S
O31 Gd0 2.327 . S
O31 Gd1 2.717 1_455 S
O31 C19 1.257 . S
H32 C5 0.930 . S
H33 C6 0.931 . S
H34 C8 0.931 . S
H35 C9 0.931 . S
H36 C14 0.930 . S
H37 C15 0.931 . S
H38 C17 0.931 . S
H39 C18 0.931 . S
Gd40 C43 2.818 . S
Gd40 O60 2.377 . S
Gd40 O62 2.448 . S
Gd40 O63 2.506 . S
Gd40 O64 2.435 . S
Gd40 O65 2.717 1_565 S
Gd40 O67 2.395 1_565 S
Gd40 O71 2.336 . S
Gd41 C52 2.818 . S
Gd41 O61 2.395 1_545 S
Gd41 O65 2.327 . S
Gd41 O66 2.377 . S
Gd41 O68 2.448 . S
Gd41 O69 2.506 . S
Gd41 O70 2.435 . S
Gd41 O71 2.703 1_545 S
C42 O60 1.240 . S
C42 O61 1.240 . S
C43 Gd40 2.818 . S
C43 C44 1.510 . S
C43 O62 1.249 . S
C43 O63 1.252 . S
C44 C43 1.510 . S
C44 C45 1.404 . S
C44 C46 1.352 . S
C45 C44 1.404 . S
C45 C49 1.389 . S
C45 H72 0.930 . S
C46 C44 1.352 . S
C46 C48 1.374 . S
C46 H73 0.931 . S
C47 C48 1.359 . S
C47 C49 1.364 . S
C48 C46 1.374 . S
C48 C47 1.359 . S
C48 H74 0.931 . S
C49 C45 1.389 . S
C49 C47 1.364 . S
C49 H75 0.931 . S
C50 O64 1.256 1_545 S
C50 O65 1.257 . S
C51 O66 1.240 . S
C51 O67 1.240 . S
C52 Gd41 2.818 . S
C52 C53 1.510 . S
C52 O68 1.249 . S
C52 O69 1.252 . S
C53 C52 1.510 . S
C53 C54 1.404 . S
C53 C55 1.352 . S
C54 C53 1.404 . S
C54 C58 1.389 . S
C54 H76 0.930 . S
C55 C53 1.352 . S
C55 C57 1.374 . S
C55 H77 0.931 . S
C56 C57 1.359 . S
C56 C58 1.364 . S
C57 C55 1.374 . S
C57 C56 1.359 . S
C57 H78 0.931 . S
C58 C54 1.389 . S
C58 C56 1.364 . S
C58 H79 0.931 . S
C59 O70 1.256 . S
C59 O71 1.250 1_545 S
O60 Gd40 2.377 . S
O60 C42 1.240 . S
O61 Gd41 2.395 1_565 S
O61 C42 1.240 . S
O62 Gd40 2.448 . S
O62 C43 1.249 . S
O63 Gd40 2.506 . S
O63 C43 1.252 . S
O64 Gd40 2.435 . S
O64 C50 1.256 1_565 S
O65 Gd40 2.717 1_545 S
O65 Gd41 2.327 . S
O65 C50 1.257 . S
O66 Gd41 2.377 . S
O66 C51 1.240 . S
O67 Gd40 2.395 1_545 S
O67 C51 1.240 . S
O68 Gd41 2.448 . S
O68 C52 1.249 . S
O69 Gd41 2.506 . S
O69 C52 1.252 . S
O70 Gd41 2.435 . S
O70 C59 1.256 . S
O71 Gd40 2.336 . S
O71 Gd41 2.703 1_565 S
O71 C59 1.250 1_565 S
H72 C45 0.930 . S
H73 C46 0.931 . S
H74 C48 0.931 . S
H75 C49 0.931 . S
H76 C54 0.930 . S
H77 C55 0.931 . S
H78 C57 0.931 . S
H79 C58 0.931 . S
Gd80 C83 2.818 . S
Gd80 O100 2.377 . S
Gd80 O102 2.448 . S
Gd80 O103 2.506 . S
Gd80 O104 2.435 . S
Gd80 O105 2.717 . S
Gd80 O107 2.395 . S
Gd80 O111 2.327 . S
Gd81 C92 2.818 . S
Gd81 O101 2.395 . S
Gd81 O105 2.327 . S
Gd81 O106 2.377 . S
Gd81 O108 2.448 . S
Gd81 O109 2.506 . S
Gd81 O110 2.435 . S
Gd81 O111 2.717 . S
C82 O100 1.240 . S
C82 O101 1.240 . S
C83 Gd80 2.818 . S
C83 C84 1.510 . S
C83 O102 1.249 . S
C83 O103 1.252 . S
C84 C83 1.510 . S
C84 C85 1.404 . S
C84 C86 1.352 . S
C85 C84 1.404 . S
C85 C89 1.389 . S
C85 H112 0.930 . S
C86 C84 1.352 . S
C86 C88 1.374 . S
C86 H113 0.931 . S
C87 C88 1.359 . S
C87 C89 1.364 . S
C88 C86 1.374 . S
C88 C87 1.359 . S
C88 H114 0.931 . S
C89 C85 1.389 . S
C89 C87 1.364 . S
C89 H115 0.931 . S
C90 O104 1.256 . S
C90 O105 1.257 . S
C91 O106 1.240 . S
C91 O107 1.240 . S
C92 Gd81 2.818 . S
C92 C93 1.510 . S
C92 O108 1.249 . S
C92 O109 1.252 . S
C93 C92 1.510 . S
C93 C94 1.404 . S
C93 C95 1.352 . S
C94 C93 1.404 . S
C94 C98 1.389 . S
C94 H116 0.930 . S
C95 C93 1.352 . S
C95 C97 1.374 . S
C95 H117 0.931 . S
C96 C97 1.359 . S
C96 C98 1.364 . S
C97 C95 1.374 . S
C97 C96 1.359 . S
C97 H118 0.931 . S
C98 C94 1.389 . S
C98 C96 1.364 . S
C98 H119 0.931 . S
C99 O110 1.256 . S
C99 O111 1.257 . S
O100 Gd80 2.377 . S
O100 C82 1.240 . S
O101 Gd81 2.395 . S
O101 C82 1.240 . S
O102 Gd80 2.448 . S
O102 C83 1.249 . S
O103 Gd80 2.506 . S
O103 C83 1.252 . S
O104 Gd80 2.435 . S
O104 C90 1.256 . S
O105 Gd80 2.717 . S
O105 Gd81 2.327 . S
O105 C90 1.257 . S
O106 Gd81 2.377 . S
O106 C91 1.240 . S
O107 Gd80 2.395 . S
O107 C91 1.240 . S
O108 Gd81 2.448 . S
O108 C92 1.249 . S
O109 Gd81 2.506 . S
O109 C92 1.252 . S
O110 Gd81 2.435 . S
O110 C99 1.256 . S
O111 Gd80 2.327 . S
O111 Gd81 2.717 . S
O111 C99 1.257 . S
H112 C85 0.930 . S
H113 C86 0.931 . S
H114 C88 0.931 . S
H115 C89 0.931 . S
H116 C94 0.930 . S
H117 C95 0.931 . S
H118 C97 0.931 . S
H119 C98 0.931 . S
P120 O131 1.490 1_545 S
P120 C134 1.812 1_545 S
P120 C140 1.803 . S
P120 C146 1.819 . S
H121 C135 0.941 . S
H122 C136 0.939 . S
H123 C138 0.940 . S
H124 C139 0.940 . S
H125 C141 0.939 . S
H126 C142 0.942 . S
H127 C144 0.940 . S
H128 C145 0.939 . S
H129 C147 0.941 . S
H130 C151 0.939 . S
O131 P120 1.490 1_565 S
H132 C148 0.939 . S
H133 C150 0.940 . S
C134 P120 1.812 1_565 S
C134 C135 1.389 . S
C134 C139 1.391 . S
C135 H121 0.941 . S
C135 C134 1.389 . S
C135 C136 1.397 . S
C136 H122 0.939 . S
C136 C135 1.397 . S
C136 C137 1.378 . S
C137 C136 1.378 . S
C137 C138 1.378 . S
C138 H123 0.940 . S
C138 C137 1.378 . S
C138 C139 1.396 . S
C139 H124 0.940 . S
C139 C134 1.391 . S
C139 C138 1.396 . S
C140 P120 1.803 . S
C140 C141 1.378 . S
C140 C145 1.400 . S
C141 H125 0.939 . S
C141 C140 1.378 . S
C141 C142 1.361 . S
C142 H126 0.942 . S
C142 C141 1.361 . S
C142 C143 1.369 . S
C143 C142 1.369 . S
C143 C144 1.404 . S
C144 H127 0.940 . S
C144 C143 1.404 . S
C144 C145 1.389 . S
C145 H128 0.939 . S
C145 C140 1.400 . S
C145 C144 1.389 . S
C146 P120 1.819 . S
C146 C147 1.391 1_545 S
C146 C151 1.391 . S
C147 H129 0.941 . S
C147 C146 1.391 1_565 S
C147 C148 1.396 . S
C148 H132 0.939 . S
C148 C147 1.396 . S
C148 C149 1.397 1_565 S
C149 C148 1.397 1_545 S
C149 C150 1.385 . S
C150 H133 0.940 . S
C150 C149 1.385 . S
C150 C151 1.388 . S
C151 H130 0.939 . S
C151 C146 1.391 . S
C151 C150 1.388 . S
P152 O163 1.490 . S
P152 C166 1.812 . S
P152 C172 1.803 . S
P152 C178 1.819 . S
H153 C167 0.941 . S
H154 C168 0.939 . S
H155 C170 0.940 . S
H156 C171 0.940 . S
H157 C173 0.939 . S
H158 C174 0.942 . S
H159 C176 0.940 . S
H160 C177 0.939 . S
H161 C179 0.941 . S
H162 C183 0.939 . S
O163 P152 1.490 . S
H164 C180 0.939 . S
H165 C182 0.940 . S
C166 P152 1.812 . S
C166 C167 1.389 . S
C166 C171 1.391 . S
C167 H153 0.941 . S
C167 C166 1.389 . S
C167 C168 1.397 . S
C168 H154 0.939 . S
C168 C167 1.397 . S
C168 C169 1.378 . S
C169 C168 1.378 . S
C169 C170 1.378 . S
C170 H155 0.940 . S
C170 C169 1.378 . S
C170 C171 1.396 . S
C171 H156 0.940 . S
C171 C166 1.391 . S
C171 C170 1.396 . S
C172 P152 1.803 . S
C172 C173 1.378 . S
C172 C177 1.400 . S
C173 H157 0.939 . S
C173 C172 1.378 . S
C173 C174 1.361 . S
C174 H158 0.942 . S
C174 C173 1.361 . S
C174 C175 1.369 . S
C175 C174 1.369 . S
C175 C176 1.404 . S
C176 H159 0.940 . S
C176 C175 1.404 . S
C176 C177 1.389 . S
C177 H160 0.939 . S
C177 C172 1.400 . S
C177 C176 1.389 . S
C178 P152 1.819 . S
C178 C179 1.391 . S
C178 C183 1.391 . S
C179 H161 0.941 . S
C179 C178 1.391 . S
C179 C180 1.396 . S
C180 H164 0.939 . S
C180 C179 1.396 . S
C180 C181 1.397 . S
C181 C180 1.397 . S
C181 C182 1.385 . S
C182 H165 0.940 . S
C182 C181 1.385 . S
C182 C183 1.388 . S
C183 H162 0.939 . S
C183 C178 1.391 . S
C183 C182 1.388 . S
P184 O195 1.490 . S
P184 C198 1.812 . S
P184 C204 1.803 . S
P184 C210 1.819 . S
H185 C199 0.941 . S
H186 C200 0.939 . S
H187 C202 0.940 . S
H188 C203 0.940 . S
H189 C205 0.939 . S
H190 C206 0.942 . S
H191 C208 0.940 . S
H192 C209 0.939 . S
H193 C211 0.941 . S
H194 C215 0.939 . S
O195 P184 1.490 . S
H196 C212 0.939 . S
H197 C214 0.940 1_655 S
C198 P184 1.812 . S
C198 C199 1.389 . S
C198 C203 1.391 . S
C199 H185 0.941 . S
C199 C198 1.389 . S
C199 C200 1.397 . S
C200 H186 0.939 . S
C200 C199 1.397 . S
C200 C201 1.378 . S
C201 C200 1.378 . S
C201 C202 1.378 . S
C202 H187 0.940 . S
C202 C201 1.378 . S
C202 C203 1.396 . S
C203 H188 0.940 . S
C203 C198 1.391 . S
C203 C202 1.396 . S
C204 P184 1.803 . S
C204 C205 1.378 . S
C204 C209 1.400 . S
C205 H189 0.939 . S
C205 C204 1.378 . S
C205 C206 1.361 1_455 S
C206 H190 0.942 . S
C206 C205 1.361 1_655 S
C206 C207 1.369 . S
C207 C206 1.369 . S
C207 C208 1.404 . S
C208 H191 0.940 . S
C208 C207 1.404 . S
C208 C209 1.389 1_655 S
C209 H192 0.939 . S
C209 C204 1.400 . S
C209 C208 1.389 1_455 S
C210 P184 1.819 . S
C210 C211 1.391 . S
C210 C215 1.391 . S
C211 H193 0.941 . S
C211 C210 1.391 . S
C211 C212 1.396 . S
C212 H196 0.939 . S
C212 C211 1.396 . S
C212 C213 1.397 . S
C213 C212 1.397 . S
C213 C214 1.385 . S
C214 H197 0.940 1_455 S
C214 C213 1.385 . S
C214 C215 1.388 . S
C215 H194 0.939 . S
C215 C210 1.391 . S
C215 C214 1.388 . S
P216 O227 1.490 . S
P216 C230 1.812 . S
P216 C236 1.803 1_455 S
P216 C242 1.819 . S
H217 C231 0.941 . S
H218 C232 0.939 . S
H219 C234 0.940 . S
H220 C235 0.940 . S
H221 C237 0.939 . S
H222 C238 0.942 . S
H223 C240 0.940 . S
H224 C241 0.939 . S
H225 C243 0.941 . S
H226 C247 0.939 . S
O227 P216 1.490 . S
H228 C244 0.939 . S
H229 C246 0.940 . S
C230 P216 1.812 . S
C230 C231 1.389 . S
C230 C235 1.391 . S
C231 H217 0.941 . S
C231 C230 1.389 . S
C231 C232 1.397 . S
C232 H218 0.939 . S
C232 C231 1.397 . S
C232 C233 1.378 . S
C233 C232 1.378 . S
C233 C234 1.378 . S
C234 H219 0.940 . S
C234 C233 1.378 . S
C234 C235 1.396 . S
C235 H220 0.940 . S
C235 C230 1.391 . S
C235 C234 1.396 . S
C236 P216 1.803 1_655 S
C236 C237 1.378 . S
C236 C241 1.400 . S
C237 H221 0.939 . S
C237 C236 1.378 . S
C237 C238 1.361 . S
C238 H222 0.942 . S
C238 C237 1.361 . S
C238 C239 1.369 . S
C239 C238 1.369 . S
C239 C240 1.404 . S
C240 H223 0.940 . S
C240 C239 1.404 . S
C240 C241 1.389 . S
C241 H224 0.939 . S
C241 C236 1.400 . S
C241 C240 1.389 . S
C242 P216 1.819 . S
C242 C243 1.391 . S
C242 C247 1.391 1_455 S
C243 H225 0.941 . S
C243 C242 1.391 . S
C243 C244 1.396 . S
C244 H228 0.939 . S
C244 C243 1.396 . S
C244 C245 1.397 . S
C245 C244 1.397 . S
C245 C246 1.385 1_455 S
C246 H229 0.940 . S
C246 C245 1.385 1_655 S
C246 C247 1.388 . S
C247 H226 0.939 . S
C247 C242 1.391 1_655 S
C247 C246 1.388 . S
P248 O259 1.490 . S
P248 C262 1.812 . S
P248 C268 1.803 1_545 S
P248 C274 1.819 . S
H249 C263 0.941 . S
H250 C264 0.939 . S
H251 C266 0.940 . S
H252 C267 0.940 . S
H253 C269 0.939 . S
H254 C270 0.942 . S
H255 C272 0.940 . S
H256 C273 0.939 . S
H257 C275 0.941 . S
H258 C279 0.939 . S
O259 P248 1.490 . S
H260 C276 0.939 . S
H261 C278 0.940 . S
C262 P248 1.812 . S
C262 C263 1.389 . S
C262 C267 1.391 . S
C263 H249 0.941 . S
C263 C262 1.389 . S
C263 C264 1.397 . S
C264 H250 0.939 . S
C264 C263 1.397 . S
C264 C265 1.378 . S
C265 C264 1.378 . S
C265 C266 1.378 . S
C266 H251 0.940 . S
C266 C265 1.378 . S
C266 C267 1.396 . S
C267 H252 0.940 . S
C267 C262 1.391 . S
C267 C266 1.396 . S
C268 P248 1.803 1_565 S
C268 C269 1.378 . S
C268 C273 1.400 . S
C269 H253 0.939 . S
C269 C268 1.378 . S
C269 C270 1.361 . S
C270 H254 0.942 . S
C270 C269 1.361 . S
C270 C271 1.369 . S
C271 C270 1.369 . S
C271 C272 1.404 . S
C272 H255 0.940 . S
C272 C271 1.404 . S
C272 C273 1.389 . S
C273 H256 0.939 . S
C273 C268 1.400 . S
C273 C272 1.389 . S
C274 P248 1.819 . S
C274 C275 1.391 . S
C274 C279 1.391 1_545 S
C275 H257 0.941 . S
C275 C274 1.391 . S
C275 C276 1.396 . S
C276 H260 0.939 . S
C276 C275 1.396 . S
C276 C277 1.397 1_545 S
C277 C276 1.397 1_565 S
C277 C278 1.385 . S
C278 H261 0.940 . S
C278 C277 1.385 . S
C278 C279 1.388 . S
C279 H258 0.939 . S
C279 C274 1.391 1_565 S
C279 C278 1.388 . S
P280 O291 1.490 . S
P280 C294 1.812 . S
P280 C300 1.803 . S
P280 C306 1.819 . S
H281 C295 0.941 . S
H282 C296 0.939 . S
H283 C298 0.940 . S
H284 C299 0.940 . S
H285 C301 0.939 . S
H286 C302 0.942 . S
H287 C304 0.940 . S
H288 C305 0.939 . S
H289 C307 0.941 . S
H290 C311 0.939 . S
O291 P280 1.490 . S
H292 C308 0.939 . S
H293 C310 0.940 . S
C294 P280 1.812 . S
C294 C295 1.389 . S
C294 C299 1.391 . S
C295 H281 0.941 . S
C295 C294 1.389 . S
C295 C296 1.397 . S
C296 H282 0.939 . S
C296 C295 1.397 . S
C296 C297 1.378 . S
C297 C296 1.378 . S
C297 C298 1.378 . S
C298 H283 0.940 . S
C298 C297 1.378 . S
C298 C299 1.396 . S
C299 H284 0.940 . S
C299 C294 1.391 . S
C299 C298 1.396 . S
C300 P280 1.803 . S
C300 C301 1.378 . S
C300 C305 1.400 . S
C301 H285 0.939 . S
C301 C300 1.378 . S
C301 C302 1.361 . S
C302 H286 0.942 . S
C302 C301 1.361 . S
C302 C303 1.369 . S
C303 C302 1.369 . S
C303 C304 1.404 . S
C304 H287 0.940 . S
C304 C303 1.404 . S
C304 C305 1.389 . S
C305 H288 0.939 . S
C305 C300 1.400 . S
C305 C304 1.389 . S
C306 P280 1.819 . S
C306 C307 1.391 . S
C306 C311 1.391 . S
C307 H289 0.941 . S
C307 C306 1.391 . S
C307 C308 1.396 1_554 S
C308 H292 0.939 . S
C308 C307 1.396 1_556 S
C308 C309 1.397 . S
C309 C308 1.397 . S
C309 C310 1.385 1_556 S
C310 H293 0.940 . S
C310 C309 1.385 1_554 S
C310 C311 1.388 . S
C311 H290 0.939 . S
C311 C306 1.391 . S
C311 C310 1.388 . S
C312 C313 1.369 . S
C312 C314 1.419 . S
C312 H316 0.930 . S
C313 C312 1.369 . S
C313 C322 1.429 . S
C314 C312 1.419 . S
C314 C315 1.363 . S
C314 H317 0.929 . S
C315 C314 1.363 . S
C315 C321 1.428 . S
H316 C312 0.930 . S
H317 C314 0.929 . S
S318 N319 1.613 . S
S318 N320 1.610 . S
N319 S318 1.613 . S
N319 C322 1.350 . S
N320 S318 1.610 . S
N320 C321 1.351 . S
C321 C315 1.428 . S
C321 N320 1.351 . S
C321 C322 1.434 . S
C322 C313 1.429 . S
C322 N319 1.350 . S
C322 C321 1.434 . S
C323 C324 1.369 . S
C323 C325 1.419 . S
C323 H327 0.930 . S
C324 C323 1.369 . S
C324 C333 1.429 . S
C325 C323 1.419 . S
C325 C326 1.363 . S
C325 H328 0.929 . S
C326 C325 1.363 . S
C326 C332 1.428 . S
H327 C323 0.930 . S
H328 C325 0.929 . S
S329 N330 1.613 . S
S329 N331 1.610 . S
N330 S329 1.613 . S
N330 C333 1.350 . S
N331 S329 1.610 . S
N331 C332 1.351 . S
C332 C326 1.428 . S
C332 N331 1.351 . S
C332 C333 1.434 . S
C333 C324 1.429 . S
C333 N330 1.350 . S
C333 C332 1.434 . S
C334 C335 1.369 . S
C334 C336 1.419 . S
C334 H338 0.930 . S
C335 C334 1.369 . S
C335 C344 1.429 . S
C336 C334 1.419 . S
C336 C337 1.363 . S
C336 H339 0.929 . S
C337 C336 1.363 . S
C337 C343 1.428 . S
H338 C334 0.930 . S
H339 C336 0.929 . S
S340 N341 1.613 . S
S340 N342 1.610 . S
N341 S340 1.613 . S
N341 C344 1.350 . S
N342 S340 1.610 . S
N342 C343 1.351 . S
C343 C337 1.428 . S
C343 N342 1.351 . S
C343 C344 1.434 . S
C344 C335 1.429 . S
C344 N341 1.350 . S
C344 C343 1.434 . S
C345 C346 1.369 . S
C345 C347 1.419 . S
C345 H349 0.930 . S
C346 C345 1.369 . S
C346 C355 1.429 . S
C347 C345 1.419 . S
C347 C348 1.363 . S
C347 H350 0.929 . S
C348 C347 1.363 . S
C348 C354 1.428 . S
H349 C345 0.930 . S
H350 C347 0.929 . S
S351 N352 1.613 . S
S351 N353 1.610 . S
N352 S351 1.613 . S
N352 C355 1.350 . S
N353 S351 1.610 . S
N353 C354 1.351 . S
C354 C348 1.428 . S
C354 N353 1.351 . S
C354 C355 1.434 . S
C355 C346 1.429 . S
C355 N352 1.350 . S
C355 C354 1.434 . S
C356 C357 1.369 . S
C356 C358 1.419 . S
C356 H360 0.930 . S
C357 C356 1.369 . S
C357 C366 1.429 . S
C358 C356 1.419 . S
C358 C359 1.363 . S
C358 H361 0.929 . S
C359 C358 1.363 . S
C359 C365 1.428 . S
H360 C356 0.930 . S
H361 C358 0.929 . S
S362 N363 1.613 . S
S362 N364 1.610 . S
N363 S362 1.613 . S
N363 C366 1.350 . S
N364 S362 1.610 . S
N364 C365 1.351 . S
C365 C359 1.428 . S
C365 N364 1.351 . S
C365 C366 1.434 . S
C366 C357 1.429 . S
C366 N363 1.350 . S
C366 C365 1.434 . S
C367 C368 1.369 . S
C367 C369 1.419 . S
C367 H371 0.930 . S
C368 C367 1.369 . S
C368 C377 1.429 . S
C369 C367 1.419 . S
C369 C370 1.363 . S
C369 H372 0.929 . S
C370 C369 1.363 . S
C370 C376 1.428 . S
H371 C367 0.930 . S
H372 C369 0.929 . S
S373 N374 1.613 . S
S373 N375 1.610 . S
N374 S373 1.613 . S
N374 C377 1.350 . S
N375 S373 1.610 . S
N375 C376 1.351 . S
C376 C370 1.428 . S
C376 N375 1.351 . S
C376 C377 1.434 . S
C377 C368 1.429 . S
C377 N374 1.350 . S
C377 C376 1.434 . S
C378 C379 1.369 . S
C378 C380 1.419 . S
C378 H382 0.930 . S
C379 C378 1.369 . S
C379 C388 1.429 . S
C380 C378 1.419 . S
C380 C381 1.363 . S
C380 H383 0.929 . S
C381 C380 1.363 . S
C381 C387 1.428 . S
H382 C378 0.930 . S
H383 C380 0.929 . S
S384 N385 1.613 . S
S384 N386 1.610 . S
N385 S384 1.613 . S
N385 C388 1.350 . S
N386 S384 1.610 . S
N386 C387 1.351 . S
C387 C381 1.428 . S
C387 N386 1.351 . S
C387 C388 1.434 . S
C388 C379 1.429 . S
C388 N385 1.350 . S
C388 C387 1.434 . S
C389 C390 1.369 . S
C389 C391 1.419 . S
C389 H393 0.930 . S
C390 C389 1.369 . S
C390 C399 1.429 . S
C391 C389 1.419 . S
C391 C392 1.363 . S
C391 H394 0.929 . S
C392 C391 1.363 . S
C392 C398 1.428 . S
H393 C389 0.930 . S
H394 C391 0.929 . S
S395 N396 1.613 . S
S395 N397 1.610 . S
N396 S395 1.613 . S
N396 C399 1.350 . S
N397 S395 1.610 . S
N397 C398 1.351 . S
C398 C392 1.428 . S
C398 N397 1.351 . S
C398 C399 1.434 . S
C399 C390 1.429 . S
C399 N396 1.350 . S
C399 C398 1.434 . S
C400 C401 1.369 . S
C400 C402 1.419 . S
C400 H404 0.930 . S
C401 C400 1.369 . S
C401 C410 1.429 . S
C402 C400 1.419 . S
C402 C403 1.363 . S
C402 H405 0.929 . S
C403 C402 1.363 . S
C403 C409 1.428 . S
H404 C400 0.930 . S
H405 C402 0.929 . S
S406 N407 1.613 . S
S406 N408 1.610 . S
N407 S406 1.613 . S
N407 C410 1.350 . S
N408 S406 1.610 . S
N408 C409 1.351 . S
C409 C403 1.428 . S
C409 N408 1.351 . S
C409 C410 1.434 . S
C410 C401 1.429 . S
C410 N407 1.350 . S
C410 C409 1.434 . S
C411 C412 1.369 . S
C411 C413 1.419 . S
C411 H415 0.930 . S
C412 C411 1.369 . S
C412 C421 1.429 . S
C413 C411 1.419 . S
C413 C414 1.363 . S
C413 H416 0.929 . S
C414 C413 1.363 . S
C414 C420 1.428 . S
H415 C411 0.930 . S
H416 C413 0.929 . S
S417 N418 1.613 . S
S417 N419 1.610 . S
N418 S417 1.613 . S
N418 C421 1.350 . S
N419 S417 1.610 . S
N419 C420 1.351 . S
C420 C414 1.428 . S
C420 N419 1.351 . S
C420 C421 1.434 . S
C421 C412 1.429 . S
C421 N418 1.350 . S
C421 C420 1.434 . S
C422 C423 1.369 . S
C422 C424 1.419 . S
C422 H426 0.930 . S
C423 C422 1.369 . S
C423 C432 1.429 . S
C424 C422 1.419 . S
C424 C425 1.363 . S
C424 H427 0.929 . S
C425 C424 1.363 . S
C425 C431 1.428 . S
H426 C422 0.930 . S
H427 C424 0.929 . S
S428 N429 1.613 . S
S428 N430 1.610 . S
N429 S428 1.613 . S
N429 C432 1.350 . S
N430 S428 1.610 . S
N430 C431 1.351 . S
C431 C425 1.428 . S
C431 N430 1.351 . S
C431 C432 1.434 . S
C432 C423 1.429 . S
C432 N429 1.350 . S
C432 C431 1.434 . S
C433 C434 1.369 . S
C433 C435 1.419 . S
C433 H437 0.930 . S
C434 C433 1.369 . S
C434 C443 1.429 . S
C435 C433 1.419 . S
C435 C436 1.363 . S
C435 H438 0.929 . S
C436 C435 1.363 . S
C436 C442 1.428 . S
H437 C433 0.930 . S
H438 C435 0.929 . S
S439 N440 1.613 . S
S439 N441 1.610 . S
N440 S439 1.613 . S
N440 C443 1.350 . S
N441 S439 1.610 . S
N441 C442 1.351 . S
C442 C436 1.428 . S
C442 N441 1.351 . S
C442 C443 1.434 . S
C443 C434 1.429 . S
C443 N440 1.350 . S
C443 C442 1.434 . S
C444 C445 1.369 . S
C444 C446 1.419 . S
C444 H448 0.930 . S
C445 C444 1.369 . S
C445 C454 1.428 1_455 S
C446 C444 1.419 . S
C446 C447 1.363 . S
C446 H449 0.929 . S
C447 C446 1.363 . S
C447 C453 1.428 . S
H448 C444 0.930 . S
H449 C446 0.929 . S
S450 N451 1.613 . S
S450 N452 1.610 . S
N451 S450 1.613 . S
N451 C454 1.350 . S
N452 S450 1.610 . S
N452 C453 1.351 1_655 S
C453 C447 1.428 . S
C453 N452 1.351 1_455 S
C453 C454 1.434 1_455 S
C454 C445 1.428 1_655 S
C454 N451 1.350 . S
C454 C453 1.434 1_655 S
C455 C456 1.369 1_565 S
C455 C457 1.419 . S
C455 H459 0.930 . S
C456 C455 1.369 1_545 S
C456 C465 1.429 . S
C457 C455 1.419 . S
C457 C458 1.363 1_565 S
C457 H460 0.929 . S
C458 C457 1.363 1_545 S
C458 C464 1.428 . S
H459 C455 0.930 . S
H460 C457 0.929 . S
S461 N462 1.613 . S
S461 N463 1.610 . S
N462 S461 1.613 . S
N462 C465 1.350 . S
N463 S461 1.610 . S
N463 C464 1.351 . S
C464 C458 1.428 . S
C464 N463 1.351 . S
C464 C465 1.434 . S
C465 C456 1.429 . S
C465 N462 1.350 . S
C465 C464 1.434 . S
C466 C467 1.369 . S
C466 C468 1.419 . S
C466 H470 0.930 . S
C467 C466 1.369 . S
C467 C476 1.429 . S
C468 C466 1.419 . S
C468 C469 1.363 . S
C468 H471 0.929 . S
C469 C468 1.363 . S
C469 C475 1.428 . S
H470 C466 0.930 . S
H471 C468 0.929 . S
S472 N473 1.613 . S
S472 N474 1.610 . S
N473 S472 1.613 . S
N473 C476 1.350 . S
N474 S472 1.610 . S
N474 C475 1.351 . S
C475 C469 1.428 . S
C475 N474 1.351 . S
C475 C476 1.434 . S
C476 C467 1.429 . S
C476 N473 1.350 . S
C476 C475 1.434 . S
C477 C478 1.369 . S
C477 C479 1.419 . S
C477 H481 0.930 . S
C478 C477 1.369 . S
C478 C487 1.429 1_545 S
C479 C477 1.419 . S
C479 C480 1.363 1_545 S
C479 H482 0.929 . S
C480 C479 1.363 1_565 S
C480 C486 1.428 . S
H481 C477 0.930 . S
H482 C479 0.929 . S
S483 N484 1.613 . S
S483 N485 1.610 . S
N484 S483 1.613 . S
N484 C487 1.350 . S
N485 S483 1.610 . S
N485 C486 1.351 . S
C486 C480 1.428 . S
C486 N485 1.351 . S
C486 C487 1.434 . S
C487 C478 1.429 1_565 S
C487 N484 1.350 . S
C487 C486 1.434 . S
C488 C489 1.369 . S
C488 C490 1.419 . S
C488 H492 0.930 . S
C489 C488 1.369 . S
C489 C498 1.429 . S
C490 C488 1.419 . S
C490 C491 1.363 . S
C490 H493 0.929 . S
C491 C490 1.363 . S
C491 C497 1.428 . S
H492 C488 0.930 . S
H493 C490 0.929 . S
S494 N495 1.613 . S
S494 N496 1.610 . S
N495 S494 1.613 . S
N495 C498 1.350 . S
N496 S494 1.610 . S
N496 C497 1.351 . S
C497 C491 1.428 . S
C497 N496 1.351 . S
C497 C498 1.434 . S
C498 C489 1.429 . S
C498 N495 1.350 . S
C498 C497 1.434 . S
C499 C500 1.369 . S
C499 C501 1.419 . S
C499 H503 0.930 . S
C500 C499 1.369 . S
C500 C509 1.447 . S
C501 C499 1.419 . S
C501 C502 1.363 . S
C501 H504 0.929 . S
C502 C501 1.363 . S
C502 C508 1.428 1_455 S
H503 C499 0.930 . S
H504 C501 0.929 . S
S505 N506 1.613 . S
S505 N507 1.610 . S
N506 S505 1.613 . S
N506 C509 1.333 1_655 S
N507 S505 1.610 . S
N507 C508 1.351 . S
C508 C502 1.428 1_655 S
C508 N507 1.351 . S
C508 C509 1.431 1_655 S
C509 C500 1.447 . S
C509 N506 1.333 1_455 S
C509 C508 1.431 1_455 S
C313 C7 0.975 . S
C315 C303 1.135 . S
C324 C51 1.963 . S
C326 C239 1.882 . S
C335 C87 1.397 . S
C337 C271 1.386 . S
C346 C16 0.732 . S
C348 C297 0.744 . S
C359 C233 1.970 . S
C357 C42 2.066 . S
C370 C265 1.387 . S
C368 C96 1.384 . S
C379 C47 1.296 . S
C381 C175 1.342 . S
C390 C91 3.123 . S
C392 C207 3.033 . S
C401 C2 2.100 . S
C403 C137 2.015 . S
C414 C169 1.416 . S
C412 C56 1.390 . S
C425 C201 3.018 . S
C423 C82 3.061 . S
C434 C11 1.958 . S
C436 C143 1.911 . S
C447 C213 1.765 1_554 S
C445 C19 1.732 . S
C456 C50 1.335 . S
C458 C149 1.343 . S
C467 C99 1.456 . S
C469 C181 1.486 . S
C480 C277 1.440 . S
C478 C59 1.451 . S
C491 C309 1.113 . S
C489 C90 1.109 . S
C500 C10 1.327 . S
C502 C245 1.323 . S
