# Generated by pormake.
# Topology tbo, (3,4)-cn, num edge types: 1
# Building blocks:
#     Node 0, Type 0, BuildingBlock: VETTIZ_charged_linker_0, # of connection points: 3
#     Node 1, Type 0, BuildingBlock: VETTIZ_charged_linker_0, # of connection points: 3
#     Node 2, Type 0, BuildingBlock: VETTIZ_charged_linker_0, # of connection points: 3
#     Node 3, Type 0, BuildingBlock: VETTIZ_charged_linker_0, # of connection points: 3
#     Node 4, Type 0, BuildingBlock: VETTIZ_charged_linker_0, # of connection points: 3
#     Node 5, Type 0, BuildingBlock: VETTIZ_charged_linker_0, # of connection points: 3
#     Node 6, Type 0, BuildingBlock: VETTIZ_charged_linker_0, # of connection points: 3
#     Node 7, Type 0, BuildingBlock: VETTIZ_charged_linker_0, # of connection points: 3
#     Node 8, Type 0, BuildingBlock: VETTIZ_charged_linker_0, # of connection points: 3
#     Node 9, Type 0, BuildingBlock: VETTIZ_charged_linker_0, # of connection points: 3
#     Node 10, Type 0, BuildingBlock: VETTIZ_charged_linker_0, # of connection points: 3
#     Node 11, Type 0, BuildingBlock: VETTIZ_charged_linker_0, # of connection points: 3
#     Node 12, Type 0, BuildingBlock: VETTIZ_charged_linker_0, # of connection points: 3
#     Node 13, Type 0, BuildingBlock: VETTIZ_charged_linker_0, # of connection points: 3
#     Node 14, Type 0, BuildingBlock: VETTIZ_charged_linker_0, # of connection points: 3
#     Node 15, Type 0, BuildingBlock: VETTIZ_charged_linker_0, # of connection points: 3
#     Node 16, Type 0, BuildingBlock: VETTIZ_charged_linker_0, # of connection points: 3
#     Node 17, Type 0, BuildingBlock: VETTIZ_charged_linker_0, # of connection points: 3
#     Node 18, Type 0, BuildingBlock: VETTIZ_charged_linker_0, # of connection points: 3
#     Node 19, Type 0, BuildingBlock: VETTIZ_charged_linker_0, # of connection points: 3
#     Node 20, Type 0, BuildingBlock: VETTIZ_charged_linker_0, # of connection points: 3
#     Node 21, Type 0, BuildingBlock: VETTIZ_charged_linker_0, # of connection points: 3
#     Node 22, Type 0, BuildingBlock: VETTIZ_charged_linker_0, # of connection points: 3
#     Node 23, Type 0, BuildingBlock: VETTIZ_charged_linker_0, # of connection points: 3
#     Node 24, Type 0, BuildingBlock: VETTIZ_charged_linker_0, # of connection points: 3
#     Node 25, Type 0, BuildingBlock: VETTIZ_charged_linker_0, # of connection points: 3
#     Node 26, Type 0, BuildingBlock: VETTIZ_charged_linker_0, # of connection points: 3
#     Node 27, Type 0, BuildingBlock: VETTIZ_charged_linker_0, # of connection points: 3
#     Node 28, Type 0, BuildingBlock: VETTIZ_charged_linker_0, # of connection points: 3
#     Node 29, Type 0, BuildingBlock: VETTIZ_charged_linker_0, # of connection points: 3
#     Node 30, Type 0, BuildingBlock: VETTIZ_charged_linker_0, # of connection points: 3
#     Node 31, Type 0, BuildingBlock: VETTIZ_charged_linker_0, # of connection points: 3
#     Node 32, Type 1, BuildingBlock: ESEHIV_clean_sbu_0, # of connection points: 4
#     Node 33, Type 1, BuildingBlock: ESEHIV_clean_sbu_0, # of connection points: 4
#     Node 34, Type 1, BuildingBlock: ESEHIV_clean_sbu_0, # of connection points: 4
#     Node 35, Type 1, BuildingBlock: ESEHIV_clean_sbu_0, # of connection points: 4
#     Node 36, Type 1, BuildingBlock: ESEHIV_clean_sbu_0, # of connection points: 4
#     Node 37, Type 1, BuildingBlock: ESEHIV_clean_sbu_0, # of connection points: 4
#     Node 38, Type 1, BuildingBlock: ESEHIV_clean_sbu_0, # of connection points: 4
#     Node 39, Type 1, BuildingBlock: ESEHIV_clean_sbu_0, # of connection points: 4
#     Node 40, Type 1, BuildingBlock: ESEHIV_clean_sbu_0, # of connection points: 4
#     Node 41, Type 1, BuildingBlock: ESEHIV_clean_sbu_0, # of connection points: 4
#     Node 42, Type 1, BuildingBlock: ESEHIV_clean_sbu_0, # of connection points: 4
#     Node 43, Type 1, BuildingBlock: ESEHIV_clean_sbu_0, # of connection points: 4
#     Node 44, Type 1, BuildingBlock: ESEHIV_clean_sbu_0, # of connection points: 4
#     Node 45, Type 1, BuildingBlock: ESEHIV_clean_sbu_0, # of connection points: 4
#     Node 46, Type 1, BuildingBlock: ESEHIV_clean_sbu_0, # of connection points: 4
#     Node 47, Type 1, BuildingBlock: ESEHIV_clean_sbu_0, # of connection points: 4
#     Node 48, Type 1, BuildingBlock: ESEHIV_clean_sbu_0, # of connection points: 4
#     Node 49, Type 1, BuildingBlock: ESEHIV_clean_sbu_0, # of connection points: 4
#     Node 50, Type 1, BuildingBlock: ESEHIV_clean_sbu_0, # of connection points: 4
#     Node 51, Type 1, BuildingBlock: ESEHIV_clean_sbu_0, # of connection points: 4
#     Node 52, Type 1, BuildingBlock: ESEHIV_clean_sbu_0, # of connection points: 4
#     Node 53, Type 1, BuildingBlock: ESEHIV_clean_sbu_0, # of connection points: 4
#     Node 54, Type 1, BuildingBlock: ESEHIV_clean_sbu_0, # of connection points: 4
#     Node 55, Type 1, BuildingBlock: ESEHIV_clean_sbu_0, # of connection points: 4
#     Edge 56, Type (0, 1), BuildingBlock: AJUNOK_clean_linker_0, # of connection points: 2
#     Edge 57, Type (0, 1), BuildingBlock: AJUNOK_clean_linker_0, # of connection points: 2
#     Edge 58, Type (0, 1), BuildingBlock: AJUNOK_clean_linker_0, # of connection points: 2
#     Edge 59, Type (0, 1), BuildingBlock: AJUNOK_clean_linker_0, # of connection points: 2
#     Edge 60, Type (0, 1), BuildingBlock: AJUNOK_clean_linker_0, # of connection points: 2
#     Edge 61, Type (0, 1), BuildingBlock: AJUNOK_clean_linker_0, # of connection points: 2
#     Edge 62, Type (0, 1), BuildingBlock: AJUNOK_clean_linker_0, # of connection points: 2
#     Edge 63, Type (0, 1), BuildingBlock: AJUNOK_clean_linker_0, # of connection points: 2
#     Edge 64, Type (0, 1), BuildingBlock: AJUNOK_clean_linker_0, # of connection points: 2
#     Edge 65, Type (0, 1), BuildingBlock: AJUNOK_clean_linker_0, # of connection points: 2
#     Edge 66, Type (0, 1), BuildingBlock: AJUNOK_clean_linker_0, # of connection points: 2
#     Edge 67, Type (0, 1), BuildingBlock: AJUNOK_clean_linker_0, # of connection points: 2
#     Edge 68, Type (0, 1), BuildingBlock: AJUNOK_clean_linker_0, # of connection points: 2
#     Edge 69, Type (0, 1), BuildingBlock: AJUNOK_clean_linker_0, # of connection points: 2
#     Edge 70, Type (0, 1), BuildingBlock: AJUNOK_clean_linker_0, # of connection points: 2
#     Edge 71, Type (0, 1), BuildingBlock: AJUNOK_clean_linker_0, # of connection points: 2
#     Edge 72, Type (0, 1), BuildingBlock: AJUNOK_clean_linker_0, # of connection points: 2
#     Edge 73, Type (0, 1), BuildingBlock: AJUNOK_clean_linker_0, # of connection points: 2
#     Edge 74, Type (0, 1), BuildingBlock: AJUNOK_clean_linker_0, # of connection points: 2
#     Edge 75, Type (0, 1), BuildingBlock: AJUNOK_clean_linker_0, # of connection points: 2
#     Edge 76, Type (0, 1), BuildingBlock: AJUNOK_clean_linker_0, # of connection points: 2
#     Edge 77, Type (0, 1), BuildingBlock: AJUNOK_clean_linker_0, # of connection points: 2
#     Edge 78, Type (0, 1), BuildingBlock: AJUNOK_clean_linker_0, # of connection points: 2
#     Edge 79, Type (0, 1), BuildingBlock: AJUNOK_clean_linker_0, # of connection points: 2
#     Edge 80, Type (0, 1), BuildingBlock: AJUNOK_clean_linker_0, # of connection points: 2
#     Edge 81, Type (0, 1), BuildingBlock: AJUNOK_clean_linker_0, # of connection points: 2
#     Edge 82, Type (0, 1), BuildingBlock: AJUNOK_clean_linker_0, # of connection points: 2
#     Edge 83, Type (0, 1), BuildingBlock: AJUNOK_clean_linker_0, # of connection points: 2
#     Edge 84, Type (0, 1), BuildingBlock: AJUNOK_clean_linker_0, # of connection points: 2
#     Edge 85, Type (0, 1), BuildingBlock: AJUNOK_clean_linker_0, # of connection points: 2
#     Edge 86, Type (0, 1), BuildingBlock: AJUNOK_clean_linker_0, # of connection points: 2
#     Edge 87, Type (0, 1), BuildingBlock: AJUNOK_clean_linker_0, # of connection points: 2
#     Edge 88, Type (0, 1), BuildingBlock: AJUNOK_clean_linker_0, # of connection points: 2
#     Edge 89, Type (0, 1), BuildingBlock: AJUNOK_clean_linker_0, # of connection points: 2
#     Edge 90, Type (0, 1), BuildingBlock: AJUNOK_clean_linker_0, # of connection points: 2
#     Edge 91, Type (0, 1), BuildingBlock: AJUNOK_clean_linker_0, # of connection points: 2
#     Edge 92, Type (0, 1), BuildingBlock: AJUNOK_clean_linker_0, # of connection points: 2
#     Edge 93, Type (0, 1), BuildingBlock: AJUNOK_clean_linker_0, # of connection points: 2
#     Edge 94, Type (0, 1), BuildingBlock: AJUNOK_clean_linker_0, # of connection points: 2
#     Edge 95, Type (0, 1), BuildingBlock: AJUNOK_clean_linker_0, # of connection points: 2
#     Edge 96, Type (0, 1), BuildingBlock: AJUNOK_clean_linker_0, # of connection points: 2
#     Edge 97, Type (0, 1), BuildingBlock: AJUNOK_clean_linker_0, # of connection points: 2
#     Edge 98, Type (0, 1), BuildingBlock: AJUNOK_clean_linker_0, # of connection points: 2
#     Edge 99, Type (0, 1), BuildingBlock: AJUNOK_clean_linker_0, # of connection points: 2
#     Edge 100, Type (0, 1), BuildingBlock: AJUNOK_clean_linker_0, # of connection points: 2
#     Edge 101, Type (0, 1), BuildingBlock: AJUNOK_clean_linker_0, # of connection points: 2
#     Edge 102, Type (0, 1), BuildingBlock: AJUNOK_clean_linker_0, # of connection points: 2
#     Edge 103, Type (0, 1), BuildingBlock: AJUNOK_clean_linker_0, # of connection points: 2
#     Edge 104, Type (0, 1), BuildingBlock: AJUNOK_clean_linker_0, # of connection points: 2
#     Edge 105, Type (0, 1), BuildingBlock: AJUNOK_clean_linker_0, # of connection points: 2
#     Edge 106, Type (0, 1), BuildingBlock: AJUNOK_clean_linker_0, # of connection points: 2
#     Edge 107, Type (0, 1), BuildingBlock: AJUNOK_clean_linker_0, # of connection points: 2
#     Edge 108, Type (0, 1), BuildingBlock: AJUNOK_clean_linker_0, # of connection points: 2
#     Edge 109, Type (0, 1), BuildingBlock: AJUNOK_clean_linker_0, # of connection points: 2
#     Edge 110, Type (0, 1), BuildingBlock: AJUNOK_clean_linker_0, # of connection points: 2
#     Edge 111, Type (0, 1), BuildingBlock: AJUNOK_clean_linker_0, # of connection points: 2
#     Edge 112, Type (0, 1), BuildingBlock: AJUNOK_clean_linker_0, # of connection points: 2
#     Edge 113, Type (0, 1), BuildingBlock: AJUNOK_clean_linker_0, # of connection points: 2
#     Edge 114, Type (0, 1), BuildingBlock: AJUNOK_clean_linker_0, # of connection points: 2
#     Edge 115, Type (0, 1), BuildingBlock: AJUNOK_clean_linker_0, # of connection points: 2
#     Edge 116, Type (0, 1), BuildingBlock: AJUNOK_clean_linker_0, # of connection points: 2
#     Edge 117, Type (0, 1), BuildingBlock: AJUNOK_clean_linker_0, # of connection points: 2
#     Edge 118, Type (0, 1), BuildingBlock: AJUNOK_clean_linker_0, # of connection points: 2
#     Edge 119, Type (0, 1), BuildingBlock: AJUNOK_clean_linker_0, # of connection points: 2
#     Edge 120, Type (0, 1), BuildingBlock: AJUNOK_clean_linker_0, # of connection points: 2
#     Edge 121, Type (0, 1), BuildingBlock: AJUNOK_clean_linker_0, # of connection points: 2
#     Edge 122, Type (0, 1), BuildingBlock: AJUNOK_clean_linker_0, # of connection points: 2
#     Edge 123, Type (0, 1), BuildingBlock: AJUNOK_clean_linker_0, # of connection points: 2
#     Edge 124, Type (0, 1), BuildingBlock: AJUNOK_clean_linker_0, # of connection points: 2
#     Edge 125, Type (0, 1), BuildingBlock: AJUNOK_clean_linker_0, # of connection points: 2
#     Edge 126, Type (0, 1), BuildingBlock: AJUNOK_clean_linker_0, # of connection points: 2
#     Edge 127, Type (0, 1), BuildingBlock: AJUNOK_clean_linker_0, # of connection points: 2
#     Edge 128, Type (0, 1), BuildingBlock: AJUNOK_clean_linker_0, # of connection points: 2
#     Edge 129, Type (0, 1), BuildingBlock: AJUNOK_clean_linker_0, # of connection points: 2
#     Edge 130, Type (0, 1), BuildingBlock: AJUNOK_clean_linker_0, # of connection points: 2
#     Edge 131, Type (0, 1), BuildingBlock: AJUNOK_clean_linker_0, # of connection points: 2
#     Edge 132, Type (0, 1), BuildingBlock: AJUNOK_clean_linker_0, # of connection points: 2
#     Edge 133, Type (0, 1), BuildingBlock: AJUNOK_clean_linker_0, # of connection points: 2
#     Edge 134, Type (0, 1), BuildingBlock: AJUNOK_clean_linker_0, # of connection points: 2
#     Edge 135, Type (0, 1), BuildingBlock: AJUNOK_clean_linker_0, # of connection points: 2
#     Edge 136, Type (0, 1), BuildingBlock: AJUNOK_clean_linker_0, # of connection points: 2
#     Edge 137, Type (0, 1), BuildingBlock: AJUNOK_clean_linker_0, # of connection points: 2
#     Edge 138, Type (0, 1), BuildingBlock: AJUNOK_clean_linker_0, # of connection points: 2
#     Edge 139, Type (0, 1), BuildingBlock: AJUNOK_clean_linker_0, # of connection points: 2
#     Edge 140, Type (0, 1), BuildingBlock: AJUNOK_clean_linker_0, # of connection points: 2
#     Edge 141, Type (0, 1), BuildingBlock: AJUNOK_clean_linker_0, # of connection points: 2
#     Edge 142, Type (0, 1), BuildingBlock: AJUNOK_clean_linker_0, # of connection points: 2
#     Edge 143, Type (0, 1), BuildingBlock: AJUNOK_clean_linker_0, # of connection points: 2
#     Edge 144, Type (0, 1), BuildingBlock: AJUNOK_clean_linker_0, # of connection points: 2
#     Edge 145, Type (0, 1), BuildingBlock: AJUNOK_clean_linker_0, # of connection points: 2
#     Edge 146, Type (0, 1), BuildingBlock: AJUNOK_clean_linker_0, # of connection points: 2
#     Edge 147, Type (0, 1), BuildingBlock: AJUNOK_clean_linker_0, # of connection points: 2
#     Edge 148, Type (0, 1), BuildingBlock: AJUNOK_clean_linker_0, # of connection points: 2
#     Edge 149, Type (0, 1), BuildingBlock: AJUNOK_clean_linker_0, # of connection points: 2
#     Edge 150, Type (0, 1), BuildingBlock: AJUNOK_clean_linker_0, # of connection points: 2
#     Edge 151, Type (0, 1), BuildingBlock: AJUNOK_clean_linker_0, # of connection points: 2
# Relax obj value: 0.003
# Max RMSD: 0.122
# Mean RMSD: 0.049
data_MOF--net-tbo--node1-ESEHIV_clean_sbu_0--node2-VETTIZ_charged_linker_0--edge1-AJUNOK_clean_linker_0
_symmetry_space_group_name_H-M    P1
_symmetry_Int_Tables_number       1
_symmetry_cell_setting            triclinic
loop_
_symmetry_equiv_pos_as_xyz
'x, y, z'
_cell_length_a     70.791481
_cell_length_b     70.687983
_cell_length_c     70.81988
_cell_angle_alpha  90.128119
_cell_angle_beta   92.506701
_cell_angle_gamma 90.764208
loop_
_atom_site_label
_atom_site_type_symbol
_atom_site_fract_x
_atom_site_fract_y
_atom_site_fract_z
_atom_type_partial_charge
C0 C 0.20831 0.212 0.14495 0.0
C1 C 0.22347 0.20593 0.13457 0.0
C2 C 0.23267 0.18904 0.1398 0.0
C3 C 0.21115 0.18451 0.16532 0.0
C4 C 0.2025 0.20122 0.16014 0.0
C5 C 0.1867 0.20617 0.17248 0.0
H6 H 0.12809 0.18516 0.24175 0.0
C7 C 0.20114 0.17676 0.18167 0.0
C8 C 0.18685 0.18945 0.18581 0.0
H9 H 0.13082 0.23507 0.20657 0.0
H10 H 0.15728 0.22281 0.19144 0.0
H11 H 0.13847 0.15379 0.20864 0.0
H12 H 0.17569 0.1831 0.24948 0.0
H13 H 0.18102 0.15881 0.24881 0.0
H14 H 0.15833 0.16606 0.25657 0.0
H15 H 0.13717 0.14986 0.23363 0.0
H16 H 0.15422 0.13785 0.21998 0.0
C17 C 0.16824 0.20683 0.15979 0.0
C18 C 0.19219 0.22497 0.18292 0.0
C19 C 0.2211 0.11385 0.21041 0.0
C20 C 0.21404 0.10251 0.22483 0.0
C21 C 0.19846 0.10908 0.2347 0.0
C22 C 0.18992 0.12644 0.23011 0.0
C23 C 0.19695 0.13749 0.21546 0.0
C24 C 0.21233 0.1311 0.2059 0.0
C25 C 0.21774 0.14443 0.19048 0.0
C26 C 0.20333 0.15994 0.19245 0.0
C27 C 0.19106 0.15593 0.20716 0.0
C28 C 0.21509 0.13388 0.17133 0.0
C29 C 0.23816 0.15172 0.19503 0.0
C30 C 0.13456 0.1934 0.23085 0.0
C31 C 0.12696 0.21105 0.2251 0.0
C32 C 0.13592 0.2213 0.21095 0.0
C33 C 0.15154 0.21417 0.20222 0.0
C34 C 0.15871 0.19651 0.20761 0.0
C35 C 0.15056 0.18643 0.22189 0.0
C36 C 0.161 0.1681 0.22579 0.0
C37 C 0.1764 0.16893 0.21126 0.0
C38 C 0.17464 0.18563 0.20069 0.0
C39 C 0.14704 0.15141 0.22195 0.0
C40 C 0.16942 0.16887 0.24628 0.0
H41 H 0.23401 0.16546 0.15842 0.0
H42 H 0.20119 0.22509 0.14143 0.0
H43 H 0.2078 0.22704 0.18434 0.0
H44 H 0.18758 0.22523 0.19766 0.0
H45 H 0.18633 0.2374 0.17522 0.0
H46 H 0.16844 0.19616 0.14822 0.0
H47 H 0.16646 0.22094 0.15312 0.0
H48 H 0.15541 0.20323 0.16741 0.0
H49 H 0.23297 0.10921 0.20251 0.0
H50 H 0.19292 0.10079 0.2461 0.0
H51 H 0.1781 0.13056 0.23808 0.0
H52 H 0.20247 0.12432 0.17125 0.0
H53 H 0.22757 0.12508 0.16856 0.0
H54 H 0.21245 0.14348 0.15927 0.0
H55 H 0.24054 0.15423 0.21048 0.0
H56 H 0.24121 0.16546 0.18836 0.0
H57 H 0.24871 0.14127 0.19065 0.0
H58 H 0.24443 0.18412 0.13191 0.0
C59 C 0.22656 0.17825 0.15513 0.0
C60 C 0.84156 0.13384 0.23362 0.0
C61 C 0.82565 0.12449 0.22541 0.0
C62 C 0.81784 0.13113 0.20802 0.0
C63 C 0.84115 0.1568 0.20809 0.0
C64 C 0.84895 0.14982 0.22485 0.0
C65 C 0.86563 0.16127 0.23221 0.0
H66 H 0.92616 0.235 0.22547 0.0
C67 C 0.85219 0.17403 0.20317 0.0
C68 C 0.86652 0.17657 0.21732 0.0
H69 H 0.92471 0.19134 0.26808 0.0
H70 H 0.89756 0.17709 0.25226 0.0
H71 H 0.88026 0.24098 0.22257 0.0
H72 H 0.91545 0.20655 0.18825 0.0
H73 H 0.89988 0.22006 0.17373 0.0
H74 H 0.91736 0.23192 0.18887 0.0
H75 H 0.8962 0.25131 0.20633 0.0
H76 H 0.87281 0.24326 0.19868 0.0
C77 C 0.86082 0.16942 0.2518 0.0
C78 C 0.88324 0.14838 0.23238 0.0
C79 C 0.83375 0.21212 0.14431 0.0
C80 C 0.84043 0.22924 0.13666 0.0
C81 C 0.85598 0.23847 0.14612 0.0
C82 C 0.86457 0.23095 0.16272 0.0
C83 C 0.85757 0.21399 0.17022 0.0
C84 C 0.8423 0.20494 0.16106 0.0
C85 C 0.83629 0.18737 0.17133 0.0
C86 C 0.85049 0.18725 0.18806 0.0
C87 C 0.86312 0.20283 0.18734 0.0
C88 C 0.81583 0.19015 0.17761 0.0
C89 C 0.83866 0.17014 0.15817 0.0
C90 C 0.91998 0.22227 0.2312 0.0
C91 C 0.92764 0.21424 0.2481 0.0
C92 C 0.91904 0.19787 0.25525 0.0
C93 C 0.90326 0.18954 0.24593 0.0
C94 C 0.89571 0.1976 0.22917 0.0
C95 C 0.90394 0.21372 0.222 0.0
C96 C 0.89342 0.22027 0.20414 0.0
C97 C 0.87783 0.20518 0.20171 0.0
C98 C 0.8794 0.19205 0.21652 0.0
C99 C 0.88529 0.24006 0.20794 0.0
C100 C 0.90718 0.21983 0.1878 0.0
H101 H 0.81883 0.15177 0.18622 0.0
H102 H 0.84818 0.12881 0.24671 0.0
H103 H 0.88195 0.13754 0.22095 0.0
H104 H 0.89644 0.15621 0.22954 0.0
H105 H 0.8851 0.14076 0.24601 0.0
H106 H 0.84544 0.17231 0.25242 0.0
H107 H 0.86457 0.15934 0.26333 0.0
H108 H 0.86778 0.18322 0.25494 0.0
H109 H 0.8222 0.20427 0.13733 0.0
H110 H 0.86144 0.25171 0.14078 0.0
H111 H 0.87631 0.2387 0.16914 0.0
H112 H 0.81377 0.20498 0.18234 0.0
H113 H 0.80539 0.18718 0.16578 0.0
H114 H 0.81234 0.18132 0.18982 0.0
H115 H 0.85177 0.17167 0.15016 0.0
H116 H 0.84022 0.15671 0.16596 0.0
H117 H 0.82653 0.16877 0.14774 0.0
H118 H 0.80564 0.12402 0.20135 0.0
C119 C 0.82547 0.14727 0.19934 0.0
C120 C 0.90217 0.84843 0.19886 0.0
C121 C 0.91145 0.83239 0.19219 0.0
C122 C 0.9033 0.82265 0.17634 0.0
C123 C 0.87703 0.84453 0.17444 0.0
C124 C 0.88506 0.85415 0.18989 0.0
C125 C 0.87328 0.87068 0.19549 0.0
H126 H 0.79518 0.9244 0.18065 0.0
C127 C 0.85912 0.85407 0.16852 0.0
C128 C 0.85688 0.86941 0.18092 0.0
H129 H 0.8398 0.93142 0.22381 0.0
H130 H 0.85573 0.90417 0.21194 0.0
H131 H 0.79142 0.87965 0.18461 0.0
H132 H 0.82209 0.91513 0.14712 0.0
H133 H 0.81269 0.89625 0.13342 0.0
H134 H 0.7969 0.91192 0.14497 0.0
H135 H 0.78003 0.89166 0.16504 0.0
H136 H 0.78985 0.86839 0.16249 0.0
C137 C 0.86675 0.86718 0.2158 0.0
C138 C 0.88522 0.889 0.19324 0.0
C139 C 0.81793 0.8297 0.11207 0.0
C140 C 0.80035 0.83552 0.10409 0.0
C141 C 0.79158 0.85133 0.11184 0.0
C142 C 0.79996 0.86109 0.12734 0.0
C143 C 0.81737 0.85502 0.13535 0.0
C144 C 0.8261 0.83956 0.12776 0.0
C145 C 0.84439 0.83503 0.13855 0.0
C146 C 0.8452 0.85041 0.1537 0.0
C147 C 0.8293 0.86207 0.15164 0.0
C148 C 0.84239 0.81504 0.14716 0.0
C149 C 0.86075 0.83711 0.1249 0.0
C150 C 0.80826 0.91994 0.18767 0.0
C151 C 0.81618 0.93009 0.20324 0.0
C152 C 0.83345 0.92395 0.21171 0.0
C153 C 0.84267 0.90806 0.20483 0.0
C154 C 0.83461 0.89807 0.18923 0.0
C155 C 0.81768 0.90407 0.18095 0.0
C156 C 0.81123 0.89181 0.16448 0.0
C157 C 0.82707 0.87751 0.16419 0.0
C158 C 0.84076 0.8812 0.17872 0.0
C159 C 0.79208 0.88242 0.16919 0.0
C160 C 0.81051 0.90432 0.1465 0.0
H161 H 0.88085 0.82057 0.15549 0.0
H162 H 0.90798 0.85623 0.21101 0.0
H163 H 0.8941 0.88802 0.1807 0.0
H164 H 0.87649 0.90164 0.19068 0.0
H165 H 0.89483 0.89153 0.20583 0.0
H166 H 0.86354 0.85192 0.21802 0.0
H167 H 0.8779 0.87153 0.22651 0.0
H168 H 0.85352 0.8745 0.21876 0.0
H169 H 0.82496 0.81752 0.10645 0.0
H170 H 0.7782 0.85622 0.1058 0.0
H171 H 0.79248 0.87298 0.1325 0.0
H172 H 0.82786 0.81266 0.15215 0.0
H173 H 0.84508 0.8039 0.13655 0.0
H174 H 0.85184 0.81289 0.15975 0.0
H175 H 0.85866 0.84971 0.11568 0.0
H176 H 0.87463 0.83941 0.1323 0.0
H177 H 0.86151 0.82449 0.11559 0.0
H178 H 0.91028 0.81049 0.17065 0.0
C179 C 0.88623 0.8286 0.16747 0.0
C180 C 0.20689 0.89826 0.19557 0.0
C181 C 0.19718 0.90456 0.21136 0.0
C182 C 0.18032 0.89512 0.21589 0.0
C183 C 0.18301 0.87369 0.18936 0.0
C184 C 0.19953 0.88287 0.18478 0.0
C185 C 0.20784 0.87436 0.16745 0.0
H186 H 0.20292 0.808 0.09746 0.0
C187 C 0.17922 0.85819 0.17552 0.0
C188 C 0.1937 0.85843 0.16261 0.0
H189 H 0.24472 0.85257 0.10654 0.0
H190 H 0.22882 0.86321 0.13405 0.0
H191 H 0.20019 0.79628 0.14207 0.0
H192 H 0.16643 0.8339 0.10687 0.0
H193 H 0.15142 0.81932 0.11988 0.0
H194 H 0.16647 0.80877 0.10305 0.0
H195 H 0.18457 0.78765 0.12323 0.0
H196 H 0.17615 0.79245 0.1464 0.0
C197 C 0.22763 0.86668 0.1732 0.0
C198 C 0.20791 0.88969 0.15186 0.0
C199 C 0.12032 0.81748 0.18148 0.0
C200 C 0.11254 0.8019 0.17142 0.0
C201 C 0.12251 0.79437 0.15639 0.0
C202 C 0.13976 0.80268 0.15118 0.0
C203 C 0.14714 0.81861 0.16121 0.0
C204 C 0.13747 0.82549 0.17625 0.0
C205 C 0.14734 0.8421 0.18575 0.0
C206 C 0.16443 0.84443 0.17378 0.0
C207 C 0.16432 0.83076 0.15931 0.0
C208 C 0.15297 0.83636 0.20635 0.0
C209 C 0.13405 0.85934 0.18398 0.0
C210 C 0.20874 0.81993 0.1055 0.0
C211 C 0.22522 0.82937 0.09985 0.0
C212 C 0.23205 0.8451 0.11051 0.0
C213 C 0.22281 0.85123 0.12654 0.0
C214 C 0.20639 0.84165 0.13203 0.0
C215 C 0.19958 0.8263 0.12153 0.0
C216 C 0.18175 0.81807 0.1293 0.0
C217 C 0.17899 0.83099 0.14614 0.0
C218 C 0.19354 0.84478 0.14772 0.0
C219 C 0.18569 0.79747 0.13551 0.0
C220 C 0.16559 0.81994 0.11402 0.0
H221 H 0.1603 0.87338 0.20933 0.0
H222 H 0.22003 0.90498 0.19181 0.0
H223 H 0.19532 0.89889 0.15259 0.0
H224 H 0.20698 0.88368 0.13744 0.0
H225 H 0.2207 0.89893 0.15344 0.0
H226 H 0.22747 0.85972 0.18727 0.0
H227 H 0.23835 0.87831 0.17414 0.0
H228 H 0.23243 0.85572 0.16345 0.0
H229 H 0.1131 0.82341 0.19326 0.0
H230 H 0.11676 0.78234 0.14846 0.0
H231 H 0.14661 0.79651 0.13948 0.0
H232 H 0.15598 0.82097 0.20735 0.0
H233 H 0.14146 0.83937 0.21604 0.0
H234 H 0.16616 0.84337 0.2118 0.0
H235 H 0.12585 0.8591 0.1702 0.0
H236 H 0.14174 0.87304 0.18416 0.0
H237 H 0.12374 0.85931 0.19536 0.0
H238 H 0.17244 0.89974 0.22781 0.0
C239 C 0.17323 0.87981 0.20505 0.0
C240 C 0.21614 0.83411 0.89331 0.0
C241 C 0.20783 0.81724 0.89973 0.0
C242 C 0.1921 0.80954 0.88934 0.0
C243 C 0.19296 0.83572 0.86701 0.0
C244 C 0.20855 0.84303 0.87708 0.0
C245 C 0.2157 0.86118 0.86876 0.0
H246 H 0.20617 0.93228 0.8053 0.0
C247 C 0.18842 0.84886 0.85109 0.0
C248 C 0.20177 0.86375 0.85206 0.0
H249 H 0.24944 0.92498 0.84959 0.0
H250 H 0.23556 0.8952 0.858 0.0
H251 H 0.1702 0.91563 0.82878 0.0
H252 H 0.20722 0.88771 0.79089 0.0
H253 H 0.18384 0.87987 0.78596 0.0
H254 H 0.18994 0.90444 0.78251 0.0
H255 H 0.17066 0.92134 0.80409 0.0
H256 H 0.15676 0.90176 0.81223 0.0
C257 C 0.21403 0.87701 0.88377 0.0
C258 C 0.23609 0.85793 0.86233 0.0
C259 C 0.13105 0.83556 0.80712 0.0
C260 C 0.12269 0.84505 0.79149 0.0
C261 C 0.13153 0.86168 0.78504 0.0
C262 C 0.14803 0.86904 0.79442 0.0
C263 C 0.15593 0.8596 0.81036 0.0
C264 C 0.14748 0.843 0.81627 0.0
C265 C 0.15776 0.8346 0.83323 0.0
C266 C 0.17377 0.84884 0.83667 0.0
C267 C 0.17266 0.86361 0.82332 0.0
C268 C 0.1441 0.83418 0.84973 0.0
C269 C 0.16514 0.81494 0.82758 0.0
C270 C 0.2126 0.92421 0.81679 0.0
C271 C 0.22864 0.9314 0.82719 0.0
C272 C 0.23674 0.92023 0.84181 0.0
C273 C 0.22871 0.90278 0.8466 0.0
C274 C 0.21238 0.89608 0.83662 0.0
C275 C 0.20472 0.90654 0.82176 0.0
C276 C 0.18766 0.89662 0.81245 0.0
C277 C 0.1862 0.87879 0.82445 0.0
C278 C 0.20072 0.8787 0.83865 0.0
C279 C 0.17033 0.90946 0.81432 0.0
C280 C 0.19221 0.89197 0.7918 0.0
H281 H 0.17253 0.81218 0.86588 0.0
H282 H 0.22837 0.84032 0.90082 0.0
H283 H 0.23813 0.84293 0.85817 0.0
H284 H 0.23936 0.86614 0.84958 0.0
H285 H 0.24676 0.86137 0.87382 0.0
H286 H 0.20083 0.87516 0.89158 0.0
H287 H 0.22613 0.87675 0.89429 0.0
H288 H 0.21306 0.8913 0.87761 0.0
H289 H 0.12485 0.82254 0.8122 0.0
H290 H 0.12542 0.86919 0.77299 0.0
H291 H 0.15393 0.88189 0.78902 0.0
H292 H 0.13525 0.84707 0.84963 0.0
H293 H 0.13441 0.82169 0.84861 0.0
H294 H 0.15151 0.83417 0.86377 0.0
H295 H 0.1697 0.81501 0.81274 0.0
H296 H 0.17779 0.81068 0.83613 0.0
H297 H 0.15397 0.80385 0.82865 0.0
H298 H 0.18531 0.79668 0.89406 0.0
C299 C 0.18463 0.81866 0.87305 0.0
C300 C 0.14229 0.22474 0.84658 0.0
C301 C 0.13457 0.23983 0.85667 0.0
C302 C 0.14434 0.24644 0.87321 0.0
C303 C 0.1685 0.22276 0.86991 0.0
C304 C 0.15919 0.2164 0.85349 0.0
C305 C 0.16925 0.2 0.84486 0.0
H306 H 0.24088 0.13673 0.85061 0.0
C307 C 0.18551 0.21103 0.87344 0.0
C308 C 0.18611 0.19767 0.85876 0.0
H309 H 0.196 0.13988 0.80749 0.0
H310 H 0.18389 0.16785 0.82252 0.0
H311 H 0.25007 0.18139 0.85224 0.0
H312 H 0.21508 0.14594 0.88626 0.0
H313 H 0.22918 0.16075 0.90129 0.0
H314 H 0.24036 0.14403 0.88635 0.0
H315 H 0.26005 0.16556 0.86965 0.0
H316 H 0.25308 0.1892 0.87576 0.0
C317 C 0.17548 0.20601 0.82505 0.0
C318 C 0.15579 0.18256 0.84473 0.0
C319 C 0.2271 0.22251 0.93291 0.0
C320 C 0.2438 0.21426 0.94032 0.0
C321 C 0.2523 0.19998 0.92982 0.0
C322 C 0.24395 0.19368 0.91246 0.0
C323 C 0.22697 0.20181 0.90544 0.0
C324 C 0.21906 0.21622 0.91554 0.0
C325 C 0.20139 0.22371 0.90579 0.0
C326 C 0.19972 0.21122 0.8883 0.0
C327 C 0.21461 0.19827 0.88821 0.0
C328 C 0.20501 0.24475 0.90074 0.0
C329 C 0.18475 0.22033 0.91895 0.0
C330 C 0.22836 0.14338 0.84448 0.0
C331 C 0.21916 0.13588 0.82803 0.0
C332 C 0.20325 0.14531 0.8202 0.0
C333 C 0.19621 0.16148 0.82902 0.0
C334 C 0.20521 0.1684 0.84585 0.0
C335 C 0.22118 0.15948 0.85312 0.0
C336 C 0.22915 0.16882 0.87092 0.0
C337 C 0.21516 0.18463 0.87341 0.0
C338 C 0.20107 0.18434 0.85872 0.0
C339 C 0.24919 0.17658 0.86713 0.0
C340 C 0.22858 0.1542 0.88714 0.0
H341 H 0.16776 0.24374 0.89258 0.0
H342 H 0.13517 0.21937 0.83379 0.0
H343 H 0.14798 0.18191 0.85802 0.0
H344 H 0.16329 0.16902 0.84409 0.0
H345 H 0.14518 0.18321 0.83273 0.0
H346 H 0.18028 0.22107 0.82514 0.0
H347 H 0.16362 0.20452 0.81434 0.0
H348 H 0.18767 0.19795 0.82033 0.0
H349 H 0.22037 0.23368 0.94057 0.0
H350 H 0.26514 0.1934 0.93528 0.0
H351 H 0.25093 0.18257 0.90525 0.0
H352 H 0.22016 0.24742 0.89793 0.0
H353 H 0.20127 0.25428 0.91246 0.0
H354 H 0.19727 0.2491 0.8876 0.0
H355 H 0.18611 0.20644 0.92622 0.0
H356 H 0.17084 0.21965 0.9113 0.0
H357 H 0.18445 0.23147 0.93002 0.0
H358 H 0.13902 0.25831 0.88099 0.0
C359 C 0.16116 0.23803 0.87986 0.0
C360 C 0.83308 0.13595 0.83953 0.0
C361 C 0.83836 0.12508 0.82406 0.0
C362 C 0.85393 0.1312 0.81376 0.0
C363 C 0.85899 0.1582 0.83486 0.0
C364 C 0.84352 0.15226 0.84467 0.0
C365 C 0.83966 0.16506 0.86093 0.0
H366 H 0.86441 0.23983 0.91665 0.0
C367 C 0.86683 0.17564 0.84422 0.0
C368 C 0.85544 0.17961 0.85951 0.0
H369 H 0.8166 0.20167 0.92088 0.0
H370 H 0.82541 0.18518 0.89289 0.0
H371 H 0.85911 0.24583 0.87242 0.0
H372 H 0.89465 0.20827 0.90516 0.0
H373 H 0.90828 0.21778 0.88722 0.0
H374 H 0.89855 0.23339 0.90434 0.0
H375 H 0.88094 0.25376 0.88379 0.0
H376 H 0.88 0.24396 0.86018 0.0
C377 C 0.81989 0.17388 0.8572 0.0
C378 C 0.84171 0.15332 0.87937 0.0
C379 C 0.92474 0.21038 0.81938 0.0
C380 C 0.93438 0.22706 0.82541 0.0
C381 C 0.92861 0.23634 0.84178 0.0
C382 C 0.91338 0.22952 0.85181 0.0
C383 C 0.90358 0.21317 0.84548 0.0
C384 C 0.9093 0.20375 0.8296 0.0
C385 C 0.89681 0.18667 0.82507 0.0
C386 C 0.88263 0.18767 0.84065 0.0
C387 C 0.8868 0.20325 0.85258 0.0
C388 C 0.88722 0.18945 0.80525 0.0
C389 C 0.90915 0.16882 0.82681 0.0
C390 C 0.85587 0.22794 0.91144 0.0
C391 C 0.8397 0.22212 0.92088 0.0
C392 C 0.82891 0.20662 0.91367 0.0
C393 C 0.83416 0.19696 0.89748 0.0
C394 C 0.85043 0.20277 0.88827 0.0
C395 C 0.86085 0.21818 0.8951 0.0
C396 C 0.87735 0.22263 0.88304 0.0
C397 C 0.87531 0.20711 0.86811 0.0
C398 C 0.85962 0.19546 0.87139 0.0
C399 C 0.87441 0.2426 0.87445 0.0
C400 C 0.89575 0.22058 0.89549 0.0
H401 H 0.87607 0.15151 0.8108 0.0
H402 H 0.82092 0.13192 0.84746 0.0
H403 H 0.85354 0.14317 0.87862 0.0
H404 H 0.84526 0.16202 0.89201 0.0
H405 H 0.82862 0.145 0.88177 0.0
H406 H 0.8165 0.1754 0.84179 0.0
H407 H 0.80859 0.16494 0.86315 0.0
H408 H 0.819 0.18841 0.86288 0.0
H409 H 0.9288 0.20299 0.8068 0.0
H410 H 0.93592 0.24906 0.84683 0.0
H411 H 0.90976 0.23739 0.86405 0.0
H412 H 0.88273 0.20437 0.80331 0.0
H413 H 0.89709 0.1861 0.79397 0.0
H414 H 0.87421 0.18084 0.80298 0.0
H415 H 0.91922 0.16995 0.83928 0.0
H416 H 0.90081 0.15579 0.82907 0.0
H417 H 0.91755 0.16696 0.81407 0.0
H418 H 0.85823 0.1231 0.80171 0.0
C419 C 0.8643 0.14765 0.8191 0.0
C420 C 0.85202 0.83032 0.90279 0.0
C421 C 0.83606 0.83624 0.91212 0.0
C422 C 0.82558 0.85153 0.90455 0.0
C423 C 0.84745 0.85491 0.87911 0.0
C424 C 0.85745 0.83978 0.88656 0.0
C425 C 0.87414 0.83491 0.87533 0.0
H426 H 0.92841 0.85 0.801 0.0
C427 C 0.85712 0.8614 0.86198 0.0
C428 C 0.87275 0.84964 0.85988 0.0
H429 H 0.93375 0.80693 0.84412 0.0
H430 H 0.90708 0.81944 0.85952 0.0
H431 H 0.91915 0.88429 0.829 0.0
H432 H 0.88287 0.84659 0.79563 0.0
H433 H 0.87367 0.86947 0.79335 0.0
H434 H 0.89697 0.86481 0.78532 0.0
H435 H 0.91616 0.88649 0.80381 0.0
H436 H 0.90035 0.89776 0.81955 0.0
C437 C 0.89224 0.83773 0.88828 0.0
C438 C 0.87102 0.81453 0.86745 0.0
C439 C 0.8319 0.91649 0.82211 0.0
C440 C 0.83798 0.92518 0.80547 0.0
C441 C 0.85464 0.91876 0.79753 0.0
C442 C 0.8648 0.9037 0.80568 0.0
C443 C 0.85832 0.8949 0.82204 0.0
C444 C 0.8422 0.90141 0.8301 0.0
C445 C 0.83755 0.8904 0.84759 0.0
C446 C 0.85346 0.87613 0.84862 0.0
C447 C 0.86554 0.87885 0.83353 0.0
C448 C 0.83859 0.9041 0.86466 0.0
C449 C 0.818 0.8807 0.84406 0.0
C450 C 0.9237 0.84322 0.81369 0.0
C451 C 0.93314 0.82737 0.82131 0.0
C452 C 0.92681 0.81921 0.83805 0.0
C453 C 0.9112 0.82645 0.84692 0.0
C454 C 0.90168 0.84205 0.839 0.0
C455 C 0.90798 0.85026 0.82272 0.0
C456 C 0.89591 0.86667 0.81637 0.0
C457 C 0.88128 0.86681 0.8315 0.0
C458 C 0.8848 0.85236 0.84464 0.0
C459 C 0.90844 0.88481 0.81703 0.0
C460 C 0.88691 0.86184 0.79659 0.0
H461 H 0.82277 0.87253 0.88309 0.0
H462 H 0.86009 0.8183 0.90788 0.0
H463 H 0.85571 0.81128 0.86475 0.0
H464 H 0.87731 0.81241 0.8536 0.0
H465 H 0.87671 0.80382 0.87756 0.0
H466 H 0.89058 0.84962 0.89838 0.0
H467 H 0.89536 0.82483 0.89672 0.0
H468 H 0.90481 0.8417 0.8804 0.0
H469 H 0.81939 0.92136 0.82883 0.0
H470 H 0.85963 0.92519 0.78477 0.0
H471 H 0.87725 0.8994 0.79883 0.0
H472 H 0.85091 0.91395 0.8638 0.0
H473 H 0.82563 0.91275 0.86503 0.0
H474 H 0.84066 0.89676 0.8783 0.0
H475 H 0.81656 0.87491 0.82944 0.0
H476 H 0.81578 0.8685 0.85343 0.0
H477 H 0.80641 0.89092 0.8458 0.0
H478 H 0.81312 0.85628 0.91143 0.0
C479 C 0.83122 0.86094 0.88813 0.0
C480 C 0.22441 0.64779 0.72337 0.0
C481 C 0.23829 0.63505 0.71827 0.0
C482 C 0.24791 0.63835 0.70149 0.0
C483 C 0.22887 0.66609 0.69487 0.0
C484 C 0.21975 0.66287 0.71144 0.0
C485 C 0.20378 0.67615 0.71405 0.0
H486 H 0.13928 0.73443 0.67586 0.0
C487 C 0.21933 0.68204 0.68497 0.0
C488 C 0.20449 0.68773 0.69609 0.0
H489 H 0.14382 0.7119 0.73259 0.0
H490 H 0.17446 0.69986 0.72684 0.0
H491 H 0.15871 0.70079 0.6523 0.0
H492 H 0.18367 0.75034 0.67945 0.0
H493 H 0.1966 0.74567 0.65941 0.0
H494 H 0.17188 0.75156 0.65656 0.0
H495 H 0.15355 0.72459 0.64505 0.0
H496 H 0.17386 0.71262 0.6368 0.0
C497 C 0.18537 0.66403 0.71483 0.0
C498 C 0.2085 0.68829 0.732 0.0
C499 C 0.24366 0.70799 0.6234 0.0
C500 C 0.23703 0.72208 0.61086 0.0
C501 C 0.2196 0.73069 0.61409 0.0
C502 C 0.20924 0.72586 0.62987 0.0
C503 C 0.21627 0.71215 0.64257 0.0
C504 C 0.23306 0.70321 0.63907 0.0
C505 C 0.23786 0.68836 0.6537 0.0
C506 C 0.22209 0.69103 0.66732 0.0
C507 C 0.20934 0.70487 0.66063 0.0
C508 C 0.23666 0.6687 0.64394 0.0
C509 C 0.25747 0.69316 0.66307 0.0
C510 C 0.14696 0.72683 0.68694 0.0
C511 C 0.13866 0.72303 0.70433 0.0
C512 C 0.14946 0.71404 0.71876 0.0
C513 C 0.16732 0.70712 0.71544 0.0
C514 C 0.17464 0.7092 0.69749 0.0
C515 C 0.16516 0.71988 0.68391 0.0
C516 C 0.17677 0.7224 0.66661 0.0
C517 C 0.19373 0.70993 0.67157 0.0
C518 C 0.19196 0.70196 0.68951 0.0
C519 C 0.16516 0.71481 0.64915 0.0
C520 C 0.18249 0.74357 0.66523 0.0
H521 H 0.25103 0.65561 0.67719 0.0
H522 H 0.21684 0.64573 0.7362 0.0
H523 H 0.22392 0.68853 0.73584 0.0
H524 H 0.20487 0.70337 0.72989 0.0
H525 H 0.20113 0.68275 0.7444 0.0
H526 H 0.18513 0.65265 0.70392 0.0
H527 H 0.18432 0.65715 0.72884 0.0
H528 H 0.17234 0.67199 0.71188 0.0
H529 H 0.25679 0.70084 0.62102 0.0
H530 H 0.2142 0.74153 0.60459 0.0
H531 H 0.19615 0.733 0.63163 0.0
H532 H 0.22665 0.66872 0.63138 0.0
H533 H 0.25067 0.66438 0.63906 0.0
H534 H 0.23108 0.65756 0.6532 0.0
H535 H 0.25837 0.70838 0.66707 0.0
H536 H 0.26041 0.68514 0.6762 0.0
H537 H 0.26891 0.6903 0.65324 0.0
H538 H 0.25849 0.62856 0.69703 0.0
C539 C 0.24338 0.65389 0.68985 0.0
C540 C 0.85372 0.64647 0.7039 0.0
C541 C 0.83709 0.63554 0.70066 0.0
C542 C 0.82452 0.64049 0.68553 0.0
C543 C 0.84519 0.66659 0.67705 0.0
C544 C 0.8574 0.66193 0.69206 0.0
C545 C 0.87413 0.67534 0.69383 0.0
H546 H 0.91936 0.75497 0.66467 0.0
C547 C 0.85303 0.68351 0.66758 0.0
C548 C 0.86995 0.68882 0.67749 0.0
H549 H 0.93684 0.71706 0.70961 0.0
H550 H 0.9095 0.69692 0.70265 0.0
H551 H 0.87436 0.75396 0.67185 0.0
H552 H 0.90862 0.72175 0.63509 0.0
H553 H 0.88718 0.72591 0.62254 0.0
H554 H 0.90213 0.7457 0.62994 0.0
H555 H 0.88483 0.76392 0.65142 0.0
H556 H 0.8621 0.75209 0.64978 0.0
C557 C 0.87363 0.68545 0.71322 0.0
C558 C 0.89231 0.66389 0.691 0.0
C559 C 0.81897 0.71061 0.60866 0.0
C560 C 0.82247 0.72667 0.59756 0.0
C561 C 0.83839 0.73821 0.60228 0.0
C562 C 0.85055 0.73401 0.6178 0.0
C563 C 0.84686 0.71806 0.62891 0.0
C564 C 0.83124 0.70668 0.62435 0.0
C565 C 0.82928 0.69073 0.63828 0.0
C566 C 0.84654 0.69413 0.65154 0.0
C567 C 0.85679 0.71018 0.64595 0.0
C568 C 0.81054 0.69332 0.64846 0.0
C569 C 0.83052 0.67182 0.6274 0.0
C570 C 0.91719 0.74234 0.67297 0.0
C571 C 0.93015 0.73758 0.68776 0.0
C572 C 0.92701 0.72094 0.69816 0.0
C573 C 0.9111 0.70931 0.69412 0.0
C574 C 0.89813 0.71424 0.67939 0.0
C575 C 0.90144 0.73037 0.66891 0.0
C576 C 0.88663 0.73283 0.6532 0.0
C577 C 0.8737 0.71581 0.65623 0.0
C578 C 0.88039 0.70506 0.67174 0.0
C579 C 0.87644 0.75172 0.65653 0.0
C580 C 0.89652 0.73164 0.63413 0.0
H581 H 0.81843 0.65871 0.66235 0.0
H582 H 0.86353 0.64321 0.71557 0.0
H583 H 0.88959 0.65225 0.68059 0.0
H584 H 0.90375 0.67249 0.68506 0.0
H585 H 0.89758 0.65742 0.70447 0.0
H586 H 0.85888 0.6892 0.7164 0.0
H587 H 0.87918 0.6762 0.72478 0.0
H588 H 0.8816 0.69897 0.71375 0.0
H589 H 0.80676 0.70158 0.60546 0.0
H590 H 0.84144 0.75056 0.59384 0.0
H591 H 0.86234 0.74344 0.62058 0.0
H592 H 0.80688 0.70854 0.64951 0.0
H593 H 0.79857 0.68595 0.64076 0.0
H594 H 0.81142 0.68836 0.66326 0.0
H595 H 0.84205 0.67251 0.61723 0.0
H596 H 0.8339 0.65972 0.63669 0.0
H597 H 0.81709 0.66864 0.61923 0.0
H598 H 0.81167 0.63228 0.68271 0.0
C599 C 0.82851 0.65583 0.67369 0.0
C600 C 0.90499 0.36096 0.73673 0.0
C601 C 0.91658 0.34529 0.73364 0.0
C602 C 0.9125 0.33377 0.71765 0.0
C603 C 0.88536 0.35292 0.70866 0.0
C604 C 0.88949 0.36446 0.72412 0.0
C605 C 0.87553 0.38031 0.72536 0.0
H606 H 0.80013 0.42812 0.68788 0.0
C607 C 0.86831 0.36032 0.69837 0.0
C608 C 0.86248 0.37643 0.70804 0.0
H609 H 0.83269 0.43958 0.73974 0.0
H610 H 0.85182 0.41225 0.7346 0.0
H611 H 0.79742 0.38189 0.69546 0.0
H612 H 0.83561 0.41471 0.66205 0.0
H613 H 0.82687 0.39493 0.64899 0.0
H614 H 0.81072 0.4128 0.65608 0.0
H615 H 0.78954 0.39347 0.67404 0.0
H616 H 0.80017 0.37045 0.67369 0.0
C617 C 0.86506 0.37804 0.74401 0.0
C618 C 0.88654 0.39926 0.72364 0.0
C619 C 0.84224 0.32551 0.63974 0.0
C620 C 0.82708 0.32867 0.62664 0.0
C621 C 0.8157 0.34467 0.62927 0.0
C622 C 0.81947 0.35729 0.64447 0.0
C623 C 0.83475 0.35393 0.65738 0.0
C624 C 0.84584 0.33824 0.65477 0.0
C625 C 0.86163 0.33684 0.66956 0.0
C626 C 0.85809 0.35404 0.68173 0.0
C627 C 0.84231 0.36412 0.67463 0.0
C628 C 0.85888 0.31813 0.68054 0.0
C629 C 0.88065 0.33852 0.65956 0.0
C630 C 0.81141 0.42466 0.69805 0.0
C631 C 0.81491 0.43602 0.71428 0.0
C632 C 0.82962 0.43098 0.72727 0.0
C633 C 0.84079 0.41514 0.72419 0.0
C634 C 0.83727 0.40394 0.70795 0.0
C635 C 0.82259 0.40855 0.69532 0.0
C636 C 0.82045 0.39426 0.67939 0.0
C637 C 0.83652 0.38071 0.68432 0.0
C638 C 0.84643 0.38664 0.70103 0.0
C639 C 0.80084 0.3845 0.6805 0.0
C640 C 0.82344 0.40462 0.66054 0.0
H641 H 0.89471 0.328 0.69347 0.0
H642 H 0.90774 0.37012 0.74885 0.0
H643 H 0.89725 0.39821 0.71265 0.0
H644 H 0.87747 0.41114 0.71915 0.0
H645 H 0.89413 0.40306 0.73721 0.0
H646 H 0.86389 0.36289 0.74812 0.0
H647 H 0.87264 0.38568 0.75585 0.0
H648 H 0.85028 0.3829 0.74278 0.0
H649 H 0.85106 0.31321 0.6385 0.0
H650 H 0.80397 0.34754 0.61942 0.0
H651 H 0.81037 0.36923 0.64557 0.0
H652 H 0.84362 0.3153 0.68267 0.0
H653 H 0.86443 0.30592 0.6727 0.0
H654 H 0.86558 0.31845 0.69491 0.0
H655 H 0.87924 0.34753 0.64672 0.0
H656 H 0.89192 0.34554 0.66844 0.0
H657 H 0.8856 0.32444 0.65505 0.0
H658 H 0.92143 0.32191 0.71463 0.0
C659 C 0.89701 0.33743 0.70525 0.0
C660 C 0.22979 0.41374 0.71116 0.0
C661 C 0.22684 0.42521 0.72691 0.0
C662 C 0.21065 0.42184 0.73744 0.0
C663 C 0.20112 0.39549 0.71676 0.0
C664 C 0.21686 0.39917 0.70635 0.0
C665 C 0.21813 0.38609 0.68979 0.0
H666 H 0.1817 0.31475 0.63569 0.0
C667 C 0.19061 0.37919 0.70772 0.0
C668 C 0.20061 0.37387 0.69184 0.0
H669 H 0.23347 0.34667 0.62885 0.0
H670 H 0.22776 0.3649 0.65669 0.0
H671 H 0.18868 0.30874 0.67949 0.0
H672 H 0.15624 0.34931 0.64744 0.0
H673 H 0.1427 0.34307 0.66671 0.0
H674 H 0.14882 0.32511 0.64997 0.0
H675 H 0.16584 0.30308 0.66889 0.0
H676 H 0.16861 0.31277 0.69248 0.0
C677 C 0.23653 0.37454 0.69255 0.0
C678 C 0.21692 0.39818 0.67152 0.0
C679 C 0.13073 0.35065 0.73533 0.0
C680 C 0.11841 0.3357 0.7292 0.0
C681 C 0.12224 0.32603 0.71243 0.0
C682 C 0.13785 0.33096 0.70197 0.0
C683 C 0.14995 0.34583 0.70819 0.0
C684 C 0.14633 0.35554 0.72455 0.0
C685 C 0.16072 0.37127 0.72852 0.0
C686 C 0.17377 0.36899 0.71211 0.0
C687 C 0.16722 0.35401 0.70031 0.0
C688 C 0.17104 0.36741 0.74777 0.0
C689 C 0.1503 0.39034 0.72766 0.0
C690 C 0.19178 0.32568 0.64022 0.0
C691 C 0.20781 0.32959 0.6298 0.0
C692 C 0.22069 0.34379 0.63629 0.0
C693 C 0.21744 0.35426 0.65259 0.0
C694 C 0.20119 0.35042 0.66271 0.0
C695 C 0.1888 0.33621 0.65658 0.0
C696 C 0.17264 0.33372 0.66946 0.0
C697 C 0.17725 0.34896 0.68417 0.0
C698 C 0.1939 0.35873 0.68008 0.0
C699 C 0.17378 0.31353 0.678 0.0
C700 C 0.15404 0.33785 0.65791 0.0
H701 H 0.18591 0.40496 0.74118 0.0
H702 H 0.24189 0.41617 0.70259 0.0
H703 H 0.20723 0.41029 0.6731 0.0
H704 H 0.21099 0.3903 0.65911 0.0
H705 H 0.23101 0.40407 0.66819 0.0
H706 H 0.24003 0.37203 0.70781 0.0
H707 H 0.24877 0.38212 0.68662 0.0
H708 H 0.23531 0.36023 0.68627 0.0
H709 H 0.1284 0.35825 0.74829 0.0
H710 H 0.11295 0.3147 0.70721 0.0
H711 H 0.13981 0.32297 0.68934 0.0
H712 H 0.17515 0.3523 0.74881 0.0
H713 H 0.16176 0.37052 0.75961 0.0
H714 H 0.18426 0.37572 0.74985 0.0
H715 H 0.13942 0.39034 0.71583 0.0
H716 H 0.15978 0.40243 0.72491 0.0
H717 H 0.14302 0.39301 0.74098 0.0
H718 H 0.20808 0.43054 0.74965 0.0
C719 C 0.19784 0.40698 0.73252 0.0
C720 C 0.23316 0.34152 0.41945 0.0
C721 C 0.22939 0.32672 0.43211 0.0
C722 C 0.21308 0.31536 0.42868 0.0
C723 C 0.20465 0.33334 0.40048 0.0
C724 C 0.22057 0.34462 0.40383 0.0
C725 C 0.22203 0.36002 0.38921 0.0
H726 H 0.1888 0.39976 0.30725 0.0
C727 C 0.19441 0.34027 0.38319 0.0
C728 C 0.20449 0.35599 0.37651 0.0
H729 H 0.23638 0.41829 0.34342 0.0
H730 H 0.23018 0.39307 0.36518 0.0
H731 H 0.16132 0.39528 0.34103 0.0
H732 H 0.19386 0.35397 0.31227 0.0
H733 H 0.17058 0.34521 0.3143 0.0
H734 H 0.1745 0.36657 0.30122 0.0
H735 H 0.15346 0.38567 0.31854 0.0
H736 H 0.14791 0.37422 0.34045 0.0
C737 C 0.22097 0.37941 0.39934 0.0
C738 C 0.24047 0.35705 0.37869 0.0
C739 C 0.13416 0.30622 0.35874 0.0
C740 C 0.1212 0.30973 0.34357 0.0
C741 C 0.12457 0.32517 0.33155 0.0
C742 C 0.1406 0.3369 0.33452 0.0
C743 C 0.15342 0.33332 0.34978 0.0
C744 C 0.14999 0.31829 0.36169 0.0
C745 C 0.16473 0.3171 0.37763 0.0
C746 C 0.17761 0.33379 0.37327 0.0
C747 C 0.17104 0.34314 0.35681 0.0
C748 C 0.1548 0.31986 0.39651 0.0
C749 C 0.17495 0.29798 0.37587 0.0
C750 C 0.19774 0.39869 0.31998 0.0
C751 C 0.21319 0.41126 0.32341 0.0
C752 C 0.22458 0.40877 0.3401 0.0
C753 C 0.22089 0.39413 0.35286 0.0
C754 C 0.20546 0.38176 0.34918 0.0
C755 C 0.194 0.38435 0.3331 0.0
C756 C 0.17757 0.37053 0.33208 0.0
C757 C 0.18136 0.35893 0.34989 0.0
C758 C 0.19788 0.36543 0.35977 0.0
C759 C 0.15903 0.38188 0.33293 0.0
C760 C 0.17902 0.35842 0.31399 0.0
H761 H 0.18869 0.30929 0.41124 0.0
H762 H 0.24543 0.35067 0.42184 0.0
H763 H 0.24226 0.34181 0.37534 0.0
H764 H 0.24058 0.36441 0.365 0.0
H765 H 0.25301 0.36179 0.38752 0.0
H766 H 0.21197 0.37847 0.4118 0.0
H767 H 0.23522 0.38447 0.40443 0.0
H768 H 0.21428 0.39038 0.39029 0.0
H769 H 0.13186 0.29451 0.36825 0.0
H770 H 0.11488 0.32801 0.31967 0.0
H771 H 0.14242 0.34831 0.32476 0.0
H772 H 0.14246 0.32937 0.39466 0.0
H773 H 0.14953 0.30616 0.40202 0.0
H774 H 0.16402 0.32684 0.40751 0.0
H775 H 0.17727 0.29463 0.36079 0.0
H776 H 0.18918 0.29804 0.38288 0.0
H777 H 0.16644 0.28623 0.3817 0.0
H778 H 0.20991 0.30382 0.43814 0.0
C779 C 0.20078 0.31853 0.41299 0.0
C780 C 0.23238 0.62262 0.32468 0.0
C781 C 0.22802 0.61231 0.30796 0.0
C782 C 0.21232 0.61804 0.29643 0.0
C783 C 0.20638 0.64429 0.31771 0.0
C784 C 0.22151 0.63841 0.32923 0.0
C785 C 0.22442 0.65071 0.34653 0.0
H786 H 0.20061 0.72864 0.39608 0.0
C787 C 0.19836 0.6616 0.32631 0.0
C788 C 0.20911 0.66535 0.34324 0.0
H789 H 0.24191 0.68694 0.41295 0.0
H790 H 0.23499 0.66939 0.3838 0.0
H791 H 0.17008 0.70014 0.38433 0.0
H792 H 0.21026 0.73109 0.35286 0.0
H793 H 0.18969 0.7304 0.33815 0.0
H794 H 0.18916 0.74141 0.36117 0.0
H795 H 0.16633 0.72416 0.37724 0.0
H796 H 0.15804 0.70447 0.36272 0.0
C797 C 0.22091 0.63845 0.36417 0.0
C798 C 0.24447 0.65968 0.34637 0.0
C799 C 0.14067 0.69662 0.29643 0.0
C800 C 0.13134 0.71318 0.30222 0.0
C801 C 0.13898 0.72335 0.31789 0.0
C802 C 0.15492 0.7171 0.32812 0.0
C803 C 0.16365 0.70031 0.32286 0.0
C804 C 0.1569 0.69043 0.30707 0.0
C805 C 0.1689 0.67313 0.30372 0.0
C806 C 0.1833 0.67405 0.32056 0.0
C807 C 0.17987 0.69008 0.33159 0.0
C808 C 0.15611 0.65531 0.3044 0.0
C809 C 0.17847 0.67577 0.28471 0.0
C810 C 0.20834 0.71585 0.39338 0.0
C811 C 0.22189 0.70924 0.40668 0.0
C812 C 0.23136 0.69229 0.40286 0.0
C813 C 0.2273 0.68215 0.38595 0.0
C814 C 0.21344 0.68889 0.37283 0.0
C815 C 0.20422 0.70544 0.37686 0.0
C816 C 0.18914 0.71012 0.36222 0.0
C817 C 0.19076 0.69376 0.34852 0.0
C818 C 0.20514 0.68142 0.35453 0.0
C819 C 0.16987 0.70988 0.37199 0.0
C820 C 0.19463 0.72929 0.35314 0.0
H821 H 0.1899 0.63754 0.29175 0.0
H822 H 0.24398 0.6184 0.33415 0.0
H823 H 0.24745 0.66493 0.33199 0.0
H824 H 0.24626 0.67206 0.35582 0.0
H825 H 0.25542 0.64916 0.35046 0.0
H826 H 0.20982 0.62744 0.361 0.0
H827 H 0.23398 0.63109 0.3691 0.0
H828 H 0.21549 0.64671 0.37598 0.0
H829 H 0.13525 0.68856 0.28432 0.0
H830 H 0.13245 0.73629 0.3224 0.0
H831 H 0.15962 0.72562 0.33995 0.0
H832 H 0.14689 0.65601 0.31669 0.0
H833 H 0.14685 0.65407 0.29137 0.0
H834 H 0.16423 0.64218 0.30614 0.0
H835 H 0.184 0.69049 0.28341 0.0
H836 H 0.19076 0.66656 0.28328 0.0
H837 H 0.16822 0.67307 0.27264 0.0
H838 H 0.20854 0.6104 0.28351 0.0
C839 C 0.20156 0.63392 0.30116 0.0
C840 C 0.83324 0.6306 0.30946 0.0
C841 C 0.83828 0.62157 0.29271 0.0
C842 C 0.8532 0.62912 0.2825 0.0
C843 C 0.85776 0.65443 0.30549 0.0
C844 C 0.84305 0.64708 0.31549 0.0
C845 C 0.83921 0.65894 0.3326 0.0
H846 H 0.85852 0.7377 0.38564 0.0
C847 C 0.86498 0.67166 0.31539 0.0
C848 C 0.85415 0.67453 0.33125 0.0
H849 H 0.81643 0.69405 0.39424 0.0
H850 H 0.82676 0.67697 0.36721 0.0
H851 H 0.85386 0.73931 0.33951 0.0
H852 H 0.89222 0.70763 0.3761 0.0
H853 H 0.90479 0.71694 0.35729 0.0
H854 H 0.89429 0.73285 0.37367 0.0
H855 H 0.87205 0.75055 0.35422 0.0
H856 H 0.87695 0.74127 0.33129 0.0
C857 C 0.8189 0.6667 0.33005 0.0
C858 C 0.84261 0.64661 0.35045 0.0
C859 C 0.92039 0.70717 0.28861 0.0
C860 C 0.93035 0.72375 0.29393 0.0
C861 C 0.92513 0.73353 0.3103 0.0
C862 C 0.91005 0.72704 0.32097 0.0
C863 C 0.90006 0.71052 0.31529 0.0
C864 C 0.90539 0.7009 0.29937 0.0
C865 C 0.89326 0.68372 0.29526 0.0
C866 C 0.87988 0.68442 0.31138 0.0
C867 C 0.88379 0.70015 0.32316 0.0
C868 C 0.88279 0.68653 0.27576 0.0
C869 C 0.90614 0.66614 0.29654 0.0
C870 C 0.85158 0.72444 0.3817 0.0
C871 C 0.83624 0.71753 0.39188 0.0
C872 C 0.8278 0.70008 0.38634 0.0
C873 C 0.83392 0.69007 0.37067 0.0
C874 C 0.84881 0.6974 0.36031 0.0
C875 C 0.8576 0.71418 0.36601 0.0
C876 C 0.87359 0.71945 0.35348 0.0
C877 C 0.87262 0.70332 0.33914 0.0
C878 C 0.85799 0.69047 0.34322 0.0
C879 C 0.86906 0.73871 0.34415 0.0
C880 C 0.89227 0.71938 0.36567 0.0
H881 H 0.87424 0.65038 0.28038 0.0
H882 H 0.82174 0.6251 0.31753 0.0
H883 H 0.85447 0.63669 0.34858 0.0
H884 H 0.84689 0.65501 0.36313 0.0
H885 H 0.82984 0.638 0.35342 0.0
H886 H 0.81566 0.67055 0.31504 0.0
H887 H 0.80824 0.65596 0.33413 0.0
H888 H 0.8168 0.67983 0.3381 0.0
H889 H 0.92399 0.69937 0.2761 0.0
H890 H 0.93282 0.74617 0.31494 0.0
H891 H 0.90674 0.73514 0.33319 0.0
H892 H 0.88042 0.70178 0.27275 0.0
H893 H 0.89103 0.68075 0.26412 0.0
H894 H 0.86845 0.68011 0.27504 0.0
H895 H 0.91723 0.66788 0.30806 0.0
H896 H 0.89846 0.65302 0.3001 0.0
H897 H 0.91341 0.66393 0.28314 0.0
H898 H 0.85744 0.62223 0.2697 0.0
C899 C 0.86298 0.64543 0.2888 0.0
C900 C 0.83768 0.31411 0.4222 0.0
C901 C 0.82122 0.31964 0.4313 0.0
C902 C 0.81217 0.33637 0.42549 0.0
C903 C 0.83549 0.34175 0.40199 0.0
C904 C 0.84455 0.32538 0.40755 0.0
C905 C 0.86202 0.32212 0.3964 0.0
H906 H 0.9184 0.35226 0.32598 0.0
C907 C 0.84623 0.35062 0.3869 0.0
C908 C 0.86185 0.33929 0.38337 0.0
H909 H 0.92626 0.30298 0.36111 0.0
H910 H 0.89808 0.31057 0.37792 0.0
H911 H 0.91017 0.37929 0.35906 0.0
H912 H 0.8719 0.34932 0.32031 0.0
H913 H 0.86446 0.37294 0.32195 0.0
H914 H 0.88746 0.36809 0.31337 0.0
H915 H 0.90506 0.38777 0.33556 0.0
H916 H 0.89068 0.39403 0.35502 0.0
C917 C 0.87946 0.32232 0.41032 0.0
C918 C 0.85918 0.30341 0.38526 0.0
C919 C 0.82267 0.41243 0.35942 0.0
C920 C 0.82967 0.42503 0.34605 0.0
C921 C 0.84641 0.4205 0.33702 0.0
C922 C 0.85605 0.40373 0.34137 0.0
C923 C 0.84892 0.39136 0.35495 0.0
C924 C 0.83257 0.39595 0.36377 0.0
C925 C 0.82729 0.38163 0.37825 0.0
C926 C 0.84314 0.36758 0.37667 0.0
C927 C 0.85566 0.37318 0.3629 0.0
C928 C 0.82786 0.39165 0.39784 0.0
C929 C 0.80781 0.37286 0.37191 0.0
C930 C 0.9139 0.34303 0.33717 0.0
C931 C 0.92435 0.32694 0.34215 0.0
C932 C 0.91833 0.31544 0.35705 0.0
C933 C 0.902 0.31986 0.36675 0.0
C934 C 0.89169 0.3361 0.36165 0.0
C935 C 0.89786 0.34744 0.34716 0.0
C936 C 0.88594 0.36467 0.34421 0.0
C937 C 0.87129 0.36167 0.35894 0.0
C938 C 0.87452 0.34484 0.36914 0.0
C939 C 0.89851 0.38244 0.34853 0.0
C940 C 0.87698 0.36391 0.32388 0.0
H941 H 0.81146 0.35987 0.4073 0.0
H942 H 0.84505 0.30138 0.42644 0.0
H943 H 0.84468 0.30253 0.37858 0.0
H944 H 0.86889 0.30209 0.37359 0.0
H945 H 0.86104 0.29102 0.39476 0.0
H946 H 0.87815 0.33353 0.42123 0.0
H947 H 0.88091 0.30855 0.41773 0.0
H948 H 0.89275 0.32564 0.40338 0.0
H949 H 0.80959 0.41516 0.36625 0.0
H950 H 0.85208 0.42998 0.32663 0.0
H951 H 0.86867 0.40105 0.334 0.0
H952 H 0.83802 0.40381 0.39835 0.0
H953 H 0.81377 0.39721 0.4011 0.0
H954 H 0.83292 0.38236 0.40949 0.0
H955 H 0.80638 0.37165 0.35623 0.0
H956 H 0.80578 0.35826 0.37703 0.0
H957 H 0.79603 0.38172 0.37657 0.0
H958 H 0.79991 0.34131 0.43258 0.0
C959 C 0.8191 0.34732 0.41089 0.0
C960 C 0.70506 0.22008 0.62472 0.0
C961 C 0.72013 0.21531 0.61346 0.0
C962 C 0.73112 0.19942 0.61824 0.0
C963 C 0.71228 0.19339 0.64542 0.0
C964 C 0.70147 0.20901 0.64068 0.0
C965 C 0.68659 0.21251 0.65479 0.0
H966 H 0.64506 0.18806 0.73598 0.0
C967 C 0.70522 0.18519 0.66305 0.0
C968 C 0.69018 0.19641 0.66866 0.0
H969 H 0.63203 0.23525 0.69925 0.0
H970 H 0.65609 0.2256 0.67821 0.0
H971 H 0.65038 0.15706 0.70208 0.0
H972 H 0.68908 0.19255 0.7351 0.0
H973 H 0.70053 0.171 0.73195 0.0
H974 H 0.67889 0.1714 0.74452 0.0
H975 H 0.65605 0.15302 0.72667 0.0
H976 H 0.67019 0.14338 0.70848 0.0
C977 C 0.66696 0.21058 0.64439 0.0
C978 C 0.69064 0.23213 0.66404 0.0
C979 C 0.73644 0.12678 0.69248 0.0
C980 C 0.73339 0.1168 0.70927 0.0
C981 C 0.71864 0.12243 0.7207 0.0
C982 C 0.70722 0.1378 0.71571 0.0
C983 C 0.71058 0.1479 0.69911 0.0
C984 C 0.72495 0.14235 0.68776 0.0
C985 C 0.72668 0.15524 0.67096 0.0
C986 C 0.71096 0.16929 0.6741 0.0
C987 C 0.70157 0.16485 0.69062 0.0
C988 C 0.72274 0.14332 0.65283 0.0
C989 C 0.74651 0.16485 0.67235 0.0
C990 C 0.64734 0.19619 0.72332 0.0
C991 C 0.63676 0.21252 0.71933 0.0
C992 C 0.6402 0.2228 0.70277 0.0
C993 C 0.65415 0.21712 0.69054 0.0
C994 C 0.6649 0.201 0.69489 0.0
C995 C 0.66136 0.19079 0.71102 0.0
C996 C 0.67443 0.17427 0.71357 0.0
C997 C 0.68639 0.17624 0.69634 0.0
C998 C 0.68071 0.1919 0.68542 0.0
C999 C 0.66226 0.15589 0.71282 0.0
C1000 C 0.68633 0.17724 0.73229 0.0
H1001 H 0.73615 0.1765 0.63695 0.0
H1002 H 0.69653 0.23234 0.62139 0.0
H1003 H 0.70611 0.23517 0.66534 0.0
H1004 H 0.68587 0.23303 0.67865 0.0
H1005 H 0.68402 0.24361 0.65549 0.0
H1006 H 0.66681 0.19874 0.63399 0.0
H1007 H 0.66332 0.22371 0.63653 0.0
H1008 H 0.65552 0.20712 0.65395 0.0
H1009 H 0.74778 0.12287 0.68352 0.0
H1010 H 0.71596 0.11487 0.73363 0.0
H1011 H 0.69632 0.14133 0.7251 0.0
H1012 H 0.71083 0.13316 0.65474 0.0
H1013 H 0.73534 0.13501 0.64933 0.0
H1014 H 0.71834 0.15193 0.64046 0.0
H1015 H 0.7513 0.16722 0.68735 0.0
H1016 H 0.7467 0.17908 0.66594 0.0
H1017 H 0.75722 0.15596 0.6657 0.0
H1018 H 0.7428 0.19558 0.60968 0.0
C1019 C 0.72723 0.1884 0.63407 0.0
C1020 C 0.36076 0.16017 0.72798 0.0
C1021 C 0.34422 0.14993 0.72244 0.0
C1022 C 0.33357 0.156 0.70631 0.0
C1023 C 0.35589 0.18184 0.70155 0.0
C1024 C 0.36631 0.17594 0.71737 0.0
C1025 C 0.38359 0.18824 0.72131 0.0
H1026 H 0.43927 0.2629 0.69813 0.0
C1027 C 0.3655 0.1988 0.69382 0.0
C1028 C 0.38173 0.2026 0.70539 0.0
H1029 H 0.44785 0.22291 0.74359 0.0
H1030 H 0.41856 0.20689 0.73454 0.0
H1031 H 0.39338 0.26769 0.70296 0.0
H1032 H 0.42484 0.23173 0.66674 0.0
H1033 H 0.40587 0.24147 0.65333 0.0
H1034 H 0.42393 0.25692 0.66371 0.0
H1035 H 0.40582 0.27686 0.68333 0.0
H1036 H 0.38205 0.26747 0.68037 0.0
C1037 C 0.3818 0.1976 0.74095 0.0
C1038 C 0.4013 0.17577 0.71959 0.0
C1039 C 0.33717 0.23165 0.63545 0.0
C1040 C 0.34217 0.24798 0.62532 0.0
C1041 C 0.35872 0.25808 0.63126 0.0
C1042 C 0.36995 0.25207 0.64697 0.0
C1043 C 0.36461 0.23581 0.65701 0.0
C1044 C 0.34842 0.22592 0.65115 0.0
C1045 C 0.34454 0.20926 0.66369 0.0
C1046 C 0.36108 0.21067 0.67805 0.0
C1047 C 0.37288 0.22624 0.67407 0.0
C1048 C 0.32537 0.21241 0.6729 0.0
C1049 C 0.34527 0.19102 0.6516 0.0
C1050 C 0.43463 0.25081 0.70616 0.0
C1051 C 0.44576 0.24412 0.72163 0.0
C1052 C 0.43944 0.22825 0.73166 0.0
C1053 C 0.42245 0.21895 0.72633 0.0
C1054 C 0.41157 0.22545 0.71066 0.0
C1055 C 0.41763 0.24118 0.70087 0.0
C1056 C 0.40425 0.2457 0.68436 0.0
C1057 C 0.38935 0.23006 0.68583 0.0
C1058 C 0.39373 0.21829 0.70134 0.0
C1059 C 0.39595 0.26551 0.68773 0.0
C1060 C 0.4152 0.24403 0.66599 0.0
H1061 H 0.33053 0.17563 0.68377 0.0
H1062 H 0.36933 0.1559 0.74025 0.0
H1063 H 0.39875 0.1645 0.70875 0.0
H1064 H 0.4137 0.18377 0.71477 0.0
H1065 H 0.40513 0.16873 0.7332 0.0
H1066 H 0.36687 0.20142 0.74324 0.0
H1067 H 0.38641 0.18785 0.75248 0.0
H1068 H 0.38984 0.21104 0.74252 0.0
H1069 H 0.32462 0.22346 0.63129 0.0
H1070 H 0.36276 0.2709 0.62404 0.0
H1071 H 0.38228 0.26045 0.65082 0.0
H1072 H 0.32331 0.22768 0.67596 0.0
H1073 H 0.31336 0.20756 0.66341 0.0
H1074 H 0.32443 0.20534 0.68672 0.0
H1075 H 0.35675 0.19207 0.64138 0.0
H1076 H 0.34855 0.1783 0.66008 0.0
H1077 H 0.33174 0.18859 0.64336 0.0
H1078 H 0.32057 0.14867 0.70191 0.0
C1079 C 0.33931 0.17179 0.69586 0.0
C1080 C 0.40243 0.87167 0.7095 0.0
C1081 C 0.41078 0.85494 0.70308 0.0
C1082 C 0.4015 0.84495 0.68796 0.0
C1083 C 0.37618 0.86788 0.68634 0.0
C1084 C 0.38512 0.87766 0.70118 0.0
C1085 C 0.37388 0.89448 0.70711 0.0
H1086 H 0.29585 0.94914 0.69501 0.0
C1087 C 0.35832 0.87773 0.68103 0.0
C1088 C 0.35681 0.89325 0.69332 0.0
H1089 H 0.3414 0.95508 0.73724 0.0
H1090 H 0.35698 0.92798 0.72442 0.0
H1091 H 0.29097 0.90617 0.69899 0.0
H1092 H 0.32289 0.93786 0.65927 0.0
H1093 H 0.30977 0.92014 0.64681 0.0
H1094 H 0.29754 0.93783 0.65968 0.0
H1095 H 0.27986 0.91619 0.67815 0.0
H1096 H 0.2899 0.89282 0.67806 0.0
C1097 C 0.36831 0.89141 0.72782 0.0
C1098 C 0.38588 0.91258 0.70402 0.0
C1099 C 0.3163 0.85443 0.625 0.0
C1100 C 0.29855 0.86022 0.61735 0.0
C1101 C 0.28943 0.87526 0.62622 0.0
C1102 C 0.29803 0.8848 0.64176 0.0
C1103 C 0.31587 0.87911 0.64895 0.0
C1104 C 0.32457 0.86393 0.64082 0.0
C1105 C 0.34288 0.85907 0.6513 0.0
C1106 C 0.34398 0.87421 0.66664 0.0
C1107 C 0.32816 0.88601 0.66504 0.0
C1108 C 0.34081 0.83893 0.65965 0.0
C1109 C 0.35911 0.86124 0.63749 0.0
C1110 C 0.30926 0.94465 0.70133 0.0
C1111 C 0.31743 0.95419 0.71713 0.0
C1112 C 0.3348 0.94783 0.72513 0.0
C1113 C 0.34381 0.93209 0.71766 0.0
C1114 C 0.33534 0.92242 0.70206 0.0
C1115 C 0.31835 0.92875 0.69416 0.0
C1116 C 0.31111 0.91635 0.67806 0.0
C1117 C 0.3266 0.90167 0.67749 0.0
C1118 C 0.34083 0.9053 0.69153 0.0
C1119 C 0.29191 0.90746 0.6834 0.0
C1120 C 0.31011 0.92858 0.65994 0.0
H1121 H 0.37816 0.84306 0.66815 0.0
H1122 H 0.40921 0.88007 0.72072 0.0
H1123 H 0.39334 0.91163 0.69055 0.0
H1124 H 0.37731 0.92547 0.70274 0.0
H1125 H 0.39676 0.9146 0.71566 0.0
H1126 H 0.36581 0.87613 0.73073 0.0
H1127 H 0.37966 0.89654 0.73796 0.0
H1128 H 0.3549 0.89827 0.73104 0.0
H1129 H 0.32365 0.84277 0.6188 0.0
H1130 H 0.27542 0.87953 0.62137 0.0
H1131 H 0.29033 0.89617 0.64768 0.0
H1132 H 0.32588 0.83571 0.66292 0.0
H1133 H 0.34531 0.82797 0.64958 0.0
H1134 H 0.34882 0.83726 0.67328 0.0
H1135 H 0.35748 0.87448 0.62915 0.0
H1136 H 0.37319 0.86233 0.64475 0.0
H1137 H 0.35908 0.8492 0.62739 0.0
H1138 H 0.40735 0.83197 0.68274 0.0
C1139 C 0.3844 0.85134 0.67956 0.0
C1140 C 0.71197 0.91135 0.69147 0.0
C1141 C 0.70384 0.9187 0.70772 0.0
C1142 C 0.68726 0.9101 0.71415 0.0
C1143 C 0.68723 0.88717 0.68859 0.0
C1144 C 0.7034 0.89566 0.68213 0.0
C1145 C 0.70986 0.88619 0.66445 0.0
H1146 H 0.69767 0.81708 0.59783 0.0
C1147 C 0.68182 0.87124 0.67574 0.0
C1148 C 0.69495 0.8706 0.66148 0.0
H1149 H 0.74082 0.86088 0.60179 0.0
H1150 H 0.72745 0.87315 0.63002 0.0
H1151 H 0.69732 0.8078 0.64406 0.0
H1152 H 0.66319 0.84435 0.60803 0.0
H1153 H 0.64843 0.83255 0.62364 0.0
H1154 H 0.66098 0.81904 0.60669 0.0
H1155 H 0.68154 0.79883 0.62549 0.0
H1156 H 0.6732 0.80431 0.64849 0.0
C1157 C 0.72976 0.87806 0.66887 0.0
C1158 C 0.70902 0.90087 0.64823 0.0
C1159 C 0.62471 0.83072 0.69026 0.0
C1160 C 0.61567 0.81504 0.68144 0.0
C1161 C 0.62262 0.80815 0.66442 0.0
C1162 C 0.63875 0.81649 0.65666 0.0
C1163 C 0.64786 0.83203 0.66591 0.0
C1164 C 0.64058 0.83893 0.68233 0.0
C1165 C 0.65149 0.85574 0.69016 0.0
C1166 C 0.66675 0.85779 0.67593 0.0
C1167 C 0.66474 0.84384 0.66175 0.0
C1168 C 0.6598 0.85043 0.71004 0.0
C1169 C 0.63809 0.87295 0.68986 0.0
C1170 C 0.70425 0.82924 0.6049 0.0
C1171 C 0.72027 0.8381 0.59751 0.0
C1172 C 0.72835 0.85397 0.60704 0.0
C1173 C 0.7206 0.86103 0.62349 0.0
C1174 C 0.70448 0.85221 0.63061 0.0
C1175 C 0.69652 0.8366 0.62132 0.0
C1176 C 0.67911 0.82941 0.63075 0.0
C1177 C 0.67807 0.84314 0.64724 0.0
C1178 C 0.69305 0.85645 0.64711 0.0
C1179 C 0.68281 0.80895 0.63751 0.0
C1180 C 0.66195 0.83125 0.6166 0.0
H1181 H 0.66643 0.88853 0.7105 0.0
H1182 H 0.72454 0.91784 0.686 0.0
H1183 H 0.69704 0.91071 0.64978 0.0
H1184 H 0.70639 0.89432 0.63417 0.0
H1185 H 0.72223 0.90953 0.64816 0.0
H1186 H 0.73066 0.87186 0.68331 0.0
H1187 H 0.74084 0.88929 0.66826 0.0
H1188 H 0.73329 0.86638 0.65933 0.0
H1189 H 0.61944 0.83656 0.70314 0.0
H1190 H 0.61577 0.79614 0.65734 0.0
H1191 H 0.64356 0.81051 0.64381 0.0
H1192 H 0.66444 0.83545 0.71035 0.0
H1193 H 0.64911 0.85206 0.72094 0.0
H1194 H 0.67257 0.85876 0.71434 0.0
H1195 H 0.62715 0.87176 0.67813 0.0
H1196 H 0.64551 0.88648 0.68719 0.0
H1197 H 0.6306 0.87408 0.70326 0.0
H1198 H 0.6808 0.91543 0.72666 0.0
C1199 C 0.67897 0.89442 0.70475 0.0
C1200 C 0.701 0.8128 0.39753 0.0
C1201 C 0.69465 0.79541 0.40452 0.0
C1202 C 0.67764 0.78748 0.39673 0.0
C1203 C 0.67476 0.81358 0.37421 0.0
C1204 C 0.69111 0.82142 0.38246 0.0
C1205 C 0.69725 0.8392 0.37291 0.0
H1206 H 0.68811 0.90259 0.30234 0.0
C1207 C 0.66872 0.82599 0.35804 0.0
C1208 C 0.68201 0.84092 0.35736 0.0
H1209 H 0.7309 0.8999 0.34767 0.0
H1210 H 0.71532 0.87296 0.36072 0.0
H1211 H 0.65239 0.89349 0.32943 0.0
H1212 H 0.68491 0.85729 0.29448 0.0
H1213 H 0.66079 0.85141 0.2908 0.0
H1214 H 0.66906 0.87475 0.2848 0.0
H1215 H 0.64982 0.89383 0.3041 0.0
H1216 H 0.63673 0.87723 0.318 0.0
C1217 C 0.69656 0.85564 0.38742 0.0
C1218 C 0.71703 0.83575 0.36493 0.0
C1219 C 0.60954 0.81058 0.31659 0.0
C1220 C 0.60076 0.81946 0.30071 0.0
C1221 C 0.60919 0.83606 0.29371 0.0
C1222 C 0.62594 0.84364 0.30226 0.0
C1223 C 0.63449 0.83462 0.31808 0.0
C1224 C 0.62628 0.81834 0.325 0.0
C1225 C 0.63736 0.81066 0.34195 0.0
C1226 C 0.65338 0.82514 0.34426 0.0
C1227 C 0.65168 0.83914 0.33012 0.0
C1228 C 0.62453 0.81069 0.35906 0.0
C1229 C 0.64465 0.79087 0.33681 0.0
C1230 C 0.69398 0.89614 0.31511 0.0
C1231 C 0.711 0.90312 0.3238 0.0
C1232 C 0.71809 0.89451 0.34049 0.0
C1233 C 0.70894 0.87886 0.3481 0.0
C1234 C 0.69239 0.87153 0.33899 0.0
C1235 C 0.68496 0.88025 0.32293 0.0
C1236 C 0.66708 0.87035 0.31547 0.0
C1237 C 0.66535 0.85412 0.3295 0.0
C1238 C 0.68029 0.85498 0.34315 0.0
C1239 C 0.65056 0.88439 0.31662 0.0
C1240 C 0.67044 0.86312 0.29527 0.0
H1241 H 0.65496 0.78965 0.37597 0.0
H1242 H 0.71388 0.8194 0.40339 0.0
H1243 H 0.71874 0.82065 0.36094 0.0
H1244 H 0.71938 0.84361 0.35176 0.0
H1245 H 0.72854 0.83941 0.37553 0.0
H1246 H 0.68501 0.85333 0.39737 0.0
H1247 H 0.71003 0.85692 0.39599 0.0
H1248 H 0.69334 0.86942 0.38075 0.0
H1249 H 0.60353 0.79776 0.32231 0.0
H1250 H 0.60263 0.84341 0.28179 0.0
H1251 H 0.63155 0.85633 0.29625 0.0
H1252 H 0.61641 0.82404 0.35951 0.0
H1253 H 0.61421 0.79871 0.35818 0.0
H1254 H 0.63259 0.80998 0.37272 0.0
H1255 H 0.64964 0.79074 0.32213 0.0
H1256 H 0.65692 0.78654 0.34584 0.0
H1257 H 0.63327 0.77997 0.33769 0.0
H1258 H 0.67241 0.77411 0.40197 0.0
C1259 C 0.66765 0.79648 0.38157 0.0
C1260 C 0.7097 0.11041 0.32515 0.0
C1261 C 0.70166 0.10221 0.30847 0.0
C1262 C 0.68709 0.11179 0.29847 0.0
C1263 C 0.68801 0.13669 0.3223 0.0
C1264 C 0.7027 0.12756 0.33176 0.0
C1265 C 0.70961 0.13808 0.34932 0.0
H1266 H 0.7021 0.21202 0.40978 0.0
C1267 C 0.68367 0.15387 0.3333 0.0
C1268 C 0.69632 0.15482 0.34911 0.0
H1269 H 0.74292 0.16701 0.41189 0.0
H1270 H 0.72853 0.15332 0.38356 0.0
H1271 H 0.66584 0.18512 0.39746 0.0
H1272 H 0.7025 0.2186 0.36304 0.0
H1273 H 0.67862 0.22265 0.35623 0.0
H1274 H 0.68725 0.22904 0.37969 0.0
H1275 H 0.66526 0.21051 0.39744 0.0
H1276 H 0.65203 0.19666 0.37986 0.0
C1277 C 0.70671 0.12505 0.36654 0.0
C1278 C 0.73041 0.14435 0.34674 0.0
C1279 C 0.62892 0.19496 0.31067 0.0
C1280 C 0.62047 0.2111 0.31799 0.0
C1281 C 0.62786 0.21877 0.33524 0.0
C1282 C 0.64361 0.21067 0.34484 0.0
C1283 C 0.65199 0.19456 0.33725 0.0
C1284 C 0.64447 0.18693 0.32049 0.0
C1285 C 0.6546 0.16944 0.31474 0.0
C1286 C 0.66956 0.16784 0.33065 0.0
C1287 C 0.66816 0.18264 0.34384 0.0
C1288 C 0.64027 0.15264 0.3146 0.0
C1289 C 0.66347 0.17331 0.29548 0.0
C1290 C 0.70805 0.19933 0.404 0.0
C1291 C 0.7238 0.19065 0.41319 0.0
C1292 C 0.73077 0.17393 0.4053 0.0
C1293 C 0.72243 0.16602 0.38872 0.0
C1294 C 0.70679 0.1748 0.37971 0.0
C1295 C 0.69981 0.19119 0.38732 0.0
C1296 C 0.68294 0.19835 0.37572 0.0
C1297 C 0.68122 0.18376 0.3598 0.0
C1298 C 0.69524 0.16995 0.36233 0.0
C1299 C 0.66554 0.19781 0.3882 0.0
C1300 C 0.68791 0.21827 0.36829 0.0
H1301 H 0.6689 0.13539 0.29715 0.0
H1302 H 0.72124 0.1036 0.33291 0.0
H1303 H 0.73299 0.14727 0.33162 0.0
H1304 H 0.73419 0.15774 0.35413 0.0
H1305 H 0.7404 0.1332 0.35158 0.0
H1306 H 0.69315 0.11696 0.36478 0.0
H1307 H 0.71829 0.11464 0.36818 0.0
H1308 H 0.70567 0.13292 0.37992 0.0
H1309 H 0.62337 0.18852 0.29764 0.0
H1310 H 0.62158 0.23122 0.34116 0.0
H1311 H 0.64866 0.21726 0.35779 0.0
H1312 H 0.63008 0.15424 0.32601 0.0
H1313 H 0.63198 0.15178 0.30094 0.0
H1314 H 0.64701 0.13889 0.31745 0.0
H1315 H 0.66842 0.18828 0.29454 0.0
H1316 H 0.67621 0.16484 0.29333 0.0
H1317 H 0.65305 0.17069 0.28355 0.0
H1318 H 0.68076 0.1058 0.28556 0.0
C1319 C 0.68019 0.12893 0.3053 0.0
C1320 C 0.325 0.1171 0.34923 0.0
C1321 C 0.33177 0.10719 0.33387 0.0
C1322 C 0.34737 0.11479 0.3245 0.0
C1323 C 0.34928 0.14153 0.34642 0.0
C1324 C 0.3338 0.13398 0.35518 0.0
C1325 C 0.32769 0.14582 0.37123 0.0
H1326 H 0.3371 0.22302 0.42644 0.0
C1327 C 0.35468 0.1596 0.35634 0.0
C1328 C 0.34183 0.16198 0.37075 0.0
H1329 H 0.2969 0.17671 0.42958 0.0
H1330 H 0.31025 0.16175 0.40287 0.0
H1331 H 0.3347 0.22758 0.3822 0.0
H1332 H 0.37307 0.19637 0.41855 0.0
H1333 H 0.38657 0.20777 0.40162 0.0
H1334 H 0.37306 0.22173 0.41736 0.0
H1335 H 0.35421 0.23889 0.3949 0.0
H1336 H 0.35665 0.22883 0.37166 0.0
C1337 C 0.3072 0.15243 0.36642 0.0
C1338 C 0.33014 0.13397 0.38961 0.0
C1339 C 0.41238 0.19986 0.3391 0.0
C1340 C 0.41954 0.21743 0.34604 0.0
C1341 C 0.40966 0.22697 0.35991 0.0
C1342 C 0.39331 0.21909 0.3672 0.0
C1343 C 0.38653 0.20142 0.36056 0.0
C1344 C 0.39571 0.19221 0.34643 0.0
C1345 C 0.38545 0.17405 0.34049 0.0
C1346 C 0.36923 0.17355 0.35401 0.0
C1347 C 0.37015 0.18967 0.36579 0.0
C1348 C 0.37821 0.17614 0.31972 0.0
C1349 C 0.399 0.15734 0.34377 0.0
C1350 C 0.33118 0.20971 0.4212 0.0
C1351 C 0.31592 0.20098 0.43001 0.0
C1352 C 0.30872 0.18358 0.42304 0.0
C1353 C 0.31651 0.17495 0.40748 0.0
C1354 C 0.3318 0.18371 0.39879 0.0
C1355 C 0.33894 0.20076 0.40567 0.0
C1356 C 0.35551 0.20765 0.39481 0.0
C1357 C 0.35703 0.19191 0.38025 0.0
C1358 C 0.34307 0.17806 0.3827 0.0
C1359 C 0.35019 0.22679 0.38546 0.0
C1360 C 0.37303 0.20861 0.4087 0.0
H1361 H 0.3682 0.13688 0.32332 0.0
H1362 H 0.31276 0.11192 0.35644 0.0
H1363 H 0.3418 0.12365 0.38866 0.0
H1364 H 0.33423 0.14267 0.40216 0.0
H1365 H 0.31705 0.1258 0.39242 0.0
H1366 H 0.30483 0.15466 0.35095 0.0
H1367 H 0.29663 0.14177 0.37086 0.0
H1368 H 0.30402 0.16625 0.3728 0.0
H1369 H 0.41954 0.19237 0.32819 0.0
H1370 H 0.41488 0.24045 0.36544 0.0
H1371 H 0.38665 0.22705 0.37789 0.0
H1372 H 0.37233 0.19048 0.31721 0.0
H1373 H 0.38986 0.17415 0.30992 0.0
H1374 H 0.36659 0.16615 0.31583 0.0
H1375 H 0.40611 0.15832 0.35807 0.0
H1376 H 0.39161 0.14351 0.34311 0.0
H1377 H 0.41012 0.1574 0.33318 0.0
H1378 H 0.35277 0.10743 0.31248 0.0
C1379 C 0.35627 0.13186 0.33079 0.0
C1380 C 0.33529 0.81504 0.41367 0.0
C1381 C 0.32001 0.82204 0.42338 0.0
C1382 C 0.31095 0.83849 0.41641 0.0
C1383 C 0.33223 0.84018 0.39029 0.0
C1384 C 0.34105 0.82417 0.39735 0.0
C1385 C 0.3567 0.8178 0.38541 0.0
H1386 H 0.40848 0.82695 0.30843 0.0
C1387 C 0.34166 0.84575 0.37268 0.0
C1388 C 0.35596 0.83254 0.36992 0.0
H1389 H 0.41187 0.78422 0.35203 0.0
H1390 H 0.38724 0.79933 0.36839 0.0
H1391 H 0.40329 0.86265 0.33677 0.0
H1392 H 0.36294 0.82768 0.30501 0.0
H1393 H 0.35528 0.85116 0.30324 0.0
H1394 H 0.37767 0.84487 0.29394 0.0
H1395 H 0.40013 0.86415 0.31153 0.0
H1396 H 0.38571 0.8775 0.32703 0.0
C1397 C 0.37545 0.8191 0.39759 0.0
C1398 C 0.35148 0.79771 0.37774 0.0
C1399 C 0.32005 0.90294 0.33352 0.0
C1400 C 0.32598 0.91086 0.31641 0.0
C1401 C 0.34119 0.90243 0.30749 0.0
C1402 C 0.35026 0.88654 0.31534 0.0
C1403 C 0.34405 0.87873 0.33229 0.0
C1404 C 0.3292 0.88696 0.34117 0.0
C1405 C 0.32436 0.8765 0.35896 0.0
C1406 C 0.33877 0.86069 0.35933 0.0
C1407 C 0.35025 0.86209 0.34358 0.0
C1408 C 0.32752 0.89011 0.37594 0.0
C1409 C 0.30388 0.86875 0.35641 0.0
C1410 C 0.40375 0.8208 0.32143 0.0
C1411 C 0.41209 0.80427 0.32891 0.0
C1412 C 0.4058 0.79697 0.34604 0.0
C1413 C 0.39136 0.80575 0.35549 0.0
C1414 C 0.38295 0.82205 0.34776 0.0
C1415 C 0.38919 0.82941 0.33106 0.0
C1416 C 0.37839 0.84682 0.32508 0.0
C1417 C 0.36462 0.84856 0.34091 0.0
C1418 C 0.36742 0.83397 0.35406 0.0
C1419 C 0.39252 0.86374 0.32492 0.0
C1420 C 0.36808 0.84262 0.30575 0.0
H1421 H 0.30949 0.85997 0.39531 0.0
H1422 H 0.34266 0.80254 0.41864 0.0
H1423 H 0.33588 0.79574 0.37585 0.0
H1424 H 0.35679 0.79501 0.36356 0.0
H1425 H 0.35675 0.78657 0.3876 0.0
H1426 H 0.37526 0.83112 0.40775 0.0
H1427 H 0.37782 0.80599 0.40592 0.0
H1428 H 0.38793 0.82197 0.38914 0.0
H1429 H 0.30844 0.90903 0.34081 0.0
H1430 H 0.34581 0.90782 0.29413 0.0
H1431 H 0.36164 0.88078 0.30774 0.0
H1432 H 0.34087 0.8984 0.37467 0.0
H1433 H 0.31574 0.90027 0.37663 0.0
H1434 H 0.32903 0.88263 0.38957 0.0
H1435 H 0.30117 0.86309 0.34185 0.0
H1436 H 0.30096 0.85683 0.36591 0.0
H1437 H 0.29348 0.88007 0.35871 0.0
H1438 H 0.29893 0.84407 0.42343 0.0
C1439 C 0.317 0.84761 0.39997 0.0
C1440 C 0.70925 0.646 0.22973 0.0
C1441 C 0.72218 0.63203 0.22516 0.0
C1442 C 0.73132 0.63343 0.20788 0.0
C1443 C 0.71265 0.66088 0.19919 0.0
C1444 C 0.70421 0.65971 0.21638 0.0
C1445 C 0.68789 0.67284 0.21771 0.0
H1446 H 0.62186 0.72624 0.17406 0.0
C1447 C 0.70259 0.67547 0.1878 0.0
C1448 C 0.68778 0.68207 0.19841 0.0
H1449 H 0.62501 0.7058 0.23155 0.0
H1450 H 0.6562 0.69418 0.2273 0.0
H1451 H 0.64176 0.69135 0.15291 0.0
H1452 H 0.66768 0.74206 0.17723 0.0
H1453 H 0.67868 0.73664 0.15617 0.0
H1454 H 0.65393 0.74256 0.15533 0.0
H1455 H 0.63664 0.71463 0.14407 0.0
H1456 H 0.65707 0.70215 0.13688 0.0
C1457 C 0.66974 0.66068 0.22068 0.0
C1458 C 0.69291 0.68733 0.23368 0.0
C1459 C 0.72708 0.69577 0.12465 0.0
C1460 C 0.72078 0.70879 0.11089 0.0
C1461 C 0.70334 0.7178 0.11304 0.0
C1462 C 0.69263 0.71431 0.12898 0.0
C1463 C 0.69941 0.70164 0.1429 0.0
C1464 C 0.71624 0.69238 0.14041 0.0
C1465 C 0.72101 0.6789 0.15626 0.0
C1466 C 0.70516 0.68275 0.16941 0.0
C1467 C 0.69234 0.69592 0.16149 0.0
C1468 C 0.71997 0.65843 0.14826 0.0
C1469 C 0.74056 0.68453 0.16533 0.0
C1470 C 0.62948 0.71931 0.18562 0.0
C1471 C 0.62104 0.71651 0.20308 0.0
C1472 C 0.6313 0.70786 0.21801 0.0
C1473 C 0.64937 0.70104 0.21546 0.0
C1474 C 0.65728 0.70273 0.19772 0.0
C1475 C 0.64786 0.71242 0.18332 0.0
C1476 C 0.65963 0.71382 0.166 0.0
C1477 C 0.67663 0.70179 0.17193 0.0
C1478 C 0.67486 0.69528 0.19048 0.0
C1479 C 0.64822 0.70513 0.14895 0.0
C1480 C 0.66524 0.73484 0.16334 0.0
H1481 H 0.73386 0.64805 0.18188 0.0
H1482 H 0.70232 0.6457 0.24306 0.0
H1483 H 0.70823 0.69111 0.23405 0.0
H1484 H 0.68559 0.70095 0.23163 0.0
H1485 H 0.68968 0.68149 0.24774 0.0
H1486 H 0.67131 0.64584 0.21577 0.0
H1487 H 0.66633 0.66008 0.23583 0.0
H1488 H 0.65725 0.66573 0.21234 0.0
H1489 H 0.74029 0.68845 0.1232 0.0
H1490 H 0.69825 0.72794 0.10263 0.0
H1491 H 0.67953 0.72165 0.12992 0.0
H1492 H 0.71093 0.65748 0.13502 0.0
H1493 H 0.73421 0.65328 0.14495 0.0
H1494 H 0.71335 0.64838 0.15804 0.0
H1495 H 0.74131 0.70002 0.16813 0.0
H1496 H 0.74356 0.67757 0.17904 0.0
H1497 H 0.75207 0.68099 0.15581 0.0
H1498 H 0.74145 0.6229 0.20403 0.0
C1499 C 0.72673 0.64788 0.19494 0.0
C1500 C 0.32415 0.62772 0.19122 0.0
C1501 C 0.30742 0.6183 0.18469 0.0
C1502 C 0.29699 0.62582 0.16915 0.0
C1503 C 0.3202 0.65116 0.16626 0.0
C1504 C 0.33013 0.64422 0.18194 0.0
C1505 C 0.34725 0.65641 0.18724 0.0
H1506 H 0.40369 0.73249 0.16846 0.0
C1507 C 0.33034 0.6682 0.15956 0.0
C1508 C 0.34609 0.67158 0.17199 0.0
H1509 H 0.41046 0.69231 0.214 0.0
H1510 H 0.38175 0.67592 0.20331 0.0
H1511 H 0.35751 0.7368 0.1703 0.0
H1512 H 0.39292 0.70183 0.13727 0.0
H1513 H 0.374 0.70889 0.12223 0.0
H1514 H 0.38996 0.72656 0.13253 0.0
H1515 H 0.37148 0.74605 0.1518 0.0
H1516 H 0.34796 0.73658 0.14695 0.0
C1517 C 0.34462 0.66475 0.20717 0.0
C1518 C 0.36508 0.64416 0.18574 0.0
C1519 C 0.30862 0.69911 0.0974 0.0
C1520 C 0.3157 0.71452 0.08717 0.0
C1521 C 0.33105 0.72517 0.09522 0.0
C1522 C 0.33955 0.72033 0.11275 0.0
C1523 C 0.33277 0.70456 0.12252 0.0
C1524 C 0.31736 0.69441 0.11499 0.0
C1525 C 0.312 0.67823 0.12758 0.0
C1526 C 0.32708 0.68002 0.14354 0.0
C1527 C 0.33925 0.69546 0.14047 0.0
C1528 C 0.2919 0.68183 0.13456 0.0
C1529 C 0.31382 0.65961 0.1163 0.0
C1530 C 0.39879 0.72032 0.17623 0.0
C1531 C 0.40933 0.71369 0.1921 0.0
C1532 C 0.40262 0.69763 0.20169 0.0
C1533 C 0.38594 0.68813 0.19545 0.0
C1534 C 0.37575 0.69459 0.1793 0.0
C1535 C 0.38219 0.71049 0.17002 0.0
C1536 C 0.36993 0.71486 0.15269 0.0
C1537 C 0.35497 0.6992 0.15326 0.0
C1538 C 0.35842 0.68733 0.16891 0.0
C1539 C 0.36129 0.73465 0.15537 0.0
C1540 C 0.38222 0.71312 0.13519 0.0
H1541 H 0.29481 0.6469 0.14797 0.0
H1542 H 0.33231 0.62241 0.20333 0.0
H1543 H 0.36369 0.63469 0.17317 0.0
H1544 H 0.37805 0.65262 0.18377 0.0
H1545 H 0.36724 0.6351 0.19843 0.0
H1546 H 0.32954 0.66825 0.2091 0.0
H1547 H 0.34896 0.65451 0.21836 0.0
H1548 H 0.35244 0.6782 0.20964 0.0
H1549 H 0.29693 0.69058 0.09163 0.0
H1550 H 0.3366 0.73729 0.08782 0.0
H1551 H 0.35125 0.72896 0.11791 0.0
H1552 H 0.28876 0.69721 0.13491 0.0
H1553 H 0.28089 0.67489 0.12518 0.0
H1554 H 0.29023 0.67703 0.14927 0.0
H1555 H 0.32705 0.65978 0.10837 0.0
H1556 H 0.3147 0.64695 0.12534 0.0
H1557 H 0.30175 0.65769 0.10589 0.0
H1558 H 0.28409 0.61881 0.1639 0.0
C1559 C 0.30329 0.64209 0.15988 0.0
C1560 C 0.42372 0.33288 0.23554 0.0
C1561 C 0.43191 0.3165 0.22799 0.0
C1562 C 0.42439 0.30915 0.21073 0.0
C1563 C 0.40073 0.33365 0.20898 0.0
C1564 C 0.40809 0.34119 0.22578 0.0
C1565 C 0.39715 0.3584 0.23161 0.0
H1566 H 0.32295 0.41805 0.21392 0.0
C1567 C 0.3843 0.34504 0.20251 0.0
C1568 C 0.38197 0.35967 0.21563 0.0
H1569 H 0.36418 0.42029 0.26071 0.0
H1570 H 0.37991 0.39307 0.24831 0.0
H1571 H 0.31745 0.3725 0.21371 0.0
H1572 H 0.35362 0.40833 0.1811 0.0
H1573 H 0.34205 0.39156 0.16604 0.0
H1574 H 0.32829 0.40864 0.17817 0.0
H1575 H 0.30812 0.38798 0.19562 0.0
H1576 H 0.31634 0.36467 0.19008 0.0
C1577 C 0.38849 0.35417 0.25084 0.0
C1578 C 0.41074 0.37571 0.23191 0.0
C1579 C 0.34858 0.3249 0.14198 0.0
C1580 C 0.33236 0.33148 0.13208 0.0
C1581 C 0.32316 0.34744 0.13929 0.0
C1582 C 0.32992 0.35651 0.15604 0.0
C1583 C 0.34612 0.34961 0.16583 0.0
C1584 C 0.35505 0.33402 0.1587 0.0
C1585 C 0.37183 0.3283 0.17087 0.0
C1586 C 0.37167 0.34301 0.1865 0.0
C1587 C 0.35666 0.35561 0.18358 0.0
C1588 C 0.36791 0.30802 0.17831 0.0
C1589 C 0.38966 0.33032 0.15897 0.0
C1590 C 0.33546 0.41277 0.22141 0.0
C1591 C 0.34212 0.42134 0.2385 0.0
C1592 C 0.35845 0.41385 0.24776 0.0
C1593 C 0.36766 0.39804 0.24047 0.0
C1594 C 0.36061 0.38943 0.22362 0.0
C1595 C 0.3448 0.3969 0.21432 0.0
C1596 C 0.3392 0.38584 0.19663 0.0
C1597 C 0.35422 0.37061 0.19678 0.0
C1598 C 0.36681 0.37271 0.2127 0.0
C1599 C 0.31918 0.37734 0.19893 0.0
C1600 C 0.34071 0.39921 0.17949 0.0
H1601 H 0.4041 0.31111 0.18822 0.0
H1602 H 0.42909 0.33882 0.24885 0.0
H1603 H 0.42013 0.37521 0.21973 0.0
H1604 H 0.40328 0.38927 0.2305 0.0
H1605 H 0.41987 0.37601 0.24508 0.0
H1606 H 0.38273 0.33946 0.2511 0.0
H1607 H 0.39932 0.35564 0.26261 0.0
H1608 H 0.37647 0.36333 0.25376 0.0
H1609 H 0.3563 0.31301 0.13673 0.0
H1610 H 0.31058 0.35282 0.13202 0.0
H1611 H 0.32225 0.36851 0.16075 0.0
H1612 H 0.35251 0.30538 0.17976 0.0
H1613 H 0.37306 0.2971 0.16855 0.0
H1614 H 0.37419 0.30559 0.19265 0.0
H1615 H 0.38824 0.34228 0.14884 0.0
H1616 H 0.40263 0.33374 0.16762 0.0
H1617 H 0.39197 0.31729 0.15063 0.0
H1618 H 0.43051 0.29677 0.20449 0.0
C1619 C 0.409 0.31759 0.20124 0.0
C1620 C 0.73865 0.41373 0.21807 0.0
C1621 C 0.73403 0.42584 0.23285 0.0
C1622 C 0.71774 0.42192 0.24297 0.0
C1623 C 0.71094 0.39412 0.2236 0.0
C1624 C 0.72688 0.39809 0.21363 0.0
C1625 C 0.72938 0.3842 0.19789 0.0
H1626 H 0.69687 0.30978 0.14529 0.0
C1627 C 0.70156 0.3771 0.21509 0.0
C1628 C 0.71221 0.37134 0.19992 0.0
H1629 H 0.74853 0.34226 0.14022 0.0
H1630 H 0.7412 0.36107 0.1672 0.0
H1631 H 0.70144 0.30664 0.19213 0.0
H1632 H 0.66959 0.3449 0.15588 0.0
H1633 H 0.6554 0.33736 0.17432 0.0
H1634 H 0.66338 0.32026 0.15761 0.0
H1635 H 0.68135 0.29887 0.17763 0.0
H1636 H 0.67861 0.30912 0.20063 0.0
C1637 C 0.74818 0.37362 0.20199 0.0
C1638 C 0.72839 0.39525 0.17899 0.0
C1639 C 0.64263 0.3498 0.24393 0.0
C1640 C 0.63015 0.33488 0.23876 0.0
C1641 C 0.63325 0.32452 0.22216 0.0
C1642 C 0.64877 0.32874 0.21108 0.0
C1643 C 0.6613 0.34358 0.21656 0.0
C1644 C 0.6579 0.35401 0.2326 0.0
C1645 C 0.67199 0.36993 0.23577 0.0
C1646 C 0.6849 0.36688 0.2195 0.0
C1647 C 0.6787 0.35135 0.20827 0.0
C1648 C 0.68245 0.36691 0.25516 0.0
C1649 C 0.6613 0.38891 0.23398 0.0
C1650 C 0.70651 0.32099 0.15009 0.0
C1651 C 0.72332 0.32461 0.14069 0.0
C1652 C 0.73562 0.33916 0.14736 0.0
C1653 C 0.73127 0.35012 0.16299 0.0
C1654 C 0.71443 0.34652 0.17222 0.0
C1655 C 0.70246 0.33198 0.16599 0.0
C1656 C 0.68567 0.3298 0.17832 0.0
C1657 C 0.6894 0.34569 0.19265 0.0
C1658 C 0.70619 0.35549 0.18877 0.0
C1659 C 0.68661 0.31006 0.18765 0.0
C1660 C 0.66745 0.33311 0.16597 0.0
H1661 H 0.69409 0.40383 0.24679 0.0
H1662 H 0.75096 0.41656 0.2099 0.0
H1663 H 0.71752 0.40647 0.17928 0.0
H1664 H 0.7241 0.38635 0.16668 0.0
H1665 H 0.74217 0.40224 0.17632 0.0
H1666 H 0.75173 0.37287 0.21743 0.0
H1667 H 0.76018 0.38084 0.19528 0.0
H1668 H 0.74744 0.35867 0.19732 0.0
H1669 H 0.6404 0.35816 0.25646 0.0
H1670 H 0.62378 0.31295 0.21794 0.0
H1671 H 0.65043 0.32029 0.19867 0.0
H1672 H 0.68618 0.35177 0.25708 0.0
H1673 H 0.67344 0.37098 0.26692 0.0
H1674 H 0.69597 0.37483 0.25667 0.0
H1675 H 0.64831 0.38746 0.22463 0.0
H1676 H 0.66972 0.40014 0.2273 0.0
H1677 H 0.6569 0.39395 0.24797 0.0
H1678 H 0.71398 0.43108 0.25447 0.0
C1679 C 0.70623 0.4061 0.2385 0.0
C1680 C 0.74173 0.34236 0.92643 0.0
C1681 C 0.73449 0.32622 0.93551 0.0
C1682 C 0.71812 0.31727 0.92744 0.0
C1683 C 0.71622 0.3406 0.90222 0.0
C1684 C 0.7324 0.34929 0.90994 0.0
C1685 C 0.73803 0.36646 0.89878 0.0
H1686 H 0.72241 0.42408 0.82307 0.0
C1687 C 0.7099 0.35141 0.88514 0.0
C1688 C 0.72269 0.36658 0.88302 0.0
H1689 H 0.7661 0.42948 0.86745 0.0
H1690 H 0.7543 0.40131 0.8824 0.0
H1691 H 0.68893 0.41451 0.85153 0.0
H1692 H 0.72384 0.37899 0.81839 0.0
H1693 H 0.70067 0.36973 0.81658 0.0
H1694 H 0.7054 0.39321 0.80787 0.0
H1695 H 0.68629 0.41313 0.82624 0.0
H1696 H 0.67438 0.39664 0.84121 0.0
C1697 C 0.73706 0.38405 0.91177 0.0
C1698 C 0.75781 0.36297 0.89107 0.0
C1699 C 0.6506 0.33039 0.84675 0.0
C1700 C 0.64153 0.33694 0.82991 0.0
C1701 C 0.64937 0.35281 0.82089 0.0
C1702 C 0.66577 0.36196 0.82849 0.0
C1703 C 0.67463 0.35519 0.8453 0.0
C1704 C 0.66705 0.33959 0.85408 0.0
C1705 C 0.67864 0.33395 0.87148 0.0
C1706 C 0.69433 0.34887 0.87187 0.0
C1707 C 0.69189 0.36134 0.85652 0.0
C1708 C 0.66609 0.33567 0.88875 0.0
C1709 C 0.68632 0.31383 0.86822 0.0
C1710 C 0.72929 0.41942 0.83617 0.0
C1711 C 0.74518 0.42929 0.8441 0.0
C1712 C 0.75394 0.4222 0.8609 0.0
C1713 C 0.74698 0.40585 0.86965 0.0
C1714 C 0.73096 0.39635 0.86167 0.0
C1715 C 0.72236 0.40324 0.84523 0.0
C1716 C 0.7052 0.39163 0.83899 0.0
C1717 C 0.70493 0.37662 0.85433 0.0
C1718 C 0.72015 0.37933 0.86755 0.0
C1719 C 0.68771 0.40455 0.83933 0.0
C1720 C 0.70876 0.38297 0.81938 0.0
H1721 H 0.6965 0.31693 0.90571 0.0
H1722 H 0.75446 0.34943 0.93197 0.0
H1723 H 0.75893 0.34811 0.88606 0.0
H1724 H 0.76082 0.37181 0.87871 0.0
H1725 H 0.76911 0.36543 0.90222 0.0
H1726 H 0.7253 0.38257 0.92161 0.0
H1727 H 0.75039 0.38603 0.92046 0.0
H1728 H 0.734 0.39719 0.90386 0.0
H1729 H 0.64504 0.31825 0.8541 0.0
H1730 H 0.6431 0.3579 0.80768 0.0
H1731 H 0.67103 0.37387 0.82085 0.0
H1732 H 0.65707 0.34842 0.8875 0.0
H1733 H 0.65658 0.32313 0.88984 0.0
H1734 H 0.67435 0.3375 0.90222 0.0
H1735 H 0.68947 0.31165 0.85312 0.0
H1736 H 0.69986 0.31127 0.87608 0.0
H1737 H 0.67585 0.3028 0.87206 0.0
H1738 H 0.71214 0.30493 0.93411 0.0
C1739 C 0.70897 0.32435 0.91095 0.0
C1740 C 0.63284 0.71452 0.80839 0.0
C1741 C 0.62427 0.7306 0.81604 0.0
C1742 C 0.63242 0.73881 0.83266 0.0
C1743 C 0.65641 0.7147 0.8345 0.0
C1744 C 0.64887 0.70675 0.81793 0.0
C1745 C 0.65982 0.68952 0.81229 0.0
H1746 H 0.73394 0.63045 0.83111 0.0
C1747 C 0.67264 0.70323 0.84129 0.0
C1748 C 0.67482 0.68834 0.8284 0.0
H1749 H 0.69457 0.62834 0.78283 0.0
H1750 H 0.67743 0.65475 0.79551 0.0
H1751 H 0.73888 0.67598 0.83259 0.0
H1752 H 0.70298 0.6373 0.86197 0.0
H1753 H 0.71033 0.65506 0.87814 0.0
H1754 H 0.72772 0.63992 0.8682 0.0
H1755 H 0.74781 0.65925 0.8497 0.0
H1756 H 0.73978 0.68216 0.85671 0.0
C1757 C 0.66864 0.69368 0.79313 0.0
C1758 C 0.64627 0.67218 0.81192 0.0
C1759 C 0.70872 0.72297 0.90213 0.0
C1760 C 0.72406 0.71519 0.91262 0.0
C1761 C 0.7318 0.69815 0.90615 0.0
C1762 C 0.72473 0.68928 0.88948 0.0
C1763 C 0.70961 0.69742 0.879 0.0
C1764 C 0.7017 0.71382 0.88558 0.0
C1765 C 0.68538 0.72017 0.87297 0.0
C1766 C 0.68494 0.70504 0.85763 0.0
C1767 C 0.69927 0.69182 0.86108 0.0
C1768 C 0.69046 0.73996 0.86508 0.0
C1769 C 0.66733 0.71952 0.88464 0.0
C1770 C 0.72169 0.63573 0.8232 0.0
C1771 C 0.71582 0.62746 0.80576 0.0
C1772 C 0.69946 0.63448 0.79623 0.0
C1773 C 0.68962 0.64991 0.80356 0.0
C1774 C 0.69611 0.65844 0.82071 0.0
C1775 C 0.71178 0.65109 0.83031 0.0
C1776 C 0.71673 0.66165 0.84838 0.0
C1777 C 0.70176 0.67685 0.84795 0.0
C1778 C 0.68962 0.67501 0.83168 0.0
C1779 C 0.73689 0.67017 0.84697 0.0
C1780 C 0.7145 0.64785 0.86513 0.0
H1781 H 0.65358 0.73797 0.85452 0.0
H1782 H 0.627 0.70799 0.79554 0.0
H1783 H 0.637 0.67254 0.8242 0.0
H1784 H 0.65378 0.65864 0.81306 0.0
H1785 H 0.63702 0.672 0.79883 0.0
H1786 H 0.67436 0.70842 0.79283 0.0
H1787 H 0.65792 0.69211 0.78128 0.0
H1788 H 0.68074 0.68456 0.79039 0.0
H1789 H 0.70255 0.73616 0.90641 0.0
H1790 H 0.74346 0.69164 0.914 0.0
H1791 H 0.73141 0.67648 0.88532 0.0
H1792 H 0.70585 0.74116 0.86261 0.0
H1793 H 0.68696 0.75136 0.87512 0.0
H1794 H 0.68345 0.74285 0.85116 0.0
H1795 H 0.66815 0.70816 0.89549 0.0
H1796 H 0.65438 0.71603 0.87597 0.0
H1797 H 0.66533 0.73311 0.89215 0.0
H1798 H 0.62646 0.75145 0.83857 0.0
C1799 C 0.64829 0.73098 0.8419 0.0
C1800 C 0.33982 0.62658 0.80264 0.0
C1801 C 0.34818 0.61649 0.78794 0.0
C1802 C 0.36527 0.6235 0.78101 0.0
C1803 C 0.3646 0.65068 0.80194 0.0
C1804 C 0.34834 0.64352 0.8095 0.0
C1805 C 0.34188 0.65582 0.82545 0.0
H1806 H 0.35631 0.73533 0.87967 0.0
C1807 C 0.36975 0.66865 0.81172 0.0
C1808 C 0.35663 0.67177 0.82574 0.0
H1809 H 0.31275 0.69257 0.88522 0.0
H1810 H 0.32441 0.67551 0.85844 0.0
H1811 H 0.35272 0.73788 0.83502 0.0
H1812 H 0.39004 0.70661 0.87254 0.0
H1813 H 0.40375 0.71606 0.85465 0.0
H1814 H 0.39164 0.73183 0.86993 0.0
H1815 H 0.37231 0.74895 0.84785 0.0
H1816 H 0.37492 0.73828 0.82494 0.0
C1817 C 0.32187 0.66306 0.82006 0.0
C1818 C 0.34299 0.64408 0.84386 0.0
C1819 C 0.42561 0.70747 0.78935 0.0
C1820 C 0.43393 0.72467 0.79554 0.0
C1821 C 0.42599 0.73447 0.81058 0.0
C1822 C 0.41025 0.72713 0.81956 0.0
C1823 C 0.40224 0.70975 0.81348 0.0
C1824 C 0.40988 0.70027 0.79857 0.0
C1825 C 0.39961 0.68191 0.79419 0.0
C1826 C 0.38441 0.68209 0.80874 0.0
C1827 C 0.38604 0.6984 0.82002 0.0
C1828 C 0.39105 0.68312 0.77372 0.0
C1829 C 0.4137 0.66549 0.79761 0.0
C1830 C 0.34933 0.72223 0.87523 0.0
C1831 C 0.33353 0.71539 0.88462 0.0
C1832 C 0.32478 0.69836 0.87813 0.0
C1833 C 0.33168 0.68836 0.86267 0.0
C1834 C 0.3476 0.69536 0.85354 0.0
C1835 C 0.35604 0.71211 0.85987 0.0
C1836 C 0.37267 0.7177 0.84853 0.0
C1837 C 0.37313 0.70143 0.83454 0.0
C1838 C 0.35843 0.68827 0.83743 0.0
C1839 C 0.36813 0.73674 0.83861 0.0
C1840 C 0.39053 0.71825 0.86201 0.0
H1841 H 0.38626 0.64504 0.78167 0.0
H1842 H 0.32686 0.6215 0.80856 0.0
H1843 H 0.35582 0.63514 0.84442 0.0
H1844 H 0.34424 0.65294 0.8567 0.0
H1845 H 0.33046 0.63454 0.84475 0.0
H1846 H 0.321 0.66769 0.80504 0.0
H1847 H 0.31105 0.65173 0.82178 0.0
H1848 H 0.318 0.67549 0.82841 0.0
H1849 H 0.43144 0.69963 0.77786 0.0
H1850 H 0.43198 0.74791 0.81538 0.0
H1851 H 0.405 0.73526 0.83096 0.0
H1852 H 0.38485 0.6973 0.77103 0.0
H1853 H 0.40205 0.68088 0.76326 0.0
H1854 H 0.37934 0.67295 0.77079 0.0
H1855 H 0.4253 0.66953 0.80801 0.0
H1856 H 0.40698 0.65289 0.80388 0.0
H1857 H 0.42032 0.66132 0.78432 0.0
H1858 H 0.37258 0.61572 0.77043 0.0
C1859 C 0.37338 0.64051 0.78777 0.0
C1860 C 0.34436 0.32741 0.92466 0.0
C1861 C 0.32745 0.33522 0.93086 0.0
C1862 C 0.31822 0.34908 0.91984 0.0
C1863 C 0.34324 0.34864 0.89775 0.0
C1864 C 0.35204 0.33442 0.908 0.0
C1865 C 0.37003 0.32833 0.89909 0.0
H1866 H 0.43262 0.34038 0.82947 0.0
C1867 C 0.35507 0.35362 0.88186 0.0
C1868 C 0.3708 0.34183 0.88233 0.0
H1869 H 0.43334 0.29826 0.87364 0.0
H1870 H 0.40504 0.31131 0.88597 0.0
H1871 H 0.42054 0.37547 0.85695 0.0
H1872 H 0.38597 0.33915 0.81972 0.0
H1873 H 0.38087 0.36327 0.81566 0.0
H1874 H 0.404 0.35466 0.81113 0.0
H1875 H 0.42159 0.37692 0.83169 0.0
H1876 H 0.40367 0.38903 0.84422 0.0
C1877 C 0.38673 0.33177 0.91358 0.0
C1878 C 0.36742 0.30747 0.89267 0.0
C1879 C 0.33416 0.40837 0.8413 0.0
C1880 C 0.34204 0.41849 0.82662 0.0
C1881 C 0.35962 0.41287 0.81996 0.0
C1882 C 0.36903 0.39706 0.82789 0.0
C1883 C 0.36082 0.38706 0.84276 0.0
C1884 C 0.34372 0.39304 0.84917 0.0
C1885 C 0.33722 0.38192 0.86557 0.0
C1886 C 0.35309 0.36799 0.86811 0.0
C1887 C 0.36689 0.37072 0.85469 0.0
C1888 C 0.33623 0.39567 0.88269 0.0
C1889 C 0.31822 0.37194 0.85942 0.0
C1890 C 0.42652 0.33386 0.84166 0.0
C1891 C 0.43514 0.31812 0.85047 0.0
C1892 C 0.42702 0.31038 0.86661 0.0
C1893 C 0.41052 0.31791 0.8737 0.0
C1894 C 0.40196 0.33347 0.86465 0.0
C1895 C 0.40999 0.34128 0.84895 0.0
C1896 C 0.39901 0.35802 0.84141 0.0
C1897 C 0.38275 0.35849 0.85473 0.0
C1898 C 0.38464 0.34409 0.86844 0.0
C1899 C 0.41181 0.37587 0.8435 0.0
C1900 C 0.39211 0.3537 0.82084 0.0
H1901 H 0.31822 0.36652 0.89593 0.0
H1902 H 0.35155 0.31647 0.93275 0.0
H1903 H 0.35249 0.30445 0.88792 0.0
H1904 H 0.37577 0.30397 0.88036 0.0
H1905 H 0.37111 0.29759 0.90441 0.0
H1906 H 0.38521 0.34556 0.92092 0.0
H1907 H 0.38725 0.32051 0.9245 0.0
H1908 H 0.40055 0.33261 0.90699 0.0
H1909 H 0.32086 0.41261 0.84694 0.0
H1910 H 0.36595 0.42061 0.80861 0.0
H1911 H 0.38231 0.39327 0.82226 0.0
H1912 H 0.34635 0.40776 0.8816 0.0
H1913 H 0.32188 0.40167 0.88361 0.0
H1914 H 0.34038 0.389 0.89633 0.0
H1915 H 0.31768 0.36843 0.84407 0.0
H1916 H 0.31618 0.35816 0.86647 0.0
H1917 H 0.30598 0.38111 0.86203 0.0
H1918 H 0.30489 0.3548 0.92401 0.0
C1919 C 0.32598 0.3558 0.90341 0.0
Cu1920 Cu 0.27983 0.27514 0.03726 0.0
N1921 N 0.27779 0.29503 0.02021 0.0
N1922 N 0.28675 0.31213 0.99571 0.0
C1923 C 0.28998 0.29668 1.0063 0.0
C1924 C 0.27176 0.32058 1.00313 0.0
C1925 C 0.26619 0.30992 0.01831 0.0
O1926 O 0.28124 0.25313 0.0204 0.0
C1927 C 0.29785 0.29786 0.06355 0.0
O1928 O 0.28313 0.30779 0.05791 0.0
H1929 H 0.3013 0.28683 1.00423 0.0
H1930 H 0.25476 0.313 0.02739 0.0
N1931 N 0.25923 0.27104 0.05225 0.0
N1932 N 0.24347 0.25676 0.07489 0.0
C1933 C 0.25954 0.25744 0.06544 0.0
C1934 C 0.24228 0.27932 0.05321 0.0
C1935 C 0.23244 0.27039 0.06717 0.0
C1936 C 0.26545 0.25005 0.01134 0.0
O1937 O 0.25094 0.26049 0.01532 0.0
H1938 H 0.27128 0.24794 0.06773 0.0
H1939 H 0.23732 0.2908 0.04436 0.0
O1940 O 0.30039 0.28181 0.05569 0.0
H1941 H 0.26524 0.33341 0.9979 0.0
H1942 H 0.21834 0.27372 0.07138 0.0
Cu1943 Cu 0.78097 0.2668 0.03349 0.0
N1944 N 0.7601 0.2767 0.04771 0.0
N1945 N 0.74357 0.28812 0.07132 0.0
C1946 C 0.76098 0.28577 0.0645 0.0
C1947 C 0.73142 0.28041 0.05814 0.0
C1948 C 0.74164 0.27329 0.04369 0.0
O1949 O 0.79242 0.25576 0.05836 0.0
C1950 C 0.76907 0.29581 1.00598 0.0
O1951 O 0.7771 0.30702 0.01889 0.0
H1952 H 0.77412 0.29034 0.07154 0.0
H1953 H 0.73608 0.2656 0.0314 0.0
N1954 N 0.80142 0.25581 0.01897 0.0
N1955 N 0.81812 0.2466 0.99445 0.0
C1956 C 0.80508 0.25873 1.0006 0.0
C1957 C 0.81257 0.24135 0.02448 0.0
C1958 C 0.82298 0.23582 1.00952 0.0
C1959 C 0.80796 0.26168 0.06622 0.0
O1960 O 0.81764 0.275 0.05787 0.0
H1961 H 0.79796 0.26907 0.99173 0.0
H1962 H 0.81244 0.23444 0.03806 0.0
O1963 O 0.76897 0.27802 1.00901 0.0
H1964 H 0.71623 0.27937 0.05917 0.0
H1965 H 0.83247 0.22394 1.00937 0.0
Cu1966 Cu 0.77569 0.76959 1.00965 0.0
N1967 N 0.79727 0.77475 0.99611 0.0
N1968 N 0.81476 0.78951 0.97494 0.0
C1969 C 0.79806 0.78882 0.98337 0.0
C1970 C 0.82489 0.77516 0.9826 0.0
C1971 C 0.81404 0.76605 0.99566 0.0
O1972 O 0.75623 0.76258 0.99021 0.0
C1973 C 0.76526 0.79274 0.04088 0.0
O1974 O 0.75321 0.77923 0.04486 0.0
H1975 H 0.78648 0.79833 0.98025 0.0
H1976 H 0.81795 0.75367 1.00376 0.0
N1977 N 0.7782 0.7494 0.02667 0.0
N1978 N 0.769 0.7308 0.05031 0.0
C1979 C 0.76348 0.74109 0.03502 0.0
C1980 C 0.79367 0.7439 0.03678 0.0
C1981 C 0.78807 0.73236 0.05125 0.0
C1982 C 0.76141 0.74863 0.98023 0.0
O1983 O 0.77754 0.74055 0.98495 0.0
H1984 H 0.74894 0.74439 0.03119 0.0
H1985 H 0.80783 0.74925 0.0349 0.0
O1986 O 0.77324 0.79233 0.02509 0.0
H1987 H 0.83885 0.77111 0.97858 0.0
H1988 H 0.79728 0.72669 0.06238 0.0
Cu1989 Cu 0.27245 0.76969 0.99039 0.0
N1990 N 0.27299 0.78999 1.00778 0.0
N1991 N 0.26466 0.8063 0.03332 0.0
C1992 C 0.26208 0.79032 0.02294 0.0
C1993 C 0.27767 0.81652 0.02419 0.0
C1994 C 0.28286 0.80641 1.00853 0.0
O1995 O 0.2746 0.74766 1.00712 0.0
C1996 C 0.24905 0.78882 0.96591 0.0
O1997 O 0.2623 0.80137 0.97054 0.0
H1998 H 0.25205 0.77916 0.02599 0.0
H1999 H 0.29286 0.81092 0.99831 0.0
N2000 N 0.29238 0.76876 0.97355 0.0
N2001 N 0.30876 0.75842 0.94915 0.0
C2002 C 0.29288 0.75642 0.95897 0.0
C2003 C 0.30855 0.77895 0.97295 0.0
C2004 C 0.31868 0.77255 0.95801 0.0
C2005 C 0.29097 0.74686 0.01544 0.0
O2006 O 0.30391 0.75921 1.01065 0.0
H2007 H 0.28197 0.74585 0.95599 0.0
H2008 H 0.31287 0.79001 0.98283 0.0
O2009 O 0.24981 0.77253 0.97369 0.0
H2010 H 0.28307 0.83033 0.02853 0.0
H2011 H 0.33231 0.77792 0.95397 0.0
Cu2012 Cu 0.02686 0.26888 0.29049 0.0
N2013 N 0.04469 0.26782 0.27179 0.0
N2014 N 0.06709 0.25554 0.25439 0.0
C2015 C 0.054 0.25206 0.26719 0.0
C2016 C 0.06576 0.27412 0.25037 0.0
C2017 C 0.05194 0.28173 0.26123 0.0
O2018 O 0.0411 0.26913 0.31484 0.0
C2019 C 0.99359 0.24418 0.29181 0.0
O2020 O 0.99135 0.24994 0.30921 0.0
H2021 H 0.05144 0.23831 0.27335 0.0
H2022 H 0.04782 0.29639 0.26173 0.0
N2023 N 0.01373 0.29178 0.29073 0.0
N2024 N 0.9915 0.31076 0.30158 0.0
C2025 C 0.99533 0.2935 0.29469 0.0
C2026 C 0.02165 0.3088 0.29486 0.0
C2027 C 1.008 0.3205 0.30163 0.0
C2028 C 0.05751 0.26216 0.31762 0.0
O2029 O 0.06226 0.2476 0.30743 0.0
H2030 H 0.98535 0.28183 0.29459 0.0
H2031 H 0.03668 0.31179 0.29505 0.0
O2032 O 1.00853 0.24894 0.28359 0.0
H2033 H 0.0746 0.28175 0.24079 0.0
H2034 H 1.01036 0.33447 0.30765 0.0
Cu2035 Cu 0.76391 0.01309 0.2672 0.0
N2036 N 0.78302 0.03147 0.27058 0.0
N2037 N 0.79909 0.05804 0.26441 0.0
C2038 C 0.78667 0.0448 0.25762 0.0
C2039 C 0.80359 0.05271 0.28233 0.0
C2040 C 0.79353 0.0364 0.28615 0.0
O2041 O 0.74091 0.02789 0.26898 0.0
C2042 C 0.78547 0.99375 0.24276 0.0
O2043 O 0.79815 0.99966 0.25561 0.0
H2044 H 0.77958 0.0453 0.24377 0.0
H2045 H 0.79331 0.02916 0.29957 0.0
N2046 N 0.76399 0.9943 0.28579 0.0
N2047 N 0.75479 0.96787 0.3003 0.0
C2048 C 0.74994 0.98148 0.28774 0.0
C2049 C 0.77823 0.98865 0.29757 0.0
C2050 C 0.77254 0.97244 0.30665 0.0
C2051 C 0.73816 0.03347 0.2858 0.0
O2052 O 0.74943 0.02729 0.29959 0.0
H2053 H 0.73677 0.98161 0.27938 0.0
H2054 H 0.79205 0.99532 0.29887 0.0
O2055 O 0.76837 0.99901 0.24403 0.0
H2056 H 0.81322 0.06021 0.2921 0.0
H2057 H 0.78094 0.96447 0.3169 0.0
Cu2058 Cu 0.02308 0.7683 0.23648 0.0
N2059 N 1.00841 0.79052 0.23532 0.0
N2060 N 0.98303 0.80809 0.22743 0.0
C2061 C 0.99199 0.79155 0.22495 0.0
C2062 C 0.99448 0.81801 0.23971 0.0
C2063 C 1.01004 0.80711 0.24466 0.0
O2064 O 1.00401 0.7491 0.24227 0.0
C2065 C 0.04572 0.7822 0.20979 0.0
O2066 O 0.04373 0.79661 0.22122 0.0
H2067 H 0.98676 0.78023 0.21575 0.0
H2068 H 0.02151 0.81094 0.25455 0.0
N2069 N 0.04232 0.76692 0.25567 0.0
N2070 N 0.06699 0.75469 0.27225 0.0
C2071 C 0.05599 0.7537 0.25619 0.0
C2072 C 0.04489 0.77671 0.27192 0.0
C2073 C 0.05999 0.76913 0.28219 0.0
C2074 C 0.99613 0.75336 0.25759 0.0
O2075 O 1.00284 0.76785 0.26752 0.0
H2076 H 0.05729 0.74305 0.24534 0.0
H2077 H 0.03604 0.78811 0.27632 0.0
O2078 O 0.03679 0.76681 0.21307 0.0
H2079 H 0.99159 0.83196 0.24512 0.0
H2080 H 0.06527 0.7737 0.29606 0.0
Cu2081 Cu 0.2644 1.00537 0.27332 0.0
N2082 N 0.26882 0.02061 0.29475 0.0
N2083 N 0.28396 0.04307 0.31213 0.0
C2084 C 0.28251 0.03406 0.29534 0.0
C2085 C 0.27045 0.03507 0.32254 0.0
C2086 C 0.26113 0.02117 0.31178 0.0
O2087 O 0.26064 0.02408 0.25298 0.0
C2088 C 0.28303 0.97574 0.28863 0.0
O2089 O 0.26927 0.97901 0.30001 0.0
H2090 H 0.29148 0.03694 0.28366 0.0
H2091 H 0.2497 0.01213 0.31613 0.0
N2092 N 0.24251 0.98998 0.27181 0.0
N2093 N 0.22362 0.96704 0.25944 0.0
C2094 C 0.23907 0.97803 0.25718 0.0
C2095 C 0.2287 0.98648 0.28387 0.0
C2096 C 0.21708 0.97222 0.27629 0.0
C2097 C 0.24523 0.03302 0.25509 0.0
O2098 O 0.23489 0.02848 0.26939 0.0
H2099 H 0.24834 0.97682 0.24549 0.0
H2100 H 0.22746 0.99333 0.29739 0.0
O2101 O 0.28491 0.98675 0.27445 0.0
H2102 H 0.26731 0.03912 0.3368 0.0
H2103 H 0.20493 0.96597 0.28278 0.0
Cu2104 Cu 0.02833 0.78419 0.74218 0.0
N2105 N 0.04161 0.76216 0.73771 0.0
N2106 N 0.06424 0.74383 0.72676 0.0
C2107 C 0.05973 0.76129 0.73275 0.0
C2108 C 0.0482 0.73339 0.72786 0.0
C2109 C 0.03433 0.7447 0.73465 0.0
O2110 O 0.04702 0.80508 0.74493 0.0
C2111 C 0.99339 0.77426 0.72505 0.0
O2112 O 0.99259 0.76487 0.74095 0.0
H2113 H 0.06922 0.77342 0.73293 0.0
H2114 H 0.01969 0.74072 0.73617 0.0
N2115 N 0.01637 0.78351 0.76512 0.0
N2116 N 0.99557 0.7915 0.78635 0.0
C2117 C 1.00288 0.7957 0.76963 0.0
C2118 C 0.01788 0.77125 0.77962 0.0
C2119 C 1.00508 0.77627 0.79287 0.0
C2120 C 0.05799 0.80329 0.75965 0.0
O2121 O 0.05621 0.7881 0.77009 0.0
H2122 H 0.99827 0.80723 0.76057 0.0
H2123 H 0.02731 0.75933 0.78028 0.0
O2124 O 1.00796 0.78466 0.72215 0.0
H2125 H 0.04617 0.71894 0.7231 0.0
H2126 H 1.00247 0.76894 0.80593 0.0
Cu2127 Cu 0.27799 0.04691 0.77761 0.0
N2128 N 0.29941 0.06307 0.77751 0.0
N2129 N 0.31795 0.08662 0.76724 0.0
C2130 C 0.30327 0.07468 0.763 0.0
C2131 C 0.32345 0.08241 0.78522 0.0
C2132 C 0.31202 0.06795 0.79151 0.0
O2133 O 0.25677 0.06393 0.7815 0.0
C2134 C 0.29333 0.02136 0.75491 0.0
O2135 O 0.30658 0.02477 0.76809 0.0
H2136 H 0.2947 0.07505 0.74998 0.0
H2137 H 0.31238 0.06215 0.8056 0.0
N2138 N 0.27752 0.02841 0.79676 0.0
N2139 N 0.26759 1.00211 0.81124 0.0
C2140 C 0.26467 0.01409 0.79662 0.0
C2141 C 0.28917 0.02519 0.81193 0.0
C2142 C 0.28302 1.00905 0.82092 0.0
C2143 C 0.25685 0.0705 0.79834 0.0
O2144 O 0.27011 0.0649 0.81053 0.0
H2145 H 0.25343 0.01244 0.78586 0.0
H2146 H 0.30146 0.03366 0.81604 0.0
O2147 O 0.27824 0.03108 0.75491 0.0
H2148 H 0.33464 0.0896 0.79343 0.0
H2149 H 0.28973 1.00261 0.83329 0.0
Cu2150 Cu 0.02703 0.29173 0.79039 0.0
N2151 N 1.00968 0.31174 0.7898 0.0
N2152 N 0.98365 0.32733 0.77999 0.0
C2153 C 0.99414 0.31168 0.77808 0.0
C2154 C 0.99312 0.33784 0.79333 0.0
C2155 C 1.00911 0.32814 0.79946 0.0
O2156 O 1.01064 0.2691 0.78886 0.0
C2157 C 0.0535 0.31241 0.77227 0.0
O2158 O 0.04956 0.32339 0.78651 0.0
H2159 H 0.99083 0.30041 0.76806 0.0
H2160 H 0.01959 0.3328 0.81009 0.0
N2161 N 0.04251 0.2896 0.81248 0.0
N2162 N 0.06636 0.27895 0.83129 0.0
C2163 C 0.0575 0.27803 0.81402 0.0
C2164 C 0.04189 0.29832 0.82934 0.0
C2165 C 0.0566 0.29181 0.84096 0.0
C2166 C 0.99966 0.26845 0.8027 0.0
O2167 O 1.00165 0.28148 0.81591 0.0
H2168 H 0.06173 0.26895 0.80267 0.0
H2169 H 0.03154 0.30869 0.83294 0.0
O2170 O 0.04473 0.29654 0.77041 0.0
H2171 H 0.98871 0.35148 0.7984 0.0
H2172 H 0.06003 0.2965 0.85527 0.0
Cu2173 Cu 0.77765 0.0201 0.76264 0.0
N2174 N 0.78105 0.03507 0.78443 0.0
N2175 N 0.79344 0.05858 0.80246 0.0
C2176 C 0.79364 0.04952 0.78569 0.0
C2177 C 0.78007 0.04945 0.81217 0.0
C2178 C 0.77246 0.03492 0.801 0.0
O2179 O 0.7771 0.03845 0.7419 0.0
C2180 C 0.79407 0.98898 0.77772 0.0
O2181 O 0.77956 0.99177 0.78828 0.0
H2182 H 0.80282 0.0533 0.77442 0.0
H2183 H 0.76135 0.02512 0.80465 0.0
N2184 N 0.75483 1.00632 0.76034 0.0
N2185 N 0.73509 0.98326 0.74974 0.0
C2186 C 0.75234 0.99142 0.74857 0.0
C2187 C 0.73849 1.00785 0.76922 0.0
C2188 C 0.72623 0.99368 0.76261 0.0
C2189 C 0.76414 0.05058 0.74409 0.0
O2190 O 0.75322 0.0487 0.7585 0.0
H2191 H 0.76303 0.98682 0.73917 0.0
H2192 H 0.7357 0.01842 0.77976 0.0
O2193 O 0.79722 1.00075 0.7645 0.0
H2194 H 0.77571 0.05328 0.82611 0.0
H2195 H 0.71203 0.99106 0.76713 0.0
Cu2196 Cu 0.26356 0.77813 0.51564 0.0
N2197 N 0.2574 0.79828 0.53133 0.0
N2198 N 0.26174 0.82014 0.55401 0.0
C2199 C 0.27004 0.80753 0.54289 0.0
C2200 C 0.24313 0.8191 0.54915 0.0
C2201 C 0.24047 0.80553 0.53511 0.0
O2202 O 0.26762 0.75631 0.53218 0.0
C2203 C 0.29238 0.77927 0.48758 0.0
O2204 O 0.29058 0.76079 0.48618 0.0
H2205 H 0.28506 0.80484 0.54343 0.0
H2206 H 0.2271 0.80084 0.52863 0.0
N2207 N 0.24335 0.77034 0.4993 0.0
N2208 N 0.22964 0.75345 0.47553 0.0
C2209 C 0.24472 0.76416 0.48136 0.0
C2210 C 0.2266 0.76358 0.50481 0.0
C2211 C 0.21809 0.75321 0.49017 0.0
C2212 C 0.27568 0.75669 0.54863 0.0
O2213 O 0.28742 0.77065 0.55315 0.0
H2214 H 0.25717 0.76597 0.47325 0.0
H2215 H 0.22173 0.76463 0.51904 0.0
O2216 O 0.28372 0.78791 0.5003 0.0
H2217 H 0.23222 0.82694 0.55585 0.0
H2218 H 0.20497 0.74522 0.49065 0.0
Cu2219 Cu 0.76947 0.76712 0.49626 0.0
N2220 N 0.79058 0.76647 0.48084 0.0
N2221 N 0.80857 0.75752 0.45706 0.0
C2222 C 0.79232 0.75455 0.46609 0.0
C2223 C 0.8175 0.77176 0.46675 0.0
C2224 C 0.8064 0.77726 0.48132 0.0
O2225 O 0.74719 0.76368 0.47895 0.0
C2226 C 0.78749 0.75422 0.52828 0.0
O2227 O 0.79714 0.76958 0.52429 0.0
H2228 H 0.78188 0.74374 0.4623 0.0
H2229 H 0.80967 0.78838 0.49149 0.0
N2230 N 0.7662 0.79032 0.50872 0.0
N2231 N 0.75597 0.81032 0.53062 0.0
C2232 C 0.75524 0.79248 0.52368 0.0
C2233 C 0.77423 0.8074 0.50606 0.0
C2234 C 0.76803 0.81972 0.51957 0.0
C2235 C 0.74685 0.7759 0.46566 0.0
O2236 O 0.76033 0.78886 0.46564 0.0
H2237 H 0.74695 0.78105 0.52943 0.0
H2238 H 0.78412 0.81064 0.49528 0.0
O2239 O 0.77385 0.74898 0.51695 0.0
H2240 H 0.83099 0.77799 0.46338 0.0
H2241 H 0.7726 0.83429 0.52144 0.0
Cu2242 Cu 0.77469 0.25897 0.52155 0.0
N2243 N 0.77357 0.2371 0.50625 0.0
N2244 N 0.76357 0.21892 0.48162 0.0
C2245 C 0.762 0.23567 0.49062 0.0
C2246 C 0.77661 0.20934 0.49218 0.0
C2247 C 0.78284 0.22061 0.50728 0.0
O2248 O 0.77861 0.27911 0.50335 0.0
C2249 C 0.7518 0.24404 0.54693 0.0
O2250 O 0.76495 0.23131 0.54521 0.0
H2251 H 0.75234 0.24669 0.48617 0.0
H2252 H 0.79329 0.217 0.51821 0.0
N2253 N 0.79437 0.26164 0.54022 0.0
N2254 N 0.81004 0.27541 0.56499 0.0
C2255 C 0.79461 0.27576 0.5531 0.0
C2256 C 0.81018 0.25179 0.54418 0.0
C2257 C 0.81989 0.26027 0.55945 0.0
C2258 C 0.79486 0.27809 0.49626 0.0
O2259 O 0.80658 0.26508 0.5026 0.0
H2260 H 0.78369 0.28632 0.55355 0.0
H2261 H 0.81442 0.23941 0.53653 0.0
O2262 O 0.75219 0.25876 0.53653 0.0
H2263 H 0.78145 0.19525 0.4891 0.0
H2264 H 0.83302 0.25548 0.56609 0.0
Cu2265 Cu 0.2695 0.27513 0.52991 0.0
N2266 N 0.24785 0.27548 0.54395 0.0
N2267 N 0.2284 0.28583 0.56546 0.0
C2268 C 0.24505 0.2885 0.55733 0.0
C2269 C 0.22036 0.27045 0.557 0.0
C2270 C 0.23234 0.26419 0.54348 0.0
O2271 O 0.2911 0.27672 0.54836 0.0
C2272 C 0.27461 0.30122 0.49781 0.0
O2273 O 0.29232 0.29614 0.49688 0.0
H2274 H 0.25522 0.29955 0.56124 0.0
H2275 H 0.22982 0.25236 0.53397 0.0
N2276 N 0.27124 0.25247 0.51659 0.0
N2277 N 0.27993 0.23232 0.49435 0.0
C2278 C 0.28085 0.25026 0.50079 0.0
C2279 C 0.26428 0.23518 0.52054 0.0
C2280 C 0.26962 0.2227 0.50682 0.0
C2281 C 0.28989 0.26487 0.5619 0.0
O2282 O 0.27527 0.25324 0.56178 0.0
H2283 H 0.28897 0.26142 0.49454 0.0
H2284 H 0.2562 0.23176 0.53271 0.0
O2285 O 0.26494 0.29531 0.51142 0.0
H2286 H 0.20677 0.26437 0.56023 0.0
H2287 H 0.26624 0.20773 0.50609 0.0
Cu2288 Cu 0.77848 0.5336 0.76583 0.0
N2289 N 0.80014 0.54797 0.76005 0.0
N2290 N 0.81786 0.57058 0.74684 0.0
C2291 C 0.80025 0.56327 0.74863 0.0
C2292 C 0.82922 0.55948 0.75779 0.0
C2293 C 0.81831 0.54553 0.76576 0.0
O2294 O 0.75808 0.55204 0.76893 0.0
C2295 C 0.78588 0.50971 0.73391 0.0
O2296 O 0.79734 0.52329 0.72869 0.0
H2297 H 0.78763 0.56871 0.74152 0.0
H2298 H 0.82333 0.53436 0.77501 0.0
N2299 N 0.78126 0.52016 0.78864 0.0
N2300 N 0.77598 0.497 0.80945 0.0
C2301 C 0.77013 0.50531 0.79311 0.0
C2302 C 0.79461 0.52135 0.80274 0.0
C2303 C 0.79146 0.50699 0.81553 0.0
C2304 C 0.76253 0.56519 0.78082 0.0
O2305 O 0.77907 0.56437 0.78992 0.0
H2306 H 0.75836 0.50026 0.78411 0.0
H2307 H 0.80601 0.53167 0.80356 0.0
O2308 O 0.77475 0.51288 0.74727 0.0
H2309 H 0.84431 0.56141 0.76023 0.0
H2310 H 0.79993 0.50407 0.82826 0.0
Cu2311 Cu 0.28186 0.52068 0.76999 0.0
N2312 N 0.28314 0.50639 0.79192 0.0
N2313 N 0.29512 0.48234 0.8087 0.0
C2314 C 0.29892 0.49723 0.79759 0.0
C2315 C 0.27621 0.48254 0.81058 0.0
C2316 C 0.26884 0.4974 0.80017 0.0
O2317 O 0.27504 0.5027 0.74967 0.0
C2318 C 0.30956 0.5482 0.75853 0.0
O2319 O 0.29941 0.54977 0.74264 0.0
H2320 H 0.31242 0.49967 0.79133 0.0
H2321 H 0.25401 0.50003 0.79703 0.0
N2322 N 0.26213 0.53791 0.76957 0.0
N2323 N 0.24863 0.56475 0.75931 0.0
C2324 C 0.26414 0.55679 0.76769 0.0
C2325 C 0.24446 0.53381 0.76303 0.0
C2326 C 0.23611 0.55025 0.75679 0.0
C2327 C 0.28044 0.48556 0.74968 0.0
O2328 O 0.29539 0.48093 0.76017 0.0
H2329 H 0.27722 0.56415 0.77132 0.0
H2330 H 0.23888 0.51962 0.76084 0.0
O2331 O 0.3055 0.53513 0.77003 0.0
H2332 H 0.26811 0.47169 0.8175 0.0
H2333 H 0.22256 0.551 0.74917 0.0
Cu2334 Cu 0.27056 0.513 0.25904 0.0
N2335 N 0.25094 0.49479 0.25987 0.0
N2336 N 0.23343 0.47129 0.2716 0.0
C2337 C 0.24644 0.48504 0.27545 0.0
C2338 C 0.22926 0.47257 0.2529 0.0
C2339 C 0.2401 0.48709 0.24567 0.0
O2340 O 0.29443 0.49841 0.25989 0.0
C2341 C 0.27265 0.54804 0.28208 0.0
O2342 O 0.28971 0.55108 0.27605 0.0
H2343 H 0.25302 0.48755 0.28933 0.0
H2344 H 0.24064 0.49117 0.23099 0.0
N2345 N 0.27098 0.52537 0.23553 0.0
N2346 N 0.27948 0.54759 0.21486 0.0
C2347 C 0.2738 0.54408 0.23249 0.0
C2348 C 0.27472 0.51691 0.21907 0.0
C2349 C 0.27995 0.53055 0.20633 0.0
C2350 C 0.2976 0.48323 0.26926 0.0
O2351 O 0.28677 0.47903 0.28324 0.0
H2352 H 0.27329 0.55479 0.24334 0.0
H2353 H 0.27523 0.50176 0.21703 0.0
O2354 O 0.26425 0.53236 0.27799 0.0
H2355 H 0.21986 0.46305 0.24488 0.0
H2356 H 0.28481 0.52805 0.19226 0.0
Cu2357 Cu 0.77153 0.52503 0.28226 0.0
N2358 N 0.77326 0.51135 0.30454 0.0
N2359 N 0.78503 0.48966 0.32435 0.0
C2360 C 0.78859 0.50151 0.31008 0.0
C2361 C 0.7668 0.4924 0.32829 0.0
C2362 C 0.75951 0.50585 0.31596 0.0
O2363 O 0.76762 0.50702 0.26171 0.0
C2364 C 0.79632 0.55359 0.26894 0.0
O2365 O 0.78526 0.55329 0.25355 0.0
H2366 H 0.80177 0.50203 0.30289 0.0
H2367 H 0.74494 0.51022 0.31446 0.0
N2368 N 0.7502 0.54005 0.28123 0.0
N2369 N 0.73373 0.56485 0.27049 0.0
C2370 C 0.75023 0.55887 0.27853 0.0
C2371 C 0.73289 0.5339 0.27537 0.0
C2372 C 0.72271 0.54912 0.26869 0.0
C2373 C 0.77689 0.49192 0.25968 0.0
O2374 O 0.7929 0.48978 0.26942 0.0
H2375 H 0.76272 0.56771 0.28064 0.0
H2376 H 0.72883 0.51916 0.27378 0.0
O2377 O 0.7937 0.54129 0.28165 0.0
H2378 H 0.75893 0.48413 0.3382 0.0
H2379 H 0.70919 0.54816 0.26101 0.0
Cu2380 Cu 0.54299 0.27796 0.78509 0.0
N2381 N 0.5276 0.27687 0.80594 0.0
N2382 N 0.50314 0.28381 0.82365 0.0
C2383 C 0.51149 0.28667 0.80709 0.0
C2384 C 0.51463 0.27185 0.8334 0.0
C2385 C 0.52968 0.26754 0.82242 0.0
O2386 O 0.52511 0.28037 0.76327 0.0
C2387 C 0.57487 0.29345 0.80258 0.0
O2388 O 0.57312 0.27711 0.81116 0.0
H2389 H 0.50632 0.29615 0.79612 0.0
H2390 H 0.54137 0.25845 0.82629 0.0
N2391 N 0.5568 0.25588 0.78109 0.0
N2392 N 0.57862 0.2376 0.76851 0.0
C2393 C 0.57032 0.25469 0.76835 0.0
C2394 C 0.55635 0.23885 0.78955 0.0
C2395 C 0.56973 0.2275 0.78173 0.0
C2396 C 0.51509 0.26537 0.76044 0.0
O2397 O 0.51801 0.25082 0.77163 0.0
H2398 H 0.57378 0.26617 0.75898 0.0
H2399 H 0.54698 0.23495 0.8006 0.0
O2400 O 0.56225 0.29793 0.78994 0.0
H2401 H 0.5123 0.26656 0.84745 0.0
H2402 H 0.57287 0.21305 0.78564 0.0
Cu2403 Cu 0.521 0.78603 0.74401 0.0
N2404 N 0.53831 0.78484 0.76496 0.0
N2405 N 0.56126 0.77301 0.78411 0.0
C2406 C 0.55201 0.77178 0.76706 0.0
C2407 C 0.55325 0.78757 0.793 0.0
C2408 C 0.5391 0.79481 0.78121 0.0
O2409 O 0.53684 0.7847 0.72212 0.0
C2410 C 0.49489 0.76699 0.7634 0.0
O2411 O 0.49879 0.78196 0.77393 0.0
H2412 H 0.55469 0.76114 0.75652 0.0
H2413 H 0.52968 0.8061 0.78457 0.0
N2414 N 0.50661 0.80833 0.74264 0.0
N2415 N 0.48215 0.82728 0.73563 0.0
C2416 C 0.48997 0.81024 0.73277 0.0
C2417 C 0.5095 0.8249 0.75181 0.0
C2418 C 0.49439 0.83657 0.7476 0.0
C2419 C 0.54934 0.79787 0.72221 0.0
O2420 O 0.54919 0.81087 0.73548 0.0
H2421 H 0.48343 0.79912 0.72409 0.0
H2422 H 0.52164 0.82829 0.76102 0.0
O2423 O 0.50295 0.76534 0.74772 0.0
H2424 H 0.55722 0.79256 0.8071 0.0
H2425 H 0.49255 0.85079 0.75286 0.0
Cu2426 Cu 0.50642 0.75959 0.25042 0.0
N2427 N 0.49269 0.75637 0.27211 0.0
N2428 N 0.47078 0.76342 0.29262 0.0
C2429 C 0.47819 0.76762 0.27593 0.0
C2430 C 0.48113 0.74898 0.29972 0.0
C2431 C 0.4946 0.74452 0.28692 0.0
O2432 O 0.48686 0.75859 0.22967 0.0
C2433 C 0.53337 0.78008 0.27039 0.0
O2434 O 0.53117 0.76484 0.28066 0.0
H2435 H 0.4736 0.77914 0.26686 0.0
H2436 H 0.50528 0.73379 0.28855 0.0
N2437 N 0.52346 0.74042 0.24569 0.0
N2438 N 0.54828 0.72728 0.23265 0.0
C2439 C 0.53808 0.74307 0.23443 0.0
C2440 C 0.5245 0.72232 0.25145 0.0
C2441 C 0.53985 0.71415 0.2434 0.0
C2442 C 0.47832 0.74249 0.22908 0.0
O2443 O 0.48352 0.72966 0.24155 0.0
H2444 H 0.54116 0.75639 0.22761 0.0
H2445 H 0.51486 0.71554 0.26082 0.0
O2446 O 0.52305 0.78186 0.25518 0.0
H2447 H 0.47917 0.74226 0.31323 0.0
H2448 H 0.54473 0.69986 0.24569 0.0
Cu2449 Cu 0.52668 0.27423 0.29127 0.0
N2450 N 0.51269 0.26928 0.31272 0.0
N2451 N 0.48986 0.25496 0.32865 0.0
C2452 C 0.49424 0.26405 0.31264 0.0
C2453 C 0.50602 0.25482 0.33945 0.0
C2454 C 0.52006 0.26357 0.32957 0.0
O2455 O 0.50917 0.28307 0.27116 0.0
C2456 C 0.55717 0.25034 0.2805 0.0
O2457 O 0.56149 0.26338 0.2682 0.0
H2458 H 0.48456 0.26532 0.30052 0.0
H2459 H 0.53496 0.26413 0.33367 0.0
N2460 N 0.54467 0.29379 0.29465 0.0
N2461 N 0.56895 0.31219 0.28611 0.0
C2462 C 0.55368 0.30172 0.2802 0.0
C2463 C 0.55428 0.29973 0.3104 0.0
C2464 C 0.56923 0.31108 0.30518 0.0
C2465 C 0.49477 0.27453 0.2637 0.0
O2466 O 0.49236 0.25638 0.26697 0.0
H2467 H 0.5501 0.29826 0.26559 0.0
H2468 H 0.55145 0.2951 0.32455 0.0
O2469 O 0.54138 0.25117 0.28844 0.0
H2470 H 0.50782 0.24796 0.35305 0.0
H2471 H 0.58004 0.31718 0.3147 0.0
C2472 C 0.21586 0.22337 0.10465 0.0
C2473 C 0.22943 0.21763 0.11852 0.0
C2474 C 0.22053 0.23616 0.09046 0.0
C2475 C 0.23894 0.24368 0.08963 0.0
H2476 H 0.20144 0.21807 0.10491 0.0
H2477 H 0.2097 0.24013 0.08001 0.0
S2478 S 0.27932 0.23402 0.12329 0.0
N2479 N 0.26182 0.22082 0.13092 0.0
N2480 N 0.27065 0.24501 0.10435 0.0
C2481 C 0.25266 0.23802 0.10341 0.0
C2482 C 0.2479 0.22494 0.11782 0.0
C2483 C 0.84311 0.24536 0.10505 0.0
C2484 C 0.8316 0.23734 0.11878 0.0
C2485 C 0.83534 0.25317 0.08823 0.0
C2486 C 0.81569 0.2531 0.08417 0.0
H2487 H 0.85835 0.24545 0.10719 0.0
H2488 H 0.84489 0.25911 0.07821 0.0
S2489 S 0.77903 0.23508 0.11567 0.0
N2490 N 0.79921 0.23096 0.12743 0.0
N2491 N 0.78478 0.2449 0.09555 0.0
C2492 C 0.80395 0.24517 0.09768 0.0
C2493 C 0.81184 0.23749 0.115 0.0
C2494 C 0.80036 0.82248 0.07103 0.0
C2495 C 0.79091 0.82517 0.08786 0.0
C2496 C 0.79157 0.8129 0.05552 0.0
C2497 C 0.77306 0.80535 0.05632 0.0
H2498 H 0.81467 0.82783 0.06985 0.0
H2499 H 0.79963 0.81084 0.04304 0.0
S2500 S 0.74221 0.8088 0.09724 0.0
N2501 N 0.76197 0.81982 0.10437 0.0
N2502 N 0.74552 0.80166 0.07542 0.0
C2503 C 0.7634 0.8082 0.07304 0.0
C2504 C 0.77229 0.81813 0.08873 0.0
C2505 C 0.24051 0.83629 0.06909 0.0
C2506 C 0.23528 0.82307 0.08284 0.0
C2507 C 0.25014 0.83074 0.05305 0.0
C2508 C 0.25496 0.81173 0.05007 0.0
H2509 H 0.23695 0.85105 0.07062 0.0
H2510 H 0.25358 0.84139 0.04276 0.0
S2511 S 0.24625 0.77192 0.08282 0.0
N2512 N 0.23674 0.79032 0.09299 0.0
N2513 N 0.25488 0.7799 0.06301 0.0
C2514 C 0.25011 0.79842 0.06389 0.0
C2515 C 0.24028 0.80408 0.0802 0.0
C2516 C 0.21936 0.81985 0.93355 0.0
C2517 C 0.21545 0.80837 0.91757 0.0
C2518 C 0.22895 0.81282 0.9497 0.0
C2519 C 0.23495 0.79394 0.95072 0.0
H2520 H 0.21555 0.83465 0.93333 0.0
H2521 H 0.23244 0.82253 0.96124 0.0
S2522 S 0.22733 0.75758 0.91328 0.0
N2523 N 0.21754 0.77679 0.90415 0.0
N2524 N 0.23549 0.76355 0.93473 0.0
C2525 C 0.2302 0.78192 0.93535 0.0
C2526 C 0.22046 0.78914 0.91873 0.0
C2527 C 0.23966 0.21963 0.97471 0.0
C2528 C 0.25156 0.2202 0.95935 0.0
C2529 C 0.24522 0.22779 0.99215 0.0
C2530 C 0.26292 0.23692 0.99503 0.0
H2531 H 0.22558 0.2135 0.97299 0.0
H2532 H 0.2351 0.2279 1.0032 0.0
S2533 S 0.29978 0.24141 0.95966 0.0
N2534 N 0.28233 0.22968 0.9484 0.0
N2535 N 0.29274 0.24522 0.98128 0.0
C2536 C 0.27546 0.23662 0.98017 0.0
C2537 C 0.26977 0.22822 0.9623 0.0
C2538 C 0.84779 0.23215 0.95422 0.0
C2539 C 0.83455 0.23123 0.93885 0.0
C2540 C 0.84248 0.23799 0.97217 0.0
C2541 C 0.82381 0.24338 0.97538 0.0
H2542 H 0.86214 0.22746 0.95258 0.0
H2543 H 0.85294 0.23781 0.98379 0.0
S2544 S 0.78422 0.24507 0.93932 0.0
N2545 N 0.80232 0.23746 0.92762 0.0
N2546 N 0.79231 0.24837 0.96132 0.0
C2547 C 0.81068 0.24345 0.95988 0.0
C2548 C 0.81605 0.23736 0.94164 0.0
C2549 C 0.81171 0.81897 0.9306 0.0
C2550 C 0.83033 0.82591 0.92931 0.0
C2551 C 0.80665 0.80735 0.9457 0.0
C2552 C 0.82003 0.80218 0.96003 0.0
H2553 H 0.80115 0.82199 0.91953 0.0
H2554 H 0.7923 0.80187 0.94586 0.0
S2555 S 0.86994 0.81871 0.96456 0.0
N2556 N 0.86169 0.82828 0.94466 0.0
N2557 N 0.85217 0.80636 0.97286 0.0
C2558 C 0.83846 0.80964 0.95929 0.0
C2559 C 0.8436 0.82153 0.944 0.0
C2560 C 0.09632 0.22827 0.22112 0.0
C2561 C 0.10991 0.21954 0.23331 0.0
C2562 C 0.08219 0.23973 0.22811 0.0
C2563 C 0.08072 0.24252 0.24757 0.0
H2564 H 0.09705 0.22681 0.20594 0.0
H2565 H 0.07248 0.24672 0.21825 0.0
S2566 S 0.11178 0.22235 0.28567 0.0
N2567 N 0.12046 0.21422 0.26598 0.0
N2568 N 0.09332 0.23519 0.27907 0.0
C2569 C 0.09346 0.23316 0.26001 0.0
C2570 C 0.10814 0.22173 0.2529 0.0
C2571 C 0.81467 0.09052 0.2257 0.0
C2572 C 0.81749 0.10789 0.2352 0.0
C2573 C 0.80856 0.07432 0.23531 0.0
C2574 C 0.80511 0.0749 0.25475 0.0
H2575 H 0.8177 0.08931 0.21089 0.0
H2576 H 0.80693 0.06112 0.22759 0.0
S2577 S 0.80796 0.11757 0.28539 0.0
N2578 N 0.81474 0.12511 0.26467 0.0
N2579 N 0.80324 0.09477 0.28263 0.0
C2580 C 0.80723 0.09236 0.2642 0.0
C2581 C 0.81341 0.10881 0.25444 0.0
C2582 C 0.94453 0.83886 0.20569 0.0
C2583 C 0.92959 0.82591 0.20161 0.0
C2584 C 0.96184 0.83298 0.21419 0.0
C2585 C 0.96497 0.81389 0.21897 0.0
H2586 H 0.94296 0.85363 0.202 0.0
H2587 H 0.97299 0.84342 0.21673 0.0
S2588 S 0.9296 0.77475 0.21335 0.0
N2589 N 0.91861 0.79337 0.20441 0.0
N2590 N 0.95094 0.78236 0.22029 0.0
C2591 C 0.94996 0.80089 0.21539 0.0
C2592 C 0.93235 0.80688 0.20675 0.0
C2593 C 0.20453 0.91941 0.24323 0.0
C2594 C 0.20438 0.92077 0.22335 0.0
C2595 C 0.21055 0.93462 0.2549 0.0
C2596 C 0.21681 0.9518 0.2472 0.0
H2597 H 0.20007 0.9064 0.24986 0.0
H2598 H 0.21065 0.93281 0.27008 0.0
S2599 S 0.21788 0.96331 0.19616 0.0
N2600 N 0.21011 0.94119 0.19656 0.0
N2601 N 0.2216 0.96964 0.21849 0.0
C2602 C 0.2166 0.95344 0.22739 0.0
C2603 C 0.21038 0.93798 0.21548 0.0
C2604 C 0.10307 0.8333 0.76291 0.0
C2605 C 0.10464 0.83756 0.78241 0.0
C2606 C 0.08708 0.82351 0.75494 0.0
C2607 C 0.07217 0.81779 0.76623 0.0
H2608 H 0.11472 0.83659 0.754 0.0
H2609 H 0.08698 0.81934 0.74021 0.0
S2610 S 0.06805 0.82813 0.81724 0.0
N2611 N 0.08878 0.83729 0.81214 0.0
N2612 N 0.0591 0.81888 0.79732 0.0
C2613 C 0.07306 0.82314 0.78538 0.0
C2614 C 0.08918 0.83304 0.79343 0.0
C2615 C 0.23044 0.11704 0.80032 0.0
C2616 C 0.22604 0.11803 0.81954 0.0
C2617 C 0.23919 0.10096 0.7929 0.0
C2618 C 0.24378 0.08537 0.80448 0.0
H2619 H 0.22797 0.12912 0.7912 0.0
H2620 H 0.24339 0.10123 0.77838 0.0
S2621 S 0.23221 0.07963 0.85479 0.0
N2622 N 0.22471 0.101 0.8492 0.0
N2623 N 0.24117 0.07108 0.83545 0.0
C2624 C 0.23823 0.08574 0.82332 0.0
C2625 C 0.22938 0.10198 0.8308 0.0
C2626 C 0.94913 0.25501 0.81019 0.0
C2627 C 0.95007 0.2357 0.81484 0.0
C2628 C 0.96508 0.26504 0.80453 0.0
C2629 C 0.98259 0.25617 0.80291 0.0
H2630 H 0.93623 0.26274 0.81212 0.0
H2631 H 0.96402 0.2802 0.80264 0.0
S2632 S 0.99226 0.20552 0.81166 0.0
N2633 N 0.96965 0.20772 0.81611 0.0
N2634 N 0.99969 0.22668 0.8051 0.0
C2635 C 0.98346 0.23659 0.80609 0.0
C2636 C 0.96715 0.22631 0.81207 0.0
C2637 C 0.83591 0.95772 0.79084 0.0
C2638 C 0.82692 0.94077 0.79632 0.0
C2639 C 0.82541 0.97308 0.78353 0.0
C2640 C 0.80559 0.97195 0.7815 0.0
H2641 H 0.85109 0.95941 0.79291 0.0
H2642 H 0.83274 0.98618 0.7804 0.0
S2643 S 0.77557 0.92984 0.79077 0.0
N2644 N 0.79724 0.92315 0.79688 0.0
N2645 N 0.7776 0.95195 0.78359 0.0
C2646 C 0.7966 0.95476 0.78591 0.0
C2647 C 0.80722 0.93919 0.79321 0.0
C2648 C 0.24228 0.08215 0.23359 0.0
C2649 C 0.22265 0.08379 0.22956 0.0
C2650 C 0.25014 0.06502 0.24028 0.0
C2651 C 0.23862 0.04896 0.243 0.0
H2652 H 0.25146 0.09445 0.23255 0.0
H2653 H 0.26502 0.06473 0.24453 0.0
S2654 S 0.18708 0.04493 0.23154 0.0
N2655 N 0.19246 0.06711 0.22654 0.0
N2656 N 0.20707 0.03522 0.23915 0.0
C2657 C 0.21928 0.05011 0.23773 0.0
C2658 C 0.21133 0.06743 0.23101 0.0
C2659 C 0.24118 0.95555 0.8044 0.0
C2660 C 0.23724 0.95034 0.82303 0.0
C2661 C 0.25078 0.97264 0.80057 0.0
C2662 C 0.25692 0.98508 0.81524 0.0
H2663 H 0.23733 0.94612 0.79275 0.0
H2664 H 0.2539 0.97588 0.7861 0.0
S2665 S 0.24779 0.97943 0.86607 0.0
N2666 N 0.23851 0.96014 0.85603 0.0
N2667 N 0.25676 0.99185 0.84881 0.0
C2668 C 0.25245 0.98038 0.83379 0.0
C2669 C 0.24255 0.96315 0.83768 0.0
C2670 C 0.11383 0.25505 0.83128 0.0
C2671 C 0.1165 0.2489 0.85009 0.0
C2672 C 0.0974 0.26471 0.82521 0.0
C2673 C 0.08297 0.26863 0.83771 0.0
H2674 H 0.12473 0.25279 0.82128 0.0
H2675 H 0.09617 0.26953 0.81072 0.0
S2676 S 0.082 0.25344 0.88779 0.0
N2677 N 0.10256 0.24603 0.88073 0.0
N2678 N 0.07181 0.26408 0.86936 0.0
C2679 C 0.08522 0.26203 0.85639 0.0
C2680 C 0.10191 0.25219 0.86255 0.0
C2681 C 0.82065 0.10472 0.7999 0.0
C2682 C 0.82743 0.10757 0.81867 0.0
C2683 C 0.80954 0.08875 0.79476 0.0
C2684 C 0.80479 0.07495 0.80816 0.0
H2685 H 0.82362 0.11511 0.78917 0.0
H2686 H 0.80436 0.08735 0.7802 0.0
S2687 S 0.82059 0.07486 0.8588 0.0
N2688 N 0.82959 0.09466 0.85047 0.0
N2689 N 0.80884 0.06467 0.84078 0.0
C2690 C 0.8118 0.07745 0.8269 0.0
C2691 C 0.8231 0.09372 0.83214 0.0
C2692 C 0.96576 0.81392 0.82255 0.0
C2693 C 0.94932 0.8189 0.81185 0.0
C2694 C 0.98079 0.80489 0.81416 0.0
C2695 C 0.98 0.80067 0.79477 0.0
H2696 H 0.967 0.81704 0.83754 0.0
H2697 H 0.99322 0.80134 0.82283 0.0
S2698 S 0.93972 0.80931 0.76078 0.0
N2699 N 0.93282 0.81794 0.781 0.0
N2700 N 0.96121 0.80119 0.76524 0.0
C2701 C 0.96367 0.80545 0.78391 0.0
C2702 C 0.94831 0.81454 0.79245 0.0
C2703 C 0.81777 0.96362 0.21467 0.0
C2704 C 0.80686 0.94721 0.21067 0.0
C2705 C 0.81015 0.97919 0.22378 0.0
C2706 C 0.79126 0.97912 0.22921 0.0
H2707 H 0.83253 0.96423 0.21123 0.0
H2708 H 0.81941 0.99113 0.2273 0.0
S2709 S 0.75636 0.94005 0.22122 0.0
N2710 N 0.77587 0.93214 0.21214 0.0
N2711 N 0.76152 0.96158 0.22916 0.0
C2712 C 0.77984 0.96326 0.22439 0.0
C2713 C 0.78765 0.94727 0.21516 0.0
C2714 C 0.07863 0.80694 0.17756 0.0
C2715 C 0.09377 0.79436 0.17669 0.0
C2716 C 0.06214 0.80195 0.18666 0.0
C2717 C 0.06005 0.78416 0.19525 0.0
H2718 H 0.08002 0.82121 0.17219 0.0
H2719 H 0.05144 0.81262 0.18811 0.0
S2720 S 0.09462 0.74526 0.19495 0.0
N2721 N 0.10495 0.76266 0.18354 0.0
N2722 N 0.0738 0.75324 0.20074 0.0
C2723 C 0.07437 0.77083 0.19309 0.0
C2724 C 0.0913 0.77595 0.18379 0.0
C2725 C 0.94399 0.22559 0.27828 0.0
C2726 C 0.9445 0.22248 0.25865 0.0
C2727 C 0.96001 0.23209 0.28892 0.0
C2728 C 0.97733 0.23562 0.28044 0.0
H2729 H 0.93103 0.22304 0.2855 0.0
H2730 H 0.95868 0.23451 0.3039 0.0
S2731 S 0.98628 0.22889 0.22946 0.0
N2732 N 0.96381 0.22289 0.2312 0.0
N2733 N 0.99396 0.23503 0.25098 0.0
C2734 C 0.97806 0.23234 0.26077 0.0
C2735 C 0.96165 0.22586 0.24994 0.0
C2736 C 0.23992 0.72881 0.57632 0.0
C2737 C 0.24831 0.72834 0.59467 0.0
C2738 C 0.24947 0.73673 0.5612 0.0
C2739 C 0.26771 0.74487 0.56388 0.0
H2740 H 0.22563 0.72343 0.57372 0.0
H2741 H 0.24202 0.73736 0.54753 0.0
S2742 S 0.29633 0.74609 0.60909 0.0
N2743 N 0.2763 0.73563 0.61453 0.0
N2744 N 0.29419 0.75078 0.58626 0.0
C2745 C 0.27656 0.74372 0.58205 0.0
C2746 C 0.26689 0.73542 0.59739 0.0
C2747 C 0.80741 0.72011 0.56516 0.0
C2748 C 0.80972 0.73196 0.58117 0.0
C2749 C 0.79853 0.72667 0.5482 0.0
C2750 C 0.79165 0.74523 0.54685 0.0
H2751 H 0.81357 0.70616 0.56537 0.0
H2752 H 0.79826 0.71768 0.53578 0.0
S2753 S 0.79157 0.78066 0.58552 0.0
N2754 N 0.80236 0.76223 0.59513 0.0
N2755 N 0.78589 0.7745 0.56348 0.0
C2756 C 0.79265 0.75659 0.56317 0.0
C2757 C 0.80162 0.74998 0.58029 0.0
C2758 C 0.80438 0.30883 0.6061 0.0
C2759 C 0.82302 0.31517 0.61052 0.0
C2760 C 0.80029 0.29584 0.59132 0.0
C2761 C 0.81465 0.28855 0.58033 0.0
H2762 H 0.79285 0.31372 0.61432 0.0
H2763 H 0.78576 0.29127 0.58863 0.0
S2764 S 0.86553 0.30187 0.5848 0.0
N2765 N 0.85581 0.31401 0.6017 0.0
N2766 N 0.84812 0.28956 0.57419 0.0
C2767 C 0.8333 0.29495 0.5844 0.0
C2768 C 0.83747 0.30824 0.59938 0.0
C2769 C 0.21001 0.2987 0.61257 0.0
C2770 C 0.21144 0.3186 0.61249 0.0
C2771 C 0.21484 0.28801 0.59682 0.0
C2772 C 0.22138 0.29688 0.58059 0.0
H2773 H 0.20576 0.29131 0.62511 0.0
H2774 H 0.21422 0.27272 0.5976 0.0
S2775 S 0.22509 0.34845 0.57213 0.0
N2776 N 0.21785 0.3467 0.59391 0.0
N2777 N 0.22731 0.32651 0.56456 0.0
C2778 C 0.22208 0.3167 0.57999 0.0
C2779 C 0.21702 0.32759 0.59589 0.0
C2780 C 0.23426 0.32107 0.4669 0.0
C2781 C 0.24205 0.32291 0.44905 0.0
C2782 C 0.24523 0.31518 0.48274 0.0
C2783 C 0.26449 0.31067 0.48147 0.0
H2784 H 0.21939 0.32376 0.46854 0.0
H2785 H 0.23827 0.3135 0.49597 0.0
S2786 S 0.29191 0.3142 0.438 0.0
N2787 N 0.27038 0.32069 0.43111 0.0
N2788 N 0.29106 0.30952 0.4608 0.0
C2789 C 0.27267 0.31328 0.46382 0.0
C2790 C 0.26145 0.31941 0.44767 0.0
C2791 C 0.23024 0.73926 0.42428 0.0
C2792 C 0.22532 0.71989 0.42467 0.0
C2793 C 0.23185 0.75008 0.44097 0.0
C2794 C 0.22809 0.74205 0.45858 0.0
H2795 H 0.23275 0.74612 0.41094 0.0
H2796 H 0.23566 0.76493 0.44009 0.0
S2797 S 0.21526 0.69187 0.46733 0.0
N2798 N 0.21722 0.69305 0.4442 0.0
N2799 N 0.22 0.7134 0.4755 0.0
C2800 C 0.22338 0.72266 0.45919 0.0
C2801 C 0.22207 0.71158 0.44225 0.0
C2802 C 0.84142 0.7358 0.42244 0.0
C2803 C 0.82893 0.72831 0.40822 0.0
C2804 C 0.83469 0.74529 0.43827 0.0
C2805 C 0.81517 0.74771 0.44059 0.0
H2806 H 0.85653 0.73398 0.42154 0.0
H2807 H 0.84488 0.75048 0.44896 0.0
S2808 S 0.77664 0.73242 0.4064 0.0
N2809 N 0.79614 0.72521 0.39685 0.0
N2810 N 0.78356 0.74279 0.42647 0.0
C2811 C 0.80257 0.74063 0.42624 0.0
C2812 C 0.80942 0.73103 0.41012 0.0
C2813 C 0.82655 0.30313 0.46229 0.0
C2814 C 0.81396 0.30882 0.44756 0.0
C2815 C 0.82003 0.29381 0.47824 0.0
C2816 C 0.80065 0.28993 0.48023 0.0
H2817 H 0.84156 0.30609 0.46162 0.0
H2818 H 0.83033 0.28953 0.48911 0.0
S2819 S 0.76192 0.30072 0.4452 0.0
N2820 N 0.78118 0.30903 0.43558 0.0
N2821 N 0.76899 0.29183 0.46583 0.0
C2822 C 0.78786 0.29552 0.46567 0.0
C2823 C 0.79451 0.30486 0.44928 0.0
C2824 C 0.11205 0.74617 0.70515 0.0
C2825 C 0.11874 0.72772 0.70784 0.0
C2826 C 0.09409 0.75124 0.71101 0.0
C2827 C 0.08217 0.73804 0.71977 0.0
H2828 H 0.12101 0.75691 0.69912 0.0
H2829 H 0.08961 0.76567 0.70881 0.0
S2830 S 0.09279 0.68745 0.72872 0.0
N2831 N 0.11157 0.69581 0.71837 0.0
N2832 N 0.07838 0.70549 0.73022 0.0
C2833 C 0.08853 0.71937 0.72191 0.0
C2834 C 0.10666 0.71418 0.71574 0.0
C2835 C 0.81506 0.61746 0.72124 0.0
C2836 C 0.83271 0.61901 0.71291 0.0
C2837 C 0.81042 0.60176 0.7324 0.0
C2838 C 0.82317 0.58682 0.73559 0.0
H2839 H 0.80476 0.62856 0.7192 0.0
H2840 H 0.79676 0.60141 0.73868 0.0
S2841 S 0.87073 0.58343 0.71565 0.0
N2842 N 0.86272 0.60399 0.708 0.0
N2843 N 0.85395 0.57432 0.72848 0.0
C2844 C 0.84083 0.58815 0.72714 0.0
C2845 C 0.84559 0.60425 0.71594 0.0
C2846 C 0.94641 0.35492 0.75231 0.0
C2847 C 0.933 0.34082 0.7468 0.0
C2848 C 0.96271 0.35054 0.7635 0.0
C2849 C 0.96626 0.33189 0.76955 0.0
H2850 H 0.94458 0.36933 0.74747 0.0
H2851 H 0.9729 0.3617 0.76695 0.0
S2852 S 0.93425 0.2904 0.76132 0.0
N2853 N 0.92347 0.30786 0.74998 0.0
N2854 N 0.95402 0.29968 0.77072 0.0
C2855 C 0.95258 0.31787 0.76477 0.0
C2856 C 0.93599 0.32232 0.75349 0.0
C2857 C 0.23493 0.45935 0.734 0.0
C2858 C 0.24078 0.44052 0.73221 0.0
C2859 C 0.248 0.474 0.73863 0.0
C2860 C 0.26742 0.47036 0.74196 0.0
H2861 H 0.22014 0.4628 0.73174 0.0
H2862 H 0.24269 0.48818 0.7402 0.0
S2863 S 0.2899 0.42332 0.73896 0.0
N2864 N 0.26726 0.41901 0.7339 0.0
N2865 N 0.29174 0.44634 0.74279 0.0
C2866 C 0.27342 0.45156 0.73999 0.0
C2867 C 0.26015 0.43672 0.73509 0.0
C2868 C 0.10671 0.27787 0.33582 0.0
C2869 C 0.10438 0.29716 0.33983 0.0
C2870 C 0.09124 0.26633 0.3298 0.0
C2871 C 0.07276 0.27355 0.3278 0.0
H2872 H 0.12072 0.27186 0.33646 0.0
H2873 H 0.09396 0.25181 0.32596 0.0
S2874 S 0.05899 0.32274 0.33916 0.0
N2875 N 0.08215 0.32265 0.34309 0.0
N2876 N 0.05301 0.30105 0.33232 0.0
C2877 C 0.07015 0.29259 0.33306 0.0
C2878 C 0.08597 0.30437 0.33888 0.0
C2879 C 0.23117 0.57846 0.29672 0.0
C2880 C 0.2398 0.59574 0.30246 0.0
C2881 C 0.2419 0.56294 0.29099 0.0
C2882 C 0.26182 0.564 0.29045 0.0
H2883 H 0.21592 0.5769 0.29662 0.0
H2884 H 0.23441 0.55016 0.28643 0.0
S2885 S 0.29143 0.60607 0.30416 0.0
N2886 N 0.26959 0.61288 0.30738 0.0
N2887 N 0.28967 0.58397 0.29661 0.0
C2888 C 0.27064 0.58115 0.29641 0.0
C2889 C 0.2597 0.59689 0.30241 0.0
C2890 C 0.96064 0.71871 0.27716 0.0
C2891 C 0.94608 0.73087 0.28244 0.0
C2892 C 0.97641 0.72565 0.26771 0.0
C2893 C 0.97803 0.74492 0.26321 0.0
H2894 H 0.96024 0.70392 0.2811 0.0
H2895 H 0.98782 0.71613 0.26487 0.0
S2896 S 0.9426 0.78196 0.27122 0.0
N2897 N 0.93341 0.76261 0.28032 0.0
N2898 N 0.96307 0.77564 0.26303 0.0
C2899 C 0.96309 0.75692 0.26742 0.0
C2900 C 0.94711 0.74991 0.27691 0.0
C2901 C 0.81576 0.44707 0.32184 0.0
C2902 C 0.81903 0.44238 0.34098 0.0
C2903 C 0.80481 0.46267 0.31656 0.0
C2904 C 0.7966 0.47405 0.33021 0.0
H2905 H 0.8213 0.43836 0.31081 0.0
H2906 H 0.80233 0.46559 0.30166 0.0
S2907 S 0.80193 0.46888 0.3821 0.0
N2908 N 0.81416 0.45126 0.37367 0.0
N2909 N 0.79302 0.48027 0.36349 0.0
C2910 C 0.79989 0.46975 0.34933 0.0
C2911 C 0.81126 0.454 0.35478 0.0
C2912 C 0.22605 0.60712 0.73596 0.0
C2913 C 0.24156 0.61776 0.72984 0.0
C2914 C 0.2286 0.59044 0.74632 0.0
C2915 C 0.24677 0.58338 0.75084 0.0
H2916 H 0.21173 0.61149 0.73237 0.0
H2917 H 0.21612 0.58283 0.75054 0.0
S2918 S 0.2921 0.60738 0.73964 0.0
N2919 N 0.27564 0.62131 0.7305 0.0
N2920 N 0.28072 0.58949 0.7491 0.0
C2921 C 0.26247 0.59435 0.74532 0.0
C2922 C 0.25978 0.61155 0.73496 0.0
C2923 C 0.23691 0.43099 0.30618 0.0
C2924 C 0.21784 0.42669 0.3097 0.0
C2925 C 0.24185 0.44561 0.29384 0.0
C2926 C 0.22797 0.45633 0.28417 0.0
H2927 H 0.2482 0.4229 0.31289 0.0
H2928 H 0.25667 0.4484 0.29162 0.0
S2929 S 0.17622 0.45183 0.2886 0.0
N2930 N 0.18504 0.43541 0.30287 0.0
N2931 N 0.19453 0.46214 0.27899 0.0
C2932 C 0.20893 0.45223 0.28729 0.0
C2933 C 0.20382 0.4376 0.30018 0.0
C2934 C 0.0984 0.72517 0.30434 0.0
C2935 C 0.11347 0.72039 0.29292 0.0
C2936 C 0.0831 0.73587 0.29733 0.0
C2937 C 0.08198 0.74209 0.27849 0.0
H2938 H 0.09886 0.72129 0.31915 0.0
H2939 H 0.0722 0.73965 0.30686 0.0
S2940 S 0.11703 0.73259 0.24232 0.0
N2941 N 0.12585 0.72211 0.26153 0.0
N2942 N 0.09681 0.74192 0.24819 0.0
C2943 C 0.09636 0.73657 0.26657 0.0
C2944 C 0.11213 0.72577 0.2738 0.0
C2945 C 0.82718 0.58836 0.29782 0.0
C2946 C 0.82821 0.60416 0.28594 0.0
C2947 C 0.81765 0.57177 0.29179 0.0
C2948 C 0.80854 0.57038 0.2737 0.0
H2949 H 0.83378 0.58884 0.31191 0.0
H2950 H 0.81704 0.56012 0.30166 0.0
S2951 S 0.80724 0.60811 0.23723 0.0
N2952 N 0.81963 0.61755 0.25526 0.0
N2953 N 0.80153 0.58647 0.24387 0.0
C2954 C 0.80977 0.58608 0.26156 0.0
C2955 C 0.81963 0.60293 0.26769 0.0
C2956 C 0.94058 0.31848 0.3125 0.0
C2957 C 0.94171 0.32256 0.332 0.0
C2958 C 0.95692 0.31468 0.30258 0.0
C2959 C 0.97495 0.31542 0.31171 0.0
H2960 H 0.92695 0.31804 0.30493 0.0
H2961 H 0.95552 0.31127 0.28767 0.0
S2962 S 0.98554 0.32541 0.3625 0.0
N2963 N 0.96228 0.32689 0.36004 0.0
N2964 N 0.99296 0.32024 0.34133 0.0
C2965 C 0.97626 0.31959 0.33114 0.0
C2966 C 0.95964 0.32305 0.3413 0.0
C2967 C 0.80521 0.46904 0.70535 0.0
C2968 C 0.80402 0.45357 0.71772 0.0
C2969 C 0.7982 0.4869 0.71016 0.0
C2970 C 0.78939 0.48996 0.72739 0.0
H2971 H 0.81261 0.46762 0.69236 0.0
H2972 H 0.8004 0.49862 0.70064 0.0
S2973 S 0.78117 0.45342 0.76388 0.0
N2974 N 0.7923 0.44208 0.74734 0.0
N2975 N 0.77877 0.47534 0.75622 0.0
C2976 C 0.78704 0.47422 0.73931 0.0
C2977 C 0.79448 0.45615 0.73454 0.0
C2978 C 0.0971 0.3107 0.74269 0.0
C2979 C 0.1015 0.33003 0.73992 0.0
C2980 C 0.08109 0.30496 0.75242 0.0
C2981 C 0.06895 0.31833 0.75992 0.0
H2982 H 0.10629 0.29988 0.73757 0.0
H2983 H 0.07859 0.28999 0.75464 0.0
S2984 S 0.0729 0.37053 0.755 0.0
N2985 N 0.09136 0.3624 0.74423 0.0
N2986 N 0.0617 0.35171 0.76289 0.0
C2987 C 0.07291 0.33765 0.75688 0.0
C2988 C 0.08908 0.34348 0.74684 0.0
C2989 C 0.9445 0.76644 0.70362 0.0
C2990 C 0.94679 0.74989 0.69294 0.0
C2991 C 0.96019 0.77596 0.71232 0.0
C2992 C 0.97873 0.76951 0.71026 0.0
H2993 H 0.93042 0.77123 0.70643 0.0
H2994 H 0.95771 0.78757 0.72187 0.0
S2995 S 0.99233 0.72773 0.68252 0.0
N2996 N 0.96902 0.72813 0.67987 0.0
N2997 N 0.99845 0.74621 0.69586 0.0
C2998 C 0.98122 0.75377 0.69852 0.0
C2999 C 0.96527 0.74391 0.68995 0.0
C3000 C 0.74185 0.2378 0.59786 0.0
C3001 C 0.7251 0.2269 0.59695 0.0
C3002 C 0.74924 0.24553 0.58147 0.0
C3003 C 0.74018 0.24254 0.56362 0.0
H3004 H 0.74989 0.23936 0.61116 0.0
H3005 H 0.76295 0.25258 0.58257 0.0
S3006 S 0.6953 0.21612 0.55389 0.0
N3007 N 0.69895 0.21461 0.57705 0.0
N3008 N 0.7131 0.22885 0.54614 0.0
C3009 C 0.72284 0.23268 0.56268 0.0
C3010 C 0.71521 0.22491 0.57941 0.0
C3011 C 0.30984 0.25441 0.61112 0.0
C3012 C 0.32955 0.25465 0.60922 0.0
C3013 C 0.29735 0.25874 0.59592 0.0
C3014 C 0.3039 0.26376 0.5781 0.0
H3015 H 0.30394 0.25047 0.62443 0.0
H3016 H 0.2823 0.25771 0.59805 0.0
S3017 S 0.35409 0.26739 0.5656 0.0
N3018 N 0.35507 0.26091 0.58803 0.0
N3019 N 0.33141 0.26947 0.55954 0.0
C3020 C 0.32354 0.26498 0.57612 0.0
C3021 C 0.33639 0.26034 0.59164 0.0
C3022 C 0.29001 0.83038 0.59914 0.0
C3023 C 0.28925 0.85026 0.60064 0.0
C3024 C 0.28107 0.82066 0.58383 0.0
C3025 C 0.27072 0.83038 0.56961 0.0
H3026 H 0.29733 0.82218 0.61001 0.0
H3027 H 0.28196 0.80539 0.58322 0.0
S3028 S 0.26544 0.8822 0.56565 0.0
N3029 N 0.27835 0.87929 0.5854 0.0
N3030 N 0.26082 0.86072 0.55728 0.0
C3031 C 0.26987 0.85011 0.57074 0.0
C3032 C 0.2793 0.86011 0.58608 0.0
C3033 C 0.73407 0.812 0.5784 0.0
C3034 C 0.72865 0.831 0.57992 0.0
C3035 C 0.74288 0.80535 0.56227 0.0
C3036 C 0.74653 0.81739 0.54695 0.0
H3037 H 0.73188 0.8023 0.58994 0.0
H3038 H 0.74719 0.79072 0.56199 0.0
S3039 S 0.73303 0.86788 0.54315 0.0
N3040 N 0.72635 0.86145 0.56426 0.0
N3041 N 0.74248 0.84895 0.5339 0.0
C3042 C 0.74063 0.8363 0.54812 0.0
C3043 C 0.7318 0.84308 0.56459 0.0
C3044 C 0.70037 0.78189 0.43735 0.0
C3045 C 0.70678 0.78565 0.41914 0.0
C3046 C 0.71316 0.77691 0.45238 0.0
C3047 C 0.73269 0.77568 0.44958 0.0
H3048 H 0.68567 0.78406 0.44029 0.0
H3049 H 0.70796 0.77545 0.46647 0.0
S3050 S 0.75606 0.78155 0.40406 0.0
N3051 N 0.7335 0.78542 0.3988 0.0
N3052 N 0.75738 0.77678 0.42689 0.0
C3053 C 0.73891 0.77807 0.43116 0.0
C3054 C 0.726 0.78284 0.41598 0.0
C3055 C 0.73791 0.18652 0.44623 0.0
C3056 C 0.73313 0.19861 0.43098 0.0
C3057 C 0.74775 0.19324 0.46264 0.0
C3058 C 0.75322 0.21239 0.46463 0.0
H3059 H 0.73402 0.17166 0.44548 0.0
H3060 H 0.75099 0.18337 0.47394 0.0
S3061 S 0.74523 0.24976 0.42847 0.0
N3062 N 0.73529 0.23061 0.41876 0.0
N3063 N 0.75373 0.24324 0.44951 0.0
C3064 C 0.74853 0.22467 0.44952 0.0
C3065 C 0.7385 0.2178 0.43277 0.0
C3066 C 0.3053 0.19901 0.46309 0.0
C3067 C 0.30738 0.20969 0.44656 0.0
C3068 C 0.29629 0.20648 0.47861 0.0
C3069 C 0.28899 0.22487 0.47814 0.0
H3070 H 0.3107 0.18475 0.46402 0.0
H3071 H 0.29522 0.19785 0.49114 0.0
S3072 S 0.28966 0.25807 0.43759 0.0
N3073 N 0.30087 0.23924 0.4303 0.0
N3074 N 0.28362 0.25325 0.45933 0.0
C3075 C 0.29085 0.23565 0.4616 0.0
C3076 C 0.30015 0.22807 0.44585 0.0
C3077 C 0.31123 0.79174 0.43953 0.0
C3078 C 0.31337 0.81159 0.44024 0.0
C3079 C 0.3052 0.78139 0.45511 0.0
C3080 C 0.30099 0.7904 0.47215 0.0
H3081 H 0.31391 0.78412 0.42666 0.0
H3082 H 0.30335 0.76623 0.45355 0.0
S3083 S 0.30574 0.842 0.48189 0.0
N3084 N 0.3119 0.83975 0.45979 0.0
N3085 N 0.30038 0.82044 0.48903 0.0
C3086 C 0.3035 0.81024 0.47321 0.0
C3087 C 0.30966 0.82077 0.45729 0.0
C3088 C 0.60798 0.20653 0.73819 0.0
C3089 C 0.6223 0.219 0.73247 0.0
C3090 C 0.59389 0.21262 0.75011 0.0
C3091 C 0.59361 0.23139 0.75682 0.0
H3092 H 0.60746 0.19206 0.73309 0.0
H3093 H 0.58289 0.20268 0.75379 0.0
S3094 S 0.62939 0.26884 0.74795 0.0
N3095 N 0.63622 0.2505 0.73562 0.0
N3096 N 0.61 0.26185 0.75821 0.0
C3097 C 0.60824 0.24379 0.7517 0.0
C3098 C 0.6225 0.23762 0.73949 0.0
C3099 C 0.33737 0.13449 0.75349 0.0
C3100 C 0.33788 0.13327 0.73366 0.0
C3101 C 0.33103 0.1192 0.76433 0.0
C3102 C 0.32492 0.10201 0.75583 0.0
H3103 H 0.34158 0.14751 0.76069 0.0
H3104 H 0.33054 0.12102 0.77948 0.0
S3105 S 0.3253 0.09078 0.70463 0.0
N3106 N 0.33292 0.11294 0.70612 0.0
N3107 N 0.32107 0.0843 0.72644 0.0
C3108 C 0.32575 0.10045 0.73606 0.0
C3109 C 0.3322 0.11602 0.72502 0.0
C3110 C 0.44288 0.84004 0.70045 0.0
C3111 C 0.42906 0.84785 0.71187 0.0
C3112 C 0.46004 0.83312 0.70829 0.0
C3113 C 0.4643 0.83405 0.72783 0.0
H3114 H 0.44054 0.83943 0.68524 0.0
H3115 H 0.47024 0.82733 0.69898 0.0
S3116 S 0.4328 0.85148 0.7643 0.0
N3117 N 0.4206 0.8546 0.74416 0.0
N3118 N 0.45317 0.84242 0.75858 0.0
C3119 C 0.45072 0.84164 0.73946 0.0
C3120 C 0.43308 0.84835 0.73158 0.0
C3121 C 0.70097 0.95069 0.72276 0.0
C3122 C 0.71236 0.93533 0.71807 0.0
C3123 C 0.70846 0.96623 0.73313 0.0
C3124 C 0.72764 0.96704 0.73924 0.0
H3125 H 0.68615 0.95075 0.71828 0.0
H3126 H 0.69922 0.97781 0.7362 0.0
S3127 S 0.76303 0.92965 0.73218 0.0
N3128 N 0.74352 0.92143 0.72125 0.0
N3129 N 0.75757 0.95049 0.74083 0.0
C3130 C 0.73912 0.95164 0.73487 0.0
C3131 C 0.7315 0.93585 0.72426 0.0
C3132 C 0.56804 0.80593 0.30366 0.0
C3133 C 0.58262 0.81163 0.29197 0.0
C3134 C 0.5515 0.79705 0.2962 0.0
C3135 C 0.54864 0.79361 0.27668 0.0
H3136 H 0.56959 0.80794 0.31882 0.0
H3137 H 0.54111 0.79217 0.30594 0.0
S3138 S 0.58217 0.80588 0.23977 0.0
N3139 N 0.59289 0.81341 0.25964 0.0
N3140 N 0.56162 0.79685 0.24571 0.0
C3141 C 0.56267 0.7999 0.26467 0.0
C3142 C 0.57968 0.80888 0.27228 0.0
C3143 C 0.71439 0.08132 0.28317 0.0
C3144 C 0.70838 0.08359 0.30175 0.0
C3145 C 0.72275 0.06439 0.2774 0.0
C3146 C 0.7253 0.04919 0.29003 0.0
H3147 H 0.71347 0.09301 0.27333 0.0
H3148 H 0.72827 0.06366 0.2634 0.0
S3149 S 0.70898 0.04691 0.33909 0.0
N3150 N 0.70337 0.06838 0.33185 0.0
N3151 N 0.71904 0.03675 0.32115 0.0
C3152 C 0.71812 0.05089 0.30817 0.0
C3153 C 0.70969 0.06803 0.314 0.0
C3154 C 0.43783 0.24468 0.33278 0.0
C3155 C 0.43751 0.22596 0.3396 0.0
C3156 C 0.45493 0.25392 0.32884 0.0
C3157 C 0.47239 0.24497 0.33204 0.0
H3158 H 0.42474 0.25234 0.33075 0.0
H3159 H 0.45457 0.26836 0.32378 0.0
S3160 S 0.47927 0.19575 0.34882 0.0
N3161 N 0.45614 0.19857 0.34858 0.0
N3162 N 0.48824 0.21597 0.34143 0.0
C3163 C 0.47224 0.22612 0.33844 0.0
C3164 C 0.45482 0.21661 0.34213 0.0
C3165 C 0.29578 0.92715 0.30689 0.0
C3166 C 0.31566 0.92719 0.3075 0.0
C3167 C 0.28554 0.94254 0.29966 0.0
C3168 C 0.29463 0.9587 0.29251 0.0
H3169 H 0.28799 0.91517 0.31228 0.0
H3170 H 0.27026 0.94196 0.3001 0.0
S3171 S 0.34637 0.96604 0.29036 0.0
N3172 N 0.34412 0.94487 0.29993 0.0
N3173 N 0.32465 0.9737 0.28605 0.0
C3174 C 0.31444 0.95875 0.29229 0.0
C3175 C 0.32499 0.94305 0.29985 0.0
C3176 C 0.75421 0.10147 0.73389 0.0
C3177 C 0.74555 0.10083 0.71565 0.0
C3178 C 0.7622 0.08532 0.7422 0.0
C3179 C 0.76194 0.06788 0.73259 0.0
H3180 H 0.75379 0.11431 0.74225 0.0
H3181 H 0.76746 0.08616 0.75679 0.0
S3182 S 0.74257 0.05902 0.68391 0.0
N3183 N 0.73854 0.08168 0.68761 0.0
N3184 N 0.75357 0.05119 0.70338 0.0
C3185 C 0.75463 0.06732 0.71384 0.0
C3186 C 0.74644 0.08385 0.70532 0.0
C3187 C 0.71333 0.9368 0.31252 0.0
C3188 C 0.72182 0.91915 0.31575 0.0
C3189 C 0.72412 0.95262 0.30715 0.0
C3190 C 0.74374 0.95133 0.30491 0.0
H3191 H 0.69842 0.93854 0.3148 0.0
H3192 H 0.71719 0.96609 0.30531 0.0
S3193 S 0.77203 0.90761 0.30889 0.0
N3194 N 0.75055 0.90086 0.31439 0.0
N3195 N 0.7707 0.93046 0.3043 0.0
C3196 C 0.75215 0.93354 0.30724 0.0
C3197 C 0.74122 0.91749 0.31263 0.0
C3198 C 0.58715 0.22314 0.31697 0.0
C3199 C 0.60398 0.2199 0.30769 0.0
C3200 C 0.57165 0.23192 0.30769 0.0
C3201 C 0.57244 0.23814 0.28881 0.0
H3202 H 0.586 0.21897 0.33159 0.0
H3203 H 0.55924 0.23455 0.31568 0.0
S3204 S 0.61319 0.23254 0.25809 0.0
N3205 N 0.62036 0.22307 0.27842 0.0
N3206 N 0.59144 0.2398 0.26106 0.0
C3207 C 0.58909 0.2346 0.27927 0.0
C3208 C 0.60477 0.22543 0.28867 0.0
C3209 C 0.31407 0.08741 0.30918 0.0
C3210 C 0.32182 0.08936 0.32772 0.0
C3211 C 0.30196 0.0721 0.30411 0.0
C3212 C 0.29709 0.05823 0.31741 0.0
H3213 H 0.31672 0.09821 0.29876 0.0
H3214 H 0.29584 0.07147 0.28984 0.0
S3215 S 0.31578 0.05551 0.36706 0.0
N3216 N 0.32526 0.07515 0.35888 0.0
N3217 N 0.30259 0.0465 0.34935 0.0
C3218 C 0.30546 0.05959 0.33573 0.0
C3219 C 0.31781 0.07509 0.34086 0.0
C3220 C 0.44345 0.78815 0.32943 0.0
C3221 C 0.42722 0.79431 0.31908 0.0
C3222 C 0.45748 0.77782 0.32078 0.0
C3223 C 0.45589 0.77337 0.30143 0.0
H3224 H 0.44535 0.79141 0.34435 0.0
H3225 H 0.46982 0.77355 0.3292 0.0
S3226 S 0.4157 0.78492 0.26829 0.0
N3227 N 0.41001 0.79431 0.28861 0.0
N3228 N 0.43652 0.77509 0.27233 0.0
C3229 C 0.43973 0.77932 0.29093 0.0
C3230 C 0.42539 0.78975 0.29974 0.0
C3231 C 0.30457 0.98731 0.71563 0.0
C3232 C 0.30785 0.97045 0.72581 0.0
C3233 C 0.2982 1.00371 0.72468 0.0
C3234 C 0.29471 1.00358 0.74407 0.0
H3235 H 0.30797 0.98811 0.70089 0.0
H3236 H 0.29713 0.01677 0.71676 0.0
S3237 S 0.29861 0.96242 0.7763 0.0
N3238 N 0.30527 0.95424 0.75579 0.0
N3239 N 0.29332 0.98483 0.77266 0.0
C3240 C 0.29674 0.98648 0.75399 0.0
C3241 C 0.30329 0.96996 0.7449 0.0
C3242 C 0.58105 0.80614 0.68119 0.0
C3243 C 0.59911 0.80624 0.69041 0.0
C3244 C 0.5647 0.80172 0.69111 0.0
C3245 C 0.56604 0.79719 0.71045 0.0
H3246 H 0.57944 0.81073 0.66664 0.0
H3247 H 0.55095 0.80313 0.68397 0.0
S3248 S 0.61011 0.7929 0.74025 0.0
N3249 N 0.61738 0.79937 0.71935 0.0
N3250 N 0.58683 0.79127 0.73787 0.0
C3251 C 0.58408 0.79594 0.71935 0.0
C3252 C 0.60059 0.80038 0.70935 0.0
C3253 C 0.46603 0.26946 0.73772 0.0
C3254 C 0.46453 0.25257 0.72711 0.0
C3255 C 0.4833 0.27498 0.74699 0.0
C3256 C 0.49948 0.26372 0.74593 0.0
H3257 H 0.45351 0.27768 0.73997 0.0
H3258 H 0.48354 0.28718 0.7563 0.0
S3259 S 0.50333 0.21953 0.71817 0.0
N3260 N 0.48105 0.22578 0.71464 0.0
N3261 N 0.51327 0.23599 0.73206 0.0
C3262 C 0.49838 0.24763 0.73424 0.0
C3263 C 0.48096 0.24208 0.72484 0.0
C3264 C 0.75176 0.71964 0.09875 0.0
C3265 C 0.73296 0.71364 0.09495 0.0
C3266 C 0.76352 0.72479 0.08413 0.0
C3267 C 0.75705 0.72398 0.06502 0.0
H3268 H 0.7573 0.7208 0.11322 0.0
H3269 H 0.77762 0.72997 0.08794 0.0
S3270 S 0.70947 0.70728 0.04752 0.0
N3271 N 0.70867 0.7061 0.07077 0.0
N3272 N 0.73088 0.71525 0.04317 0.0
C3273 C 0.7384 0.71742 0.06103 0.0
C3274 C 0.72635 0.71239 0.07599 0.0
C3275 C 0.32078 0.72294 0.05352 0.0
C3276 C 0.30804 0.71937 0.06782 0.0
C3277 C 0.31468 0.73035 0.03603 0.0
C3278 C 0.29555 0.73451 0.03194 0.0
H3279 H 0.33577 0.72065 0.05612 0.0
H3280 H 0.32528 0.73369 0.02592 0.0
S3281 S 0.25603 0.72544 0.06352 0.0
N3282 N 0.27503 0.71879 0.07605 0.0
N3283 N 0.26355 0.73273 0.04297 0.0
C3284 C 0.28238 0.72967 0.0455 0.0
C3285 C 0.28864 0.7221 0.06348 0.0
C3286 C 0.31975 0.33323 0.09845 0.0
C3287 C 0.32527 0.3221 0.11412 0.0
C3288 C 0.31204 0.32502 0.08175 0.0
C3289 C 0.30966 0.30528 0.07983 0.0
H3290 H 0.32113 0.3485 0.09917 0.0
H3291 H 0.30739 0.3343 0.07036 0.0
S3292 S 0.32185 0.26963 0.11647 0.0
N3293 N 0.32786 0.29008 0.12653 0.0
N3294 N 0.31364 0.27473 0.09491 0.0
C3295 C 0.31571 0.29386 0.09506 0.0
C3296 C 0.32344 0.30224 0.11223 0.0
C3297 C 0.716 0.31426 0.10733 0.0
C3298 C 0.72807 0.31382 0.12358 0.0
C3299 C 0.72119 0.30585 0.09037 0.0
C3300 C 0.7386 0.29655 0.08905 0.0
H3301 H 0.70272 0.32168 0.10756 0.0
H3302 H 0.71164 0.30701 0.07808 0.0
S3303 S 0.77422 0.28972 0.12844 0.0
N3304 N 0.75757 0.30241 0.13781 0.0
N3305 N 0.76713 0.28612 0.10619 0.0
C3306 C 0.7505 0.29549 0.10547 0.0
C3307 C 0.74526 0.30422 0.12267 0.0
C3308 C 0.74676 0.29926 0.95583 0.0
C3309 C 0.74367 0.31881 0.95347 0.0
C3310 C 0.75495 0.29196 0.97275 0.0
C3311 C 0.76039 0.30386 0.9881 0.0
H3312 H 0.74295 0.2895 0.94444 0.0
H3313 H 0.7571 0.27685 0.97372 0.0
S3314 S 0.75436 0.35603 0.98956 0.0
N3315 N 0.74601 0.34981 0.9683 0.0
N3316 N 0.7615 0.33628 0.99984 0.0
C3317 C 0.75728 0.32344 0.98592 0.0
C3318 C 0.74893 0.33084 0.96872 0.0
C3319 C 0.75258 0.72623 0.93197 0.0
C3320 C 0.73277 0.72505 0.92968 0.0
C3321 C 0.76145 0.7344 0.94811 0.0
C3322 C 0.75099 0.74203 0.9627 0.0
H3323 H 0.76142 0.72068 0.92121 0.0
H3324 H 0.77677 0.7346 0.9492 0.0
S3325 S 0.69873 0.74296 0.96379 0.0
N3326 N 0.70283 0.73244 0.94354 0.0
N3327 N 0.71969 0.74828 0.97373 0.0
C3328 C 0.73117 0.74158 0.96045 0.0
C3329 C 0.72203 0.733 0.944 0.0
C3330 C 0.33956 0.73265 0.91553 0.0
C3331 C 0.3266 0.72596 0.9013 0.0
C3332 C 0.33363 0.74312 0.93106 0.0
C3333 C 0.31445 0.74738 0.93311 0.0
H3334 H 0.35448 0.72966 0.91474 0.0
H3335 H 0.34416 0.74777 0.94166 0.0
S3336 S 0.27491 0.73442 0.89916 0.0
N3337 N 0.29371 0.72514 0.88992 0.0
N3338 N 0.28259 0.74479 0.91901 0.0
C3339 C 0.30131 0.74087 0.91895 0.0
C3340 C 0.30737 0.73019 0.90311 0.0
C3341 C 0.31431 0.31008 0.95158 0.0
C3342 C 0.31891 0.3292 0.94861 0.0
C3343 C 0.30382 0.3046 0.96705 0.0
C3344 C 0.29753 0.31807 0.97998 0.0
H3345 H 0.31825 0.29941 0.94153 0.0
H3346 H 0.30018 0.28979 0.96868 0.0
S3347 S 0.308 0.36954 0.97975 0.0
N3348 N 0.31793 0.36137 0.96075 0.0
N3349 N 0.29813 0.35101 0.98974 0.0
C3350 C 0.30265 0.3371 0.97753 0.0
C3351 C 0.3134 0.34266 0.96189 0.0
C3352 C 0.59679 0.73789 0.21547 0.0
C3353 C 0.60114 0.72104 0.20617 0.0
C3354 C 0.57912 0.74016 0.22339 0.0
C3355 C 0.56543 0.72549 0.22262 0.0
H3356 H 0.60746 0.74891 0.21754 0.0
H3357 H 0.57655 0.75306 0.2311 0.0
S3358 S 0.56956 0.67931 0.19838 0.0
N3359 N 0.59011 0.69002 0.19549 0.0
N3360 N 0.55691 0.69425 0.2104 0.0
C3361 C 0.56936 0.70896 0.21256 0.0
C3362 C 0.58722 0.70675 0.20433 0.0
C3363 C 0.28272 0.59892 0.20074 0.0
C3364 C 0.30093 0.60037 0.19353 0.0
C3365 C 0.27591 0.58174 0.20807 0.0
C3366 C 0.28686 0.56529 0.20792 0.0
H3367 H 0.27367 0.61115 0.20067 0.0
H3368 H 0.26184 0.58115 0.21347 0.0
S3369 S 0.33554 0.56164 0.19107 0.0
N3370 N 0.32991 0.58396 0.18724 0.0
N3371 N 0.31697 0.55167 0.20055 0.0
C3372 C 0.30511 0.5666 0.20092 0.0
C3373 C 0.31218 0.58414 0.19385 0.0
C3374 C 0.44701 0.28669 0.24008 0.0
C3375 C 0.44798 0.30647 0.23779 0.0
C3376 C 0.46229 0.27652 0.24802 0.0
C3377 C 0.47933 0.28564 0.25401 0.0
H3378 H 0.43424 0.27895 0.23571 0.0
H3379 H 0.46059 0.26137 0.24962 0.0
S3380 S 0.48939 0.33729 0.25047 0.0
N3381 N 0.46751 0.33479 0.24169 0.0
N3382 N 0.49626 0.31586 0.25667 0.0
C3383 C 0.48053 0.30548 0.25168 0.0
C3384 C 0.46487 0.31583 0.24364 0.0
C3385 C 0.73754 0.46063 0.23834 0.0
C3386 C 0.7459 0.44276 0.23766 0.0
C3387 C 0.74804 0.47666 0.24429 0.0
C3388 C 0.7673 0.47543 0.2501 0.0
H3389 H 0.72264 0.46218 0.23455 0.0
H3390 H 0.7407 0.48997 0.24508 0.0
S3391 S 0.79603 0.43183 0.24981 0.0
N3392 N 0.77469 0.42475 0.24225 0.0
N3393 N 0.79452 0.4548 0.25366 0.0
C3394 C 0.77601 0.45769 0.24872 0.0
C3395 C 0.7653 0.44138 0.24247 0.0
C3396 C 0.62437 0.30668 0.82113 0.0
C3397 C 0.62454 0.32659 0.8215 0.0
C3398 C 0.60844 0.29635 0.81439 0.0
C3399 C 0.5919 0.30536 0.8075 0.0
H3400 H 0.63666 0.29893 0.82622 0.0
H3401 H 0.60908 0.28105 0.81477 0.0
S3402 S 0.58487 0.35716 0.80493 0.0
N3403 N 0.60659 0.35498 0.81412 0.0
N3404 N 0.57677 0.3354 0.80103 0.0
C3405 C 0.59198 0.32523 0.80714 0.0
C3406 C 0.60824 0.33586 0.81423 0.0
C3407 C 0.7191 0.59475 0.79128 0.0
C3408 C 0.72733 0.61215 0.79739 0.0
C3409 C 0.7303 0.57973 0.785 0.0
C3410 C 0.75013 0.58161 0.78462 0.0
H3411 H 0.70398 0.5925 0.79201 0.0
H3412 H 0.72349 0.56637 0.78119 0.0
S3413 S 0.77818 0.62526 0.79609 0.0
N3414 N 0.75625 0.63095 0.80041 0.0
N3415 N 0.77714 0.60305 0.78884 0.0
C3416 C 0.7583 0.5993 0.78968 0.0
C3417 C 0.74698 0.61446 0.796 0.0
C3418 C 0.45104 0.73593 0.76707 0.0
C3419 C 0.45099 0.73253 0.78668 0.0
C3420 C 0.46608 0.74593 0.75906 0.0
C3421 C 0.48143 0.75279 0.77048 0.0
H3422 H 0.43896 0.73172 0.75804 0.0
H3423 H 0.4651 0.74932 0.74415 0.0
S3424 S 0.48956 0.74466 0.82191 0.0
N3425 N 0.46879 0.73459 0.81674 0.0
N3426 N 0.49678 0.75345 0.80184 0.0
C3427 C 0.48211 0.74826 0.78981 0.0
C3428 C 0.46696 0.73811 0.79789 0.0
C3429 C 0.31247 0.43248 0.81293 0.0
C3430 C 0.3315 0.43499 0.81911 0.0
C3431 C 0.30071 0.44798 0.80959 0.0
C3432 C 0.3075 0.46661 0.81233 0.0
H3433 H 0.30647 0.41836 0.81128 0.0
H3434 H 0.28616 0.44534 0.80486 0.0
S3435 S 0.35633 0.48082 0.82795 0.0
N3436 N 0.35675 0.45745 0.82746 0.0
N3437 N 0.3346 0.48672 0.82105 0.0
C3438 C 0.32667 0.46935 0.81788 0.0
C3439 C 0.33868 0.45351 0.82129 0.0
C3440 C 0.74322 0.60843 0.2417 0.0
C3441 C 0.72498 0.61538 0.23773 0.0
C3442 C 0.74605 0.59234 0.25293 0.0
C3443 C 0.73074 0.58257 0.26075 0.0
H3444 H 0.75542 0.61539 0.23595 0.0
H3445 H 0.76032 0.58723 0.25492 0.0
S3446 S 0.68015 0.59528 0.25508 0.0
N3447 N 0.69128 0.61111 0.24239 0.0
N3448 N 0.69679 0.58167 0.26448 0.0
C3449 C 0.71248 0.5897 0.25733 0.0
C3450 C 0.70955 0.60588 0.24562 0.0
C3451 C 0.77241 0.44968 0.83373 0.0
C3452 C 0.75274 0.44683 0.83501 0.0
C3453 C 0.77989 0.46609 0.8255 0.0
C3454 C 0.76804 0.48029 0.81801 0.0
H3455 H 0.78216 0.43903 0.83896 0.0
H3456 H 0.79508 0.46757 0.82472 0.0
S3457 S 0.71573 0.48072 0.81897 0.0
N3458 N 0.72166 0.46045 0.829 0.0
N3459 N 0.73576 0.49092 0.81314 0.0
C3460 C 0.7484 0.47775 0.81925 0.0
C3461 C 0.74076 0.46115 0.82782 0.0
C3462 C 0.60628 0.74488 0.78808 0.0
C3463 C 0.60693 0.73922 0.80715 0.0
C3464 C 0.59104 0.75546 0.78042 0.0
C3465 C 0.57603 0.76086 0.79161 0.0
H3466 H 0.61797 0.74178 0.77925 0.0
H3467 H 0.59133 0.76003 0.76586 0.0
S3468 S 0.56946 0.74686 0.84134 0.0
N3469 N 0.59004 0.73784 0.83629 0.0
N3470 N 0.5617 0.75776 0.82198 0.0
C3471 C 0.57605 0.75439 0.81035 0.0
C3472 C 0.5914 0.74356 0.81808 0.0
C3473 C 0.33195 0.58495 0.79219 0.0
C3474 C 0.33939 0.5986 0.78003 0.0
C3475 C 0.32329 0.56824 0.78514 0.0
C3476 C 0.32155 0.56445 0.76557 0.0
H3477 H 0.33276 0.58721 0.80734 0.0
H3478 H 0.3173 0.55854 0.79516 0.0
S3479 S 0.33961 0.59491 0.72762 0.0
N3480 N 0.34491 0.60678 0.74729 0.0
N3481 N 0.32899 0.57521 0.73421 0.0
C3482 C 0.32946 0.57762 0.75327 0.0
C3483 C 0.33828 0.5947 0.76043 0.0
C3484 C 0.46812 0.3058 0.85553 0.0
C3485 C 0.45259 0.30969 0.8431 0.0
C3486 C 0.48451 0.29734 0.84909 0.0
C3487 C 0.48606 0.29239 0.82996 0.0
H3488 H 0.46767 0.30946 0.87036 0.0
H3489 H 0.49616 0.29486 0.85915 0.0
S3490 S 0.44877 0.29808 0.79194 0.0
N3491 N 0.43945 0.30706 0.81091 0.0
N3492 N 0.47011 0.29104 0.79886 0.0
C3493 C 0.47053 0.296 0.81741 0.0
C3494 C 0.45386 0.30467 0.82396 0.0
C3495 C 0.32646 0.45341 0.23579 0.0
C3496 C 0.33187 0.43767 0.24689 0.0
C3497 C 0.31632 0.46855 0.24334 0.0
C3498 C 0.31087 0.46855 0.26229 0.0
H3499 H 0.33002 0.45399 0.22108 0.0
H3500 H 0.31215 0.48003 0.23402 0.0
S3501 S 0.32158 0.43073 0.2974 0.0
N3502 N 0.33106 0.4232 0.27792 0.0
N3503 N 0.31215 0.45137 0.29203 0.0
C3504 C 0.31648 0.45301 0.27359 0.0
C3505 C 0.32691 0.4377 0.26595 0.0
C3506 C 0.61768 0.32472 0.26981 0.0
C3507 C 0.61415 0.32995 0.25085 0.0
C3508 C 0.60286 0.3194 0.28135 0.0
C3509 C 0.58385 0.31931 0.27448 0.0
H3510 H 0.63208 0.3243 0.27563 0.0
H3511 H 0.60644 0.31479 0.2956 0.0
S3512 S 0.56707 0.33421 0.22639 0.0
N3513 N 0.59033 0.33601 0.22603 0.0
N3514 N 0.56239 0.32675 0.24779 0.0
C3515 C 0.58014 0.32528 0.2557 0.0
C3516 C 0.59529 0.33041 0.24389 0.0
C3517 C 0.42916 0.74138 0.20494 0.0
C3518 C 0.42786 0.72255 0.19829 0.0
C3519 C 0.44617 0.7487 0.21351 0.0
C3520 C 0.46239 0.73742 0.21554 0.0
H3521 H 0.4167 0.75012 0.20449 0.0
H3522 H 0.44622 0.76273 0.21969 0.0
S3523 S 0.46704 0.68832 0.19784 0.0
N3524 N 0.44483 0.69369 0.19244 0.0
N3525 N 0.47652 0.70728 0.20832 0.0
C3526 C 0.46151 0.7191 0.2077 0.0
C3527 C 0.44434 0.7117 0.19913 0.0
loop_
_geom_bond_atom_site_label_1
_geom_bond_atom_site_label_2
_geom_bond_distance
_geom_bond_site_symmetry_2
_ccdc_geom_bond_type
C0 C1 1.391 . S
C0 C4 1.391 . S
C0 H42 0.948 . S
C1 C0 1.391 . S
C1 C2 1.391 . S
C2 C1 1.391 . S
C2 H58 0.947 . S
C2 C59 1.392 . S
C3 C4 1.391 . S
C3 C7 1.397 . S
C3 C59 1.419 . S
C4 C0 1.391 . S
C4 C3 1.391 . S
C4 C5 1.399 . S
C5 C4 1.399 . S
C5 C8 1.396 . S
C5 C17 1.453 . S
C5 C18 1.684 . S
H6 C30 0.948 . S
C7 C3 1.397 . S
C7 C8 1.394 . S
C7 C26 1.723 . S
C8 C5 1.396 . S
C8 C7 1.394 . S
C8 C38 1.723 . S
H9 C32 0.947 . S
H10 C33 0.948 . S
H11 C39 0.982 . S
H12 C40 0.979 . S
H13 C40 0.980 . S
H14 C40 0.983 . S
H15 C39 0.979 . S
H16 C39 0.977 . S
C17 C5 1.453 . S
C17 H46 0.982 . S
C17 H47 0.979 . S
C17 H48 0.977 . S
C18 C5 1.684 . S
C18 H43 0.979 . S
C18 H44 0.980 . S
C18 H45 0.983 . S
C19 C20 1.391 . S
C19 C24 1.391 . S
C19 H49 0.948 . S
C20 C19 1.391 . S
C20 C21 1.391 . S
C21 C20 1.391 . S
C21 C22 1.392 . S
C21 H50 0.947 . S
C22 C21 1.392 . S
C22 C23 1.419 . S
C22 H51 0.948 . S
C23 C22 1.419 . S
C23 C24 1.391 . S
C23 C27 1.397 . S
C24 C19 1.391 . S
C24 C23 1.391 . S
C24 C25 1.399 . S
C25 C24 1.399 . S
C25 C26 1.396 . S
C25 C28 1.453 . S
C25 C29 1.684 . S
C26 C7 1.723 . S
C26 C25 1.396 . S
C26 C27 1.394 . S
C27 C23 1.397 . S
C27 C26 1.394 . S
C27 C37 1.723 . S
C28 C25 1.453 . S
C28 H52 0.982 . S
C28 H53 0.979 . S
C28 H54 0.977 . S
C29 C25 1.684 . S
C29 H55 0.979 . S
C29 H56 0.980 . S
C29 H57 0.983 . S
C30 H6 0.948 . S
C30 C31 1.391 . S
C30 C35 1.391 . S
C31 C30 1.391 . S
C31 C32 1.391 . S
C32 H9 0.947 . S
C32 C31 1.391 . S
C32 C33 1.392 . S
C33 H10 0.948 . S
C33 C32 1.392 . S
C33 C34 1.419 . S
C34 C33 1.419 . S
C34 C35 1.391 . S
C34 C38 1.397 . S
C35 C30 1.391 . S
C35 C34 1.391 . S
C35 C36 1.399 . S
C36 C35 1.399 . S
C36 C37 1.396 . S
C36 C39 1.453 . S
C36 C40 1.684 . S
C37 C27 1.723 . S
C37 C36 1.396 . S
C37 C38 1.394 . S
C38 C8 1.723 . S
C38 C34 1.397 . S
C38 C37 1.394 . S
C39 H11 0.982 . S
C39 H15 0.979 . S
C39 H16 0.977 . S
C39 C36 1.453 . S
C40 H12 0.979 . S
C40 H13 0.980 . S
C40 H14 0.983 . S
C40 C36 1.684 . S
H41 C59 0.948 . S
H42 C0 0.948 . S
H43 C18 0.979 . S
H44 C18 0.980 . S
H45 C18 0.983 . S
H46 C17 0.982 . S
H47 C17 0.979 . S
H48 C17 0.977 . S
H49 C19 0.948 . S
H50 C21 0.947 . S
H51 C22 0.948 . S
H52 C28 0.982 . S
H53 C28 0.979 . S
H54 C28 0.977 . S
H55 C29 0.979 . S
H56 C29 0.980 . S
H57 C29 0.983 . S
H58 C2 0.947 . S
C59 C2 1.392 . S
C59 C3 1.419 . S
C59 H41 0.948 . S
C60 C61 1.391 . S
C60 C64 1.391 . S
C60 H102 0.948 . S
C61 C60 1.391 . S
C61 C62 1.391 . S
C62 C61 1.391 . S
C62 H118 0.947 . S
C62 C119 1.392 . S
C63 C64 1.391 . S
C63 C67 1.397 . S
C63 C119 1.419 . S
C64 C60 1.391 . S
C64 C63 1.391 . S
C64 C65 1.399 . S
C65 C64 1.399 . S
C65 C68 1.396 . S
C65 C77 1.453 . S
C65 C78 1.684 . S
H66 C90 0.948 . S
C67 C63 1.397 . S
C67 C68 1.394 . S
C67 C86 1.723 . S
C68 C65 1.396 . S
C68 C67 1.394 . S
C68 C98 1.723 . S
H69 C92 0.947 . S
H70 C93 0.948 . S
H71 C99 0.982 . S
H72 C100 0.979 . S
H73 C100 0.980 . S
H74 C100 0.983 . S
H75 C99 0.979 . S
H76 C99 0.977 . S
C77 C65 1.453 . S
C77 H106 0.982 . S
C77 H107 0.979 . S
C77 H108 0.977 . S
C78 C65 1.684 . S
C78 H103 0.979 . S
C78 H104 0.980 . S
C78 H105 0.983 . S
C79 C80 1.391 . S
C79 C84 1.391 . S
C79 H109 0.948 . S
C80 C79 1.391 . S
C80 C81 1.391 . S
C81 C80 1.391 . S
C81 C82 1.392 . S
C81 H110 0.947 . S
C82 C81 1.392 . S
C82 C83 1.419 . S
C82 H111 0.948 . S
C83 C82 1.419 . S
C83 C84 1.391 . S
C83 C87 1.397 . S
C84 C79 1.391 . S
C84 C83 1.391 . S
C84 C85 1.399 . S
C85 C84 1.399 . S
C85 C86 1.396 . S
C85 C88 1.453 . S
C85 C89 1.684 . S
C86 C67 1.723 . S
C86 C85 1.396 . S
C86 C87 1.394 . S
C87 C83 1.397 . S
C87 C86 1.394 . S
C87 C97 1.723 . S
C88 C85 1.453 . S
C88 H112 0.982 . S
C88 H113 0.979 . S
C88 H114 0.977 . S
C89 C85 1.684 . S
C89 H115 0.979 . S
C89 H116 0.980 . S
C89 H117 0.983 . S
C90 H66 0.948 . S
C90 C91 1.391 . S
C90 C95 1.391 . S
C91 C90 1.391 . S
C91 C92 1.391 . S
C92 H69 0.947 . S
C92 C91 1.391 . S
C92 C93 1.392 . S
C93 H70 0.948 . S
C93 C92 1.392 . S
C93 C94 1.419 . S
C94 C93 1.419 . S
C94 C95 1.391 . S
C94 C98 1.397 . S
C95 C90 1.391 . S
C95 C94 1.391 . S
C95 C96 1.399 . S
C96 C95 1.399 . S
C96 C97 1.396 . S
C96 C99 1.453 . S
C96 C100 1.684 . S
C97 C87 1.723 . S
C97 C96 1.396 . S
C97 C98 1.394 . S
C98 C68 1.723 . S
C98 C94 1.397 . S
C98 C97 1.394 . S
C99 H71 0.982 . S
C99 H75 0.979 . S
C99 H76 0.977 . S
C99 C96 1.453 . S
C100 H72 0.979 . S
C100 H73 0.980 . S
C100 H74 0.983 . S
C100 C96 1.684 . S
H101 C119 0.948 . S
H102 C60 0.948 . S
H103 C78 0.979 . S
H104 C78 0.980 . S
H105 C78 0.983 . S
H106 C77 0.982 . S
H107 C77 0.979 . S
H108 C77 0.977 . S
H109 C79 0.948 . S
H110 C81 0.947 . S
H111 C82 0.948 . S
H112 C88 0.982 . S
H113 C88 0.979 . S
H114 C88 0.977 . S
H115 C89 0.979 . S
H116 C89 0.980 . S
H117 C89 0.983 . S
H118 C62 0.947 . S
C119 C62 1.392 . S
C119 C63 1.419 . S
C119 H101 0.948 . S
C120 C121 1.391 . S
C120 C124 1.391 . S
C120 H162 0.948 . S
C121 C120 1.391 . S
C121 C122 1.391 . S
C122 C121 1.391 . S
C122 H178 0.947 . S
C122 C179 1.392 . S
C123 C124 1.391 . S
C123 C127 1.397 . S
C123 C179 1.419 . S
C124 C120 1.391 . S
C124 C123 1.391 . S
C124 C125 1.399 . S
C125 C124 1.399 . S
C125 C128 1.396 . S
C125 C137 1.453 . S
C125 C138 1.684 . S
H126 C150 0.948 . S
C127 C123 1.397 . S
C127 C128 1.394 . S
C127 C146 1.723 . S
C128 C125 1.396 . S
C128 C127 1.394 . S
C128 C158 1.723 . S
H129 C152 0.947 . S
H130 C153 0.948 . S
H131 C159 0.982 . S
H132 C160 0.979 . S
H133 C160 0.980 . S
H134 C160 0.983 . S
H135 C159 0.979 . S
H136 C159 0.977 . S
C137 C125 1.453 . S
C137 H166 0.982 . S
C137 H167 0.979 . S
C137 H168 0.977 . S
C138 C125 1.684 . S
C138 H163 0.979 . S
C138 H164 0.980 . S
C138 H165 0.983 . S
C139 C140 1.391 . S
C139 C144 1.391 . S
C139 H169 0.948 . S
C140 C139 1.391 . S
C140 C141 1.391 . S
C141 C140 1.391 . S
C141 C142 1.392 . S
C141 H170 0.947 . S
C142 C141 1.392 . S
C142 C143 1.419 . S
C142 H171 0.948 . S
C143 C142 1.419 . S
C143 C144 1.391 . S
C143 C147 1.397 . S
C144 C139 1.391 . S
C144 C143 1.391 . S
C144 C145 1.399 . S
C145 C144 1.399 . S
C145 C146 1.396 . S
C145 C148 1.453 . S
C145 C149 1.684 . S
C146 C127 1.723 . S
C146 C145 1.396 . S
C146 C147 1.394 . S
C147 C143 1.397 . S
C147 C146 1.394 . S
C147 C157 1.723 . S
C148 C145 1.453 . S
C148 H172 0.982 . S
C148 H173 0.979 . S
C148 H174 0.977 . S
C149 C145 1.684 . S
C149 H175 0.979 . S
C149 H176 0.980 . S
C149 H177 0.983 . S
C150 H126 0.948 . S
C150 C151 1.391 . S
C150 C155 1.391 . S
C151 C150 1.391 . S
C151 C152 1.391 . S
C152 H129 0.947 . S
C152 C151 1.391 . S
C152 C153 1.392 . S
C153 H130 0.948 . S
C153 C152 1.392 . S
C153 C154 1.419 . S
C154 C153 1.419 . S
C154 C155 1.391 . S
C154 C158 1.397 . S
C155 C150 1.391 . S
C155 C154 1.391 . S
C155 C156 1.399 . S
C156 C155 1.399 . S
C156 C157 1.396 . S
C156 C159 1.453 . S
C156 C160 1.684 . S
C157 C147 1.723 . S
C157 C156 1.396 . S
C157 C158 1.394 . S
C158 C128 1.723 . S
C158 C154 1.397 . S
C158 C157 1.394 . S
C159 H131 0.982 . S
C159 H135 0.979 . S
C159 H136 0.977 . S
C159 C156 1.453 . S
C160 H132 0.979 . S
C160 H133 0.980 . S
C160 H134 0.983 . S
C160 C156 1.684 . S
H161 C179 0.948 . S
H162 C120 0.948 . S
H163 C138 0.979 . S
H164 C138 0.980 . S
H165 C138 0.983 . S
H166 C137 0.982 . S
H167 C137 0.979 . S
H168 C137 0.977 . S
H169 C139 0.948 . S
H170 C141 0.947 . S
H171 C142 0.948 . S
H172 C148 0.982 . S
H173 C148 0.979 . S
H174 C148 0.977 . S
H175 C149 0.979 . S
H176 C149 0.980 . S
H177 C149 0.983 . S
H178 C122 0.947 . S
C179 C122 1.392 . S
C179 C123 1.419 . S
C179 H161 0.948 . S
C180 C181 1.391 . S
C180 C184 1.391 . S
C180 H222 0.948 . S
C181 C180 1.391 . S
C181 C182 1.391 . S
C182 C181 1.391 . S
C182 H238 0.947 . S
C182 C239 1.392 . S
C183 C184 1.391 . S
C183 C187 1.397 . S
C183 C239 1.419 . S
C184 C180 1.391 . S
C184 C183 1.391 . S
C184 C185 1.399 . S
C185 C184 1.399 . S
C185 C188 1.396 . S
C185 C197 1.453 . S
C185 C198 1.684 . S
H186 C210 0.948 . S
C187 C183 1.397 . S
C187 C188 1.394 . S
C187 C206 1.723 . S
C188 C185 1.396 . S
C188 C187 1.394 . S
C188 C218 1.723 . S
H189 C212 0.947 . S
H190 C213 0.948 . S
H191 C219 0.982 . S
H192 C220 0.979 . S
H193 C220 0.980 . S
H194 C220 0.983 . S
H195 C219 0.979 . S
H196 C219 0.977 . S
C197 C185 1.453 . S
C197 H226 0.982 . S
C197 H227 0.979 . S
C197 H228 0.977 . S
C198 C185 1.684 . S
C198 H223 0.979 . S
C198 H224 0.980 . S
C198 H225 0.983 . S
C199 C200 1.391 . S
C199 C204 1.391 . S
C199 H229 0.948 . S
C200 C199 1.391 . S
C200 C201 1.391 . S
C201 C200 1.391 . S
C201 C202 1.392 . S
C201 H230 0.947 . S
C202 C201 1.392 . S
C202 C203 1.419 . S
C202 H231 0.948 . S
C203 C202 1.419 . S
C203 C204 1.391 . S
C203 C207 1.397 . S
C204 C199 1.391 . S
C204 C203 1.391 . S
C204 C205 1.399 . S
C205 C204 1.399 . S
C205 C206 1.396 . S
C205 C208 1.453 . S
C205 C209 1.684 . S
C206 C187 1.723 . S
C206 C205 1.396 . S
C206 C207 1.394 . S
C207 C203 1.397 . S
C207 C206 1.394 . S
C207 C217 1.723 . S
C208 C205 1.453 . S
C208 H232 0.982 . S
C208 H233 0.979 . S
C208 H234 0.977 . S
C209 C205 1.684 . S
C209 H235 0.979 . S
C209 H236 0.980 . S
C209 H237 0.983 . S
C210 H186 0.948 . S
C210 C211 1.391 . S
C210 C215 1.391 . S
C211 C210 1.391 . S
C211 C212 1.391 . S
C212 H189 0.947 . S
C212 C211 1.391 . S
C212 C213 1.392 . S
C213 H190 0.948 . S
C213 C212 1.392 . S
C213 C214 1.419 . S
C214 C213 1.419 . S
C214 C215 1.391 . S
C214 C218 1.397 . S
C215 C210 1.391 . S
C215 C214 1.391 . S
C215 C216 1.399 . S
C216 C215 1.399 . S
C216 C217 1.396 . S
C216 C219 1.453 . S
C216 C220 1.684 . S
C217 C207 1.723 . S
C217 C216 1.396 . S
C217 C218 1.394 . S
C218 C188 1.723 . S
C218 C214 1.397 . S
C218 C217 1.394 . S
C219 H191 0.982 . S
C219 H195 0.979 . S
C219 H196 0.977 . S
C219 C216 1.453 . S
C220 H192 0.979 . S
C220 H193 0.980 . S
C220 H194 0.983 . S
C220 C216 1.684 . S
H221 C239 0.948 . S
H222 C180 0.948 . S
H223 C198 0.979 . S
H224 C198 0.980 . S
H225 C198 0.983 . S
H226 C197 0.982 . S
H227 C197 0.979 . S
H228 C197 0.977 . S
H229 C199 0.948 . S
H230 C201 0.947 . S
H231 C202 0.948 . S
H232 C208 0.982 . S
H233 C208 0.979 . S
H234 C208 0.977 . S
H235 C209 0.979 . S
H236 C209 0.980 . S
H237 C209 0.983 . S
H238 C182 0.947 . S
C239 C182 1.392 . S
C239 C183 1.419 . S
C239 H221 0.948 . S
C240 C241 1.391 . S
C240 C244 1.391 . S
C240 H282 0.948 . S
C241 C240 1.391 . S
C241 C242 1.391 . S
C242 C241 1.391 . S
C242 H298 0.947 . S
C242 C299 1.392 . S
C243 C244 1.391 . S
C243 C247 1.397 . S
C243 C299 1.419 . S
C244 C240 1.391 . S
C244 C243 1.391 . S
C244 C245 1.399 . S
C245 C244 1.399 . S
C245 C248 1.396 . S
C245 C257 1.453 . S
C245 C258 1.684 . S
H246 C270 0.948 . S
C247 C243 1.397 . S
C247 C248 1.394 . S
C247 C266 1.723 . S
C248 C245 1.396 . S
C248 C247 1.394 . S
C248 C278 1.723 . S
H249 C272 0.947 . S
H250 C273 0.948 . S
H251 C279 0.982 . S
H252 C280 0.979 . S
H253 C280 0.980 . S
H254 C280 0.983 . S
H255 C279 0.979 . S
H256 C279 0.977 . S
C257 C245 1.453 . S
C257 H286 0.982 . S
C257 H287 0.979 . S
C257 H288 0.977 . S
C258 C245 1.684 . S
C258 H283 0.979 . S
C258 H284 0.980 . S
C258 H285 0.983 . S
C259 C260 1.391 . S
C259 C264 1.391 . S
C259 H289 0.948 . S
C260 C259 1.391 . S
C260 C261 1.391 . S
C261 C260 1.391 . S
C261 C262 1.392 . S
C261 H290 0.947 . S
C262 C261 1.392 . S
C262 C263 1.419 . S
C262 H291 0.948 . S
C263 C262 1.419 . S
C263 C264 1.391 . S
C263 C267 1.397 . S
C264 C259 1.391 . S
C264 C263 1.391 . S
C264 C265 1.399 . S
C265 C264 1.399 . S
C265 C266 1.396 . S
C265 C268 1.453 . S
C265 C269 1.684 . S
C266 C247 1.723 . S
C266 C265 1.396 . S
C266 C267 1.394 . S
C267 C263 1.397 . S
C267 C266 1.394 . S
C267 C277 1.723 . S
C268 C265 1.453 . S
C268 H292 0.982 . S
C268 H293 0.979 . S
C268 H294 0.977 . S
C269 C265 1.684 . S
C269 H295 0.979 . S
C269 H296 0.980 . S
C269 H297 0.983 . S
C270 H246 0.948 . S
C270 C271 1.391 . S
C270 C275 1.391 . S
C271 C270 1.391 . S
C271 C272 1.391 . S
C272 H249 0.947 . S
C272 C271 1.391 . S
C272 C273 1.392 . S
C273 H250 0.948 . S
C273 C272 1.392 . S
C273 C274 1.419 . S
C274 C273 1.419 . S
C274 C275 1.391 . S
C274 C278 1.397 . S
C275 C270 1.391 . S
C275 C274 1.391 . S
C275 C276 1.399 . S
C276 C275 1.399 . S
C276 C277 1.396 . S
C276 C279 1.453 . S
C276 C280 1.684 . S
C277 C267 1.723 . S
C277 C276 1.396 . S
C277 C278 1.394 . S
C278 C248 1.723 . S
C278 C274 1.397 . S
C278 C277 1.394 . S
C279 H251 0.982 . S
C279 H255 0.979 . S
C279 H256 0.977 . S
C279 C276 1.453 . S
C280 H252 0.979 . S
C280 H253 0.980 . S
C280 H254 0.983 . S
C280 C276 1.684 . S
H281 C299 0.948 . S
H282 C240 0.948 . S
H283 C258 0.979 . S
H284 C258 0.980 . S
H285 C258 0.983 . S
H286 C257 0.982 . S
H287 C257 0.979 . S
H288 C257 0.977 . S
H289 C259 0.948 . S
H290 C261 0.947 . S
H291 C262 0.948 . S
H292 C268 0.982 . S
H293 C268 0.979 . S
H294 C268 0.977 . S
H295 C269 0.979 . S
H296 C269 0.980 . S
H297 C269 0.983 . S
H298 C242 0.947 . S
C299 C242 1.392 . S
C299 C243 1.419 . S
C299 H281 0.948 . S
C300 C301 1.391 . S
C300 C304 1.391 . S
C300 H342 0.948 . S
C301 C300 1.391 . S
C301 C302 1.391 . S
C302 C301 1.391 . S
C302 H358 0.947 . S
C302 C359 1.392 . S
C303 C304 1.391 . S
C303 C307 1.397 . S
C303 C359 1.419 . S
C304 C300 1.391 . S
C304 C303 1.391 . S
C304 C305 1.399 . S
C305 C304 1.399 . S
C305 C308 1.396 . S
C305 C317 1.453 . S
C305 C318 1.684 . S
H306 C330 0.948 . S
C307 C303 1.397 . S
C307 C308 1.394 . S
C307 C326 1.723 . S
C308 C305 1.396 . S
C308 C307 1.394 . S
C308 C338 1.723 . S
H309 C332 0.947 . S
H310 C333 0.948 . S
H311 C339 0.982 . S
H312 C340 0.979 . S
H313 C340 0.980 . S
H314 C340 0.983 . S
H315 C339 0.979 . S
H316 C339 0.977 . S
C317 C305 1.453 . S
C317 H346 0.982 . S
C317 H347 0.979 . S
C317 H348 0.977 . S
C318 C305 1.684 . S
C318 H343 0.979 . S
C318 H344 0.980 . S
C318 H345 0.983 . S
C319 C320 1.391 . S
C319 C324 1.391 . S
C319 H349 0.948 . S
C320 C319 1.391 . S
C320 C321 1.391 . S
C321 C320 1.391 . S
C321 C322 1.392 . S
C321 H350 0.947 . S
C322 C321 1.392 . S
C322 C323 1.419 . S
C322 H351 0.948 . S
C323 C322 1.419 . S
C323 C324 1.391 . S
C323 C327 1.397 . S
C324 C319 1.391 . S
C324 C323 1.391 . S
C324 C325 1.399 . S
C325 C324 1.399 . S
C325 C326 1.396 . S
C325 C328 1.453 . S
C325 C329 1.684 . S
C326 C307 1.723 . S
C326 C325 1.396 . S
C326 C327 1.394 . S
C327 C323 1.397 . S
C327 C326 1.394 . S
C327 C337 1.723 . S
C328 C325 1.453 . S
C328 H352 0.982 . S
C328 H353 0.979 . S
C328 H354 0.977 . S
C329 C325 1.684 . S
C329 H355 0.979 . S
C329 H356 0.980 . S
C329 H357 0.983 . S
C330 H306 0.948 . S
C330 C331 1.391 . S
C330 C335 1.391 . S
C331 C330 1.391 . S
C331 C332 1.391 . S
C332 H309 0.947 . S
C332 C331 1.391 . S
C332 C333 1.392 . S
C333 H310 0.948 . S
C333 C332 1.392 . S
C333 C334 1.419 . S
C334 C333 1.419 . S
C334 C335 1.391 . S
C334 C338 1.397 . S
C335 C330 1.391 . S
C335 C334 1.391 . S
C335 C336 1.399 . S
C336 C335 1.399 . S
C336 C337 1.396 . S
C336 C339 1.453 . S
C336 C340 1.684 . S
C337 C327 1.723 . S
C337 C336 1.396 . S
C337 C338 1.394 . S
C338 C308 1.723 . S
C338 C334 1.397 . S
C338 C337 1.394 . S
C339 H311 0.982 . S
C339 H315 0.979 . S
C339 H316 0.977 . S
C339 C336 1.453 . S
C340 H312 0.979 . S
C340 H313 0.980 . S
C340 H314 0.983 . S
C340 C336 1.684 . S
H341 C359 0.948 . S
H342 C300 0.948 . S
H343 C318 0.979 . S
H344 C318 0.980 . S
H345 C318 0.983 . S
H346 C317 0.982 . S
H347 C317 0.979 . S
H348 C317 0.977 . S
H349 C319 0.948 . S
H350 C321 0.947 . S
H351 C322 0.948 . S
H352 C328 0.982 . S
H353 C328 0.979 . S
H354 C328 0.977 . S
H355 C329 0.979 . S
H356 C329 0.980 . S
H357 C329 0.983 . S
H358 C302 0.947 . S
C359 C302 1.392 . S
C359 C303 1.419 . S
C359 H341 0.948 . S
C360 C361 1.391 . S
C360 C364 1.391 . S
C360 H402 0.948 . S
C361 C360 1.391 . S
C361 C362 1.391 . S
C362 C361 1.391 . S
C362 H418 0.947 . S
C362 C419 1.392 . S
C363 C364 1.391 . S
C363 C367 1.397 . S
C363 C419 1.419 . S
C364 C360 1.391 . S
C364 C363 1.391 . S
C364 C365 1.399 . S
C365 C364 1.399 . S
C365 C368 1.396 . S
C365 C377 1.453 . S
C365 C378 1.684 . S
H366 C390 0.948 . S
C367 C363 1.397 . S
C367 C368 1.394 . S
C367 C386 1.723 . S
C368 C365 1.396 . S
C368 C367 1.394 . S
C368 C398 1.723 . S
H369 C392 0.947 . S
H370 C393 0.948 . S
H371 C399 0.982 . S
H372 C400 0.979 . S
H373 C400 0.980 . S
H374 C400 0.983 . S
H375 C399 0.979 . S
H376 C399 0.977 . S
C377 C365 1.453 . S
C377 H406 0.982 . S
C377 H407 0.979 . S
C377 H408 0.977 . S
C378 C365 1.684 . S
C378 H403 0.979 . S
C378 H404 0.980 . S
C378 H405 0.983 . S
C379 C380 1.391 . S
C379 C384 1.391 . S
C379 H409 0.948 . S
C380 C379 1.391 . S
C380 C381 1.391 . S
C381 C380 1.391 . S
C381 C382 1.392 . S
C381 H410 0.947 . S
C382 C381 1.392 . S
C382 C383 1.419 . S
C382 H411 0.948 . S
C383 C382 1.419 . S
C383 C384 1.391 . S
C383 C387 1.397 . S
C384 C379 1.391 . S
C384 C383 1.391 . S
C384 C385 1.399 . S
C385 C384 1.399 . S
C385 C386 1.396 . S
C385 C388 1.453 . S
C385 C389 1.684 . S
C386 C367 1.723 . S
C386 C385 1.396 . S
C386 C387 1.394 . S
C387 C383 1.397 . S
C387 C386 1.394 . S
C387 C397 1.723 . S
C388 C385 1.453 . S
C388 H412 0.982 . S
C388 H413 0.979 . S
C388 H414 0.977 . S
C389 C385 1.684 . S
C389 H415 0.979 . S
C389 H416 0.980 . S
C389 H417 0.983 . S
C390 H366 0.948 . S
C390 C391 1.391 . S
C390 C395 1.391 . S
C391 C390 1.391 . S
C391 C392 1.391 . S
C392 H369 0.947 . S
C392 C391 1.391 . S
C392 C393 1.392 . S
C393 H370 0.948 . S
C393 C392 1.392 . S
C393 C394 1.419 . S
C394 C393 1.419 . S
C394 C395 1.391 . S
C394 C398 1.397 . S
C395 C390 1.391 . S
C395 C394 1.391 . S
C395 C396 1.399 . S
C396 C395 1.399 . S
C396 C397 1.396 . S
C396 C399 1.453 . S
C396 C400 1.684 . S
C397 C387 1.723 . S
C397 C396 1.396 . S
C397 C398 1.394 . S
C398 C368 1.723 . S
C398 C394 1.397 . S
C398 C397 1.394 . S
C399 H371 0.982 . S
C399 H375 0.979 . S
C399 H376 0.977 . S
C399 C396 1.453 . S
C400 H372 0.979 . S
C400 H373 0.980 . S
C400 H374 0.983 . S
C400 C396 1.684 . S
H401 C419 0.948 . S
H402 C360 0.948 . S
H403 C378 0.979 . S
H404 C378 0.980 . S
H405 C378 0.983 . S
H406 C377 0.982 . S
H407 C377 0.979 . S
H408 C377 0.977 . S
H409 C379 0.948 . S
H410 C381 0.947 . S
H411 C382 0.948 . S
H412 C388 0.982 . S
H413 C388 0.979 . S
H414 C388 0.977 . S
H415 C389 0.979 . S
H416 C389 0.980 . S
H417 C389 0.983 . S
H418 C362 0.947 . S
C419 C362 1.392 . S
C419 C363 1.419 . S
C419 H401 0.948 . S
C420 C421 1.391 . S
C420 C424 1.391 . S
C420 H462 0.948 . S
C421 C420 1.391 . S
C421 C422 1.391 . S
C422 C421 1.391 . S
C422 H478 0.947 . S
C422 C479 1.392 . S
C423 C424 1.391 . S
C423 C427 1.397 . S
C423 C479 1.419 . S
C424 C420 1.391 . S
C424 C423 1.391 . S
C424 C425 1.399 . S
C425 C424 1.399 . S
C425 C428 1.396 . S
C425 C437 1.453 . S
C425 C438 1.684 . S
H426 C450 0.948 . S
C427 C423 1.397 . S
C427 C428 1.394 . S
C427 C446 1.723 . S
C428 C425 1.396 . S
C428 C427 1.394 . S
C428 C458 1.723 . S
H429 C452 0.947 . S
H430 C453 0.948 . S
H431 C459 0.982 . S
H432 C460 0.979 . S
H433 C460 0.980 . S
H434 C460 0.983 . S
H435 C459 0.979 . S
H436 C459 0.977 . S
C437 C425 1.453 . S
C437 H466 0.982 . S
C437 H467 0.979 . S
C437 H468 0.977 . S
C438 C425 1.684 . S
C438 H463 0.979 . S
C438 H464 0.980 . S
C438 H465 0.983 . S
C439 C440 1.391 . S
C439 C444 1.391 . S
C439 H469 0.948 . S
C440 C439 1.391 . S
C440 C441 1.391 . S
C441 C440 1.391 . S
C441 C442 1.392 . S
C441 H470 0.947 . S
C442 C441 1.392 . S
C442 C443 1.419 . S
C442 H471 0.948 . S
C443 C442 1.419 . S
C443 C444 1.391 . S
C443 C447 1.397 . S
C444 C439 1.391 . S
C444 C443 1.391 . S
C444 C445 1.399 . S
C445 C444 1.399 . S
C445 C446 1.396 . S
C445 C448 1.453 . S
C445 C449 1.684 . S
C446 C427 1.723 . S
C446 C445 1.396 . S
C446 C447 1.394 . S
C447 C443 1.397 . S
C447 C446 1.394 . S
C447 C457 1.723 . S
C448 C445 1.453 . S
C448 H472 0.982 . S
C448 H473 0.979 . S
C448 H474 0.977 . S
C449 C445 1.684 . S
C449 H475 0.979 . S
C449 H476 0.980 . S
C449 H477 0.983 . S
C450 H426 0.948 . S
C450 C451 1.391 . S
C450 C455 1.391 . S
C451 C450 1.391 . S
C451 C452 1.391 . S
C452 H429 0.947 . S
C452 C451 1.391 . S
C452 C453 1.392 . S
C453 H430 0.948 . S
C453 C452 1.392 . S
C453 C454 1.419 . S
C454 C453 1.419 . S
C454 C455 1.391 . S
C454 C458 1.397 . S
C455 C450 1.391 . S
C455 C454 1.391 . S
C455 C456 1.399 . S
C456 C455 1.399 . S
C456 C457 1.396 . S
C456 C459 1.453 . S
C456 C460 1.684 . S
C457 C447 1.723 . S
C457 C456 1.396 . S
C457 C458 1.394 . S
C458 C428 1.723 . S
C458 C454 1.397 . S
C458 C457 1.394 . S
C459 H431 0.982 . S
C459 H435 0.979 . S
C459 H436 0.977 . S
C459 C456 1.453 . S
C460 H432 0.979 . S
C460 H433 0.980 . S
C460 H434 0.983 . S
C460 C456 1.684 . S
H461 C479 0.948 . S
H462 C420 0.948 . S
H463 C438 0.979 . S
H464 C438 0.980 . S
H465 C438 0.983 . S
H466 C437 0.982 . S
H467 C437 0.979 . S
H468 C437 0.977 . S
H469 C439 0.948 . S
H470 C441 0.947 . S
H471 C442 0.948 . S
H472 C448 0.982 . S
H473 C448 0.979 . S
H474 C448 0.977 . S
H475 C449 0.979 . S
H476 C449 0.980 . S
H477 C449 0.983 . S
H478 C422 0.947 . S
C479 C422 1.392 . S
C479 C423 1.419 . S
C479 H461 0.948 . S
C480 C481 1.391 . S
C480 C484 1.391 . S
C480 H522 0.948 . S
C481 C480 1.391 . S
C481 C482 1.391 . S
C482 C481 1.391 . S
C482 H538 0.947 . S
C482 C539 1.392 . S
C483 C484 1.391 . S
C483 C487 1.397 . S
C483 C539 1.419 . S
C484 C480 1.391 . S
C484 C483 1.391 . S
C484 C485 1.399 . S
C485 C484 1.399 . S
C485 C488 1.396 . S
C485 C497 1.453 . S
C485 C498 1.684 . S
H486 C510 0.948 . S
C487 C483 1.397 . S
C487 C488 1.394 . S
C487 C506 1.723 . S
C488 C485 1.396 . S
C488 C487 1.394 . S
C488 C518 1.723 . S
H489 C512 0.947 . S
H490 C513 0.948 . S
H491 C519 0.982 . S
H492 C520 0.979 . S
H493 C520 0.980 . S
H494 C520 0.983 . S
H495 C519 0.979 . S
H496 C519 0.977 . S
C497 C485 1.453 . S
C497 H526 0.982 . S
C497 H527 0.979 . S
C497 H528 0.977 . S
C498 C485 1.684 . S
C498 H523 0.979 . S
C498 H524 0.980 . S
C498 H525 0.983 . S
C499 C500 1.391 . S
C499 C504 1.391 . S
C499 H529 0.948 . S
C500 C499 1.391 . S
C500 C501 1.391 . S
C501 C500 1.391 . S
C501 C502 1.392 . S
C501 H530 0.947 . S
C502 C501 1.392 . S
C502 C503 1.419 . S
C502 H531 0.948 . S
C503 C502 1.419 . S
C503 C504 1.391 . S
C503 C507 1.397 . S
C504 C499 1.391 . S
C504 C503 1.391 . S
C504 C505 1.399 . S
C505 C504 1.399 . S
C505 C506 1.396 . S
C505 C508 1.453 . S
C505 C509 1.684 . S
C506 C487 1.723 . S
C506 C505 1.396 . S
C506 C507 1.394 . S
C507 C503 1.397 . S
C507 C506 1.394 . S
C507 C517 1.723 . S
C508 C505 1.453 . S
C508 H532 0.982 . S
C508 H533 0.979 . S
C508 H534 0.977 . S
C509 C505 1.684 . S
C509 H535 0.979 . S
C509 H536 0.980 . S
C509 H537 0.983 . S
C510 H486 0.948 . S
C510 C511 1.391 . S
C510 C515 1.391 . S
C511 C510 1.391 . S
C511 C512 1.391 . S
C512 H489 0.947 . S
C512 C511 1.391 . S
C512 C513 1.392 . S
C513 H490 0.948 . S
C513 C512 1.392 . S
C513 C514 1.419 . S
C514 C513 1.419 . S
C514 C515 1.391 . S
C514 C518 1.397 . S
C515 C510 1.391 . S
C515 C514 1.391 . S
C515 C516 1.399 . S
C516 C515 1.399 . S
C516 C517 1.396 . S
C516 C519 1.453 . S
C516 C520 1.684 . S
C517 C507 1.723 . S
C517 C516 1.396 . S
C517 C518 1.394 . S
C518 C488 1.723 . S
C518 C514 1.397 . S
C518 C517 1.394 . S
C519 H491 0.982 . S
C519 H495 0.979 . S
C519 H496 0.977 . S
C519 C516 1.453 . S
C520 H492 0.979 . S
C520 H493 0.980 . S
C520 H494 0.983 . S
C520 C516 1.684 . S
H521 C539 0.948 . S
H522 C480 0.948 . S
H523 C498 0.979 . S
H524 C498 0.980 . S
H525 C498 0.983 . S
H526 C497 0.982 . S
H527 C497 0.979 . S
H528 C497 0.977 . S
H529 C499 0.948 . S
H530 C501 0.947 . S
H531 C502 0.948 . S
H532 C508 0.982 . S
H533 C508 0.979 . S
H534 C508 0.977 . S
H535 C509 0.979 . S
H536 C509 0.980 . S
H537 C509 0.983 . S
H538 C482 0.947 . S
C539 C482 1.392 . S
C539 C483 1.419 . S
C539 H521 0.948 . S
C540 C541 1.391 . S
C540 C544 1.391 . S
C540 H582 0.948 . S
C541 C540 1.391 . S
C541 C542 1.391 . S
C542 C541 1.391 . S
C542 H598 0.947 . S
C542 C599 1.392 . S
C543 C544 1.391 . S
C543 C547 1.397 . S
C543 C599 1.419 . S
C544 C540 1.391 . S
C544 C543 1.391 . S
C544 C545 1.399 . S
C545 C544 1.399 . S
C545 C548 1.396 . S
C545 C557 1.453 . S
C545 C558 1.684 . S
H546 C570 0.948 . S
C547 C543 1.397 . S
C547 C548 1.394 . S
C547 C566 1.723 . S
C548 C545 1.396 . S
C548 C547 1.394 . S
C548 C578 1.723 . S
H549 C572 0.947 . S
H550 C573 0.948 . S
H551 C579 0.982 . S
H552 C580 0.979 . S
H553 C580 0.980 . S
H554 C580 0.983 . S
H555 C579 0.979 . S
H556 C579 0.977 . S
C557 C545 1.453 . S
C557 H586 0.982 . S
C557 H587 0.979 . S
C557 H588 0.977 . S
C558 C545 1.684 . S
C558 H583 0.979 . S
C558 H584 0.980 . S
C558 H585 0.983 . S
C559 C560 1.391 . S
C559 C564 1.391 . S
C559 H589 0.948 . S
C560 C559 1.391 . S
C560 C561 1.391 . S
C561 C560 1.391 . S
C561 C562 1.392 . S
C561 H590 0.947 . S
C562 C561 1.392 . S
C562 C563 1.419 . S
C562 H591 0.948 . S
C563 C562 1.419 . S
C563 C564 1.391 . S
C563 C567 1.397 . S
C564 C559 1.391 . S
C564 C563 1.391 . S
C564 C565 1.399 . S
C565 C564 1.399 . S
C565 C566 1.396 . S
C565 C568 1.453 . S
C565 C569 1.684 . S
C566 C547 1.723 . S
C566 C565 1.396 . S
C566 C567 1.394 . S
C567 C563 1.397 . S
C567 C566 1.394 . S
C567 C577 1.723 . S
C568 C565 1.453 . S
C568 H592 0.982 . S
C568 H593 0.979 . S
C568 H594 0.977 . S
C569 C565 1.684 . S
C569 H595 0.979 . S
C569 H596 0.980 . S
C569 H597 0.983 . S
C570 H546 0.948 . S
C570 C571 1.391 . S
C570 C575 1.391 . S
C571 C570 1.391 . S
C571 C572 1.391 . S
C572 H549 0.947 . S
C572 C571 1.391 . S
C572 C573 1.392 . S
C573 H550 0.948 . S
C573 C572 1.392 . S
C573 C574 1.419 . S
C574 C573 1.419 . S
C574 C575 1.391 . S
C574 C578 1.397 . S
C575 C570 1.391 . S
C575 C574 1.391 . S
C575 C576 1.399 . S
C576 C575 1.399 . S
C576 C577 1.396 . S
C576 C579 1.453 . S
C576 C580 1.684 . S
C577 C567 1.723 . S
C577 C576 1.396 . S
C577 C578 1.394 . S
C578 C548 1.723 . S
C578 C574 1.397 . S
C578 C577 1.394 . S
C579 H551 0.982 . S
C579 H555 0.979 . S
C579 H556 0.977 . S
C579 C576 1.453 . S
C580 H552 0.979 . S
C580 H553 0.980 . S
C580 H554 0.983 . S
C580 C576 1.684 . S
H581 C599 0.948 . S
H582 C540 0.948 . S
H583 C558 0.979 . S
H584 C558 0.980 . S
H585 C558 0.983 . S
H586 C557 0.982 . S
H587 C557 0.979 . S
H588 C557 0.977 . S
H589 C559 0.948 . S
H590 C561 0.947 . S
H591 C562 0.948 . S
H592 C568 0.982 . S
H593 C568 0.979 . S
H594 C568 0.977 . S
H595 C569 0.979 . S
H596 C569 0.980 . S
H597 C569 0.983 . S
H598 C542 0.947 . S
C599 C542 1.392 . S
C599 C543 1.419 . S
C599 H581 0.948 . S
C600 C601 1.391 . S
C600 C604 1.391 . S
C600 H642 0.948 . S
C601 C600 1.391 . S
C601 C602 1.391 . S
C602 C601 1.391 . S
C602 H658 0.947 . S
C602 C659 1.392 . S
C603 C604 1.391 . S
C603 C607 1.397 . S
C603 C659 1.419 . S
C604 C600 1.391 . S
C604 C603 1.391 . S
C604 C605 1.399 . S
C605 C604 1.399 . S
C605 C608 1.396 . S
C605 C617 1.453 . S
C605 C618 1.684 . S
H606 C630 0.948 . S
C607 C603 1.397 . S
C607 C608 1.394 . S
C607 C626 1.723 . S
C608 C605 1.396 . S
C608 C607 1.394 . S
C608 C638 1.723 . S
H609 C632 0.947 . S
H610 C633 0.948 . S
H611 C639 0.982 . S
H612 C640 0.979 . S
H613 C640 0.980 . S
H614 C640 0.983 . S
H615 C639 0.979 . S
H616 C639 0.977 . S
C617 C605 1.453 . S
C617 H646 0.982 . S
C617 H647 0.979 . S
C617 H648 0.977 . S
C618 C605 1.684 . S
C618 H643 0.979 . S
C618 H644 0.980 . S
C618 H645 0.983 . S
C619 C620 1.391 . S
C619 C624 1.391 . S
C619 H649 0.948 . S
C620 C619 1.391 . S
C620 C621 1.391 . S
C621 C620 1.391 . S
C621 C622 1.392 . S
C621 H650 0.947 . S
C622 C621 1.392 . S
C622 C623 1.419 . S
C622 H651 0.948 . S
C623 C622 1.419 . S
C623 C624 1.391 . S
C623 C627 1.397 . S
C624 C619 1.391 . S
C624 C623 1.391 . S
C624 C625 1.399 . S
C625 C624 1.399 . S
C625 C626 1.396 . S
C625 C628 1.453 . S
C625 C629 1.684 . S
C626 C607 1.723 . S
C626 C625 1.396 . S
C626 C627 1.394 . S
C627 C623 1.397 . S
C627 C626 1.394 . S
C627 C637 1.723 . S
C628 C625 1.453 . S
C628 H652 0.982 . S
C628 H653 0.979 . S
C628 H654 0.977 . S
C629 C625 1.684 . S
C629 H655 0.979 . S
C629 H656 0.980 . S
C629 H657 0.983 . S
C630 H606 0.948 . S
C630 C631 1.391 . S
C630 C635 1.391 . S
C631 C630 1.391 . S
C631 C632 1.391 . S
C632 H609 0.947 . S
C632 C631 1.391 . S
C632 C633 1.392 . S
C633 H610 0.948 . S
C633 C632 1.392 . S
C633 C634 1.419 . S
C634 C633 1.419 . S
C634 C635 1.391 . S
C634 C638 1.397 . S
C635 C630 1.391 . S
C635 C634 1.391 . S
C635 C636 1.399 . S
C636 C635 1.399 . S
C636 C637 1.396 . S
C636 C639 1.453 . S
C636 C640 1.684 . S
C637 C627 1.723 . S
C637 C636 1.396 . S
C637 C638 1.394 . S
C638 C608 1.723 . S
C638 C634 1.397 . S
C638 C637 1.394 . S
C639 H611 0.982 . S
C639 H615 0.979 . S
C639 H616 0.977 . S
C639 C636 1.453 . S
C640 H612 0.979 . S
C640 H613 0.980 . S
C640 H614 0.983 . S
C640 C636 1.684 . S
H641 C659 0.948 . S
H642 C600 0.948 . S
H643 C618 0.979 . S
H644 C618 0.980 . S
H645 C618 0.983 . S
H646 C617 0.982 . S
H647 C617 0.979 . S
H648 C617 0.977 . S
H649 C619 0.948 . S
H650 C621 0.947 . S
H651 C622 0.948 . S
H652 C628 0.982 . S
H653 C628 0.979 . S
H654 C628 0.977 . S
H655 C629 0.979 . S
H656 C629 0.980 . S
H657 C629 0.983 . S
H658 C602 0.947 . S
C659 C602 1.392 . S
C659 C603 1.419 . S
C659 H641 0.948 . S
C660 C661 1.391 . S
C660 C664 1.391 . S
C660 H702 0.948 . S
C661 C660 1.391 . S
C661 C662 1.391 . S
C662 C661 1.391 . S
C662 H718 0.947 . S
C662 C719 1.392 . S
C663 C664 1.391 . S
C663 C667 1.397 . S
C663 C719 1.419 . S
C664 C660 1.391 . S
C664 C663 1.391 . S
C664 C665 1.399 . S
C665 C664 1.399 . S
C665 C668 1.396 . S
C665 C677 1.453 . S
C665 C678 1.684 . S
H666 C690 0.948 . S
C667 C663 1.397 . S
C667 C668 1.394 . S
C667 C686 1.723 . S
C668 C665 1.396 . S
C668 C667 1.394 . S
C668 C698 1.723 . S
H669 C692 0.947 . S
H670 C693 0.948 . S
H671 C699 0.982 . S
H672 C700 0.979 . S
H673 C700 0.980 . S
H674 C700 0.983 . S
H675 C699 0.979 . S
H676 C699 0.977 . S
C677 C665 1.453 . S
C677 H706 0.982 . S
C677 H707 0.979 . S
C677 H708 0.977 . S
C678 C665 1.684 . S
C678 H703 0.979 . S
C678 H704 0.980 . S
C678 H705 0.983 . S
C679 C680 1.391 . S
C679 C684 1.391 . S
C679 H709 0.948 . S
C680 C679 1.391 . S
C680 C681 1.391 . S
C681 C680 1.391 . S
C681 C682 1.392 . S
C681 H710 0.947 . S
C682 C681 1.392 . S
C682 C683 1.419 . S
C682 H711 0.948 . S
C683 C682 1.419 . S
C683 C684 1.391 . S
C683 C687 1.397 . S
C684 C679 1.391 . S
C684 C683 1.391 . S
C684 C685 1.399 . S
C685 C684 1.399 . S
C685 C686 1.396 . S
C685 C688 1.453 . S
C685 C689 1.684 . S
C686 C667 1.723 . S
C686 C685 1.396 . S
C686 C687 1.394 . S
C687 C683 1.397 . S
C687 C686 1.394 . S
C687 C697 1.723 . S
C688 C685 1.453 . S
C688 H712 0.982 . S
C688 H713 0.979 . S
C688 H714 0.977 . S
C689 C685 1.684 . S
C689 H715 0.979 . S
C689 H716 0.980 . S
C689 H717 0.983 . S
C690 H666 0.948 . S
C690 C691 1.391 . S
C690 C695 1.391 . S
C691 C690 1.391 . S
C691 C692 1.391 . S
C692 H669 0.947 . S
C692 C691 1.391 . S
C692 C693 1.392 . S
C693 H670 0.948 . S
C693 C692 1.392 . S
C693 C694 1.419 . S
C694 C693 1.419 . S
C694 C695 1.391 . S
C694 C698 1.397 . S
C695 C690 1.391 . S
C695 C694 1.391 . S
C695 C696 1.399 . S
C696 C695 1.399 . S
C696 C697 1.396 . S
C696 C699 1.453 . S
C696 C700 1.684 . S
C697 C687 1.723 . S
C697 C696 1.396 . S
C697 C698 1.394 . S
C698 C668 1.723 . S
C698 C694 1.397 . S
C698 C697 1.394 . S
C699 H671 0.982 . S
C699 H675 0.979 . S
C699 H676 0.977 . S
C699 C696 1.453 . S
C700 H672 0.979 . S
C700 H673 0.980 . S
C700 H674 0.983 . S
C700 C696 1.684 . S
H701 C719 0.948 . S
H702 C660 0.948 . S
H703 C678 0.979 . S
H704 C678 0.980 . S
H705 C678 0.983 . S
H706 C677 0.982 . S
H707 C677 0.979 . S
H708 C677 0.977 . S
H709 C679 0.948 . S
H710 C681 0.947 . S
H711 C682 0.948 . S
H712 C688 0.982 . S
H713 C688 0.979 . S
H714 C688 0.977 . S
H715 C689 0.979 . S
H716 C689 0.980 . S
H717 C689 0.983 . S
H718 C662 0.947 . S
C719 C662 1.392 . S
C719 C663 1.419 . S
C719 H701 0.948 . S
C720 C721 1.391 . S
C720 C724 1.391 . S
C720 H762 0.948 . S
C721 C720 1.391 . S
C721 C722 1.391 . S
C722 C721 1.391 . S
C722 H778 0.947 . S
C722 C779 1.392 . S
C723 C724 1.391 . S
C723 C727 1.397 . S
C723 C779 1.419 . S
C724 C720 1.391 . S
C724 C723 1.391 . S
C724 C725 1.399 . S
C725 C724 1.399 . S
C725 C728 1.396 . S
C725 C737 1.453 . S
C725 C738 1.684 . S
H726 C750 0.948 . S
C727 C723 1.397 . S
C727 C728 1.394 . S
C727 C746 1.723 . S
C728 C725 1.396 . S
C728 C727 1.394 . S
C728 C758 1.723 . S
H729 C752 0.947 . S
H730 C753 0.948 . S
H731 C759 0.982 . S
H732 C760 0.979 . S
H733 C760 0.980 . S
H734 C760 0.983 . S
H735 C759 0.979 . S
H736 C759 0.977 . S
C737 C725 1.453 . S
C737 H766 0.982 . S
C737 H767 0.979 . S
C737 H768 0.977 . S
C738 C725 1.684 . S
C738 H763 0.979 . S
C738 H764 0.980 . S
C738 H765 0.983 . S
C739 C740 1.391 . S
C739 C744 1.391 . S
C739 H769 0.948 . S
C740 C739 1.391 . S
C740 C741 1.391 . S
C741 C740 1.391 . S
C741 C742 1.392 . S
C741 H770 0.947 . S
C742 C741 1.392 . S
C742 C743 1.419 . S
C742 H771 0.948 . S
C743 C742 1.419 . S
C743 C744 1.391 . S
C743 C747 1.397 . S
C744 C739 1.391 . S
C744 C743 1.391 . S
C744 C745 1.399 . S
C745 C744 1.399 . S
C745 C746 1.396 . S
C745 C748 1.453 . S
C745 C749 1.684 . S
C746 C727 1.723 . S
C746 C745 1.396 . S
C746 C747 1.394 . S
C747 C743 1.397 . S
C747 C746 1.394 . S
C747 C757 1.723 . S
C748 C745 1.453 . S
C748 H772 0.982 . S
C748 H773 0.979 . S
C748 H774 0.977 . S
C749 C745 1.684 . S
C749 H775 0.979 . S
C749 H776 0.980 . S
C749 H777 0.983 . S
C750 H726 0.948 . S
C750 C751 1.391 . S
C750 C755 1.391 . S
C751 C750 1.391 . S
C751 C752 1.391 . S
C752 H729 0.947 . S
C752 C751 1.391 . S
C752 C753 1.392 . S
C753 H730 0.948 . S
C753 C752 1.392 . S
C753 C754 1.419 . S
C754 C753 1.419 . S
C754 C755 1.391 . S
C754 C758 1.397 . S
C755 C750 1.391 . S
C755 C754 1.391 . S
C755 C756 1.399 . S
C756 C755 1.399 . S
C756 C757 1.396 . S
C756 C759 1.453 . S
C756 C760 1.684 . S
C757 C747 1.723 . S
C757 C756 1.396 . S
C757 C758 1.394 . S
C758 C728 1.723 . S
C758 C754 1.397 . S
C758 C757 1.394 . S
C759 H731 0.982 . S
C759 H735 0.979 . S
C759 H736 0.977 . S
C759 C756 1.453 . S
C760 H732 0.979 . S
C760 H733 0.980 . S
C760 H734 0.983 . S
C760 C756 1.684 . S
H761 C779 0.948 . S
H762 C720 0.948 . S
H763 C738 0.979 . S
H764 C738 0.980 . S
H765 C738 0.983 . S
H766 C737 0.982 . S
H767 C737 0.979 . S
H768 C737 0.977 . S
H769 C739 0.948 . S
H770 C741 0.947 . S
H771 C742 0.948 . S
H772 C748 0.982 . S
H773 C748 0.979 . S
H774 C748 0.977 . S
H775 C749 0.979 . S
H776 C749 0.980 . S
H777 C749 0.983 . S
H778 C722 0.947 . S
C779 C722 1.392 . S
C779 C723 1.419 . S
C779 H761 0.948 . S
C780 C781 1.391 . S
C780 C784 1.391 . S
C780 H822 0.948 . S
C781 C780 1.391 . S
C781 C782 1.391 . S
C782 C781 1.391 . S
C782 H838 0.947 . S
C782 C839 1.392 . S
C783 C784 1.391 . S
C783 C787 1.397 . S
C783 C839 1.419 . S
C784 C780 1.391 . S
C784 C783 1.391 . S
C784 C785 1.399 . S
C785 C784 1.399 . S
C785 C788 1.396 . S
C785 C797 1.453 . S
C785 C798 1.684 . S
H786 C810 0.948 . S
C787 C783 1.397 . S
C787 C788 1.394 . S
C787 C806 1.723 . S
C788 C785 1.396 . S
C788 C787 1.394 . S
C788 C818 1.723 . S
H789 C812 0.947 . S
H790 C813 0.948 . S
H791 C819 0.982 . S
H792 C820 0.979 . S
H793 C820 0.980 . S
H794 C820 0.983 . S
H795 C819 0.979 . S
H796 C819 0.977 . S
C797 C785 1.453 . S
C797 H826 0.982 . S
C797 H827 0.979 . S
C797 H828 0.977 . S
C798 C785 1.684 . S
C798 H823 0.979 . S
C798 H824 0.980 . S
C798 H825 0.983 . S
C799 C800 1.391 . S
C799 C804 1.391 . S
C799 H829 0.948 . S
C800 C799 1.391 . S
C800 C801 1.391 . S
C801 C800 1.391 . S
C801 C802 1.392 . S
C801 H830 0.947 . S
C802 C801 1.392 . S
C802 C803 1.419 . S
C802 H831 0.948 . S
C803 C802 1.419 . S
C803 C804 1.391 . S
C803 C807 1.397 . S
C804 C799 1.391 . S
C804 C803 1.391 . S
C804 C805 1.399 . S
C805 C804 1.399 . S
C805 C806 1.396 . S
C805 C808 1.453 . S
C805 C809 1.684 . S
C806 C787 1.723 . S
C806 C805 1.396 . S
C806 C807 1.394 . S
C807 C803 1.397 . S
C807 C806 1.394 . S
C807 C817 1.723 . S
C808 C805 1.453 . S
C808 H832 0.982 . S
C808 H833 0.979 . S
C808 H834 0.977 . S
C809 C805 1.684 . S
C809 H835 0.979 . S
C809 H836 0.980 . S
C809 H837 0.983 . S
C810 H786 0.948 . S
C810 C811 1.391 . S
C810 C815 1.391 . S
C811 C810 1.391 . S
C811 C812 1.391 . S
C812 H789 0.947 . S
C812 C811 1.391 . S
C812 C813 1.392 . S
C813 H790 0.948 . S
C813 C812 1.392 . S
C813 C814 1.419 . S
C814 C813 1.419 . S
C814 C815 1.391 . S
C814 C818 1.397 . S
C815 C810 1.391 . S
C815 C814 1.391 . S
C815 C816 1.399 . S
C816 C815 1.399 . S
C816 C817 1.396 . S
C816 C819 1.453 . S
C816 C820 1.684 . S
C817 C807 1.723 . S
C817 C816 1.396 . S
C817 C818 1.394 . S
C818 C788 1.723 . S
C818 C814 1.397 . S
C818 C817 1.394 . S
C819 H791 0.982 . S
C819 H795 0.979 . S
C819 H796 0.977 . S
C819 C816 1.453 . S
C820 H792 0.979 . S
C820 H793 0.980 . S
C820 H794 0.983 . S
C820 C816 1.684 . S
H821 C839 0.948 . S
H822 C780 0.948 . S
H823 C798 0.979 . S
H824 C798 0.980 . S
H825 C798 0.983 . S
H826 C797 0.982 . S
H827 C797 0.979 . S
H828 C797 0.977 . S
H829 C799 0.948 . S
H830 C801 0.947 . S
H831 C802 0.948 . S
H832 C808 0.982 . S
H833 C808 0.979 . S
H834 C808 0.977 . S
H835 C809 0.979 . S
H836 C809 0.980 . S
H837 C809 0.983 . S
H838 C782 0.947 . S
C839 C782 1.392 . S
C839 C783 1.419 . S
C839 H821 0.948 . S
C840 C841 1.391 . S
C840 C844 1.391 . S
C840 H882 0.948 . S
C841 C840 1.391 . S
C841 C842 1.391 . S
C842 C841 1.391 . S
C842 H898 0.947 . S
C842 C899 1.392 . S
C843 C844 1.391 . S
C843 C847 1.397 . S
C843 C899 1.419 . S
C844 C840 1.391 . S
C844 C843 1.391 . S
C844 C845 1.399 . S
C845 C844 1.399 . S
C845 C848 1.396 . S
C845 C857 1.453 . S
C845 C858 1.684 . S
H846 C870 0.948 . S
C847 C843 1.397 . S
C847 C848 1.394 . S
C847 C866 1.723 . S
C848 C845 1.396 . S
C848 C847 1.394 . S
C848 C878 1.723 . S
H849 C872 0.947 . S
H850 C873 0.948 . S
H851 C879 0.982 . S
H852 C880 0.979 . S
H853 C880 0.980 . S
H854 C880 0.983 . S
H855 C879 0.979 . S
H856 C879 0.977 . S
C857 C845 1.453 . S
C857 H886 0.982 . S
C857 H887 0.979 . S
C857 H888 0.977 . S
C858 C845 1.684 . S
C858 H883 0.979 . S
C858 H884 0.980 . S
C858 H885 0.983 . S
C859 C860 1.391 . S
C859 C864 1.391 . S
C859 H889 0.948 . S
C860 C859 1.391 . S
C860 C861 1.391 . S
C861 C860 1.391 . S
C861 C862 1.392 . S
C861 H890 0.947 . S
C862 C861 1.392 . S
C862 C863 1.419 . S
C862 H891 0.948 . S
C863 C862 1.419 . S
C863 C864 1.391 . S
C863 C867 1.397 . S
C864 C859 1.391 . S
C864 C863 1.391 . S
C864 C865 1.399 . S
C865 C864 1.399 . S
C865 C866 1.396 . S
C865 C868 1.453 . S
C865 C869 1.684 . S
C866 C847 1.723 . S
C866 C865 1.396 . S
C866 C867 1.394 . S
C867 C863 1.397 . S
C867 C866 1.394 . S
C867 C877 1.723 . S
C868 C865 1.453 . S
C868 H892 0.982 . S
C868 H893 0.979 . S
C868 H894 0.977 . S
C869 C865 1.684 . S
C869 H895 0.979 . S
C869 H896 0.980 . S
C869 H897 0.983 . S
C870 H846 0.948 . S
C870 C871 1.391 . S
C870 C875 1.391 . S
C871 C870 1.391 . S
C871 C872 1.391 . S
C872 H849 0.947 . S
C872 C871 1.391 . S
C872 C873 1.392 . S
C873 H850 0.948 . S
C873 C872 1.392 . S
C873 C874 1.419 . S
C874 C873 1.419 . S
C874 C875 1.391 . S
C874 C878 1.397 . S
C875 C870 1.391 . S
C875 C874 1.391 . S
C875 C876 1.399 . S
C876 C875 1.399 . S
C876 C877 1.396 . S
C876 C879 1.453 . S
C876 C880 1.684 . S
C877 C867 1.723 . S
C877 C876 1.396 . S
C877 C878 1.394 . S
C878 C848 1.723 . S
C878 C874 1.397 . S
C878 C877 1.394 . S
C879 H851 0.982 . S
C879 H855 0.979 . S
C879 H856 0.977 . S
C879 C876 1.453 . S
C880 H852 0.979 . S
C880 H853 0.980 . S
C880 H854 0.983 . S
C880 C876 1.684 . S
H881 C899 0.948 . S
H882 C840 0.948 . S
H883 C858 0.979 . S
H884 C858 0.980 . S
H885 C858 0.983 . S
H886 C857 0.982 . S
H887 C857 0.979 . S
H888 C857 0.977 . S
H889 C859 0.948 . S
H890 C861 0.947 . S
H891 C862 0.948 . S
H892 C868 0.982 . S
H893 C868 0.979 . S
H894 C868 0.977 . S
H895 C869 0.979 . S
H896 C869 0.980 . S
H897 C869 0.983 . S
H898 C842 0.947 . S
C899 C842 1.392 . S
C899 C843 1.419 . S
C899 H881 0.948 . S
C900 C901 1.391 . S
C900 C904 1.391 . S
C900 H942 0.948 . S
C901 C900 1.391 . S
C901 C902 1.391 . S
C902 C901 1.391 . S
C902 H958 0.947 . S
C902 C959 1.392 . S
C903 C904 1.391 . S
C903 C907 1.397 . S
C903 C959 1.419 . S
C904 C900 1.391 . S
C904 C903 1.391 . S
C904 C905 1.399 . S
C905 C904 1.399 . S
C905 C908 1.396 . S
C905 C917 1.453 . S
C905 C918 1.684 . S
H906 C930 0.948 . S
C907 C903 1.397 . S
C907 C908 1.394 . S
C907 C926 1.723 . S
C908 C905 1.396 . S
C908 C907 1.394 . S
C908 C938 1.723 . S
H909 C932 0.947 . S
H910 C933 0.948 . S
H911 C939 0.982 . S
H912 C940 0.979 . S
H913 C940 0.980 . S
H914 C940 0.983 . S
H915 C939 0.979 . S
H916 C939 0.977 . S
C917 C905 1.453 . S
C917 H946 0.982 . S
C917 H947 0.979 . S
C917 H948 0.977 . S
C918 C905 1.684 . S
C918 H943 0.979 . S
C918 H944 0.980 . S
C918 H945 0.983 . S
C919 C920 1.391 . S
C919 C924 1.391 . S
C919 H949 0.948 . S
C920 C919 1.391 . S
C920 C921 1.391 . S
C921 C920 1.391 . S
C921 C922 1.392 . S
C921 H950 0.947 . S
C922 C921 1.392 . S
C922 C923 1.419 . S
C922 H951 0.948 . S
C923 C922 1.419 . S
C923 C924 1.391 . S
C923 C927 1.397 . S
C924 C919 1.391 . S
C924 C923 1.391 . S
C924 C925 1.399 . S
C925 C924 1.399 . S
C925 C926 1.396 . S
C925 C928 1.453 . S
C925 C929 1.684 . S
C926 C907 1.723 . S
C926 C925 1.396 . S
C926 C927 1.394 . S
C927 C923 1.397 . S
C927 C926 1.394 . S
C927 C937 1.723 . S
C928 C925 1.453 . S
C928 H952 0.982 . S
C928 H953 0.979 . S
C928 H954 0.977 . S
C929 C925 1.684 . S
C929 H955 0.979 . S
C929 H956 0.980 . S
C929 H957 0.983 . S
C930 H906 0.948 . S
C930 C931 1.391 . S
C930 C935 1.391 . S
C931 C930 1.391 . S
C931 C932 1.391 . S
C932 H909 0.947 . S
C932 C931 1.391 . S
C932 C933 1.392 . S
C933 H910 0.948 . S
C933 C932 1.392 . S
C933 C934 1.419 . S
C934 C933 1.419 . S
C934 C935 1.391 . S
C934 C938 1.397 . S
C935 C930 1.391 . S
C935 C934 1.391 . S
C935 C936 1.399 . S
C936 C935 1.399 . S
C936 C937 1.396 . S
C936 C939 1.453 . S
C936 C940 1.684 . S
C937 C927 1.723 . S
C937 C936 1.396 . S
C937 C938 1.394 . S
C938 C908 1.723 . S
C938 C934 1.397 . S
C938 C937 1.394 . S
C939 H911 0.982 . S
C939 H915 0.979 . S
C939 H916 0.977 . S
C939 C936 1.453 . S
C940 H912 0.979 . S
C940 H913 0.980 . S
C940 H914 0.983 . S
C940 C936 1.684 . S
H941 C959 0.948 . S
H942 C900 0.948 . S
H943 C918 0.979 . S
H944 C918 0.980 . S
H945 C918 0.983 . S
H946 C917 0.982 . S
H947 C917 0.979 . S
H948 C917 0.977 . S
H949 C919 0.948 . S
H950 C921 0.947 . S
H951 C922 0.948 . S
H952 C928 0.982 . S
H953 C928 0.979 . S
H954 C928 0.977 . S
H955 C929 0.979 . S
H956 C929 0.980 . S
H957 C929 0.983 . S
H958 C902 0.947 . S
C959 C902 1.392 . S
C959 C903 1.419 . S
C959 H941 0.948 . S
C960 C961 1.391 . S
C960 C964 1.391 . S
C960 H1002 0.948 . S
C961 C960 1.391 . S
C961 C962 1.391 . S
C962 C961 1.391 . S
C962 H1018 0.947 . S
C962 C1019 1.392 . S
C963 C964 1.391 . S
C963 C967 1.397 . S
C963 C1019 1.419 . S
C964 C960 1.391 . S
C964 C963 1.391 . S
C964 C965 1.399 . S
C965 C964 1.399 . S
C965 C968 1.396 . S
C965 C977 1.453 . S
C965 C978 1.684 . S
H966 C990 0.948 . S
C967 C963 1.397 . S
C967 C968 1.394 . S
C967 C986 1.723 . S
C968 C965 1.396 . S
C968 C967 1.394 . S
C968 C998 1.723 . S
H969 C992 0.947 . S
H970 C993 0.948 . S
H971 C999 0.982 . S
H972 C1000 0.979 . S
H973 C1000 0.980 . S
H974 C1000 0.983 . S
H975 C999 0.979 . S
H976 C999 0.977 . S
C977 C965 1.453 . S
C977 H1006 0.982 . S
C977 H1007 0.979 . S
C977 H1008 0.977 . S
C978 C965 1.684 . S
C978 H1003 0.979 . S
C978 H1004 0.980 . S
C978 H1005 0.983 . S
C979 C980 1.391 . S
C979 C984 1.391 . S
C979 H1009 0.948 . S
C980 C979 1.391 . S
C980 C981 1.391 . S
C981 C980 1.391 . S
C981 C982 1.392 . S
C981 H1010 0.947 . S
C982 C981 1.392 . S
C982 C983 1.419 . S
C982 H1011 0.948 . S
C983 C982 1.419 . S
C983 C984 1.391 . S
C983 C987 1.397 . S
C984 C979 1.391 . S
C984 C983 1.391 . S
C984 C985 1.399 . S
C985 C984 1.399 . S
C985 C986 1.396 . S
C985 C988 1.453 . S
C985 C989 1.684 . S
C986 C967 1.723 . S
C986 C985 1.396 . S
C986 C987 1.394 . S
C987 C983 1.397 . S
C987 C986 1.394 . S
C987 C997 1.723 . S
C988 C985 1.453 . S
C988 H1012 0.982 . S
C988 H1013 0.979 . S
C988 H1014 0.977 . S
C989 C985 1.684 . S
C989 H1015 0.979 . S
C989 H1016 0.980 . S
C989 H1017 0.983 . S
C990 H966 0.948 . S
C990 C991 1.391 . S
C990 C995 1.391 . S
C991 C990 1.391 . S
C991 C992 1.391 . S
C992 H969 0.947 . S
C992 C991 1.391 . S
C992 C993 1.392 . S
C993 H970 0.948 . S
C993 C992 1.392 . S
C993 C994 1.419 . S
C994 C993 1.419 . S
C994 C995 1.391 . S
C994 C998 1.397 . S
C995 C990 1.391 . S
C995 C994 1.391 . S
C995 C996 1.399 . S
C996 C995 1.399 . S
C996 C997 1.396 . S
C996 C999 1.453 . S
C996 C1000 1.684 . S
C997 C987 1.723 . S
C997 C996 1.396 . S
C997 C998 1.394 . S
C998 C968 1.723 . S
C998 C994 1.397 . S
C998 C997 1.394 . S
C999 H971 0.982 . S
C999 H975 0.979 . S
C999 H976 0.977 . S
C999 C996 1.453 . S
C1000 H972 0.979 . S
C1000 H973 0.980 . S
C1000 H974 0.983 . S
C1000 C996 1.684 . S
H1001 C1019 0.948 . S
H1002 C960 0.948 . S
H1003 C978 0.979 . S
H1004 C978 0.980 . S
H1005 C978 0.983 . S
H1006 C977 0.982 . S
H1007 C977 0.979 . S
H1008 C977 0.977 . S
H1009 C979 0.948 . S
H1010 C981 0.947 . S
H1011 C982 0.948 . S
H1012 C988 0.982 . S
H1013 C988 0.979 . S
H1014 C988 0.977 . S
H1015 C989 0.979 . S
H1016 C989 0.980 . S
H1017 C989 0.983 . S
H1018 C962 0.947 . S
C1019 C962 1.392 . S
C1019 C963 1.419 . S
C1019 H1001 0.948 . S
C1020 C1021 1.391 . S
C1020 C1024 1.391 . S
C1020 H1062 0.948 . S
C1021 C1020 1.391 . S
C1021 C1022 1.391 . S
C1022 C1021 1.391 . S
C1022 H1078 0.947 . S
C1022 C1079 1.392 . S
C1023 C1024 1.391 . S
C1023 C1027 1.397 . S
C1023 C1079 1.419 . S
C1024 C1020 1.391 . S
C1024 C1023 1.391 . S
C1024 C1025 1.399 . S
C1025 C1024 1.399 . S
C1025 C1028 1.396 . S
C1025 C1037 1.453 . S
C1025 C1038 1.684 . S
H1026 C1050 0.948 . S
C1027 C1023 1.397 . S
C1027 C1028 1.394 . S
C1027 C1046 1.723 . S
C1028 C1025 1.396 . S
C1028 C1027 1.394 . S
C1028 C1058 1.723 . S
H1029 C1052 0.947 . S
H1030 C1053 0.948 . S
H1031 C1059 0.982 . S
H1032 C1060 0.979 . S
H1033 C1060 0.980 . S
H1034 C1060 0.983 . S
H1035 C1059 0.979 . S
H1036 C1059 0.977 . S
C1037 C1025 1.453 . S
C1037 H1066 0.982 . S
C1037 H1067 0.979 . S
C1037 H1068 0.977 . S
C1038 C1025 1.684 . S
C1038 H1063 0.979 . S
C1038 H1064 0.980 . S
C1038 H1065 0.983 . S
C1039 C1040 1.391 . S
C1039 C1044 1.391 . S
C1039 H1069 0.948 . S
C1040 C1039 1.391 . S
C1040 C1041 1.391 . S
C1041 C1040 1.391 . S
C1041 C1042 1.392 . S
C1041 H1070 0.947 . S
C1042 C1041 1.392 . S
C1042 C1043 1.419 . S
C1042 H1071 0.948 . S
C1043 C1042 1.419 . S
C1043 C1044 1.391 . S
C1043 C1047 1.397 . S
C1044 C1039 1.391 . S
C1044 C1043 1.391 . S
C1044 C1045 1.399 . S
C1045 C1044 1.399 . S
C1045 C1046 1.396 . S
C1045 C1048 1.453 . S
C1045 C1049 1.684 . S
C1046 C1027 1.723 . S
C1046 C1045 1.396 . S
C1046 C1047 1.394 . S
C1047 C1043 1.397 . S
C1047 C1046 1.394 . S
C1047 C1057 1.723 . S
C1048 C1045 1.453 . S
C1048 H1072 0.982 . S
C1048 H1073 0.979 . S
C1048 H1074 0.977 . S
C1049 C1045 1.684 . S
C1049 H1075 0.979 . S
C1049 H1076 0.980 . S
C1049 H1077 0.983 . S
C1050 H1026 0.948 . S
C1050 C1051 1.391 . S
C1050 C1055 1.391 . S
C1051 C1050 1.391 . S
C1051 C1052 1.391 . S
C1052 H1029 0.947 . S
C1052 C1051 1.391 . S
C1052 C1053 1.392 . S
C1053 H1030 0.948 . S
C1053 C1052 1.392 . S
C1053 C1054 1.419 . S
C1054 C1053 1.419 . S
C1054 C1055 1.391 . S
C1054 C1058 1.397 . S
C1055 C1050 1.391 . S
C1055 C1054 1.391 . S
C1055 C1056 1.399 . S
C1056 C1055 1.399 . S
C1056 C1057 1.396 . S
C1056 C1059 1.453 . S
C1056 C1060 1.684 . S
C1057 C1047 1.723 . S
C1057 C1056 1.396 . S
C1057 C1058 1.394 . S
C1058 C1028 1.723 . S
C1058 C1054 1.397 . S
C1058 C1057 1.394 . S
C1059 H1031 0.982 . S
C1059 H1035 0.979 . S
C1059 H1036 0.977 . S
C1059 C1056 1.453 . S
C1060 H1032 0.979 . S
C1060 H1033 0.980 . S
C1060 H1034 0.983 . S
C1060 C1056 1.684 . S
H1061 C1079 0.948 . S
H1062 C1020 0.948 . S
H1063 C1038 0.979 . S
H1064 C1038 0.980 . S
H1065 C1038 0.983 . S
H1066 C1037 0.982 . S
H1067 C1037 0.979 . S
H1068 C1037 0.977 . S
H1069 C1039 0.948 . S
H1070 C1041 0.947 . S
H1071 C1042 0.948 . S
H1072 C1048 0.982 . S
H1073 C1048 0.979 . S
H1074 C1048 0.977 . S
H1075 C1049 0.979 . S
H1076 C1049 0.980 . S
H1077 C1049 0.983 . S
H1078 C1022 0.947 . S
C1079 C1022 1.392 . S
C1079 C1023 1.419 . S
C1079 H1061 0.948 . S
C1080 C1081 1.391 . S
C1080 C1084 1.391 . S
C1080 H1122 0.948 . S
C1081 C1080 1.391 . S
C1081 C1082 1.391 . S
C1082 C1081 1.391 . S
C1082 H1138 0.947 . S
C1082 C1139 1.392 . S
C1083 C1084 1.391 . S
C1083 C1087 1.397 . S
C1083 C1139 1.419 . S
C1084 C1080 1.391 . S
C1084 C1083 1.391 . S
C1084 C1085 1.399 . S
C1085 C1084 1.399 . S
C1085 C1088 1.396 . S
C1085 C1097 1.453 . S
C1085 C1098 1.684 . S
H1086 C1110 0.948 . S
C1087 C1083 1.397 . S
C1087 C1088 1.394 . S
C1087 C1106 1.723 . S
C1088 C1085 1.396 . S
C1088 C1087 1.394 . S
C1088 C1118 1.723 . S
H1089 C1112 0.947 . S
H1090 C1113 0.948 . S
H1091 C1119 0.982 . S
H1092 C1120 0.979 . S
H1093 C1120 0.980 . S
H1094 C1120 0.983 . S
H1095 C1119 0.979 . S
H1096 C1119 0.977 . S
C1097 C1085 1.453 . S
C1097 H1126 0.982 . S
C1097 H1127 0.979 . S
C1097 H1128 0.977 . S
C1098 C1085 1.684 . S
C1098 H1123 0.979 . S
C1098 H1124 0.980 . S
C1098 H1125 0.983 . S
C1099 C1100 1.391 . S
C1099 C1104 1.391 . S
C1099 H1129 0.948 . S
C1100 C1099 1.391 . S
C1100 C1101 1.391 . S
C1101 C1100 1.391 . S
C1101 C1102 1.392 . S
C1101 H1130 0.947 . S
C1102 C1101 1.392 . S
C1102 C1103 1.419 . S
C1102 H1131 0.948 . S
C1103 C1102 1.419 . S
C1103 C1104 1.391 . S
C1103 C1107 1.397 . S
C1104 C1099 1.391 . S
C1104 C1103 1.391 . S
C1104 C1105 1.399 . S
C1105 C1104 1.399 . S
C1105 C1106 1.396 . S
C1105 C1108 1.453 . S
C1105 C1109 1.684 . S
C1106 C1087 1.723 . S
C1106 C1105 1.396 . S
C1106 C1107 1.394 . S
C1107 C1103 1.397 . S
C1107 C1106 1.394 . S
C1107 C1117 1.723 . S
C1108 C1105 1.453 . S
C1108 H1132 0.982 . S
C1108 H1133 0.979 . S
C1108 H1134 0.977 . S
C1109 C1105 1.684 . S
C1109 H1135 0.979 . S
C1109 H1136 0.980 . S
C1109 H1137 0.983 . S
C1110 H1086 0.948 . S
C1110 C1111 1.391 . S
C1110 C1115 1.391 . S
C1111 C1110 1.391 . S
C1111 C1112 1.391 . S
C1112 H1089 0.947 . S
C1112 C1111 1.391 . S
C1112 C1113 1.392 . S
C1113 H1090 0.948 . S
C1113 C1112 1.392 . S
C1113 C1114 1.419 . S
C1114 C1113 1.419 . S
C1114 C1115 1.391 . S
C1114 C1118 1.397 . S
C1115 C1110 1.391 . S
C1115 C1114 1.391 . S
C1115 C1116 1.399 . S
C1116 C1115 1.399 . S
C1116 C1117 1.396 . S
C1116 C1119 1.453 . S
C1116 C1120 1.684 . S
C1117 C1107 1.723 . S
C1117 C1116 1.396 . S
C1117 C1118 1.394 . S
C1118 C1088 1.723 . S
C1118 C1114 1.397 . S
C1118 C1117 1.394 . S
C1119 H1091 0.982 . S
C1119 H1095 0.979 . S
C1119 H1096 0.977 . S
C1119 C1116 1.453 . S
C1120 H1092 0.979 . S
C1120 H1093 0.980 . S
C1120 H1094 0.983 . S
C1120 C1116 1.684 . S
H1121 C1139 0.948 . S
H1122 C1080 0.948 . S
H1123 C1098 0.979 . S
H1124 C1098 0.980 . S
H1125 C1098 0.983 . S
H1126 C1097 0.982 . S
H1127 C1097 0.979 . S
H1128 C1097 0.977 . S
H1129 C1099 0.948 . S
H1130 C1101 0.947 . S
H1131 C1102 0.948 . S
H1132 C1108 0.982 . S
H1133 C1108 0.979 . S
H1134 C1108 0.977 . S
H1135 C1109 0.979 . S
H1136 C1109 0.980 . S
H1137 C1109 0.983 . S
H1138 C1082 0.947 . S
C1139 C1082 1.392 . S
C1139 C1083 1.419 . S
C1139 H1121 0.948 . S
C1140 C1141 1.391 . S
C1140 C1144 1.391 . S
C1140 H1182 0.948 . S
C1141 C1140 1.391 . S
C1141 C1142 1.391 . S
C1142 C1141 1.391 . S
C1142 H1198 0.947 . S
C1142 C1199 1.392 . S
C1143 C1144 1.391 . S
C1143 C1147 1.397 . S
C1143 C1199 1.419 . S
C1144 C1140 1.391 . S
C1144 C1143 1.391 . S
C1144 C1145 1.399 . S
C1145 C1144 1.399 . S
C1145 C1148 1.396 . S
C1145 C1157 1.453 . S
C1145 C1158 1.684 . S
H1146 C1170 0.948 . S
C1147 C1143 1.397 . S
C1147 C1148 1.394 . S
C1147 C1166 1.723 . S
C1148 C1145 1.396 . S
C1148 C1147 1.394 . S
C1148 C1178 1.723 . S
H1149 C1172 0.947 . S
H1150 C1173 0.948 . S
H1151 C1179 0.982 . S
H1152 C1180 0.979 . S
H1153 C1180 0.980 . S
H1154 C1180 0.983 . S
H1155 C1179 0.979 . S
H1156 C1179 0.977 . S
C1157 C1145 1.453 . S
C1157 H1186 0.982 . S
C1157 H1187 0.979 . S
C1157 H1188 0.977 . S
C1158 C1145 1.684 . S
C1158 H1183 0.979 . S
C1158 H1184 0.980 . S
C1158 H1185 0.983 . S
C1159 C1160 1.391 . S
C1159 C1164 1.391 . S
C1159 H1189 0.948 . S
C1160 C1159 1.391 . S
C1160 C1161 1.391 . S
C1161 C1160 1.391 . S
C1161 C1162 1.392 . S
C1161 H1190 0.947 . S
C1162 C1161 1.392 . S
C1162 C1163 1.419 . S
C1162 H1191 0.948 . S
C1163 C1162 1.419 . S
C1163 C1164 1.391 . S
C1163 C1167 1.397 . S
C1164 C1159 1.391 . S
C1164 C1163 1.391 . S
C1164 C1165 1.399 . S
C1165 C1164 1.399 . S
C1165 C1166 1.396 . S
C1165 C1168 1.453 . S
C1165 C1169 1.684 . S
C1166 C1147 1.723 . S
C1166 C1165 1.396 . S
C1166 C1167 1.394 . S
C1167 C1163 1.397 . S
C1167 C1166 1.394 . S
C1167 C1177 1.723 . S
C1168 C1165 1.453 . S
C1168 H1192 0.982 . S
C1168 H1193 0.979 . S
C1168 H1194 0.977 . S
C1169 C1165 1.684 . S
C1169 H1195 0.979 . S
C1169 H1196 0.980 . S
C1169 H1197 0.983 . S
C1170 H1146 0.948 . S
C1170 C1171 1.391 . S
C1170 C1175 1.391 . S
C1171 C1170 1.391 . S
C1171 C1172 1.391 . S
C1172 H1149 0.947 . S
C1172 C1171 1.391 . S
C1172 C1173 1.392 . S
C1173 H1150 0.948 . S
C1173 C1172 1.392 . S
C1173 C1174 1.419 . S
C1174 C1173 1.419 . S
C1174 C1175 1.391 . S
C1174 C1178 1.397 . S
C1175 C1170 1.391 . S
C1175 C1174 1.391 . S
C1175 C1176 1.399 . S
C1176 C1175 1.399 . S
C1176 C1177 1.396 . S
C1176 C1179 1.453 . S
C1176 C1180 1.684 . S
C1177 C1167 1.723 . S
C1177 C1176 1.396 . S
C1177 C1178 1.394 . S
C1178 C1148 1.723 . S
C1178 C1174 1.397 . S
C1178 C1177 1.394 . S
C1179 H1151 0.982 . S
C1179 H1155 0.979 . S
C1179 H1156 0.977 . S
C1179 C1176 1.453 . S
C1180 H1152 0.979 . S
C1180 H1153 0.980 . S
C1180 H1154 0.983 . S
C1180 C1176 1.684 . S
H1181 C1199 0.948 . S
H1182 C1140 0.948 . S
H1183 C1158 0.979 . S
H1184 C1158 0.980 . S
H1185 C1158 0.983 . S
H1186 C1157 0.982 . S
H1187 C1157 0.979 . S
H1188 C1157 0.977 . S
H1189 C1159 0.948 . S
H1190 C1161 0.947 . S
H1191 C1162 0.948 . S
H1192 C1168 0.982 . S
H1193 C1168 0.979 . S
H1194 C1168 0.977 . S
H1195 C1169 0.979 . S
H1196 C1169 0.980 . S
H1197 C1169 0.983 . S
H1198 C1142 0.947 . S
C1199 C1142 1.392 . S
C1199 C1143 1.419 . S
C1199 H1181 0.948 . S
C1200 C1201 1.391 . S
C1200 C1204 1.391 . S
C1200 H1242 0.948 . S
C1201 C1200 1.391 . S
C1201 C1202 1.391 . S
C1202 C1201 1.391 . S
C1202 H1258 0.947 . S
C1202 C1259 1.392 . S
C1203 C1204 1.391 . S
C1203 C1207 1.397 . S
C1203 C1259 1.419 . S
C1204 C1200 1.391 . S
C1204 C1203 1.391 . S
C1204 C1205 1.399 . S
C1205 C1204 1.399 . S
C1205 C1208 1.396 . S
C1205 C1217 1.453 . S
C1205 C1218 1.684 . S
H1206 C1230 0.948 . S
C1207 C1203 1.397 . S
C1207 C1208 1.394 . S
C1207 C1226 1.723 . S
C1208 C1205 1.396 . S
C1208 C1207 1.394 . S
C1208 C1238 1.723 . S
H1209 C1232 0.947 . S
H1210 C1233 0.948 . S
H1211 C1239 0.982 . S
H1212 C1240 0.979 . S
H1213 C1240 0.980 . S
H1214 C1240 0.983 . S
H1215 C1239 0.979 . S
H1216 C1239 0.977 . S
C1217 C1205 1.453 . S
C1217 H1246 0.982 . S
C1217 H1247 0.979 . S
C1217 H1248 0.977 . S
C1218 C1205 1.684 . S
C1218 H1243 0.979 . S
C1218 H1244 0.980 . S
C1218 H1245 0.983 . S
C1219 C1220 1.391 . S
C1219 C1224 1.391 . S
C1219 H1249 0.948 . S
C1220 C1219 1.391 . S
C1220 C1221 1.391 . S
C1221 C1220 1.391 . S
C1221 C1222 1.392 . S
C1221 H1250 0.947 . S
C1222 C1221 1.392 . S
C1222 C1223 1.419 . S
C1222 H1251 0.948 . S
C1223 C1222 1.419 . S
C1223 C1224 1.391 . S
C1223 C1227 1.397 . S
C1224 C1219 1.391 . S
C1224 C1223 1.391 . S
C1224 C1225 1.399 . S
C1225 C1224 1.399 . S
C1225 C1226 1.396 . S
C1225 C1228 1.453 . S
C1225 C1229 1.684 . S
C1226 C1207 1.723 . S
C1226 C1225 1.396 . S
C1226 C1227 1.394 . S
C1227 C1223 1.397 . S
C1227 C1226 1.394 . S
C1227 C1237 1.723 . S
C1228 C1225 1.453 . S
C1228 H1252 0.982 . S
C1228 H1253 0.979 . S
C1228 H1254 0.977 . S
C1229 C1225 1.684 . S
C1229 H1255 0.979 . S
C1229 H1256 0.980 . S
C1229 H1257 0.983 . S
C1230 H1206 0.948 . S
C1230 C1231 1.391 . S
C1230 C1235 1.391 . S
C1231 C1230 1.391 . S
C1231 C1232 1.391 . S
C1232 H1209 0.947 . S
C1232 C1231 1.391 . S
C1232 C1233 1.392 . S
C1233 H1210 0.948 . S
C1233 C1232 1.392 . S
C1233 C1234 1.419 . S
C1234 C1233 1.419 . S
C1234 C1235 1.391 . S
C1234 C1238 1.397 . S
C1235 C1230 1.391 . S
C1235 C1234 1.391 . S
C1235 C1236 1.399 . S
C1236 C1235 1.399 . S
C1236 C1237 1.396 . S
C1236 C1239 1.453 . S
C1236 C1240 1.684 . S
C1237 C1227 1.723 . S
C1237 C1236 1.396 . S
C1237 C1238 1.394 . S
C1238 C1208 1.723 . S
C1238 C1234 1.397 . S
C1238 C1237 1.394 . S
C1239 H1211 0.982 . S
C1239 H1215 0.979 . S
C1239 H1216 0.977 . S
C1239 C1236 1.453 . S
C1240 H1212 0.979 . S
C1240 H1213 0.980 . S
C1240 H1214 0.983 . S
C1240 C1236 1.684 . S
H1241 C1259 0.948 . S
H1242 C1200 0.948 . S
H1243 C1218 0.979 . S
H1244 C1218 0.980 . S
H1245 C1218 0.983 . S
H1246 C1217 0.982 . S
H1247 C1217 0.979 . S
H1248 C1217 0.977 . S
H1249 C1219 0.948 . S
H1250 C1221 0.947 . S
H1251 C1222 0.948 . S
H1252 C1228 0.982 . S
H1253 C1228 0.979 . S
H1254 C1228 0.977 . S
H1255 C1229 0.979 . S
H1256 C1229 0.980 . S
H1257 C1229 0.983 . S
H1258 C1202 0.947 . S
C1259 C1202 1.392 . S
C1259 C1203 1.419 . S
C1259 H1241 0.948 . S
C1260 C1261 1.391 . S
C1260 C1264 1.391 . S
C1260 H1302 0.948 . S
C1261 C1260 1.391 . S
C1261 C1262 1.391 . S
C1262 C1261 1.391 . S
C1262 H1318 0.947 . S
C1262 C1319 1.392 . S
C1263 C1264 1.391 . S
C1263 C1267 1.397 . S
C1263 C1319 1.419 . S
C1264 C1260 1.391 . S
C1264 C1263 1.391 . S
C1264 C1265 1.399 . S
C1265 C1264 1.399 . S
C1265 C1268 1.396 . S
C1265 C1277 1.453 . S
C1265 C1278 1.684 . S
H1266 C1290 0.948 . S
C1267 C1263 1.397 . S
C1267 C1268 1.394 . S
C1267 C1286 1.723 . S
C1268 C1265 1.396 . S
C1268 C1267 1.394 . S
C1268 C1298 1.723 . S
H1269 C1292 0.947 . S
H1270 C1293 0.948 . S
H1271 C1299 0.982 . S
H1272 C1300 0.979 . S
H1273 C1300 0.980 . S
H1274 C1300 0.983 . S
H1275 C1299 0.979 . S
H1276 C1299 0.977 . S
C1277 C1265 1.453 . S
C1277 H1306 0.982 . S
C1277 H1307 0.979 . S
C1277 H1308 0.977 . S
C1278 C1265 1.684 . S
C1278 H1303 0.979 . S
C1278 H1304 0.980 . S
C1278 H1305 0.983 . S
C1279 C1280 1.391 . S
C1279 C1284 1.391 . S
C1279 H1309 0.948 . S
C1280 C1279 1.391 . S
C1280 C1281 1.391 . S
C1281 C1280 1.391 . S
C1281 C1282 1.392 . S
C1281 H1310 0.947 . S
C1282 C1281 1.392 . S
C1282 C1283 1.419 . S
C1282 H1311 0.948 . S
C1283 C1282 1.419 . S
C1283 C1284 1.391 . S
C1283 C1287 1.397 . S
C1284 C1279 1.391 . S
C1284 C1283 1.391 . S
C1284 C1285 1.399 . S
C1285 C1284 1.399 . S
C1285 C1286 1.396 . S
C1285 C1288 1.453 . S
C1285 C1289 1.684 . S
C1286 C1267 1.723 . S
C1286 C1285 1.396 . S
C1286 C1287 1.394 . S
C1287 C1283 1.397 . S
C1287 C1286 1.394 . S
C1287 C1297 1.723 . S
C1288 C1285 1.453 . S
C1288 H1312 0.982 . S
C1288 H1313 0.979 . S
C1288 H1314 0.977 . S
C1289 C1285 1.684 . S
C1289 H1315 0.979 . S
C1289 H1316 0.980 . S
C1289 H1317 0.983 . S
C1290 H1266 0.948 . S
C1290 C1291 1.391 . S
C1290 C1295 1.391 . S
C1291 C1290 1.391 . S
C1291 C1292 1.391 . S
C1292 H1269 0.947 . S
C1292 C1291 1.391 . S
C1292 C1293 1.392 . S
C1293 H1270 0.948 . S
C1293 C1292 1.392 . S
C1293 C1294 1.419 . S
C1294 C1293 1.419 . S
C1294 C1295 1.391 . S
C1294 C1298 1.397 . S
C1295 C1290 1.391 . S
C1295 C1294 1.391 . S
C1295 C1296 1.399 . S
C1296 C1295 1.399 . S
C1296 C1297 1.396 . S
C1296 C1299 1.453 . S
C1296 C1300 1.684 . S
C1297 C1287 1.723 . S
C1297 C1296 1.396 . S
C1297 C1298 1.394 . S
C1298 C1268 1.723 . S
C1298 C1294 1.397 . S
C1298 C1297 1.394 . S
C1299 H1271 0.982 . S
C1299 H1275 0.979 . S
C1299 H1276 0.977 . S
C1299 C1296 1.453 . S
C1300 H1272 0.979 . S
C1300 H1273 0.980 . S
C1300 H1274 0.983 . S
C1300 C1296 1.684 . S
H1301 C1319 0.948 . S
H1302 C1260 0.948 . S
H1303 C1278 0.979 . S
H1304 C1278 0.980 . S
H1305 C1278 0.983 . S
H1306 C1277 0.982 . S
H1307 C1277 0.979 . S
H1308 C1277 0.977 . S
H1309 C1279 0.948 . S
H1310 C1281 0.947 . S
H1311 C1282 0.948 . S
H1312 C1288 0.982 . S
H1313 C1288 0.979 . S
H1314 C1288 0.977 . S
H1315 C1289 0.979 . S
H1316 C1289 0.980 . S
H1317 C1289 0.983 . S
H1318 C1262 0.947 . S
C1319 C1262 1.392 . S
C1319 C1263 1.419 . S
C1319 H1301 0.948 . S
C1320 C1321 1.391 . S
C1320 C1324 1.391 . S
C1320 H1362 0.948 . S
C1321 C1320 1.391 . S
C1321 C1322 1.391 . S
C1322 C1321 1.391 . S
C1322 H1378 0.947 . S
C1322 C1379 1.392 . S
C1323 C1324 1.391 . S
C1323 C1327 1.397 . S
C1323 C1379 1.419 . S
C1324 C1320 1.391 . S
C1324 C1323 1.391 . S
C1324 C1325 1.399 . S
C1325 C1324 1.399 . S
C1325 C1328 1.396 . S
C1325 C1337 1.453 . S
C1325 C1338 1.684 . S
H1326 C1350 0.948 . S
C1327 C1323 1.397 . S
C1327 C1328 1.394 . S
C1327 C1346 1.723 . S
C1328 C1325 1.396 . S
C1328 C1327 1.394 . S
C1328 C1358 1.723 . S
H1329 C1352 0.947 . S
H1330 C1353 0.948 . S
H1331 C1359 0.982 . S
H1332 C1360 0.979 . S
H1333 C1360 0.980 . S
H1334 C1360 0.983 . S
H1335 C1359 0.979 . S
H1336 C1359 0.977 . S
C1337 C1325 1.453 . S
C1337 H1366 0.982 . S
C1337 H1367 0.979 . S
C1337 H1368 0.977 . S
C1338 C1325 1.684 . S
C1338 H1363 0.979 . S
C1338 H1364 0.980 . S
C1338 H1365 0.983 . S
C1339 C1340 1.391 . S
C1339 C1344 1.391 . S
C1339 H1369 0.948 . S
C1340 C1339 1.391 . S
C1340 C1341 1.391 . S
C1341 C1340 1.391 . S
C1341 C1342 1.392 . S
C1341 H1370 0.947 . S
C1342 C1341 1.392 . S
C1342 C1343 1.419 . S
C1342 H1371 0.948 . S
C1343 C1342 1.419 . S
C1343 C1344 1.391 . S
C1343 C1347 1.397 . S
C1344 C1339 1.391 . S
C1344 C1343 1.391 . S
C1344 C1345 1.399 . S
C1345 C1344 1.399 . S
C1345 C1346 1.396 . S
C1345 C1348 1.453 . S
C1345 C1349 1.684 . S
C1346 C1327 1.723 . S
C1346 C1345 1.396 . S
C1346 C1347 1.394 . S
C1347 C1343 1.397 . S
C1347 C1346 1.394 . S
C1347 C1357 1.723 . S
C1348 C1345 1.453 . S
C1348 H1372 0.982 . S
C1348 H1373 0.979 . S
C1348 H1374 0.977 . S
C1349 C1345 1.684 . S
C1349 H1375 0.979 . S
C1349 H1376 0.980 . S
C1349 H1377 0.983 . S
C1350 H1326 0.948 . S
C1350 C1351 1.391 . S
C1350 C1355 1.391 . S
C1351 C1350 1.391 . S
C1351 C1352 1.391 . S
C1352 H1329 0.947 . S
C1352 C1351 1.391 . S
C1352 C1353 1.392 . S
C1353 H1330 0.948 . S
C1353 C1352 1.392 . S
C1353 C1354 1.419 . S
C1354 C1353 1.419 . S
C1354 C1355 1.391 . S
C1354 C1358 1.397 . S
C1355 C1350 1.391 . S
C1355 C1354 1.391 . S
C1355 C1356 1.399 . S
C1356 C1355 1.399 . S
C1356 C1357 1.396 . S
C1356 C1359 1.453 . S
C1356 C1360 1.684 . S
C1357 C1347 1.723 . S
C1357 C1356 1.396 . S
C1357 C1358 1.394 . S
C1358 C1328 1.723 . S
C1358 C1354 1.397 . S
C1358 C1357 1.394 . S
C1359 H1331 0.982 . S
C1359 H1335 0.979 . S
C1359 H1336 0.977 . S
C1359 C1356 1.453 . S
C1360 H1332 0.979 . S
C1360 H1333 0.980 . S
C1360 H1334 0.983 . S
C1360 C1356 1.684 . S
H1361 C1379 0.948 . S
H1362 C1320 0.948 . S
H1363 C1338 0.979 . S
H1364 C1338 0.980 . S
H1365 C1338 0.983 . S
H1366 C1337 0.982 . S
H1367 C1337 0.979 . S
H1368 C1337 0.977 . S
H1369 C1339 0.948 . S
H1370 C1341 0.947 . S
H1371 C1342 0.948 . S
H1372 C1348 0.982 . S
H1373 C1348 0.979 . S
H1374 C1348 0.977 . S
H1375 C1349 0.979 . S
H1376 C1349 0.980 . S
H1377 C1349 0.983 . S
H1378 C1322 0.947 . S
C1379 C1322 1.392 . S
C1379 C1323 1.419 . S
C1379 H1361 0.948 . S
C1380 C1381 1.391 . S
C1380 C1384 1.391 . S
C1380 H1422 0.948 . S
C1381 C1380 1.391 . S
C1381 C1382 1.391 . S
C1382 C1381 1.391 . S
C1382 H1438 0.947 . S
C1382 C1439 1.392 . S
C1383 C1384 1.391 . S
C1383 C1387 1.397 . S
C1383 C1439 1.419 . S
C1384 C1380 1.391 . S
C1384 C1383 1.391 . S
C1384 C1385 1.399 . S
C1385 C1384 1.399 . S
C1385 C1388 1.396 . S
C1385 C1397 1.453 . S
C1385 C1398 1.684 . S
H1386 C1410 0.948 . S
C1387 C1383 1.397 . S
C1387 C1388 1.394 . S
C1387 C1406 1.723 . S
C1388 C1385 1.396 . S
C1388 C1387 1.394 . S
C1388 C1418 1.723 . S
H1389 C1412 0.947 . S
H1390 C1413 0.948 . S
H1391 C1419 0.982 . S
H1392 C1420 0.979 . S
H1393 C1420 0.980 . S
H1394 C1420 0.983 . S
H1395 C1419 0.979 . S
H1396 C1419 0.977 . S
C1397 C1385 1.453 . S
C1397 H1426 0.982 . S
C1397 H1427 0.979 . S
C1397 H1428 0.977 . S
C1398 C1385 1.684 . S
C1398 H1423 0.979 . S
C1398 H1424 0.980 . S
C1398 H1425 0.983 . S
C1399 C1400 1.391 . S
C1399 C1404 1.391 . S
C1399 H1429 0.948 . S
C1400 C1399 1.391 . S
C1400 C1401 1.391 . S
C1401 C1400 1.391 . S
C1401 C1402 1.392 . S
C1401 H1430 0.947 . S
C1402 C1401 1.392 . S
C1402 C1403 1.419 . S
C1402 H1431 0.948 . S
C1403 C1402 1.419 . S
C1403 C1404 1.391 . S
C1403 C1407 1.397 . S
C1404 C1399 1.391 . S
C1404 C1403 1.391 . S
C1404 C1405 1.399 . S
C1405 C1404 1.399 . S
C1405 C1406 1.396 . S
C1405 C1408 1.453 . S
C1405 C1409 1.684 . S
C1406 C1387 1.723 . S
C1406 C1405 1.396 . S
C1406 C1407 1.394 . S
C1407 C1403 1.397 . S
C1407 C1406 1.394 . S
C1407 C1417 1.723 . S
C1408 C1405 1.453 . S
C1408 H1432 0.982 . S
C1408 H1433 0.979 . S
C1408 H1434 0.977 . S
C1409 C1405 1.684 . S
C1409 H1435 0.979 . S
C1409 H1436 0.980 . S
C1409 H1437 0.983 . S
C1410 H1386 0.948 . S
C1410 C1411 1.391 . S
C1410 C1415 1.391 . S
C1411 C1410 1.391 . S
C1411 C1412 1.391 . S
C1412 H1389 0.947 . S
C1412 C1411 1.391 . S
C1412 C1413 1.392 . S
C1413 H1390 0.948 . S
C1413 C1412 1.392 . S
C1413 C1414 1.419 . S
C1414 C1413 1.419 . S
C1414 C1415 1.391 . S
C1414 C1418 1.397 . S
C1415 C1410 1.391 . S
C1415 C1414 1.391 . S
C1415 C1416 1.399 . S
C1416 C1415 1.399 . S
C1416 C1417 1.396 . S
C1416 C1419 1.453 . S
C1416 C1420 1.684 . S
C1417 C1407 1.723 . S
C1417 C1416 1.396 . S
C1417 C1418 1.394 . S
C1418 C1388 1.723 . S
C1418 C1414 1.397 . S
C1418 C1417 1.394 . S
C1419 H1391 0.982 . S
C1419 H1395 0.979 . S
C1419 H1396 0.977 . S
C1419 C1416 1.453 . S
C1420 H1392 0.979 . S
C1420 H1393 0.980 . S
C1420 H1394 0.983 . S
C1420 C1416 1.684 . S
H1421 C1439 0.948 . S
H1422 C1380 0.948 . S
H1423 C1398 0.979 . S
H1424 C1398 0.980 . S
H1425 C1398 0.983 . S
H1426 C1397 0.982 . S
H1427 C1397 0.979 . S
H1428 C1397 0.977 . S
H1429 C1399 0.948 . S
H1430 C1401 0.947 . S
H1431 C1402 0.948 . S
H1432 C1408 0.982 . S
H1433 C1408 0.979 . S
H1434 C1408 0.977 . S
H1435 C1409 0.979 . S
H1436 C1409 0.980 . S
H1437 C1409 0.983 . S
H1438 C1382 0.947 . S
C1439 C1382 1.392 . S
C1439 C1383 1.419 . S
C1439 H1421 0.948 . S
C1440 C1441 1.391 . S
C1440 C1444 1.391 . S
C1440 H1482 0.948 . S
C1441 C1440 1.391 . S
C1441 C1442 1.391 . S
C1442 C1441 1.391 . S
C1442 H1498 0.947 . S
C1442 C1499 1.392 . S
C1443 C1444 1.391 . S
C1443 C1447 1.397 . S
C1443 C1499 1.419 . S
C1444 C1440 1.391 . S
C1444 C1443 1.391 . S
C1444 C1445 1.399 . S
C1445 C1444 1.399 . S
C1445 C1448 1.396 . S
C1445 C1457 1.453 . S
C1445 C1458 1.684 . S
H1446 C1470 0.948 . S
C1447 C1443 1.397 . S
C1447 C1448 1.394 . S
C1447 C1466 1.723 . S
C1448 C1445 1.396 . S
C1448 C1447 1.394 . S
C1448 C1478 1.723 . S
H1449 C1472 0.947 . S
H1450 C1473 0.948 . S
H1451 C1479 0.982 . S
H1452 C1480 0.979 . S
H1453 C1480 0.980 . S
H1454 C1480 0.983 . S
H1455 C1479 0.979 . S
H1456 C1479 0.977 . S
C1457 C1445 1.453 . S
C1457 H1486 0.982 . S
C1457 H1487 0.979 . S
C1457 H1488 0.977 . S
C1458 C1445 1.684 . S
C1458 H1483 0.979 . S
C1458 H1484 0.980 . S
C1458 H1485 0.983 . S
C1459 C1460 1.391 . S
C1459 C1464 1.391 . S
C1459 H1489 0.948 . S
C1460 C1459 1.391 . S
C1460 C1461 1.391 . S
C1461 C1460 1.391 . S
C1461 C1462 1.392 . S
C1461 H1490 0.947 . S
C1462 C1461 1.392 . S
C1462 C1463 1.419 . S
C1462 H1491 0.948 . S
C1463 C1462 1.419 . S
C1463 C1464 1.391 . S
C1463 C1467 1.397 . S
C1464 C1459 1.391 . S
C1464 C1463 1.391 . S
C1464 C1465 1.399 . S
C1465 C1464 1.399 . S
C1465 C1466 1.396 . S
C1465 C1468 1.453 . S
C1465 C1469 1.684 . S
C1466 C1447 1.723 . S
C1466 C1465 1.396 . S
C1466 C1467 1.394 . S
C1467 C1463 1.397 . S
C1467 C1466 1.394 . S
C1467 C1477 1.723 . S
C1468 C1465 1.453 . S
C1468 H1492 0.982 . S
C1468 H1493 0.979 . S
C1468 H1494 0.977 . S
C1469 C1465 1.684 . S
C1469 H1495 0.979 . S
C1469 H1496 0.980 . S
C1469 H1497 0.983 . S
C1470 H1446 0.948 . S
C1470 C1471 1.391 . S
C1470 C1475 1.391 . S
C1471 C1470 1.391 . S
C1471 C1472 1.391 . S
C1472 H1449 0.947 . S
C1472 C1471 1.391 . S
C1472 C1473 1.392 . S
C1473 H1450 0.948 . S
C1473 C1472 1.392 . S
C1473 C1474 1.419 . S
C1474 C1473 1.419 . S
C1474 C1475 1.391 . S
C1474 C1478 1.397 . S
C1475 C1470 1.391 . S
C1475 C1474 1.391 . S
C1475 C1476 1.399 . S
C1476 C1475 1.399 . S
C1476 C1477 1.396 . S
C1476 C1479 1.453 . S
C1476 C1480 1.684 . S
C1477 C1467 1.723 . S
C1477 C1476 1.396 . S
C1477 C1478 1.394 . S
C1478 C1448 1.723 . S
C1478 C1474 1.397 . S
C1478 C1477 1.394 . S
C1479 H1451 0.982 . S
C1479 H1455 0.979 . S
C1479 H1456 0.977 . S
C1479 C1476 1.453 . S
C1480 H1452 0.979 . S
C1480 H1453 0.980 . S
C1480 H1454 0.983 . S
C1480 C1476 1.684 . S
H1481 C1499 0.948 . S
H1482 C1440 0.948 . S
H1483 C1458 0.979 . S
H1484 C1458 0.980 . S
H1485 C1458 0.983 . S
H1486 C1457 0.982 . S
H1487 C1457 0.979 . S
H1488 C1457 0.977 . S
H1489 C1459 0.948 . S
H1490 C1461 0.947 . S
H1491 C1462 0.948 . S
H1492 C1468 0.982 . S
H1493 C1468 0.979 . S
H1494 C1468 0.977 . S
H1495 C1469 0.979 . S
H1496 C1469 0.980 . S
H1497 C1469 0.983 . S
H1498 C1442 0.947 . S
C1499 C1442 1.392 . S
C1499 C1443 1.419 . S
C1499 H1481 0.948 . S
C1500 C1501 1.391 . S
C1500 C1504 1.391 . S
C1500 H1542 0.948 . S
C1501 C1500 1.391 . S
C1501 C1502 1.391 . S
C1502 C1501 1.391 . S
C1502 H1558 0.947 . S
C1502 C1559 1.392 . S
C1503 C1504 1.391 . S
C1503 C1507 1.397 . S
C1503 C1559 1.419 . S
C1504 C1500 1.391 . S
C1504 C1503 1.391 . S
C1504 C1505 1.399 . S
C1505 C1504 1.399 . S
C1505 C1508 1.396 . S
C1505 C1517 1.453 . S
C1505 C1518 1.684 . S
H1506 C1530 0.948 . S
C1507 C1503 1.397 . S
C1507 C1508 1.394 . S
C1507 C1526 1.723 . S
C1508 C1505 1.396 . S
C1508 C1507 1.394 . S
C1508 C1538 1.723 . S
H1509 C1532 0.947 . S
H1510 C1533 0.948 . S
H1511 C1539 0.982 . S
H1512 C1540 0.979 . S
H1513 C1540 0.980 . S
H1514 C1540 0.983 . S
H1515 C1539 0.979 . S
H1516 C1539 0.977 . S
C1517 C1505 1.453 . S
C1517 H1546 0.982 . S
C1517 H1547 0.979 . S
C1517 H1548 0.977 . S
C1518 C1505 1.684 . S
C1518 H1543 0.979 . S
C1518 H1544 0.980 . S
C1518 H1545 0.983 . S
C1519 C1520 1.391 . S
C1519 C1524 1.391 . S
C1519 H1549 0.948 . S
C1520 C1519 1.391 . S
C1520 C1521 1.391 . S
C1521 C1520 1.391 . S
C1521 C1522 1.392 . S
C1521 H1550 0.947 . S
C1522 C1521 1.392 . S
C1522 C1523 1.419 . S
C1522 H1551 0.948 . S
C1523 C1522 1.419 . S
C1523 C1524 1.391 . S
C1523 C1527 1.397 . S
C1524 C1519 1.391 . S
C1524 C1523 1.391 . S
C1524 C1525 1.399 . S
C1525 C1524 1.399 . S
C1525 C1526 1.396 . S
C1525 C1528 1.453 . S
C1525 C1529 1.684 . S
C1526 C1507 1.723 . S
C1526 C1525 1.396 . S
C1526 C1527 1.394 . S
C1527 C1523 1.397 . S
C1527 C1526 1.394 . S
C1527 C1537 1.723 . S
C1528 C1525 1.453 . S
C1528 H1552 0.982 . S
C1528 H1553 0.979 . S
C1528 H1554 0.977 . S
C1529 C1525 1.684 . S
C1529 H1555 0.979 . S
C1529 H1556 0.980 . S
C1529 H1557 0.983 . S
C1530 H1506 0.948 . S
C1530 C1531 1.391 . S
C1530 C1535 1.391 . S
C1531 C1530 1.391 . S
C1531 C1532 1.391 . S
C1532 H1509 0.947 . S
C1532 C1531 1.391 . S
C1532 C1533 1.392 . S
C1533 H1510 0.948 . S
C1533 C1532 1.392 . S
C1533 C1534 1.419 . S
C1534 C1533 1.419 . S
C1534 C1535 1.391 . S
C1534 C1538 1.397 . S
C1535 C1530 1.391 . S
C1535 C1534 1.391 . S
C1535 C1536 1.399 . S
C1536 C1535 1.399 . S
C1536 C1537 1.396 . S
C1536 C1539 1.453 . S
C1536 C1540 1.684 . S
C1537 C1527 1.723 . S
C1537 C1536 1.396 . S
C1537 C1538 1.394 . S
C1538 C1508 1.723 . S
C1538 C1534 1.397 . S
C1538 C1537 1.394 . S
C1539 H1511 0.982 . S
C1539 H1515 0.979 . S
C1539 H1516 0.977 . S
C1539 C1536 1.453 . S
C1540 H1512 0.979 . S
C1540 H1513 0.980 . S
C1540 H1514 0.983 . S
C1540 C1536 1.684 . S
H1541 C1559 0.948 . S
H1542 C1500 0.948 . S
H1543 C1518 0.979 . S
H1544 C1518 0.980 . S
H1545 C1518 0.983 . S
H1546 C1517 0.982 . S
H1547 C1517 0.979 . S
H1548 C1517 0.977 . S
H1549 C1519 0.948 . S
H1550 C1521 0.947 . S
H1551 C1522 0.948 . S
H1552 C1528 0.982 . S
H1553 C1528 0.979 . S
H1554 C1528 0.977 . S
H1555 C1529 0.979 . S
H1556 C1529 0.980 . S
H1557 C1529 0.983 . S
H1558 C1502 0.947 . S
C1559 C1502 1.392 . S
C1559 C1503 1.419 . S
C1559 H1541 0.948 . S
C1560 C1561 1.391 . S
C1560 C1564 1.391 . S
C1560 H1602 0.948 . S
C1561 C1560 1.391 . S
C1561 C1562 1.391 . S
C1562 C1561 1.391 . S
C1562 H1618 0.947 . S
C1562 C1619 1.392 . S
C1563 C1564 1.391 . S
C1563 C1567 1.397 . S
C1563 C1619 1.419 . S
C1564 C1560 1.391 . S
C1564 C1563 1.391 . S
C1564 C1565 1.399 . S
C1565 C1564 1.399 . S
C1565 C1568 1.396 . S
C1565 C1577 1.453 . S
C1565 C1578 1.684 . S
H1566 C1590 0.948 . S
C1567 C1563 1.397 . S
C1567 C1568 1.394 . S
C1567 C1586 1.723 . S
C1568 C1565 1.396 . S
C1568 C1567 1.394 . S
C1568 C1598 1.723 . S
H1569 C1592 0.947 . S
H1570 C1593 0.948 . S
H1571 C1599 0.982 . S
H1572 C1600 0.979 . S
H1573 C1600 0.980 . S
H1574 C1600 0.983 . S
H1575 C1599 0.979 . S
H1576 C1599 0.977 . S
C1577 C1565 1.453 . S
C1577 H1606 0.982 . S
C1577 H1607 0.979 . S
C1577 H1608 0.977 . S
C1578 C1565 1.684 . S
C1578 H1603 0.979 . S
C1578 H1604 0.980 . S
C1578 H1605 0.983 . S
C1579 C1580 1.391 . S
C1579 C1584 1.391 . S
C1579 H1609 0.948 . S
C1580 C1579 1.391 . S
C1580 C1581 1.391 . S
C1581 C1580 1.391 . S
C1581 C1582 1.392 . S
C1581 H1610 0.947 . S
C1582 C1581 1.392 . S
C1582 C1583 1.419 . S
C1582 H1611 0.948 . S
C1583 C1582 1.419 . S
C1583 C1584 1.391 . S
C1583 C1587 1.397 . S
C1584 C1579 1.391 . S
C1584 C1583 1.391 . S
C1584 C1585 1.399 . S
C1585 C1584 1.399 . S
C1585 C1586 1.396 . S
C1585 C1588 1.453 . S
C1585 C1589 1.684 . S
C1586 C1567 1.723 . S
C1586 C1585 1.396 . S
C1586 C1587 1.394 . S
C1587 C1583 1.397 . S
C1587 C1586 1.394 . S
C1587 C1597 1.723 . S
C1588 C1585 1.453 . S
C1588 H1612 0.982 . S
C1588 H1613 0.979 . S
C1588 H1614 0.977 . S
C1589 C1585 1.684 . S
C1589 H1615 0.979 . S
C1589 H1616 0.980 . S
C1589 H1617 0.983 . S
C1590 H1566 0.948 . S
C1590 C1591 1.391 . S
C1590 C1595 1.391 . S
C1591 C1590 1.391 . S
C1591 C1592 1.391 . S
C1592 H1569 0.947 . S
C1592 C1591 1.391 . S
C1592 C1593 1.392 . S
C1593 H1570 0.948 . S
C1593 C1592 1.392 . S
C1593 C1594 1.419 . S
C1594 C1593 1.419 . S
C1594 C1595 1.391 . S
C1594 C1598 1.397 . S
C1595 C1590 1.391 . S
C1595 C1594 1.391 . S
C1595 C1596 1.399 . S
C1596 C1595 1.399 . S
C1596 C1597 1.396 . S
C1596 C1599 1.453 . S
C1596 C1600 1.684 . S
C1597 C1587 1.723 . S
C1597 C1596 1.396 . S
C1597 C1598 1.394 . S
C1598 C1568 1.723 . S
C1598 C1594 1.397 . S
C1598 C1597 1.394 . S
C1599 H1571 0.982 . S
C1599 H1575 0.979 . S
C1599 H1576 0.977 . S
C1599 C1596 1.453 . S
C1600 H1572 0.979 . S
C1600 H1573 0.980 . S
C1600 H1574 0.983 . S
C1600 C1596 1.684 . S
H1601 C1619 0.948 . S
H1602 C1560 0.948 . S
H1603 C1578 0.979 . S
H1604 C1578 0.980 . S
H1605 C1578 0.983 . S
H1606 C1577 0.982 . S
H1607 C1577 0.979 . S
H1608 C1577 0.977 . S
H1609 C1579 0.948 . S
H1610 C1581 0.947 . S
H1611 C1582 0.948 . S
H1612 C1588 0.982 . S
H1613 C1588 0.979 . S
H1614 C1588 0.977 . S
H1615 C1589 0.979 . S
H1616 C1589 0.980 . S
H1617 C1589 0.983 . S
H1618 C1562 0.947 . S
C1619 C1562 1.392 . S
C1619 C1563 1.419 . S
C1619 H1601 0.948 . S
C1620 C1621 1.391 . S
C1620 C1624 1.391 . S
C1620 H1662 0.948 . S
C1621 C1620 1.391 . S
C1621 C1622 1.391 . S
C1622 C1621 1.391 . S
C1622 H1678 0.947 . S
C1622 C1679 1.392 . S
C1623 C1624 1.391 . S
C1623 C1627 1.397 . S
C1623 C1679 1.419 . S
C1624 C1620 1.391 . S
C1624 C1623 1.391 . S
C1624 C1625 1.399 . S
C1625 C1624 1.399 . S
C1625 C1628 1.396 . S
C1625 C1637 1.453 . S
C1625 C1638 1.684 . S
H1626 C1650 0.948 . S
C1627 C1623 1.397 . S
C1627 C1628 1.394 . S
C1627 C1646 1.723 . S
C1628 C1625 1.396 . S
C1628 C1627 1.394 . S
C1628 C1658 1.723 . S
H1629 C1652 0.947 . S
H1630 C1653 0.948 . S
H1631 C1659 0.982 . S
H1632 C1660 0.979 . S
H1633 C1660 0.980 . S
H1634 C1660 0.983 . S
H1635 C1659 0.979 . S
H1636 C1659 0.977 . S
C1637 C1625 1.453 . S
C1637 H1666 0.982 . S
C1637 H1667 0.979 . S
C1637 H1668 0.977 . S
C1638 C1625 1.684 . S
C1638 H1663 0.979 . S
C1638 H1664 0.980 . S
C1638 H1665 0.983 . S
C1639 C1640 1.391 . S
C1639 C1644 1.391 . S
C1639 H1669 0.948 . S
C1640 C1639 1.391 . S
C1640 C1641 1.391 . S
C1641 C1640 1.391 . S
C1641 C1642 1.392 . S
C1641 H1670 0.947 . S
C1642 C1641 1.392 . S
C1642 C1643 1.419 . S
C1642 H1671 0.948 . S
C1643 C1642 1.419 . S
C1643 C1644 1.391 . S
C1643 C1647 1.397 . S
C1644 C1639 1.391 . S
C1644 C1643 1.391 . S
C1644 C1645 1.399 . S
C1645 C1644 1.399 . S
C1645 C1646 1.396 . S
C1645 C1648 1.453 . S
C1645 C1649 1.684 . S
C1646 C1627 1.723 . S
C1646 C1645 1.396 . S
C1646 C1647 1.394 . S
C1647 C1643 1.397 . S
C1647 C1646 1.394 . S
C1647 C1657 1.723 . S
C1648 C1645 1.453 . S
C1648 H1672 0.982 . S
C1648 H1673 0.979 . S
C1648 H1674 0.977 . S
C1649 C1645 1.684 . S
C1649 H1675 0.979 . S
C1649 H1676 0.980 . S
C1649 H1677 0.983 . S
C1650 H1626 0.948 . S
C1650 C1651 1.391 . S
C1650 C1655 1.391 . S
C1651 C1650 1.391 . S
C1651 C1652 1.391 . S
C1652 H1629 0.947 . S
C1652 C1651 1.391 . S
C1652 C1653 1.392 . S
C1653 H1630 0.948 . S
C1653 C1652 1.392 . S
C1653 C1654 1.419 . S
C1654 C1653 1.419 . S
C1654 C1655 1.391 . S
C1654 C1658 1.397 . S
C1655 C1650 1.391 . S
C1655 C1654 1.391 . S
C1655 C1656 1.399 . S
C1656 C1655 1.399 . S
C1656 C1657 1.396 . S
C1656 C1659 1.453 . S
C1656 C1660 1.684 . S
C1657 C1647 1.723 . S
C1657 C1656 1.396 . S
C1657 C1658 1.394 . S
C1658 C1628 1.723 . S
C1658 C1654 1.397 . S
C1658 C1657 1.394 . S
C1659 H1631 0.982 . S
C1659 H1635 0.979 . S
C1659 H1636 0.977 . S
C1659 C1656 1.453 . S
C1660 H1632 0.979 . S
C1660 H1633 0.980 . S
C1660 H1634 0.983 . S
C1660 C1656 1.684 . S
H1661 C1679 0.948 . S
H1662 C1620 0.948 . S
H1663 C1638 0.979 . S
H1664 C1638 0.980 . S
H1665 C1638 0.983 . S
H1666 C1637 0.982 . S
H1667 C1637 0.979 . S
H1668 C1637 0.977 . S
H1669 C1639 0.948 . S
H1670 C1641 0.947 . S
H1671 C1642 0.948 . S
H1672 C1648 0.982 . S
H1673 C1648 0.979 . S
H1674 C1648 0.977 . S
H1675 C1649 0.979 . S
H1676 C1649 0.980 . S
H1677 C1649 0.983 . S
H1678 C1622 0.947 . S
C1679 C1622 1.392 . S
C1679 C1623 1.419 . S
C1679 H1661 0.948 . S
C1680 C1681 1.391 . S
C1680 C1684 1.391 . S
C1680 H1722 0.948 . S
C1681 C1680 1.391 . S
C1681 C1682 1.391 . S
C1682 C1681 1.391 . S
C1682 H1738 0.947 . S
C1682 C1739 1.392 . S
C1683 C1684 1.391 . S
C1683 C1687 1.397 . S
C1683 C1739 1.419 . S
C1684 C1680 1.391 . S
C1684 C1683 1.391 . S
C1684 C1685 1.399 . S
C1685 C1684 1.399 . S
C1685 C1688 1.396 . S
C1685 C1697 1.453 . S
C1685 C1698 1.684 . S
H1686 C1710 0.948 . S
C1687 C1683 1.397 . S
C1687 C1688 1.394 . S
C1687 C1706 1.723 . S
C1688 C1685 1.396 . S
C1688 C1687 1.394 . S
C1688 C1718 1.723 . S
H1689 C1712 0.947 . S
H1690 C1713 0.948 . S
H1691 C1719 0.982 . S
H1692 C1720 0.979 . S
H1693 C1720 0.980 . S
H1694 C1720 0.983 . S
H1695 C1719 0.979 . S
H1696 C1719 0.977 . S
C1697 C1685 1.453 . S
C1697 H1726 0.982 . S
C1697 H1727 0.979 . S
C1697 H1728 0.977 . S
C1698 C1685 1.684 . S
C1698 H1723 0.979 . S
C1698 H1724 0.980 . S
C1698 H1725 0.983 . S
C1699 C1700 1.391 . S
C1699 C1704 1.391 . S
C1699 H1729 0.948 . S
C1700 C1699 1.391 . S
C1700 C1701 1.391 . S
C1701 C1700 1.391 . S
C1701 C1702 1.392 . S
C1701 H1730 0.947 . S
C1702 C1701 1.392 . S
C1702 C1703 1.419 . S
C1702 H1731 0.948 . S
C1703 C1702 1.419 . S
C1703 C1704 1.391 . S
C1703 C1707 1.397 . S
C1704 C1699 1.391 . S
C1704 C1703 1.391 . S
C1704 C1705 1.399 . S
C1705 C1704 1.399 . S
C1705 C1706 1.396 . S
C1705 C1708 1.453 . S
C1705 C1709 1.684 . S
C1706 C1687 1.723 . S
C1706 C1705 1.396 . S
C1706 C1707 1.394 . S
C1707 C1703 1.397 . S
C1707 C1706 1.394 . S
C1707 C1717 1.723 . S
C1708 C1705 1.453 . S
C1708 H1732 0.982 . S
C1708 H1733 0.979 . S
C1708 H1734 0.977 . S
C1709 C1705 1.684 . S
C1709 H1735 0.979 . S
C1709 H1736 0.980 . S
C1709 H1737 0.983 . S
C1710 H1686 0.948 . S
C1710 C1711 1.391 . S
C1710 C1715 1.391 . S
C1711 C1710 1.391 . S
C1711 C1712 1.391 . S
C1712 H1689 0.947 . S
C1712 C1711 1.391 . S
C1712 C1713 1.392 . S
C1713 H1690 0.948 . S
C1713 C1712 1.392 . S
C1713 C1714 1.419 . S
C1714 C1713 1.419 . S
C1714 C1715 1.391 . S
C1714 C1718 1.397 . S
C1715 C1710 1.391 . S
C1715 C1714 1.391 . S
C1715 C1716 1.399 . S
C1716 C1715 1.399 . S
C1716 C1717 1.396 . S
C1716 C1719 1.453 . S
C1716 C1720 1.684 . S
C1717 C1707 1.723 . S
C1717 C1716 1.396 . S
C1717 C1718 1.394 . S
C1718 C1688 1.723 . S
C1718 C1714 1.397 . S
C1718 C1717 1.394 . S
C1719 H1691 0.982 . S
C1719 H1695 0.979 . S
C1719 H1696 0.977 . S
C1719 C1716 1.453 . S
C1720 H1692 0.979 . S
C1720 H1693 0.980 . S
C1720 H1694 0.983 . S
C1720 C1716 1.684 . S
H1721 C1739 0.948 . S
H1722 C1680 0.948 . S
H1723 C1698 0.979 . S
H1724 C1698 0.980 . S
H1725 C1698 0.983 . S
H1726 C1697 0.982 . S
H1727 C1697 0.979 . S
H1728 C1697 0.977 . S
H1729 C1699 0.948 . S
H1730 C1701 0.947 . S
H1731 C1702 0.948 . S
H1732 C1708 0.982 . S
H1733 C1708 0.979 . S
H1734 C1708 0.977 . S
H1735 C1709 0.979 . S
H1736 C1709 0.980 . S
H1737 C1709 0.983 . S
H1738 C1682 0.947 . S
C1739 C1682 1.392 . S
C1739 C1683 1.419 . S
C1739 H1721 0.948 . S
C1740 C1741 1.391 . S
C1740 C1744 1.391 . S
C1740 H1782 0.948 . S
C1741 C1740 1.391 . S
C1741 C1742 1.391 . S
C1742 C1741 1.391 . S
C1742 H1798 0.947 . S
C1742 C1799 1.392 . S
C1743 C1744 1.391 . S
C1743 C1747 1.397 . S
C1743 C1799 1.419 . S
C1744 C1740 1.391 . S
C1744 C1743 1.391 . S
C1744 C1745 1.399 . S
C1745 C1744 1.399 . S
C1745 C1748 1.396 . S
C1745 C1757 1.453 . S
C1745 C1758 1.684 . S
H1746 C1770 0.948 . S
C1747 C1743 1.397 . S
C1747 C1748 1.394 . S
C1747 C1766 1.723 . S
C1748 C1745 1.396 . S
C1748 C1747 1.394 . S
C1748 C1778 1.723 . S
H1749 C1772 0.947 . S
H1750 C1773 0.948 . S
H1751 C1779 0.982 . S
H1752 C1780 0.979 . S
H1753 C1780 0.980 . S
H1754 C1780 0.983 . S
H1755 C1779 0.979 . S
H1756 C1779 0.977 . S
C1757 C1745 1.453 . S
C1757 H1786 0.982 . S
C1757 H1787 0.979 . S
C1757 H1788 0.977 . S
C1758 C1745 1.684 . S
C1758 H1783 0.979 . S
C1758 H1784 0.980 . S
C1758 H1785 0.983 . S
C1759 C1760 1.391 . S
C1759 C1764 1.391 . S
C1759 H1789 0.948 . S
C1760 C1759 1.391 . S
C1760 C1761 1.391 . S
C1761 C1760 1.391 . S
C1761 C1762 1.392 . S
C1761 H1790 0.947 . S
C1762 C1761 1.392 . S
C1762 C1763 1.419 . S
C1762 H1791 0.948 . S
C1763 C1762 1.419 . S
C1763 C1764 1.391 . S
C1763 C1767 1.397 . S
C1764 C1759 1.391 . S
C1764 C1763 1.391 . S
C1764 C1765 1.399 . S
C1765 C1764 1.399 . S
C1765 C1766 1.396 . S
C1765 C1768 1.453 . S
C1765 C1769 1.684 . S
C1766 C1747 1.723 . S
C1766 C1765 1.396 . S
C1766 C1767 1.394 . S
C1767 C1763 1.397 . S
C1767 C1766 1.394 . S
C1767 C1777 1.723 . S
C1768 C1765 1.453 . S
C1768 H1792 0.982 . S
C1768 H1793 0.979 . S
C1768 H1794 0.977 . S
C1769 C1765 1.684 . S
C1769 H1795 0.979 . S
C1769 H1796 0.980 . S
C1769 H1797 0.983 . S
C1770 H1746 0.948 . S
C1770 C1771 1.391 . S
C1770 C1775 1.391 . S
C1771 C1770 1.391 . S
C1771 C1772 1.391 . S
C1772 H1749 0.947 . S
C1772 C1771 1.391 . S
C1772 C1773 1.392 . S
C1773 H1750 0.948 . S
C1773 C1772 1.392 . S
C1773 C1774 1.419 . S
C1774 C1773 1.419 . S
C1774 C1775 1.391 . S
C1774 C1778 1.397 . S
C1775 C1770 1.391 . S
C1775 C1774 1.391 . S
C1775 C1776 1.399 . S
C1776 C1775 1.399 . S
C1776 C1777 1.396 . S
C1776 C1779 1.453 . S
C1776 C1780 1.684 . S
C1777 C1767 1.723 . S
C1777 C1776 1.396 . S
C1777 C1778 1.394 . S
C1778 C1748 1.723 . S
C1778 C1774 1.397 . S
C1778 C1777 1.394 . S
C1779 H1751 0.982 . S
C1779 H1755 0.979 . S
C1779 H1756 0.977 . S
C1779 C1776 1.453 . S
C1780 H1752 0.979 . S
C1780 H1753 0.980 . S
C1780 H1754 0.983 . S
C1780 C1776 1.684 . S
H1781 C1799 0.948 . S
H1782 C1740 0.948 . S
H1783 C1758 0.979 . S
H1784 C1758 0.980 . S
H1785 C1758 0.983 . S
H1786 C1757 0.982 . S
H1787 C1757 0.979 . S
H1788 C1757 0.977 . S
H1789 C1759 0.948 . S
H1790 C1761 0.947 . S
H1791 C1762 0.948 . S
H1792 C1768 0.982 . S
H1793 C1768 0.979 . S
H1794 C1768 0.977 . S
H1795 C1769 0.979 . S
H1796 C1769 0.980 . S
H1797 C1769 0.983 . S
H1798 C1742 0.947 . S
C1799 C1742 1.392 . S
C1799 C1743 1.419 . S
C1799 H1781 0.948 . S
C1800 C1801 1.391 . S
C1800 C1804 1.391 . S
C1800 H1842 0.948 . S
C1801 C1800 1.391 . S
C1801 C1802 1.391 . S
C1802 C1801 1.391 . S
C1802 H1858 0.947 . S
C1802 C1859 1.392 . S
C1803 C1804 1.391 . S
C1803 C1807 1.397 . S
C1803 C1859 1.419 . S
C1804 C1800 1.391 . S
C1804 C1803 1.391 . S
C1804 C1805 1.399 . S
C1805 C1804 1.399 . S
C1805 C1808 1.396 . S
C1805 C1817 1.453 . S
C1805 C1818 1.684 . S
H1806 C1830 0.948 . S
C1807 C1803 1.397 . S
C1807 C1808 1.394 . S
C1807 C1826 1.723 . S
C1808 C1805 1.396 . S
C1808 C1807 1.394 . S
C1808 C1838 1.723 . S
H1809 C1832 0.947 . S
H1810 C1833 0.948 . S
H1811 C1839 0.982 . S
H1812 C1840 0.979 . S
H1813 C1840 0.980 . S
H1814 C1840 0.983 . S
H1815 C1839 0.979 . S
H1816 C1839 0.977 . S
C1817 C1805 1.453 . S
C1817 H1846 0.982 . S
C1817 H1847 0.979 . S
C1817 H1848 0.977 . S
C1818 C1805 1.684 . S
C1818 H1843 0.979 . S
C1818 H1844 0.980 . S
C1818 H1845 0.983 . S
C1819 C1820 1.391 . S
C1819 C1824 1.391 . S
C1819 H1849 0.948 . S
C1820 C1819 1.391 . S
C1820 C1821 1.391 . S
C1821 C1820 1.391 . S
C1821 C1822 1.392 . S
C1821 H1850 0.947 . S
C1822 C1821 1.392 . S
C1822 C1823 1.419 . S
C1822 H1851 0.948 . S
C1823 C1822 1.419 . S
C1823 C1824 1.391 . S
C1823 C1827 1.397 . S
C1824 C1819 1.391 . S
C1824 C1823 1.391 . S
C1824 C1825 1.399 . S
C1825 C1824 1.399 . S
C1825 C1826 1.396 . S
C1825 C1828 1.453 . S
C1825 C1829 1.684 . S
C1826 C1807 1.723 . S
C1826 C1825 1.396 . S
C1826 C1827 1.394 . S
C1827 C1823 1.397 . S
C1827 C1826 1.394 . S
C1827 C1837 1.723 . S
C1828 C1825 1.453 . S
C1828 H1852 0.982 . S
C1828 H1853 0.979 . S
C1828 H1854 0.977 . S
C1829 C1825 1.684 . S
C1829 H1855 0.979 . S
C1829 H1856 0.980 . S
C1829 H1857 0.983 . S
C1830 H1806 0.948 . S
C1830 C1831 1.391 . S
C1830 C1835 1.391 . S
C1831 C1830 1.391 . S
C1831 C1832 1.391 . S
C1832 H1809 0.947 . S
C1832 C1831 1.391 . S
C1832 C1833 1.392 . S
C1833 H1810 0.948 . S
C1833 C1832 1.392 . S
C1833 C1834 1.419 . S
C1834 C1833 1.419 . S
C1834 C1835 1.391 . S
C1834 C1838 1.397 . S
C1835 C1830 1.391 . S
C1835 C1834 1.391 . S
C1835 C1836 1.399 . S
C1836 C1835 1.399 . S
C1836 C1837 1.396 . S
C1836 C1839 1.453 . S
C1836 C1840 1.684 . S
C1837 C1827 1.723 . S
C1837 C1836 1.396 . S
C1837 C1838 1.394 . S
C1838 C1808 1.723 . S
C1838 C1834 1.397 . S
C1838 C1837 1.394 . S
C1839 H1811 0.982 . S
C1839 H1815 0.979 . S
C1839 H1816 0.977 . S
C1839 C1836 1.453 . S
C1840 H1812 0.979 . S
C1840 H1813 0.980 . S
C1840 H1814 0.983 . S
C1840 C1836 1.684 . S
H1841 C1859 0.948 . S
H1842 C1800 0.948 . S
H1843 C1818 0.979 . S
H1844 C1818 0.980 . S
H1845 C1818 0.983 . S
H1846 C1817 0.982 . S
H1847 C1817 0.979 . S
H1848 C1817 0.977 . S
H1849 C1819 0.948 . S
H1850 C1821 0.947 . S
H1851 C1822 0.948 . S
H1852 C1828 0.982 . S
H1853 C1828 0.979 . S
H1854 C1828 0.977 . S
H1855 C1829 0.979 . S
H1856 C1829 0.980 . S
H1857 C1829 0.983 . S
H1858 C1802 0.947 . S
C1859 C1802 1.392 . S
C1859 C1803 1.419 . S
C1859 H1841 0.948 . S
C1860 C1861 1.391 . S
C1860 C1864 1.391 . S
C1860 H1902 0.948 . S
C1861 C1860 1.391 . S
C1861 C1862 1.391 . S
C1862 C1861 1.391 . S
C1862 H1918 0.947 . S
C1862 C1919 1.392 . S
C1863 C1864 1.391 . S
C1863 C1867 1.397 . S
C1863 C1919 1.419 . S
C1864 C1860 1.391 . S
C1864 C1863 1.391 . S
C1864 C1865 1.399 . S
C1865 C1864 1.399 . S
C1865 C1868 1.396 . S
C1865 C1877 1.453 . S
C1865 C1878 1.684 . S
H1866 C1890 0.948 . S
C1867 C1863 1.397 . S
C1867 C1868 1.394 . S
C1867 C1886 1.723 . S
C1868 C1865 1.396 . S
C1868 C1867 1.394 . S
C1868 C1898 1.723 . S
H1869 C1892 0.947 . S
H1870 C1893 0.948 . S
H1871 C1899 0.982 . S
H1872 C1900 0.979 . S
H1873 C1900 0.980 . S
H1874 C1900 0.983 . S
H1875 C1899 0.979 . S
H1876 C1899 0.977 . S
C1877 C1865 1.453 . S
C1877 H1906 0.982 . S
C1877 H1907 0.979 . S
C1877 H1908 0.977 . S
C1878 C1865 1.684 . S
C1878 H1903 0.979 . S
C1878 H1904 0.980 . S
C1878 H1905 0.983 . S
C1879 C1880 1.391 . S
C1879 C1884 1.391 . S
C1879 H1909 0.948 . S
C1880 C1879 1.391 . S
C1880 C1881 1.391 . S
C1881 C1880 1.391 . S
C1881 C1882 1.392 . S
C1881 H1910 0.947 . S
C1882 C1881 1.392 . S
C1882 C1883 1.419 . S
C1882 H1911 0.948 . S
C1883 C1882 1.419 . S
C1883 C1884 1.391 . S
C1883 C1887 1.397 . S
C1884 C1879 1.391 . S
C1884 C1883 1.391 . S
C1884 C1885 1.399 . S
C1885 C1884 1.399 . S
C1885 C1886 1.396 . S
C1885 C1888 1.453 . S
C1885 C1889 1.684 . S
C1886 C1867 1.723 . S
C1886 C1885 1.396 . S
C1886 C1887 1.394 . S
C1887 C1883 1.397 . S
C1887 C1886 1.394 . S
C1887 C1897 1.723 . S
C1888 C1885 1.453 . S
C1888 H1912 0.982 . S
C1888 H1913 0.979 . S
C1888 H1914 0.977 . S
C1889 C1885 1.684 . S
C1889 H1915 0.979 . S
C1889 H1916 0.980 . S
C1889 H1917 0.983 . S
C1890 H1866 0.948 . S
C1890 C1891 1.391 . S
C1890 C1895 1.391 . S
C1891 C1890 1.391 . S
C1891 C1892 1.391 . S
C1892 H1869 0.947 . S
C1892 C1891 1.391 . S
C1892 C1893 1.392 . S
C1893 H1870 0.948 . S
C1893 C1892 1.392 . S
C1893 C1894 1.419 . S
C1894 C1893 1.419 . S
C1894 C1895 1.391 . S
C1894 C1898 1.397 . S
C1895 C1890 1.391 . S
C1895 C1894 1.391 . S
C1895 C1896 1.399 . S
C1896 C1895 1.399 . S
C1896 C1897 1.396 . S
C1896 C1899 1.453 . S
C1896 C1900 1.684 . S
C1897 C1887 1.723 . S
C1897 C1896 1.396 . S
C1897 C1898 1.394 . S
C1898 C1868 1.723 . S
C1898 C1894 1.397 . S
C1898 C1897 1.394 . S
C1899 H1871 0.982 . S
C1899 H1875 0.979 . S
C1899 H1876 0.977 . S
C1899 C1896 1.453 . S
C1900 H1872 0.979 . S
C1900 H1873 0.980 . S
C1900 H1874 0.983 . S
C1900 C1896 1.684 . S
H1901 C1919 0.948 . S
H1902 C1860 0.948 . S
H1903 C1878 0.979 . S
H1904 C1878 0.980 . S
H1905 C1878 0.983 . S
H1906 C1877 0.982 . S
H1907 C1877 0.979 . S
H1908 C1877 0.977 . S
H1909 C1879 0.948 . S
H1910 C1881 0.947 . S
H1911 C1882 0.948 . S
H1912 C1888 0.982 . S
H1913 C1888 0.979 . S
H1914 C1888 0.977 . S
H1915 C1889 0.979 . S
H1916 C1889 0.980 . S
H1917 C1889 0.983 . S
H1918 C1862 0.947 . S
C1919 C1862 1.392 . S
C1919 C1863 1.419 . S
C1919 H1901 0.948 . S
Cu1920 N1921 1.999 . S
Cu1920 O1926 1.974 1_554 S
Cu1920 N1931 1.985 . S
Cu1920 O1940 1.959 . S
N1921 Cu1920 1.999 . S
N1921 C1923 1.263 1_554 S
N1921 C1925 1.389 . S
N1922 C1923 1.358 . S
N1922 C1924 1.400 . S
C1923 N1921 1.263 1_556 S
C1923 N1922 1.358 . S
C1923 H1929 0.930 . S
C1924 N1922 1.400 . S
C1924 C1925 1.351 1_556 S
C1924 H1941 0.930 . S
C1925 N1921 1.389 . S
C1925 C1924 1.351 1_554 S
C1925 H1930 0.930 . S
O1926 Cu1920 1.974 1_556 S
O1926 C1936 1.282 . S
C1927 O1928 1.261 . S
C1927 O1940 1.251 . S
O1928 C1927 1.261 . S
H1929 C1923 0.930 . S
H1930 C1925 0.930 . S
N1931 Cu1920 1.985 . S
N1931 C1933 1.335 . S
N1931 C1934 1.390 . S
N1932 C1933 1.345 . S
N1932 C1935 1.336 . S
C1933 N1931 1.335 . S
C1933 N1932 1.345 . S
C1933 H1938 0.930 . S
C1934 N1931 1.390 . S
C1934 C1935 1.346 . S
C1934 H1939 0.930 . S
C1935 N1932 1.336 . S
C1935 C1934 1.346 . S
C1935 H1942 0.929 . S
C1936 O1926 1.282 . S
C1936 O1937 1.216 . S
O1937 C1936 1.216 . S
H1938 C1933 0.930 . S
H1939 C1934 0.930 . S
O1940 Cu1920 1.959 . S
O1940 C1927 1.251 . S
H1941 C1924 0.930 . S
H1942 C1935 0.929 . S
Cu1943 N1944 1.999 . S
Cu1943 O1949 1.974 . S
Cu1943 N1954 1.985 1_554 S
Cu1943 O1963 1.959 1_554 S
N1944 Cu1943 1.999 . S
N1944 C1946 1.263 . S
N1944 C1948 1.389 . S
N1945 C1946 1.358 . S
N1945 C1947 1.400 . S
C1946 N1944 1.263 . S
C1946 N1945 1.358 . S
C1946 H1952 0.930 . S
C1947 N1945 1.400 . S
C1947 C1948 1.351 . S
C1947 H1964 0.930 . S
C1948 N1944 1.389 . S
C1948 C1947 1.351 . S
C1948 H1953 0.930 . S
O1949 Cu1943 1.974 . S
O1949 C1959 1.282 . S
C1950 O1951 1.261 . S
C1950 O1963 1.251 . S
O1951 C1950 1.261 . S
H1952 C1946 0.930 . S
H1953 C1948 0.930 . S
N1954 Cu1943 1.985 1_556 S
N1954 C1956 1.335 . S
N1954 C1957 1.390 . S
N1955 C1956 1.345 . S
N1955 C1958 1.336 . S
C1956 N1954 1.335 . S
C1956 N1955 1.345 . S
C1956 H1961 0.930 . S
C1957 N1954 1.390 . S
C1957 C1958 1.346 . S
C1957 H1962 0.930 1_556 S
C1958 N1955 1.336 . S
C1958 C1957 1.346 . S
C1958 H1965 0.929 . S
C1959 O1949 1.282 . S
C1959 O1960 1.216 . S
O1960 C1959 1.216 . S
H1961 C1956 0.930 . S
H1962 C1957 0.930 1_554 S
O1963 Cu1943 1.959 1_556 S
O1963 C1950 1.251 . S
H1964 C1947 0.930 . S
H1965 C1958 0.929 . S
Cu1966 N1967 1.999 1_554 S
Cu1966 O1972 1.974 1_554 S
Cu1966 N1977 1.985 . S
Cu1966 O1986 1.959 . S
N1967 Cu1966 1.999 1_556 S
N1967 C1969 1.263 . S
N1967 C1971 1.389 . S
N1968 C1969 1.358 . S
N1968 C1970 1.400 . S
C1969 N1967 1.263 . S
C1969 N1968 1.358 . S
C1969 H1975 0.930 . S
C1970 N1968 1.400 . S
C1970 C1971 1.351 . S
C1970 H1987 0.930 . S
C1971 N1967 1.389 . S
C1971 C1970 1.351 . S
C1971 H1976 0.972 . S
O1972 Cu1966 1.974 1_556 S
O1972 C1982 1.282 . S
C1973 O1974 1.261 . S
C1973 O1986 1.251 . S
O1974 C1973 1.261 . S
H1975 C1969 0.930 . S
H1976 C1971 0.972 . S
N1977 Cu1966 1.985 . S
N1977 C1979 1.335 . S
N1977 C1980 1.390 . S
N1978 C1979 1.345 . S
N1978 C1981 1.336 . S
C1979 N1977 1.335 . S
C1979 N1978 1.345 . S
C1979 H1984 0.930 . S
C1980 N1977 1.390 . S
C1980 C1981 1.346 . S
C1980 H1985 0.942 . S
C1981 N1978 1.336 . S
C1981 C1980 1.346 . S
C1981 H1988 0.929 . S
C1982 O1972 1.282 . S
C1982 O1983 1.216 . S
O1983 C1982 1.216 . S
H1984 C1979 0.930 . S
H1985 C1980 0.942 . S
O1986 Cu1966 1.959 . S
O1986 C1973 1.251 . S
H1987 C1970 0.930 . S
H1988 C1981 0.929 . S
Cu1989 N1990 2.031 . S
Cu1989 O1995 2.011 . S
Cu1989 N2000 1.956 1_554 S
Cu1989 O2009 1.923 1_554 S
N1990 Cu1989 2.031 . S
N1990 C1992 1.263 . S
N1990 C1994 1.389 . S
N1991 C1992 1.358 . S
N1991 C1993 1.400 . S
C1992 N1990 1.263 . S
C1992 N1991 1.358 . S
C1992 H1998 0.930 . S
C1993 N1991 1.400 . S
C1993 C1994 1.351 . S
C1993 H2010 0.930 . S
C1994 N1990 1.389 . S
C1994 C1993 1.351 . S
C1994 H1999 0.930 . S
O1995 Cu1989 2.011 . S
O1995 C2005 1.282 . S
C1996 O1997 1.261 . S
C1996 O2009 1.251 . S
O1997 C1996 1.261 . S
H1998 C1992 0.930 . S
H1999 C1994 0.930 . S
N2000 Cu1989 1.956 1_556 S
N2000 C2002 1.335 . S
N2000 C2003 1.390 . S
N2001 C2002 1.345 . S
N2001 C2004 1.336 . S
C2002 N2000 1.335 . S
C2002 N2001 1.345 . S
C2002 H2007 0.930 . S
C2003 N2000 1.390 . S
C2003 C2004 1.346 . S
C2003 H2008 0.930 1_556 S
C2004 N2001 1.336 . S
C2004 C2003 1.346 . S
C2004 H2011 0.929 . S
C2005 O1995 1.282 . S
C2005 O2006 1.216 . S
O2006 C2005 1.216 . S
H2007 C2002 0.930 . S
H2008 C2003 0.930 1_554 S
O2009 Cu1989 1.923 1_556 S
O2009 C1996 1.251 . S
H2010 C1993 0.930 . S
H2011 C2004 0.929 . S
Cu2012 N2013 1.999 . S
Cu2012 O2018 1.974 . S
Cu2012 N2023 1.985 1_455 S
Cu2012 O2032 1.959 1_455 S
N2013 Cu2012 1.999 . S
N2013 C2015 1.263 . S
N2013 C2017 1.389 . S
N2014 C2015 1.358 . S
N2014 C2016 1.400 . S
C2015 N2013 1.263 . S
C2015 N2014 1.358 . S
C2015 H2021 0.930 . S
C2016 N2014 1.400 . S
C2016 C2017 1.351 . S
C2016 H2033 0.930 . S
C2017 N2013 1.389 . S
C2017 C2016 1.351 . S
C2017 H2022 0.930 . S
O2018 Cu2012 1.974 . S
O2018 C2028 1.282 . S
C2019 O2020 1.261 . S
C2019 O2032 1.251 . S
O2020 C2019 1.261 . S
H2021 C2015 0.930 . S
H2022 C2017 0.930 . S
N2023 Cu2012 1.985 1_655 S
N2023 C2025 1.335 . S
N2023 C2026 1.384 1_655 S
N2024 C2025 1.345 . S
N2024 C2027 1.336 . S
C2025 N2023 1.335 . S
C2025 N2024 1.345 . S
C2025 H2030 0.930 . S
C2026 N2023 1.384 1_455 S
C2026 C2027 1.318 1_455 S
C2026 H2031 0.959 . S
C2027 N2024 1.336 . S
C2027 C2026 1.318 1_655 S
C2027 H2034 0.929 . S
C2028 O2018 1.282 . S
C2028 O2029 1.216 . S
O2029 C2028 1.216 . S
H2030 C2025 0.930 . S
H2031 C2026 0.959 . S
O2032 Cu2012 1.959 1_655 S
O2032 C2019 1.251 . S
H2033 C2016 0.930 . S
H2034 C2027 0.929 . S
Cu2035 N2036 1.999 . S
Cu2035 O2041 1.974 . S
Cu2035 N2046 1.985 1_545 S
Cu2035 O2055 1.959 1_545 S
N2036 Cu2035 1.999 . S
N2036 C2038 1.263 . S
N2036 C2040 1.389 . S
N2037 C2038 1.358 . S
N2037 C2039 1.400 . S
C2038 N2036 1.263 . S
C2038 N2037 1.358 . S
C2038 H2044 0.930 . S
C2039 N2037 1.400 . S
C2039 C2040 1.351 . S
C2039 H2056 0.930 . S
C2040 N2036 1.389 . S
C2040 C2039 1.351 . S
C2040 H2045 0.930 . S
O2041 Cu2035 1.974 . S
O2041 C2051 1.282 . S
C2042 O2043 1.261 . S
C2042 O2055 1.251 . S
O2043 C2042 1.261 . S
H2044 C2038 0.930 . S
H2045 C2040 0.930 . S
N2046 Cu2035 1.985 1_565 S
N2046 C2048 1.335 . S
N2046 C2049 1.390 . S
N2047 C2048 1.345 . S
N2047 C2050 1.336 . S
C2048 N2046 1.335 . S
C2048 N2047 1.345 . S
C2048 H2053 0.930 . S
C2049 N2046 1.390 . S
C2049 C2050 1.346 . S
C2049 H2054 0.930 1_565 S
C2050 N2047 1.336 . S
C2050 C2049 1.346 . S
C2050 H2057 0.929 . S
C2051 O2041 1.282 . S
C2051 O2052 1.216 . S
O2052 C2051 1.216 . S
H2053 C2048 0.930 . S
H2054 C2049 0.930 1_545 S
O2055 Cu2035 1.959 1_565 S
O2055 C2042 1.251 . S
H2056 C2039 0.930 . S
H2057 C2050 0.929 . S
Cu2058 N2059 1.999 . S
Cu2058 O2064 1.973 . S
Cu2058 N2069 1.986 1_655 S
Cu2058 O2078 1.960 1_655 S
N2059 Cu2058 1.999 . S
N2059 C2061 1.263 . S
N2059 C2063 1.389 . S
N2060 C2061 1.358 . S
N2060 C2062 1.400 . S
C2061 N2059 1.263 . S
C2061 N2060 1.358 . S
C2061 H2067 0.930 . S
C2062 N2060 1.400 . S
C2062 C2063 1.351 . S
C2062 H2079 0.930 . S
C2063 N2059 1.389 . S
C2063 C2062 1.351 . S
C2063 H2068 0.930 . S
O2064 Cu2058 1.973 . S
O2064 C2074 1.282 . S
C2065 O2066 1.261 . S
C2065 O2078 1.251 . S
O2066 C2065 1.261 . S
H2067 C2061 0.930 . S
H2068 C2063 0.930 . S
N2069 Cu2058 1.986 1_455 S
N2069 C2071 1.335 . S
N2069 C2072 1.390 . S
N2070 C2071 1.345 . S
N2070 C2073 1.336 . S
C2071 N2069 1.335 . S
C2071 N2070 1.345 . S
C2071 H2076 0.930 . S
C2072 N2069 1.390 . S
C2072 C2073 1.346 . S
C2072 H2077 0.930 . S
C2073 N2070 1.336 . S
C2073 C2072 1.346 . S
C2073 H2080 0.929 . S
C2074 O2064 1.282 . S
C2074 O2075 1.216 . S
O2075 C2074 1.216 . S
H2076 C2071 0.930 . S
H2077 C2072 0.930 . S
O2078 Cu2058 1.960 1_455 S
O2078 C2065 1.251 . S
H2079 C2062 0.930 . S
H2080 C2073 0.929 . S
Cu2081 N2082 1.983 1_565 S
Cu2081 O2087 1.953 1_565 S
Cu2081 N2092 2.000 . S
Cu2081 O2101 1.979 . S
N2082 Cu2081 1.983 1_545 S
N2082 C2084 1.263 . S
N2082 C2086 1.389 . S
N2083 C2084 1.358 . S
N2083 C2085 1.400 . S
C2084 N2082 1.263 . S
C2084 N2083 1.358 . S
C2084 H2090 0.930 . S
C2085 N2083 1.400 . S
C2085 C2086 1.351 . S
C2085 H2102 0.930 . S
C2086 N2082 1.389 . S
C2086 C2085 1.351 . S
C2086 H2091 0.930 . S
O2087 Cu2081 1.953 1_545 S
O2087 C2097 1.282 . S
C2088 O2089 1.261 . S
C2088 O2101 1.251 . S
O2089 C2088 1.261 . S
H2090 C2084 0.930 . S
H2091 C2086 0.930 . S
N2092 Cu2081 2.000 . S
N2092 C2094 1.335 . S
N2092 C2095 1.390 . S
N2093 C2094 1.345 . S
N2093 C2096 1.336 . S
C2094 N2092 1.335 . S
C2094 N2093 1.345 . S
C2094 H2099 0.930 . S
C2095 N2092 1.390 . S
C2095 C2096 1.346 . S
C2095 H2100 0.930 . S
C2096 N2093 1.336 . S
C2096 C2095 1.346 . S
C2096 H2103 0.929 . S
C2097 O2087 1.282 . S
C2097 O2098 1.216 . S
O2098 C2097 1.216 . S
H2099 C2094 0.930 . S
H2100 C2095 0.930 . S
O2101 Cu2081 1.979 . S
O2101 C2088 1.251 . S
H2102 C2085 0.930 . S
H2103 C2096 0.929 . S
Cu2104 N2105 1.999 . S
Cu2104 O2110 1.974 . S
Cu2104 N2115 1.985 1_455 S
Cu2104 O2124 1.959 1_455 S
N2105 Cu2104 1.999 . S
N2105 C2107 1.263 . S
N2105 C2109 1.389 . S
N2106 C2107 1.358 . S
N2106 C2108 1.400 . S
C2107 N2105 1.263 . S
C2107 N2106 1.358 . S
C2107 H2113 0.930 . S
C2108 N2106 1.400 . S
C2108 C2109 1.351 . S
C2108 H2125 0.930 . S
C2109 N2105 1.389 . S
C2109 C2108 1.351 . S
C2109 H2114 0.930 . S
O2110 Cu2104 1.974 . S
O2110 C2120 1.282 . S
C2111 O2112 1.261 . S
C2111 O2124 1.251 . S
O2112 C2111 1.261 . S
H2113 C2107 0.930 . S
H2114 C2109 0.930 . S
N2115 Cu2104 1.985 1_655 S
N2115 C2117 1.335 . S
N2115 C2118 1.393 . S
N2116 C2117 1.345 . S
N2116 C2119 1.336 . S
C2117 N2115 1.335 . S
C2117 N2116 1.345 . S
C2117 H2122 0.930 . S
C2118 N2115 1.393 . S
C2118 C2119 1.360 . S
C2118 H2123 0.916 1_655 S
C2119 N2116 1.336 . S
C2119 C2118 1.360 . S
C2119 H2126 0.929 . S
C2120 O2110 1.282 . S
C2120 O2121 1.216 . S
O2121 C2120 1.216 . S
H2122 C2117 0.930 . S
H2123 C2118 0.916 1_455 S
O2124 Cu2104 1.959 1_655 S
O2124 C2111 1.251 . S
H2125 C2108 0.930 . S
H2126 C2119 0.929 . S
Cu2127 N2128 1.999 . S
Cu2127 O2133 1.974 . S
Cu2127 N2138 1.985 1_545 S
Cu2127 O2147 1.959 1_545 S
N2128 Cu2127 1.999 . S
N2128 C2130 1.263 . S
N2128 C2132 1.389 . S
N2129 C2130 1.358 . S
N2129 C2131 1.400 . S
C2130 N2128 1.263 . S
C2130 N2129 1.358 . S
C2130 H2136 0.930 . S
C2131 N2129 1.400 . S
C2131 C2132 1.351 . S
C2131 H2148 0.930 . S
C2132 N2128 1.389 . S
C2132 C2131 1.351 . S
C2132 H2137 0.930 . S
O2133 Cu2127 1.974 . S
O2133 C2143 1.282 . S
C2134 O2135 1.261 . S
C2134 O2147 1.251 . S
O2135 C2134 1.261 . S
H2136 C2130 0.930 . S
H2137 C2132 0.930 . S
N2138 Cu2127 1.985 1_565 S
N2138 C2140 1.335 . S
N2138 C2141 1.390 1_565 S
N2139 C2140 1.345 . S
N2139 C2142 1.336 . S
C2140 N2138 1.335 . S
C2140 N2139 1.345 . S
C2140 H2145 0.930 . S
C2141 N2138 1.390 1_545 S
C2141 C2142 1.346 1_545 S
C2141 H2146 0.930 . S
C2142 N2139 1.336 . S
C2142 C2141 1.346 1_565 S
C2142 H2149 0.929 . S
C2143 O2133 1.282 . S
C2143 O2144 1.216 . S
O2144 C2143 1.216 . S
H2145 C2140 0.930 . S
H2146 C2141 0.930 . S
O2147 Cu2127 1.959 1_565 S
O2147 C2134 1.251 . S
H2148 C2131 0.930 . S
H2149 C2142 0.929 . S
Cu2150 N2151 1.999 . S
Cu2150 O2156 1.974 . S
Cu2150 N2161 1.985 . S
Cu2150 O2170 1.959 . S
N2151 Cu2150 1.999 . S
N2151 C2153 1.263 1_455 S
N2151 C2155 1.389 . S
N2152 C2153 1.358 . S
N2152 C2154 1.400 . S
C2153 N2151 1.263 1_655 S
C2153 N2152 1.358 . S
C2153 H2159 0.930 . S
C2154 N2152 1.400 . S
C2154 C2155 1.351 1_655 S
C2154 H2171 0.930 . S
C2155 N2151 1.389 . S
C2155 C2154 1.351 1_455 S
C2155 H2160 0.930 . S
O2156 Cu2150 1.974 . S
O2156 C2166 1.282 1_455 S
C2157 O2158 1.261 . S
C2157 O2170 1.251 . S
O2158 C2157 1.261 . S
H2159 C2153 0.930 . S
H2160 C2155 0.930 . S
N2161 Cu2150 1.985 . S
N2161 C2163 1.335 . S
N2161 C2164 1.390 . S
N2162 C2163 1.345 . S
N2162 C2165 1.336 . S
C2163 N2161 1.335 . S
C2163 N2162 1.345 . S
C2163 H2168 0.930 . S
C2164 N2161 1.390 . S
C2164 C2165 1.346 . S
C2164 H2169 0.930 . S
C2165 N2162 1.336 . S
C2165 C2164 1.346 . S
C2165 H2172 0.929 . S
C2166 O2156 1.282 1_655 S
C2166 O2167 1.216 1_655 S
O2167 C2166 1.216 1_455 S
H2168 C2163 0.930 . S
H2169 C2164 0.930 . S
O2170 Cu2150 1.959 . S
O2170 C2157 1.251 . S
H2171 C2154 0.930 . S
H2172 C2165 0.929 . S
Cu2173 N2174 1.999 . S
Cu2173 O2179 1.974 . S
Cu2173 N2184 1.985 . S
Cu2173 O2193 1.959 1_545 S
N2174 Cu2173 1.999 . S
N2174 C2176 1.263 . S
N2174 C2178 1.389 . S
N2175 C2176 1.358 . S
N2175 C2177 1.400 . S
C2176 N2174 1.263 . S
C2176 N2175 1.358 . S
C2176 H2182 0.930 . S
C2177 N2175 1.400 . S
C2177 C2178 1.351 . S
C2177 H2194 0.930 . S
C2178 N2174 1.389 . S
C2178 C2177 1.351 . S
C2178 H2183 0.930 . S
O2179 Cu2173 1.974 . S
O2179 C2189 1.282 . S
C2180 O2181 1.245 1_565 S
C2180 O2193 1.251 . S
O2181 C2180 1.245 1_545 S
H2182 C2176 0.930 . S
H2183 C2178 0.930 . S
N2184 Cu2173 1.985 . S
N2184 C2186 1.335 1_545 S
N2184 C2187 1.390 . S
N2185 C2186 1.345 . S
N2185 C2188 1.336 . S
C2186 N2184 1.335 1_565 S
C2186 N2185 1.345 . S
C2186 H2191 0.930 . S
C2187 N2184 1.390 . S
C2187 C2188 1.346 1_545 S
C2187 H2192 0.930 . S
C2188 N2185 1.336 . S
C2188 C2187 1.346 1_565 S
C2188 H2195 0.929 . S
C2189 O2179 1.282 . S
C2189 O2190 1.216 . S
O2190 C2189 1.216 . S
H2191 C2186 0.930 . S
H2192 C2187 0.930 . S
O2193 Cu2173 1.959 1_565 S
O2193 C2180 1.251 . S
H2194 C2177 0.930 . S
H2195 C2188 0.929 . S
Cu2196 N2197 1.999 . S
Cu2196 O2202 1.974 . S
Cu2196 N2207 1.985 . S
Cu2196 O2216 1.959 . S
N2197 Cu2196 1.999 . S
N2197 C2199 1.263 . S
N2197 C2201 1.389 . S
N2198 C2199 1.358 . S
N2198 C2200 1.400 . S
C2199 N2197 1.263 . S
C2199 N2198 1.358 . S
C2199 H2205 0.930 . S
C2200 N2198 1.400 . S
C2200 C2201 1.351 . S
C2200 H2217 0.930 . S
C2201 N2197 1.389 . S
C2201 C2200 1.351 . S
C2201 H2206 0.930 . S
O2202 Cu2196 1.974 . S
O2202 C2212 1.282 . S
C2203 O2204 1.261 . S
C2203 O2216 1.251 . S
O2204 C2203 1.261 . S
H2205 C2199 0.930 . S
H2206 C2201 0.930 . S
N2207 Cu2196 1.985 . S
N2207 C2209 1.335 . S
N2207 C2210 1.390 . S
N2208 C2209 1.345 . S
N2208 C2211 1.336 . S
C2209 N2207 1.335 . S
C2209 N2208 1.345 . S
C2209 H2214 0.930 . S
C2210 N2207 1.390 . S
C2210 C2211 1.346 . S
C2210 H2215 0.930 . S
C2211 N2208 1.336 . S
C2211 C2210 1.346 . S
C2211 H2218 0.929 . S
C2212 O2202 1.282 . S
C2212 O2213 1.216 . S
O2213 C2212 1.216 . S
H2214 C2209 0.930 . S
H2215 C2210 0.930 . S
O2216 Cu2196 1.959 . S
O2216 C2203 1.251 . S
H2217 C2200 0.930 . S
H2218 C2211 0.929 . S
Cu2219 N2220 1.999 . S
Cu2219 O2225 1.974 . S
Cu2219 N2230 1.985 . S
Cu2219 O2239 1.959 . S
N2220 Cu2219 1.999 . S
N2220 C2222 1.263 . S
N2220 C2224 1.389 . S
N2221 C2222 1.358 . S
N2221 C2223 1.400 . S
C2222 N2220 1.263 . S
C2222 N2221 1.358 . S
C2222 H2228 0.930 . S
C2223 N2221 1.400 . S
C2223 C2224 1.351 . S
C2223 H2240 0.930 . S
C2224 N2220 1.389 . S
C2224 C2223 1.351 . S
C2224 H2229 0.930 . S
O2225 Cu2219 1.974 . S
O2225 C2235 1.282 . S
C2226 O2227 1.261 . S
C2226 O2239 1.251 . S
O2227 C2226 1.261 . S
H2228 C2222 0.930 . S
H2229 C2224 0.930 . S
N2230 Cu2219 1.985 . S
N2230 C2232 1.335 . S
N2230 C2233 1.390 . S
N2231 C2232 1.345 . S
N2231 C2234 1.336 . S
C2232 N2230 1.335 . S
C2232 N2231 1.345 . S
C2232 H2237 0.930 . S
C2233 N2230 1.390 . S
C2233 C2234 1.346 . S
C2233 H2238 0.930 . S
C2234 N2231 1.336 . S
C2234 C2233 1.346 . S
C2234 H2241 0.929 . S
C2235 O2225 1.282 . S
C2235 O2236 1.216 . S
O2236 C2235 1.216 . S
H2237 C2232 0.930 . S
H2238 C2233 0.930 . S
O2239 Cu2219 1.959 . S
O2239 C2226 1.251 . S
H2240 C2223 0.930 . S
H2241 C2234 0.929 . S
Cu2242 N2243 1.999 . S
Cu2242 O2248 1.974 . S
Cu2242 N2253 1.985 . S
Cu2242 O2262 1.959 . S
N2243 Cu2242 1.999 . S
N2243 C2245 1.263 . S
N2243 C2247 1.389 . S
N2244 C2245 1.358 . S
N2244 C2246 1.400 . S
C2245 N2243 1.263 . S
C2245 N2244 1.358 . S
C2245 H2251 0.930 . S
C2246 N2244 1.400 . S
C2246 C2247 1.351 . S
C2246 H2263 0.930 . S
C2247 N2243 1.389 . S
C2247 C2246 1.351 . S
C2247 H2252 0.930 . S
O2248 Cu2242 1.974 . S
O2248 C2258 1.282 . S
C2249 O2250 1.261 . S
C2249 O2262 1.251 . S
O2250 C2249 1.261 . S
H2251 C2245 0.930 . S
H2252 C2247 0.930 . S
N2253 Cu2242 1.985 . S
N2253 C2255 1.335 . S
N2253 C2256 1.390 . S
N2254 C2255 1.345 . S
N2254 C2257 1.336 . S
C2255 N2253 1.335 . S
C2255 N2254 1.345 . S
C2255 H2260 0.930 . S
C2256 N2253 1.390 . S
C2256 C2257 1.346 . S
C2256 H2261 0.930 . S
C2257 N2254 1.336 . S
C2257 C2256 1.346 . S
C2257 H2264 0.929 . S
C2258 O2248 1.282 . S
C2258 O2259 1.216 . S
O2259 C2258 1.216 . S
H2260 C2255 0.930 . S
H2261 C2256 0.930 . S
O2262 Cu2242 1.959 . S
O2262 C2249 1.251 . S
H2263 C2246 0.930 . S
H2264 C2257 0.929 . S
Cu2265 N2266 1.999 . S
Cu2265 O2271 1.974 . S
Cu2265 N2276 1.985 . S
Cu2265 O2285 1.959 . S
N2266 Cu2265 1.999 . S
N2266 C2268 1.263 . S
N2266 C2270 1.389 . S
N2267 C2268 1.358 . S
N2267 C2269 1.400 . S
C2268 N2266 1.263 . S
C2268 N2267 1.358 . S
C2268 H2274 0.930 . S
C2269 N2267 1.400 . S
C2269 C2270 1.351 . S
C2269 H2286 0.930 . S
C2270 N2266 1.389 . S
C2270 C2269 1.351 . S
C2270 H2275 0.930 . S
O2271 Cu2265 1.974 . S
O2271 C2281 1.282 . S
C2272 O2273 1.261 . S
C2272 O2285 1.251 . S
O2273 C2272 1.261 . S
H2274 C2268 0.930 . S
H2275 C2270 0.930 . S
N2276 Cu2265 1.985 . S
N2276 C2278 1.335 . S
N2276 C2279 1.390 . S
N2277 C2278 1.345 . S
N2277 C2280 1.336 . S
C2278 N2276 1.335 . S
C2278 N2277 1.345 . S
C2278 H2283 0.930 . S
C2279 N2276 1.390 . S
C2279 C2280 1.346 . S
C2279 H2284 0.930 . S
C2280 N2277 1.336 . S
C2280 C2279 1.346 . S
C2280 H2287 0.929 . S
C2281 O2271 1.282 . S
C2281 O2282 1.216 . S
O2282 C2281 1.216 . S
H2283 C2278 0.930 . S
H2284 C2279 0.930 . S
O2285 Cu2265 1.959 . S
O2285 C2272 1.251 . S
H2286 C2269 0.930 . S
H2287 C2280 0.929 . S
Cu2288 N2289 1.999 . S
Cu2288 O2294 1.974 . S
Cu2288 N2299 1.985 . S
Cu2288 O2308 1.959 . S
N2289 Cu2288 1.999 . S
N2289 C2291 1.263 . S
N2289 C2293 1.389 . S
N2290 C2291 1.358 . S
N2290 C2292 1.400 . S
C2291 N2289 1.263 . S
C2291 N2290 1.358 . S
C2291 H2297 0.930 . S
C2292 N2290 1.400 . S
C2292 C2293 1.351 . S
C2292 H2309 0.930 . S
C2293 N2289 1.389 . S
C2293 C2292 1.351 . S
C2293 H2298 0.930 . S
O2294 Cu2288 1.974 . S
O2294 C2304 1.282 . S
C2295 O2296 1.261 . S
C2295 O2308 1.251 . S
O2296 C2295 1.261 . S
H2297 C2291 0.930 . S
H2298 C2293 0.930 . S
N2299 Cu2288 1.985 . S
N2299 C2301 1.335 . S
N2299 C2302 1.390 . S
N2300 C2301 1.345 . S
N2300 C2303 1.336 . S
C2301 N2299 1.335 . S
C2301 N2300 1.345 . S
C2301 H2306 0.930 . S
C2302 N2299 1.390 . S
C2302 C2303 1.346 . S
C2302 H2307 0.930 . S
C2303 N2300 1.336 . S
C2303 C2302 1.346 . S
C2303 H2310 0.929 . S
C2304 O2294 1.282 . S
C2304 O2305 1.216 . S
O2305 C2304 1.216 . S
H2306 C2301 0.930 . S
H2307 C2302 0.930 . S
O2308 Cu2288 1.959 . S
O2308 C2295 1.251 . S
H2309 C2292 0.930 . S
H2310 C2303 0.929 . S
Cu2311 N2312 1.999 . S
Cu2311 O2317 1.974 . S
Cu2311 N2322 1.985 . S
Cu2311 O2331 1.959 . S
N2312 Cu2311 1.999 . S
N2312 C2314 1.263 . S
N2312 C2316 1.389 . S
N2313 C2314 1.358 . S
N2313 C2315 1.400 . S
C2314 N2312 1.263 . S
C2314 N2313 1.358 . S
C2314 H2320 0.930 . S
C2315 N2313 1.400 . S
C2315 C2316 1.351 . S
C2315 H2332 0.930 . S
C2316 N2312 1.389 . S
C2316 C2315 1.351 . S
C2316 H2321 0.930 . S
O2317 Cu2311 1.974 . S
O2317 C2327 1.282 . S
C2318 O2319 1.261 . S
C2318 O2331 1.251 . S
O2319 C2318 1.261 . S
H2320 C2314 0.930 . S
H2321 C2316 0.930 . S
N2322 Cu2311 1.985 . S
N2322 C2324 1.335 . S
N2322 C2325 1.390 . S
N2323 C2324 1.345 . S
N2323 C2326 1.336 . S
C2324 N2322 1.335 . S
C2324 N2323 1.345 . S
C2324 H2329 0.930 . S
C2325 N2322 1.390 . S
C2325 C2326 1.346 . S
C2325 H2330 0.930 . S
C2326 N2323 1.336 . S
C2326 C2325 1.346 . S
C2326 H2333 0.929 . S
C2327 O2317 1.282 . S
C2327 O2328 1.216 . S
O2328 C2327 1.216 . S
H2329 C2324 0.930 . S
H2330 C2325 0.930 . S
O2331 Cu2311 1.959 . S
O2331 C2318 1.251 . S
H2332 C2315 0.930 . S
H2333 C2326 0.929 . S
Cu2334 N2335 1.999 . S
Cu2334 O2340 1.974 . S
Cu2334 N2345 1.985 . S
Cu2334 O2354 1.959 . S
N2335 Cu2334 1.999 . S
N2335 C2337 1.263 . S
N2335 C2339 1.389 . S
N2336 C2337 1.358 . S
N2336 C2338 1.400 . S
C2337 N2335 1.263 . S
C2337 N2336 1.358 . S
C2337 H2343 0.930 . S
C2338 N2336 1.400 . S
C2338 C2339 1.351 . S
C2338 H2355 0.930 . S
C2339 N2335 1.389 . S
C2339 C2338 1.351 . S
C2339 H2344 0.930 . S
O2340 Cu2334 1.974 . S
O2340 C2350 1.282 . S
C2341 O2342 1.261 . S
C2341 O2354 1.251 . S
O2342 C2341 1.261 . S
H2343 C2337 0.930 . S
H2344 C2339 0.930 . S
N2345 Cu2334 1.985 . S
N2345 C2347 1.335 . S
N2345 C2348 1.390 . S
N2346 C2347 1.345 . S
N2346 C2349 1.336 . S
C2347 N2345 1.335 . S
C2347 N2346 1.345 . S
C2347 H2352 0.930 . S
C2348 N2345 1.390 . S
C2348 C2349 1.346 . S
C2348 H2353 0.930 . S
C2349 N2346 1.336 . S
C2349 C2348 1.346 . S
C2349 H2356 0.929 . S
C2350 O2340 1.282 . S
C2350 O2351 1.216 . S
O2351 C2350 1.216 . S
H2352 C2347 0.930 . S
H2353 C2348 0.930 . S
O2354 Cu2334 1.959 . S
O2354 C2341 1.251 . S
H2355 C2338 0.930 . S
H2356 C2349 0.929 . S
Cu2357 N2358 1.999 . S
Cu2357 O2363 1.974 . S
Cu2357 N2368 1.985 . S
Cu2357 O2377 1.959 . S
N2358 Cu2357 1.999 . S
N2358 C2360 1.263 . S
N2358 C2362 1.389 . S
N2359 C2360 1.358 . S
N2359 C2361 1.400 . S
C2360 N2358 1.263 . S
C2360 N2359 1.358 . S
C2360 H2366 0.930 . S
C2361 N2359 1.400 . S
C2361 C2362 1.351 . S
C2361 H2378 0.930 . S
C2362 N2358 1.389 . S
C2362 C2361 1.351 . S
C2362 H2367 0.930 . S
O2363 Cu2357 1.974 . S
O2363 C2373 1.282 . S
C2364 O2365 1.261 . S
C2364 O2377 1.251 . S
O2365 C2364 1.261 . S
H2366 C2360 0.930 . S
H2367 C2362 0.930 . S
N2368 Cu2357 1.985 . S
N2368 C2370 1.335 . S
N2368 C2371 1.390 . S
N2369 C2370 1.345 . S
N2369 C2372 1.336 . S
C2370 N2368 1.335 . S
C2370 N2369 1.345 . S
C2370 H2375 0.930 . S
C2371 N2368 1.390 . S
C2371 C2372 1.346 . S
C2371 H2376 0.930 . S
C2372 N2369 1.336 . S
C2372 C2371 1.346 . S
C2372 H2379 0.929 . S
C2373 O2363 1.282 . S
C2373 O2374 1.216 . S
O2374 C2373 1.216 . S
H2375 C2370 0.930 . S
H2376 C2371 0.930 . S
O2377 Cu2357 1.959 . S
O2377 C2364 1.251 . S
H2378 C2361 0.930 . S
H2379 C2372 0.929 . S
Cu2380 N2381 1.999 . S
Cu2380 O2386 1.974 . S
Cu2380 N2391 1.985 . S
Cu2380 O2400 1.959 . S
N2381 Cu2380 1.999 . S
N2381 C2383 1.263 . S
N2381 C2385 1.389 . S
N2382 C2383 1.358 . S
N2382 C2384 1.400 . S
C2383 N2381 1.263 . S
C2383 N2382 1.358 . S
C2383 H2389 0.930 . S
C2384 N2382 1.400 . S
C2384 C2385 1.351 . S
C2384 H2401 0.930 . S
C2385 N2381 1.389 . S
C2385 C2384 1.351 . S
C2385 H2390 0.930 . S
O2386 Cu2380 1.974 . S
O2386 C2396 1.282 . S
C2387 O2388 1.261 . S
C2387 O2400 1.251 . S
O2388 C2387 1.261 . S
H2389 C2383 0.930 . S
H2390 C2385 0.930 . S
N2391 Cu2380 1.985 . S
N2391 C2393 1.335 . S
N2391 C2394 1.390 . S
N2392 C2393 1.345 . S
N2392 C2395 1.336 . S
C2393 N2391 1.335 . S
C2393 N2392 1.345 . S
C2393 H2398 0.930 . S
C2394 N2391 1.390 . S
C2394 C2395 1.346 . S
C2394 H2399 0.930 . S
C2395 N2392 1.336 . S
C2395 C2394 1.346 . S
C2395 H2402 0.929 . S
C2396 O2386 1.282 . S
C2396 O2397 1.216 . S
O2397 C2396 1.216 . S
H2398 C2393 0.930 . S
H2399 C2394 0.930 . S
O2400 Cu2380 1.959 . S
O2400 C2387 1.251 . S
H2401 C2384 0.930 . S
H2402 C2395 0.929 . S
Cu2403 N2404 1.999 . S
Cu2403 O2409 1.974 . S
Cu2403 N2414 1.985 . S
Cu2403 O2423 1.959 . S
N2404 Cu2403 1.999 . S
N2404 C2406 1.263 . S
N2404 C2408 1.389 . S
N2405 C2406 1.358 . S
N2405 C2407 1.400 . S
C2406 N2404 1.263 . S
C2406 N2405 1.358 . S
C2406 H2412 0.930 . S
C2407 N2405 1.400 . S
C2407 C2408 1.351 . S
C2407 H2424 0.930 . S
C2408 N2404 1.389 . S
C2408 C2407 1.351 . S
C2408 H2413 0.930 . S
O2409 Cu2403 1.974 . S
O2409 C2419 1.282 . S
C2410 O2411 1.261 . S
C2410 O2423 1.251 . S
O2411 C2410 1.261 . S
H2412 C2406 0.930 . S
H2413 C2408 0.930 . S
N2414 Cu2403 1.985 . S
N2414 C2416 1.335 . S
N2414 C2417 1.390 . S
N2415 C2416 1.345 . S
N2415 C2418 1.336 . S
C2416 N2414 1.335 . S
C2416 N2415 1.345 . S
C2416 H2421 0.930 . S
C2417 N2414 1.390 . S
C2417 C2418 1.346 . S
C2417 H2422 0.930 . S
C2418 N2415 1.336 . S
C2418 C2417 1.346 . S
C2418 H2425 0.929 . S
C2419 O2409 1.282 . S
C2419 O2420 1.216 . S
O2420 C2419 1.216 . S
H2421 C2416 0.930 . S
H2422 C2417 0.930 . S
O2423 Cu2403 1.959 . S
O2423 C2410 1.251 . S
H2424 C2407 0.930 . S
H2425 C2418 0.929 . S
Cu2426 N2427 1.999 . S
Cu2426 O2432 1.974 . S
Cu2426 N2437 1.985 . S
Cu2426 O2446 1.959 . S
N2427 Cu2426 1.999 . S
N2427 C2429 1.263 . S
N2427 C2431 1.389 . S
N2428 C2429 1.358 . S
N2428 C2430 1.400 . S
C2429 N2427 1.263 . S
C2429 N2428 1.358 . S
C2429 H2435 0.930 . S
C2430 N2428 1.400 . S
C2430 C2431 1.351 . S
C2430 H2447 0.930 . S
C2431 N2427 1.389 . S
C2431 C2430 1.351 . S
C2431 H2436 0.930 . S
O2432 Cu2426 1.974 . S
O2432 C2442 1.282 . S
C2433 O2434 1.261 . S
C2433 O2446 1.251 . S
O2434 C2433 1.261 . S
H2435 C2429 0.930 . S
H2436 C2431 0.930 . S
N2437 Cu2426 1.985 . S
N2437 C2439 1.335 . S
N2437 C2440 1.390 . S
N2438 C2439 1.345 . S
N2438 C2441 1.336 . S
C2439 N2437 1.335 . S
C2439 N2438 1.345 . S
C2439 H2444 0.930 . S
C2440 N2437 1.390 . S
C2440 C2441 1.346 . S
C2440 H2445 0.930 . S
C2441 N2438 1.336 . S
C2441 C2440 1.346 . S
C2441 H2448 0.929 . S
C2442 O2432 1.282 . S
C2442 O2443 1.216 . S
O2443 C2442 1.216 . S
H2444 C2439 0.930 . S
H2445 C2440 0.930 . S
O2446 Cu2426 1.959 . S
O2446 C2433 1.251 . S
H2447 C2430 0.930 . S
H2448 C2441 0.929 . S
Cu2449 N2450 1.999 . S
Cu2449 O2455 1.974 . S
Cu2449 N2460 1.985 . S
Cu2449 O2469 1.959 . S
N2450 Cu2449 1.999 . S
N2450 C2452 1.263 . S
N2450 C2454 1.389 . S
N2451 C2452 1.358 . S
N2451 C2453 1.400 . S
C2452 N2450 1.263 . S
C2452 N2451 1.358 . S
C2452 H2458 0.930 . S
C2453 N2451 1.400 . S
C2453 C2454 1.351 . S
C2453 H2470 0.930 . S
C2454 N2450 1.389 . S
C2454 C2453 1.351 . S
C2454 H2459 0.930 . S
O2455 Cu2449 1.974 . S
O2455 C2465 1.282 . S
C2456 O2457 1.261 . S
C2456 O2469 1.251 . S
O2457 C2456 1.261 . S
H2458 C2452 0.930 . S
H2459 C2454 0.930 . S
N2460 Cu2449 1.985 . S
N2460 C2462 1.335 . S
N2460 C2463 1.390 . S
N2461 C2462 1.345 . S
N2461 C2464 1.336 . S
C2462 N2460 1.335 . S
C2462 N2461 1.345 . S
C2462 H2467 0.930 . S
C2463 N2460 1.390 . S
C2463 C2464 1.346 . S
C2463 H2468 0.930 . S
C2464 N2461 1.336 . S
C2464 C2463 1.346 . S
C2464 H2471 0.929 . S
C2465 O2455 1.282 . S
C2465 O2466 1.216 . S
O2466 C2465 1.216 . S
H2467 C2462 0.930 . S
H2468 C2463 0.930 . S
O2469 Cu2449 1.959 . S
O2469 C2456 1.251 . S
H2470 C2453 0.930 . S
H2471 C2464 0.929 . S
C2472 C2473 1.369 . S
C2472 C2474 1.419 . S
C2472 H2476 0.930 . S
C2473 C2472 1.369 . S
C2473 C2482 1.429 . S
C2474 C2472 1.419 . S
C2474 C2475 1.363 . S
C2474 H2477 0.929 . S
C2475 C2474 1.363 . S
C2475 C2481 1.428 . S
H2476 C2472 0.930 . S
H2477 C2474 0.929 . S
S2478 N2479 1.613 . S
S2478 N2480 1.610 . S
N2479 S2478 1.613 . S
N2479 C2482 1.350 . S
N2480 S2478 1.610 . S
N2480 C2481 1.351 . S
C2481 C2475 1.428 . S
C2481 N2480 1.351 . S
C2481 C2482 1.434 . S
C2482 C2473 1.429 . S
C2482 N2479 1.350 . S
C2482 C2481 1.434 . S
C2483 C2484 1.369 . S
C2483 C2485 1.419 . S
C2483 H2487 0.930 . S
C2484 C2483 1.369 . S
C2484 C2493 1.429 . S
C2485 C2483 1.419 . S
C2485 C2486 1.363 . S
C2485 H2488 0.929 . S
C2486 C2485 1.363 . S
C2486 C2492 1.428 . S
H2487 C2483 0.930 . S
H2488 C2485 0.929 . S
S2489 N2490 1.613 . S
S2489 N2491 1.610 . S
N2490 S2489 1.613 . S
N2490 C2493 1.350 . S
N2491 S2489 1.610 . S
N2491 C2492 1.351 . S
C2492 C2486 1.428 . S
C2492 N2491 1.351 . S
C2492 C2493 1.434 . S
C2493 C2484 1.429 . S
C2493 N2490 1.350 . S
C2493 C2492 1.434 . S
C2494 C2495 1.369 . S
C2494 C2496 1.419 . S
C2494 H2498 0.930 . S
C2495 C2494 1.369 . S
C2495 C2504 1.429 . S
C2496 C2494 1.419 . S
C2496 C2497 1.363 . S
C2496 H2499 0.929 . S
C2497 C2496 1.363 . S
C2497 C2503 1.428 . S
H2498 C2494 0.930 . S
H2499 C2496 0.929 . S
S2500 N2501 1.613 . S
S2500 N2502 1.610 . S
N2501 S2500 1.613 . S
N2501 C2504 1.350 . S
N2502 S2500 1.610 . S
N2502 C2503 1.351 . S
C2503 C2497 1.428 . S
C2503 N2502 1.351 . S
C2503 C2504 1.434 . S
C2504 C2495 1.429 . S
C2504 N2501 1.350 . S
C2504 C2503 1.434 . S
C2505 C2506 1.369 . S
C2505 C2507 1.419 . S
C2505 H2509 0.930 . S
C2506 C2505 1.369 . S
C2506 C2515 1.429 . S
C2507 C2505 1.419 . S
C2507 C2508 1.363 . S
C2507 H2510 0.929 . S
C2508 C2507 1.363 . S
C2508 C2514 1.428 . S
H2509 C2505 0.930 . S
H2510 C2507 0.929 . S
S2511 N2512 1.613 . S
S2511 N2513 1.610 . S
N2512 S2511 1.613 . S
N2512 C2515 1.350 . S
N2513 S2511 1.610 . S
N2513 C2514 1.351 . S
C2514 C2508 1.428 . S
C2514 N2513 1.351 . S
C2514 C2515 1.434 . S
C2515 C2506 1.429 . S
C2515 N2512 1.350 . S
C2515 C2514 1.434 . S
C2516 C2517 1.369 . S
C2516 C2518 1.419 . S
C2516 H2520 0.930 . S
C2517 C2516 1.369 . S
C2517 C2526 1.429 . S
C2518 C2516 1.419 . S
C2518 C2519 1.363 . S
C2518 H2521 0.929 . S
C2519 C2518 1.363 . S
C2519 C2525 1.428 . S
H2520 C2516 0.930 . S
H2521 C2518 0.929 . S
S2522 N2523 1.613 . S
S2522 N2524 1.610 . S
N2523 S2522 1.613 . S
N2523 C2526 1.350 . S
N2524 S2522 1.610 . S
N2524 C2525 1.351 . S
C2525 C2519 1.428 . S
C2525 N2524 1.351 . S
C2525 C2526 1.434 . S
C2526 C2517 1.429 . S
C2526 N2523 1.350 . S
C2526 C2525 1.434 . S
C2527 C2528 1.369 . S
C2527 C2529 1.419 . S
C2527 H2531 0.930 . S
C2528 C2527 1.369 . S
C2528 C2537 1.429 . S
C2529 C2527 1.419 . S
C2529 C2530 1.363 . S
C2529 H2532 0.929 . S
C2530 C2529 1.363 . S
C2530 C2536 1.428 . S
H2531 C2527 0.930 . S
H2532 C2529 0.929 . S
S2533 N2534 1.613 . S
S2533 N2535 1.610 . S
N2534 S2533 1.613 . S
N2534 C2537 1.350 . S
N2535 S2533 1.610 . S
N2535 C2536 1.351 . S
C2536 C2530 1.428 . S
C2536 N2535 1.351 . S
C2536 C2537 1.434 . S
C2537 C2528 1.429 . S
C2537 N2534 1.350 . S
C2537 C2536 1.434 . S
C2538 C2539 1.369 . S
C2538 C2540 1.419 . S
C2538 H2542 0.930 . S
C2539 C2538 1.369 . S
C2539 C2548 1.429 . S
C2540 C2538 1.419 . S
C2540 C2541 1.363 . S
C2540 H2543 0.929 . S
C2541 C2540 1.363 . S
C2541 C2547 1.428 . S
H2542 C2538 0.930 . S
H2543 C2540 0.929 . S
S2544 N2545 1.613 . S
S2544 N2546 1.610 . S
N2545 S2544 1.613 . S
N2545 C2548 1.350 . S
N2546 S2544 1.610 . S
N2546 C2547 1.351 . S
C2547 C2541 1.428 . S
C2547 N2546 1.351 . S
C2547 C2548 1.434 . S
C2548 C2539 1.429 . S
C2548 N2545 1.350 . S
C2548 C2547 1.434 . S
C2549 C2550 1.369 . S
C2549 C2551 1.419 . S
C2549 H2553 0.930 . S
C2550 C2549 1.369 . S
C2550 C2559 1.429 . S
C2551 C2549 1.419 . S
C2551 C2552 1.363 . S
C2551 H2554 0.929 . S
C2552 C2551 1.363 . S
C2552 C2558 1.428 . S
H2553 C2549 0.930 . S
H2554 C2551 0.929 . S
S2555 N2556 1.613 . S
S2555 N2557 1.610 . S
N2556 S2555 1.613 . S
N2556 C2559 1.350 . S
N2557 S2555 1.610 . S
N2557 C2558 1.351 . S
C2558 C2552 1.428 . S
C2558 N2557 1.351 . S
C2558 C2559 1.434 . S
C2559 C2550 1.429 . S
C2559 N2556 1.350 . S
C2559 C2558 1.434 . S
C2560 C2561 1.369 . S
C2560 C2562 1.419 . S
C2560 H2564 0.930 . S
C2561 C2560 1.369 . S
C2561 C2570 1.429 . S
C2562 C2560 1.419 . S
C2562 C2563 1.363 . S
C2562 H2565 0.929 . S
C2563 C2562 1.363 . S
C2563 C2569 1.428 . S
H2564 C2560 0.930 . S
H2565 C2562 0.929 . S
S2566 N2567 1.613 . S
S2566 N2568 1.610 . S
N2567 S2566 1.613 . S
N2567 C2570 1.350 . S
N2568 S2566 1.610 . S
N2568 C2569 1.351 . S
C2569 C2563 1.428 . S
C2569 N2568 1.351 . S
C2569 C2570 1.434 . S
C2570 C2561 1.429 . S
C2570 N2567 1.350 . S
C2570 C2569 1.434 . S
C2571 C2572 1.369 . S
C2571 C2573 1.419 . S
C2571 H2575 0.930 . S
C2572 C2571 1.369 . S
C2572 C2581 1.429 . S
C2573 C2571 1.419 . S
C2573 C2574 1.363 . S
C2573 H2576 0.929 . S
C2574 C2573 1.363 . S
C2574 C2580 1.428 . S
H2575 C2571 0.930 . S
H2576 C2573 0.929 . S
S2577 N2578 1.613 . S
S2577 N2579 1.610 . S
N2578 S2577 1.613 . S
N2578 C2581 1.350 . S
N2579 S2577 1.610 . S
N2579 C2580 1.351 . S
C2580 C2574 1.428 . S
C2580 N2579 1.351 . S
C2580 C2581 1.434 . S
C2581 C2572 1.429 . S
C2581 N2578 1.350 . S
C2581 C2580 1.434 . S
C2582 C2583 1.369 . S
C2582 C2584 1.419 . S
C2582 H2586 0.930 . S
C2583 C2582 1.369 . S
C2583 C2592 1.429 . S
C2584 C2582 1.419 . S
C2584 C2585 1.363 . S
C2584 H2587 0.929 . S
C2585 C2584 1.363 . S
C2585 C2591 1.428 . S
H2586 C2582 0.930 . S
H2587 C2584 0.929 . S
S2588 N2589 1.613 . S
S2588 N2590 1.610 . S
N2589 S2588 1.613 . S
N2589 C2592 1.350 . S
N2590 S2588 1.610 . S
N2590 C2591 1.351 . S
C2591 C2585 1.428 . S
C2591 N2590 1.351 . S
C2591 C2592 1.434 . S
C2592 C2583 1.429 . S
C2592 N2589 1.350 . S
C2592 C2591 1.434 . S
C2593 C2594 1.369 . S
C2593 C2595 1.419 . S
C2593 H2597 0.930 . S
C2594 C2593 1.369 . S
C2594 C2603 1.429 . S
C2595 C2593 1.419 . S
C2595 C2596 1.363 . S
C2595 H2598 0.929 . S
C2596 C2595 1.363 . S
C2596 C2602 1.428 . S
H2597 C2593 0.930 . S
H2598 C2595 0.929 . S
S2599 N2600 1.613 . S
S2599 N2601 1.610 . S
N2600 S2599 1.613 . S
N2600 C2603 1.350 . S
N2601 S2599 1.610 . S
N2601 C2602 1.351 . S
C2602 C2596 1.428 . S
C2602 N2601 1.351 . S
C2602 C2603 1.434 . S
C2603 C2594 1.429 . S
C2603 N2600 1.350 . S
C2603 C2602 1.434 . S
C2604 C2605 1.369 . S
C2604 C2606 1.419 . S
C2604 H2608 0.930 . S
C2605 C2604 1.369 . S
C2605 C2614 1.429 . S
C2606 C2604 1.419 . S
C2606 C2607 1.363 . S
C2606 H2609 0.929 . S
C2607 C2606 1.363 . S
C2607 C2613 1.428 . S
H2608 C2604 0.930 . S
H2609 C2606 0.929 . S
S2610 N2611 1.613 . S
S2610 N2612 1.610 . S
N2611 S2610 1.613 . S
N2611 C2614 1.350 . S
N2612 S2610 1.610 . S
N2612 C2613 1.351 . S
C2613 C2607 1.428 . S
C2613 N2612 1.351 . S
C2613 C2614 1.434 . S
C2614 C2605 1.429 . S
C2614 N2611 1.350 . S
C2614 C2613 1.434 . S
C2615 C2616 1.369 . S
C2615 C2617 1.419 . S
C2615 H2619 0.930 . S
C2616 C2615 1.369 . S
C2616 C2625 1.429 . S
C2617 C2615 1.419 . S
C2617 C2618 1.363 . S
C2617 H2620 0.929 . S
C2618 C2617 1.363 . S
C2618 C2624 1.428 . S
H2619 C2615 0.930 . S
H2620 C2617 0.929 . S
S2621 N2622 1.613 . S
S2621 N2623 1.610 . S
N2622 S2621 1.613 . S
N2622 C2625 1.350 . S
N2623 S2621 1.610 . S
N2623 C2624 1.351 . S
C2624 C2618 1.428 . S
C2624 N2623 1.351 . S
C2624 C2625 1.434 . S
C2625 C2616 1.429 . S
C2625 N2622 1.350 . S
C2625 C2624 1.434 . S
C2626 C2627 1.369 . S
C2626 C2628 1.419 . S
C2626 H2630 0.930 . S
C2627 C2626 1.369 . S
C2627 C2636 1.429 . S
C2628 C2626 1.419 . S
C2628 C2629 1.363 . S
C2628 H2631 0.929 . S
C2629 C2628 1.363 . S
C2629 C2635 1.428 . S
H2630 C2626 0.930 . S
H2631 C2628 0.929 . S
S2632 N2633 1.613 . S
S2632 N2634 1.610 . S
N2633 S2632 1.613 . S
N2633 C2636 1.350 . S
N2634 S2632 1.610 . S
N2634 C2635 1.351 . S
C2635 C2629 1.428 . S
C2635 N2634 1.351 . S
C2635 C2636 1.434 . S
C2636 C2627 1.429 . S
C2636 N2633 1.350 . S
C2636 C2635 1.434 . S
C2637 C2638 1.369 . S
C2637 C2639 1.419 . S
C2637 H2641 0.930 . S
C2638 C2637 1.369 . S
C2638 C2647 1.429 . S
C2639 C2637 1.419 . S
C2639 C2640 1.363 . S
C2639 H2642 0.929 . S
C2640 C2639 1.363 . S
C2640 C2646 1.428 . S
H2641 C2637 0.930 . S
H2642 C2639 0.929 . S
S2643 N2644 1.613 . S
S2643 N2645 1.610 . S
N2644 S2643 1.613 . S
N2644 C2647 1.350 . S
N2645 S2643 1.610 . S
N2645 C2646 1.351 . S
C2646 C2640 1.428 . S
C2646 N2645 1.351 . S
C2646 C2647 1.434 . S
C2647 C2638 1.429 . S
C2647 N2644 1.350 . S
C2647 C2646 1.434 . S
C2648 C2649 1.369 . S
C2648 C2650 1.419 . S
C2648 H2652 0.930 . S
C2649 C2648 1.369 . S
C2649 C2658 1.429 . S
C2650 C2648 1.419 . S
C2650 C2651 1.363 . S
C2650 H2653 0.929 . S
C2651 C2650 1.363 . S
C2651 C2657 1.428 . S
H2652 C2648 0.930 . S
H2653 C2650 0.929 . S
S2654 N2655 1.613 . S
S2654 N2656 1.610 . S
N2655 S2654 1.613 . S
N2655 C2658 1.350 . S
N2656 S2654 1.610 . S
N2656 C2657 1.351 . S
C2657 C2651 1.428 . S
C2657 N2656 1.351 . S
C2657 C2658 1.434 . S
C2658 C2649 1.429 . S
C2658 N2655 1.350 . S
C2658 C2657 1.434 . S
C2659 C2660 1.369 . S
C2659 C2661 1.419 . S
C2659 H2663 0.930 . S
C2660 C2659 1.369 . S
C2660 C2669 1.429 . S
C2661 C2659 1.419 . S
C2661 C2662 1.363 . S
C2661 H2664 0.929 . S
C2662 C2661 1.363 . S
C2662 C2668 1.428 . S
H2663 C2659 0.930 . S
H2664 C2661 0.929 . S
S2665 N2666 1.613 . S
S2665 N2667 1.610 . S
N2666 S2665 1.613 . S
N2666 C2669 1.350 . S
N2667 S2665 1.610 . S
N2667 C2668 1.351 . S
C2668 C2662 1.428 . S
C2668 N2667 1.351 . S
C2668 C2669 1.434 . S
C2669 C2660 1.429 . S
C2669 N2666 1.350 . S
C2669 C2668 1.434 . S
C2670 C2671 1.369 . S
C2670 C2672 1.419 . S
C2670 H2674 0.930 . S
C2671 C2670 1.369 . S
C2671 C2680 1.429 . S
C2672 C2670 1.419 . S
C2672 C2673 1.363 . S
C2672 H2675 0.929 . S
C2673 C2672 1.363 . S
C2673 C2679 1.428 . S
H2674 C2670 0.930 . S
H2675 C2672 0.929 . S
S2676 N2677 1.613 . S
S2676 N2678 1.610 . S
N2677 S2676 1.613 . S
N2677 C2680 1.350 . S
N2678 S2676 1.610 . S
N2678 C2679 1.351 . S
C2679 C2673 1.428 . S
C2679 N2678 1.351 . S
C2679 C2680 1.434 . S
C2680 C2671 1.429 . S
C2680 N2677 1.350 . S
C2680 C2679 1.434 . S
C2681 C2682 1.369 . S
C2681 C2683 1.419 . S
C2681 H2685 0.930 . S
C2682 C2681 1.369 . S
C2682 C2691 1.429 . S
C2683 C2681 1.419 . S
C2683 C2684 1.363 . S
C2683 H2686 0.929 . S
C2684 C2683 1.363 . S
C2684 C2690 1.428 . S
H2685 C2681 0.930 . S
H2686 C2683 0.929 . S
S2687 N2688 1.613 . S
S2687 N2689 1.610 . S
N2688 S2687 1.613 . S
N2688 C2691 1.350 . S
N2689 S2687 1.610 . S
N2689 C2690 1.351 . S
C2690 C2684 1.428 . S
C2690 N2689 1.351 . S
C2690 C2691 1.434 . S
C2691 C2682 1.429 . S
C2691 N2688 1.350 . S
C2691 C2690 1.434 . S
C2692 C2693 1.369 . S
C2692 C2694 1.419 . S
C2692 H2696 0.930 . S
C2693 C2692 1.369 . S
C2693 C2702 1.429 . S
C2694 C2692 1.419 . S
C2694 C2695 1.363 . S
C2694 H2697 0.929 . S
C2695 C2694 1.363 . S
C2695 C2701 1.428 . S
H2696 C2692 0.930 . S
H2697 C2694 0.929 . S
S2698 N2699 1.613 . S
S2698 N2700 1.610 . S
N2699 S2698 1.613 . S
N2699 C2702 1.350 . S
N2700 S2698 1.610 . S
N2700 C2701 1.351 . S
C2701 C2695 1.428 . S
C2701 N2700 1.351 . S
C2701 C2702 1.434 . S
C2702 C2693 1.429 . S
C2702 N2699 1.350 . S
C2702 C2701 1.434 . S
C2703 C2704 1.369 . S
C2703 C2705 1.419 . S
C2703 H2707 0.930 . S
C2704 C2703 1.369 . S
C2704 C2713 1.429 . S
C2705 C2703 1.419 . S
C2705 C2706 1.363 . S
C2705 H2708 0.929 . S
C2706 C2705 1.363 . S
C2706 C2712 1.428 . S
H2707 C2703 0.930 . S
H2708 C2705 0.929 . S
S2709 N2710 1.613 . S
S2709 N2711 1.610 . S
N2710 S2709 1.613 . S
N2710 C2713 1.350 . S
N2711 S2709 1.610 . S
N2711 C2712 1.351 . S
C2712 C2706 1.428 . S
C2712 N2711 1.351 . S
C2712 C2713 1.434 . S
C2713 C2704 1.429 . S
C2713 N2710 1.350 . S
C2713 C2712 1.434 . S
C2714 C2715 1.369 . S
C2714 C2716 1.419 . S
C2714 H2718 0.930 . S
C2715 C2714 1.369 . S
C2715 C2724 1.429 . S
C2716 C2714 1.419 . S
C2716 C2717 1.363 . S
C2716 H2719 0.929 . S
C2717 C2716 1.363 . S
C2717 C2723 1.428 . S
H2718 C2714 0.930 . S
H2719 C2716 0.929 . S
S2720 N2721 1.613 . S
S2720 N2722 1.610 . S
N2721 S2720 1.613 . S
N2721 C2724 1.350 . S
N2722 S2720 1.610 . S
N2722 C2723 1.351 . S
C2723 C2717 1.428 . S
C2723 N2722 1.351 . S
C2723 C2724 1.434 . S
C2724 C2715 1.429 . S
C2724 N2721 1.350 . S
C2724 C2723 1.434 . S
C2725 C2726 1.369 . S
C2725 C2727 1.419 . S
C2725 H2729 0.930 . S
C2726 C2725 1.369 . S
C2726 C2735 1.429 . S
C2727 C2725 1.419 . S
C2727 C2728 1.363 . S
C2727 H2730 0.929 . S
C2728 C2727 1.363 . S
C2728 C2734 1.428 . S
H2729 C2725 0.930 . S
H2730 C2727 0.929 . S
S2731 N2732 1.613 . S
S2731 N2733 1.610 . S
N2732 S2731 1.613 . S
N2732 C2735 1.350 . S
N2733 S2731 1.610 . S
N2733 C2734 1.351 . S
C2734 C2728 1.428 . S
C2734 N2733 1.351 . S
C2734 C2735 1.434 . S
C2735 C2726 1.429 . S
C2735 N2732 1.350 . S
C2735 C2734 1.434 . S
C2736 C2737 1.369 . S
C2736 C2738 1.419 . S
C2736 H2740 0.930 . S
C2737 C2736 1.369 . S
C2737 C2746 1.429 . S
C2738 C2736 1.419 . S
C2738 C2739 1.363 . S
C2738 H2741 0.929 . S
C2739 C2738 1.363 . S
C2739 C2745 1.428 . S
H2740 C2736 0.930 . S
H2741 C2738 0.929 . S
S2742 N2743 1.613 . S
S2742 N2744 1.610 . S
N2743 S2742 1.613 . S
N2743 C2746 1.350 . S
N2744 S2742 1.610 . S
N2744 C2745 1.351 . S
C2745 C2739 1.428 . S
C2745 N2744 1.351 . S
C2745 C2746 1.434 . S
C2746 C2737 1.429 . S
C2746 N2743 1.350 . S
C2746 C2745 1.434 . S
C2747 C2748 1.369 . S
C2747 C2749 1.419 . S
C2747 H2751 0.930 . S
C2748 C2747 1.369 . S
C2748 C2757 1.429 . S
C2749 C2747 1.419 . S
C2749 C2750 1.363 . S
C2749 H2752 0.929 . S
C2750 C2749 1.363 . S
C2750 C2756 1.428 . S
H2751 C2747 0.930 . S
H2752 C2749 0.929 . S
S2753 N2754 1.613 . S
S2753 N2755 1.610 . S
N2754 S2753 1.613 . S
N2754 C2757 1.350 . S
N2755 S2753 1.610 . S
N2755 C2756 1.351 . S
C2756 C2750 1.428 . S
C2756 N2755 1.351 . S
C2756 C2757 1.434 . S
C2757 C2748 1.429 . S
C2757 N2754 1.350 . S
C2757 C2756 1.434 . S
C2758 C2759 1.369 . S
C2758 C2760 1.419 . S
C2758 H2762 0.930 . S
C2759 C2758 1.369 . S
C2759 C2768 1.429 . S
C2760 C2758 1.419 . S
C2760 C2761 1.363 . S
C2760 H2763 0.929 . S
C2761 C2760 1.363 . S
C2761 C2767 1.428 . S
H2762 C2758 0.930 . S
H2763 C2760 0.929 . S
S2764 N2765 1.613 . S
S2764 N2766 1.610 . S
N2765 S2764 1.613 . S
N2765 C2768 1.350 . S
N2766 S2764 1.610 . S
N2766 C2767 1.351 . S
C2767 C2761 1.428 . S
C2767 N2766 1.351 . S
C2767 C2768 1.434 . S
C2768 C2759 1.429 . S
C2768 N2765 1.350 . S
C2768 C2767 1.434 . S
C2769 C2770 1.369 . S
C2769 C2771 1.419 . S
C2769 H2773 0.930 . S
C2770 C2769 1.369 . S
C2770 C2779 1.429 . S
C2771 C2769 1.419 . S
C2771 C2772 1.363 . S
C2771 H2774 0.929 . S
C2772 C2771 1.363 . S
C2772 C2778 1.428 . S
H2773 C2769 0.930 . S
H2774 C2771 0.929 . S
S2775 N2776 1.613 . S
S2775 N2777 1.610 . S
N2776 S2775 1.613 . S
N2776 C2779 1.350 . S
N2777 S2775 1.610 . S
N2777 C2778 1.351 . S
C2778 C2772 1.428 . S
C2778 N2777 1.351 . S
C2778 C2779 1.434 . S
C2779 C2770 1.429 . S
C2779 N2776 1.350 . S
C2779 C2778 1.434 . S
C2780 C2781 1.369 . S
C2780 C2782 1.419 . S
C2780 H2784 0.930 . S
C2781 C2780 1.369 . S
C2781 C2790 1.429 . S
C2782 C2780 1.419 . S
C2782 C2783 1.363 . S
C2782 H2785 0.929 . S
C2783 C2782 1.363 . S
C2783 C2789 1.428 . S
H2784 C2780 0.930 . S
H2785 C2782 0.929 . S
S2786 N2787 1.613 . S
S2786 N2788 1.610 . S
N2787 S2786 1.613 . S
N2787 C2790 1.350 . S
N2788 S2786 1.610 . S
N2788 C2789 1.351 . S
C2789 C2783 1.428 . S
C2789 N2788 1.351 . S
C2789 C2790 1.434 . S
C2790 C2781 1.429 . S
C2790 N2787 1.350 . S
C2790 C2789 1.434 . S
C2791 C2792 1.369 . S
C2791 C2793 1.419 . S
C2791 H2795 0.930 . S
C2792 C2791 1.369 . S
C2792 C2801 1.429 . S
C2793 C2791 1.419 . S
C2793 C2794 1.363 . S
C2793 H2796 0.929 . S
C2794 C2793 1.363 . S
C2794 C2800 1.428 . S
H2795 C2791 0.930 . S
H2796 C2793 0.929 . S
S2797 N2798 1.613 . S
S2797 N2799 1.610 . S
N2798 S2797 1.613 . S
N2798 C2801 1.350 . S
N2799 S2797 1.610 . S
N2799 C2800 1.351 . S
C2800 C2794 1.428 . S
C2800 N2799 1.351 . S
C2800 C2801 1.434 . S
C2801 C2792 1.429 . S
C2801 N2798 1.350 . S
C2801 C2800 1.434 . S
C2802 C2803 1.369 . S
C2802 C2804 1.419 . S
C2802 H2806 0.930 . S
C2803 C2802 1.369 . S
C2803 C2812 1.429 . S
C2804 C2802 1.419 . S
C2804 C2805 1.363 . S
C2804 H2807 0.929 . S
C2805 C2804 1.363 . S
C2805 C2811 1.428 . S
H2806 C2802 0.930 . S
H2807 C2804 0.929 . S
S2808 N2809 1.613 . S
S2808 N2810 1.610 . S
N2809 S2808 1.613 . S
N2809 C2812 1.350 . S
N2810 S2808 1.610 . S
N2810 C2811 1.351 . S
C2811 C2805 1.428 . S
C2811 N2810 1.351 . S
C2811 C2812 1.434 . S
C2812 C2803 1.429 . S
C2812 N2809 1.350 . S
C2812 C2811 1.434 . S
C2813 C2814 1.369 . S
C2813 C2815 1.419 . S
C2813 H2817 0.930 . S
C2814 C2813 1.369 . S
C2814 C2823 1.429 . S
C2815 C2813 1.419 . S
C2815 C2816 1.363 . S
C2815 H2818 0.929 . S
C2816 C2815 1.363 . S
C2816 C2822 1.428 . S
H2817 C2813 0.930 . S
H2818 C2815 0.929 . S
S2819 N2820 1.613 . S
S2819 N2821 1.610 . S
N2820 S2819 1.613 . S
N2820 C2823 1.350 . S
N2821 S2819 1.610 . S
N2821 C2822 1.351 . S
C2822 C2816 1.428 . S
C2822 N2821 1.351 . S
C2822 C2823 1.434 . S
C2823 C2814 1.429 . S
C2823 N2820 1.350 . S
C2823 C2822 1.434 . S
C2824 C2825 1.369 . S
C2824 C2826 1.419 . S
C2824 H2828 0.930 . S
C2825 C2824 1.369 . S
C2825 C2834 1.429 . S
C2826 C2824 1.419 . S
C2826 C2827 1.363 . S
C2826 H2829 0.929 . S
C2827 C2826 1.363 . S
C2827 C2833 1.428 . S
H2828 C2824 0.930 . S
H2829 C2826 0.929 . S
S2830 N2831 1.613 . S
S2830 N2832 1.610 . S
N2831 S2830 1.613 . S
N2831 C2834 1.350 . S
N2832 S2830 1.610 . S
N2832 C2833 1.351 . S
C2833 C2827 1.428 . S
C2833 N2832 1.351 . S
C2833 C2834 1.434 . S
C2834 C2825 1.429 . S
C2834 N2831 1.350 . S
C2834 C2833 1.434 . S
C2835 C2836 1.369 . S
C2835 C2837 1.419 . S
C2835 H2839 0.930 . S
C2836 C2835 1.369 . S
C2836 C2845 1.429 . S
C2837 C2835 1.419 . S
C2837 C2838 1.363 . S
C2837 H2840 0.929 . S
C2838 C2837 1.363 . S
C2838 C2844 1.428 . S
H2839 C2835 0.930 . S
H2840 C2837 0.929 . S
S2841 N2842 1.613 . S
S2841 N2843 1.610 . S
N2842 S2841 1.613 . S
N2842 C2845 1.350 . S
N2843 S2841 1.610 . S
N2843 C2844 1.351 . S
C2844 C2838 1.428 . S
C2844 N2843 1.351 . S
C2844 C2845 1.434 . S
C2845 C2836 1.429 . S
C2845 N2842 1.350 . S
C2845 C2844 1.434 . S
C2846 C2847 1.369 . S
C2846 C2848 1.419 . S
C2846 H2850 0.930 . S
C2847 C2846 1.369 . S
C2847 C2856 1.429 . S
C2848 C2846 1.419 . S
C2848 C2849 1.363 . S
C2848 H2851 0.929 . S
C2849 C2848 1.363 . S
C2849 C2855 1.428 . S
H2850 C2846 0.930 . S
H2851 C2848 0.929 . S
S2852 N2853 1.613 . S
S2852 N2854 1.610 . S
N2853 S2852 1.613 . S
N2853 C2856 1.350 . S
N2854 S2852 1.610 . S
N2854 C2855 1.351 . S
C2855 C2849 1.428 . S
C2855 N2854 1.351 . S
C2855 C2856 1.434 . S
C2856 C2847 1.429 . S
C2856 N2853 1.350 . S
C2856 C2855 1.434 . S
C2857 C2858 1.369 . S
C2857 C2859 1.419 . S
C2857 H2861 0.930 . S
C2858 C2857 1.369 . S
C2858 C2867 1.429 . S
C2859 C2857 1.419 . S
C2859 C2860 1.363 . S
C2859 H2862 0.929 . S
C2860 C2859 1.363 . S
C2860 C2866 1.428 . S
H2861 C2857 0.930 . S
H2862 C2859 0.929 . S
S2863 N2864 1.613 . S
S2863 N2865 1.610 . S
N2864 S2863 1.613 . S
N2864 C2867 1.350 . S
N2865 S2863 1.610 . S
N2865 C2866 1.351 . S
C2866 C2860 1.428 . S
C2866 N2865 1.351 . S
C2866 C2867 1.434 . S
C2867 C2858 1.429 . S
C2867 N2864 1.350 . S
C2867 C2866 1.434 . S
C2868 C2869 1.369 . S
C2868 C2870 1.419 . S
C2868 H2872 0.930 . S
C2869 C2868 1.369 . S
C2869 C2878 1.429 . S
C2870 C2868 1.419 . S
C2870 C2871 1.363 . S
C2870 H2873 0.929 . S
C2871 C2870 1.363 . S
C2871 C2877 1.428 . S
H2872 C2868 0.930 . S
H2873 C2870 0.929 . S
S2874 N2875 1.613 . S
S2874 N2876 1.610 . S
N2875 S2874 1.613 . S
N2875 C2878 1.350 . S
N2876 S2874 1.610 . S
N2876 C2877 1.351 . S
C2877 C2871 1.428 . S
C2877 N2876 1.351 . S
C2877 C2878 1.434 . S
C2878 C2869 1.429 . S
C2878 N2875 1.350 . S
C2878 C2877 1.434 . S
C2879 C2880 1.369 . S
C2879 C2881 1.419 . S
C2879 H2883 0.930 . S
C2880 C2879 1.369 . S
C2880 C2889 1.429 . S
C2881 C2879 1.419 . S
C2881 C2882 1.363 . S
C2881 H2884 0.929 . S
C2882 C2881 1.363 . S
C2882 C2888 1.428 . S
H2883 C2879 0.930 . S
H2884 C2881 0.929 . S
S2885 N2886 1.613 . S
S2885 N2887 1.610 . S
N2886 S2885 1.613 . S
N2886 C2889 1.350 . S
N2887 S2885 1.610 . S
N2887 C2888 1.351 . S
C2888 C2882 1.428 . S
C2888 N2887 1.351 . S
C2888 C2889 1.434 . S
C2889 C2880 1.429 . S
C2889 N2886 1.350 . S
C2889 C2888 1.434 . S
C2890 C2891 1.369 . S
C2890 C2892 1.419 . S
C2890 H2894 0.930 . S
C2891 C2890 1.369 . S
C2891 C2900 1.429 . S
C2892 C2890 1.419 . S
C2892 C2893 1.363 . S
C2892 H2895 0.929 . S
C2893 C2892 1.363 . S
C2893 C2899 1.428 . S
H2894 C2890 0.930 . S
H2895 C2892 0.929 . S
S2896 N2897 1.613 . S
S2896 N2898 1.610 . S
N2897 S2896 1.613 . S
N2897 C2900 1.350 . S
N2898 S2896 1.610 . S
N2898 C2899 1.351 . S
C2899 C2893 1.428 . S
C2899 N2898 1.351 . S
C2899 C2900 1.434 . S
C2900 C2891 1.429 . S
C2900 N2897 1.350 . S
C2900 C2899 1.434 . S
C2901 C2902 1.369 . S
C2901 C2903 1.419 . S
C2901 H2905 0.930 . S
C2902 C2901 1.369 . S
C2902 C2911 1.429 . S
C2903 C2901 1.419 . S
C2903 C2904 1.363 . S
C2903 H2906 0.929 . S
C2904 C2903 1.363 . S
C2904 C2910 1.428 . S
H2905 C2901 0.930 . S
H2906 C2903 0.929 . S
S2907 N2908 1.613 . S
S2907 N2909 1.610 . S
N2908 S2907 1.613 . S
N2908 C2911 1.350 . S
N2909 S2907 1.610 . S
N2909 C2910 1.351 . S
C2910 C2904 1.428 . S
C2910 N2909 1.351 . S
C2910 C2911 1.434 . S
C2911 C2902 1.429 . S
C2911 N2908 1.350 . S
C2911 C2910 1.434 . S
C2912 C2913 1.369 . S
C2912 C2914 1.419 . S
C2912 H2916 0.930 . S
C2913 C2912 1.369 . S
C2913 C2922 1.429 . S
C2914 C2912 1.419 . S
C2914 C2915 1.363 . S
C2914 H2917 0.929 . S
C2915 C2914 1.363 . S
C2915 C2921 1.428 . S
H2916 C2912 0.930 . S
H2917 C2914 0.929 . S
S2918 N2919 1.613 . S
S2918 N2920 1.610 . S
N2919 S2918 1.613 . S
N2919 C2922 1.350 . S
N2920 S2918 1.610 . S
N2920 C2921 1.351 . S
C2921 C2915 1.428 . S
C2921 N2920 1.351 . S
C2921 C2922 1.434 . S
C2922 C2913 1.429 . S
C2922 N2919 1.350 . S
C2922 C2921 1.434 . S
C2923 C2924 1.369 . S
C2923 C2925 1.419 . S
C2923 H2927 0.930 . S
C2924 C2923 1.369 . S
C2924 C2933 1.429 . S
C2925 C2923 1.419 . S
C2925 C2926 1.363 . S
C2925 H2928 0.929 . S
C2926 C2925 1.363 . S
C2926 C2932 1.428 . S
H2927 C2923 0.930 . S
H2928 C2925 0.929 . S
S2929 N2930 1.613 . S
S2929 N2931 1.610 . S
N2930 S2929 1.613 . S
N2930 C2933 1.350 . S
N2931 S2929 1.610 . S
N2931 C2932 1.351 . S
C2932 C2926 1.428 . S
C2932 N2931 1.351 . S
C2932 C2933 1.434 . S
C2933 C2924 1.429 . S
C2933 N2930 1.350 . S
C2933 C2932 1.434 . S
C2934 C2935 1.369 . S
C2934 C2936 1.419 . S
C2934 H2938 0.930 . S
C2935 C2934 1.369 . S
C2935 C2944 1.429 . S
C2936 C2934 1.419 . S
C2936 C2937 1.363 . S
C2936 H2939 0.929 . S
C2937 C2936 1.363 . S
C2937 C2943 1.428 . S
H2938 C2934 0.930 . S
H2939 C2936 0.929 . S
S2940 N2941 1.613 . S
S2940 N2942 1.610 . S
N2941 S2940 1.613 . S
N2941 C2944 1.350 . S
N2942 S2940 1.610 . S
N2942 C2943 1.351 . S
C2943 C2937 1.428 . S
C2943 N2942 1.351 . S
C2943 C2944 1.434 . S
C2944 C2935 1.429 . S
C2944 N2941 1.350 . S
C2944 C2943 1.434 . S
C2945 C2946 1.369 . S
C2945 C2947 1.419 . S
C2945 H2949 0.930 . S
C2946 C2945 1.369 . S
C2946 C2955 1.429 . S
C2947 C2945 1.419 . S
C2947 C2948 1.363 . S
C2947 H2950 0.929 . S
C2948 C2947 1.363 . S
C2948 C2954 1.428 . S
H2949 C2945 0.930 . S
H2950 C2947 0.929 . S
S2951 N2952 1.613 . S
S2951 N2953 1.610 . S
N2952 S2951 1.613 . S
N2952 C2955 1.350 . S
N2953 S2951 1.610 . S
N2953 C2954 1.351 . S
C2954 C2948 1.428 . S
C2954 N2953 1.351 . S
C2954 C2955 1.434 . S
C2955 C2946 1.429 . S
C2955 N2952 1.350 . S
C2955 C2954 1.434 . S
C2956 C2957 1.369 . S
C2956 C2958 1.419 . S
C2956 H2960 0.930 . S
C2957 C2956 1.369 . S
C2957 C2966 1.429 . S
C2958 C2956 1.419 . S
C2958 C2959 1.363 . S
C2958 H2961 0.929 . S
C2959 C2958 1.363 . S
C2959 C2965 1.428 . S
H2960 C2956 0.930 . S
H2961 C2958 0.929 . S
S2962 N2963 1.613 . S
S2962 N2964 1.610 . S
N2963 S2962 1.613 . S
N2963 C2966 1.350 . S
N2964 S2962 1.610 . S
N2964 C2965 1.351 . S
C2965 C2959 1.428 . S
C2965 N2964 1.351 . S
C2965 C2966 1.434 . S
C2966 C2957 1.429 . S
C2966 N2963 1.350 . S
C2966 C2965 1.434 . S
C2967 C2968 1.369 . S
C2967 C2969 1.419 . S
C2967 H2971 0.930 . S
C2968 C2967 1.369 . S
C2968 C2977 1.429 . S
C2969 C2967 1.419 . S
C2969 C2970 1.363 . S
C2969 H2972 0.929 . S
C2970 C2969 1.363 . S
C2970 C2976 1.428 . S
H2971 C2967 0.930 . S
H2972 C2969 0.929 . S
S2973 N2974 1.613 . S
S2973 N2975 1.610 . S
N2974 S2973 1.613 . S
N2974 C2977 1.350 . S
N2975 S2973 1.610 . S
N2975 C2976 1.351 . S
C2976 C2970 1.428 . S
C2976 N2975 1.351 . S
C2976 C2977 1.434 . S
C2977 C2968 1.429 . S
C2977 N2974 1.350 . S
C2977 C2976 1.434 . S
C2978 C2979 1.369 . S
C2978 C2980 1.419 . S
C2978 H2982 0.930 . S
C2979 C2978 1.369 . S
C2979 C2988 1.429 . S
C2980 C2978 1.419 . S
C2980 C2981 1.363 . S
C2980 H2983 0.929 . S
C2981 C2980 1.363 . S
C2981 C2987 1.428 . S
H2982 C2978 0.930 . S
H2983 C2980 0.929 . S
S2984 N2985 1.613 . S
S2984 N2986 1.610 . S
N2985 S2984 1.613 . S
N2985 C2988 1.350 . S
N2986 S2984 1.610 . S
N2986 C2987 1.351 . S
C2987 C2981 1.428 . S
C2987 N2986 1.351 . S
C2987 C2988 1.434 . S
C2988 C2979 1.429 . S
C2988 N2985 1.350 . S
C2988 C2987 1.434 . S
C2989 C2990 1.369 . S
C2989 C2991 1.419 . S
C2989 H2993 0.930 . S
C2990 C2989 1.369 . S
C2990 C2999 1.429 . S
C2991 C2989 1.419 . S
C2991 C2992 1.363 . S
C2991 H2994 0.929 . S
C2992 C2991 1.363 . S
C2992 C2998 1.428 . S
H2993 C2989 0.930 . S
H2994 C2991 0.929 . S
S2995 N2996 1.613 . S
S2995 N2997 1.610 . S
N2996 S2995 1.613 . S
N2996 C2999 1.350 . S
N2997 S2995 1.610 . S
N2997 C2998 1.351 . S
C2998 C2992 1.428 . S
C2998 N2997 1.351 . S
C2998 C2999 1.434 . S
C2999 C2990 1.429 . S
C2999 N2996 1.350 . S
C2999 C2998 1.434 . S
C3000 C3001 1.369 . S
C3000 C3002 1.419 . S
C3000 H3004 0.930 . S
C3001 C3000 1.369 . S
C3001 C3010 1.429 . S
C3002 C3000 1.419 . S
C3002 C3003 1.363 . S
C3002 H3005 0.929 . S
C3003 C3002 1.363 . S
C3003 C3009 1.428 . S
H3004 C3000 0.930 . S
H3005 C3002 0.929 . S
S3006 N3007 1.613 . S
S3006 N3008 1.610 . S
N3007 S3006 1.613 . S
N3007 C3010 1.350 . S
N3008 S3006 1.610 . S
N3008 C3009 1.351 . S
C3009 C3003 1.428 . S
C3009 N3008 1.351 . S
C3009 C3010 1.434 . S
C3010 C3001 1.429 . S
C3010 N3007 1.350 . S
C3010 C3009 1.434 . S
C3011 C3012 1.369 . S
C3011 C3013 1.419 . S
C3011 H3015 0.930 . S
C3012 C3011 1.369 . S
C3012 C3021 1.429 . S
C3013 C3011 1.419 . S
C3013 C3014 1.363 . S
C3013 H3016 0.929 . S
C3014 C3013 1.363 . S
C3014 C3020 1.428 . S
H3015 C3011 0.930 . S
H3016 C3013 0.929 . S
S3017 N3018 1.613 . S
S3017 N3019 1.610 . S
N3018 S3017 1.613 . S
N3018 C3021 1.350 . S
N3019 S3017 1.610 . S
N3019 C3020 1.351 . S
C3020 C3014 1.428 . S
C3020 N3019 1.351 . S
C3020 C3021 1.434 . S
C3021 C3012 1.429 . S
C3021 N3018 1.350 . S
C3021 C3020 1.434 . S
C3022 C3023 1.369 . S
C3022 C3024 1.419 . S
C3022 H3026 0.930 . S
C3023 C3022 1.369 . S
C3023 C3032 1.429 . S
C3024 C3022 1.419 . S
C3024 C3025 1.363 . S
C3024 H3027 0.929 . S
C3025 C3024 1.363 . S
C3025 C3031 1.428 . S
H3026 C3022 0.930 . S
H3027 C3024 0.929 . S
S3028 N3029 1.613 . S
S3028 N3030 1.610 . S
N3029 S3028 1.613 . S
N3029 C3032 1.350 . S
N3030 S3028 1.610 . S
N3030 C3031 1.351 . S
C3031 C3025 1.428 . S
C3031 N3030 1.351 . S
C3031 C3032 1.434 . S
C3032 C3023 1.429 . S
C3032 N3029 1.350 . S
C3032 C3031 1.434 . S
C3033 C3034 1.369 . S
C3033 C3035 1.419 . S
C3033 H3037 0.930 . S
C3034 C3033 1.369 . S
C3034 C3043 1.429 . S
C3035 C3033 1.419 . S
C3035 C3036 1.363 . S
C3035 H3038 0.929 . S
C3036 C3035 1.363 . S
C3036 C3042 1.428 . S
H3037 C3033 0.930 . S
H3038 C3035 0.929 . S
S3039 N3040 1.613 . S
S3039 N3041 1.610 . S
N3040 S3039 1.613 . S
N3040 C3043 1.350 . S
N3041 S3039 1.610 . S
N3041 C3042 1.351 . S
C3042 C3036 1.428 . S
C3042 N3041 1.351 . S
C3042 C3043 1.434 . S
C3043 C3034 1.429 . S
C3043 N3040 1.350 . S
C3043 C3042 1.434 . S
C3044 C3045 1.369 . S
C3044 C3046 1.419 . S
C3044 H3048 0.930 . S
C3045 C3044 1.369 . S
C3045 C3054 1.429 . S
C3046 C3044 1.419 . S
C3046 C3047 1.363 . S
C3046 H3049 0.929 . S
C3047 C3046 1.363 . S
C3047 C3053 1.428 . S
H3048 C3044 0.930 . S
H3049 C3046 0.929 . S
S3050 N3051 1.613 . S
S3050 N3052 1.610 . S
N3051 S3050 1.613 . S
N3051 C3054 1.350 . S
N3052 S3050 1.610 . S
N3052 C3053 1.351 . S
C3053 C3047 1.428 . S
C3053 N3052 1.351 . S
C3053 C3054 1.434 . S
C3054 C3045 1.429 . S
C3054 N3051 1.350 . S
C3054 C3053 1.434 . S
C3055 C3056 1.369 . S
C3055 C3057 1.419 . S
C3055 H3059 0.930 . S
C3056 C3055 1.369 . S
C3056 C3065 1.429 . S
C3057 C3055 1.419 . S
C3057 C3058 1.363 . S
C3057 H3060 0.929 . S
C3058 C3057 1.363 . S
C3058 C3064 1.428 . S
H3059 C3055 0.930 . S
H3060 C3057 0.929 . S
S3061 N3062 1.613 . S
S3061 N3063 1.610 . S
N3062 S3061 1.613 . S
N3062 C3065 1.350 . S
N3063 S3061 1.610 . S
N3063 C3064 1.351 . S
C3064 C3058 1.428 . S
C3064 N3063 1.351 . S
C3064 C3065 1.434 . S
C3065 C3056 1.429 . S
C3065 N3062 1.350 . S
C3065 C3064 1.434 . S
C3066 C3067 1.369 . S
C3066 C3068 1.419 . S
C3066 H3070 0.930 . S
C3067 C3066 1.369 . S
C3067 C3076 1.429 . S
C3068 C3066 1.419 . S
C3068 C3069 1.363 . S
C3068 H3071 0.929 . S
C3069 C3068 1.363 . S
C3069 C3075 1.428 . S
H3070 C3066 0.930 . S
H3071 C3068 0.929 . S
S3072 N3073 1.613 . S
S3072 N3074 1.610 . S
N3073 S3072 1.613 . S
N3073 C3076 1.350 . S
N3074 S3072 1.610 . S
N3074 C3075 1.351 . S
C3075 C3069 1.428 . S
C3075 N3074 1.351 . S
C3075 C3076 1.434 . S
C3076 C3067 1.429 . S
C3076 N3073 1.350 . S
C3076 C3075 1.434 . S
C3077 C3078 1.369 . S
C3077 C3079 1.419 . S
C3077 H3081 0.930 . S
C3078 C3077 1.369 . S
C3078 C3087 1.429 . S
C3079 C3077 1.419 . S
C3079 C3080 1.363 . S
C3079 H3082 0.929 . S
C3080 C3079 1.363 . S
C3080 C3086 1.428 . S
H3081 C3077 0.930 . S
H3082 C3079 0.929 . S
S3083 N3084 1.613 . S
S3083 N3085 1.610 . S
N3084 S3083 1.613 . S
N3084 C3087 1.350 . S
N3085 S3083 1.610 . S
N3085 C3086 1.351 . S
C3086 C3080 1.428 . S
C3086 N3085 1.351 . S
C3086 C3087 1.434 . S
C3087 C3078 1.429 . S
C3087 N3084 1.350 . S
C3087 C3086 1.434 . S
C3088 C3089 1.369 . S
C3088 C3090 1.419 . S
C3088 H3092 0.930 . S
C3089 C3088 1.369 . S
C3089 C3098 1.429 . S
C3090 C3088 1.419 . S
C3090 C3091 1.363 . S
C3090 H3093 0.929 . S
C3091 C3090 1.363 . S
C3091 C3097 1.428 . S
H3092 C3088 0.930 . S
H3093 C3090 0.929 . S
S3094 N3095 1.613 . S
S3094 N3096 1.610 . S
N3095 S3094 1.613 . S
N3095 C3098 1.350 . S
N3096 S3094 1.610 . S
N3096 C3097 1.351 . S
C3097 C3091 1.428 . S
C3097 N3096 1.351 . S
C3097 C3098 1.434 . S
C3098 C3089 1.429 . S
C3098 N3095 1.350 . S
C3098 C3097 1.434 . S
C3099 C3100 1.369 . S
C3099 C3101 1.419 . S
C3099 H3103 0.930 . S
C3100 C3099 1.369 . S
C3100 C3109 1.429 . S
C3101 C3099 1.419 . S
C3101 C3102 1.363 . S
C3101 H3104 0.929 . S
C3102 C3101 1.363 . S
C3102 C3108 1.428 . S
H3103 C3099 0.930 . S
H3104 C3101 0.929 . S
S3105 N3106 1.613 . S
S3105 N3107 1.610 . S
N3106 S3105 1.613 . S
N3106 C3109 1.350 . S
N3107 S3105 1.610 . S
N3107 C3108 1.351 . S
C3108 C3102 1.428 . S
C3108 N3107 1.351 . S
C3108 C3109 1.434 . S
C3109 C3100 1.429 . S
C3109 N3106 1.350 . S
C3109 C3108 1.434 . S
C3110 C3111 1.369 . S
C3110 C3112 1.419 . S
C3110 H3114 0.930 . S
C3111 C3110 1.369 . S
C3111 C3120 1.429 . S
C3112 C3110 1.419 . S
C3112 C3113 1.363 . S
C3112 H3115 0.929 . S
C3113 C3112 1.363 . S
C3113 C3119 1.428 . S
H3114 C3110 0.930 . S
H3115 C3112 0.929 . S
S3116 N3117 1.613 . S
S3116 N3118 1.610 . S
N3117 S3116 1.613 . S
N3117 C3120 1.350 . S
N3118 S3116 1.610 . S
N3118 C3119 1.351 . S
C3119 C3113 1.428 . S
C3119 N3118 1.351 . S
C3119 C3120 1.434 . S
C3120 C3111 1.429 . S
C3120 N3117 1.350 . S
C3120 C3119 1.434 . S
C3121 C3122 1.369 . S
C3121 C3123 1.419 . S
C3121 H3125 0.930 . S
C3122 C3121 1.369 . S
C3122 C3131 1.429 . S
C3123 C3121 1.419 . S
C3123 C3124 1.363 . S
C3123 H3126 0.929 . S
C3124 C3123 1.363 . S
C3124 C3130 1.428 . S
H3125 C3121 0.930 . S
H3126 C3123 0.929 . S
S3127 N3128 1.613 . S
S3127 N3129 1.610 . S
N3128 S3127 1.613 . S
N3128 C3131 1.350 . S
N3129 S3127 1.610 . S
N3129 C3130 1.351 . S
C3130 C3124 1.428 . S
C3130 N3129 1.351 . S
C3130 C3131 1.434 . S
C3131 C3122 1.429 . S
C3131 N3128 1.350 . S
C3131 C3130 1.434 . S
C3132 C3133 1.369 . S
C3132 C3134 1.419 . S
C3132 H3136 0.930 . S
C3133 C3132 1.369 . S
C3133 C3142 1.429 . S
C3134 C3132 1.419 . S
C3134 C3135 1.363 . S
C3134 H3137 0.929 . S
C3135 C3134 1.363 . S
C3135 C3141 1.428 . S
H3136 C3132 0.930 . S
H3137 C3134 0.929 . S
S3138 N3139 1.613 . S
S3138 N3140 1.610 . S
N3139 S3138 1.613 . S
N3139 C3142 1.350 . S
N3140 S3138 1.610 . S
N3140 C3141 1.351 . S
C3141 C3135 1.428 . S
C3141 N3140 1.351 . S
C3141 C3142 1.434 . S
C3142 C3133 1.429 . S
C3142 N3139 1.350 . S
C3142 C3141 1.434 . S
C3143 C3144 1.369 . S
C3143 C3145 1.419 . S
C3143 H3147 0.930 . S
C3144 C3143 1.369 . S
C3144 C3153 1.429 . S
C3145 C3143 1.419 . S
C3145 C3146 1.363 . S
C3145 H3148 0.929 . S
C3146 C3145 1.363 . S
C3146 C3152 1.428 . S
H3147 C3143 0.930 . S
H3148 C3145 0.929 . S
S3149 N3150 1.613 . S
S3149 N3151 1.610 . S
N3150 S3149 1.613 . S
N3150 C3153 1.350 . S
N3151 S3149 1.610 . S
N3151 C3152 1.351 . S
C3152 C3146 1.428 . S
C3152 N3151 1.351 . S
C3152 C3153 1.434 . S
C3153 C3144 1.429 . S
C3153 N3150 1.350 . S
C3153 C3152 1.434 . S
C3154 C3155 1.369 . S
C3154 C3156 1.419 . S
C3154 H3158 0.930 . S
C3155 C3154 1.369 . S
C3155 C3164 1.429 . S
C3156 C3154 1.419 . S
C3156 C3157 1.363 . S
C3156 H3159 0.929 . S
C3157 C3156 1.363 . S
C3157 C3163 1.428 . S
H3158 C3154 0.930 . S
H3159 C3156 0.929 . S
S3160 N3161 1.613 . S
S3160 N3162 1.610 . S
N3161 S3160 1.613 . S
N3161 C3164 1.350 . S
N3162 S3160 1.610 . S
N3162 C3163 1.351 . S
C3163 C3157 1.428 . S
C3163 N3162 1.351 . S
C3163 C3164 1.434 . S
C3164 C3155 1.429 . S
C3164 N3161 1.350 . S
C3164 C3163 1.434 . S
C3165 C3166 1.369 . S
C3165 C3167 1.419 . S
C3165 H3169 0.930 . S
C3166 C3165 1.369 . S
C3166 C3175 1.429 . S
C3167 C3165 1.419 . S
C3167 C3168 1.363 . S
C3167 H3170 0.929 . S
C3168 C3167 1.363 . S
C3168 C3174 1.428 . S
H3169 C3165 0.930 . S
H3170 C3167 0.929 . S
S3171 N3172 1.613 . S
S3171 N3173 1.610 . S
N3172 S3171 1.613 . S
N3172 C3175 1.350 . S
N3173 S3171 1.610 . S
N3173 C3174 1.351 . S
C3174 C3168 1.428 . S
C3174 N3173 1.351 . S
C3174 C3175 1.434 . S
C3175 C3166 1.429 . S
C3175 N3172 1.350 . S
C3175 C3174 1.434 . S
C3176 C3177 1.369 . S
C3176 C3178 1.419 . S
C3176 H3180 0.930 . S
C3177 C3176 1.369 . S
C3177 C3186 1.429 . S
C3178 C3176 1.419 . S
C3178 C3179 1.363 . S
C3178 H3181 0.929 . S
C3179 C3178 1.363 . S
C3179 C3185 1.428 . S
H3180 C3176 0.930 . S
H3181 C3178 0.929 . S
S3182 N3183 1.613 . S
S3182 N3184 1.610 . S
N3183 S3182 1.613 . S
N3183 C3186 1.350 . S
N3184 S3182 1.610 . S
N3184 C3185 1.351 . S
C3185 C3179 1.428 . S
C3185 N3184 1.351 . S
C3185 C3186 1.434 . S
C3186 C3177 1.429 . S
C3186 N3183 1.350 . S
C3186 C3185 1.434 . S
C3187 C3188 1.369 . S
C3187 C3189 1.419 . S
C3187 H3191 0.930 . S
C3188 C3187 1.369 . S
C3188 C3197 1.429 . S
C3189 C3187 1.419 . S
C3189 C3190 1.363 . S
C3189 H3192 0.929 . S
C3190 C3189 1.363 . S
C3190 C3196 1.428 . S
H3191 C3187 0.930 . S
H3192 C3189 0.929 . S
S3193 N3194 1.613 . S
S3193 N3195 1.610 . S
N3194 S3193 1.613 . S
N3194 C3197 1.350 . S
N3195 S3193 1.610 . S
N3195 C3196 1.351 . S
C3196 C3190 1.428 . S
C3196 N3195 1.351 . S
C3196 C3197 1.434 . S
C3197 C3188 1.429 . S
C3197 N3194 1.350 . S
C3197 C3196 1.434 . S
C3198 C3199 1.369 . S
C3198 C3200 1.419 . S
C3198 H3202 0.930 . S
C3199 C3198 1.369 . S
C3199 C3208 1.429 . S
C3200 C3198 1.419 . S
C3200 C3201 1.363 . S
C3200 H3203 0.929 . S
C3201 C3200 1.363 . S
C3201 C3207 1.428 . S
H3202 C3198 0.930 . S
H3203 C3200 0.929 . S
S3204 N3205 1.613 . S
S3204 N3206 1.610 . S
N3205 S3204 1.613 . S
N3205 C3208 1.350 . S
N3206 S3204 1.610 . S
N3206 C3207 1.351 . S
C3207 C3201 1.428 . S
C3207 N3206 1.351 . S
C3207 C3208 1.434 . S
C3208 C3199 1.429 . S
C3208 N3205 1.350 . S
C3208 C3207 1.434 . S
C3209 C3210 1.369 . S
C3209 C3211 1.419 . S
C3209 H3213 0.930 . S
C3210 C3209 1.369 . S
C3210 C3219 1.429 . S
C3211 C3209 1.419 . S
C3211 C3212 1.363 . S
C3211 H3214 0.929 . S
C3212 C3211 1.363 . S
C3212 C3218 1.428 . S
H3213 C3209 0.930 . S
H3214 C3211 0.929 . S
S3215 N3216 1.613 . S
S3215 N3217 1.610 . S
N3216 S3215 1.613 . S
N3216 C3219 1.350 . S
N3217 S3215 1.610 . S
N3217 C3218 1.351 . S
C3218 C3212 1.428 . S
C3218 N3217 1.351 . S
C3218 C3219 1.434 . S
C3219 C3210 1.429 . S
C3219 N3216 1.350 . S
C3219 C3218 1.434 . S
C3220 C3221 1.369 . S
C3220 C3222 1.419 . S
C3220 H3224 0.930 . S
C3221 C3220 1.369 . S
C3221 C3230 1.429 . S
C3222 C3220 1.419 . S
C3222 C3223 1.363 . S
C3222 H3225 0.929 . S
C3223 C3222 1.363 . S
C3223 C3229 1.428 . S
H3224 C3220 0.930 . S
H3225 C3222 0.929 . S
S3226 N3227 1.613 . S
S3226 N3228 1.610 . S
N3227 S3226 1.613 . S
N3227 C3230 1.350 . S
N3228 S3226 1.610 . S
N3228 C3229 1.351 . S
C3229 C3223 1.428 . S
C3229 N3228 1.351 . S
C3229 C3230 1.434 . S
C3230 C3221 1.429 . S
C3230 N3227 1.350 . S
C3230 C3229 1.434 . S
C3231 C3232 1.369 . S
C3231 C3233 1.419 . S
C3231 H3235 0.930 . S
C3232 C3231 1.369 . S
C3232 C3241 1.429 . S
C3233 C3231 1.419 . S
C3233 C3234 1.363 . S
C3233 H3236 0.929 . S
C3234 C3233 1.363 . S
C3234 C3240 1.428 . S
H3235 C3231 0.930 . S
H3236 C3233 0.929 . S
S3237 N3238 1.613 . S
S3237 N3239 1.610 . S
N3238 S3237 1.613 . S
N3238 C3241 1.350 . S
N3239 S3237 1.610 . S
N3239 C3240 1.351 . S
C3240 C3234 1.428 . S
C3240 N3239 1.351 . S
C3240 C3241 1.434 . S
C3241 C3232 1.429 . S
C3241 N3238 1.350 . S
C3241 C3240 1.434 . S
C3242 C3243 1.369 . S
C3242 C3244 1.419 . S
C3242 H3246 0.930 . S
C3243 C3242 1.369 . S
C3243 C3252 1.429 . S
C3244 C3242 1.419 . S
C3244 C3245 1.363 . S
C3244 H3247 0.929 . S
C3245 C3244 1.363 . S
C3245 C3251 1.428 . S
H3246 C3242 0.930 . S
H3247 C3244 0.929 . S
S3248 N3249 1.613 . S
S3248 N3250 1.610 . S
N3249 S3248 1.613 . S
N3249 C3252 1.350 . S
N3250 S3248 1.610 . S
N3250 C3251 1.351 . S
C3251 C3245 1.428 . S
C3251 N3250 1.351 . S
C3251 C3252 1.434 . S
C3252 C3243 1.429 . S
C3252 N3249 1.350 . S
C3252 C3251 1.434 . S
C3253 C3254 1.369 . S
C3253 C3255 1.419 . S
C3253 H3257 0.930 . S
C3254 C3253 1.369 . S
C3254 C3263 1.429 . S
C3255 C3253 1.419 . S
C3255 C3256 1.363 . S
C3255 H3258 0.929 . S
C3256 C3255 1.363 . S
C3256 C3262 1.428 . S
H3257 C3253 0.930 . S
H3258 C3255 0.929 . S
S3259 N3260 1.613 . S
S3259 N3261 1.610 . S
N3260 S3259 1.613 . S
N3260 C3263 1.350 . S
N3261 S3259 1.610 . S
N3261 C3262 1.351 . S
C3262 C3256 1.428 . S
C3262 N3261 1.351 . S
C3262 C3263 1.434 . S
C3263 C3254 1.429 . S
C3263 N3260 1.350 . S
C3263 C3262 1.434 . S
C3264 C3265 1.369 . S
C3264 C3266 1.419 . S
C3264 H3268 0.930 . S
C3265 C3264 1.369 . S
C3265 C3274 1.429 . S
C3266 C3264 1.419 . S
C3266 C3267 1.363 . S
C3266 H3269 0.929 . S
C3267 C3266 1.363 . S
C3267 C3273 1.428 . S
H3268 C3264 0.930 . S
H3269 C3266 0.929 . S
S3270 N3271 1.613 . S
S3270 N3272 1.610 . S
N3271 S3270 1.613 . S
N3271 C3274 1.350 . S
N3272 S3270 1.610 . S
N3272 C3273 1.351 . S
C3273 C3267 1.428 . S
C3273 N3272 1.351 . S
C3273 C3274 1.434 . S
C3274 C3265 1.429 . S
C3274 N3271 1.350 . S
C3274 C3273 1.434 . S
C3275 C3276 1.369 . S
C3275 C3277 1.419 . S
C3275 H3279 0.930 . S
C3276 C3275 1.369 . S
C3276 C3285 1.429 . S
C3277 C3275 1.419 . S
C3277 C3278 1.363 . S
C3277 H3280 0.929 . S
C3278 C3277 1.363 . S
C3278 C3284 1.428 . S
H3279 C3275 0.930 . S
H3280 C3277 0.929 . S
S3281 N3282 1.613 . S
S3281 N3283 1.610 . S
N3282 S3281 1.613 . S
N3282 C3285 1.350 . S
N3283 S3281 1.610 . S
N3283 C3284 1.351 . S
C3284 C3278 1.428 . S
C3284 N3283 1.351 . S
C3284 C3285 1.434 . S
C3285 C3276 1.429 . S
C3285 N3282 1.350 . S
C3285 C3284 1.434 . S
C3286 C3287 1.369 . S
C3286 C3288 1.419 . S
C3286 H3290 0.930 . S
C3287 C3286 1.369 . S
C3287 C3296 1.429 . S
C3288 C3286 1.419 . S
C3288 C3289 1.363 . S
C3288 H3291 0.929 . S
C3289 C3288 1.363 . S
C3289 C3295 1.428 . S
H3290 C3286 0.930 . S
H3291 C3288 0.929 . S
S3292 N3293 1.613 . S
S3292 N3294 1.610 . S
N3293 S3292 1.613 . S
N3293 C3296 1.350 . S
N3294 S3292 1.610 . S
N3294 C3295 1.351 . S
C3295 C3289 1.428 . S
C3295 N3294 1.351 . S
C3295 C3296 1.434 . S
C3296 C3287 1.429 . S
C3296 N3293 1.350 . S
C3296 C3295 1.434 . S
C3297 C3298 1.369 . S
C3297 C3299 1.419 . S
C3297 H3301 0.930 . S
C3298 C3297 1.369 . S
C3298 C3307 1.429 . S
C3299 C3297 1.419 . S
C3299 C3300 1.363 . S
C3299 H3302 0.929 . S
C3300 C3299 1.363 . S
C3300 C3306 1.428 . S
H3301 C3297 0.930 . S
H3302 C3299 0.929 . S
S3303 N3304 1.613 . S
S3303 N3305 1.610 . S
N3304 S3303 1.613 . S
N3304 C3307 1.350 . S
N3305 S3303 1.610 . S
N3305 C3306 1.351 . S
C3306 C3300 1.428 . S
C3306 N3305 1.351 . S
C3306 C3307 1.434 . S
C3307 C3298 1.429 . S
C3307 N3304 1.350 . S
C3307 C3306 1.434 . S
C3308 C3309 1.369 . S
C3308 C3310 1.419 . S
C3308 H3312 0.930 . S
C3309 C3308 1.369 . S
C3309 C3318 1.429 . S
C3310 C3308 1.419 . S
C3310 C3311 1.363 . S
C3310 H3313 0.929 . S
C3311 C3310 1.363 . S
C3311 C3317 1.428 . S
H3312 C3308 0.930 . S
H3313 C3310 0.929 . S
S3314 N3315 1.613 . S
S3314 N3316 1.610 . S
N3315 S3314 1.613 . S
N3315 C3318 1.350 . S
N3316 S3314 1.610 . S
N3316 C3317 1.351 . S
C3317 C3311 1.428 . S
C3317 N3316 1.351 . S
C3317 C3318 1.434 . S
C3318 C3309 1.429 . S
C3318 N3315 1.350 . S
C3318 C3317 1.434 . S
C3319 C3320 1.369 . S
C3319 C3321 1.419 . S
C3319 H3323 0.930 . S
C3320 C3319 1.369 . S
C3320 C3329 1.429 . S
C3321 C3319 1.419 . S
C3321 C3322 1.363 . S
C3321 H3324 0.929 . S
C3322 C3321 1.363 . S
C3322 C3328 1.428 . S
H3323 C3319 0.930 . S
H3324 C3321 0.929 . S
S3325 N3326 1.613 . S
S3325 N3327 1.610 . S
N3326 S3325 1.613 . S
N3326 C3329 1.350 . S
N3327 S3325 1.610 . S
N3327 C3328 1.351 . S
C3328 C3322 1.428 . S
C3328 N3327 1.351 . S
C3328 C3329 1.434 . S
C3329 C3320 1.429 . S
C3329 N3326 1.350 . S
C3329 C3328 1.434 . S
C3330 C3331 1.369 . S
C3330 C3332 1.419 . S
C3330 H3334 0.930 . S
C3331 C3330 1.369 . S
C3331 C3340 1.429 . S
C3332 C3330 1.419 . S
C3332 C3333 1.363 . S
C3332 H3335 0.929 . S
C3333 C3332 1.363 . S
C3333 C3339 1.428 . S
H3334 C3330 0.930 . S
H3335 C3332 0.929 . S
S3336 N3337 1.613 . S
S3336 N3338 1.610 . S
N3337 S3336 1.613 . S
N3337 C3340 1.350 . S
N3338 S3336 1.610 . S
N3338 C3339 1.351 . S
C3339 C3333 1.428 . S
C3339 N3338 1.351 . S
C3339 C3340 1.434 . S
C3340 C3331 1.429 . S
C3340 N3337 1.350 . S
C3340 C3339 1.434 . S
C3341 C3342 1.369 . S
C3341 C3343 1.419 . S
C3341 H3345 0.930 . S
C3342 C3341 1.369 . S
C3342 C3351 1.429 . S
C3343 C3341 1.419 . S
C3343 C3344 1.363 . S
C3343 H3346 0.929 . S
C3344 C3343 1.363 . S
C3344 C3350 1.428 . S
H3345 C3341 0.930 . S
H3346 C3343 0.929 . S
S3347 N3348 1.613 . S
S3347 N3349 1.610 . S
N3348 S3347 1.613 . S
N3348 C3351 1.350 . S
N3349 S3347 1.610 . S
N3349 C3350 1.351 . S
C3350 C3344 1.428 . S
C3350 N3349 1.351 . S
C3350 C3351 1.434 . S
C3351 C3342 1.429 . S
C3351 N3348 1.350 . S
C3351 C3350 1.434 . S
C3352 C3353 1.369 . S
C3352 C3354 1.419 . S
C3352 H3356 0.930 . S
C3353 C3352 1.369 . S
C3353 C3362 1.429 . S
C3354 C3352 1.419 . S
C3354 C3355 1.363 . S
C3354 H3357 0.929 . S
C3355 C3354 1.363 . S
C3355 C3361 1.428 . S
H3356 C3352 0.930 . S
H3357 C3354 0.929 . S
S3358 N3359 1.613 . S
S3358 N3360 1.610 . S
N3359 S3358 1.613 . S
N3359 C3362 1.350 . S
N3360 S3358 1.610 . S
N3360 C3361 1.351 . S
C3361 C3355 1.428 . S
C3361 N3360 1.351 . S
C3361 C3362 1.434 . S
C3362 C3353 1.429 . S
C3362 N3359 1.350 . S
C3362 C3361 1.434 . S
C3363 C3364 1.369 . S
C3363 C3365 1.419 . S
C3363 H3367 0.930 . S
C3364 C3363 1.369 . S
C3364 C3373 1.429 . S
C3365 C3363 1.419 . S
C3365 C3366 1.363 . S
C3365 H3368 0.929 . S
C3366 C3365 1.363 . S
C3366 C3372 1.428 . S
H3367 C3363 0.930 . S
H3368 C3365 0.929 . S
S3369 N3370 1.613 . S
S3369 N3371 1.610 . S
N3370 S3369 1.613 . S
N3370 C3373 1.350 . S
N3371 S3369 1.610 . S
N3371 C3372 1.351 . S
C3372 C3366 1.428 . S
C3372 N3371 1.351 . S
C3372 C3373 1.434 . S
C3373 C3364 1.429 . S
C3373 N3370 1.350 . S
C3373 C3372 1.434 . S
C3374 C3375 1.369 . S
C3374 C3376 1.419 . S
C3374 H3378 0.930 . S
C3375 C3374 1.369 . S
C3375 C3384 1.429 . S
C3376 C3374 1.419 . S
C3376 C3377 1.363 . S
C3376 H3379 0.929 . S
C3377 C3376 1.363 . S
C3377 C3383 1.428 . S
H3378 C3374 0.930 . S
H3379 C3376 0.929 . S
S3380 N3381 1.613 . S
S3380 N3382 1.610 . S
N3381 S3380 1.613 . S
N3381 C3384 1.350 . S
N3382 S3380 1.610 . S
N3382 C3383 1.351 . S
C3383 C3377 1.428 . S
C3383 N3382 1.351 . S
C3383 C3384 1.434 . S
C3384 C3375 1.429 . S
C3384 N3381 1.350 . S
C3384 C3383 1.434 . S
C3385 C3386 1.369 . S
C3385 C3387 1.419 . S
C3385 H3389 0.930 . S
C3386 C3385 1.369 . S
C3386 C3395 1.429 . S
C3387 C3385 1.419 . S
C3387 C3388 1.363 . S
C3387 H3390 0.929 . S
C3388 C3387 1.363 . S
C3388 C3394 1.428 . S
H3389 C3385 0.930 . S
H3390 C3387 0.929 . S
S3391 N3392 1.613 . S
S3391 N3393 1.610 . S
N3392 S3391 1.613 . S
N3392 C3395 1.350 . S
N3393 S3391 1.610 . S
N3393 C3394 1.351 . S
C3394 C3388 1.428 . S
C3394 N3393 1.351 . S
C3394 C3395 1.434 . S
C3395 C3386 1.429 . S
C3395 N3392 1.350 . S
C3395 C3394 1.434 . S
C3396 C3397 1.369 . S
C3396 C3398 1.419 . S
C3396 H3400 0.930 . S
C3397 C3396 1.369 . S
C3397 C3406 1.429 . S
C3398 C3396 1.419 . S
C3398 C3399 1.363 . S
C3398 H3401 0.929 . S
C3399 C3398 1.363 . S
C3399 C3405 1.428 . S
H3400 C3396 0.930 . S
H3401 C3398 0.929 . S
S3402 N3403 1.613 . S
S3402 N3404 1.610 . S
N3403 S3402 1.613 . S
N3403 C3406 1.350 . S
N3404 S3402 1.610 . S
N3404 C3405 1.351 . S
C3405 C3399 1.428 . S
C3405 N3404 1.351 . S
C3405 C3406 1.434 . S
C3406 C3397 1.429 . S
C3406 N3403 1.350 . S
C3406 C3405 1.434 . S
C3407 C3408 1.369 . S
C3407 C3409 1.419 . S
C3407 H3411 0.930 . S
C3408 C3407 1.369 . S
C3408 C3417 1.429 . S
C3409 C3407 1.419 . S
C3409 C3410 1.363 . S
C3409 H3412 0.929 . S
C3410 C3409 1.363 . S
C3410 C3416 1.428 . S
H3411 C3407 0.930 . S
H3412 C3409 0.929 . S
S3413 N3414 1.613 . S
S3413 N3415 1.610 . S
N3414 S3413 1.613 . S
N3414 C3417 1.350 . S
N3415 S3413 1.610 . S
N3415 C3416 1.351 . S
C3416 C3410 1.428 . S
C3416 N3415 1.351 . S
C3416 C3417 1.434 . S
C3417 C3408 1.429 . S
C3417 N3414 1.350 . S
C3417 C3416 1.434 . S
C3418 C3419 1.369 . S
C3418 C3420 1.419 . S
C3418 H3422 0.930 . S
C3419 C3418 1.369 . S
C3419 C3428 1.429 . S
C3420 C3418 1.419 . S
C3420 C3421 1.363 . S
C3420 H3423 0.929 . S
C3421 C3420 1.363 . S
C3421 C3427 1.428 . S
H3422 C3418 0.930 . S
H3423 C3420 0.929 . S
S3424 N3425 1.613 . S
S3424 N3426 1.610 . S
N3425 S3424 1.613 . S
N3425 C3428 1.350 . S
N3426 S3424 1.610 . S
N3426 C3427 1.351 . S
C3427 C3421 1.428 . S
C3427 N3426 1.351 . S
C3427 C3428 1.434 . S
C3428 C3419 1.429 . S
C3428 N3425 1.350 . S
C3428 C3427 1.434 . S
C3429 C3430 1.369 . S
C3429 C3431 1.419 . S
C3429 H3433 0.930 . S
C3430 C3429 1.369 . S
C3430 C3439 1.429 . S
C3431 C3429 1.419 . S
C3431 C3432 1.363 . S
C3431 H3434 0.929 . S
C3432 C3431 1.363 . S
C3432 C3438 1.428 . S
H3433 C3429 0.930 . S
H3434 C3431 0.929 . S
S3435 N3436 1.613 . S
S3435 N3437 1.610 . S
N3436 S3435 1.613 . S
N3436 C3439 1.350 . S
N3437 S3435 1.610 . S
N3437 C3438 1.351 . S
C3438 C3432 1.428 . S
C3438 N3437 1.351 . S
C3438 C3439 1.434 . S
C3439 C3430 1.429 . S
C3439 N3436 1.350 . S
C3439 C3438 1.434 . S
C3440 C3441 1.369 . S
C3440 C3442 1.419 . S
C3440 H3444 0.930 . S
C3441 C3440 1.369 . S
C3441 C3450 1.429 . S
C3442 C3440 1.419 . S
C3442 C3443 1.363 . S
C3442 H3445 0.929 . S
C3443 C3442 1.363 . S
C3443 C3449 1.428 . S
H3444 C3440 0.930 . S
H3445 C3442 0.929 . S
S3446 N3447 1.613 . S
S3446 N3448 1.610 . S
N3447 S3446 1.613 . S
N3447 C3450 1.350 . S
N3448 S3446 1.610 . S
N3448 C3449 1.351 . S
C3449 C3443 1.428 . S
C3449 N3448 1.351 . S
C3449 C3450 1.434 . S
C3450 C3441 1.429 . S
C3450 N3447 1.350 . S
C3450 C3449 1.434 . S
C3451 C3452 1.369 . S
C3451 C3453 1.419 . S
C3451 H3455 0.930 . S
C3452 C3451 1.369 . S
C3452 C3461 1.429 . S
C3453 C3451 1.419 . S
C3453 C3454 1.363 . S
C3453 H3456 0.929 . S
C3454 C3453 1.363 . S
C3454 C3460 1.428 . S
H3455 C3451 0.930 . S
H3456 C3453 0.929 . S
S3457 N3458 1.613 . S
S3457 N3459 1.610 . S
N3458 S3457 1.613 . S
N3458 C3461 1.350 . S
N3459 S3457 1.610 . S
N3459 C3460 1.351 . S
C3460 C3454 1.428 . S
C3460 N3459 1.351 . S
C3460 C3461 1.434 . S
C3461 C3452 1.429 . S
C3461 N3458 1.350 . S
C3461 C3460 1.434 . S
C3462 C3463 1.369 . S
C3462 C3464 1.419 . S
C3462 H3466 0.930 . S
C3463 C3462 1.369 . S
C3463 C3472 1.429 . S
C3464 C3462 1.419 . S
C3464 C3465 1.363 . S
C3464 H3467 0.929 . S
C3465 C3464 1.363 . S
C3465 C3471 1.428 . S
H3466 C3462 0.930 . S
H3467 C3464 0.929 . S
S3468 N3469 1.613 . S
S3468 N3470 1.610 . S
N3469 S3468 1.613 . S
N3469 C3472 1.350 . S
N3470 S3468 1.610 . S
N3470 C3471 1.351 . S
C3471 C3465 1.428 . S
C3471 N3470 1.351 . S
C3471 C3472 1.434 . S
C3472 C3463 1.429 . S
C3472 N3469 1.350 . S
C3472 C3471 1.434 . S
C3473 C3474 1.369 . S
C3473 C3475 1.419 . S
C3473 H3477 0.930 . S
C3474 C3473 1.369 . S
C3474 C3483 1.429 . S
C3475 C3473 1.419 . S
C3475 C3476 1.363 . S
C3475 H3478 0.929 . S
C3476 C3475 1.363 . S
C3476 C3482 1.428 . S
H3477 C3473 0.930 . S
H3478 C3475 0.929 . S
S3479 N3480 1.613 . S
S3479 N3481 1.610 . S
N3480 S3479 1.613 . S
N3480 C3483 1.350 . S
N3481 S3479 1.610 . S
N3481 C3482 1.351 . S
C3482 C3476 1.428 . S
C3482 N3481 1.351 . S
C3482 C3483 1.434 . S
C3483 C3474 1.429 . S
C3483 N3480 1.350 . S
C3483 C3482 1.434 . S
C3484 C3485 1.369 . S
C3484 C3486 1.419 . S
C3484 H3488 0.930 . S
C3485 C3484 1.369 . S
C3485 C3494 1.429 . S
C3486 C3484 1.419 . S
C3486 C3487 1.363 . S
C3486 H3489 0.929 . S
C3487 C3486 1.363 . S
C3487 C3493 1.428 . S
H3488 C3484 0.930 . S
H3489 C3486 0.929 . S
S3490 N3491 1.613 . S
S3490 N3492 1.610 . S
N3491 S3490 1.613 . S
N3491 C3494 1.350 . S
N3492 S3490 1.610 . S
N3492 C3493 1.351 . S
C3493 C3487 1.428 . S
C3493 N3492 1.351 . S
C3493 C3494 1.434 . S
C3494 C3485 1.429 . S
C3494 N3491 1.350 . S
C3494 C3493 1.434 . S
C3495 C3496 1.369 . S
C3495 C3497 1.419 . S
C3495 H3499 0.930 . S
C3496 C3495 1.369 . S
C3496 C3505 1.429 . S
C3497 C3495 1.419 . S
C3497 C3498 1.363 . S
C3497 H3500 0.929 . S
C3498 C3497 1.363 . S
C3498 C3504 1.428 . S
H3499 C3495 0.930 . S
H3500 C3497 0.929 . S
S3501 N3502 1.613 . S
S3501 N3503 1.610 . S
N3502 S3501 1.613 . S
N3502 C3505 1.350 . S
N3503 S3501 1.610 . S
N3503 C3504 1.351 . S
C3504 C3498 1.428 . S
C3504 N3503 1.351 . S
C3504 C3505 1.434 . S
C3505 C3496 1.429 . S
C3505 N3502 1.350 . S
C3505 C3504 1.434 . S
C3506 C3507 1.369 . S
C3506 C3508 1.419 . S
C3506 H3510 0.930 . S
C3507 C3506 1.369 . S
C3507 C3516 1.429 . S
C3508 C3506 1.419 . S
C3508 C3509 1.363 . S
C3508 H3511 0.929 . S
C3509 C3508 1.363 . S
C3509 C3515 1.428 . S
H3510 C3506 0.930 . S
H3511 C3508 0.929 . S
S3512 N3513 1.613 . S
S3512 N3514 1.610 . S
N3513 S3512 1.613 . S
N3513 C3516 1.350 . S
N3514 S3512 1.610 . S
N3514 C3515 1.351 . S
C3515 C3509 1.428 . S
C3515 N3514 1.351 . S
C3515 C3516 1.434 . S
C3516 C3507 1.429 . S
C3516 N3513 1.350 . S
C3516 C3515 1.434 . S
C3517 C3518 1.369 . S
C3517 C3519 1.419 . S
C3517 H3521 0.930 . S
C3518 C3517 1.369 . S
C3518 C3527 1.429 . S
C3519 C3517 1.419 . S
C3519 C3520 1.363 . S
C3519 H3522 0.929 . S
C3520 C3519 1.363 . S
C3520 C3526 1.428 . S
H3521 C3517 0.930 . S
H3522 C3519 0.929 . S
S3523 N3524 1.613 . S
S3523 N3525 1.610 . S
N3524 S3523 1.613 . S
N3524 C3527 1.350 . S
N3525 S3523 1.610 . S
N3525 C3526 1.351 . S
C3526 C3520 1.428 . S
C3526 N3525 1.351 . S
C3526 C3527 1.434 . S
C3527 C3518 1.429 . S
C3527 N3524 1.350 . S
C3527 C3526 1.434 . S
C2475 N1932 1.458 . S
C2473 C1 1.459 . S
C2486 C1959 1.605 . S
C2484 C80 1.584 . S
C2495 C140 1.504 . S
C2497 C1973 1.509 . S
C2508 N1991 1.454 . S
C2506 C211 1.476 . S
C2517 C241 1.570 . S
C2519 C1996 1.588 . S
C2528 C320 1.519 . S
C2530 C1936 1.521 . S
C2539 C391 1.411 . S
C2541 N1955 1.403 . S
C2552 N1968 1.449 . S
C2550 C421 1.475 . S
C2563 N2014 1.409 . S
C2561 C31 1.408 . S
C2572 C61 1.518 . S
C2574 N2037 1.521 . S
C2583 C121 1.532 . S
C2585 N2060 1.575 . S
C2596 N2093 1.417 . S
C2594 C181 1.469 . S
C2605 C260 1.525 . S
C2607 C2120 1.541 . S
C2618 C2143 1.571 . S
C2616 C331 1.560 . S
C2627 C380 1.484 . S
C2629 C2166 1.517 . S
C2640 C2180 1.440 . S
C2638 C440 1.407 . S
C2649 C20 1.400 . S
C2651 C2097 1.452 . S
C2660 C271 1.479 . S
C2662 N2139 1.456 . S
C2673 N2162 1.436 . S
C2671 C301 1.461 . S
C2682 C361 1.473 . S
C2684 N2175 1.451 . S
C2695 N2116 1.413 . S
C2693 C451 1.437 . S
C2706 C2042 1.664 . S
C2704 C151 1.643 . S
C2715 C200 1.521 . S
C2717 C2065 1.520 . S
C2728 C2019 1.609 . S
C2726 C91 1.573 . S
C2739 C2212 1.459 . S
C2737 C500 1.435 . S
C2748 C560 1.595 . S
C2750 C2226 1.611 . S
C2759 C620 1.499 . S
C2761 N2254 1.455 . S
C2772 N2267 1.439 . S
C2770 C691 1.458 . S
C2781 C721 1.587 . S
C2783 C2272 1.602 . S
C2792 C811 1.513 . S
C2794 N2208 1.456 . S
C2803 C871 1.494 . S
C2805 N2221 1.507 . S
C2814 C901 1.427 . S
C2816 C2258 1.448 . S
C2827 N2106 1.415 . S
C2825 C511 1.424 . S
C2836 C541 1.500 . S
C2838 N2290 1.472 . S
C2849 N2152 1.459 . S
C2847 C601 1.450 . S
C2858 C661 1.537 . S
C2860 C2327 1.536 . S
C2869 C740 1.568 . S
C2871 C2028 1.589 . S
C2882 C2341 1.599 . S
C2880 C781 1.577 . S
C2891 C860 1.537 . S
C2893 C2074 1.545 . S
C2904 N2359 1.396 . S
C2902 C920 1.413 . S
C2913 C481 1.450 . S
C2915 N2323 1.422 . S
C2926 N2336 1.494 . S
C2924 C751 1.517 . S
C2935 C800 1.449 . S
C2937 N2070 1.438 . S
C2948 C2364 1.444 . S
C2946 C841 1.425 . S
C2957 C931 1.421 . S
C2959 N2024 1.393 . S
C2968 C631 1.545 . S
C2970 C2295 1.571 . S
C2979 C680 1.562 . S
C2981 C2157 1.565 . S
C2990 C571 1.564 . S
C2992 C2111 1.606 . S
C3001 C961 1.490 . S
C3003 C2249 1.519 . S
C3014 C2281 1.549 . S
C3012 C1040 1.537 . S
C3023 C1100 1.469 . S
C3025 N2198 1.438 . S
C3034 C1171 1.448 . S
C3036 N2231 1.418 . S
C3045 C1201 1.586 . S
C3047 C2235 1.599 . S
C3056 C1291 1.542 . S
C3058 N2244 1.528 . S
C3069 N2277 1.375 . S
C3067 C1351 1.397 . S
C3078 C1381 1.472 . S
C3080 C2203 1.492 . S
C3091 N2392 1.430 . S
C3089 C991 1.439 . S
C3100 C1021 1.448 . S
C3102 N2129 1.445 . S
C3113 N2415 1.388 . S
C3111 C1081 1.415 . S
C3122 C1141 1.518 . S
C3124 N2185 1.466 . S
C3133 C1220 1.531 . S
C3135 C2433 1.562 . S
C3144 C1261 1.646 . S
C3146 C2051 1.660 . S
C3157 N2451 1.391 . S
C3155 C1340 1.420 . S
C3166 C1400 1.468 . S
C3168 C2088 1.487 . S
C3179 C2189 1.498 . S
C3177 C980 1.452 . S
C3190 N2047 1.496 . S
C3188 C1231 1.536 . S
C3199 C1280 1.538 . S
C3201 C2456 1.575 . S
C3210 C1321 1.392 . S
C3212 N2083 1.359 . S
C3223 N2428 1.472 . S
C3221 C1411 1.485 . S
C3234 C2134 1.579 . S
C3232 C1111 1.541 . S
C3245 C2419 1.576 . S
C3243 C1160 1.571 . S
C3256 C2396 1.581 . S
C3254 C1051 1.533 . S
C3265 C1460 1.396 . S
C3267 N1978 1.363 . S
C3276 C1520 1.556 . S
C3278 C2005 1.571 . S
C3289 C1927 1.545 . S
C3287 C1580 1.531 . S
C3300 N1945 1.394 . S
C3298 C1651 1.421 . S
C3311 C1950 1.607 . S
C3309 C1681 1.605 . S
C3322 C1982 1.548 . S
C3320 C1760 1.560 . S
C3333 N2001 1.499 . S
C3331 C1831 1.501 . S
C3342 C1861 1.502 . S
C3344 N1922 1.487 . S
C3353 C1471 1.371 . S
C3355 N2438 1.344 . S
C3366 N2346 1.467 . S
C3364 C1501 1.481 . S
C3377 C2465 1.605 . S
C3375 C1561 1.551 . S
C3388 C2373 1.399 . S
C3386 C1621 1.400 . S
C3397 C1700 1.556 . S
C3399 C2387 1.582 . S
C3410 C2304 1.584 . S
C3408 C1771 1.574 . S
C3421 C2410 1.644 . S
C3419 C1820 1.613 . S
C3430 C1880 1.451 . S
C3432 N2313 1.440 . S
C3443 N2369 1.355 . S
C3441 C1441 1.377 . S
C3454 N2300 1.461 . S
C3452 C1711 1.482 . S
C3465 N2405 1.402 . S
C3463 C1741 1.411 . S
C3474 C1801 1.505 . S
C3476 C2318 1.517 . S
C3485 C1891 1.421 . S
C3487 N2382 1.414 . S
C3496 C1591 1.641 . S
C3498 C2350 1.664 . S
C3507 C1640 1.434 . S
C3509 N2461 1.402 . S
C3520 C2442 1.557 . S
C3518 C1531 1.522 . S
