# Generated by pormake.
# Topology nom, (4,4)-cn, num edge types: 1
# Building blocks:
#     Node 0, Type 0, BuildingBlock: KUFVIS_clean_linker_0, # of connection points: 4
#     Node 1, Type 0, BuildingBlock: KUFVIS_clean_linker_0, # of connection points: 4
#     Node 2, Type 0, BuildingBlock: KUFVIS_clean_linker_0, # of connection points: 4
#     Node 3, Type 0, BuildingBlock: KUFVIS_clean_linker_0, # of connection points: 4
#     Node 4, Type 0, BuildingBlock: KUFVIS_clean_linker_0, # of connection points: 4
#     Node 5, Type 0, BuildingBlock: KUFVIS_clean_linker_0, # of connection points: 4
#     Node 6, Type 1, BuildingBlock: NAHDIM_clean_sbu_0, # of connection points: 4
#     Node 7, Type 1, BuildingBlock: NAHDIM_clean_sbu_0, # of connection points: 4
#     Node 8, Type 1, BuildingBlock: NAHDIM_clean_sbu_0, # of connection points: 4
#     Node 9, Type 1, BuildingBlock: NAHDIM_clean_sbu_0, # of connection points: 4
#     Node 10, Type 1, BuildingBlock: NAHDIM_clean_sbu_0, # of connection points: 4
#     Node 11, Type 1, BuildingBlock: NAHDIM_clean_sbu_0, # of connection points: 4
#     Edge 12, Type (0, 1), BuildingBlock: EZIPEK_clean_linker_0, # of connection points: 2
#     Edge 13, Type (0, 1), BuildingBlock: EZIPEK_clean_linker_0, # of connection points: 2
#     Edge 14, Type (0, 1), BuildingBlock: EZIPEK_clean_linker_0, # of connection points: 2
#     Edge 15, Type (0, 1), BuildingBlock: EZIPEK_clean_linker_0, # of connection points: 2
#     Edge 16, Type (0, 1), BuildingBlock: EZIPEK_clean_linker_0, # of connection points: 2
#     Edge 17, Type (0, 1), BuildingBlock: EZIPEK_clean_linker_0, # of connection points: 2
#     Edge 18, Type (0, 1), BuildingBlock: EZIPEK_clean_linker_0, # of connection points: 2
#     Edge 19, Type (0, 1), BuildingBlock: EZIPEK_clean_linker_0, # of connection points: 2
#     Edge 20, Type (0, 1), BuildingBlock: EZIPEK_clean_linker_0, # of connection points: 2
#     Edge 21, Type (0, 1), BuildingBlock: EZIPEK_clean_linker_0, # of connection points: 2
#     Edge 22, Type (0, 1), BuildingBlock: EZIPEK_clean_linker_0, # of connection points: 2
#     Edge 23, Type (0, 1), BuildingBlock: EZIPEK_clean_linker_0, # of connection points: 2
#     Edge 24, Type (0, 1), BuildingBlock: EZIPEK_clean_linker_0, # of connection points: 2
#     Edge 25, Type (0, 1), BuildingBlock: EZIPEK_clean_linker_0, # of connection points: 2
#     Edge 26, Type (0, 1), BuildingBlock: EZIPEK_clean_linker_0, # of connection points: 2
#     Edge 27, Type (0, 1), BuildingBlock: EZIPEK_clean_linker_0, # of connection points: 2
#     Edge 28, Type (0, 1), BuildingBlock: EZIPEK_clean_linker_0, # of connection points: 2
#     Edge 29, Type (0, 1), BuildingBlock: EZIPEK_clean_linker_0, # of connection points: 2
#     Edge 30, Type (0, 1), BuildingBlock: EZIPEK_clean_linker_0, # of connection points: 2
#     Edge 31, Type (0, 1), BuildingBlock: EZIPEK_clean_linker_0, # of connection points: 2
#     Edge 32, Type (0, 1), BuildingBlock: EZIPEK_clean_linker_0, # of connection points: 2
#     Edge 33, Type (0, 1), BuildingBlock: EZIPEK_clean_linker_0, # of connection points: 2
#     Edge 34, Type (0, 1), BuildingBlock: EZIPEK_clean_linker_0, # of connection points: 2
#     Edge 35, Type (0, 1), BuildingBlock: EZIPEK_clean_linker_0, # of connection points: 2
# Relax obj value: 0.022
# Max RMSD: 0.124
# Mean RMSD: 0.082
data_MOF--net-nom--node1-NAHDIM_clean_sbu_0--node2-KUFVIS_clean_linker_0--edge1-EZIPEK_clean_linker_0
_symmetry_space_group_name_H-M    P1
_symmetry_Int_Tables_number       1
_symmetry_cell_setting            triclinic
loop_
_symmetry_equiv_pos_as_xyz
'x, y, z'
_cell_length_a     33.126018
_cell_length_b     34.251366
_cell_length_c     35.158764
_cell_angle_alpha  89.946706
_cell_angle_beta   89.969416
_cell_angle_gamma 121.11653
loop_
_atom_site_label
_atom_site_type_symbol
_atom_site_fract_x
_atom_site_fract_y
_atom_site_fract_z
_atom_type_partial_charge
H0 H 0.18265 0.61734 0.32203 0.0
H1 H 0.07735 0.59182 0.23883 0.0
H2 H 0.03706 0.5268 0.34947 0.0
H3 H 0.97381 0.53475 0.33938 0.0
H4 H 0.8666 0.47466 0.2539 0.0
H5 H 1.01038 0.52707 0.22226 0.0
C6 C 0.14584 0.60022 0.31375 0.0
C7 C 0.1109 0.57221 0.33979 0.0
C8 C 0.13374 0.60632 0.27714 0.0
C9 C 0.08601 0.58515 0.26684 0.0
C10 C 0.05012 0.55635 0.29281 0.0
C11 C 0.06337 0.54941 0.3291 0.0
C12 C 0.99915 0.53362 0.28232 0.0
C13 C 0.96424 0.52446 0.31007 0.0
C14 C 0.91642 0.50244 0.29985 0.0
C15 C 0.90344 0.49074 0.26198 0.0
C16 C 0.93737 0.50044 0.23419 0.0
C17 C 0.98492 0.52105 0.24427 0.0
H18 H 0.58797 0.17174 0.50381 0.0
H19 H 0.51064 0.06842 0.42019 0.0
H20 H 0.53249 0.03192 0.53323 0.0
H21 H 0.46053 0.97063 0.52238 0.0
H22 H 0.41801 0.86421 0.44041 0.0
H23 H 0.51047 1.00293 0.40595 0.0
C24 C 0.56885 0.13604 0.49565 0.0
C25 C 0.56118 0.1029 0.52242 0.0
C26 C 0.55145 0.12378 0.45873 0.0
C27 C 0.52537 0.07743 0.44854 0.0
C28 C 0.51761 0.04327 0.47532 0.0
C29 C 0.53675 0.05683 0.51215 0.0
C30 C 0.48933 0.9937 0.46543 0.0
C31 C 0.4624 0.96064 0.49354 0.0
C32 C 0.43781 0.91403 0.48465 0.0
C33 C 0.43773 0.90027 0.44736 0.0
C34 C 0.46298 0.93227 0.41895 0.0
C35 C 0.48959 0.9788 0.42805 0.0
H36 H 0.57975 0.4241 0.59777 0.0
H37 H 0.50419 0.45525 0.67922 0.0
H38 H 0.53508 0.51716 0.56723 0.0
H39 H 0.46115 0.50853 0.5781 0.0
H40 H 0.42379 0.57526 0.66203 0.0
H41 H 0.51538 0.52694 0.69305 0.0
C42 C 0.56191 0.44218 0.60519 0.0
C43 C 0.55866 0.47045 0.57834 0.0
C44 C 0.54317 0.43733 0.6416 0.0
C45 C 0.51963 0.46028 0.65116 0.0
C46 C 0.51589 0.48917 0.62439 0.0
C47 C 0.53626 0.49441 0.58802 0.0
C48 C 0.49105 0.51384 0.63439 0.0
C49 C 0.4641 0.52084 0.60692 0.0
C50 C 0.43988 0.54305 0.61694 0.0
C51 C 0.44261 0.55826 0.65418 0.0
C52 C 0.46962 0.5525 0.68139 0.0
C53 C 0.49401 0.53055 0.67164 0.0
H54 H 0.1819 0.57201 0.75687 0.0
H55 H 0.0764 0.501 0.84197 0.0
H56 H 0.03732 0.52085 0.72884 0.0
H57 H 0.97082 0.45395 0.7418 0.0
H58 H 0.86658 0.40865 0.82978 0.0
H59 H 1.01111 0.50009 0.85822 0.0
C60 C 0.14506 0.55405 0.76532 0.0
C61 C 0.11083 0.54735 0.73884 0.0
C62 C 0.13278 0.53823 0.80251 0.0
C63 C 0.08511 0.5143 0.8133 0.0
C64 C 0.04943 0.50703 0.78696 0.0
C65 C 0.06316 0.52459 0.74963 0.0
C66 C 0.99836 0.48092 0.79833 0.0
C67 C 0.96237 0.45524 0.77133 0.0
C68 C 0.91485 0.42971 0.7827 0.0
C69 C 0.90316 0.42911 0.82086 0.0
C70 C 0.93779 0.45385 0.84785 0.0
C71 C 0.98511 0.48036 0.83671 0.0
H72 H 0.45877 0.86541 0.00477 0.0
H73 H 0.5353 0.97085 0.92215 0.0
H74 H 0.51174 1.00453 0.03557 0.0
H75 H 0.58692 0.06567 0.02384 0.0
H76 H 0.62585 0.17378 0.94376 0.0
H77 H 0.52977 0.03573 0.90955 0.0
C78 C 0.47731 0.90124 -0.00302 0.0
C79 C 0.48376 0.93363 0.02408 0.0
C80 C 0.49529 0.91443 0.96023 0.0
C81 C 0.52033 0.96095 0.9504 0.0
C82 C 0.52695 0.99433 0.97748 0.0
C83 C 0.50781 0.97995 0.01428 0.0
C84 C 0.55451 0.044 0.96795 0.0
C85 C 0.58346 0.07641 -0.00434 0.0
C86 C 0.60881 0.1231 -0.01309 0.0
C87 C 0.60598 0.13764 0.95052 0.0
C88 C 0.57802 0.10633 0.92266 0.0
C89 C 0.55203 0.05956 0.93128 0.0
H90 H 0.45433 0.60126 0.09634 0.0
H91 H 0.53391 0.57585 0.17807 0.0
H92 H 0.50438 0.51261 0.0666 0.0
H93 H 0.57414 0.51885 0.07543 0.0
H94 H 0.62128 0.45974 0.15846 0.0
H95 H 0.53548 0.51304 0.19403 0.0
C96 C 0.47295 0.58407 0.1042 0.0
C97 C 0.47842 0.5571 0.07756 0.0
C98 C 0.49202 0.59001 0.14055 0.0
C99 C 0.51768 0.56917 0.15027 0.0
C100 C 0.52294 0.54092 0.12376 0.0
C101 C 0.50205 0.53452 0.08752 0.0
C102 C 0.55049 0.51868 0.13337 0.0
C103 C 0.57417 0.50908 0.1047 0.0
C104 C 0.59855 0.4868 0.11362 0.0
C105 C 0.60146 0.47595 0.1514 0.0
C106 C 0.57959 0.48638 0.18024 0.0
C107 C 0.55339 0.50674 0.17126 0.0
C108 C 0.62272 0.30213 0.4032 0.0
O109 O 0.66278 0.32779 0.42107 0.0
O110 O 0.70891 0.41819 0.38215 0.0
Zn111 Zn 0.63767 0.38966 0.38156 0.0
O112 O 0.61689 0.40994 0.42757 0.0
C113 C 0.6168 0.44399 0.33002 0.0
O114 O 0.62919 0.4724 0.35867 0.0
O115 O 0.60536 0.32084 0.38324 0.0
C116 C 0.63968 0.45015 0.44102 0.0
O117 O 0.67924 0.48094 0.42476 0.0
C118 C 0.73294 0.43696 0.35231 0.0
O119 O 0.71168 0.43877 0.32148 0.0
O120 O 0.61712 0.4072 0.33355 0.0
C121 C 0.3323 0.74206 0.55712 0.0
O122 O 0.33373 0.727 0.59114 0.0
O123 O 0.31784 0.62346 0.53925 0.0
Zn124 Zn 0.27174 0.64537 0.53404 0.0
O125 O 0.23678 0.62296 0.4851 0.0
C126 C 0.22968 0.62127 0.6106 0.0
O127 O 0.2728 0.63665 0.62274 0.0
O128 O 0.30826 0.71416 0.53086 0.0
C129 C 0.1989 0.58445 0.48258 0.0
O130 O 0.18294 0.55721 0.5122 0.0
C131 C 0.30982 0.58863 0.55833 0.0
O132 O 0.26837 0.56313 0.57432 0.0
O133 O 0.22209 0.62273 0.57542 0.0
C134 C 0.60996 0.32825 0.69884 0.0
O135 O 0.65024 0.34391 0.68092 0.0
O136 O 0.70014 0.3054 0.71748 0.0
Zn137 Zn 0.62975 0.25906 0.71699 0.0
O138 O 0.61419 0.22355 0.66886 0.0
C139 C 0.61553 0.2215 0.79411 0.0
O140 O 0.63753 0.26423 0.80523 0.0
O141 O 0.59341 0.29179 0.71824 0.0
C142 C 0.62702 0.19472 0.66452 0.0
O143 O 0.6514 0.18934 0.69127 0.0
C144 C 0.73001 0.30152 0.73718 0.0
O145 O 0.71585 0.2647 0.75778 0.0
O146 O 0.6081 0.2122 0.75898 0.0
C147 C 0.42891 0.73791 0.90331 0.0
O148 O 0.38721 0.71269 0.91903 0.0
O149 O 0.3416 0.62442 0.88066 0.0
Zn150 Zn 0.41193 0.64953 0.88541 0.0
O151 O 0.42443 0.62791 0.93411 0.0
C152 C 0.43234 0.62919 0.80951 0.0
O153 O 0.41106 0.65021 0.79725 0.0
O154 O 0.4473 0.71862 0.88551 0.0
C155 C 0.41003 0.58582 0.93808 0.0
O156 O 0.38535 0.55691 0.91096 0.0
C157 C 0.31437 0.59171 0.85886 0.0
O158 O 0.33125 0.57069 0.83931 0.0
O159 O 0.43746 0.62638 0.84493 0.0
C160 C 0.69864 0.42131 0.0288 0.0
O161 O 0.69273 0.40443 -0.00566 0.0
O162 O 0.72475 0.32296 0.03757 0.0
Zn163 Zn 0.76687 0.39119 0.04221 0.0
O164 O 0.8093 0.40787 0.08762 0.0
C165 C 0.84263 0.41164 -0.00803 0.0
O166 O 0.85364 0.39412 0.02048 0.0
O167 O 0.72763 0.41968 0.05139 0.0
C168 C 0.84488 0.44808 0.08939 0.0
O169 O 0.85401 0.47642 0.061 0.0
C170 C 0.73104 0.29417 0.05531 0.0
O171 O 0.76565 0.3082 0.0799 0.0
O172 O 0.80614 0.41486 -0.00561 0.0
C173 C 0.42577 0.70034 0.19798 0.0
O174 O 0.38413 0.68486 0.18256 0.0
O175 O 0.34226 0.73221 0.2275 0.0
Zn176 Zn 0.41254 0.77398 0.21867 0.0
O177 O 0.42612 0.80991 0.17034 0.0
C178 C 0.41504 0.82749 0.2825 0.0
O179 O 0.36946 0.80622 0.27619 0.0
O180 O 0.44492 0.73763 0.21629 0.0
C181 C 0.41416 0.83937 0.16568 0.0
O182 O 0.39035 0.84569 0.19233 0.0
C183 C 0.31006 0.71975 0.20261 0.0
O184 O 0.32099 0.73376 0.16728 0.0
O185 O 0.44097 0.81943 0.26135 0.0
C186 C 0.19288 0.61489 0.22819 0.0
C187 C 0.17236 0.63504 0.25007 0.0
C188 C 0.23853 0.71145 0.23473 0.0
C189 C 0.2601 0.69121 0.21438 0.0
N190 N 0.25418 0.62553 0.18392 0.0
N191 N 0.16913 0.70113 0.26784 0.0
C192 C 0.23587 0.64344 0.2084 0.0
C193 C 0.19311 0.68304 0.25112 0.0
N194 N 0.17232 0.5685 0.22796 0.0
N195 N 0.26222 0.75777 0.23913 0.0
H196 H 0.13591 0.68093 0.28016 0.0
H197 H 0.1801 0.73558 0.26715 0.0
H198 H 0.29405 0.77959 0.22537 0.0
H199 H 0.25147 0.7747 0.25722 0.0
H200 H 0.18813 0.55159 0.21662 0.0
H201 H 0.13984 0.5466 0.24079 0.0
H202 H 0.23642 0.59154 0.17548 0.0
H203 H 0.28596 0.64558 0.16952 0.0
C204 C 0.6043 0.18395 0.41214 0.0
C205 C 0.56088 0.16122 0.43208 0.0
C206 C 0.55285 0.2281 0.42605 0.0
C207 C 0.5976 0.25185 0.4078 0.0
N208 N 0.65908 0.24902 0.37368 0.0
N209 N 0.48751 0.15535 0.44804 0.0
C210 C 0.62105 0.22852 0.39756 0.0
C211 C 0.53285 0.1812 0.43525 0.0
N212 N 0.63055 0.16377 0.40903 0.0
N213 N 0.53118 0.25102 0.43728 0.0
H214 H 0.47258 0.12101 0.45523 0.0
H215 H 0.46357 0.16643 0.44802 0.0
H216 H 0.54467 0.28545 0.4316 0.0
H217 H 0.50141 0.23681 0.45461 0.0
H218 H 0.66517 0.18056 0.39917 0.0
H219 H 0.61802 0.13033 0.41789 0.0
H220 H 0.67549 0.23257 0.36252 0.0
H221 H 0.67156 0.2814 0.36219 0.0
C222 C 0.42768 0.59939 0.58263 0.0
C223 C 0.41227 0.55302 0.58941 0.0
C224 C 0.33563 0.53145 0.56193 0.0
C225 C 0.34738 0.57761 0.56427 0.0
N226 N 0.40483 0.65572 0.58191 0.0
N227 N 0.35054 0.47388 0.5863 0.0
C228 C 0.39383 0.61198 0.57515 0.0
C229 C 0.36616 0.51858 0.57865 0.0
N230 N 0.4746 0.63143 0.58501 0.0
N231 N 0.29575 0.50012 0.54324 0.0
H232 H 0.37215 0.46309 0.59778 0.0
H233 H 0.31542 0.44795 0.5833 0.0
H234 H 0.27371 0.50886 0.5293 0.0
H235 H 0.28752 0.46686 0.53799 0.0
H236 H 0.48853 0.66545 0.57736 0.0
H237 H 0.49986 0.62267 0.59079 0.0
H238 H 0.43688 0.68049 0.59358 0.0
H239 H 0.38072 0.66646 0.58 0.0
C240 C 0.86214 0.35715 0.74726 0.0
C241 C 0.87522 0.40252 0.75607 0.0
C242 C 0.79442 0.38443 0.74522 0.0
C243 C 0.78063 0.33831 0.73774 0.0
N244 N 0.80425 0.28545 0.71838 0.0
N245 N 0.85912 0.46294 0.7504 0.0
C246 C 0.81557 0.32623 0.73433 0.0
C247 C 0.84307 0.41734 0.74995 0.0
N248 N 0.89323 0.34291 0.7534 0.0
N249 N 0.76139 0.39634 0.75127 0.0
H250 H 0.89477 0.4873 0.7543 0.0
H251 H 0.83831 0.47643 0.74305 0.0
H252 H 0.72521 0.37343 0.75022 0.0
H253 H 0.76981 0.42845 0.76085 0.0
H254 H 0.88379 0.30883 0.75214 0.0
H255 H 0.92807 0.36514 0.76161 0.0
H256 H 0.82912 0.27637 0.71234 0.0
H257 H 0.77079 0.26282 0.70746 0.0
C258 C 0.51622 0.8582 0.93802 0.0
C259 C 0.48803 0.87786 0.93342 0.0
C260 C 0.43126 0.81165 0.89612 0.0
C261 C 0.45411 0.78822 0.90783 0.0
N262 N 0.51853 0.78874 0.94068 0.0
N263 N 0.41985 0.87534 0.90689 0.0
C264 C 0.49739 0.81167 0.92814 0.0
C265 C 0.44631 0.85555 0.91137 0.0
N266 N 0.56052 0.88397 0.95281 0.0
N267 N 0.39534 0.79181 0.87031 0.0
H268 H 0.43114 0.90828 0.91637 0.0
H269 H 0.38609 0.85859 0.89528 0.0
H270 H 0.38423 0.75995 0.85833 0.0
H271 H 0.37966 0.80846 0.85816 0.0
H272 H 0.5847 0.87321 0.95399 0.0
H273 H 0.57458 0.91804 0.96048 0.0
H274 H 0.54687 0.80261 0.95947 0.0
H275 H 0.50595 0.75462 0.93449 0.0
C276 C 0.59636 0.43088 0.06671 0.0
C277 C 0.6219 0.47452 0.08387 0.0
C278 C 0.69484 0.48738 0.05431 0.0
C279 C 0.67075 0.44111 0.0426 0.0
N280 N 0.59902 0.36747 0.03899 0.0
N281 N 0.69501 0.54501 0.09459 0.0
C282 C 0.62139 0.41266 0.04844 0.0
C283 C 0.67099 0.50327 0.0774 0.0
N284 N 0.5482 0.40674 0.06836 0.0
N285 N 0.74036 0.51612 0.04285 0.0
H286 H 0.67819 0.5585 0.11014 0.0
H287 H 0.73162 0.56536 0.09504 0.0
H288 H 0.75845 0.50544 0.02556 0.0
H289 H 0.75877 0.55117 0.04748 0.0
H290 H 0.52718 0.37674 0.05327 0.0
H291 H 0.52897 0.41883 0.08224 0.0
H292 H 0.56446 0.34376 0.04677 0.0
H293 H 0.61592 0.35271 0.02553 0.0
C294 C 0.36266 0.85637 0.51666 0.0
C295 C 0.41236 0.87804 0.51382 0.0
C296 C 0.41051 0.81409 0.5468 0.0
C297 C 0.36052 0.79138 0.54807 0.0
N298 N 0.28997 0.79492 0.54398 0.0
N299 N 0.48468 0.88443 0.53464 0.0
C300 C 0.33691 0.814 0.53621 0.0
C301 C 0.43662 0.85926 0.5321 0.0
N302 N 0.34011 0.87544 0.49915 0.0
N303 N 0.43281 0.7914 0.55699 0.0
H304 H 0.50463 0.91731 0.5235 0.0
H305 H 0.50441 0.87462 0.55063 0.0
H306 H 0.41513 0.75838 0.56798 0.0
H307 H 0.4685 0.80403 0.55232 0.0
H308 H 0.30369 0.85892 0.49594 0.0
H309 H 0.35834 0.90756 0.48634 0.0
H310 H 0.2713 0.81125 0.53902 0.0
H311 H 0.27052 0.76411 0.55862 0.0
C312 C 0.52179 0.36041 0.66503 0.0
C313 C 0.55019 0.4083 0.66896 0.0
C314 C 0.60738 0.39936 0.70619 0.0
C315 C 0.58426 0.35294 0.69507 0.0
N316 N 0.51875 0.28819 0.66418 0.0
N317 N 0.61866 0.47429 0.69479 0.0
C318 C 0.54051 0.33273 0.67544 0.0
C319 C 0.59212 0.42799 0.6908 0.0
N320 N 0.47741 0.34186 0.65039 0.0
N321 N 0.64389 0.41579 0.73147 0.0
H322 H 0.6073 0.49586 0.68517 0.0
H323 H 0.65253 0.49145 0.70617 0.0
H324 H 0.65524 0.39517 0.74341 0.0
H325 H 0.65993 0.4483 0.74324 0.0
H326 H 0.4531 0.30695 0.64952 0.0
H327 H 0.4635 0.36193 0.64243 0.0
H328 H 0.48993 0.27312 0.64589 0.0
H329 H 0.5311 0.26664 0.67125 0.0
C330 C 0.18416 0.5162 0.83792 0.0
C331 C 0.17183 0.54913 0.82937 0.0
C332 C 0.25124 0.61079 0.84591 0.0
C333 C 0.26409 0.57791 0.8541 0.0
N334 N 0.23843 0.50001 0.87038 0.0
N335 N 0.18744 0.62532 0.8376 0.0
C336 C 0.22901 0.53074 0.85423 0.0
C337 C 0.2033 0.5956 0.83812 0.0
N338 N 0.15429 0.47154 0.82854 0.0
N339 N 0.28483 0.65596 0.84212 0.0
H340 H 0.15234 0.61468 0.83166 0.0
H341 H 0.20761 0.65897 0.84686 0.0
H342 H 0.32081 0.66898 0.84515 0.0
H343 H 0.27739 0.68024 0.83218 0.0
H344 H 0.16391 0.44701 0.82979 0.0
H345 H 0.12072 0.45953 0.81742 0.0
H346 H 0.21296 0.46569 0.87411 0.0
H347 H 0.2704 0.50984 0.88379 0.0
C348 C 0.61999 0.18116 0.03551 0.0
C349 C 0.63885 0.15849 0.01513 0.0
C350 C 0.71922 0.22138 0.02748 0.0
C351 C 0.70035 0.24505 0.04651 0.0
N352 N 0.63471 0.24338 0.07758 0.0
N353 N 0.70469 0.14998 0.0004 0.0
C354 C 0.65122 0.22345 0.05351 0.0
C355 C 0.68804 0.17623 0.01437 0.0
N356 N 0.57233 0.16328 0.03593 0.0
N357 N 0.76637 0.24312 0.01948 0.0
H358 H 0.68231 0.11694 -0.00967 0.0
H359 H 0.73987 0.15906 0.00202 0.0
H360 H 0.79049 0.27615 0.0285 0.0
H361 H 0.78135 0.22969 0.00172 0.0
H362 H 0.55645 0.18069 0.04605 0.0
H363 H 0.54855 0.13132 0.02454 0.0
H364 H 0.59978 0.22771 0.08655 0.0
H365 H 0.65698 0.27421 0.09135 0.0
C366 C 0.44315 0.59998 0.18941 0.0
C367 C 0.4848 0.61946 0.16717 0.0
C368 C 0.49348 0.69472 0.17183 0.0
C369 C 0.4504 0.67486 0.19252 0.0
N370 N 0.39191 0.61257 0.23039 0.0
N371 N 0.55678 0.68587 0.14693 0.0
C372 C 0.4278 0.62868 0.20447 0.0
C373 C 0.51259 0.66723 0.16207 0.0
N374 N 0.41704 0.55377 0.19427 0.0
N375 N 0.51416 0.73861 0.1589 0.0
H376 H 0.57103 0.66599 0.13935 0.0
H377 H 0.58071 0.72083 0.14537 0.0
H378 H 0.5012 0.75992 0.16485 0.0
H379 H 0.54237 0.75308 0.13994 0.0
H380 H 0.38331 0.53663 0.20598 0.0
H381 H 0.42861 0.53224 0.185 0.0
H382 H 0.37652 0.58036 0.24277 0.0
H383 H 0.38044 0.63313 0.24219 0.0
C384 C 0.86029 0.52141 0.32986 0.0
C385 C 0.8782 0.49183 0.32752 0.0
C386 C 0.80395 0.42837 0.35223 0.0
C387 C 0.7847 0.45703 0.35152 0.0
N388 N 0.79722 0.53272 0.35111 0.0
N389 N 0.87382 0.42244 0.34655 0.0
C390 C 0.814 0.50437 0.34425 0.0
C391 C 0.85226 0.4471 0.34257 0.0
N392 N 0.88668 0.56492 0.31621 0.0
N393 N 0.77534 0.38279 0.35938 0.0
H394 H 0.90913 0.43576 0.33928 0.0
H395 H 0.85839 0.39088 0.36005 0.0
H396 H 0.73999 0.36798 0.36698 0.0
H397 H 0.78577 0.35909 0.35595 0.0
H398 H 0.87383 0.58671 0.31257 0.0
H399 H 0.92149 0.57872 0.30719 0.0
H400 H 0.81773 0.5681 0.34924 0.0
H401 H 0.76352 0.52086 0.36208 0.0
C402 C 0.144 0.5402 0.38585 0.0
C403 C 0.125 0.56837 0.37887 0.0
C404 C 0.14772 0.60135 0.4426 0.0
C405 C 0.16881 0.57484 0.44885 0.0
N406 N 0.17982 0.51314 0.43095 0.0
N407 N 0.10083 0.61965 0.40152 0.0
C408 C 0.16435 0.54209 0.42193 0.0
C409 C 0.12412 0.59686 0.40771 0.0
N410 N 0.14394 0.51295 0.35739 0.0
N411 N 0.15148 0.63163 0.46981 0.0
H412 H 0.08474 0.61862 0.37576 0.0
H413 H 0.09474 0.63755 0.42233 0.0
H414 H 0.16528 0.6333 0.49683 0.0
H415 H 0.14233 0.65615 0.46566 0.0
H416 H 0.16178 0.49538 0.35869 0.0
H417 H 0.1271 0.50908 0.33138 0.0
H418 H 0.17414 0.48579 0.41414 0.0
H419 H 0.19599 0.51462 0.4568 0.0
C420 C 0.6258 0.13976 0.57031 0.0
C421 C 0.57702 0.11749 0.56193 0.0
C422 C 0.56119 0.13566 0.62536 0.0
C423 C 0.61039 0.16445 0.63108 0.0
N424 N 0.69033 0.19601 0.60896 0.0
N425 N 0.49783 0.09605 0.58 0.0
C426 C 0.64307 0.16654 0.60384 0.0
C427 C 0.54442 0.11534 0.58924 0.0
N428 N 0.65539 0.13523 0.54606 0.0
N429 N 0.53063 0.12713 0.65474 0.0
H430 H 0.48381 0.07992 0.55409 0.0
H431 H 0.47358 0.09866 0.59701 0.0
H432 H 0.54191 0.14096 0.68183 0.0
H433 H 0.49473 0.10295 0.65342 0.0
H434 H 0.69065 0.14714 0.55211 0.0
H435 H 0.64345 0.11581 0.52124 0.0
H436 H 0.71553 0.20293 0.58813 0.0
H437 H 0.70434 0.21611 0.63321 0.0
C438 C 0.43765 0.54137 0.74749 0.0
C439 C 0.47115 0.57032 0.72006 0.0
C440 C 0.486 0.63789 0.75569 0.0
C441 C 0.45036 0.60902 0.78197 0.0
N442 N 0.40182 0.53377 0.80921 0.0
N443 N 0.53566 0.6441 0.7022 0.0
C444 C 0.4296 0.56089 0.78013 0.0
C445 C 0.49833 0.61807 0.72576 0.0
N446 N 0.41139 0.49543 0.74101 0.0
N447 N 0.50725 0.68419 0.75901 0.0
H448 H 0.54519 0.62992 0.68025 0.0
H449 H 0.55944 0.67876 0.70607 0.0
H450 H 0.50153 0.69981 0.78214 0.0
H451 H 0.52941 0.70724 0.73849 0.0
H452 H 0.38188 0.47297 0.75696 0.0
H453 H 0.41776 0.47986 0.71822 0.0
H454 H 0.38986 0.49914 0.81129 0.0
H455 H 0.39377 0.54629 0.83312 0.0
C456 C 0.912 0.4796 0.90483 0.0
C457 C 0.923 0.44857 0.88819 0.0
C458 C 0.88034 0.39319 0.93871 0.0
C459 C 0.87117 0.42499 0.95665 0.0
N460 N 0.88721 0.50214 0.96127 0.0
N461 N 0.92821 0.38126 0.89358 0.0
C462 C 0.88967 0.46938 0.94106 0.0
C463 C 0.91088 0.40727 0.90681 0.0
N464 N 0.92127 0.51793 0.88537 0.0
N465 N 0.85726 0.34864 0.9503 0.0
H466 H 0.95057 0.39071 0.87004 0.0
H467 H 0.92428 0.35296 0.90808 0.0
H468 H 0.83226 0.33593 0.97205 0.0
H469 H 0.85902 0.32312 0.93569 0.0
H470 H 0.90879 0.53895 0.89379 0.0
H471 H 0.93921 0.52728 0.85945 0.0
H472 H 0.90427 0.53625 0.95305 0.0
H473 H 0.87169 0.49621 -0.01193 0.0
C474 C 0.41786 0.89544 0.07111 0.0
C475 C 0.46687 0.91792 0.06336 0.0
C476 C 0.48111 0.89832 0.12689 0.0
C477 C 0.43174 0.86971 0.1321 0.0
N478 N 0.35237 0.83896 0.1091 0.0
N479 N 0.54553 0.93881 0.08237 0.0
C480 C 0.39978 0.8682 0.10446 0.0
C481 C 0.49875 0.91936 0.09103 0.0
N482 N 0.38884 0.90031 0.04649 0.0
N483 N 0.51102 0.90613 0.15658 0.0
H484 H 0.56015 0.95557 0.05674 0.0
H485 H 0.56938 0.93578 0.09955 0.0
H486 H 0.49918 0.89179 0.18347 0.0
H487 H 0.54699 0.93018 0.1557 0.0
H488 H 0.35345 0.88832 0.05204 0.0
H489 H 0.40133 0.92005 0.02182 0.0
H490 H 0.3276 0.83236 0.08802 0.0
H491 H 0.33782 0.81879 0.13329 0.0
C492 C 0.6293 0.50867 0.23866 0.0
C493 C 0.58645 0.47758 0.22023 0.0
C494 C 0.56066 0.42794 0.2763 0.0
C495 C 0.60576 0.4563 0.29281 0.0
N496 N 0.68572 0.52008 0.28758 0.0
N497 N 0.51291 0.4056 0.2191 0.0
C498 C 0.64077 0.49596 0.27359 0.0
C499 C 0.5524 0.43668 0.23843 0.0
N500 N 0.65881 0.55056 0.22287 0.0
N501 N 0.52534 0.39363 0.29726 0.0
H502 H 0.50511 0.41148 0.1917 0.0
H503 H 0.4895 0.37285 0.22912 0.0
H504 H 0.53002 0.38657 0.32524 0.0
H505 H 0.49044 0.37476 0.28824 0.0
H506 H 0.68806 0.57656 0.23688 0.0
H507 H 0.65179 0.56085 0.19701 0.0
H508 H 0.71397 0.54606 0.27256 0.0
H509 H 0.69599 0.51168 0.31281 0.0
C510 C 0.48072 0.88778 0.37312 0.0
C511 C 0.46107 0.91533 0.37983 0.0
C512 C 0.4241 0.89534 0.31707 0.0
C513 C 0.43561 0.86088 0.31397 0.0
N514 N 0.47131 0.82101 0.34147 0.0
N515 N 0.41127 0.9436 0.35935 0.0
C516 C 0.46373 0.85664 0.34227 0.0
C517 C 0.43252 0.91923 0.3519 0.0
N518 N 0.51512 0.89107 0.39668 0.0
N519 N 0.40599 0.90582 0.28649 0.0
H520 H 0.41694 0.96213 0.38432 0.0
H521 H 0.38551 0.94289 0.34188 0.0
H522 H 0.40074 0.88991 0.26015 0.0
H523 H 0.40098 0.93344 0.28604 0.0
H524 H 0.53386 0.87486 0.39132 0.0
H525 H 0.52814 0.91379 0.41951 0.0
H526 H 0.48713 0.81368 0.36371 0.0
H527 H 0.45804 0.79611 0.32039 0.0
C528 C 0.62963 0.49416 0.53806 0.0
C529 C 0.58014 0.47459 0.54036 0.0
C530 C 0.57266 0.45062 0.47392 0.0
C531 C 0.62053 0.46224 0.47416 0.0
N532 N 0.69345 0.49016 0.5089 0.0
N533 N 0.50327 0.43036 0.5115 0.0
C534 C 0.64906 0.48338 0.50666 0.0
C535 C 0.55125 0.4522 0.50843 0.0
N536 N 0.6579 0.5227 0.56618 0.0
N537 N 0.54795 0.43916 0.44058 0.0
H538 H 0.4861 0.43102 0.53612 0.0
H539 H 0.48043 0.40885 0.49051 0.0
H540 H 0.56281 0.43898 0.41448 0.0
H541 H 0.51443 0.43461 0.43819 0.0
H542 H 0.69457 0.54129 0.56443 0.0
H543 H 0.64445 0.53127 0.58947 0.0
H544 H 0.71362 0.50089 0.53364 0.0
H545 H 0.70856 0.48088 0.48746 0.0
C546 C 0.12911 0.53509 0.67248 0.0
C547 C 0.12719 0.56454 0.69973 0.0
C548 C 0.18587 0.63149 0.66399 0.0
C549 C 0.19003 0.60206 0.63804 0.0
N550 N 0.15751 0.52683 0.61121 0.0
N551 N 0.14298 0.63891 0.71698 0.0
C552 C 0.15862 0.55413 0.64002 0.0
C553 C 0.15191 0.61229 0.69372 0.0
N554 N 0.10521 0.48912 0.67905 0.0
N555 N 0.21533 0.67766 0.66072 0.0
H556 H 0.11796 0.62508 0.73876 0.0
H557 H 0.15704 0.67369 0.71293 0.0
H558 H 0.23872 0.69279 0.63802 0.0
H559 H 0.21799 0.70098 0.68099 0.0
H560 H 0.10996 0.46615 0.6632 0.0
H561 H 0.08185 0.47397 0.70174 0.0
H562 H 0.13222 0.49228 0.60908 0.0
H563 H 0.17963 0.53938 0.58762 0.0
C564 C 0.55104 0.14575 0.87918 0.0
C565 C 0.57755 0.1244 0.88444 0.0
C566 C 0.61914 0.15676 0.82435 0.0
C567 C 0.59856 0.18429 0.82259 0.0
N568 N 0.54278 0.20364 0.84631 0.0
N569 N 0.63687 0.10882 0.86312 0.0
C570 C 0.56348 0.17805 0.84928 0.0
C571 C 0.61095 0.12893 0.8569 0.0
N572 N 0.51402 0.13489 0.90298 0.0
N573 N 0.64684 0.15747 0.7952 0.0
H574 H 0.63042 0.0867 0.88582 0.0
H575 H 0.66625 0.11571 0.84706 0.0
H576 H 0.6552 0.17846 0.77148 0.0
H577 H 0.65861 0.13467 0.79292 0.0
H578 H 0.49058 0.14623 0.89933 0.0
H579 H 0.50434 0.11113 0.92494 0.0
H580 H 0.52116 0.20493 0.86712 0.0
H581 H 0.54851 0.22513 0.82328 0.0
C582 C 0.41227 0.53066 0.03129 0.0
C583 C 0.46143 0.55561 0.0384 0.0
C584 C 0.47595 0.58942 0.97492 0.0
C585 C 0.42681 0.57096 0.97067 0.0
N586 N 0.3474 0.52467 -0.00557 0.0
N587 N 0.54071 0.61081 0.01834 0.0
C588 C 0.39455 0.54104 -0.00156 0.0
C589 C 0.49359 0.58507 0.01036 0.0
N590 N 0.38279 0.49726 0.05614 0.0
N591 N 0.50557 0.61041 0.94479 0.0
H592 H 0.55535 0.60802 0.04369 0.0
H593 H 0.56496 0.6371 0.00087 0.0
H594 H 0.4936 0.61354 0.91816 0.0
H595 H 0.54113 0.62062 0.945 0.0
H596 H 0.34702 0.47502 0.05108 0.0
H597 H 0.39515 0.48918 0.08041 0.0
H598 H 0.32265 0.50694 0.01569 0.0
H599 H 0.33317 0.5313 0.97058 0.0
C600 C 0.9085 0.51948 0.17608 0.0
C601 C 0.92205 0.49105 0.1941 0.0
C602 C 0.89348 0.43936 0.13962 0.0
C603 C 0.87342 0.46403 0.12447 0.0
N604 N 0.85475 0.52324 0.13205 0.0
N605 N 0.92455 0.42198 0.19529 0.0
C606 C 0.87944 0.5033 0.14342 0.0
C607 C 0.91412 0.45057 0.17639 0.0
N608 N 0.92321 0.56184 0.19045 0.0
N609 N 0.89391 0.40609 0.11852 0.0
H610 H 0.94092 0.42977 0.22185 0.0
H611 H 0.91427 0.38934 0.18581 0.0
H612 H 0.87968 0.39733 0.09127 0.0
H613 H 0.91215 0.39013 0.12652 0.0
H614 H 0.91825 0.58583 0.1764 0.0
H615 H 0.94449 0.57462 0.21456 0.0
H616 H 0.85412 0.5489 0.14744 0.0
H617 H 0.83087 0.51118 0.10955 0.0
loop_
_geom_bond_atom_site_label_1
_geom_bond_atom_site_label_2
_geom_bond_distance
_geom_bond_site_symmetry_2
_ccdc_geom_bond_type
H0 C6 0.930 . S
H1 C9 0.931 . S
H2 C11 0.931 . S
H3 C13 0.930 . S
H4 C15 0.930 . S
H5 C17 0.931 . S
C6 H0 0.930 . S
C6 C7 1.380 . S
C6 C8 1.394 . S
C7 C6 1.380 . S
C7 C11 1.382 . S
C8 C6 1.394 . S
C8 C9 1.400 . S
C9 H1 0.931 . S
C9 C8 1.400 . S
C9 C10 1.375 . S
C10 C9 1.375 . S
C10 C11 1.415 . S
C10 C12 1.501 1_455 S
C11 H2 0.931 . S
C11 C7 1.382 . S
C11 C10 1.415 . S
C12 C10 1.501 1_655 S
C12 C13 1.384 . S
C12 C17 1.408 . S
C13 H3 0.930 . S
C13 C12 1.384 . S
C13 C14 1.389 . S
C14 C13 1.389 . S
C14 C15 1.405 . S
C15 H4 0.930 . S
C15 C14 1.405 . S
C15 C16 1.364 . S
C16 C15 1.364 . S
C16 C17 1.400 . S
C17 H5 0.931 . S
C17 C12 1.408 . S
C17 C16 1.400 . S
H18 C24 0.930 . S
H19 C27 0.931 . S
H20 C29 0.931 . S
H21 C31 0.930 . S
H22 C33 0.930 . S
H23 C35 0.931 . S
C24 H18 0.930 . S
C24 C25 1.380 . S
C24 C26 1.394 . S
C25 C24 1.380 . S
C25 C29 1.382 . S
C26 C24 1.394 . S
C26 C27 1.400 . S
C27 H19 0.931 . S
C27 C26 1.400 . S
C27 C28 1.375 . S
C28 C27 1.375 . S
C28 C29 1.415 . S
C28 C30 1.501 1_545 S
C29 H20 0.931 . S
C29 C25 1.382 . S
C29 C28 1.415 . S
C30 C28 1.501 1_565 S
C30 C31 1.384 . S
C30 C35 1.408 . S
C31 H21 0.930 . S
C31 C30 1.384 . S
C31 C32 1.389 . S
C32 C31 1.389 . S
C32 C33 1.405 . S
C33 H22 0.930 . S
C33 C32 1.405 . S
C33 C34 1.364 . S
C34 C33 1.364 . S
C34 C35 1.400 . S
C35 H23 0.931 . S
C35 C30 1.408 . S
C35 C34 1.400 . S
H36 C42 0.930 . S
H37 C45 0.931 . S
H38 C47 0.931 . S
H39 C49 0.930 . S
H40 C51 0.930 . S
H41 C53 0.931 . S
C42 H36 0.930 . S
C42 C43 1.380 . S
C42 C44 1.394 . S
C43 C42 1.380 . S
C43 C47 1.382 . S
C44 C42 1.394 . S
C44 C45 1.400 . S
C45 H37 0.931 . S
C45 C44 1.400 . S
C45 C46 1.375 . S
C46 C45 1.375 . S
C46 C47 1.415 . S
C46 C48 1.501 . S
C47 H38 0.931 . S
C47 C43 1.382 . S
C47 C46 1.415 . S
C48 C46 1.501 . S
C48 C49 1.384 . S
C48 C53 1.408 . S
C49 H39 0.930 . S
C49 C48 1.384 . S
C49 C50 1.389 . S
C50 C49 1.389 . S
C50 C51 1.405 . S
C51 H40 0.930 . S
C51 C50 1.405 . S
C51 C52 1.364 . S
C52 C51 1.364 . S
C52 C53 1.400 . S
C53 H41 0.931 . S
C53 C48 1.408 . S
C53 C52 1.400 . S
H54 C60 0.930 . S
H55 C63 0.931 . S
H56 C65 0.931 . S
H57 C67 0.930 . S
H58 C69 0.930 . S
H59 C71 0.931 . S
C60 H54 0.930 . S
C60 C61 1.380 . S
C60 C62 1.394 . S
C61 C60 1.380 . S
C61 C65 1.382 . S
C62 C60 1.394 . S
C62 C63 1.400 . S
C63 H55 0.931 . S
C63 C62 1.400 . S
C63 C64 1.375 . S
C64 C63 1.375 . S
C64 C65 1.415 . S
C64 C66 1.501 1_455 S
C65 H56 0.931 . S
C65 C61 1.382 . S
C65 C64 1.415 . S
C66 C64 1.501 1_655 S
C66 C67 1.384 . S
C66 C71 1.408 . S
C67 H57 0.930 . S
C67 C66 1.384 . S
C67 C68 1.389 . S
C68 C67 1.389 . S
C68 C69 1.405 . S
C69 H58 0.930 . S
C69 C68 1.405 . S
C69 C70 1.364 . S
C70 C69 1.364 . S
C70 C71 1.400 . S
C71 H59 0.931 . S
C71 C66 1.408 . S
C71 C70 1.400 . S
H72 C78 0.930 . S
H73 C81 0.931 . S
H74 C83 0.931 . S
H75 C85 0.930 . S
H76 C87 0.930 . S
H77 C89 0.931 . S
C78 H72 0.930 . S
C78 C79 1.380 . S
C78 C80 1.394 1_554 S
C79 C78 1.380 . S
C79 C83 1.382 . S
C80 C78 1.394 1_556 S
C80 C81 1.400 . S
C81 H73 0.931 . S
C81 C80 1.400 . S
C81 C82 1.375 . S
C82 C81 1.375 . S
C82 C83 1.415 1_556 S
C82 C84 1.501 1_565 S
C83 H74 0.931 . S
C83 C79 1.382 . S
C83 C82 1.415 1_554 S
C84 C82 1.501 1_545 S
C84 C85 1.384 1_556 S
C84 C89 1.408 . S
C85 H75 0.930 . S
C85 C84 1.384 1_554 S
C85 C86 1.389 1_554 S
C86 C85 1.389 1_556 S
C86 C87 1.405 . S
C87 H76 0.930 . S
C87 C86 1.405 . S
C87 C88 1.364 . S
C88 C87 1.364 . S
C88 C89 1.400 . S
C89 H77 0.931 . S
C89 C84 1.408 . S
C89 C88 1.400 . S
H90 C96 0.930 . S
H91 C99 0.931 . S
H92 C101 0.931 . S
H93 C103 0.930 . S
H94 C105 0.930 . S
H95 C107 0.931 . S
C96 H90 0.930 . S
C96 C97 1.380 . S
C96 C98 1.394 . S
C97 C96 1.380 . S
C97 C101 1.382 . S
C98 C96 1.394 . S
C98 C99 1.400 . S
C99 H91 0.931 . S
C99 C98 1.400 . S
C99 C100 1.375 . S
C100 C99 1.375 . S
C100 C101 1.415 . S
C100 C102 1.501 . S
C101 H92 0.931 . S
C101 C97 1.382 . S
C101 C100 1.415 . S
C102 C100 1.501 . S
C102 C103 1.384 . S
C102 C107 1.408 . S
C103 H93 0.930 . S
C103 C102 1.384 . S
C103 C104 1.389 . S
C104 C103 1.389 . S
C104 C105 1.405 . S
C105 H94 0.930 . S
C105 C104 1.405 . S
C105 C106 1.364 . S
C106 C105 1.364 . S
C106 C107 1.400 . S
C107 H95 0.931 . S
C107 C102 1.408 . S
C107 C106 1.400 . S
C108 O109 1.160 . S
C108 O115 1.185 . S
O109 C108 1.160 . S
O110 Zn111 1.899 . S
O110 C118 1.284 . S
Zn111 O110 1.899 . S
Zn111 O112 2.032 . S
Zn111 O115 2.086 . S
Zn111 O120 1.977 . S
O112 Zn111 2.032 . S
O112 C116 1.278 . S
C113 O114 1.203 . S
C113 O120 1.267 . S
O114 C113 1.203 . S
O115 C108 1.185 . S
O115 Zn111 2.086 . S
C116 O112 1.278 . S
C116 O117 1.211 . S
O117 C116 1.211 . S
C118 O110 1.284 . S
C118 O119 1.273 . S
O119 C118 1.273 . S
O120 Zn111 1.977 . S
O120 C113 1.267 . S
C121 O122 1.160 . S
C121 O128 1.185 . S
O122 C121 1.160 . S
O123 Zn124 1.899 . S
O123 C131 1.284 . S
Zn124 O123 1.899 . S
Zn124 O125 2.032 . S
Zn124 O128 2.086 . S
Zn124 O133 1.977 . S
O125 Zn124 2.032 . S
O125 C129 1.278 . S
C126 O127 1.203 . S
C126 O133 1.267 . S
O127 C126 1.203 . S
O128 C121 1.185 . S
O128 Zn124 2.086 . S
C129 O125 1.278 . S
C129 O130 1.211 . S
O130 C129 1.211 . S
C131 O123 1.284 . S
C131 O132 1.273 . S
O132 C131 1.273 . S
O133 Zn124 1.977 . S
O133 C126 1.267 . S
C134 O135 1.160 . S
C134 O141 1.185 . S
O135 C134 1.160 . S
O136 Zn137 1.899 . S
O136 C144 1.284 . S
Zn137 O136 1.899 . S
Zn137 O138 2.032 . S
Zn137 O141 2.086 . S
Zn137 O146 1.977 . S
O138 Zn137 2.032 . S
O138 C142 1.278 . S
C139 O140 1.203 . S
C139 O146 1.267 . S
O140 C139 1.203 . S
O141 C134 1.185 . S
O141 Zn137 2.086 . S
C142 O138 1.278 . S
C142 O143 1.211 . S
O143 C142 1.211 . S
C144 O136 1.284 . S
C144 O145 1.273 . S
O145 C144 1.273 . S
O146 Zn137 1.977 . S
O146 C139 1.267 . S
C147 O148 1.160 . S
C147 O154 1.185 . S
O148 C147 1.160 . S
O149 Zn150 1.899 . S
O149 C157 1.284 . S
Zn150 O149 1.899 . S
Zn150 O151 2.032 . S
Zn150 O154 2.086 . S
Zn150 O159 1.977 . S
O151 Zn150 2.032 . S
O151 C155 1.278 . S
C152 O153 1.203 . S
C152 O159 1.267 . S
O153 C152 1.203 . S
O154 C147 1.185 . S
O154 Zn150 2.086 . S
C155 O151 1.278 . S
C155 O156 1.211 . S
O156 C155 1.211 . S
C157 O149 1.284 . S
C157 O158 1.273 . S
O158 C157 1.273 . S
O159 Zn150 1.977 . S
O159 C152 1.267 . S
C160 O161 1.160 . S
C160 O167 1.185 . S
O161 C160 1.160 . S
O162 Zn163 1.899 . S
O162 C170 1.284 . S
Zn163 O162 1.899 . S
Zn163 O164 2.032 . S
Zn163 O167 2.086 . S
Zn163 O172 1.977 . S
O164 Zn163 2.032 . S
O164 C168 1.278 . S
C165 O166 1.203 1_556 S
C165 O172 1.267 1_556 S
O166 C165 1.203 1_554 S
O167 C160 1.185 . S
O167 Zn163 2.086 . S
C168 O164 1.278 . S
C168 O169 1.211 . S
O169 C168 1.211 . S
C170 O162 1.284 . S
C170 O171 1.273 . S
O171 C170 1.273 . S
O172 Zn163 1.977 . S
O172 C165 1.267 1_554 S
C173 O174 1.160 . S
C173 O180 1.185 . S
O174 C173 1.160 . S
O175 Zn176 1.899 . S
O175 C183 1.284 . S
Zn176 O175 1.899 . S
Zn176 O177 2.032 . S
Zn176 O180 2.086 . S
Zn176 O185 1.977 . S
O177 Zn176 2.032 . S
O177 C181 1.278 . S
C178 O179 1.203 . S
C178 O185 1.267 . S
O179 C178 1.203 . S
O180 C173 1.185 . S
O180 Zn176 2.086 . S
C181 O177 1.278 . S
C181 O182 1.211 . S
O182 C181 1.211 . S
C183 O175 1.284 . S
C183 O184 1.273 . S
O184 C183 1.273 . S
O185 Zn176 1.977 . S
O185 C178 1.267 . S
C186 C187 1.363 . S
C186 C192 1.379 . S
C186 N194 1.356 . S
C187 C186 1.363 . S
C187 C193 1.363 . S
C188 C189 1.363 . S
C188 C193 1.379 . S
C188 N195 1.356 . S
C189 C188 1.363 . S
C189 C192 1.363 . S
N190 C192 1.356 . S
N190 H202 0.984 . S
N190 H203 0.985 . S
N191 C193 1.356 . S
N191 H196 0.984 . S
N191 H197 0.985 . S
C192 C186 1.379 . S
C192 C189 1.363 . S
C192 N190 1.356 . S
C193 C187 1.363 . S
C193 C188 1.379 . S
C193 N191 1.356 . S
N194 C186 1.356 . S
N194 H200 0.984 . S
N194 H201 0.984 . S
N195 C188 1.356 . S
N195 H198 0.984 . S
N195 H199 0.985 . S
H196 N191 0.984 . S
H197 N191 0.985 . S
H198 N195 0.984 . S
H199 N195 0.985 . S
H200 N194 0.984 . S
H201 N194 0.984 . S
H202 N190 0.984 . S
H203 N190 0.985 . S
C204 C205 1.363 . S
C204 C210 1.379 . S
C204 N212 1.356 . S
C205 C204 1.363 . S
C205 C211 1.363 . S
C206 C207 1.363 . S
C206 C211 1.379 . S
C206 N213 1.356 . S
C207 C206 1.363 . S
C207 C210 1.363 . S
N208 C210 1.356 . S
N208 H220 0.984 . S
N208 H221 0.985 . S
N209 C211 1.356 . S
N209 H214 0.984 . S
N209 H215 0.985 . S
C210 C204 1.379 . S
C210 C207 1.363 . S
C210 N208 1.356 . S
C211 C205 1.363 . S
C211 C206 1.379 . S
C211 N209 1.356 . S
N212 C204 1.356 . S
N212 H218 0.984 . S
N212 H219 0.984 . S
N213 C206 1.356 . S
N213 H216 0.984 . S
N213 H217 0.985 . S
H214 N209 0.984 . S
H215 N209 0.985 . S
H216 N213 0.984 . S
H217 N213 0.985 . S
H218 N212 0.984 . S
H219 N212 0.984 . S
H220 N208 0.984 . S
H221 N208 0.985 . S
C222 C223 1.363 . S
C222 C228 1.379 . S
C222 N230 1.356 . S
C223 C222 1.363 . S
C223 C229 1.363 . S
C224 C225 1.363 . S
C224 C229 1.379 . S
C224 N231 1.356 . S
C225 C224 1.363 . S
C225 C228 1.363 . S
N226 C228 1.356 . S
N226 H238 0.984 . S
N226 H239 0.985 . S
N227 C229 1.356 . S
N227 H232 0.984 . S
N227 H233 0.985 . S
C228 C222 1.379 . S
C228 C225 1.363 . S
C228 N226 1.356 . S
C229 C223 1.363 . S
C229 C224 1.379 . S
C229 N227 1.356 . S
N230 C222 1.356 . S
N230 H236 0.984 . S
N230 H237 0.984 . S
N231 C224 1.356 . S
N231 H234 0.984 . S
N231 H235 0.985 . S
H232 N227 0.984 . S
H233 N227 0.985 . S
H234 N231 0.984 . S
H235 N231 0.985 . S
H236 N230 0.984 . S
H237 N230 0.984 . S
H238 N226 0.984 . S
H239 N226 0.985 . S
C240 C241 1.363 . S
C240 C246 1.379 . S
C240 N248 1.356 . S
C241 C240 1.363 . S
C241 C247 1.363 . S
C242 C243 1.363 . S
C242 C247 1.379 . S
C242 N249 1.356 . S
C243 C242 1.363 . S
C243 C246 1.363 . S
N244 C246 1.356 . S
N244 H256 0.984 . S
N244 H257 0.985 . S
N245 C247 1.356 . S
N245 H250 0.984 . S
N245 H251 0.985 . S
C246 C240 1.379 . S
C246 C243 1.363 . S
C246 N244 1.356 . S
C247 C241 1.363 . S
C247 C242 1.379 . S
C247 N245 1.356 . S
N248 C240 1.356 . S
N248 H254 0.984 . S
N248 H255 0.984 . S
N249 C242 1.356 . S
N249 H252 0.984 . S
N249 H253 0.985 . S
H250 N245 0.984 . S
H251 N245 0.985 . S
H252 N249 0.984 . S
H253 N249 0.985 . S
H254 N248 0.984 . S
H255 N248 0.984 . S
H256 N244 0.984 . S
H257 N244 0.985 . S
C258 C259 1.363 . S
C258 C264 1.379 . S
C258 N266 1.356 1_556 S
C259 C258 1.363 . S
C259 C265 1.363 . S
C260 C261 1.363 . S
C260 C265 1.379 . S
C260 N267 1.356 . S
C261 C260 1.363 . S
C261 C264 1.363 . S
N262 C264 1.356 . S
N262 H274 0.984 1_556 S
N262 H275 0.985 . S
N263 C265 1.356 . S
N263 H268 0.984 . S
N263 H269 0.985 . S
C264 C258 1.379 . S
C264 C261 1.363 . S
C264 N262 1.356 . S
C265 C259 1.363 . S
C265 C260 1.379 . S
C265 N263 1.356 . S
N266 C258 1.356 1_554 S
N266 H272 0.984 . S
N266 H273 0.984 . S
N267 C260 1.356 . S
N267 H270 0.984 . S
N267 H271 0.985 . S
H268 N263 0.984 . S
H269 N263 0.985 . S
H270 N267 0.984 . S
H271 N267 0.985 . S
H272 N266 0.984 . S
H273 N266 0.984 . S
H274 N262 0.984 1_554 S
H275 N262 0.985 . S
C276 C277 1.363 . S
C276 C282 1.379 . S
C276 N284 1.356 . S
C277 C276 1.363 . S
C277 C283 1.363 . S
C278 C279 1.363 . S
C278 C283 1.379 . S
C278 N285 1.356 . S
C279 C278 1.363 . S
C279 C282 1.363 . S
N280 C282 1.356 . S
N280 H292 0.984 . S
N280 H293 0.985 . S
N281 C283 1.356 . S
N281 H286 0.984 . S
N281 H287 0.985 . S
C282 C276 1.379 . S
C282 C279 1.363 . S
C282 N280 1.356 . S
C283 C277 1.363 . S
C283 C278 1.379 . S
C283 N281 1.356 . S
N284 C276 1.356 . S
N284 H290 0.984 . S
N284 H291 0.984 . S
N285 C278 1.356 . S
N285 H288 0.984 . S
N285 H289 0.985 . S
H286 N281 0.984 . S
H287 N281 0.985 . S
H288 N285 0.984 . S
H289 N285 0.985 . S
H290 N284 0.984 . S
H291 N284 0.984 . S
H292 N280 0.984 . S
H293 N280 0.985 . S
C294 C295 1.363 . S
C294 C300 1.379 . S
C294 N302 1.356 . S
C295 C294 1.363 . S
C295 C301 1.363 . S
C296 C297 1.363 . S
C296 C301 1.379 . S
C296 N303 1.356 . S
C297 C296 1.363 . S
C297 C300 1.363 . S
N298 C300 1.356 . S
N298 H310 0.984 . S
N298 H311 0.985 . S
N299 C301 1.356 . S
N299 H304 0.984 . S
N299 H305 0.985 . S
C300 C294 1.379 . S
C300 C297 1.363 . S
C300 N298 1.356 . S
C301 C295 1.363 . S
C301 C296 1.379 . S
C301 N299 1.356 . S
N302 C294 1.356 . S
N302 H308 0.984 . S
N302 H309 0.984 . S
N303 C296 1.356 . S
N303 H306 0.984 . S
N303 H307 0.985 . S
H304 N299 0.984 . S
H305 N299 0.985 . S
H306 N303 0.984 . S
H307 N303 0.985 . S
H308 N302 0.984 . S
H309 N302 0.984 . S
H310 N298 0.984 . S
H311 N298 0.985 . S
C312 C313 1.363 . S
C312 C318 1.379 . S
C312 N320 1.356 . S
C313 C312 1.363 . S
C313 C319 1.363 . S
C314 C315 1.363 . S
C314 C319 1.379 . S
C314 N321 1.356 . S
C315 C314 1.363 . S
C315 C318 1.363 . S
N316 C318 1.356 . S
N316 H328 0.984 . S
N316 H329 0.985 . S
N317 C319 1.356 . S
N317 H322 0.984 . S
N317 H323 0.985 . S
C318 C312 1.379 . S
C318 C315 1.363 . S
C318 N316 1.356 . S
C319 C313 1.363 . S
C319 C314 1.379 . S
C319 N317 1.356 . S
N320 C312 1.356 . S
N320 H326 0.984 . S
N320 H327 0.984 . S
N321 C314 1.356 . S
N321 H324 0.984 . S
N321 H325 0.985 . S
H322 N317 0.984 . S
H323 N317 0.985 . S
H324 N321 0.984 . S
H325 N321 0.985 . S
H326 N320 0.984 . S
H327 N320 0.984 . S
H328 N316 0.984 . S
H329 N316 0.985 . S
C330 C331 1.363 . S
C330 C336 1.379 . S
C330 N338 1.356 . S
C331 C330 1.363 . S
C331 C337 1.363 . S
C332 C333 1.363 . S
C332 C337 1.379 . S
C332 N339 1.356 . S
C333 C332 1.363 . S
C333 C336 1.363 . S
N334 C336 1.356 . S
N334 H346 0.984 . S
N334 H347 0.985 . S
N335 C337 1.356 . S
N335 H340 0.984 . S
N335 H341 0.985 . S
C336 C330 1.379 . S
C336 C333 1.363 . S
C336 N334 1.356 . S
C337 C331 1.363 . S
C337 C332 1.379 . S
C337 N335 1.356 . S
N338 C330 1.356 . S
N338 H344 0.984 . S
N338 H345 0.984 . S
N339 C332 1.356 . S
N339 H342 0.984 . S
N339 H343 0.985 . S
H340 N335 0.984 . S
H341 N335 0.985 . S
H342 N339 0.984 . S
H343 N339 0.985 . S
H344 N338 0.984 . S
H345 N338 0.984 . S
H346 N334 0.984 . S
H347 N334 0.985 . S
C348 C349 1.363 . S
C348 C354 1.379 . S
C348 N356 1.356 . S
C349 C348 1.363 . S
C349 C355 1.363 1_554 S
C350 C351 1.363 . S
C350 C355 1.379 1_554 S
C350 N357 1.356 1_554 S
C351 C350 1.363 . S
C351 C354 1.363 . S
N352 C354 1.356 . S
N352 H364 0.984 . S
N352 H365 0.985 . S
N353 C355 1.356 . S
N353 H358 0.984 . S
N353 H359 0.985 . S
C354 C348 1.379 . S
C354 C351 1.363 . S
C354 N352 1.356 . S
C355 C349 1.363 1_556 S
C355 C350 1.379 1_556 S
C355 N353 1.356 . S
N356 C348 1.356 . S
N356 H362 0.984 . S
N356 H363 0.984 . S
N357 C350 1.356 1_556 S
N357 H360 0.984 1_556 S
N357 H361 0.985 . S
H358 N353 0.984 . S
H359 N353 0.985 . S
H360 N357 0.984 1_554 S
H361 N357 0.985 . S
H362 N356 0.984 . S
H363 N356 0.984 . S
H364 N352 0.984 . S
H365 N352 0.985 . S
C366 C367 1.363 . S
C366 C372 1.379 . S
C366 N374 1.356 . S
C367 C366 1.363 . S
C367 C373 1.363 . S
C368 C369 1.363 . S
C368 C373 1.379 . S
C368 N375 1.356 . S
C369 C368 1.363 . S
C369 C372 1.363 . S
N370 C372 1.356 . S
N370 H382 0.984 . S
N370 H383 0.985 . S
N371 C373 1.356 . S
N371 H376 0.984 . S
N371 H377 0.985 . S
C372 C366 1.379 . S
C372 C369 1.363 . S
C372 N370 1.356 . S
C373 C367 1.363 . S
C373 C368 1.379 . S
C373 N371 1.356 . S
N374 C366 1.356 . S
N374 H380 0.984 . S
N374 H381 0.984 . S
N375 C368 1.356 . S
N375 H378 0.984 . S
N375 H379 0.985 . S
H376 N371 0.984 . S
H377 N371 0.985 . S
H378 N375 0.984 . S
H379 N375 0.985 . S
H380 N374 0.984 . S
H381 N374 0.984 . S
H382 N370 0.984 . S
H383 N370 0.985 . S
C384 C385 1.363 . S
C384 C390 1.379 . S
C384 N392 1.356 . S
C385 C384 1.363 . S
C385 C391 1.363 . S
C386 C387 1.363 . S
C386 C391 1.379 . S
C386 N393 1.356 . S
C387 C386 1.363 . S
C387 C390 1.363 . S
N388 C390 1.356 . S
N388 H400 0.984 . S
N388 H401 0.985 . S
N389 C391 1.356 . S
N389 H394 0.984 . S
N389 H395 0.985 . S
C390 C384 1.379 . S
C390 C387 1.363 . S
C390 N388 1.356 . S
C391 C385 1.363 . S
C391 C386 1.379 . S
C391 N389 1.356 . S
N392 C384 1.356 . S
N392 H398 0.984 . S
N392 H399 0.984 . S
N393 C386 1.356 . S
N393 H396 0.984 . S
N393 H397 0.985 . S
H394 N389 0.984 . S
H395 N389 0.985 . S
H396 N393 0.984 . S
H397 N393 0.985 . S
H398 N392 0.984 . S
H399 N392 0.984 . S
H400 N388 0.984 . S
H401 N388 0.985 . S
C402 C403 1.363 . S
C402 C408 1.379 . S
C402 N410 1.356 . S
C403 C402 1.363 . S
C403 C409 1.363 . S
C404 C405 1.363 . S
C404 C409 1.379 . S
C404 N411 1.356 . S
C405 C404 1.363 . S
C405 C408 1.363 . S
N406 C408 1.356 . S
N406 H418 0.984 . S
N406 H419 0.985 . S
N407 C409 1.356 . S
N407 H412 0.984 . S
N407 H413 0.985 . S
C408 C402 1.379 . S
C408 C405 1.363 . S
C408 N406 1.356 . S
C409 C403 1.363 . S
C409 C404 1.379 . S
C409 N407 1.356 . S
N410 C402 1.356 . S
N410 H416 0.984 . S
N410 H417 0.984 . S
N411 C404 1.356 . S
N411 H414 0.984 . S
N411 H415 0.985 . S
H412 N407 0.984 . S
H413 N407 0.985 . S
H414 N411 0.984 . S
H415 N411 0.985 . S
H416 N410 0.984 . S
H417 N410 0.984 . S
H418 N406 0.984 . S
H419 N406 0.985 . S
C420 C421 1.363 . S
C420 C426 1.379 . S
C420 N428 1.356 . S
C421 C420 1.363 . S
C421 C427 1.363 . S
C422 C423 1.363 . S
C422 C427 1.379 . S
C422 N429 1.356 . S
C423 C422 1.363 . S
C423 C426 1.363 . S
N424 C426 1.356 . S
N424 H436 0.984 . S
N424 H437 0.985 . S
N425 C427 1.356 . S
N425 H430 0.984 . S
N425 H431 0.985 . S
C426 C420 1.379 . S
C426 C423 1.363 . S
C426 N424 1.356 . S
C427 C421 1.363 . S
C427 C422 1.379 . S
C427 N425 1.356 . S
N428 C420 1.356 . S
N428 H434 0.984 . S
N428 H435 0.984 . S
N429 C422 1.356 . S
N429 H432 0.984 . S
N429 H433 0.985 . S
H430 N425 0.984 . S
H431 N425 0.985 . S
H432 N429 0.984 . S
H433 N429 0.985 . S
H434 N428 0.984 . S
H435 N428 0.984 . S
H436 N424 0.984 . S
H437 N424 0.985 . S
C438 C439 1.363 . S
C438 C444 1.379 . S
C438 N446 1.356 . S
C439 C438 1.363 . S
C439 C445 1.363 . S
C440 C441 1.363 . S
C440 C445 1.379 . S
C440 N447 1.356 . S
C441 C440 1.363 . S
C441 C444 1.363 . S
N442 C444 1.356 . S
N442 H454 0.984 . S
N442 H455 0.985 . S
N443 C445 1.356 . S
N443 H448 0.984 . S
N443 H449 0.985 . S
C444 C438 1.379 . S
C444 C441 1.363 . S
C444 N442 1.356 . S
C445 C439 1.363 . S
C445 C440 1.379 . S
C445 N443 1.356 . S
N446 C438 1.356 . S
N446 H452 0.984 . S
N446 H453 0.984 . S
N447 C440 1.356 . S
N447 H450 0.984 . S
N447 H451 0.985 . S
H448 N443 0.984 . S
H449 N443 0.985 . S
H450 N447 0.984 . S
H451 N447 0.985 . S
H452 N446 0.984 . S
H453 N446 0.984 . S
H454 N442 0.984 . S
H455 N442 0.985 . S
C456 C457 1.363 . S
C456 C462 1.379 . S
C456 N464 1.356 . S
C457 C456 1.363 . S
C457 C463 1.363 . S
C458 C459 1.363 . S
C458 C463 1.379 . S
C458 N465 1.356 . S
C459 C458 1.363 . S
C459 C462 1.363 . S
N460 C462 1.356 1_554 S
N460 H472 0.984 . S
N460 H473 0.985 . S
N461 C463 1.356 . S
N461 H466 0.984 . S
N461 H467 0.985 . S
C462 C456 1.379 . S
C462 C459 1.363 . S
C462 N460 1.356 1_556 S
C463 C457 1.363 . S
C463 C458 1.379 . S
C463 N461 1.356 . S
N464 C456 1.356 . S
N464 H470 0.984 . S
N464 H471 0.984 . S
N465 C458 1.356 . S
N465 H468 0.984 . S
N465 H469 0.985 . S
H466 N461 0.984 . S
H467 N461 0.985 . S
H468 N465 0.984 . S
H469 N465 0.985 . S
H470 N464 0.984 . S
H471 N464 0.984 . S
H472 N460 0.984 . S
H473 N460 0.985 . S
C474 C475 1.363 . S
C474 C480 1.379 . S
C474 N482 1.356 . S
C475 C474 1.363 . S
C475 C481 1.363 . S
C476 C477 1.363 . S
C476 C481 1.379 . S
C476 N483 1.356 . S
C477 C476 1.363 . S
C477 C480 1.363 . S
N478 C480 1.356 . S
N478 H490 0.984 . S
N478 H491 0.985 . S
N479 C481 1.356 . S
N479 H484 0.984 . S
N479 H485 0.985 . S
C480 C474 1.379 . S
C480 C477 1.363 . S
C480 N478 1.356 . S
C481 C475 1.363 . S
C481 C476 1.379 . S
C481 N479 1.356 . S
N482 C474 1.356 . S
N482 H488 0.984 . S
N482 H489 0.984 . S
N483 C476 1.356 . S
N483 H486 0.984 . S
N483 H487 0.985 . S
H484 N479 0.984 . S
H485 N479 0.985 . S
H486 N483 0.984 . S
H487 N483 0.985 . S
H488 N482 0.984 . S
H489 N482 0.984 . S
H490 N478 0.984 . S
H491 N478 0.985 . S
C492 C493 1.363 . S
C492 C498 1.379 . S
C492 N500 1.356 . S
C493 C492 1.363 . S
C493 C499 1.363 . S
C494 C495 1.363 . S
C494 C499 1.379 . S
C494 N501 1.356 . S
C495 C494 1.363 . S
C495 C498 1.363 . S
N496 C498 1.356 . S
N496 H508 0.984 . S
N496 H509 0.985 . S
N497 C499 1.356 . S
N497 H502 0.984 . S
N497 H503 0.985 . S
C498 C492 1.379 . S
C498 C495 1.363 . S
C498 N496 1.356 . S
C499 C493 1.363 . S
C499 C494 1.379 . S
C499 N497 1.356 . S
N500 C492 1.356 . S
N500 H506 0.984 . S
N500 H507 0.984 . S
N501 C494 1.356 . S
N501 H504 0.984 . S
N501 H505 0.985 . S
H502 N497 0.984 . S
H503 N497 0.985 . S
H504 N501 0.984 . S
H505 N501 0.985 . S
H506 N500 0.984 . S
H507 N500 0.984 . S
H508 N496 0.984 . S
H509 N496 0.985 . S
C510 C511 1.363 . S
C510 C516 1.379 . S
C510 N518 1.356 . S
C511 C510 1.363 . S
C511 C517 1.363 . S
C512 C513 1.363 . S
C512 C517 1.379 . S
C512 N519 1.356 . S
C513 C512 1.363 . S
C513 C516 1.363 . S
N514 C516 1.356 . S
N514 H526 0.984 . S
N514 H527 0.985 . S
N515 C517 1.356 . S
N515 H520 0.984 . S
N515 H521 0.985 . S
C516 C510 1.379 . S
C516 C513 1.363 . S
C516 N514 1.356 . S
C517 C511 1.363 . S
C517 C512 1.379 . S
C517 N515 1.356 . S
N518 C510 1.356 . S
N518 H524 0.984 . S
N518 H525 0.984 . S
N519 C512 1.356 . S
N519 H522 0.984 . S
N519 H523 0.985 . S
H520 N515 0.984 . S
H521 N515 0.985 . S
H522 N519 0.984 . S
H523 N519 0.985 . S
H524 N518 0.984 . S
H525 N518 0.984 . S
H526 N514 0.984 . S
H527 N514 0.985 . S
C528 C529 1.363 . S
C528 C534 1.379 . S
C528 N536 1.356 . S
C529 C528 1.363 . S
C529 C535 1.363 . S
C530 C531 1.363 . S
C530 C535 1.379 . S
C530 N537 1.356 . S
C531 C530 1.363 . S
C531 C534 1.363 . S
N532 C534 1.356 . S
N532 H544 0.984 . S
N532 H545 0.985 . S
N533 C535 1.356 . S
N533 H538 0.984 . S
N533 H539 0.985 . S
C534 C528 1.379 . S
C534 C531 1.363 . S
C534 N532 1.356 . S
C535 C529 1.363 . S
C535 C530 1.379 . S
C535 N533 1.356 . S
N536 C528 1.356 . S
N536 H542 0.984 . S
N536 H543 0.984 . S
N537 C530 1.356 . S
N537 H540 0.984 . S
N537 H541 0.985 . S
H538 N533 0.984 . S
H539 N533 0.985 . S
H540 N537 0.984 . S
H541 N537 0.985 . S
H542 N536 0.984 . S
H543 N536 0.984 . S
H544 N532 0.984 . S
H545 N532 0.985 . S
C546 C547 1.363 . S
C546 C552 1.379 . S
C546 N554 1.356 . S
C547 C546 1.363 . S
C547 C553 1.363 . S
C548 C549 1.363 . S
C548 C553 1.379 . S
C548 N555 1.356 . S
C549 C548 1.363 . S
C549 C552 1.363 . S
N550 C552 1.356 . S
N550 H562 0.984 . S
N550 H563 0.985 . S
N551 C553 1.356 . S
N551 H556 0.984 . S
N551 H557 0.985 . S
C552 C546 1.379 . S
C552 C549 1.363 . S
C552 N550 1.356 . S
C553 C547 1.363 . S
C553 C548 1.379 . S
C553 N551 1.356 . S
N554 C546 1.356 . S
N554 H560 0.984 . S
N554 H561 0.984 . S
N555 C548 1.356 . S
N555 H558 0.984 . S
N555 H559 0.985 . S
H556 N551 0.984 . S
H557 N551 0.985 . S
H558 N555 0.984 . S
H559 N555 0.985 . S
H560 N554 0.984 . S
H561 N554 0.984 . S
H562 N550 0.984 . S
H563 N550 0.985 . S
C564 C565 1.363 . S
C564 C570 1.379 . S
C564 N572 1.356 . S
C565 C564 1.363 . S
C565 C571 1.363 . S
C566 C567 1.363 . S
C566 C571 1.379 . S
C566 N573 1.356 . S
C567 C566 1.363 . S
C567 C570 1.363 . S
N568 C570 1.356 . S
N568 H580 0.984 . S
N568 H581 0.985 . S
N569 C571 1.356 . S
N569 H574 0.984 . S
N569 H575 0.985 . S
C570 C564 1.379 . S
C570 C567 1.363 . S
C570 N568 1.356 . S
C571 C565 1.363 . S
C571 C566 1.379 . S
C571 N569 1.356 . S
N572 C564 1.356 . S
N572 H578 0.984 . S
N572 H579 0.984 . S
N573 C566 1.356 . S
N573 H576 0.984 . S
N573 H577 0.985 . S
H574 N569 0.984 . S
H575 N569 0.985 . S
H576 N573 0.984 . S
H577 N573 0.985 . S
H578 N572 0.984 . S
H579 N572 0.984 . S
H580 N568 0.984 . S
H581 N568 0.985 . S
C582 C583 1.363 . S
C582 C588 1.379 . S
C582 N590 1.356 . S
C583 C582 1.363 . S
C583 C589 1.363 . S
C584 C585 1.363 . S
C584 C589 1.379 1_556 S
C584 N591 1.356 . S
C585 C584 1.363 . S
C585 C588 1.363 1_556 S
N586 C588 1.356 . S
N586 H598 0.984 . S
N586 H599 0.985 1_554 S
N587 C589 1.356 . S
N587 H592 0.984 . S
N587 H593 0.985 1_554 S
C588 C582 1.379 . S
C588 C585 1.363 1_554 S
C588 N586 1.356 . S
C589 C583 1.363 . S
C589 C584 1.379 1_554 S
C589 N587 1.356 . S
N590 C582 1.356 . S
N590 H596 0.984 . S
N590 H597 0.984 . S
N591 C584 1.356 . S
N591 H594 0.984 . S
N591 H595 0.985 . S
H592 N587 0.984 . S
H593 N587 0.985 1_556 S
H594 N591 0.984 . S
H595 N591 0.985 . S
H596 N590 0.984 . S
H597 N590 0.984 . S
H598 N586 0.984 . S
H599 N586 0.985 1_556 S
C600 C601 1.363 . S
C600 C606 1.379 . S
C600 N608 1.356 . S
C601 C600 1.363 . S
C601 C607 1.363 . S
C602 C603 1.363 . S
C602 C607 1.379 . S
C602 N609 1.356 . S
C603 C602 1.363 . S
C603 C606 1.363 . S
N604 C606 1.356 . S
N604 H616 0.984 . S
N604 H617 0.985 . S
N605 C607 1.356 . S
N605 H610 0.984 . S
N605 H611 0.985 . S
C606 C600 1.379 . S
C606 C603 1.363 . S
C606 N604 1.356 . S
C607 C601 1.363 . S
C607 C602 1.379 . S
C607 N605 1.356 . S
N608 C600 1.356 . S
N608 H614 0.984 . S
N608 H615 0.984 . S
N609 C602 1.356 . S
N609 H612 0.984 . S
N609 H613 0.985 . S
H610 N605 0.984 . S
H611 N605 0.985 . S
H612 N609 0.984 . S
H613 N609 0.985 . S
H614 N608 0.984 . S
H615 N608 0.984 . S
H616 N604 0.984 . S
H617 N604 0.985 . S
C189 C183 1.571 . S
C187 C8 1.530 . S
C205 C26 1.502 . S
C207 C108 1.475 . S
C223 C50 1.532 . S
C225 C131 1.589 . S
C241 C68 1.448 . S
C243 C144 1.487 . S
C261 C147 1.498 . S
C259 C80 1.525 . S
C277 C104 1.448 . S
C279 C160 1.443 . S
C295 C32 1.452 . S
C297 C121 1.447 . S
C313 C44 1.526 . S
C315 C134 1.499 . S
C331 C62 1.448 . S
C333 C157 1.484 . S
C351 C170 1.584 . S
C349 C86 1.527 1_554 S
C369 C173 1.474 . S
C367 C98 1.502 . S
C387 C118 1.575 . S
C385 C14 1.528 . S
C403 C7 1.469 . S
C405 C129 1.473 . S
C421 C25 1.440 . S
C423 C142 1.449 . S
C441 C152 1.470 . S
C439 C52 1.458 . S
C457 C70 1.447 . S
C459 C165 1.452 . S
C477 C181 1.473 . S
C475 C79 1.467 . S
C495 C113 1.448 . S
C493 C106 1.430 . S
C513 C178 1.446 . S
C511 C34 1.429 . S
C529 C43 1.467 . S
C531 C116 1.474 . S
C549 C126 1.453 . S
C547 C61 1.443 . S
C565 C88 1.459 . S
C567 C139 1.471 . S
C583 C97 1.439 . S
C585 C155 1.448 . S
C601 C16 1.473 . S
C603 C168 1.472 . S
