# Generated by pormake.
# Topology sit, (3,6)-cn, num edge types: 1
# Building blocks:
#     Node 0, Type 0, BuildingBlock: PAMTOO_clean_linker_0, # of connection points: 3
#     Node 1, Type 0, BuildingBlock: PAMTOO_clean_linker_0, # of connection points: 3
#     Node 2, Type 0, BuildingBlock: PAMTOO_clean_linker_0, # of connection points: 3
#     Node 3, Type 0, BuildingBlock: PAMTOO_clean_linker_0, # of connection points: 3
#     Node 4, Type 1, BuildingBlock: MIDCAF_clean_sbu_0, # of connection points: 6
#     Node 5, Type 1, BuildingBlock: MIDCAF_clean_sbu_0, # of connection points: 6
#     Edge 6, Type (0, 1), BuildingBlock: TEMPAE_clean_linker_10, # of connection points: 2
#     Edge 7, Type (0, 1), BuildingBlock: TEMPAE_clean_linker_10, # of connection points: 2
#     Edge 8, Type (0, 1), BuildingBlock: TEMPAE_clean_linker_10, # of connection points: 2
#     Edge 9, Type (0, 1), BuildingBlock: TEMPAE_clean_linker_10, # of connection points: 2
#     Edge 10, Type (0, 1), BuildingBlock: TEMPAE_clean_linker_10, # of connection points: 2
#     Edge 11, Type (0, 1), BuildingBlock: TEMPAE_clean_linker_10, # of connection points: 2
#     Edge 12, Type (0, 1), BuildingBlock: TEMPAE_clean_linker_10, # of connection points: 2
#     Edge 13, Type (0, 1), BuildingBlock: TEMPAE_clean_linker_10, # of connection points: 2
#     Edge 14, Type (0, 1), BuildingBlock: TEMPAE_clean_linker_10, # of connection points: 2
#     Edge 15, Type (0, 1), BuildingBlock: TEMPAE_clean_linker_10, # of connection points: 2
#     Edge 16, Type (0, 1), BuildingBlock: TEMPAE_clean_linker_10, # of connection points: 2
#     Edge 17, Type (0, 1), BuildingBlock: TEMPAE_clean_linker_10, # of connection points: 2
# Relax obj value: 0.078
# Max RMSD: 0.181
# Mean RMSD: 0.117
data_MOF--net-sit--node1-MIDCAF_clean_sbu_0--node2-PAMTOO_clean_linker_0--edge1-TEMPAE_clean_linker_10
_symmetry_space_group_name_H-M    P1
_symmetry_Int_Tables_number       1
_symmetry_cell_setting            triclinic
loop_
_symmetry_equiv_pos_as_xyz
'x, y, z'
_cell_length_a     21.355229
_cell_length_b     33.488656
_cell_length_c     37.914965
_cell_angle_alpha  90.100889
_cell_angle_beta   89.422278
_cell_angle_gamma 86.427493
loop_
_atom_site_label
_atom_site_type_symbol
_atom_site_fract_x
_atom_site_fract_y
_atom_site_fract_z
_atom_type_partial_charge
H0 H 0.0595 0.3312 0.91621 0.0
H1 H 0.17463 0.26259 0.98995 0.0
H2 H 0.97901 0.24285 0.98166 0.0
H3 H 0.02937 0.24687 0.05202 0.0
C4 C 0.07652 0.23141 0.04785 0.0
O5 O 0.08424 0.22054 0.01291 0.0
H6 H 0.11265 0.25261 0.05479 0.0
C7 C 0.06518 0.30816 0.93612 0.0
C8 C 0.0124 0.28842 0.94712 0.0
C9 C 0.12407 0.29999 0.95167 0.0
C10 C 0.13032 0.26931 0.97695 0.0
C11 C 0.07832 0.24836 0.98719 0.0
C12 C 0.01937 0.25817 0.97258 0.0
H13 H 0.04513 0.69904 0.92111 0.0
H14 H 0.92812 0.778 0.98687 0.0
H15 H 0.12788 0.78728 0.98551 0.0
H16 H 0.06535 0.78624 0.05448 0.0
C17 C 0.02185 0.80499 0.04861 0.0
O18 O 0.0211 0.81525 0.0134 0.0
H19 H 0.98067 0.78718 0.05448 0.0
C20 C 0.04006 0.72429 0.9391 0.0
C21 C 0.09363 0.74213 0.951 0.0
C22 C 0.98032 0.73682 0.9519 0.0
C23 C 0.97398 0.76827 0.97642 0.0
C24 C 0.02716 0.78661 0.98825 0.0
C25 C 0.08692 0.77351 0.97563 0.0
H26 H 0.58418 0.91188 0.48357 0.0
H27 H 0.65674 0.80665 0.53783 0.0
H28 H 0.46139 0.84428 0.54794 0.0
H29 H 0.51274 0.81441 0.61407 0.0
C30 C 0.55433 0.79605 0.60397 0.0
O31 O 0.5498 0.79162 0.56797 0.0
H32 H 0.59683 0.81219 0.61048 0.0
C33 C 0.57685 0.88756 0.50173 0.0
C34 C 0.51653 0.88192 0.51503 0.0
C35 C 0.6272 0.86042 0.50961 0.0
C36 C 0.61794 0.82784 0.53172 0.0
C37 C 0.55832 0.82251 0.54596 0.0
C38 C 0.50758 0.8492 0.53734 0.0
H39 H 0.51363 0.12199 0.48464 0.0
H40 H 0.4423 0.22909 0.53769 0.0
H41 H 0.63744 0.19118 0.54571 0.0
H42 H 0.58642 0.2225 0.61178 0.0
C43 C 0.54544 0.2413 0.60201 0.0
O44 O 0.54965 0.24468 0.56588 0.0
H45 H 0.50226 0.22614 0.60949 0.0
C46 C 0.52129 0.14679 0.50221 0.0
C47 C 0.5818 0.15271 0.51441 0.0
C48 C 0.47117 0.17432 0.51029 0.0
C49 C 0.48088 0.20758 0.53148 0.0
C50 C 0.54068 0.21316 0.54468 0.0
C51 C 0.59113 0.18606 0.5359 0.0
Zn52 Zn 0.0006 0.09077 0.329 0.0
Zn53 Zn 0.10408 0.94336 0.32758 0.0
Zn54 Zn 0.05235 0.01717 0.32847 0.0
C55 C 0.08407 0.96453 0.25767 0.0
C56 C -0.01003 0.94148 0.36405 0.0
O57 O 0.11617 0.05496 0.35647 0.0
O58 O 0.06515 0.11458 0.35861 0.0
C59 C 0.02396 0.07168 0.25878 0.0
O60 O 0.06241 0.99735 0.27245 0.0
O61 O 0.10588 0.9358 0.27625 0.0
O62 O 0.03762 0.9189 0.3561 0.0
O63 O -0.01287 0.9787 0.35524 0.0
O64 O 0.0015 0.09996 0.27798 0.0
O65 O 0.04478 0.03844 0.27283 0.0
O66 O 0.96181 0.01863 0.35807 0.0
O67 O 0.92022 0.08036 0.35143 0.0
C68 C 0.91694 0.04554 0.36356 0.0
O69 O 0.14151 0.01498 0.3585 0.0
O70 O 0.18312 0.9533 0.35092 0.0
C71 C 0.11254 0.09193 0.36625 0.0
C72 C 0.18593 0.98787 0.36377 0.0
Zn73 Zn 0.55706 0.65143 0.83653 0.0
Zn74 Zn 0.55029 0.38252 0.83264 0.0
Zn75 Zn 0.55664 0.51693 0.83384 0.0
C76 C 0.55806 0.45757 0.77984 0.0
C77 C 0.47199 0.46139 0.86032 0.0
O78 O 0.63966 0.53434 0.86123 0.0
O79 O 0.5918 0.59117 0.84696 0.0
C80 C 0.55423 0.57794 0.78161 0.0
O81 O 0.55789 0.49575 0.7793 0.0
O82 O 0.55467 0.44128 0.81028 0.0
O83 O 0.5179 0.44237 0.84454 0.0
O84 O 0.47309 0.49941 0.86146 0.0
O85 O 0.55626 0.59334 0.8125 0.0
O86 O 0.5558 0.53976 0.78 0.0
O87 O 0.47321 0.54161 0.86171 0.0
O88 O 0.52009 0.59518 0.84794 0.0
C89 C 0.47331 0.57976 0.86283 0.0
O90 O 0.63906 0.49053 0.86013 0.0
O91 O 0.59001 0.43805 0.84547 0.0
C92 C 0.63801 0.57253 0.86237 0.0
C93 C 0.63745 0.4524 0.86023 0.0
C94 C 0.05141 0.16056 0.0636 0.0
C95 C 0.08148 0.19547 0.07175 0.0
C96 C 0.04654 0.13002 0.08873 0.0
C97 C 0.07034 0.13533 0.12303 0.0
C98 C 0.10394 0.16946 0.13057 0.0
C99 C 0.10899 0.19907 0.10486 0.0
C100 C 0.01223 0.0935 0.0793 0.0
C101 C 0.13002 0.17647 0.16681 0.0
C102 C 0.98467 0.10653 0.20524 0.0
C103 C 0.02843 0.07904 0.2205 0.0
C104 C -0.00487 0.12244 0.1718 0.0
C105 C 0.05049 0.11012 0.15289 0.0
C106 C 0.09122 0.07891 0.16641 0.0
C107 C 0.08023 0.06408 0.20048 0.0
C108 C 0.94999 0.15542 0.15845 0.0
C109 C 0.14904 0.06345 0.14633 0.0
H110 H 0.0295 0.15784 0.03812 0.0
H111 H 0.13169 0.22618 0.11132 0.0
H112 H 0.03398 0.06628 0.09201 0.0
H113 H 0.96295 0.09744 0.08882 0.0
H114 H 0.01162 0.08871 0.0503 0.0
H115 H 0.15948 0.20266 0.16745 0.0
H116 H 0.09078 0.18178 0.18601 0.0
H117 H 0.15873 0.14971 0.17569 0.0
H118 H 0.944 0.11765 0.2205 0.0
H119 H 0.11425 0.04283 0.21219 0.0
H120 H 0.93687 0.14955 0.13081 0.0
H121 H 0.97297 0.18426 0.15889 0.0
H122 H 0.90642 0.15879 0.17473 0.0
H123 H 0.14074 0.06346 0.11748 0.0
H124 H 0.16431 0.03261 0.15471 0.0
H125 H 0.18784 0.08311 0.15159 0.0
C126 C 0.0521 0.87537 0.06307 0.0
C127 C 0.02035 0.84132 0.07219 0.0
C128 C 0.05931 0.90609 0.08778 0.0
C129 C 0.03645 0.90174 0.12266 0.0
C130 C 0.00166 0.86837 0.13133 0.0
C131 C -0.00589 0.83866 0.106 0.0
C132 C 0.09484 0.94179 0.07712 0.0
C133 C 0.97667 0.86229 0.16824 0.0
C134 C 0.1238 0.93034 0.20332 0.0
C135 C 0.08031 0.95793 0.21928 0.0
C136 C 0.11303 0.91462 0.16991 0.0
C137 C 0.05771 0.92728 0.15177 0.0
C138 C 0.0177 0.95885 0.16583 0.0
C139 C 0.0289 0.97343 0.19987 0.0
C140 C 0.15748 0.88129 0.15591 0.0
C141 C 0.96021 0.97481 0.14644 0.0
H142 H 0.07324 0.87737 0.03707 0.0
H143 H 0.9703 0.81214 0.11321 0.0
H144 H 0.07605 0.96938 0.09082 0.0
H145 H 0.14483 0.93652 0.08442 0.0
H146 H 0.09285 0.94675 0.04818 0.0
H147 H 0.94683 0.83633 0.16995 0.0
H148 H 0.01644 0.85717 0.18665 0.0
H149 H 0.94861 0.8894 0.17735 0.0
H150 H 0.16423 0.91884 0.21809 0.0
H151 H -0.0049 0.99477 0.21209 0.0
H152 H 0.17012 0.88683 0.12801 0.0
H153 H 0.13411 0.85261 0.15692 0.0
H154 H 0.20133 0.87786 0.17143 0.0
H155 H 0.96875 0.97495 0.11752 0.0
H156 H 0.94534 1.00566 0.15523 0.0
H157 H 0.92105 0.95535 0.15185 0.0
C158 C 0.50285 0.73403 0.6234 0.0
C159 C 0.55669 0.75581 0.62167 0.0
C160 C 0.50172 0.69919 0.64389 0.0
C161 C 0.55563 0.68619 0.6632 0.0
C162 C 0.61159 0.70641 0.65923 0.0
C163 C 0.61148 0.74098 0.63839 0.0
C164 C 0.44147 0.67813 0.64697 0.0
C165 C 0.6701 0.69355 0.6793 0.0
C166 C 0.53155 0.64451 0.7545 0.0
C167 C 0.55014 0.60393 0.75014 0.0
C168 C 0.53187 0.67115 0.7262 0.0
C169 C 0.55036 0.65683 0.69231 0.0
C170 C 0.56629 0.61546 0.68721 0.0
C171 C 0.56613 0.58937 0.71633 0.0
C172 C 0.51408 0.71494 0.73292 0.0
C173 C 0.58527 0.59902 0.65134 0.0
H174 H 0.46079 0.74533 0.60999 0.0
H175 H 0.65344 0.75752 0.63658 0.0
H176 H 0.45096 0.6452 0.64592 0.0
H177 H 0.41864 0.68554 0.67278 0.0
H178 H 0.40807 0.68724 0.62575 0.0
H179 H 0.7117 0.70885 0.66973 0.0
H180 H 0.66275 0.70073 0.70769 0.0
H181 H 0.68021 0.66075 0.67708 0.0
H182 H 0.51699 0.65575 0.78025 0.0
H183 H 0.57998 0.55791 0.7128 0.0
H184 H 0.4749 0.72534 0.71556 0.0
H185 H 0.55449 0.73305 0.72661 0.0
H186 H 0.49959 0.72097 0.76075 0.0
H187 H 0.55193 0.61062 0.63099 0.0
H188 H 0.58739 0.56579 0.65076 0.0
H189 H 0.63224 0.60901 0.64407 0.0
C190 C 0.49159 0.29782 0.63694 0.0
C191 C 0.54516 0.28193 0.61901 0.0
C192 C 0.4937 0.33257 0.65747 0.0
C193 C 0.55068 0.35187 0.6599 0.0
C194 C 0.60319 0.33794 0.63922 0.0
C195 C 0.59988 0.30291 0.61908 0.0
C196 C 0.43656 0.34646 0.679 0.0
C197 C 0.66438 0.35809 0.64056 0.0
C198 C 0.54521 0.44783 0.71451 0.0
C199 C 0.56169 0.43246 0.74774 0.0
C200 C 0.54369 0.42232 0.68497 0.0
C201 C 0.55865 0.38074 0.68911 0.0
C202 C 0.57806 0.36566 0.72234 0.0
C203 C 0.57979 0.39173 0.75104 0.0
C204 C 0.52394 0.43959 0.64979 0.0
C205 C 0.59492 0.32162 0.72803 0.0
H206 H 0.44894 0.2819 0.6364 0.0
H207 H 0.64097 0.29081 0.60473 0.0
H208 H 0.44485 0.33919 0.70719 0.0
H209 H 0.42775 0.37936 0.67703 0.0
H210 H 0.39386 0.3319 0.67048 0.0
H211 H 0.69607 0.34871 0.61823 0.0
H212 H 0.65601 0.39112 0.64007 0.0
H213 H 0.68863 0.35009 0.66555 0.0
H214 H 0.53178 0.47942 0.71181 0.0
H215 H 0.59478 0.3799 0.77633 0.0
H216 H 0.47552 0.43148 0.64403 0.0
H217 H 0.55491 0.427 0.62832 0.0
H218 H 0.52478 0.47273 0.64947 0.0
H219 H 0.55364 0.3041 0.72259 0.0
H220 H 0.61058 0.31502 0.75538 0.0
H221 H 0.63296 0.31103 0.70953 0.0
C222 C 0.23951 0.30843 0.94158 0.0
C223 C 0.17741 0.32491 0.9424 0.0
C224 C 0.28926 0.33157 0.93142 0.0
C225 C 0.27634 0.37161 0.92046 0.0
C226 C 0.21418 0.38867 0.92181 0.0
C227 C 0.1659 0.36551 0.93367 0.0
C228 C 0.35544 0.31287 0.9316 0.0
C229 C 0.19815 0.4309 0.90937 0.0
C230 C 0.40428 0.44492 0.91128 0.0
C231 C 0.42077 0.43996 0.8757 0.0
C232 C 0.35852 0.42191 0.92663 0.0
C233 C 0.32698 0.39491 0.90532 0.0
C234 C 0.34261 0.39081 0.86905 0.0
C235 C 0.39055 0.41274 0.85488 0.0
C236 C 0.34493 0.42579 0.96568 0.0
C237 C 0.30824 0.36368 0.8451 0.0
H238 H 0.24935 0.27722 0.94811 0.0
H239 H 0.11878 0.37933 0.93562 0.0
H240 H 0.37269 0.30831 0.90411 0.0
H241 H 0.38729 0.33306 0.94477 0.0
H242 H 0.35852 0.28349 0.94525 0.0
H243 H 0.14728 0.43964 0.91206 0.0
H244 H 0.2247 0.45243 0.92455 0.0
H245 H 0.21202 0.43373 0.88124 0.0
H246 H 0.42872 0.46572 0.92728 0.0
H247 H 0.4038 0.40915 0.8273 0.0
H248 H 0.3519 0.39606 0.97844 0.0
H249 H 0.2953 0.43639 0.97024 0.0
H250 H 0.3755 0.44689 0.97875 0.0
H251 H 0.31557 0.3322 0.85391 0.0
H252 H 0.3241 0.36554 0.81718 0.0
H253 H 0.25705 0.37171 0.84645 0.0
C254 C 0.88738 0.69804 0.96645 0.0
C255 C 0.92587 0.71481 0.94104 0.0
C256 C 0.83994 0.67329 0.95641 0.0
C257 C 0.83058 0.66571 0.92015 0.0
C258 C 0.86855 0.68333 0.89442 0.0
C259 C 0.91602 0.70751 0.90521 0.0
C260 C 0.80058 0.65473 0.98453 0.0
C261 C 0.85923 0.67653 0.85547 0.0
C262 C 0.74505 0.57662 0.8881 0.0
C263 C 0.68617 0.59488 0.88006 0.0
C264 C 0.79212 0.59902 0.90251 0.0
C265 C 0.77972 0.64051 0.90878 0.0
C266 C 0.71957 0.65864 0.90194 0.0
C267 C 0.67348 0.63553 0.8879 0.0
C268 C 0.85564 0.57862 0.9099 0.0
C269 C 0.70448 0.70278 0.90824 0.0
H270 H 0.89579 0.70324 -0.00582 0.0
H271 H 0.94589 0.72058 0.88563 0.0
H272 H 0.75026 0.66378 0.9807 0.0
H273 H 0.80565 0.62164 0.98236 0.0
H274 H 0.81401 0.66354 0.01155 0.0
H275 H 0.8927 0.69255 0.83889 0.0
H276 H 0.86524 0.6441 0.84936 0.0
H277 H 0.81074 0.68678 0.84805 0.0
H278 H 0.75494 0.5452 0.88219 0.0
H279 H 0.62752 0.64959 0.88274 0.0
H280 H 0.86987 0.58501 0.9373 0.0
H281 H 0.89131 0.59057 0.89197 0.0
H282 H 0.85616 0.54569 0.9062 0.0
H283 H 0.71538 0.7108 0.9358 0.0
H284 H 0.65443 0.7118 0.90319 0.0
H285 H 0.73408 0.72045 0.8907 0.0
C286 C 0.94078 0.31172 0.89868 0.0
C287 C 0.94977 0.30324 0.93453 0.0
C288 C 0.88664 0.33348 0.88721 0.0
C289 C 0.84038 0.34697 0.91222 0.0
C290 C 0.84737 0.33633 0.94816 0.0
C291 C 0.90211 0.31452 0.95891 0.0
C292 C 0.88056 0.34383 0.84859 0.0
C293 C 0.79878 0.34993 0.97553 0.0
C294 C 0.74307 0.44145 0.88783 0.0
C295 C 0.68816 0.42581 0.87533 0.0
C296 C 0.79254 0.41613 0.90061 0.0
C297 C 0.78676 0.3742 0.90095 0.0
C298 C 0.73084 0.35833 0.88917 0.0
C299 C 0.68224 0.38433 0.87651 0.0
C300 C 0.85154 0.43418 0.91304 0.0
C301 C 0.72282 0.31383 0.88926 0.0
H302 H 0.97744 0.30271 0.87979 0.0
H303 H 0.90924 0.30837 0.9867 0.0
H304 H 0.83452 0.3355 0.83856 0.0
H305 H 0.88266 0.37662 0.84513 0.0
H306 H 0.91833 0.32854 0.83223 0.0
H307 H 0.80805 0.33577 0.00159 0.0
H308 H 0.79859 0.38288 0.97875 0.0
H309 H 0.75123 0.34289 0.96689 0.0
H310 H 0.74786 0.47344 0.88711 0.0
H311 H 0.63977 0.37196 0.86729 0.0
H312 H 0.89179 0.42354 0.89603 0.0
H313 H 0.86236 0.42434 0.94035 0.0
H314 H 0.84753 0.46741 0.91246 0.0
H315 H 0.75792 0.29857 0.87123 0.0
H316 H 0.67523 0.30646 0.88081 0.0
H317 H 0.73132 0.30147 0.91603 0.0
C318 C 0.16722 0.71646 0.90362 0.0
C319 C 0.15609 0.72519 0.93937 0.0
C320 C 0.22177 0.69438 0.8926 0.0
C321 C 0.26618 0.68071 0.918 0.0
C322 C 0.25664 0.69106 0.95397 0.0
C323 C 0.20156 0.71331 0.96426 0.0
C324 C 0.23065 0.68437 0.85393 0.0
C325 C 0.30319 0.67713 0.98173 0.0
C326 C 0.36726 0.58815 0.8914 0.0
C327 C 0.4219 0.60501 0.87933 0.0
C328 C 0.31679 0.61239 0.90513 0.0
C329 C 0.32132 0.65439 0.90682 0.0
C330 C 0.37716 0.67138 0.89576 0.0
C331 C 0.42679 0.64647 0.88218 0.0
C332 C 0.25792 0.5932 0.91682 0.0
C333 C 0.38383 0.716 0.89726 0.0
H334 H 0.13218 0.72594 0.88436 0.0
H335 H 0.19264 0.71969 0.99196 0.0
H336 H 0.27676 0.69376 0.84441 0.0
H337 H 0.23047 0.65152 0.85011 0.0
H338 H 0.19325 0.69903 0.83739 0.0
H339 H 0.29134 0.69036 0.00803 0.0
H340 H 0.30419 0.64406 0.98395 0.0
H341 H 0.35113 0.68502 0.97408 0.0
H342 H 0.36336 0.55609 0.88944 0.0
H343 H 0.46915 0.65969 0.87342 0.0
H344 H 0.21839 0.60338 0.89959 0.0
H345 H 0.24499 0.60257 0.94415 0.0
H346 H 0.26334 0.56 0.91582 0.0
H347 H 0.34993 0.73136 0.87904 0.0
H348 H 0.43184 0.72416 0.88984 0.0
H349 H 0.37265 0.72753 0.92418 0.0
C350 C 0.70462 0.84252 0.46224 0.0
C351 C 0.68801 0.8652 0.49228 0.0
C352 C 0.75676 0.85143 0.44161 0.0
C353 C 0.79295 0.88351 0.45165 0.0
C354 C 0.77803 0.90501 0.48313 0.0
C355 C 0.7251 0.89586 0.50294 0.0
C356 C 0.77107 0.82799 0.40814 0.0
C357 C 0.81681 0.93848 0.49519 0.0
C358 C 0.95301 0.89528 0.41011 0.0
C359 C 0.93911 0.92524 0.38511 0.0
C360 C 0.90573 0.88083 0.43165 0.0
C361 C 0.84324 0.89672 0.42791 0.0
C362 C 0.82878 0.92629 0.40206 0.0
C363 C 0.87696 0.93994 0.38075 0.0
C364 C 0.92284 0.84926 0.45887 0.0
C365 C 0.76274 0.94429 0.39753 0.0
H366 H 0.675 0.81913 0.45401 0.0
H367 H 0.71153 0.91337 0.52619 0.0
H368 H 0.76221 0.84772 0.38501 0.0
H369 H 0.82129 0.81731 0.40711 0.0
H370 H 0.7419 0.80181 0.40573 0.0
H371 H 0.79622 0.95432 0.51875 0.0
H372 H 0.86482 0.92636 0.50165 0.0
H373 H 0.82135 0.96032 0.47356 0.0
H374 H 0.00119 0.88378 0.41341 0.0
H375 H 0.866 0.96204 0.36056 0.0
H376 H 0.89328 0.82342 0.45578 0.0
H377 H 0.91361 0.86166 0.4857 0.0
H378 H 0.97297 0.83835 0.45697 0.0
H379 H 0.7295 0.92037 0.39448 0.0
H380 H 0.7585 0.96446 0.37434 0.0
H381 H 0.74827 0.96175 0.42146 0.0
C382 C 0.37374 0.13834 0.50478 0.0
C383 C 0.41026 0.16931 0.49383 0.0
C384 C 0.32099 0.12886 0.48554 0.0
C385 C 0.30577 0.1503 0.45431 0.0
C386 C 0.34124 0.18275 0.44406 0.0
C387 C 0.39314 0.19203 0.46416 0.0
C388 C 0.28278 0.0951 0.49789 0.0
C389 C 0.32658 0.20615 0.41085 0.0
C390 C 0.22473 0.09347 0.3833 0.0
C391 C 0.1623 0.10785 0.38781 0.0
C392 C 0.27196 0.10721 0.40473 0.0
C393 C 0.25626 0.13654 0.43086 0.0
C394 C 0.19342 0.15192 0.43493 0.0
C395 C 0.1471 0.1374 0.41325 0.0
C396 C 0.3384 0.0897 0.39989 0.0
C397 C 0.17499 0.18316 0.46252 0.0
H398 H 0.38764 0.12085 0.52776 0.0
H399 H 0.4223 0.21568 0.4557 0.0
H400 H 0.23478 0.10697 0.50524 0.0
H401 H 0.2781 0.0734 0.47615 0.0
H402 H 0.30389 0.07915 0.52098 0.0
H403 H 0.35502 0.23269 0.40834 0.0
H404 H 0.3362 0.18656 0.38753 0.0
H405 H 0.27615 0.21628 0.4103 0.0
H406 H 0.23669 0.07165 0.36282 0.0
H407 H 0.09869 0.14861 0.41669 0.0
H408 H 0.35297 0.07284 0.4239 0.0
H409 H 0.37105 0.11391 0.3963 0.0
H410 H 0.34344 0.0691 0.3769 0.0
H411 H 0.18435 0.17076 0.48919 0.0
H412 H 0.1246 0.19342 0.46109 0.0
H413 H 0.20369 0.20944 0.45937 0.0
C414 C 0.4667 0.94919 0.49902 0.0
C415 C 0.46268 0.90763 0.50204 0.0
C416 C 0.42098 0.9727 0.48076 0.0
C417 C 0.37079 0.954 0.4648 0.0
C418 C 0.36457 0.91246 0.46972 0.0
C419 C 0.41043 0.88986 0.48846 0.0
C420 C 0.42834 0.017 0.47693 0.0
C421 C 0.31205 0.89116 0.45292 0.0
C422 C 0.22295 1.00052 0.42419 0.0
C423 C 0.23696 0.99395 0.38842 0.0
C424 C 0.26838 0.99124 0.44995 0.0
C425 C 0.32899 0.97594 0.43931 0.0
C426 C 0.34508 0.97418 0.40298 0.0
C427 C 0.29847 0.98273 0.37793 0.0
C428 C 0.24912 0.99331 0.48834 0.0
C429 C 0.40929 0.95847 0.3904 0.0
H430 H 0.50682 0.96307 0.50988 0.0
H431 H 0.4075 0.85773 0.49042 0.0
H432 H 0.44367 0.02359 0.44963 0.0
H433 H 0.38283 0.03397 0.48166 0.0
H434 H 0.46351 0.02792 0.49545 0.0
H435 H 0.31151 0.85943 0.46137 0.0
H436 H 0.26598 0.9065 0.45968 0.0
H437 H 0.31744 0.89185 0.42379 0.0
H438 H 0.17501 1.00888 0.43219 0.0
H439 H 0.3089 0.97762 0.35017 0.0
H440 H 0.28852 1.00159 0.50517 0.0
H441 H 0.23507 0.9635 0.49698 0.0
H442 H 0.20847 0.01517 0.4927 0.0
H443 H 0.44657 0.9721 0.40561 0.0
H444 H 0.41689 0.9645 0.36192 0.0
H445 H 0.41436 0.92564 0.39459 0.0
C446 C 0.6313 0.08504 0.49843 0.0
C447 C 0.63548 0.12664 0.50101 0.0
C448 C 0.67719 0.06113 0.48006 0.0
C449 C 0.72774 0.07946 0.4636 0.0
C450 C 0.73398 0.12108 0.46797 0.0
C451 C 0.68792 0.14408 0.48676 0.0
C452 C 0.66975 0.01676 0.47674 0.0
C453 C 0.78694 0.14198 0.45063 0.0
C454 C 0.87734 0.03272 0.4237 0.0
C455 C 0.86489 0.03894 0.3879 0.0
C456 C 0.83067 0.04203 0.44929 0.0
C457 C 0.7704 0.05692 0.43842 0.0
C458 C 0.75587 0.05809 0.40205 0.0
C459 C 0.80373 0.04962 0.37717 0.0
C460 C 0.84824 0.04061 0.48773 0.0
C461 C 0.69204 0.07325 0.38924 0.0
H462 H 0.59102 0.07141 0.50979 0.0
H463 H 0.69098 0.17623 0.48832 0.0
H464 H 0.65515 1.00968 0.44956 0.0
H465 H 0.71507 0.99979 0.4815 0.0
H466 H 0.63402 1.00626 0.49548 0.0
H467 H 0.78725 0.17391 0.45857 0.0
H468 H 0.83284 0.12683 0.45747 0.0
H469 H 0.78234 0.14055 0.42153 0.0
H470 H 0.92501 0.02476 0.43187 0.0
H471 H 0.79453 0.05444 0.34937 0.0
H472 H 0.8083 0.03216 0.5045 0.0
H473 H 0.86119 0.07068 0.49626 0.0
H474 H 0.88914 0.01915 0.49232 0.0
H475 H 0.65428 0.06003 0.40478 0.0
H476 H 0.68552 0.0663 0.3609 0.0
H477 H 0.6867 0.1062 0.39275 0.0
loop_
_geom_bond_atom_site_label_1
_geom_bond_atom_site_label_2
_geom_bond_distance
_geom_bond_site_symmetry_2
_ccdc_geom_bond_type
H0 C7 0.929 . S
H1 C10 0.930 . S
H2 C12 0.929 . S
H3 C4 0.969 . S
C4 H3 0.969 . S
C4 O5 1.550 . S
C4 H6 0.973 . S
O5 C4 1.550 . S
O5 C11 1.412 . S
H6 C4 0.973 . S
C7 H0 0.929 . S
C7 C8 1.400 . S
C7 C9 1.364 . S
C8 C7 1.400 . S
C8 C12 1.377 1_556 S
C9 C7 1.364 . S
C9 C10 1.374 1_556 S
C10 H1 0.930 . S
C10 C9 1.374 1_554 S
C10 C11 1.383 . S
C11 O5 1.412 . S
C11 C10 1.383 . S
C11 C12 1.394 . S
C12 H2 0.929 . S
C12 C8 1.377 1_554 S
C12 C11 1.394 . S
H13 C20 0.930 . S
H14 C23 0.930 . S
H15 C25 0.929 . S
H16 C17 0.969 . S
C17 H16 0.969 . S
C17 O18 1.550 1_655 S
C17 H19 0.973 . S
O18 C17 1.550 1_455 S
O18 C24 1.412 . S
H19 C17 0.973 . S
C20 H13 0.930 . S
C20 C21 1.400 . S
C20 C22 1.364 1_455 S
C21 C20 1.400 . S
C21 C25 1.377 1_556 S
C22 C20 1.364 1_655 S
C22 C23 1.374 1_556 S
C23 H14 0.930 . S
C23 C22 1.374 1_554 S
C23 C24 1.383 1_655 S
C24 O18 1.412 . S
C24 C23 1.383 1_455 S
C24 C25 1.394 . S
C25 H15 0.929 . S
C25 C21 1.377 1_554 S
C25 C24 1.394 . S
H26 C33 0.929 . S
H27 C36 0.930 . S
H28 C38 0.929 . S
H29 C30 0.969 . S
C30 H29 0.969 . S
C30 O31 1.550 . S
C30 H32 0.973 . S
O31 C30 1.550 . S
O31 C37 1.412 . S
H32 C30 0.973 . S
C33 H26 0.929 . S
C33 C34 1.400 . S
C33 C35 1.364 . S
C34 C33 1.400 . S
C34 C38 1.377 . S
C35 C33 1.364 . S
C35 C36 1.374 . S
C36 H27 0.930 . S
C36 C35 1.374 . S
C36 C37 1.383 . S
C37 O31 1.412 . S
C37 C36 1.383 . S
C37 C38 1.394 . S
C38 H28 0.929 . S
C38 C34 1.377 . S
C38 C37 1.394 . S
H39 C46 0.929 . S
H40 C49 0.930 . S
H41 C51 0.929 . S
H42 C43 0.969 . S
C43 H42 0.969 . S
C43 O44 1.550 . S
C43 H45 0.973 . S
O44 C43 1.550 . S
O44 C50 1.412 . S
H45 C43 0.973 . S
C46 H39 0.929 . S
C46 C47 1.400 . S
C46 C48 1.364 . S
C47 C46 1.400 . S
C47 C51 1.377 . S
C48 C46 1.364 . S
C48 C49 1.374 . S
C49 H40 0.930 . S
C49 C48 1.374 . S
C49 C50 1.383 . S
C50 O44 1.412 . S
C50 C49 1.383 . S
C50 C51 1.394 . S
C51 H41 0.929 . S
C51 C47 1.377 . S
C51 C50 1.394 . S
Zn52 O58 1.920 . S
Zn52 O64 1.898 . S
Zn52 O67 1.905 1_455 S
Zn53 O61 1.905 . S
Zn53 O62 1.898 . S
Zn53 O70 1.920 . S
Zn54 O57 2.080 . S
Zn54 O60 2.114 1_545 S
Zn54 O63 2.120 1_545 S
Zn54 O65 2.120 . S
Zn54 O66 2.114 1_455 S
Zn54 O69 2.080 1_545 S
C55 O60 1.166 . S
C55 O61 1.182 . S
C56 O62 1.167 1_655 S
C56 O63 1.299 1_655 S
O57 Zn54 2.080 . S
O57 C71 1.305 . S
O58 Zn52 1.920 . S
O58 C71 1.234 . S
C59 O64 1.167 . S
C59 O65 1.299 . S
O60 Zn54 2.114 1_565 S
O60 C55 1.166 . S
O61 Zn53 1.905 . S
O61 C55 1.182 . S
O62 Zn53 1.898 . S
O62 C56 1.167 1_455 S
O63 Zn54 2.120 1_565 S
O63 C56 1.299 1_455 S
O64 Zn52 1.898 . S
O64 C59 1.167 . S
O65 Zn54 2.120 . S
O65 C59 1.299 . S
O66 Zn54 2.114 1_655 S
O66 C68 1.166 . S
O67 Zn52 1.905 1_655 S
O67 C68 1.182 . S
C68 O66 1.166 . S
C68 O67 1.182 . S
O69 Zn54 2.080 1_565 S
O69 C72 1.305 . S
O70 Zn53 1.920 . S
O70 C72 1.234 . S
C71 O57 1.305 . S
C71 O58 1.234 . S
C72 O69 1.305 . S
C72 O70 1.234 . S
Zn73 O79 1.920 . S
Zn73 O85 1.898 . S
Zn73 O88 1.905 . S
Zn74 O82 1.905 . S
Zn74 O83 1.898 . S
Zn74 O91 1.920 . S
Zn75 O78 2.080 . S
Zn75 O81 2.114 . S
Zn75 O84 2.120 . S
Zn75 O86 2.120 . S
Zn75 O87 2.114 . S
Zn75 O90 2.080 . S
C76 O81 1.166 . S
C76 O82 1.182 . S
C77 O83 1.167 . S
C77 O84 1.299 . S
O78 Zn75 2.080 . S
O78 C92 1.305 . S
O79 Zn73 1.920 . S
O79 C92 1.234 . S
C80 O85 1.167 . S
C80 O86 1.299 . S
O81 Zn75 2.114 . S
O81 C76 1.166 . S
O82 Zn74 1.905 . S
O82 C76 1.182 . S
O83 Zn74 1.898 . S
O83 C77 1.167 . S
O84 Zn75 2.120 . S
O84 C77 1.299 . S
O85 Zn73 1.898 . S
O85 C80 1.167 . S
O86 Zn75 2.120 . S
O86 C80 1.299 . S
O87 Zn75 2.114 . S
O87 C89 1.166 . S
O88 Zn73 1.905 . S
O88 C89 1.182 . S
C89 O87 1.166 . S
C89 O88 1.182 . S
O90 Zn75 2.080 . S
O90 C93 1.305 . S
O91 Zn74 1.920 . S
O91 C93 1.234 . S
C92 O78 1.305 . S
C92 O79 1.234 . S
C93 O90 1.305 . S
C93 O91 1.234 . S
C94 C95 1.391 . S
C94 C96 1.394 . S
C94 H110 0.931 . S
C95 C94 1.391 . S
C95 C99 1.376 . S
C96 C94 1.394 . S
C96 C97 1.369 . S
C96 C100 1.531 . S
C97 C96 1.369 . S
C97 C98 1.410 . S
C97 C105 1.503 . S
C98 C97 1.410 . S
C98 C99 1.392 . S
C98 C101 1.511 . S
C99 C95 1.376 . S
C99 C98 1.392 . S
C99 H111 0.929 . S
C100 C96 1.531 . S
C100 H112 0.960 . S
C100 H113 0.962 . S
C100 H114 0.960 . S
C101 C98 1.511 . S
C101 H115 0.961 . S
C101 H116 0.961 . S
C101 H117 0.961 . S
C102 C103 1.370 . S
C102 C104 1.363 . S
C102 H118 0.931 . S
C103 C102 1.370 . S
C103 C107 1.408 . S
C104 C102 1.363 . S
C104 C105 1.370 . S
C104 C108 1.524 . S
C105 C97 1.503 . S
C105 C104 1.370 . S
C105 C106 1.403 . S
C106 C105 1.403 . S
C106 C107 1.404 . S
C106 C109 1.539 . S
C107 C103 1.408 . S
C107 C106 1.404 . S
C107 H119 0.930 . S
C108 C104 1.524 . S
C108 H120 0.956 . S
C108 H121 0.961 . S
C108 H122 0.961 . S
C109 C106 1.539 . S
C109 H123 0.958 . S
C109 H124 0.961 . S
C109 H125 0.960 . S
H110 C94 0.931 . S
H111 C99 0.929 . S
H112 C100 0.960 . S
H113 C100 0.962 . S
H114 C100 0.960 . S
H115 C101 0.961 . S
H116 C101 0.961 . S
H117 C101 0.961 . S
H118 C102 0.931 . S
H119 C107 0.930 . S
H120 C108 0.956 . S
H121 C108 0.961 . S
H122 C108 0.961 . S
H123 C109 0.958 . S
H124 C109 0.961 . S
H125 C109 0.960 . S
C126 C127 1.391 1_455 S
C126 C128 1.394 . S
C126 H142 0.931 . S
C127 C126 1.391 1_655 S
C127 C131 1.376 . S
C128 C126 1.394 . S
C128 C129 1.369 1_455 S
C128 C132 1.531 . S
C129 C128 1.369 1_655 S
C129 C130 1.410 . S
C129 C137 1.503 1_655 S
C130 C129 1.410 . S
C130 C131 1.392 . S
C130 C133 1.511 . S
C131 C127 1.376 . S
C131 C130 1.392 . S
C131 H143 0.929 . S
C132 C128 1.531 . S
C132 H144 0.960 . S
C132 H145 0.962 . S
C132 H146 0.960 . S
C133 C130 1.511 . S
C133 H147 0.961 . S
C133 H148 0.961 . S
C133 H149 0.961 . S
C134 C135 1.370 . S
C134 C136 1.363 . S
C134 H150 0.931 . S
C135 C134 1.370 . S
C135 C139 1.408 1_455 S
C136 C134 1.363 . S
C136 C137 1.370 . S
C136 C140 1.524 . S
C137 C129 1.503 1_455 S
C137 C136 1.370 . S
C137 C138 1.403 1_455 S
C138 C137 1.403 1_655 S
C138 C139 1.404 . S
C138 C141 1.539 . S
C139 C135 1.408 1_655 S
C139 C138 1.404 . S
C139 H151 0.930 . S
C140 C136 1.524 . S
C140 H152 0.956 . S
C140 H153 0.961 . S
C140 H154 0.961 . S
C141 C138 1.539 . S
C141 H155 0.958 . S
C141 H156 0.961 . S
C141 H157 0.960 . S
H142 C126 0.931 . S
H143 C131 0.929 . S
H144 C132 0.960 . S
H145 C132 0.962 . S
H146 C132 0.960 . S
H147 C133 0.961 . S
H148 C133 0.961 . S
H149 C133 0.961 . S
H150 C134 0.931 . S
H151 C139 0.930 . S
H152 C140 0.956 . S
H153 C140 0.961 . S
H154 C140 0.961 . S
H155 C141 0.958 . S
H156 C141 0.961 . S
H157 C141 0.960 . S
C158 C159 1.391 . S
C158 C160 1.394 . S
C158 H174 0.931 . S
C159 C158 1.391 . S
C159 C163 1.376 . S
C160 C158 1.394 . S
C160 C161 1.369 . S
C160 C164 1.531 . S
C161 C160 1.369 . S
C161 C162 1.410 . S
C161 C169 1.503 . S
C162 C161 1.410 . S
C162 C163 1.392 . S
C162 C165 1.511 . S
C163 C159 1.376 . S
C163 C162 1.392 . S
C163 H175 0.929 . S
C164 C160 1.531 . S
C164 H176 0.960 . S
C164 H177 0.962 . S
C164 H178 0.960 . S
C165 C162 1.511 . S
C165 H179 0.961 . S
C165 H180 0.961 . S
C165 H181 0.961 . S
C166 C167 1.370 . S
C166 C168 1.363 . S
C166 H182 0.931 . S
C167 C166 1.370 . S
C167 C171 1.408 . S
C168 C166 1.363 . S
C168 C169 1.370 . S
C168 C172 1.524 . S
C169 C161 1.503 . S
C169 C168 1.370 . S
C169 C170 1.403 . S
C170 C169 1.403 . S
C170 C171 1.404 . S
C170 C173 1.539 . S
C171 C167 1.408 . S
C171 C170 1.404 . S
C171 H183 0.930 . S
C172 C168 1.524 . S
C172 H184 0.956 . S
C172 H185 0.961 . S
C172 H186 0.961 . S
C173 C170 1.539 . S
C173 H187 0.958 . S
C173 H188 0.961 . S
C173 H189 0.960 . S
H174 C158 0.931 . S
H175 C163 0.929 . S
H176 C164 0.960 . S
H177 C164 0.962 . S
H178 C164 0.960 . S
H179 C165 0.961 . S
H180 C165 0.961 . S
H181 C165 0.961 . S
H182 C166 0.931 . S
H183 C171 0.930 . S
H184 C172 0.956 . S
H185 C172 0.961 . S
H186 C172 0.961 . S
H187 C173 0.958 . S
H188 C173 0.961 . S
H189 C173 0.960 . S
C190 C191 1.391 . S
C190 C192 1.394 . S
C190 H206 0.931 . S
C191 C190 1.391 . S
C191 C195 1.376 . S
C192 C190 1.394 . S
C192 C193 1.369 . S
C192 C196 1.531 . S
C193 C192 1.369 . S
C193 C194 1.410 . S
C193 C201 1.503 . S
C194 C193 1.410 . S
C194 C195 1.392 . S
C194 C197 1.511 . S
C195 C191 1.376 . S
C195 C194 1.392 . S
C195 H207 0.929 . S
C196 C192 1.531 . S
C196 H208 0.960 . S
C196 H209 0.962 . S
C196 H210 0.960 . S
C197 C194 1.511 . S
C197 H211 0.961 . S
C197 H212 0.961 . S
C197 H213 0.961 . S
C198 C199 1.370 . S
C198 C200 1.363 . S
C198 H214 0.931 . S
C199 C198 1.370 . S
C199 C203 1.408 . S
C200 C198 1.363 . S
C200 C201 1.370 . S
C200 C204 1.524 . S
C201 C193 1.503 . S
C201 C200 1.370 . S
C201 C202 1.403 . S
C202 C201 1.403 . S
C202 C203 1.404 . S
C202 C205 1.539 . S
C203 C199 1.408 . S
C203 C202 1.404 . S
C203 H215 0.930 . S
C204 C200 1.524 . S
C204 H216 0.956 . S
C204 H217 0.961 . S
C204 H218 0.961 . S
C205 C202 1.539 . S
C205 H219 0.958 . S
C205 H220 0.961 . S
C205 H221 0.960 . S
H206 C190 0.931 . S
H207 C195 0.929 . S
H208 C196 0.960 . S
H209 C196 0.962 . S
H210 C196 0.960 . S
H211 C197 0.961 . S
H212 C197 0.961 . S
H213 C197 0.961 . S
H214 C198 0.931 . S
H215 C203 0.930 . S
H216 C204 0.956 . S
H217 C204 0.961 . S
H218 C204 0.961 . S
H219 C205 0.958 . S
H220 C205 0.961 . S
H221 C205 0.960 . S
C222 C223 1.391 . S
C222 C224 1.394 . S
C222 H238 0.931 . S
C223 C222 1.391 . S
C223 C227 1.376 . S
C224 C222 1.394 . S
C224 C225 1.369 . S
C224 C228 1.531 . S
C225 C224 1.369 . S
C225 C226 1.410 . S
C225 C233 1.503 . S
C226 C225 1.410 . S
C226 C227 1.392 . S
C226 C229 1.511 . S
C227 C223 1.376 . S
C227 C226 1.392 . S
C227 H239 0.929 . S
C228 C224 1.531 . S
C228 H240 0.960 . S
C228 H241 0.962 . S
C228 H242 0.960 . S
C229 C226 1.511 . S
C229 H243 0.961 . S
C229 H244 0.961 . S
C229 H245 0.961 . S
C230 C231 1.370 . S
C230 C232 1.363 . S
C230 H246 0.931 . S
C231 C230 1.370 . S
C231 C235 1.408 . S
C232 C230 1.363 . S
C232 C233 1.370 . S
C232 C236 1.524 . S
C233 C225 1.503 . S
C233 C232 1.370 . S
C233 C234 1.403 . S
C234 C233 1.403 . S
C234 C235 1.404 . S
C234 C237 1.539 . S
C235 C231 1.408 . S
C235 C234 1.404 . S
C235 H247 0.930 . S
C236 C232 1.524 . S
C236 H248 0.956 1_556 S
C236 H249 0.961 . S
C236 H250 0.961 1_556 S
C237 C234 1.539 . S
C237 H251 0.958 . S
C237 H252 0.961 . S
C237 H253 0.960 . S
H238 C222 0.931 . S
H239 C227 0.929 . S
H240 C228 0.960 . S
H241 C228 0.962 . S
H242 C228 0.960 . S
H243 C229 0.961 . S
H244 C229 0.961 . S
H245 C229 0.961 . S
H246 C230 0.931 . S
H247 C235 0.930 . S
H248 C236 0.956 1_554 S
H249 C236 0.961 . S
H250 C236 0.961 1_554 S
H251 C237 0.958 . S
H252 C237 0.961 . S
H253 C237 0.960 . S
C254 C255 1.391 . S
C254 C256 1.394 . S
C254 H270 0.931 1_556 S
C255 C254 1.391 . S
C255 C259 1.376 . S
C256 C254 1.394 . S
C256 C257 1.369 . S
C256 C260 1.531 . S
C257 C256 1.369 . S
C257 C258 1.410 . S
C257 C265 1.503 . S
C258 C257 1.410 . S
C258 C259 1.392 . S
C258 C261 1.511 . S
C259 C255 1.376 . S
C259 C258 1.392 . S
C259 H271 0.929 . S
C260 C256 1.531 . S
C260 H272 0.960 . S
C260 H273 0.962 . S
C260 H274 0.960 1_556 S
C261 C258 1.511 . S
C261 H275 0.961 . S
C261 H276 0.961 . S
C261 H277 0.961 . S
C262 C263 1.370 . S
C262 C264 1.363 . S
C262 H278 0.931 . S
C263 C262 1.370 . S
C263 C267 1.408 . S
C264 C262 1.363 . S
C264 C265 1.370 . S
C264 C268 1.524 . S
C265 C257 1.503 . S
C265 C264 1.370 . S
C265 C266 1.403 . S
C266 C265 1.403 . S
C266 C267 1.404 . S
C266 C269 1.539 . S
C267 C263 1.408 . S
C267 C266 1.404 . S
C267 H279 0.930 . S
C268 C264 1.524 . S
C268 H280 0.956 . S
C268 H281 0.961 . S
C268 H282 0.961 . S
C269 C266 1.539 . S
C269 H283 0.958 1_556 S
C269 H284 0.961 . S
C269 H285 0.960 . S
H270 C254 0.931 1_554 S
H271 C259 0.929 . S
H272 C260 0.960 . S
H273 C260 0.962 . S
H274 C260 0.960 1_554 S
H275 C261 0.961 . S
H276 C261 0.961 . S
H277 C261 0.961 . S
H278 C262 0.931 . S
H279 C267 0.930 . S
H280 C268 0.956 . S
H281 C268 0.961 . S
H282 C268 0.961 . S
H283 C269 0.958 1_554 S
H284 C269 0.961 . S
H285 C269 0.960 . S
C286 C287 1.390 1_655 S
C286 C288 1.394 . S
C286 H302 0.931 1_655 S
C287 C286 1.390 1_455 S
C287 C291 1.370 1_455 S
C288 C286 1.394 . S
C288 C289 1.369 . S
C288 C292 1.531 . S
C289 C288 1.369 . S
C289 C290 1.410 . S
C289 C297 1.503 . S
C290 C289 1.410 . S
C290 C291 1.392 . S
C290 C293 1.511 . S
C291 C287 1.370 1_655 S
C291 C290 1.392 . S
C291 H303 0.929 1_556 S
C292 C288 1.531 . S
C292 H304 0.960 . S
C292 H305 0.962 . S
C292 H306 0.960 . S
C293 C290 1.511 . S
C293 H307 0.961 1_556 S
C293 H308 0.961 . S
C293 H309 0.961 . S
C294 C295 1.370 . S
C294 C296 1.363 . S
C294 H310 0.931 . S
C295 C294 1.370 . S
C295 C299 1.408 . S
C296 C294 1.363 . S
C296 C297 1.370 . S
C296 C300 1.524 . S
C297 C289 1.503 . S
C297 C296 1.370 . S
C297 C298 1.403 . S
C298 C297 1.403 . S
C298 C299 1.404 . S
C298 C301 1.539 . S
C299 C295 1.408 . S
C299 C298 1.404 . S
C299 H311 0.930 . S
C300 C296 1.524 . S
C300 H312 0.956 . S
C300 H313 0.961 . S
C300 H314 0.961 . S
C301 C298 1.539 . S
C301 H315 0.958 . S
C301 H316 0.961 . S
C301 H317 0.960 . S
H302 C286 0.931 1_455 S
H303 C291 0.929 1_554 S
H304 C292 0.960 . S
H305 C292 0.962 . S
H306 C292 0.960 . S
H307 C293 0.961 1_554 S
H308 C293 0.961 . S
H309 C293 0.961 . S
H310 C294 0.931 . S
H311 C299 0.930 . S
H312 C300 0.956 . S
H313 C300 0.961 . S
H314 C300 0.961 . S
H315 C301 0.958 . S
H316 C301 0.961 . S
H317 C301 0.960 . S
C318 C319 1.391 . S
C318 C320 1.394 . S
C318 H334 0.931 . S
C319 C318 1.391 . S
C319 C323 1.376 . S
C320 C318 1.394 . S
C320 C321 1.369 . S
C320 C324 1.531 . S
C321 C320 1.369 . S
C321 C322 1.410 . S
C321 C329 1.503 . S
C322 C321 1.410 . S
C322 C323 1.392 . S
C322 C325 1.511 . S
C323 C319 1.376 . S
C323 C322 1.392 . S
C323 H335 0.929 1_556 S
C324 C320 1.531 . S
C324 H336 0.960 . S
C324 H337 0.962 . S
C324 H338 0.960 . S
C325 C322 1.511 . S
C325 H339 0.961 1_556 S
C325 H340 0.961 . S
C325 H341 0.961 . S
C326 C327 1.370 . S
C326 C328 1.363 . S
C326 H342 0.931 . S
C327 C326 1.370 . S
C327 C331 1.408 . S
C328 C326 1.363 . S
C328 C329 1.370 . S
C328 C332 1.524 . S
C329 C321 1.503 . S
C329 C328 1.370 . S
C329 C330 1.403 . S
C330 C329 1.403 . S
C330 C331 1.404 . S
C330 C333 1.539 . S
C331 C327 1.408 . S
C331 C330 1.404 . S
C331 H343 0.930 . S
C332 C328 1.524 . S
C332 H344 0.956 . S
C332 H345 0.961 . S
C332 H346 0.961 . S
C333 C330 1.539 . S
C333 H347 0.958 . S
C333 H348 0.961 . S
C333 H349 0.960 . S
H334 C318 0.931 . S
H335 C323 0.929 1_554 S
H336 C324 0.960 . S
H337 C324 0.962 . S
H338 C324 0.960 . S
H339 C325 0.961 1_554 S
H340 C325 0.961 . S
H341 C325 0.961 . S
H342 C326 0.931 . S
H343 C331 0.930 . S
H344 C332 0.956 . S
H345 C332 0.961 . S
H346 C332 0.961 . S
H347 C333 0.958 . S
H348 C333 0.961 . S
H349 C333 0.960 . S
C350 C351 1.391 . S
C350 C352 1.394 . S
C350 H366 0.931 . S
C351 C350 1.391 . S
C351 C355 1.376 . S
C352 C350 1.394 . S
C352 C353 1.369 . S
C352 C356 1.531 . S
C353 C352 1.369 . S
C353 C354 1.410 . S
C353 C361 1.503 . S
C354 C353 1.410 . S
C354 C355 1.392 . S
C354 C357 1.511 . S
C355 C351 1.376 . S
C355 C354 1.392 . S
C355 H367 0.929 . S
C356 C352 1.531 . S
C356 H368 0.960 . S
C356 H369 0.962 . S
C356 H370 0.960 . S
C357 C354 1.511 . S
C357 H371 0.961 . S
C357 H372 0.961 . S
C357 H373 0.961 . S
C358 C359 1.370 . S
C358 C360 1.363 . S
C358 H374 0.931 1_655 S
C359 C358 1.370 . S
C359 C363 1.408 . S
C360 C358 1.363 . S
C360 C361 1.370 . S
C360 C364 1.524 . S
C361 C353 1.503 . S
C361 C360 1.370 . S
C361 C362 1.403 . S
C362 C361 1.403 . S
C362 C363 1.404 . S
C362 C365 1.539 . S
C363 C359 1.408 . S
C363 C362 1.404 . S
C363 H375 0.930 . S
C364 C360 1.524 . S
C364 H376 0.956 . S
C364 H377 0.961 . S
C364 H378 0.961 . S
C365 C362 1.539 . S
C365 H379 0.958 . S
C365 H380 0.961 . S
C365 H381 0.960 . S
H366 C350 0.931 . S
H367 C355 0.929 . S
H368 C356 0.960 . S
H369 C356 0.962 . S
H370 C356 0.960 . S
H371 C357 0.961 . S
H372 C357 0.961 . S
H373 C357 0.961 . S
H374 C358 0.931 1_455 S
H375 C363 0.930 . S
H376 C364 0.956 . S
H377 C364 0.961 . S
H378 C364 0.961 . S
H379 C365 0.958 . S
H380 C365 0.961 . S
H381 C365 0.960 . S
C382 C383 1.391 . S
C382 C384 1.394 . S
C382 H398 0.931 . S
C383 C382 1.391 . S
C383 C387 1.376 . S
C384 C382 1.394 . S
C384 C385 1.369 . S
C384 C388 1.531 . S
C385 C384 1.369 . S
C385 C386 1.410 . S
C385 C393 1.503 . S
C386 C385 1.410 . S
C386 C387 1.392 . S
C386 C389 1.511 . S
C387 C383 1.376 . S
C387 C386 1.392 . S
C387 H399 0.929 . S
C388 C384 1.531 . S
C388 H400 0.960 . S
C388 H401 0.962 . S
C388 H402 0.960 . S
C389 C386 1.511 . S
C389 H403 0.961 . S
C389 H404 0.961 . S
C389 H405 0.961 . S
C390 C391 1.370 . S
C390 C392 1.363 . S
C390 H406 0.931 . S
C391 C390 1.370 . S
C391 C395 1.408 . S
C392 C390 1.363 . S
C392 C393 1.370 . S
C392 C396 1.524 . S
C393 C385 1.503 . S
C393 C392 1.370 . S
C393 C394 1.403 . S
C394 C393 1.403 . S
C394 C395 1.404 . S
C394 C397 1.539 . S
C395 C391 1.408 . S
C395 C394 1.404 . S
C395 H407 0.930 . S
C396 C392 1.524 . S
C396 H408 0.956 . S
C396 H409 0.961 . S
C396 H410 0.961 . S
C397 C394 1.539 . S
C397 H411 0.958 . S
C397 H412 0.961 . S
C397 H413 0.960 . S
H398 C382 0.931 . S
H399 C387 0.929 . S
H400 C388 0.960 . S
H401 C388 0.962 . S
H402 C388 0.960 . S
H403 C389 0.961 . S
H404 C389 0.961 . S
H405 C389 0.961 . S
H406 C390 0.931 . S
H407 C395 0.930 . S
H408 C396 0.956 . S
H409 C396 0.961 . S
H410 C396 0.961 . S
H411 C397 0.958 . S
H412 C397 0.961 . S
H413 C397 0.960 . S
C414 C415 1.391 . S
C414 C416 1.394 . S
C414 H430 0.931 . S
C415 C414 1.391 . S
C415 C419 1.376 . S
C416 C414 1.394 . S
C416 C417 1.369 . S
C416 C420 1.531 . S
C417 C416 1.369 . S
C417 C418 1.410 . S
C417 C425 1.503 . S
C418 C417 1.410 . S
C418 C419 1.392 . S
C418 C421 1.511 . S
C419 C415 1.376 . S
C419 C418 1.392 . S
C419 H431 0.929 . S
C420 C416 1.531 . S
C420 H432 0.960 . S
C420 H433 0.962 . S
C420 H434 0.960 . S
C421 C418 1.511 . S
C421 H435 0.961 . S
C421 H436 0.961 . S
C421 H437 0.961 . S
C422 C423 1.370 . S
C422 C424 1.363 . S
C422 H438 0.931 . S
C423 C422 1.370 . S
C423 C427 1.408 . S
C424 C422 1.363 . S
C424 C425 1.370 . S
C424 C428 1.524 . S
C425 C417 1.503 . S
C425 C424 1.370 . S
C425 C426 1.403 . S
C426 C425 1.403 . S
C426 C427 1.404 . S
C426 C429 1.539 . S
C427 C423 1.408 . S
C427 C426 1.404 . S
C427 H439 0.930 . S
C428 C424 1.524 . S
C428 H440 0.956 . S
C428 H441 0.961 . S
C428 H442 0.961 . S
C429 C426 1.539 . S
C429 H443 0.958 . S
C429 H444 0.961 . S
C429 H445 0.960 . S
H430 C414 0.931 . S
H431 C419 0.929 . S
H432 C420 0.960 . S
H433 C420 0.962 . S
H434 C420 0.960 . S
H435 C421 0.961 . S
H436 C421 0.961 . S
H437 C421 0.961 . S
H438 C422 0.931 . S
H439 C427 0.930 . S
H440 C428 0.956 . S
H441 C428 0.961 . S
H442 C428 0.961 . S
H443 C429 0.958 . S
H444 C429 0.961 . S
H445 C429 0.960 . S
C446 C447 1.391 . S
C446 C448 1.394 . S
C446 H462 0.931 . S
C447 C446 1.391 . S
C447 C451 1.376 . S
C448 C446 1.394 . S
C448 C449 1.369 . S
C448 C452 1.531 . S
C449 C448 1.369 . S
C449 C450 1.410 . S
C449 C457 1.503 . S
C450 C449 1.410 . S
C450 C451 1.392 . S
C450 C453 1.511 . S
C451 C447 1.376 . S
C451 C450 1.392 . S
C451 H463 0.929 . S
C452 C448 1.531 . S
C452 H464 0.960 . S
C452 H465 0.962 . S
C452 H466 0.960 . S
C453 C450 1.511 . S
C453 H467 0.961 . S
C453 H468 0.961 . S
C453 H469 0.961 . S
C454 C455 1.370 . S
C454 C456 1.363 . S
C454 H470 0.931 . S
C455 C454 1.370 . S
C455 C459 1.408 . S
C456 C454 1.363 . S
C456 C457 1.370 . S
C456 C460 1.524 . S
C457 C449 1.503 . S
C457 C456 1.370 . S
C457 C458 1.403 . S
C458 C457 1.403 . S
C458 C459 1.404 . S
C458 C461 1.539 . S
C459 C455 1.408 . S
C459 C458 1.404 . S
C459 H471 0.930 . S
C460 C456 1.524 . S
C460 H472 0.956 . S
C460 H473 0.961 . S
C460 H474 0.961 . S
C461 C458 1.539 . S
C461 H475 0.958 . S
C461 H476 0.961 . S
C461 H477 0.960 . S
H462 C446 0.931 . S
H463 C451 0.929 . S
H464 C452 0.960 . S
H465 C452 0.962 . S
H466 C452 0.960 . S
H467 C453 0.961 . S
H468 C453 0.961 . S
H469 C453 0.961 . S
H470 C454 0.931 . S
H471 C459 0.930 . S
H472 C460 0.956 . S
H473 C460 0.961 . S
H474 C460 0.961 . S
H475 C461 0.958 . S
H476 C461 0.961 . S
H477 C461 0.960 . S
C103 C59 1.418 . S
C95 C4 1.474 . S
C135 C55 1.427 . S
C127 C17 1.478 . S
C167 C80 1.424 . S
C159 C30 1.494 . S
C191 C43 1.448 . S
C199 C76 1.396 . S
C223 C9 1.243 . S
C231 C77 1.109 . S
C263 C92 1.142 . S
C255 C22 1.272 . S
C287 C8 1.741 . S
C295 C93 1.562 . S
C327 C89 1.582 . S
C319 C21 1.745 . S
C359 C56 1.133 . S
C351 C35 1.217 . S
C383 C48 1.282 . S
C391 C71 1.130 . S
C423 C72 1.596 . S
C415 C34 1.717 . S
C455 C68 1.607 . S
C447 C47 1.734 . S
