# Generated by pormake.
# Topology hwx, (6,3)-cn, num edge types: 1
# Building blocks:
#     Node 0, Type 0, BuildingBlock: OJICUG_clean_sbu_0, # of connection points: 6
#     Node 1, Type 0, BuildingBlock: OJICUG_clean_sbu_0, # of connection points: 6
#     Node 2, Type 0, BuildingBlock: OJICUG_clean_sbu_0, # of connection points: 6
#     Node 3, Type 0, BuildingBlock: OJICUG_clean_sbu_0, # of connection points: 6
#     Node 4, Type 1, BuildingBlock: PAMTOO_clean_linker_0, # of connection points: 3
#     Node 5, Type 1, BuildingBlock: PAMTOO_clean_linker_0, # of connection points: 3
#     Node 6, Type 1, BuildingBlock: PAMTOO_clean_linker_0, # of connection points: 3
#     Node 7, Type 1, BuildingBlock: PAMTOO_clean_linker_0, # of connection points: 3
#     Node 8, Type 1, BuildingBlock: PAMTOO_clean_linker_0, # of connection points: 3
#     Node 9, Type 1, BuildingBlock: PAMTOO_clean_linker_0, # of connection points: 3
#     Node 10, Type 1, BuildingBlock: PAMTOO_clean_linker_0, # of connection points: 3
#     Node 11, Type 1, BuildingBlock: PAMTOO_clean_linker_0, # of connection points: 3
#     Edge 12, Type (0, 1), BuildingBlock: OJICUG_clean_linker_0, # of connection points: 2
#     Edge 13, Type (0, 1), BuildingBlock: OJICUG_clean_linker_0, # of connection points: 2
#     Edge 14, Type (0, 1), BuildingBlock: OJICUG_clean_linker_0, # of connection points: 2
#     Edge 15, Type (0, 1), BuildingBlock: OJICUG_clean_linker_0, # of connection points: 2
#     Edge 16, Type (0, 1), BuildingBlock: OJICUG_clean_linker_0, # of connection points: 2
#     Edge 17, Type (0, 1), BuildingBlock: OJICUG_clean_linker_0, # of connection points: 2
#     Edge 18, Type (0, 1), BuildingBlock: OJICUG_clean_linker_0, # of connection points: 2
#     Edge 19, Type (0, 1), BuildingBlock: OJICUG_clean_linker_0, # of connection points: 2
#     Edge 20, Type (0, 1), BuildingBlock: OJICUG_clean_linker_0, # of connection points: 2
#     Edge 21, Type (0, 1), BuildingBlock: OJICUG_clean_linker_0, # of connection points: 2
#     Edge 22, Type (0, 1), BuildingBlock: OJICUG_clean_linker_0, # of connection points: 2
#     Edge 23, Type (0, 1), BuildingBlock: OJICUG_clean_linker_0, # of connection points: 2
#     Edge 24, Type (0, 1), BuildingBlock: OJICUG_clean_linker_0, # of connection points: 2
#     Edge 25, Type (0, 1), BuildingBlock: OJICUG_clean_linker_0, # of connection points: 2
#     Edge 26, Type (0, 1), BuildingBlock: OJICUG_clean_linker_0, # of connection points: 2
#     Edge 27, Type (0, 1), BuildingBlock: OJICUG_clean_linker_0, # of connection points: 2
#     Edge 28, Type (0, 1), BuildingBlock: OJICUG_clean_linker_0, # of connection points: 2
#     Edge 29, Type (0, 1), BuildingBlock: OJICUG_clean_linker_0, # of connection points: 2
#     Edge 30, Type (0, 1), BuildingBlock: OJICUG_clean_linker_0, # of connection points: 2
#     Edge 31, Type (0, 1), BuildingBlock: OJICUG_clean_linker_0, # of connection points: 2
#     Edge 32, Type (0, 1), BuildingBlock: OJICUG_clean_linker_0, # of connection points: 2
#     Edge 33, Type (0, 1), BuildingBlock: OJICUG_clean_linker_0, # of connection points: 2
#     Edge 34, Type (0, 1), BuildingBlock: OJICUG_clean_linker_0, # of connection points: 2
#     Edge 35, Type (0, 1), BuildingBlock: OJICUG_clean_linker_0, # of connection points: 2
# Relax obj value: 0.008
# Max RMSD: 0.042
# Mean RMSD: 0.040
data_MOF--net-hwx--node1-OJICUG_clean_sbu_0--node2-PAMTOO_clean_linker_0--edge1-OJICUG_clean_linker_0
_symmetry_space_group_name_H-M    P1
_symmetry_Int_Tables_number       1
_symmetry_cell_setting            triclinic
loop_
_symmetry_equiv_pos_as_xyz
'x, y, z'
_cell_length_a     38.75317
_cell_length_b     38.721066
_cell_length_c     15.338683
_cell_angle_alpha  88.398713
_cell_angle_beta   91.622184
_cell_angle_gamma 89.765302
loop_
_atom_site_label
_atom_site_type_symbol
_atom_site_fract_x
_atom_site_fract_y
_atom_site_fract_z
_atom_type_partial_charge
Sc0 Sc 0.24299 0.23881 0.09942 0.0
Sc1 Sc 0.18487 0.18497 -0.01453 0.0
Sc2 Sc 0.23786 0.24377 0.87117 0.0
O3 O 0.22189 0.2225 -0.01464 0.0
C4 C 0.23613 0.31003 -0.00925 0.0
C5 C 0.16265 0.23142 0.14231 0.0
C6 C 0.15693 0.23637 0.83314 0.0
C7 C 0.23664 0.15775 0.13776 0.0
C8 C 0.30914 0.23785 -0.02038 0.0
C9 C 0.23149 0.16324 0.82856 0.0
O10 O 0.23833 0.29248 0.0619 0.0
O11 O 0.1556 0.21018 0.08274 0.0
O12 O 0.18599 0.25052 0.82117 0.0
O13 O 0.25041 0.18701 0.14961 0.0
O14 O 0.29154 0.2398 0.90853 0.0
O15 O 0.21038 0.15594 0.8882 0.0
O16 O 0.29533 0.23712 0.05396 0.0
O17 O 0.21203 0.15322 0.08285 0.0
O18 O 0.24266 0.19369 0.81412 0.0
O19 O 0.19293 0.24301 0.15662 0.0
O20 O 0.23553 0.29616 0.91646 0.0
O21 O 0.15275 0.2117 0.8881 0.0
Sc22 Sc 0.26436 0.74268 0.38531 0.0
Sc23 Sc 0.31443 0.67899 0.50162 0.0
Sc24 Sc 0.26614 0.74015 0.61377 0.0
O25 O 0.28163 0.72055 0.5001 0.0
C26 C 0.27853 0.80902 0.50047 0.0
C27 C 0.34345 0.72603 0.34706 0.0
C28 C 0.34558 0.72283 0.65686 0.0
C29 C 0.26168 0.66194 0.34526 0.0
C30 C 0.19673 0.74695 0.49841 0.0
C31 C 0.26332 0.65885 0.65377 0.0
O32 O 0.27494 0.79462 0.42716 0.0
O33 O 0.34712 0.70233 0.40557 0.0
O34 O 0.31745 0.73864 0.66915 0.0
O35 O 0.25187 0.69311 0.33159 0.0
O36 O 0.21316 0.74465 0.57111 0.0
O37 O 0.28545 0.65083 0.59805 0.0
O38 O 0.2116 0.7463 0.42563 0.0
O39 O 0.28436 0.65319 0.40327 0.0
O40 O 0.25417 0.68983 0.66628 0.0
O41 O 0.31513 0.74214 0.33231 0.0
O42 O 0.27614 0.79251 0.57277 0.0
O43 O 0.34859 0.69998 0.59976 0.0
Sc44 Sc 0.7624 0.76736 0.87143 0.0
Sc45 Sc 0.82044 0.82121 -0.01449 0.0
Sc46 Sc 0.76766 0.76218 0.09961 0.0
O47 O 0.78354 0.78363 -0.01448 0.0
C48 C 0.69654 0.7691 -0.00884 0.0
C49 C 0.76819 0.84851 0.83451 0.0
C50 C 0.77396 0.84235 0.14341 0.0
C51 C 0.84238 0.77507 0.8276 0.0
C52 C 0.77055 0.69631 -0.0201 0.0
C53 C 0.84863 0.7694 0.13652 0.0
O54 O 0.71033 0.76985 0.91691 0.0
O55 O 0.79258 0.85328 0.88993 0.0
O56 O 0.76241 0.81201 0.15683 0.0
O57 O 0.81227 0.76299 0.81419 0.0
O58 O 0.77105 0.71012 0.05415 0.0
O59 O 0.85296 0.79389 0.08108 0.0
O60 O 0.76731 0.71377 0.90885 0.0
O61 O 0.84933 0.79662 0.88651 0.0
O62 O 0.81944 0.75576 0.1496 0.0
O63 O 0.75507 0.81907 0.82144 0.0
O64 O 0.71403 0.76616 0.06221 0.0
O65 O 0.79537 0.84968 0.0845 0.0
Sc66 Sc 0.74176 0.26432 0.58483 0.0
Sc67 Sc 0.67877 0.31518 0.46833 0.0
Sc68 Sc 0.73921 0.26594 0.3564 0.0
O69 O 0.71986 0.2818 0.46998 0.0
C70 C 0.80819 0.27759 0.4697 0.0
C71 C 0.72618 0.3437 0.62284 0.0
C72 C 0.72298 0.34563 0.31306 0.0
C73 C 0.66107 0.26271 0.62475 0.0
C74 C 0.74514 0.1965 0.472 0.0
C75 C 0.65795 0.26418 0.31632 0.0
O76 O 0.79377 0.27424 0.54301 0.0
O77 O 0.70252 0.34766 0.56432 0.0
O78 O 0.73837 0.31725 0.30085 0.0
O79 O 0.69208 0.2525 0.63847 0.0
O80 O 0.74302 0.21289 0.39923 0.0
O81 O 0.65024 0.28648 0.37192 0.0
O82 O 0.74471 0.21146 0.5447 0.0
O83 O 0.6526 0.28548 0.56672 0.0
O84 O 0.68878 0.25458 0.30391 0.0
O85 O 0.74189 0.31516 0.63768 0.0
O86 O 0.79167 0.2753 0.3974 0.0
O87 O 0.7002 0.34901 0.37015 0.0
H88 H 0.22465 0.61114 -0.00276 0.0
H89 H 0.22166 0.51402 0.86863 0.0
H90 H 0.22183 0.51608 0.1487 0.0
H91 H 0.26711 0.46335 0.07552 0.0
C92 C 0.25232 0.45836 0.01391 0.0
O93 O 0.22151 0.47632 0.01274 0.0
H94 H 0.26835 0.46735 0.95863 0.0
C95 C 0.22208 0.58325 0.00063 0.0
C96 C 0.22202 0.56618 0.08237 0.0
C97 C 0.22203 0.56485 0.92328 0.0
C98 C 0.22113 0.52867 0.92775 0.0
C99 C 0.22077 0.51119 0.00901 0.0
C100 C 0.22129 0.52987 0.08623 0.0
H101 H 0.89791 0.74164 0.48262 0.0
H102 H 0.99666 0.741 0.36238 0.0
H103 H 0.99106 0.7455 0.64138 0.0
H104 H 0.04399 0.79044 0.56213 0.0
C105 C 0.0498 0.77483 0.50444 0.0
O106 O 0.03239 0.74394 0.50916 0.0
H107 H 0.04135 0.78998 0.44476 0.0
C108 C 0.92586 0.7407 0.48877 0.0
C109 C 0.94191 0.74275 0.57144 0.0
C110 C 0.94526 0.7401 0.4132 0.0
C111 C 0.98132 0.74099 0.42038 0.0
C112 C 0.99769 0.74262 0.50276 0.0
C113 C 0.97809 0.74365 0.57819 0.0
H114 H 0.74278 0.39943 0.96764 0.0
H115 H 0.74739 0.49616 0.09792 0.0
H116 H 0.75077 0.49442 0.81768 0.0
H117 H 0.80116 0.5413 0.90101 0.0
C118 C 0.78652 0.54791 0.95973 0.0
O119 O 0.75401 0.53368 0.9546 0.0
H120 H 0.80106 0.53725 0.01821 0.0
C121 C 0.74492 0.42738 0.96467 0.0
C122 C 0.74684 0.44458 0.8836 0.0
C123 C 0.74498 0.44565 0.04198 0.0
C124 C 0.74688 0.48173 0.03837 0.0
C125 C 0.74956 0.49918 0.95747 0.0
C126 C 0.74886 0.48072 0.87992 0.0
H127 H 0.10679 0.26087 0.48664 0.0
H128 H 0.00844 0.26696 0.60755 0.0
H129 H 0.01352 0.26577 0.32764 0.0
H130 H 0.96242 0.31651 0.39844 0.0
C131 C 0.9559 0.30165 0.45888 0.0
O132 O 0.97236 0.26998 0.46046 0.0
H133 H 0.96474 0.31689 0.51575 0.0
C134 C 0.07892 0.26341 0.48066 0.0
C135 C 0.06275 0.26359 0.39788 0.0
C136 C 0.0597 0.26464 0.55634 0.0
C137 C 0.02363 0.26613 0.5494 0.0
C138 C 0.00708 0.26726 0.46681 0.0
C139 C 0.02655 0.26548 0.39109 0.0
H140 H 0.73911 0.89734 0.48826 0.0
H141 H 0.73788 0.99614 0.60866 0.0
H142 H 0.74242 0.99063 0.3297 0.0
H143 H 0.78734 0.04331 0.40899 0.0
C144 C 0.77177 0.04924 0.46664 0.0
O145 O 0.74083 0.03193 0.462 0.0
H146 H 0.78688 0.04076 0.52636 0.0
C147 C 0.73793 0.92531 0.48215 0.0
C148 C 0.73992 0.9414 0.39951 0.0
C149 C 0.73722 0.9447 0.55777 0.0
C150 C 0.73789 0.9808 0.55064 0.0
C151 C 0.73945 0.99721 0.4683 0.0
C152 C 0.74058 0.97762 0.39285 0.0
H153 H 0.60986 0.22639 0.97266 0.0
H154 H 0.51278 0.22397 0.10104 0.0
H155 H 0.51489 0.22428 0.82095 0.0
H156 H 0.46219 0.26972 0.89436 0.0
C157 C 0.45724 0.25489 0.95592 0.0
O158 O 0.47513 0.22403 0.95685 0.0
H159 H 0.46628 0.27087 0.01127 0.0
C160 C 0.58198 0.22404 0.9692 0.0
C161 C 0.56493 0.22413 0.88741 0.0
C162 C 0.56358 0.22407 0.04649 0.0
C163 C 0.52743 0.22341 0.04194 0.0
C164 C 0.50997 0.22319 0.96064 0.0
C165 C 0.52865 0.22365 0.88345 0.0
H166 H 0.26202 0.10777 0.48457 0.0
H167 H 0.26856 0.00947 0.36311 0.0
H168 H 0.26724 0.01432 0.64304 0.0
H169 H 0.31811 0.96327 0.57179 0.0
C170 C 0.30321 0.95676 0.51141 0.0
O171 O 0.27158 0.97325 0.50998 0.0
H172 H 0.3184 0.96559 0.45447 0.0
C173 C 0.26472 0.07989 0.49039 0.0
C174 C 0.26492 0.06365 0.57309 0.0
C175 C 0.26606 0.06072 0.4146 0.0
C176 C 0.26769 0.02462 0.42135 0.0
C177 C 0.26885 0.008 0.50384 0.0
C178 C 0.26696 0.02742 0.57967 0.0
H179 H 0.39954 0.74153 0.0021 0.0
H180 H 0.49636 0.74532 0.87258 0.0
H181 H 0.49438 0.74869 0.15282 0.0
H182 H 0.5416 0.79876 0.07021 0.0
C183 C 0.54813 0.78415 0.01136 0.0
O184 O 0.53377 0.75168 0.01619 0.0
H185 H 0.53754 0.79882 0.95302 0.0
C186 C 0.42749 0.74339 0.00531 0.0
C187 C 0.44461 0.74517 0.08651 0.0
C188 C 0.44582 0.74331 0.92816 0.0
C189 C 0.48189 0.74489 0.93203 0.0
C190 C 0.49928 0.7474 0.01307 0.0
C191 C 0.48074 0.74687 0.09047 0.0
C192 C 0.10286 0.22513 0.20071 0.0
C193 C 0.13463 0.24267 0.19905 0.0
H194 H 0.05477 0.21831 0.26506 0.0
C195 C 0.13997 0.27042 0.25487 0.0
H196 H 0.09778 0.20382 0.15801 0.0
C197 C 0.11518 0.27896 0.31483 0.0
C198 C 0.08458 0.25981 0.32094 0.0
H199 H 0.16377 0.28498 0.25417 0.0
H200 H 0.12065 0.29959 0.3594 0.0
C201 C 0.07805 0.23361 0.26133 0.0
C202 C 0.2192 0.63825 0.7582 0.0
C203 C 0.2487 0.63138 0.71026 0.0
H204 H 0.18683 0.62166 0.86174 0.0
C205 C 0.26543 0.59924 0.72246 0.0
H206 H 0.20525 0.66244 0.749 0.0
C207 C 0.25476 0.57581 0.78725 0.0
C208 C 0.22714 0.5842 0.84025 0.0
H209 H 0.28807 0.59308 0.68598 0.0
H210 H 0.2697 0.55243 0.80017 0.0
C211 C 0.20848 0.61483 0.82234 0.0
C212 C 0.87503 0.72737 0.24517 0.0
C213 C 0.878 0.75773 0.19353 0.0
H214 H 0.89501 0.6975 0.35474 0.0
C215 C 0.90755 0.77834 0.20401 0.0
H216 H 0.85298 0.71052 0.2375 0.0
C217 C 0.9318 0.77061 0.27105 0.0
C218 C 0.92675 0.74219 0.32798 0.0
H219 H 0.91073 0.80172 0.16468 0.0
H220 H 0.95283 0.78839 0.28279 0.0
C221 C 0.89919 0.71971 0.31182 0.0
C222 C 0.71387 0.40277 0.67909 0.0
C223 C 0.73486 0.37298 0.67932 0.0
H224 H 0.70165 0.44953 0.74407 0.0
C225 C 0.76319 0.37034 0.73842 0.0
H226 H 0.69203 0.40576 0.63385 0.0
C227 C 0.76874 0.39545 0.8004 0.0
C228 C 0.74615 0.42372 0.80464 0.0
H229 H 0.78029 0.34813 0.73942 0.0
H230 H 0.78962 0.39181 0.84834 0.0
C231 C 0.71949 0.42799 0.74149 0.0
C232 C 0.63682 0.22028 0.2118 0.0
C233 C 0.63032 0.24989 0.25979 0.0
H234 H 0.61987 0.18813 0.10808 0.0
C235 C 0.59841 0.26703 0.24755 0.0
H236 H 0.66082 0.20602 0.22102 0.0
C237 C 0.57488 0.25664 0.18266 0.0
C238 C 0.58293 0.22892 0.12961 0.0
H239 H 0.59253 0.28976 0.28407 0.0
H240 H 0.5517 0.27188 0.16971 0.0
C241 C 0.61331 0.20985 0.14755 0.0
C242 C 0.27085 0.14092 0.71641 0.0
C243 C 0.24308 0.13531 0.77191 0.0
H244 H 0.30035 0.12188 0.61217 0.0
C245 C 0.22586 0.10336 0.77002 0.0
H246 H 0.28518 0.16488 0.71732 0.0
C247 C 0.23465 0.07862 0.70944 0.0
C248 C 0.26086 0.08541 0.65011 0.0
H249 H 0.20454 0.09807 0.81248 0.0
H250 H 0.21958 0.05519 0.70549 0.0
C251 C 0.27971 0.1162 0.65651 0.0
C252 C 0.37046 0.76253 0.23107 0.0
C253 C 0.37279 0.73428 0.29051 0.0
H254 H 0.39223 0.78855 0.12099 0.0
C255 C 0.40235 0.71296 0.29107 0.0
H256 H 0.34844 0.77988 0.22979 0.0
C257 C 0.42763 0.7182 0.22873 0.0
C258 C 0.42366 0.7448 0.16528 0.0
H259 H 0.4051 0.69117 0.33657 0.0
H260 H 0.44897 0.70012 0.22646 0.0
C261 C 0.39563 0.76771 0.16914 0.0
C262 C 0.7761 0.90762 0.76695 0.0
C263 C 0.75601 0.8777 0.7775 0.0
H264 H 0.78537 0.95308 0.68812 0.0
C265 C 0.72573 0.87421 0.72591 0.0
H266 H 0.79941 0.91119 0.80624 0.0
C267 C 0.71765 0.89824 0.65923 0.0
C268 C 0.73964 0.9262 0.64299 0.0
H269 H 0.70926 0.85185 0.73364 0.0
H270 H 0.69551 0.89369 0.61638 0.0
C271 C 0.76796 0.93174 0.6999 0.0
C272 C 0.86532 0.73561 0.71661 0.0
C273 C 0.87028 0.76401 0.77053 0.0
H274 H 0.88485 0.70585 0.61344 0.0
C275 C 0.9015 0.78236 0.76664 0.0
H276 H 0.84192 0.72045 0.71916 0.0
C277 C 0.92615 0.77394 0.7057 0.0
C278 C 0.92002 0.74697 0.64802 0.0
H279 H 0.90625 0.80421 0.80783 0.0
H280 H 0.94899 0.78982 0.7003 0.0
C281 C 0.88997 0.72712 0.65631 0.0
C282 C 0.70857 0.40352 0.24284 0.0
C283 C 0.73145 0.37539 0.25549 0.0
H284 H 0.69531 0.44871 0.1642 0.0
C285 C 0.76174 0.37452 0.20736 0.0
H286 H 0.68516 0.405 0.27951 0.0
C287 C 0.76757 0.39952 0.14273 0.0
C288 C 0.74328 0.42586 0.12494 0.0
H289 H 0.78028 0.35363 0.21684 0.0
H290 H 0.79007 0.39709 0.10288 0.0
C291 C 0.71445 0.42864 0.17757 0.0
C292 C 0.0981 0.22673 0.76537 0.0
C293 C 0.12754 0.24759 0.77546 0.0
H294 H 0.05271 0.21628 0.68714 0.0
C295 C 0.13028 0.27779 0.72319 0.0
H296 H 0.09509 0.20344 0.80514 0.0
C297 C 0.10597 0.28516 0.6567 0.0
C298 C 0.07844 0.26253 0.64124 0.0
H299 H 0.15224 0.2948 0.73037 0.0
H300 H 0.10995 0.3073 0.61341 0.0
C301 C 0.07369 0.23416 0.69844 0.0
C302 C 0.26317 0.60205 0.28646 0.0
C303 C 0.24754 0.63493 0.28786 0.0
H304 H 0.2671 0.55423 0.22029 0.0
C305 C 0.21964 0.64243 0.22983 0.0
H306 H 0.28454 0.59526 0.33074 0.0
C307 C 0.20933 0.61866 0.16765 0.0
C308 C 0.22686 0.58698 0.16153 0.0
H309 H 0.20656 0.6672 0.23014 0.0
H310 H 0.18876 0.6258 0.12123 0.0
C311 C 0.25297 0.57832 0.22373 0.0
C312 C 0.37512 0.76122 0.76244 0.0
C313 C 0.37548 0.73086 0.71439 0.0
H314 H 0.39813 0.78925 0.86694 0.0
C315 C 0.40319 0.7075 0.72717 0.0
H316 H 0.35455 0.78011 0.75287 0.0
C317 C 0.42838 0.71299 0.79249 0.0
C318 C 0.42609 0.74193 0.84505 0.0
H319 H 0.40427 0.68402 0.69057 0.0
H320 H 0.4481 0.69351 0.80599 0.0
C321 C 0.40019 0.76668 0.82712 0.0
C322 C 0.73407 0.86466 0.25419 0.0
C323 C 0.76242 0.87007 0.20045 0.0
H324 H 0.70393 0.88374 0.35718 0.0
C325 C 0.78028 0.90159 0.20451 0.0
H326 H 0.71928 0.84102 0.25149 0.0
C327 C 0.77144 0.92611 0.26544 0.0
C328 C 0.74453 0.91956 0.32295 0.0
H329 H 0.80208 0.90668 0.16348 0.0
H330 H 0.78697 0.94919 0.27097 0.0
C331 C 0.72515 0.88919 0.31447 0.0
C332 C 0.64108 0.22089 0.74009 0.0
C333 C 0.63391 0.24889 0.68211 0.0
H334 H 0.62411 0.19018 0.84861 0.0
C335 C 0.60124 0.26492 0.6835 0.0
H336 H 0.66567 0.2075 0.73979 0.0
C337 C 0.57742 0.25499 0.74618 0.0
C338 C 0.58577 0.22876 0.80833 0.0
H339 H 0.59471 0.2864 0.63926 0.0
H340 H 0.55351 0.26941 0.74963 0.0
C341 C 0.61721 0.21085 0.80222 0.0
C342 C 0.2783 0.13167 0.24801 0.0
C343 C 0.24822 0.1285 0.19552 0.0
H344 H 0.30798 0.11172 0.35792 0.0
C345 C 0.22782 0.09871 0.20542 0.0
H346 H 0.29497 0.1539 0.24098 0.0
C347 C 0.23554 0.07437 0.27236 0.0
C348 C 0.26375 0.07953 0.32976 0.0
H349 H 0.20464 0.09536 0.16549 0.0
H350 H 0.21797 0.0531 0.28347 0.0
C351 C 0.28595 0.10742 0.3145 0.0
C352 C 0.23946 0.3692 0.91942 0.0
C353 C 0.2367 0.34827 -0.00462 0.0
H354 H 0.24651 0.42046 0.86603 0.0
C355 C 0.23673 0.36417 0.07689 0.0
H356 H 0.2393 0.35792 0.85558 0.0
C357 C 0.24096 0.39984 0.08254 0.0
C358 C 0.24549 0.42034 0.00702 0.0
H359 H 0.23428 0.34899 0.13677 0.0
H360 H 0.24157 0.41134 0.14615 0.0
C361 C 0.24371 0.40493 0.92525 0.0
C362 C 0.1395 0.75727 0.42089 0.0
C363 C 0.1589 0.75243 0.49923 0.0
H364 H 0.08972 0.76823 0.36145 0.0
C365 C 0.142 0.75435 0.57904 0.0
H366 H 0.1516 0.75579 0.35831 0.0
C367 C 0.10676 0.7617 0.58048 0.0
C368 C 0.08776 0.76753 0.50235 0.0
H369 H 0.15601 0.75054 0.64068 0.0
H370 H 0.09433 0.76309 0.64269 0.0
C371 C 0.10418 0.76459 0.42252 0.0
C372 C 0.77534 0.64255 0.89383 0.0
C373 C 0.77445 0.65836 0.97531 0.0
H374 H 0.77991 0.59526 0.82558 0.0
C375 C 0.77763 0.63756 0.05181 0.0
H376 H 0.77285 0.6577 0.83352 0.0
C377 C 0.78177 0.60181 0.04681 0.0
C378 C 0.78319 0.58632 0.96537 0.0
H379 H 0.7769 0.64881 0.11559 0.0
H380 H 0.78391 0.58623 0.1065 0.0
C381 C 0.77952 0.60687 0.88901 0.0
C382 C 0.86588 0.28628 0.54529 0.0
C383 C 0.84587 0.28415 0.46763 0.0
H384 H 0.91638 0.2934 0.60304 0.0
C385 C 0.86234 0.28796 0.38724 0.0
H386 H 0.85415 0.28329 0.6083 0.0
C387 C 0.89783 0.29378 0.38458 0.0
C388 C 0.91759 0.29627 0.46208 0.0
H389 H 0.84789 0.28632 0.32604 0.0
H390 H 0.9099 0.29635 0.32188 0.0
C391 C 0.90144 0.29212 0.54246 0.0
C392 C 0.75491 0.13921 0.54978 0.0
C393 C 0.75017 0.15858 0.47135 0.0
H394 H 0.76552 0.08937 0.60945 0.0
C395 C 0.75183 0.14156 0.39163 0.0
H396 H 0.75361 0.1514 0.6123 0.0
C397 C 0.75888 0.10622 0.39035 0.0
C398 C 0.76465 0.08726 0.46856 0.0
H399 H 0.74808 0.15554 0.32993 0.0
H400 H 0.7601 0.0937 0.32821 0.0
C401 C 0.76192 0.1038 0.54832 0.0
C402 C 0.36314 0.239 0.89324 0.0
C403 C 0.34732 0.23881 0.97483 0.0
H404 H 0.4102 0.24413 0.82381 0.0
C405 C 0.36826 0.24171 0.05072 0.0
H406 H 0.34796 0.23647 0.83341 0.0
C407 C 0.40394 0.24618 0.04475 0.0
C408 C 0.41927 0.24805 0.96292 0.0
H409 H 0.35705 0.24144 0.11461 0.0
H410 H 0.41948 0.24902 0.10392 0.0
C411 C 0.39875 0.24345 0.88746 0.0
C412 C 0.28948 0.86312 0.58296 0.0
C413 C 0.2854 0.84668 0.50256 0.0
H414 H 0.29818 0.91066 0.64836 0.0
C415 C 0.28746 0.86671 0.42492 0.0
H416 H 0.28791 0.84865 0.64415 0.0
C417 C 0.29343 0.90228 0.42778 0.0
C418 C 0.29779 0.91841 0.50817 0.0
H419 H 0.28426 0.85501 0.36191 0.0
H420 H 0.29462 0.91725 0.36722 0.0
C421 C 0.29543 0.89862 0.58565 0.0
C422 C 0.64274 0.77301 0.07723 0.0
C423 C 0.65856 0.77247 -0.00425 0.0
H424 H 0.59545 0.77716 0.14549 0.0
C425 C 0.63775 0.77564 0.91926 0.0
H426 H 0.65788 0.7705 0.13753 0.0
C427 C 0.60201 0.77954 0.92428 0.0
C428 C 0.58652 0.78072 0.00572 0.0
H429 H 0.64902 0.77516 0.85548 0.0
H430 H 0.58645 0.78177 0.86458 0.0
C431 C 0.60706 0.77695 0.08206 0.0
loop_
_geom_bond_atom_site_label_1
_geom_bond_atom_site_label_2
_geom_bond_distance
_geom_bond_site_symmetry_2
_ccdc_geom_bond_type
Sc0 O3 2.025 . S
Sc0 O10 2.105 . S
Sc0 O13 2.105 . S
Sc0 O16 2.105 . S
Sc0 O19 2.105 . S
Sc1 O3 2.025 . S
Sc1 O11 2.105 . S
Sc1 O15 2.105 1_554 S
Sc1 O17 2.105 . S
Sc1 O21 2.105 1_554 S
Sc2 O3 2.025 1_556 S
Sc2 O12 2.105 . S
Sc2 O14 2.105 . S
Sc2 O18 2.105 . S
Sc2 O20 2.105 . S
O3 Sc0 2.025 . S
O3 Sc1 2.025 . S
O3 Sc2 2.025 1_554 S
C4 O10 1.268 . S
C4 O20 1.268 1_554 S
C5 O11 1.268 . S
C5 O19 1.268 . S
C6 O12 1.268 . S
C6 O21 1.268 . S
C7 O13 1.268 . S
C7 O17 1.268 . S
C8 O14 1.268 1_554 S
C8 O16 1.268 . S
C9 O15 1.268 . S
C9 O18 1.268 . S
O10 Sc0 2.105 . S
O10 C4 1.268 . S
O11 Sc1 2.105 . S
O11 C5 1.268 . S
O12 Sc2 2.105 . S
O12 C6 1.268 . S
O13 Sc0 2.105 . S
O13 C7 1.268 . S
O14 Sc2 2.105 . S
O14 C8 1.268 1_556 S
O15 Sc1 2.105 1_556 S
O15 C9 1.268 . S
O16 Sc0 2.105 . S
O16 C8 1.268 . S
O17 Sc1 2.105 . S
O17 C7 1.268 . S
O18 Sc2 2.105 . S
O18 C9 1.268 . S
O19 Sc0 2.105 . S
O19 C5 1.268 . S
O20 Sc2 2.105 . S
O20 C4 1.268 1_556 S
O21 Sc1 2.105 1_556 S
O21 C6 1.268 . S
Sc22 O25 2.025 . S
Sc22 O32 2.105 . S
Sc22 O35 2.105 . S
Sc22 O38 2.105 . S
Sc22 O41 2.105 . S
Sc23 O25 2.025 . S
Sc23 O33 2.105 . S
Sc23 O37 2.105 . S
Sc23 O39 2.105 . S
Sc23 O43 2.105 . S
Sc24 O25 2.025 . S
Sc24 O34 2.105 . S
Sc24 O36 2.105 . S
Sc24 O40 2.105 . S
Sc24 O42 2.105 . S
O25 Sc22 2.025 . S
O25 Sc23 2.025 . S
O25 Sc24 2.025 . S
C26 O32 1.268 . S
C26 O42 1.268 . S
C27 O33 1.268 . S
C27 O41 1.268 . S
C28 O34 1.268 . S
C28 O43 1.268 . S
C29 O35 1.268 . S
C29 O39 1.268 . S
C30 O36 1.268 . S
C30 O38 1.268 . S
C31 O37 1.268 . S
C31 O40 1.268 . S
O32 Sc22 2.105 . S
O32 C26 1.268 . S
O33 Sc23 2.105 . S
O33 C27 1.268 . S
O34 Sc24 2.105 . S
O34 C28 1.268 . S
O35 Sc22 2.105 . S
O35 C29 1.268 . S
O36 Sc24 2.105 . S
O36 C30 1.268 . S
O37 Sc23 2.105 . S
O37 C31 1.268 . S
O38 Sc22 2.105 . S
O38 C30 1.268 . S
O39 Sc23 2.105 . S
O39 C29 1.268 . S
O40 Sc24 2.105 . S
O40 C31 1.268 . S
O41 Sc22 2.105 . S
O41 C27 1.268 . S
O42 Sc24 2.105 . S
O42 C26 1.268 . S
O43 Sc23 2.105 . S
O43 C28 1.268 . S
Sc44 O47 2.025 1_556 S
Sc44 O54 2.105 . S
Sc44 O57 2.105 . S
Sc44 O60 2.105 . S
Sc44 O63 2.105 . S
Sc45 O47 2.025 . S
Sc45 O55 2.105 1_554 S
Sc45 O59 2.105 . S
Sc45 O61 2.105 1_554 S
Sc45 O65 2.105 . S
Sc46 O47 2.025 . S
Sc46 O56 2.105 . S
Sc46 O58 2.105 . S
Sc46 O62 2.105 . S
Sc46 O64 2.105 . S
O47 Sc44 2.025 1_554 S
O47 Sc45 2.025 . S
O47 Sc46 2.025 . S
C48 O54 1.268 1_554 S
C48 O64 1.268 . S
C49 O55 1.268 . S
C49 O63 1.268 . S
C50 O56 1.268 . S
C50 O65 1.268 . S
C51 O57 1.268 . S
C51 O61 1.268 . S
C52 O58 1.268 . S
C52 O60 1.268 1_554 S
C53 O59 1.268 . S
C53 O62 1.268 . S
O54 Sc44 2.105 . S
O54 C48 1.268 1_556 S
O55 Sc45 2.105 1_556 S
O55 C49 1.268 . S
O56 Sc46 2.105 . S
O56 C50 1.268 . S
O57 Sc44 2.105 . S
O57 C51 1.268 . S
O58 Sc46 2.105 . S
O58 C52 1.268 . S
O59 Sc45 2.105 . S
O59 C53 1.268 . S
O60 Sc44 2.105 . S
O60 C52 1.268 1_556 S
O61 Sc45 2.105 1_556 S
O61 C51 1.268 . S
O62 Sc46 2.105 . S
O62 C53 1.268 . S
O63 Sc44 2.105 . S
O63 C49 1.268 . S
O64 Sc46 2.105 . S
O64 C48 1.268 . S
O65 Sc45 2.105 . S
O65 C50 1.268 . S
Sc66 O69 2.025 . S
Sc66 O76 2.105 . S
Sc66 O79 2.105 . S
Sc66 O82 2.105 . S
Sc66 O85 2.105 . S
Sc67 O69 2.025 . S
Sc67 O77 2.105 . S
Sc67 O81 2.105 . S
Sc67 O83 2.105 . S
Sc67 O87 2.105 . S
Sc68 O69 2.025 . S
Sc68 O78 2.105 . S
Sc68 O80 2.105 . S
Sc68 O84 2.105 . S
Sc68 O86 2.105 . S
O69 Sc66 2.025 . S
O69 Sc67 2.025 . S
O69 Sc68 2.025 . S
C70 O76 1.268 . S
C70 O86 1.268 . S
C71 O77 1.268 . S
C71 O85 1.268 . S
C72 O78 1.268 . S
C72 O87 1.268 . S
C73 O79 1.268 . S
C73 O83 1.268 . S
C74 O80 1.268 . S
C74 O82 1.268 . S
C75 O81 1.268 . S
C75 O84 1.268 . S
O76 Sc66 2.105 . S
O76 C70 1.268 . S
O77 Sc67 2.105 . S
O77 C71 1.268 . S
O78 Sc68 2.105 . S
O78 C72 1.268 . S
O79 Sc66 2.105 . S
O79 C73 1.268 . S
O80 Sc68 2.105 . S
O80 C74 1.268 . S
O81 Sc67 2.105 . S
O81 C75 1.268 . S
O82 Sc66 2.105 . S
O82 C74 1.268 . S
O83 Sc67 2.105 . S
O83 C73 1.268 . S
O84 Sc68 2.105 . S
O84 C75 1.268 . S
O85 Sc66 2.105 . S
O85 C71 1.268 . S
O86 Sc68 2.105 . S
O86 C70 1.268 . S
O87 Sc67 2.105 . S
O87 C72 1.268 . S
H88 C95 0.929 . S
H89 C98 0.930 . S
H90 C100 0.929 . S
H91 C92 0.969 . S
C92 H91 0.969 . S
C92 O93 1.550 1_556 S
C92 H94 0.973 . S
O93 C92 1.550 1_554 S
O93 C99 1.412 . S
H94 C92 0.973 . S
C95 H88 0.929 . S
C95 C96 1.400 . S
C95 C97 1.364 1_554 S
C96 C95 1.400 . S
C96 C100 1.377 . S
C97 C95 1.364 1_556 S
C97 C98 1.374 . S
C98 H89 0.930 . S
C98 C97 1.374 . S
C98 C99 1.383 1_556 S
C99 O93 1.412 . S
C99 C98 1.383 1_554 S
C99 C100 1.394 . S
C100 H90 0.929 . S
C100 C96 1.377 . S
C100 C99 1.394 . S
H101 C108 0.929 . S
H102 C111 0.930 . S
H103 C113 0.929 . S
H104 C105 0.969 . S
C105 H104 0.969 . S
C105 O106 1.550 . S
C105 H107 0.973 . S
O106 C105 1.550 . S
O106 C112 1.425 . S
H107 C105 0.973 . S
C108 H101 0.929 . S
C108 C109 1.400 . S
C108 C110 1.364 . S
C109 C108 1.400 . S
C109 C113 1.377 . S
C110 C108 1.364 . S
C110 C111 1.374 . S
C111 H102 0.930 . S
C111 C110 1.374 . S
C111 C112 1.378 1_655 S
C112 O106 1.425 . S
C112 C111 1.378 1_455 S
C112 C113 1.386 1_455 S
C113 H103 0.929 . S
C113 C109 1.377 . S
C113 C112 1.386 1_655 S
H114 C121 0.929 . S
H115 C124 0.930 . S
H116 C126 0.929 . S
H117 C118 0.969 . S
C118 H117 0.969 . S
C118 O119 1.550 1_554 S
C118 H120 0.973 . S
O119 C118 1.550 1_556 S
O119 C125 1.412 . S
H120 C118 0.973 . S
C121 H114 0.929 . S
C121 C122 1.400 1_554 S
C121 C123 1.364 . S
C122 C121 1.400 1_556 S
C122 C126 1.377 . S
C123 C121 1.364 . S
C123 C124 1.374 . S
C124 H115 0.930 . S
C124 C123 1.374 . S
C124 C125 1.383 1_554 S
C125 O119 1.412 . S
C125 C124 1.383 1_556 S
C125 C126 1.394 . S
C126 H116 0.929 . S
C126 C122 1.377 . S
C126 C125 1.394 . S
H127 C134 0.929 . S
H128 C137 0.930 . S
H129 C139 0.929 . S
H130 C131 0.969 . S
C131 H130 0.969 . S
C131 O132 1.550 . S
C131 H133 0.973 . S
O132 C131 1.550 . S
O132 C138 1.402 1_655 S
H133 C131 0.973 . S
C134 H127 0.929 . S
C134 C135 1.400 . S
C134 C136 1.364 . S
C135 C134 1.400 . S
C135 C139 1.377 . S
C136 C134 1.364 . S
C136 C137 1.374 . S
C137 H128 0.930 . S
C137 C136 1.374 . S
C137 C138 1.387 . S
C138 O132 1.402 1_455 S
C138 C137 1.387 . S
C138 C139 1.400 . S
C139 H129 0.929 . S
C139 C135 1.377 . S
C139 C138 1.400 . S
H140 C147 0.929 . S
H141 C150 0.930 . S
H142 C152 0.929 . S
H143 C144 0.969 . S
C144 H143 0.969 . S
C144 O145 1.550 . S
C144 H146 0.973 . S
O145 C144 1.550 . S
O145 C151 1.413 1_545 S
H146 C144 0.973 . S
C147 H140 0.929 . S
C147 C148 1.400 . S
C147 C149 1.364 . S
C148 C147 1.400 . S
C148 C152 1.377 . S
C149 C147 1.364 . S
C149 C150 1.374 . S
C150 H141 0.930 . S
C150 C149 1.374 . S
C150 C151 1.383 . S
C151 O145 1.413 1_565 S
C151 C150 1.383 . S
C151 C152 1.394 . S
C152 H142 0.929 . S
C152 C148 1.377 . S
C152 C151 1.394 . S
H153 C160 0.929 . S
H154 C163 0.930 . S
H155 C165 0.929 . S
H156 C157 0.969 . S
C157 H156 0.969 . S
C157 O158 1.550 1_554 S
C157 H159 0.973 . S
O158 C157 1.550 1_556 S
O158 C164 1.412 . S
H159 C157 0.973 . S
C160 H153 0.929 . S
C160 C161 1.400 1_554 S
C160 C162 1.364 . S
C161 C160 1.400 1_556 S
C161 C165 1.377 . S
C162 C160 1.364 . S
C162 C163 1.374 . S
C163 H154 0.930 . S
C163 C162 1.374 . S
C163 C164 1.383 1_554 S
C164 O158 1.412 . S
C164 C163 1.383 1_556 S
C164 C165 1.394 . S
C165 H155 0.929 . S
C165 C161 1.377 . S
C165 C164 1.394 . S
H166 C173 0.929 . S
H167 C176 0.950 . S
H168 C178 0.929 . S
H169 C170 0.969 . S
C170 H169 0.969 . S
C170 O171 1.550 . S
C170 H172 0.973 . S
O171 C170 1.550 . S
O171 C177 1.415 . S
H172 C170 0.973 . S
C173 H166 0.929 . S
C173 C174 1.400 . S
C173 C175 1.364 . S
C174 C173 1.400 . S
C174 C178 1.377 . S
C175 C173 1.364 . S
C175 C176 1.374 . S
C176 H167 0.950 . S
C176 C175 1.374 . S
C176 C177 1.382 1_545 S
C177 O171 1.415 . S
C177 C176 1.382 1_565 S
C177 C178 1.393 1_565 S
C178 H168 0.929 . S
C178 C174 1.377 . S
C178 C177 1.393 1_545 S
H179 C186 0.929 . S
H180 C189 0.930 . S
H181 C191 0.929 . S
H182 C183 0.969 . S
C183 H182 0.969 . S
C183 O184 1.550 1_556 S
C183 H185 0.973 . S
O184 C183 1.550 1_554 S
O184 C190 1.412 . S
H185 C183 0.973 . S
C186 H179 0.929 . S
C186 C187 1.400 . S
C186 C188 1.364 1_554 S
C187 C186 1.400 . S
C187 C191 1.377 . S
C188 C186 1.364 1_556 S
C188 C189 1.374 . S
C189 H180 0.930 . S
C189 C188 1.374 . S
C189 C190 1.383 1_556 S
C190 O184 1.412 . S
C190 C189 1.383 1_554 S
C190 C191 1.394 . S
C191 H181 0.929 . S
C191 C187 1.377 . S
C191 C190 1.394 . S
C192 C193 1.387 . S
C192 H196 0.950 . S
C192 C201 1.390 . S
C193 C192 1.387 . S
C193 C195 1.387 . S
H194 C201 0.950 . S
C195 C193 1.387 . S
C195 C197 1.390 . S
C195 H199 0.950 . S
H196 C192 0.950 . S
C197 C195 1.390 . S
C197 C198 1.387 . S
C197 H200 0.950 . S
C198 C197 1.387 . S
C198 C201 1.387 . S
H199 C195 0.950 . S
H200 C197 0.950 . S
C201 C192 1.390 . S
C201 H194 0.950 . S
C201 C198 1.387 . S
C202 C203 1.387 . S
C202 H206 0.950 . S
C202 C211 1.390 . S
C203 C202 1.387 . S
C203 C205 1.387 . S
H204 C211 0.950 . S
C205 C203 1.387 . S
C205 C207 1.390 . S
C205 H209 0.950 . S
H206 C202 0.950 . S
C207 C205 1.390 . S
C207 C208 1.387 . S
C207 H210 0.950 . S
C208 C207 1.387 . S
C208 C211 1.387 . S
H209 C205 0.950 . S
H210 C207 0.950 . S
C211 C202 1.390 . S
C211 H204 0.950 . S
C211 C208 1.387 . S
C212 C213 1.387 . S
C212 H216 0.950 . S
C212 C221 1.390 . S
C213 C212 1.387 . S
C213 C215 1.387 . S
H214 C221 0.950 . S
C215 C213 1.387 . S
C215 C217 1.390 . S
C215 H219 0.950 . S
H216 C212 0.950 . S
C217 C215 1.390 . S
C217 C218 1.387 . S
C217 H220 0.950 . S
C218 C217 1.387 . S
C218 C221 1.387 . S
H219 C215 0.950 . S
H220 C217 0.950 . S
C221 C212 1.390 . S
C221 H214 0.950 . S
C221 C218 1.387 . S
C222 C223 1.387 . S
C222 H226 0.950 . S
C222 C231 1.390 . S
C223 C222 1.387 . S
C223 C225 1.387 . S
H224 C231 0.950 . S
C225 C223 1.387 . S
C225 C227 1.390 . S
C225 H229 0.950 . S
H226 C222 0.950 . S
C227 C225 1.390 . S
C227 C228 1.387 . S
C227 H230 0.950 . S
C228 C227 1.387 . S
C228 C231 1.387 . S
H229 C225 0.950 . S
H230 C227 0.950 . S
C231 C222 1.390 . S
C231 H224 0.950 . S
C231 C228 1.387 . S
C232 C233 1.387 . S
C232 H236 0.950 . S
C232 C241 1.390 . S
C233 C232 1.387 . S
C233 C235 1.387 . S
H234 C241 0.950 . S
C235 C233 1.387 . S
C235 C237 1.390 . S
C235 H239 0.950 . S
H236 C232 0.950 . S
C237 C235 1.390 . S
C237 C238 1.387 . S
C237 H240 0.950 . S
C238 C237 1.387 . S
C238 C241 1.387 . S
H239 C235 0.950 . S
H240 C237 0.950 . S
C241 C232 1.390 . S
C241 H234 0.950 . S
C241 C238 1.387 . S
C242 C243 1.387 . S
C242 H246 0.950 . S
C242 C251 1.390 . S
C243 C242 1.387 . S
C243 C245 1.387 . S
H244 C251 0.950 . S
C245 C243 1.387 . S
C245 C247 1.390 . S
C245 H249 0.950 . S
H246 C242 0.950 . S
C247 C245 1.390 . S
C247 C248 1.387 . S
C247 H250 0.950 . S
C248 C247 1.387 . S
C248 C251 1.387 . S
H249 C245 0.950 . S
H250 C247 0.950 . S
C251 C242 1.390 . S
C251 H244 0.950 . S
C251 C248 1.387 . S
C252 C253 1.387 . S
C252 H256 0.950 . S
C252 C261 1.390 . S
C253 C252 1.387 . S
C253 C255 1.387 . S
H254 C261 0.950 . S
C255 C253 1.387 . S
C255 C257 1.390 . S
C255 H259 0.950 . S
H256 C252 0.950 . S
C257 C255 1.390 . S
C257 C258 1.387 . S
C257 H260 0.950 . S
C258 C257 1.387 . S
C258 C261 1.387 . S
H259 C255 0.950 . S
H260 C257 0.950 . S
C261 C252 1.390 . S
C261 H254 0.950 . S
C261 C258 1.387 . S
C262 C263 1.387 . S
C262 H266 0.950 . S
C262 C271 1.390 . S
C263 C262 1.387 . S
C263 C265 1.387 . S
H264 C271 0.950 . S
C265 C263 1.387 . S
C265 C267 1.390 . S
C265 H269 0.950 . S
H266 C262 0.950 . S
C267 C265 1.390 . S
C267 C268 1.387 . S
C267 H270 0.950 . S
C268 C267 1.387 . S
C268 C271 1.387 . S
H269 C265 0.950 . S
H270 C267 0.950 . S
C271 C262 1.390 . S
C271 H264 0.950 . S
C271 C268 1.387 . S
C272 C273 1.387 . S
C272 H276 0.950 . S
C272 C281 1.390 . S
C273 C272 1.387 . S
C273 C275 1.387 . S
H274 C281 0.950 . S
C275 C273 1.387 . S
C275 C277 1.390 . S
C275 H279 0.950 . S
H276 C272 0.950 . S
C277 C275 1.390 . S
C277 C278 1.387 . S
C277 H280 0.950 . S
C278 C277 1.387 . S
C278 C281 1.387 . S
H279 C275 0.950 . S
H280 C277 0.950 . S
C281 C272 1.390 . S
C281 H274 0.950 . S
C281 C278 1.387 . S
C282 C283 1.387 . S
C282 H286 0.950 . S
C282 C291 1.390 . S
C283 C282 1.387 . S
C283 C285 1.387 . S
H284 C291 0.950 . S
C285 C283 1.387 . S
C285 C287 1.390 . S
C285 H289 0.950 . S
H286 C282 0.950 . S
C287 C285 1.390 . S
C287 C288 1.387 . S
C287 H290 0.950 . S
C288 C287 1.387 . S
C288 C291 1.387 . S
H289 C285 0.950 . S
H290 C287 0.950 . S
C291 C282 1.390 . S
C291 H284 0.950 . S
C291 C288 1.387 . S
C292 C293 1.387 . S
C292 H296 0.950 . S
C292 C301 1.390 . S
C293 C292 1.387 . S
C293 C295 1.387 . S
H294 C301 0.950 . S
C295 C293 1.387 . S
C295 C297 1.390 . S
C295 H299 0.950 . S
H296 C292 0.950 . S
C297 C295 1.390 . S
C297 C298 1.387 . S
C297 H300 0.950 . S
C298 C297 1.387 . S
C298 C301 1.387 . S
H299 C295 0.950 . S
H300 C297 0.950 . S
C301 C292 1.390 . S
C301 H294 0.950 . S
C301 C298 1.387 . S
C302 C303 1.387 . S
C302 H306 0.950 . S
C302 C311 1.390 . S
C303 C302 1.387 . S
C303 C305 1.387 . S
H304 C311 0.950 . S
C305 C303 1.387 . S
C305 C307 1.390 . S
C305 H309 0.950 . S
H306 C302 0.950 . S
C307 C305 1.390 . S
C307 C308 1.387 . S
C307 H310 0.950 . S
C308 C307 1.387 . S
C308 C311 1.387 . S
H309 C305 0.950 . S
H310 C307 0.950 . S
C311 C302 1.390 . S
C311 H304 0.950 . S
C311 C308 1.387 . S
C312 C313 1.387 . S
C312 H316 0.950 . S
C312 C321 1.390 . S
C313 C312 1.387 . S
C313 C315 1.387 . S
H314 C321 0.950 . S
C315 C313 1.387 . S
C315 C317 1.390 . S
C315 H319 0.950 . S
H316 C312 0.950 . S
C317 C315 1.390 . S
C317 C318 1.387 . S
C317 H320 0.950 . S
C318 C317 1.387 . S
C318 C321 1.387 . S
H319 C315 0.950 . S
H320 C317 0.950 . S
C321 C312 1.390 . S
C321 H314 0.950 . S
C321 C318 1.387 . S
C322 C323 1.387 . S
C322 H326 0.950 . S
C322 C331 1.390 . S
C323 C322 1.387 . S
C323 C325 1.387 . S
H324 C331 0.950 . S
C325 C323 1.387 . S
C325 C327 1.390 . S
C325 H329 0.950 . S
H326 C322 0.950 . S
C327 C325 1.390 . S
C327 C328 1.387 . S
C327 H330 0.950 . S
C328 C327 1.387 . S
C328 C331 1.387 . S
H329 C325 0.950 . S
H330 C327 0.950 . S
C331 C322 1.390 . S
C331 H324 0.950 . S
C331 C328 1.387 . S
C332 C333 1.387 . S
C332 H336 0.950 . S
C332 C341 1.390 . S
C333 C332 1.387 . S
C333 C335 1.387 . S
H334 C341 0.950 . S
C335 C333 1.387 . S
C335 C337 1.390 . S
C335 H339 0.950 . S
H336 C332 0.950 . S
C337 C335 1.390 . S
C337 C338 1.387 . S
C337 H340 0.950 . S
C338 C337 1.387 . S
C338 C341 1.387 . S
H339 C335 0.950 . S
H340 C337 0.950 . S
C341 C332 1.390 . S
C341 H334 0.950 . S
C341 C338 1.387 . S
C342 C343 1.387 . S
C342 H346 0.950 . S
C342 C351 1.390 . S
C343 C342 1.387 . S
C343 C345 1.387 . S
H344 C351 0.950 . S
C345 C343 1.387 . S
C345 C347 1.390 . S
C345 H349 0.950 . S
H346 C342 0.950 . S
C347 C345 1.390 . S
C347 C348 1.387 . S
C347 H350 0.950 . S
C348 C347 1.387 . S
C348 C351 1.387 . S
H349 C345 0.950 . S
H350 C347 0.950 . S
C351 C342 1.390 . S
C351 H344 0.950 . S
C351 C348 1.387 . S
C352 C353 1.387 1_556 S
C352 H356 0.950 . S
C352 C361 1.390 . S
C353 C352 1.387 1_554 S
C353 C355 1.387 . S
H354 C361 0.950 . S
C355 C353 1.387 . S
C355 C357 1.390 . S
C355 H359 0.950 . S
H356 C352 0.950 . S
C357 C355 1.390 . S
C357 C358 1.387 . S
C357 H360 0.950 . S
C358 C357 1.387 . S
C358 C361 1.387 1_554 S
H359 C355 0.950 . S
H360 C357 0.950 . S
C361 C352 1.390 . S
C361 H354 0.950 . S
C361 C358 1.387 1_556 S
C362 C363 1.387 . S
C362 H366 0.950 . S
C362 C371 1.390 . S
C363 C362 1.387 . S
C363 C365 1.387 . S
H364 C371 0.950 . S
C365 C363 1.387 . S
C365 C367 1.390 . S
C365 H369 0.950 . S
H366 C362 0.950 . S
C367 C365 1.390 . S
C367 C368 1.387 . S
C367 H370 0.950 . S
C368 C367 1.387 . S
C368 C371 1.387 . S
H369 C365 0.950 . S
H370 C367 0.950 . S
C371 C362 1.390 . S
C371 H364 0.950 . S
C371 C368 1.387 . S
C372 C373 1.387 1_556 S
C372 H376 0.950 . S
C372 C381 1.390 . S
C373 C372 1.387 1_554 S
C373 C375 1.387 . S
H374 C381 0.950 . S
C375 C373 1.387 . S
C375 C377 1.390 . S
C375 H379 0.950 . S
H376 C372 0.950 . S
C377 C375 1.390 . S
C377 C378 1.387 . S
C377 H380 0.950 . S
C378 C377 1.387 . S
C378 C381 1.387 1_554 S
H379 C375 0.950 . S
H380 C377 0.950 . S
C381 C372 1.390 . S
C381 H374 0.950 . S
C381 C378 1.387 1_556 S
C382 C383 1.387 . S
C382 H386 0.950 . S
C382 C391 1.390 . S
C383 C382 1.387 . S
C383 C385 1.387 . S
H384 C391 0.950 . S
C385 C383 1.387 . S
C385 C387 1.390 . S
C385 H389 0.950 . S
H386 C382 0.950 . S
C387 C385 1.390 . S
C387 C388 1.387 . S
C387 H390 0.950 . S
C388 C387 1.387 . S
C388 C391 1.387 . S
H389 C385 0.950 . S
H390 C387 0.950 . S
C391 C382 1.390 . S
C391 H384 0.950 . S
C391 C388 1.387 . S
C392 C393 1.387 . S
C392 H396 0.950 . S
C392 C401 1.390 . S
C393 C392 1.387 . S
C393 C395 1.387 . S
H394 C401 0.950 . S
C395 C393 1.387 . S
C395 C397 1.390 . S
C395 H399 0.950 . S
H396 C392 0.950 . S
C397 C395 1.390 . S
C397 C398 1.387 . S
C397 H400 0.950 . S
C398 C397 1.387 . S
C398 C401 1.387 . S
H399 C395 0.950 . S
H400 C397 0.950 . S
C401 C392 1.390 . S
C401 H394 0.950 . S
C401 C398 1.387 . S
C402 C403 1.387 1_556 S
C402 H406 0.950 . S
C402 C411 1.390 . S
C403 C402 1.387 1_554 S
C403 C405 1.387 . S
H404 C411 0.950 . S
C405 C403 1.387 . S
C405 C407 1.390 . S
C405 H409 0.950 . S
H406 C402 0.950 . S
C407 C405 1.390 . S
C407 C408 1.387 . S
C407 H410 0.950 . S
C408 C407 1.387 . S
C408 C411 1.387 1_554 S
H409 C405 0.950 . S
H410 C407 0.950 . S
C411 C402 1.390 . S
C411 H404 0.950 . S
C411 C408 1.387 1_556 S
C412 C413 1.387 . S
C412 H416 0.950 . S
C412 C421 1.390 . S
C413 C412 1.387 . S
C413 C415 1.387 . S
H414 C421 0.950 . S
C415 C413 1.387 . S
C415 C417 1.390 . S
C415 H419 0.950 . S
H416 C412 0.950 . S
C417 C415 1.390 . S
C417 C418 1.387 . S
C417 H420 0.950 . S
C418 C417 1.387 . S
C418 C421 1.387 . S
H419 C415 0.950 . S
H420 C417 0.950 . S
C421 C412 1.390 . S
C421 H414 0.950 . S
C421 C418 1.387 . S
C422 C423 1.387 . S
C422 H426 0.950 . S
C422 C431 1.390 . S
C423 C422 1.387 . S
C423 C425 1.387 1_554 S
H424 C431 0.950 . S
C425 C423 1.387 1_556 S
C425 C427 1.390 . S
C425 H429 0.950 . S
H426 C422 0.950 . S
C427 C425 1.390 . S
C427 C428 1.387 1_556 S
C427 H430 0.950 . S
C428 C427 1.387 1_554 S
C428 C431 1.387 . S
H429 C425 0.950 . S
H430 C427 0.950 . S
C431 C422 1.390 . S
C431 H424 0.950 . S
C431 C428 1.387 . S
C193 C5 1.475 . S
C198 C135 1.480 . S
C203 C31 1.500 . S
C208 C97 1.483 . S
C218 C110 1.469 . S
C213 C53 1.481 . S
C223 C71 1.455 . S
C228 C122 1.466 . S
C238 C162 1.483 . S
C233 C75 1.501 . S
C248 C174 1.481 . S
C243 C9 1.473 . S
C258 C187 1.467 . S
C253 C27 1.454 . S
C268 C149 1.467 . S
C263 C49 1.482 . S
C273 C51 1.475 . S
C278 C109 1.476 . S
C283 C72 1.501 . S
C288 C123 1.484 . S
C293 C6 1.480 . S
C298 C136 1.471 . S
C308 C96 1.464 . S
C303 C29 1.453 . S
C313 C28 1.502 . S
C318 C188 1.483 . S
C328 C148 1.476 . S
C323 C50 1.475 . S
C338 C161 1.463 . S
C333 C73 1.455 . S
C343 C7 1.482 . S
C348 C175 1.470 . S
C358 C92 1.446 1_554 S
C353 C4 1.507 . S
C368 C105 1.448 . S
C363 C30 1.508 . S
C373 C52 1.507 . S
C378 C118 1.481 . S
C383 C70 1.509 . S
C388 C131 1.484 . S
C398 C144 1.448 . S
C393 C74 1.508 . S
C403 C8 1.508 . S
C408 C157 1.443 . S
C413 C26 1.508 . S
C418 C170 1.483 . S
C423 C48 1.507 . S
C428 C183 1.481 1_554 S
