# Generated by pormake.
# Topology eea, (3,6)-cn, num edge types: 1
# Building blocks:
#     Node 0, Type 0, BuildingBlock: BELTOD_clean_linker_0, # of connection points: 3
#     Node 1, Type 0, BuildingBlock: BELTOD_clean_linker_0, # of connection points: 3
#     Node 2, Type 0, BuildingBlock: BELTOD_clean_linker_0, # of connection points: 3
#     Node 3, Type 0, BuildingBlock: BELTOD_clean_linker_0, # of connection points: 3
#     Node 4, Type 0, BuildingBlock: BELTOD_clean_linker_0, # of connection points: 3
#     Node 5, Type 0, BuildingBlock: BELTOD_clean_linker_0, # of connection points: 3
#     Node 6, Type 0, BuildingBlock: BELTOD_clean_linker_0, # of connection points: 3
#     Node 7, Type 0, BuildingBlock: BELTOD_clean_linker_0, # of connection points: 3
#     Node 8, Type 0, BuildingBlock: BELTOD_clean_linker_0, # of connection points: 3
#     Node 9, Type 0, BuildingBlock: BELTOD_clean_linker_0, # of connection points: 3
#     Node 10, Type 0, BuildingBlock: BELTOD_clean_linker_0, # of connection points: 3
#     Node 11, Type 0, BuildingBlock: BELTOD_clean_linker_0, # of connection points: 3
#     Node 12, Type 0, BuildingBlock: BELTOD_clean_linker_0, # of connection points: 3
#     Node 13, Type 0, BuildingBlock: BELTOD_clean_linker_0, # of connection points: 3
#     Node 14, Type 0, BuildingBlock: BELTOD_clean_linker_0, # of connection points: 3
#     Node 15, Type 0, BuildingBlock: BELTOD_clean_linker_0, # of connection points: 3
#     Node 16, Type 0, BuildingBlock: BELTOD_clean_linker_0, # of connection points: 3
#     Node 17, Type 0, BuildingBlock: BELTOD_clean_linker_0, # of connection points: 3
#     Node 18, Type 1, BuildingBlock: KUMBOL_clean_sbu_0, # of connection points: 6
#     Node 19, Type 1, BuildingBlock: KUMBOL_clean_sbu_0, # of connection points: 6
#     Node 20, Type 1, BuildingBlock: KUMBOL_clean_sbu_0, # of connection points: 6
#     Node 21, Type 1, BuildingBlock: KUMBOL_clean_sbu_0, # of connection points: 6
#     Node 22, Type 1, BuildingBlock: KUMBOL_clean_sbu_0, # of connection points: 6
#     Node 23, Type 1, BuildingBlock: KUMBOL_clean_sbu_0, # of connection points: 6
#     Node 24, Type 1, BuildingBlock: KUMBOL_clean_sbu_0, # of connection points: 6
#     Node 25, Type 1, BuildingBlock: KUMBOL_clean_sbu_0, # of connection points: 6
#     Node 26, Type 1, BuildingBlock: KUMBOL_clean_sbu_0, # of connection points: 6
#     Edge 27, Type (0, 1), BuildingBlock: XIVTED_clean_linker_0, # of connection points: 2
#     Edge 28, Type (0, 1), BuildingBlock: XIVTED_clean_linker_0, # of connection points: 2
#     Edge 29, Type (0, 1), BuildingBlock: XIVTED_clean_linker_0, # of connection points: 2
#     Edge 30, Type (0, 1), BuildingBlock: XIVTED_clean_linker_0, # of connection points: 2
#     Edge 31, Type (0, 1), BuildingBlock: XIVTED_clean_linker_0, # of connection points: 2
#     Edge 32, Type (0, 1), BuildingBlock: XIVTED_clean_linker_0, # of connection points: 2
#     Edge 33, Type (0, 1), BuildingBlock: XIVTED_clean_linker_0, # of connection points: 2
#     Edge 34, Type (0, 1), BuildingBlock: XIVTED_clean_linker_0, # of connection points: 2
#     Edge 35, Type (0, 1), BuildingBlock: XIVTED_clean_linker_0, # of connection points: 2
#     Edge 36, Type (0, 1), BuildingBlock: XIVTED_clean_linker_0, # of connection points: 2
#     Edge 37, Type (0, 1), BuildingBlock: XIVTED_clean_linker_0, # of connection points: 2
#     Edge 38, Type (0, 1), BuildingBlock: XIVTED_clean_linker_0, # of connection points: 2
#     Edge 39, Type (0, 1), BuildingBlock: XIVTED_clean_linker_0, # of connection points: 2
#     Edge 40, Type (0, 1), BuildingBlock: XIVTED_clean_linker_0, # of connection points: 2
#     Edge 41, Type (0, 1), BuildingBlock: XIVTED_clean_linker_0, # of connection points: 2
#     Edge 42, Type (0, 1), BuildingBlock: XIVTED_clean_linker_0, # of connection points: 2
#     Edge 43, Type (0, 1), BuildingBlock: XIVTED_clean_linker_0, # of connection points: 2
#     Edge 44, Type (0, 1), BuildingBlock: XIVTED_clean_linker_0, # of connection points: 2
#     Edge 45, Type (0, 1), BuildingBlock: XIVTED_clean_linker_0, # of connection points: 2
#     Edge 46, Type (0, 1), BuildingBlock: XIVTED_clean_linker_0, # of connection points: 2
#     Edge 47, Type (0, 1), BuildingBlock: XIVTED_clean_linker_0, # of connection points: 2
#     Edge 48, Type (0, 1), BuildingBlock: XIVTED_clean_linker_0, # of connection points: 2
#     Edge 49, Type (0, 1), BuildingBlock: XIVTED_clean_linker_0, # of connection points: 2
#     Edge 50, Type (0, 1), BuildingBlock: XIVTED_clean_linker_0, # of connection points: 2
#     Edge 51, Type (0, 1), BuildingBlock: XIVTED_clean_linker_0, # of connection points: 2
#     Edge 52, Type (0, 1), BuildingBlock: XIVTED_clean_linker_0, # of connection points: 2
#     Edge 53, Type (0, 1), BuildingBlock: XIVTED_clean_linker_0, # of connection points: 2
#     Edge 54, Type (0, 1), BuildingBlock: XIVTED_clean_linker_0, # of connection points: 2
#     Edge 55, Type (0, 1), BuildingBlock: XIVTED_clean_linker_0, # of connection points: 2
#     Edge 56, Type (0, 1), BuildingBlock: XIVTED_clean_linker_0, # of connection points: 2
#     Edge 57, Type (0, 1), BuildingBlock: XIVTED_clean_linker_0, # of connection points: 2
#     Edge 58, Type (0, 1), BuildingBlock: XIVTED_clean_linker_0, # of connection points: 2
#     Edge 59, Type (0, 1), BuildingBlock: XIVTED_clean_linker_0, # of connection points: 2
#     Edge 60, Type (0, 1), BuildingBlock: XIVTED_clean_linker_0, # of connection points: 2
#     Edge 61, Type (0, 1), BuildingBlock: XIVTED_clean_linker_0, # of connection points: 2
#     Edge 62, Type (0, 1), BuildingBlock: XIVTED_clean_linker_0, # of connection points: 2
#     Edge 63, Type (0, 1), BuildingBlock: XIVTED_clean_linker_0, # of connection points: 2
#     Edge 64, Type (0, 1), BuildingBlock: XIVTED_clean_linker_0, # of connection points: 2
#     Edge 65, Type (0, 1), BuildingBlock: XIVTED_clean_linker_0, # of connection points: 2
#     Edge 66, Type (0, 1), BuildingBlock: XIVTED_clean_linker_0, # of connection points: 2
#     Edge 67, Type (0, 1), BuildingBlock: XIVTED_clean_linker_0, # of connection points: 2
#     Edge 68, Type (0, 1), BuildingBlock: XIVTED_clean_linker_0, # of connection points: 2
#     Edge 69, Type (0, 1), BuildingBlock: XIVTED_clean_linker_0, # of connection points: 2
#     Edge 70, Type (0, 1), BuildingBlock: XIVTED_clean_linker_0, # of connection points: 2
#     Edge 71, Type (0, 1), BuildingBlock: XIVTED_clean_linker_0, # of connection points: 2
#     Edge 72, Type (0, 1), BuildingBlock: XIVTED_clean_linker_0, # of connection points: 2
#     Edge 73, Type (0, 1), BuildingBlock: XIVTED_clean_linker_0, # of connection points: 2
#     Edge 74, Type (0, 1), BuildingBlock: XIVTED_clean_linker_0, # of connection points: 2
#     Edge 75, Type (0, 1), BuildingBlock: XIVTED_clean_linker_0, # of connection points: 2
#     Edge 76, Type (0, 1), BuildingBlock: XIVTED_clean_linker_0, # of connection points: 2
#     Edge 77, Type (0, 1), BuildingBlock: XIVTED_clean_linker_0, # of connection points: 2
#     Edge 78, Type (0, 1), BuildingBlock: XIVTED_clean_linker_0, # of connection points: 2
#     Edge 79, Type (0, 1), BuildingBlock: XIVTED_clean_linker_0, # of connection points: 2
#     Edge 80, Type (0, 1), BuildingBlock: XIVTED_clean_linker_0, # of connection points: 2
# Relax obj value: 0.008
# Max RMSD: 0.086
# Mean RMSD: 0.067
data_MOF--net-eea--node1-KUMBOL_clean_sbu_0--node2-BELTOD_clean_linker_0--edge1-XIVTED_clean_linker_0
_symmetry_space_group_name_H-M    P1
_symmetry_Int_Tables_number       1
_symmetry_cell_setting            triclinic
loop_
_symmetry_equiv_pos_as_xyz
'x, y, z'
_cell_length_a     58.81035
_cell_length_b     59.753058
_cell_length_c     82.419689
_cell_angle_alpha  90.602938
_cell_angle_beta   90.156996
_cell_angle_gamma 120.05894
loop_
_atom_site_label
_atom_site_type_symbol
_atom_site_fract_x
_atom_site_fract_y
_atom_site_fract_z
_atom_type_partial_charge
P0 P 0.28985 0.15004 0.40586 0.0
H1 H 0.30975 0.11703 0.39409 0.0
H2 H 0.28815 0.07144 0.3861 0.0
H3 H 0.21259 0.06366 0.39672 0.0
H4 H 0.23441 0.1095 0.40447 0.0
H5 H 0.27899 0.16476 0.37464 0.0
H6 H 0.25286 0.18422 0.36637 0.0
H7 H 0.22968 0.18354 0.41616 0.0
H8 H 0.25594 0.16414 0.42433 0.0
H9 H 0.27664 0.11247 0.43218 0.0
H10 H 0.31871 0.1953 0.42674 0.0
O11 O 0.31834 0.16596 0.39611 0.0
H12 H 0.28887 0.11772 0.46081 0.0
H13 H 0.33054 0.20078 0.45558 0.0
C14 C 0.27363 0.11668 0.39953 0.0
C15 C 0.28852 0.10556 0.39455 0.0
C16 C 0.27615 0.07945 0.39012 0.0
C17 C 0.24863 0.06393 0.39076 0.0
C18 C 0.23377 0.07518 0.39587 0.0
C19 C 0.24621 0.10135 0.40032 0.0
C20 C 0.26992 0.16368 0.40012 0.0
C21 C 0.26827 0.16882 0.38375 0.0
C22 C 0.25312 0.17967 0.37903 0.0
C23 C 0.23932 0.18552 0.39063 0.0
C24 C 0.24041 0.17958 0.40699 0.0
C25 C 0.25546 0.16857 0.41168 0.0
C26 C 0.29695 0.15354 0.4273 0.0
C27 C 0.2883 0.13183 0.43715 0.0
C28 C 0.29517 0.13486 0.45361 0.0
C29 C 0.31078 0.15967 0.4605 0.0
C30 C 0.31886 0.18139 0.45061 0.0
C31 C 0.31201 0.17831 0.43416 0.0
P32 P 0.91103 0.10553 0.43417 0.0
H33 H 0.89676 0.05125 0.43089 0.0
H34 H 0.8617 0.0146 0.41607 0.0
H35 H 0.83192 0.0634 0.39926 0.0
H36 H 0.86716 0.10012 0.41427 0.0
H37 H 0.94129 0.16165 0.43948 0.0
H38 H 0.97124 0.19704 0.42209 0.0
H39 H 0.95129 0.14311 0.38195 0.0
H40 H 0.92173 0.10782 0.39947 0.0
H41 H 0.91081 0.09543 0.4687 0.0
H42 H 0.88141 0.13292 0.43754 0.0
O43 O 0.93247 0.09706 0.4408 0.0
H44 H 0.89196 0.10503 0.49216 0.0
H45 H 0.86159 0.14195 0.461 0.0
C46 C 0.88466 0.07844 0.42356 0.0
C47 C 0.88273 0.05412 0.42402 0.0
C48 C 0.86272 0.03318 0.41547 0.0
C49 C 0.84414 0.03613 0.40638 0.0
C50 C 0.84583 0.06046 0.40623 0.0
C51 C 0.86597 0.08147 0.41475 0.0
C52 C 0.92879 0.13219 0.42068 0.0
C53 C 0.94282 0.15756 0.42683 0.0
C54 C 0.95995 0.17779 0.41685 0.0
C55 C 0.96367 0.17291 0.40062 0.0
C56 C 0.94904 0.14751 0.39442 0.0
C57 C 0.93189 0.12734 0.40439 0.0
C58 C 0.89779 0.11376 0.45141 0.0
C59 C 0.90032 0.10581 0.46691 0.0
C60 C 0.88926 0.11109 0.48032 0.0
C61 C 0.87511 0.12417 0.47851 0.0
C62 C 0.87261 0.13212 0.46289 0.0
C63 C 0.8838 0.12687 0.44945 0.0
P64 P 0.86298 0.73537 0.41217 0.0
H65 H 0.80802 0.71835 0.41727 0.0
H66 H 0.77863 0.73275 0.40709 0.0
H67 H 0.84354 0.79531 0.38212 0.0
H68 H 0.87313 0.7812 0.39296 0.0
H69 H 0.88056 0.73126 0.37994 0.0
H70 H 0.92402 0.74683 0.36831 0.0
H71 H 0.95993 0.78931 0.41266 0.0
H72 H 0.91616 0.77368 0.42422 0.0
H73 H 0.8415 0.75044 0.44018 0.0
H74 H 0.88779 0.71381 0.43215 0.0
O75 O 0.84753 0.70497 0.40512 0.0
H76 H 0.83696 0.73856 0.46871 0.0
H77 H 0.88437 0.70287 0.46083 0.0
C78 C 0.84279 0.74875 0.40598 0.0
C79 C 0.81603 0.73542 0.40981 0.0
C80 C 0.79916 0.74354 0.40379 0.0
C81 C 0.80855 0.76502 0.39354 0.0
C82 C 0.83561 0.7788 0.39005 0.0
C83 C 0.85258 0.7707 0.39621 0.0
C84 C 0.89513 0.75088 0.40305 0.0
C85 C 0.89776 0.74416 0.38711 0.0
C86 C 0.92264 0.75299 0.38049 0.0
C87 C 0.94547 0.76896 0.38965 0.0
C88 C 0.94275 0.77703 0.40528 0.0
C89 C 0.91774 0.76803 0.41194 0.0
C90 C 0.86473 0.73273 0.43393 0.0
C91 C 0.85113 0.74027 0.44458 0.0
C92 C 0.84871 0.73361 0.46101 0.0
C93 C 0.85992 0.71933 0.4671 0.0
C94 C 0.87491 0.71329 0.45653 0.0
C95 C 0.87715 0.7198 0.44014 0.0
P96 P 0.12933 0.26513 0.60014 0.0
H97 H 0.10276 0.23638 0.62934 0.0
H98 H 0.05807 0.21985 0.6393 0.0
H99 H 0.0363 0.23959 0.59387 0.0
H100 H 0.0808 0.25584 0.58394 0.0
H101 H 0.1856 0.28826 0.60097 0.0
H102 H 0.21538 0.27378 0.61003 0.0
H103 H 0.14893 0.19933 0.62185 0.0
H104 H 0.11916 0.21367 0.6117 0.0
H105 H 0.16303 0.31318 0.58334 0.0
H106 H 0.10831 0.23395 0.57 0.0
O107 O 0.14057 0.29297 0.6104 0.0
H108 H 0.17207 0.32424 0.55487 0.0
H109 H 0.1174 0.24499 0.54113 0.0
C110 C 0.09505 0.24643 0.6056 0.0
C111 C 0.0881 0.23607 0.62122 0.0
C112 C 0.06255 0.2268 0.62698 0.0
C113 C 0.04364 0.22844 0.61739 0.0
C114 C 0.05044 0.23813 0.60158 0.0
C115 C 0.07588 0.24713 0.59579 0.0
C116 C 0.15015 0.25234 0.60604 0.0
C117 C 0.1774 0.26875 0.60543 0.0
C118 C 0.19445 0.26048 0.61081 0.0
C119 C 0.18469 0.23555 0.61714 0.0
C120 C 0.15725 0.21869 0.61714 0.0
C121 C 0.14012 0.22696 0.6115 0.0
C122 C 0.13458 0.27283 0.57882 0.0
C123 C 0.15275 0.29814 0.57427 0.0
C124 C 0.15811 0.30442 0.55793 0.0
C125 C 0.14552 0.2855 0.5457 0.0
C126 C 0.12724 0.26006 0.55026 0.0
C127 C 0.12205 0.25372 0.56672 0.0
P128 P 0.81016 0.9038 0.56934 0.0
H129 H 0.85135 0.95599 0.57854 0.0
H130 H 0.85096 0.9906 0.59426 0.0
H131 H 0.76729 0.94242 0.6011 0.0
H132 H 0.76781 0.90787 0.58523 0.0
H133 H 0.79584 0.85044 0.56255 0.0
H134 H 0.79304 0.81603 0.57966 0.0
H135 H 0.81039 0.86563 0.62192 0.0
H136 H 0.8138 0.9001 0.60468 0.0
H137 H 0.81393 0.91455 0.53472 0.0
H138 H 0.7531 0.86881 0.56887 0.0
O139 O 0.83975 0.91494 0.56112 0.0
H140 H 0.78122 0.89964 0.51285 0.0
H141 H 0.72011 0.8543 0.54701 0.0
C142 C 0.80954 0.92949 0.58052 0.0
C143 C 0.83288 0.95289 0.58332 0.0
C144 C 0.83266 0.97261 0.59242 0.0
C145 C 0.80908 0.96923 0.59892 0.0
C146 C 0.78569 0.94572 0.59606 0.0
C147 C 0.78597 0.92596 0.587 0.0
C148 C 0.80459 0.87764 0.58237 0.0
C149 C 0.79858 0.85372 0.57554 0.0
C150 C 0.7969 0.83404 0.58535 0.0
C151 C 0.80145 0.83806 0.60217 0.0
C152 C 0.80701 0.86198 0.60899 0.0
C153 C 0.80873 0.88166 0.59915 0.0
C154 C 0.78594 0.89259 0.55336 0.0
C155 C 0.79355 0.90125 0.53751 0.0
C156 C 0.77487 0.89272 0.52502 0.0
C157 C 0.74821 0.87576 0.52827 0.0
C158 C 0.74054 0.86747 0.54423 0.0
C159 C 0.75934 0.87572 0.55668 0.0
P160 P 0.13058 0.8537 0.60407 0.0
H161 H 0.14399 0.88121 0.63506 0.0
H162 H 0.16757 0.92723 0.64242 0.0
H163 H 0.17415 0.94671 0.59169 0.0
H164 H 0.15029 0.90077 0.58439 0.0
H165 H 0.09079 0.80014 0.59853 0.0
H166 H 0.0464 0.77339 0.6089 0.0
H167 H 0.05113 0.84067 0.63233 0.0
H168 H 0.09515 0.8674 0.62149 0.0
H169 H 0.17347 0.85226 0.58766 0.0
H170 H 0.10037 0.84765 0.57417 0.0
O171 O 0.14562 0.84164 0.61515 0.0
H172 H 0.183 0.84964 0.55918 0.0
H173 H 0.11005 0.84564 0.54542 0.0
C174 C 0.14559 0.88755 0.6092 0.0
C175 C 0.15025 0.8954 0.62554 0.0
C176 C 0.16358 0.92166 0.62973 0.0
C177 C 0.17278 0.9405 0.61761 0.0
C178 C 0.16749 0.93257 0.60125 0.0
C179 C 0.15381 0.90628 0.59709 0.0
C180 C 0.09631 0.83572 0.60921 0.0
C181 C 0.08205 0.80921 0.60562 0.0
C182 C 0.05679 0.79391 0.61172 0.0
C183 C 0.04536 0.80481 0.62169 0.0
C184 C 0.05929 0.83166 0.62466 0.0
C185 C 0.08459 0.84698 0.6185 0.0
C186 C 0.13598 0.84961 0.58301 0.0
C187 C 0.15933 0.85044 0.57853 0.0
C188 C 0.1649 0.84925 0.56221 0.0
C189 C 0.14735 0.84755 0.54997 0.0
C190 C 0.12383 0.84661 0.55453 0.0
C191 C 0.11826 0.84777 0.57094 0.0
P192 P 0.95727 0.47942 0.74104 0.0
H193 H 0.93944 0.453 0.70988 0.0
H194 H 0.91496 0.40723 0.70194 0.0
H195 H 0.90717 0.38614 0.75246 0.0
H196 H 0.93178 0.43175 0.76028 0.0
H197 H 0.97572 0.53353 0.73482 0.0
H198 H 0.95339 0.5569 0.72686 0.0
H199 H 0.87861 0.48592 0.72882 0.0
H200 H 0.90121 0.4626 0.73665 0.0
H201 H 0.00183 0.48214 0.75825 0.0
H202 H 0.93165 0.48422 0.77037 0.0
O203 O 0.9847 0.49192 0.73012 0.0
H204 H 0.01325 0.48511 0.78697 0.0
H205 H 0.9426 0.48661 0.79927 0.0
C206 C 0.93777 0.44575 0.73561 0.0
C207 C 0.93233 0.43847 0.71922 0.0
C208 C 0.91817 0.41235 0.71472 0.0
C209 C 0.90928 0.39309 0.72658 0.0
C210 C 0.91411 0.40054 0.74304 0.0
C211 C 0.92817 0.42666 0.74752 0.0
C212 C 0.94018 0.49633 0.73602 0.0
C213 C 0.95453 0.52302 0.73354 0.0
C214 C 0.94169 0.53636 0.72909 0.0
C215 C 0.91421 0.52323 0.72714 0.0
C216 C 0.89982 0.49649 0.72998 0.0
C217 C 0.91272 0.48317 0.7345 0.0
C218 C 0.96622 0.48352 0.7622 0.0
C219 C 0.98899 0.48347 0.76712 0.0
C220 C 0.99533 0.48488 0.78357 0.0
C221 C 0.97881 0.48604 0.79545 0.0
C222 C 0.95594 0.48611 0.79044 0.0
C223 C 0.94964 0.48473 0.77393 0.0
P224 P 0.57716 0.4374 0.76931 0.0
H225 H 0.56646 0.38497 0.76206 0.0
H226 H 0.53159 0.34885 0.74682 0.0
H227 H 0.49494 0.39458 0.7372 0.0
H228 H 0.53002 0.43077 0.75262 0.0
H229 H 0.5893 0.43902 0.73487 0.0
H230 H 0.61937 0.47409 0.71731 0.0
H231 H 0.63759 0.52874 0.75681 0.0
H232 H 0.60747 0.49362 0.77427 0.0
H233 H 0.57557 0.42707 0.80391 0.0
H234 H 0.5498 0.46715 0.77223 0.0
O235 O 0.59801 0.42843 0.77632 0.0
H236 H 0.55839 0.43911 0.82724 0.0
H237 H 0.53234 0.47922 0.79564 0.0
C238 C 0.55074 0.41052 0.75857 0.0
C239 C 0.5509 0.38726 0.75676 0.0
C240 C 0.53101 0.36664 0.74794 0.0
C241 C 0.51053 0.36887 0.74074 0.0
C242 C 0.51029 0.39216 0.74274 0.0
C243 C 0.53033 0.41287 0.75152 0.0
C244 C 0.59559 0.46379 0.75576 0.0
C245 C 0.59926 0.45863 0.73964 0.0
C246 C 0.61665 0.47866 0.72965 0.0
C247 C 0.63081 0.50421 0.73565 0.0
C248 C 0.62663 0.50936 0.75173 0.0
C249 C 0.60937 0.48927 0.76173 0.0
C250 C 0.56428 0.44651 0.78636 0.0
C251 C 0.56633 0.43859 0.80197 0.0
C252 C 0.55655 0.44554 0.81533 0.0
C253 C 0.5442 0.46029 0.8133 0.0
C254 C 0.54165 0.46775 0.79757 0.0
C255 C 0.55167 0.46093 0.7842 0.0
P256 P 0.52908 0.06796 0.7458 0.0
H257 H 0.50331 0.0585 0.71428 0.0
H258 H 0.47604 0.07377 0.70172 0.0
H259 H 0.49137 0.12556 0.74252 0.0
H260 H 0.51909 0.11034 0.75494 0.0
H261 H 0.56468 0.04779 0.7478 0.0
H262 H 0.6082 0.06183 0.737 0.0
H263 H 0.61064 0.12991 0.71757 0.0
H264 H 0.56714 0.11601 0.72902 0.0
H265 H 0.48509 0.05879 0.76633 0.0
H266 H 0.56419 0.07374 0.77337 0.0
O267 O 0.51317 0.03694 0.73996 0.0
H268 H 0.47638 0.04943 0.79506 0.0
H269 H 0.55523 0.06305 0.80195 0.0
C270 C 0.51266 0.08277 0.73574 0.0
C271 C 0.50102 0.07331 0.72048 0.0
C272 C 0.48531 0.08198 0.71334 0.0
C273 C 0.48104 0.10051 0.72126 0.0
C274 C 0.49418 0.11124 0.7361 0.0
C275 C 0.50993 0.10247 0.74326 0.0
C276 C 0.5626 0.08077 0.73921 0.0
C277 C 0.5747 0.06592 0.74139 0.0
C278 C 0.59953 0.07387 0.73503 0.0
C279 C 0.61286 0.09681 0.72611 0.0
C280 C 0.60104 0.11218 0.72439 0.0
C281 C 0.5761 0.10422 0.7309 0.0
C282 C 0.52541 0.06737 0.76762 0.0
C283 C 0.50082 0.06063 0.77411 0.0
C284 C 0.49572 0.05483 0.79056 0.0
C285 C 0.51494 0.05504 0.8009 0.0
C286 C 0.53997 0.06287 0.79448 0.0
C287 C 0.54512 0.06892 0.77801 0.0
P288 P 0.79717 0.60174 0.93408 0.0
H289 H 0.76656 0.62546 0.94318 0.0
H290 H 0.72348 0.6094 0.95492 0.0
H291 H 0.71245 0.5322 0.95547 0.0
H292 H 0.75548 0.54851 0.94269 0.0
H293 H 0.84416 0.60479 0.92051 0.0
H294 H 0.874 0.59046 0.92984 0.0
H295 H 0.82423 0.55426 0.97103 0.0
H296 H 0.79416 0.56861 0.96154 0.0
H297 H 0.79028 0.63759 0.9139 0.0
H298 H 0.79893 0.57074 0.90631 0.0
O299 O 0.81465 0.632 0.94124 0.0
H300 H 0.79332 0.64503 0.88468 0.0
H301 H 0.80279 0.57858 0.87701 0.0
C302 C 0.76472 0.58839 0.94262 0.0
C303 C 0.75499 0.60507 0.94589 0.0
C304 C 0.73028 0.59582 0.95277 0.0
C305 C 0.71455 0.56954 0.95667 0.0
C306 C 0.72396 0.55258 0.95276 0.0
C307 C 0.74872 0.5619 0.94561 0.0
C308 C 0.81609 0.5867 0.93982 0.0
C309 C 0.83906 0.59299 0.93125 0.0
C310 C 0.85641 0.58514 0.93675 0.0
C311 C 0.8515 0.57117 0.95117 0.0
C312 C 0.82833 0.56459 0.95972 0.0
C313 C 0.81098 0.57264 0.95421 0.0
C314 C 0.79519 0.6041 0.91234 0.0
C315 C 0.7926 0.62436 0.90593 0.0
C316 C 0.79424 0.62854 0.8892 0.0
C317 C 0.79866 0.6126 0.87857 0.0
C318 C 0.79979 0.59141 0.88495 0.0
C319 C 0.79763 0.58695 0.90169 0.0
P320 P 0.47452 0.2363 0.90283 0.0
H321 H 0.51642 0.28294 0.9185 0.0
H322 H 0.51619 0.31676 0.93522 0.0
H323 H 0.43129 0.2761 0.93287 0.0
H324 H 0.4318 0.24261 0.91578 0.0
H325 H 0.47605 0.18998 0.89369 0.0
H326 H 0.47266 0.15382 0.90931 0.0
H327 H 0.45777 0.18556 0.95265 0.0
H328 H 0.46124 0.22159 0.93704 0.0
H329 H 0.4701 0.26821 0.87843 0.0
H330 H 0.42671 0.18812 0.8922 0.0
O331 O 0.50405 0.24868 0.89433 0.0
H332 H 0.43912 0.25935 0.85623 0.0
H333 H 0.39624 0.17878 0.86955 0.0
C334 C 0.47416 0.26059 0.91569 0.0
C335 C 0.49777 0.28135 0.92155 0.0
C336 C 0.49758 0.30056 0.93124 0.0
C337 C 0.4737 0.29919 0.93535 0.0
C338 C 0.45002 0.27797 0.9297 0.0
C339 C 0.45027 0.25878 0.91999 0.0
C340 C 0.46896 0.20847 0.91418 0.0
C341 C 0.47173 0.18894 0.90652 0.0
C342 C 0.46966 0.16825 0.91543 0.0
C343 C 0.46505 0.16693 0.93222 0.0
C344 C 0.46161 0.18623 0.93977 0.0
C345 C 0.46349 0.2068 0.93081 0.0
C346 C 0.45093 0.22879 0.88679 0.0
C347 C 0.45397 0.24865 0.87657 0.0
C348 C 0.43631 0.2435 0.86383 0.0
C349 C 0.41533 0.21827 0.86096 0.0
C350 C 0.41205 0.19846 0.87147 0.0
C351 C 0.42967 0.20372 0.88434 0.0
P352 P 0.79565 0.19176 0.93513 0.0
H353 H 0.81378 0.21729 0.96652 0.0
H354 H 0.8361 0.26278 0.97516 0.0
H355 H 0.83006 0.28487 0.92633 0.0
H356 H 0.80706 0.23932 0.91784 0.0
H357 H 0.76229 0.13641 0.93896 0.0
H358 H 0.71928 0.10981 0.9511 0.0
H359 H 0.71398 0.17834 0.96068 0.0
H360 H 0.75663 0.20468 0.94789 0.0
H361 H 0.83943 0.21754 0.91311 0.0
H362 H 0.75758 0.1589 0.90957 0.0
O363 O 0.81388 0.18078 0.94365 0.0
H364 H 0.84462 0.2124 0.88414 0.0
H365 H 0.76285 0.15327 0.8806 0.0
C366 C 0.8095 0.22503 0.94146 0.0
C367 C 0.81703 0.23192 0.95772 0.0
C368 C 0.82962 0.25785 0.96266 0.0
C369 C 0.83502 0.27729 0.95135 0.0
C370 C 0.82642 0.27024 0.93521 0.0
C371 C 0.8134 0.24423 0.93035 0.0
C372 C 0.76277 0.17249 0.94268 0.0
C373 C 0.75175 0.14566 0.94356 0.0
C374 C 0.72724 0.13052 0.95066 0.0
C375 C 0.71331 0.14195 0.95717 0.0
C376 C 0.72409 0.16885 0.95577 0.0
C377 C 0.74859 0.18398 0.94852 0.0
C378 C 0.79807 0.1889 0.91348 0.0
C379 C 0.82249 0.20379 0.90605 0.0
C380 C 0.82543 0.20086 0.8895 0.0
C381 C 0.8041 0.18251 0.88011 0.0
C382 C 0.77962 0.16752 0.88757 0.0
C383 C 0.77659 0.17079 0.90413 0.0
P384 P 0.62407 0.81204 0.07454 0.0
H385 H 0.60519 0.7848 0.04366 0.0
H386 H 0.5808 0.73881 0.0362 0.0
H387 H 0.5744 0.71909 0.08692 0.0
H388 H 0.59886 0.76488 0.09426 0.0
H389 H 0.64297 0.86606 0.0677 0.0
H390 H 0.62087 0.88975 0.05998 0.0
H391 H 0.54565 0.81961 0.0637 0.0
H392 H 0.56804 0.79594 0.07121 0.0
H393 H 0.66858 0.81386 0.09123 0.0
H394 H 0.59986 0.81815 0.10414 0.0
O395 O 0.65113 0.82407 0.06329 0.0
H396 H 0.68043 0.81637 0.11985 0.0
H397 H 0.61128 0.82014 0.13293 0.0
C398 C 0.60419 0.77825 0.06945 0.0
C399 C 0.59836 0.77053 0.05315 0.0
C400 C 0.58428 0.74428 0.04892 0.0
C401 C 0.57586 0.72534 0.06098 0.0
C402 C 0.58099 0.73323 0.07735 0.0
C403 C 0.59497 0.75947 0.08156 0.0
C404 C 0.60718 0.82922 0.0697 0.0
C405 C 0.62173 0.8558 0.06685 0.0
C406 C 0.60903 0.86934 0.06256 0.0
C407 C 0.58148 0.85654 0.06116 0.0
C408 C 0.56691 0.82993 0.06442 0.0
C409 C 0.57967 0.8164 0.06876 0.0
C410 C 0.63368 0.81638 0.09558 0.0
C411 C 0.6562 0.81564 0.10024 0.0
C412 C 0.66278 0.81678 0.11663 0.0
C413 C 0.64676 0.81838 0.1287 0.0
C414 C 0.62423 0.81928 0.12394 0.0
C415 C 0.61767 0.81814 0.1075 0.0
P416 P 0.24282 0.77187 0.10429 0.0
H417 H 0.229 0.7179 0.0996 0.0
H418 H 0.19465 0.68218 0.0838 0.0
H419 H 0.16605 0.73214 0.0674 0.0
H420 H 0.20065 0.76801 0.08342 0.0
H421 H 0.27812 0.77078 0.08039 0.0
H422 H 0.30957 0.80283 0.06191 0.0
H423 H 0.28722 0.85783 0.07888 0.0
H424 H 0.25455 0.82497 0.09647 0.0
H425 H 0.18993 0.75164 0.11783 0.0
H426 H 0.26724 0.81771 0.12535 0.0
O427 O 0.26023 0.76116 0.11418 0.0
H428 H 0.1735 0.76553 0.14055 0.0
H429 H 0.25072 0.83235 0.14783 0.0
C430 C 0.21723 0.74553 0.09274 0.0
C431 C 0.21536 0.72123 0.09264 0.0
C432 C 0.19579 0.70083 0.08352 0.0
C433 C 0.17768 0.70435 0.07432 0.0
C434 C 0.17957 0.72878 0.07448 0.0
C435 C 0.19934 0.74927 0.08355 0.0
C436 C 0.2646 0.79573 0.09017 0.0
C437 C 0.27992 0.78972 0.08004 0.0
C438 C 0.29806 0.80819 0.06954 0.0
C439 C 0.30148 0.83324 0.06908 0.0
C440 C 0.28519 0.8388 0.07881 0.0
C441 C 0.2667 0.82009 0.08912 0.0
C442 C 0.22968 0.78409 0.11951 0.0
C443 C 0.20325 0.76958 0.12404 0.0
C444 C 0.19382 0.7776 0.1371 0.0
C445 C 0.21071 0.80018 0.14603 0.0
C446 C 0.23717 0.81476 0.14134 0.0
C447 C 0.24659 0.80661 0.12834 0.0
P448 P 0.19475 0.40024 0.07724 0.0
H449 H 0.1591 0.38446 0.04953 0.0
H450 H 0.13126 0.40001 0.03837 0.0
H451 H 0.16243 0.46235 0.07381 0.0
H452 H 0.19083 0.44676 0.0848 0.0
H453 H 0.21279 0.38738 0.04772 0.0
H454 H 0.25622 0.40196 0.03648 0.0
H455 H 0.29122 0.45816 0.07549 0.0
H456 H 0.24731 0.44366 0.08655 0.0
H457 H 0.15963 0.40258 0.1017 0.0
H458 H 0.22938 0.39606 0.10101 0.0
O459 O 0.17877 0.36881 0.07236 0.0
H460 H 0.15523 0.39403 0.13075 0.0
H461 H 0.22522 0.38769 0.13008 0.0
C462 C 0.17644 0.41397 0.06833 0.0
C463 C 0.16003 0.4015 0.05493 0.0
C464 C 0.14401 0.41039 0.04857 0.0
C465 C 0.14414 0.43212 0.0554 0.0
C466 C 0.16177 0.44552 0.06828 0.0
C467 C 0.1779 0.43656 0.07465 0.0
C468 C 0.22689 0.4139 0.06824 0.0
C469 C 0.22977 0.40294 0.05383 0.0
C470 C 0.25467 0.41124 0.04744 0.0
C471 C 0.27732 0.43086 0.05526 0.0
C472 C 0.27423 0.44296 0.06918 0.0
C473 C 0.24916 0.4346 0.07558 0.0
C474 C 0.19542 0.40096 0.09919 0.0
C475 C 0.17465 0.40039 0.10788 0.0
C476 C 0.17206 0.39534 0.12454 0.0
C477 C 0.18985 0.39014 0.13278 0.0
C478 C 0.21107 0.39147 0.12412 0.0
C479 C 0.2137 0.39664 0.10749 0.0
P480 P 0.46393 0.93421 0.26913 0.0
H481 H 0.44564 0.93641 0.30148 0.0
H482 H 0.40205 0.91998 0.31301 0.0
H483 H 0.36679 0.88117 0.26759 0.0
H484 H 0.41078 0.89779 0.25604 0.0
H485 H 0.51019 0.93761 0.25406 0.0
H486 H 0.53965 0.92195 0.26198 0.0
H487 H 0.48829 0.88044 0.30161 0.0
H488 H 0.45846 0.89576 0.29333 0.0
H489 H 0.47108 0.97989 0.25228 0.0
H490 H 0.45626 0.9037 0.23905 0.0
O491 O 0.48124 0.96269 0.2787 0.0
H492 H 0.47717 0.99208 0.22381 0.0
H493 H 0.46228 0.91586 0.21028 0.0
C494 C 0.43147 0.91878 0.2778 0.0
C495 C 0.42857 0.92424 0.29399 0.0
C496 C 0.40362 0.91489 0.30058 0.0
C497 C 0.38094 0.89959 0.29115 0.0
C498 C 0.38388 0.8929 0.27517 0.0
C499 C 0.409 0.90247 0.26853 0.0
C500 C 0.48176 0.91742 0.27285 0.0
C501 C 0.50477 0.92447 0.26414 0.0
C502 C 0.52184 0.91579 0.26884 0.0
C503 C 0.5165 0.90015 0.28255 0.0
C504 C 0.49289 0.89226 0.29091 0.0
C505 C 0.47577 0.901 0.28617 0.0
C506 C 0.46379 0.94107 0.24783 0.0
C507 C 0.4689 0.96566 0.24323 0.0
C508 C 0.47246 0.97266 0.22693 0.0
C509 C 0.47068 0.95509 0.21482 0.0
C510 C 0.46384 0.92983 0.21934 0.0
C511 C 0.46046 0.92289 0.23576 0.0
P512 P 0.14742 0.57536 0.23484 0.0
H513 H 0.18888 0.62685 0.24515 0.0
H514 H 0.18845 0.661 0.26141 0.0
H515 H 0.10444 0.61337 0.26701 0.0
H516 H 0.10501 0.5793 0.25059 0.0
H517 H 0.13132 0.52159 0.22745 0.0
H518 H 0.12783 0.48643 0.24414 0.0
H519 H 0.14764 0.53567 0.28677 0.0
H520 H 0.15165 0.57081 0.26998 0.0
H521 H 0.15167 0.59141 0.20126 0.0
H522 H 0.09062 0.53909 0.23322 0.0
O523 O 0.17708 0.58648 0.22673 0.0
H524 H 0.11946 0.58025 0.17953 0.0
H525 H 0.0579 0.5285 0.2117 0.0
C526 C 0.14692 0.6007 0.24649 0.0
C527 C 0.17034 0.62379 0.24978 0.0
C528 C 0.17009 0.64323 0.25918 0.0
C529 C 0.14639 0.63987 0.26549 0.0
C530 C 0.12294 0.61666 0.26214 0.0
C531 C 0.12324 0.59717 0.25278 0.0
C532 C 0.14125 0.54862 0.2475 0.0
C533 C 0.13443 0.52463 0.24043 0.0
C534 C 0.13238 0.50453 0.25 0.0
C535 C 0.13744 0.50825 0.2668 0.0
C536 C 0.14386 0.53226 0.27385 0.0
C537 C 0.14591 0.55231 0.26427 0.0
C538 C 0.12357 0.56575 0.21873 0.0
C539 C 0.13129 0.57742 0.20357 0.0
C540 C 0.11275 0.57124 0.19121 0.0
C541 C 0.086 0.55355 0.19387 0.0
C542 C 0.07835 0.54192 0.20915 0.0
C543 C 0.097 0.54802 0.22149 0.0
P544 P 0.4657 0.52148 0.27153 0.0
H545 H 0.48687 0.54802 0.3024 0.0
H546 H 0.50743 0.59356 0.31074 0.0
H547 H 0.4898 0.61241 0.26367 0.0
H548 H 0.46843 0.56668 0.25556 0.0
H549 H 0.44559 0.48484 0.29799 0.0
H550 H 0.40187 0.45769 0.30886 0.0
H551 H 0.36973 0.48642 0.27279 0.0
H552 H 0.4141 0.5142 0.26211 0.0
H553 H 0.50728 0.55446 0.2496 0.0
H554 H 0.43278 0.48361 0.24606 0.0
O555 O 0.48551 0.51221 0.27986 0.0
H556 H 0.51495 0.55109 0.22094 0.0
H557 H 0.44077 0.47951 0.21731 0.0
C558 C 0.477 0.55419 0.27819 0.0
C559 C 0.48709 0.56189 0.29396 0.0
C560 C 0.49869 0.58785 0.29874 0.0
C561 C 0.50048 0.60646 0.28775 0.0
C562 C 0.48896 0.59844 0.27226 0.0
C563 C 0.47688 0.57237 0.26762 0.0
C564 C 0.43298 0.50104 0.27898 0.0
C565 C 0.42918 0.48522 0.2923 0.0
C566 C 0.40409 0.46963 0.29852 0.0
C567 C 0.3822 0.4696 0.29158 0.0
C568 C 0.38617 0.48604 0.27845 0.0
C569 C 0.41143 0.50172 0.27223 0.0
C570 C 0.46909 0.51976 0.24988 0.0
C571 C 0.49232 0.53837 0.24257 0.0
C572 C 0.49685 0.53621 0.22618 0.0
C573 C 0.47855 0.51495 0.21678 0.0
C574 C 0.45511 0.49634 0.22412 0.0
C575 C 0.45051 0.49865 0.24057 0.0
Gd576 Gd 0.50717 0.01945 0.02577 0.0
Gd577 Gd 0.48389 0.97886 0.98803 0.0
C578 C 0.40362 0.90506 0.98576 0.0
C579 C 0.41561 0.87181 0.98253 0.0
C580 C 0.44943 0.91716 0.9842 0.0
C581 C 0.43047 0.9241 0.98599 0.0
C582 C 0.44225 0.891 0.98201 0.0
C583 C 0.39631 0.87883 0.98443 0.0
C584 C 0.38494 0.91301 0.98637 0.0
C585 C 0.39327 0.93938 0.98653 0.0
N586 N 0.43829 0.94961 0.98704 0.0
C587 C 0.42016 0.95751 0.98663 0.0
H588 H 0.42626 0.9778 0.98684 0.0
C589 C 0.49409 0.93066 0.97962 0.0
N590 N 0.47487 0.93622 0.98356 0.0
C591 C 0.48801 0.90499 0.97742 0.0
C592 C 0.46201 0.88503 0.97885 0.0
H593 H 0.51424 0.94602 0.97862 0.0
H594 H 0.37578 0.8639 0.9844 0.0
H595 H 0.56579 0.02313 0.02976 0.0
H596 H 0.36411 0.89901 0.98627 0.0
H597 H 0.37899 0.94577 0.98665 0.0
H598 H 0.40969 0.85156 0.98105 0.0
H599 H 0.47356 0.05021 0.03215 0.0
H600 H 0.6255 0.10288 0.03151 0.0
H601 H 0.61253 0.05659 0.03161 0.0
H602 H 0.57632 0.14703 0.03298 0.0
H603 H 0.50337 0.90063 0.97467 0.0
H604 H 0.45732 0.86516 0.97709 0.0
H605 H 0.61179 0.13655 0.03182 0.0
H606 H 0.48229 0.09501 0.03532 0.0
N607 N 0.55225 0.05005 0.02809 0.0
C608 C 0.6049 0.08824 0.03066 0.0
C609 C 0.59766 0.06215 0.03077 0.0
C610 C 0.58541 0.09512 0.03003 0.0
C611 C 0.55891 0.0753 0.02887 0.0
C612 C 0.57107 0.0432 0.02972 0.0
N613 N 0.51382 0.06145 0.02933 0.0
C614 C 0.53904 0.08121 0.02954 0.0
C615 C 0.49843 0.0914 0.03364 0.0
C616 C 0.52424 0.11204 0.03318 0.0
C617 C 0.49356 0.06606 0.03188 0.0
C618 C 0.54497 0.10707 0.03135 0.0
H619 H 0.52797 0.13164 0.0346 0.0
O620 O 0.48707 0.01448 0.04866 0.0
O621 O 0.47559 0.98451 0.01345 0.0
O622 O 0.47255 0.01022 0.98933 0.0
O623 O 0.50399 0.04316 0.00586 0.0
O624 O 0.46348 0.00452 0.02803 0.0
O625 O 0.5215 0.01025 0.04761 0.0
O626 O 0.5031 0.98367 0.96479 0.0
O627 O 0.51606 0.01295 1.00061 0.0
O628 O 0.52005 0.98941 0.02472 0.0
O629 O 0.49158 0.95618 0.00691 0.0
O630 O 0.52713 0.99274 0.98515 0.0
O631 O 0.46969 0.98938 0.9667 0.0
C632 C 0.45553 0.98416 0.01902 0.0
C633 C 0.57134 0.12701 0.03175 0.0
C634 C 0.59154 0.12104 0.03107 0.0
C635 C 0.50386 0.01081 0.05689 0.0
C636 C 0.51341 0.02546 0.07226 0.0
C637 C 0.52867 0.05249 0.07218 0.0
C638 C 0.50695 0.01241 0.08715 0.0
C639 C 0.5157 0.02634 0.10196 0.0
C640 C 0.53726 0.06642 0.08674 0.0
C641 C 0.5308 0.05354 0.10151 0.0
C642 C 0.48619 0.03483 0.99407 0.0
C643 C 0.53561 0.01241 0.99484 0.0
C644 C 0.48669 0.98843 0.95703 0.0
C645 C 0.47634 0.97455 0.94149 0.0
C646 C 0.46012 0.94761 0.94113 0.0
C647 C 0.48274 0.98833 0.92688 0.0
C648 C 0.47291 0.97525 0.91189 0.0
C649 C 0.45047 0.93451 0.92638 0.0
C650 C 0.4568 0.94814 0.91187 0.0
C651 C 0.50906 0.96533 0.01897 0.0
H652 H 0.53382 0.06284 0.0609 0.0
H653 H 0.4954 0.99148 0.08714 0.0
H654 H 0.54887 0.08732 0.08658 0.0
H655 H 0.53738 0.06499 0.11259 0.0
H656 H 0.45495 0.93672 0.95223 0.0
H657 H 0.49502 0.0092 0.92723 0.0
H658 H 0.43807 0.91367 0.92618 0.0
H659 H 0.44929 0.93734 0.90061 0.0
Gd660 Gd 0.97684 0.49781 0.02095 0.0
Gd661 Gd 0.0202 0.50751 0.98582 0.0
C662 C 0.09028 0.49453 0.98909 0.0
C663 C 0.12723 0.53835 0.98734 0.0
C664 C 0.08246 0.53036 0.98597 0.0
C665 C 0.07286 0.50421 0.98788 0.0
C666 C 0.10974 0.54769 0.9853 0.0
C667 C 0.11751 0.5118 0.98923 0.0
C668 C 0.07981 0.46774 0.9896 0.0
C669 C 0.05267 0.45136 0.98831 0.0
N670 N 0.04645 0.48808 0.98751 0.0
C671 C 0.03621 0.4619 0.98706 0.0
H672 H 0.01528 0.44899 0.98617 0.0
C673 C 0.07346 0.56374 0.97984 0.0
N674 N 0.06502 0.53863 0.98381 0.0
C675 C 0.10033 0.58173 0.97918 0.0
C676 C 0.11858 0.57374 0.98212 0.0
H677 H 0.0594 0.57001 0.97768 0.0
H678 H 0.1312 0.50475 0.99035 0.0
H679 H 0.98125 0.55604 0.01944 0.0
H680 H 0.09251 0.45952 0.99057 0.0
H681 H 0.0444 0.43059 0.98837 0.0
H682 H 0.14827 0.55139 0.98703 0.0
H683 H 0.9387 0.43583 0.03071 0.0
H684 H 0.9036 0.54498 0.01793 0.0
H685 H 0.95179 0.57411 0.01799 0.0
H686 H 0.84878 0.45351 0.02443 0.0
H687 H 0.10695 0.60173 0.97642 0.0
H688 H 0.13939 0.58768 0.98152 0.0
H689 H 0.86523 0.49981 0.02007 0.0
H690 H 0.89154 0.40427 0.03409 0.0
N691 N 0.95019 0.51686 0.0197 0.0
C692 C 0.91646 0.5369 0.01855 0.0
C693 C 0.94364 0.5534 0.01862 0.0
C694 C 0.90623 0.51021 0.01976 0.0
C695 C 0.92385 0.5007 0.02045 0.0
C696 C 0.9603 0.54303 0.01943 0.0
N697 N 0.93231 0.46667 0.02436 0.0
C698 C 0.91459 0.47472 0.02281 0.0
C699 C 0.89774 0.42399 0.03083 0.0
C700 C 0.87913 0.43167 0.02845 0.0
C701 C 0.92443 0.44192 0.02892 0.0
C702 C 0.88748 0.45742 0.02465 0.0
H703 H 0.85847 0.41778 0.02999 0.0
O704 O 0.9789 0.48491 0.0451 0.0
O705 O 0.01102 0.49584 0.01144 0.0
O706 O 0.98562 0.46636 0.98713 0.0
O707 O 0.95248 0.46789 1.00187 0.0
O708 O 0.98679 0.46669 0.0268 0.0
O709 O 0.98703 0.52417 0.04156 0.0
O710 O 0.02179 0.52188 0.96151 0.0
O711 O 0.98585 0.50914 0.99524 0.0
O712 O 0.01124 0.53919 0.01929 0.0
O713 O 0.0441 0.53595 0.00557 0.0
O714 O 0.00975 0.5383 0.97983 0.0
O715 O 0.00938 0.48145 0.96506 0.0
C716 C 0.00798 0.47589 0.01843 0.0
C717 C 0.86972 0.46654 0.02322 0.0
C718 C 0.87908 0.4929 0.02075 0.0
C719 C 0.9842 0.50673 0.052 0.0
C720 C 0.96948 0.50482 0.06674 0.0
C721 C 0.94213 0.49411 0.06643 0.0
C722 C 0.98313 0.51295 0.08153 0.0
C723 C 0.96963 0.51005 0.0961 0.0
C724 C 0.92857 0.49127 0.08086 0.0
C725 C 0.94219 0.499 0.09567 0.0
C726 C 0.96064 0.45656 0.99133 0.0
C727 C 0.9885 0.52884 0.98815 0.0
C728 C 0.01524 0.49972 0.95457 0.0
C729 C 0.03143 0.5005 0.94081 0.0
C730 C 0.05658 0.50397 0.94336 0.0
C731 C 0.02156 0.49757 0.92493 0.0
C732 C 0.03666 0.4979 0.9116 0.0
C733 C 0.0717 0.50444 0.93023 0.0
C734 C 0.06186 0.5014 0.91444 0.0
C735 C 0.0363 0.54799 0.01574 0.0
H736 H 0.93128 0.48775 0.05512 0.0
H737 H 0.00425 0.52092 0.08175 0.0
H738 H 0.90744 0.48289 0.08059 0.0
H739 H 0.93136 0.49657 0.10675 0.0
H740 H 0.06451 0.50627 0.95546 0.0
H741 H 0.002 0.49463 0.92299 0.0
H742 H 0.09113 0.50719 0.9323 0.0
H743 H 0.07409 0.50209 0.90444 0.0
Gd744 Gd 0.4831 0.50371 0.99096 0.0
Gd745 Gd 0.51111 0.49047 0.02763 0.0
C746 C 0.59298 0.49957 0.02803 0.0
C747 C 0.58301 0.45495 0.02953 0.0
C748 C 0.54774 0.46498 0.02928 0.0
C749 C 0.56585 0.49101 0.02808 0.0
C750 C 0.5561 0.44668 0.03042 0.0
C751 C 0.60143 0.48136 0.02833 0.0
C752 C 0.61078 0.52619 0.02825 0.0
C753 C 0.60137 0.54347 0.02917 0.0
N754 N 0.55699 0.50805 0.02806 0.0
C755 C 0.57427 0.534 0.02927 0.0
H756 H 0.5673 0.54759 0.02986 0.0
C757 C 0.50358 0.43272 0.0336 0.0
N758 N 0.52195 0.45775 0.03033 0.0
C759 C 0.51087 0.41381 0.03472 0.0
C760 C 0.53721 0.42075 0.03291 0.0
H761 H 0.48317 0.42723 0.0349 0.0
H762 H 0.62218 0.48755 0.02812 0.0
H763 H 0.42729 0.44612 0.98996 0.0
H764 H 0.63178 0.53357 0.02818 0.0
H765 H 0.61497 0.56409 0.02969 0.0
H766 H 0.58982 0.44116 0.03021 0.0
H767 H 0.51032 0.56621 0.98192 0.0
H768 H 0.36213 0.45913 0.98923 0.0
H769 H 0.37955 0.42908 0.98964 0.0
H770 H 0.40307 0.55113 0.98425 0.0
H771 H 0.49618 0.39389 0.03694 0.0
H772 H 0.54282 0.40609 0.03384 0.0
H773 H 0.37112 0.50484 0.98746 0.0
H774 H 0.49679 0.59885 0.97805 0.0
N775 N 0.43711 0.48561 0.99025 0.0
C776 C 0.38318 0.46676 0.98939 0.0
C777 C 0.39293 0.44975 0.98958 0.0
C778 C 0.40071 0.49341 0.98887 0.0
C779 C 0.42791 0.50231 0.98918 0.0
C780 C 0.42009 0.45954 0.98976 0.0
N781 N 0.47164 0.53572 0.98681 0.0
C782 C 0.44579 0.52825 0.98742 0.0
C783 C 0.48225 0.57908 0.98075 0.0
C784 C 0.45581 0.57195 0.98215 0.0
C785 C 0.48983 0.56054 0.98293 0.0
C786 C 0.43712 0.54617 0.98526 0.0
H787 H 0.44996 0.58631 0.98041 0.0
O788 O 0.5013 0.51782 0.96758 0.0
O789 O 0.51744 0.50394 1.00226 0.0
O790 O 0.52034 0.53224 0.02663 0.0
O791 O 0.48849 0.5333 0.01009 0.0
O792 O 0.52565 0.53438 0.98727 0.0
O793 O 0.46873 0.47863 0.96964 0.0
O794 O 0.49404 0.47531 0.05113 0.0
O795 O 0.47699 0.49097 0.01653 0.0
O796 O 0.47408 0.46187 0.9922 0.0
O797 O 0.50786 0.4631 0.00773 0.0
O798 O 0.46837 0.46021 0.0313 0.0
O799 O 0.52584 0.5149 0.04922 0.0
C800 C 0.53592 0.52415 0.99621 0.0
C801 C 0.41012 0.53763 0.98573 0.0
C802 C 0.39193 0.51128 0.98755 0.0
C803 C 0.48511 0.49647 0.95992 0.0
C804 C 0.47435 0.49935 0.9445 0.0
C805 C 0.45483 0.50625 0.94411 0.0
C806 C 0.48423 0.49552 0.92992 0.0
C807 C 0.47495 0.49876 0.91485 0.0
C808 C 0.44537 0.50937 0.92925 0.0
C809 C 0.45534 0.50571 0.9147 0.0
C810 C 0.50703 0.54341 0.02149 0.0
C811 C 0.45836 0.47094 0.02259 0.0
C812 C 0.51047 0.49643 0.05895 0.0
C813 C 0.52294 0.49301 0.07347 0.0
C814 C 0.54207 0.4857 0.07198 0.0
C815 C 0.51553 0.49688 0.08897 0.0
C816 C 0.52725 0.49354 0.10299 0.0
C817 C 0.55363 0.48218 0.08577 0.0
C818 C 0.5463 0.48602 0.10117 0.0
C819 C 0.48919 0.45223 0.99652 0.0
H820 H 0.447 0.50927 0.95525 0.0
H821 H 0.49904 0.4898 0.93037 0.0
H822 H 0.43037 0.51481 0.92899 0.0
H823 H 0.44797 0.5087 0.90336 0.0
H824 H 0.54805 0.48268 0.06019 0.0
H825 H 0.50096 0.50284 0.09008 0.0
H826 H 0.56829 0.47639 0.08451 0.0
H827 H 0.55537 0.48282 0.11167 0.0
Gd828 Gd 0.17401 0.3531 0.35705 0.0
Gd829 Gd 0.14572 0.31369 0.31924 0.0
C830 C 0.06284 0.24336 0.31762 0.0
C831 C 0.07149 0.2082 0.31245 0.0
C832 C 0.10759 0.25255 0.31449 0.0
C833 C 0.09009 0.26106 0.31742 0.0
C834 C 0.0985 0.2261 0.31153 0.0
C835 C 0.05368 0.21681 0.31553 0.0
C836 C 0.04563 0.25296 0.31944 0.0
C837 C 0.0557 0.27963 0.32034 0.0
N838 N 0.09966 0.28685 0.31918 0.0
C839 C 0.08288 0.2964 0.31993 0.0
H840 H 0.09034 0.31695 0.32071 0.0
C841 C 0.15116 0.26342 0.30848 0.0
N842 N 0.13344 0.27041 0.31353 0.0
C843 C 0.14315 0.23742 0.30543 0.0
C844 C 0.11675 0.21861 0.3072 0.0
H845 H 0.17162 0.27786 0.30719 0.0
H846 H 0.03284 0.20288 0.31582 0.0
H847 H 0.22963 0.35021 0.35886 0.0
H848 H 0.02457 0.24001 0.31972 0.0
H849 H 0.04254 0.2873 0.3214 0.0
H850 H 0.06413 0.18775 0.31038 0.0
H851 H 0.14655 0.3891 0.36529 0.0
H852 H 0.29493 0.42736 0.36059 0.0
H853 H 0.27737 0.3801 0.35987 0.0
H854 H 0.25417 0.47939 0.36478 0.0
H855 H 0.15734 0.2319 0.30178 0.0
H856 H 0.11057 0.19849 0.3048 0.0
H857 H 0.28608 0.46435 0.3622 0.0
H858 H 0.16015 0.43525 0.36909 0.0
N859 N 0.21996 0.38011 0.3585 0.0
C860 C 0.27389 0.4143 0.36013 0.0
C861 C 0.26405 0.38765 0.35976 0.0
C862 C 0.25641 0.42376 0.36039 0.0
C863 C 0.2292 0.40592 0.3597 0.0
C864 C 0.23688 0.37073 0.35919 0.0
N865 N 0.18541 0.39647 0.36136 0.0
C866 C 0.21134 0.41439 0.36116 0.0
C867 C 0.17475 0.42966 0.36681 0.0
C868 C 0.20131 0.44846 0.36593 0.0
C869 C 0.16712 0.40356 0.3647 0.0
C870 C 0.22004 0.44091 0.36333 0.0
H871 H 0.20718 0.46866 0.36763 0.0
O872 O 0.1566 0.35057 0.38068 0.0
O873 O 0.13993 0.31971 0.34515 0.0
O874 O 0.13737 0.34692 0.32203 0.0
O875 O 0.17152 0.37834 0.33792 0.0
O876 O 0.13134 0.34147 0.36074 0.0
O877 O 0.18698 0.34046 0.37795 0.0
O878 O 0.16389 0.31909 0.29558 0.0
O879 O 0.18019 0.34632 0.33137 0.0
O880 O 0.18302 0.32045 0.35469 0.0
O881 O 0.15208 0.28871 0.33702 0.0
O882 O 0.18795 0.32452 0.3151 0.0
O883 O 0.13102 0.32537 0.29869 0.0
C884 C 0.12127 0.32107 0.3516 0.0
C885 C 0.24709 0.45889 0.36328 0.0
C886 C 0.26525 0.45033 0.36181 0.0
C887 C 0.17173 0.34364 0.38802 0.0
C888 C 0.18392 0.35722 0.40339 0.0
C889 C 0.2027 0.38362 0.40348 0.0
C890 C 0.17685 0.34367 0.4181 0.0
C891 C 0.18865 0.35643 0.43287 0.0
C892 C 0.21433 0.39641 0.41803 0.0
C893 C 0.20741 0.383 0.43262 0.0
C894 C 0.1528 0.37129 0.3268 0.0
C895 C 0.1984 0.34421 0.32483 0.0
C896 C 0.14739 0.32439 0.28847 0.0
C897 C 0.13627 0.31095 0.27291 0.0
C898 C 0.11628 0.28496 0.27257 0.0
C899 C 0.14624 0.324 0.25822 0.0
C900 C 0.13655 0.31101 0.24322 0.0
C901 C 0.10646 0.27205 0.25777 0.0
C902 C 0.11655 0.28489 0.2432 0.0
C903 C 0.17003 0.29643 0.34879 0.0
H904 H 0.20836 0.39433 0.39233 0.0
H905 H 0.1625 0.32319 0.41797 0.0
H906 H 0.22874 0.41684 0.41802 0.0
H907 H 0.21655 0.39355 0.44374 0.0
H908 H 0.10832 0.27465 0.28372 0.0
H909 H 0.16187 0.34403 0.25849 0.0
H910 H 0.09102 0.25198 0.25759 0.0
H911 H 0.1085 0.27444 0.23188 0.0
Gd912 Gd 0.64264 0.82973 0.35462 0.0
Gd913 Gd 0.68495 0.83717 0.31937 0.0
C914 C 0.7539 0.82255 0.32314 0.0
C915 C 0.79142 0.86591 0.32067 0.0
C916 C 0.74698 0.85882 0.3193 0.0
C917 C 0.7369 0.8327 0.32169 0.0
C918 C 0.77433 0.87567 0.31839 0.0
C919 C 0.78121 0.83939 0.32304 0.0
C920 C 0.74294 0.79574 0.3241 0.0
C921 C 0.71572 0.77975 0.32301 0.0
N922 N 0.71042 0.81698 0.32153 0.0
C923 C 0.69968 0.79074 0.32153 0.0
H924 H 0.67868 0.77813 0.3208 0.0
C925 C 0.73878 0.89249 0.31245 0.0
N926 N 0.72992 0.8675 0.31692 0.0
C927 C 0.76575 0.91001 0.31153 0.0
C928 C 0.78363 0.90165 0.31471 0.0
H929 H 0.72499 0.89904 0.31009 0.0
H930 H 0.79459 0.83199 0.32434 0.0
H931 H 0.64719 0.88785 0.35131 0.0
H932 H 0.75531 0.78717 0.32526 0.0
H933 H 0.70705 0.75896 0.32341 0.0
H934 H 0.81251 0.87859 0.32018 0.0
H935 H 0.60476 0.76871 0.36644 0.0
H936 H 0.5696 0.87694 0.34985 0.0
H937 H 0.61778 0.9059 0.34915 0.0
H938 H 0.51487 0.78625 0.35938 0.0
H939 H 0.77272 0.92994 0.30838 0.0
H940 H 0.80451 0.91523 0.31391 0.0
H941 H 0.53125 0.8321 0.35343 0.0
H942 H 0.55775 0.73765 0.37081 0.0
N943 N 0.61607 0.8488 0.3527 0.0
C944 C 0.58243 0.86886 0.35078 0.0
C945 C 0.60961 0.88527 0.35042 0.0
C946 C 0.57218 0.84231 0.35285 0.0
C947 C 0.58976 0.83279 0.35392 0.0
C948 C 0.62624 0.87491 0.35165 0.0
N949 N 0.59826 0.79908 0.35907 0.0
C950 C 0.58055 0.80707 0.35721 0.0
C951 C 0.56388 0.75708 0.3669 0.0
C952 C 0.54524 0.76465 0.36423 0.0
C953 C 0.59049 0.77474 0.36443 0.0
C954 C 0.5535 0.79003 0.35958 0.0
H955 H 0.52464 0.75096 0.3662 0.0
O956 O 0.64645 0.81864 0.37901 0.0
O957 O 0.67638 0.82689 0.3452 0.0
O958 O 0.64973 0.79635 0.32121 0.0
O959 O 0.61739 0.79876 0.33638 0.0
O960 O 0.65226 0.79855 0.36103 0.0
O961 O 0.65257 0.85703 0.37465 0.0
O962 O 0.68641 0.85081 0.29486 0.0
O963 O 0.65095 0.83957 0.32865 0.0
O964 O 0.67711 0.87082 0.35209 0.0
O965 O 0.7095 0.86656 0.33857 0.0
O966 O 0.6749 0.86802 0.31282 0.0
O967 O 0.6738 0.81044 0.29895 0.0
C968 C 0.67325 0.80715 0.3525 0.0
C969 C 0.53575 0.7991 0.35776 0.0
C970 C 0.54508 0.8252 0.35438 0.0
C971 C 0.65088 0.84047 0.38544 0.0
C972 C 0.63632 0.83853 0.40027 0.0
C973 C 0.61078 0.83469 0.39977 0.0
C974 C 0.64823 0.83989 0.41523 0.0
C975 C 0.63483 0.83721 0.42983 0.0
C976 C 0.59734 0.83222 0.41421 0.0
C977 C 0.60924 0.83346 0.42918 0.0
C978 C 0.62497 0.7869 0.32586 0.0
C979 C 0.65371 0.85903 0.32119 0.0
C980 C 0.67971 0.82841 0.28823 0.0
C981 C 0.69575 0.82869 0.27451 0.0
C982 C 0.72022 0.83058 0.27714 0.0
C983 C 0.68645 0.82698 0.25859 0.0
C984 C 0.70143 0.82699 0.24528 0.0
C985 C 0.73524 0.83074 0.26403 0.0
C986 C 0.72595 0.82893 0.24819 0.0
C987 C 0.70206 0.8792 0.3485 0.0
H988 H 0.60127 0.83355 0.3883 0.0
H989 H 0.66815 0.84327 0.41546 0.0
H990 H 0.5776 0.8292 0.41379 0.0
H991 H 0.59831 0.83116 0.44019 0.0
H992 H 0.7277 0.83188 0.28927 0.0
H993 H 0.66739 0.82524 0.2566 0.0
H994 H 0.75415 0.83228 0.26615 0.0
H995 H 0.7381 0.82936 0.23822 0.0
Gd996 Gd 0.1495 0.84001 0.32382 0.0
Gd997 Gd 0.17799 0.82619 0.36004 0.0
C998 C 0.25901 0.83322 0.36004 0.0
C999 C 0.24797 0.7883 0.36174 0.0
C1000 C 0.21347 0.79942 0.36162 0.0
C1001 C 0.23202 0.82527 0.36024 0.0
C1002 C 0.22121 0.78065 0.36272 0.0
C1003 C 0.26685 0.81455 0.3604 0.0
C1004 C 0.2773 0.85971 0.36001 0.0
C1005 C 0.2685 0.87748 0.3608 0.0
N1006 N 0.22374 0.84276 0.36013 0.0
C1007 C 0.24152 0.86862 0.36107 0.0
H1008 H 0.23506 0.8826 0.36157 0.0
C1009 C 0.16902 0.76785 0.36583 0.0
N1010 N 0.18785 0.79278 0.36269 0.0
C1011 C 0.1757 0.7485 0.36691 0.0
C1012 C 0.20188 0.75487 0.36516 0.0
H1013 H 0.14872 0.76278 0.36708 0.0
H1014 H 0.28747 0.82027 0.36008 0.0
H1015 H 0.09338 0.78272 0.32292 0.0
H1016 H 0.2982 0.86662 0.3598 0.0
H1017 H 0.28248 0.89802 0.36111 0.0
H1018 H 0.25432 0.77415 0.36241 0.0
H1019 H 0.177 0.90259 0.315 0.0
H1020 H 0.0287 0.79647 0.32335 0.0
H1021 H 0.0457 0.76607 0.32308 0.0
H1022 H 0.07028 0.88859 0.3189 0.0
H1023 H 0.16066 0.72869 0.36905 0.0
H1024 H 0.20702 0.73986 0.36606 0.0
H1025 H 0.03809 0.84235 0.32205 0.0
H1026 H 0.16382 0.9356 0.31171 0.0
N1027 N 0.10357 0.8223 0.32361 0.0
C1028 C 0.04971 0.80392 0.32329 0.0
C1029 C 0.05923 0.78671 0.3231 0.0
C1030 C 0.06742 0.83053 0.32287 0.0
C1031 C 0.09457 0.8392 0.32289 0.0
C1032 C 0.08635 0.79628 0.32301 0.0
N1033 N 0.13835 0.87234 0.32021 0.0
C1034 C 0.11258 0.86511 0.32116 0.0
C1035 C 0.14921 0.91587 0.31445 0.0
C1036 C 0.12289 0.90898 0.3162 0.0
C1037 C 0.1566 0.89712 0.31628 0.0
C1038 C 0.10411 0.88323 0.31933 0.0
H1039 H 0.11718 0.9235 0.31471 0.0
O1040 O 0.16707 0.8542 0.30031 0.0
O1041 O 0.18383 0.83965 0.33465 0.0
O1042 O 0.18839 0.86821 0.35892 0.0
O1043 O 0.15625 0.86995 0.34309 0.0
O1044 O 0.19211 0.87011 0.31964 0.0
O1045 O 0.13443 0.81506 0.30248 0.0
O1046 O 0.16196 0.81152 0.38383 0.0
O1047 O 0.14388 0.82718 0.34935 0.0
O1048 O 0.14017 0.798 0.32481 0.0
O1049 O 0.17412 0.79887 0.33997 0.0
O1050 O 0.13517 0.79642 0.3641 0.0
O1051 O 0.19307 0.85133 0.38126 0.0
C1052 C 0.20233 0.85961 0.32838 0.0
C1053 C 0.07718 0.87493 0.32012 0.0
C1054 C 0.05885 0.84861 0.3219 0.0
C1055 C 0.1506 0.83292 0.29269 0.0
C1056 C 0.13947 0.83594 0.27748 0.0
C1057 C 0.11981 0.84266 0.27746 0.0
C1058 C 0.14913 0.83242 0.26272 0.0
C1059 C 0.13944 0.83574 0.24783 0.0
C1060 C 0.10996 0.84589 0.26277 0.0
C1061 C 0.11968 0.84249 0.24804 0.0
C1062 C 0.17537 0.87984 0.35413 0.0
C1063 C 0.12521 0.80732 0.35554 0.0
C1064 C 0.17829 0.83308 0.39129 0.0
C1065 C 0.19145 0.83073 0.40581 0.0
C1066 C 0.21217 0.82562 0.40441 0.0
C1067 C 0.18334 0.83388 0.42126 0.0
C1068 C 0.19606 0.83222 0.43532 0.0
C1069 C 0.22477 0.8238 0.41828 0.0
C1070 C 0.21686 0.82712 0.43364 0.0
C1071 C 0.15528 0.78822 0.32885 0.0
H1072 H 0.11216 0.84546 0.28874 0.0
H1073 H 0.16406 0.82685 0.26288 0.0
H1074 H 0.09484 0.85117 0.26279 0.0
H1075 H 0.11199 0.84551 0.23684 0.0
H1076 H 0.21864 0.82311 0.39265 0.0
H1077 H 0.16747 0.83807 0.42231 0.0
H1078 H 0.24074 0.81981 0.41711 0.0
H1079 H 0.22683 0.82542 0.44422 0.0
Gd1080 Gd 0.84101 0.68512 0.69175 0.0
Gd1081 Gd 0.81422 0.64484 0.65411 0.0
C1082 C 0.73257 0.57275 0.65207 0.0
C1083 C 0.74288 0.53853 0.64765 0.0
C1084 C 0.77787 0.5834 0.64965 0.0
C1085 C 0.75964 0.59112 0.6521 0.0
C1086 C 0.76973 0.55708 0.64699 0.0
C1087 C 0.72432 0.54636 0.65021 0.0
C1088 C 0.71461 0.58152 0.65347 0.0
C1089 C 0.72382 0.60805 0.65426 0.0
N1090 N 0.76835 0.61678 0.6537 0.0
C1091 C 0.75088 0.62551 0.65411 0.0
H1092 H 0.75764 0.64593 0.65478 0.0
C1093 C 0.82204 0.59556 0.64448 0.0
N1094 N 0.80354 0.60186 0.64893 0.0
C1095 C 0.815 0.56972 0.6418 0.0
C1096 C 0.78876 0.55033 0.64328 0.0
H1097 H 0.84238 0.61046 0.64342 0.0
H1098 H 0.70362 0.53192 0.65031 0.0
H1099 H 0.89841 0.68573 0.69412 0.0
H1100 H 0.69365 0.56804 0.65355 0.0
H1101 H 0.7101 0.61509 0.65502 0.0
H1102 H 0.73623 0.51819 0.6458 0.0
H1103 H 0.8104 0.7184 0.69943 0.0
H1104 H 0.96083 0.76432 0.69583 0.0
H1105 H 0.94567 0.71752 0.69532 0.0
H1106 H 0.91559 0.81223 0.69951 0.0
H1107 H 0.8298 0.56477 0.63863 0.0
H1108 H 0.78332 0.53033 0.64115 0.0
H1109 H 0.9494 0.7996 0.69721 0.0
H1110 H 0.82148 0.76387 0.7031 0.0
N1111 N 0.88661 0.71407 0.6934 0.0
C1112 C 0.93998 0.75042 0.69527 0.0
C1113 C 0.9315 0.72403 0.69503 0.0
C1114 C 0.92141 0.75852 0.69534 0.0
C1115 C 0.89452 0.73961 0.69454 0.0
C1116 C 0.9046 0.70602 0.69435 0.0
N1117 N 0.85003 0.72781 0.69598 0.0
C1118 C 0.8756 0.74672 0.69592 0.0
C1119 C 0.83689 0.75932 0.70104 0.0
C1120 C 0.86309 0.77911 0.70036 0.0
C1121 C 0.8307 0.7336 0.69901 0.0
C1122 C 0.88287 0.77292 0.698 0.0
H1123 H 0.86785 0.79902 0.70199 0.0
O1124 O 0.82396 0.68281 0.71551 0.0
O1125 O 0.80777 0.65086 0.67988 0.0
O1126 O 0.80422 0.67704 0.65647 0.0
O1127 O 0.83759 0.7094 0.67233 0.0
O1128 O 0.79789 0.67182 0.69527 0.0
O1129 O 0.85391 0.67214 0.71245 0.0
O1130 O 0.8323 0.64952 0.63047 0.0
O1131 O 0.84784 0.67842 0.66618 0.0
O1132 O 0.85238 0.65412 0.68956 0.0
O1133 O 0.82182 0.62121 0.67237 0.0
O1134 O 0.85691 0.65728 0.65015 0.0
O1135 O 0.79979 0.65643 0.6334 0.0
C1136 C 0.7886 0.65143 0.68617 0.0
C1137 C 0.9096 0.79197 0.69806 0.0
C1138 C 0.92884 0.78477 0.69673 0.0
C1139 C 0.8389 0.67546 0.72265 0.0
C1140 C 0.85128 0.68843 0.7381 0.0
C1141 C 0.87307 0.71353 0.73833 0.0
C1142 C 0.84181 0.67518 0.75276 0.0
C1143 C 0.85442 0.68672 0.76758 0.0
C1144 C 0.88551 0.72515 0.753 0.0
C1145 C 0.8764 0.71182 0.76753 0.0
C1146 C 0.81882 0.70157 0.66119 0.0
C1147 C 0.86657 0.67708 0.65978 0.0
C1148 C 0.81603 0.65503 0.62326 0.0
C1149 C 0.80479 0.64154 0.60773 0.0
C1150 C 0.78413 0.61585 0.60746 0.0
C1151 C 0.81502 0.65438 0.59302 0.0
C1152 C 0.80477 0.64156 0.57802 0.0
C1153 C 0.77378 0.60308 0.59269 0.0
C1154 C 0.78397 0.61576 0.57809 0.0
C1155 C 0.84014 0.62993 0.68395 0.0
H1156 H 0.88058 0.72402 0.72719 0.0
H1157 H 0.82506 0.65571 0.75258 0.0
H1158 H 0.90237 0.7445 0.7531 0.0
H1159 H 0.88638 0.72122 0.77877 0.0
H1160 H 0.77602 0.60569 0.61864 0.0
H1161 H 0.8312 0.67415 0.59328 0.0
H1162 H 0.75777 0.58326 0.59256 0.0
H1163 H 0.77532 0.60543 0.56682 0.0
Gd1164 Gd 0.31149 0.16222 0.68541 0.0
Gd1165 Gd 0.35522 0.17364 0.65027 0.0
C1166 C 0.42713 0.16349 0.65283 0.0
C1167 C 0.46304 0.2078 0.6508 0.0
C1168 C 0.41774 0.19833 0.64988 0.0
C1169 C 0.409 0.17235 0.65182 0.0
C1170 C 0.44485 0.21632 0.649 0.0
C1171 C 0.4542 0.18142 0.65271 0.0
C1172 C 0.4175 0.13684 0.65342 0.0
C1173 C 0.39047 0.11978 0.65243 0.0
N1174 N 0.38273 0.15558 0.65171 0.0
C1175 C 0.37328 0.12952 0.65136 0.0
H1176 H 0.35245 0.11608 0.65068 0.0
C1177 C 0.40719 0.23077 0.64414 0.0
N1178 N 0.39963 0.20581 0.64799 0.0
C1179 C 0.43385 0.24939 0.64325 0.0
C1180 C 0.45279 0.2422 0.64588 0.0
H1181 H 0.39262 0.23645 0.64219 0.0
H1182 H 0.46842 0.17501 0.65365 0.0
H1183 H 0.31468 0.21996 0.68522 0.0
H1184 H 0.43077 0.12925 0.65425 0.0
H1185 H 0.38282 0.09911 0.65256 0.0
H1186 H 0.48396 0.22136 0.65031 0.0
H1187 H 0.27412 0.0998 0.69433 0.0
H1188 H 0.2365 0.20741 0.68298 0.0
H1189 H 0.28454 0.23726 0.68399 0.0
H1190 H 0.18294 0.11547 0.68773 0.0
H1191 H 0.43977 0.26925 0.64056 0.0
H1192 H 0.47343 0.25663 0.64513 0.0
H1193 H 0.19864 0.16179 0.68411 0.0
H1194 H 0.22704 0.06737 0.69703 0.0
N1195 N 0.28416 0.18054 0.68444 0.0
C1196 C 0.24966 0.19967 0.68351 0.0
C1197 C 0.27675 0.21657 0.68413 0.0
C1198 C 0.23987 0.17299 0.68415 0.0
C1199 C 0.25787 0.16395 0.68478 0.0
C1200 C 0.2938 0.20664 0.68482 0.0
N1201 N 0.2671 0.13037 0.68837 0.0
C1202 C 0.24904 0.13798 0.68679 0.0
C1203 C 0.23294 0.08714 0.69407 0.0
C1204 C 0.21401 0.09441 0.69167 0.0
C1205 C 0.25958 0.10555 0.69256 0.0
C1206 C 0.22197 0.12019 0.68825 0.0
H1207 H 0.1934 0.08014 0.6929 0.0
O1208 O 0.31189 0.14834 0.70956 0.0
O1209 O 0.34618 0.16141 0.6758 0.0
O1210 O 0.32159 0.13202 0.65148 0.0
O1211 O 0.28785 0.1327 0.66598 0.0
O1212 O 0.32267 0.13185 0.69108 0.0
O1213 O 0.32247 0.1884 0.70612 0.0
O1214 O 0.35518 0.18773 0.62609 0.0
O1215 O 0.3203 0.17413 0.65981 0.0
O1216 O 0.34539 0.20396 0.68419 0.0
O1217 O 0.37875 0.20213 0.67007 0.0
O1218 O 0.34395 0.20398 0.64471 0.0
O1219 O 0.34554 0.14796 0.62939 0.0
C1220 C 0.34388 0.14168 0.6827 0.0
C1221 C 0.20384 0.12887 0.68681 0.0
C1222 C 0.21279 0.15524 0.68475 0.0
C1223 C 0.31831 0.17045 0.7165 0.0
C1224 C 0.30379 0.1695 0.73114 0.0
C1225 C 0.27685 0.16104 0.73064 0.0
C1226 C 0.31739 0.17711 0.74595 0.0
C1227 C 0.30437 0.17642 0.76038 0.0
C1228 C 0.26368 0.16015 0.74493 0.0
C1229 C 0.2773 0.16773 0.75975 0.0
C1230 C 0.29651 0.1217 0.65555 0.0
C1231 C 0.32265 0.19394 0.65302 0.0
C1232 C 0.34996 0.16603 0.61903 0.0
C1233 C 0.36628 0.16816 0.60502 0.0
C1234 C 0.39125 0.17097 0.60716 0.0
C1235 C 0.35684 0.16766 0.5893 0.0
C1236 C 0.37222 0.16997 0.57567 0.0
C1237 C 0.40663 0.17329 0.59373 0.0
C1238 C 0.39724 0.17281 0.57807 0.0
C1239 C 0.37054 0.21343 0.68054 0.0
H1240 H 0.26606 0.15511 0.71929 0.0
H1241 H 0.33815 0.18324 0.74624 0.0
H1242 H 0.24287 0.1536 0.74451 0.0
H1243 H 0.26676 0.1671 0.77065 0.0
H1244 H 0.39883 0.17134 0.61915 0.0
H1245 H 0.33766 0.16581 0.58772 0.0
H1246 H 0.42586 0.17538 0.59545 0.0
H1247 H 0.40942 0.17428 0.56784 0.0
Gd1248 Gd 0.81576 0.17174 0.65516 0.0
Gd1249 Gd 0.84417 0.15933 0.69186 0.0
C1250 C 0.92594 0.1682 0.69295 0.0
C1251 C 0.91586 0.12372 0.69583 0.0
C1252 C 0.88067 0.13384 0.69477 0.0
C1253 C 0.89884 0.15974 0.69302 0.0
C1254 C 0.88896 0.11557 0.69654 0.0
C1255 C 0.93433 0.15 0.69402 0.0
C1256 C 0.94381 0.19476 0.69219 0.0
C1257 C 0.9345 0.21213 0.69206 0.0
N1258 N 0.89004 0.1768 0.69214 0.0
C1259 C 0.90743 0.20279 0.69226 0.0
H1260 H 0.90056 0.21647 0.69208 0.0
C1261 C 0.83643 0.10181 0.69911 0.0
N1262 N 0.85488 0.12669 0.69554 0.0
C1263 C 0.84366 0.08295 0.70087 0.0
C1264 C 0.87001 0.08979 0.6994 0.0
H1265 H 0.81601 0.09637 0.70018 0.0
H1266 H 0.95505 0.1561 0.69383 0.0
H1267 H 0.76005 0.11409 0.65451 0.0
H1268 H 0.96479 0.20204 0.69205 0.0
H1269 H 0.94815 0.23273 0.69175 0.0
H1270 H 0.92262 0.10995 0.69702 0.0
H1271 H 0.84267 0.23404 0.64566 0.0
H1272 H 0.69477 0.12694 0.65432 0.0
H1273 H 0.71228 0.09695 0.65458 0.0
H1274 H 0.73542 0.21885 0.64891 0.0
H1275 H 0.82891 0.06315 0.70335 0.0
H1276 H 0.87558 0.07516 0.70082 0.0
H1277 H 0.70363 0.1726 0.65246 0.0
H1278 H 0.82896 0.26656 0.64178 0.0
N1279 N 0.76977 0.15354 0.65476 0.0
C1280 C 0.71582 0.1346 0.65432 0.0
C1281 C 0.72562 0.11762 0.65441 0.0
C1282 C 0.7333 0.16125 0.65366 0.0
C1283 C 0.76051 0.1702 0.65375 0.0
C1284 C 0.75279 0.12746 0.65438 0.0
N1285 N 0.80416 0.20364 0.65098 0.0
C1286 C 0.77831 0.19613 0.65182 0.0
C1287 C 0.81452 0.24684 0.64468 0.0
C1288 C 0.78811 0.2397 0.64633 0.0
C1289 C 0.82221 0.22838 0.64685 0.0
C1290 C 0.76954 0.21397 0.64967 0.0
H1291 H 0.78218 0.25401 0.64459 0.0
O1292 O 0.83339 0.18562 0.63163 0.0
O1293 O 0.85023 0.17194 0.66627 0.0
O1294 O 0.85371 0.20106 0.69029 0.0
O1295 O 0.82139 0.20173 0.67409 0.0
O1296 O 0.85825 0.20219 0.65119 0.0
O1297 O 0.80099 0.14639 0.63397 0.0
O1298 O 0.82615 0.14572 0.71533 0.0
O1299 O 0.80985 0.15957 0.68082 0.0
O1300 O 0.80701 0.12995 0.65657 0.0
O1301 O 0.8404 0.13104 0.67251 0.0
O1302 O 0.80158 0.12886 0.69558 0.0
O1303 O 0.86007 0.18411 0.71325 0.0
C1304 C 0.86867 0.19192 0.65997 0.0
C1305 C 0.74254 0.2054 0.65037 0.0
C1306 C 0.72444 0.17907 0.65238 0.0
C1307 C 0.81714 0.16414 0.62411 0.0
C1308 C 0.80603 0.16672 0.60875 0.0
C1309 C 0.78793 0.17546 0.6084 0.0
C1310 C 0.81428 0.16089 0.59415 0.0
C1311 C 0.80471 0.1639 0.57915 0.0
C1312 C 0.77832 0.17851 0.59356 0.0
C1313 C 0.78669 0.17287 0.579 0.0
C1314 C 0.8402 0.21207 0.68531 0.0
C1315 C 0.79136 0.13944 0.68691 0.0
C1316 C 0.84344 0.16654 0.72303 0.0
C1317 C 0.85429 0.16235 0.73801 0.0
C1318 C 0.87297 0.15433 0.73744 0.0
C1319 C 0.84503 0.16539 0.75308 0.0
C1320 C 0.85401 0.16002 0.76756 0.0
C1321 C 0.88205 0.14908 0.75176 0.0
C1322 C 0.87255 0.15176 0.76674 0.0
C1323 C 0.82189 0.12019 0.6612 0.0
H1324 H 0.78135 0.18001 0.61954 0.0
H1325 H 0.82854 0.15444 0.5945 0.0
H1326 H 0.76436 0.18528 0.59334 0.0
H1327 H 0.77882 0.1752 0.56766 0.0
H1328 H 0.8804 0.15199 0.72597 0.0
H1329 H 0.83042 0.17139 0.75351 0.0
H1330 H 0.89643 0.14285 0.75124 0.0
H1331 H 0.87994 0.14767 0.77771 0.0
H1332 H 0.35044 0.84014 0.06281 0.0
H1333 H 0.40797 0.97954 0.0251 0.0
H1334 H 0.3016 0.87351 0.05274 0.0
H1335 H 0.44735 0.93519 0.02246 0.0
H1336 H 0.36849 0.94114 0.03494 0.0
H1337 H 0.38584 0.87472 0.04777 0.0
C1338 C 0.3469 0.85446 0.05725 0.0
C1339 C 0.32278 0.85372 0.05913 0.0
C1340 C 0.38563 0.93971 0.03195 0.0
C1341 C 0.36389 0.89408 0.04216 0.0
C1342 C 0.4081 0.96158 0.02635 0.0
C1343 C 0.43076 0.96038 0.02276 0.0
C1344 C 0.38613 0.91672 0.03438 0.0
C1345 C 0.43017 0.93683 0.0248 0.0
C1346 C 0.3673 0.87437 0.04871 0.0
C1347 C 0.31991 0.87342 0.05192 0.0
N1348 N 0.40829 0.91599 0.0306 0.0
N1349 N 0.34028 0.8929 0.04389 0.0
H1350 H 0.15197 0.4811 0.05012 0.0
H1351 H 0.00187 0.42869 0.02385 0.0
H1352 H 0.09237 0.40043 0.04741 0.0
H1353 H 0.06079 0.50947 0.02344 0.0
H1354 H 0.03533 0.41836 0.03248 0.0
H1355 H 0.1195 0.49242 0.04044 0.0
C1356 C 0.13209 0.46579 0.04754 0.0
C1357 C 0.12498 0.43975 0.04952 0.0
C1358 C 0.04109 0.43836 0.03039 0.0
C1359 C 0.08775 0.45255 0.03843 0.0
C1360 C 0.02198 0.44422 0.02544 0.0
C1361 C 0.02877 0.46984 0.02248 0.0
C1362 C 0.06719 0.45836 0.03277 0.0
C1363 C 0.05495 0.48937 0.02511 0.0
C1364 C 0.1136 0.47225 0.04193 0.0
C1365 C 0.09895 0.42073 0.04583 0.0
N1366 N 0.07325 0.48323 0.03009 0.0
N1367 N 0.08137 0.4275 0.04053 0.0
H1368 H 0.58584 0.68907 0.07362 0.0
H1369 H 0.48401 0.57309 0.01607 0.0
H1370 H 0.53749 0.69841 0.03792 0.0
H1371 H 0.54685 0.57252 0.04297 0.0
H1372 H 0.49898 0.61692 0.02635 0.0
H1373 H 0.56687 0.64395 0.06517 0.0
C1374 C 0.57098 0.68153 0.06412 0.0
C1375 C 0.56324 0.69754 0.05645 0.0
C1376 C 0.50945 0.60713 0.02996 0.0
C1377 C 0.54165 0.64589 0.04657 0.0
C1378 C 0.50102 0.58216 0.02402 0.0
C1379 C 0.51454 0.56924 0.02832 0.0
C1380 C 0.53128 0.61907 0.04048 0.0
C1381 C 0.53593 0.58171 0.03913 0.0
C1382 C 0.56031 0.65581 0.05921 0.0
C1383 C 0.5442 0.68679 0.04404 0.0
N1384 N 0.54363 0.6059 0.04479 0.0
N1385 N 0.53405 0.66161 0.03945 0.0
H1386 H 0.82875 0.30221 0.97758 0.0
H1387 H 0.96948 0.42626 0.97006 0.0
H1388 H 0.87841 0.31469 0.93628 0.0
H1389 H 0.90715 0.429 0.99597 0.0
H1390 H 0.93755 0.38371 0.9593 0.0
H1391 H 0.85833 0.34711 0.98646 0.0
C1392 C 0.84578 0.3145 0.97035 0.0
C1393 C 0.8512 0.30485 0.95619 0.0
C1394 C 0.93089 0.39367 0.96734 0.0
C1395 C 0.88514 0.35579 0.96634 0.0
C1396 C 0.94913 0.41797 0.97356 0.0
C1397 C 0.94116 0.43112 0.98427 0.0
C1398 C 0.90452 0.3822 0.97201 0.0
C1399 C 0.91438 0.41934 0.98816 0.0
C1400 C 0.86255 0.34005 0.97536 0.0
C1401 C 0.87345 0.32149 0.9472 0.0
N1402 N 0.89705 0.39541 0.98219 0.0
N1403 N 0.8898 0.34608 0.95253 0.0
H1404 H 0.66831 0.52266 0.95271 0.0
H1405 H 0.57965 0.57105 0.99437 0.0
H1406 H 0.7012 0.59519 0.97918 0.0
H1407 H 0.55304 0.48963 0.99032 0.0
H1408 H 0.62381 0.5807 0.98664 0.0
H1409 H 0.62537 0.50996 0.96456 0.0
C1410 C 0.6667 0.53584 0.9611 0.0
C1411 C 0.68855 0.5603 0.96466 0.0
C1412 C 0.60842 0.5607 0.98765 0.0
C1413 C 0.63923 0.54599 0.97797 0.0
C1414 C 0.58328 0.55523 0.99205 0.0
C1415 C 0.56295 0.52956 0.99335 0.0
C1416 C 0.61308 0.54036 0.98392 0.0
C1417 C 0.56841 0.50968 0.98985 0.0
C1418 C 0.64211 0.52856 0.96782 0.0
C1419 C 0.68494 0.57651 0.97558 0.0
N1420 N 0.59296 0.51549 0.98514 0.0
N1421 N 0.66078 0.56923 0.98164 0.0
H1422 H 0.44174 0.11499 0.92517 0.0
H1423 H 0.51235 0.08736 0.99857 0.0
H1424 H 0.48971 0.17231 0.96131 0.0
H1425 H 0.44972 0.02618 0.97027 0.0
H1426 H 0.50513 0.11879 0.98442 0.0
H1427 H 0.44527 0.08215 0.94079 0.0
C1428 C 0.45293 0.12062 0.93642 0.0
C1429 C 0.46546 0.1464 0.94196 0.0
C1430 C 0.49281 0.09848 0.98138 0.0
C1431 C 0.46965 0.10906 0.95982 0.0
C1432 C 0.49684 0.08043 0.98953 0.0
C1433 C 0.48142 0.05397 0.98578 0.0
C1434 C 0.47348 0.09013 0.96917 0.0
C1435 C 0.46205 0.04635 0.97362 0.0
C1436 C 0.45484 0.10188 0.94535 0.0
C1437 C 0.47951 0.15262 0.95667 0.0
N1438 N 0.45872 0.06437 0.96568 0.0
N1439 N 0.48138 0.13414 0.96502 0.0
H1440 H 0.66865 0.14616 0.95656 0.0
H1441 H 0.57952 0.00911 0.99553 0.0
H1442 H 0.69996 0.10092 0.97718 0.0
H1443 H 0.55273 0.06391 0.99061 0.0
H1444 H 0.62407 0.0431 0.98913 0.0
H1445 H 0.62634 0.1173 0.96918 0.0
C1446 C 0.66678 0.13038 0.96387 0.0
C1447 C 0.68788 0.12576 0.96555 0.0
C1448 C 0.60861 0.04791 0.98972 0.0
C1449 C 0.6394 0.09252 0.97985 0.0
C1450 C 0.58325 0.02852 0.99339 0.0
C1451 C 0.56271 0.03395 0.99385 0.0
C1452 C 0.61332 0.07273 0.98592 0.0
C1453 C 0.56826 0.0592 0.99068 0.0
C1454 C 0.64259 0.11389 0.97105 0.0
C1455 C 0.68413 0.10486 0.97511 0.0
N1456 N 0.59307 0.07767 0.98664 0.0
N1457 N 0.66034 0.08891 0.98172 0.0
H1458 H 0.90474 0.60281 0.95286 0.0
H1459 H 0.93544 0.49477 0.98524 0.0
H1460 H 0.8436 0.52559 0.96437 0.0
H1461 H 0.99382 0.5753 0.98091 0.0
H1462 H 0.90139 0.50488 0.97723 0.0
H1463 H 0.9375 0.59242 0.96259 0.0
C1464 C 0.8982 0.58358 0.95737 0.0
C1465 C 0.87136 0.56496 0.95763 0.0
C1466 C 0.92161 0.52037 0.97815 0.0
C1467 C 0.90894 0.55291 0.96895 0.0
C1468 C 0.94101 0.51463 0.98282 0.0
C1469 C 0.96734 0.5344 0.98418 0.0
C1470 C 0.92872 0.54598 0.97449 0.0
C1471 C 0.97366 0.55962 0.98028 0.0
C1472 C 0.91694 0.5777 0.96303 0.0
C1473 C 0.86406 0.54054 0.96397 0.0
N1474 N 0.95452 0.5647 0.97566 0.0
N1475 N 0.88276 0.53515 0.96927 0.0
H1476 H 0.44263 0.32109 0.93157 0.0
H1477 H 0.52005 0.43024 0.99914 0.0
H1478 H 0.50477 0.32504 0.96167 0.0
H1479 H 0.4503 0.4203 0.97492 0.0
H1480 H 0.51448 0.39168 0.98538 0.0
H1481 H 0.44461 0.35704 0.94722 0.0
C1482 C 0.4565 0.32932 0.94157 0.0
C1483 C 0.47368 0.3201 0.94524 0.0
C1484 C 0.50024 0.39777 0.98314 0.0
C1485 C 0.47629 0.36149 0.96304 0.0
C1486 C 0.50333 0.41979 0.99108 0.0
C1487 C 0.48543 0.42843 0.98837 0.0
C1488 C 0.47927 0.38433 0.97217 0.0
C1489 C 0.46455 0.41434 0.97743 0.0
C1490 C 0.45771 0.34993 0.95044 0.0
C1491 C 0.49148 0.33178 0.95819 0.0
N1492 N 0.46209 0.39301 0.96968 0.0
N1493 N 0.49239 0.35191 0.96656 0.0
H1494 H 0.18308 0.66978 0.05512 0.0
H1495 H 0.02975 0.5833 0.03381 0.0
H1496 H 0.12535 0.68925 0.07135 0.0
H1497 H 0.08943 0.56765 0.01593 0.0
H1498 H 0.06412 0.6225 0.04731 0.0
H1499 H 0.14871 0.63264 0.04026 0.0
C1500 C 0.16312 0.66619 0.05557 0.0
C1501 C 0.15704 0.68253 0.06459 0.0
C1502 C 0.06965 0.61054 0.04034 0.0
C1503 C 0.11748 0.64001 0.04751 0.0
C1504 C 0.05004 0.58813 0.03264 0.0
C1505 C 0.05669 0.5722 0.02362 0.0
C1506 C 0.09606 0.61696 0.03907 0.0
C1507 C 0.08333 0.57945 0.02257 0.0
C1508 C 0.1435 0.64504 0.04702 0.0
C1509 C 0.13092 0.67722 0.06449 0.0
N1510 N 0.10197 0.60121 0.03021 0.0
N1511 N 0.11205 0.65631 0.05616 0.0
H1512 H 0.29335 0.39752 0.04466 0.0
H1513 H 0.44168 0.50636 0.02573 0.0
H1514 H 0.32204 0.47888 0.05264 0.0
H1515 H 0.41458 0.42476 0.02737 0.0
H1516 H 0.39731 0.49731 0.03281 0.0
H1517 H 0.33677 0.40777 0.03543 0.0
C1518 C 0.30873 0.41762 0.04433 0.0
C1519 C 0.3039 0.43737 0.0494 0.0
C1520 C 0.40105 0.48139 0.03153 0.0
C1521 C 0.35411 0.44927 0.03898 0.0
C1522 C 0.42628 0.48653 0.02737 0.0
C1523 C 0.43156 0.46617 0.02563 0.0
C1524 C 0.38107 0.45574 0.03407 0.0
C1525 C 0.41117 0.44092 0.02838 0.0
C1526 C 0.33364 0.42344 0.03916 0.0
C1527 C 0.32488 0.46301 0.04898 0.0
N1528 N 0.38684 0.43641 0.03237 0.0
N1529 N 0.34906 0.46823 0.04384 0.0
H1530 H 0.53994 0.84083 0.03993 0.0
H1531 H 0.54835 0.97851 0.04129 0.0
H1532 H 0.59286 0.90514 0.07064 0.0
H1533 H 0.49001 0.91332 0.01327 0.0
H1534 H 0.56399 0.95121 0.05242 0.0
H1535 H 0.52035 0.86617 0.03044 0.0
C1536 C 0.54725 0.86016 0.04481 0.0
C1537 C 0.56821 0.87094 0.05602 0.0
C1538 C 0.54777 0.9428 0.04383 0.0
C1539 C 0.54612 0.90012 0.04507 0.0
C1540 C 0.53878 0.95844 0.03742 0.0
C1541 C 0.51803 0.94836 0.02607 0.0
C1542 C 0.53603 0.91678 0.03891 0.0
C1543 C 0.50639 0.92208 0.0217 0.0
C1544 C 0.53616 0.87466 0.03932 0.0
C1545 C 0.57708 0.8962 0.06178 0.0
N1546 N 0.51565 0.90722 0.02807 0.0
N1547 N 0.56607 0.90992 0.05619 0.0
H1548 H 0.99878 0.16993 0.38023 0.0
H1549 H 0.0771 0.32125 0.3609 0.0
H1550 H 0.9757 0.22359 0.39838 0.0
H1551 H 0.10771 0.27004 0.35241 0.0
H1552 H 0.03612 0.28445 0.37061 0.0
H1553 H 0.03478 0.20513 0.36565 0.0
C1554 C 1.00103 0.18904 0.38097 0.0
C1555 C 0.98421 0.19381 0.39062 0.0
C1556 C 0.05169 0.28123 0.36642 0.0
C1557 C 0.02576 0.23435 0.37412 0.0
C1558 C 0.07499 0.30216 0.36085 0.0
C1559 C 0.09558 0.29856 0.35559 0.0
C1560 C 0.04911 0.25657 0.36686 0.0
C1561 C 0.09212 0.27358 0.35601 0.0
C1562 C 0.02174 0.20918 0.37273 0.0
C1563 C 0.9884 0.2191 0.39128 0.0
N1564 N 0.06934 0.25354 0.36155 0.0
N1565 N 0.00881 0.23844 0.3832 0.0
H1566 H 0.81593 0.81377 0.38786 0.0
H1567 H 0.66711 0.76013 0.35877 0.0
H1568 H 0.75843 0.73273 0.38225 0.0
H1569 H 0.72609 0.84082 0.35721 0.0
H1570 H 0.70064 0.75009 0.36777 0.0
H1571 H 0.78399 0.82455 0.37663 0.0
C1572 C 0.7967 0.79823 0.3842 0.0
C1573 C 0.78986 0.77226 0.38624 0.0
C1574 C 0.7064 0.77 0.36532 0.0
C1575 C 0.75306 0.78452 0.37354 0.0
C1576 C 0.68724 0.77569 0.36018 0.0
C1577 C 0.69402 0.8012 0.35681 0.0
C1578 C 0.73251 0.79007 0.3675 0.0
C1579 C 0.72024 0.82079 0.35921 0.0
C1580 C 0.77842 0.80442 0.37785 0.0
C1581 C 0.7645 0.75302 0.38134 0.0
N1582 N 0.73856 0.81483 0.36442 0.0
N1583 N 0.74709 0.75953 0.37533 0.0
H1584 H 0.20338 0.03497 0.37288 0.0
H1585 H 0.21755 0.90881 0.37402 0.0
H1586 H 0.26431 0.02938 0.39864 0.0
H1587 H 0.15317 0.91062 0.34993 0.0
H1588 H 0.23365 0.95261 0.3838 0.0
H1589 H 0.1835 0.98927 0.36499 0.0
C1590 C 0.21246 0.02409 0.37697 0.0
C1591 C 0.23567 0.03607 0.38632 0.0
C1592 C 0.216 0.94351 0.37636 0.0
C1593 C 0.21317 0.98394 0.37726 0.0
C1594 C 0.20673 0.91837 0.37073 0.0
C1595 C 0.1842 0.90606 0.36081 0.0
C1596 C 0.20273 0.95665 0.37209 0.0
C1597 C 0.17097 0.91953 0.3572 0.0
C1598 C 0.20116 0.99806 0.37241 0.0
C1599 C 0.24671 0.02111 0.39117 0.0
N1600 N 0.18053 0.9442 0.36276 0.0
N1601 N 0.23542 0.99591 0.38654 0.0
H1602 H 0.5402 0.64417 0.27038 0.0
H1603 H 0.57198 0.7596 0.33211 0.0
H1604 H 0.49724 0.63166 0.31486 0.0
H1605 H 0.63196 0.756 0.30399 0.0
H1606 H 0.54002 0.71621 0.32225 0.0
H1607 H 0.56948 0.68929 0.27872 0.0
C1608 C 0.5367 0.65109 0.28178 0.0
C1609 C 0.51635 0.63428 0.29197 0.0
C1610 C 0.56022 0.72502 0.3183 0.0
C1611 C 0.54961 0.68564 0.30153 0.0
C1612 C 0.57855 0.7497 0.32401 0.0
C1613 C 0.60495 0.76128 0.31928 0.0
C1614 C 0.56817 0.71214 0.30741 0.0
C1615 C 0.61196 0.74781 0.30818 0.0
C1616 C 0.55349 0.6767 0.28657 0.0
C1617 C 0.51282 0.64406 0.30671 0.0
N1618 N 0.59367 0.72398 0.3026 0.0
N1619 N 0.52929 0.66918 0.31106 0.0
H1620 H 0.33519 0.8523 0.28941 0.0
H1621 H 0.24611 0.90627 0.32563 0.0
H1622 H 0.36656 0.93022 0.30779 0.0
H1623 H 0.21908 0.82467 0.32298 0.0
H1624 H 0.28995 0.91539 0.31763 0.0
H1625 H 0.29186 0.84152 0.30003 0.0
C1626 C 0.33297 0.86711 0.29568 0.0
C1627 C 0.35456 0.89219 0.29774 0.0
C1628 C 0.27456 0.89547 0.31898 0.0
C1629 C 0.30515 0.88007 0.30981 0.0
C1630 C 0.24958 0.8903 0.32356 0.0
C1631 C 0.22922 0.86475 0.32533 0.0
C1632 C 0.27906 0.8749 0.31566 0.0
C1633 C 0.23449 0.84466 0.32215 0.0
C1634 C 0.30832 0.86091 0.30182 0.0
C1635 C 0.35059 0.91057 0.30606 0.0
N1636 N 0.2589 0.85015 0.31737 0.0
N1637 N 0.3264 0.90421 0.31166 0.0
H1638 H 0.10293 0.45586 0.26545 0.0
H1639 H 0.18383 0.4238 0.33024 0.0
H1640 H 0.17243 0.51381 0.29065 0.0
H1641 H 0.1137 0.36518 0.30583 0.0
H1642 H 0.17848 0.45702 0.31685 0.0
H1643 H 0.10527 0.42234 0.28092 0.0
C1644 C 0.11865 0.46154 0.27425 0.0
C1645 C 0.13753 0.4877 0.27673 0.0
C1646 C 0.16416 0.4369 0.31448 0.0
C1647 C 0.14027 0.44947 0.29453 0.0
C1648 C 0.16713 0.41787 0.3222 0.0
C1649 C 0.14912 0.3916 0.31924 0.0
C1650 C 0.14313 0.42969 0.30359 0.0
C1651 C 0.1281 0.38517 0.30848 0.0
C1652 C 0.11991 0.44241 0.28313 0.0
C1653 C 0.15726 0.49395 0.28846 0.0
N1654 N 0.12575 0.40409 0.301 0.0
N1655 N 0.15817 0.47498 0.29685 0.0
H1656 H 0.36181 0.41944 0.30089 0.0
H1657 H 0.21915 0.39678 0.32274 0.0
H1658 H 0.34146 0.47923 0.29654 0.0
H1659 H 0.23985 0.33706 0.32192 0.0
H1660 H 0.26478 0.42872 0.31603 0.0
H1661 H 0.31819 0.39043 0.31131 0.0
C1662 C 0.34822 0.42657 0.30224 0.0
C1663 C 0.35541 0.45189 0.29785 0.0
C1664 C 0.25939 0.40868 0.3175 0.0
C1665 C 0.30497 0.41844 0.30963 0.0
C1666 C 0.23347 0.39055 0.32148 0.0
C1667 C 0.22604 0.36444 0.32319 0.0
C1668 C 0.27776 0.40045 0.31506 0.0
C1669 C 0.24499 0.35711 0.32091 0.0
C1670 C 0.32319 0.4099 0.30813 0.0
C1671 C 0.33668 0.45979 0.29961 0.0
N1672 N 0.26995 0.375 0.31697 0.0
N1673 N 0.3123 0.44312 0.30535 0.0
H1674 H 0.56971 0.93205 0.28467 0.0
H1675 H 0.60059 0.82487 0.31872 0.0
H1676 H 0.50888 0.854 0.29473 0.0
H1677 H 0.65904 0.90497 0.31252 0.0
H1678 H 0.56654 0.83449 0.30994 0.0
H1679 H 0.60248 0.92186 0.29455 0.0
C1680 C 0.56323 0.91265 0.28883 0.0
C1681 C 0.53645 0.89378 0.28867 0.0
C1682 C 0.58678 0.85 0.31059 0.0
C1683 C 0.5741 0.882 0.30029 0.0
C1684 C 0.60618 0.84454 0.31571 0.0
C1685 C 0.63254 0.86434 0.31676 0.0
C1686 C 0.5939 0.87535 0.3062 0.0
C1687 C 0.63887 0.88928 0.31213 0.0
C1688 C 0.58199 0.90689 0.29461 0.0
C1689 C 0.52928 0.86917 0.29465 0.0
N1690 N 0.61971 0.89409 0.30711 0.0
N1691 N 0.548 0.86395 0.30014 0.0
H1692 H 0.18107 0.66868 0.28959 0.0
H1693 H 0.11635 0.75672 0.3071 0.0
H1694 H 0.11153 0.65777 0.26467 0.0
H1695 H 0.18656 0.76666 0.3307 0.0
H1696 H 0.11266 0.71927 0.29224 0.0
H1697 H 0.18185 0.70355 0.30562 0.0
C1698 C 0.166 0.67371 0.28745 0.0
C1699 C 0.14634 0.66045 0.27568 0.0
C1700 C 0.12874 0.72959 0.30078 0.0
C1701 C 0.14695 0.70031 0.29411 0.0
C1702 C 0.13086 0.75096 0.30926 0.0
C1703 C 0.15171 0.76481 0.32026 0.0
C1704 C 0.14764 0.72212 0.3033 0.0
C1705 C 0.16997 0.75648 0.32253 0.0
C1706 C 0.16636 0.69354 0.29667 0.0
C1707 C 0.12697 0.66742 0.27368 0.0
N1708 N 0.16752 0.73577 0.31411 0.0
N1709 N 0.12784 0.68698 0.28275 0.0
H1710 H 0.84926 0.00079 0.38776 0.0
H1711 H 0.69597 0.91507 0.36619 0.0
H1712 H 0.79175 0.02089 0.40348 0.0
H1713 H 0.7552 0.89856 0.3486 0.0
H1714 H 0.7305 0.95418 0.37962 0.0
H1715 H 0.81481 0.96349 0.37307 0.0
C1716 C 0.82933 0.99729 0.38817 0.0
C1717 C 0.82336 0.0139 0.39696 0.0
C1718 C 0.73592 0.94206 0.37273 0.0
C1719 C 0.78371 0.97121 0.38002 0.0
C1720 C 0.71621 0.91971 0.36506 0.0
C1721 C 0.72267 0.90352 0.35616 0.0
C1722 C 0.76225 0.94821 0.37157 0.0
C1723 C 0.74925 0.91054 0.35515 0.0
C1724 C 0.80967 0.97605 0.37969 0.0
C1725 C 0.79726 0.00868 0.39678 0.0
N1726 N 0.768 0.93227 0.36279 0.0
N1727 N 0.77837 0.98771 0.38852 0.0
H1728 H 0.95914 0.73676 0.37426 0.0
H1729 H 0.10958 0.84336 0.35962 0.0
H1730 H 0.99184 0.81584 0.39071 0.0
H1731 H 0.08085 0.76137 0.35985 0.0
H1732 H 0.06549 0.83492 0.36701 0.0
H1733 H 0.00245 0.74683 0.36469 0.0
C1734 C 0.97539 0.75635 0.37572 0.0
C1735 C 0.97179 0.7755 0.3833 0.0
C1736 C 0.06884 0.8188 0.36536 0.0
C1737 C 0.02167 0.78712 0.37243 0.0
C1738 C 0.09389 0.82359 0.36102 0.0
C1739 C 0.09861 0.80295 0.3588 0.0
C1740 C 0.04846 0.79321 0.36748 0.0
C1741 C 0.07786 0.77776 0.36124 0.0
C1742 C 1.00018 0.76203 0.37035 0.0
C1743 C 0.99375 0.80044 0.38505 0.0
N1744 N 0.05367 0.77358 0.36532 0.0
N1745 N 0.01776 0.80557 0.37963 0.0
H1746 H 0.23984 0.22638 0.40606 0.0
H1747 H 0.1505 0.24503 0.34044 0.0
H1748 H 0.20717 0.17615 0.3641 0.0
H1749 H 0.20525 0.3051 0.3731 0.0
H1750 H 0.16462 0.21586 0.35135 0.0
H1751 H 0.21986 0.25131 0.39682 0.0
C1752 C 0.22814 0.22037 0.39501 0.0
C1753 C 0.22527 0.19924 0.38579 0.0
C1754 C 0.17346 0.23546 0.35607 0.0
C1755 C 0.20261 0.22791 0.37503 0.0
C1756 C 0.16554 0.25218 0.34978 0.0
C1757 C 0.17708 0.2778 0.35555 0.0
C1758 C 0.19265 0.24434 0.36841 0.0
C1759 C 0.19593 0.28568 0.36806 0.0
C1760 C 0.21692 0.23474 0.38967 0.0
C1761 C 0.21014 0.19254 0.37145 0.0
N1762 N 0.20309 0.26905 0.37404 0.0
N1763 N 0.19941 0.20688 0.36646 0.0
H1764 H 0.64086 0.554 0.73228 0.0
H1765 H 0.77656 0.60081 0.68703 0.0
H1766 H 0.6676 0.50209 0.71643 0.0
H1767 H 0.74355 0.65009 0.69509 0.0
H1768 H 0.73578 0.56393 0.69642 0.0
H1769 H 0.67728 0.58908 0.71773 0.0
C1770 C 0.65431 0.54996 0.72566 0.0
C1771 C 0.65125 0.52511 0.72565 0.0
C1772 C 0.73726 0.58272 0.69594 0.0
C1773 C 0.69303 0.56516 0.70899 0.0
C1774 C 0.76051 0.60376 0.69047 0.0
C1775 C 0.76319 0.62841 0.68999 0.0
C1776 C 0.71679 0.58649 0.70141 0.0
C1777 C 0.74209 0.63129 0.69513 0.0
C1778 C 0.67502 0.56995 0.71729 0.0
C1779 C 0.66908 0.52089 0.71668 0.0
N1780 N 0.71981 0.61062 0.70071 0.0
N1781 N 0.68933 0.54075 0.70886 0.0
H1782 H 0.43276 0.06766 0.70795 0.0
H1783 H 0.39622 0.17686 0.68783 0.0
H1784 H 0.48474 0.14839 0.71938 0.0
H1785 H 0.33998 0.09525 0.68796 0.0
H1786 H 0.43059 0.16754 0.69645 0.0
H1787 H 0.40045 0.07816 0.69749 0.0
C1788 C 0.43752 0.08767 0.70812 0.0
C1789 C 0.46162 0.10717 0.71452 0.0
C1790 C 0.41077 0.15167 0.69451 0.0
C1791 C 0.42434 0.11933 0.70268 0.0
C1792 C 0.39122 0.15697 0.68944 0.0
C1793 C 0.36541 0.1367 0.68677 0.0
C1794 C 0.40438 0.12593 0.69699 0.0
C1795 C 0.35976 0.11135 0.68962 0.0
C1796 C 0.41893 0.09363 0.70225 0.0
C1797 C 0.46637 0.1327 0.71468 0.0
N1798 N 0.37909 0.10667 0.69446 0.0
N1799 N 0.44793 0.13806 0.70881 0.0
H1800 H 0.91837 0.35612 0.73897 0.0
H1801 H 0.81744 0.24207 0.67994 0.0
H1802 H 0.87135 0.36712 0.70312 0.0
H1803 H 0.87988 0.24078 0.7069 0.0
H1804 H 0.83237 0.28571 0.69065 0.0
H1805 H 0.89925 0.31123 0.73 0.0
C1806 C 0.90377 0.34899 0.72933 0.0
C1807 C 0.89647 0.3654 0.72177 0.0
C1808 C 0.84274 0.27579 0.69417 0.0
C1809 C 0.87472 0.31403 0.71126 0.0
C1810 C 0.83435 0.25094 0.68799 0.0
C1811 C 0.84775 0.23788 0.6922 0.0
C1812 C 0.8644 0.28741 0.70484 0.0
C1813 C 0.86903 0.25009 0.70312 0.0
C1814 C 0.89301 0.32341 0.72412 0.0
C1815 C 0.87773 0.35518 0.70916 0.0
N1816 N 0.87668 0.27411 0.70901 0.0
N1817 N 0.8675 0.33012 0.70427 0.0
H1818 H 0.16377 0.96795 0.64106 0.0
H1819 H 0.30679 0.09075 0.63578 0.0
H1820 H 0.21938 0.9759 0.60434 0.0
H1821 H 0.24282 0.09414 0.65901 0.0
H1822 H 0.27568 0.04762 0.62545 0.0
H1823 H 0.19308 0.01314 0.64933 0.0
C1824 C 0.18209 0.97928 0.63471 0.0
C1825 C 0.1892 0.96824 0.62201 0.0
C1826 C 0.26846 0.05783 0.6328 0.0
C1827 C 0.2228 0.01966 0.63146 0.0
C1828 C 0.28623 0.08248 0.63876 0.0
C1829 C 0.27754 0.09598 0.64861 0.0
C1830 C 0.2418 0.04641 0.63683 0.0
C1831 C 0.25055 0.08423 0.65187 0.0
C1832 C 0.19871 0.00504 0.63936 0.0
C1833 C 0.21306 0.98375 0.61409 0.0
N1834 N 0.23367 0.06 0.64613 0.0
N1835 N 0.22913 0.0086 0.61905 0.0
H1836 H 0.01984 0.25748 0.61553 0.0
H1837 H 0.88596 0.1567 0.65774 0.0
H1838 H 0.00904 0.18629 0.63532 0.0
H1839 H 0.91134 0.23756 0.65266 0.0
H1840 H 0.92928 0.16532 0.64853 0.0
H1841 H 0.97814 0.24853 0.6273 0.0
C1842 C 0.00855 0.23981 0.62225 0.0
C1843 C 0.01786 0.2225 0.62432 0.0
C1844 C 0.92545 0.18121 0.64963 0.0
C1845 C 0.96999 0.21219 0.63801 0.0
C1846 C 0.90081 0.17634 0.65502 0.0
C1847 C 0.89531 0.1966 0.65633 0.0
C1848 C 0.94436 0.20637 0.64507 0.0
C1849 C 0.91494 0.22149 0.65202 0.0
C1850 C 0.98484 0.23483 0.62911 0.0
C1851 C 0.00259 0.20016 0.63344 0.0
N1852 N 0.93848 0.22564 0.64652 0.0
N1853 N 0.97929 0.19553 0.63986 0.0
H1854 H 0.83602 0.845 0.62666 0.0
H1855 H 0.77906 0.69377 0.64022 0.0
H1856 H 0.76849 0.78536 0.60077 0.0
H1857 H 0.84813 0.75422 0.66451 0.0
H1858 H 0.77299 0.72681 0.62692 0.0
H1859 H 0.83848 0.81178 0.64217 0.0
C1860 C 0.82148 0.82492 0.62437 0.0
C1861 C 0.80202 0.81799 0.61236 0.0
C1862 C 0.78937 0.73281 0.63525 0.0
C1863 C 0.80505 0.77972 0.62992 0.0
C1864 C 0.79287 0.71395 0.64285 0.0
C1865 C 0.81411 0.72119 0.65356 0.0
C1866 C 0.80726 0.75908 0.63836 0.0
C1867 C 0.83134 0.74766 0.65648 0.0
C1868 C 0.82303 0.80593 0.63316 0.0
C1869 C 0.78403 0.79159 0.60975 0.0
N1870 N 0.82757 0.76561 0.6489 0.0
N1871 N 0.78604 0.77341 0.61842 0.0
H1872 H 0.00415 0.81379 0.62646 0.0
H1873 H 0.90898 0.67133 0.65851 0.0
H1874 H 0.02823 0.75756 0.63527 0.0
H1875 H 0.8859 0.72926 0.65678 0.0
H1876 H 0.95374 0.70405 0.65161 0.0
H1877 H 0.96167 0.78467 0.6389 0.0
C1878 C 1.0006 0.79543 0.63109 0.0
C1879 C 0.01967 0.78795 0.62956 0.0
C1880 C 0.93908 0.70983 0.65296 0.0
C1881 C 0.97114 0.75457 0.64374 0.0
C1882 C 0.91359 0.69115 0.65694 0.0
C1883 C 0.89402 0.6978 0.65845 0.0
C1884 C 0.94493 0.73527 0.64997 0.0
C1885 C 0.90069 0.72358 0.65603 0.0
C1886 C 0.97634 0.77882 0.63817 0.0
C1887 C 0.01392 0.76389 0.63576 0.0
N1888 N 0.92562 0.74141 0.65175 0.0
N1889 N 0.99019 0.74807 0.64246 0.0
H1890 H 0.18121 0.18753 0.61594 0.0
H1891 H 0.32729 0.24078 0.64851 0.0
H1892 H 0.23078 0.26556 0.63398 0.0
H1893 H 0.27008 0.15943 0.64821 0.0
H1894 H 0.29268 0.25015 0.64087 0.0
H1895 H 0.21356 0.1764 0.62598 0.0
C1896 C 0.19871 0.2023 0.62209 0.0
C1897 C 0.20331 0.2277 0.62384 0.0
C1898 C 0.28759 0.23024 0.64262 0.0
C1899 C 0.24064 0.2151 0.63507 0.0
C1900 C 0.30733 0.22493 0.64695 0.0
C1901 C 0.30134 0.1994 0.6494 0.0
C1902 C 0.26173 0.20981 0.64023 0.0
C1903 C 0.27532 0.17944 0.64686 0.0
C1904 C 0.21722 0.19592 0.62775 0.0
C1905 C 0.22657 0.24595 0.63184 0.0
N1906 N 0.25643 0.18505 0.64236 0.0
N1907 N 0.24437 0.23936 0.63699 0.0
H1908 H 0.77369 0.98646 0.59803 0.0
H1909 H 0.85259 0.09811 0.66433 0.0
H1910 H 0.8444 -0.00056 0.62241 0.0
H1911 H 0.78353 0.08839 0.63927 0.0
H1912 H 0.84792 0.06019 0.65018 0.0
H1913 H 0.77506 0.0219 0.61404 0.0
C1914 C 0.78939 0.99665 0.60683 0.0
C1915 C 0.80907 0.99011 0.60881 0.0
C1916 C 0.83367 0.06622 0.64781 0.0
C1917 C 0.81084 0.03069 0.62708 0.0
C1918 C 0.83623 0.08786 0.65598 0.0
C1919 C 0.81832 0.09644 0.65309 0.0
C1920 C 0.81314 0.05301 0.63652 0.0
C1921 C 0.7978 0.0825 0.64189 0.0
C1922 C 0.79023 0.01694 0.6159 0.0
C1923 C 0.82908 0.0041 0.62027 0.0
N1924 N 0.79581 0.06148 0.63397 0.0
N1925 N 0.82946 0.02372 0.62894 0.0
H1926 H 0.5168 0.33802 0.71863 0.0
H1927 H 0.36297 0.24649 0.70035 0.0
H1928 H 0.45721 0.35008 0.7406 0.0
H1929 H 0.42393 0.23506 0.67978 0.0
H1930 H 0.39682 0.28534 0.71443 0.0
H1931 H 0.48269 0.30116 0.70348 0.0
C1932 C 0.49649 0.33284 0.72032 0.0
C1933 C 0.48985 0.34704 0.73101 0.0
C1934 C 0.40274 0.27438 0.70674 0.0
C1935 C 0.45054 0.30483 0.71355 0.0
C1936 C 0.38343 0.25219 0.6987 0.0
C1937 C 0.39057 0.23752 0.68874 0.0
C1938 C 0.42936 0.28191 0.70485 0.0
C1939 C 0.41741 0.24585 0.68712 0.0
C1940 C 0.477 0.31184 0.71159 0.0
C1941 C 0.46322 0.33975 0.73243 0.0
N1942 N 0.43575 0.26741 0.69509 0.0
N1943 N 0.44451 0.31906 0.72386 0.0
H1944 H 0.62724 0.06461 0.71123 0.0
H1945 H 0.77428 0.17454 0.69047 0.0
H1946 H 0.657 0.14523 0.72287 0.0
H1947 H 0.74793 0.09306 0.69169 0.0
H1948 H 0.73003 0.16504 0.69841 0.0
H1949 H 0.66983 0.07562 0.7001 0.0
C1950 C 0.64276 0.08466 0.71155 0.0
C1951 C 0.63852 0.10393 0.71834 0.0
C1952 C 0.73391 0.14925 0.69682 0.0
C1953 C 0.68758 0.11677 0.70524 0.0
C1954 C 0.75906 0.15464 0.69217 0.0
C1955 C 0.76453 0.13445 0.69015 0.0
C1956 C 0.71423 0.12352 0.69949 0.0
C1957 C 0.74438 0.10911 0.69294 0.0
C1958 C 0.6671 0.09095 0.70508 0.0
C1959 C 0.65928 0.12969 0.71781 0.0
N1960 N 0.72015 0.10436 0.6974 0.0
N1961 N 0.68296 0.13535 0.71147 0.0
H1962 H 0.92399 0.57077 0.73766 0.0
H1963 H 0.82046 0.57784 0.6776 0.0
H1964 H 0.87398 0.50821 0.70494 0.0
H1965 H 0.87909 0.64194 0.70625 0.0
H1966 H 0.8366 0.5504 0.68877 0.0
H1967 H 0.90423 0.59545 0.72778 0.0
C1968 C 0.90885 0.56223 0.72837 0.0
C1969 C 0.90084 0.53751 0.722 0.0
C1970 C 0.84586 0.5705 0.69256 0.0
C1971 C 0.8779 0.56565 0.71064 0.0
C1972 C 0.83676 0.58621 0.68612 0.0
C1973 C 0.84868 0.61242 0.69073 0.0
C1974 C 0.86682 0.58106 0.70379 0.0
C1975 C 0.86933 0.62199 0.70214 0.0
C1976 C 0.89748 0.5763 0.72276 0.0
C1977 C 0.88067 0.52718 0.71023 0.0
N1978 N 0.87771 0.60637 0.70821 0.0
N1979 N 0.86998 0.54138 0.70484 0.0
H1980 H 0.51329 0.99928 0.2045 0.0
H1981 H 0.46945 0.98334 0.1114 0.0
H1982 H 0.44428 0.93097 0.18642 0.0
H1983 H 0.54708 0.03867 0.12908 0.0
H1984 H 0.45867 0.96404 0.13843 0.0
H1985 H 0.52453 0.01473 0.17681 0.0
C1986 C 0.50042 0.98756 0.19467 0.0
C1987 C 0.47768 0.96391 0.1978 0.0
C1988 C 0.47809 0.98032 0.13632 0.0
C1989 C 0.49053 0.98149 0.16588 0.0
C1990 C 0.48433 0.9913 0.12087 0.0
C1991 C 0.50915 0.01295 0.11792 0.0
C1992 C 0.49674 0.99116 0.14896 0.0
C1993 C 0.52749 0.02247 0.13078 0.0
C1994 C 0.50695 0.99631 0.17882 0.0
C1995 C 0.46201 0.94931 0.18453 0.0
N1996 N 0.52085 0.01168 0.14569 0.0
N1997 N 0.46859 0.95844 0.16914 0.0
H1998 H 0.04268 0.50658 0.18603 0.0
H1999 H 0.01393 0.55573 0.10336 0.0
H2000 H 0.08431 0.58657 0.17166 0.0
H2001 H 0.95905 0.48218 0.12399 0.0
H2002 H 0.04044 0.56707 0.12819 0.0
H2003 H 0.01198 0.49681 0.16341 0.0
C2004 C 0.04524 0.52215 0.17825 0.0
C2005 C 0.06633 0.54742 0.1807 0.0
C2006 C 0.02248 0.54854 0.12738 0.0
C2007 C 0.03147 0.53623 0.15464 0.0
C2008 C 0.00742 0.54205 0.1132 0.0
C2009 C 0.98438 0.51796 0.11165 0.0
C2010 C 0.01466 0.53066 0.14002 0.0
C2011 C 0.97665 0.501 0.12477 0.0
C2012 C 0.02774 0.51652 0.1653 0.0
C2013 C 0.06878 0.5667 0.17005 0.0
N2014 N 0.99193 0.50755 0.13837 0.0
N2015 N 0.05171 0.56066 0.15744 0.0
H2016 H 0.44529 0.4971 0.19012 0.0
H2017 H 0.55974 0.51736 0.12907 0.0
H2018 H 0.52591 0.52521 0.20443 0.0
H2019 H 0.47811 0.47993 0.11458 0.0
H2020 H 0.54751 0.52264 0.15643 0.0
H2021 H 0.4566 0.49239 0.16215 0.0
C2022 C 0.46532 0.50222 0.18742 0.0
C2023 C 0.4847 0.51176 0.19968 0.0
C2024 C 0.53221 0.51326 0.1473 0.0
C2025 C 0.4978 0.50665 0.16768 0.0
C2026 C 0.53919 0.51013 0.13165 0.0
C2027 C 0.51991 0.49794 0.1195 0.0
C2028 C 0.50571 0.50421 0.15094 0.0
C2029 C 0.49366 0.48957 0.12353 0.0
C2030 C 0.47178 0.49964 0.17143 0.0
C2031 C 0.51039 0.51829 0.19539 0.0
N2032 N 0.4873 0.49278 0.13892 0.0
N2033 N 0.51614 0.51564 0.17981 0.0
H2034 H 0.97376 0.51468 0.82006 0.0
H2035 H 0.03979 0.46846 0.88702 0.0
H2036 H 0.99865 0.45898 0.81083 0.0
H2037 H 0.00994 0.51977 0.89782 0.0
H2038 H 0.02435 0.46458 0.85907 0.0
H2039 H 0.98596 0.51635 0.84865 0.0
C2040 C 0.98161 0.50267 0.82405 0.0
C2041 C 0.98535 0.4868 0.81297 0.0
C2042 C 0.02107 0.47664 0.86754 0.0
C2043 C 0.9996 0.48882 0.84565 0.0
C2044 C 0.03003 0.47897 0.88349 0.0
C2045 C 0.0263 0.49459 0.89475 0.0
C2046 C 0.00837 0.49013 0.86273 0.0
C2047 C 0.01308 0.50738 0.88956 0.0
C2048 C 0.98868 0.50372 0.84037 0.0
C2049 C 0.99587 0.47187 0.81883 0.0
N2050 N 0.00472 0.50499 0.8739 0.0
N2051 N 0.00268 0.47331 0.83473 0.0
H2052 H 0.49693 0.45865 0.81661 0.0
H2053 H 0.52601 0.51245 0.90819 0.0
H2054 H 0.56861 0.47906 0.84265 0.0
H2055 H 0.44874 0.47647 0.88618 0.0
H2056 H 0.54311 0.50444 0.88323 0.0
H2057 H 0.48026 0.46957 0.84088 0.0
C2058 C 0.50923 0.46561 0.82739 0.0
C2059 C 0.53414 0.46781 0.82764 0.0
C2060 C 0.52241 0.49831 0.88385 0.0
C2061 C 0.5152 0.48025 0.85543 0.0
C2062 C 0.51257 0.50274 0.89816 0.0
C2063 C 0.48579 0.49492 0.89941 0.0
C2064 C 0.50546 0.48609 0.87058 0.0
C2065 C 0.46954 0.48305 0.88577 0.0
C2066 C 0.49965 0.47169 0.84126 0.0
C2067 C 0.54915 0.47673 0.84198 0.0
N2068 N 0.47962 0.47895 0.87195 0.0
N2069 N 0.53947 0.48262 0.85528 0.0
H2070 H 0.46848 0.01489 0.81192 0.0
H2071 H 0.51995 0.01688 0.90226 0.0
H2072 H 0.54608 0.07209 0.82865 0.0
H2073 H 0.4403 0.96626 0.88576 0.0
H2074 H 0.5301 0.03813 0.87583 0.0
H2075 H 0.45807 0.99765 0.83916 0.0
C2076 C 0.48329 0.02415 0.82134 0.0
C2077 C 0.50822 0.0452 0.81785 0.0
C2078 C 0.51039 0.02243 0.87804 0.0
C2079 C 0.49646 0.02488 0.84931 0.0
C2080 C 0.50452 0.01036 0.89317 0.0
C2081 C 0.47926 0.98953 0.89626 0.0
C2082 C 0.49086 0.01362 0.86588 0.0
C2083 C 0.46019 0.98184 0.88389 0.0
C2084 C 0.47735 0.01408 0.83695 0.0
C2085 C 0.5267 0.05571 0.83064 0.0
N2086 N 0.46641 0.99376 0.8693 0.0
N2087 N 0.52048 0.04541 0.84576 0.0
H2088 H 0.19395 0.31552 0.53241 0.0
H2089 H 0.13975 0.31991 0.44385 0.0
H2090 H 0.11174 0.27179 0.51942 0.0
H2091 H 0.22165 0.36099 0.45782 0.0
H2092 H 0.12888 0.29973 0.47063 0.0
H2093 H 0.20423 0.33017 0.50451 0.0
C2094 C 0.17802 0.30898 0.52366 0.0
C2095 C 0.1519 0.29262 0.52834 0.0
C2096 C 0.14924 0.31306 0.46778 0.0
C2097 C 0.16357 0.30934 0.49616 0.0
C2098 C 0.15547 0.32449 0.45246 0.0
C2099 C 0.18165 0.34243 0.44859 0.0
C2100 C 0.16932 0.31955 0.47933 0.0
C2101 C 0.20115 0.34772 0.46033 0.0
C2102 C 0.18392 0.31728 0.50768 0.0
C2103 C 0.13216 0.28435 0.51636 0.0
N2104 N 0.19458 0.33648 0.47511 0.0
N2105 N 0.13836 0.29298 0.50085 0.0
H2106 H 0.70154 0.87555 0.52735 0.0
H2107 H 0.6659 0.8166 0.43726 0.0
H2108 H 0.75048 0.85561 0.49893 0.0
H2109 H 0.63356 0.86099 0.45834 0.0
H2110 H 0.69122 0.82317 0.4621 0.0
H2111 H 0.67074 0.86283 0.50429 0.0
C2112 C 0.70562 0.86825 0.51631 0.0
C2113 C 0.7286 0.86677 0.51493 0.0
C2114 C 0.67848 0.83137 0.46131 0.0
C2115 C 0.69362 0.85214 0.48872 0.0
C2116 C 0.6641 0.82773 0.44711 0.0
C2117 C 0.64793 0.83868 0.44557 0.0
C2118 C 0.67659 0.84588 0.47418 0.0
C2119 C 0.64575 0.85219 0.45897 0.0
C2120 C 0.68816 0.86113 0.50318 0.0
C2121 C 0.73312 0.85733 0.50038 0.0
N2122 N 0.66008 0.85557 0.4727 0.0
N2123 N 0.71578 0.85036 0.48784 0.0
H2124 H 0.19523 0.87594 0.53551 0.0
H2125 H 0.14602 0.8125 0.44708 0.0
H2126 H 0.11467 0.81858 0.52471 0.0
H2127 H 0.22752 0.86035 0.46089 0.0
H2128 H 0.13335 0.81768 0.47457 0.0
H2129 H 0.20656 0.87347 0.5074 0.0
C2130 C 0.1799 0.86272 0.52725 0.0
C2131 C 0.15399 0.84719 0.53259 0.0
C2132 C 0.15399 0.82708 0.47156 0.0
C2133 C 0.16684 0.84453 0.50017 0.0
C2134 C 0.16123 0.82425 0.45585 0.0
C2135 C 0.18788 0.83589 0.45171 0.0
C2136 C 0.17354 0.84181 0.48317 0.0
C2137 C 0.20676 0.85072 0.46361 0.0
C2138 C 0.18638 0.86142 0.51114 0.0
C2139 C 0.13487 0.83098 0.52115 0.0
N2140 N 0.19923 0.85323 0.47877 0.0
N2141 N 0.1417 0.82998 0.5055 0.0
H2142 H 0.66498 0.7895 0.14346 0.0
H2143 H 0.67684 0.85135 0.23196 0.0
H2144 H 0.64333 0.84733 0.15375 0.0
H2145 H 0.70358 0.79784 0.22014 0.0
H2146 H 0.66192 0.84835 0.20384 0.0
H2147 H 0.67706 0.79081 0.1719 0.0
C2148 C 0.66289 0.8026 0.15169 0.0
C2149 C 0.65334 0.81851 0.14614 0.0
C2150 C 0.67102 0.83724 0.20741 0.0
C2151 C 0.66687 0.81987 0.17889 0.0
C2152 C 0.6794 0.83883 0.22348 0.0
C2153 C 0.69159 0.82491 0.2284 0.0
C2154 C 0.67475 0.82154 0.19619 0.0
C2155 C 0.69466 0.80922 0.21684 0.0
C2156 C 0.66966 0.80323 0.16797 0.0
C2157 C 0.65046 0.83462 0.15749 0.0
N2158 N 0.68633 0.80798 0.2013 0.0
N2159 N 0.65729 0.83496 0.17331 0.0
H2160 H 0.23662 0.82072 0.17493 0.0
H2161 H 0.11249 0.81318 0.21945 0.0
H2162 H 0.16257 0.79649 0.15062 0.0
H2163 H 0.19045 0.85005 0.2405 0.0
H2164 H 0.13013 0.8064 0.19424 0.0
H2165 H 0.21983 0.83115 0.19912 0.0
C2166 C 0.21693 0.81787 0.17457 0.0
C2167 C 0.20103 0.80769 0.16063 0.0
C2168 C 0.14338 0.81605 0.20436 0.0
C2169 C 0.18143 0.81914 0.18855 0.0
C2170 C 0.13334 0.82005 0.21876 0.0
C2171 C 0.14995 0.83211 0.23221 0.0
C2172 C 0.17023 0.82404 0.20339 0.0
C2173 C 0.17677 0.84023 0.2306 0.0
C2174 C 0.20728 0.82368 0.18846 0.0
C2175 C 0.17544 0.80392 0.16112 0.0
N2176 N 0.18602 0.83596 0.21651 0.0
N2177 N 0.16642 0.80953 0.17485 0.0
H2178 H 0.17365 0.40844 0.15853 0.0
H2179 H 0.15102 0.29309 0.21686 0.0
H2180 H 0.19425 0.35059 0.14596 0.0
H2181 H 0.14633 0.35913 0.23389 0.0
H2182 H 0.16609 0.31379 0.19061 0.0
H2183 H 0.16277 0.39075 0.18598 0.0
C2184 C 0.176 0.39212 0.16155 0.0
C2185 C 0.18494 0.38104 0.14988 0.0
C2186 C 0.16191 0.32388 0.20009 0.0
C2187 C 0.17239 0.36062 0.18125 0.0
C2188 C 0.15318 0.31199 0.21506 0.0
C2189 C 0.14725 0.32432 0.22757 0.0
C2190 C 0.16451 0.34824 0.19743 0.0
C2191 C 0.15079 0.34898 0.22461 0.0
C2192 C 0.16989 0.3821 0.17724 0.0
C2193 C 0.18778 0.36002 0.15455 0.0
N2194 N 0.15896 0.36004 0.20981 0.0
N2195 N 0.18136 0.35041 0.16978 0.0
H2196 H 0.77122 0.62559 0.8573 0.0
H2197 H 0.88335 0.67993 0.79094 0.0
H2198 H 0.83888 0.61572 0.86037 0.0
H2199 H 0.80429 0.66185 0.77957 0.0
H2200 H 0.86821 0.65883 0.81717 0.0
H2201 H 0.78341 0.64099 0.82943 0.0
C2202 C 0.78851 0.62647 0.85205 0.0
C2203 C 0.80407 0.61936 0.86115 0.0
C2204 C 0.85412 0.6593 0.8089 0.0
C2205 C 0.81832 0.6373 0.82942 0.0
C2206 C 0.86277 0.67145 0.79398 0.0
C2207 C 0.84505 0.6727 0.78312 0.0
C2208 C 0.82761 0.64871 0.81316 0.0
C2209 C 0.81855 0.6612 0.78759 0.0
C2210 C 0.7954 0.63517 0.83615 0.0
C2211 C 0.82622 0.62079 0.85374 0.0
N2212 N 0.81067 0.64994 0.80235 0.0
N2213 N 0.83286 0.62989 0.8384 0.0
H2214 H 0.36181 0.18512 0.85887 0.0
H2215 H 0.35319 0.21806 0.76599 0.0
H2216 H 0.42837 0.23847 0.83051 0.0
H2217 H 0.28953 0.15342 0.79019 0.0
H2218 H 0.37927 0.22908 0.79087 0.0
H2219 H 0.33349 0.17596 0.83496 0.0
C2220 C 0.3705 0.19487 0.84764 0.0
C2221 C 0.39756 0.21266 0.84675 0.0
C2222 C 0.35957 0.21251 0.79078 0.0
C2223 C 0.3652 0.20254 0.81947 0.0
C2224 C 0.34469 0.20617 0.77656 0.0
C2225 C 0.31927 0.18457 0.77593 0.0
C2226 C 0.34901 0.19722 0.80457 0.0
C2227 C 0.30902 0.17027 0.79014 0.0
C2228 C 0.35429 0.18973 0.83404 0.0
C2229 C 0.4076 0.22498 0.83192 0.0
N2230 N 0.32401 0.17674 0.80388 0.0
N2231 N 0.39145 0.21968 0.81891 0.0
H2232 H 0.78873 0.13663 0.86423 0.0
H2233 H 0.84951 0.20091 0.7788 0.0
H2234 H 0.82851 0.21896 0.8567 0.0
H2235 H 0.83591 0.12576 0.79253 0.0
H2236 H 0.83466 0.20596 0.80568 0.0
H2237 H 0.79849 0.13044 0.83619 0.0
C2238 C 0.79922 0.15336 0.8566 0.0
C2239 C 0.80793 0.17835 0.86279 0.0
C2240 C 0.83486 0.18835 0.80277 0.0
C2241 C 0.81918 0.17144 0.83078 0.0
C2242 C 0.84319 0.1854 0.78744 0.0
C2243 C 0.84407 0.16295 0.78351 0.0
C2244 C 0.82699 0.16852 0.81415 0.0
C2245 C 0.83582 0.1435 0.79516 0.0
C2246 C 0.80494 0.14984 0.84066 0.0
C2247 C 0.82167 0.19939 0.85243 0.0
N2248 N 0.82758 0.14671 0.80995 0.0
N2249 N 0.82688 0.19547 0.83693 0.0
H2250 H 0.35905 0.19399 0.47349 0.0
H2251 H 0.3225 0.13837 0.56348 0.0
H2252 H 0.28223 0.13237 0.48689 0.0
H2253 H 0.3991 0.20005 0.54982 0.0
H2254 H 0.30679 0.13703 0.5358 0.0
H2255 H 0.37341 0.19773 0.50168 0.0
C2256 C 0.34509 0.18141 0.48238 0.0
C2257 C 0.31937 0.16281 0.47777 0.0
C2258 C 0.32702 0.1509 0.53887 0.0
C2259 C 0.33586 0.16673 0.51012 0.0
C2260 C 0.33597 0.15177 0.5547 0.0
C2261 C 0.3622 0.1693 0.55899 0.0
C2262 C 0.3444 0.16769 0.52721 0.0
C2263 C 0.37884 0.18596 0.54702 0.0
C2264 C 0.35338 0.18344 0.49848 0.0
C2265 C 0.30233 0.14675 0.48983 0.0
N2266 N 0.36968 0.18471 0.53169 0.0
N2267 N 0.3109 0.14905 0.50542 0.0
H2268 H 0.85049 0.09225 0.50412 0.0
H2269 H 0.81921 0.19172 0.551 0.0
H2270 H 0.87179 0.16758 0.4857 0.0
H2271 H 0.81064 0.12221 0.57219 0.0
H2272 H 0.83492 0.18167 0.526 0.0
H2273 H 0.83249 0.10152 0.52819 0.0
C2274 C 0.85152 0.11082 0.50515 0.0
C2275 C 0.86296 0.12925 0.49288 0.0
C2276 C 0.82957 0.16862 0.53612 0.0
C2277 C 0.84191 0.13986 0.52043 0.0
C2278 C 0.82046 0.17426 0.55035 0.0
C2279 C 0.81368 0.15782 0.56373 0.0
C2280 C 0.83174 0.14627 0.53519 0.0
C2281 C 0.81597 0.1356 0.56227 0.0
C2282 C 0.84108 0.11604 0.51889 0.0
C2283 C 0.86303 0.1527 0.49476 0.0
N2284 N 0.82477 0.13048 0.54827 0.0
N2285 N 0.85274 0.15735 0.50829 0.0
H2286 H 0.85059 0.67206 0.4775 0.0
H2287 H 0.81968 0.69159 0.56959 0.0
H2288 H 0.85604 0.74283 0.49527 0.0
H2289 H 0.81456 0.62165 0.55054 0.0
H2290 H 0.83525 0.71181 0.54311 0.0
H2291 H 0.83973 0.65454 0.50469 0.0
C2292 C 0.84987 0.68413 0.48715 0.0
C2293 C 0.85442 0.7091 0.48398 0.0
C2294 C 0.83079 0.69207 0.54475 0.0
C2295 C 0.84129 0.68872 0.51536 0.0
C2296 C 0.82203 0.68055 0.5599 0.0
C2297 C 0.81557 0.65477 0.5623 0.0
C2298 C 0.8332 0.67775 0.5319 0.0
C2299 C 0.8188 0.64138 0.54922 0.0
C2300 C 0.84341 0.67396 0.50271 0.0
C2301 C 0.85247 0.72341 0.49703 0.0
N2302 N 0.82729 0.65297 0.53464 0.0
N2303 N 0.84601 0.71301 0.51212 0.0
loop_
_geom_bond_atom_site_label_1
_geom_bond_atom_site_label_2
_geom_bond_distance
_geom_bond_site_symmetry_2
_ccdc_geom_bond_type
P0 O11 1.490 . S
P0 C14 1.812 . S
P0 C20 1.803 . S
P0 C26 1.819 . S
H1 C15 0.941 . S
H2 C16 0.939 . S
H3 C18 0.940 . S
H4 C19 0.940 . S
H5 C21 0.939 . S
H6 C22 0.942 . S
H7 C24 0.940 . S
H8 C25 0.939 . S
H9 C27 0.941 . S
H10 C31 0.939 . S
O11 P0 1.490 . S
H12 C28 0.939 . S
H13 C30 0.940 . S
C14 P0 1.812 . S
C14 C15 1.389 . S
C14 C19 1.391 . S
C15 H1 0.941 . S
C15 C14 1.389 . S
C15 C16 1.397 . S
C16 H2 0.939 . S
C16 C15 1.397 . S
C16 C17 1.378 . S
C17 C16 1.378 . S
C17 C18 1.378 . S
C18 H3 0.940 . S
C18 C17 1.378 . S
C18 C19 1.396 . S
C19 H4 0.940 . S
C19 C14 1.391 . S
C19 C18 1.396 . S
C20 P0 1.803 . S
C20 C21 1.378 . S
C20 C25 1.400 . S
C21 H5 0.939 . S
C21 C20 1.378 . S
C21 C22 1.361 . S
C22 H6 0.942 . S
C22 C21 1.361 . S
C22 C23 1.369 . S
C23 C22 1.369 . S
C23 C24 1.404 . S
C24 H7 0.940 . S
C24 C23 1.404 . S
C24 C25 1.389 . S
C25 H8 0.939 . S
C25 C20 1.400 . S
C25 C24 1.389 . S
C26 P0 1.819 . S
C26 C27 1.391 . S
C26 C31 1.391 . S
C27 H9 0.941 . S
C27 C26 1.391 . S
C27 C28 1.396 . S
C28 H12 0.939 . S
C28 C27 1.396 . S
C28 C29 1.397 . S
C29 C28 1.397 . S
C29 C30 1.385 . S
C30 H13 0.940 . S
C30 C29 1.385 . S
C30 C31 1.388 . S
C31 H10 0.939 . S
C31 C26 1.391 . S
C31 C30 1.388 . S
P32 O43 1.490 . S
P32 C46 1.812 . S
P32 C52 1.803 . S
P32 C58 1.819 . S
H33 C47 0.941 . S
H34 C48 0.939 . S
H35 C50 0.940 . S
H36 C51 0.940 . S
H37 C53 0.939 . S
H38 C54 0.942 . S
H39 C56 0.940 . S
H40 C57 0.939 . S
H41 C59 0.941 . S
H42 C63 0.939 . S
O43 P32 1.490 . S
H44 C60 0.939 . S
H45 C62 0.940 . S
C46 P32 1.812 . S
C46 C47 1.389 . S
C46 C51 1.391 . S
C47 H33 0.941 . S
C47 C46 1.389 . S
C47 C48 1.397 . S
C48 H34 0.939 . S
C48 C47 1.397 . S
C48 C49 1.378 . S
C49 C48 1.378 . S
C49 C50 1.378 . S
C50 H35 0.940 . S
C50 C49 1.378 . S
C50 C51 1.396 . S
C51 H36 0.940 . S
C51 C46 1.391 . S
C51 C50 1.396 . S
C52 P32 1.803 . S
C52 C53 1.378 . S
C52 C57 1.400 . S
C53 H37 0.939 . S
C53 C52 1.378 . S
C53 C54 1.361 . S
C54 H38 0.942 . S
C54 C53 1.361 . S
C54 C55 1.369 . S
C55 C54 1.369 . S
C55 C56 1.404 . S
C56 H39 0.940 . S
C56 C55 1.404 . S
C56 C57 1.389 . S
C57 H40 0.939 . S
C57 C52 1.400 . S
C57 C56 1.389 . S
C58 P32 1.819 . S
C58 C59 1.391 . S
C58 C63 1.391 . S
C59 H41 0.941 . S
C59 C58 1.391 . S
C59 C60 1.396 . S
C60 H44 0.939 . S
C60 C59 1.396 . S
C60 C61 1.397 . S
C61 C60 1.397 . S
C61 C62 1.385 . S
C62 H45 0.940 . S
C62 C61 1.385 . S
C62 C63 1.388 . S
C63 H42 0.939 . S
C63 C58 1.391 . S
C63 C62 1.388 . S
P64 O75 1.490 . S
P64 C78 1.812 . S
P64 C84 1.803 . S
P64 C90 1.819 . S
H65 C79 0.941 . S
H66 C80 0.939 . S
H67 C82 0.940 . S
H68 C83 0.940 . S
H69 C85 0.939 . S
H70 C86 0.942 . S
H71 C88 0.940 . S
H72 C89 0.939 . S
H73 C91 0.941 . S
H74 C95 0.939 . S
O75 P64 1.490 . S
H76 C92 0.939 . S
H77 C94 0.940 . S
C78 P64 1.812 . S
C78 C79 1.389 . S
C78 C83 1.391 . S
C79 H65 0.941 . S
C79 C78 1.389 . S
C79 C80 1.397 . S
C80 H66 0.939 . S
C80 C79 1.397 . S
C80 C81 1.378 . S
C81 C80 1.378 . S
C81 C82 1.378 . S
C82 H67 0.940 . S
C82 C81 1.378 . S
C82 C83 1.396 . S
C83 H68 0.940 . S
C83 C78 1.391 . S
C83 C82 1.396 . S
C84 P64 1.803 . S
C84 C85 1.378 . S
C84 C89 1.400 . S
C85 H69 0.939 . S
C85 C84 1.378 . S
C85 C86 1.361 . S
C86 H70 0.942 . S
C86 C85 1.361 . S
C86 C87 1.369 . S
C87 C86 1.369 . S
C87 C88 1.404 . S
C88 H71 0.940 . S
C88 C87 1.404 . S
C88 C89 1.389 . S
C89 H72 0.939 . S
C89 C84 1.400 . S
C89 C88 1.389 . S
C90 P64 1.819 . S
C90 C91 1.391 . S
C90 C95 1.391 . S
C91 H73 0.941 . S
C91 C90 1.391 . S
C91 C92 1.396 . S
C92 H76 0.939 . S
C92 C91 1.396 . S
C92 C93 1.397 . S
C93 C92 1.397 . S
C93 C94 1.385 . S
C94 H77 0.940 . S
C94 C93 1.385 . S
C94 C95 1.388 . S
C95 H74 0.939 . S
C95 C90 1.391 . S
C95 C94 1.388 . S
P96 O107 1.490 . S
P96 C110 1.812 . S
P96 C116 1.803 . S
P96 C122 1.819 . S
H97 C111 0.941 . S
H98 C112 0.939 . S
H99 C114 0.940 . S
H100 C115 0.940 . S
H101 C117 0.939 . S
H102 C118 0.942 . S
H103 C120 0.940 . S
H104 C121 0.939 . S
H105 C123 0.941 . S
H106 C127 0.939 . S
O107 P96 1.490 . S
H108 C124 0.939 . S
H109 C126 0.940 . S
C110 P96 1.812 . S
C110 C111 1.389 . S
C110 C115 1.391 . S
C111 H97 0.941 . S
C111 C110 1.389 . S
C111 C112 1.397 . S
C112 H98 0.939 . S
C112 C111 1.397 . S
C112 C113 1.378 . S
C113 C112 1.378 . S
C113 C114 1.378 . S
C114 H99 0.940 . S
C114 C113 1.378 . S
C114 C115 1.396 . S
C115 H100 0.940 . S
C115 C110 1.391 . S
C115 C114 1.396 . S
C116 P96 1.803 . S
C116 C117 1.378 . S
C116 C121 1.400 . S
C117 H101 0.939 . S
C117 C116 1.378 . S
C117 C118 1.361 . S
C118 H102 0.942 . S
C118 C117 1.361 . S
C118 C119 1.369 . S
C119 C118 1.369 . S
C119 C120 1.404 . S
C120 H103 0.940 . S
C120 C119 1.404 . S
C120 C121 1.389 . S
C121 H104 0.939 . S
C121 C116 1.400 . S
C121 C120 1.389 . S
C122 P96 1.819 . S
C122 C123 1.391 . S
C122 C127 1.391 . S
C123 H105 0.941 . S
C123 C122 1.391 . S
C123 C124 1.396 . S
C124 H108 0.939 . S
C124 C123 1.396 . S
C124 C125 1.397 . S
C125 C124 1.397 . S
C125 C126 1.385 . S
C126 H109 0.940 . S
C126 C125 1.385 . S
C126 C127 1.388 . S
C127 H106 0.939 . S
C127 C122 1.391 . S
C127 C126 1.388 . S
P128 O139 1.490 . S
P128 C142 1.812 . S
P128 C148 1.803 . S
P128 C154 1.819 . S
H129 C143 0.941 . S
H130 C144 0.939 . S
H131 C146 0.940 . S
H132 C147 0.940 . S
H133 C149 0.939 . S
H134 C150 0.942 . S
H135 C152 0.940 . S
H136 C153 0.939 . S
H137 C155 0.941 . S
H138 C159 0.939 . S
O139 P128 1.490 . S
H140 C156 0.939 . S
H141 C158 0.940 . S
C142 P128 1.812 . S
C142 C143 1.389 . S
C142 C147 1.391 . S
C143 H129 0.941 . S
C143 C142 1.389 . S
C143 C144 1.397 . S
C144 H130 0.939 . S
C144 C143 1.397 . S
C144 C145 1.378 . S
C145 C144 1.378 . S
C145 C146 1.378 . S
C146 H131 0.940 . S
C146 C145 1.378 . S
C146 C147 1.396 . S
C147 H132 0.940 . S
C147 C142 1.391 . S
C147 C146 1.396 . S
C148 P128 1.803 . S
C148 C149 1.378 . S
C148 C153 1.400 . S
C149 H133 0.939 . S
C149 C148 1.378 . S
C149 C150 1.361 . S
C150 H134 0.942 . S
C150 C149 1.361 . S
C150 C151 1.369 . S
C151 C150 1.369 . S
C151 C152 1.404 . S
C152 H135 0.940 . S
C152 C151 1.404 . S
C152 C153 1.389 . S
C153 H136 0.939 . S
C153 C148 1.400 . S
C153 C152 1.389 . S
C154 P128 1.819 . S
C154 C155 1.391 . S
C154 C159 1.391 . S
C155 H137 0.941 . S
C155 C154 1.391 . S
C155 C156 1.396 . S
C156 H140 0.939 . S
C156 C155 1.396 . S
C156 C157 1.397 . S
C157 C156 1.397 . S
C157 C158 1.385 . S
C158 H141 0.940 . S
C158 C157 1.385 . S
C158 C159 1.388 . S
C159 H138 0.939 . S
C159 C154 1.391 . S
C159 C158 1.388 . S
P160 O171 1.490 . S
P160 C174 1.812 . S
P160 C180 1.803 . S
P160 C186 1.819 . S
H161 C175 0.941 . S
H162 C176 0.939 . S
H163 C178 0.940 . S
H164 C179 0.940 . S
H165 C181 0.939 . S
H166 C182 0.942 . S
H167 C184 0.940 . S
H168 C185 0.939 . S
H169 C187 0.941 . S
H170 C191 0.939 . S
O171 P160 1.490 . S
H172 C188 0.939 . S
H173 C190 0.940 . S
C174 P160 1.812 . S
C174 C175 1.389 . S
C174 C179 1.391 . S
C175 H161 0.941 . S
C175 C174 1.389 . S
C175 C176 1.397 . S
C176 H162 0.939 . S
C176 C175 1.397 . S
C176 C177 1.378 . S
C177 C176 1.378 . S
C177 C178 1.378 . S
C178 H163 0.940 . S
C178 C177 1.378 . S
C178 C179 1.396 . S
C179 H164 0.940 . S
C179 C174 1.391 . S
C179 C178 1.396 . S
C180 P160 1.803 . S
C180 C181 1.378 . S
C180 C185 1.400 . S
C181 H165 0.939 . S
C181 C180 1.378 . S
C181 C182 1.361 . S
C182 H166 0.942 . S
C182 C181 1.361 . S
C182 C183 1.369 . S
C183 C182 1.369 . S
C183 C184 1.404 . S
C184 H167 0.940 . S
C184 C183 1.404 . S
C184 C185 1.389 . S
C185 H168 0.939 . S
C185 C180 1.400 . S
C185 C184 1.389 . S
C186 P160 1.819 . S
C186 C187 1.391 . S
C186 C191 1.391 . S
C187 H169 0.941 . S
C187 C186 1.391 . S
C187 C188 1.396 . S
C188 H172 0.939 . S
C188 C187 1.396 . S
C188 C189 1.397 . S
C189 C188 1.397 . S
C189 C190 1.385 . S
C190 H173 0.940 . S
C190 C189 1.385 . S
C190 C191 1.388 . S
C191 H170 0.939 . S
C191 C186 1.391 . S
C191 C190 1.388 . S
P192 O203 1.490 . S
P192 C206 1.812 . S
P192 C212 1.803 . S
P192 C218 1.819 . S
H193 C207 0.941 . S
H194 C208 0.939 . S
H195 C210 0.940 . S
H196 C211 0.940 . S
H197 C213 0.939 . S
H198 C214 0.942 . S
H199 C216 0.940 . S
H200 C217 0.939 . S
H201 C219 0.941 . S
H202 C223 0.939 . S
O203 P192 1.490 . S
H204 C220 0.939 . S
H205 C222 0.940 . S
C206 P192 1.812 . S
C206 C207 1.389 . S
C206 C211 1.391 . S
C207 H193 0.941 . S
C207 C206 1.389 . S
C207 C208 1.397 . S
C208 H194 0.939 . S
C208 C207 1.397 . S
C208 C209 1.378 . S
C209 C208 1.378 . S
C209 C210 1.378 . S
C210 H195 0.940 . S
C210 C209 1.378 . S
C210 C211 1.396 . S
C211 H196 0.940 . S
C211 C206 1.391 . S
C211 C210 1.396 . S
C212 P192 1.803 . S
C212 C213 1.378 . S
C212 C217 1.400 . S
C213 H197 0.939 . S
C213 C212 1.378 . S
C213 C214 1.361 . S
C214 H198 0.942 . S
C214 C213 1.361 . S
C214 C215 1.369 . S
C215 C214 1.369 . S
C215 C216 1.404 . S
C216 H199 0.940 . S
C216 C215 1.404 . S
C216 C217 1.389 . S
C217 H200 0.939 . S
C217 C212 1.400 . S
C217 C216 1.389 . S
C218 P192 1.819 . S
C218 C219 1.391 . S
C218 C223 1.391 . S
C219 H201 0.941 . S
C219 C218 1.391 . S
C219 C220 1.396 . S
C220 H204 0.939 . S
C220 C219 1.396 . S
C220 C221 1.397 . S
C221 C220 1.397 . S
C221 C222 1.385 . S
C222 H205 0.940 . S
C222 C221 1.385 . S
C222 C223 1.388 . S
C223 H202 0.939 . S
C223 C218 1.391 . S
C223 C222 1.388 . S
P224 O235 1.490 . S
P224 C238 1.812 . S
P224 C244 1.803 . S
P224 C250 1.819 . S
H225 C239 0.941 . S
H226 C240 0.939 . S
H227 C242 0.940 . S
H228 C243 0.940 . S
H229 C245 0.939 . S
H230 C246 0.942 . S
H231 C248 0.940 . S
H232 C249 0.939 . S
H233 C251 0.941 . S
H234 C255 0.939 . S
O235 P224 1.490 . S
H236 C252 0.939 . S
H237 C254 0.940 . S
C238 P224 1.812 . S
C238 C239 1.389 . S
C238 C243 1.391 . S
C239 H225 0.941 . S
C239 C238 1.389 . S
C239 C240 1.397 . S
C240 H226 0.939 . S
C240 C239 1.397 . S
C240 C241 1.378 . S
C241 C240 1.378 . S
C241 C242 1.378 . S
C242 H227 0.940 . S
C242 C241 1.378 . S
C242 C243 1.396 . S
C243 H228 0.940 . S
C243 C238 1.391 . S
C243 C242 1.396 . S
C244 P224 1.803 . S
C244 C245 1.378 . S
C244 C249 1.400 . S
C245 H229 0.939 . S
C245 C244 1.378 . S
C245 C246 1.361 . S
C246 H230 0.942 . S
C246 C245 1.361 . S
C246 C247 1.369 . S
C247 C246 1.369 . S
C247 C248 1.404 . S
C248 H231 0.940 . S
C248 C247 1.404 . S
C248 C249 1.389 . S
C249 H232 0.939 . S
C249 C244 1.400 . S
C249 C248 1.389 . S
C250 P224 1.819 . S
C250 C251 1.391 . S
C250 C255 1.391 . S
C251 H233 0.941 . S
C251 C250 1.391 . S
C251 C252 1.396 . S
C252 H236 0.939 . S
C252 C251 1.396 . S
C252 C253 1.397 . S
C253 C252 1.397 . S
C253 C254 1.385 . S
C254 H237 0.940 . S
C254 C253 1.385 . S
C254 C255 1.388 . S
C255 H234 0.939 . S
C255 C250 1.391 . S
C255 C254 1.388 . S
P256 O267 1.490 . S
P256 C270 1.812 . S
P256 C276 1.803 . S
P256 C282 1.819 . S
H257 C271 0.941 . S
H258 C272 0.939 . S
H259 C274 0.940 . S
H260 C275 0.940 . S
H261 C277 0.939 . S
H262 C278 0.942 . S
H263 C280 0.940 . S
H264 C281 0.939 . S
H265 C283 0.941 . S
H266 C287 0.939 . S
O267 P256 1.490 . S
H268 C284 0.939 . S
H269 C286 0.940 . S
C270 P256 1.812 . S
C270 C271 1.389 . S
C270 C275 1.391 . S
C271 H257 0.941 . S
C271 C270 1.389 . S
C271 C272 1.397 . S
C272 H258 0.939 . S
C272 C271 1.397 . S
C272 C273 1.378 . S
C273 C272 1.378 . S
C273 C274 1.378 . S
C274 H259 0.940 . S
C274 C273 1.378 . S
C274 C275 1.396 . S
C275 H260 0.940 . S
C275 C270 1.391 . S
C275 C274 1.396 . S
C276 P256 1.803 . S
C276 C277 1.378 . S
C276 C281 1.400 . S
C277 H261 0.939 . S
C277 C276 1.378 . S
C277 C278 1.361 . S
C278 H262 0.942 . S
C278 C277 1.361 . S
C278 C279 1.369 . S
C279 C278 1.369 . S
C279 C280 1.404 . S
C280 H263 0.940 . S
C280 C279 1.404 . S
C280 C281 1.389 . S
C281 H264 0.939 . S
C281 C276 1.400 . S
C281 C280 1.389 . S
C282 P256 1.819 . S
C282 C283 1.391 . S
C282 C287 1.391 . S
C283 H265 0.941 . S
C283 C282 1.391 . S
C283 C284 1.396 . S
C284 H268 0.939 . S
C284 C283 1.396 . S
C284 C285 1.397 . S
C285 C284 1.397 . S
C285 C286 1.385 . S
C286 H269 0.940 . S
C286 C285 1.385 . S
C286 C287 1.388 . S
C287 H266 0.939 . S
C287 C282 1.391 . S
C287 C286 1.388 . S
P288 O299 1.490 . S
P288 C302 1.812 . S
P288 C308 1.803 . S
P288 C314 1.819 . S
H289 C303 0.941 . S
H290 C304 0.939 . S
H291 C306 0.940 . S
H292 C307 0.940 . S
H293 C309 0.939 . S
H294 C310 0.942 . S
H295 C312 0.940 . S
H296 C313 0.939 . S
H297 C315 0.941 . S
H298 C319 0.939 . S
O299 P288 1.490 . S
H300 C316 0.939 . S
H301 C318 0.940 . S
C302 P288 1.812 . S
C302 C303 1.389 . S
C302 C307 1.391 . S
C303 H289 0.941 . S
C303 C302 1.389 . S
C303 C304 1.397 . S
C304 H290 0.939 . S
C304 C303 1.397 . S
C304 C305 1.378 . S
C305 C304 1.378 . S
C305 C306 1.378 . S
C306 H291 0.940 . S
C306 C305 1.378 . S
C306 C307 1.396 . S
C307 H292 0.940 . S
C307 C302 1.391 . S
C307 C306 1.396 . S
C308 P288 1.803 . S
C308 C309 1.378 . S
C308 C313 1.400 . S
C309 H293 0.939 . S
C309 C308 1.378 . S
C309 C310 1.361 . S
C310 H294 0.942 . S
C310 C309 1.361 . S
C310 C311 1.369 . S
C311 C310 1.369 . S
C311 C312 1.404 . S
C312 H295 0.940 . S
C312 C311 1.404 . S
C312 C313 1.389 . S
C313 H296 0.939 . S
C313 C308 1.400 . S
C313 C312 1.389 . S
C314 P288 1.819 . S
C314 C315 1.391 . S
C314 C319 1.391 . S
C315 H297 0.941 . S
C315 C314 1.391 . S
C315 C316 1.396 . S
C316 H300 0.939 . S
C316 C315 1.396 . S
C316 C317 1.397 . S
C317 C316 1.397 . S
C317 C318 1.385 . S
C318 H301 0.940 . S
C318 C317 1.385 . S
C318 C319 1.388 . S
C319 H298 0.939 . S
C319 C314 1.391 . S
C319 C318 1.388 . S
P320 O331 1.490 . S
P320 C334 1.812 . S
P320 C340 1.803 . S
P320 C346 1.819 . S
H321 C335 0.941 . S
H322 C336 0.939 . S
H323 C338 0.940 . S
H324 C339 0.940 . S
H325 C341 0.939 . S
H326 C342 0.942 . S
H327 C344 0.940 . S
H328 C345 0.939 . S
H329 C347 0.941 . S
H330 C351 0.939 . S
O331 P320 1.490 . S
H332 C348 0.939 . S
H333 C350 0.940 . S
C334 P320 1.812 . S
C334 C335 1.389 . S
C334 C339 1.391 . S
C335 H321 0.941 . S
C335 C334 1.389 . S
C335 C336 1.397 . S
C336 H322 0.939 . S
C336 C335 1.397 . S
C336 C337 1.378 . S
C337 C336 1.378 . S
C337 C338 1.378 . S
C338 H323 0.940 . S
C338 C337 1.378 . S
C338 C339 1.396 . S
C339 H324 0.940 . S
C339 C334 1.391 . S
C339 C338 1.396 . S
C340 P320 1.803 . S
C340 C341 1.378 . S
C340 C345 1.400 . S
C341 H325 0.939 . S
C341 C340 1.378 . S
C341 C342 1.361 . S
C342 H326 0.942 . S
C342 C341 1.361 . S
C342 C343 1.369 . S
C343 C342 1.369 . S
C343 C344 1.404 . S
C344 H327 0.940 . S
C344 C343 1.404 . S
C344 C345 1.389 . S
C345 H328 0.939 . S
C345 C340 1.400 . S
C345 C344 1.389 . S
C346 P320 1.819 . S
C346 C347 1.391 . S
C346 C351 1.391 . S
C347 H329 0.941 . S
C347 C346 1.391 . S
C347 C348 1.396 . S
C348 H332 0.939 . S
C348 C347 1.396 . S
C348 C349 1.397 . S
C349 C348 1.397 . S
C349 C350 1.385 . S
C350 H333 0.940 . S
C350 C349 1.385 . S
C350 C351 1.388 . S
C351 H330 0.939 . S
C351 C346 1.391 . S
C351 C350 1.388 . S
P352 O363 1.490 . S
P352 C366 1.812 . S
P352 C372 1.803 . S
P352 C378 1.819 . S
H353 C367 0.941 . S
H354 C368 0.939 . S
H355 C370 0.940 . S
H356 C371 0.940 . S
H357 C373 0.939 . S
H358 C374 0.942 . S
H359 C376 0.940 . S
H360 C377 0.939 . S
H361 C379 0.941 . S
H362 C383 0.939 . S
O363 P352 1.490 . S
H364 C380 0.939 . S
H365 C382 0.940 . S
C366 P352 1.812 . S
C366 C367 1.389 . S
C366 C371 1.391 . S
C367 H353 0.941 . S
C367 C366 1.389 . S
C367 C368 1.397 . S
C368 H354 0.939 . S
C368 C367 1.397 . S
C368 C369 1.378 . S
C369 C368 1.378 . S
C369 C370 1.378 . S
C370 H355 0.940 . S
C370 C369 1.378 . S
C370 C371 1.396 . S
C371 H356 0.940 . S
C371 C366 1.391 . S
C371 C370 1.396 . S
C372 P352 1.803 . S
C372 C373 1.378 . S
C372 C377 1.400 . S
C373 H357 0.939 . S
C373 C372 1.378 . S
C373 C374 1.361 . S
C374 H358 0.942 . S
C374 C373 1.361 . S
C374 C375 1.369 . S
C375 C374 1.369 . S
C375 C376 1.404 . S
C376 H359 0.940 . S
C376 C375 1.404 . S
C376 C377 1.389 . S
C377 H360 0.939 . S
C377 C372 1.400 . S
C377 C376 1.389 . S
C378 P352 1.819 . S
C378 C379 1.391 . S
C378 C383 1.391 . S
C379 H361 0.941 . S
C379 C378 1.391 . S
C379 C380 1.396 . S
C380 H364 0.939 . S
C380 C379 1.396 . S
C380 C381 1.397 . S
C381 C380 1.397 . S
C381 C382 1.385 . S
C382 H365 0.940 . S
C382 C381 1.385 . S
C382 C383 1.388 . S
C383 H362 0.939 . S
C383 C378 1.391 . S
C383 C382 1.388 . S
P384 O395 1.490 . S
P384 C398 1.812 . S
P384 C404 1.803 . S
P384 C410 1.819 . S
H385 C399 0.941 . S
H386 C400 0.939 . S
H387 C402 0.940 . S
H388 C403 0.940 . S
H389 C405 0.939 . S
H390 C406 0.942 . S
H391 C408 0.940 . S
H392 C409 0.939 . S
H393 C411 0.941 . S
H394 C415 0.939 . S
O395 P384 1.490 . S
H396 C412 0.939 . S
H397 C414 0.940 . S
C398 P384 1.812 . S
C398 C399 1.389 . S
C398 C403 1.391 . S
C399 H385 0.941 . S
C399 C398 1.389 . S
C399 C400 1.397 . S
C400 H386 0.939 . S
C400 C399 1.397 . S
C400 C401 1.378 . S
C401 C400 1.378 . S
C401 C402 1.378 . S
C402 H387 0.940 . S
C402 C401 1.378 . S
C402 C403 1.396 . S
C403 H388 0.940 . S
C403 C398 1.391 . S
C403 C402 1.396 . S
C404 P384 1.803 . S
C404 C405 1.378 . S
C404 C409 1.400 . S
C405 H389 0.939 . S
C405 C404 1.378 . S
C405 C406 1.361 . S
C406 H390 0.942 . S
C406 C405 1.361 . S
C406 C407 1.369 . S
C407 C406 1.369 . S
C407 C408 1.404 . S
C408 H391 0.940 . S
C408 C407 1.404 . S
C408 C409 1.389 . S
C409 H392 0.939 . S
C409 C404 1.400 . S
C409 C408 1.389 . S
C410 P384 1.819 . S
C410 C411 1.391 . S
C410 C415 1.391 . S
C411 H393 0.941 . S
C411 C410 1.391 . S
C411 C412 1.396 . S
C412 H396 0.939 . S
C412 C411 1.396 . S
C412 C413 1.397 . S
C413 C412 1.397 . S
C413 C414 1.385 . S
C414 H397 0.940 . S
C414 C413 1.385 . S
C414 C415 1.388 . S
C415 H394 0.939 . S
C415 C410 1.391 . S
C415 C414 1.388 . S
P416 O427 1.490 . S
P416 C430 1.812 . S
P416 C436 1.803 . S
P416 C442 1.819 . S
H417 C431 0.941 . S
H418 C432 0.939 . S
H419 C434 0.940 . S
H420 C435 0.940 . S
H421 C437 0.939 . S
H422 C438 0.942 . S
H423 C440 0.940 . S
H424 C441 0.939 . S
H425 C443 0.941 . S
H426 C447 0.939 . S
O427 P416 1.490 . S
H428 C444 0.939 . S
H429 C446 0.940 . S
C430 P416 1.812 . S
C430 C431 1.389 . S
C430 C435 1.391 . S
C431 H417 0.941 . S
C431 C430 1.389 . S
C431 C432 1.397 . S
C432 H418 0.939 . S
C432 C431 1.397 . S
C432 C433 1.378 . S
C433 C432 1.378 . S
C433 C434 1.378 . S
C434 H419 0.940 . S
C434 C433 1.378 . S
C434 C435 1.396 . S
C435 H420 0.940 . S
C435 C430 1.391 . S
C435 C434 1.396 . S
C436 P416 1.803 . S
C436 C437 1.378 . S
C436 C441 1.400 . S
C437 H421 0.939 . S
C437 C436 1.378 . S
C437 C438 1.361 . S
C438 H422 0.942 . S
C438 C437 1.361 . S
C438 C439 1.369 . S
C439 C438 1.369 . S
C439 C440 1.404 . S
C440 H423 0.940 . S
C440 C439 1.404 . S
C440 C441 1.389 . S
C441 H424 0.939 . S
C441 C436 1.400 . S
C441 C440 1.389 . S
C442 P416 1.819 . S
C442 C443 1.391 . S
C442 C447 1.391 . S
C443 H425 0.941 . S
C443 C442 1.391 . S
C443 C444 1.396 . S
C444 H428 0.939 . S
C444 C443 1.396 . S
C444 C445 1.397 . S
C445 C444 1.397 . S
C445 C446 1.385 . S
C446 H429 0.940 . S
C446 C445 1.385 . S
C446 C447 1.388 . S
C447 H426 0.939 . S
C447 C442 1.391 . S
C447 C446 1.388 . S
P448 O459 1.490 . S
P448 C462 1.812 . S
P448 C468 1.803 . S
P448 C474 1.819 . S
H449 C463 0.941 . S
H450 C464 0.939 . S
H451 C466 0.940 . S
H452 C467 0.940 . S
H453 C469 0.939 . S
H454 C470 0.942 . S
H455 C472 0.940 . S
H456 C473 0.939 . S
H457 C475 0.941 . S
H458 C479 0.939 . S
O459 P448 1.490 . S
H460 C476 0.939 . S
H461 C478 0.940 . S
C462 P448 1.812 . S
C462 C463 1.389 . S
C462 C467 1.391 . S
C463 H449 0.941 . S
C463 C462 1.389 . S
C463 C464 1.397 . S
C464 H450 0.939 . S
C464 C463 1.397 . S
C464 C465 1.378 . S
C465 C464 1.378 . S
C465 C466 1.378 . S
C466 H451 0.940 . S
C466 C465 1.378 . S
C466 C467 1.396 . S
C467 H452 0.940 . S
C467 C462 1.391 . S
C467 C466 1.396 . S
C468 P448 1.803 . S
C468 C469 1.378 . S
C468 C473 1.400 . S
C469 H453 0.939 . S
C469 C468 1.378 . S
C469 C470 1.361 . S
C470 H454 0.942 . S
C470 C469 1.361 . S
C470 C471 1.369 . S
C471 C470 1.369 . S
C471 C472 1.404 . S
C472 H455 0.940 . S
C472 C471 1.404 . S
C472 C473 1.389 . S
C473 H456 0.939 . S
C473 C468 1.400 . S
C473 C472 1.389 . S
C474 P448 1.819 . S
C474 C475 1.391 . S
C474 C479 1.391 . S
C475 H457 0.941 . S
C475 C474 1.391 . S
C475 C476 1.396 . S
C476 H460 0.939 . S
C476 C475 1.396 . S
C476 C477 1.397 . S
C477 C476 1.397 . S
C477 C478 1.385 . S
C478 H461 0.940 . S
C478 C477 1.385 . S
C478 C479 1.388 . S
C479 H458 0.939 . S
C479 C474 1.391 . S
C479 C478 1.388 . S
P480 O491 1.490 . S
P480 C494 1.812 . S
P480 C500 1.803 . S
P480 C506 1.819 . S
H481 C495 0.941 . S
H482 C496 0.939 . S
H483 C498 0.940 . S
H484 C499 0.940 . S
H485 C501 0.939 . S
H486 C502 0.942 . S
H487 C504 0.940 . S
H488 C505 0.939 . S
H489 C507 0.941 . S
H490 C511 0.939 . S
O491 P480 1.490 . S
H492 C508 0.939 . S
H493 C510 0.940 . S
C494 P480 1.812 . S
C494 C495 1.389 . S
C494 C499 1.391 . S
C495 H481 0.941 . S
C495 C494 1.389 . S
C495 C496 1.397 . S
C496 H482 0.939 . S
C496 C495 1.397 . S
C496 C497 1.378 . S
C497 C496 1.378 . S
C497 C498 1.378 . S
C498 H483 0.940 . S
C498 C497 1.378 . S
C498 C499 1.396 . S
C499 H484 0.940 . S
C499 C494 1.391 . S
C499 C498 1.396 . S
C500 P480 1.803 . S
C500 C501 1.378 . S
C500 C505 1.400 . S
C501 H485 0.939 . S
C501 C500 1.378 . S
C501 C502 1.361 . S
C502 H486 0.942 . S
C502 C501 1.361 . S
C502 C503 1.369 . S
C503 C502 1.369 . S
C503 C504 1.404 . S
C504 H487 0.940 . S
C504 C503 1.404 . S
C504 C505 1.389 . S
C505 H488 0.939 . S
C505 C500 1.400 . S
C505 C504 1.389 . S
C506 P480 1.819 . S
C506 C507 1.391 . S
C506 C511 1.391 . S
C507 H489 0.941 . S
C507 C506 1.391 . S
C507 C508 1.396 . S
C508 H492 0.939 . S
C508 C507 1.396 . S
C508 C509 1.397 . S
C509 C508 1.397 . S
C509 C510 1.385 . S
C510 H493 0.940 . S
C510 C509 1.385 . S
C510 C511 1.388 . S
C511 H490 0.939 . S
C511 C506 1.391 . S
C511 C510 1.388 . S
P512 O523 1.490 . S
P512 C526 1.812 . S
P512 C532 1.803 . S
P512 C538 1.819 . S
H513 C527 0.941 . S
H514 C528 0.939 . S
H515 C530 0.940 . S
H516 C531 0.940 . S
H517 C533 0.939 . S
H518 C534 0.942 . S
H519 C536 0.940 . S
H520 C537 0.939 . S
H521 C539 0.941 . S
H522 C543 0.939 . S
O523 P512 1.490 . S
H524 C540 0.939 . S
H525 C542 0.940 . S
C526 P512 1.812 . S
C526 C527 1.389 . S
C526 C531 1.391 . S
C527 H513 0.941 . S
C527 C526 1.389 . S
C527 C528 1.397 . S
C528 H514 0.939 . S
C528 C527 1.397 . S
C528 C529 1.378 . S
C529 C528 1.378 . S
C529 C530 1.378 . S
C530 H515 0.940 . S
C530 C529 1.378 . S
C530 C531 1.396 . S
C531 H516 0.940 . S
C531 C526 1.391 . S
C531 C530 1.396 . S
C532 P512 1.803 . S
C532 C533 1.378 . S
C532 C537 1.400 . S
C533 H517 0.939 . S
C533 C532 1.378 . S
C533 C534 1.361 . S
C534 H518 0.942 . S
C534 C533 1.361 . S
C534 C535 1.369 . S
C535 C534 1.369 . S
C535 C536 1.404 . S
C536 H519 0.940 . S
C536 C535 1.404 . S
C536 C537 1.389 . S
C537 H520 0.939 . S
C537 C532 1.400 . S
C537 C536 1.389 . S
C538 P512 1.819 . S
C538 C539 1.391 . S
C538 C543 1.391 . S
C539 H521 0.941 . S
C539 C538 1.391 . S
C539 C540 1.396 . S
C540 H524 0.939 . S
C540 C539 1.396 . S
C540 C541 1.397 . S
C541 C540 1.397 . S
C541 C542 1.385 . S
C542 H525 0.940 . S
C542 C541 1.385 . S
C542 C543 1.388 . S
C543 H522 0.939 . S
C543 C538 1.391 . S
C543 C542 1.388 . S
P544 O555 1.490 . S
P544 C558 1.812 . S
P544 C564 1.803 . S
P544 C570 1.819 . S
H545 C559 0.941 . S
H546 C560 0.939 . S
H547 C562 0.940 . S
H548 C563 0.940 . S
H549 C565 0.939 . S
H550 C566 0.942 . S
H551 C568 0.940 . S
H552 C569 0.939 . S
H553 C571 0.941 . S
H554 C575 0.939 . S
O555 P544 1.490 . S
H556 C572 0.939 . S
H557 C574 0.940 . S
C558 P544 1.812 . S
C558 C559 1.389 . S
C558 C563 1.391 . S
C559 H545 0.941 . S
C559 C558 1.389 . S
C559 C560 1.397 . S
C560 H546 0.939 . S
C560 C559 1.397 . S
C560 C561 1.378 . S
C561 C560 1.378 . S
C561 C562 1.378 . S
C562 H547 0.940 . S
C562 C561 1.378 . S
C562 C563 1.396 . S
C563 H548 0.940 . S
C563 C558 1.391 . S
C563 C562 1.396 . S
C564 P544 1.803 . S
C564 C565 1.378 . S
C564 C569 1.400 . S
C565 H549 0.939 . S
C565 C564 1.378 . S
C565 C566 1.361 . S
C566 H550 0.942 . S
C566 C565 1.361 . S
C566 C567 1.369 . S
C567 C566 1.369 . S
C567 C568 1.404 . S
C568 H551 0.940 . S
C568 C567 1.404 . S
C568 C569 1.389 . S
C569 H552 0.939 . S
C569 C564 1.400 . S
C569 C568 1.389 . S
C570 P544 1.819 . S
C570 C571 1.391 . S
C570 C575 1.391 . S
C571 H553 0.941 . S
C571 C570 1.391 . S
C571 C572 1.396 . S
C572 H556 0.939 . S
C572 C571 1.396 . S
C572 C573 1.397 . S
C573 C572 1.397 . S
C573 C574 1.385 . S
C574 H557 0.940 . S
C574 C573 1.385 . S
C574 C575 1.388 . S
C575 H554 0.939 . S
C575 C570 1.391 . S
C575 C574 1.388 . S
Gd576 N607 2.661 . S
Gd576 N613 2.601 . S
Gd576 O620 2.545 . S
Gd576 O621 2.606 1_545 S
Gd576 O623 2.429 . S
Gd576 O624 2.545 1_545 S
Gd576 O625 2.412 . S
Gd576 O627 2.362 1_554 S
Gd576 O628 2.324 1_545 S
Gd576 C635 2.828 . S
Gd577 N586 2.661 . S
Gd577 N590 2.601 . S
Gd577 O621 2.362 1_556 S
Gd577 O622 2.324 1_565 S
Gd577 O626 2.545 . S
Gd577 O627 2.606 1_565 S
Gd577 O629 2.429 . S
Gd577 O630 2.545 1_565 S
Gd577 O631 2.412 . S
Gd577 C644 2.828 . S
C578 C581 1.417 . S
C578 C583 1.431 . S
C578 C584 1.412 . S
C579 C582 1.437 . S
C579 C583 1.317 . S
C579 H598 0.929 . S
C580 C581 1.426 . S
C580 C582 1.413 . S
C580 N590 1.359 . S
C581 C578 1.417 . S
C581 C580 1.426 . S
C581 N586 1.350 . S
C582 C579 1.437 . S
C582 C580 1.413 . S
C582 C592 1.391 . S
C583 C578 1.431 . S
C583 C579 1.317 . S
C583 H594 0.930 . S
C584 C578 1.412 . S
C584 C585 1.355 . S
C584 H596 0.930 . S
C585 C584 1.355 . S
C585 C587 1.402 . S
C585 H597 0.930 . S
N586 Gd577 2.661 . S
N586 C581 1.350 . S
N586 C587 1.307 . S
C587 C585 1.402 . S
C587 N586 1.307 . S
C587 H588 0.930 . S
H588 C587 0.930 . S
C589 N590 1.334 . S
C589 C591 1.394 . S
C589 H593 0.930 . S
N590 Gd577 2.601 . S
N590 C580 1.359 . S
N590 C589 1.334 . S
C591 C589 1.394 . S
C591 C592 1.359 . S
C591 H603 0.930 . S
C592 C582 1.391 . S
C592 C591 1.359 . S
C592 H604 0.929 . S
H593 C589 0.930 . S
H594 C583 0.930 . S
H595 C612 0.930 . S
H596 C584 0.930 . S
H597 C585 0.930 . S
H598 C579 0.929 . S
H599 C617 0.930 . S
H600 C608 0.930 . S
H601 C609 0.930 . S
H602 C633 0.929 . S
H603 C591 0.930 . S
H604 C592 0.929 . S
H605 C634 0.930 . S
H606 C615 0.930 . S
N607 Gd576 2.661 . S
N607 C611 1.350 . S
N607 C612 1.307 . S
C608 H600 0.930 . S
C608 C609 1.355 . S
C608 C610 1.412 . S
C609 H601 0.930 . S
C609 C608 1.355 . S
C609 C612 1.402 . S
C610 C608 1.412 . S
C610 C611 1.417 . S
C610 C634 1.431 . S
C611 N607 1.350 . S
C611 C610 1.417 . S
C611 C614 1.426 . S
C612 H595 0.930 . S
C612 N607 1.307 . S
C612 C609 1.402 . S
N613 Gd576 2.601 . S
N613 C614 1.359 . S
N613 C617 1.334 . S
C614 C611 1.426 . S
C614 N613 1.359 . S
C614 C618 1.413 . S
C615 H606 0.930 . S
C615 C616 1.359 . S
C615 C617 1.394 . S
C616 C615 1.359 . S
C616 C618 1.391 . S
C616 H619 0.929 . S
C617 H599 0.930 . S
C617 N613 1.334 . S
C617 C615 1.394 . S
C618 C614 1.413 . S
C618 C616 1.391 . S
C618 C633 1.437 . S
H619 C616 0.929 . S
O620 Gd576 2.545 . S
O620 C635 1.258 . S
O621 Gd576 2.606 1_565 S
O621 Gd577 2.362 1_554 S
O621 C632 1.284 . S
O622 Gd577 2.324 1_545 S
O622 C642 1.254 . S
O623 Gd576 2.429 . S
O623 C642 1.268 1_554 S
O624 Gd576 2.545 1_565 S
O624 C632 1.250 . S
O625 Gd576 2.412 . S
O625 C635 1.252 . S
O626 Gd577 2.545 . S
O626 C644 1.258 . S
O627 Gd576 2.362 1_556 S
O627 Gd577 2.606 1_545 S
O627 C643 1.284 . S
O628 Gd576 2.324 1_565 S
O628 C651 1.254 . S
O629 Gd577 2.429 . S
O629 C651 1.268 1_556 S
O630 Gd577 2.545 1_545 S
O630 C643 1.250 . S
O631 Gd577 2.412 . S
O631 C644 1.252 . S
C632 O621 1.284 . S
C632 O624 1.250 . S
C633 H602 0.929 . S
C633 C618 1.437 . S
C633 C634 1.317 . S
C634 H605 0.930 . S
C634 C610 1.431 . S
C634 C633 1.317 . S
C635 Gd576 2.828 . S
C635 O620 1.258 . S
C635 O625 1.252 . S
C635 C636 1.497 . S
C636 C635 1.497 . S
C636 C637 1.395 . S
C636 C638 1.380 1_545 S
C637 C636 1.395 . S
C637 C640 1.398 . S
C637 H652 0.930 . S
C638 C636 1.380 1_565 S
C638 C639 1.391 . S
C638 H653 0.930 . S
C639 C638 1.391 . S
C639 C641 1.387 1_565 S
C640 C637 1.398 . S
C640 C641 1.380 . S
C640 H654 0.930 . S
C641 C639 1.387 1_545 S
C641 C640 1.380 . S
C641 H655 0.930 . S
C642 O622 1.254 . S
C642 O623 1.268 1_556 S
C643 O627 1.284 . S
C643 O630 1.250 . S
C644 Gd577 2.828 . S
C644 O626 1.258 . S
C644 O631 1.252 . S
C644 C645 1.497 . S
C645 C644 1.497 . S
C645 C646 1.395 . S
C645 C647 1.380 1_565 S
C646 C645 1.395 . S
C646 C649 1.398 . S
C646 H656 0.930 . S
C647 C645 1.380 1_545 S
C647 C648 1.391 . S
C647 H657 0.930 . S
C648 C647 1.391 . S
C648 C650 1.387 1_545 S
C649 C646 1.398 . S
C649 C650 1.380 . S
C649 H658 0.930 . S
C650 C648 1.387 1_565 S
C650 C649 1.380 . S
C650 H659 0.930 . S
C651 O628 1.254 . S
C651 O629 1.268 1_554 S
H652 C637 0.930 . S
H653 C638 0.930 . S
H654 C640 0.930 . S
H655 C641 0.930 . S
H656 C646 0.930 . S
H657 C647 0.930 . S
H658 C649 0.930 . S
H659 C650 0.930 . S
Gd660 N691 2.661 . S
Gd660 N697 2.601 . S
Gd660 O704 2.545 . S
Gd660 O705 2.606 1_655 S
Gd660 O707 2.429 . S
Gd660 O708 2.545 1_655 S
Gd660 O709 2.412 . S
Gd660 O711 2.362 1_554 S
Gd660 O712 2.324 1_655 S
Gd660 C719 2.828 . S
Gd661 N670 2.661 . S
Gd661 N674 2.601 . S
Gd661 O705 2.362 1_556 S
Gd661 O706 2.324 1_455 S
Gd661 O710 2.545 . S
Gd661 O711 2.606 1_455 S
Gd661 O713 2.429 . S
Gd661 O714 2.545 1_455 S
Gd661 O715 2.412 . S
Gd661 C728 2.828 . S
C662 C665 1.417 . S
C662 C667 1.431 . S
C662 C668 1.412 . S
C663 C666 1.437 . S
C663 C667 1.317 . S
C663 H682 0.929 . S
C664 C665 1.426 . S
C664 C666 1.413 . S
C664 N674 1.359 . S
C665 C662 1.417 . S
C665 C664 1.426 . S
C665 N670 1.350 . S
C666 C663 1.437 . S
C666 C664 1.413 . S
C666 C676 1.391 . S
C667 C662 1.431 . S
C667 C663 1.317 . S
C667 H678 0.930 . S
C668 C662 1.412 . S
C668 C669 1.355 . S
C668 H680 0.930 . S
C669 C668 1.355 . S
C669 C671 1.402 . S
C669 H681 0.930 . S
N670 Gd661 2.661 . S
N670 C665 1.350 . S
N670 C671 1.307 . S
C671 C669 1.402 . S
C671 N670 1.307 . S
C671 H672 0.930 . S
H672 C671 0.930 . S
C673 N674 1.334 . S
C673 C675 1.394 . S
C673 H677 0.930 . S
N674 Gd661 2.601 . S
N674 C664 1.359 . S
N674 C673 1.334 . S
C675 C673 1.394 . S
C675 C676 1.359 . S
C675 H687 0.930 . S
C676 C666 1.391 . S
C676 C675 1.359 . S
C676 H688 0.929 . S
H677 C673 0.930 . S
H678 C667 0.930 . S
H679 C696 0.930 . S
H680 C668 0.930 . S
H681 C669 0.930 . S
H682 C663 0.929 . S
H683 C701 0.930 . S
H684 C692 0.930 . S
H685 C693 0.930 . S
H686 C717 0.929 . S
H687 C675 0.930 . S
H688 C676 0.929 . S
H689 C718 0.930 . S
H690 C699 0.930 . S
N691 Gd660 2.661 . S
N691 C695 1.350 . S
N691 C696 1.307 . S
C692 H684 0.930 . S
C692 C693 1.355 . S
C692 C694 1.412 . S
C693 H685 0.930 . S
C693 C692 1.355 . S
C693 C696 1.402 . S
C694 C692 1.412 . S
C694 C695 1.417 . S
C694 C718 1.431 . S
C695 N691 1.350 . S
C695 C694 1.417 . S
C695 C698 1.426 . S
C696 H679 0.930 . S
C696 N691 1.307 . S
C696 C693 1.402 . S
N697 Gd660 2.601 . S
N697 C698 1.359 . S
N697 C701 1.334 . S
C698 C695 1.426 . S
C698 N697 1.359 . S
C698 C702 1.413 . S
C699 H690 0.930 . S
C699 C700 1.359 . S
C699 C701 1.394 . S
C700 C699 1.359 . S
C700 C702 1.391 . S
C700 H703 0.929 . S
C701 H683 0.930 . S
C701 N697 1.334 . S
C701 C699 1.394 . S
C702 C698 1.413 . S
C702 C700 1.391 . S
C702 C717 1.437 . S
H703 C700 0.929 . S
O704 Gd660 2.545 . S
O704 C719 1.258 . S
O705 Gd660 2.606 1_455 S
O705 Gd661 2.362 1_554 S
O705 C716 1.284 . S
O706 Gd661 2.324 1_655 S
O706 C726 1.254 . S
O707 Gd660 2.429 . S
O707 C726 1.268 1_554 S
O708 Gd660 2.545 1_455 S
O708 C716 1.250 . S
O709 Gd660 2.412 . S
O709 C719 1.252 . S
O710 Gd661 2.545 . S
O710 C728 1.258 . S
O711 Gd660 2.362 1_556 S
O711 Gd661 2.606 1_655 S
O711 C727 1.284 . S
O712 Gd660 2.324 1_455 S
O712 C735 1.254 . S
O713 Gd661 2.429 . S
O713 C735 1.268 1_556 S
O714 Gd661 2.545 1_655 S
O714 C727 1.250 . S
O715 Gd661 2.412 . S
O715 C728 1.252 . S
C716 O705 1.284 . S
C716 O708 1.250 . S
C717 H686 0.929 . S
C717 C702 1.437 . S
C717 C718 1.317 . S
C718 H689 0.930 . S
C718 C694 1.431 . S
C718 C717 1.317 . S
C719 Gd660 2.828 . S
C719 O704 1.258 . S
C719 O709 1.252 . S
C719 C720 1.497 . S
C720 C719 1.497 . S
C720 C721 1.395 . S
C720 C722 1.380 1_655 S
C721 C720 1.395 . S
C721 C724 1.398 . S
C721 H736 0.930 . S
C722 C720 1.380 1_455 S
C722 C723 1.391 . S
C722 H737 0.930 . S
C723 C722 1.391 . S
C723 C725 1.387 1_455 S
C724 C721 1.398 . S
C724 C725 1.380 . S
C724 H738 0.930 . S
C725 C723 1.387 1_655 S
C725 C724 1.380 . S
C725 H739 0.930 . S
C726 O706 1.254 . S
C726 O707 1.268 1_556 S
C727 O711 1.284 . S
C727 O714 1.250 . S
C728 Gd661 2.828 . S
C728 O710 1.258 . S
C728 O715 1.252 . S
C728 C729 1.497 . S
C729 C728 1.497 . S
C729 C730 1.395 . S
C729 C731 1.380 1_455 S
C730 C729 1.395 . S
C730 C733 1.398 . S
C730 H740 0.930 . S
C731 C729 1.380 1_655 S
C731 C732 1.391 . S
C731 H741 0.930 . S
C732 C731 1.391 . S
C732 C734 1.387 1_655 S
C733 C730 1.398 . S
C733 C734 1.380 . S
C733 H742 0.930 . S
C734 C732 1.387 1_455 S
C734 C733 1.380 . S
C734 H743 0.930 . S
C735 O712 1.254 . S
C735 O713 1.268 1_554 S
H736 C721 0.930 . S
H737 C722 0.930 . S
H738 C724 0.930 . S
H739 C725 0.930 . S
H740 C730 0.930 . S
H741 C731 0.930 . S
H742 C733 0.930 . S
H743 C734 0.930 . S
Gd744 N775 2.661 . S
Gd744 N781 2.601 . S
Gd744 O788 2.545 . S
Gd744 O789 2.606 . S
Gd744 O791 2.429 . S
Gd744 O792 2.545 . S
Gd744 O793 2.412 . S
Gd744 O795 2.362 1_556 S
Gd744 O796 2.324 . S
Gd744 C803 2.828 . S
Gd745 N754 2.661 . S
Gd745 N758 2.601 . S
Gd745 O789 2.362 1_554 S
Gd745 O790 2.324 . S
Gd745 O794 2.545 . S
Gd745 O795 2.606 . S
Gd745 O797 2.429 . S
Gd745 O798 2.545 . S
Gd745 O799 2.412 . S
Gd745 C812 2.828 . S
C746 C749 1.417 . S
C746 C751 1.431 . S
C746 C752 1.412 . S
C747 C750 1.437 . S
C747 C751 1.317 . S
C747 H766 0.929 . S
C748 C749 1.426 . S
C748 C750 1.413 . S
C748 N758 1.359 . S
C749 C746 1.417 . S
C749 C748 1.426 . S
C749 N754 1.350 . S
C750 C747 1.437 . S
C750 C748 1.413 . S
C750 C760 1.391 . S
C751 C746 1.431 . S
C751 C747 1.317 . S
C751 H762 0.930 . S
C752 C746 1.412 . S
C752 C753 1.355 . S
C752 H764 0.930 . S
C753 C752 1.355 . S
C753 C755 1.402 . S
C753 H765 0.930 . S
N754 Gd745 2.661 . S
N754 C749 1.350 . S
N754 C755 1.307 . S
C755 C753 1.402 . S
C755 N754 1.307 . S
C755 H756 0.930 . S
H756 C755 0.930 . S
C757 N758 1.334 . S
C757 C759 1.394 . S
C757 H761 0.930 . S
N758 Gd745 2.601 . S
N758 C748 1.359 . S
N758 C757 1.334 . S
C759 C757 1.394 . S
C759 C760 1.359 . S
C759 H771 0.930 . S
C760 C750 1.391 . S
C760 C759 1.359 . S
C760 H772 0.929 . S
H761 C757 0.930 . S
H762 C751 0.930 . S
H763 C780 0.930 . S
H764 C752 0.930 . S
H765 C753 0.930 . S
H766 C747 0.929 . S
H767 C785 0.930 . S
H768 C776 0.930 . S
H769 C777 0.930 . S
H770 C801 0.929 . S
H771 C759 0.930 . S
H772 C760 0.929 . S
H773 C802 0.930 . S
H774 C783 0.930 . S
N775 Gd744 2.661 . S
N775 C779 1.350 . S
N775 C780 1.307 . S
C776 H768 0.930 . S
C776 C777 1.355 . S
C776 C778 1.412 . S
C777 H769 0.930 . S
C777 C776 1.355 . S
C777 C780 1.402 . S
C778 C776 1.412 . S
C778 C779 1.417 . S
C778 C802 1.431 . S
C779 N775 1.350 . S
C779 C778 1.417 . S
C779 C782 1.426 . S
C780 H763 0.930 . S
C780 N775 1.307 . S
C780 C777 1.402 . S
N781 Gd744 2.601 . S
N781 C782 1.359 . S
N781 C785 1.334 . S
C782 C779 1.426 . S
C782 N781 1.359 . S
C782 C786 1.413 . S
C783 H774 0.930 . S
C783 C784 1.359 . S
C783 C785 1.394 . S
C784 C783 1.359 . S
C784 C786 1.391 . S
C784 H787 0.929 . S
C785 H767 0.930 . S
C785 N781 1.334 . S
C785 C783 1.394 . S
C786 C782 1.413 . S
C786 C784 1.391 . S
C786 C801 1.437 . S
H787 C784 0.929 . S
O788 Gd744 2.545 . S
O788 C803 1.258 . S
O789 Gd744 2.606 . S
O789 Gd745 2.362 1_556 S
O789 C800 1.284 . S
O790 Gd745 2.324 . S
O790 C810 1.254 . S
O791 Gd744 2.429 . S
O791 C810 1.268 1_556 S
O792 Gd744 2.545 . S
O792 C800 1.250 . S
O793 Gd744 2.412 . S
O793 C803 1.252 . S
O794 Gd745 2.545 . S
O794 C812 1.258 . S
O795 Gd744 2.362 1_554 S
O795 Gd745 2.606 . S
O795 C811 1.284 . S
O796 Gd744 2.324 . S
O796 C819 1.254 . S
O797 Gd745 2.429 . S
O797 C819 1.268 1_554 S
O798 Gd745 2.545 . S
O798 C811 1.250 . S
O799 Gd745 2.412 . S
O799 C812 1.252 . S
C800 O789 1.284 . S
C800 O792 1.250 . S
C801 H770 0.929 . S
C801 C786 1.437 . S
C801 C802 1.317 . S
C802 H773 0.930 . S
C802 C778 1.431 . S
C802 C801 1.317 . S
C803 Gd744 2.828 . S
C803 O788 1.258 . S
C803 O793 1.252 . S
C803 C804 1.497 . S
C804 C803 1.497 . S
C804 C805 1.395 . S
C804 C806 1.380 . S
C805 C804 1.395 . S
C805 C808 1.398 . S
C805 H820 0.930 . S
C806 C804 1.380 . S
C806 C807 1.391 . S
C806 H821 0.930 . S
C807 C806 1.391 . S
C807 C809 1.387 . S
C808 C805 1.398 . S
C808 C809 1.380 . S
C808 H822 0.930 . S
C809 C807 1.387 . S
C809 C808 1.380 . S
C809 H823 0.930 . S
C810 O790 1.254 . S
C810 O791 1.268 1_554 S
C811 O795 1.284 . S
C811 O798 1.250 . S
C812 Gd745 2.828 . S
C812 O794 1.258 . S
C812 O799 1.252 . S
C812 C813 1.497 . S
C813 C812 1.497 . S
C813 C814 1.395 . S
C813 C815 1.380 . S
C814 C813 1.395 . S
C814 C817 1.398 . S
C814 H824 0.930 . S
C815 C813 1.380 . S
C815 C816 1.391 . S
C815 H825 0.930 . S
C816 C815 1.391 . S
C816 C818 1.387 . S
C817 C814 1.398 . S
C817 C818 1.380 . S
C817 H826 0.930 . S
C818 C816 1.387 . S
C818 C817 1.380 . S
C818 H827 0.930 . S
C819 O796 1.254 . S
C819 O797 1.268 1_556 S
H820 C805 0.930 . S
H821 C806 0.930 . S
H822 C808 0.930 . S
H823 C809 0.930 . S
H824 C814 0.930 . S
H825 C815 0.930 . S
H826 C817 0.930 . S
H827 C818 0.930 . S
Gd828 N859 2.661 . S
Gd828 N865 2.601 . S
Gd828 O872 2.545 . S
Gd828 O873 2.606 . S
Gd828 O875 2.429 . S
Gd828 O876 2.545 . S
Gd828 O877 2.412 . S
Gd828 O879 2.362 . S
Gd828 O880 2.324 . S
Gd828 C887 2.828 . S
Gd829 N838 2.661 . S
Gd829 N842 2.601 . S
Gd829 O873 2.362 . S
Gd829 O874 2.324 . S
Gd829 O878 2.545 . S
Gd829 O879 2.606 . S
Gd829 O881 2.429 . S
Gd829 O882 2.545 . S
Gd829 O883 2.412 . S
Gd829 C896 2.828 . S
C830 C833 1.417 . S
C830 C835 1.431 . S
C830 C836 1.412 . S
C831 C834 1.437 . S
C831 C835 1.317 . S
C831 H850 0.929 . S
C832 C833 1.426 . S
C832 C834 1.413 . S
C832 N842 1.359 . S
C833 C830 1.417 . S
C833 C832 1.426 . S
C833 N838 1.350 . S
C834 C831 1.437 . S
C834 C832 1.413 . S
C834 C844 1.391 . S
C835 C830 1.431 . S
C835 C831 1.317 . S
C835 H846 0.930 . S
C836 C830 1.412 . S
C836 C837 1.355 . S
C836 H848 0.930 . S
C837 C836 1.355 . S
C837 C839 1.402 . S
C837 H849 0.930 . S
N838 Gd829 2.661 . S
N838 C833 1.350 . S
N838 C839 1.307 . S
C839 C837 1.402 . S
C839 N838 1.307 . S
C839 H840 0.930 . S
H840 C839 0.930 . S
C841 N842 1.334 . S
C841 C843 1.394 . S
C841 H845 0.930 . S
N842 Gd829 2.601 . S
N842 C832 1.359 . S
N842 C841 1.334 . S
C843 C841 1.394 . S
C843 C844 1.359 . S
C843 H855 0.930 . S
C844 C834 1.391 . S
C844 C843 1.359 . S
C844 H856 0.929 . S
H845 C841 0.930 . S
H846 C835 0.930 . S
H847 C864 0.930 . S
H848 C836 0.930 . S
H849 C837 0.930 . S
H850 C831 0.929 . S
H851 C869 0.930 . S
H852 C860 0.930 . S
H853 C861 0.930 . S
H854 C885 0.929 . S
H855 C843 0.930 . S
H856 C844 0.929 . S
H857 C886 0.930 . S
H858 C867 0.930 . S
N859 Gd828 2.661 . S
N859 C863 1.350 . S
N859 C864 1.307 . S
C860 H852 0.930 . S
C860 C861 1.355 . S
C860 C862 1.412 . S
C861 H853 0.930 . S
C861 C860 1.355 . S
C861 C864 1.402 . S
C862 C860 1.412 . S
C862 C863 1.417 . S
C862 C886 1.431 . S
C863 N859 1.350 . S
C863 C862 1.417 . S
C863 C866 1.426 . S
C864 H847 0.930 . S
C864 N859 1.307 . S
C864 C861 1.402 . S
N865 Gd828 2.601 . S
N865 C866 1.359 . S
N865 C869 1.334 . S
C866 C863 1.426 . S
C866 N865 1.359 . S
C866 C870 1.413 . S
C867 H858 0.930 . S
C867 C868 1.359 . S
C867 C869 1.394 . S
C868 C867 1.359 . S
C868 C870 1.391 . S
C868 H871 0.929 . S
C869 H851 0.930 . S
C869 N865 1.334 . S
C869 C867 1.394 . S
C870 C866 1.413 . S
C870 C868 1.391 . S
C870 C885 1.437 . S
H871 C868 0.929 . S
O872 Gd828 2.545 . S
O872 C887 1.258 . S
O873 Gd828 2.606 . S
O873 Gd829 2.362 . S
O873 C884 1.284 . S
O874 Gd829 2.324 . S
O874 C894 1.254 . S
O875 Gd828 2.429 . S
O875 C894 1.268 . S
O876 Gd828 2.545 . S
O876 C884 1.250 . S
O877 Gd828 2.412 . S
O877 C887 1.252 . S
O878 Gd829 2.545 . S
O878 C896 1.258 . S
O879 Gd828 2.362 . S
O879 Gd829 2.606 . S
O879 C895 1.284 . S
O880 Gd828 2.324 . S
O880 C903 1.254 . S
O881 Gd829 2.429 . S
O881 C903 1.268 . S
O882 Gd829 2.545 . S
O882 C895 1.250 . S
O883 Gd829 2.412 . S
O883 C896 1.252 . S
C884 O873 1.284 . S
C884 O876 1.250 . S
C885 H854 0.929 . S
C885 C870 1.437 . S
C885 C886 1.317 . S
C886 H857 0.930 . S
C886 C862 1.431 . S
C886 C885 1.317 . S
C887 Gd828 2.828 . S
C887 O872 1.258 . S
C887 O877 1.252 . S
C887 C888 1.497 . S
C888 C887 1.497 . S
C888 C889 1.395 . S
C888 C890 1.380 . S
C889 C888 1.395 . S
C889 C892 1.398 . S
C889 H904 0.930 . S
C890 C888 1.380 . S
C890 C891 1.391 . S
C890 H905 0.930 . S
C891 C890 1.391 . S
C891 C893 1.387 . S
C892 C889 1.398 . S
C892 C893 1.380 . S
C892 H906 0.930 . S
C893 C891 1.387 . S
C893 C892 1.380 . S
C893 H907 0.930 . S
C894 O874 1.254 . S
C894 O875 1.268 . S
C895 O879 1.284 . S
C895 O882 1.250 . S
C896 Gd829 2.828 . S
C896 O878 1.258 . S
C896 O883 1.252 . S
C896 C897 1.497 . S
C897 C896 1.497 . S
C897 C898 1.395 . S
C897 C899 1.380 . S
C898 C897 1.395 . S
C898 C901 1.398 . S
C898 H908 0.930 . S
C899 C897 1.380 . S
C899 C900 1.391 . S
C899 H909 0.930 . S
C900 C899 1.391 . S
C900 C902 1.387 . S
C901 C898 1.398 . S
C901 C902 1.380 . S
C901 H910 0.930 . S
C902 C900 1.387 . S
C902 C901 1.380 . S
C902 H911 0.930 . S
C903 O880 1.254 . S
C903 O881 1.268 . S
H904 C889 0.930 . S
H905 C890 0.930 . S
H906 C892 0.930 . S
H907 C893 0.930 . S
H908 C898 0.930 . S
H909 C899 0.930 . S
H910 C901 0.930 . S
H911 C902 0.930 . S
Gd912 N943 2.661 . S
Gd912 N949 2.601 . S
Gd912 O956 2.545 . S
Gd912 O957 2.606 . S
Gd912 O959 2.429 . S
Gd912 O960 2.545 . S
Gd912 O961 2.412 . S
Gd912 O963 2.362 . S
Gd912 O964 2.324 . S
Gd912 C971 2.828 . S
Gd913 N922 2.661 . S
Gd913 N926 2.601 . S
Gd913 O957 2.362 . S
Gd913 O958 2.324 . S
Gd913 O962 2.545 . S
Gd913 O963 2.606 . S
Gd913 O965 2.429 . S
Gd913 O966 2.545 . S
Gd913 O967 2.412 . S
Gd913 C980 2.828 . S
C914 C917 1.417 . S
C914 C919 1.431 . S
C914 C920 1.412 . S
C915 C918 1.437 . S
C915 C919 1.317 . S
C915 H934 0.929 . S
C916 C917 1.426 . S
C916 C918 1.413 . S
C916 N926 1.359 . S
C917 C914 1.417 . S
C917 C916 1.426 . S
C917 N922 1.350 . S
C918 C915 1.437 . S
C918 C916 1.413 . S
C918 C928 1.391 . S
C919 C914 1.431 . S
C919 C915 1.317 . S
C919 H930 0.930 . S
C920 C914 1.412 . S
C920 C921 1.355 . S
C920 H932 0.930 . S
C921 C920 1.355 . S
C921 C923 1.402 . S
C921 H933 0.930 . S
N922 Gd913 2.661 . S
N922 C917 1.350 . S
N922 C923 1.307 . S
C923 C921 1.402 . S
C923 N922 1.307 . S
C923 H924 0.930 . S
H924 C923 0.930 . S
C925 N926 1.334 . S
C925 C927 1.394 . S
C925 H929 0.930 . S
N926 Gd913 2.601 . S
N926 C916 1.359 . S
N926 C925 1.334 . S
C927 C925 1.394 . S
C927 C928 1.359 . S
C927 H939 0.930 . S
C928 C918 1.391 . S
C928 C927 1.359 . S
C928 H940 0.929 . S
H929 C925 0.930 . S
H930 C919 0.930 . S
H931 C948 0.930 . S
H932 C920 0.930 . S
H933 C921 0.930 . S
H934 C915 0.929 . S
H935 C953 0.930 . S
H936 C944 0.930 . S
H937 C945 0.930 . S
H938 C969 0.929 . S
H939 C927 0.930 . S
H940 C928 0.929 . S
H941 C970 0.930 . S
H942 C951 0.930 . S
N943 Gd912 2.661 . S
N943 C947 1.350 . S
N943 C948 1.307 . S
C944 H936 0.930 . S
C944 C945 1.355 . S
C944 C946 1.412 . S
C945 H937 0.930 . S
C945 C944 1.355 . S
C945 C948 1.402 . S
C946 C944 1.412 . S
C946 C947 1.417 . S
C946 C970 1.431 . S
C947 N943 1.350 . S
C947 C946 1.417 . S
C947 C950 1.426 . S
C948 H931 0.930 . S
C948 N943 1.307 . S
C948 C945 1.402 . S
N949 Gd912 2.601 . S
N949 C950 1.359 . S
N949 C953 1.334 . S
C950 C947 1.426 . S
C950 N949 1.359 . S
C950 C954 1.413 . S
C951 H942 0.930 . S
C951 C952 1.359 . S
C951 C953 1.394 . S
C952 C951 1.359 . S
C952 C954 1.391 . S
C952 H955 0.929 . S
C953 H935 0.930 . S
C953 N949 1.334 . S
C953 C951 1.394 . S
C954 C950 1.413 . S
C954 C952 1.391 . S
C954 C969 1.437 . S
H955 C952 0.929 . S
O956 Gd912 2.545 . S
O956 C971 1.258 . S
O957 Gd912 2.606 . S
O957 Gd913 2.362 . S
O957 C968 1.284 . S
O958 Gd913 2.324 . S
O958 C978 1.254 . S
O959 Gd912 2.429 . S
O959 C978 1.268 . S
O960 Gd912 2.545 . S
O960 C968 1.250 . S
O961 Gd912 2.412 . S
O961 C971 1.252 . S
O962 Gd913 2.545 . S
O962 C980 1.258 . S
O963 Gd912 2.362 . S
O963 Gd913 2.606 . S
O963 C979 1.284 . S
O964 Gd912 2.324 . S
O964 C987 1.254 . S
O965 Gd913 2.429 . S
O965 C987 1.268 . S
O966 Gd913 2.545 . S
O966 C979 1.250 . S
O967 Gd913 2.412 . S
O967 C980 1.252 . S
C968 O957 1.284 . S
C968 O960 1.250 . S
C969 H938 0.929 . S
C969 C954 1.437 . S
C969 C970 1.317 . S
C970 H941 0.930 . S
C970 C946 1.431 . S
C970 C969 1.317 . S
C971 Gd912 2.828 . S
C971 O956 1.258 . S
C971 O961 1.252 . S
C971 C972 1.497 . S
C972 C971 1.497 . S
C972 C973 1.395 . S
C972 C974 1.380 . S
C973 C972 1.395 . S
C973 C976 1.398 . S
C973 H988 0.930 . S
C974 C972 1.380 . S
C974 C975 1.391 . S
C974 H989 0.930 . S
C975 C974 1.391 . S
C975 C977 1.387 . S
C976 C973 1.398 . S
C976 C977 1.380 . S
C976 H990 0.930 . S
C977 C975 1.387 . S
C977 C976 1.380 . S
C977 H991 0.930 . S
C978 O958 1.254 . S
C978 O959 1.268 . S
C979 O963 1.284 . S
C979 O966 1.250 . S
C980 Gd913 2.828 . S
C980 O962 1.258 . S
C980 O967 1.252 . S
C980 C981 1.497 . S
C981 C980 1.497 . S
C981 C982 1.395 . S
C981 C983 1.380 . S
C982 C981 1.395 . S
C982 C985 1.398 . S
C982 H992 0.930 . S
C983 C981 1.380 . S
C983 C984 1.391 . S
C983 H993 0.930 . S
C984 C983 1.391 . S
C984 C986 1.387 . S
C985 C982 1.398 . S
C985 C986 1.380 . S
C985 H994 0.930 . S
C986 C984 1.387 . S
C986 C985 1.380 . S
C986 H995 0.930 . S
C987 O964 1.254 . S
C987 O965 1.268 . S
H988 C973 0.930 . S
H989 C974 0.930 . S
H990 C976 0.930 . S
H991 C977 0.930 . S
H992 C982 0.930 . S
H993 C983 0.930 . S
H994 C985 0.930 . S
H995 C986 0.930 . S
Gd996 N1027 2.661 . S
Gd996 N1033 2.601 . S
Gd996 O1040 2.545 . S
Gd996 O1041 2.606 . S
Gd996 O1043 2.429 . S
Gd996 O1044 2.545 . S
Gd996 O1045 2.412 . S
Gd996 O1047 2.362 . S
Gd996 O1048 2.324 . S
Gd996 C1055 2.828 . S
Gd997 N1006 2.661 . S
Gd997 N1010 2.601 . S
Gd997 O1041 2.362 . S
Gd997 O1042 2.324 . S
Gd997 O1046 2.545 . S
Gd997 O1047 2.606 . S
Gd997 O1049 2.429 . S
Gd997 O1050 2.545 . S
Gd997 O1051 2.412 . S
Gd997 C1064 2.828 . S
C998 C1001 1.417 . S
C998 C1003 1.431 . S
C998 C1004 1.412 . S
C999 C1002 1.437 . S
C999 C1003 1.317 . S
C999 H1018 0.929 . S
C1000 C1001 1.426 . S
C1000 C1002 1.413 . S
C1000 N1010 1.359 . S
C1001 C998 1.417 . S
C1001 C1000 1.426 . S
C1001 N1006 1.350 . S
C1002 C999 1.437 . S
C1002 C1000 1.413 . S
C1002 C1012 1.391 . S
C1003 C998 1.431 . S
C1003 C999 1.317 . S
C1003 H1014 0.930 . S
C1004 C998 1.412 . S
C1004 C1005 1.355 . S
C1004 H1016 0.930 . S
C1005 C1004 1.355 . S
C1005 C1007 1.402 . S
C1005 H1017 0.930 . S
N1006 Gd997 2.661 . S
N1006 C1001 1.350 . S
N1006 C1007 1.307 . S
C1007 C1005 1.402 . S
C1007 N1006 1.307 . S
C1007 H1008 0.930 . S
H1008 C1007 0.930 . S
C1009 N1010 1.334 . S
C1009 C1011 1.394 . S
C1009 H1013 0.930 . S
N1010 Gd997 2.601 . S
N1010 C1000 1.359 . S
N1010 C1009 1.334 . S
C1011 C1009 1.394 . S
C1011 C1012 1.359 . S
C1011 H1023 0.930 . S
C1012 C1002 1.391 . S
C1012 C1011 1.359 . S
C1012 H1024 0.929 . S
H1013 C1009 0.930 . S
H1014 C1003 0.930 . S
H1015 C1032 0.930 . S
H1016 C1004 0.930 . S
H1017 C1005 0.930 . S
H1018 C999 0.929 . S
H1019 C1037 0.930 . S
H1020 C1028 0.930 . S
H1021 C1029 0.930 . S
H1022 C1053 0.929 . S
H1023 C1011 0.930 . S
H1024 C1012 0.929 . S
H1025 C1054 0.930 . S
H1026 C1035 0.930 . S
N1027 Gd996 2.661 . S
N1027 C1031 1.350 . S
N1027 C1032 1.307 . S
C1028 H1020 0.930 . S
C1028 C1029 1.355 . S
C1028 C1030 1.412 . S
C1029 H1021 0.930 . S
C1029 C1028 1.355 . S
C1029 C1032 1.402 . S
C1030 C1028 1.412 . S
C1030 C1031 1.417 . S
C1030 C1054 1.431 . S
C1031 N1027 1.350 . S
C1031 C1030 1.417 . S
C1031 C1034 1.426 . S
C1032 H1015 0.930 . S
C1032 N1027 1.307 . S
C1032 C1029 1.402 . S
N1033 Gd996 2.601 . S
N1033 C1034 1.359 . S
N1033 C1037 1.334 . S
C1034 C1031 1.426 . S
C1034 N1033 1.359 . S
C1034 C1038 1.413 . S
C1035 H1026 0.930 . S
C1035 C1036 1.359 . S
C1035 C1037 1.394 . S
C1036 C1035 1.359 . S
C1036 C1038 1.391 . S
C1036 H1039 0.929 . S
C1037 H1019 0.930 . S
C1037 N1033 1.334 . S
C1037 C1035 1.394 . S
C1038 C1034 1.413 . S
C1038 C1036 1.391 . S
C1038 C1053 1.437 . S
H1039 C1036 0.929 . S
O1040 Gd996 2.545 . S
O1040 C1055 1.258 . S
O1041 Gd996 2.606 . S
O1041 Gd997 2.362 . S
O1041 C1052 1.284 . S
O1042 Gd997 2.324 . S
O1042 C1062 1.254 . S
O1043 Gd996 2.429 . S
O1043 C1062 1.268 . S
O1044 Gd996 2.545 . S
O1044 C1052 1.250 . S
O1045 Gd996 2.412 . S
O1045 C1055 1.252 . S
O1046 Gd997 2.545 . S
O1046 C1064 1.258 . S
O1047 Gd996 2.362 . S
O1047 Gd997 2.606 . S
O1047 C1063 1.284 . S
O1048 Gd996 2.324 . S
O1048 C1071 1.254 . S
O1049 Gd997 2.429 . S
O1049 C1071 1.268 . S
O1050 Gd997 2.545 . S
O1050 C1063 1.250 . S
O1051 Gd997 2.412 . S
O1051 C1064 1.252 . S
C1052 O1041 1.284 . S
C1052 O1044 1.250 . S
C1053 H1022 0.929 . S
C1053 C1038 1.437 . S
C1053 C1054 1.317 . S
C1054 H1025 0.930 . S
C1054 C1030 1.431 . S
C1054 C1053 1.317 . S
C1055 Gd996 2.828 . S
C1055 O1040 1.258 . S
C1055 O1045 1.252 . S
C1055 C1056 1.497 . S
C1056 C1055 1.497 . S
C1056 C1057 1.395 . S
C1056 C1058 1.380 . S
C1057 C1056 1.395 . S
C1057 C1060 1.398 . S
C1057 H1072 0.930 . S
C1058 C1056 1.380 . S
C1058 C1059 1.391 . S
C1058 H1073 0.930 . S
C1059 C1058 1.391 . S
C1059 C1061 1.387 . S
C1060 C1057 1.398 . S
C1060 C1061 1.380 . S
C1060 H1074 0.930 . S
C1061 C1059 1.387 . S
C1061 C1060 1.380 . S
C1061 H1075 0.930 . S
C1062 O1042 1.254 . S
C1062 O1043 1.268 . S
C1063 O1047 1.284 . S
C1063 O1050 1.250 . S
C1064 Gd997 2.828 . S
C1064 O1046 1.258 . S
C1064 O1051 1.252 . S
C1064 C1065 1.497 . S
C1065 C1064 1.497 . S
C1065 C1066 1.395 . S
C1065 C1067 1.380 . S
C1066 C1065 1.395 . S
C1066 C1069 1.398 . S
C1066 H1076 0.930 . S
C1067 C1065 1.380 . S
C1067 C1068 1.391 . S
C1067 H1077 0.930 . S
C1068 C1067 1.391 . S
C1068 C1070 1.387 . S
C1069 C1066 1.398 . S
C1069 C1070 1.380 . S
C1069 H1078 0.930 . S
C1070 C1068 1.387 . S
C1070 C1069 1.380 . S
C1070 H1079 0.930 . S
C1071 O1048 1.254 . S
C1071 O1049 1.268 . S
H1072 C1057 0.930 . S
H1073 C1058 0.930 . S
H1074 C1060 0.930 . S
H1075 C1061 0.930 . S
H1076 C1066 0.930 . S
H1077 C1067 0.930 . S
H1078 C1069 0.930 . S
H1079 C1070 0.930 . S
Gd1080 N1111 2.661 . S
Gd1080 N1117 2.601 . S
Gd1080 O1124 2.545 . S
Gd1080 O1125 2.606 . S
Gd1080 O1127 2.429 . S
Gd1080 O1128 2.545 . S
Gd1080 O1129 2.412 . S
Gd1080 O1131 2.362 . S
Gd1080 O1132 2.324 . S
Gd1080 C1139 2.828 . S
Gd1081 N1090 2.661 . S
Gd1081 N1094 2.601 . S
Gd1081 O1125 2.362 . S
Gd1081 O1126 2.324 . S
Gd1081 O1130 2.545 . S
Gd1081 O1131 2.606 . S
Gd1081 O1133 2.429 . S
Gd1081 O1134 2.545 . S
Gd1081 O1135 2.412 . S
Gd1081 C1148 2.828 . S
C1082 C1085 1.417 . S
C1082 C1087 1.431 . S
C1082 C1088 1.412 . S
C1083 C1086 1.437 . S
C1083 C1087 1.317 . S
C1083 H1102 0.929 . S
C1084 C1085 1.426 . S
C1084 C1086 1.413 . S
C1084 N1094 1.359 . S
C1085 C1082 1.417 . S
C1085 C1084 1.426 . S
C1085 N1090 1.350 . S
C1086 C1083 1.437 . S
C1086 C1084 1.413 . S
C1086 C1096 1.391 . S
C1087 C1082 1.431 . S
C1087 C1083 1.317 . S
C1087 H1098 0.930 . S
C1088 C1082 1.412 . S
C1088 C1089 1.355 . S
C1088 H1100 0.930 . S
C1089 C1088 1.355 . S
C1089 C1091 1.402 . S
C1089 H1101 0.930 . S
N1090 Gd1081 2.661 . S
N1090 C1085 1.350 . S
N1090 C1091 1.307 . S
C1091 C1089 1.402 . S
C1091 N1090 1.307 . S
C1091 H1092 0.930 . S
H1092 C1091 0.930 . S
C1093 N1094 1.334 . S
C1093 C1095 1.394 . S
C1093 H1097 0.930 . S
N1094 Gd1081 2.601 . S
N1094 C1084 1.359 . S
N1094 C1093 1.334 . S
C1095 C1093 1.394 . S
C1095 C1096 1.359 . S
C1095 H1107 0.930 . S
C1096 C1086 1.391 . S
C1096 C1095 1.359 . S
C1096 H1108 0.929 . S
H1097 C1093 0.930 . S
H1098 C1087 0.930 . S
H1099 C1116 0.930 . S
H1100 C1088 0.930 . S
H1101 C1089 0.930 . S
H1102 C1083 0.929 . S
H1103 C1121 0.930 . S
H1104 C1112 0.930 . S
H1105 C1113 0.930 . S
H1106 C1137 0.929 . S
H1107 C1095 0.930 . S
H1108 C1096 0.929 . S
H1109 C1138 0.930 . S
H1110 C1119 0.930 . S
N1111 Gd1080 2.661 . S
N1111 C1115 1.350 . S
N1111 C1116 1.307 . S
C1112 H1104 0.930 . S
C1112 C1113 1.355 . S
C1112 C1114 1.412 . S
C1113 H1105 0.930 . S
C1113 C1112 1.355 . S
C1113 C1116 1.402 . S
C1114 C1112 1.412 . S
C1114 C1115 1.417 . S
C1114 C1138 1.431 . S
C1115 N1111 1.350 . S
C1115 C1114 1.417 . S
C1115 C1118 1.426 . S
C1116 H1099 0.930 . S
C1116 N1111 1.307 . S
C1116 C1113 1.402 . S
N1117 Gd1080 2.601 . S
N1117 C1118 1.359 . S
N1117 C1121 1.334 . S
C1118 C1115 1.426 . S
C1118 N1117 1.359 . S
C1118 C1122 1.413 . S
C1119 H1110 0.930 . S
C1119 C1120 1.359 . S
C1119 C1121 1.394 . S
C1120 C1119 1.359 . S
C1120 C1122 1.391 . S
C1120 H1123 0.929 . S
C1121 H1103 0.930 . S
C1121 N1117 1.334 . S
C1121 C1119 1.394 . S
C1122 C1118 1.413 . S
C1122 C1120 1.391 . S
C1122 C1137 1.437 . S
H1123 C1120 0.929 . S
O1124 Gd1080 2.545 . S
O1124 C1139 1.258 . S
O1125 Gd1080 2.606 . S
O1125 Gd1081 2.362 . S
O1125 C1136 1.284 . S
O1126 Gd1081 2.324 . S
O1126 C1146 1.254 . S
O1127 Gd1080 2.429 . S
O1127 C1146 1.268 . S
O1128 Gd1080 2.545 . S
O1128 C1136 1.250 . S
O1129 Gd1080 2.412 . S
O1129 C1139 1.252 . S
O1130 Gd1081 2.545 . S
O1130 C1148 1.258 . S
O1131 Gd1080 2.362 . S
O1131 Gd1081 2.606 . S
O1131 C1147 1.284 . S
O1132 Gd1080 2.324 . S
O1132 C1155 1.254 . S
O1133 Gd1081 2.429 . S
O1133 C1155 1.268 . S
O1134 Gd1081 2.545 . S
O1134 C1147 1.250 . S
O1135 Gd1081 2.412 . S
O1135 C1148 1.252 . S
C1136 O1125 1.284 . S
C1136 O1128 1.250 . S
C1137 H1106 0.929 . S
C1137 C1122 1.437 . S
C1137 C1138 1.317 . S
C1138 H1109 0.930 . S
C1138 C1114 1.431 . S
C1138 C1137 1.317 . S
C1139 Gd1080 2.828 . S
C1139 O1124 1.258 . S
C1139 O1129 1.252 . S
C1139 C1140 1.497 . S
C1140 C1139 1.497 . S
C1140 C1141 1.395 . S
C1140 C1142 1.380 . S
C1141 C1140 1.395 . S
C1141 C1144 1.398 . S
C1141 H1156 0.930 . S
C1142 C1140 1.380 . S
C1142 C1143 1.391 . S
C1142 H1157 0.930 . S
C1143 C1142 1.391 . S
C1143 C1145 1.387 . S
C1144 C1141 1.398 . S
C1144 C1145 1.380 . S
C1144 H1158 0.930 . S
C1145 C1143 1.387 . S
C1145 C1144 1.380 . S
C1145 H1159 0.930 . S
C1146 O1126 1.254 . S
C1146 O1127 1.268 . S
C1147 O1131 1.284 . S
C1147 O1134 1.250 . S
C1148 Gd1081 2.828 . S
C1148 O1130 1.258 . S
C1148 O1135 1.252 . S
C1148 C1149 1.497 . S
C1149 C1148 1.497 . S
C1149 C1150 1.395 . S
C1149 C1151 1.380 . S
C1150 C1149 1.395 . S
C1150 C1153 1.398 . S
C1150 H1160 0.930 . S
C1151 C1149 1.380 . S
C1151 C1152 1.391 . S
C1151 H1161 0.930 . S
C1152 C1151 1.391 . S
C1152 C1154 1.387 . S
C1153 C1150 1.398 . S
C1153 C1154 1.380 . S
C1153 H1162 0.930 . S
C1154 C1152 1.387 . S
C1154 C1153 1.380 . S
C1154 H1163 0.930 . S
C1155 O1132 1.254 . S
C1155 O1133 1.268 . S
H1156 C1141 0.930 . S
H1157 C1142 0.930 . S
H1158 C1144 0.930 . S
H1159 C1145 0.930 . S
H1160 C1150 0.930 . S
H1161 C1151 0.930 . S
H1162 C1153 0.930 . S
H1163 C1154 0.930 . S
Gd1164 N1195 2.661 . S
Gd1164 N1201 2.601 . S
Gd1164 O1208 2.545 . S
Gd1164 O1209 2.606 . S
Gd1164 O1211 2.429 . S
Gd1164 O1212 2.545 . S
Gd1164 O1213 2.412 . S
Gd1164 O1215 2.362 . S
Gd1164 O1216 2.324 . S
Gd1164 C1223 2.828 . S
Gd1165 N1174 2.661 . S
Gd1165 N1178 2.601 . S
Gd1165 O1209 2.362 . S
Gd1165 O1210 2.324 . S
Gd1165 O1214 2.545 . S
Gd1165 O1215 2.606 . S
Gd1165 O1217 2.429 . S
Gd1165 O1218 2.545 . S
Gd1165 O1219 2.412 . S
Gd1165 C1232 2.828 . S
C1166 C1169 1.417 . S
C1166 C1171 1.431 . S
C1166 C1172 1.412 . S
C1167 C1170 1.437 . S
C1167 C1171 1.317 . S
C1167 H1186 0.929 . S
C1168 C1169 1.426 . S
C1168 C1170 1.413 . S
C1168 N1178 1.359 . S
C1169 C1166 1.417 . S
C1169 C1168 1.426 . S
C1169 N1174 1.350 . S
C1170 C1167 1.437 . S
C1170 C1168 1.413 . S
C1170 C1180 1.391 . S
C1171 C1166 1.431 . S
C1171 C1167 1.317 . S
C1171 H1182 0.930 . S
C1172 C1166 1.412 . S
C1172 C1173 1.355 . S
C1172 H1184 0.930 . S
C1173 C1172 1.355 . S
C1173 C1175 1.402 . S
C1173 H1185 0.930 . S
N1174 Gd1165 2.661 . S
N1174 C1169 1.350 . S
N1174 C1175 1.307 . S
C1175 C1173 1.402 . S
C1175 N1174 1.307 . S
C1175 H1176 0.930 . S
H1176 C1175 0.930 . S
C1177 N1178 1.334 . S
C1177 C1179 1.394 . S
C1177 H1181 0.930 . S
N1178 Gd1165 2.601 . S
N1178 C1168 1.359 . S
N1178 C1177 1.334 . S
C1179 C1177 1.394 . S
C1179 C1180 1.359 . S
C1179 H1191 0.930 . S
C1180 C1170 1.391 . S
C1180 C1179 1.359 . S
C1180 H1192 0.929 . S
H1181 C1177 0.930 . S
H1182 C1171 0.930 . S
H1183 C1200 0.930 . S
H1184 C1172 0.930 . S
H1185 C1173 0.930 . S
H1186 C1167 0.929 . S
H1187 C1205 0.930 . S
H1188 C1196 0.930 . S
H1189 C1197 0.930 . S
H1190 C1221 0.929 . S
H1191 C1179 0.930 . S
H1192 C1180 0.929 . S
H1193 C1222 0.930 . S
H1194 C1203 0.930 . S
N1195 Gd1164 2.661 . S
N1195 C1199 1.350 . S
N1195 C1200 1.307 . S
C1196 H1188 0.930 . S
C1196 C1197 1.355 . S
C1196 C1198 1.412 . S
C1197 H1189 0.930 . S
C1197 C1196 1.355 . S
C1197 C1200 1.402 . S
C1198 C1196 1.412 . S
C1198 C1199 1.417 . S
C1198 C1222 1.431 . S
C1199 N1195 1.350 . S
C1199 C1198 1.417 . S
C1199 C1202 1.426 . S
C1200 H1183 0.930 . S
C1200 N1195 1.307 . S
C1200 C1197 1.402 . S
N1201 Gd1164 2.601 . S
N1201 C1202 1.359 . S
N1201 C1205 1.334 . S
C1202 C1199 1.426 . S
C1202 N1201 1.359 . S
C1202 C1206 1.413 . S
C1203 H1194 0.930 . S
C1203 C1204 1.359 . S
C1203 C1205 1.394 . S
C1204 C1203 1.359 . S
C1204 C1206 1.391 . S
C1204 H1207 0.929 . S
C1205 H1187 0.930 . S
C1205 N1201 1.334 . S
C1205 C1203 1.394 . S
C1206 C1202 1.413 . S
C1206 C1204 1.391 . S
C1206 C1221 1.437 . S
H1207 C1204 0.929 . S
O1208 Gd1164 2.545 . S
O1208 C1223 1.258 . S
O1209 Gd1164 2.606 . S
O1209 Gd1165 2.362 . S
O1209 C1220 1.284 . S
O1210 Gd1165 2.324 . S
O1210 C1230 1.254 . S
O1211 Gd1164 2.429 . S
O1211 C1230 1.268 . S
O1212 Gd1164 2.545 . S
O1212 C1220 1.250 . S
O1213 Gd1164 2.412 . S
O1213 C1223 1.252 . S
O1214 Gd1165 2.545 . S
O1214 C1232 1.258 . S
O1215 Gd1164 2.362 . S
O1215 Gd1165 2.606 . S
O1215 C1231 1.284 . S
O1216 Gd1164 2.324 . S
O1216 C1239 1.254 . S
O1217 Gd1165 2.429 . S
O1217 C1239 1.268 . S
O1218 Gd1165 2.545 . S
O1218 C1231 1.250 . S
O1219 Gd1165 2.412 . S
O1219 C1232 1.252 . S
C1220 O1209 1.284 . S
C1220 O1212 1.250 . S
C1221 H1190 0.929 . S
C1221 C1206 1.437 . S
C1221 C1222 1.317 . S
C1222 H1193 0.930 . S
C1222 C1198 1.431 . S
C1222 C1221 1.317 . S
C1223 Gd1164 2.828 . S
C1223 O1208 1.258 . S
C1223 O1213 1.252 . S
C1223 C1224 1.497 . S
C1224 C1223 1.497 . S
C1224 C1225 1.395 . S
C1224 C1226 1.380 . S
C1225 C1224 1.395 . S
C1225 C1228 1.398 . S
C1225 H1240 0.930 . S
C1226 C1224 1.380 . S
C1226 C1227 1.391 . S
C1226 H1241 0.930 . S
C1227 C1226 1.391 . S
C1227 C1229 1.387 . S
C1228 C1225 1.398 . S
C1228 C1229 1.380 . S
C1228 H1242 0.930 . S
C1229 C1227 1.387 . S
C1229 C1228 1.380 . S
C1229 H1243 0.930 . S
C1230 O1210 1.254 . S
C1230 O1211 1.268 . S
C1231 O1215 1.284 . S
C1231 O1218 1.250 . S
C1232 Gd1165 2.828 . S
C1232 O1214 1.258 . S
C1232 O1219 1.252 . S
C1232 C1233 1.497 . S
C1233 C1232 1.497 . S
C1233 C1234 1.395 . S
C1233 C1235 1.380 . S
C1234 C1233 1.395 . S
C1234 C1237 1.398 . S
C1234 H1244 0.930 . S
C1235 C1233 1.380 . S
C1235 C1236 1.391 . S
C1235 H1245 0.930 . S
C1236 C1235 1.391 . S
C1236 C1238 1.387 . S
C1237 C1234 1.398 . S
C1237 C1238 1.380 . S
C1237 H1246 0.930 . S
C1238 C1236 1.387 . S
C1238 C1237 1.380 . S
C1238 H1247 0.930 . S
C1239 O1216 1.254 . S
C1239 O1217 1.268 . S
H1240 C1225 0.930 . S
H1241 C1226 0.930 . S
H1242 C1228 0.930 . S
H1243 C1229 0.930 . S
H1244 C1234 0.930 . S
H1245 C1235 0.930 . S
H1246 C1237 0.930 . S
H1247 C1238 0.930 . S
Gd1248 N1279 2.661 . S
Gd1248 N1285 2.601 . S
Gd1248 O1292 2.545 . S
Gd1248 O1293 2.606 . S
Gd1248 O1295 2.429 . S
Gd1248 O1296 2.545 . S
Gd1248 O1297 2.412 . S
Gd1248 O1299 2.362 . S
Gd1248 O1300 2.324 . S
Gd1248 C1307 2.828 . S
Gd1249 N1258 2.661 . S
Gd1249 N1262 2.601 . S
Gd1249 O1293 2.362 . S
Gd1249 O1294 2.324 . S
Gd1249 O1298 2.545 . S
Gd1249 O1299 2.606 . S
Gd1249 O1301 2.429 . S
Gd1249 O1302 2.545 . S
Gd1249 O1303 2.412 . S
Gd1249 C1316 2.828 . S
C1250 C1253 1.417 . S
C1250 C1255 1.431 . S
C1250 C1256 1.412 . S
C1251 C1254 1.437 . S
C1251 C1255 1.317 . S
C1251 H1270 0.929 . S
C1252 C1253 1.426 . S
C1252 C1254 1.413 . S
C1252 N1262 1.359 . S
C1253 C1250 1.417 . S
C1253 C1252 1.426 . S
C1253 N1258 1.350 . S
C1254 C1251 1.437 . S
C1254 C1252 1.413 . S
C1254 C1264 1.391 . S
C1255 C1250 1.431 . S
C1255 C1251 1.317 . S
C1255 H1266 0.930 . S
C1256 C1250 1.412 . S
C1256 C1257 1.355 . S
C1256 H1268 0.930 . S
C1257 C1256 1.355 . S
C1257 C1259 1.402 . S
C1257 H1269 0.930 . S
N1258 Gd1249 2.661 . S
N1258 C1253 1.350 . S
N1258 C1259 1.307 . S
C1259 C1257 1.402 . S
C1259 N1258 1.307 . S
C1259 H1260 0.930 . S
H1260 C1259 0.930 . S
C1261 N1262 1.334 . S
C1261 C1263 1.394 . S
C1261 H1265 0.930 . S
N1262 Gd1249 2.601 . S
N1262 C1252 1.359 . S
N1262 C1261 1.334 . S
C1263 C1261 1.394 . S
C1263 C1264 1.359 . S
C1263 H1275 0.930 . S
C1264 C1254 1.391 . S
C1264 C1263 1.359 . S
C1264 H1276 0.929 . S
H1265 C1261 0.930 . S
H1266 C1255 0.930 . S
H1267 C1284 0.930 . S
H1268 C1256 0.930 . S
H1269 C1257 0.930 . S
H1270 C1251 0.929 . S
H1271 C1289 0.930 . S
H1272 C1280 0.930 . S
H1273 C1281 0.930 . S
H1274 C1305 0.929 . S
H1275 C1263 0.930 . S
H1276 C1264 0.929 . S
H1277 C1306 0.930 . S
H1278 C1287 0.930 . S
N1279 Gd1248 2.661 . S
N1279 C1283 1.350 . S
N1279 C1284 1.307 . S
C1280 H1272 0.930 . S
C1280 C1281 1.355 . S
C1280 C1282 1.412 . S
C1281 H1273 0.930 . S
C1281 C1280 1.355 . S
C1281 C1284 1.402 . S
C1282 C1280 1.412 . S
C1282 C1283 1.417 . S
C1282 C1306 1.431 . S
C1283 N1279 1.350 . S
C1283 C1282 1.417 . S
C1283 C1286 1.426 . S
C1284 H1267 0.930 . S
C1284 N1279 1.307 . S
C1284 C1281 1.402 . S
N1285 Gd1248 2.601 . S
N1285 C1286 1.359 . S
N1285 C1289 1.334 . S
C1286 C1283 1.426 . S
C1286 N1285 1.359 . S
C1286 C1290 1.413 . S
C1287 H1278 0.930 . S
C1287 C1288 1.359 . S
C1287 C1289 1.394 . S
C1288 C1287 1.359 . S
C1288 C1290 1.391 . S
C1288 H1291 0.929 . S
C1289 H1271 0.930 . S
C1289 N1285 1.334 . S
C1289 C1287 1.394 . S
C1290 C1286 1.413 . S
C1290 C1288 1.391 . S
C1290 C1305 1.437 . S
H1291 C1288 0.929 . S
O1292 Gd1248 2.545 . S
O1292 C1307 1.258 . S
O1293 Gd1248 2.606 . S
O1293 Gd1249 2.362 . S
O1293 C1304 1.284 . S
O1294 Gd1249 2.324 . S
O1294 C1314 1.254 . S
O1295 Gd1248 2.429 . S
O1295 C1314 1.268 . S
O1296 Gd1248 2.545 . S
O1296 C1304 1.250 . S
O1297 Gd1248 2.412 . S
O1297 C1307 1.252 . S
O1298 Gd1249 2.545 . S
O1298 C1316 1.258 . S
O1299 Gd1248 2.362 . S
O1299 Gd1249 2.606 . S
O1299 C1315 1.284 . S
O1300 Gd1248 2.324 . S
O1300 C1323 1.254 . S
O1301 Gd1249 2.429 . S
O1301 C1323 1.268 . S
O1302 Gd1249 2.545 . S
O1302 C1315 1.250 . S
O1303 Gd1249 2.412 . S
O1303 C1316 1.252 . S
C1304 O1293 1.284 . S
C1304 O1296 1.250 . S
C1305 H1274 0.929 . S
C1305 C1290 1.437 . S
C1305 C1306 1.317 . S
C1306 H1277 0.930 . S
C1306 C1282 1.431 . S
C1306 C1305 1.317 . S
C1307 Gd1248 2.828 . S
C1307 O1292 1.258 . S
C1307 O1297 1.252 . S
C1307 C1308 1.497 . S
C1308 C1307 1.497 . S
C1308 C1309 1.395 . S
C1308 C1310 1.380 . S
C1309 C1308 1.395 . S
C1309 C1312 1.398 . S
C1309 H1324 0.930 . S
C1310 C1308 1.380 . S
C1310 C1311 1.391 . S
C1310 H1325 0.930 . S
C1311 C1310 1.391 . S
C1311 C1313 1.387 . S
C1312 C1309 1.398 . S
C1312 C1313 1.380 . S
C1312 H1326 0.930 . S
C1313 C1311 1.387 . S
C1313 C1312 1.380 . S
C1313 H1327 0.930 . S
C1314 O1294 1.254 . S
C1314 O1295 1.268 . S
C1315 O1299 1.284 . S
C1315 O1302 1.250 . S
C1316 Gd1249 2.828 . S
C1316 O1298 1.258 . S
C1316 O1303 1.252 . S
C1316 C1317 1.497 . S
C1317 C1316 1.497 . S
C1317 C1318 1.395 . S
C1317 C1319 1.380 . S
C1318 C1317 1.395 . S
C1318 C1321 1.398 . S
C1318 H1328 0.930 . S
C1319 C1317 1.380 . S
C1319 C1320 1.391 . S
C1319 H1329 0.930 . S
C1320 C1319 1.391 . S
C1320 C1322 1.387 . S
C1321 C1318 1.398 . S
C1321 C1322 1.380 . S
C1321 H1330 0.930 . S
C1322 C1320 1.387 . S
C1322 C1321 1.380 . S
C1322 H1331 0.930 . S
C1323 O1300 1.254 . S
C1323 O1301 1.268 . S
H1324 C1309 0.930 . S
H1325 C1310 0.930 . S
H1326 C1312 0.930 . S
H1327 C1313 0.930 . S
H1328 C1318 0.930 . S
H1329 C1319 0.930 . S
H1330 C1321 0.930 . S
H1331 C1322 0.930 . S
H1332 C1338 0.930 . S
H1333 C1342 0.930 . S
H1334 C1347 0.929 . S
H1335 C1345 0.929 . S
H1336 C1340 0.929 . S
H1337 C1346 0.929 . S
C1338 H1332 0.930 . S
C1338 C1339 1.367 . S
C1338 C1346 1.378 . S
C1339 C1338 1.367 . S
C1339 C1347 1.433 . S
C1340 H1336 0.929 . S
C1340 C1342 1.378 . S
C1340 C1344 1.350 . S
C1341 C1344 1.463 . S
C1341 C1346 1.350 . S
C1341 N1349 1.427 . S
C1342 H1333 0.930 . S
C1342 C1340 1.378 . S
C1342 C1343 1.367 . S
C1343 C1342 1.367 . S
C1343 C1345 1.433 . S
C1344 C1340 1.350 . S
C1344 C1341 1.463 . S
C1344 N1348 1.427 . S
C1345 H1335 0.929 . S
C1345 C1343 1.433 . S
C1345 N1348 1.384 . S
C1346 H1337 0.929 . S
C1346 C1338 1.378 . S
C1346 C1341 1.350 . S
C1347 H1334 0.929 . S
C1347 C1339 1.433 . S
C1347 N1349 1.384 . S
N1348 C1344 1.427 . S
N1348 C1345 1.384 . S
N1349 C1341 1.427 . S
N1349 C1347 1.384 . S
H1350 C1356 0.930 . S
H1351 C1360 0.930 . S
H1352 C1365 0.929 . S
H1353 C1363 0.929 . S
H1354 C1358 0.929 . S
H1355 C1364 0.929 . S
C1356 H1350 0.930 . S
C1356 C1357 1.367 . S
C1356 C1364 1.378 . S
C1357 C1356 1.367 . S
C1357 C1365 1.433 . S
C1358 H1354 0.929 . S
C1358 C1360 1.378 . S
C1358 C1362 1.350 . S
C1359 C1362 1.463 . S
C1359 C1364 1.350 . S
C1359 N1367 1.427 . S
C1360 H1351 0.930 . S
C1360 C1358 1.378 . S
C1360 C1361 1.367 . S
C1361 C1360 1.367 . S
C1361 C1363 1.433 . S
C1362 C1358 1.350 . S
C1362 C1359 1.463 . S
C1362 N1366 1.427 . S
C1363 H1353 0.929 . S
C1363 C1361 1.433 . S
C1363 N1366 1.384 . S
C1364 H1355 0.929 . S
C1364 C1356 1.378 . S
C1364 C1359 1.350 . S
C1365 H1352 0.929 . S
C1365 C1357 1.433 . S
C1365 N1367 1.384 . S
N1366 C1362 1.427 . S
N1366 C1363 1.384 . S
N1367 C1359 1.427 . S
N1367 C1365 1.384 . S
H1368 C1374 0.930 . S
H1369 C1378 0.969 . S
H1370 C1383 0.929 . S
H1371 C1381 0.929 . S
H1372 C1376 0.929 . S
H1373 C1382 0.929 . S
C1374 H1368 0.930 . S
C1374 C1375 1.367 . S
C1374 C1382 1.378 . S
C1375 C1374 1.367 . S
C1375 C1383 1.433 . S
C1376 H1372 0.929 . S
C1376 C1378 1.378 . S
C1376 C1380 1.350 . S
C1377 C1380 1.463 . S
C1377 C1382 1.350 . S
C1377 N1385 1.427 . S
C1378 H1369 0.969 . S
C1378 C1376 1.378 . S
C1378 C1379 1.367 . S
C1379 C1378 1.367 . S
C1379 C1381 1.433 . S
C1380 C1376 1.350 . S
C1380 C1377 1.463 . S
C1380 N1384 1.427 . S
C1381 H1371 0.929 . S
C1381 C1379 1.433 . S
C1381 N1384 1.384 . S
C1382 H1373 0.929 . S
C1382 C1374 1.378 . S
C1382 C1377 1.350 . S
C1383 H1370 0.929 . S
C1383 C1375 1.433 . S
C1383 N1385 1.384 . S
N1384 C1380 1.427 . S
N1384 C1381 1.384 . S
N1385 C1377 1.427 . S
N1385 C1383 1.384 . S
H1386 C1392 0.930 . S
H1387 C1396 0.930 . S
H1388 C1401 0.929 . S
H1389 C1399 0.929 1_554 S
H1390 C1394 0.929 . S
H1391 C1400 0.929 . S
C1392 H1386 0.930 . S
C1392 C1393 1.367 . S
C1392 C1400 1.378 . S
C1393 C1392 1.367 . S
C1393 C1401 1.433 . S
C1394 H1390 0.929 . S
C1394 C1396 1.378 . S
C1394 C1398 1.350 . S
C1395 C1398 1.463 . S
C1395 C1400 1.350 . S
C1395 N1403 1.427 . S
C1396 H1387 0.930 . S
C1396 C1394 1.378 . S
C1396 C1397 1.367 . S
C1397 C1396 1.367 . S
C1397 C1399 1.433 . S
C1398 C1394 1.350 . S
C1398 C1395 1.463 . S
C1398 N1402 1.427 . S
C1399 H1389 0.929 1_556 S
C1399 C1397 1.433 . S
C1399 N1402 1.384 . S
C1400 H1391 0.929 . S
C1400 C1392 1.378 . S
C1400 C1395 1.350 . S
C1401 H1388 0.929 . S
C1401 C1393 1.433 . S
C1401 N1403 1.384 . S
N1402 C1398 1.427 . S
N1402 C1399 1.384 . S
N1403 C1395 1.427 . S
N1403 C1401 1.384 . S
H1404 C1410 0.930 . S
H1405 C1414 0.930 1_554 S
H1406 C1419 0.929 . S
H1407 C1417 0.929 . S
H1408 C1412 0.929 . S
H1409 C1418 0.929 . S
C1410 H1404 0.930 . S
C1410 C1411 1.367 . S
C1410 C1418 1.378 . S
C1411 C1410 1.367 . S
C1411 C1419 1.433 . S
C1412 H1408 0.929 . S
C1412 C1414 1.378 . S
C1412 C1416 1.350 . S
C1413 C1416 1.463 . S
C1413 C1418 1.350 . S
C1413 N1421 1.427 . S
C1414 H1405 0.930 1_556 S
C1414 C1412 1.378 . S
C1414 C1415 1.367 . S
C1415 C1414 1.367 . S
C1415 C1417 1.433 . S
C1416 C1412 1.350 . S
C1416 C1413 1.463 . S
C1416 N1420 1.427 . S
C1417 H1407 0.929 . S
C1417 C1415 1.433 . S
C1417 N1420 1.384 . S
C1418 H1409 0.929 . S
C1418 C1410 1.378 . S
C1418 C1413 1.350 . S
C1419 H1406 0.929 . S
C1419 C1411 1.433 . S
C1419 N1421 1.384 . S
N1420 C1416 1.427 . S
N1420 C1417 1.384 . S
N1421 C1413 1.427 . S
N1421 C1419 1.384 . S
H1422 C1428 0.930 . S
H1423 C1432 0.930 1_554 S
H1424 C1437 0.929 . S
H1425 C1435 0.929 . S
H1426 C1430 0.929 . S
H1427 C1436 0.929 . S
C1428 H1422 0.930 . S
C1428 C1429 1.367 . S
C1428 C1436 1.378 . S
C1429 C1428 1.367 . S
C1429 C1437 1.433 . S
C1430 H1426 0.929 . S
C1430 C1432 1.378 . S
C1430 C1434 1.350 . S
C1431 C1434 1.463 . S
C1431 C1436 1.350 . S
C1431 N1439 1.427 . S
C1432 H1423 0.930 1_556 S
C1432 C1430 1.378 . S
C1432 C1433 1.367 . S
C1433 C1432 1.367 . S
C1433 C1435 1.433 . S
C1434 C1430 1.350 . S
C1434 C1431 1.463 . S
C1434 N1438 1.427 . S
C1435 H1425 0.929 . S
C1435 C1433 1.433 . S
C1435 N1438 1.384 . S
C1436 H1427 0.929 . S
C1436 C1428 1.378 . S
C1436 C1431 1.350 . S
C1437 H1424 0.929 . S
C1437 C1429 1.433 . S
C1437 N1439 1.384 . S
N1438 C1434 1.427 . S
N1438 C1435 1.384 . S
N1439 C1431 1.427 . S
N1439 C1437 1.384 . S
H1440 C1446 0.930 . S
H1441 C1450 0.930 . S
H1442 C1455 0.929 . S
H1443 C1453 0.929 . S
H1444 C1448 0.929 . S
H1445 C1454 0.929 . S
C1446 H1440 0.930 . S
C1446 C1447 1.367 . S
C1446 C1454 1.378 . S
C1447 C1446 1.367 . S
C1447 C1455 1.433 . S
C1448 H1444 0.929 . S
C1448 C1450 1.378 . S
C1448 C1452 1.350 . S
C1449 C1452 1.463 . S
C1449 C1454 1.350 . S
C1449 N1457 1.427 . S
C1450 H1441 0.930 . S
C1450 C1448 1.378 . S
C1450 C1451 1.367 . S
C1451 C1450 1.367 . S
C1451 C1453 1.433 . S
C1452 C1448 1.350 . S
C1452 C1449 1.463 . S
C1452 N1456 1.427 . S
C1453 H1443 0.929 . S
C1453 C1451 1.433 . S
C1453 N1456 1.384 . S
C1454 H1445 0.929 . S
C1454 C1446 1.378 . S
C1454 C1449 1.350 . S
C1455 H1442 0.929 . S
C1455 C1447 1.433 . S
C1455 N1457 1.384 . S
N1456 C1452 1.427 . S
N1456 C1453 1.384 . S
N1457 C1449 1.427 . S
N1457 C1455 1.384 . S
H1458 C1464 0.930 . S
H1459 C1468 0.930 . S
H1460 C1473 0.929 . S
H1461 C1471 0.929 1_554 S
H1462 C1466 0.929 . S
H1463 C1472 0.929 . S
C1464 H1458 0.930 . S
C1464 C1465 1.367 . S
C1464 C1472 1.378 . S
C1465 C1464 1.367 . S
C1465 C1473 1.433 . S
C1466 H1462 0.929 . S
C1466 C1468 1.378 . S
C1466 C1470 1.350 . S
C1467 C1470 1.463 . S
C1467 C1472 1.350 . S
C1467 N1475 1.427 . S
C1468 H1459 0.930 . S
C1468 C1466 1.378 . S
C1468 C1469 1.367 . S
C1469 C1468 1.367 . S
C1469 C1471 1.433 . S
C1470 C1466 1.350 . S
C1470 C1467 1.463 . S
C1470 N1474 1.427 . S
C1471 H1461 0.929 1_556 S
C1471 C1469 1.433 . S
C1471 N1474 1.384 . S
C1472 H1463 0.929 . S
C1472 C1464 1.378 . S
C1472 C1467 1.350 . S
C1473 H1460 0.929 . S
C1473 C1465 1.433 . S
C1473 N1475 1.384 . S
N1474 C1470 1.427 . S
N1474 C1471 1.384 . S
N1475 C1467 1.427 . S
N1475 C1473 1.384 . S
H1476 C1482 0.930 . S
H1477 C1486 0.930 1_554 S
H1478 C1491 0.929 . S
H1479 C1489 0.929 . S
H1480 C1484 0.929 . S
H1481 C1490 0.929 . S
C1482 H1476 0.930 . S
C1482 C1483 1.367 . S
C1482 C1490 1.378 . S
C1483 C1482 1.367 . S
C1483 C1491 1.433 . S
C1484 H1480 0.929 . S
C1484 C1486 1.378 . S
C1484 C1488 1.350 . S
C1485 C1488 1.463 . S
C1485 C1490 1.350 . S
C1485 N1493 1.427 . S
C1486 H1477 0.930 1_556 S
C1486 C1484 1.378 . S
C1486 C1487 1.367 . S
C1487 C1486 1.367 . S
C1487 C1489 1.433 . S
C1488 C1484 1.350 . S
C1488 C1485 1.463 . S
C1488 N1492 1.427 . S
C1489 H1479 0.929 . S
C1489 C1487 1.433 . S
C1489 N1492 1.384 . S
C1490 H1481 0.929 . S
C1490 C1482 1.378 . S
C1490 C1485 1.350 . S
C1491 H1478 0.929 . S
C1491 C1483 1.433 . S
C1491 N1493 1.384 . S
N1492 C1488 1.427 . S
N1492 C1489 1.384 . S
N1493 C1485 1.427 . S
N1493 C1491 1.384 . S
H1494 C1500 0.930 . S
H1495 C1504 0.930 . S
H1496 C1509 0.929 . S
H1497 C1507 0.929 . S
H1498 C1502 0.929 . S
H1499 C1508 0.929 . S
C1500 H1494 0.930 . S
C1500 C1501 1.367 . S
C1500 C1508 1.378 . S
C1501 C1500 1.367 . S
C1501 C1509 1.433 . S
C1502 H1498 0.929 . S
C1502 C1504 1.378 . S
C1502 C1506 1.350 . S
C1503 C1506 1.463 . S
C1503 C1508 1.350 . S
C1503 N1511 1.427 . S
C1504 H1495 0.930 . S
C1504 C1502 1.378 . S
C1504 C1505 1.367 . S
C1505 C1504 1.367 . S
C1505 C1507 1.433 . S
C1506 C1502 1.350 . S
C1506 C1503 1.463 . S
C1506 N1510 1.427 . S
C1507 H1497 0.929 . S
C1507 C1505 1.433 . S
C1507 N1510 1.384 . S
C1508 H1499 0.929 . S
C1508 C1500 1.378 . S
C1508 C1503 1.350 . S
C1509 H1496 0.929 . S
C1509 C1501 1.433 . S
C1509 N1511 1.384 . S
N1510 C1506 1.427 . S
N1510 C1507 1.384 . S
N1511 C1503 1.427 . S
N1511 C1509 1.384 . S
H1512 C1518 0.930 . S
H1513 C1522 0.930 1_556 S
H1514 C1527 0.929 . S
H1515 C1525 0.929 . S
H1516 C1520 0.929 . S
H1517 C1526 0.929 . S
C1518 H1512 0.930 . S
C1518 C1519 1.367 . S
C1518 C1526 1.378 . S
C1519 C1518 1.367 . S
C1519 C1527 1.433 . S
C1520 H1516 0.929 . S
C1520 C1522 1.378 . S
C1520 C1524 1.350 . S
C1521 C1524 1.463 . S
C1521 C1526 1.350 . S
C1521 N1529 1.427 . S
C1522 H1513 0.930 1_554 S
C1522 C1520 1.378 . S
C1522 C1523 1.367 . S
C1523 C1522 1.367 . S
C1523 C1525 1.433 . S
C1524 C1520 1.350 . S
C1524 C1521 1.463 . S
C1524 N1528 1.427 . S
C1525 H1515 0.929 . S
C1525 C1523 1.433 . S
C1525 N1528 1.384 . S
C1526 H1517 0.929 . S
C1526 C1518 1.378 . S
C1526 C1521 1.350 . S
C1527 H1514 0.929 . S
C1527 C1519 1.433 . S
C1527 N1529 1.384 . S
N1528 C1524 1.427 . S
N1528 C1525 1.384 . S
N1529 C1521 1.427 . S
N1529 C1527 1.384 . S
H1530 C1536 0.930 . S
H1531 C1540 0.930 . S
H1532 C1545 0.929 . S
H1533 C1543 0.929 . S
H1534 C1538 0.929 . S
H1535 C1544 0.929 . S
C1536 H1530 0.930 . S
C1536 C1537 1.367 . S
C1536 C1544 1.378 . S
C1537 C1536 1.367 . S
C1537 C1545 1.433 . S
C1538 H1534 0.929 . S
C1538 C1540 1.378 . S
C1538 C1542 1.350 . S
C1539 C1542 1.463 . S
C1539 C1544 1.350 . S
C1539 N1547 1.427 . S
C1540 H1531 0.930 . S
C1540 C1538 1.378 . S
C1540 C1541 1.367 . S
C1541 C1540 1.367 . S
C1541 C1543 1.433 . S
C1542 C1538 1.350 . S
C1542 C1539 1.463 . S
C1542 N1546 1.427 . S
C1543 H1533 0.929 . S
C1543 C1541 1.433 . S
C1543 N1546 1.384 . S
C1544 H1535 0.929 . S
C1544 C1536 1.378 . S
C1544 C1539 1.350 . S
C1545 H1532 0.929 . S
C1545 C1537 1.433 . S
C1545 N1547 1.384 . S
N1546 C1542 1.427 . S
N1546 C1543 1.384 . S
N1547 C1539 1.427 . S
N1547 C1545 1.384 . S
H1548 C1554 0.930 . S
H1549 C1558 0.930 . S
H1550 C1563 0.929 . S
H1551 C1561 0.929 . S
H1552 C1556 0.929 . S
H1553 C1562 0.929 . S
C1554 H1548 0.930 . S
C1554 C1555 1.367 . S
C1554 C1562 1.378 1_655 S
C1555 C1554 1.367 . S
C1555 C1563 1.433 . S
C1556 H1552 0.929 . S
C1556 C1558 1.378 . S
C1556 C1560 1.350 . S
C1557 C1560 1.463 . S
C1557 C1562 1.350 . S
C1557 N1565 1.427 . S
C1558 H1549 0.930 . S
C1558 C1556 1.378 . S
C1558 C1559 1.367 . S
C1559 C1558 1.367 . S
C1559 C1561 1.433 . S
C1560 C1556 1.350 . S
C1560 C1557 1.463 . S
C1560 N1564 1.427 . S
C1561 H1551 0.929 . S
C1561 C1559 1.433 . S
C1561 N1564 1.384 . S
C1562 H1553 0.929 . S
C1562 C1554 1.378 1_455 S
C1562 C1557 1.350 . S
C1563 H1550 0.929 . S
C1563 C1555 1.433 . S
C1563 N1565 1.384 1_655 S
N1564 C1560 1.427 . S
N1564 C1561 1.384 . S
N1565 C1557 1.427 . S
N1565 C1563 1.384 1_455 S
H1566 C1572 0.930 . S
H1567 C1576 0.930 . S
H1568 C1581 0.929 . S
H1569 C1579 0.929 . S
H1570 C1574 0.929 . S
H1571 C1580 0.929 . S
C1572 H1566 0.930 . S
C1572 C1573 1.367 . S
C1572 C1580 1.378 . S
C1573 C1572 1.367 . S
C1573 C1581 1.433 . S
C1574 H1570 0.929 . S
C1574 C1576 1.378 . S
C1574 C1578 1.350 . S
C1575 C1578 1.463 . S
C1575 C1580 1.350 . S
C1575 N1583 1.427 . S
C1576 H1567 0.930 . S
C1576 C1574 1.378 . S
C1576 C1577 1.367 . S
C1577 C1576 1.367 . S
C1577 C1579 1.433 . S
C1578 C1574 1.350 . S
C1578 C1575 1.463 . S
C1578 N1582 1.427 . S
C1579 H1569 0.929 . S
C1579 C1577 1.433 . S
C1579 N1582 1.384 . S
C1580 H1571 0.929 . S
C1580 C1572 1.378 . S
C1580 C1575 1.350 . S
C1581 H1568 0.929 . S
C1581 C1573 1.433 . S
C1581 N1583 1.384 . S
N1582 C1578 1.427 . S
N1582 C1579 1.384 . S
N1583 C1575 1.427 . S
N1583 C1581 1.384 . S
H1584 C1590 0.930 . S
H1585 C1594 0.930 . S
H1586 C1599 0.929 . S
H1587 C1597 0.929 . S
H1588 C1592 0.929 . S
H1589 C1598 0.929 . S
C1590 H1584 0.930 . S
C1590 C1591 1.367 . S
C1590 C1598 1.378 1_545 S
C1591 C1590 1.367 . S
C1591 C1599 1.433 . S
C1592 H1588 0.929 . S
C1592 C1594 1.378 . S
C1592 C1596 1.350 . S
C1593 C1596 1.463 . S
C1593 C1598 1.350 . S
C1593 N1601 1.427 1_565 S
C1594 H1585 0.930 . S
C1594 C1592 1.378 . S
C1594 C1595 1.367 . S
C1595 C1594 1.367 . S
C1595 C1597 1.433 . S
C1596 C1592 1.350 . S
C1596 C1593 1.463 . S
C1596 N1600 1.427 . S
C1597 H1587 0.929 . S
C1597 C1595 1.433 . S
C1597 N1600 1.384 . S
C1598 H1589 0.929 . S
C1598 C1590 1.378 1_565 S
C1598 C1593 1.350 . S
C1599 H1586 0.929 . S
C1599 C1591 1.433 . S
C1599 N1601 1.384 . S
N1600 C1596 1.427 . S
N1600 C1597 1.384 . S
N1601 C1593 1.427 1_545 S
N1601 C1599 1.384 . S
H1602 C1608 0.930 . S
H1603 C1612 0.930 . S
H1604 C1617 0.929 . S
H1605 C1615 0.929 . S
H1606 C1610 0.929 . S
H1607 C1616 0.929 . S
C1608 H1602 0.930 . S
C1608 C1609 1.367 . S
C1608 C1616 1.378 . S
C1609 C1608 1.367 . S
C1609 C1617 1.433 . S
C1610 H1606 0.929 . S
C1610 C1612 1.378 . S
C1610 C1614 1.350 . S
C1611 C1614 1.463 . S
C1611 C1616 1.350 . S
C1611 N1619 1.427 . S
C1612 H1603 0.930 . S
C1612 C1610 1.378 . S
C1612 C1613 1.367 . S
C1613 C1612 1.367 . S
C1613 C1615 1.433 . S
C1614 C1610 1.350 . S
C1614 C1611 1.463 . S
C1614 N1618 1.427 . S
C1615 H1605 0.929 . S
C1615 C1613 1.433 . S
C1615 N1618 1.384 . S
C1616 H1607 0.929 . S
C1616 C1608 1.378 . S
C1616 C1611 1.350 . S
C1617 H1604 0.929 . S
C1617 C1609 1.433 . S
C1617 N1619 1.384 . S
N1618 C1614 1.427 . S
N1618 C1615 1.384 . S
N1619 C1611 1.427 . S
N1619 C1617 1.384 . S
H1620 C1626 0.930 . S
H1621 C1630 0.930 . S
H1622 C1635 0.929 . S
H1623 C1633 0.929 . S
H1624 C1628 0.929 . S
H1625 C1634 0.929 . S
C1626 H1620 0.930 . S
C1626 C1627 1.367 . S
C1626 C1634 1.378 . S
C1627 C1626 1.367 . S
C1627 C1635 1.433 . S
C1628 H1624 0.929 . S
C1628 C1630 1.378 . S
C1628 C1632 1.350 . S
C1629 C1632 1.463 . S
C1629 C1634 1.350 . S
C1629 N1637 1.427 . S
C1630 H1621 0.930 . S
C1630 C1628 1.378 . S
C1630 C1631 1.367 . S
C1631 C1630 1.367 . S
C1631 C1633 1.433 . S
C1632 C1628 1.350 . S
C1632 C1629 1.463 . S
C1632 N1636 1.427 . S
C1633 H1623 0.929 . S
C1633 C1631 1.433 . S
C1633 N1636 1.384 . S
C1634 H1625 0.929 . S
C1634 C1626 1.378 . S
C1634 C1629 1.350 . S
C1635 H1622 0.929 . S
C1635 C1627 1.433 . S
C1635 N1637 1.384 . S
N1636 C1632 1.427 . S
N1636 C1633 1.384 . S
N1637 C1629 1.427 . S
N1637 C1635 1.384 . S
H1638 C1644 0.930 . S
H1639 C1648 0.930 . S
H1640 C1653 0.929 . S
H1641 C1651 0.929 . S
H1642 C1646 0.929 . S
H1643 C1652 0.929 . S
C1644 H1638 0.930 . S
C1644 C1645 1.367 . S
C1644 C1652 1.378 . S
C1645 C1644 1.367 . S
C1645 C1653 1.433 . S
C1646 H1642 0.929 . S
C1646 C1648 1.378 . S
C1646 C1650 1.350 . S
C1647 C1650 1.463 . S
C1647 C1652 1.350 . S
C1647 N1655 1.427 . S
C1648 H1639 0.930 . S
C1648 C1646 1.378 . S
C1648 C1649 1.367 . S
C1649 C1648 1.367 . S
C1649 C1651 1.433 . S
C1650 C1646 1.350 . S
C1650 C1647 1.463 . S
C1650 N1654 1.427 . S
C1651 H1641 0.929 . S
C1651 C1649 1.433 . S
C1651 N1654 1.384 . S
C1652 H1643 0.929 . S
C1652 C1644 1.378 . S
C1652 C1647 1.350 . S
C1653 H1640 0.929 . S
C1653 C1645 1.433 . S
C1653 N1655 1.384 . S
N1654 C1650 1.427 . S
N1654 C1651 1.384 . S
N1655 C1647 1.427 . S
N1655 C1653 1.384 . S
H1656 C1662 0.930 . S
H1657 C1666 0.930 . S
H1658 C1671 0.929 . S
H1659 C1669 0.929 . S
H1660 C1664 0.929 . S
H1661 C1670 0.929 . S
C1662 H1656 0.930 . S
C1662 C1663 1.367 . S
C1662 C1670 1.378 . S
C1663 C1662 1.367 . S
C1663 C1671 1.433 . S
C1664 H1660 0.929 . S
C1664 C1666 1.378 . S
C1664 C1668 1.350 . S
C1665 C1668 1.463 . S
C1665 C1670 1.350 . S
C1665 N1673 1.427 . S
C1666 H1657 0.930 . S
C1666 C1664 1.378 . S
C1666 C1667 1.367 . S
C1667 C1666 1.367 . S
C1667 C1669 1.433 . S
C1668 C1664 1.350 . S
C1668 C1665 1.463 . S
C1668 N1672 1.427 . S
C1669 H1659 0.929 . S
C1669 C1667 1.433 . S
C1669 N1672 1.384 . S
C1670 H1661 0.929 . S
C1670 C1662 1.378 . S
C1670 C1665 1.350 . S
C1671 H1658 0.929 . S
C1671 C1663 1.433 . S
C1671 N1673 1.384 . S
N1672 C1668 1.427 . S
N1672 C1669 1.384 . S
N1673 C1665 1.427 . S
N1673 C1671 1.384 . S
H1674 C1680 0.930 . S
H1675 C1684 0.930 . S
H1676 C1689 0.929 . S
H1677 C1687 0.929 . S
H1678 C1682 0.929 . S
H1679 C1688 0.929 . S
C1680 H1674 0.930 . S
C1680 C1681 1.367 . S
C1680 C1688 1.378 . S
C1681 C1680 1.367 . S
C1681 C1689 1.433 . S
C1682 H1678 0.929 . S
C1682 C1684 1.378 . S
C1682 C1686 1.350 . S
C1683 C1686 1.463 . S
C1683 C1688 1.350 . S
C1683 N1691 1.427 . S
C1684 H1675 0.930 . S
C1684 C1682 1.378 . S
C1684 C1685 1.367 . S
C1685 C1684 1.367 . S
C1685 C1687 1.433 . S
C1686 C1682 1.350 . S
C1686 C1683 1.463 . S
C1686 N1690 1.427 . S
C1687 H1677 0.929 . S
C1687 C1685 1.433 . S
C1687 N1690 1.384 . S
C1688 H1679 0.929 . S
C1688 C1680 1.378 . S
C1688 C1683 1.350 . S
C1689 H1676 0.929 . S
C1689 C1681 1.433 . S
C1689 N1691 1.384 . S
N1690 C1686 1.427 . S
N1690 C1687 1.384 . S
N1691 C1683 1.427 . S
N1691 C1689 1.384 . S
H1692 C1698 0.930 . S
H1693 C1702 0.930 . S
H1694 C1707 0.929 . S
H1695 C1705 0.929 . S
H1696 C1700 0.929 . S
H1697 C1706 0.929 . S
C1698 H1692 0.930 . S
C1698 C1699 1.367 . S
C1698 C1706 1.378 . S
C1699 C1698 1.367 . S
C1699 C1707 1.433 . S
C1700 H1696 0.929 . S
C1700 C1702 1.378 . S
C1700 C1704 1.350 . S
C1701 C1704 1.463 . S
C1701 C1706 1.350 . S
C1701 N1709 1.427 . S
C1702 H1693 0.930 . S
C1702 C1700 1.378 . S
C1702 C1703 1.367 . S
C1703 C1702 1.367 . S
C1703 C1705 1.433 . S
C1704 C1700 1.350 . S
C1704 C1701 1.463 . S
C1704 N1708 1.427 . S
C1705 H1695 0.929 . S
C1705 C1703 1.433 . S
C1705 N1708 1.384 . S
C1706 H1697 0.929 . S
C1706 C1698 1.378 . S
C1706 C1701 1.350 . S
C1707 H1694 0.929 . S
C1707 C1699 1.433 . S
C1707 N1709 1.384 . S
N1708 C1704 1.427 . S
N1708 C1705 1.384 . S
N1709 C1701 1.427 . S
N1709 C1707 1.384 . S
H1710 C1716 0.930 . S
H1711 C1720 0.930 . S
H1712 C1725 0.929 . S
H1713 C1723 0.929 . S
H1714 C1718 0.929 . S
H1715 C1724 0.929 . S
C1716 H1710 0.930 . S
C1716 C1717 1.367 . S
C1716 C1724 1.378 1_545 S
C1717 C1716 1.367 . S
C1717 C1725 1.433 . S
C1718 H1714 0.929 . S
C1718 C1720 1.378 . S
C1718 C1722 1.350 . S
C1719 C1722 1.463 . S
C1719 C1724 1.350 . S
C1719 N1727 1.427 . S
C1720 H1711 0.930 . S
C1720 C1718 1.378 . S
C1720 C1721 1.367 . S
C1721 C1720 1.367 . S
C1721 C1723 1.433 . S
C1722 C1718 1.350 . S
C1722 C1719 1.463 . S
C1722 N1726 1.427 . S
C1723 H1713 0.929 . S
C1723 C1721 1.433 . S
C1723 N1726 1.384 . S
C1724 H1715 0.929 . S
C1724 C1716 1.378 1_565 S
C1724 C1719 1.350 . S
C1725 H1712 0.929 . S
C1725 C1717 1.433 . S
C1725 N1727 1.384 1_545 S
N1726 C1722 1.427 . S
N1726 C1723 1.384 . S
N1727 C1719 1.427 . S
N1727 C1725 1.384 1_565 S
H1728 C1734 0.930 . S
H1729 C1738 0.930 . S
H1730 C1743 0.967 . S
H1731 C1741 0.929 . S
H1732 C1736 0.929 . S
H1733 C1742 0.929 . S
C1734 H1728 0.930 . S
C1734 C1735 1.367 . S
C1734 C1742 1.378 1_655 S
C1735 C1734 1.367 . S
C1735 C1743 1.442 . S
C1736 H1732 0.929 . S
C1736 C1738 1.378 . S
C1736 C1740 1.350 . S
C1737 C1740 1.463 . S
C1737 C1742 1.350 . S
C1737 N1745 1.427 . S
C1738 H1729 0.930 . S
C1738 C1736 1.378 . S
C1738 C1739 1.367 . S
C1739 C1738 1.367 . S
C1739 C1741 1.433 . S
C1740 C1736 1.350 . S
C1740 C1737 1.463 . S
C1740 N1744 1.427 . S
C1741 H1731 0.929 . S
C1741 C1739 1.433 . S
C1741 N1744 1.384 . S
C1742 H1733 0.929 . S
C1742 C1734 1.378 1_455 S
C1742 C1737 1.350 . S
C1743 H1730 0.967 . S
C1743 C1735 1.442 . S
C1743 N1745 1.338 1_655 S
N1744 C1740 1.427 . S
N1744 C1741 1.384 . S
N1745 C1737 1.427 . S
N1745 C1743 1.338 1_455 S
H1746 C1752 0.930 . S
H1747 C1756 0.930 . S
H1748 C1761 0.929 . S
H1749 C1759 0.929 . S
H1750 C1754 0.929 . S
H1751 C1760 0.929 . S
C1752 H1746 0.930 . S
C1752 C1753 1.367 . S
C1752 C1760 1.378 . S
C1753 C1752 1.367 . S
C1753 C1761 1.433 . S
C1754 H1750 0.929 . S
C1754 C1756 1.378 . S
C1754 C1758 1.350 . S
C1755 C1758 1.463 . S
C1755 C1760 1.350 . S
C1755 N1763 1.427 . S
C1756 H1747 0.930 . S
C1756 C1754 1.378 . S
C1756 C1757 1.367 . S
C1757 C1756 1.367 . S
C1757 C1759 1.433 . S
C1758 C1754 1.350 . S
C1758 C1755 1.463 . S
C1758 N1762 1.427 . S
C1759 H1749 0.929 . S
C1759 C1757 1.433 . S
C1759 N1762 1.384 . S
C1760 H1751 0.929 . S
C1760 C1752 1.378 . S
C1760 C1755 1.350 . S
C1761 H1748 0.929 . S
C1761 C1753 1.433 . S
C1761 N1763 1.384 . S
N1762 C1758 1.427 . S
N1762 C1759 1.384 . S
N1763 C1755 1.427 . S
N1763 C1761 1.384 . S
H1764 C1770 0.930 . S
H1765 C1774 0.930 . S
H1766 C1779 0.929 . S
H1767 C1777 0.929 . S
H1768 C1772 0.929 . S
H1769 C1778 0.929 . S
C1770 H1764 0.930 . S
C1770 C1771 1.367 . S
C1770 C1778 1.378 . S
C1771 C1770 1.367 . S
C1771 C1779 1.433 . S
C1772 H1768 0.929 . S
C1772 C1774 1.378 . S
C1772 C1776 1.350 . S
C1773 C1776 1.463 . S
C1773 C1778 1.350 . S
C1773 N1781 1.427 . S
C1774 H1765 0.930 . S
C1774 C1772 1.378 . S
C1774 C1775 1.367 . S
C1775 C1774 1.367 . S
C1775 C1777 1.433 . S
C1776 C1772 1.350 . S
C1776 C1773 1.463 . S
C1776 N1780 1.427 . S
C1777 H1767 0.929 . S
C1777 C1775 1.433 . S
C1777 N1780 1.384 . S
C1778 H1769 0.929 . S
C1778 C1770 1.378 . S
C1778 C1773 1.350 . S
C1779 H1766 0.929 . S
C1779 C1771 1.433 . S
C1779 N1781 1.384 . S
N1780 C1776 1.427 . S
N1780 C1777 1.384 . S
N1781 C1773 1.427 . S
N1781 C1779 1.384 . S
H1782 C1788 0.930 . S
H1783 C1792 0.930 . S
H1784 C1797 0.929 . S
H1785 C1795 0.929 . S
H1786 C1790 0.929 . S
H1787 C1796 0.929 . S
C1788 H1782 0.930 . S
C1788 C1789 1.367 . S
C1788 C1796 1.378 . S
C1789 C1788 1.367 . S
C1789 C1797 1.433 . S
C1790 H1786 0.929 . S
C1790 C1792 1.378 . S
C1790 C1794 1.350 . S
C1791 C1794 1.463 . S
C1791 C1796 1.350 . S
C1791 N1799 1.427 . S
C1792 H1783 0.930 . S
C1792 C1790 1.378 . S
C1792 C1793 1.367 . S
C1793 C1792 1.367 . S
C1793 C1795 1.433 . S
C1794 C1790 1.350 . S
C1794 C1791 1.463 . S
C1794 N1798 1.427 . S
C1795 H1785 0.929 . S
C1795 C1793 1.433 . S
C1795 N1798 1.384 . S
C1796 H1787 0.929 . S
C1796 C1788 1.378 . S
C1796 C1791 1.350 . S
C1797 H1784 0.929 . S
C1797 C1789 1.433 . S
C1797 N1799 1.384 . S
N1798 C1794 1.427 . S
N1798 C1795 1.384 . S
N1799 C1791 1.427 . S
N1799 C1797 1.384 . S
H1800 C1806 0.930 . S
H1801 C1810 0.930 . S
H1802 C1815 0.929 . S
H1803 C1813 0.929 . S
H1804 C1808 0.929 . S
H1805 C1814 0.929 . S
C1806 H1800 0.930 . S
C1806 C1807 1.367 . S
C1806 C1814 1.378 . S
C1807 C1806 1.367 . S
C1807 C1815 1.433 . S
C1808 H1804 0.929 . S
C1808 C1810 1.378 . S
C1808 C1812 1.350 . S
C1809 C1812 1.463 . S
C1809 C1814 1.350 . S
C1809 N1817 1.427 . S
C1810 H1801 0.930 . S
C1810 C1808 1.378 . S
C1810 C1811 1.367 . S
C1811 C1810 1.367 . S
C1811 C1813 1.433 . S
C1812 C1808 1.350 . S
C1812 C1809 1.463 . S
C1812 N1816 1.427 . S
C1813 H1803 0.929 . S
C1813 C1811 1.433 . S
C1813 N1816 1.384 . S
C1814 H1805 0.929 . S
C1814 C1806 1.378 . S
C1814 C1809 1.350 . S
C1815 H1802 0.929 . S
C1815 C1807 1.433 . S
C1815 N1817 1.384 . S
N1816 C1812 1.427 . S
N1816 C1813 1.384 . S
N1817 C1809 1.427 . S
N1817 C1815 1.384 . S
H1818 C1824 0.930 . S
H1819 C1828 0.930 . S
H1820 C1833 0.929 . S
H1821 C1831 0.929 . S
H1822 C1826 0.929 . S
H1823 C1832 0.929 . S
C1824 H1818 0.930 . S
C1824 C1825 1.367 . S
C1824 C1832 1.378 1_565 S
C1825 C1824 1.367 . S
C1825 C1833 1.433 . S
C1826 H1822 0.929 . S
C1826 C1828 1.378 . S
C1826 C1830 1.350 . S
C1827 C1830 1.463 . S
C1827 C1832 1.350 . S
C1827 N1835 1.427 . S
C1828 H1819 0.930 . S
C1828 C1826 1.378 . S
C1828 C1829 1.367 . S
C1829 C1828 1.367 . S
C1829 C1831 1.433 . S
C1830 C1826 1.350 . S
C1830 C1827 1.463 . S
C1830 N1834 1.427 . S
C1831 H1821 0.929 . S
C1831 C1829 1.433 . S
C1831 N1834 1.384 . S
C1832 H1823 0.929 . S
C1832 C1824 1.378 1_545 S
C1832 C1827 1.350 . S
C1833 H1820 0.929 . S
C1833 C1825 1.433 . S
C1833 N1835 1.384 1_565 S
N1834 C1830 1.427 . S
N1834 C1831 1.384 . S
N1835 C1827 1.427 . S
N1835 C1833 1.384 1_545 S
H1836 C1842 0.930 . S
H1837 C1846 0.930 . S
H1838 C1851 0.929 . S
H1839 C1849 0.929 . S
H1840 C1844 0.929 . S
H1841 C1850 0.929 . S
C1842 H1836 0.930 . S
C1842 C1843 1.367 . S
C1842 C1850 1.378 1_455 S
C1843 C1842 1.367 . S
C1843 C1851 1.433 . S
C1844 H1840 0.929 . S
C1844 C1846 1.378 . S
C1844 C1848 1.350 . S
C1845 C1848 1.463 . S
C1845 C1850 1.350 . S
C1845 N1853 1.427 . S
C1846 H1837 0.930 . S
C1846 C1844 1.378 . S
C1846 C1847 1.367 . S
C1847 C1846 1.367 . S
C1847 C1849 1.433 . S
C1848 C1844 1.350 . S
C1848 C1845 1.463 . S
C1848 N1852 1.427 . S
C1849 H1839 0.929 . S
C1849 C1847 1.433 . S
C1849 N1852 1.384 . S
C1850 H1841 0.929 . S
C1850 C1842 1.378 1_655 S
C1850 C1845 1.350 . S
C1851 H1838 0.929 . S
C1851 C1843 1.433 . S
C1851 N1853 1.384 1_455 S
N1852 C1848 1.427 . S
N1852 C1849 1.384 . S
N1853 C1845 1.427 . S
N1853 C1851 1.384 1_655 S
H1854 C1860 0.930 . S
H1855 C1864 0.930 . S
H1856 C1869 0.929 . S
H1857 C1867 0.929 . S
H1858 C1862 0.929 . S
H1859 C1868 0.929 . S
C1860 H1854 0.930 . S
C1860 C1861 1.367 . S
C1860 C1868 1.378 . S
C1861 C1860 1.367 . S
C1861 C1869 1.433 . S
C1862 H1858 0.929 . S
C1862 C1864 1.378 . S
C1862 C1866 1.350 . S
C1863 C1866 1.463 . S
C1863 C1868 1.350 . S
C1863 N1871 1.427 . S
C1864 H1855 0.930 . S
C1864 C1862 1.378 . S
C1864 C1865 1.367 . S
C1865 C1864 1.367 . S
C1865 C1867 1.433 . S
C1866 C1862 1.350 . S
C1866 C1863 1.463 . S
C1866 N1870 1.427 . S
C1867 H1857 0.929 . S
C1867 C1865 1.433 . S
C1867 N1870 1.384 . S
C1868 H1859 0.929 . S
C1868 C1860 1.378 . S
C1868 C1863 1.350 . S
C1869 H1856 0.929 . S
C1869 C1861 1.433 . S
C1869 N1871 1.384 . S
N1870 C1866 1.427 . S
N1870 C1867 1.384 . S
N1871 C1863 1.427 . S
N1871 C1869 1.384 . S
H1872 C1878 0.931 . S
H1873 C1882 0.930 . S
H1874 C1887 0.929 . S
H1875 C1885 0.929 . S
H1876 C1880 0.929 . S
H1877 C1886 0.929 . S
C1878 H1872 0.931 . S
C1878 C1879 1.367 1_655 S
C1878 C1886 1.378 . S
C1879 C1878 1.367 1_455 S
C1879 C1887 1.433 . S
C1880 H1876 0.929 . S
C1880 C1882 1.378 . S
C1880 C1884 1.350 . S
C1881 C1884 1.463 . S
C1881 C1886 1.350 . S
C1881 N1889 1.427 . S
C1882 H1873 0.930 . S
C1882 C1880 1.378 . S
C1882 C1883 1.367 . S
C1883 C1882 1.367 . S
C1883 C1885 1.433 . S
C1884 C1880 1.350 . S
C1884 C1881 1.463 . S
C1884 N1888 1.427 . S
C1885 H1875 0.929 . S
C1885 C1883 1.433 . S
C1885 N1888 1.384 . S
C1886 H1877 0.929 . S
C1886 C1878 1.378 . S
C1886 C1881 1.350 . S
C1887 H1874 0.929 . S
C1887 C1879 1.433 . S
C1887 N1889 1.384 1_455 S
N1888 C1884 1.427 . S
N1888 C1885 1.384 . S
N1889 C1881 1.427 . S
N1889 C1887 1.384 1_655 S
H1890 C1896 0.930 . S
H1891 C1900 0.930 . S
H1892 C1905 0.929 . S
H1893 C1903 0.929 . S
H1894 C1898 0.929 . S
H1895 C1904 0.929 . S
C1896 H1890 0.930 . S
C1896 C1897 1.367 . S
C1896 C1904 1.378 . S
C1897 C1896 1.367 . S
C1897 C1905 1.433 . S
C1898 H1894 0.929 . S
C1898 C1900 1.378 . S
C1898 C1902 1.350 . S
C1899 C1902 1.463 . S
C1899 C1904 1.350 . S
C1899 N1907 1.427 . S
C1900 H1891 0.930 . S
C1900 C1898 1.378 . S
C1900 C1901 1.367 . S
C1901 C1900 1.367 . S
C1901 C1903 1.433 . S
C1902 C1898 1.350 . S
C1902 C1899 1.463 . S
C1902 N1906 1.427 . S
C1903 H1893 0.929 . S
C1903 C1901 1.433 . S
C1903 N1906 1.384 . S
C1904 H1895 0.929 . S
C1904 C1896 1.378 . S
C1904 C1899 1.350 . S
C1905 H1892 0.929 . S
C1905 C1897 1.433 . S
C1905 N1907 1.384 . S
N1906 C1902 1.427 . S
N1906 C1903 1.384 . S
N1907 C1899 1.427 . S
N1907 C1905 1.384 . S
H1908 C1914 0.930 . S
H1909 C1918 0.930 . S
H1910 C1923 0.929 . S
H1911 C1921 0.929 . S
H1912 C1916 0.929 . S
H1913 C1922 0.929 . S
C1914 H1908 0.930 . S
C1914 C1915 1.367 . S
C1914 C1922 1.378 1_565 S
C1915 C1914 1.367 . S
C1915 C1923 1.433 . S
C1916 H1912 0.929 . S
C1916 C1918 1.378 . S
C1916 C1920 1.350 . S
C1917 C1920 1.463 . S
C1917 C1922 1.350 . S
C1917 N1925 1.427 . S
C1918 H1909 0.930 . S
C1918 C1916 1.378 . S
C1918 C1919 1.367 . S
C1919 C1918 1.367 . S
C1919 C1921 1.433 . S
C1920 C1916 1.350 . S
C1920 C1917 1.463 . S
C1920 N1924 1.427 . S
C1921 H1911 0.929 . S
C1921 C1919 1.433 . S
C1921 N1924 1.384 . S
C1922 H1913 0.929 . S
C1922 C1914 1.378 1_545 S
C1922 C1917 1.350 . S
C1923 H1910 0.929 . S
C1923 C1915 1.433 . S
C1923 N1925 1.384 1_565 S
N1924 C1920 1.427 . S
N1924 C1921 1.384 . S
N1925 C1917 1.427 . S
N1925 C1923 1.384 1_545 S
H1926 C1932 0.930 . S
H1927 C1936 0.930 . S
H1928 C1941 0.929 . S
H1929 C1939 0.929 . S
H1930 C1934 0.929 . S
H1931 C1940 0.929 . S
C1932 H1926 0.930 . S
C1932 C1933 1.367 . S
C1932 C1940 1.378 . S
C1933 C1932 1.367 . S
C1933 C1941 1.433 . S
C1934 H1930 0.929 . S
C1934 C1936 1.378 . S
C1934 C1938 1.350 . S
C1935 C1938 1.463 . S
C1935 C1940 1.350 . S
C1935 N1943 1.427 . S
C1936 H1927 0.930 . S
C1936 C1934 1.378 . S
C1936 C1937 1.367 . S
C1937 C1936 1.367 . S
C1937 C1939 1.433 . S
C1938 C1934 1.350 . S
C1938 C1935 1.463 . S
C1938 N1942 1.427 . S
C1939 H1929 0.929 . S
C1939 C1937 1.433 . S
C1939 N1942 1.384 . S
C1940 H1931 0.929 . S
C1940 C1932 1.378 . S
C1940 C1935 1.350 . S
C1941 H1928 0.929 . S
C1941 C1933 1.433 . S
C1941 N1943 1.384 . S
N1942 C1938 1.427 . S
N1942 C1939 1.384 . S
N1943 C1935 1.427 . S
N1943 C1941 1.384 . S
H1944 C1950 0.930 . S
H1945 C1954 0.930 . S
H1946 C1959 0.929 . S
H1947 C1957 0.929 . S
H1948 C1952 0.929 . S
H1949 C1958 0.929 . S
C1950 H1944 0.930 . S
C1950 C1951 1.367 . S
C1950 C1958 1.378 . S
C1951 C1950 1.367 . S
C1951 C1959 1.433 . S
C1952 H1948 0.929 . S
C1952 C1954 1.378 . S
C1952 C1956 1.350 . S
C1953 C1956 1.463 . S
C1953 C1958 1.350 . S
C1953 N1961 1.427 . S
C1954 H1945 0.930 . S
C1954 C1952 1.378 . S
C1954 C1955 1.367 . S
C1955 C1954 1.367 . S
C1955 C1957 1.433 . S
C1956 C1952 1.350 . S
C1956 C1953 1.463 . S
C1956 N1960 1.427 . S
C1957 H1947 0.929 . S
C1957 C1955 1.433 . S
C1957 N1960 1.384 . S
C1958 H1949 0.929 . S
C1958 C1950 1.378 . S
C1958 C1953 1.350 . S
C1959 H1946 0.929 . S
C1959 C1951 1.433 . S
C1959 N1961 1.384 . S
N1960 C1956 1.427 . S
N1960 C1957 1.384 . S
N1961 C1953 1.427 . S
N1961 C1959 1.384 . S
H1962 C1968 0.930 . S
H1963 C1972 0.930 . S
H1964 C1977 0.929 . S
H1965 C1975 0.929 . S
H1966 C1970 0.929 . S
H1967 C1976 0.929 . S
C1968 H1962 0.930 . S
C1968 C1969 1.367 . S
C1968 C1976 1.378 . S
C1969 C1968 1.367 . S
C1969 C1977 1.433 . S
C1970 H1966 0.929 . S
C1970 C1972 1.378 . S
C1970 C1974 1.350 . S
C1971 C1974 1.463 . S
C1971 C1976 1.350 . S
C1971 N1979 1.427 . S
C1972 H1963 0.930 . S
C1972 C1970 1.378 . S
C1972 C1973 1.367 . S
C1973 C1972 1.367 . S
C1973 C1975 1.433 . S
C1974 C1970 1.350 . S
C1974 C1971 1.463 . S
C1974 N1978 1.427 . S
C1975 H1965 0.929 . S
C1975 C1973 1.433 . S
C1975 N1978 1.384 . S
C1976 H1967 0.929 . S
C1976 C1968 1.378 . S
C1976 C1971 1.350 . S
C1977 H1964 0.929 . S
C1977 C1969 1.433 . S
C1977 N1979 1.384 . S
N1978 C1974 1.427 . S
N1978 C1975 1.384 . S
N1979 C1971 1.427 . S
N1979 C1977 1.384 . S
H1980 C1986 0.930 . S
H1981 C1990 0.930 . S
H1982 C1995 0.929 . S
H1983 C1993 0.929 1_545 S
H1984 C1988 0.929 . S
H1985 C1994 0.929 . S
C1986 H1980 0.930 . S
C1986 C1987 1.367 . S
C1986 C1994 1.378 . S
C1987 C1986 1.367 . S
C1987 C1995 1.433 . S
C1988 H1984 0.929 . S
C1988 C1990 1.378 . S
C1988 C1992 1.350 . S
C1989 C1992 1.463 . S
C1989 C1994 1.350 . S
C1989 N1997 1.427 . S
C1990 H1981 0.930 . S
C1990 C1988 1.378 . S
C1990 C1991 1.367 . S
C1991 C1990 1.367 . S
C1991 C1993 1.433 . S
C1992 C1988 1.350 . S
C1992 C1989 1.463 . S
C1992 N1996 1.427 . S
C1993 H1983 0.929 1_565 S
C1993 C1991 1.433 . S
C1993 N1996 1.384 . S
C1994 H1985 0.929 . S
C1994 C1986 1.378 . S
C1994 C1989 1.350 . S
C1995 H1982 0.929 . S
C1995 C1987 1.433 . S
C1995 N1997 1.384 . S
N1996 C1992 1.427 . S
N1996 C1993 1.384 . S
N1997 C1989 1.427 . S
N1997 C1995 1.384 . S
H1998 C2004 0.930 . S
H1999 C2008 0.930 . S
H2000 C2013 0.929 . S
H2001 C2011 0.929 . S
H2002 C2006 0.929 . S
H2003 C2012 0.929 . S
C2004 H1998 0.930 . S
C2004 C2005 1.367 . S
C2004 C2012 1.378 . S
C2005 C2004 1.367 . S
C2005 C2013 1.433 . S
C2006 H2002 0.929 . S
C2006 C2008 1.378 . S
C2006 C2010 1.350 . S
C2007 C2010 1.463 . S
C2007 C2012 1.350 . S
C2007 N2015 1.427 . S
C2008 H1999 0.930 . S
C2008 C2006 1.378 . S
C2008 C2009 1.367 . S
C2009 C2008 1.367 . S
C2009 C2011 1.433 . S
C2010 C2006 1.350 . S
C2010 C2007 1.463 . S
C2010 N2014 1.427 . S
C2011 H2001 0.929 . S
C2011 C2009 1.433 . S
C2011 N2014 1.384 . S
C2012 H2003 0.929 . S
C2012 C2004 1.378 . S
C2012 C2007 1.350 . S
C2013 H2000 0.929 . S
C2013 C2005 1.433 . S
C2013 N2015 1.384 . S
N2014 C2010 1.427 . S
N2014 C2011 1.384 . S
N2015 C2007 1.427 . S
N2015 C2013 1.384 . S
H2016 C2022 0.930 . S
H2017 C2026 0.930 . S
H2018 C2031 0.929 . S
H2019 C2029 0.929 . S
H2020 C2024 0.929 . S
H2021 C2030 0.929 . S
C2022 H2016 0.930 . S
C2022 C2023 1.367 . S
C2022 C2030 1.378 . S
C2023 C2022 1.367 . S
C2023 C2031 1.433 . S
C2024 H2020 0.929 . S
C2024 C2026 1.378 . S
C2024 C2028 1.350 . S
C2025 C2028 1.463 . S
C2025 C2030 1.350 . S
C2025 N2033 1.427 . S
C2026 H2017 0.930 . S
C2026 C2024 1.378 . S
C2026 C2027 1.367 . S
C2027 C2026 1.367 . S
C2027 C2029 1.433 . S
C2028 C2024 1.350 . S
C2028 C2025 1.463 . S
C2028 N2032 1.427 . S
C2029 H2019 0.929 . S
C2029 C2027 1.433 . S
C2029 N2032 1.384 . S
C2030 H2021 0.929 . S
C2030 C2022 1.378 . S
C2030 C2025 1.350 . S
C2031 H2018 0.929 . S
C2031 C2023 1.433 . S
C2031 N2033 1.384 . S
N2032 C2028 1.427 . S
N2032 C2029 1.384 . S
N2033 C2025 1.427 . S
N2033 C2031 1.384 . S
H2034 C2040 0.930 . S
H2035 C2044 0.930 . S
H2036 C2049 0.929 . S
H2037 C2047 0.929 . S
H2038 C2042 0.929 . S
H2039 C2048 0.929 . S
C2040 H2034 0.930 . S
C2040 C2041 1.367 . S
C2040 C2048 1.378 . S
C2041 C2040 1.367 . S
C2041 C2049 1.433 . S
C2042 H2038 0.929 . S
C2042 C2044 1.378 . S
C2042 C2046 1.350 . S
C2043 C2046 1.463 . S
C2043 C2048 1.350 . S
C2043 N2051 1.427 . S
C2044 H2035 0.930 . S
C2044 C2042 1.378 . S
C2044 C2045 1.367 . S
C2045 C2044 1.367 . S
C2045 C2047 1.433 . S
C2046 C2042 1.350 . S
C2046 C2043 1.463 . S
C2046 N2050 1.427 . S
C2047 H2037 0.929 . S
C2047 C2045 1.433 . S
C2047 N2050 1.384 . S
C2048 H2039 0.929 . S
C2048 C2040 1.378 . S
C2048 C2043 1.350 . S
C2049 H2036 0.929 . S
C2049 C2041 1.433 . S
C2049 N2051 1.384 . S
N2050 C2046 1.427 . S
N2050 C2047 1.384 . S
N2051 C2043 1.427 . S
N2051 C2049 1.384 . S
H2052 C2058 0.930 . S
H2053 C2062 0.930 . S
H2054 C2067 0.929 . S
H2055 C2065 0.929 . S
H2056 C2060 0.929 . S
H2057 C2066 0.929 . S
C2058 H2052 0.930 . S
C2058 C2059 1.367 . S
C2058 C2066 1.378 . S
C2059 C2058 1.367 . S
C2059 C2067 1.433 . S
C2060 H2056 0.929 . S
C2060 C2062 1.378 . S
C2060 C2064 1.350 . S
C2061 C2064 1.463 . S
C2061 C2066 1.350 . S
C2061 N2069 1.427 . S
C2062 H2053 0.930 . S
C2062 C2060 1.378 . S
C2062 C2063 1.367 . S
C2063 C2062 1.367 . S
C2063 C2065 1.433 . S
C2064 C2060 1.350 . S
C2064 C2061 1.463 . S
C2064 N2068 1.427 . S
C2065 H2055 0.929 . S
C2065 C2063 1.433 . S
C2065 N2068 1.384 . S
C2066 H2057 0.929 . S
C2066 C2058 1.378 . S
C2066 C2061 1.350 . S
C2067 H2054 0.929 . S
C2067 C2059 1.433 . S
C2067 N2069 1.384 . S
N2068 C2064 1.427 . S
N2068 C2065 1.384 . S
N2069 C2061 1.427 . S
N2069 C2067 1.384 . S
H2070 C2076 0.930 . S
H2071 C2080 0.930 . S
H2072 C2085 0.929 . S
H2073 C2083 0.929 1_565 S
H2074 C2078 0.929 . S
H2075 C2084 0.929 . S
C2076 H2070 0.930 . S
C2076 C2077 1.367 . S
C2076 C2084 1.378 . S
C2077 C2076 1.367 . S
C2077 C2085 1.433 . S
C2078 H2074 0.929 . S
C2078 C2080 1.378 . S
C2078 C2082 1.350 . S
C2079 C2082 1.463 . S
C2079 C2084 1.350 . S
C2079 N2087 1.427 . S
C2080 H2071 0.930 . S
C2080 C2078 1.378 . S
C2080 C2081 1.367 . S
C2081 C2080 1.367 . S
C2081 C2083 1.433 . S
C2082 C2078 1.350 . S
C2082 C2079 1.463 . S
C2082 N2086 1.427 . S
C2083 H2073 0.929 1_545 S
C2083 C2081 1.433 . S
C2083 N2086 1.384 . S
C2084 H2075 0.929 . S
C2084 C2076 1.378 . S
C2084 C2079 1.350 . S
C2085 H2072 0.929 . S
C2085 C2077 1.433 . S
C2085 N2087 1.384 . S
N2086 C2082 1.427 . S
N2086 C2083 1.384 . S
N2087 C2079 1.427 . S
N2087 C2085 1.384 . S
H2088 C2094 0.930 . S
H2089 C2098 0.930 . S
H2090 C2103 0.929 . S
H2091 C2101 0.929 . S
H2092 C2096 0.929 . S
H2093 C2102 0.929 . S
C2094 H2088 0.930 . S
C2094 C2095 1.367 . S
C2094 C2102 1.378 . S
C2095 C2094 1.367 . S
C2095 C2103 1.433 . S
C2096 H2092 0.929 . S
C2096 C2098 1.378 . S
C2096 C2100 1.350 . S
C2097 C2100 1.463 . S
C2097 C2102 1.350 . S
C2097 N2105 1.427 . S
C2098 H2089 0.930 . S
C2098 C2096 1.378 . S
C2098 C2099 1.367 . S
C2099 C2098 1.367 . S
C2099 C2101 1.433 . S
C2100 C2096 1.350 . S
C2100 C2097 1.463 . S
C2100 N2104 1.427 . S
C2101 H2091 0.929 . S
C2101 C2099 1.433 . S
C2101 N2104 1.384 . S
C2102 H2093 0.929 . S
C2102 C2094 1.378 . S
C2102 C2097 1.350 . S
C2103 H2090 0.929 . S
C2103 C2095 1.433 . S
C2103 N2105 1.384 . S
N2104 C2100 1.427 . S
N2104 C2101 1.384 . S
N2105 C2097 1.427 . S
N2105 C2103 1.384 . S
H2106 C2112 0.930 . S
H2107 C2116 0.930 . S
H2108 C2121 0.929 . S
H2109 C2119 0.929 . S
H2110 C2114 0.929 . S
H2111 C2120 0.929 . S
C2112 H2106 0.930 . S
C2112 C2113 1.367 . S
C2112 C2120 1.378 . S
C2113 C2112 1.367 . S
C2113 C2121 1.433 . S
C2114 H2110 0.929 . S
C2114 C2116 1.378 . S
C2114 C2118 1.350 . S
C2115 C2118 1.463 . S
C2115 C2120 1.350 . S
C2115 N2123 1.427 . S
C2116 H2107 0.930 . S
C2116 C2114 1.378 . S
C2116 C2117 1.367 . S
C2117 C2116 1.367 . S
C2117 C2119 1.433 . S
C2118 C2114 1.350 . S
C2118 C2115 1.463 . S
C2118 N2122 1.427 . S
C2119 H2109 0.929 . S
C2119 C2117 1.433 . S
C2119 N2122 1.384 . S
C2120 H2111 0.929 . S
C2120 C2112 1.378 . S
C2120 C2115 1.350 . S
C2121 H2108 0.929 . S
C2121 C2113 1.433 . S
C2121 N2123 1.384 . S
N2122 C2118 1.427 . S
N2122 C2119 1.384 . S
N2123 C2115 1.427 . S
N2123 C2121 1.384 . S
H2124 C2130 0.930 . S
H2125 C2134 0.930 . S
H2126 C2139 0.929 . S
H2127 C2137 0.929 . S
H2128 C2132 0.929 . S
H2129 C2138 0.929 . S
C2130 H2124 0.930 . S
C2130 C2131 1.367 . S
C2130 C2138 1.378 . S
C2131 C2130 1.367 . S
C2131 C2139 1.433 . S
C2132 H2128 0.929 . S
C2132 C2134 1.378 . S
C2132 C2136 1.350 . S
C2133 C2136 1.463 . S
C2133 C2138 1.350 . S
C2133 N2141 1.427 . S
C2134 H2125 0.930 . S
C2134 C2132 1.378 . S
C2134 C2135 1.367 . S
C2135 C2134 1.367 . S
C2135 C2137 1.433 . S
C2136 C2132 1.350 . S
C2136 C2133 1.463 . S
C2136 N2140 1.427 . S
C2137 H2127 0.929 . S
C2137 C2135 1.433 . S
C2137 N2140 1.384 . S
C2138 H2129 0.929 . S
C2138 C2130 1.378 . S
C2138 C2133 1.350 . S
C2139 H2126 0.929 . S
C2139 C2131 1.433 . S
C2139 N2141 1.384 . S
N2140 C2136 1.427 . S
N2140 C2137 1.384 . S
N2141 C2133 1.427 . S
N2141 C2139 1.384 . S
H2142 C2148 0.930 . S
H2143 C2152 0.930 . S
H2144 C2157 0.929 . S
H2145 C2155 0.929 . S
H2146 C2150 0.929 . S
H2147 C2156 0.929 . S
C2148 H2142 0.930 . S
C2148 C2149 1.367 . S
C2148 C2156 1.378 . S
C2149 C2148 1.367 . S
C2149 C2157 1.433 . S
C2150 H2146 0.929 . S
C2150 C2152 1.378 . S
C2150 C2154 1.350 . S
C2151 C2154 1.463 . S
C2151 C2156 1.350 . S
C2151 N2159 1.427 . S
C2152 H2143 0.930 . S
C2152 C2150 1.378 . S
C2152 C2153 1.367 . S
C2153 C2152 1.367 . S
C2153 C2155 1.433 . S
C2154 C2150 1.350 . S
C2154 C2151 1.463 . S
C2154 N2158 1.427 . S
C2155 H2145 0.929 . S
C2155 C2153 1.433 . S
C2155 N2158 1.384 . S
C2156 H2147 0.929 . S
C2156 C2148 1.378 . S
C2156 C2151 1.350 . S
C2157 H2144 0.929 . S
C2157 C2149 1.433 . S
C2157 N2159 1.384 . S
N2158 C2154 1.427 . S
N2158 C2155 1.384 . S
N2159 C2151 1.427 . S
N2159 C2157 1.384 . S
H2160 C2166 0.930 . S
H2161 C2170 0.930 . S
H2162 C2175 0.929 . S
H2163 C2173 0.929 . S
H2164 C2168 0.929 . S
H2165 C2174 0.929 . S
C2166 H2160 0.930 . S
C2166 C2167 1.367 . S
C2166 C2174 1.378 . S
C2167 C2166 1.367 . S
C2167 C2175 1.433 . S
C2168 H2164 0.929 . S
C2168 C2170 1.378 . S
C2168 C2172 1.350 . S
C2169 C2172 1.463 . S
C2169 C2174 1.350 . S
C2169 N2177 1.427 . S
C2170 H2161 0.930 . S
C2170 C2168 1.378 . S
C2170 C2171 1.367 . S
C2171 C2170 1.367 . S
C2171 C2173 1.433 . S
C2172 C2168 1.350 . S
C2172 C2169 1.463 . S
C2172 N2176 1.427 . S
C2173 H2163 0.929 . S
C2173 C2171 1.433 . S
C2173 N2176 1.384 . S
C2174 H2165 0.929 . S
C2174 C2166 1.378 . S
C2174 C2169 1.350 . S
C2175 H2162 0.929 . S
C2175 C2167 1.433 . S
C2175 N2177 1.384 . S
N2176 C2172 1.427 . S
N2176 C2173 1.384 . S
N2177 C2169 1.427 . S
N2177 C2175 1.384 . S
H2178 C2184 0.930 . S
H2179 C2188 0.930 . S
H2180 C2193 0.929 . S
H2181 C2191 0.929 . S
H2182 C2186 0.929 . S
H2183 C2192 0.929 . S
C2184 H2178 0.930 . S
C2184 C2185 1.367 . S
C2184 C2192 1.378 . S
C2185 C2184 1.367 . S
C2185 C2193 1.433 . S
C2186 H2182 0.929 . S
C2186 C2188 1.378 . S
C2186 C2190 1.350 . S
C2187 C2190 1.463 . S
C2187 C2192 1.350 . S
C2187 N2195 1.427 . S
C2188 H2179 0.930 . S
C2188 C2186 1.378 . S
C2188 C2189 1.367 . S
C2189 C2188 1.367 . S
C2189 C2191 1.433 . S
C2190 C2186 1.350 . S
C2190 C2187 1.463 . S
C2190 N2194 1.427 . S
C2191 H2181 0.929 . S
C2191 C2189 1.433 . S
C2191 N2194 1.384 . S
C2192 H2183 0.929 . S
C2192 C2184 1.378 . S
C2192 C2187 1.350 . S
C2193 H2180 0.929 . S
C2193 C2185 1.433 . S
C2193 N2195 1.384 . S
N2194 C2190 1.427 . S
N2194 C2191 1.384 . S
N2195 C2187 1.427 . S
N2195 C2193 1.384 . S
H2196 C2202 0.930 . S
H2197 C2206 0.930 . S
H2198 C2211 0.929 . S
H2199 C2209 0.929 . S
H2200 C2204 0.929 . S
H2201 C2210 0.929 . S
C2202 H2196 0.930 . S
C2202 C2203 1.367 . S
C2202 C2210 1.378 . S
C2203 C2202 1.367 . S
C2203 C2211 1.433 . S
C2204 H2200 0.929 . S
C2204 C2206 1.378 . S
C2204 C2208 1.350 . S
C2205 C2208 1.463 . S
C2205 C2210 1.350 . S
C2205 N2213 1.427 . S
C2206 H2197 0.930 . S
C2206 C2204 1.378 . S
C2206 C2207 1.367 . S
C2207 C2206 1.367 . S
C2207 C2209 1.433 . S
C2208 C2204 1.350 . S
C2208 C2205 1.463 . S
C2208 N2212 1.427 . S
C2209 H2199 0.929 . S
C2209 C2207 1.433 . S
C2209 N2212 1.384 . S
C2210 H2201 0.929 . S
C2210 C2202 1.378 . S
C2210 C2205 1.350 . S
C2211 H2198 0.929 . S
C2211 C2203 1.433 . S
C2211 N2213 1.384 . S
N2212 C2208 1.427 . S
N2212 C2209 1.384 . S
N2213 C2205 1.427 . S
N2213 C2211 1.384 . S
H2214 C2220 0.930 . S
H2215 C2224 0.930 . S
H2216 C2229 0.929 . S
H2217 C2227 0.929 . S
H2218 C2222 0.929 . S
H2219 C2228 0.929 . S
C2220 H2214 0.930 . S
C2220 C2221 1.367 . S
C2220 C2228 1.378 . S
C2221 C2220 1.367 . S
C2221 C2229 1.433 . S
C2222 H2218 0.929 . S
C2222 C2224 1.378 . S
C2222 C2226 1.350 . S
C2223 C2226 1.463 . S
C2223 C2228 1.350 . S
C2223 N2231 1.427 . S
C2224 H2215 0.930 . S
C2224 C2222 1.378 . S
C2224 C2225 1.367 . S
C2225 C2224 1.367 . S
C2225 C2227 1.433 . S
C2226 C2222 1.350 . S
C2226 C2223 1.463 . S
C2226 N2230 1.427 . S
C2227 H2217 0.929 . S
C2227 C2225 1.433 . S
C2227 N2230 1.384 . S
C2228 H2219 0.929 . S
C2228 C2220 1.378 . S
C2228 C2223 1.350 . S
C2229 H2216 0.929 . S
C2229 C2221 1.433 . S
C2229 N2231 1.384 . S
N2230 C2226 1.427 . S
N2230 C2227 1.384 . S
N2231 C2223 1.427 . S
N2231 C2229 1.384 . S
H2232 C2238 0.930 . S
H2233 C2242 0.930 . S
H2234 C2247 0.929 . S
H2235 C2245 0.929 . S
H2236 C2240 0.929 . S
H2237 C2246 0.929 . S
C2238 H2232 0.930 . S
C2238 C2239 1.367 . S
C2238 C2246 1.378 . S
C2239 C2238 1.367 . S
C2239 C2247 1.433 . S
C2240 H2236 0.929 . S
C2240 C2242 1.378 . S
C2240 C2244 1.350 . S
C2241 C2244 1.463 . S
C2241 C2246 1.350 . S
C2241 N2249 1.427 . S
C2242 H2233 0.930 . S
C2242 C2240 1.378 . S
C2242 C2243 1.367 . S
C2243 C2242 1.367 . S
C2243 C2245 1.433 . S
C2244 C2240 1.350 . S
C2244 C2241 1.463 . S
C2244 N2248 1.427 . S
C2245 H2235 0.929 . S
C2245 C2243 1.433 . S
C2245 N2248 1.384 . S
C2246 H2237 0.929 . S
C2246 C2238 1.378 . S
C2246 C2241 1.350 . S
C2247 H2234 0.929 . S
C2247 C2239 1.433 . S
C2247 N2249 1.384 . S
N2248 C2244 1.427 . S
N2248 C2245 1.384 . S
N2249 C2241 1.427 . S
N2249 C2247 1.384 . S
H2250 C2256 0.930 . S
H2251 C2260 0.930 . S
H2252 C2265 0.929 . S
H2253 C2263 0.929 . S
H2254 C2258 0.929 . S
H2255 C2264 0.929 . S
C2256 H2250 0.930 . S
C2256 C2257 1.367 . S
C2256 C2264 1.378 . S
C2257 C2256 1.367 . S
C2257 C2265 1.433 . S
C2258 H2254 0.929 . S
C2258 C2260 1.378 . S
C2258 C2262 1.350 . S
C2259 C2262 1.463 . S
C2259 C2264 1.350 . S
C2259 N2267 1.427 . S
C2260 H2251 0.930 . S
C2260 C2258 1.378 . S
C2260 C2261 1.367 . S
C2261 C2260 1.367 . S
C2261 C2263 1.433 . S
C2262 C2258 1.350 . S
C2262 C2259 1.463 . S
C2262 N2266 1.427 . S
C2263 H2253 0.929 . S
C2263 C2261 1.433 . S
C2263 N2266 1.384 . S
C2264 H2255 0.929 . S
C2264 C2256 1.378 . S
C2264 C2259 1.350 . S
C2265 H2252 0.929 . S
C2265 C2257 1.433 . S
C2265 N2267 1.384 . S
N2266 C2262 1.427 . S
N2266 C2263 1.384 . S
N2267 C2259 1.427 . S
N2267 C2265 1.384 . S
H2268 C2274 0.930 . S
H2269 C2278 0.930 . S
H2270 C2283 0.929 . S
H2271 C2281 0.929 . S
H2272 C2276 0.929 . S
H2273 C2282 0.929 . S
C2274 H2268 0.930 . S
C2274 C2275 1.367 . S
C2274 C2282 1.378 . S
C2275 C2274 1.367 . S
C2275 C2283 1.433 . S
C2276 H2272 0.929 . S
C2276 C2278 1.378 . S
C2276 C2280 1.350 . S
C2277 C2280 1.463 . S
C2277 C2282 1.350 . S
C2277 N2285 1.427 . S
C2278 H2269 0.930 . S
C2278 C2276 1.378 . S
C2278 C2279 1.367 . S
C2279 C2278 1.367 . S
C2279 C2281 1.433 . S
C2280 C2276 1.350 . S
C2280 C2277 1.463 . S
C2280 N2284 1.427 . S
C2281 H2271 0.929 . S
C2281 C2279 1.433 . S
C2281 N2284 1.384 . S
C2282 H2273 0.929 . S
C2282 C2274 1.378 . S
C2282 C2277 1.350 . S
C2283 H2270 0.929 . S
C2283 C2275 1.433 . S
C2283 N2285 1.384 . S
N2284 C2280 1.427 . S
N2284 C2281 1.384 . S
N2285 C2277 1.427 . S
N2285 C2283 1.384 . S
H2286 C2292 0.930 . S
H2287 C2296 0.930 . S
H2288 C2301 0.929 . S
H2289 C2299 0.929 . S
H2290 C2294 0.929 . S
H2291 C2300 0.929 . S
C2292 H2286 0.930 . S
C2292 C2293 1.367 . S
C2292 C2300 1.378 . S
C2293 C2292 1.367 . S
C2293 C2301 1.433 . S
C2294 H2290 0.929 . S
C2294 C2296 1.378 . S
C2294 C2298 1.350 . S
C2295 C2298 1.463 . S
C2295 C2300 1.350 . S
C2295 N2303 1.427 . S
C2296 H2287 0.930 . S
C2296 C2294 1.378 . S
C2296 C2297 1.367 . S
C2297 C2296 1.367 . S
C2297 C2299 1.433 . S
C2298 C2294 1.350 . S
C2298 C2295 1.463 . S
C2298 N2302 1.427 . S
C2299 H2289 0.929 . S
C2299 C2297 1.433 . S
C2299 N2302 1.384 . S
C2300 H2291 0.929 . S
C2300 C2292 1.378 . S
C2300 C2295 1.350 . S
C2301 H2288 0.929 . S
C2301 C2293 1.433 . S
C2301 N2303 1.384 . S
N2302 C2298 1.427 . S
N2302 C2299 1.384 . S
N2303 C2295 1.427 . S
N2303 C2301 1.384 . S
C1339 C439 1.350 . S
C1343 C632 1.333 . S
C1357 C465 1.511 . S
C1361 C716 1.441 . S
C1375 C401 1.472 . S
C1379 C810 1.421 . S
C1393 C369 1.426 . S
C1397 C726 1.400 . S
C1415 C800 1.387 . S
C1411 C305 1.455 . S
C1429 C343 1.327 . S
C1433 C642 1.338 . S
C1451 C643 1.359 . S
C1447 C375 1.439 . S
C1469 C727 1.408 . S
C1465 C311 1.472 . S
C1483 C337 1.421 . S
C1487 C819 1.426 . S
C1501 C433 1.387 . S
C1505 C735 1.390 . S
C1519 C471 1.420 . S
C1523 C811 1.359 . S
C1541 C651 1.365 . S
C1537 C407 1.415 . S
C1559 C884 1.320 . S
C1555 C55 1.358 . S
C1573 C81 1.511 . S
C1577 C968 1.444 . S
C1591 C17 1.472 . S
C1595 C1062 1.420 . S
C1609 C561 1.431 . S
C1613 C978 1.389 . S
C1627 C497 1.454 . S
C1631 C1052 1.376 . S
C1645 C535 1.324 . S
C1649 C894 1.335 . S
C1663 C567 1.436 . S
C1667 C895 1.373 . S
C1681 C503 1.473 . S
C1685 C979 1.407 . S
C1703 C1071 1.429 . S
C1699 C529 1.423 . S
C1717 C49 1.391 . S
C1721 C987 1.394 . S
C1739 C1063 1.357 . S
C1735 C87 1.416 . S
C1753 C23 1.415 . S
C1757 C903 1.365 . S
C1775 C1136 1.326 . S
C1771 C247 1.363 . S
C1789 C273 1.505 . S
C1793 C1220 1.443 . S
C1811 C1314 1.431 . S
C1807 C209 1.470 . S
C1829 C1230 1.398 . S
C1825 C177 1.426 . S
C1847 C1304 1.391 . S
C1843 C113 1.453 . S
C1861 C151 1.319 . S
C1865 C1146 1.330 . S
C1879 C183 1.438 . S
C1883 C1147 1.368 . S
C1897 C119 1.478 . S
C1901 C1231 1.412 . S
C1919 C1323 1.426 . S
C1915 C145 1.421 . S
C1933 C241 1.392 . S
C1937 C1239 1.395 . S
C1951 C279 1.416 . S
C1955 C1315 1.346 . S
C1969 C215 1.411 . S
C1973 C1155 1.377 . S
C1987 C509 1.443 . S
C1991 C639 1.374 . S
C2009 C723 1.354 . S
C2005 C541 1.446 . S
C2023 C573 1.460 . S
C2027 C816 1.344 . S
C2041 C221 1.492 . S
C2045 C732 1.362 . S
C2059 C253 1.430 . S
C2063 C807 1.340 . S
C2081 C648 1.372 . S
C2077 C285 1.442 . S
C2095 C125 1.443 . S
C2099 C891 1.372 . S
C2113 C157 1.451 . S
C2117 C975 1.356 . S
C2131 C189 1.458 . S
C2135 C1068 1.343 . S
C2149 C413 1.491 . S
C2153 C984 1.363 . S
C2171 C1059 1.316 . S
C2167 C445 1.420 . S
C2185 C477 1.454 . S
C2189 C900 1.351 . S
C2203 C317 1.453 . S
C2207 C1143 1.362 . S
C2221 C349 1.449 . S
C2225 C1227 1.357 . S
C2243 C1320 1.352 . S
C2239 C381 1.456 . S
C2257 C29 1.488 . S
C2261 C1236 1.371 . S
C2275 C61 1.422 . S
C2279 C1311 1.318 . S
C2293 C93 1.448 . S
C2297 C1152 1.362 . S
