# Generated by pormake.
# Topology pth, (4,4)-cn, num edge types: 1
# Building blocks:
#     Node 0, Type 0, BuildingBlock: NAHDIM_clean_sbu_0, # of connection points: 4
#     Node 1, Type 0, BuildingBlock: NAHDIM_clean_sbu_0, # of connection points: 4
#     Node 2, Type 0, BuildingBlock: NAHDIM_clean_sbu_0, # of connection points: 4
#     Node 3, Type 1, BuildingBlock: NAWXER_clean_linker_0, # of connection points: 4
#     Node 4, Type 1, BuildingBlock: NAWXER_clean_linker_0, # of connection points: 4
#     Node 5, Type 1, BuildingBlock: NAWXER_clean_linker_0, # of connection points: 4
#     Edge 6, Type (0, 1), BuildingBlock: MIFKUJ_clean_linker_0, # of connection points: 2
#     Edge 7, Type (0, 1), BuildingBlock: MIFKUJ_clean_linker_0, # of connection points: 2
#     Edge 8, Type (0, 1), BuildingBlock: MIFKUJ_clean_linker_0, # of connection points: 2
#     Edge 9, Type (0, 1), BuildingBlock: MIFKUJ_clean_linker_0, # of connection points: 2
#     Edge 10, Type (0, 1), BuildingBlock: MIFKUJ_clean_linker_0, # of connection points: 2
#     Edge 11, Type (0, 1), BuildingBlock: MIFKUJ_clean_linker_0, # of connection points: 2
#     Edge 12, Type (0, 1), BuildingBlock: MIFKUJ_clean_linker_0, # of connection points: 2
#     Edge 13, Type (0, 1), BuildingBlock: MIFKUJ_clean_linker_0, # of connection points: 2
#     Edge 14, Type (0, 1), BuildingBlock: MIFKUJ_clean_linker_0, # of connection points: 2
#     Edge 15, Type (0, 1), BuildingBlock: MIFKUJ_clean_linker_0, # of connection points: 2
#     Edge 16, Type (0, 1), BuildingBlock: MIFKUJ_clean_linker_0, # of connection points: 2
#     Edge 17, Type (0, 1), BuildingBlock: MIFKUJ_clean_linker_0, # of connection points: 2
# Relax obj value: 0.041
# Max RMSD: 0.165
# Mean RMSD: 0.085
data_MOF--net-pth--node1-NAHDIM_clean_sbu_0--node2-NAWXER_clean_linker_0--edge1-MIFKUJ_clean_linker_0
_symmetry_space_group_name_H-M    P1
_symmetry_Int_Tables_number       1
_symmetry_cell_setting            triclinic
loop_
_symmetry_equiv_pos_as_xyz
'x, y, z'
_cell_length_a     36.110843
_cell_length_b     36.307895
_cell_length_c     80.519784
_cell_angle_alpha  91.831818
_cell_angle_beta   90.073179
_cell_angle_gamma 120.55335
loop_
_atom_site_label
_atom_site_type_symbol
_atom_site_fract_x
_atom_site_fract_y
_atom_site_fract_z
_atom_type_partial_charge
C0 C 0.06561 0.00629 0.07243 0.0
O1 O 0.07236 0.04187 0.07996 0.0
O2 O 0.02001 0.06825 0.06329 0.0
Zn3 Zn 0.03078 0.03332 0.04632 0.0
O4 O 0.97637 0.99398 0.03336 0.0
C5 C 0.0619 0.09086 0.02027 0.0
O6 O 0.02114 0.07976 0.02002 0.0
O7 O 0.04991 0.99717 0.05772 0.0
C8 C 0.97875 0.97891 0.0192 0.0
O9 O 0.01669 0.98898 0.01348 0.0
C10 C 0.9842 0.0561 0.07018 0.0
O11 O 0.95111 0.01816 0.0662 0.0
O12 O 0.07507 0.07451 0.03081 0.0
C13 C 0.02755 0.10549 0.3553 0.0
O14 O 0.99038 0.07139 0.35839 0.0
O15 O 0.03112 0.00948 0.36163 0.0
Zn16 Zn 0.04993 0.06135 0.37663 0.0
O17 O 0.00223 0.05233 0.3919 0.0
C18 C 0.0963 0.05429 0.40382 0.0
O19 O 0.05683 0.02967 0.40886 0.0
O20 O 0.06143 0.10992 0.36212 0.0
C21 C 0.01011 0.07919 0.40384 0.0
O22 O 0.04943 0.11175 0.40614 0.0
C23 C 0.01397 0.97176 0.36687 0.0
O24 O 0.00727 0.96564 0.38284 0.0
O25 O 0.10227 0.0725 0.39004 0.0
C26 C 0.04841 0.96101 0.68653 0.0
O27 O 0.01153 0.95049 0.67929 0.0
O28 O 0.98543 0.00729 0.69353 0.0
Zn29 Zn 0.01878 -0.00166 0.71128 0.0
O30 O 0.05451 0.0532 0.72466 0.0
C31 C 0.94958 0.9638 0.73271 0.0
O32 O 0.95265 0.00026 0.72906 0.0
O33 O 0.05777 0.98032 0.7007 0.0
C34 C 0.06503 0.05195 0.7396 0.0
O35 O 0.05275 0.01465 0.74596 0.0
C36 C -0.00173 0.04258 0.68657 0.0
O37 O 0.03573 0.07588 0.69097 0.0
O38 O 0.9759 0.95422 0.72631 0.0
C39 C 0.97722 0.39075 0.23579 0.0
C40 C 0.01151 0.40412 0.24727 0.0
C41 C 0.97364 0.42066 0.22647 0.0
C42 C 0.00458 0.46438 0.22832 0.0
C43 C 0.0418 0.44803 0.24935 0.0
C44 C 0.03825 0.47783 0.24001 0.0
C45 C 0.00214 0.49667 0.21842 0.0
C46 C 0.02197 0.41051 0.18333 0.0
C47 C 0.98694 0.38686 0.17224 0.0
C48 C 0.02609 0.4458 0.19243 0.0
C49 C 0.99493 0.45773 0.19081 0.0
C50 C 0.95648 0.39971 0.17028 0.0
C51 C 0.96059 0.43499 0.17943 0.0
C52 C -0.00218 0.49376 0.20092 0.0
C53 C 0.04826 0.67277 0.18495 0.0
C54 C 0.02092 0.66529 0.17122 0.0
C55 C 0.04173 0.63915 0.19483 0.0
C56 C 0.00747 0.59743 0.19129 0.0
C57 C 0.98678 0.62342 0.16764 0.0
C58 C 0.98031 0.58977 0.17753 0.0
C59 C 0.00178 0.56137 0.20121 0.0
C60 C 0.97283 0.64174 0.23644 0.0
C61 C -0.00169 0.65673 0.25104 0.0
C62 C 0.97503 0.61191 0.22571 0.0
C63 C 0.00352 0.59736 0.22921 0.0
C64 C 0.0268 0.64225 0.25451 0.0
C65 C 0.02936 0.61285 0.2437 0.0
C66 C 0.0039 0.56322 0.21877 0.0
H67 H 0.95342 0.35714 0.23388 0.0
H68 H 0.94678 0.40962 0.21781 0.0
H69 H 0.06806 0.45945 0.25832 0.0
H70 H 0.06218 0.51147 0.24178 0.0
H71 H 0.04586 0.40133 0.18519 0.0
H72 H 0.05338 0.46351 0.20088 0.0
H73 H 0.92958 0.38264 0.16162 0.0
H74 H 0.93651 0.44405 0.17786 0.0
H75 H 0.07538 0.70444 0.18784 0.0
H76 H 0.06404 0.64566 0.20504 0.0
H77 H 0.96491 0.61665 0.15725 0.0
H78 H 0.95394 0.55776 0.17448 0.0
H79 H 0.95018 0.65199 0.23361 0.0
H80 H 0.95354 0.59936 0.21496 0.0
H81 H 0.04707 0.65361 0.26562 0.0
H82 H 0.05133 0.60191 0.24675 0.0
N83 N 0.00473 0.53113 0.22664 0.0
N84 N -0.00201 0.5263 0.19297 0.0
C85 C 0.67852 0.07161 0.52056 0.0
C86 C 0.67076 0.03919 0.50861 0.0
C87 C 0.64508 0.06878 0.53018 0.0
C88 C 0.60328 0.03358 0.52799 0.0
C89 C 0.62868 0.00403 0.50647 0.0
C90 C 0.59521 0.0015 0.51597 0.0
C91 C 0.56769 0.03016 0.53807 0.0
C92 C 0.65347 0.00781 0.57103 0.0
C93 C 0.67499 0.04059 0.58329 0.0
C94 C 0.61849 0.0042 0.56215 0.0
C95 C 0.60458 0.03346 0.56528 0.0
C96 C 0.66046 0.06935 0.58661 0.0
C97 C 0.62533 0.06561 0.57774 0.0
C98 C 0.56851 0.03074 0.55557 0.0
C99 C 0.38567 0.97305 0.57184 0.0
C100 C 0.39172 -0.0017 0.58633 0.0
C101 C 0.42042 0.98156 0.56177 0.0
C102 C 0.46184 0.01566 0.56594 0.0
C103 C 0.4333 0.03238 0.59047 0.0
C104 C 0.46804 0.04074 0.58044 0.0
C105 C 0.49918 0.02365 0.55584 0.0
C106 C 0.42021 0.05678 0.5231 0.0
C107 C 0.40765 0.03506 0.50753 0.0
C108 C 0.44934 0.05302 0.53331 0.0
C109 C 0.46553 0.02651 0.52832 0.0
C110 C 0.42393 0.00872 0.5025 0.0
C111 C 0.45255 0.00446 0.51281 0.0
C112 C 0.49921 0.02494 0.53829 0.0
H113 H 0.71028 0.09957 0.52232 0.0
H114 H 0.65176 0.09425 0.53923 0.0
H115 H 0.62158 0.97815 0.49759 0.0
H116 H 0.56309 0.97409 0.51413 0.0
H117 H 0.66403 0.9853 0.56815 0.0
H118 H 0.60238 0.97862 0.55279 0.0
H119 H 0.67602 0.09452 0.59615 0.0
H120 H 0.6148 0.08825 0.58043 0.0
H121 H 0.35425 0.9461 0.56845 0.0
H122 H 0.41505 0.96097 0.5509 0.0
H123 H 0.439 0.05283 0.60142 0.0
H124 H 0.49978 0.06704 0.58394 0.0
H125 H 0.40864 0.07784 0.52713 0.0
H126 H 0.46012 0.07192 0.54484 0.0
H127 H 0.41455 0.99148 0.49058 0.0
H128 H 0.46493 0.98423 0.50858 0.0
N129 N 0.53325 0.02749 0.53009 0.0
N130 N 0.53418 0.02731 0.56382 0.0
C131 C 0.36533 0.42187 0.85188 0.0
C132 C 0.33902 0.42778 0.84068 0.0
C133 C 0.39713 0.45637 0.86136 0.0
C134 C 0.40324 0.49748 0.85989 0.0
C135 C 0.34554 0.46919 0.83914 0.0
C136 C 0.37762 0.50379 0.84859 0.0
C137 C 0.43733 0.53402 0.86976 0.0
C138 C 0.3356 0.45105 0.90597 0.0
C139 C 0.35012 0.43087 0.91668 0.0
C140 C 0.36465 0.48456 0.89627 0.0
C141 C 0.40869 0.49859 0.89718 0.0
C142 C 0.39434 0.44509 0.91743 0.0
C143 C 0.42331 0.47887 0.90792 0.0
C144 C 0.44012 0.53412 0.88723 0.0
C145 C 0.59286 0.71092 0.90367 0.0
C146 C 0.60814 0.70019 0.91766 0.0
C147 C 0.55932 0.6789 0.89382 0.0
C148 C 0.54161 0.63554 0.89748 0.0
C149 C 0.58958 0.65708 0.92162 0.0
C150 C 0.55674 0.62508 0.91161 0.0
C151 C 0.5062 0.60075 0.88724 0.0
C152 C 0.61624 0.66503 0.85266 0.0
C153 C 0.60938 0.68575 0.83959 0.0
C154 C 0.58216 0.6373 0.86248 0.0
C155 C 0.54061 0.63015 0.85957 0.0
C156 C 0.56763 0.67816 0.83657 0.0
C157 C 0.53349 0.65034 0.84641 0.0
C158 C 0.5043 0.59984 0.86967 0.0
H159 H 0.362 0.39072 0.85309 0.0
H160 H 0.41736 0.45102 0.8697 0.0
H161 H 0.32568 0.47483 0.83072 0.0
H162 H 0.38212 0.53539 0.84721 0.0
H163 H 0.30192 0.44148 0.90526 0.0
H164 H 0.35284 0.49986 0.88822 0.0
H165 H 0.40667 0.42983 0.92523 0.0
H166 H 0.4572 0.48918 0.90874 0.0
H167 H 0.60643 0.74408 0.90053 0.0
H168 H 0.54716 0.68814 0.88343 0.0
H169 H 0.60106 0.64809 0.93231 0.0
H170 H 0.54345 0.592 0.91482 0.0
H171 H 0.64803 0.67037 0.85536 0.0
H172 H 0.58824 0.62118 0.87228 0.0
H173 H 0.56121 0.69312 0.82642 0.0
H174 H 0.50154 0.64471 0.8438 0.0
N175 N 0.46956 0.56683 0.86161 0.0
N176 N 0.47425 0.5675 0.89528 0.0
H177 H 0.91132 0.04435 0.0855 0.0
H178 H 0.90516 0.09416 0.10498 0.0
H179 H 0.04144 0.18299 0.10171 0.0
H180 H 0.04798 0.13357 0.08245 0.0
H181 H 0.01446 0.17511 0.13363 0.0
H182 H 0.9699 0.19662 0.07963 0.0
H183 H 0.92494 0.17338 0.05403 0.0
H184 H 0.8118 0.13272 0.08304 0.0
H185 H 0.85609 0.15524 0.10884 0.0
H186 H 0.04992 0.37835 0.15703 0.0
H187 H 0.04254 0.31551 0.14195 0.0
H188 H 0.90614 0.2469 0.15068 0.0
H189 H 0.91332 0.30966 0.16599 0.0
H190 H 0.92392 0.2363 0.11863 0.0
H191 H 0.96947 0.2236 0.17245 0.0
H192 H 0.01436 0.24775 0.19803 0.0
H193 H 0.12464 0.27093 0.16992 0.0
H194 H 0.08061 0.24771 0.14408 0.0
C195 C 0.93998 0.07441 0.089 0.0
C196 C 0.98009 0.08511 0.08236 0.0
C197 C 0.93638 0.10284 0.10009 0.0
C198 C 0.97281 0.14236 0.10468 0.0
C199 C 0.01295 0.15262 0.09834 0.0
C200 C 0.01657 0.12438 0.08726 0.0
C201 C 0.96945 0.17388 0.11572 0.0
C202 C 0.99484 0.18867 0.13033 0.0
C203 C 0.94279 0.19051 0.11165 0.0
C204 C 0.91622 0.17712 0.09616 0.0
C205 C 0.93539 0.1824 0.08055 0.0
C206 C 0.91005 0.16942 0.06601 0.0
C207 C 0.86553 0.15145 0.06691 0.0
C208 C 0.84628 0.14656 0.08236 0.0
C209 C 0.87148 0.15944 0.09694 0.0
C210 C 0.01841 0.34977 0.1559 0.0
C211 C 0.98224 0.34892 0.16278 0.0
C212 C 0.01423 0.3139 0.14726 0.0
C213 C 0.97388 0.27638 0.1454 0.0
C214 C 0.93756 0.27555 0.15202 0.0
C215 C 0.94171 0.31147 0.16069 0.0
C216 C 0.96988 0.23841 0.1363 0.0
C217 C 0.94305 0.22232 0.12209 0.0
C218 C 0.99515 0.22049 0.14076 0.0
C219 C 0.02175 0.23418 0.15629 0.0
C220 C 0.00336 0.23414 0.17169 0.0
C221 C 0.02865 0.24762 0.18625 0.0
C222 C 0.07232 0.26089 0.18561 0.0
C223 C 0.0908 0.26065 0.1704 0.0
C224 C 0.06568 0.2473 0.15579 0.0
H225 H 0.09183 0.2713 0.1969 0.0
H226 H 0.84596 0.14143 0.05564 0.0
H227 H 0.01867 0.11568 0.43482 0.0
H228 H 0.96107 0.10717 0.45323 0.0
H229 H 0.86623 0.0228 0.41648 0.0
H230 H 0.92355 0.03052 0.3981 0.0
H231 H 0.85584 0.09213 0.43008 0.0
H232 H 0.87786 0.97844 0.44745 0.0
H233 H 0.92135 0.9485 0.45741 0.0
H234 H 0.95754 0.03028 0.50139 0.0
H235 H 0.91476 0.0612 0.49157 0.0
H236 H 0.66699 0.01539 0.47572 0.0
H237 H 0.72502 0.02058 0.45871 0.0
H238 H 0.81355 0.07771 0.50048 0.0
H239 H 0.75493 0.06993 0.51795 0.0
H240 H 0.82917 0.02378 0.48459 0.0
H241 H 0.80985 0.13831 0.46848 0.0
H242 H 0.77005 0.17272 0.4591 0.0
H243 H 0.7338 0.09633 0.41366 0.0
H244 H 0.77291 0.06102 0.42287 0.0
C245 C 0.98555 0.09525 0.43068 0.0
C246 C 0.97554 0.07375 0.41504 0.0
C247 C 0.95277 0.09033 0.44122 0.0
C248 C 0.90957 0.06429 0.43618 0.0
C249 C 0.89947 0.04299 0.42055 0.0
C250 C 0.93219 0.04733 0.41012 0.0
C251 C 0.87486 0.05996 0.44709 0.0
C252 C 0.84952 0.07671 0.44191 0.0
C253 C 0.86791 0.04117 0.46273 0.0
C254 C 0.89349 0.02248 0.46868 0.0
C255 C 0.89543 0.99034 0.45917 0.0
C256 C 0.91988 0.97313 0.46481 0.0
C257 C 0.9423 0.98757 0.48 0.0
C258 C 0.94021 0.01918 0.48961 0.0
C259 C 0.91584 0.03653 0.48402 0.0
C260 C 0.6986 0.02843 0.48141 0.0
C261 C 0.70622 0.04237 0.49823 0.0
C262 C 0.73194 0.03193 0.47158 0.0
C263 C 0.77385 0.05034 0.47822 0.0
C264 C 0.78152 0.06367 0.49505 0.0
C265 C 0.74803 0.05965 0.50497 0.0
C266 C 0.80962 0.05569 0.46756 0.0
C267 C 0.83533 0.03927 0.47278 0.0
C268 C 0.81744 0.07549 0.45205 0.0
C269 C 0.79398 0.09674 0.44644 0.0
C270 C 0.79312 0.12862 0.45654 0.0
C271 C 0.77073 0.14832 0.45124 0.0
C272 C 0.74932 0.13664 0.43581 0.0
C273 C 0.75036 0.10531 0.42562 0.0
C274 C 0.77266 0.08547 0.43087 0.0
H275 H 0.732 0.15194 0.43173 0.0
H276 H 0.9612 0.9742 0.48435 0.0
H277 H 0.88784 0.9749 0.74743 0.0
H278 H 0.83232 0.92737 0.76621 0.0
H279 H 0.88004 0.83998 0.76291 0.0
H280 H 0.93552 0.88721 0.74382 0.0
H281 H 0.79369 0.79823 0.76001 0.0
H282 H 0.90039 0.9044 0.79737 0.0
H283 H 0.95123 0.97768 0.80811 0.0
H284 H 0.84669 0.00034 0.81573 0.0
H285 H 0.79525 0.92737 0.8048 0.0
H286 H 0.67256 0.67319 0.82701 0.0
H287 H 0.73227 0.72072 0.80961 0.0
H288 H 0.68731 0.81042 0.81041 0.0
H289 H 0.62808 0.76352 0.82824 0.0
H290 H 0.77429 0.8504 0.81519 0.0
H291 H 0.66827 0.74529 0.77681 0.0
H292 H 0.61757 0.6723 0.76575 0.0
H293 H 0.72151 0.6479 0.76006 0.0
H294 H 0.77277 0.7206 0.77131 0.0
C295 C 0.88666 0.94563 0.7507 0.0
C296 C 0.91617 0.93487 0.74416 0.0
C297 C 0.85499 0.91858 0.76151 0.0
C298 C 0.85242 0.88043 0.76613 0.0
C299 C 0.88158 0.86936 0.75953 0.0
C300 C 0.91328 0.8964 0.74866 0.0
C301 C 0.81868 0.85179 0.77761 0.0
C302 C 0.78989 0.80942 0.77219 0.0
C303 C 0.81319 0.86674 0.79334 0.0
C304 C 0.84399 0.9105 0.80012 0.0
C305 C 0.88826 0.9251 0.80123 0.0
C306 C 0.91718 0.96657 0.80736 0.0
C307 C 0.90221 0.99369 0.81256 0.0
C308 C 0.85825 0.97932 0.81168 0.0
C309 C 0.82918 0.93788 0.80553 0.0
C310 C 0.6756 0.70323 0.82362 0.0
C311 C 0.64556 0.71459 0.82898 0.0
C312 C 0.70953 0.73017 0.81357 0.0
C313 C 0.71395 0.76887 0.80859 0.0
C314 C 0.68438 0.78062 0.81408 0.0
C315 C 0.65038 0.75364 0.82414 0.0
C316 C 0.74924 0.79694 0.79754 0.0
C317 C 0.77829 0.83919 0.80304 0.0
C318 C 0.75503 0.78189 0.78189 0.0
C319 C 0.72428 0.73823 0.77506 0.0
C320 C 0.68027 0.72424 0.77332 0.0
C321 C 0.65144 0.68294 0.767 0.0
C322 C 0.66629 0.65544 0.76225 0.0
C323 C 0.71004 0.66922 0.76377 0.0
C324 C 0.739 0.71048 0.77011 0.0
H325 H 0.64392 0.62347 0.75736 0.0
H326 H 0.92466 0.0258 0.81729 0.0
H327 H 0.05554 0.93033 0.06046 0.0
H328 H 0.05446 0.87379 0.07647 0.0
H329 H 0.0844 0.9528 0.12131 0.0
H330 H 0.08635 0.00988 0.10535 0.0
H331 H 0.12588 0.90827 0.12104 0.0
H332 H 0.98135 0.87795 0.1114 0.0
H333 H 0.91949 0.8667 0.0943 0.0
H334 H 0.91724 0.76054 0.0682 0.0
H335 H 0.97952 0.77156 0.08501 0.0
H336 H 0.04366 0.74718 0.18095 0.0
H337 H 0.05728 0.80611 0.16327 0.0
H338 H 0.02862 0.72315 0.11969 0.0
H339 H 0.01544 0.66414 0.13727 0.0
H340 H 0.98852 0.76905 0.11854 0.0
H341 H 0.13131 0.79745 0.12969 0.0
H342 H 0.19251 0.80903 0.14729 0.0
H343 H 0.19729 0.91884 0.17119 0.0
H344 H 0.13568 0.90755 0.15389 0.0
C345 C 0.0625 0.93595 0.07369 0.0
C346 C 0.07052 0.97442 0.08167 0.0
C347 C 0.06173 0.90354 0.08283 0.0
C348 C 0.0685 0.9088 0.10012 0.0
C349 C 0.07889 0.94803 0.10798 0.0
C350 C 0.07989 0.98058 0.09884 0.0
C351 C 0.06214 0.87256 0.11014 0.0
C352 C 0.09574 0.87794 0.12062 0.0
C353 C 0.02302 0.83277 0.10937 0.0
C354 C 0.98536 0.82587 0.09934 0.0
C355 C 0.96786 0.8524 0.10194 0.0
C356 C 0.9327 0.84604 0.09231 0.0
C357 C 0.91452 0.813 0.08014 0.0
C358 C 0.93139 0.78617 0.07761 0.0
C359 C 0.9666 0.79244 0.08719 0.0
C360 C 0.04069 0.74157 0.1676 0.0
C361 C 0.02855 0.70097 0.16052 0.0
C362 C 0.04845 0.77527 0.15752 0.0
C363 C 0.04443 0.7691 0.14017 0.0
C364 C 0.03191 0.72856 0.13306 0.0
C365 C 0.02418 0.69483 0.14313 0.0
C366 C 0.05226 0.8047 0.12946 0.0
C367 C 0.01881 0.79924 0.11888 0.0
C368 C 0.09142 0.84442 0.13022 0.0
C369 C 0.12862 0.85142 0.14059 0.0
C370 C 0.14519 0.82387 0.13879 0.0
C371 C 0.17999 0.83041 0.1487 0.0
C372 C 0.19871 0.86458 0.16038 0.0
C373 C 0.18273 0.89235 0.16215 0.0
C374 C 0.14789 0.88592 0.15228 0.0
H375 H 0.22565 0.8696 0.16804 0.0
H376 H 0.8873 0.80813 0.0727 0.0
H377 H 0.09537 0.03506 0.43622 0.0
H378 H 0.15428 0.03966 0.45281 0.0
H379 H 0.2385 0.08889 0.41111 0.0
H380 H 0.17953 0.08471 0.39436 0.0
H381 H 0.23846 0.01949 0.4265 0.0
H382 H 0.2549 0.15559 0.44178 0.0
H383 H 0.23054 0.20487 0.4513 0.0
H384 H 0.19084 0.14077 0.49742 0.0
H385 H 0.2144 0.09067 0.48808 0.0
H386 H 0.41883 0.05417 0.47481 0.0
H387 H 0.37113 0.06421 0.45631 0.0
H388 H 0.28308 0.03827 0.49649 0.0
H389 H 0.33149 0.02957 0.51514 0.0
H390 H 0.2905 0.1022 0.48015 0.0
H391 H 0.26599 0.96234 0.46461 0.0
H392 H 0.28641 0.9097 0.45548 0.0
H393 H 0.33669 0.97662 0.41046 0.0
H394 H 0.31706 0.03001 0.41943 0.0
C395 C 0.12648 0.04715 0.43058 0.0
C396 C 0.13284 0.05947 0.41398 0.0
C397 C 0.16013 0.04992 0.44011 0.0
C398 C 0.20071 0.06484 0.4332 0.0
C399 C 0.20737 0.07742 0.41665 0.0
C400 C 0.17375 0.07515 0.40714 0.0
C401 C 0.2354 0.06536 0.44317 0.0
C402 C 0.25058 0.0382 0.43807 0.0
C403 C 0.25012 0.08891 0.45846 0.0
C404 C 0.23614 0.11916 0.46416 0.0
C405 C 0.24067 0.15177 0.4539 0.0
C406 C 0.22706 0.1799 0.45927 0.0
C407 C 0.20908 0.1759 0.47494 0.0
C408 C 0.20476 0.14382 0.48528 0.0
C409 C 0.21829 0.11558 0.47996 0.0
C410 C 0.38918 0.05045 0.47964 0.0
C411 C 0.3786 0.04082 0.49634 0.0
C412 C 0.36193 0.05614 0.46907 0.0
C413 C 0.32316 0.05135 0.47493 0.0
C414 C 0.31282 0.04215 0.49169 0.0
C415 C 0.34039 0.03711 0.50232 0.0
C416 C 0.2932 0.05573 0.46364 0.0
C417 C 0.27885 0.0838 0.46849 0.0
C418 C 0.27879 0.03256 0.44821 0.0
C419 C 0.29049 0.00042 0.44278 0.0
C420 C 0.28169 0.96601 0.45282 0.0
C421 C 0.29307 0.93601 0.44767 0.0
C422 C 0.31295 0.93988 0.43242 0.0
C423 C 0.32136 0.9737 0.42228 0.0
C424 C 0.31009 0.00382 0.42739 0.0
H425 H 0.32173 0.91662 0.42845 0.0
H426 H 0.19855 0.1977 0.47908 0.0
H427 H 0.08695 0.05994 0.77254 0.0
H428 H 0.12948 0.12596 0.78929 0.0
H429 H 0.14323 0.20026 0.74654 0.0
H430 H 0.10084 0.13432 0.72964 0.0
H431 H 0.21973 0.22845 0.76341 0.0
H432 H 0.07557 0.19226 0.77635 0.0
H433 H 0.00116 0.14443 0.78517 0.0
H434 H 0.04794 0.13202 0.83248 0.0
H435 H 0.12271 0.17931 0.82385 0.0
H436 H 0.31688 0.42678 0.80799 0.0
H437 H 0.26551 0.36523 0.79068 0.0
H438 H 0.23637 0.28359 0.83234 0.0
H439 H 0.2859 0.34536 0.84997 0.0
H440 H 0.16535 0.26088 0.81511 0.0
H441 H 0.30777 0.29092 0.80224 0.0
H442 H 0.38312 0.33552 0.79381 0.0
H443 H 0.34076 0.35623 0.74701 0.0
H444 H 0.26512 0.31219 0.75526 0.0
C445 C 0.09894 0.0903 0.76669 0.0
C446 C 0.09052 0.0919 0.74976 0.0
C447 C 0.12305 0.12799 0.7763 0.0
C448 C 0.13909 0.16794 0.76918 0.0
C449 C 0.13099 0.1697 0.75227 0.0
C450 C 0.10672 0.132 0.74265 0.0
C451 C 0.1653 0.20788 0.77931 0.0
C452 C 0.20764 0.23598 0.77456 0.0
C453 C 0.14975 0.21696 0.79408 0.0
C454 C 0.10478 0.18907 0.7994 0.0
C455 C 0.07001 0.17912 0.78859 0.0
C456 C 0.02776 0.15213 0.79356 0.0
C457 C 0.01982 0.13511 0.80936 0.0
C458 C 0.05413 0.14519 0.82024 0.0
C459 C 0.09646 0.17214 0.81533 0.0
C460 C 0.29894 0.39592 0.81358 0.0
C461 C 0.30587 0.39098 0.83035 0.0
C462 C 0.26991 0.36065 0.8036 0.0
C463 C 0.24773 0.31965 0.81013 0.0
C464 C 0.25334 0.31487 0.827 0.0
C465 C 0.28205 0.35017 0.83702 0.0
C466 C 0.21995 0.28146 0.79926 0.0
C467 C 0.17735 0.25361 0.80388 0.0
C468 C 0.23538 0.2723 0.78445 0.0
C469 C 0.28082 0.29866 0.77944 0.0
C470 C 0.31454 0.30525 0.7902 0.0
C471 C 0.3573 0.33038 0.78545 0.0
C472 C 0.36673 0.3488 0.76991 0.0
C473 C 0.33341 0.34201 0.75906 0.0
C474 C 0.29059 0.31695 0.76376 0.0
H475 H 0.39985 0.36824 0.76625 0.0
H476 H 0.98709 0.11417 0.81317 0.0
H477 H 0.01151 0.11439 0.67109 0.0
H478 H 0.9631 0.11978 0.65126 0.0
H479 H 0.87366 0.98426 0.65407 0.0
H480 H 0.92176 0.97847 0.67369 0.0
H481 H 0.88376 0.01046 0.62219 0.0
H482 H 0.85821 0.0558 0.67622 0.0
H483 H 0.87991 0.10102 0.70199 0.0
H484 H 0.92325 0.2131 0.6734 0.0
H485 H 0.90229 0.16854 0.64744 0.0
H486 H 0.68256 0.97664 0.59673 0.0
H487 H 0.74409 0.98293 0.612 0.0
H488 H 0.81331 0.11959 0.60624 0.0
H489 H 0.75156 0.11349 0.59099 0.0
H490 H 0.82152 0.10111 0.63723 0.0
H491 H 0.83935 0.05546 0.58332 0.0
H492 H 0.81775 0.0108 0.55743 0.0
H493 H 0.79042 0.90083 0.58506 0.0
H494 H 0.81125 0.94469 0.61117 0.0
C495 C 0.98165 0.08571 0.6674 0.0
C496 C 0.97035 0.04605 0.67404 0.0
C497 C 0.95402 0.08888 0.65611 0.0
C498 C 0.91467 0.05247 0.65133 0.0
C499 C 0.9039 0.01273 0.6576 0.0
C500 C 0.93138 0.00954 0.66888 0.0
C501 C 0.88374 0.05555 0.64021 0.0
C502 C 0.86994 0.03009 0.62549 0.0
C503 C 0.86679 0.08221 0.6443 0.0
C504 C 0.87916 0.10892 0.6599 0.0
C505 C 0.87267 0.09012 0.67543 0.0
C506 C 0.88478 0.11562 0.69007 0.0
C507 C 0.90307 0.15992 0.68933 0.0
C508 C 0.90916 0.17879 0.67395 0.0
C509 C 0.89716 0.15344 0.65928 0.0
C510 C 0.71104 0.00798 0.59857 0.0
C511 C 0.71233 0.04455 0.59261 0.0
C512 C 0.7462 0.01154 0.60728 0.0
C513 C 0.78356 0.05166 0.61002 0.0
C514 C 0.78483 0.08832 0.60422 0.0
C515 C 0.74953 0.0848 0.59557 0.0
C516 C 0.82069 0.05519 0.61937 0.0
C517 C 0.83572 0.08193 0.63375 0.0
C518 C 0.83892 0.02984 0.61492 0.0
C519 C 0.8266 0.00334 0.59923 0.0
C520 C 0.82845 0.02169 0.5839 0.0
C521 C 0.81638 0.99653 0.56918 0.0
C522 C 0.80265 0.95299 0.5696 0.0
C523 C 0.80105 0.93455 0.58475 0.0
C524 C 0.81304 0.95957 0.59952 0.0
H525 H 0.79331 0.93356 0.55819 0.0
H526 H 0.91243 0.1796 0.70067 0.0
H527 H 0.97338 0.95862 0.98605 0.0
H528 H 0.9082 0.91442 0.9691 0.0
H529 H 0.83048 0.89338 0.01234 0.0
H530 H 0.89549 0.93803 0.02938 0.0
H531 H 0.81037 0.81775 0.99253 0.0
H532 H 0.83224 0.9591 0.98662 0.0
H533 H 0.87453 0.03556 0.98031 0.0
H534 H 0.89233 0.00249 0.93048 0.0
H535 H 0.85067 0.92579 0.93657 0.0
H536 H 0.60956 0.71365 0.95111 0.0
H537 H 0.67073 0.76495 0.96867 0.0
H538 H 0.74886 0.81161 0.92516 0.0
H539 H 0.68703 0.76145 0.90754 0.0
H540 H 0.76845 0.87572 0.94576 0.0
H541 H 0.7519 0.73708 0.95078 0.0
H542 H 0.71345 0.65996 0.95615 0.0
H543 H 0.69057 0.68642 0.00623 0.0
H544 H 0.72837 0.7637 0.00109 0.0
C545 C 0.94243 0.94456 0.99196 0.0
C546 C 0.93949 0.95176 0.00903 0.0
C547 C 0.90529 0.91952 0.98225 0.0
C548 C 0.86469 0.90097 0.98949 0.0
C549 C 0.86162 0.9076 0.00656 0.0
C550 C 0.89872 0.93313 0.01624 0.0
C551 C 0.82546 0.87406 0.97925 0.0
C552 C 0.80071 0.83044 0.98246 0.0
C553 C 0.81393 0.89062 0.96583 0.0
C554 C 0.83867 0.93671 0.9621 0.0
C555 C 0.84547 0.96813 0.97436 0.0
C556 C 0.86928 0.01152 0.97082 0.0
C557 C 0.8862 0.02388 0.95502 0.0
C558 C 0.87924 0.99287 0.94272 0.0
C559 C 0.8555 0.94944 0.9462 0.0
C560 C 0.63974 0.73521 0.94534 0.0
C561 C 0.6439 0.73357 0.92805 0.0
C562 C 0.67468 0.76432 0.95535 0.0
C563 C 0.7147 0.79143 0.94827 0.0
C564 C 0.71836 0.79091 0.93091 0.0
C565 C 0.68314 0.76231 0.92086 0.0
C566 C 0.75306 0.81912 0.959 0.0
C567 C 0.77782 0.86291 0.95587 0.0
C568 C 0.7651 0.80257 0.97234 0.0
C569 C 0.74258 0.75613 0.9755 0.0
C570 C 0.73841 0.72642 0.96291 0.0
C571 C 0.71677 0.68269 0.96591 0.0
C572 C 0.69948 0.66829 0.98151 0.0
C573 C 0.70392 0.69762 0.99415 0.0
C574 C 0.72547 0.74139 0.9912 0.0
H575 H 0.68274 0.63441 0.98381 0.0
H576 H 0.90463 0.05749 0.9523 0.0
H577 H 0.01485 0.97199 0.33298 0.0
H578 H 0.00439 0.91405 0.31368 0.0
H579 H 0.98136 0.83228 0.35482 0.0
H580 H 0.99179 0.89014 0.37427 0.0
H581 H 0.0424 0.83545 0.33329 0.0
H582 H 0.8996 0.8127 0.32988 0.0
H583 H 0.84505 0.83348 0.32589 0.0
H584 H 0.88851 0.87059 0.27629 0.0
H585 H 0.94376 0.85059 0.28007 0.0
H586 H 0.98916 0.65008 0.28453 0.0
H587 H 0.98503 0.70012 0.3044 0.0
H588 H 0.995 0.78058 0.26429 0.0
H589 H -0.00185 0.72993 0.24429 0.0
H590 H 0.93773 0.77605 0.28594 0.0
H591 H 0.08246 0.80416 0.28928 0.0
H592 H 0.13936 0.78631 0.29272 0.0
H593 H 0.09551 0.74317 0.34175 0.0
H594 H 0.03795 0.76022 0.33852 0.0
C595 C 0.00715 0.94155 0.33793 0.0
C596 C 0.00432 0.93568 0.35516 0.0
C597 C 0.00097 0.90843 0.32687 0.0
C598 C 0.99189 0.86888 0.33284 0.0
C599 C 0.98827 0.86261 0.35 0.0
C600 C 0.99414 0.89564 0.36108 0.0
C601 C 0.989 0.8351 0.32121 0.0
C602 C 0.01901 0.82183 0.32311 0.0
C603 C 0.95938 0.81854 0.30764 0.0
C604 C 0.92609 0.83049 0.30531 0.0
C605 C 0.89778 0.82563 0.31817 0.0
C606 C 0.86667 0.8372 0.31594 0.0
C607 C 0.86338 0.85344 0.30086 0.0
C608 C 0.89112 0.85804 0.28797 0.0
C609 C 0.9223 0.84655 0.29014 0.0
C610 C 0.99054 0.6785 0.27997 0.0
C611 C 0.99445 0.68646 0.26292 0.0
C612 C 0.98817 0.70704 0.29132 0.0
C613 C 0.9905 0.74448 0.28586 0.0
C614 C 0.99324 0.75192 0.26877 0.0
C615 C 0.99509 0.72307 0.25738 0.0
C616 C 0.99116 0.77634 0.29802 0.0
C617 C 0.96091 0.78939 0.29619 0.0
C618 C 0.02091 0.79316 0.31158 0.0
C619 C 0.05563 0.78306 0.31359 0.0
C620 C 0.08476 0.79057 0.30075 0.0
C621 C 0.11715 0.78065 0.30267 0.0
C622 C 0.12098 0.76351 0.31743 0.0
C623 C 0.09247 0.75638 0.33032 0.0
C624 C 0.05997 0.7662 0.32845 0.0
H625 H 0.14608 0.75585 0.31889 0.0
H626 H 0.83928 0.86238 0.29916 0.0
H627 H 0.04427 0.93363 0.65421 0.0
H628 H 0.10128 0.93257 0.63836 0.0
H629 H 0.18275 0.97389 0.6824 0.0
H630 H 0.12618 0.97604 0.69826 0.0
H631 H 0.22444 0.02187 0.6576 0.0
H632 H 0.13946 0.87126 0.66478 0.0
H633 H 0.07376 0.79997 0.66408 0.0
H634 H 0.06273 0.80474 0.61119 0.0
H635 H 0.12805 0.87635 0.6116 0.0
H636 H 0.39077 0.00078 0.62034 0.0
H637 H 0.33103 0.98817 0.63816 0.0
H638 H 0.24945 0.96102 0.59489 0.0
H639 H 0.30929 0.97445 0.57691 0.0
H640 H 0.20878 0.90338 0.62014 0.0
H641 H 0.29157 0.05583 0.61361 0.0
H642 H 0.35765 0.12684 0.61446 0.0
H643 H 0.37277 0.11749 0.66679 0.0
H644 H 0.30706 0.04609 0.66619 0.0
C645 C 0.07407 0.94188 0.6606 0.0
C646 C 0.08079 0.95516 0.67747 0.0
C647 C 0.1066 0.94106 0.65153 0.0
C648 C 0.14624 0.9529 0.65921 0.0
C649 C 0.15244 0.96469 0.67621 0.0
C650 C 0.12004 0.96581 0.68526 0.0
C651 C 0.18231 0.95629 0.64924 0.0
C652 C 0.22121 0.99563 0.64967 0.0
C653 C 0.17779 0.92245 0.63855 0.0
C654 C 0.13847 0.87937 0.63825 0.0
C655 C 0.12284 0.85727 0.65301 0.0
C656 C 0.0857 0.81677 0.65267 0.0
C657 C 0.06403 0.79788 0.6376 0.0
C658 C 0.07952 0.81943 0.62285 0.0
C659 C 0.11664 0.85996 0.62313 0.0
C660 C 0.36024 0.99246 0.61459 0.0
C661 C 0.35494 0.98901 0.59719 0.0
C662 C 0.32608 0.985 0.6248 0.0
C663 C 0.28598 0.97398 0.61782 0.0
C664 C 0.28015 0.96937 0.6005 0.0
C665 C 0.31437 0.97698 0.59026 0.0
C666 C 0.25058 0.96881 0.62859 0.0
C667 C 0.21192 0.92933 0.62824 0.0
C668 C 0.25527 0.00242 0.63942 0.0
C669 C 0.29466 0.04543 0.63982 0.0
C670 C 0.30918 0.06876 0.62527 0.0
C671 C 0.34653 0.10911 0.62571 0.0
C672 C 0.36947 0.12661 0.64066 0.0
C673 C 0.35501 0.10385 0.65521 0.0
C674 C 0.3177 0.06346 0.65483 0.0
H675 H 0.39837 0.15786 0.64098 0.0
H676 H 0.03528 0.76651 0.63736 0.0
H677 H 0.14948 0.13973 0.02317 0.0
H678 H 0.19826 0.19621 0.00485 0.0
H679 H 0.09091 0.17016 0.97299 0.0
H680 H 0.04184 0.11422 0.99136 0.0
H681 H 0.16794 0.18117 0.9562 0.0
H682 H 0.12231 0.24931 0.99727 0.0
H683 H 0.11108 0.26749 0.02587 0.0
H684 H 0.24645 0.3272 0.03661 0.0
H685 H 0.25839 0.30878 0.00812 0.0
H686 H 0.26759 0.36682 0.90865 0.0
H687 H 0.21804 0.30844 0.92585 0.0
H688 H 0.3146 0.35421 0.96504 0.0
H689 H 0.36308 0.41437 0.94847 0.0
H690 H 0.24201 0.33166 0.97809 0.0
H691 H 0.29003 0.26549 0.93799 0.0
H692 H 0.3038 0.24623 0.90997 0.0
H693 H 0.16875 0.18165 0.89793 0.0
H694 H 0.15423 0.20102 0.92582 0.0
C695 C 0.13635 0.14582 0.01219 0.0
C696 C 0.09188 0.12281 0.00873 0.0
C697 C 0.16419 0.17807 0.00178 0.0
C698 C 0.14801 0.1873 0.98766 0.0
C699 C 0.10387 0.16338 0.98385 0.0
C700 C 0.07595 0.13164 0.99439 0.0
C701 C 0.17689 0.22316 0.97723 0.0
C702 C 0.18387 0.21417 0.96086 0.0
C703 C 0.19826 0.26592 0.98354 0.0
C704 C 0.19117 0.27725 0.00063 0.0
C705 C 0.14962 0.26596 0.00578 0.0
C706 C 0.14314 0.27638 0.02196 0.0
C707 C 0.17801 0.29838 0.03307 0.0
C708 C 0.21946 0.3101 0.028 0.0
C709 C 0.22611 0.29971 0.01184 0.0
C710 C 0.27811 0.3649 0.92102 0.0
C711 C 0.31955 0.39527 0.92709 0.0
C712 C 0.24991 0.33107 0.93076 0.0
C713 C 0.26287 0.32637 0.94663 0.0
C714 C 0.30394 0.35695 0.9528 0.0
C715 C 0.33186 0.39111 0.9432 0.0
C716 C 0.2336 0.28995 0.95693 0.0
C717 C 0.22635 0.29876 0.97332 0.0
C718 C 0.2125 0.24696 0.95069 0.0
C719 C 0.2211 0.23507 0.93394 0.0
C720 C 0.26331 0.24744 0.92932 0.0
C721 C 0.27124 0.23647 0.91347 0.0
C722 C 0.23719 0.21283 0.90216 0.0
C723 C 0.1951 0.20001 0.9067 0.0
C724 C 0.187 0.21094 0.92253 0.0
H725 H 0.2434 0.20438 0.88989 0.0
H726 H 0.17293 0.30642 0.04559 0.0
H727 H 0.09883 0.17323 0.34215 0.0
H728 H 0.10042 0.22445 0.32266 0.0
H729 H 0.96195 0.16149 0.32362 0.0
H730 H 0.96005 0.10979 0.34266 0.0
H731 H 0.98808 0.17741 0.29288 0.0
H732 H 0.02874 0.2579 0.34528 0.0
H733 H 0.07274 0.28959 0.3709 0.0
H734 H 0.18495 0.36277 0.34181 0.0
H735 H 0.14168 0.33108 0.31602 0.0
H736 H 0.9475 0.33433 0.26235 0.0
H737 H 0.95461 0.28363 0.27935 0.0
H738 H 0.09163 0.35218 0.272 0.0
H739 H 0.08475 0.40281 0.25481 0.0
H740 H 0.07205 0.33432 0.30443 0.0
H741 H 0.02935 0.25747 0.25194 0.0
H742 H 0.98442 0.22643 0.22652 0.0
H743 H 0.87507 0.14667 0.25595 0.0
H744 H 0.9192 0.17767 0.28158 0.0
C745 C 0.06878 0.17043 0.33823 0.0
C746 C 0.02932 0.13749 0.34394 0.0
C747 C 0.06973 0.19977 0.32713 0.0
C748 C 0.0313 0.19699 0.32178 0.0
C749 C 0.99198 0.16417 0.32752 0.0
C750 C 0.99098 0.1347 0.33846 0.0
C751 C 0.03156 0.22785 0.31007 0.0
C752 C 0.00614 0.2117 0.29549 0.0
C753 C 0.05608 0.27265 0.31324 0.0
C754 C 0.08208 0.29176 0.32873 0.0
C755 C 0.06286 0.28049 0.34436 0.0
C756 C 0.08765 0.2985 0.3589 0.0
C757 C 0.13164 0.32808 0.35798 0.0
C758 C 0.1509 0.3398 0.34251 0.0
C759 C 0.12625 0.32185 0.32792 0.0
C760 C 0.97907 0.33828 0.26415 0.0
C761 C 0.01555 0.37258 0.25722 0.0
C762 C 0.9831 0.30935 0.2739 0.0
C763 C 0.02362 0.31399 0.27682 0.0
C764 C 0.0601 0.34811 0.26991 0.0
C765 C 0.0561 0.37706 0.26015 0.0
C766 C 0.02793 0.28377 0.28744 0.0
C767 C 0.05427 0.30004 0.30178 0.0
C768 C 0.00413 0.23906 0.28409 0.0
C769 C 0.97753 0.22016 0.26869 0.0
C770 C 0.99565 0.23354 0.253 0.0
C771 C 0.97033 0.21591 0.23855 0.0
C772 C 0.9269 0.18467 0.23961 0.0
C773 C 0.90871 0.1709 0.25514 0.0
C774 C 0.93388 0.18845 0.26963 0.0
H775 H 0.90736 0.17108 0.22841 0.0
H776 H 0.15078 0.34199 0.36926 0.0
loop_
_geom_bond_atom_site_label_1
_geom_bond_atom_site_label_2
_geom_bond_distance
_geom_bond_site_symmetry_2
_ccdc_geom_bond_type
C0 O1 1.160 . S
C0 O7 1.182 1_565 S
O1 C0 1.160 . S
O2 Zn3 1.899 . S
O2 C10 1.284 . S
Zn3 O2 1.899 . S
Zn3 O4 2.032 1_445 S
Zn3 O7 2.095 . S
Zn3 O12 1.977 . S
O4 Zn3 2.032 1_665 S
O4 C8 1.278 . S
C5 O6 1.203 . S
C5 O12 1.267 . S
O6 C5 1.203 . S
O7 C0 1.182 1_545 S
O7 Zn3 2.095 . S
C8 O4 1.278 . S
C8 O9 1.211 1_565 S
O9 C8 1.211 1_545 S
C10 O2 1.284 . S
C10 O11 1.273 1_455 S
O11 C10 1.273 1_655 S
O12 Zn3 1.977 . S
O12 C5 1.267 . S
C13 O14 1.160 . S
C13 O20 1.185 . S
O14 C13 1.160 . S
O15 Zn16 1.899 . S
O15 C23 1.284 1_545 S
Zn16 O15 1.899 . S
Zn16 O17 2.032 1_455 S
Zn16 O20 2.086 . S
Zn16 O25 1.977 . S
O17 Zn16 2.032 1_655 S
O17 C21 1.278 . S
C18 O19 1.203 . S
C18 O25 1.267 . S
O19 C18 1.203 . S
O20 C13 1.185 . S
O20 Zn16 2.086 . S
C21 O17 1.278 . S
C21 O22 1.211 . S
O22 C21 1.211 . S
C23 O15 1.284 1_565 S
C23 O24 1.273 1_455 S
O24 C23 1.273 1_655 S
O25 Zn16 1.977 . S
O25 C18 1.267 . S
C26 O27 1.160 . S
C26 O33 1.185 1_545 S
O27 C26 1.160 . S
O28 Zn29 1.899 1_655 S
O28 C36 1.284 . S
Zn29 O28 1.899 1_455 S
Zn29 O30 2.032 . S
Zn29 O33 2.086 1_545 S
Zn29 O38 1.977 1_445 S
O30 Zn29 2.032 . S
O30 C34 1.278 . S
C31 O32 1.203 . S
C31 O38 1.267 . S
O32 C31 1.203 . S
O33 C26 1.185 1_565 S
O33 Zn29 2.086 1_565 S
C34 O30 1.278 . S
C34 O35 1.211 . S
O35 C34 1.211 . S
C36 O28 1.284 . S
C36 O37 1.273 . S
O37 C36 1.273 . S
O38 Zn29 1.977 1_665 S
O38 C31 1.267 . S
C39 C40 1.384 1_655 S
C39 C41 1.384 . S
C39 H67 0.931 . S
C40 C39 1.384 1_455 S
C40 C43 1.382 . S
C41 C39 1.384 . S
C41 C42 1.381 1_655 S
C41 H68 0.930 . S
C42 C41 1.381 1_455 S
C42 C44 1.381 . S
C42 C45 1.487 . S
C43 C40 1.382 . S
C43 C44 1.387 . S
C43 H69 0.930 . S
C44 C42 1.381 . S
C44 C43 1.387 . S
C44 H70 0.931 . S
C45 C42 1.487 . S
C45 C52 1.399 . S
C45 N83 1.343 . S
C46 C47 1.384 . S
C46 C48 1.384 . S
C46 H71 0.931 . S
C47 C46 1.384 . S
C47 C50 1.382 1_455 S
C48 C46 1.384 . S
C48 C49 1.381 . S
C48 H72 0.930 . S
C49 C48 1.381 . S
C49 C51 1.381 1_455 S
C49 C52 1.487 . S
C50 C47 1.382 1_655 S
C50 C51 1.387 . S
C50 H73 0.930 . S
C51 C49 1.381 1_655 S
C51 C50 1.387 . S
C51 H74 0.931 . S
C52 C45 1.399 . S
C52 C49 1.487 . S
C52 N84 1.343 . S
C53 C54 1.384 . S
C53 C55 1.384 . S
C53 H75 0.931 . S
C54 C53 1.384 . S
C54 C57 1.382 1_455 S
C55 C53 1.384 . S
C55 C56 1.381 . S
C55 H76 0.930 . S
C56 C55 1.381 . S
C56 C58 1.381 1_455 S
C56 C59 1.487 . S
C57 C54 1.382 1_655 S
C57 C58 1.387 . S
C57 H77 0.930 . S
C58 C56 1.381 1_655 S
C58 C57 1.387 . S
C58 H78 0.931 . S
C59 C56 1.487 . S
C59 C66 1.399 . S
C59 N84 1.343 . S
C60 C61 1.384 1_655 S
C60 C62 1.384 . S
C60 H79 0.931 . S
C61 C60 1.384 1_455 S
C61 C64 1.382 . S
C62 C60 1.384 . S
C62 C63 1.381 1_655 S
C62 H80 0.930 . S
C63 C62 1.381 1_455 S
C63 C65 1.381 . S
C63 C66 1.487 . S
C64 C61 1.382 . S
C64 C65 1.387 . S
C64 H81 0.930 . S
C65 C63 1.381 . S
C65 C64 1.387 . S
C65 H82 0.931 . S
C66 C59 1.399 . S
C66 C63 1.487 . S
C66 N83 1.343 . S
H67 C39 0.931 . S
H68 C41 0.930 . S
H69 C43 0.930 . S
H70 C44 0.931 . S
H71 C46 0.931 . S
H72 C48 0.930 . S
H73 C50 0.930 . S
H74 C51 0.931 . S
H75 C53 0.931 . S
H76 C55 0.930 . S
H77 C57 0.930 . S
H78 C58 0.931 . S
H79 C60 0.931 . S
H80 C62 0.930 . S
H81 C64 0.930 . S
H82 C65 0.931 . S
N83 C45 1.343 . S
N83 C66 1.343 . S
N84 C52 1.343 . S
N84 C59 1.343 . S
C85 C86 1.384 . S
C85 C87 1.384 . S
C85 H113 0.931 . S
C86 C85 1.384 . S
C86 C89 1.386 . S
C87 C85 1.384 . S
C87 C88 1.381 . S
C87 H114 0.930 . S
C88 C87 1.381 . S
C88 C90 1.368 1_545 S
C88 C91 1.487 . S
C89 C86 1.386 . S
C89 C90 1.403 1_545 S
C89 H115 0.921 1_545 S
C90 C88 1.368 1_565 S
C90 C89 1.403 1_565 S
C90 H116 0.936 . S
C91 C88 1.487 . S
C91 C98 1.399 . S
C91 N129 1.343 . S
C92 C93 1.384 1_565 S
C92 C94 1.384 . S
C92 H117 0.931 . S
C93 C92 1.384 1_545 S
C93 C96 1.382 . S
C94 C92 1.384 . S
C94 C95 1.381 1_565 S
C94 H118 0.930 . S
C95 C94 1.381 1_545 S
C95 C97 1.381 . S
C95 C98 1.487 . S
C96 C93 1.382 . S
C96 C97 1.387 . S
C96 H119 0.930 . S
C97 C95 1.381 . S
C97 C96 1.387 . S
C97 H120 0.931 . S
C98 C91 1.399 . S
C98 C95 1.487 . S
C98 N130 1.343 . S
C99 C100 1.384 1_565 S
C99 C101 1.384 . S
C99 H121 0.931 . S
C100 C99 1.384 1_545 S
C100 C103 1.382 . S
C101 C99 1.384 . S
C101 C102 1.381 1_565 S
C101 H122 0.930 . S
C102 C101 1.381 1_545 S
C102 C104 1.381 . S
C102 C105 1.487 . S
C103 C100 1.382 . S
C103 C104 1.387 . S
C103 H123 0.930 . S
C104 C102 1.381 . S
C104 C103 1.387 . S
C104 H124 0.931 . S
C105 C102 1.487 . S
C105 C112 1.399 . S
C105 N130 1.343 . S
C106 C107 1.384 . S
C106 C108 1.384 . S
C106 H125 0.931 . S
C107 C106 1.384 . S
C107 C110 1.398 . S
C108 C106 1.384 . S
C108 C109 1.381 . S
C108 H126 0.930 . S
C109 C108 1.381 . S
C109 C111 1.370 1_545 S
C109 C112 1.487 . S
C110 C107 1.398 . S
C110 C111 1.369 1_545 S
C110 H127 0.922 1_545 S
C111 C109 1.370 1_565 S
C111 C110 1.369 1_565 S
C111 H128 0.954 . S
C112 C105 1.399 . S
C112 C109 1.487 . S
C112 N129 1.343 . S
H113 C85 0.931 . S
H114 C87 0.930 . S
H115 C89 0.921 1_565 S
H116 C90 0.936 . S
H117 C92 0.931 . S
H118 C94 0.930 . S
H119 C96 0.930 . S
H120 C97 0.931 . S
H121 C99 0.931 . S
H122 C101 0.930 . S
H123 C103 0.930 . S
H124 C104 0.931 . S
H125 C106 0.931 . S
H126 C108 0.930 . S
H127 C110 0.922 1_565 S
H128 C111 0.954 . S
N129 C91 1.343 . S
N129 C112 1.343 . S
N130 C98 1.343 . S
N130 C105 1.343 . S
C131 C132 1.384 . S
C131 C133 1.384 . S
C131 H159 0.931 . S
C132 C131 1.384 . S
C132 C135 1.382 . S
C133 C131 1.384 . S
C133 C134 1.381 . S
C133 H160 0.930 . S
C134 C133 1.381 . S
C134 C136 1.381 . S
C134 C137 1.487 . S
C135 C132 1.382 . S
C135 C136 1.387 . S
C135 H161 0.930 . S
C136 C134 1.381 . S
C136 C135 1.387 . S
C136 H162 0.931 . S
C137 C134 1.487 . S
C137 C144 1.399 . S
C137 N175 1.343 . S
C138 C139 1.384 . S
C138 C140 1.384 . S
C138 H163 0.931 . S
C139 C138 1.384 . S
C139 C142 1.382 . S
C140 C138 1.384 . S
C140 C141 1.381 . S
C140 H164 0.930 . S
C141 C140 1.381 . S
C141 C143 1.381 . S
C141 C144 1.487 . S
C142 C139 1.382 . S
C142 C143 1.387 . S
C142 H165 0.930 . S
C143 C141 1.381 . S
C143 C142 1.387 . S
C143 H166 0.931 . S
C144 C137 1.399 . S
C144 C141 1.487 . S
C144 N176 1.343 . S
C145 C146 1.384 . S
C145 C147 1.384 . S
C145 H167 0.931 . S
C146 C145 1.384 . S
C146 C149 1.382 . S
C147 C145 1.384 . S
C147 C148 1.381 . S
C147 H168 0.930 . S
C148 C147 1.381 . S
C148 C150 1.381 . S
C148 C151 1.487 . S
C149 C146 1.382 . S
C149 C150 1.387 . S
C149 H169 0.930 . S
C150 C148 1.381 . S
C150 C149 1.387 . S
C150 H170 0.931 . S
C151 C148 1.487 . S
C151 C158 1.399 . S
C151 N176 1.343 . S
C152 C153 1.384 . S
C152 C154 1.384 . S
C152 H171 0.931 . S
C153 C152 1.384 . S
C153 C156 1.382 . S
C154 C152 1.384 . S
C154 C155 1.381 . S
C154 H172 0.930 . S
C155 C154 1.381 . S
C155 C157 1.381 . S
C155 C158 1.487 . S
C156 C153 1.382 . S
C156 C157 1.387 . S
C156 H173 0.930 . S
C157 C155 1.381 . S
C157 C156 1.387 . S
C157 H174 0.931 . S
C158 C151 1.399 . S
C158 C155 1.487 . S
C158 N175 1.343 . S
H159 C131 0.931 . S
H160 C133 0.930 . S
H161 C135 0.930 . S
H162 C136 0.931 . S
H163 C138 0.931 . S
H164 C140 0.930 . S
H165 C142 0.930 . S
H166 C143 0.931 . S
H167 C145 0.931 . S
H168 C147 0.930 . S
H169 C149 0.930 . S
H170 C150 0.931 . S
H171 C152 0.931 . S
H172 C154 0.930 . S
H173 C156 0.930 . S
H174 C157 0.931 . S
N175 C137 1.343 . S
N175 C158 1.343 . S
N176 C144 1.343 . S
N176 C151 1.343 . S
H177 C195 0.951 . S
H178 C197 0.951 . S
H179 C199 0.950 . S
H180 C200 0.950 . S
H181 C202 0.950 . S
H182 C205 0.950 . S
H183 C206 0.950 . S
H184 C208 0.950 . S
H185 C209 0.950 . S
H186 C210 0.951 . S
H187 C212 0.951 . S
H188 C214 0.950 . S
H189 C215 0.950 . S
H190 C217 0.950 . S
H191 C220 0.950 . S
H192 C221 0.950 . S
H193 C223 0.950 . S
H194 C224 0.950 . S
C195 H177 0.951 . S
C195 C196 1.366 1_655 S
C195 C197 1.388 . S
C196 C195 1.366 1_455 S
C196 C200 1.385 . S
C197 H178 0.951 . S
C197 C195 1.388 . S
C197 C198 1.366 1_655 S
C198 C197 1.366 1_455 S
C198 C199 1.414 . S
C198 C201 1.499 . S
C199 H179 0.950 . S
C199 C198 1.414 . S
C199 C200 1.374 . S
C200 H180 0.950 . S
C200 C196 1.385 . S
C200 C199 1.374 . S
C201 C198 1.499 . S
C201 C202 1.373 . S
C201 C203 1.389 1_455 S
C202 H181 0.950 . S
C202 C201 1.373 . S
C202 C218 1.377 . S
C203 C201 1.389 1_655 S
C203 C204 1.524 . S
C203 C217 1.377 . S
C204 C203 1.524 . S
C204 C205 1.397 . S
C204 C209 1.363 . S
C205 H182 0.950 . S
C205 C204 1.397 . S
C205 C206 1.334 . S
C206 H183 0.950 . S
C206 C205 1.334 . S
C206 C207 1.287 . S
C207 C206 1.287 . S
C207 C208 1.524 . S
C207 H226 0.913 . S
C208 H184 0.950 . S
C208 C207 1.524 . S
C208 C209 1.415 . S
C209 H185 0.950 . S
C209 C204 1.363 . S
C209 C208 1.415 . S
C210 H186 0.951 . S
C210 C211 1.366 . S
C210 C212 1.388 . S
C211 C210 1.366 . S
C211 C215 1.385 1_455 S
C212 H187 0.951 . S
C212 C210 1.388 . S
C212 C213 1.366 . S
C213 C212 1.366 . S
C213 C214 1.414 1_455 S
C213 C216 1.499 . S
C214 H188 0.950 . S
C214 C213 1.414 1_655 S
C214 C215 1.374 . S
C215 H189 0.950 . S
C215 C211 1.385 1_655 S
C215 C214 1.374 . S
C216 C213 1.499 . S
C216 C217 1.373 1_455 S
C216 C218 1.389 . S
C217 H190 0.950 . S
C217 C203 1.377 . S
C217 C216 1.373 1_655 S
C218 C202 1.377 . S
C218 C216 1.389 . S
C218 C219 1.524 . S
C219 C218 1.524 . S
C219 C220 1.397 . S
C219 C224 1.363 . S
C220 H191 0.950 . S
C220 C219 1.397 . S
C220 C221 1.334 . S
C221 H192 0.950 . S
C221 C220 1.334 . S
C221 C222 1.287 . S
C222 C221 1.287 . S
C222 C223 1.524 . S
C222 H225 0.999 . S
C223 H193 0.950 . S
C223 C222 1.524 . S
C223 C224 1.415 . S
C224 H194 0.950 . S
C224 C219 1.363 . S
C224 C223 1.415 . S
H225 C222 0.999 . S
H226 C207 0.913 . S
H227 C245 0.951 . S
H228 C247 0.951 . S
H229 C249 0.950 . S
H230 C250 0.950 . S
H231 C252 0.950 . S
H232 C255 0.950 . S
H233 C256 0.950 . S
H234 C258 0.950 . S
H235 C259 0.950 . S
H236 C260 0.951 . S
H237 C262 0.951 . S
H238 C264 0.950 . S
H239 C265 0.950 . S
H240 C267 0.950 1_565 S
H241 C270 0.950 . S
H242 C271 0.950 . S
H243 C273 0.950 . S
H244 C274 0.950 . S
C245 H227 0.951 . S
C245 C246 1.366 . S
C245 C247 1.388 . S
C246 C245 1.366 . S
C246 C250 1.385 . S
C247 H228 0.951 . S
C247 C245 1.388 . S
C247 C248 1.366 . S
C248 C247 1.366 . S
C248 C249 1.414 . S
C248 C251 1.499 . S
C249 H229 0.950 . S
C249 C248 1.414 . S
C249 C250 1.374 . S
C250 H230 0.950 . S
C250 C246 1.385 . S
C250 C249 1.374 . S
C251 C248 1.499 . S
C251 C252 1.373 . S
C251 C253 1.389 . S
C252 H231 0.950 . S
C252 C251 1.373 . S
C252 C268 1.377 . S
C253 C251 1.389 . S
C253 C254 1.524 1_545 S
C253 C267 1.377 . S
C254 C253 1.524 1_565 S
C254 C255 1.397 . S
C254 C259 1.363 . S
C255 H232 0.950 . S
C255 C254 1.397 . S
C255 C256 1.334 . S
C256 H233 0.950 . S
C256 C255 1.334 . S
C256 C257 1.287 . S
C257 C256 1.287 . S
C257 C258 1.524 . S
C257 H276 0.913 . S
C258 H234 0.950 . S
C258 C257 1.524 . S
C258 C259 1.415 . S
C259 H235 0.950 . S
C259 C254 1.363 . S
C259 C258 1.415 . S
C260 H236 0.951 . S
C260 C261 1.366 . S
C260 C262 1.388 . S
C261 C260 1.366 . S
C261 C265 1.385 . S
C262 H237 0.951 . S
C262 C260 1.388 . S
C262 C263 1.366 . S
C263 C262 1.366 . S
C263 C264 1.414 . S
C263 C266 1.499 . S
C264 H238 0.950 . S
C264 C263 1.414 . S
C264 C265 1.374 . S
C265 H239 0.950 . S
C265 C261 1.385 . S
C265 C264 1.374 . S
C266 C263 1.499 . S
C266 C267 1.373 . S
C266 C268 1.389 . S
C267 H240 0.950 1_545 S
C267 C253 1.377 . S
C267 C266 1.373 . S
C268 C252 1.377 . S
C268 C266 1.389 . S
C268 C269 1.524 . S
C269 C268 1.524 . S
C269 C270 1.397 . S
C269 C274 1.363 . S
C270 H241 0.950 . S
C270 C269 1.397 . S
C270 C271 1.334 . S
C271 H242 0.950 . S
C271 C270 1.334 . S
C271 C272 1.287 . S
C272 C271 1.287 . S
C272 C273 1.524 . S
C272 H275 0.999 . S
C273 H243 0.950 . S
C273 C272 1.524 . S
C273 C274 1.415 . S
C274 H244 0.950 . S
C274 C269 1.363 . S
C274 C273 1.415 . S
H275 C272 0.999 . S
H276 C257 0.913 . S
H277 C295 0.951 . S
H278 C297 0.951 . S
H279 C299 0.950 . S
H280 C300 0.950 . S
H281 C302 0.950 . S
H282 C305 0.950 . S
H283 C306 0.950 . S
H284 C308 0.950 . S
H285 C309 0.950 . S
H286 C310 0.951 . S
H287 C312 0.951 . S
H288 C314 0.950 . S
H289 C315 0.950 . S
H290 C317 0.950 . S
H291 C320 0.950 . S
H292 C321 0.950 . S
H293 C323 0.950 . S
H294 C324 0.950 . S
C295 H277 0.951 . S
C295 C296 1.366 . S
C295 C297 1.388 . S
C296 C295 1.366 . S
C296 C300 1.385 . S
C297 H278 0.951 . S
C297 C295 1.388 . S
C297 C298 1.366 . S
C298 C297 1.366 . S
C298 C299 1.414 . S
C298 C301 1.499 . S
C299 H279 0.950 . S
C299 C298 1.414 . S
C299 C300 1.374 . S
C300 H280 0.950 . S
C300 C296 1.385 . S
C300 C299 1.374 . S
C301 C298 1.499 . S
C301 C302 1.373 . S
C301 C303 1.389 . S
C302 H281 0.950 . S
C302 C301 1.373 . S
C302 C318 1.377 . S
C303 C301 1.389 . S
C303 C304 1.524 . S
C303 C317 1.377 . S
C304 C303 1.524 . S
C304 C305 1.397 . S
C304 C309 1.363 . S
C305 H282 0.950 . S
C305 C304 1.397 . S
C305 C306 1.334 . S
C306 H283 0.950 . S
C306 C305 1.334 . S
C306 C307 1.287 . S
C307 C306 1.287 . S
C307 C308 1.524 . S
C307 H326 0.913 1_565 S
C308 H284 0.950 . S
C308 C307 1.524 . S
C308 C309 1.415 . S
C309 H285 0.950 . S
C309 C304 1.363 . S
C309 C308 1.415 . S
C310 H286 0.951 . S
C310 C311 1.366 . S
C310 C312 1.388 . S
C311 C310 1.366 . S
C311 C315 1.385 . S
C312 H287 0.951 . S
C312 C310 1.388 . S
C312 C313 1.366 . S
C313 C312 1.366 . S
C313 C314 1.414 . S
C313 C316 1.499 . S
C314 H288 0.950 . S
C314 C313 1.414 . S
C314 C315 1.374 . S
C315 H289 0.950 . S
C315 C311 1.385 . S
C315 C314 1.374 . S
C316 C313 1.499 . S
C316 C317 1.373 . S
C316 C318 1.389 . S
C317 H290 0.950 . S
C317 C303 1.377 . S
C317 C316 1.373 . S
C318 C302 1.377 . S
C318 C316 1.389 . S
C318 C319 1.524 . S
C319 C318 1.524 . S
C319 C320 1.397 . S
C319 C324 1.363 . S
C320 H291 0.950 . S
C320 C319 1.397 . S
C320 C321 1.334 . S
C321 H292 0.950 . S
C321 C320 1.334 . S
C321 C322 1.287 . S
C322 C321 1.287 . S
C322 C323 1.524 . S
C322 H325 0.999 . S
C323 H293 0.950 . S
C323 C322 1.524 . S
C323 C324 1.415 . S
C324 H294 0.950 . S
C324 C319 1.363 . S
C324 C323 1.415 . S
H325 C322 0.999 . S
H326 C307 0.913 1_545 S
H327 C345 0.951 . S
H328 C347 0.951 1_655 S
H329 C349 0.950 . S
H330 C350 0.950 . S
H331 C352 0.950 . S
H332 C355 0.950 . S
H333 C356 0.950 . S
H334 C358 0.950 . S
H335 C359 0.950 . S
H336 C360 0.951 . S
H337 C362 0.951 . S
H338 C364 0.950 . S
H339 C365 0.950 . S
H340 C367 0.950 . S
H341 C370 0.950 . S
H342 C371 0.950 . S
H343 C373 0.950 . S
H344 C374 0.950 . S
C345 H327 0.951 . S
C345 C346 1.366 . S
C345 C347 1.388 . S
C346 C345 1.366 . S
C346 C350 1.385 . S
C347 H328 0.951 1_455 S
C347 C345 1.388 . S
C347 C348 1.366 . S
C348 C347 1.366 . S
C348 C349 1.414 . S
C348 C351 1.499 . S
C349 H329 0.950 . S
C349 C348 1.414 . S
C349 C350 1.374 . S
C350 H330 0.950 . S
C350 C346 1.385 . S
C350 C349 1.374 . S
C351 C348 1.499 . S
C351 C352 1.373 . S
C351 C353 1.389 1_455 S
C352 H331 0.950 . S
C352 C351 1.373 . S
C352 C368 1.377 . S
C353 C351 1.389 1_655 S
C353 C354 1.524 . S
C353 C367 1.377 . S
C354 C353 1.524 . S
C354 C355 1.397 . S
C354 C359 1.363 . S
C355 H332 0.950 . S
C355 C354 1.397 . S
C355 C356 1.334 . S
C356 H333 0.950 . S
C356 C355 1.334 . S
C356 C357 1.287 . S
C357 C356 1.287 . S
C357 C358 1.524 . S
C357 H376 0.913 . S
C358 H334 0.950 . S
C358 C357 1.524 . S
C358 C359 1.415 . S
C359 H335 0.950 . S
C359 C354 1.363 . S
C359 C358 1.415 . S
C360 H336 0.951 . S
C360 C361 1.366 . S
C360 C362 1.388 . S
C361 C360 1.366 . S
C361 C365 1.385 1_455 S
C362 H337 0.951 . S
C362 C360 1.388 . S
C362 C363 1.366 . S
C363 C362 1.366 . S
C363 C364 1.414 1_455 S
C363 C366 1.499 . S
C364 H338 0.950 . S
C364 C363 1.414 1_655 S
C364 C365 1.374 . S
C365 H339 0.950 . S
C365 C361 1.385 1_655 S
C365 C364 1.374 . S
C366 C363 1.499 . S
C366 C367 1.373 1_455 S
C366 C368 1.389 . S
C367 H340 0.950 . S
C367 C353 1.377 . S
C367 C366 1.373 1_655 S
C368 C352 1.377 . S
C368 C366 1.389 . S
C368 C369 1.524 . S
C369 C368 1.524 . S
C369 C370 1.397 . S
C369 C374 1.363 . S
C370 H341 0.950 . S
C370 C369 1.397 . S
C370 C371 1.334 . S
C371 H342 0.950 . S
C371 C370 1.334 . S
C371 C372 1.287 . S
C372 C371 1.287 . S
C372 C373 1.524 . S
C372 H375 0.999 . S
C373 H343 0.950 . S
C373 C372 1.524 . S
C373 C374 1.415 . S
C374 H344 0.950 . S
C374 C369 1.363 . S
C374 C373 1.415 . S
H375 C372 0.999 . S
H376 C357 0.913 . S
H377 C395 0.951 . S
H378 C397 0.951 . S
H379 C399 0.950 . S
H380 C400 0.950 . S
H381 C402 0.950 . S
H382 C405 0.950 . S
H383 C406 0.950 . S
H384 C408 0.950 . S
H385 C409 0.950 . S
H386 C410 0.951 . S
H387 C412 0.951 . S
H388 C414 0.950 . S
H389 C415 0.950 . S
H390 C417 0.950 . S
H391 C420 0.950 . S
H392 C421 0.950 . S
H393 C423 0.950 . S
H394 C424 0.950 . S
C395 H377 0.951 . S
C395 C396 1.366 . S
C395 C397 1.388 . S
C396 C395 1.366 . S
C396 C400 1.385 . S
C397 H378 0.951 . S
C397 C395 1.388 . S
C397 C398 1.366 . S
C398 C397 1.366 . S
C398 C399 1.414 . S
C398 C401 1.499 . S
C399 H379 0.950 . S
C399 C398 1.414 . S
C399 C400 1.374 . S
C400 H380 0.950 . S
C400 C396 1.385 . S
C400 C399 1.374 . S
C401 C398 1.499 . S
C401 C402 1.373 . S
C401 C403 1.389 . S
C402 H381 0.950 . S
C402 C401 1.373 . S
C402 C418 1.377 . S
C403 C401 1.389 . S
C403 C404 1.524 . S
C403 C417 1.377 . S
C404 C403 1.524 . S
C404 C405 1.397 . S
C404 C409 1.363 . S
C405 H382 0.950 . S
C405 C404 1.397 . S
C405 C406 1.334 . S
C406 H383 0.950 . S
C406 C405 1.334 . S
C406 C407 1.287 . S
C407 C406 1.287 . S
C407 C408 1.524 . S
C407 H426 0.913 . S
C408 H384 0.950 . S
C408 C407 1.524 . S
C408 C409 1.415 . S
C409 H385 0.950 . S
C409 C404 1.363 . S
C409 C408 1.415 . S
C410 H386 0.951 . S
C410 C411 1.366 . S
C410 C412 1.388 . S
C411 C410 1.366 . S
C411 C415 1.385 . S
C412 H387 0.951 . S
C412 C410 1.388 . S
C412 C413 1.366 . S
C413 C412 1.366 . S
C413 C414 1.414 . S
C413 C416 1.499 . S
C414 H388 0.950 . S
C414 C413 1.414 . S
C414 C415 1.374 . S
C415 H389 0.950 . S
C415 C411 1.385 . S
C415 C414 1.374 . S
C416 C413 1.499 . S
C416 C417 1.373 . S
C416 C418 1.389 . S
C417 H390 0.950 . S
C417 C403 1.377 . S
C417 C416 1.373 . S
C418 C402 1.377 . S
C418 C416 1.389 . S
C418 C419 1.524 . S
C419 C418 1.524 . S
C419 C420 1.397 1_545 S
C419 C424 1.363 . S
C420 H391 0.950 . S
C420 C419 1.397 1_565 S
C420 C421 1.334 . S
C421 H392 0.950 . S
C421 C420 1.334 . S
C421 C422 1.287 . S
C422 C421 1.287 . S
C422 C423 1.524 . S
C422 H425 0.999 . S
C423 H393 0.950 . S
C423 C422 1.524 . S
C423 C424 1.415 1_565 S
C424 H394 0.950 . S
C424 C419 1.363 . S
C424 C423 1.415 1_545 S
H425 C422 0.999 . S
H426 C407 0.913 . S
H427 C445 0.951 . S
H428 C447 0.951 . S
H429 C449 0.950 . S
H430 C450 0.950 . S
H431 C452 0.950 . S
H432 C455 0.950 . S
H433 C456 0.950 . S
H434 C458 0.950 . S
H435 C459 0.950 . S
H436 C460 0.951 . S
H437 C462 0.951 . S
H438 C464 0.950 . S
H439 C465 0.950 . S
H440 C467 0.950 . S
H441 C470 0.950 . S
H442 C471 0.950 . S
H443 C473 0.950 . S
H444 C474 0.950 . S
C445 H427 0.951 . S
C445 C446 1.366 . S
C445 C447 1.388 . S
C446 C445 1.366 . S
C446 C450 1.385 . S
C447 H428 0.951 . S
C447 C445 1.388 . S
C447 C448 1.366 . S
C448 C447 1.366 . S
C448 C449 1.414 . S
C448 C451 1.499 . S
C449 H429 0.950 . S
C449 C448 1.414 . S
C449 C450 1.374 . S
C450 H430 0.950 . S
C450 C446 1.385 . S
C450 C449 1.374 . S
C451 C448 1.499 . S
C451 C452 1.373 . S
C451 C453 1.389 . S
C452 H431 0.950 . S
C452 C451 1.373 . S
C452 C468 1.377 . S
C453 C451 1.389 . S
C453 C454 1.524 . S
C453 C467 1.377 . S
C454 C453 1.524 . S
C454 C455 1.397 . S
C454 C459 1.363 . S
C455 H432 0.950 . S
C455 C454 1.397 . S
C455 C456 1.334 . S
C456 H433 0.950 . S
C456 C455 1.334 . S
C456 C457 1.287 . S
C457 C456 1.287 . S
C457 C458 1.524 . S
C457 H476 0.913 . S
C458 H434 0.950 . S
C458 C457 1.524 . S
C458 C459 1.415 . S
C459 H435 0.950 . S
C459 C454 1.363 . S
C459 C458 1.415 . S
C460 H436 0.951 . S
C460 C461 1.366 . S
C460 C462 1.388 . S
C461 C460 1.366 . S
C461 C465 1.385 . S
C462 H437 0.951 . S
C462 C460 1.388 . S
C462 C463 1.366 . S
C463 C462 1.366 . S
C463 C464 1.414 . S
C463 C466 1.499 . S
C464 H438 0.950 . S
C464 C463 1.414 . S
C464 C465 1.374 . S
C465 H439 0.950 . S
C465 C461 1.385 . S
C465 C464 1.374 . S
C466 C463 1.499 . S
C466 C467 1.373 . S
C466 C468 1.389 . S
C467 H440 0.950 . S
C467 C453 1.377 . S
C467 C466 1.373 . S
C468 C452 1.377 . S
C468 C466 1.389 . S
C468 C469 1.524 . S
C469 C468 1.524 . S
C469 C470 1.397 . S
C469 C474 1.363 . S
C470 H441 0.950 . S
C470 C469 1.397 . S
C470 C471 1.334 . S
C471 H442 0.950 . S
C471 C470 1.334 . S
C471 C472 1.287 . S
C472 C471 1.287 . S
C472 C473 1.524 . S
C472 H475 0.999 . S
C473 H443 0.950 . S
C473 C472 1.524 . S
C473 C474 1.415 . S
C474 H444 0.950 . S
C474 C469 1.363 . S
C474 C473 1.415 . S
H475 C472 0.999 . S
H476 C457 0.913 . S
H477 C495 0.951 . S
H478 C497 0.951 . S
H479 C499 0.950 1_565 S
H480 C500 0.950 1_565 S
H481 C502 0.950 . S
H482 C505 0.950 . S
H483 C506 0.950 . S
H484 C508 0.950 . S
H485 C509 0.950 . S
H486 C510 0.951 . S
H487 C512 0.951 . S
H488 C514 0.950 . S
H489 C515 0.950 . S
H490 C517 0.950 . S
H491 C520 0.950 . S
H492 C521 0.950 . S
H493 C523 0.950 . S
H494 C524 0.950 . S
C495 H477 0.951 . S
C495 C496 1.366 . S
C495 C497 1.388 . S
C496 C495 1.366 . S
C496 C500 1.385 . S
C497 H478 0.951 . S
C497 C495 1.388 . S
C497 C498 1.366 . S
C498 C497 1.366 . S
C498 C499 1.414 . S
C498 C501 1.499 . S
C499 H479 0.950 1_545 S
C499 C498 1.414 . S
C499 C500 1.374 . S
C500 H480 0.950 1_545 S
C500 C496 1.385 . S
C500 C499 1.374 . S
C501 C498 1.499 . S
C501 C502 1.373 1_545 S
C501 C503 1.389 . S
C502 H481 0.950 . S
C502 C501 1.373 1_565 S
C502 C518 1.377 . S
C503 C501 1.389 . S
C503 C504 1.524 . S
C503 C517 1.377 . S
C504 C503 1.524 . S
C504 C505 1.397 . S
C504 C509 1.363 . S
C505 H482 0.950 . S
C505 C504 1.397 . S
C505 C506 1.334 . S
C506 H483 0.950 . S
C506 C505 1.334 . S
C506 C507 1.287 . S
C507 C506 1.287 . S
C507 C508 1.524 . S
C507 H526 0.913 . S
C508 H484 0.950 . S
C508 C507 1.524 . S
C508 C509 1.415 . S
C509 H485 0.950 . S
C509 C504 1.363 . S
C509 C508 1.415 . S
C510 H486 0.951 . S
C510 C511 1.366 1_565 S
C510 C512 1.388 . S
C511 C510 1.366 1_545 S
C511 C515 1.385 . S
C512 H487 0.951 . S
C512 C510 1.388 . S
C512 C513 1.366 1_565 S
C513 C512 1.366 1_545 S
C513 C514 1.414 . S
C513 C516 1.499 . S
C514 H488 0.950 . S
C514 C513 1.414 . S
C514 C515 1.374 . S
C515 H489 0.950 . S
C515 C511 1.385 . S
C515 C514 1.374 . S
C516 C513 1.499 . S
C516 C517 1.373 . S
C516 C518 1.389 1_545 S
C517 H490 0.950 . S
C517 C503 1.377 . S
C517 C516 1.373 . S
C518 C502 1.377 . S
C518 C516 1.389 1_565 S
C518 C519 1.524 . S
C519 C518 1.524 . S
C519 C520 1.397 . S
C519 C524 1.363 . S
C520 H491 0.950 . S
C520 C519 1.397 . S
C520 C521 1.334 . S
C521 H492 0.950 . S
C521 C520 1.334 . S
C521 C522 1.287 . S
C522 C521 1.287 . S
C522 C523 1.524 . S
C522 H525 0.999 . S
C523 H493 0.950 . S
C523 C522 1.524 . S
C523 C524 1.415 . S
C524 H494 0.950 . S
C524 C519 1.363 . S
C524 C523 1.415 . S
H525 C522 0.999 . S
H526 C507 0.913 . S
H527 C545 0.941 1_556 S
H528 C547 0.951 . S
H529 C549 0.950 . S
H530 C550 0.950 . S
H531 C552 0.950 1_554 S
H532 C555 0.950 . S
H533 C556 0.950 1_545 S
H534 C558 0.950 . S
H535 C559 0.950 . S
H536 C560 0.951 . S
H537 C562 0.951 . S
H538 C564 0.950 . S
H539 C565 0.950 . S
H540 C567 0.950 . S
H541 C570 0.950 . S
H542 C571 0.950 . S
H543 C573 0.950 . S
H544 C574 0.950 . S
C545 H527 0.941 1_554 S
C545 C546 1.366 . S
C545 C547 1.388 1_554 S
C546 C545 1.366 . S
C546 C550 1.385 . S
C547 H528 0.951 . S
C547 C545 1.388 1_556 S
C547 C548 1.366 . S
C548 C547 1.366 . S
C548 C549 1.414 1_556 S
C548 C551 1.499 . S
C549 H529 0.950 . S
C549 C548 1.414 1_554 S
C549 C550 1.374 . S
C550 H530 0.950 . S
C550 C546 1.385 . S
C550 C549 1.374 . S
C551 C548 1.499 . S
C551 C552 1.373 . S
C551 C553 1.389 . S
C552 H531 0.950 1_556 S
C552 C551 1.373 . S
C552 C568 1.377 . S
C553 C551 1.389 . S
C553 C554 1.524 . S
C553 C567 1.377 . S
C554 C553 1.524 . S
C554 C555 1.397 . S
C554 C559 1.363 . S
C555 H532 0.950 . S
C555 C554 1.397 . S
C555 C556 1.334 . S
C556 H533 0.950 1_565 S
C556 C555 1.334 . S
C556 C557 1.287 1_565 S
C557 C556 1.287 1_545 S
C557 C558 1.524 1_545 S
C557 H576 0.913 . S
C558 H534 0.950 . S
C558 C557 1.524 1_565 S
C558 C559 1.415 . S
C559 H535 0.950 . S
C559 C554 1.363 . S
C559 C558 1.415 . S
C560 H536 0.951 . S
C560 C561 1.366 . S
C560 C562 1.388 . S
C561 C560 1.366 . S
C561 C565 1.385 . S
C562 H537 0.951 . S
C562 C560 1.388 . S
C562 C563 1.366 . S
C563 C562 1.366 . S
C563 C564 1.414 . S
C563 C566 1.499 . S
C564 H538 0.950 . S
C564 C563 1.414 . S
C564 C565 1.374 . S
C565 H539 0.950 . S
C565 C561 1.385 . S
C565 C564 1.374 . S
C566 C563 1.499 . S
C566 C567 1.373 . S
C566 C568 1.389 . S
C567 H540 0.950 . S
C567 C553 1.377 . S
C567 C566 1.373 . S
C568 C552 1.377 . S
C568 C566 1.389 . S
C568 C569 1.524 . S
C569 C568 1.524 . S
C569 C570 1.397 . S
C569 C574 1.363 1_556 S
C570 H541 0.950 . S
C570 C569 1.397 . S
C570 C571 1.334 . S
C571 H542 0.950 . S
C571 C570 1.334 . S
C571 C572 1.287 . S
C572 C571 1.287 . S
C572 C573 1.524 1_556 S
C572 H575 0.999 1_556 S
C573 H543 0.950 . S
C573 C572 1.524 1_554 S
C573 C574 1.415 . S
C574 H544 0.950 . S
C574 C569 1.363 1_554 S
C574 C573 1.415 . S
H575 C572 0.999 1_554 S
H576 C557 0.913 . S
H577 C595 0.951 1_655 S
H578 C597 0.951 1_655 S
H579 C599 0.950 . S
H580 C600 0.950 . S
H581 C602 0.950 . S
H582 C605 0.950 . S
H583 C606 0.950 . S
H584 C608 0.950 . S
H585 C609 0.950 . S
H586 C610 0.951 . S
H587 C612 0.951 . S
H588 C614 0.969 . S
H589 C615 0.950 . S
H590 C617 0.950 . S
H591 C620 0.950 . S
H592 C621 0.950 . S
H593 C623 0.950 . S
H594 C624 0.950 . S
C595 H577 0.951 1_455 S
C595 C596 1.366 . S
C595 C597 1.388 . S
C596 C595 1.366 . S
C596 C600 1.385 . S
C597 H578 0.951 1_455 S
C597 C595 1.388 . S
C597 C598 1.366 . S
C598 C597 1.366 . S
C598 C599 1.414 . S
C598 C601 1.499 . S
C599 H579 0.950 . S
C599 C598 1.414 . S
C599 C600 1.374 . S
C600 H580 0.950 . S
C600 C596 1.385 . S
C600 C599 1.374 . S
C601 C598 1.499 . S
C601 C602 1.373 . S
C601 C603 1.389 1_455 S
C602 H581 0.950 . S
C602 C601 1.373 . S
C602 C618 1.377 . S
C603 C601 1.389 1_655 S
C603 C604 1.524 . S
C603 C617 1.377 . S
C604 C603 1.524 . S
C604 C605 1.397 . S
C604 C609 1.363 . S
C605 H582 0.950 . S
C605 C604 1.397 . S
C605 C606 1.334 . S
C606 H583 0.950 . S
C606 C605 1.334 . S
C606 C607 1.287 . S
C607 C606 1.287 . S
C607 C608 1.524 . S
C607 H626 0.913 . S
C608 H584 0.950 . S
C608 C607 1.524 . S
C608 C609 1.415 . S
C609 H585 0.950 . S
C609 C604 1.363 . S
C609 C608 1.415 . S
C610 H586 0.951 . S
C610 C611 1.366 . S
C610 C612 1.388 . S
C611 C610 1.366 . S
C611 C615 1.385 1_455 S
C612 H587 0.951 . S
C612 C610 1.388 . S
C612 C613 1.366 . S
C613 C612 1.366 . S
C613 C614 1.406 1_455 S
C613 C616 1.499 . S
C614 H588 0.969 . S
C614 C613 1.406 1_655 S
C614 C615 1.364 . S
C615 H589 0.950 . S
C615 C611 1.385 1_655 S
C615 C614 1.364 . S
C616 C613 1.499 . S
C616 C617 1.373 1_455 S
C616 C618 1.389 . S
C617 H590 0.950 . S
C617 C603 1.377 . S
C617 C616 1.373 1_655 S
C618 C602 1.377 . S
C618 C616 1.389 . S
C618 C619 1.524 . S
C619 C618 1.524 . S
C619 C620 1.397 . S
C619 C624 1.363 . S
C620 H591 0.950 . S
C620 C619 1.397 . S
C620 C621 1.334 . S
C621 H592 0.950 . S
C621 C620 1.334 . S
C621 C622 1.287 . S
C622 C621 1.287 . S
C622 C623 1.524 . S
C622 H625 0.999 . S
C623 H593 0.950 . S
C623 C622 1.524 . S
C623 C624 1.415 . S
C624 H594 0.950 . S
C624 C619 1.363 . S
C624 C623 1.415 . S
H625 C622 0.999 . S
H626 C607 0.913 . S
H627 C645 0.951 . S
H628 C647 0.951 . S
H629 C649 0.950 . S
H630 C650 0.950 . S
H631 C652 0.950 . S
H632 C655 0.950 . S
H633 C656 0.950 . S
H634 C658 0.950 . S
H635 C659 0.950 . S
H636 C660 0.951 . S
H637 C662 0.951 . S
H638 C664 0.950 . S
H639 C665 0.950 . S
H640 C667 0.950 . S
H641 C670 0.950 . S
H642 C671 0.950 . S
H643 C673 0.950 . S
H644 C674 0.950 . S
C645 H627 0.951 . S
C645 C646 1.366 1_565 S
C645 C647 1.388 . S
C646 C645 1.366 1_545 S
C646 C650 1.385 . S
C647 H628 0.951 . S
C647 C645 1.388 . S
C647 C648 1.366 1_565 S
C648 C647 1.366 1_545 S
C648 C649 1.414 . S
C648 C651 1.499 . S
C649 H629 0.950 . S
C649 C648 1.414 . S
C649 C650 1.374 . S
C650 H630 0.950 . S
C650 C646 1.385 . S
C650 C649 1.374 . S
C651 C648 1.499 . S
C651 C652 1.373 . S
C651 C653 1.389 1_545 S
C652 H631 0.950 . S
C652 C651 1.373 . S
C652 C668 1.377 . S
C653 C651 1.389 1_565 S
C653 C654 1.524 . S
C653 C667 1.377 . S
C654 C653 1.524 . S
C654 C655 1.397 . S
C654 C659 1.363 . S
C655 H632 0.950 . S
C655 C654 1.397 . S
C655 C656 1.334 . S
C656 H633 0.950 . S
C656 C655 1.334 . S
C656 C657 1.287 . S
C657 C656 1.287 . S
C657 C658 1.524 . S
C657 H676 0.913 . S
C658 H634 0.950 . S
C658 C657 1.524 . S
C658 C659 1.415 . S
C659 H635 0.950 . S
C659 C654 1.363 . S
C659 C658 1.415 . S
C660 H636 0.951 . S
C660 C661 1.366 . S
C660 C662 1.388 . S
C661 C660 1.366 . S
C661 C665 1.385 1_545 S
C662 H637 0.951 . S
C662 C660 1.388 . S
C662 C663 1.366 . S
C663 C662 1.366 . S
C663 C664 1.414 1_545 S
C663 C666 1.499 . S
C664 H638 0.950 . S
C664 C663 1.414 1_565 S
C664 C665 1.374 . S
C665 H639 0.950 . S
C665 C661 1.385 1_565 S
C665 C664 1.374 . S
C666 C663 1.499 . S
C666 C667 1.373 1_545 S
C666 C668 1.389 . S
C667 H640 0.950 . S
C667 C653 1.377 . S
C667 C666 1.373 1_565 S
C668 C652 1.377 . S
C668 C666 1.389 . S
C668 C669 1.524 . S
C669 C668 1.524 . S
C669 C670 1.397 . S
C669 C674 1.363 . S
C670 H641 0.950 . S
C670 C669 1.397 . S
C670 C671 1.334 . S
C671 H642 0.950 . S
C671 C670 1.334 . S
C671 C672 1.287 . S
C672 C671 1.287 . S
C672 C673 1.524 . S
C672 H675 0.999 . S
C673 H643 0.950 . S
C673 C672 1.524 . S
C673 C674 1.415 . S
C674 H644 0.950 . S
C674 C669 1.363 . S
C674 C673 1.415 . S
H675 C672 0.999 . S
H676 C657 0.913 . S
H677 C695 0.951 . S
H678 C697 0.951 . S
H679 C699 0.950 . S
H680 C700 0.930 1_556 S
H681 C702 0.950 . S
H682 C705 0.950 1_556 S
H683 C706 0.950 . S
H684 C708 0.950 . S
H685 C709 0.950 . S
H686 C710 0.951 . S
H687 C712 0.951 . S
H688 C714 0.950 . S
H689 C715 0.950 . S
H690 C717 0.950 . S
H691 C720 0.950 . S
H692 C721 0.950 . S
H693 C723 0.950 . S
H694 C724 0.950 . S
C695 H677 0.951 . S
C695 C696 1.366 . S
C695 C697 1.388 . S
C696 C695 1.366 . S
C696 C700 1.449 . S
C697 H678 0.951 . S
C697 C695 1.388 . S
C697 C698 1.366 1_554 S
C698 C697 1.366 1_556 S
C698 C699 1.414 . S
C698 C701 1.499 . S
C699 H679 0.950 . S
C699 C698 1.414 . S
C699 C700 1.333 1_556 S
C700 H680 0.930 1_554 S
C700 C696 1.449 . S
C700 C699 1.333 1_554 S
C701 C698 1.499 . S
C701 C702 1.373 . S
C701 C703 1.389 . S
C702 H681 0.950 . S
C702 C701 1.373 . S
C702 C718 1.377 . S
C703 C701 1.389 . S
C703 C704 1.524 1_556 S
C703 C717 1.377 . S
C704 C703 1.524 1_554 S
C704 C705 1.397 . S
C704 C709 1.363 . S
C705 H682 0.950 1_554 S
C705 C704 1.397 . S
C705 C706 1.334 . S
C706 H683 0.950 . S
C706 C705 1.334 . S
C706 C707 1.287 . S
C707 C706 1.287 . S
C707 C708 1.524 . S
C707 H726 0.913 . S
C708 H684 0.950 . S
C708 C707 1.524 . S
C708 C709 1.415 . S
C709 H685 0.950 . S
C709 C704 1.363 . S
C709 C708 1.415 . S
C710 H686 0.951 . S
C710 C711 1.366 . S
C710 C712 1.388 . S
C711 C710 1.366 . S
C711 C715 1.385 . S
C712 H687 0.951 . S
C712 C710 1.388 . S
C712 C713 1.366 . S
C713 C712 1.366 . S
C713 C714 1.414 . S
C713 C716 1.499 . S
C714 H688 0.950 . S
C714 C713 1.414 . S
C714 C715 1.374 . S
C715 H689 0.950 . S
C715 C711 1.385 . S
C715 C714 1.374 . S
C716 C713 1.499 . S
C716 C717 1.373 . S
C716 C718 1.389 . S
C717 H690 0.950 . S
C717 C703 1.377 . S
C717 C716 1.373 . S
C718 C702 1.377 . S
C718 C716 1.389 . S
C718 C719 1.524 . S
C719 C718 1.524 . S
C719 C720 1.397 . S
C719 C724 1.363 . S
C720 H691 0.950 . S
C720 C719 1.397 . S
C720 C721 1.334 . S
C721 H692 0.950 . S
C721 C720 1.334 . S
C721 C722 1.287 . S
C722 C721 1.287 . S
C722 C723 1.524 . S
C722 H725 0.999 . S
C723 H693 0.950 . S
C723 C722 1.524 . S
C723 C724 1.415 . S
C724 H694 0.950 . S
C724 C719 1.363 . S
C724 C723 1.415 . S
H725 C722 0.999 . S
H726 C707 0.913 . S
H727 C745 0.951 . S
H728 C747 0.951 . S
H729 C749 0.950 1_655 S
H730 C750 0.950 . S
H731 C752 0.950 . S
H732 C755 0.950 . S
H733 C756 0.950 . S
H734 C758 0.950 . S
H735 C759 0.950 . S
H736 C760 0.951 . S
H737 C762 0.951 . S
H738 C764 0.950 . S
H739 C765 0.950 . S
H740 C767 0.950 . S
H741 C770 0.950 . S
H742 C771 0.950 . S
H743 C773 0.950 . S
H744 C774 0.950 . S
C745 H727 0.951 . S
C745 C746 1.366 . S
C745 C747 1.388 . S
C746 C745 1.366 . S
C746 C750 1.385 . S
C747 H728 0.951 . S
C747 C745 1.388 . S
C747 C748 1.366 . S
C748 C747 1.366 . S
C748 C749 1.414 . S
C748 C751 1.499 . S
C749 H729 0.950 1_455 S
C749 C748 1.414 . S
C749 C750 1.374 . S
C750 H730 0.950 . S
C750 C746 1.385 . S
C750 C749 1.374 . S
C751 C748 1.499 . S
C751 C752 1.373 1_455 S
C751 C753 1.389 . S
C752 H731 0.950 . S
C752 C751 1.373 1_655 S
C752 C768 1.377 . S
C753 C751 1.389 . S
C753 C754 1.524 . S
C753 C767 1.377 . S
C754 C753 1.524 . S
C754 C755 1.397 . S
C754 C759 1.363 . S
C755 H732 0.950 . S
C755 C754 1.397 . S
C755 C756 1.334 . S
C756 H733 0.950 . S
C756 C755 1.334 . S
C756 C757 1.287 . S
C757 C756 1.287 . S
C757 C758 1.524 . S
C757 H776 0.913 . S
C758 H734 0.950 . S
C758 C757 1.524 . S
C758 C759 1.415 . S
C759 H735 0.950 . S
C759 C754 1.363 . S
C759 C758 1.415 . S
C760 H736 0.951 . S
C760 C761 1.366 1_655 S
C760 C762 1.388 . S
C761 C760 1.366 1_455 S
C761 C765 1.385 . S
C762 H737 0.951 . S
C762 C760 1.388 . S
C762 C763 1.366 1_655 S
C763 C762 1.366 1_455 S
C763 C764 1.414 . S
C763 C766 1.499 . S
C764 H738 0.950 . S
C764 C763 1.414 . S
C764 C765 1.374 . S
C765 H739 0.950 . S
C765 C761 1.385 . S
C765 C764 1.374 . S
C766 C763 1.499 . S
C766 C767 1.373 . S
C766 C768 1.389 1_455 S
C767 H740 0.950 . S
C767 C753 1.377 . S
C767 C766 1.373 . S
C768 C752 1.377 . S
C768 C766 1.389 1_655 S
C768 C769 1.524 . S
C769 C768 1.524 . S
C769 C770 1.397 . S
C769 C774 1.363 . S
C770 H741 0.950 . S
C770 C769 1.397 . S
C770 C771 1.334 . S
C771 H742 0.950 . S
C771 C770 1.334 . S
C771 C772 1.287 . S
C772 C771 1.287 . S
C772 C773 1.524 . S
C772 H775 0.999 . S
C773 H743 0.950 . S
C773 C772 1.524 . S
C773 C774 1.415 . S
C774 H744 0.950 . S
C774 C769 1.363 . S
C774 C773 1.415 . S
H775 C772 0.999 . S
H776 C757 0.913 . S
C211 C47 1.374 . S
C196 C10 1.373 . S
C246 C21 1.405 . S
C261 C86 1.435 . S
C296 C31 1.353 . S
C311 C153 1.416 . S
C346 C0 1.348 . S
C361 C54 1.390 . S
C411 C107 1.419 . S
C396 C18 1.356 . S
C446 C34 1.368 . S
C461 C132 1.396 . S
C511 C93 1.354 . S
C496 C36 1.356 . S
C546 C8 1.369 . S
C561 C146 1.396 . S
C611 C61 1.377 . S
C596 C23 1.376 . S
C661 C100 1.333 . S
C646 C26 1.293 . S
C711 C139 1.413 . S
C696 C5 1.354 . S
C746 C13 1.350 . S
C761 C40 1.390 . S
