# Generated by pormake.
# Topology pyr, (3,6)-cn, num edge types: 1
# Building blocks:
#     Node 0, Type 0, BuildingBlock: KAKCAD_clean_linker_0, # of connection points: 3
#     Node 1, Type 0, BuildingBlock: KAKCAD_clean_linker_0, # of connection points: 3
#     Node 2, Type 0, BuildingBlock: KAKCAD_clean_linker_0, # of connection points: 3
#     Node 3, Type 0, BuildingBlock: KAKCAD_clean_linker_0, # of connection points: 3
#     Node 4, Type 0, BuildingBlock: KAKCAD_clean_linker_0, # of connection points: 3
#     Node 5, Type 0, BuildingBlock: KAKCAD_clean_linker_0, # of connection points: 3
#     Node 6, Type 0, BuildingBlock: KAKCAD_clean_linker_0, # of connection points: 3
#     Node 7, Type 0, BuildingBlock: KAKCAD_clean_linker_0, # of connection points: 3
#     Node 8, Type 1, BuildingBlock: LEVNOQ01_clean_sbu_1, # of connection points: 6
#     Node 9, Type 1, BuildingBlock: LEVNOQ01_clean_sbu_1, # of connection points: 6
#     Node 10, Type 1, BuildingBlock: LEVNOQ01_clean_sbu_1, # of connection points: 6
#     Node 11, Type 1, BuildingBlock: LEVNOQ01_clean_sbu_1, # of connection points: 6
#     Edge 12, Type (0, 1), BuildingBlock: OJICUG_clean_linker_0, # of connection points: 2
#     Edge 13, Type (0, 1), BuildingBlock: OJICUG_clean_linker_0, # of connection points: 2
#     Edge 14, Type (0, 1), BuildingBlock: OJICUG_clean_linker_0, # of connection points: 2
#     Edge 15, Type (0, 1), BuildingBlock: OJICUG_clean_linker_0, # of connection points: 2
#     Edge 16, Type (0, 1), BuildingBlock: OJICUG_clean_linker_0, # of connection points: 2
#     Edge 17, Type (0, 1), BuildingBlock: OJICUG_clean_linker_0, # of connection points: 2
#     Edge 18, Type (0, 1), BuildingBlock: OJICUG_clean_linker_0, # of connection points: 2
#     Edge 19, Type (0, 1), BuildingBlock: OJICUG_clean_linker_0, # of connection points: 2
#     Edge 20, Type (0, 1), BuildingBlock: OJICUG_clean_linker_0, # of connection points: 2
#     Edge 21, Type (0, 1), BuildingBlock: OJICUG_clean_linker_0, # of connection points: 2
#     Edge 22, Type (0, 1), BuildingBlock: OJICUG_clean_linker_0, # of connection points: 2
#     Edge 23, Type (0, 1), BuildingBlock: OJICUG_clean_linker_0, # of connection points: 2
#     Edge 24, Type (0, 1), BuildingBlock: OJICUG_clean_linker_0, # of connection points: 2
#     Edge 25, Type (0, 1), BuildingBlock: OJICUG_clean_linker_0, # of connection points: 2
#     Edge 26, Type (0, 1), BuildingBlock: OJICUG_clean_linker_0, # of connection points: 2
#     Edge 27, Type (0, 1), BuildingBlock: OJICUG_clean_linker_0, # of connection points: 2
#     Edge 28, Type (0, 1), BuildingBlock: OJICUG_clean_linker_0, # of connection points: 2
#     Edge 29, Type (0, 1), BuildingBlock: OJICUG_clean_linker_0, # of connection points: 2
#     Edge 30, Type (0, 1), BuildingBlock: OJICUG_clean_linker_0, # of connection points: 2
#     Edge 31, Type (0, 1), BuildingBlock: OJICUG_clean_linker_0, # of connection points: 2
#     Edge 32, Type (0, 1), BuildingBlock: OJICUG_clean_linker_0, # of connection points: 2
#     Edge 33, Type (0, 1), BuildingBlock: OJICUG_clean_linker_0, # of connection points: 2
#     Edge 34, Type (0, 1), BuildingBlock: OJICUG_clean_linker_0, # of connection points: 2
#     Edge 35, Type (0, 1), BuildingBlock: OJICUG_clean_linker_0, # of connection points: 2
# Relax obj value: 0.034
# Max RMSD: 0.110
# Mean RMSD: 0.045
data_MOF--net-pry--node1-LEVNOQ01_clean_sbu_1--node2-KAKCAD_clean_linker_0--edge1-OJICUG_clean_linker_0
_symmetry_space_group_name_H-M    P1
_symmetry_Int_Tables_number       1
_symmetry_cell_setting            triclinic
loop_
_symmetry_equiv_pos_as_xyz
'x, y, z'
_cell_length_a     36.125567
_cell_length_b     34.627535
_cell_length_c     34.400232
_cell_angle_alpha  92.876386
_cell_angle_beta   90.866226
_cell_angle_gamma 93.570519
loop_
_atom_site_label
_atom_site_type_symbol
_atom_site_fract_x
_atom_site_fract_y
_atom_site_fract_z
_atom_type_partial_charge
C0 C 0.06983 0.11204 0.25678 0.0
C1 C 0.09503 0.09836 0.28355 0.0
C2 C 0.0817 0.12366 0.22032 0.0
C3 C 0.11923 0.12241 0.20995 0.0
C4 C 0.14457 0.11002 0.23756 0.0
C5 C 0.13255 0.09777 0.27367 0.0
C6 C 0.1319 0.13323 0.17042 0.0
C7 C 0.11562 0.16284 0.15083 0.0
C8 C 0.12798 0.17352 0.11404 0.0
C9 C 0.15747 0.15458 0.09688 0.0
C10 C 0.17398 0.12453 0.11566 0.0
C11 C 0.16059 0.11389 0.15209 0.0
C12 C 0.20563 0.10456 0.09789 0.0
C13 C 0.20645 0.09543 0.0576 0.0
C14 C 0.23561 0.09472 0.12127 0.0
C15 C 0.26585 0.07702 0.1048 0.0
C16 C 0.26713 0.06875 0.06442 0.0
C17 C 0.11 0.20483 0.09403 0.0
C18 C 0.07123 0.20368 0.08986 0.0
C19 C 0.13108 0.23678 0.08058 0.0
C20 C 0.1136 0.26785 0.06508 0.0
C21 C 0.07458 0.26743 0.06215 0.0
C22 C 0.0538 0.23429 0.07377 0.0
C23 C 0.2368 0.07777 0.04109 0.0
H24 H 0.04062 0.11223 0.26342 0.0
H25 H 0.06116 0.13244 0.19987 0.0
H26 H 0.17382 0.10956 0.23131 0.0
H27 H 0.1526 0.08752 0.29384 0.0
H28 H 0.09387 0.1785 0.16458 0.0
H29 H 0.17224 0.08987 0.16592 0.0
H30 H 0.16753 0.16335 0.06894 0.0
H31 H 0.18361 0.10192 0.03876 0.0
H32 H 0.23631 0.1018 0.15231 0.0
H33 H 0.28898 0.07133 0.12361 0.0
H34 H 0.0543 0.17912 0.09939 0.0
H35 H 0.16104 0.23849 0.08357 0.0
H36 H 0.23668 0.07153 0.00992 0.0
H37 H 0.02384 0.23214 0.07108 0.0
H38 H 0.13069 0.29284 0.05697 0.0
C39 C 0.37312 0.94372 0.74888 0.0
C40 C 0.41126 0.94903 0.75778 0.0
C41 C 0.3607 0.92923 0.71203 0.0
C42 C 0.38609 0.91986 0.68296 0.0
C43 C 0.42426 0.92681 0.69131 0.0
C44 C 0.4367 0.94125 0.7283 0.0
C45 C 0.37271 0.90151 0.64473 0.0
C46 C 0.3401 0.9129 0.62706 0.0
C47 C 0.3262 0.89436 0.5922 0.0
C48 C 0.34546 0.86463 0.5743 0.0
C49 C 0.37763 0.85191 0.59187 0.0
C50 C 0.39117 0.8708 0.62698 0.0
C51 C 0.3952 0.81694 0.57545 0.0
C52 C 0.37309 0.78514 0.55902 0.0
C53 C 0.43383 0.81396 0.57817 0.0
C54 C 0.44965 0.77945 0.56658 0.0
C55 C 0.42727 0.7474 0.55148 0.0
C56 C 0.29024 0.90454 0.57584 0.0
C57 C 0.25856 0.90288 0.59899 0.0
C58 C 0.28734 0.91631 0.5375 0.0
C59 C 0.25353 0.92789 0.52312 0.0
C60 C 0.22203 0.92678 0.54656 0.0
C61 C 0.22466 0.91357 0.58434 0.0
C62 C 0.38898 0.75091 0.54695 0.0
H63 H 0.35278 0.94974 0.77083 0.0
H64 H 0.33112 0.92398 0.7069 0.0
H65 H 0.44458 0.92046 0.66945 0.0
H66 H 0.46628 0.94466 0.73428 0.0
H67 H 0.32532 0.93631 0.64035 0.0
H68 H 0.41502 0.86031 0.64164 0.0
H69 H 0.33456 0.85061 0.54728 0.0
H70 H 0.34321 0.78588 0.55711 0.0
H71 H 0.45183 0.83802 0.58996 0.0
H72 H 0.4793 0.7775 0.57023 0.0
H73 H 0.26015 0.89357 0.62854 0.0
H74 H 0.31146 0.9177 0.51917 0.0
H75 H 0.37098 0.72642 0.53607 0.0
H76 H 0.20081 0.91302 0.60308 0.0
H77 H 0.25208 0.93829 0.49399 0.0
C78 C 0.73735 0.44523 0.9464 0.0
C79 C 0.76893 0.42453 0.95308 0.0
C80 C 0.70686 0.4276 0.92555 0.0
C81 C 0.7073 0.38889 0.91137 0.0
C82 C 0.73746 0.3673 0.92096 0.0
C83 C 0.76801 0.38495 0.94155 0.0
C84 C 0.67832 0.37205 0.88358 0.0
C85 C 0.66758 0.39306 0.85191 0.0
C86 C 0.64189 0.37662 0.82371 0.0
C87 C 0.62681 0.3386 0.82785 0.0
C88 C 0.6383 0.31695 0.85868 0.0
C89 C 0.6637 0.33396 0.88664 0.0
C90 C 0.62431 0.27631 0.86185 0.0
C91 C 0.58609 0.26644 0.86175 0.0
C92 C 0.6493 0.24761 0.86777 0.0
C93 C 0.6363 0.21019 0.876 0.0
C94 C 0.59806 0.20093 0.87897 0.0
C95 C 0.63157 0.3988 0.78963 0.0
C96 C 0.62913 0.43918 0.79342 0.0
C97 C 0.62387 0.37978 0.75302 0.0
C98 C 0.61201 0.40023 0.72167 0.0
C99 C 0.60824 0.44036 0.7259 0.0
C100 C 0.61817 0.45974 0.76183 0.0
C101 C 0.57305 0.22909 0.8704 0.0
H102 H 0.73695 0.47557 0.9556 0.0
H103 H 0.68356 0.44464 0.9192 0.0
H104 H 0.73861 0.33745 0.91025 0.0
H105 H 0.79196 0.36823 0.9458 0.0
H106 H 0.68059 0.42169 0.84843 0.0
H107 H 0.67205 0.31747 0.91091 0.0
H108 H 0.60654 0.32546 0.80688 0.0
H109 H 0.56634 0.28818 0.85731 0.0
H110 H 0.67895 0.2545 0.86727 0.0
H111 H 0.65624 0.18902 0.88186 0.0
H112 H 0.63458 0.45496 0.82108 0.0
H113 H 0.62647 0.34891 0.74856 0.0
H114 H 0.54342 0.22321 0.87301 0.0
H115 H 0.61639 0.49076 0.76603 0.0
H116 H 0.60432 0.38416 0.69464 0.0
C117 C 0.8866 0.58258 0.25766 0.0
C118 C 0.92424 0.57967 0.24881 0.0
C119 C 0.87571 0.58911 0.29623 0.0
C120 C 0.90221 0.59288 0.32684 0.0
C121 C 0.93973 0.58952 0.31802 0.0
C122 C 0.95058 0.5829 0.27958 0.0
C123 C 0.89106 0.60201 0.36761 0.0
C124 C 0.85865 0.58426 0.38264 0.0
C125 C 0.84627 0.5955 0.41988 0.0
C126 C 0.86734 0.62398 0.44253 0.0
C127 C 0.89947 0.64246 0.42788 0.0
C128 C 0.91143 0.63086 0.39062 0.0
C129 C 0.91728 0.67761 0.4487 0.0
C130 C 0.89514 0.70618 0.46467 0.0
C131 C 0.95599 0.68493 0.44914 0.0
C132 C 0.97194 0.72107 0.46266 0.0
C133 C 0.94948 0.75069 0.47576 0.0
C134 C 0.80875 0.5823 0.43287 0.0
C135 C 0.77853 0.58161 0.40666 0.0
C136 C 0.80203 0.57487 0.47213 0.0
C137 C 0.76565 0.56881 0.48517 0.0
C138 C 0.73551 0.5705 0.45921 0.0
C139 C 0.74241 0.57575 0.41967 0.0
C140 C 0.91104 0.74223 0.47806 0.0
H141 H 0.86558 0.58042 0.23474 0.0
H142 H 0.84661 0.59212 0.30197 0.0
H143 H 0.96077 0.59174 0.34094 0.0
H144 H 0.9797 0.57971 0.2741 0.0
H145 H 0.84256 0.56226 0.36499 0.0
H146 H 0.93522 0.64621 0.37839 0.0
H147 H 0.85742 0.63362 0.47074 0.0
H148 H 0.86519 0.7018 0.46431 0.0
H149 H 0.9738 0.66326 0.43757 0.0
H150 H 0.00171 0.72648 0.46097 0.0
H151 H 0.78258 0.58759 0.37636 0.0
H152 H 0.82483 0.57484 0.49294 0.0
H153 H 0.89274 0.76442 0.4873 0.0
H154 H 0.7197 0.57623 0.3988 0.0
H155 H 0.76107 0.56437 0.51571 0.0
C156 C 0.9034 0.88176 0.73419 0.0
C157 C 0.9069 0.92197 0.7298 0.0
C158 C 0.88961 0.86689 0.76872 0.0
C159 C 0.87884 0.8919 0.79952 0.0
C160 C 0.8814 0.93202 0.79448 0.0
C161 C 0.89507 0.9468 0.76012 0.0
C162 C 0.86554 0.87667 0.83709 0.0
C163 C 0.88216 0.84552 0.85372 0.0
C164 C 0.87058 0.83214 0.88986 0.0
C165 C 0.84207 0.85051 0.9095 0.0
C166 C 0.82458 0.88131 0.89313 0.0
C167 C 0.83654 0.89398 0.85692 0.0
C168 C 0.79271 0.89918 0.91274 0.0
C169 C 0.76556 0.87589 0.93094 0.0
C170 C 0.78815 0.93928 0.91191 0.0
C171 C 0.75682 0.95543 0.92805 0.0
C172 C 0.72945 0.93192 0.94568 0.0
C173 C 0.88762 0.79829 0.90654 0.0
C174 C 0.89262 0.76476 0.88293 0.0
C175 C 0.8985 0.79887 0.94607 0.0
C176 C 0.91418 0.76671 0.9615 0.0
C177 C 0.9186 0.73303 0.93793 0.0
C178 C 0.90766 0.73247 0.89848 0.0
C179 C 0.73444 0.89201 0.94716 0.0
H180 H 0.91244 0.86187 0.71149 0.0
H181 H 0.88752 0.8358 0.77132 0.0
H182 H 0.87376 0.95228 0.81755 0.0
H183 H 0.89694 0.97791 0.75755 0.0
H184 H 0.90482 0.83221 0.83903 0.0
H185 H 0.82248 0.91679 0.84353 0.0
H186 H 0.83311 0.84036 0.93733 0.0
H187 H 0.76763 0.84486 0.93151 0.0
H188 H 0.80874 0.95823 0.89864 0.0
H189 H 0.75401 0.98628 0.92665 0.0
H190 H 0.8843 0.76323 0.85248 0.0
H191 H 0.89521 0.82435 0.96496 0.0
H192 H 0.71356 0.8728 0.95968 0.0
H193 H 0.91105 0.70706 0.8795 0.0
H194 H 0.92232 0.76793 0.992 0.0
C195 C 0.58585 0.03419 0.27601 0.0
C196 C 0.57329 0.06086 0.25007 0.0
C197 C 0.59905 0.04699 0.31346 0.0
C198 C 0.5998 0.08658 0.32526 0.0
C199 C 0.58905 0.11312 0.29831 0.0
C200 C 0.57593 0.10045 0.26137 0.0
C201 C 0.61156 0.10138 0.3652 0.0
C202 C 0.64455 0.09067 0.38248 0.0
C203 C 0.65912 0.11083 0.41642 0.0
C204 C 0.64052 0.14205 0.43291 0.0
C205 C 0.60684 0.15245 0.41654 0.0
C206 C 0.59195 0.13058 0.38379 0.0
C207 C 0.58963 0.18891 0.42983 0.0
C208 C 0.59092 0.20273 0.46916 0.0
C209 C 0.57367 0.21172 0.4021 0.0
C210 C 0.56058 0.24753 0.41293 0.0
C211 C 0.56367 0.26224 0.45165 0.0
C212 C 0.69586 0.10176 0.4319 0.0
C213 C 0.70241 0.0639 0.4418 0.0
C214 C 0.72531 0.1303 0.43409 0.0
C215 C 0.76111 0.12068 0.44421 0.0
C216 C 0.76783 0.08259 0.45316 0.0
C217 C 0.73805 0.05449 0.45278 0.0
C218 C 0.57801 0.23915 0.47999 0.0
H219 H 0.58428 0.00351 0.26783 0.0
H220 H 0.60757 0.02594 0.33349 0.0
H221 H 0.59053 0.14394 0.30587 0.0
H222 H 0.56734 0.12177 0.24163 0.0
H223 H 0.66021 0.06851 0.36817 0.0
H224 H 0.56567 0.1376 0.37123 0.0
H225 H 0.65312 0.159 0.45752 0.0
H226 H 0.60264 0.18585 0.4914 0.0
H227 H 0.5728 0.20299 0.37143 0.0
H228 H 0.54956 0.26472 0.39048 0.0
H229 H 0.68008 0.04146 0.44024 0.0
H230 H 0.72095 0.15962 0.42626 0.0
H231 H 0.58086 0.25 0.51004 0.0
H232 H 0.74272 0.02483 0.45913 0.0
H233 H 0.78374 0.14272 0.4441 0.0
C234 C 0.22396 0.58348 0.1241 0.0
C235 C 0.22509 0.58252 0.08337 0.0
C236 C 0.2527 0.60229 0.14645 0.0
C237 C 0.28346 0.62016 0.1285 0.0
C238 C 0.28486 0.61851 0.08751 0.0
C239 C 0.25565 0.60007 0.06506 0.0
C240 C 0.31278 0.64213 0.15272 0.0
C241 C 0.32398 0.62871 0.18863 0.0
C242 C 0.34916 0.65111 0.21335 0.0
C243 C 0.36438 0.68668 0.20094 0.0
C244 C 0.35411 0.70016 0.16473 0.0
C245 C 0.32793 0.67787 0.14112 0.0
C246 C 0.37002 0.73771 0.15145 0.0
C247 C 0.37669 0.77012 0.17763 0.0
C248 C 0.37792 0.74155 0.1119 0.0
C249 C 0.39093 0.77707 0.09862 0.0
C250 C 0.39699 0.80942 0.12463 0.0
C251 C 0.35946 0.63724 0.25202 0.0
C252 C 0.3329 0.61746 0.27457 0.0
C253 C 0.39613 0.6429 0.26634 0.0
C254 C 0.4062 0.62829 0.30176 0.0
C255 C 0.37998 0.60729 0.32348 0.0
C256 C 0.34315 0.60232 0.30978 0.0
C257 C 0.39047 0.80566 0.16433 0.0
H258 H 0.20028 0.5704 0.13865 0.0
H259 H 0.25024 0.60372 0.17782 0.0
H260 H 0.30841 0.6316 0.0728 0.0
H261 H 0.25692 0.59941 0.03359 0.0
H262 H 0.31317 0.6006 0.19727 0.0
H263 H 0.31827 0.68906 0.11419 0.0
H264 H 0.38412 0.70399 0.21955 0.0
H265 H 0.37065 0.76826 0.20823 0.0
H266 H 0.37421 0.71702 0.0911 0.0
H267 H 0.39683 0.77917 0.06797 0.0
H268 H 0.30423 0.61324 0.26479 0.0
H269 H 0.41747 0.65734 0.24954 0.0
H270 H 0.39548 0.83028 0.18483 0.0
H271 H 0.3225 0.58606 0.32593 0.0
H272 H 0.43505 0.63165 0.31111 0.0
C273 C 0.06636 0.26997 0.52658 0.0
C274 C 0.02843 0.2634 0.5341 0.0
C275 C 0.08571 0.3041 0.54033 0.0
C276 C 0.06762 0.33284 0.56168 0.0
C277 C 0.02902 0.32776 0.56631 0.0
C278 C 0.00962 0.29332 0.55272 0.0
C279 C 0.08995 0.36534 0.58254 0.0
C280 C 0.1224 0.38107 0.56603 0.0
C281 C 0.14806 0.40546 0.58818 0.0
C282 C 0.13942 0.41695 0.62669 0.0
C283 C 0.10604 0.40305 0.64329 0.0
C284 C 0.08179 0.37694 0.62102 0.0
C285 C 0.09689 0.41358 0.68446 0.0
C286 C 0.12392 0.41484 0.71452 0.0
C287 C 0.06018 0.42057 0.69419 0.0
C288 C 0.05046 0.42759 0.73288 0.0
C289 C 0.07715 0.42793 0.7631 0.0
C290 C 0.18526 0.4151 0.57196 0.0
C291 C 0.20374 0.38614 0.55132 0.0
C292 C 0.20301 0.45229 0.57755 0.0
C293 C 0.2387 0.46007 0.56326 0.0
C294 C 0.25738 0.43071 0.54346 0.0
C295 C 0.23926 0.39386 0.53721 0.0
C296 C 0.11416 0.42206 0.75345 0.0
H297 H 0.08197 0.24738 0.51304 0.0
H298 H 0.11546 0.30648 0.53662 0.0
H299 H 0.01407 0.34963 0.58193 0.0
H300 H 0.98032 0.28923 0.55868 0.0
H301 H 0.12855 0.37295 0.5361 0.0
H302 H 0.05753 0.36389 0.63455 0.0
H303 H 0.15905 0.43578 0.64401 0.0
H304 H 0.1524 0.40921 0.70813 0.0
H305 H 0.0388 0.42061 0.67177 0.0
H306 H 0.02192 0.43319 0.73907 0.0
H307 H 0.19119 0.35698 0.54698 0.0
H308 H 0.18944 0.47522 0.59316 0.0
H309 H 0.13539 0.42224 0.77603 0.0
H310 H 0.2529 0.37069 0.52205 0.0
H311 H 0.25222 0.48864 0.56898 0.0
O312 O 0.00894 0.01388 0.60774 0.0
Mg313 Mg 0.03589 0.04648 0.56599 0.0
O314 O 0.9717 0.9838 0.56318 0.0
Mg315 Mg -0.00509 0.00739 0.50364 0.0
O316 O 0.00395 0.07282 0.52686 0.0
O317 O 0.0333 0.10318 0.57916 0.0
O318 O 0.02034 0.03398 0.44556 0.0
O319 O 0.93461 0.02617 0.49189 0.0
Mg320 Mg 0.96857 0.97134 0.43249 0.0
O321 O 0.98278 0.9421 0.48072 0.0
O322 O 0.01182 0.98966 0.3978 0.0
O323 O 0.92006 0.0022 0.43268 0.0
O324 O 0.95903 0.91397 0.42448 0.0
C325 C 0.08669 0.00095 0.52762 0.0
C326 C 0.9818 0.99013 0.59888 0.0
C327 C 0.01333 0.10437 0.5479 0.0
C328 C 0.02681 0.02154 0.4108 0.0
C329 C 0.91223 0.02234 0.46275 0.0
C330 C 0.97253 0.91116 0.45907 0.0
O331 O 0.08815 0.03253 0.54758 0.0
O332 O 0.05555 0.98622 0.51406 0.0
O333 O 0.4288 0.07845 0.01528 0.0
Mg334 Mg 0.48492 0.08666 0.0286 0.0
O335 O 0.43481 0.01532 0.01579 0.0
Mg336 Mg 0.49867 0.00353 0.00263 0.0
O337 O 0.51672 0.06551 0.98523 0.0
O338 O 0.51269 0.12894 0.00028 0.0
O339 O 0.56177 0.99099 0.9898 0.0
O340 O 0.47918 0.9919 0.93676 0.0
Mg341 Mg 0.50813 0.91724 0.97314 0.0
O342 O 0.48247 0.94151 0.01976 0.0
O343 O 0.56555 0.9278 0.97762 0.0
O344 O 0.48042 0.92888 0.92156 0.0
O345 O 0.4839 0.87753 0.00793 0.0
C346 C 0.51538 0.0431 0.09394 0.0
C347 C 0.41438 0.04435 0.01583 0.0
C348 C 0.52507 0.1015 0.9783 0.0
C349 C 0.58089 0.96151 0.98299 0.0
C350 C 0.47286 0.96263 0.91284 0.0
C351 C 0.47346 0.90645 0.02922 0.0
O352 O 0.50287 0.07487 0.08486 0.0
O353 O 0.5172 0.01499 0.06862 0.0
O354 O 0.45178 0.57246 0.56923 0.0
Mg355 Mg 0.4639 0.51463 0.57322 0.0
O356 O 0.48421 0.57107 0.51588 0.0
Mg357 Mg 0.49765 0.5055 0.50705 0.0
O358 O 0.51736 0.49769 0.57343 0.0
O359 O 0.48458 0.51336 0.6265 0.0
O360 O 0.51371 0.44041 0.49439 0.0
O361 O 0.56034 0.52785 0.50128 0.0
Mg362 Mg 0.52817 0.49571 0.41943 0.0
O363 O 0.48191 0.51397 0.44387 0.0
O364 O 0.5331 0.43821 0.43323 0.0
O365 O 0.57213 0.53461 0.43862 0.0
O366 O 0.48926 0.51127 0.37979 0.0
C367 C 0.41203 0.46809 0.53389 0.0
C368 C 0.46591 0.58965 0.54113 0.0
C369 C 0.51437 0.50144 0.61124 0.0
C370 C 0.52693 0.42198 0.46495 0.0
C371 C 0.58161 0.53942 0.47423 0.0
C372 C 0.4697 0.52054 0.40947 0.0
O373 O 0.42152 0.47182 0.56918 0.0
O374 O 0.43356 0.48211 0.50832 0.0
O375 O 0.99138 0.42474 0.06395 0.0
Mg376 Mg 0.01562 0.4812 0.06668 0.0
O377 O 0.02158 0.43808 0.01179 0.0
Mg378 Mg 0.00063 0.5041 0.00589 0.0
O379 O 0.98046 0.52454 0.0707 0.0
O380 O 0.01054 0.50182 0.12174 0.0
O381 O 0.97831 0.5687 0.99998 0.0
O382 O 0.94143 0.4764 0.99668 0.0
Mg383 Mg 0.98526 0.52848 0.94291 0.0
O384 O 0.02071 0.48488 0.94081 0.0
O385 O 0.00742 0.58626 0.94847 0.0
O386 O 0.92761 0.51724 0.95296 0.0
O387 O 0.99348 0.5086 0.88839 0.0
C388 C 0.08395 0.51635 0.03502 0.0
C389 C 0.00955 0.41289 0.03536 0.0
C390 C 0.98685 0.52406 0.10808 0.0
C391 C 0.9889 0.59557 0.97773 0.0
C392 C 0.91735 0.49118 0.97569 0.0
C393 C 0.01607 0.4858 0.90315 0.0
O394 O 0.0734 0.48916 0.0562 0.0
O395 O 0.05992 0.53252 0.01524 0.0
C396 C 0.05805 0.1012 0.34521 0.0
C397 C 0.08166 0.08142 0.32003 0.0
H398 H 0.02307 0.09807 0.39524 0.0
C399 C 0.09047 0.04373 0.32828 0.0
H400 H 0.05091 0.13033 0.33951 0.0
C401 C 0.07427 0.0253 0.35956 0.0
C402 C 0.0496 0.04442 0.38387 0.0
H403 H 0.10832 0.02769 0.30925 0.0
H404 H 0.0799 0.99542 0.36386 0.0
C405 C 0.04247 0.08297 0.37725 0.0
C406 C 0.4069 0.93863 0.82891 0.0
C407 C 0.42429 0.95818 0.79865 0.0
H408 H 0.40883 0.92531 0.88891 0.0
C409 C 0.45568 0.98351 0.80761 0.0
H410 H 0.38305 0.91853 0.82308 0.0
C411 C 0.47024 0.98772 0.84579 0.0
C412 C 0.45385 0.96624 0.87523 0.0
H413 H 0.46955 -0.00088 0.78492 0.0
H414 H 0.49541 0.00585 0.85177 0.0
C415 C 0.42167 0.94242 0.86664 0.0
C416 C 0.59337 0.4502 0.65505 0.0
C417 C 0.58962 0.46088 0.69486 0.0
H418 H 0.57247 0.45494 0.5967 0.0
C419 C 0.56458 0.48882 0.7054 0.0
H420 H 0.61295 0.42931 0.64583 0.0
C421 C 0.54224 0.5038 0.67746 0.0
C422 C 0.54379 0.49092 0.63817 0.0
H423 H 0.56033 0.49754 0.73558 0.0
H424 H 0.52228 0.52416 0.68714 0.0
C425 C 0.57053 0.46512 0.62685 0.0
C426 C 0.91586 0.54482 0.18278 0.0
C427 C 0.93628 0.57178 0.20806 0.0
H428 H 0.91589 0.50922 0.12981 0.0
C429 C 0.97023 0.58844 0.19533 0.0
H430 H 0.88976 0.5312 0.19165 0.0
C431 C 0.98511 0.57564 0.16009 0.0
C432 C 0.96598 0.54666 0.13642 0.0
H433 H 0.98627 0.60997 0.21356 0.0
H434 H 0.0127 0.58656 0.15254 0.0
C435 C 0.93064 0.53238 0.14722 0.0
C436 C 0.32282 0.02773 0.06497 0.0
C437 C 0.3016 0.05469 0.04661 0.0
H438 H 0.3754 0.00199 0.06858 0.0
C439 C 0.3158 0.07174 0.01327 0.0
H440 H 0.31249 0.01368 0.09043 0.0
C441 C 0.35151 0.06485 0.0008 0.0
C442 C 0.37382 0.04046 0.02103 0.0
H443 H 0.30053 0.0928 0.9985 0.0
H444 H 0.36273 0.08086 0.97691 0.0
C445 C 0.3586 0.02051 0.05215 0.0
C446 C 0.15333 0.92182 0.53391 0.0
C447 C 0.18753 0.9435 0.5338 0.0
H448 H 0.09399 0.92307 0.53049 0.0
C449 C 0.18824 0.98296 0.52636 0.0
H450 H 0.15227 0.89132 0.53975 0.0
C451 C 0.15517 0.00116 0.52195 0.0
C452 C 0.12084 0.98001 0.52402 0.0
H453 H 0.2143 0.00026 0.52652 0.0
H454 H 0.15638 0.03216 0.5186 0.0
C455 C 0.12014 0.93988 0.52846 0.0
C456 C 0.83013 0.42736 0.98936 0.0
C457 C 0.80461 0.44509 0.96583 0.0
H458 H 0.88609 0.42812 0.01115 0.0
C459 C 0.81548 0.48042 0.94971 0.0
H460 H 0.82238 0.40038 0.00262 0.0
C461 C 0.8517 0.49622 0.95463 0.0
C462 C 0.87797 0.47706 0.9757 0.0
H463 H 0.79675 0.49471 0.9311 0.0
H464 H 0.85948 0.52267 0.9404 0.0
C465 C 0.86655 0.44325 0.99429 0.0
C466 C 0.68329 0.53747 0.49517 0.0
C467 C 0.69667 0.56788 0.47256 0.0
H468 H 0.63495 0.50502 0.5145 0.0
C469 C 0.67166 0.59375 0.45879 0.0
H470 H 0.70203 0.51721 0.50621 0.0
C471 C 0.63367 0.58681 0.4635 0.0
C472 C 0.61999 0.55424 0.48259 0.0
H473 H 0.68134 0.61799 0.44211 0.0
H474 H 0.6148 0.60521 0.44957 0.0
C475 C 0.64502 0.5307 0.50021 0.0
C476 C 0.02247 0.31219 0.06845 0.0
C477 C 0.05552 0.30244 0.05033 0.0
H478 H 0.98169 0.35364 0.07691 0.0
C479 C 0.07091 0.32773 0.02304 0.0
H480 H 0.00985 0.29418 0.09008 0.0
C481 C 0.0547 0.36265 0.01576 0.0
C482 C 0.02274 0.37301 0.03559 0.0
H483 H 0.09598 0.32104 0.00796 0.0
H484 H 0.0682 0.38232 0.99611 0.0
C485 C 0.00629 0.3467 0.06104 0.0
C486 C 0.6027 0.1537 0.931 0.0
C487 C 0.58448 0.16498 0.89733 0.0
H488 H 0.59769 0.12292 0.98327 0.0
C489 C 0.55008 0.1461 0.88612 0.0
H490 H 0.62902 0.16784 0.94079 0.0
C491 C 0.53228 0.12014 0.91063 0.0
C492 C 0.54884 0.11262 0.94633 0.0
H493 H 0.53563 0.15376 0.86007 0.0
H494 H 0.50412 0.10911 0.90357 0.0
C495 C 0.58488 0.12782 0.95539 0.0
C496 C 0.95007 0.81819 0.50729 0.0
C497 C 0.96449 0.7917 0.47987 0.0
H498 H 0.94219 0.87807 0.52276 0.0
C499 C 0.98836 0.80602 0.45131 0.0
H500 H 0.93196 0.80803 0.52993 0.0
C501 C -0.00586 0.84575 0.44743 0.0
C502 C 0.97663 0.872 0.47223 0.0
H503 H -0.00029 0.78671 0.42948 0.0
H504 H 0.00989 0.85592 0.42296 0.0
C505 C 0.95618 0.85821 0.50352 0.0
C506 C 0.43324 0.68531 0.51144 0.0
C507 C 0.44274 0.70901 0.545 0.0
H508 H 0.43402 0.62843 0.48349 0.0
C509 C 0.4637 0.6941 0.57482 0.0
H510 H 0.41702 0.69615 0.48809 0.0
C511 C 0.47293 0.65557 0.57231 0.0
C512 C 0.46213 0.63149 0.5396 0.0
H513 H 0.47097 0.7115 0.6012 0.0
H514 H 0.48729 0.64409 0.59667 0.0
C515 C 0.44318 0.6468 0.50862 0.0
C516 C 0.91787 0.92326 0.65705 0.0
C517 C 0.92536 0.93854 0.69534 0.0
H518 H 0.9294 0.92772 0.59607 0.0
C519 C 0.95133 0.97023 0.70105 0.0
H520 H 0.89791 0.89884 0.65171 0.0
C521 C 0.96918 0.98646 0.66965 0.0
C522 C 0.96172 0.97166 0.63127 0.0
H523 H 0.95834 0.98234 0.73007 0.0
H524 H 0.98893 0.01095 0.67569 0.0
C525 C 0.93571 0.93987 0.62521 0.0
C526 C 0.57361 0.02612 0.18362 0.0
C527 C 0.55558 0.04862 0.21186 0.0
H528 H 0.57472 0.00622 0.12325 0.0
C529 C 0.52176 0.06375 0.202 0.0
H530 H 0.59974 0.01412 0.19057 0.0
C531 C 0.50783 0.05958 0.16402 0.0
C532 C 0.52713 0.03981 0.13491 0.0
H533 H 0.50692 0.08057 0.22337 0.0
H534 H 0.48259 0.07334 0.15705 0.0
C535 C 0.55935 0.02162 0.14523 0.0
C536 C 0.38599 0.5457 0.35649 0.0
C537 C 0.39282 0.5861 0.35689 0.0
H538 H 0.40562 0.49228 0.37472 0.0
C539 C 0.41824 0.60434 0.38434 0.0
H540 H 0.36668 0.53091 0.3355 0.0
C541 C 0.43999 0.58213 0.40732 0.0
C542 C 0.43664 0.54162 0.40278 0.0
H543 H 0.42377 0.63549 0.38532 0.0
H544 H 0.46248 0.59652 0.42479 0.0
C545 C 0.40809 0.52355 0.37909 0.0
C546 C 0.03182 0.41982 0.8171 0.0
C547 C 0.06596 0.43573 0.80413 0.0
H548 H 0.98951 0.42292 0.85994 0.0
C549 C 0.08701 0.46232 0.82918 0.0
H550 H 0.01526 0.39868 0.79889 0.0
C551 C 0.07248 0.4755 0.86467 0.0
C552 C 0.03689 0.46209 0.87565 0.0
H553 H 0.11332 0.47524 0.82004 0.0
H554 H 0.08761 0.49861 0.88178 0.0
C555 C 0.0173 0.43314 0.85233 0.0
C556 C 0.6785 0.93383 0.99444 0.0
C557 C 0.69463 0.9479 0.96057 0.0
H558 H 0.62953 0.9281 0.0285 0.0
C559 C 0.67504 0.97376 0.93889 0.0
H560 H 0.69308 0.91462 0.01233 0.0
C561 C 0.63874 0.98223 0.94882 0.0
C562 C 0.62162 0.96496 0.98052 0.0
H563 H 0.68656 0.98505 0.91257 0.0
H564 H 0.62304 -0.0006 0.92979 0.0
C565 C 0.64231 0.94199 0.00408 0.0
C566 C 0.81725 0.05265 0.49175 0.0
C567 C 0.80624 0.07103 0.45832 0.0
H568 H 0.86046 0.02372 0.51996 0.0
C569 C 0.83135 0.07573 0.42795 0.0
H570 H 0.7982 0.04866 0.51545 0.0
C571 C 0.86623 0.0607 0.43008 0.0
C572 C 0.87705 0.04165 0.46307 0.0
H573 H 0.82336 0.08953 0.4018 0.0
H574 H 0.88459 0.0634 0.40561 0.0
C575 C 0.85273 0.03858 0.49438 0.0
C576 C 0.16828 0.58632 0.0422 0.0
C577 C 0.19339 0.56379 0.06097 0.0
H578 H 0.11316 0.5886 0.01864 0.0
C579 C 0.18451 0.52425 0.06474 0.0
H580 H 0.17468 0.61703 0.03942 0.0
C581 C 0.14966 0.50807 0.05301 0.0
C582 C 0.12304 0.53129 0.03763 0.0
H583 H 0.20365 0.5065 0.07915 0.0
H584 H 0.14276 0.47791 0.05832 0.0
C585 C 0.13318 0.57009 0.03045 0.0
C586 C 0.32245 0.41023 0.54321 0.0
C587 C 0.29691 0.43718 0.53296 0.0
H588 H 0.37965 0.39893 0.55069 0.0
C589 C 0.31003 0.47138 0.51592 0.0
H590 H 0.31327 0.38379 0.55671 0.0
C591 C 0.34819 0.47952 0.51157 0.0
C592 C 0.37362 0.45387 0.52482 0.0
H593 H 0.29092 0.49251 0.50751 0.0
H594 H 0.35787 0.50727 0.501 0.0
C595 C 0.36044 0.4187 0.53954 0.0
C596 C 0.96893 0.70134 0.97409 0.0
C597 C 0.93456 0.69836 0.95392 0.0
H598 H 0.01356 0.67064 0.99759 0.0
C599 C 0.91661 0.66147 0.94662 0.0
H600 H 0.98345 0.72939 0.97993 0.0
C601 C 0.93327 0.62824 0.95772 0.0
C602 C 0.96848 0.63105 0.97584 0.0
H603 H 0.89009 0.65827 0.93129 0.0
H604 H 0.91956 0.6001 0.95001 0.0
C605 C 0.98605 0.66786 0.98439 0.0
C606 C 0.44839 0.85995 0.11986 0.0
C607 C 0.4121 0.84605 0.10956 0.0
H608 H 0.49701 0.89236 0.10165 0.0
C609 C 0.39363 0.862 0.07857 0.0
H610 H 0.46315 0.84768 0.14347 0.0
C611 C 0.41273 0.88797 0.05521 0.0
C612 C 0.45045 0.8979 0.0625 0.0
H613 H 0.36562 0.85147 0.07019 0.0
H614 H 0.39932 0.89648 0.02886 0.0
C615 C 0.46763 0.88566 0.09618 0.0
C616 C 0.02086 0.1978 0.49887 0.0
C617 C 0.01149 0.22316 0.53001 0.0
H618 H 0.0277 0.13868 0.47976 0.0
C619 C 0.99307 0.20765 0.56195 0.0
H620 H 0.03465 0.20896 0.47364 0.0
C621 C 0.98917 0.16769 0.56532 0.0
C622 C 0.00304 0.14259 0.53661 0.0
H623 H 0.98559 0.22616 0.58653 0.0
H624 H 0.97872 0.15656 0.59221 0.0
C625 C 0.01658 0.15761 0.50214 0.0
C626 C 0.57392 0.33109 0.43696 0.0
C627 C 0.5566 0.30349 0.46017 0.0
H628 H 0.57851 0.38944 0.42086 0.0
C629 C 0.53155 0.31563 0.4886 0.0
H630 H 0.59393 0.32275 0.41543 0.0
C631 C 0.52238 0.35466 0.49186 0.0
C632 C 0.53822 0.38163 0.46664 0.0
H633 H 0.51803 0.29478 0.50701 0.0
H634 H 0.502 0.36332 0.5128 0.0
C635 C 0.5649 0.36942 0.44011 0.0
loop_
_geom_bond_atom_site_label_1
_geom_bond_atom_site_label_2
_geom_bond_distance
_geom_bond_site_symmetry_2
_ccdc_geom_bond_type
C0 C1 1.386 . S
C0 C2 1.397 . S
C0 H24 0.931 . S
C1 C0 1.386 . S
C1 C5 1.397 . S
C2 C0 1.397 . S
C2 C3 1.384 . S
C2 H25 0.930 . S
C3 C2 1.384 . S
C3 C4 1.377 . S
C3 C6 1.481 . S
C4 C3 1.377 . S
C4 C5 1.389 . S
C4 H26 0.929 . S
C5 C1 1.397 . S
C5 C4 1.389 . S
C5 H27 0.931 . S
C6 C3 1.481 . S
C6 C7 1.387 . S
C6 C11 1.390 . S
C7 C6 1.387 . S
C7 C8 1.401 . S
C7 H28 0.930 . S
C8 C7 1.401 . S
C8 C9 1.376 . S
C8 C17 1.511 . S
C9 C8 1.376 . S
C9 C10 1.392 . S
C9 H30 0.931 . S
C10 C9 1.392 . S
C10 C11 1.361 . S
C10 C12 1.500 . S
C11 C6 1.390 . S
C11 C10 1.361 . S
C11 H29 0.931 . S
C12 C10 1.500 . S
C12 C13 1.371 . S
C12 C14 1.365 . S
C13 C12 1.371 . S
C13 C23 1.386 . S
C13 H31 0.931 . S
C14 C12 1.365 . S
C14 C15 1.409 . S
C14 H32 0.929 . S
C15 C14 1.409 . S
C15 C16 1.380 . S
C15 H33 0.930 . S
C16 C15 1.380 . S
C16 C23 1.357 . S
C17 C8 1.511 . S
C17 C18 1.341 . S
C17 C19 1.371 . S
C18 C17 1.341 . S
C18 C22 1.394 . S
C18 H34 0.930 . S
C19 C17 1.371 . S
C19 C20 1.392 . S
C19 H35 0.931 . S
C20 C19 1.392 . S
C20 C21 1.331 . S
C20 H38 0.932 . S
C21 C20 1.331 . S
C21 C22 1.336 . S
C22 C18 1.394 . S
C22 C21 1.336 . S
C22 H37 0.929 . S
C23 C13 1.386 . S
C23 C16 1.357 . S
C23 H36 0.928 . S
H24 C0 0.931 . S
H25 C2 0.930 . S
H26 C4 0.929 . S
H27 C5 0.931 . S
H28 C7 0.930 . S
H29 C11 0.931 . S
H30 C9 0.931 . S
H31 C13 0.931 . S
H32 C14 0.929 . S
H33 C15 0.930 . S
H34 C18 0.930 . S
H35 C19 0.931 . S
H36 C23 0.928 . S
H37 C22 0.929 . S
H38 C20 0.932 . S
C39 C40 1.386 . S
C39 C41 1.397 . S
C39 H63 0.931 . S
C40 C39 1.386 . S
C40 C44 1.397 . S
C41 C39 1.397 . S
C41 C42 1.384 . S
C41 H64 0.930 . S
C42 C41 1.384 . S
C42 C43 1.377 . S
C42 C45 1.481 . S
C43 C42 1.377 . S
C43 C44 1.389 . S
C43 H65 0.929 . S
C44 C40 1.397 . S
C44 C43 1.389 . S
C44 H66 0.931 . S
C45 C42 1.481 . S
C45 C46 1.387 . S
C45 C50 1.390 . S
C46 C45 1.387 . S
C46 C47 1.401 . S
C46 H67 0.930 . S
C47 C46 1.401 . S
C47 C48 1.376 . S
C47 C56 1.511 . S
C48 C47 1.376 . S
C48 C49 1.392 . S
C48 H69 0.931 . S
C49 C48 1.392 . S
C49 C50 1.361 . S
C49 C51 1.500 . S
C50 C45 1.390 . S
C50 C49 1.361 . S
C50 H68 0.931 . S
C51 C49 1.500 . S
C51 C52 1.371 . S
C51 C53 1.365 . S
C52 C51 1.371 . S
C52 C62 1.386 . S
C52 H70 0.931 . S
C53 C51 1.365 . S
C53 C54 1.409 . S
C53 H71 0.929 . S
C54 C53 1.409 . S
C54 C55 1.380 . S
C54 H72 0.930 . S
C55 C54 1.380 . S
C55 C62 1.357 . S
C56 C47 1.511 . S
C56 C57 1.341 . S
C56 C58 1.371 . S
C57 C56 1.341 . S
C57 C61 1.394 . S
C57 H73 0.930 . S
C58 C56 1.371 . S
C58 C59 1.392 . S
C58 H74 0.931 . S
C59 C58 1.392 . S
C59 C60 1.331 . S
C59 H77 0.932 . S
C60 C59 1.331 . S
C60 C61 1.336 . S
C61 C57 1.394 . S
C61 C60 1.336 . S
C61 H76 0.929 . S
C62 C52 1.386 . S
C62 C55 1.357 . S
C62 H75 0.928 . S
H63 C39 0.931 . S
H64 C41 0.930 . S
H65 C43 0.929 . S
H66 C44 0.931 . S
H67 C46 0.930 . S
H68 C50 0.931 . S
H69 C48 0.931 . S
H70 C52 0.931 . S
H71 C53 0.929 . S
H72 C54 0.930 . S
H73 C57 0.930 . S
H74 C58 0.931 . S
H75 C62 0.928 . S
H76 C61 0.929 . S
H77 C59 0.932 . S
C78 C79 1.386 . S
C78 C80 1.397 . S
C78 H102 0.931 . S
C79 C78 1.386 . S
C79 C83 1.397 . S
C80 C78 1.397 . S
C80 C81 1.384 . S
C80 H103 0.930 . S
C81 C80 1.384 . S
C81 C82 1.377 . S
C81 C84 1.481 . S
C82 C81 1.377 . S
C82 C83 1.389 . S
C82 H104 0.929 . S
C83 C79 1.397 . S
C83 C82 1.389 . S
C83 H105 0.931 . S
C84 C81 1.481 . S
C84 C85 1.387 . S
C84 C89 1.390 . S
C85 C84 1.387 . S
C85 C86 1.401 . S
C85 H106 0.930 . S
C86 C85 1.401 . S
C86 C87 1.376 . S
C86 C95 1.511 . S
C87 C86 1.376 . S
C87 C88 1.392 . S
C87 H108 0.931 . S
C88 C87 1.392 . S
C88 C89 1.361 . S
C88 C90 1.500 . S
C89 C84 1.390 . S
C89 C88 1.361 . S
C89 H107 0.931 . S
C90 C88 1.500 . S
C90 C91 1.371 . S
C90 C92 1.365 . S
C91 C90 1.371 . S
C91 C101 1.386 . S
C91 H109 0.931 . S
C92 C90 1.365 . S
C92 C93 1.409 . S
C92 H110 0.929 . S
C93 C92 1.409 . S
C93 C94 1.380 . S
C93 H111 0.930 . S
C94 C93 1.380 . S
C94 C101 1.357 . S
C95 C86 1.511 . S
C95 C96 1.341 . S
C95 C97 1.371 . S
C96 C95 1.341 . S
C96 C100 1.394 . S
C96 H112 0.930 . S
C97 C95 1.371 . S
C97 C98 1.392 . S
C97 H113 0.931 . S
C98 C97 1.392 . S
C98 C99 1.331 . S
C98 H116 0.932 . S
C99 C98 1.331 . S
C99 C100 1.336 . S
C100 C96 1.394 . S
C100 C99 1.336 . S
C100 H115 0.929 . S
C101 C91 1.386 . S
C101 C94 1.357 . S
C101 H114 0.928 . S
H102 C78 0.931 . S
H103 C80 0.930 . S
H104 C82 0.929 . S
H105 C83 0.931 . S
H106 C85 0.930 . S
H107 C89 0.931 . S
H108 C87 0.931 . S
H109 C91 0.931 . S
H110 C92 0.929 . S
H111 C93 0.930 . S
H112 C96 0.930 . S
H113 C97 0.931 . S
H114 C101 0.928 . S
H115 C100 0.929 . S
H116 C98 0.932 . S
C117 C118 1.386 . S
C117 C119 1.397 . S
C117 H141 0.931 . S
C118 C117 1.386 . S
C118 C122 1.397 . S
C119 C117 1.397 . S
C119 C120 1.384 . S
C119 H142 0.930 . S
C120 C119 1.384 . S
C120 C121 1.377 . S
C120 C123 1.481 . S
C121 C120 1.377 . S
C121 C122 1.389 . S
C121 H143 0.929 . S
C122 C118 1.397 . S
C122 C121 1.389 . S
C122 H144 0.931 . S
C123 C120 1.481 . S
C123 C124 1.387 . S
C123 C128 1.390 . S
C124 C123 1.387 . S
C124 C125 1.401 . S
C124 H145 0.930 . S
C125 C124 1.401 . S
C125 C126 1.376 . S
C125 C134 1.511 . S
C126 C125 1.376 . S
C126 C127 1.392 . S
C126 H147 0.931 . S
C127 C126 1.392 . S
C127 C128 1.361 . S
C127 C129 1.500 . S
C128 C123 1.390 . S
C128 C127 1.361 . S
C128 H146 0.931 . S
C129 C127 1.500 . S
C129 C130 1.371 . S
C129 C131 1.365 . S
C130 C129 1.371 . S
C130 C140 1.386 . S
C130 H148 0.931 . S
C131 C129 1.365 . S
C131 C132 1.409 . S
C131 H149 0.929 . S
C132 C131 1.409 . S
C132 C133 1.380 . S
C132 H150 0.930 . S
C133 C132 1.380 . S
C133 C140 1.357 . S
C134 C125 1.511 . S
C134 C135 1.341 . S
C134 C136 1.371 . S
C135 C134 1.341 . S
C135 C139 1.394 . S
C135 H151 0.930 . S
C136 C134 1.371 . S
C136 C137 1.392 . S
C136 H152 0.931 . S
C137 C136 1.392 . S
C137 C138 1.331 . S
C137 H155 0.932 . S
C138 C137 1.331 . S
C138 C139 1.336 . S
C139 C135 1.394 . S
C139 C138 1.336 . S
C139 H154 0.929 . S
C140 C130 1.386 . S
C140 C133 1.357 . S
C140 H153 0.928 . S
H141 C117 0.931 . S
H142 C119 0.930 . S
H143 C121 0.929 . S
H144 C122 0.931 . S
H145 C124 0.930 . S
H146 C128 0.931 . S
H147 C126 0.931 . S
H148 C130 0.931 . S
H149 C131 0.929 . S
H150 C132 0.930 . S
H151 C135 0.930 . S
H152 C136 0.931 . S
H153 C140 0.928 . S
H154 C139 0.929 . S
H155 C137 0.932 . S
C156 C157 1.386 . S
C156 C158 1.397 . S
C156 H180 0.931 . S
C157 C156 1.386 . S
C157 C161 1.397 . S
C158 C156 1.397 . S
C158 C159 1.384 . S
C158 H181 0.930 . S
C159 C158 1.384 . S
C159 C160 1.377 . S
C159 C162 1.481 . S
C160 C159 1.377 . S
C160 C161 1.389 . S
C160 H182 0.929 . S
C161 C157 1.397 . S
C161 C160 1.389 . S
C161 H183 0.931 . S
C162 C159 1.481 . S
C162 C163 1.387 . S
C162 C167 1.390 . S
C163 C162 1.387 . S
C163 C164 1.401 . S
C163 H184 0.930 . S
C164 C163 1.401 . S
C164 C165 1.376 . S
C164 C173 1.511 . S
C165 C164 1.376 . S
C165 C166 1.392 . S
C165 H186 0.931 . S
C166 C165 1.392 . S
C166 C167 1.361 . S
C166 C168 1.500 . S
C167 C162 1.390 . S
C167 C166 1.361 . S
C167 H185 0.931 . S
C168 C166 1.500 . S
C168 C169 1.371 . S
C168 C170 1.365 . S
C169 C168 1.371 . S
C169 C179 1.386 . S
C169 H187 0.931 . S
C170 C168 1.365 . S
C170 C171 1.409 . S
C170 H188 0.929 . S
C171 C170 1.409 . S
C171 C172 1.380 . S
C171 H189 0.930 . S
C172 C171 1.380 . S
C172 C179 1.357 . S
C173 C164 1.511 . S
C173 C174 1.341 . S
C173 C175 1.371 . S
C174 C173 1.341 . S
C174 C178 1.394 . S
C174 H190 0.930 . S
C175 C173 1.371 . S
C175 C176 1.392 . S
C175 H191 0.931 . S
C176 C175 1.392 . S
C176 C177 1.331 . S
C176 H194 0.932 . S
C177 C176 1.331 . S
C177 C178 1.336 . S
C178 C174 1.394 . S
C178 C177 1.336 . S
C178 H193 0.929 . S
C179 C169 1.386 . S
C179 C172 1.357 . S
C179 H192 0.928 . S
H180 C156 0.931 . S
H181 C158 0.930 . S
H182 C160 0.929 . S
H183 C161 0.931 . S
H184 C163 0.930 . S
H185 C167 0.931 . S
H186 C165 0.931 . S
H187 C169 0.931 . S
H188 C170 0.929 . S
H189 C171 0.930 . S
H190 C174 0.930 . S
H191 C175 0.931 . S
H192 C179 0.928 . S
H193 C178 0.929 . S
H194 C176 0.932 . S
C195 C196 1.386 . S
C195 C197 1.397 . S
C195 H219 0.931 . S
C196 C195 1.386 . S
C196 C200 1.397 . S
C197 C195 1.397 . S
C197 C198 1.384 . S
C197 H220 0.930 . S
C198 C197 1.384 . S
C198 C199 1.377 . S
C198 C201 1.481 . S
C199 C198 1.377 . S
C199 C200 1.389 . S
C199 H221 0.929 . S
C200 C196 1.397 . S
C200 C199 1.389 . S
C200 H222 0.931 . S
C201 C198 1.481 . S
C201 C202 1.387 . S
C201 C206 1.390 . S
C202 C201 1.387 . S
C202 C203 1.401 . S
C202 H223 0.930 . S
C203 C202 1.401 . S
C203 C204 1.376 . S
C203 C212 1.511 . S
C204 C203 1.376 . S
C204 C205 1.392 . S
C204 H225 0.931 . S
C205 C204 1.392 . S
C205 C206 1.361 . S
C205 C207 1.500 . S
C206 C201 1.390 . S
C206 C205 1.361 . S
C206 H224 0.931 . S
C207 C205 1.500 . S
C207 C208 1.371 . S
C207 C209 1.365 . S
C208 C207 1.371 . S
C208 C218 1.386 . S
C208 H226 0.931 . S
C209 C207 1.365 . S
C209 C210 1.409 . S
C209 H227 0.929 . S
C210 C209 1.409 . S
C210 C211 1.380 . S
C210 H228 0.930 . S
C211 C210 1.380 . S
C211 C218 1.357 . S
C212 C203 1.511 . S
C212 C213 1.341 . S
C212 C214 1.371 . S
C213 C212 1.341 . S
C213 C217 1.394 . S
C213 H229 0.930 . S
C214 C212 1.371 . S
C214 C215 1.392 . S
C214 H230 0.931 . S
C215 C214 1.392 . S
C215 C216 1.331 . S
C215 H233 0.932 . S
C216 C215 1.331 . S
C216 C217 1.336 . S
C217 C213 1.394 . S
C217 C216 1.336 . S
C217 H232 0.929 . S
C218 C208 1.386 . S
C218 C211 1.357 . S
C218 H231 0.928 . S
H219 C195 0.931 . S
H220 C197 0.930 . S
H221 C199 0.929 . S
H222 C200 0.931 . S
H223 C202 0.930 . S
H224 C206 0.931 . S
H225 C204 0.931 . S
H226 C208 0.931 . S
H227 C209 0.929 . S
H228 C210 0.930 . S
H229 C213 0.930 . S
H230 C214 0.931 . S
H231 C218 0.928 . S
H232 C217 0.929 . S
H233 C215 0.932 . S
C234 C235 1.386 . S
C234 C236 1.397 . S
C234 H258 0.931 . S
C235 C234 1.386 . S
C235 C239 1.397 . S
C236 C234 1.397 . S
C236 C237 1.384 . S
C236 H259 0.930 . S
C237 C236 1.384 . S
C237 C238 1.377 . S
C237 C240 1.481 . S
C238 C237 1.377 . S
C238 C239 1.389 . S
C238 H260 0.929 . S
C239 C235 1.397 . S
C239 C238 1.389 . S
C239 H261 0.931 . S
C240 C237 1.481 . S
C240 C241 1.387 . S
C240 C245 1.390 . S
C241 C240 1.387 . S
C241 C242 1.401 . S
C241 H262 0.930 . S
C242 C241 1.401 . S
C242 C243 1.376 . S
C242 C251 1.511 . S
C243 C242 1.376 . S
C243 C244 1.392 . S
C243 H264 0.931 . S
C244 C243 1.392 . S
C244 C245 1.361 . S
C244 C246 1.500 . S
C245 C240 1.390 . S
C245 C244 1.361 . S
C245 H263 0.931 . S
C246 C244 1.500 . S
C246 C247 1.371 . S
C246 C248 1.365 . S
C247 C246 1.371 . S
C247 C257 1.386 . S
C247 H265 0.931 . S
C248 C246 1.365 . S
C248 C249 1.409 . S
C248 H266 0.929 . S
C249 C248 1.409 . S
C249 C250 1.380 . S
C249 H267 0.930 . S
C250 C249 1.380 . S
C250 C257 1.357 . S
C251 C242 1.511 . S
C251 C252 1.341 . S
C251 C253 1.371 . S
C252 C251 1.341 . S
C252 C256 1.394 . S
C252 H268 0.930 . S
C253 C251 1.371 . S
C253 C254 1.392 . S
C253 H269 0.931 . S
C254 C253 1.392 . S
C254 C255 1.331 . S
C254 H272 0.932 . S
C255 C254 1.331 . S
C255 C256 1.336 . S
C256 C252 1.394 . S
C256 C255 1.336 . S
C256 H271 0.929 . S
C257 C247 1.386 . S
C257 C250 1.357 . S
C257 H270 0.928 . S
H258 C234 0.931 . S
H259 C236 0.930 . S
H260 C238 0.929 . S
H261 C239 0.931 . S
H262 C241 0.930 . S
H263 C245 0.931 . S
H264 C243 0.931 . S
H265 C247 0.931 . S
H266 C248 0.929 . S
H267 C249 0.930 . S
H268 C252 0.930 . S
H269 C253 0.931 . S
H270 C257 0.928 . S
H271 C256 0.929 . S
H272 C254 0.932 . S
C273 C274 1.386 . S
C273 C275 1.397 . S
C273 H297 0.931 . S
C274 C273 1.386 . S
C274 C278 1.397 . S
C275 C273 1.397 . S
C275 C276 1.384 . S
C275 H298 0.930 . S
C276 C275 1.384 . S
C276 C277 1.377 . S
C276 C279 1.481 . S
C277 C276 1.377 . S
C277 C278 1.389 . S
C277 H299 0.929 . S
C278 C274 1.397 . S
C278 C277 1.389 . S
C278 H300 0.931 . S
C279 C276 1.481 . S
C279 C280 1.387 . S
C279 C284 1.390 . S
C280 C279 1.387 . S
C280 C281 1.401 . S
C280 H301 0.930 . S
C281 C280 1.401 . S
C281 C282 1.376 . S
C281 C290 1.511 . S
C282 C281 1.376 . S
C282 C283 1.392 . S
C282 H303 0.931 . S
C283 C282 1.392 . S
C283 C284 1.361 . S
C283 C285 1.500 . S
C284 C279 1.390 . S
C284 C283 1.361 . S
C284 H302 0.931 . S
C285 C283 1.500 . S
C285 C286 1.371 . S
C285 C287 1.365 . S
C286 C285 1.371 . S
C286 C296 1.386 . S
C286 H304 0.931 . S
C287 C285 1.365 . S
C287 C288 1.409 . S
C287 H305 0.929 . S
C288 C287 1.409 . S
C288 C289 1.380 . S
C288 H306 0.930 . S
C289 C288 1.380 . S
C289 C296 1.357 . S
C290 C281 1.511 . S
C290 C291 1.341 . S
C290 C292 1.371 . S
C291 C290 1.341 . S
C291 C295 1.394 . S
C291 H307 0.930 . S
C292 C290 1.371 . S
C292 C293 1.392 . S
C292 H308 0.931 . S
C293 C292 1.392 . S
C293 C294 1.331 . S
C293 H311 0.932 . S
C294 C293 1.331 . S
C294 C295 1.336 . S
C295 C291 1.394 . S
C295 C294 1.336 . S
C295 H310 0.929 . S
C296 C286 1.386 . S
C296 C289 1.357 . S
C296 H309 0.928 . S
H297 C273 0.931 . S
H298 C275 0.930 . S
H299 C277 0.929 . S
H300 C278 0.931 . S
H301 C280 0.930 . S
H302 C284 0.931 . S
H303 C282 0.931 . S
H304 C286 0.931 . S
H305 C287 0.929 . S
H306 C288 0.930 . S
H307 C291 0.930 . S
H308 C292 0.931 . S
H309 C296 0.928 . S
H310 C295 0.929 . S
H311 C293 0.932 . S
O312 Mg313 1.990 . S
O312 C326 1.253 1_445 S
Mg313 O312 1.990 . S
Mg313 O316 2.180 . S
Mg313 O317 2.117 . S
Mg313 O331 2.030 1_545 S
O314 Mg315 2.072 1_665 S
O314 C326 1.260 . S
Mg315 O314 2.072 1_445 S
Mg315 O316 2.099 . S
Mg315 O318 2.079 . S
Mg315 O319 2.072 1_455 S
Mg315 O321 2.099 1_445 S
Mg315 O332 2.079 1_545 S
O316 Mg313 2.180 . S
O316 Mg315 2.099 . S
O316 C327 1.279 . S
O317 Mg313 2.117 . S
O317 C327 1.250 . S
O318 Mg315 2.079 . S
O318 C328 1.264 . S
O319 Mg315 2.072 1_655 S
O319 C329 1.260 . S
Mg320 O321 2.180 . S
Mg320 O322 2.030 1_565 S
Mg320 O323 1.990 1_565 S
Mg320 O324 2.117 . S
O321 Mg315 2.099 1_665 S
O321 Mg320 2.180 . S
O321 C330 1.279 . S
O322 Mg320 2.030 1_545 S
O322 C328 1.248 1_655 S
O323 Mg320 1.990 1_545 S
O323 C329 1.253 . S
O324 Mg320 2.117 . S
O324 C330 1.250 . S
C325 O331 1.248 . S
C325 O332 1.264 . S
C326 O312 1.253 1_665 S
C326 O314 1.260 . S
C327 O316 1.279 . S
C327 O317 1.250 . S
C328 O318 1.264 . S
C328 O322 1.248 1_455 S
C329 O319 1.260 . S
C329 O323 1.253 . S
C330 O321 1.279 . S
C330 O324 1.250 . S
O331 Mg313 2.030 1_565 S
O331 C325 1.248 . S
O332 Mg315 2.079 1_565 S
O332 C325 1.264 . S
O333 Mg334 1.990 . S
O333 C347 1.253 . S
Mg334 O333 1.990 . S
Mg334 O337 2.180 1_554 S
Mg334 O338 2.117 1_554 S
Mg334 O352 2.030 . S
O335 Mg336 2.072 . S
O335 C347 1.260 . S
Mg336 O335 2.072 . S
Mg336 O337 2.099 1_554 S
Mg336 O339 2.079 1_544 S
Mg336 O340 2.072 1_554 S
Mg336 O342 2.099 1_545 S
Mg336 O353 2.079 . S
O337 Mg334 2.180 1_556 S
O337 Mg336 2.099 1_556 S
O337 C348 1.279 . S
O338 Mg334 2.117 1_556 S
O338 C348 1.250 . S
O339 Mg336 2.079 1_566 S
O339 C349 1.264 . S
O340 Mg336 2.072 1_556 S
O340 C350 1.260 1_545 S
Mg341 O342 2.180 1_556 S
Mg341 O343 2.030 . S
Mg341 O344 1.990 . S
Mg341 O345 2.117 1_556 S
O342 Mg336 2.099 1_565 S
O342 Mg341 2.180 1_554 S
O342 C351 1.279 . S
O343 Mg341 2.030 . S
O343 C349 1.248 . S
O344 Mg341 1.990 . S
O344 C350 1.253 . S
O345 Mg341 2.117 1_554 S
O345 C351 1.250 . S
C346 O352 1.248 . S
C346 O353 1.264 . S
C347 O333 1.253 . S
C347 O335 1.260 . S
C348 O337 1.279 . S
C348 O338 1.250 . S
C349 O339 1.264 . S
C349 O343 1.248 . S
C350 O340 1.260 1_565 S
C350 O344 1.253 . S
C351 O342 1.279 . S
C351 O345 1.250 . S
O352 Mg334 2.030 . S
O352 C346 1.248 . S
O353 Mg336 2.079 . S
O353 C346 1.264 . S
O354 Mg355 1.990 . S
O354 C368 1.253 . S
Mg355 O354 1.990 . S
Mg355 O358 2.180 . S
Mg355 O359 2.117 . S
Mg355 O373 2.030 . S
O356 Mg357 2.072 . S
O356 C368 1.260 . S
Mg357 O356 2.072 . S
Mg357 O358 2.099 . S
Mg357 O360 2.079 . S
Mg357 O361 2.072 . S
Mg357 O363 2.099 . S
Mg357 O374 2.079 . S
O358 Mg355 2.180 . S
O358 Mg357 2.099 . S
O358 C369 1.279 . S
O359 Mg355 2.117 . S
O359 C369 1.250 . S
O360 Mg357 2.079 . S
O360 C370 1.264 . S
O361 Mg357 2.072 . S
O361 C371 1.260 . S
Mg362 O363 2.180 . S
Mg362 O364 2.030 . S
Mg362 O365 1.990 . S
Mg362 O366 2.117 . S
O363 Mg357 2.099 . S
O363 Mg362 2.180 . S
O363 C372 1.279 . S
O364 Mg362 2.030 . S
O364 C370 1.248 . S
O365 Mg362 1.990 . S
O365 C371 1.253 . S
O366 Mg362 2.117 . S
O366 C372 1.250 . S
C367 O373 1.248 . S
C367 O374 1.264 . S
C368 O354 1.253 . S
C368 O356 1.260 . S
C369 O358 1.279 . S
C369 O359 1.250 . S
C370 O360 1.264 . S
C370 O364 1.248 . S
C371 O361 1.260 . S
C371 O365 1.253 . S
C372 O363 1.279 . S
C372 O366 1.250 . S
O373 Mg355 2.030 . S
O373 C367 1.248 . S
O374 Mg357 2.079 . S
O374 C367 1.264 . S
O375 Mg376 1.990 . S
O375 C389 1.253 . S
Mg376 O375 1.990 . S
Mg376 O379 2.180 1_455 S
Mg376 O380 2.117 1_455 S
Mg376 O394 2.030 . S
O377 Mg378 2.072 . S
O377 C389 1.260 . S
Mg378 O377 2.072 . S
Mg378 O379 2.099 1_455 S
Mg378 O381 2.079 1_454 S
Mg378 O382 2.072 1_455 S
Mg378 O384 2.099 1_554 S
Mg378 O395 2.079 . S
O379 Mg376 2.180 1_655 S
O379 Mg378 2.099 1_655 S
O379 C390 1.279 . S
O380 Mg376 2.117 1_655 S
O380 C390 1.250 . S
O381 Mg378 2.079 1_656 S
O381 C391 1.264 . S
O382 Mg378 2.072 1_655 S
O382 C392 1.260 1_554 S
Mg383 O384 2.180 1_655 S
Mg383 O385 2.030 . S
Mg383 O386 1.990 . S
Mg383 O387 2.117 . S
O384 Mg378 2.099 1_556 S
O384 Mg383 2.180 1_455 S
O384 C393 1.279 . S
O385 Mg383 2.030 . S
O385 C391 1.248 . S
O386 Mg383 1.990 . S
O386 C392 1.253 . S
O387 Mg383 2.117 . S
O387 C393 1.250 1_655 S
C388 O394 1.248 . S
C388 O395 1.264 . S
C389 O375 1.253 . S
C389 O377 1.260 . S
C390 O379 1.279 . S
C390 O380 1.250 . S
C391 O381 1.264 . S
C391 O385 1.248 . S
C392 O382 1.260 1_556 S
C392 O386 1.253 . S
C393 O384 1.279 . S
C393 O387 1.250 1_455 S
O394 Mg376 2.030 . S
O394 C388 1.248 . S
O395 Mg378 2.079 . S
O395 C388 1.264 . S
C396 C397 1.387 . S
C396 H400 0.950 . S
C396 C405 1.390 . S
C397 C396 1.387 . S
C397 C399 1.387 . S
H398 C405 0.950 . S
C399 C397 1.387 . S
C399 C401 1.390 . S
C399 H403 0.950 . S
H400 C396 0.950 . S
C401 C399 1.390 . S
C401 C402 1.387 . S
C401 H404 0.950 1_545 S
C402 C401 1.387 . S
C402 C405 1.387 . S
H403 C399 0.950 . S
H404 C401 0.950 1_565 S
C405 C396 1.390 . S
C405 H398 0.950 . S
C405 C402 1.387 . S
C406 C407 1.387 . S
C406 H410 0.950 . S
C406 C415 1.390 . S
C407 C406 1.387 . S
C407 C409 1.387 . S
H408 C415 0.950 . S
C409 C407 1.387 . S
C409 C411 1.390 . S
C409 H413 0.950 1_565 S
H410 C406 0.950 . S
C411 C409 1.390 . S
C411 C412 1.387 . S
C411 H414 0.950 1_565 S
C412 C411 1.387 . S
C412 C415 1.387 . S
H413 C409 0.950 1_545 S
H414 C411 0.950 1_545 S
C415 C406 1.390 . S
C415 H408 0.950 . S
C415 C412 1.387 . S
C416 C417 1.387 . S
C416 H420 0.950 . S
C416 C425 1.390 . S
C417 C416 1.387 . S
C417 C419 1.387 . S
H418 C425 0.950 . S
C419 C417 1.387 . S
C419 C421 1.390 . S
C419 H423 0.950 . S
H420 C416 0.950 . S
C421 C419 1.390 . S
C421 C422 1.387 . S
C421 H424 0.950 . S
C422 C421 1.387 . S
C422 C425 1.387 . S
H423 C419 0.950 . S
H424 C421 0.950 . S
C425 C416 1.390 . S
C425 H418 0.950 . S
C425 C422 1.387 . S
C426 C427 1.387 . S
C426 H430 0.950 . S
C426 C435 1.390 . S
C427 C426 1.387 . S
C427 C429 1.387 . S
H428 C435 0.950 . S
C429 C427 1.387 . S
C429 C431 1.390 . S
C429 H433 0.950 . S
H430 C426 0.950 . S
C431 C429 1.390 . S
C431 C432 1.387 . S
C431 H434 0.950 . S
C432 C431 1.387 . S
C432 C435 1.387 . S
H433 C429 0.950 . S
H434 C431 0.950 . S
C435 C426 1.390 . S
C435 H428 0.950 . S
C435 C432 1.387 . S
C436 C437 1.387 . S
C436 H440 0.950 . S
C436 C445 1.390 . S
C437 C436 1.387 . S
C437 C439 1.387 . S
H438 C445 0.950 . S
C439 C437 1.387 . S
C439 C441 1.390 . S
C439 H443 0.950 . S
H440 C436 0.950 . S
C441 C439 1.390 . S
C441 C442 1.387 . S
C441 H444 0.950 1_554 S
C442 C441 1.387 . S
C442 C445 1.387 . S
H443 C439 0.950 . S
H444 C441 0.950 1_556 S
C445 C436 1.390 . S
C445 H438 0.950 . S
C445 C442 1.387 . S
C446 C447 1.387 . S
C446 H450 0.950 . S
C446 C455 1.390 . S
C447 C446 1.387 . S
C447 C449 1.387 . S
H448 C455 0.950 . S
C449 C447 1.387 . S
C449 C451 1.390 . S
C449 H453 0.950 . S
H450 C446 0.950 . S
C451 C449 1.390 . S
C451 C452 1.387 . S
C451 H454 0.950 . S
C452 C451 1.387 . S
C452 C455 1.387 . S
H453 C449 0.950 . S
H454 C451 0.950 . S
C455 C446 1.390 . S
C455 H448 0.950 . S
C455 C452 1.387 . S
C456 C457 1.387 . S
C456 H460 0.950 . S
C456 C465 1.390 . S
C457 C456 1.387 . S
C457 C459 1.387 . S
H458 C465 0.950 . S
C459 C457 1.387 . S
C459 C461 1.390 . S
C459 H463 0.950 . S
H460 C456 0.950 . S
C461 C459 1.390 . S
C461 C462 1.387 . S
C461 H464 0.950 . S
C462 C461 1.387 . S
C462 C465 1.387 . S
H463 C459 0.950 . S
H464 C461 0.950 . S
C465 C456 1.390 . S
C465 H458 0.950 . S
C465 C462 1.387 . S
C466 C467 1.387 . S
C466 H470 0.950 . S
C466 C475 1.390 . S
C467 C466 1.387 . S
C467 C469 1.387 . S
H468 C475 0.950 . S
C469 C467 1.387 . S
C469 C471 1.390 . S
C469 H473 0.950 . S
H470 C466 0.950 . S
C471 C469 1.390 . S
C471 C472 1.387 . S
C471 H474 0.950 . S
C472 C471 1.387 . S
C472 C475 1.387 . S
H473 C469 0.950 . S
H474 C471 0.950 . S
C475 C466 1.390 . S
C475 H468 0.950 . S
C475 C472 1.387 . S
C476 C477 1.387 . S
C476 H480 0.950 . S
C476 C485 1.390 . S
C477 C476 1.387 . S
C477 C479 1.387 . S
H478 C485 0.950 . S
C479 C477 1.387 . S
C479 C481 1.390 . S
C479 H483 0.950 1_554 S
H480 C476 0.950 . S
C481 C479 1.390 . S
C481 C482 1.387 . S
C481 H484 0.950 1_554 S
C482 C481 1.387 . S
C482 C485 1.387 . S
H483 C479 0.950 1_556 S
H484 C481 0.950 1_556 S
C485 C476 1.390 . S
C485 H478 0.950 . S
C485 C482 1.387 . S
C486 C487 1.387 . S
C486 H490 0.936 1_556 S
C486 C495 1.390 . S
C487 C486 1.387 . S
C487 C489 1.387 . S
H488 C495 0.950 1_554 S
C489 C487 1.387 . S
C489 C491 1.390 . S
C489 H493 0.950 . S
H490 C486 0.936 1_554 S
C491 C489 1.390 . S
C491 C492 1.387 . S
C491 H494 0.950 . S
C492 C491 1.387 . S
C492 C495 1.387 . S
H493 C489 0.950 . S
H494 C491 0.950 . S
C495 C486 1.390 . S
C495 H488 0.950 1_556 S
C495 C492 1.387 . S
C496 C497 1.387 . S
C496 H500 0.950 . S
C496 C505 1.390 . S
C497 C496 1.387 . S
C497 C499 1.387 . S
H498 C505 0.950 . S
C499 C497 1.387 . S
C499 C501 1.390 . S
C499 H503 0.950 . S
H500 C496 0.950 . S
C501 C499 1.390 . S
C501 C502 1.387 . S
C501 H504 0.950 . S
C502 C501 1.387 . S
C502 C505 1.387 . S
H503 C499 0.950 . S
H504 C501 0.950 . S
C505 C496 1.390 . S
C505 H498 0.950 . S
C505 C502 1.387 . S
C506 C507 1.387 . S
C506 H510 0.950 . S
C506 C515 1.390 . S
C507 C506 1.387 . S
C507 C509 1.387 . S
H508 C515 0.950 . S
C509 C507 1.387 . S
C509 C511 1.390 . S
C509 H513 0.950 . S
H510 C506 0.950 . S
C511 C509 1.390 . S
C511 C512 1.387 . S
C511 H514 0.950 . S
C512 C511 1.387 . S
C512 C515 1.387 . S
H513 C509 0.950 . S
H514 C511 0.950 . S
C515 C506 1.390 . S
C515 H508 0.950 . S
C515 C512 1.387 . S
C516 C517 1.387 . S
C516 H520 0.950 . S
C516 C525 1.390 . S
C517 C516 1.387 . S
C517 C519 1.387 . S
H518 C525 0.950 . S
C519 C517 1.387 . S
C519 C521 1.390 . S
C519 H523 0.950 1_565 S
H520 C516 0.950 . S
C521 C519 1.390 . S
C521 C522 1.387 . S
C521 H524 0.950 1_565 S
C522 C521 1.387 . S
C522 C525 1.387 . S
H523 C519 0.950 1_545 S
H524 C521 0.950 1_545 S
C525 C516 1.390 . S
C525 H518 0.950 . S
C525 C522 1.387 . S
C526 C527 1.387 . S
C526 H530 0.950 . S
C526 C535 1.390 . S
C527 C526 1.387 . S
C527 C529 1.387 . S
H528 C535 0.950 1_565 S
C529 C527 1.387 . S
C529 C531 1.390 . S
C529 H533 0.950 . S
H530 C526 0.950 . S
C531 C529 1.390 . S
C531 C532 1.387 . S
C531 H534 0.950 . S
C532 C531 1.387 . S
C532 C535 1.387 . S
H533 C529 0.950 . S
H534 C531 0.950 . S
C535 C526 1.390 . S
C535 H528 0.950 1_545 S
C535 C532 1.387 . S
C536 C537 1.387 . S
C536 H540 0.950 . S
C536 C545 1.390 . S
C537 C536 1.387 . S
C537 C539 1.387 . S
H538 C545 0.950 . S
C539 C537 1.387 . S
C539 C541 1.390 . S
C539 H543 0.950 . S
H540 C536 0.950 . S
C541 C539 1.390 . S
C541 C542 1.387 . S
C541 H544 0.950 . S
C542 C541 1.387 . S
C542 C545 1.387 . S
H543 C539 0.950 . S
H544 C541 0.950 . S
C545 C536 1.390 . S
C545 H538 0.950 . S
C545 C542 1.387 . S
C546 C547 1.387 . S
C546 H550 0.950 . S
C546 C555 1.390 . S
C547 C546 1.387 . S
C547 C549 1.387 . S
H548 C555 0.950 . S
C549 C547 1.387 . S
C549 C551 1.390 . S
C549 H553 0.950 . S
H550 C546 0.950 . S
C551 C549 1.390 . S
C551 C552 1.387 . S
C551 H554 0.950 . S
C552 C551 1.387 . S
C552 C555 1.387 . S
H553 C549 0.950 . S
H554 C551 0.950 . S
C555 C546 1.390 . S
C555 H548 0.950 . S
C555 C552 1.387 . S
C556 C557 1.387 . S
C556 H560 0.950 . S
C556 C565 1.390 . S
C557 C556 1.387 . S
C557 C559 1.387 . S
H558 C565 0.950 1_554 S
C559 C557 1.387 . S
C559 C561 1.390 . S
C559 H563 0.950 . S
H560 C556 0.950 . S
C561 C559 1.390 . S
C561 C562 1.387 . S
C561 H564 0.950 1_565 S
C562 C561 1.387 . S
C562 C565 1.387 . S
H563 C559 0.950 . S
H564 C561 0.950 1_545 S
C565 C556 1.390 . S
C565 H558 0.950 1_556 S
C565 C562 1.387 . S
C566 C567 1.387 . S
C566 H570 0.950 . S
C566 C575 1.390 . S
C567 C566 1.387 . S
C567 C569 1.387 . S
H568 C575 0.950 . S
C569 C567 1.387 . S
C569 C571 1.390 . S
C569 H573 0.950 . S
H570 C566 0.950 . S
C571 C569 1.390 . S
C571 C572 1.387 . S
C571 H574 0.950 . S
C572 C571 1.387 . S
C572 C575 1.387 . S
H573 C569 0.950 . S
H574 C571 0.950 . S
C575 C566 1.390 . S
C575 H568 0.950 . S
C575 C572 1.387 . S
C576 C577 1.387 . S
C576 H580 0.950 . S
C576 C585 1.390 . S
C577 C576 1.387 . S
C577 C579 1.387 . S
H578 C585 0.950 . S
C579 C577 1.387 . S
C579 C581 1.390 . S
C579 H583 0.950 . S
H580 C576 0.950 . S
C581 C579 1.390 . S
C581 C582 1.387 . S
C581 H584 0.950 . S
C582 C581 1.387 . S
C582 C585 1.387 . S
H583 C579 0.950 . S
H584 C581 0.950 . S
C585 C576 1.390 . S
C585 H578 0.950 . S
C585 C582 1.387 . S
C586 C587 1.387 . S
C586 H590 0.950 . S
C586 C595 1.390 . S
C587 C586 1.387 . S
C587 C589 1.387 . S
H588 C595 0.950 . S
C589 C587 1.387 . S
C589 C591 1.390 . S
C589 H593 0.950 . S
H590 C586 0.950 . S
C591 C589 1.390 . S
C591 C592 1.387 . S
C591 H594 0.950 . S
C592 C591 1.387 . S
C592 C595 1.387 . S
H593 C589 0.950 . S
H594 C591 0.950 . S
C595 C586 1.390 . S
C595 H588 0.950 . S
C595 C592 1.387 . S
C596 C597 1.387 . S
C596 H600 0.950 1_556 S
C596 C605 1.390 1_556 S
C597 C596 1.387 . S
C597 C599 1.387 . S
H598 C605 0.950 . S
C599 C597 1.387 . S
C599 C601 1.390 . S
C599 H603 0.950 . S
H600 C596 0.950 1_554 S
C601 C599 1.390 . S
C601 C602 1.387 . S
C601 H604 0.950 . S
C602 C601 1.387 . S
C602 C605 1.387 1_556 S
H603 C599 0.950 . S
H604 C601 0.950 . S
C605 C596 1.390 1_554 S
C605 H598 0.950 . S
C605 C602 1.387 1_554 S
C606 C607 1.387 . S
C606 H610 0.950 . S
C606 C615 1.390 . S
C607 C606 1.387 . S
C607 C609 1.387 . S
H608 C615 0.950 . S
C609 C607 1.387 . S
C609 C611 1.390 . S
C609 H613 0.950 . S
H610 C606 0.950 . S
C611 C609 1.390 . S
C611 C612 1.387 . S
C611 H614 0.950 . S
C612 C611 1.387 . S
C612 C615 1.387 . S
H613 C609 0.950 . S
H614 C611 0.950 . S
C615 C606 1.390 . S
C615 H608 0.950 . S
C615 C612 1.387 . S
C616 C617 1.387 . S
C616 H620 0.950 . S
C616 C625 1.390 . S
C617 C616 1.387 . S
C617 C619 1.387 . S
H618 C625 0.950 . S
C619 C617 1.387 . S
C619 C621 1.390 . S
C619 H623 0.950 . S
H620 C616 0.950 . S
C621 C619 1.390 . S
C621 C622 1.387 . S
C621 H624 0.950 . S
C622 C621 1.387 . S
C622 C625 1.387 . S
H623 C619 0.950 . S
H624 C621 0.950 . S
C625 C616 1.390 . S
C625 H618 0.950 . S
C625 C622 1.387 . S
C626 C627 1.387 . S
C626 H630 0.950 . S
C626 C635 1.390 . S
C627 C626 1.387 . S
C627 C629 1.387 . S
H628 C635 0.950 . S
C629 C627 1.387 . S
C629 C631 1.390 . S
C629 H633 0.950 . S
H630 C626 0.950 . S
C631 C629 1.390 . S
C631 C632 1.387 . S
C631 H634 0.950 . S
C632 C631 1.387 . S
C632 C635 1.387 . S
H633 C629 0.950 . S
H634 C631 0.950 . S
C635 C626 1.390 . S
C635 H628 0.950 . S
C635 C632 1.387 . S
C397 C1 1.602 . S
C402 C328 1.545 . S
C407 C40 1.505 . S
C412 C350 1.473 . S
C422 C369 1.208 . S
C417 C99 1.517 . S
C427 C118 1.835 . S
C432 C390 1.443 . S
C442 C347 1.750 . S
C437 C16 1.784 . S
C452 C325 1.677 . S
C447 C60 1.701 . S
C462 C392 1.368 . S
C457 C79 1.432 . S
C472 C371 1.523 . S
C467 C138 1.521 . S
C477 C21 1.711 . S
C482 C389 1.678 . S
C492 C348 1.292 . S
C487 C94 1.642 . S
C497 C133 1.680 . S
C502 C330 1.594 . S
C507 C55 1.552 . S
C512 C368 1.567 . S
C522 C326 1.548 . S
C517 C157 1.629 . S
C527 C196 1.367 . S
C532 C346 1.345 . S
C537 C255 1.537 . S
C542 C372 1.255 . S
C547 C289 1.768 . S
C552 C393 1.365 . S
C557 C172 1.715 . S
C562 C349 1.706 . S
C572 C329 1.708 . S
C567 C216 1.778 . S
C582 C388 1.278 . S
C577 C235 1.329 . S
C592 C367 1.558 . S
C587 C294 1.576 . S
C597 C177 1.553 . S
C602 C391 1.545 . S
C612 C351 1.257 . S
C607 C250 1.557 . S
C622 C327 1.449 . S
C617 C274 1.537 . S
C627 C211 1.482 . S
C632 C370 1.498 . S
