# Generated by pormake.
# Topology tsx, (6,3)-cn, num edge types: 1
# Building blocks:
#     Node 0, Type 0, BuildingBlock: FUNLAD_clean_sbu_0, # of connection points: 6
#     Node 1, Type 0, BuildingBlock: FUNLAD_clean_sbu_0, # of connection points: 6
#     Node 2, Type 1, BuildingBlock: VETTIZ_charged_linker_0, # of connection points: 3
#     Node 3, Type 1, BuildingBlock: VETTIZ_charged_linker_0, # of connection points: 3
#     Node 4, Type 1, BuildingBlock: VETTIZ_charged_linker_0, # of connection points: 3
#     Node 5, Type 1, BuildingBlock: VETTIZ_charged_linker_0, # of connection points: 3
#     Edge 6, Type (0, 1), BuildingBlock: CIFDUS_clean_linker_0, # of connection points: 2
#     Edge 7, Type (0, 1), BuildingBlock: CIFDUS_clean_linker_0, # of connection points: 2
#     Edge 8, Type (0, 1), BuildingBlock: CIFDUS_clean_linker_0, # of connection points: 2
#     Edge 9, Type (0, 1), BuildingBlock: CIFDUS_clean_linker_0, # of connection points: 2
#     Edge 10, Type (0, 1), BuildingBlock: CIFDUS_clean_linker_0, # of connection points: 2
#     Edge 11, Type (0, 1), BuildingBlock: CIFDUS_clean_linker_0, # of connection points: 2
#     Edge 12, Type (0, 1), BuildingBlock: CIFDUS_clean_linker_0, # of connection points: 2
#     Edge 13, Type (0, 1), BuildingBlock: CIFDUS_clean_linker_0, # of connection points: 2
#     Edge 14, Type (0, 1), BuildingBlock: CIFDUS_clean_linker_0, # of connection points: 2
#     Edge 15, Type (0, 1), BuildingBlock: CIFDUS_clean_linker_0, # of connection points: 2
#     Edge 16, Type (0, 1), BuildingBlock: CIFDUS_clean_linker_0, # of connection points: 2
#     Edge 17, Type (0, 1), BuildingBlock: CIFDUS_clean_linker_0, # of connection points: 2
# Relax obj value: 0.169
# Max RMSD: 0.156
# Mean RMSD: 0.088
data_MOF--net-tsx--node1-FUNLAD_clean_sbu_0--node2-VETTIZ_charged_linker_0--edge1-CIFDUS_clean_linker_0
_symmetry_space_group_name_H-M    P1
_symmetry_Int_Tables_number       1
_symmetry_cell_setting            triclinic
loop_
_symmetry_equiv_pos_as_xyz
'x, y, z'
_cell_length_a     20.231007
_cell_length_b     22.380078
_cell_length_c     46.347749
_cell_angle_alpha  91.084476
_cell_angle_beta   91.852606
_cell_angle_gamma 90.30081
loop_
_atom_site_label
_atom_site_type_symbol
_atom_site_fract_x
_atom_site_fract_y
_atom_site_fract_z
_atom_type_partial_charge
C0 C 0.90321 0.84195 0.98586 0.0
N1 N 0.9954 0.89996 0.06321 0.0
C2 C 0.93419 0.88972 0.07348 0.0
C3 C 0.92539 0.88414 0.10299 0.0
C4 C 0.97964 0.89141 0.12248 0.0
C5 C 0.04256 0.90088 0.11117 0.0
C6 C 0.04943 0.90426 0.08136 0.0
Zn7 Zn 1.00317 0.91518 0.02011 0.0
C8 C 0.09354 0.83557 0.98954 0.0
N9 N 0.01031 0.95189 0.93076 0.0
C10 C 0.95658 0.96128 0.91305 0.0
C11 C 0.07268 0.95284 0.92061 0.0
C12 C 0.08295 0.96264 0.89155 0.0
C13 C 0.0286 0.97247 0.87281 0.0
C14 C 0.96472 0.97217 0.88378 0.0
Zn15 Zn 1.00146 0.93595 0.9735 0.0
O16 O 0.92804 0.85241 0.01088 0.0
C17 C 0.9071 0.01234 0.00111 0.0
O18 O 0.92424 0.87037 0.96444 0.0
H19 H 0.1148 0.94598 0.93509 0.0
H20 H 0.8915 0.88727 0.05888 0.0
H21 H 0.90749 0.96028 0.92161 0.0
O22 O 0.92908 0.98562 0.02347 0.0
O23 O 0.93049 1.00025 0.97671 0.0
H24 H 0.09772 0.91229 0.07283 0.0
O25 O 0.07745 1.00286 0.98337 0.0
O26 O 0.07895 0.97887 0.02894 0.0
O27 O 0.071 0.86946 0.97006 0.0
O28 O 0.07555 0.84396 0.01541 0.0
C29 C 0.1007 0.01096 0.009 0.0
H30 H 0.87614 0.87523 0.11034 0.0
H31 H 0.08599 0.90781 0.1251 0.0
H32 H 0.13296 0.96333 0.88388 0.0
H33 H 0.92166 0.9794 0.86981 0.0
C34 C 0.4708 0.52831 0.52094 0.0
N35 N 0.60795 0.62569 0.57114 0.0
C36 C 0.55951 0.64254 0.58926 0.0
C37 C 0.57272 0.64753 0.61892 0.0
C38 C 0.6359 0.63375 0.63005 0.0
C39 C 0.68538 0.61748 0.611 0.0
C40 C 0.67045 0.61444 0.58136 0.0
Zn41 Zn 0.58391 0.6119 0.5283 0.0
C42 C 0.65881 0.50885 0.50229 0.0
N43 N 0.53307 0.58124 0.4392 0.0
C44 C 0.46851 0.5847 0.43018 0.0
C45 C 0.58107 0.56608 0.42054 0.0
C46 C 0.56467 0.55243 0.3917 0.0
C47 C 0.49849 0.55553 0.3819 0.0
C48 C 0.45011 0.57254 0.40137 0.0
Zn49 Zn 0.55801 0.5964 0.48172 0.0
O50 O 0.50845 0.55476 0.53952 0.0
C51 C 0.48304 0.69849 0.50573 0.0
O52 O 0.48036 0.53557 0.49418 0.0
H53 H 0.63212 0.56403 0.42809 0.0
H54 H 0.50992 0.65033 0.58085 0.0
H55 H 0.43106 0.59633 0.4454 0.0
O56 O 0.51466 0.68581 0.529 0.0
O57 O 0.49225 0.66767 0.48301 0.0
H58 H 0.70837 0.60146 0.56661 0.0
O59 O 0.63437 0.65843 0.47058 0.0
O60 O 0.65891 0.67078 0.51694 0.0
O61 O 0.6252 0.52533 0.48032 0.0
O62 O 0.65176 0.53642 0.5263 0.0
C63 C 0.6689 0.68347 0.49087 0.0
H64 H 0.53318 0.65929 0.63315 0.0
H65 H 0.73458 0.60631 0.61901 0.0
H66 H 0.60331 0.53997 0.37713 0.0
H67 H 0.39852 0.57507 0.3945 0.0
C68 C 0.16071 0.94898 0.45825 0.0
C69 C 0.19254 0.89776 0.44756 0.0
C70 C 0.16433 0.86638 0.42359 0.0
C71 C 0.07803 0.94016 0.41908 0.0
C72 C 0.10337 0.96945 0.44353 0.0
C73 C 0.0628 0.02361 0.45097 0.0
H74 H 0.81182 0.21164 0.41085 0.0
C75 C 0.02202 0.9751 0.40733 0.0
C76 C 0.01218 0.02446 0.42586 0.0
H77 H 0.93586 0.22574 0.48833 0.0
H78 H 0.9924 0.13476 0.47426 0.0
H79 H 0.92164 0.18838 0.37109 0.0
H80 H 0.78978 0.06463 0.40978 0.0
H81 H 0.79385 0.04713 0.37253 0.0
H82 H 0.76554 0.11965 0.38381 0.0
H83 H 0.84332 0.16937 0.35418 0.0
H84 H 0.91706 0.12713 0.34696 0.0
C85 C 0.10829 0.07931 0.45191 0.0
C86 C 0.02953 0.0111 0.47956 0.0
C87 C 0.92975 0.92016 0.30757 0.0
C88 C 0.89145 0.95226 0.28734 0.0
C89 C 0.85757 1.00355 0.29702 0.0
C90 C 0.86521 0.02429 0.32568 0.0
C91 C 0.90853 0.99458 0.34479 0.0
C92 C 0.9393 0.94303 0.33567 0.0
C93 C 0.98914 0.92088 0.35759 0.0
C94 C 0.98413 0.96836 0.38121 0.0
C95 C 0.93592 0.01061 0.37391 0.0
C96 C 0.05812 0.9206 0.34366 0.0
C97 C 0.96525 0.85911 0.36782 0.0
C98 C 0.8511 0.19536 0.425 0.0
C99 C 0.86951 0.22659 0.45067 0.0
C100 C 0.92027 0.20268 0.46852 0.0
C101 C 0.95329 0.14994 0.46032 0.0
C102 C 0.93547 0.12042 0.43413 0.0
C103 C 0.8846 0.14333 0.41714 0.0
C104 C 0.87338 0.10866 0.3894 0.0
C105 C 0.92386 0.05939 0.39295 0.0
C106 C 0.96107 0.06633 0.41904 0.0
C107 C 0.88915 0.15024 0.364 0.0
C108 C 0.80179 0.08376 0.38857 0.0
H109 H 0.08908 0.86145 0.39105 0.0
H110 H 0.18125 0.9735 0.47684 0.0
H111 H 1.00711 0.96556 0.47929 0.0
H112 H 0.98876 0.04209 0.48291 0.0
H113 H 0.06565 0.01423 0.4981 0.0
H114 H 0.14126 0.07866 0.43317 0.0
H115 H 0.13998 0.08059 0.47194 0.0
H116 H 0.0807 0.12153 0.45054 0.0
H117 H 0.95537 0.8798 0.30138 0.0
H118 H 0.8279 0.02982 0.28219 0.0
H119 H 0.83919 0.06413 0.33147 0.0
H120 H 0.06093 0.95396 0.32623 0.0
H121 H 0.06918 0.87616 0.33396 0.0
H122 H 0.09885 0.93375 0.35895 0.0
H123 H 0.91044 0.85793 0.36922 0.0
H124 H 0.98408 0.84855 0.38978 0.0
H125 H 0.97947 0.82288 0.35257 0.0
H126 H 0.18779 0.82645 0.41528 0.0
C127 C 0.10715 0.88695 0.40947 0.0
C128 C 0.15172 0.25578 0.55163 0.0
C129 C 0.20733 0.28363 0.56526 0.0
C130 C 0.22799 0.26504 0.59303 0.0
C131 C 0.14159 0.19 0.59239 0.0
C132 C 0.11972 0.20905 0.56558 0.0
C133 C 0.06211 0.17204 0.55386 0.0
H134 H 0.90983 0.90122 0.55507 0.0
C135 C 0.10375 0.13608 0.5994 0.0
C136 C 0.05802 0.12391 0.57654 0.0
H137 H 0.85822 0.04697 0.49918 0.0
H138 H 0.93661 0.11189 0.52595 0.0
H139 H 0.06936 0.92423 0.56555 0.0
H140 H 0.89231 0.97382 0.60753 0.0
H141 H 0.95315 0.98015 0.63523 0.0
H142 H 0.93683 0.90841 0.6179 0.0
H143 H 0.01525 0.87444 0.58368 0.0
H144 H 0.08158 0.91338 0.60301 0.0
C145 C 0.07968 0.14618 0.52411 0.0
C146 C 1.00015 0.21213 0.55325 0.0
C147 C 0.13816 0.03668 0.69594 0.0
C148 C 0.11254 0.9836 0.7069 0.0
C149 C 0.08067 0.94191 0.68805 0.0
C150 C 0.06928 0.95526 0.65897 0.0
C151 C 0.09004 0.0108 0.6488 0.0
C152 C 0.12697 0.04909 0.66671 0.0
C153 C 0.14876 0.10408 0.65131 0.0
C154 C 0.11101 0.09595 0.62258 0.0
C155 C 0.07688 0.04138 0.62137 0.0
C156 C 0.22487 0.10081 0.648 0.0
C157 C 0.12554 0.16019 0.6681 0.0
C158 C 0.91678 0.94664 0.548 0.0
C159 C 0.88074 0.96817 0.52407 0.0
C160 C 0.88684 0.029 0.51713 0.0
C161 C 0.93222 0.06649 0.53265 0.0
C162 C 0.97087 0.04296 0.55551 0.0
C163 C 0.95999 0.98474 0.56363 0.0
C164 C 0.995 0.97001 0.59153 0.0
C165 C 0.03249 0.02771 0.59792 0.0
C166 C 0.02044 0.0698 0.57626 0.0
C167 C 0.04271 0.91749 0.58588 0.0
C168 C 0.94206 0.9571 0.61427 0.0
H169 H 0.21381 0.20654 0.6276 0.0
H170 H 0.13413 0.26957 0.53049 0.0
H171 H 0.95363 0.18633 0.55359 0.0
H172 H 0.9993 0.2411 0.53405 0.0
H173 H 0.99962 0.24181 0.57278 0.0
H174 H 0.04432 0.1116 0.51669 0.0
H175 H 0.12917 0.12476 0.52512 0.0
H176 H 0.08038 0.18161 0.50766 0.0
H177 H 0.16387 0.06873 0.71013 0.0
H178 H 0.06102 0.90063 0.69623 0.0
H179 H 0.04288 0.92271 0.64577 0.0
H180 H 0.24468 0.05547 0.65241 0.0
H181 H 0.25136 0.13244 0.66315 0.0
H182 H 0.23942 0.11018 0.62566 0.0
H183 H 0.07294 0.15512 0.67395 0.0
H184 H 0.12826 0.20128 0.65536 0.0
H185 H 0.15566 0.16729 0.68835 0.0
H186 H 0.27096 0.28506 0.60399 0.0
C187 C 0.19538 0.2187 0.60663 0.0
C188 C 0.59842 0.27204 0.95006 0.0
C189 C 0.65605 0.24307 0.94142 0.0
C190 C 0.68976 0.26377 0.91748 0.0
C191 C 0.60937 0.34238 0.91112 0.0
C192 C 0.57592 0.32166 0.93454 0.0
C193 C 0.51714 0.3599 0.94119 0.0
H194 H 0.36424 0.62511 0.92291 0.0
C195 C 0.57571 0.39652 0.90072 0.0
C196 C 0.52215 0.40785 0.91856 0.0
H197 H 0.30833 0.48545 0.98067 0.0
H198 H 0.39336 0.42117 0.96117 0.0
H199 H 0.52278 0.6101 0.92305 0.0
H200 H 0.36024 0.5408 0.87091 0.0
H201 H 0.42785 0.53645 0.84818 0.0
H202 H 0.40129 0.60845 0.86165 0.0
H203 H 0.46883 0.65322 0.90007 0.0
H204 H 0.54084 0.61761 0.88618 0.0
C205 C 0.52728 0.38558 0.97213 0.0
C206 C 0.45378 0.3215 0.93651 0.0
C207 C 0.65263 0.49758 0.81034 0.0
C208 C 0.62688 0.54559 0.7943 0.0
C209 C 0.57693 0.58096 0.80652 0.0
C210 C 0.55135 0.56738 0.83331 0.0
C211 C 0.57452 0.51705 0.848 0.0
C212 C 0.625 0.48355 0.83674 0.0
C213 C 0.64144 0.43027 0.85493 0.0
C214 C 0.58976 0.43564 0.87792 0.0
C215 C 0.55159 0.487 0.87395 0.0
C216 C 0.71271 0.43875 0.86778 0.0
C217 C 0.63114 0.37304 0.83592 0.0
C218 C 0.36972 0.58064 0.93145 0.0
C219 C 0.3305 0.56102 0.95395 0.0
C220 C 0.33898 0.50226 0.96386 0.0
C221 C 0.38805 0.46499 0.95244 0.0
C222 C 0.42829 0.48649 0.93062 0.0
C223 C 0.41669 0.54262 0.9198 0.0
C224 C 0.45726 0.55569 0.89412 0.0
C225 C 0.4994 0.50009 0.89271 0.0
C226 C 0.48335 0.46002 0.91443 0.0
C227 C 0.49964 0.61232 0.90099 0.0
C228 C 0.40961 0.561 0.8673 0.0
H229 H 0.69505 0.32726 0.88442 0.0
H230 H 0.57184 0.25658 0.96844 0.0
H231 H 0.45794 0.29129 0.91732 0.0
H232 H 0.40934 0.34859 0.932 0.0
H233 H 0.44523 0.29318 0.95548 0.0
H234 H 0.57974 0.39919 0.97631 0.0
H235 H 0.51449 0.35194 0.98839 0.0
H236 H 0.49821 0.42622 0.9758 0.0
H237 H 0.69192 0.47004 0.80216 0.0
H238 H 0.55495 0.61771 0.79486 0.0
H239 H 0.51323 0.59581 0.84118 0.0
H240 H 0.72637 0.4869 0.86997 0.0
H241 H 0.7496 0.41697 0.85386 0.0
H242 H 0.71843 0.42157 0.88994 0.0
H243 H 0.5856 0.3767 0.82196 0.0
H244 H 0.624 0.33239 0.84857 0.0
H245 H 0.67348 0.36589 0.8216 0.0
H246 H 0.73417 0.2415 0.91059 0.0
C247 C 0.66692 0.3134 0.90235 0.0
C248 C 0.57323 0.613 0.03066 0.0
C249 C 0.5996 0.66788 0.04111 0.0
C250 C 0.58587 0.68705 0.06943 0.0
C251 C 0.52086 0.5977 0.07651 0.0
C252 C 0.53347 0.57903 0.04865 0.0
C253 C 0.49664 0.52217 0.04053 0.0
H254 H 0.28592 0.30128 0.07938 0.0
C255 C 0.47705 0.55307 0.08935 0.0
C256 C 0.46132 0.50904 0.06821 0.0
H257 H 0.36752 0.32708 -0.00463 0.0
H258 H 0.42651 0.41515 0.01388 0.0
H259 H 0.41664 0.32328 0.11419 0.0
H260 H 0.25544 0.44093 0.09378 0.0
H261 H 0.27695 0.45022 0.13077 0.0
H262 H 0.24973 0.3781 0.11715 0.0
H263 H 0.34409 0.32528 0.13536 0.0
H264 H 0.41404 0.374 0.14342 0.0
C265 C 0.54778 0.4735 0.03362 0.0
C266 C 0.44764 0.53582 0.01534 0.0
C267 C 0.4292 0.57034 0.19593 0.0
C268 C 0.39827 0.53169 0.21485 0.0
C269 C 0.36632 0.47975 0.20378 0.0
C270 C 0.36607 0.46597 0.17416 0.0
C271 C 0.39924 0.50397 0.15552 0.0
C272 C 0.42991 0.55523 0.16651 0.0
C273 C 0.46635 0.58826 0.14394 0.0
C274 C 0.45322 0.54796 0.11765 0.0
C275 C 0.41332 0.49911 0.12448 0.0
C276 C 0.5407 0.5901 0.15321 0.0
C277 C 0.43409 0.65051 0.14036 0.0
C278 C 0.31698 0.32522 0.06485 0.0
C279 C 0.32194 0.3065 0.03583 0.0
C280 C 0.36213 0.34036 0.01775 0.0
C281 C 0.3966 0.39138 0.02846 0.0
C282 C 0.39096 0.40922 0.0575 0.0
C283 C 0.3516 0.37609 0.07512 0.0
C284 C 0.35155 0.40082 0.10547 0.0
C285 C 0.39559 0.45542 0.10298 0.0
C286 C 0.41913 0.46025 0.07491 0.0
C287 C 0.38269 0.35359 0.12584 0.0
C288 C 0.27973 0.41826 0.11244 0.0
H289 H 0.53832 0.66974 0.10838 0.0
H290 H 0.58199 0.59769 0.00881 0.0
H291 H 0.40228 0.50852 0.01616 0.0
H292 H 0.47112 0.52933 -0.0058 0.0
H293 H 0.43 0.5828 0.0165 0.0
H294 H 0.58702 0.47218 0.05097 0.0
H295 H 0.57211 0.48293 0.01304 0.0
H296 H 0.5258 0.4283 0.03229 0.0
H297 H 0.45516 0.60995 0.20408 0.0
H298 H 0.34238 0.44945 0.21817 0.0
H299 H 0.34119 0.42566 0.16702 0.0
H300 H 0.55621 0.54682 0.16266 0.0
H301 H 0.55085 0.62575 0.16979 0.0
H302 H 0.57376 0.59675 0.13509 0.0
H303 H 0.38078 0.64935 0.14555 0.0
H304 H 0.43465 0.66612 0.11786 0.0
H305 H 0.4586 0.68451 0.15489 0.0
H306 H 0.60608 0.72888 0.07805 0.0
C307 C 0.54676 0.65244 0.0871 0.0
H308 H 0.13625 0.10655 0.97638 0.0
H309 H 0.17627 0.02332 0.05835 0.0
H310 H 0.25099 0.1049 0.07287 0.0
H311 H 0.3012 0.2019 0.06359 0.0
H312 H 0.25795 0.28908 0.98296 0.0
H313 H 0.18995 0.20361 0.96649 0.0
C314 C 0.16187 0.10599 -0.00271 0.0
C315 C 0.15027 0.05876 0.01625 0.0
C316 C 0.20433 0.15389 0.00582 0.0
C317 C 0.18378 0.05907 0.04333 0.0
C318 C 0.22664 0.1058 0.05171 0.0
C319 C 0.27664 0.20259 0.04245 0.0
C320 C 0.28442 0.25249 0.02474 0.0
C321 C 0.23647 0.15388 0.03335 0.0
C322 C 0.25346 0.25138 -0.00292 0.0
C323 C 0.21404 0.20258 0.9877 0.0
H324 H 0.15918 0.75024 0.02263 0.0
H325 H 0.12064 0.80529 0.93467 0.0
H326 H 0.18284 0.72211 0.91663 0.0
H327 H 0.24985 0.63527 0.92462 0.0
H328 H 0.30021 0.58052 0.01118 0.0
H329 H 0.23003 0.6599 0.0307 0.0
C330 C 0.16476 0.74401 -0.00041 0.0
C331 C 0.13519 0.78466 0.98024 0.0
C332 C 0.20208 0.69552 0.98891 0.0
C333 C 0.14282 0.77551 0.95034 0.0
C334 C 0.17828 0.7275 0.93978 0.0
C335 C 0.24609 0.6408 0.94782 0.0
C336 C 0.28132 0.60274 0.96635 0.0
C337 C 0.2083 0.68756 0.95877 0.0
C338 C 0.27371 0.60929 -0.00367 0.0
C339 C 0.23407 0.6551 0.00752 0.0
H340 H 0.77674 0.87086 -0.00737 0.0
H341 H 0.90477 0.72171 0.97693 0.0
H342 H 0.81627 0.65191 0.98894 0.0
H343 H 0.70904 0.63515 0.0119 0.0
H344 H 0.58516 0.78615 0.03077 0.0
H345 H 0.66454 0.85338 0.00935 0.0
C346 C 0.78404 0.82294 0.99071 0.0
C347 C 0.84623 0.80107 0.98336 0.0
C348 C 0.734 0.78357 -0.00112 0.0
C349 C 0.85649 0.73917 0.98186 0.0
C350 C 0.80621 0.69943 0.98913 0.0
C351 C 0.69882 0.68256 0.01059 0.0
C352 C 0.64182 0.70584 0.0232 0.0
C353 C 0.74567 0.72125 -0.00115 0.0
C354 C 0.6292 0.7674 0.02156 0.0
C355 C 0.67453 0.80584 0.00931 0.0
H356 H 0.79447 1.00352 0.9702 0.0
H357 H 0.89912 0.11664 0.03261 0.0
H358 H 0.82139 0.19833 0.02252 0.0
H359 H 0.73589 0.24162 0.98945 0.0
H360 H 0.63618 0.12789 0.92571 0.0
H361 H 0.69886 0.04168 0.94293 0.0
C362 C 0.7988 0.04558 0.9822 0.0
C363 C 0.852 0.05465 0.00199 0.0
C364 C 0.75526 0.09215 0.97572 0.0
C365 C 0.8579 0.10891 0.01748 0.0
C366 C 0.81396 0.15563 0.01144 0.0
C367 C 0.72672 0.19744 0.9801 0.0
C368 C 0.68177 0.19042 0.9565 0.0
C369 C 0.76422 0.14849 0.9897 0.0
C370 C 0.67042 0.13364 0.94404 0.0
C371 C 0.70647 0.08465 0.95375 0.0
H372 H 0.64299 0.80062 0.48764 0.0
H373 H 0.80078 0.6726 0.48443 0.0
H374 H 0.88283 0.75342 0.48948 0.0
H375 H 0.90811 0.85781 0.50314 0.0
H376 H 0.75008 0.98521 0.50986 0.0
H377 H 0.6695 0.90806 0.49434 0.0
C378 C 0.69545 0.79098 0.48697 0.0
C379 C 0.71638 0.73128 0.48529 0.0
C380 C 0.74199 0.83751 0.49093 0.0
C381 C 0.78407 0.71851 0.4852 0.0
C382 C 0.83077 0.76461 0.48838 0.0
C383 C 0.85611 0.86885 0.50059 0.0
C384 C 0.83475 0.92671 0.50803 0.0
C385 C 0.81017 0.82391 0.49252 0.0
C386 C 0.76758 0.94096 0.50426 0.0
C387 C 0.72151 0.89671 0.49564 0.0
H388 H 0.71451 0.47036 0.45338 0.0
H389 H 0.70669 0.43255 0.54405 0.0
H390 H 0.77423 0.34284 0.5367 0.0
H391 H 0.82942 0.27139 0.50331 0.0
H392 H 0.83878 0.31482 0.41311 0.0
H393 H 0.77669 0.40567 0.42153 0.0
C394 C 0.72775 0.44271 0.47164 0.0
C395 C 0.70488 0.45776 0.49916 0.0
C396 C 0.76654 0.39174 0.46726 0.0
C397 C 0.72355 0.42193 0.52262 0.0
C398 C 0.76195 0.3705 0.51837 0.0
C399 C 0.81858 0.30113 0.48561 0.0
C400 C 0.83747 0.2851 0.45742 0.0
C401 C 0.78295 0.35437 0.49064 0.0
C402 C 0.8232 0.32466 0.43482 0.0
C403 C 0.78798 0.37704 0.43962 0.0
H404 H 0.39968 0.43961 0.49175 0.0
H405 H 0.41787 0.53469 0.57363 0.0
H406 H 0.33315 0.47162 0.59331 0.0
H407 H 0.25916 0.38586 0.58879 0.0
H408 H 0.24349 0.28513 0.50862 0.0
H409 H 0.31997 0.35477 0.48659 0.0
C410 C 0.38457 0.44667 0.51378 0.0
C411 C 0.41576 0.49134 0.53125 0.0
C412 C 0.33603 0.40933 0.52532 0.0
C413 C 0.39553 0.5001 0.55978 0.0
C414 C 0.34681 0.46417 0.57111 0.0
C415 C 0.27242 0.37906 0.56648 0.0
C416 C 0.24626 0.32995 0.55054 0.0
C417 C 0.31771 0.418 0.5543 0.0
C418 C 0.26265 0.32275 0.5214 0.0
C419 C 0.3069 0.36226 0.50886 0.0
H420 H 0.46725 0.77602 0.46295 0.0
H421 H 0.38862 0.7283 0.54466 0.0
H422 H 0.29311 0.79376 0.53574 0.0
H423 H 0.22461 0.85288 0.50082 0.0
H424 H 0.30579 0.89744 0.41906 0.0
H425 H 0.40814 0.84589 0.43193 0.0
C426 C 0.42986 0.78106 0.47909 0.0
C427 C 0.43429 0.74722 0.50424 0.0
C428 C 0.37534 0.81793 0.47362 0.0
C429 C 0.38613 0.75426 0.52517 0.0
C430 C 0.33134 0.79124 0.51992 0.0
C431 C 0.26562 0.85257 0.48632 0.0
C432 C 0.25792 0.87841 0.45898 0.0
C433 C 0.32425 0.82168 0.49371 0.0
C434 C 0.31089 0.87756 0.44015 0.0
C435 C 0.36919 0.84789 0.44744 0.0
H436 H 0.87152 0.9301 0.1516 0.0
H437 H 0.06621 0.85481 0.16557 0.0
H438 H 0.05531 0.86647 0.21744 0.0
H439 H 0.99419 0.90374 0.25828 0.0
H440 H 0.7938 0.96637 0.24505 0.0
H441 H 0.80366 0.9531 0.19305 0.0
C442 C 0.91113 0.91454 0.16578 0.0
C443 C 0.97015 0.89242 0.15428 0.0
C444 C 0.90383 0.91943 0.19573 0.0
C445 C 0.02099 0.87377 0.17347 0.0
C446 C 0.01461 0.87986 0.20326 0.0
C447 C 0.9515 0.91279 0.24437 0.0
C448 C 0.89341 0.93662 0.25594 0.0
C449 C 0.95667 0.90346 0.21457 0.0
C450 C 0.83979 0.94937 0.23697 0.0
C451 C 0.84518 0.94141 0.20716 0.0
H452 H 0.10178 0.90622 0.83646 0.0
H453 H 0.97901 0.06292 0.84045 0.0
H454 H 0.99894 0.08258 0.78969 0.0
H455 H 0.04955 0.05397 0.7441 0.0
H456 H 0.16609 0.89385 0.73892 0.0
H457 H 0.1515 0.87686 0.79053 0.0
C458 C 0.07973 0.94477 0.82616 0.0
C459 C 0.03914 0.98322 0.84199 0.0
C460 C 0.09079 0.95525 0.79699 0.0
C461 C 0.00998 0.03258 0.82849 0.0
C462 C 0.02168 0.04397 0.79961 0.0
C463 C 0.07248 0.01593 0.75451 0.0
C464 C 0.10969 0.97566 0.73823 0.0
C465 C 0.06191 1.00559 0.78369 0.0
C466 C 0.13791 0.92557 0.7514 0.0
C467 C 0.12928 0.91583 0.78073 0.0
H468 H 0.66991 0.53656 0.6602 0.0
H469 H 0.62469 0.72351 0.67004 0.0
H470 H 0.62834 0.71449 0.72272 0.0
H471 H 0.63382 0.65122 0.7653 0.0
H472 H 0.66304 0.46098 0.75416 0.0
H473 H 0.6793 0.47397 0.70303 0.0
C474 C 0.66227 0.57544 0.67402 0.0
C475 C 0.64745 0.63063 0.66156 0.0
C476 C 0.66166 0.56926 0.70407 0.0
C477 C 0.63635 0.68068 0.6794 0.0
C478 C 0.63826 0.67543 0.70941 0.0
C479 C 0.6434 0.61239 0.75179 0.0
C480 C 0.64639 0.55511 0.76391 0.0
C481 C 0.64897 0.61952 0.72193 0.0
C482 C 0.66122 0.50586 0.7459 0.0
C483 C 0.66973 0.51303 0.71641 0.0
H484 H 0.42878 0.62341 0.34405 0.0
H485 H 0.5279 0.45421 0.35201 0.0
H486 H 0.50058 0.42977 0.30132 0.0
H487 H 0.45274 0.45856 0.25427 0.0
H488 H 0.36098 0.63072 0.24512 0.0
H489 H 0.38048 0.65216 0.29681 0.0
C490 C 0.44379 0.58106 0.33463 0.0
C491 C 0.48014 0.54055 0.35153 0.0
C492 C 0.42918 0.568 0.30537 0.0
C493 C 0.50019 0.48609 0.3392 0.0
C494 C 0.48446 0.47209 0.31032 0.0
C495 C 0.43625 0.50034 0.26379 0.0
C496 C 0.40494 0.54284 0.24627 0.0
C497 C 0.44951 0.51292 0.29316 0.0
C498 C 0.38493 0.59742 0.25846 0.0
C499 C 0.39619 0.60964 0.28789 0.0
loop_
_geom_bond_atom_site_label_1
_geom_bond_atom_site_label_2
_geom_bond_distance
_geom_bond_site_symmetry_2
_ccdc_geom_bond_type
C0 O16 1.251 . S
C0 O18 1.254 1_554 S
N1 C2 1.333 1_445 S
N1 C6 1.307 . S
N1 Zn7 2.020 . S
C2 N1 1.333 1_665 S
C2 C3 1.379 . S
C2 H20 0.952 . S
C3 C2 1.379 . S
C3 C4 1.390 1_665 S
C3 H30 0.949 . S
C4 C3 1.390 1_445 S
C4 C5 1.357 . S
C5 C4 1.357 . S
C5 C6 1.370 . S
C5 H31 0.950 . S
C6 N1 1.307 . S
C6 C5 1.370 . S
C6 H24 0.948 . S
Zn7 N1 2.020 . S
Zn7 O16 2.039 1_445 S
Zn7 O22 2.034 1_455 S
Zn7 O26 2.025 . S
Zn7 O28 2.024 1_545 S
C8 O27 1.246 1_554 S
C8 O28 1.249 . S
N9 C10 1.307 1_445 S
N9 C11 1.333 . S
N9 Zn15 2.020 . S
C10 N9 1.307 1_665 S
C10 C14 1.370 . S
C10 H21 0.948 . S
C11 N9 1.333 . S
C11 C12 1.379 . S
C11 H19 0.952 . S
C12 C11 1.379 . S
C12 C13 1.390 . S
C12 H32 0.949 . S
C13 C12 1.390 . S
C13 C14 1.357 1_445 S
C14 C10 1.370 . S
C14 C13 1.357 1_665 S
C14 H33 0.950 . S
Zn15 N9 2.020 . S
Zn15 O18 2.025 1_445 S
Zn15 O23 2.024 1_455 S
Zn15 O25 2.039 . S
Zn15 O27 2.034 1_545 S
O16 C0 1.251 . S
O16 Zn7 2.039 1_665 S
C17 O22 1.246 . S
C17 O23 1.249 1_554 S
O18 C0 1.254 1_556 S
O18 Zn15 2.025 1_665 S
H19 C11 0.952 . S
H20 C2 0.952 . S
H21 C10 0.948 . S
O22 Zn7 2.034 1_655 S
O22 C17 1.246 . S
O23 Zn15 2.024 1_655 S
O23 C17 1.249 1_556 S
H24 C6 0.948 . S
O25 Zn15 2.039 . S
O25 C29 1.251 1_556 S
O26 Zn7 2.025 . S
O26 C29 1.254 . S
O27 C8 1.246 1_556 S
O27 Zn15 2.034 1_565 S
O28 Zn7 2.024 1_565 S
O28 C8 1.249 . S
C29 O25 1.251 1_554 S
C29 O26 1.254 . S
H30 C3 0.949 . S
H31 C5 0.950 . S
H32 C12 0.949 . S
H33 C14 0.950 . S
C34 O50 1.251 . S
C34 O52 1.254 . S
N35 C36 1.333 . S
N35 C40 1.307 . S
N35 Zn41 2.020 . S
C36 N35 1.333 . S
C36 C37 1.379 . S
C36 H54 0.952 . S
C37 C36 1.379 . S
C37 C38 1.390 . S
C37 H64 0.949 . S
C38 C37 1.390 . S
C38 C39 1.357 . S
C39 C38 1.357 . S
C39 C40 1.370 . S
C39 H65 0.950 . S
C40 N35 1.307 . S
C40 C39 1.370 . S
C40 H58 0.948 . S
Zn41 N35 2.020 . S
Zn41 O50 2.039 . S
Zn41 O56 2.034 . S
Zn41 O60 2.025 . S
Zn41 O62 2.024 . S
C42 O61 1.246 . S
C42 O62 1.249 . S
N43 C44 1.307 . S
N43 C45 1.333 . S
N43 Zn49 2.020 . S
C44 N43 1.307 . S
C44 C48 1.370 . S
C44 H55 0.948 . S
C45 N43 1.333 . S
C45 C46 1.379 . S
C45 H53 0.952 . S
C46 C45 1.379 . S
C46 C47 1.390 . S
C46 H66 0.949 . S
C47 C46 1.390 . S
C47 C48 1.357 . S
C48 C44 1.370 . S
C48 C47 1.357 . S
C48 H67 0.950 . S
Zn49 N43 2.020 . S
Zn49 O52 2.025 . S
Zn49 O57 2.024 . S
Zn49 O59 2.039 . S
Zn49 O61 2.034 . S
O50 C34 1.251 . S
O50 Zn41 2.039 . S
C51 O56 1.246 . S
C51 O57 1.249 . S
O52 C34 1.254 . S
O52 Zn49 2.025 . S
H53 C45 0.952 . S
H54 C36 0.952 . S
H55 C44 0.948 . S
O56 Zn41 2.034 . S
O56 C51 1.246 . S
O57 Zn49 2.024 . S
O57 C51 1.249 . S
H58 C40 0.948 . S
O59 Zn49 2.039 . S
O59 C63 1.251 . S
O60 Zn41 2.025 . S
O60 C63 1.254 . S
O61 C42 1.246 . S
O61 Zn49 2.034 . S
O62 Zn41 2.024 . S
O62 C42 1.249 . S
C63 O59 1.251 . S
C63 O60 1.254 . S
H64 C37 0.949 . S
H65 C39 0.950 . S
H66 C46 0.949 . S
H67 C48 0.950 . S
C68 C69 1.391 . S
C68 C72 1.391 . S
C68 H110 0.948 . S
C69 C68 1.391 . S
C69 C70 1.391 . S
C70 C69 1.391 . S
C70 H126 0.947 . S
C70 C127 1.392 . S
C71 C72 1.391 . S
C71 C75 1.397 . S
C71 C127 1.419 . S
C72 C68 1.391 . S
C72 C71 1.391 . S
C72 C73 1.399 . S
C73 C72 1.399 . S
C73 C76 1.396 . S
C73 C85 1.453 1_565 S
C73 C86 1.684 1_455 S
H74 C98 0.948 . S
C75 C71 1.397 . S
C75 C76 1.394 . S
C75 C94 1.723 . S
C76 C73 1.396 . S
C76 C75 1.394 . S
C76 C106 1.723 1_465 S
H77 C100 0.947 . S
H78 C101 0.948 . S
H79 C107 0.982 . S
H80 C108 0.979 . S
H81 C108 0.980 . S
H82 C108 0.983 . S
H83 C107 0.979 . S
H84 C107 0.977 . S
C85 C73 1.453 1_545 S
C85 H114 0.982 . S
C85 H115 0.979 1_545 S
C85 H116 0.977 . S
C86 C73 1.684 1_655 S
C86 H111 0.979 . S
C86 H112 0.980 . S
C86 H113 0.983 1_655 S
C87 C88 1.391 1_465 S
C87 C92 1.391 . S
C87 H117 0.948 . S
C88 C87 1.391 1_645 S
C88 C89 1.391 . S
C89 C88 1.391 . S
C89 C90 1.392 . S
C89 H118 0.947 . S
C90 C89 1.392 . S
C90 C91 1.419 . S
C90 H119 0.948 . S
C91 C90 1.419 . S
C91 C92 1.391 1_645 S
C91 C95 1.397 . S
C92 C87 1.391 . S
C92 C91 1.391 1_465 S
C92 C93 1.399 . S
C93 C92 1.399 . S
C93 C94 1.396 . S
C93 C96 1.453 . S
C93 C97 1.684 . S
C94 C75 1.723 . S
C94 C93 1.396 . S
C94 C95 1.394 1_465 S
C95 C91 1.397 . S
C95 C94 1.394 1_645 S
C95 C105 1.723 . S
C96 C93 1.453 . S
C96 H120 0.982 . S
C96 H121 0.979 . S
C96 H122 0.977 . S
C97 C93 1.684 . S
C97 H123 0.979 . S
C97 H124 0.980 . S
C97 H125 0.983 . S
C98 H74 0.948 . S
C98 C99 1.391 . S
C98 C103 1.391 . S
C99 C98 1.391 . S
C99 C100 1.391 . S
C100 H77 0.947 . S
C100 C99 1.391 . S
C100 C101 1.392 . S
C101 H78 0.948 . S
C101 C100 1.392 . S
C101 C102 1.419 . S
C102 C101 1.419 . S
C102 C103 1.391 . S
C102 C106 1.397 . S
C103 C98 1.391 . S
C103 C102 1.391 . S
C103 C104 1.399 . S
C104 C103 1.399 . S
C104 C105 1.396 . S
C104 C107 1.453 . S
C104 C108 1.684 . S
C105 C95 1.723 . S
C105 C104 1.396 . S
C105 C106 1.394 . S
C106 C76 1.723 1_645 S
C106 C102 1.397 . S
C106 C105 1.394 . S
C107 H79 0.982 . S
C107 H83 0.979 . S
C107 H84 0.977 . S
C107 C104 1.453 . S
C108 H80 0.979 . S
C108 H81 0.980 . S
C108 H82 0.983 . S
C108 C104 1.684 . S
H109 C127 0.948 . S
H110 C68 0.948 . S
H111 C86 0.979 . S
H112 C86 0.980 . S
H113 C86 0.983 1_455 S
H114 C85 0.982 . S
H115 C85 0.979 1_565 S
H116 C85 0.977 . S
H117 C87 0.948 . S
H118 C89 0.947 . S
H119 C90 0.948 . S
H120 C96 0.982 . S
H121 C96 0.979 . S
H122 C96 0.977 . S
H123 C97 0.979 . S
H124 C97 0.980 . S
H125 C97 0.983 . S
H126 C70 0.947 . S
C127 C70 1.392 . S
C127 C71 1.419 . S
C127 H109 0.948 . S
C128 C129 1.391 . S
C128 C132 1.391 . S
C128 H170 0.948 . S
C129 C128 1.391 . S
C129 C130 1.391 . S
C130 C129 1.391 . S
C130 H186 0.947 . S
C130 C187 1.392 . S
C131 C132 1.391 . S
C131 C135 1.397 . S
C131 C187 1.419 . S
C132 C128 1.391 . S
C132 C131 1.391 . S
C132 C133 1.399 . S
C133 C132 1.399 . S
C133 C136 1.396 . S
C133 C145 1.453 . S
C133 C146 1.684 1_455 S
H134 C158 0.948 . S
C135 C131 1.397 . S
C135 C136 1.394 . S
C135 C154 1.723 . S
C136 C133 1.396 . S
C136 C135 1.394 . S
C136 C166 1.723 1_445 S
H137 C160 0.947 . S
H138 C161 0.948 . S
H139 C167 0.982 . S
H140 C168 0.979 . S
H141 C168 0.980 . S
H142 C168 0.983 . S
H143 C167 0.979 . S
H144 C167 0.977 . S
C145 C133 1.453 . S
C145 H174 0.982 1_545 S
C145 H175 0.979 . S
C145 H176 0.977 1_545 S
C146 C133 1.684 1_655 S
C146 H171 0.979 . S
C146 H172 0.980 . S
C146 H173 0.983 1_655 S
C147 C148 1.391 . S
C147 C152 1.391 . S
C147 H177 0.948 . S
C148 C147 1.391 . S
C148 C149 1.391 1_445 S
C149 C148 1.391 1_665 S
C149 C150 1.392 . S
C149 H178 0.947 . S
C150 C149 1.392 . S
C150 C151 1.419 1_655 S
C150 H179 0.948 . S
C151 C150 1.419 1_455 S
C151 C152 1.391 1_565 S
C151 C155 1.397 1_565 S
C152 C147 1.391 . S
C152 C151 1.391 1_545 S
C152 C153 1.399 . S
C153 C152 1.399 . S
C153 C154 1.396 . S
C153 C156 1.453 . S
C153 C157 1.684 . S
C154 C135 1.723 . S
C154 C153 1.396 . S
C154 C155 1.394 . S
C155 C151 1.397 1_545 S
C155 C154 1.394 . S
C155 C165 1.723 1_445 S
C156 C153 1.453 . S
C156 H180 0.982 . S
C156 H181 0.979 . S
C156 H182 0.977 . S
C157 C153 1.684 . S
C157 H183 0.979 . S
C157 H184 0.980 . S
C157 H185 0.983 . S
C158 H134 0.948 . S
C158 C159 1.391 . S
C158 C163 1.391 . S
C159 C158 1.391 . S
C159 C160 1.391 . S
C160 H137 0.947 . S
C160 C159 1.391 . S
C160 C161 1.392 . S
C161 H138 0.948 . S
C161 C160 1.392 . S
C161 C162 1.419 . S
C162 C161 1.419 . S
C162 C163 1.391 . S
C162 C166 1.397 . S
C163 C158 1.391 . S
C163 C162 1.391 . S
C163 C164 1.399 . S
C164 C163 1.399 . S
C164 C165 1.396 . S
C164 C167 1.453 . S
C164 C168 1.684 . S
C165 C155 1.723 1_665 S
C165 C164 1.396 . S
C165 C166 1.394 . S
C166 C136 1.723 1_665 S
C166 C162 1.397 . S
C166 C165 1.394 . S
C167 H139 0.982 . S
C167 H143 0.979 . S
C167 H144 0.977 . S
C167 C164 1.453 . S
C168 H140 0.979 . S
C168 H141 0.980 . S
C168 H142 0.983 . S
C168 C164 1.684 . S
H169 C187 0.948 . S
H170 C128 0.948 . S
H171 C146 0.979 . S
H172 C146 0.980 . S
H173 C146 0.983 1_455 S
H174 C145 0.982 1_565 S
H175 C145 0.979 . S
H176 C145 0.977 1_565 S
H177 C147 0.948 . S
H178 C149 0.947 . S
H179 C150 0.948 . S
H180 C156 0.982 . S
H181 C156 0.979 . S
H182 C156 0.977 . S
H183 C157 0.979 . S
H184 C157 0.980 . S
H185 C157 0.983 . S
H186 C130 0.947 . S
C187 C130 1.392 . S
C187 C131 1.419 . S
C187 H169 0.948 . S
C188 C189 1.390 . S
C188 C192 1.391 1_554 S
C188 H230 0.948 . S
C189 C188 1.390 . S
C189 C190 1.394 1_554 S
C190 C189 1.394 1_556 S
C190 H246 0.947 . S
C190 C247 1.392 . S
C191 C192 1.391 . S
C191 C195 1.397 . S
C191 C247 1.419 . S
C192 C188 1.391 1_556 S
C192 C191 1.391 . S
C192 C193 1.399 1_556 S
C193 C192 1.399 1_554 S
C193 C196 1.396 1_554 S
C193 C205 1.453 . S
C193 C206 1.684 . S
H194 C218 0.948 . S
C195 C191 1.397 . S
C195 C196 1.394 . S
C195 C214 1.723 . S
C196 C193 1.396 1_556 S
C196 C195 1.394 . S
C196 C226 1.723 . S
H197 C220 0.947 . S
H198 C221 0.948 . S
H199 C227 0.982 . S
H200 C228 0.979 . S
H201 C228 0.980 . S
H202 C228 0.983 . S
H203 C227 0.979 . S
H204 C227 0.977 . S
C205 C193 1.453 . S
C205 H234 0.982 . S
C205 H235 0.979 . S
C205 H236 0.977 . S
C206 C193 1.684 . S
C206 H231 0.979 . S
C206 H232 0.980 . S
C206 H233 0.983 . S
C207 C208 1.391 . S
C207 C212 1.391 . S
C207 H237 0.948 . S
C208 C207 1.391 . S
C208 C209 1.391 . S
C209 C208 1.391 . S
C209 C210 1.392 . S
C209 H238 0.947 . S
C210 C209 1.392 . S
C210 C211 1.419 . S
C210 H239 0.948 . S
C211 C210 1.419 . S
C211 C212 1.391 . S
C211 C215 1.397 . S
C212 C207 1.391 . S
C212 C211 1.391 . S
C212 C213 1.399 . S
C213 C212 1.399 . S
C213 C214 1.396 . S
C213 C216 1.453 . S
C213 C217 1.684 . S
C214 C195 1.723 . S
C214 C213 1.396 . S
C214 C215 1.394 . S
C215 C211 1.397 . S
C215 C214 1.394 . S
C215 C225 1.723 . S
C216 C213 1.453 . S
C216 H240 0.982 . S
C216 H241 0.979 . S
C216 H242 0.977 . S
C217 C213 1.684 . S
C217 H243 0.979 . S
C217 H244 0.980 . S
C217 H245 0.983 . S
C218 H194 0.948 . S
C218 C219 1.391 1_556 S
C218 C223 1.391 . S
C219 C218 1.391 1_554 S
C219 C220 1.391 . S
C220 H197 0.947 . S
C220 C219 1.391 . S
C220 C221 1.392 . S
C221 H198 0.948 . S
C221 C220 1.392 . S
C221 C222 1.419 1_554 S
C222 C221 1.419 1_556 S
C222 C223 1.391 . S
C222 C226 1.397 . S
C223 C218 1.391 . S
C223 C222 1.391 . S
C223 C224 1.399 . S
C224 C223 1.399 . S
C224 C225 1.396 . S
C224 C227 1.453 . S
C224 C228 1.684 . S
C225 C215 1.723 . S
C225 C224 1.396 . S
C225 C226 1.394 . S
C226 C196 1.723 . S
C226 C222 1.397 . S
C226 C225 1.394 . S
C227 H199 0.982 . S
C227 H203 0.979 . S
C227 H204 0.977 . S
C227 C224 1.453 . S
C228 H200 0.979 . S
C228 H201 0.980 . S
C228 H202 0.983 . S
C228 C224 1.684 . S
H229 C247 0.948 . S
H230 C188 0.948 . S
H231 C206 0.979 . S
H232 C206 0.980 . S
H233 C206 0.983 . S
H234 C205 0.982 . S
H235 C205 0.979 . S
H236 C205 0.977 . S
H237 C207 0.948 . S
H238 C209 0.947 . S
H239 C210 0.948 . S
H240 C216 0.982 . S
H241 C216 0.979 . S
H242 C216 0.977 . S
H243 C217 0.979 . S
H244 C217 0.980 . S
H245 C217 0.983 . S
H246 C190 0.947 . S
C247 C190 1.392 . S
C247 C191 1.419 . S
C247 H229 0.948 . S
C248 C249 1.391 . S
C248 C252 1.391 . S
C248 H290 0.948 1_554 S
C249 C248 1.391 . S
C249 C250 1.391 . S
C250 C249 1.391 . S
C250 H306 0.947 . S
C250 C307 1.392 . S
C251 C252 1.391 . S
C251 C255 1.397 . S
C251 C307 1.419 . S
C252 C248 1.391 . S
C252 C251 1.391 . S
C252 C253 1.399 . S
C253 C252 1.399 . S
C253 C256 1.396 . S
C253 C265 1.453 1_554 S
C253 C266 1.684 1_554 S
H254 C278 0.948 . S
C255 C251 1.397 . S
C255 C256 1.394 . S
C255 C274 1.723 . S
C256 C253 1.396 . S
C256 C255 1.394 . S
C256 C286 1.723 . S
H257 C280 0.947 . S
H258 C281 0.948 1_556 S
H259 C287 0.982 . S
H260 C288 0.979 . S
H261 C288 0.980 . S
H262 C288 0.983 . S
H263 C287 0.979 . S
H264 C287 0.977 . S
C265 C253 1.453 1_556 S
C265 H294 0.982 1_556 S
C265 H295 0.979 . S
C265 H296 0.977 . S
C266 C253 1.684 1_556 S
C266 H291 0.979 . S
C266 H292 0.980 . S
C266 H293 0.983 . S
C267 C268 1.391 . S
C267 C272 1.391 . S
C267 H297 0.948 . S
C268 C267 1.391 . S
C268 C269 1.391 . S
C269 C268 1.391 . S
C269 C270 1.392 . S
C269 H298 0.947 . S
C270 C269 1.392 . S
C270 C271 1.419 . S
C270 H299 0.948 . S
C271 C270 1.419 . S
C271 C272 1.391 . S
C271 C275 1.397 . S
C272 C267 1.391 . S
C272 C271 1.391 . S
C272 C273 1.399 . S
C273 C272 1.399 . S
C273 C274 1.396 . S
C273 C276 1.453 . S
C273 C277 1.684 . S
C274 C255 1.723 . S
C274 C273 1.396 . S
C274 C275 1.394 . S
C275 C271 1.397 . S
C275 C274 1.394 . S
C275 C285 1.723 . S
C276 C273 1.453 . S
C276 H300 0.982 . S
C276 H301 0.979 . S
C276 H302 0.977 . S
C277 C273 1.684 . S
C277 H303 0.979 . S
C277 H304 0.980 . S
C277 H305 0.983 . S
C278 H254 0.948 . S
C278 C279 1.391 . S
C278 C283 1.391 . S
C279 C278 1.391 . S
C279 C280 1.391 1_554 S
C280 H257 0.947 . S
C280 C279 1.391 1_556 S
C280 C281 1.392 1_556 S
C281 H258 0.948 1_554 S
C281 C280 1.392 1_554 S
C281 C282 1.419 . S
C282 C281 1.419 . S
C282 C283 1.391 . S
C282 C286 1.397 . S
C283 C278 1.391 . S
C283 C282 1.391 . S
C283 C284 1.399 . S
C284 C283 1.399 . S
C284 C285 1.396 . S
C284 C287 1.453 . S
C284 C288 1.684 . S
C285 C275 1.723 . S
C285 C284 1.396 . S
C285 C286 1.394 . S
C286 C256 1.723 . S
C286 C282 1.397 . S
C286 C285 1.394 . S
C287 H259 0.982 . S
C287 H263 0.979 . S
C287 H264 0.977 . S
C287 C284 1.453 . S
C288 H260 0.979 . S
C288 H261 0.980 . S
C288 H262 0.983 . S
C288 C284 1.684 . S
H289 C307 0.948 . S
H290 C248 0.948 1_556 S
H291 C266 0.979 . S
H292 C266 0.980 . S
H293 C266 0.983 . S
H294 C265 0.982 1_554 S
H295 C265 0.979 . S
H296 C265 0.977 . S
H297 C267 0.948 . S
H298 C269 0.947 . S
H299 C270 0.948 . S
H300 C276 0.982 . S
H301 C276 0.979 . S
H302 C276 0.977 . S
H303 C277 0.979 . S
H304 C277 0.980 . S
H305 C277 0.983 . S
H306 C250 0.947 . S
C307 C250 1.392 . S
C307 C251 1.419 . S
C307 H289 0.948 . S
H308 C314 0.930 . S
H309 C317 0.930 . S
H310 C318 0.930 . S
H311 C319 0.930 . S
H312 C322 0.928 1_556 S
H313 C323 0.931 . S
C314 H308 0.930 . S
C314 C315 1.355 . S
C314 C316 1.415 . S
C315 C314 1.355 . S
C315 C317 1.419 . S
C316 C314 1.415 . S
C316 C321 1.425 . S
C316 C323 1.409 . S
C317 H309 0.930 . S
C317 C315 1.419 . S
C317 C318 1.362 . S
C318 H310 0.930 . S
C318 C317 1.362 . S
C318 C321 1.409 . S
C319 H311 0.930 . S
C319 C320 1.355 . S
C319 C321 1.415 . S
C320 C319 1.355 . S
C320 C322 1.419 . S
C321 C316 1.425 . S
C321 C318 1.409 . S
C321 C319 1.415 . S
C322 H312 0.928 1_554 S
C322 C320 1.419 . S
C322 C323 1.362 . S
C323 H313 0.931 . S
C323 C316 1.409 . S
C323 C322 1.362 . S
H324 C330 0.930 . S
H325 C333 0.930 . S
H326 C334 0.930 . S
H327 C335 0.930 . S
H328 C338 0.930 . S
H329 C339 0.930 . S
C330 H324 0.930 . S
C330 C331 1.355 . S
C330 C332 1.415 . S
C331 C330 1.355 . S
C331 C333 1.419 1_554 S
C332 C330 1.415 . S
C332 C337 1.425 1_554 S
C332 C339 1.409 . S
C333 H325 0.930 . S
C333 C331 1.419 1_556 S
C333 C334 1.362 . S
C334 H326 0.930 . S
C334 C333 1.362 . S
C334 C337 1.409 . S
C335 H327 0.930 . S
C335 C336 1.355 1_556 S
C335 C337 1.415 . S
C336 C335 1.355 1_554 S
C336 C338 1.419 . S
C337 C332 1.425 1_556 S
C337 C334 1.409 . S
C337 C335 1.415 . S
C338 H328 0.930 . S
C338 C336 1.419 . S
C338 C339 1.362 . S
C339 H329 0.930 . S
C339 C332 1.409 . S
C339 C338 1.362 . S
H340 C346 0.930 . S
H341 C349 0.930 . S
H342 C350 0.930 . S
H343 C351 0.930 . S
H344 C354 0.930 . S
H345 C355 0.930 . S
C346 H340 0.930 . S
C346 C347 1.355 . S
C346 C348 1.415 . S
C347 C346 1.355 . S
C347 C349 1.419 . S
C348 C346 1.415 . S
C348 C353 1.425 . S
C348 C355 1.409 . S
C349 H341 0.930 . S
C349 C347 1.419 . S
C349 C350 1.362 . S
C350 H342 0.930 . S
C350 C349 1.362 . S
C350 C353 1.409 . S
C351 H343 0.930 . S
C351 C352 1.355 . S
C351 C353 1.415 . S
C352 C351 1.355 . S
C352 C354 1.419 . S
C353 C348 1.425 . S
C353 C350 1.409 . S
C353 C351 1.415 . S
C354 H344 0.930 . S
C354 C352 1.419 . S
C354 C355 1.362 . S
C355 H345 0.930 . S
C355 C348 1.409 . S
C355 C354 1.362 . S
H356 C362 0.936 . S
H357 C365 0.930 . S
H358 C366 0.930 . S
H359 C367 0.930 . S
H360 C370 0.930 . S
H361 C371 0.930 . S
C362 H356 0.936 . S
C362 C363 1.350 1_556 S
C362 C364 1.413 1_556 S
C363 C362 1.350 1_554 S
C363 C365 1.419 . S
C364 C362 1.413 1_554 S
C364 C369 1.425 . S
C364 C371 1.409 1_554 S
C365 H357 0.930 . S
C365 C363 1.419 . S
C365 C366 1.362 . S
C366 H358 0.930 . S
C366 C365 1.362 . S
C366 C369 1.409 . S
C367 H359 0.930 . S
C367 C368 1.355 . S
C367 C369 1.415 . S
C368 C367 1.355 . S
C368 C370 1.419 1_554 S
C369 C364 1.425 . S
C369 C366 1.409 . S
C369 C367 1.415 . S
C370 H360 0.930 . S
C370 C368 1.419 1_556 S
C370 C371 1.362 . S
C371 H361 0.930 . S
C371 C364 1.409 1_556 S
C371 C370 1.362 . S
H372 C378 0.930 . S
H373 C381 0.930 . S
H374 C382 0.930 . S
H375 C383 0.930 . S
H376 C386 0.930 . S
H377 C387 0.930 . S
C378 H372 0.930 . S
C378 C379 1.355 . S
C378 C380 1.415 . S
C379 C378 1.355 . S
C379 C381 1.419 . S
C380 C378 1.415 . S
C380 C385 1.425 . S
C380 C387 1.409 . S
C381 H373 0.930 . S
C381 C379 1.419 . S
C381 C382 1.362 . S
C382 H374 0.930 . S
C382 C381 1.362 . S
C382 C385 1.409 . S
C383 H375 0.930 . S
C383 C384 1.355 . S
C383 C385 1.415 . S
C384 C383 1.355 . S
C384 C386 1.419 . S
C385 C380 1.425 . S
C385 C382 1.409 . S
C385 C383 1.415 . S
C386 H376 0.930 . S
C386 C384 1.419 . S
C386 C387 1.362 . S
C387 H377 0.930 . S
C387 C380 1.409 . S
C387 C386 1.362 . S
H388 C394 0.930 . S
H389 C397 0.930 . S
H390 C398 0.930 . S
H391 C399 0.930 . S
H392 C402 0.930 . S
H393 C403 0.930 . S
C394 H388 0.930 . S
C394 C395 1.355 . S
C394 C396 1.415 . S
C395 C394 1.355 . S
C395 C397 1.419 . S
C396 C394 1.415 . S
C396 C401 1.425 . S
C396 C403 1.409 . S
C397 H389 0.930 . S
C397 C395 1.419 . S
C397 C398 1.362 . S
C398 H390 0.930 . S
C398 C397 1.362 . S
C398 C401 1.409 . S
C399 H391 0.930 . S
C399 C400 1.355 . S
C399 C401 1.415 . S
C400 C399 1.355 . S
C400 C402 1.419 . S
C401 C396 1.425 . S
C401 C398 1.409 . S
C401 C399 1.415 . S
C402 H392 0.930 . S
C402 C400 1.419 . S
C402 C403 1.362 . S
C403 H393 0.930 . S
C403 C396 1.409 . S
C403 C402 1.362 . S
H404 C410 0.930 . S
H405 C413 0.930 . S
H406 C414 0.930 . S
H407 C415 0.930 . S
H408 C418 0.930 . S
H409 C419 0.930 . S
C410 H404 0.930 . S
C410 C411 1.355 . S
C410 C412 1.415 . S
C411 C410 1.355 . S
C411 C413 1.419 . S
C412 C410 1.415 . S
C412 C417 1.425 . S
C412 C419 1.409 . S
C413 H405 0.930 . S
C413 C411 1.419 . S
C413 C414 1.362 . S
C414 H406 0.930 . S
C414 C413 1.362 . S
C414 C417 1.409 . S
C415 H407 0.930 . S
C415 C416 1.355 . S
C415 C417 1.415 . S
C416 C415 1.355 . S
C416 C418 1.419 . S
C417 C412 1.425 . S
C417 C414 1.409 . S
C417 C415 1.415 . S
C418 H408 0.930 . S
C418 C416 1.419 . S
C418 C419 1.362 . S
C419 H409 0.930 . S
C419 C412 1.409 . S
C419 C418 1.362 . S
H420 C426 0.930 . S
H421 C429 0.930 . S
H422 C430 0.930 . S
H423 C431 0.930 . S
H424 C434 0.930 . S
H425 C435 0.930 . S
C426 H420 0.930 . S
C426 C427 1.355 . S
C426 C428 1.415 . S
C427 C426 1.355 . S
C427 C429 1.419 . S
C428 C426 1.415 . S
C428 C433 1.425 . S
C428 C435 1.409 . S
C429 H421 0.930 . S
C429 C427 1.419 . S
C429 C430 1.362 . S
C430 H422 0.930 . S
C430 C429 1.362 . S
C430 C433 1.409 . S
C431 H423 0.930 . S
C431 C432 1.355 . S
C431 C433 1.415 . S
C432 C431 1.355 . S
C432 C434 1.419 . S
C433 C428 1.425 . S
C433 C430 1.409 . S
C433 C431 1.415 . S
C434 H424 0.930 . S
C434 C432 1.419 . S
C434 C435 1.362 . S
C435 H425 0.930 . S
C435 C428 1.409 . S
C435 C434 1.362 . S
H436 C442 0.930 . S
H437 C445 0.930 . S
H438 C446 0.930 . S
H439 C447 0.930 . S
H440 C450 0.930 . S
H441 C451 0.930 . S
C442 H436 0.930 . S
C442 C443 1.355 1_655 S
C442 C444 1.415 . S
C443 C442 1.355 1_455 S
C443 C445 1.419 1_545 S
C444 C442 1.415 . S
C444 C449 1.425 1_645 S
C444 C451 1.409 . S
C445 H437 0.930 . S
C445 C443 1.419 1_565 S
C445 C446 1.362 . S
C446 H438 0.930 . S
C446 C445 1.362 . S
C446 C449 1.409 . S
C447 H439 0.930 . S
C447 C448 1.355 1_465 S
C447 C449 1.415 . S
C448 C447 1.355 1_645 S
C448 C450 1.419 . S
C449 C444 1.425 1_465 S
C449 C446 1.409 . S
C449 C447 1.415 . S
C450 H440 0.930 . S
C450 C448 1.419 . S
C450 C451 1.362 . S
C451 H441 0.930 . S
C451 C444 1.409 . S
C451 C450 1.362 . S
H452 C458 0.931 . S
H453 C461 0.930 . S
H454 C462 0.930 . S
H455 C463 0.930 . S
H456 C466 0.930 1_655 S
H457 C467 0.930 . S
C458 H452 0.931 . S
C458 C459 1.355 1_565 S
C458 C460 1.415 . S
C459 C458 1.355 1_545 S
C459 C461 1.419 . S
C460 C458 1.415 . S
C460 C465 1.425 1_565 S
C460 C467 1.409 1_455 S
C461 H453 0.930 . S
C461 C459 1.419 . S
C461 C462 1.362 . S
C462 H454 0.930 . S
C462 C461 1.362 . S
C462 C465 1.409 . S
C463 H455 0.930 . S
C463 C464 1.355 . S
C463 C465 1.415 . S
C464 C463 1.355 . S
C464 C466 1.419 1_545 S
C465 C460 1.425 1_545 S
C465 C462 1.409 . S
C465 C463 1.415 . S
C466 H456 0.930 1_455 S
C466 C464 1.419 1_565 S
C466 C467 1.362 1_455 S
C467 H457 0.930 . S
C467 C460 1.409 1_655 S
C467 C466 1.362 1_655 S
H468 C474 0.930 . S
H469 C477 0.930 . S
H470 C478 0.930 . S
H471 C479 0.930 . S
H472 C482 0.930 . S
H473 C483 0.930 . S
C474 H468 0.930 . S
C474 C475 1.355 . S
C474 C476 1.415 . S
C475 C474 1.355 . S
C475 C477 1.419 . S
C476 C474 1.415 . S
C476 C481 1.425 . S
C476 C483 1.409 . S
C477 H469 0.930 . S
C477 C475 1.419 . S
C477 C478 1.362 . S
C478 H470 0.930 . S
C478 C477 1.362 . S
C478 C481 1.409 . S
C479 H471 0.930 . S
C479 C480 1.355 . S
C479 C481 1.415 . S
C480 C479 1.355 . S
C480 C482 1.419 . S
C481 C476 1.425 . S
C481 C478 1.409 . S
C481 C479 1.415 . S
C482 H472 0.930 . S
C482 C480 1.419 . S
C482 C483 1.362 . S
C483 H473 0.930 . S
C483 C476 1.409 . S
C483 C482 1.362 . S
H484 C490 0.930 . S
H485 C493 0.930 . S
H486 C494 0.930 . S
H487 C495 0.930 . S
H488 C498 0.930 . S
H489 C499 0.930 . S
C490 H484 0.930 . S
C490 C491 1.355 . S
C490 C492 1.415 . S
C491 C490 1.355 . S
C491 C493 1.419 . S
C492 C490 1.415 . S
C492 C497 1.425 . S
C492 C499 1.409 . S
C493 H485 0.930 . S
C493 C491 1.419 . S
C493 C494 1.362 . S
C494 H486 0.930 . S
C494 C493 1.362 . S
C494 C497 1.409 . S
C495 H487 0.930 . S
C495 C496 1.355 . S
C495 C497 1.415 . S
C496 C495 1.355 . S
C496 C498 1.419 . S
C497 C492 1.425 . S
C497 C494 1.409 . S
C497 C495 1.415 . S
C498 H488 0.930 . S
C498 C496 1.419 . S
C498 C499 1.362 . S
C499 H489 0.930 . S
C499 C492 1.409 . S
C499 C498 1.362 . S
C320 C279 1.506 . S
C315 C29 1.542 . S
C331 C8 1.528 . S
C336 C219 1.528 . S
C347 C0 1.510 . S
C352 C249 1.382 . S
C363 C17 1.542 . S
C368 C189 1.377 . S
C379 C63 1.544 . S
C384 C159 1.508 . S
C395 C42 1.527 . S
C400 C99 1.520 . S
C416 C129 1.392 . S
C411 C34 1.510 . S
C432 C69 1.336 . S
C427 C51 1.536 . S
C443 C4 1.478 . S
C448 C88 1.440 . S
C459 C13 1.488 . S
C464 C148 1.433 . S
C480 C208 1.465 . S
C475 C38 1.475 . S
C491 C47 1.476 . S
C496 C268 1.453 . S
