# Generated by pormake.
# Topology pyr, (3,6)-cn, num edge types: 1
# Building blocks:
#     Node 0, Type 0, BuildingBlock: PAMTOO_clean_linker_0, # of connection points: 3
#     Node 1, Type 0, BuildingBlock: PAMTOO_clean_linker_0, # of connection points: 3
#     Node 2, Type 0, BuildingBlock: PAMTOO_clean_linker_0, # of connection points: 3
#     Node 3, Type 0, BuildingBlock: PAMTOO_clean_linker_0, # of connection points: 3
#     Node 4, Type 0, BuildingBlock: PAMTOO_clean_linker_0, # of connection points: 3
#     Node 5, Type 0, BuildingBlock: PAMTOO_clean_linker_0, # of connection points: 3
#     Node 6, Type 0, BuildingBlock: PAMTOO_clean_linker_0, # of connection points: 3
#     Node 7, Type 0, BuildingBlock: PAMTOO_clean_linker_0, # of connection points: 3
#     Node 8, Type 1, BuildingBlock: PAMTOO_clean_sbu_0, # of connection points: 6
#     Node 9, Type 1, BuildingBlock: PAMTOO_clean_sbu_0, # of connection points: 6
#     Node 10, Type 1, BuildingBlock: PAMTOO_clean_sbu_0, # of connection points: 6
#     Node 11, Type 1, BuildingBlock: PAMTOO_clean_sbu_0, # of connection points: 6
#     Edge 12, Type (0, 1), BuildingBlock: TEMPAE_clean_linker_10, # of connection points: 2
#     Edge 13, Type (0, 1), BuildingBlock: TEMPAE_clean_linker_10, # of connection points: 2
#     Edge 14, Type (0, 1), BuildingBlock: TEMPAE_clean_linker_10, # of connection points: 2
#     Edge 15, Type (0, 1), BuildingBlock: TEMPAE_clean_linker_10, # of connection points: 2
#     Edge 16, Type (0, 1), BuildingBlock: TEMPAE_clean_linker_10, # of connection points: 2
#     Edge 17, Type (0, 1), BuildingBlock: TEMPAE_clean_linker_10, # of connection points: 2
#     Edge 18, Type (0, 1), BuildingBlock: TEMPAE_clean_linker_10, # of connection points: 2
#     Edge 19, Type (0, 1), BuildingBlock: TEMPAE_clean_linker_10, # of connection points: 2
#     Edge 20, Type (0, 1), BuildingBlock: TEMPAE_clean_linker_10, # of connection points: 2
#     Edge 21, Type (0, 1), BuildingBlock: TEMPAE_clean_linker_10, # of connection points: 2
#     Edge 22, Type (0, 1), BuildingBlock: TEMPAE_clean_linker_10, # of connection points: 2
#     Edge 23, Type (0, 1), BuildingBlock: TEMPAE_clean_linker_10, # of connection points: 2
#     Edge 24, Type (0, 1), BuildingBlock: TEMPAE_clean_linker_10, # of connection points: 2
#     Edge 25, Type (0, 1), BuildingBlock: TEMPAE_clean_linker_10, # of connection points: 2
#     Edge 26, Type (0, 1), BuildingBlock: TEMPAE_clean_linker_10, # of connection points: 2
#     Edge 27, Type (0, 1), BuildingBlock: TEMPAE_clean_linker_10, # of connection points: 2
#     Edge 28, Type (0, 1), BuildingBlock: TEMPAE_clean_linker_10, # of connection points: 2
#     Edge 29, Type (0, 1), BuildingBlock: TEMPAE_clean_linker_10, # of connection points: 2
#     Edge 30, Type (0, 1), BuildingBlock: TEMPAE_clean_linker_10, # of connection points: 2
#     Edge 31, Type (0, 1), BuildingBlock: TEMPAE_clean_linker_10, # of connection points: 2
#     Edge 32, Type (0, 1), BuildingBlock: TEMPAE_clean_linker_10, # of connection points: 2
#     Edge 33, Type (0, 1), BuildingBlock: TEMPAE_clean_linker_10, # of connection points: 2
#     Edge 34, Type (0, 1), BuildingBlock: TEMPAE_clean_linker_10, # of connection points: 2
#     Edge 35, Type (0, 1), BuildingBlock: TEMPAE_clean_linker_10, # of connection points: 2
# Relax obj value: 0.161
# Max RMSD: 0.264
# Mean RMSD: 0.143
data_MOF--net-pyr--node1-PAMTOO_clean_sbu_0--node2-PAMTOO_clean_linker_0--edge1-TEMPAE_clean_linker_10
_symmetry_space_group_name_H-M    P1
_symmetry_Int_Tables_number       1
_symmetry_cell_setting            triclinic
loop_
_symmetry_equiv_pos_as_xyz
'x, y, z'
_cell_length_a     36.417417
_cell_length_b     40.223465
_cell_length_c     39.582151
_cell_angle_alpha  90.696054
_cell_angle_beta   90.253761
_cell_angle_gamma 108.20424
loop_
_atom_site_label
_atom_site_type_symbol
_atom_site_fract_x
_atom_site_fract_y
_atom_site_fract_z
_atom_type_partial_charge
H0 H 0.29071 0.27412 0.25762 0.0
H1 H 0.37704 0.2249 0.23442 0.0
H2 H 0.36949 0.31137 0.17567 0.0
H3 H 0.40196 0.26776 0.13204 0.0
C4 C 0.39688 0.2477 0.15205 0.0
O5 O 0.40519 0.26483 0.18297 0.0
H6 H 0.36597 0.23125 0.15023 0.0
C7 C 0.31508 0.2727 0.24273 0.0
C8 C 0.32776 0.29586 0.21586 0.0
C9 C 0.33254 0.24692 0.24978 0.0
C10 C 0.36369 0.245 0.22991 0.0
C11 C 0.37695 0.26832 0.20338 0.0
C12 C 0.35935 0.29391 0.19666 0.0
H13 H 0.21024 0.8372 0.73095 0.0
H14 H 0.15467 0.76946 0.64818 0.0
H15 H 0.24193 0.74519 0.70714 0.0
H16 H 0.21208 0.75084 0.61155 0.0
C17 C 0.21109 0.72639 0.62499 0.0
O18 O 0.1936 0.72547 0.65601 0.0
H19 H 0.19303 0.70425 0.60922 0.0
C20 C 0.20607 0.8136 0.71587 0.0
C21 C 0.22848 0.7917 0.72291 0.0
C22 C 0.17954 0.80616 0.68886 0.0
C23 C 0.17535 0.77607 0.66889 0.0
C24 C 0.1981 0.75441 0.67531 0.0
C25 C 0.22479 0.7623 0.70214 0.0
H26 H 0.71611 0.33885 0.93239 0.0
H27 H 0.63837 0.31714 0.84673 0.0
H28 H 0.72869 0.41592 0.85517 0.0
H29 H 0.6531 0.41958 0.8342 0.0
C30 C 0.64404 0.39679 0.8164 0.0
O31 O 0.67047 0.37836 0.81777 0.0
H32 H 0.61545 0.37951 0.82496 0.0
C33 C 0.70606 0.34711 0.90909 0.0
C34 C 0.72593 0.38032 0.89636 0.0
C35 C 0.67449 0.32385 0.89163 0.0
C36 C 0.66269 0.3345 0.86059 0.0
C37 C 0.68199 0.36792 0.84756 0.0
C38 C 0.71382 0.39041 0.86536 0.0
H39 H 0.8884 0.7377 0.44299 0.0
H40 H 0.87883 0.65906 0.36597 0.0
H41 H 0.97305 0.75578 0.36375 0.0
H42 H 0.94854 0.7234 0.29258 0.0
C43 C 0.93301 0.69635 0.30078 0.0
O44 O 0.94267 0.69289 0.33433 0.0
H45 H 0.90148 0.6927 0.29887 0.0
C46 C 0.89956 0.72899 0.42033 0.0
C47 C 0.93307 0.75119 0.40528 0.0
C48 C 0.87952 0.69605 0.40627 0.0
C49 C 0.89362 0.68473 0.37663 0.0
C50 C 0.92754 0.70591 0.36119 0.0
C51 C 0.94686 0.73945 0.37538 0.0
H52 H 0.67101 0.81324 0.84051 0.0
H53 H 0.66908 0.77637 0.94253 0.0
H54 H 0.73792 0.74645 0.86793 0.0
H55 H 0.6868 0.69152 0.91443 0.0
C56 C 0.70404 0.7059 0.93643 0.0
O57 O 0.7171 0.74146 0.93117 0.0
H58 H 0.68487 0.70044 0.95882 0.0
C59 C 0.67885 0.79689 0.85899 0.0
C60 C 0.70468 0.7788 0.8499 0.0
C61 C 0.66628 0.7969 0.89252 0.0
C62 C 0.67739 0.77608 0.9163 0.0
C63 C 0.70263 0.75752 0.9072 0.0
C64 C 0.71664 0.75925 0.87421 0.0
H65 H 0.90947 0.21487 0.35526 0.0
H66 H 0.85285 0.29218 0.37654 0.0
H67 H 0.93243 0.27429 0.4485 0.0
H68 H 0.87902 0.31281 0.48608 0.0
C69 C 0.86234 0.30119 0.46294 0.0
O70 O 0.88639 0.31061 0.43538 0.0
H71 H 0.85258 0.27227 0.46644 0.0
C72 C 0.90479 0.23483 0.37177 0.0
C73 C 0.92395 0.24191 0.40318 0.0
C74 C 0.879 0.2527 0.36177 0.0
C75 C 0.87335 0.27872 0.38323 0.0
C76 C 0.89318 0.28671 0.41411 0.0
C77 C 0.9187 0.26871 0.42383 0.0
H78 H 0.37454 0.72881 0.17199 0.0
H79 H 0.36756 0.64661 0.2426 0.0
H80 H 0.46282 0.74239 0.24842 0.0
H81 H 0.48122 0.67443 0.26348 0.0
C82 C 0.45378 0.66002 0.27621 0.0
O83 O 0.43009 0.68113 0.27712 0.0
H84 H 0.43952 0.63594 0.26106 0.0
C85 C 0.38634 0.71893 0.19347 0.0
C86 C 0.421 0.73984 0.20855 0.0
C87 C 0.36704 0.6852 0.20513 0.0
C88 C 0.38259 0.67229 0.23284 0.0
C89 C 0.41705 0.69285 0.2487 0.0
C90 C 0.43647 0.72644 0.23612 0.0
H91 H 0.11325 0.32299 0.80487 0.0
H92 H 0.20227 0.42271 0.79219 0.0
H93 H 0.19362 0.33862 0.72246 0.0
H94 H 0.2707 0.37647 0.74464 0.0
C95 C 0.26943 0.40375 0.74423 0.0
O96 O 0.23182 0.40337 0.73809 0.0
H97 H 0.27862 0.41594 0.76954 0.0
C98 C 0.13748 0.33994 0.79122 0.0
C99 C 0.1511 0.32655 0.76213 0.0
C100 C 0.15612 0.37476 0.80321 0.0
C101 C 0.18793 0.39579 0.78463 0.0
C102 C 0.20139 0.38275 0.75575 0.0
C103 C 0.18297 0.34837 0.74479 0.0
Dy104 Dy 0.09049 0.05195 0.56801 0.0
Dy105 Dy 1.00368 0.02805 0.5998 0.0
C106 C 0.06805 0.09773 0.62686 0.0
O107 O 0.09175 0.0252 0.61692 0.0
O108 O 0.03044 0.98771 0.6147 0.0
O109 O 0.14361 0.09296 0.55805 0.0
O110 O 0.13999 0.0389 0.54907 0.0
O111 O 0.99739 0.98997 0.55621 0.0
O112 O 0.06097 1.00115 0.54041 0.0
O113 O 0.00885 0.07372 0.56675 0.0
O114 O 0.05451 0.06792 0.52958 0.0
O115 O 0.94144 1.01375 0.59489 0.0
O116 O 0.96889 1.02092 0.64449 0.0
C117 C 0.06659 0.99492 0.62415 0.0
O118 O 0.08642 0.09838 0.59829 0.0
O119 O 0.04054 0.0693 0.63559 0.0
C120 C 0.18182 0.08195 0.51467 0.0
C121 C 0.22067 0.10877 0.45494 0.0
C122 C 0.23884 0.11854 0.48651 0.0
C123 C 0.21957 0.10515 0.51613 0.0
C124 C 0.16385 0.07129 0.48318 0.0
C125 C 0.18331 0.08447 0.45343 0.0
C126 C 0.16099 0.07154 0.54635 0.0
C127 C 0.02417 0.98227 0.53819 0.0
C128 C 0.02636 0.08043 0.53753 0.0
C129 C 0.90616 0.98121 0.64085 0.0
C130 C 0.84988 0.9242 0.67007 0.0
C131 C 0.86408 0.9209 0.63757 0.0
C132 C 0.89215 0.94924 0.62305 0.0
C133 C 0.89186 0.98452 0.67302 0.0
C134 C 0.86432 0.95636 0.68757 0.0
C135 C 0.93641 1.01151 0.62754 0.0
H136 H 0.2677 0.13708 0.48827 0.0
H137 H 0.23375 0.11369 0.54027 0.0
H138 H 0.13452 0.05362 0.48167 0.0
H139 H 0.1686 0.07684 0.42938 0.0
H140 H 0.85353 0.89652 0.62341 0.0
H141 H 0.90302 0.94607 0.59819 0.0
H142 H 0.90255 1.00889 0.68724 0.0
H143 H 0.85501 0.95967 0.71299 0.0
Dy144 Dy 0.51084 1.0149 1.02176 0.0
Dy145 Dy 0.59165 0.03924 0.06547 0.0
C146 C 0.52502 0.9673 0.08111 0.0
O147 O 0.49883 0.04002 0.06921 0.0
O148 O 0.55999 0.07624 0.08062 0.0
O149 O 0.44998 0.98601 1.01711 0.0
O150 O 0.47981 1.01897 0.97641 0.0
O151 O 0.60197 0.07542 1.02108 0.0
O152 O 0.53911 0.07143 1.00961 0.0
O153 O 0.59343 0.99323 0.03432 0.0
O154 O 0.55277 0.9972 0.99136 0.0
O155 O 0.65425 0.0568 0.06789 0.0
O156 O 0.62043 0.04644 0.11378 0.0
C157 C 0.52239 0.06817 0.08378 0.0
O158 O 0.51166 0.96722 0.0502 0.0
O159 O 0.55006 0.99563 0.09418 0.0
C160 C 0.42938 0.96875 0.96114 0.0
C161 C 0.39684 0.92092 0.9085 0.0
C162 C 0.42905 0.91825 0.92665 0.0
C163 C 0.44539 0.94219 0.95276 0.0
C164 C 0.39671 0.97082 0.94374 0.0
C165 C 0.38053 0.94712 0.91766 0.0
C166 C 0.44784 0.99603 0.98615 0.0
C167 C 0.57631 0.08767 1.00661 0.0
C168 C 0.57912 0.98469 1.0038 0.0
C169 C 0.68078 0.09005 0.11689 0.0
C170 C 0.72758 0.14621 0.15627 0.0
C171 C 0.6915 0.14685 0.14394 0.0
C172 C 0.66825 0.11896 0.12433 0.0
C173 C 0.71743 0.09012 0.12766 0.0
C174 C 0.74067 0.11794 0.14716 0.0
C175 C 0.65485 0.05829 0.10083 0.0
H176 H 0.44219 0.89835 0.92003 0.0
H177 H 0.47088 0.94048 0.96591 0.0
H178 H 0.38412 0.99123 0.94989 0.0
H179 H 0.35531 0.9494 0.90447 0.0
H180 H 0.68079 0.1684 0.15029 0.0
H181 H 0.63997 0.11932 0.11607 0.0
H182 H 0.72742 0.06793 0.12222 0.0
H183 H 0.76799 0.11631 0.15664 0.0
Dy184 Dy 0.55248 0.50275 0.52971 0.0
Dy185 Dy 0.55907 0.57515 0.57228 0.0
C186 C 0.5899 0.51439 0.60366 0.0
O187 O 0.50376 0.48951 0.56683 0.0
O188 O 0.49636 0.54356 0.57191 0.0
O189 O 0.53986 0.44659 0.52837 0.0
O190 O 0.55611 0.47617 0.48264 0.0
O191 O 0.54244 0.58513 0.51966 0.0
O192 O 0.51687 0.52882 0.49944 0.0
O193 O 0.61958 0.58432 0.55378 0.0
O194 O 0.6079 0.54118 0.51263 0.0
O195 O 0.57451 0.63144 0.57739 0.0
O196 O 0.54759 0.59851 0.6189 0.0
C197 C 0.48356 0.50969 0.57687 0.0
O198 O 0.59263 0.5028 0.57288 0.0
O199 O 0.5734 0.53875 0.60917 0.0
C200 C 0.58099 0.42979 0.49118 0.0
C201 C 0.63979 0.3992 0.48011 0.0
C202 C 0.64577 0.42776 0.5026 0.0
C203 C 0.61668 0.44296 0.508 0.0
C204 C 0.57485 0.4015 0.46853 0.0
C205 C 0.60411 0.38633 0.46295 0.0
C206 C 0.55069 0.44611 0.49708 0.0
C207 C 0.5227 0.56271 0.49663 0.0
C208 C 0.63051 0.56986 0.52722 0.0
C209 C 0.52749 0.64747 0.60903 0.0
C210 C 0.46352 0.67244 0.61574 0.0
C211 C 0.47456 0.66344 0.58375 0.0
C212 C 0.50601 0.65084 0.58045 0.0
C213 C 0.51756 0.65768 0.64082 0.0
C214 C 0.48584 0.67006 0.64418 0.0
C215 C 0.55728 0.62983 0.60643 0.0
H216 H 0.67314 0.4386 0.51577 0.0
H217 H 0.62207 0.46508 0.5253 0.0
H218 H 0.54748 0.39114 0.45525 0.0
H219 H 0.59865 0.36423 0.44563 0.0
H220 H 0.45845 0.66554 0.56124 0.0
H221 H 0.5128 0.64283 0.55564 0.0
H222 H 0.5335 0.65488 0.66321 0.0
H223 H 0.47793 0.67642 0.66921 0.0
Dy224 Dy 0.04875 0.56296 0.03402 0.0
Dy225 Dy 0.03627 0.49365 0.07982 0.0
C226 C 0.01248 0.55879 0.10915 0.0
O227 O 0.10882 0.56835 0.05238 0.0
O228 O 0.09131 0.53248 0.09803 0.0
O229 O 0.06429 0.61912 1.02863 0.0
O230 O 0.04306 0.585 0.98553 0.0
O231 O 0.07409 0.48655 0.03699 0.0
O232 O 0.05977 0.52285 0.99861 0.0
O233 O 0.98636 0.47957 0.04369 0.0
O234 O 0.98498 0.53479 0.03301 0.0
O235 O 0.02384 0.43777 0.08457 0.0
O236 O 0.03553 0.47103 0.12914 0.0
C237 C 0.11705 0.55715 0.08169 0.0
O238 O 0.03495 0.57831 0.08623 0.0
O239 O 1.00259 0.52436 0.10704 0.0
C240 C 0.01839 0.63135 0.99313 0.0
C241 C 0.95189 0.65039 0.97904 0.0
C242 C 0.95366 0.63097 1.00789 0.0
C243 C 0.98657 0.62154 1.01487 0.0
C244 C 0.01737 0.6517 0.96487 0.0
C245 C 0.98436 0.66139 0.95796 0.0
C246 C 0.04997 0.61644 0.9981 0.0
C247 C 0.07308 0.4968 1.00559 0.0
C248 C 0.96892 0.50071 0.03112 0.0
C249 C 0.06281 0.42575 0.12703 0.0
C250 C 0.1241 0.4025 0.14905 0.0
C251 C 0.12845 0.42406 0.12071 0.0
C252 C 0.09816 0.43571 0.10991 0.0
C253 C 0.05808 0.40407 0.15513 0.0
C254 C 0.08851 0.39247 0.16608 0.0
C255 C 0.03218 0.4401 0.11673 0.0
H256 H 0.92929 0.62254 1.02481 0.0
H257 H 0.98669 0.60559 0.0367 0.0
H258 H 0.04149 0.65908 0.94762 0.0
H259 H 0.98363 0.67624 0.93546 0.0
H260 H 0.15522 0.43183 0.10673 0.0
H261 H 0.10246 0.45278 0.08833 0.0
H262 H 0.03113 0.39656 0.16886 0.0
H263 H 0.08443 0.3762 0.18822 0.0
C264 C 0.34249 0.21178 0.29905 0.0
C265 C 0.31729 0.22161 0.2773 0.0
C266 C 0.3283 0.19009 0.3267 0.0
C267 C 0.28808 0.17849 0.33296 0.0
C268 C 0.26241 0.18717 0.31035 0.0
C269 C 0.2773 0.20826 0.2826 0.0
C270 C 0.35646 0.18082 0.34998 0.0
C271 C 0.21933 0.17554 0.31629 0.0
C272 C 0.24221 0.10645 0.39517 0.0
C273 C 0.23955 0.12607 0.42401 0.0
C274 C 0.25919 0.12308 0.36553 0.0
C275 C 0.27297 0.16011 0.36471 0.0
C276 C 0.27051 0.17996 0.3939 0.0
C277 C 0.25406 0.16266 0.42326 0.0
C278 C 0.26197 0.10113 0.33503 0.0
C279 C 0.28423 0.2195 0.39386 0.0
H280 H 0.37342 0.22199 0.2952 0.0
H281 H 0.25752 0.21483 0.26534 0.0
H282 H 0.35775 0.19462 0.37461 0.0
H283 H 0.34667 0.15232 0.35498 0.0
H284 H 0.38608 0.18821 0.33938 0.0
H285 H 0.20317 0.18292 0.29532 0.0
H286 H 0.20822 0.14676 0.31933 0.0
H287 H 0.21318 0.18766 0.34006 0.0
H288 H 0.23117 0.07812 0.39589 0.0
H289 H 0.25153 0.17783 0.44546 0.0
H290 H 0.29221 0.10877 0.32594 0.0
H291 H 0.24389 0.10584 0.31414 0.0
H292 H 0.25232 0.0727 0.34052 0.0
H293 H 0.31509 0.22934 0.38659 0.0
H294 H 0.28095 0.23098 0.4189 0.0
H295 H 0.26754 0.22904 0.37485 0.0
C296 C 0.24376 0.81001 0.78291 0.0
C297 C 0.25596 0.80056 0.75177 0.0
C298 C 0.27032 0.82451 0.80888 0.0
C299 C 0.31011 0.82962 0.80357 0.0
C300 C 0.32225 0.81747 0.77317 0.0
C301 C 0.29491 0.80303 0.74749 0.0
C302 C 0.25603 0.83681 0.841 0.0
C303 C 0.36432 0.822 0.76675 0.0
C304 C 0.37085 0.91094 0.84968 0.0
C305 C 0.38016 0.8971 0.87965 0.0
C306 C 0.35028 0.88902 0.82368 0.0
C307 C 0.33875 0.85228 0.82771 0.0
C308 C 0.35046 0.83806 0.85689 0.0
C309 C 0.3711 0.86073 0.88263 0.0
C310 C 0.33871 0.90531 0.79284 0.0
C311 C 0.33912 0.79905 0.86187 0.0
H312 H 0.21348 0.80746 0.78642 0.0
H313 H 0.30437 0.79562 0.72341 0.0
H314 H 0.26806 0.82747 0.86345 0.0
H315 H 0.26604 0.86585 0.84214 0.0
H316 H 0.22398 0.82757 0.84258 0.0
H317 H 0.36806 0.80517 0.74541 0.0
H318 H 0.37947 0.84968 0.76044 0.0
H319 H 0.37849 0.81579 0.78963 0.0
H320 H 0.37864 0.93909 0.84704 0.0
H321 H 0.37841 0.84998 0.90576 0.0
H322 H 0.30694 0.90017 0.79267 0.0
H323 H 0.34613 0.89343 0.76946 0.0
H324 H 0.353 0.93407 0.7922 0.0
H325 H 0.30804 0.78897 0.86841 0.0
H326 H 0.35611 0.79219 0.88252 0.0
H327 H 0.34318 0.7855 0.83827 0.0
C328 C 0.60531 0.39889 0.76327 0.0
C329 C 0.64054 0.41046 0.78113 0.0
C330 C 0.59953 0.41493 0.73308 0.0
C331 C 0.6297 0.44338 0.72011 0.0
C332 C 0.66591 0.45418 0.73729 0.0
C333 C 0.67084 0.43769 0.76755 0.0
C334 C 0.56047 0.40235 0.71584 0.0
C335 C 0.699 0.48414 0.72446 0.0
C336 C 0.61862 0.47022 0.62872 0.0
C337 C 0.60319 0.49795 0.63324 0.0
C338 C 0.62827 0.45281 0.65659 0.0
C339 C 0.62233 0.46314 0.69001 0.0
C340 C 0.60763 0.49162 0.69469 0.0
C341 C 0.59833 0.50859 0.66645 0.0
C342 C 0.64398 0.42277 0.65022 0.0
C343 C 0.60073 0.50369 0.72968 0.0
H344 H 0.58166 0.37799 0.7736 0.0
H345 H 0.69802 0.44691 0.78132 0.0
H346 H 0.54661 0.4233 0.71695 0.0
H347 H 0.56375 0.39649 0.68877 0.0
H348 H 0.54088 0.37855 0.72772 0.0
H349 H 0.72622 0.48737 0.7388 0.0
H350 H 0.70406 0.47999 0.69733 0.0
H351 H 0.69162 0.50883 0.72661 0.0
H352 H 0.62254 0.46159 0.60333 0.0
H353 H 0.58646 0.52987 0.6705 0.0
H354 H 0.62324 0.39816 0.65954 0.0
H355 H 0.67148 0.42709 0.66438 0.0
H356 H 0.64923 0.41927 0.62297 0.0
H357 H 0.57869 0.48228 0.74264 0.0
H358 H 0.59065 0.52705 0.72921 0.0
H359 H 0.6277 0.5101 0.74499 0.0
C360 C 0.91683 0.65242 0.25163 0.0
C361 C 0.94353 0.67061 0.27652 0.0
C362 C 0.92712 0.63256 0.22572 0.0
C363 C 0.96532 0.63062 0.22411 0.0
C364 C 0.99223 0.64827 0.24964 0.0
C365 C 0.98117 0.66817 0.27523 0.0
C366 C 0.89731 0.61469 0.19923 0.0
C367 C 0.03319 0.64701 0.24934 0.0
C368 C 0.98384 0.55836 0.16786 0.0
C369 C 0.99927 0.57655 0.1384 0.0
C370 C 0.97319 0.57552 0.19593 0.0
C371 C 0.97747 0.61184 0.19474 0.0
C372 C 0.99263 0.63019 0.1649 0.0
C373 C 1.00346 0.61253 0.13744 0.0
C374 C 0.95756 0.55474 0.22707 0.0
C375 C 0.99732 0.66866 0.16185 0.0
H376 H 0.88789 0.65455 0.2518 0.0
H377 H 1.0023 0.68261 0.29379 0.0
H378 H 0.90658 0.6264 0.17421 0.0
H379 H 0.89475 0.58652 0.1972 0.0
H380 H 0.86836 0.61704 0.20488 0.0
H381 H 0.04981 0.65968 0.27217 0.0
H382 H 0.03326 0.61947 0.24776 0.0
H383 H 0.04824 0.6605 0.22667 0.0
H384 H 0.98063 0.53071 0.16926 0.0
H385 H 0.01517 0.62708 0.11498 0.0
H386 H 0.92796 0.55561 0.23224 0.0
H387 H 0.97581 0.56657 0.24932 0.0
H388 H 0.95656 0.52694 0.22448 0.0
H389 H 0.96895 0.67307 0.16515 0.0
H390 H 0.0093 0.67925 0.13704 0.0
H391 H 0.01684 0.6837 0.18214 0.0
C392 C 0.43672 0.22197 0.11441 0.0
C393 C 0.42134 0.22413 0.14643 0.0
C394 C 0.45559 0.19722 0.10732 0.0
C395 C 0.45893 0.17395 0.13287 0.0
C396 C 0.44434 0.1766 0.16551 0.0
C397 C 0.42532 0.20145 0.17179 0.0
C398 C 0.47053 0.19501 0.07209 0.0
C399 C 0.44752 0.15236 0.19342 0.0
C400 C 0.46589 0.08736 0.10007 0.0
C401 C 0.50595 0.09329 0.10066 0.0
C402 C 0.45012 0.11296 0.11169 0.0
C403 C 0.47498 0.14521 0.12444 0.0
C404 C 0.51523 0.15068 0.12682 0.0
C405 C 0.53028 0.12466 0.1148 0.0
C406 C 0.407 0.10614 0.10876 0.0
C407 C 0.54254 0.18457 0.14068 0.0
H408 H 0.43305 0.23907 0.0946 0.0
H409 H 0.41281 0.20258 0.19634 0.0
H410 H 0.50142 0.19641 0.07311 0.0
H411 H 0.45431 0.16948 0.0602 0.0
H412 H 0.46759 0.21628 0.0557 0.0
H413 H 0.43819 0.1601 0.21817 0.0
H414 H 0.42923 0.12528 0.18714 0.0
H415 H 0.47774 0.15197 0.19588 0.0
H416 H 0.4468 0.06317 0.08934 0.0
H417 H 0.56126 0.12942 0.11555 0.0
H418 H 0.40098 0.12438 0.09032 0.0
H419 H 0.3951 0.11103 0.1334 0.0
H420 H 0.39145 0.07889 0.10034 0.0
H421 H 0.54357 0.20611 0.1231 0.0
H422 H 0.57236 0.18329 0.14413 0.0
H423 H 0.53209 0.19134 0.16531 0.0
C424 C 0.15444 0.84067 0.6475 0.0
C425 C 0.15774 0.83081 0.68095 0.0
C426 C 0.13723 0.86646 0.63998 0.0
C427 C 0.12307 0.88282 0.66657 0.0
C428 C 0.12515 0.87218 0.70027 0.0
C429 C 0.14239 0.84624 0.70704 0.0
C430 C 0.13535 0.87701 0.60368 0.0
C431 C 0.11017 0.88887 0.72925 0.0
C432 C 0.11896 0.97396 0.6482 0.0
C433 C 0.08001 0.96714 0.63913 0.0
C434 C 0.13308 0.94686 0.65824 0.0
C435 C 0.10766 0.91211 0.65913 0.0
C436 C 0.06801 0.90525 0.65132 0.0
C437 C 0.05464 0.93286 0.64148 0.0
C438 C 0.17552 0.95525 0.66667 0.0
C439 C 0.04002 0.86854 0.65199 0.0
H440 H 0.16659 0.82914 0.62726 0.0
H441 H 0.14432 0.83833 0.7329 0.0
H442 H 0.10523 0.87512 0.59667 0.0
H443 H 0.15328 0.9047 0.6006 0.0
H444 H 0.14576 0.86047 0.58583 0.0
H445 H 0.11214 0.87636 0.75377 0.0
H446 H 0.12702 0.91705 0.73129 0.0
H447 H 0.07958 0.88717 0.72455 0.0
H448 H 0.13876 1.00035 0.64655 0.0
H449 H 0.02448 0.92728 0.63449 0.0
H450 H 0.18938 0.94238 0.6479 0.0
H451 H 0.17924 0.94483 0.69183 0.0
H452 H 0.19095 0.98384 0.66673 0.0
H453 H 0.04762 0.85234 0.63198 0.0
H454 H 0.00963 0.86799 0.64787 0.0
H455 H 0.04202 0.85617 0.67654 0.0
C456 C 0.75779 0.40771 0.95074 0.0
C457 C 0.75983 0.40363 0.91557 0.0
C458 C 0.79052 0.42627 0.96993 0.0
C459 C 0.82643 0.44096 0.95371 0.0
C460 C 0.82832 0.43826 0.91804 0.0
C461 C 0.79499 0.41975 0.89939 0.0
C462 C 0.78691 0.42926 1.00774 0.0
C463 C 0.86594 0.45369 0.89973 0.0
C464 C 0.91007 0.50699 1.0013 0.0
C465 C 0.93136 0.48559 1.01284 0.0
C466 C 0.87559 0.4929 0.98249 0.0
C467 C 0.86245 0.45664 0.97433 0.0
C468 C 0.88373 0.43495 0.98608 0.0
C469 C 0.91764 0.44958 1.00528 0.0
C470 C 0.85381 0.51708 0.97086 0.0
C471 C 0.87092 0.39619 0.978 0.0
H472 H 0.73057 0.39583 0.96337 0.0
H473 H 0.79686 0.41662 0.87228 0.0
H474 H 0.80419 0.4147 1.02055 0.0
H475 H 0.79866 0.45706 1.01603 0.0
H476 H 0.75647 0.41872 1.01621 0.0
H477 H 0.86226 0.45104 0.87185 0.0
H478 H 0.8786 0.48183 0.90647 0.0
H479 H 0.88698 0.44037 0.9077 0.0
H480 H 0.92039 0.53486 1.0068 0.0
H481 H 0.93385 0.43275 1.0138 0.0
H482 H 0.82211 0.50457 0.97286 0.0
H483 H 0.86047 0.52352 0.94394 0.0
H484 H 0.86213 0.54189 0.98579 0.0
H485 H 0.8415 0.3836 0.98801 0.0
H486 H 0.89076 0.38293 0.98883 0.0
H487 H 0.8694 0.39192 0.95021 0.0
C488 C 0.84556 0.66467 0.45722 0.0
C489 C 0.84398 0.67383 0.42328 0.0
C490 C 0.81187 0.64632 0.47473 0.0
C491 C 0.77538 0.6377 0.45824 0.0
C492 C 0.77372 0.64662 0.42379 0.0
C493 C 0.80806 0.66419 0.40663 0.0
C494 C 0.8153 0.63657 0.51104 0.0
C495 C 0.73552 0.63862 0.40535 0.0
C496 C 0.68776 0.56718 0.49337 0.0
C497 C 0.66894 0.58707 0.51177 0.0
C498 C 0.72275 0.58316 0.47655 0.0
C499 C 0.73897 0.62012 0.47723 0.0
C500 C 0.72015 0.64032 0.49592 0.0
C501 C 0.68573 0.62356 0.5133 0.0
C502 C 0.74225 0.56045 0.45788 0.0
C503 C 0.73585 0.67978 0.49684 0.0
H504 H 0.87331 0.67208 0.47016 0.0
H505 H 0.8067 0.6716 0.38053 0.0
H506 H 0.80051 0.65064 0.52771 0.0
H507 H 0.8008 0.60813 0.51435 0.0
H508 H 0.84588 0.64302 0.51951 0.0
H509 H 0.73908 0.647 0.37859 0.0
H510 H 0.71992 0.61014 0.40589 0.0
H511 H 0.71705 0.65212 0.41825 0.0
H512 H 0.67511 0.53894 0.49215 0.0
H513 H 0.67118 0.63917 0.5271 0.0
H514 H 0.77259 0.56644 0.46681 0.0
H515 H 0.74317 0.56613 0.43049 0.0
H516 H 0.72714 0.53209 0.46129 0.0
H517 H 0.76562 0.68837 0.50745 0.0
H518 H 0.7177 0.69176 0.5122 0.0
H519 H 0.73749 0.68996 0.47076 0.0
C520 C 0.29448 0.32063 0.17209 0.0
C521 C 0.30512 0.31918 0.206 0.0
C522 C 0.26781 0.33768 0.16292 0.0
C523 C 0.2513 0.35349 0.1883 0.0
C524 C 0.26361 0.35389 0.2223 0.0
C525 C 0.29049 0.33678 0.23074 0.0
C526 C 0.2556 0.33695 0.12634 0.0
C527 C 0.2468 0.37065 0.25004 0.0
C528 C 0.19465 0.41339 0.16071 0.0
C529 C 0.15661 0.39044 0.16054 0.0
C530 C 0.22583 0.40191 0.17007 0.0
C531 C 0.21872 0.36671 0.17965 0.0
C532 C 0.18035 0.34362 0.18019 0.0
C533 C 0.14977 0.35574 0.17054 0.0
C534 C 0.26636 0.42725 0.16924 0.0
C535 C 0.17165 0.30588 0.19038 0.0
H536 H 0.30536 0.30678 0.15289 0.0
H537 H 0.29908 0.33615 0.25692 0.0
H538 H 0.2252 0.31994 0.12334 0.0
H539 H 0.25687 0.36356 0.11814 0.0
H540 H 0.274 0.32685 0.10934 0.0
H541 H 0.2623 0.37189 0.27449 0.0
H542 H 0.24785 0.39754 0.24302 0.0
H543 H 0.21597 0.35533 0.25359 0.0
H544 H 0.20007 0.44041 0.15354 0.0
H545 H 0.12053 0.33778 0.17008 0.0
H546 H 0.2839 0.41788 0.15079 0.0
H547 H 0.2805 0.42864 0.19433 0.0
H548 H 0.26685 0.45403 0.16215 0.0
H549 H 0.18574 0.29217 0.17265 0.0
H550 H 0.14013 0.29166 0.19052 0.0
H551 H 0.18363 0.30451 0.21596 0.0
C552 C 0.64711 0.25783 0.88642 0.0
C553 C 0.65505 0.28849 0.90626 0.0
C554 C 0.63308 0.2244 0.90107 0.0
C555 C 0.62653 0.2214 0.93641 0.0
C556 C 0.6332 0.2523 0.95628 0.0
C557 C 0.64731 0.28526 0.94104 0.0
C558 C 0.62634 0.19226 0.87887 0.0
C559 C 0.62628 0.25059 0.9939 0.0
C560 C 0.56214 0.13594 0.97411 0.0
C561 C 0.58931 0.12125 0.98755 0.0
C562 C 0.57376 0.16803 0.95697 0.0
C563 C 0.61362 0.18616 0.9529 0.0
C564 C 0.64121 0.17128 0.96598 0.0
C565 C 0.62878 0.13917 0.98312 0.0
C566 C 0.54328 0.18286 0.94372 0.0
C567 C 0.68399 0.18958 0.96229 0.0
H568 H 0.65325 0.25996 0.85963 0.0
H569 H 0.65282 0.30873 0.95657 0.0
H570 H 0.64627 0.17768 0.88656 0.0
H571 H 0.59644 0.17447 0.88207 0.0
H572 H 0.63098 0.19883 0.85172 0.0
H573 H 0.63146 0.27691 1.00561 0.0
H574 H 0.59613 0.23444 0.99917 0.0
H575 H 0.64567 0.23783 1.00626 0.0
H576 H 0.53156 0.12253 0.9773 0.0
H577 H 0.65013 0.12824 0.99327 0.0
H578 H 0.54743 0.18809 0.91632 0.0
H579 H 0.54613 0.20821 0.95658 0.0
H580 H 0.51351 0.16498 0.94768 0.0
H581 H 0.69118 0.19477 0.93525 0.0
H582 H 0.70177 0.17402 0.9726 0.0
H583 H 0.6921 0.21526 0.97569 0.0
C584 C 0.96015 0.81757 0.40414 0.0
C585 C 0.9528 0.78617 0.4219 0.0
C586 C 0.97322 0.85051 0.42102 0.0
C587 C 0.97968 0.85235 0.45656 0.0
C588 C 0.97384 0.82068 0.47426 0.0
C589 C 0.96035 0.78825 0.45688 0.0
C590 C 0.97872 0.88335 0.401 0.0
C591 C 0.98085 0.82096 0.51191 0.0
C592 C 0.0409 0.93764 0.50054 0.0
C593 C 0.01272 0.95016 0.51562 0.0
C594 C 0.03066 0.90644 0.48086 0.0
C595 C 0.99116 0.88701 0.47559 0.0
C596 C 0.96258 0.89991 0.4901 0.0
C597 C 0.97362 0.931 0.50993 0.0
C598 C 0.06227 0.89378 0.46641 0.0
C599 C 0.92014 0.88047 0.48513 0.0
H600 H 0.95403 0.81635 0.37725 0.0
H601 H 0.95497 0.76422 0.47088 0.0
H602 H 0.95773 0.89655 0.40951 0.0
H603 H 1.0081 0.90192 0.40553 0.0
H604 H 0.97461 0.87784 0.37343 0.0
H605 H 0.97726 0.79436 0.52168 0.0
H606 H 0.01048 0.8381 0.51824 0.0
H607 H 0.96033 0.83183 0.52525 0.0
H608 H 0.07121 0.95186 0.50468 0.0
H609 H 0.95142 0.94016 0.52123 0.0
H610 H 0.05816 0.88948 0.43874 0.0
H611 H 0.06084 0.86826 0.47763 0.0
H612 H 0.09152 0.91253 0.47135 0.0
H613 H 0.91322 0.87611 0.45779 0.0
H614 H 0.90141 0.89476 0.49635 0.0
H615 H 0.913 0.85436 0.49693 0.0
C616 C 0.28048 0.74124 0.60699 0.0
C617 C 0.2509 0.7227 0.62848 0.0
C618 C 0.31646 0.73533 0.60699 0.0
C619 C 0.32292 0.71017 0.62898 0.0
C620 C 0.2935 0.69211 0.65147 0.0
C621 C 0.25763 0.69826 0.65064 0.0
C622 C 0.34692 0.75484 0.58237 0.0
C623 C 0.29939 0.6653 0.67548 0.0
C624 C 0.39444 0.66452 0.60069 0.0
C625 C 0.42767 0.68242 0.61946 0.0
C626 C 0.36028 0.67334 0.60363 0.0
C627 C 0.35903 0.7005 0.62622 0.0
C628 C 0.39221 0.71844 0.64562 0.0
C629 C 0.42622 0.70926 0.64194 0.0
C630 C 0.32552 0.65357 0.58246 0.0
C631 C 0.39182 0.74739 0.67012 0.0
H632 H 0.27507 0.75971 0.58946 0.0
H633 H 0.23455 0.68346 0.66687 0.0
H634 H 0.37475 0.76732 0.59575 0.0
H635 H 0.35195 0.73617 0.56346 0.0
H636 H 0.33845 0.77536 0.56878 0.0
H637 H 0.27522 0.6562 0.69361 0.0
H638 H 0.30173 0.64231 0.66093 0.0
H639 H 0.32678 0.67635 0.68993 0.0
H640 H 0.39497 0.64322 0.58387 0.0
H641 H 0.45181 0.72338 0.65637 0.0
H642 H 0.31643 0.67203 0.56634 0.0
H643 H 0.30087 0.64062 0.59906 0.0
H644 H 0.33137 0.63332 0.56592 0.0
H645 H 0.38594 0.76906 0.65632 0.0
H646 H 0.41963 0.75802 0.68411 0.0
H647 H 0.36823 0.73761 0.68864 0.0
C648 C 0.70384 0.78136 0.78683 0.0
C649 C 0.72474 0.78655 0.81727 0.0
C650 C 0.72181 0.7959 0.75676 0.0
C651 C 0.76096 0.81726 0.75775 0.0
C652 C 0.78274 0.82035 0.78803 0.0
C653 C 0.7644 0.80453 0.81737 0.0
C654 C 0.69816 0.79051 0.72461 0.0
C655 C 0.82438 0.84331 0.79043 0.0
C656 C 0.82471 0.86043 0.68502 0.0
C657 C 0.82145 0.89428 0.68691 0.0
C658 C 0.80239 0.83373 0.70586 0.0
C659 C 0.77727 0.84148 0.7297 0.0
C660 C 0.77175 0.87479 0.72982 0.0
C661 C 0.79332 0.90048 0.70794 0.0
C662 C 0.80763 0.79801 0.70382 0.0
C663 C 0.74542 0.88436 0.75494 0.0
H664 H 0.67314 0.76725 0.78687 0.0
H665 H 0.78037 0.80872 0.84106 0.0
H666 H 0.68782 0.81335 0.72064 0.0
H667 H 0.71579 0.78819 0.70242 0.0
H668 H 0.6725 0.76672 0.72578 0.0
H669 H 0.83798 0.84069 0.81502 0.0
H670 H 0.84158 0.83675 0.76986 0.0
H671 H 0.82584 0.87111 0.78748 0.0
H672 H 0.84614 0.85522 0.66868 0.0
H673 H 0.78956 0.92618 0.70861 0.0
H674 H 0.77983 0.77707 0.70785 0.0
H675 H 0.82814 0.79585 0.72383 0.0
H676 H 0.81953 0.79347 0.67901 0.0
H677 H 0.71592 0.86536 0.75326 0.0
H678 H 0.74341 0.91102 0.75087 0.0
H679 H 0.75637 0.8833 0.78099 0.0
C680 C 0.84008 0.20683 0.32149 0.0
C681 C 0.85629 0.24238 0.32996 0.0
C682 C 0.81918 0.19622 0.29139 0.0
C683 C 0.81398 0.22178 0.26922 0.0
C684 C 0.82966 0.25774 0.2778 0.0
C685 C 0.85071 0.26766 0.30813 0.0
C686 C 0.80278 0.15755 0.28328 0.0
C687 C 0.82448 0.28565 0.25483 0.0
C688 C 0.79026 0.18465 0.1808 0.0
C689 C 0.74974 0.1725 0.18158 0.0
C690 C 0.81179 0.20339 0.20825 0.0
C691 C 0.79227 0.21021 0.23707 0.0
C692 C 0.75143 0.20078 0.23674 0.0
C693 C 0.73062 0.18192 0.20901 0.0
C694 C 0.85532 0.21324 0.20751 0.0
C695 C 0.72953 0.20788 0.26684 0.0
H696 H 0.8435 0.18715 0.3386 0.0
H697 H 0.86332 0.29518 0.31451 0.0
H698 H 0.77092 0.1501 0.28026 0.0
H699 H 0.8146 0.15152 0.259 0.0
H700 H 0.80951 0.14109 0.30322 0.0
H701 H 0.83727 0.31239 0.26574 0.0
H702 H 0.83825 0.28428 0.23013 0.0
H703 H 0.79329 0.28113 0.2498 0.0
H704 H 0.80519 0.17804 0.15936 0.0
H705 H 0.69932 0.17251 0.20994 0.0
H706 H 0.86494 0.1957 0.22441 0.0
H707 H 0.86877 0.24043 0.21695 0.0
H708 H 0.86616 0.21088 0.18168 0.0
H709 H 0.73036 0.18952 0.28731 0.0
H710 H 0.6988 0.20441 0.26049 0.0
H711 H 0.74312 0.23485 0.27684 0.0
C712 C 0.4324 0.63433 0.33434 0.0
C713 C 0.46226 0.64891 0.31141 0.0
C714 C 0.43974 0.62053 0.36545 0.0
C715 C 0.47779 0.6207 0.37377 0.0
C716 C 0.50799 0.63554 0.35071 0.0
C717 C 0.49987 0.64929 0.31997 0.0
C718 C 0.40663 0.60519 0.38917 0.0
C719 C 0.54893 0.63626 0.35817 0.0
C720 C 0.50898 0.61179 0.465 0.0
C721 C 0.5081 0.57659 0.46605 0.0
C722 C 0.49804 0.62609 0.43568 0.0
C723 C 0.48618 0.60497 0.40621 0.0
C724 C 0.48439 0.56922 0.40732 0.0
C725 C 0.49514 0.55548 0.43713 0.0
C726 C 0.50007 0.66415 0.43602 0.0
C727 C 0.4722 0.54566 0.37661 0.0
H728 H 0.40314 0.6332 0.32766 0.0
H729 H 0.52301 0.6598 0.30218 0.0
H730 H 0.40238 0.57688 0.3924 0.0
H731 H 0.41341 0.61787 0.41448 0.0
H732 H 0.37914 0.6084 0.37985 0.0
H733 H 0.56929 0.64921 0.33797 0.0
H734 H 0.55906 0.6503 0.38243 0.0
H735 H 0.54996 0.60915 0.36095 0.0
H736 H 0.51867 0.62845 0.48711 0.0
H737 H 0.4944 0.52834 0.43741 0.0
H738 H 0.47209 0.66686 0.4275 0.0
H739 H 0.52246 0.67882 0.41809 0.0
H740 H 0.50718 0.67646 0.46149 0.0
H741 H 0.44357 0.54609 0.36731 0.0
H742 H 0.4705 0.51816 0.38188 0.0
H743 H 0.49316 0.5554 0.35595 0.0
C744 C 0.17054 0.41349 0.85611 0.0
C745 C 0.14325 0.38971 0.83484 0.0
C746 C 0.15937 0.42984 0.88433 0.0
C747 C 0.11972 0.42222 0.89242 0.0
C748 C 0.09199 0.39744 0.87181 0.0
C749 C 0.10398 0.38165 0.84343 0.0
C750 C 0.19021 0.45592 0.90521 0.0
C751 C 0.04944 0.38806 0.87936 0.0
C752 C 0.09409 0.44637 0.9821 0.0
C753 C 0.086 0.47797 0.97697 0.0
C754 C 0.10452 0.42783 0.955 0.0
C755 C 0.10744 0.44108 0.92165 0.0
C756 C 0.09959 0.47307 0.91641 0.0
C757 C 0.08888 0.49087 0.94385 0.0
C758 C 0.11223 0.39383 0.96208 0.0
C759 C 0.10267 0.4887 0.88166 0.0
H760 H 0.20103 0.41953 0.8507 0.0
H761 H 0.08235 0.36364 0.82745 0.0
H762 H 0.18572 0.48195 0.90444 0.0
H763 H 0.18814 0.44784 0.93201 0.0
H764 H 0.21982 0.45865 0.89614 0.0
H765 H 0.03159 0.36694 0.86236 0.0
H766 H 0.04399 0.37946 0.90591 0.0
H767 H 0.03983 0.41149 0.87651 0.0
H768 H 0.0918 0.43579 1.00733 0.0
H769 H 0.08279 0.51513 0.93923 0.0
H770 H 0.14226 0.39586 0.95493 0.0
H771 H 0.09262 0.37243 0.94649 0.0
H772 H 0.10813 0.38658 0.98912 0.0
H773 H 0.13244 0.49371 0.87198 0.0
H774 H 0.09563 0.51366 0.88156 0.0
H775 H 0.08279 0.46996 0.86386 0.0
C776 C 0.66143 0.85752 0.89284 0.0
C777 C 0.64729 0.82282 0.90389 0.0
C778 C 0.64773 0.88367 0.90644 0.0
C779 C 0.61935 0.87502 0.93191 0.0
C780 C 0.60365 0.83981 0.94215 0.0
C781 C 0.61787 0.8141 0.92803 0.0
C782 C 0.66527 0.92091 0.89489 0.0
C783 C 0.57315 0.8296 0.96913 0.0
C784 C 0.62097 0.94654 0.99568 0.0
C785 C 0.59041 0.95786 0.98428 0.0
C786 C 0.63053 0.91956 0.97885 0.0
C787 C 0.6089 0.90335 0.94998 0.0
C788 C 0.57815 0.91472 0.93818 0.0
C789 C 0.56935 0.94197 0.95541 0.0
C790 C 0.66374 0.90832 0.99208 0.0
C791 C 0.5544 0.89796 0.90754 0.0
H792 H 0.68471 0.86472 0.87471 0.0
H793 H 0.60663 0.7873 0.93647 0.0
H794 H 0.64226 0.93248 0.88837 0.0
H795 H 0.68276 0.93702 0.91575 0.0
H796 H 0.68419 0.9227 0.8726 0.0
H797 H 0.56124 0.80077 0.97185 0.0
H798 H 0.58581 0.8412 0.99376 0.0
H799 H 0.54907 0.84006 0.96328 0.0
H800 H 0.6374 0.95865 1.01794 0.0
H801 H 0.54548 0.95035 0.94657 0.0
H802 H 0.68598 0.91156 0.97225 0.0
H803 H 0.65336 0.88017 0.99855 0.0
H804 H 0.6776 0.92358 1.01487 0.0
H805 H 0.57326 0.90135 0.88508 0.0
H806 H 0.53084 0.90929 0.90211 0.0
H807 H 0.54142 0.86941 0.91136 0.0
C808 C 0.97948 0.23277 0.43566 0.0
C809 C 0.94583 0.21893 0.41604 0.0
C810 C 0.99688 0.21069 0.45203 0.0
C811 C 0.98031 0.17394 0.44859 0.0
C812 C 0.94793 0.15989 0.42703 0.0
C813 C 0.93097 0.18252 0.41118 0.0
C814 C 0.03148 0.22668 0.47475 0.0
C815 C 0.92943 0.12086 0.42259 0.0
C816 C 0.03288 0.11288 0.48276 0.0
C817 C 0.01503 0.10418 0.51422 0.0
C818 C 0.02219 0.1358 0.46105 0.0
C819 C 0.9931 0.1503 0.47114 0.0
C820 C 0.97516 0.14167 0.50287 0.0
C821 C 0.98627 0.11874 0.52392 0.0
C822 C 0.04179 0.14435 0.42731 0.0
C823 C 0.944 0.15657 0.51463 0.0
H824 H 0.99153 0.26087 0.43907 0.0
H825 H 0.90472 0.17144 0.39645 0.0
H826 H 0.02272 0.22189 0.50152 0.0
H827 H 0.05428 0.21431 0.46995 0.0
H828 H 0.04393 0.25537 0.47124 0.0
H829 H 0.9081 0.11426 0.40144 0.0
H830 H 0.9517 0.10786 0.4178 0.0
H831 H 0.9143 0.10987 0.44615 0.0
H832 H 0.05516 0.1018 0.47507 0.0
H833 H 0.97229 0.11232 0.54816 0.0
H834 H 0.05529 0.17306 0.42518 0.0
H835 H 0.02006 0.13587 0.40664 0.0
H836 H 0.06439 0.13146 0.42349 0.0
H837 H 0.95516 0.18558 0.51496 0.0
H838 H 0.93341 0.14767 0.54029 0.0
H839 H 0.9191 0.14864 0.49678 0.0
C840 C 0.30032 0.67879 0.18372 0.0
C841 C 0.33031 0.66424 0.18824 0.0
C842 C 0.26637 0.6606 0.16589 0.0
C843 C 0.26246 0.62721 0.15152 0.0
C844 C 0.29269 0.61233 0.15605 0.0
C845 C 0.32608 0.63087 0.17466 0.0
C846 C 0.2346 0.67714 0.16251 0.0
C847 C 0.28998 0.57707 0.14079 0.0
C848 C 0.16013 0.5678 0.13289 0.0
C849 C 0.15528 0.57388 0.09848 0.0
C850 C 0.1949 0.58452 0.15019 0.0
C851 C 0.2262 0.60761 0.1327 0.0
C852 C 0.222 0.61317 0.09774 0.0
C853 C 0.18651 0.59651 0.08112 0.0
C854 C 0.19769 0.57823 0.18753 0.0
C855 C 0.25487 0.63709 0.07799 0.0
H856 H 0.30346 0.70454 0.19429 0.0
H857 H 0.3494 0.61974 0.17776 0.0
H858 H 0.229 0.6807 0.13544 0.0
H859 H 0.20738 0.65963 0.17317 0.0
H860 H 0.24184 0.70298 0.17563 0.0
H861 H 0.31623 0.56943 0.14599 0.0
H862 H 0.26451 0.55669 0.15094 0.0
H863 H 0.28581 0.57751 0.11303 0.0
H864 H 0.13628 0.55053 0.14676 0.0
H865 H 0.18323 0.60128 0.05456 0.0
H866 H 0.20271 0.60319 0.20182 0.0
H867 H 0.22263 0.56876 0.19275 0.0
H868 H 0.17111 0.55881 0.19728 0.0
H869 H 0.26162 0.66431 0.0878 0.0
H870 H 0.24802 0.6368 0.05059 0.0
H871 H 0.2813 0.62926 0.08126 0.0
C872 C 0.33567 0.44178 0.72664 0.0
C873 C 0.29736 0.42345 0.7174 0.0
C874 C 0.3638 0.45676 0.70225 0.0
C875 C 0.35365 0.45331 0.66748 0.0
C876 C 0.31483 0.43527 0.65794 0.0
C877 C 0.2873 0.42021 0.68295 0.0
C878 C 0.40478 0.47532 0.71373 0.0
C879 C 0.30263 0.43106 0.62126 0.0
C880 C 0.42566 0.51539 0.60852 0.0
C881 C 0.44765 0.49443 0.59697 0.0
C882 C 0.3941 0.50205 0.63037 0.0
C883 C 0.38429 0.46693 0.64131 0.0
C884 C 0.40563 0.44537 0.62891 0.0
C885 C 0.43681 0.45928 0.60689 0.0
C886 C 0.37203 0.52592 0.64262 0.0
C887 C 0.39653 0.40788 0.63995 0.0
H888 H 0.34392 0.44367 0.75311 0.0
H889 H 0.25804 0.40534 0.6755 0.0
H890 H 0.42431 0.46124 0.70375 0.0
H891 H 0.41477 0.50221 0.70355 0.0
H892 H 0.4077 0.47701 0.7417 0.0
H893 H 0.27091 0.41884 0.61808 0.0
H894 H 0.31139 0.4569 0.60881 0.0
H895 H 0.31742 0.41448 0.60796 0.0
H896 H 0.43359 0.54255 0.60109 0.0
H897 H 0.45347 0.44276 0.59831 0.0
H898 H 0.37677 0.53073 0.6702 0.0
H899 H 0.34055 0.51333 0.63847 0.0
H900 H 0.38106 0.55155 0.6297 0.0
H901 H 0.40188 0.40723 0.66752 0.0
H902 H 0.41431 0.39396 0.62661 0.0
H903 H 0.36556 0.39343 0.6353 0.0
C904 C 0.75518 0.69649 0.97448 0.0
C905 C 0.73863 0.69385 0.94218 0.0
C906 C 0.78984 0.68893 0.97974 0.0
C907 C 0.80844 0.6788 0.95191 0.0
C908 C 0.79172 0.67601 0.91921 0.0
C909 C 0.75709 0.68385 0.9147 0.0
C910 C 0.80688 0.69235 1.01494 0.0
C911 C 0.8107 0.66527 0.88896 0.0
C912 C 0.91584 0.69129 0.96135 0.0
C913 C 0.91551 0.65766 0.97048 0.0
C914 C 0.88117 0.69849 0.95478 0.0
C915 C 0.84549 0.6713 0.95712 0.0
C916 C 0.84513 0.6371 0.96546 0.0
C917 C 0.88014 0.63075 0.97213 0.0
C918 C 0.88265 0.73532 0.94607 0.0
C919 C 0.80776 0.60732 0.96783 0.0
H920 H 0.74127 0.70506 0.99553 0.0
H921 H 0.74465 0.68267 0.88961 0.0
H922 H 0.8105 0.66713 1.02264 0.0
H923 H 0.83599 0.71218 1.01533 0.0
H924 H 0.78858 0.70016 0.03388 0.0
H925 H 0.79342 0.66347 0.86542 0.0
H926 H 0.83973 0.68447 0.88518 0.0
H927 H 0.81487 0.6395 0.89339 0.0
H928 H 0.94315 0.71215 0.96021 0.0
H929 H 0.8799 0.60462 0.97864 0.0
H930 H 0.86745 0.74585 0.9657 0.0
H931 H 0.86746 0.73535 0.92172 0.0
H932 H 0.91275 0.75319 0.94413 0.0
H933 H 0.78965 0.613 0.98819 0.0
H934 H 0.81264 0.58197 0.97318 0.0
H935 H 0.7911 0.60459 0.94386 0.0
C936 C 0.47838 0.78597 0.18416 0.0
C937 C 0.4399 0.77565 0.19502 0.0
C938 C 0.49441 0.81774 0.16694 0.0
C939 C 0.4716 0.83999 0.16084 0.0
C940 C 0.43328 0.83031 0.17317 0.0
C941 C 0.4179 0.7983 0.18983 0.0
C942 C 0.53523 0.82679 0.15405 0.0
C943 C 0.40801 0.85329 0.16786 0.0
C944 C 0.51917 0.93565 0.13649 0.0
C945 C 0.51203 0.93469 0.1015 0.0
C946 C 0.50665 0.90511 0.15602 0.0
C947 C 0.48689 0.87254 0.14027 0.0
C948 C 0.48023 0.87132 0.10487 0.0
C949 C 0.49258 0.90231 0.08603 0.0
C950 C 0.51394 0.90783 0.19367 0.0
C951 C 0.45971 0.83722 0.08685 0.0
H952 H 0.4954 0.76846 0.18779 0.0
H953 H 0.3882 0.79058 0.19833 0.0
H954 H 0.53488 0.82691 0.12602 0.0
H955 H 0.55242 0.85345 0.16277 0.0
H956 H 0.54996 0.80793 0.16251 0.0
H957 H 0.37988 0.84328 0.18099 0.0
H958 H 0.42303 0.88029 0.17714 0.0
H959 H 0.40228 0.85487 0.14047 0.0
H960 H 0.5341 0.96044 0.14879 0.0
H961 H 0.48715 0.90108 0.05903 0.0
H962 H 0.53008 0.88984 0.20131 0.0
H963 H 0.48599 0.89971 0.20721 0.0
H964 H 0.53059 0.93483 0.20202 0.0
H965 H 0.47462 0.81761 0.09216 0.0
H966 H 0.45844 0.84029 0.05906 0.0
H967 H 0.42976 0.82656 0.09636 0.0
C968 C 0.09829 0.27992 0.73121 0.0
C969 C 0.1335 0.2898 0.74908 0.0
C970 C 0.08538 0.24779 0.71299 0.0
C971 C 0.10798 0.22465 0.71277 0.0
C972 C 0.14272 0.23398 0.7321 0.0
C973 C 0.15519 0.26643 0.74959 0.0
C974 C 0.04846 0.23942 0.69257 0.0
C975 C 0.16766 0.21028 0.73323 0.0
C976 C 0.06344 0.12912 0.68203 0.0
C977 C 0.07804 0.13003 0.64908 0.0
C978 C 0.07273 0.1595 0.70293 0.0
C979 C 0.09686 0.19198 0.69067 0.0
C980 C 0.1113 0.19309 0.65731 0.0
C981 C 0.10199 0.16229 0.63716 0.0
C982 C 0.05699 0.15674 0.73833 0.0
C983 C 0.13674 0.22695 0.64279 0.0
H984 H 0.08179 0.29813 0.73009 0.0
H985 H 0.18269 0.27411 0.76294 0.0
H986 H 0.05523 0.23944 0.66526 0.0
H987 H 0.02912 0.21287 0.69855 0.0
H988 H 0.03271 0.25862 0.69724 0.0
H989 H 0.19179 0.21961 0.75179 0.0
H990 H 0.15001 0.18332 0.73987 0.0
H991 H 0.18006 0.20887 0.7079 0.0
H992 H 0.04495 0.10453 0.6917 0.0
H993 H 0.11333 0.16365 0.61177 0.0
H994 H 0.03984 0.17496 0.74184 0.0
H995 H 0.08123 0.16458 0.75687 0.0
H996 H 0.03841 0.1298 0.74414 0.0
H997 H 0.12178 0.2471 0.64401 0.0
H998 H 0.14461 0.22385 0.61612 0.0
H999 H 0.1637 0.23693 0.65801 0.0
C1000 C 0.83432 0.35073 0.45811 0.0
C1001 C 0.82832 0.31467 0.45964 0.0
C1002 C 0.803 0.36405 0.45849 0.0
C1003 C 0.76487 0.34069 0.46076 0.0
C1004 C 0.75864 0.30413 0.4611 0.0
C1005 C 0.7905 0.29155 0.46049 0.0
C1006 C 0.8108 0.40317 0.45785 0.0
C1007 C 0.71846 0.2784 0.46357 0.0
C1008 C 0.69115 0.37617 0.50276 0.0
C1009 C 0.67079 0.38296 0.47492 0.0
C1010 C 0.72148 0.36204 0.49845 0.0
C1011 C 0.73186 0.3546 0.46544 0.0
C1012 C 0.71111 0.36094 0.4372 0.0
C1013 C 0.68069 0.37496 0.44229 0.0
C1014 C 0.74262 0.35531 0.52925 0.0
C1015 C 0.72148 0.35348 0.40165 0.0
H1016 H 0.86363 0.36852 0.45752 0.0
H1017 H 0.78588 0.26363 0.46168 0.0
H1018 H 0.79303 0.41004 0.43791 0.0
H1019 H 0.80249 0.41228 0.48237 0.0
H1020 H 0.84173 0.41756 0.45323 0.0
H1021 H 0.71834 0.25083 0.46094 0.0
H1022 H 0.70588 0.28167 0.4884 0.0
H1023 H 0.69935 0.28353 0.44377 0.0
H1024 H 0.6832 0.38183 0.52805 0.0
H1025 H 0.66523 0.38045 0.42068 0.0
H1026 H 0.77359 0.37111 0.52813 0.0
H1027 H 0.74125 0.32738 0.52977 0.0
H1028 H 0.73043 0.36187 0.55318 0.0
H1029 H 0.75154 0.36971 0.39617 0.0
H1030 H 0.70184 0.35897 0.38248 0.0
H1031 H 0.72032 0.32568 0.399 0.0
loop_
_geom_bond_atom_site_label_1
_geom_bond_atom_site_label_2
_geom_bond_distance
_geom_bond_site_symmetry_2
_ccdc_geom_bond_type
H0 C7 0.929 . S
H1 C10 0.930 . S
H2 C12 0.929 . S
H3 C4 0.969 . S
C4 H3 0.969 . S
C4 O5 1.550 . S
C4 H6 0.973 . S
O5 C4 1.550 . S
O5 C11 1.412 . S
H6 C4 0.973 . S
C7 H0 0.929 . S
C7 C8 1.400 . S
C7 C9 1.364 . S
C8 C7 1.400 . S
C8 C12 1.377 . S
C9 C7 1.364 . S
C9 C10 1.374 . S
C10 H1 0.930 . S
C10 C9 1.374 . S
C10 C11 1.383 . S
C11 O5 1.412 . S
C11 C10 1.383 . S
C11 C12 1.394 . S
C12 H2 0.929 . S
C12 C8 1.377 . S
C12 C11 1.394 . S
H13 C20 0.929 . S
H14 C23 0.930 . S
H15 C25 0.929 . S
H16 C17 0.969 . S
C17 H16 0.969 . S
C17 O18 1.550 . S
C17 H19 0.973 . S
O18 C17 1.550 . S
O18 C24 1.412 . S
H19 C17 0.973 . S
C20 H13 0.929 . S
C20 C21 1.400 . S
C20 C22 1.364 . S
C21 C20 1.400 . S
C21 C25 1.377 . S
C22 C20 1.364 . S
C22 C23 1.374 . S
C23 H14 0.930 . S
C23 C22 1.374 . S
C23 C24 1.383 . S
C24 O18 1.412 . S
C24 C23 1.383 . S
C24 C25 1.394 . S
C25 H15 0.929 . S
C25 C21 1.377 . S
C25 C24 1.394 . S
H26 C33 0.929 . S
H27 C36 0.930 . S
H28 C38 0.929 . S
H29 C30 0.969 . S
C30 H29 0.969 . S
C30 O31 1.550 . S
C30 H32 0.973 . S
O31 C30 1.550 . S
O31 C37 1.412 . S
H32 C30 0.973 . S
C33 H26 0.929 . S
C33 C34 1.400 . S
C33 C35 1.364 . S
C34 C33 1.400 . S
C34 C38 1.377 . S
C35 C33 1.364 . S
C35 C36 1.374 . S
C36 H27 0.930 . S
C36 C35 1.374 . S
C36 C37 1.383 . S
C37 O31 1.412 . S
C37 C36 1.383 . S
C37 C38 1.394 . S
C38 H28 0.929 . S
C38 C34 1.377 . S
C38 C37 1.394 . S
H39 C46 0.929 . S
H40 C49 0.930 . S
H41 C51 0.929 . S
H42 C43 0.969 . S
C43 H42 0.969 . S
C43 O44 1.550 . S
C43 H45 0.973 . S
O44 C43 1.550 . S
O44 C50 1.412 . S
H45 C43 0.973 . S
C46 H39 0.929 . S
C46 C47 1.400 . S
C46 C48 1.364 . S
C47 C46 1.400 . S
C47 C51 1.377 . S
C48 C46 1.364 . S
C48 C49 1.374 . S
C49 H40 0.930 . S
C49 C48 1.374 . S
C49 C50 1.383 . S
C50 O44 1.412 . S
C50 C49 1.383 . S
C50 C51 1.394 . S
C51 H41 0.929 . S
C51 C47 1.377 . S
C51 C50 1.394 . S
H52 C59 0.929 . S
H53 C62 0.930 . S
H54 C64 0.929 . S
H55 C56 0.969 . S
C56 H55 0.969 . S
C56 O57 1.550 . S
C56 H58 0.973 . S
O57 C56 1.550 . S
O57 C63 1.412 . S
H58 C56 0.973 . S
C59 H52 0.929 . S
C59 C60 1.400 . S
C59 C61 1.364 . S
C60 C59 1.400 . S
C60 C64 1.377 . S
C61 C59 1.364 . S
C61 C62 1.374 . S
C62 H53 0.930 . S
C62 C61 1.374 . S
C62 C63 1.383 . S
C63 O57 1.412 . S
C63 C62 1.383 . S
C63 C64 1.394 . S
C64 H54 0.929 . S
C64 C60 1.377 . S
C64 C63 1.394 . S
H65 C72 0.929 . S
H66 C75 0.930 . S
H67 C77 0.929 . S
H68 C69 0.969 . S
C69 H68 0.969 . S
C69 O70 1.550 . S
C69 H71 0.973 . S
O70 C69 1.550 . S
O70 C76 1.412 . S
H71 C69 0.973 . S
C72 H65 0.929 . S
C72 C73 1.400 . S
C72 C74 1.364 . S
C73 C72 1.400 . S
C73 C77 1.377 . S
C74 C72 1.364 . S
C74 C75 1.374 . S
C75 H66 0.930 . S
C75 C74 1.374 . S
C75 C76 1.383 . S
C76 O70 1.412 . S
C76 C75 1.383 . S
C76 C77 1.394 . S
C77 H67 0.929 . S
C77 C73 1.377 . S
C77 C76 1.394 . S
H78 C85 0.929 . S
H79 C88 0.930 . S
H80 C90 0.929 . S
H81 C82 0.969 . S
C82 H81 0.969 . S
C82 O83 1.550 . S
C82 H84 0.973 . S
O83 C82 1.550 . S
O83 C89 1.412 . S
H84 C82 0.973 . S
C85 H78 0.929 . S
C85 C86 1.400 . S
C85 C87 1.364 . S
C86 C85 1.400 . S
C86 C90 1.377 . S
C87 C85 1.364 . S
C87 C88 1.374 . S
C88 H79 0.930 . S
C88 C87 1.374 . S
C88 C89 1.383 . S
C89 O83 1.412 . S
C89 C88 1.383 . S
C89 C90 1.394 . S
C90 H80 0.929 . S
C90 C86 1.377 . S
C90 C89 1.394 . S
H91 C98 0.929 . S
H92 C101 0.930 . S
H93 C103 0.929 . S
H94 C95 0.969 . S
C95 H94 0.969 . S
C95 O96 1.550 . S
C95 H97 0.973 . S
O96 C95 1.550 . S
O96 C102 1.412 . S
H97 C95 0.973 . S
C98 H91 0.929 . S
C98 C99 1.400 . S
C98 C100 1.364 . S
C99 C98 1.400 . S
C99 C103 1.377 . S
C100 C98 1.364 . S
C100 C101 1.374 . S
C101 H92 0.930 . S
C101 C100 1.374 . S
C101 C102 1.383 . S
C102 O96 1.412 . S
C102 C101 1.383 . S
C102 C103 1.394 . S
C103 H93 0.929 . S
C103 C99 1.377 . S
C103 C102 1.394 . S
Dy104 O107 2.307 1_545 S
Dy104 O109 2.395 . S
Dy104 O110 2.379 . S
Dy104 O112 2.339 1_545 S
Dy104 O114 2.298 . S
Dy104 O118 2.275 . S
Dy104 C126 2.738 . S
Dy105 O108 2.298 1_645 S
Dy105 O111 2.275 1_545 S
Dy105 O113 2.307 . S
Dy105 O115 2.395 1_545 S
Dy105 O116 2.379 1_545 S
Dy105 O119 2.339 1_655 S
Dy105 C135 2.738 1_545 S
C106 O118 1.254 . S
C106 O119 1.257 . S
O107 Dy104 2.307 1_565 S
O107 C117 1.266 . S
O108 Dy105 2.298 1_465 S
O108 C117 1.236 . S
O109 Dy104 2.395 . S
O109 C126 1.255 . S
O110 Dy104 2.379 . S
O110 C126 1.249 . S
O111 Dy105 2.275 1_565 S
O111 C127 1.254 . S
O112 Dy104 2.339 1_565 S
O112 C127 1.257 1_455 S
O113 Dy105 2.307 . S
O113 C128 1.266 . S
O114 Dy104 2.298 . S
O114 C128 1.236 1_455 S
O115 Dy105 2.395 1_565 S
O115 C135 1.255 . S
O116 Dy105 2.379 1_565 S
O116 C135 1.249 . S
C117 O107 1.266 . S
C117 O108 1.236 . S
O118 Dy104 2.275 . S
O118 C106 1.254 . S
O119 Dy105 2.339 1_455 S
O119 C106 1.257 . S
C120 C123 1.344 . S
C120 C124 1.328 . S
C120 C126 1.516 . S
C121 C122 1.304 . S
C121 C125 1.323 . S
C122 C121 1.304 . S
C122 C123 1.371 . S
C122 H136 0.930 . S
C123 C120 1.344 . S
C123 C122 1.371 . S
C123 H137 0.931 . S
C124 C120 1.328 . S
C124 C125 1.433 . S
C124 H138 0.931 . S
C125 C121 1.323 . S
C125 C124 1.433 . S
C125 H139 0.933 . S
C126 Dy104 2.738 . S
C126 O109 1.255 . S
C126 O110 1.249 . S
C126 C120 1.516 . S
C127 O111 1.254 . S
C127 O112 1.257 1_655 S
C128 O113 1.266 . S
C128 O114 1.236 1_655 S
C129 C132 1.344 . S
C129 C133 1.328 . S
C129 C135 1.516 . S
C130 C131 1.304 . S
C130 C134 1.323 . S
C131 C130 1.304 . S
C131 C132 1.371 . S
C131 H140 0.930 . S
C132 C129 1.344 . S
C132 C131 1.371 . S
C132 H141 0.931 . S
C133 C129 1.328 . S
C133 C134 1.433 . S
C133 H142 0.931 . S
C134 C130 1.323 . S
C134 C133 1.433 . S
C134 H143 0.933 . S
C135 Dy105 2.738 1_565 S
C135 O115 1.255 . S
C135 O116 1.249 . S
C135 C129 1.516 . S
H136 C122 0.930 . S
H137 C123 0.931 . S
H138 C124 0.931 . S
H139 C125 0.933 . S
H140 C131 0.930 . S
H141 C132 0.931 . S
H142 C133 0.931 . S
H143 C134 0.933 . S
Dy144 O147 2.306 1_556 S
Dy144 O149 2.396 1_545 S
Dy144 O150 2.379 1_545 S
Dy144 O152 2.338 . S
Dy144 O154 2.298 1_545 S
Dy144 O158 2.276 1_546 S
Dy144 C166 2.739 1_545 S
Dy145 O148 2.298 . S
Dy145 O151 2.275 1_554 S
Dy145 O153 2.307 1_544 S
Dy145 O155 2.395 . S
Dy145 O156 2.379 . S
Dy145 O159 2.339 1_545 S
Dy145 C175 2.738 . S
C146 O158 1.254 . S
C146 O159 1.257 . S
O147 Dy144 2.306 1_554 S
O147 C157 1.266 . S
O148 Dy145 2.298 . S
O148 C157 1.236 . S
O149 Dy144 2.396 1_565 S
O149 C166 1.255 . S
O150 Dy144 2.379 1_565 S
O150 C166 1.249 . S
O151 Dy145 2.275 1_556 S
O151 C167 1.254 . S
O152 Dy144 2.338 . S
O152 C167 1.257 . S
O153 Dy145 2.307 1_566 S
O153 C168 1.266 . S
O154 Dy144 2.298 1_565 S
O154 C168 1.236 . S
O155 Dy145 2.395 . S
O155 C175 1.255 . S
O156 Dy145 2.379 . S
O156 C175 1.249 . S
C157 O147 1.266 . S
C157 O148 1.236 . S
O158 Dy144 2.276 1_564 S
O158 C146 1.254 . S
O159 Dy145 2.339 1_565 S
O159 C146 1.257 . S
C160 C163 1.344 . S
C160 C164 1.328 . S
C160 C166 1.516 . S
C161 C162 1.304 . S
C161 C165 1.323 . S
C162 C161 1.304 . S
C162 C163 1.371 . S
C162 H176 0.930 . S
C163 C160 1.344 . S
C163 C162 1.371 . S
C163 H177 0.931 . S
C164 C160 1.328 . S
C164 C165 1.433 . S
C164 H178 0.931 . S
C165 C161 1.323 . S
C165 C164 1.433 . S
C165 H179 0.933 . S
C166 Dy144 2.739 1_565 S
C166 O149 1.255 . S
C166 O150 1.249 . S
C166 C160 1.516 . S
C167 O151 1.254 . S
C167 O152 1.257 . S
C168 O153 1.266 . S
C168 O154 1.236 . S
C169 C172 1.344 . S
C169 C173 1.328 . S
C169 C175 1.516 . S
C170 C171 1.304 . S
C170 C174 1.323 . S
C171 C170 1.304 . S
C171 C172 1.371 . S
C171 H180 0.930 . S
C172 C169 1.344 . S
C172 C171 1.371 . S
C172 H181 0.931 . S
C173 C169 1.328 . S
C173 C174 1.433 . S
C173 H182 0.931 . S
C174 C170 1.323 . S
C174 C173 1.433 . S
C174 H183 0.933 . S
C175 Dy145 2.738 . S
C175 O155 1.255 . S
C175 O156 1.249 . S
C175 C169 1.516 . S
H176 C162 0.930 . S
H177 C163 0.931 . S
H178 C164 0.931 . S
H179 C165 0.933 . S
H180 C171 0.930 . S
H181 C172 0.931 . S
H182 C173 0.931 . S
H183 C174 0.933 . S
Dy184 O187 2.307 . S
Dy184 O189 2.395 . S
Dy184 O190 2.379 . S
Dy184 O192 2.339 . S
Dy184 O194 2.298 . S
Dy184 O198 2.275 . S
Dy184 C206 2.738 . S
Dy185 O188 2.298 . S
Dy185 O191 2.275 . S
Dy185 O193 2.307 . S
Dy185 O195 2.395 . S
Dy185 O196 2.379 . S
Dy185 O199 2.339 . S
Dy185 C215 2.738 . S
C186 O198 1.254 . S
C186 O199 1.257 . S
O187 Dy184 2.307 . S
O187 C197 1.266 . S
O188 Dy185 2.298 . S
O188 C197 1.236 . S
O189 Dy184 2.395 . S
O189 C206 1.255 . S
O190 Dy184 2.379 . S
O190 C206 1.249 . S
O191 Dy185 2.275 . S
O191 C207 1.254 . S
O192 Dy184 2.339 . S
O192 C207 1.257 . S
O193 Dy185 2.307 . S
O193 C208 1.266 . S
O194 Dy184 2.298 . S
O194 C208 1.236 . S
O195 Dy185 2.395 . S
O195 C215 1.255 . S
O196 Dy185 2.379 . S
O196 C215 1.249 . S
C197 O187 1.266 . S
C197 O188 1.236 . S
O198 Dy184 2.275 . S
O198 C186 1.254 . S
O199 Dy185 2.339 . S
O199 C186 1.257 . S
C200 C203 1.344 . S
C200 C204 1.328 . S
C200 C206 1.516 . S
C201 C202 1.304 . S
C201 C205 1.323 . S
C202 C201 1.304 . S
C202 C203 1.371 . S
C202 H216 0.930 . S
C203 C200 1.344 . S
C203 C202 1.371 . S
C203 H217 0.931 . S
C204 C200 1.328 . S
C204 C205 1.433 . S
C204 H218 0.931 . S
C205 C201 1.323 . S
C205 C204 1.433 . S
C205 H219 0.933 . S
C206 Dy184 2.738 . S
C206 O189 1.255 . S
C206 O190 1.249 . S
C206 C200 1.516 . S
C207 O191 1.254 . S
C207 O192 1.257 . S
C208 O193 1.266 . S
C208 O194 1.236 . S
C209 C212 1.344 . S
C209 C213 1.328 . S
C209 C215 1.516 . S
C210 C211 1.304 . S
C210 C214 1.323 . S
C211 C210 1.304 . S
C211 C212 1.371 . S
C211 H220 0.930 . S
C212 C209 1.344 . S
C212 C211 1.371 . S
C212 H221 0.931 . S
C213 C209 1.328 . S
C213 C214 1.433 . S
C213 H222 0.931 . S
C214 C210 1.323 . S
C214 C213 1.433 . S
C214 H223 0.933 . S
C215 Dy185 2.738 . S
C215 O195 1.255 . S
C215 O196 1.249 . S
C215 C209 1.516 . S
H216 C202 0.930 . S
H217 C203 0.931 . S
H218 C204 0.931 . S
H219 C205 0.933 . S
H220 C211 0.930 . S
H221 C212 0.931 . S
H222 C213 0.931 . S
H223 C214 0.933 . S
Dy224 O227 2.307 . S
Dy224 O229 2.395 1_455 S
Dy224 O230 2.379 1_454 S
Dy224 O232 2.339 1_554 S
Dy224 O234 2.298 1_455 S
Dy224 O238 2.275 . S
Dy224 C246 2.738 1_454 S
Dy225 O228 2.298 . S
Dy225 O231 2.275 . S
Dy225 O233 2.307 1_455 S
Dy225 O235 2.395 . S
Dy225 O236 2.379 . S
Dy225 O239 2.339 1_455 S
Dy225 C255 2.738 . S
C226 O238 1.254 1_655 S
C226 O239 1.257 . S
O227 Dy224 2.307 . S
O227 C237 1.266 . S
O228 Dy225 2.298 . S
O228 C237 1.236 . S
O229 Dy224 2.395 1_655 S
O229 C246 1.255 1_554 S
O230 Dy224 2.379 1_656 S
O230 C246 1.249 . S
O231 Dy225 2.275 . S
O231 C247 1.254 1_554 S
O232 Dy224 2.339 1_556 S
O232 C247 1.257 . S
O233 Dy225 2.307 1_655 S
O233 C248 1.266 . S
O234 Dy224 2.298 1_655 S
O234 C248 1.236 . S
O235 Dy225 2.395 . S
O235 C255 1.255 . S
O236 Dy225 2.379 . S
O236 C255 1.249 . S
C237 O227 1.266 . S
C237 O228 1.236 . S
O238 Dy224 2.275 . S
O238 C226 1.254 1_455 S
O239 Dy225 2.339 1_655 S
O239 C226 1.257 . S
C240 C243 1.344 . S
C240 C244 1.328 . S
C240 C246 1.516 . S
C241 C242 1.304 . S
C241 C245 1.323 . S
C242 C241 1.304 . S
C242 C243 1.371 . S
C242 H256 0.930 . S
C243 C240 1.344 . S
C243 C242 1.371 . S
C243 H257 0.931 1_556 S
C244 C240 1.328 . S
C244 C245 1.433 . S
C244 H258 0.931 . S
C245 C241 1.323 . S
C245 C244 1.433 . S
C245 H259 0.933 . S
C246 Dy224 2.738 1_656 S
C246 O229 1.255 1_556 S
C246 O230 1.249 . S
C246 C240 1.516 . S
C247 O231 1.254 1_556 S
C247 O232 1.257 . S
C248 O233 1.266 . S
C248 O234 1.236 . S
C249 C252 1.344 . S
C249 C253 1.328 . S
C249 C255 1.516 . S
C250 C251 1.304 . S
C250 C254 1.323 . S
C251 C250 1.304 . S
C251 C252 1.371 . S
C251 H260 0.930 . S
C252 C249 1.344 . S
C252 C251 1.371 . S
C252 H261 0.931 . S
C253 C249 1.328 . S
C253 C254 1.433 . S
C253 H262 0.931 . S
C254 C250 1.323 . S
C254 C253 1.433 . S
C254 H263 0.933 . S
C255 Dy225 2.738 . S
C255 O235 1.255 . S
C255 O236 1.249 . S
C255 C249 1.516 . S
H256 C242 0.930 . S
H257 C243 0.931 1_554 S
H258 C244 0.931 . S
H259 C245 0.933 . S
H260 C251 0.930 . S
H261 C252 0.931 . S
H262 C253 0.931 . S
H263 C254 0.933 . S
C264 C265 1.391 . S
C264 C266 1.394 . S
C264 H280 0.931 . S
C265 C264 1.391 . S
C265 C269 1.376 . S
C266 C264 1.394 . S
C266 C267 1.369 . S
C266 C270 1.531 . S
C267 C266 1.369 . S
C267 C268 1.410 . S
C267 C275 1.503 . S
C268 C267 1.410 . S
C268 C269 1.392 . S
C268 C271 1.511 . S
C269 C265 1.376 . S
C269 C268 1.392 . S
C269 H281 0.929 . S
C270 C266 1.531 . S
C270 H282 0.960 . S
C270 H283 0.962 . S
C270 H284 0.960 . S
C271 C268 1.511 . S
C271 H285 0.961 . S
C271 H286 0.961 . S
C271 H287 0.961 . S
C272 C273 1.370 . S
C272 C274 1.363 . S
C272 H288 0.931 . S
C273 C272 1.370 . S
C273 C277 1.408 . S
C274 C272 1.363 . S
C274 C275 1.370 . S
C274 C278 1.524 . S
C275 C267 1.503 . S
C275 C274 1.370 . S
C275 C276 1.403 . S
C276 C275 1.403 . S
C276 C277 1.404 . S
C276 C279 1.539 . S
C277 C273 1.408 . S
C277 C276 1.404 . S
C277 H289 0.930 . S
C278 C274 1.524 . S
C278 H290 0.956 . S
C278 H291 0.961 . S
C278 H292 0.961 . S
C279 C276 1.539 . S
C279 H293 0.958 . S
C279 H294 0.961 . S
C279 H295 0.960 . S
H280 C264 0.931 . S
H281 C269 0.929 . S
H282 C270 0.960 . S
H283 C270 0.962 . S
H284 C270 0.960 . S
H285 C271 0.961 . S
H286 C271 0.961 . S
H287 C271 0.961 . S
H288 C272 0.931 . S
H289 C277 0.930 . S
H290 C278 0.956 . S
H291 C278 0.961 . S
H292 C278 0.961 . S
H293 C279 0.958 . S
H294 C279 0.961 . S
H295 C279 0.960 . S
C296 C297 1.391 . S
C296 C298 1.394 . S
C296 H312 0.931 . S
C297 C296 1.391 . S
C297 C301 1.376 . S
C298 C296 1.394 . S
C298 C299 1.369 . S
C298 C302 1.531 . S
C299 C298 1.369 . S
C299 C300 1.410 . S
C299 C307 1.503 . S
C300 C299 1.410 . S
C300 C301 1.392 . S
C300 C303 1.511 . S
C301 C297 1.376 . S
C301 C300 1.392 . S
C301 H313 0.929 . S
C302 C298 1.531 . S
C302 H314 0.960 . S
C302 H315 0.962 . S
C302 H316 0.960 . S
C303 C300 1.511 . S
C303 H317 0.961 . S
C303 H318 0.961 . S
C303 H319 0.961 . S
C304 C305 1.370 . S
C304 C306 1.363 . S
C304 H320 0.931 . S
C305 C304 1.370 . S
C305 C309 1.408 . S
C306 C304 1.363 . S
C306 C307 1.370 . S
C306 C310 1.524 . S
C307 C299 1.503 . S
C307 C306 1.370 . S
C307 C308 1.403 . S
C308 C307 1.403 . S
C308 C309 1.404 . S
C308 C311 1.539 . S
C309 C305 1.408 . S
C309 C308 1.404 . S
C309 H321 0.930 . S
C310 C306 1.524 . S
C310 H322 0.956 . S
C310 H323 0.961 . S
C310 H324 0.961 . S
C311 C308 1.539 . S
C311 H325 0.958 . S
C311 H326 0.961 . S
C311 H327 0.960 . S
H312 C296 0.931 . S
H313 C301 0.929 . S
H314 C302 0.960 . S
H315 C302 0.962 . S
H316 C302 0.960 . S
H317 C303 0.961 . S
H318 C303 0.961 . S
H319 C303 0.961 . S
H320 C304 0.931 . S
H321 C309 0.930 . S
H322 C310 0.956 . S
H323 C310 0.961 . S
H324 C310 0.961 . S
H325 C311 0.958 . S
H326 C311 0.961 . S
H327 C311 0.960 . S
C328 C329 1.391 . S
C328 C330 1.394 . S
C328 H344 0.931 . S
C329 C328 1.391 . S
C329 C333 1.376 . S
C330 C328 1.394 . S
C330 C331 1.369 . S
C330 C334 1.531 . S
C331 C330 1.369 . S
C331 C332 1.410 . S
C331 C339 1.503 . S
C332 C331 1.410 . S
C332 C333 1.392 . S
C332 C335 1.511 . S
C333 C329 1.376 . S
C333 C332 1.392 . S
C333 H345 0.929 . S
C334 C330 1.531 . S
C334 H346 0.960 . S
C334 H347 0.962 . S
C334 H348 0.960 . S
C335 C332 1.511 . S
C335 H349 0.961 . S
C335 H350 0.961 . S
C335 H351 0.961 . S
C336 C337 1.370 . S
C336 C338 1.363 . S
C336 H352 0.931 . S
C337 C336 1.370 . S
C337 C341 1.408 . S
C338 C336 1.363 . S
C338 C339 1.370 . S
C338 C342 1.524 . S
C339 C331 1.503 . S
C339 C338 1.370 . S
C339 C340 1.403 . S
C340 C339 1.403 . S
C340 C341 1.404 . S
C340 C343 1.539 . S
C341 C337 1.408 . S
C341 C340 1.404 . S
C341 H353 0.930 . S
C342 C338 1.524 . S
C342 H354 0.956 . S
C342 H355 0.961 . S
C342 H356 0.961 . S
C343 C340 1.539 . S
C343 H357 0.958 . S
C343 H358 0.961 . S
C343 H359 0.960 . S
H344 C328 0.931 . S
H345 C333 0.929 . S
H346 C334 0.960 . S
H347 C334 0.962 . S
H348 C334 0.960 . S
H349 C335 0.961 . S
H350 C335 0.961 . S
H351 C335 0.961 . S
H352 C336 0.931 . S
H353 C341 0.930 . S
H354 C342 0.956 . S
H355 C342 0.961 . S
H356 C342 0.961 . S
H357 C343 0.958 . S
H358 C343 0.961 . S
H359 C343 0.960 . S
C360 C361 1.391 . S
C360 C362 1.394 . S
C360 H376 0.931 . S
C361 C360 1.391 . S
C361 C365 1.376 . S
C362 C360 1.394 . S
C362 C363 1.369 . S
C362 C366 1.531 . S
C363 C362 1.369 . S
C363 C364 1.410 . S
C363 C371 1.503 . S
C364 C363 1.410 . S
C364 C365 1.392 . S
C364 C367 1.511 1_655 S
C365 C361 1.376 . S
C365 C364 1.392 . S
C365 H377 0.929 . S
C366 C362 1.531 . S
C366 H378 0.960 . S
C366 H379 0.962 . S
C366 H380 0.960 . S
C367 C364 1.511 1_455 S
C367 H381 0.961 . S
C367 H382 0.961 . S
C367 H383 0.961 . S
C368 C369 1.370 . S
C368 C370 1.363 . S
C368 H384 0.931 . S
C369 C368 1.370 . S
C369 C373 1.408 . S
C370 C368 1.363 . S
C370 C371 1.370 . S
C370 C374 1.524 . S
C371 C363 1.503 . S
C371 C370 1.370 . S
C371 C372 1.403 . S
C372 C371 1.403 . S
C372 C373 1.404 . S
C372 C375 1.539 . S
C373 C369 1.408 . S
C373 C372 1.404 . S
C373 H385 0.930 . S
C374 C370 1.524 . S
C374 H386 0.956 . S
C374 H387 0.961 . S
C374 H388 0.961 . S
C375 C372 1.539 . S
C375 H389 0.958 . S
C375 H390 0.961 1_655 S
C375 H391 0.960 . S
H376 C360 0.931 . S
H377 C365 0.929 . S
H378 C366 0.960 . S
H379 C366 0.962 . S
H380 C366 0.960 . S
H381 C367 0.961 . S
H382 C367 0.961 . S
H383 C367 0.961 . S
H384 C368 0.931 . S
H385 C373 0.930 . S
H386 C374 0.956 . S
H387 C374 0.961 . S
H388 C374 0.961 . S
H389 C375 0.958 . S
H390 C375 0.961 1_455 S
H391 C375 0.960 . S
C392 C393 1.391 . S
C392 C394 1.394 . S
C392 H408 0.931 . S
C393 C392 1.391 . S
C393 C397 1.376 . S
C394 C392 1.394 . S
C394 C395 1.369 . S
C394 C398 1.531 . S
C395 C394 1.369 . S
C395 C396 1.410 . S
C395 C403 1.503 . S
C396 C395 1.410 . S
C396 C397 1.392 . S
C396 C399 1.511 . S
C397 C393 1.376 . S
C397 C396 1.392 . S
C397 H409 0.929 . S
C398 C394 1.531 . S
C398 H410 0.960 . S
C398 H411 0.962 . S
C398 H412 0.960 . S
C399 C396 1.511 . S
C399 H413 0.961 . S
C399 H414 0.961 . S
C399 H415 0.961 . S
C400 C401 1.370 . S
C400 C402 1.363 . S
C400 H416 0.931 . S
C401 C400 1.370 . S
C401 C405 1.408 . S
C402 C400 1.363 . S
C402 C403 1.370 . S
C402 C406 1.524 . S
C403 C395 1.503 . S
C403 C402 1.370 . S
C403 C404 1.403 . S
C404 C403 1.403 . S
C404 C405 1.404 . S
C404 C407 1.539 . S
C405 C401 1.408 . S
C405 C404 1.404 . S
C405 H417 0.930 . S
C406 C402 1.524 . S
C406 H418 0.956 . S
C406 H419 0.961 . S
C406 H420 0.961 . S
C407 C404 1.539 . S
C407 H421 0.958 . S
C407 H422 0.961 . S
C407 H423 0.960 . S
H408 C392 0.931 . S
H409 C397 0.929 . S
H410 C398 0.960 . S
H411 C398 0.962 . S
H412 C398 0.960 . S
H413 C399 0.961 . S
H414 C399 0.961 . S
H415 C399 0.961 . S
H416 C400 0.931 . S
H417 C405 0.930 . S
H418 C406 0.956 . S
H419 C406 0.961 . S
H420 C406 0.961 . S
H421 C407 0.958 . S
H422 C407 0.961 . S
H423 C407 0.960 . S
C424 C425 1.391 . S
C424 C426 1.394 . S
C424 H440 0.931 . S
C425 C424 1.391 . S
C425 C429 1.376 . S
C426 C424 1.394 . S
C426 C427 1.369 . S
C426 C430 1.531 . S
C427 C426 1.369 . S
C427 C428 1.410 . S
C427 C435 1.503 . S
C428 C427 1.410 . S
C428 C429 1.392 . S
C428 C431 1.511 . S
C429 C425 1.376 . S
C429 C428 1.392 . S
C429 H441 0.929 . S
C430 C426 1.531 . S
C430 H442 0.960 . S
C430 H443 0.962 . S
C430 H444 0.960 . S
C431 C428 1.511 . S
C431 H445 0.961 . S
C431 H446 0.961 . S
C431 H447 0.961 . S
C432 C433 1.370 . S
C432 C434 1.363 . S
C432 H448 0.931 . S
C433 C432 1.370 . S
C433 C437 1.408 . S
C434 C432 1.363 . S
C434 C435 1.370 . S
C434 C438 1.524 . S
C435 C427 1.503 . S
C435 C434 1.370 . S
C435 C436 1.403 . S
C436 C435 1.403 . S
C436 C437 1.404 . S
C436 C439 1.539 . S
C437 C433 1.408 . S
C437 C436 1.404 . S
C437 H449 0.930 . S
C438 C434 1.524 . S
C438 H450 0.956 . S
C438 H451 0.961 . S
C438 H452 0.961 . S
C439 C436 1.539 . S
C439 H453 0.958 . S
C439 H454 0.961 . S
C439 H455 0.960 . S
H440 C424 0.931 . S
H441 C429 0.929 . S
H442 C430 0.960 . S
H443 C430 0.962 . S
H444 C430 0.960 . S
H445 C431 0.961 . S
H446 C431 0.961 . S
H447 C431 0.961 . S
H448 C432 0.931 . S
H449 C437 0.930 . S
H450 C438 0.956 . S
H451 C438 0.961 . S
H452 C438 0.961 . S
H453 C439 0.958 . S
H454 C439 0.961 . S
H455 C439 0.960 . S
C456 C457 1.391 . S
C456 C458 1.394 . S
C456 H472 0.931 . S
C457 C456 1.391 . S
C457 C461 1.376 . S
C458 C456 1.394 . S
C458 C459 1.369 . S
C458 C462 1.531 . S
C459 C458 1.369 . S
C459 C460 1.410 . S
C459 C467 1.503 . S
C460 C459 1.410 . S
C460 C461 1.392 . S
C460 C463 1.511 . S
C461 C457 1.376 . S
C461 C460 1.392 . S
C461 H473 0.929 . S
C462 C458 1.531 . S
C462 H474 0.960 . S
C462 H475 0.962 . S
C462 H476 0.960 . S
C463 C460 1.511 . S
C463 H477 0.961 . S
C463 H478 0.961 . S
C463 H479 0.961 . S
C464 C465 1.370 1_556 S
C464 C466 1.363 . S
C464 H480 0.931 . S
C465 C464 1.370 1_554 S
C465 C469 1.408 . S
C466 C464 1.363 . S
C466 C467 1.370 . S
C466 C470 1.524 . S
C467 C459 1.503 . S
C467 C466 1.370 . S
C467 C468 1.403 . S
C468 C467 1.403 . S
C468 C469 1.404 1_556 S
C468 C471 1.539 . S
C469 C465 1.408 . S
C469 C468 1.404 1_554 S
C469 H481 0.930 . S
C470 C466 1.524 . S
C470 H482 0.956 . S
C470 H483 0.961 . S
C470 H484 0.961 . S
C471 C468 1.539 . S
C471 H485 0.958 1_556 S
C471 H486 0.961 1_556 S
C471 H487 0.960 . S
H472 C456 0.931 . S
H473 C461 0.929 . S
H474 C462 0.960 . S
H475 C462 0.962 . S
H476 C462 0.960 . S
H477 C463 0.961 . S
H478 C463 0.961 . S
H479 C463 0.961 . S
H480 C464 0.931 . S
H481 C469 0.930 . S
H482 C470 0.956 . S
H483 C470 0.961 . S
H484 C470 0.961 . S
H485 C471 0.958 1_554 S
H486 C471 0.961 1_554 S
H487 C471 0.960 . S
C488 C489 1.391 . S
C488 C490 1.394 . S
C488 H504 0.931 . S
C489 C488 1.391 . S
C489 C493 1.376 . S
C490 C488 1.394 . S
C490 C491 1.369 . S
C490 C494 1.531 . S
C491 C490 1.369 . S
C491 C492 1.410 . S
C491 C499 1.503 . S
C492 C491 1.410 . S
C492 C493 1.392 . S
C492 C495 1.511 . S
C493 C489 1.376 . S
C493 C492 1.392 . S
C493 H505 0.929 . S
C494 C490 1.531 . S
C494 H506 0.960 . S
C494 H507 0.962 . S
C494 H508 0.960 . S
C495 C492 1.511 . S
C495 H509 0.961 . S
C495 H510 0.961 . S
C495 H511 0.961 . S
C496 C497 1.370 . S
C496 C498 1.363 . S
C496 H512 0.931 . S
C497 C496 1.370 . S
C497 C501 1.408 . S
C498 C496 1.363 . S
C498 C499 1.370 . S
C498 C502 1.524 . S
C499 C491 1.503 . S
C499 C498 1.370 . S
C499 C500 1.403 . S
C500 C499 1.403 . S
C500 C501 1.404 . S
C500 C503 1.539 . S
C501 C497 1.408 . S
C501 C500 1.404 . S
C501 H513 0.930 . S
C502 C498 1.524 . S
C502 H514 0.956 . S
C502 H515 0.961 . S
C502 H516 0.961 . S
C503 C500 1.539 . S
C503 H517 0.958 . S
C503 H518 0.961 . S
C503 H519 0.960 . S
H504 C488 0.931 . S
H505 C493 0.929 . S
H506 C494 0.960 . S
H507 C494 0.962 . S
H508 C494 0.960 . S
H509 C495 0.961 . S
H510 C495 0.961 . S
H511 C495 0.961 . S
H512 C496 0.931 . S
H513 C501 0.930 . S
H514 C502 0.956 . S
H515 C502 0.961 . S
H516 C502 0.961 . S
H517 C503 0.958 . S
H518 C503 0.961 . S
H519 C503 0.960 . S
C520 C521 1.391 . S
C520 C522 1.394 . S
C520 H536 0.931 . S
C521 C520 1.391 . S
C521 C525 1.376 . S
C522 C520 1.394 . S
C522 C523 1.369 . S
C522 C526 1.531 . S
C523 C522 1.369 . S
C523 C524 1.410 . S
C523 C531 1.503 . S
C524 C523 1.410 . S
C524 C525 1.392 . S
C524 C527 1.511 . S
C525 C521 1.376 . S
C525 C524 1.392 . S
C525 H537 0.929 . S
C526 C522 1.531 . S
C526 H538 0.960 . S
C526 H539 0.962 . S
C526 H540 0.960 . S
C527 C524 1.511 . S
C527 H541 0.961 . S
C527 H542 0.961 . S
C527 H543 0.961 . S
C528 C529 1.370 . S
C528 C530 1.363 . S
C528 H544 0.931 . S
C529 C528 1.370 . S
C529 C533 1.408 . S
C530 C528 1.363 . S
C530 C531 1.370 . S
C530 C534 1.524 . S
C531 C523 1.503 . S
C531 C530 1.370 . S
C531 C532 1.403 . S
C532 C531 1.403 . S
C532 C533 1.404 . S
C532 C535 1.539 . S
C533 C529 1.408 . S
C533 C532 1.404 . S
C533 H545 0.930 . S
C534 C530 1.524 . S
C534 H546 0.956 . S
C534 H547 0.961 . S
C534 H548 0.961 . S
C535 C532 1.539 . S
C535 H549 0.958 . S
C535 H550 0.961 . S
C535 H551 0.960 . S
H536 C520 0.931 . S
H537 C525 0.929 . S
H538 C526 0.960 . S
H539 C526 0.962 . S
H540 C526 0.960 . S
H541 C527 0.961 . S
H542 C527 0.961 . S
H543 C527 0.961 . S
H544 C528 0.931 . S
H545 C533 0.930 . S
H546 C534 0.956 . S
H547 C534 0.961 . S
H548 C534 0.961 . S
H549 C535 0.958 . S
H550 C535 0.961 . S
H551 C535 0.960 . S
C552 C553 1.391 . S
C552 C554 1.394 . S
C552 H568 0.931 . S
C553 C552 1.391 . S
C553 C557 1.376 . S
C554 C552 1.394 . S
C554 C555 1.369 . S
C554 C558 1.531 . S
C555 C554 1.369 . S
C555 C556 1.410 . S
C555 C563 1.503 . S
C556 C555 1.410 . S
C556 C557 1.392 . S
C556 C559 1.511 . S
C557 C553 1.376 . S
C557 C556 1.392 . S
C557 H569 0.929 . S
C558 C554 1.531 . S
C558 H570 0.960 . S
C558 H571 0.962 . S
C558 H572 0.960 . S
C559 C556 1.511 . S
C559 H573 0.961 . S
C559 H574 0.961 . S
C559 H575 0.961 . S
C560 C561 1.370 . S
C560 C562 1.363 . S
C560 H576 0.931 . S
C561 C560 1.370 . S
C561 C565 1.408 . S
C562 C560 1.363 . S
C562 C563 1.370 . S
C562 C566 1.524 . S
C563 C555 1.503 . S
C563 C562 1.370 . S
C563 C564 1.403 . S
C564 C563 1.403 . S
C564 C565 1.404 . S
C564 C567 1.539 . S
C565 C561 1.408 . S
C565 C564 1.404 . S
C565 H577 0.930 . S
C566 C562 1.524 . S
C566 H578 0.956 . S
C566 H579 0.961 . S
C566 H580 0.961 . S
C567 C564 1.539 . S
C567 H581 0.958 . S
C567 H582 0.961 . S
C567 H583 0.960 . S
H568 C552 0.931 . S
H569 C557 0.929 . S
H570 C558 0.960 . S
H571 C558 0.962 . S
H572 C558 0.960 . S
H573 C559 0.961 . S
H574 C559 0.961 . S
H575 C559 0.961 . S
H576 C560 0.931 . S
H577 C565 0.930 . S
H578 C566 0.956 . S
H579 C566 0.961 . S
H580 C566 0.961 . S
H581 C567 0.958 . S
H582 C567 0.961 . S
H583 C567 0.960 . S
C584 C585 1.391 . S
C584 C586 1.394 . S
C584 H600 0.931 . S
C585 C584 1.391 . S
C585 C589 1.376 . S
C586 C584 1.394 . S
C586 C587 1.369 . S
C586 C590 1.531 . S
C587 C586 1.369 . S
C587 C588 1.410 . S
C587 C595 1.503 . S
C588 C587 1.410 . S
C588 C589 1.392 . S
C588 C591 1.511 1_655 S
C589 C585 1.376 . S
C589 C588 1.392 . S
C589 H601 0.929 . S
C590 C586 1.531 . S
C590 H602 0.960 . S
C590 H603 0.962 . S
C590 H604 0.960 . S
C591 C588 1.511 1_455 S
C591 H605 0.961 . S
C591 H606 0.961 . S
C591 H607 0.961 . S
C592 C593 1.370 . S
C592 C594 1.363 . S
C592 H608 0.931 . S
C593 C592 1.370 . S
C593 C597 1.408 . S
C594 C592 1.363 . S
C594 C595 1.370 . S
C594 C598 1.524 . S
C595 C587 1.503 . S
C595 C594 1.370 . S
C595 C596 1.403 . S
C596 C595 1.403 . S
C596 C597 1.404 . S
C596 C599 1.539 . S
C597 C593 1.408 . S
C597 C596 1.404 . S
C597 H609 0.930 . S
C598 C594 1.524 . S
C598 H610 0.956 . S
C598 H611 0.961 . S
C598 H612 0.961 . S
C599 C596 1.539 . S
C599 H613 0.958 . S
C599 H614 0.961 . S
C599 H615 0.960 . S
H600 C584 0.931 . S
H601 C589 0.929 . S
H602 C590 0.960 . S
H603 C590 0.962 . S
H604 C590 0.960 . S
H605 C591 0.961 . S
H606 C591 0.961 . S
H607 C591 0.961 . S
H608 C592 0.931 . S
H609 C597 0.930 . S
H610 C598 0.956 . S
H611 C598 0.961 . S
H612 C598 0.961 . S
H613 C599 0.958 . S
H614 C599 0.961 . S
H615 C599 0.960 . S
C616 C617 1.391 . S
C616 C618 1.394 . S
C616 H632 0.931 . S
C617 C616 1.391 . S
C617 C621 1.376 . S
C618 C616 1.394 . S
C618 C619 1.369 . S
C618 C622 1.531 . S
C619 C618 1.369 . S
C619 C620 1.410 . S
C619 C627 1.503 . S
C620 C619 1.410 . S
C620 C621 1.392 . S
C620 C623 1.511 . S
C621 C617 1.376 . S
C621 C620 1.392 . S
C621 H633 0.929 . S
C622 C618 1.531 . S
C622 H634 0.960 . S
C622 H635 0.962 . S
C622 H636 0.960 . S
C623 C620 1.511 . S
C623 H637 0.961 . S
C623 H638 0.961 . S
C623 H639 0.961 . S
C624 C625 1.370 . S
C624 C626 1.363 . S
C624 H640 0.931 . S
C625 C624 1.370 . S
C625 C629 1.408 . S
C626 C624 1.363 . S
C626 C627 1.370 . S
C626 C630 1.524 . S
C627 C619 1.503 . S
C627 C626 1.370 . S
C627 C628 1.403 . S
C628 C627 1.403 . S
C628 C629 1.404 . S
C628 C631 1.539 . S
C629 C625 1.408 . S
C629 C628 1.404 . S
C629 H641 0.930 . S
C630 C626 1.524 . S
C630 H642 0.956 . S
C630 H643 0.961 . S
C630 H644 0.961 . S
C631 C628 1.539 . S
C631 H645 0.958 . S
C631 H646 0.961 . S
C631 H647 0.960 . S
H632 C616 0.931 . S
H633 C621 0.929 . S
H634 C622 0.960 . S
H635 C622 0.962 . S
H636 C622 0.960 . S
H637 C623 0.961 . S
H638 C623 0.961 . S
H639 C623 0.961 . S
H640 C624 0.931 . S
H641 C629 0.930 . S
H642 C630 0.956 . S
H643 C630 0.961 . S
H644 C630 0.961 . S
H645 C631 0.958 . S
H646 C631 0.961 . S
H647 C631 0.960 . S
C648 C649 1.391 . S
C648 C650 1.394 . S
C648 H664 0.931 . S
C649 C648 1.391 . S
C649 C653 1.376 . S
C650 C648 1.394 . S
C650 C651 1.369 . S
C650 C654 1.531 . S
C651 C650 1.369 . S
C651 C652 1.410 . S
C651 C659 1.503 . S
C652 C651 1.410 . S
C652 C653 1.392 . S
C652 C655 1.511 . S
C653 C649 1.376 . S
C653 C652 1.392 . S
C653 H665 0.929 . S
C654 C650 1.531 . S
C654 H666 0.960 . S
C654 H667 0.962 . S
C654 H668 0.960 . S
C655 C652 1.511 . S
C655 H669 0.961 . S
C655 H670 0.961 . S
C655 H671 0.961 . S
C656 C657 1.370 . S
C656 C658 1.363 . S
C656 H672 0.931 . S
C657 C656 1.370 . S
C657 C661 1.408 . S
C658 C656 1.363 . S
C658 C659 1.370 . S
C658 C662 1.524 . S
C659 C651 1.503 . S
C659 C658 1.370 . S
C659 C660 1.403 . S
C660 C659 1.403 . S
C660 C661 1.404 . S
C660 C663 1.539 . S
C661 C657 1.408 . S
C661 C660 1.404 . S
C661 H673 0.930 . S
C662 C658 1.524 . S
C662 H674 0.956 . S
C662 H675 0.961 . S
C662 H676 0.961 . S
C663 C660 1.539 . S
C663 H677 0.958 . S
C663 H678 0.961 . S
C663 H679 0.960 . S
H664 C648 0.931 . S
H665 C653 0.929 . S
H666 C654 0.960 . S
H667 C654 0.962 . S
H668 C654 0.960 . S
H669 C655 0.961 . S
H670 C655 0.961 . S
H671 C655 0.961 . S
H672 C656 0.931 . S
H673 C661 0.930 . S
H674 C662 0.956 . S
H675 C662 0.961 . S
H676 C662 0.961 . S
H677 C663 0.958 . S
H678 C663 0.961 . S
H679 C663 0.960 . S
C680 C681 1.391 . S
C680 C682 1.394 . S
C680 H696 0.931 . S
C681 C680 1.391 . S
C681 C685 1.376 . S
C682 C680 1.394 . S
C682 C683 1.369 . S
C682 C686 1.531 . S
C683 C682 1.369 . S
C683 C684 1.410 . S
C683 C691 1.503 . S
C684 C683 1.410 . S
C684 C685 1.392 . S
C684 C687 1.511 . S
C685 C681 1.376 . S
C685 C684 1.392 . S
C685 H697 0.929 . S
C686 C682 1.531 . S
C686 H698 0.960 . S
C686 H699 0.962 . S
C686 H700 0.960 . S
C687 C684 1.511 . S
C687 H701 0.961 . S
C687 H702 0.961 . S
C687 H703 0.961 . S
C688 C689 1.370 . S
C688 C690 1.363 . S
C688 H704 0.931 . S
C689 C688 1.370 . S
C689 C693 1.408 . S
C690 C688 1.363 . S
C690 C691 1.370 . S
C690 C694 1.524 . S
C691 C683 1.503 . S
C691 C690 1.370 . S
C691 C692 1.403 . S
C692 C691 1.403 . S
C692 C693 1.404 . S
C692 C695 1.539 . S
C693 C689 1.408 . S
C693 C692 1.404 . S
C693 H705 0.930 . S
C694 C690 1.524 . S
C694 H706 0.956 . S
C694 H707 0.961 . S
C694 H708 0.961 . S
C695 C692 1.539 . S
C695 H709 0.958 . S
C695 H710 0.961 . S
C695 H711 0.960 . S
H696 C680 0.931 . S
H697 C685 0.929 . S
H698 C686 0.960 . S
H699 C686 0.962 . S
H700 C686 0.960 . S
H701 C687 0.961 . S
H702 C687 0.961 . S
H703 C687 0.961 . S
H704 C688 0.931 . S
H705 C693 0.930 . S
H706 C694 0.956 . S
H707 C694 0.961 . S
H708 C694 0.961 . S
H709 C695 0.958 . S
H710 C695 0.961 . S
H711 C695 0.960 . S
C712 C713 1.391 . S
C712 C714 1.394 . S
C712 H728 0.931 . S
C713 C712 1.391 . S
C713 C717 1.376 . S
C714 C712 1.394 . S
C714 C715 1.369 . S
C714 C718 1.531 . S
C715 C714 1.369 . S
C715 C716 1.410 . S
C715 C723 1.503 . S
C716 C715 1.410 . S
C716 C717 1.392 . S
C716 C719 1.511 . S
C717 C713 1.376 . S
C717 C716 1.392 . S
C717 H729 0.929 . S
C718 C714 1.531 . S
C718 H730 0.960 . S
C718 H731 0.962 . S
C718 H732 0.960 . S
C719 C716 1.511 . S
C719 H733 0.961 . S
C719 H734 0.961 . S
C719 H735 0.961 . S
C720 C721 1.370 . S
C720 C722 1.363 . S
C720 H736 0.931 . S
C721 C720 1.370 . S
C721 C725 1.408 . S
C722 C720 1.363 . S
C722 C723 1.370 . S
C722 C726 1.524 . S
C723 C715 1.503 . S
C723 C722 1.370 . S
C723 C724 1.403 . S
C724 C723 1.403 . S
C724 C725 1.404 . S
C724 C727 1.539 . S
C725 C721 1.408 . S
C725 C724 1.404 . S
C725 H737 0.930 . S
C726 C722 1.524 . S
C726 H738 0.956 . S
C726 H739 0.961 . S
C726 H740 0.961 . S
C727 C724 1.539 . S
C727 H741 0.958 . S
C727 H742 0.961 . S
C727 H743 0.960 . S
H728 C712 0.931 . S
H729 C717 0.929 . S
H730 C718 0.960 . S
H731 C718 0.962 . S
H732 C718 0.960 . S
H733 C719 0.961 . S
H734 C719 0.961 . S
H735 C719 0.961 . S
H736 C720 0.931 . S
H737 C725 0.930 . S
H738 C726 0.956 . S
H739 C726 0.961 . S
H740 C726 0.961 . S
H741 C727 0.958 . S
H742 C727 0.961 . S
H743 C727 0.960 . S
C744 C745 1.391 . S
C744 C746 1.394 . S
C744 H760 0.931 . S
C745 C744 1.391 . S
C745 C749 1.376 . S
C746 C744 1.394 . S
C746 C747 1.369 . S
C746 C750 1.531 . S
C747 C746 1.369 . S
C747 C748 1.410 . S
C747 C755 1.503 . S
C748 C747 1.410 . S
C748 C749 1.392 . S
C748 C751 1.511 . S
C749 C745 1.376 . S
C749 C748 1.392 . S
C749 H761 0.929 . S
C750 C746 1.531 . S
C750 H762 0.960 . S
C750 H763 0.962 . S
C750 H764 0.960 . S
C751 C748 1.511 . S
C751 H765 0.961 . S
C751 H766 0.961 . S
C751 H767 0.961 . S
C752 C753 1.370 . S
C752 C754 1.363 . S
C752 H768 0.931 . S
C753 C752 1.370 . S
C753 C757 1.408 . S
C754 C752 1.363 . S
C754 C755 1.370 . S
C754 C758 1.524 . S
C755 C747 1.503 . S
C755 C754 1.370 . S
C755 C756 1.403 . S
C756 C755 1.403 . S
C756 C757 1.404 . S
C756 C759 1.539 . S
C757 C753 1.408 . S
C757 C756 1.404 . S
C757 H769 0.930 . S
C758 C754 1.524 . S
C758 H770 0.956 . S
C758 H771 0.961 . S
C758 H772 0.961 . S
C759 C756 1.539 . S
C759 H773 0.958 . S
C759 H774 0.961 . S
C759 H775 0.960 . S
H760 C744 0.931 . S
H761 C749 0.929 . S
H762 C750 0.960 . S
H763 C750 0.962 . S
H764 C750 0.960 . S
H765 C751 0.961 . S
H766 C751 0.961 . S
H767 C751 0.961 . S
H768 C752 0.931 . S
H769 C757 0.930 . S
H770 C758 0.956 . S
H771 C758 0.961 . S
H772 C758 0.961 . S
H773 C759 0.958 . S
H774 C759 0.961 . S
H775 C759 0.960 . S
C776 C777 1.391 . S
C776 C778 1.394 . S
C776 H792 0.931 . S
C777 C776 1.391 . S
C777 C781 1.376 . S
C778 C776 1.394 . S
C778 C779 1.369 . S
C778 C782 1.531 . S
C779 C778 1.369 . S
C779 C780 1.410 . S
C779 C787 1.503 . S
C780 C779 1.410 . S
C780 C781 1.392 . S
C780 C783 1.511 . S
C781 C777 1.376 . S
C781 C780 1.392 . S
C781 H793 0.929 . S
C782 C778 1.531 . S
C782 H794 0.960 . S
C782 H795 0.962 . S
C782 H796 0.960 . S
C783 C780 1.511 . S
C783 H797 0.961 . S
C783 H798 0.961 . S
C783 H799 0.961 . S
C784 C785 1.370 . S
C784 C786 1.363 . S
C784 H800 0.931 . S
C785 C784 1.370 . S
C785 C789 1.408 . S
C786 C784 1.363 . S
C786 C787 1.370 . S
C786 C790 1.524 . S
C787 C779 1.503 . S
C787 C786 1.370 . S
C787 C788 1.403 . S
C788 C787 1.403 . S
C788 C789 1.404 . S
C788 C791 1.539 . S
C789 C785 1.408 . S
C789 C788 1.404 . S
C789 H801 0.930 . S
C790 C786 1.524 . S
C790 H802 0.956 . S
C790 H803 0.961 . S
C790 H804 0.961 . S
C791 C788 1.539 . S
C791 H805 0.958 . S
C791 H806 0.961 . S
C791 H807 0.960 . S
H792 C776 0.931 . S
H793 C781 0.929 . S
H794 C782 0.960 . S
H795 C782 0.962 . S
H796 C782 0.960 . S
H797 C783 0.961 . S
H798 C783 0.961 . S
H799 C783 0.961 . S
H800 C784 0.931 . S
H801 C789 0.930 . S
H802 C790 0.956 . S
H803 C790 0.961 . S
H804 C790 0.961 . S
H805 C791 0.958 . S
H806 C791 0.961 . S
H807 C791 0.960 . S
C808 C809 1.391 . S
C808 C810 1.394 . S
C808 H824 0.931 . S
C809 C808 1.391 . S
C809 C813 1.376 . S
C810 C808 1.394 . S
C810 C811 1.369 . S
C810 C814 1.531 1_655 S
C811 C810 1.369 . S
C811 C812 1.410 . S
C811 C819 1.503 . S
C812 C811 1.410 . S
C812 C813 1.392 . S
C812 C815 1.511 . S
C813 C809 1.376 . S
C813 C812 1.392 . S
C813 H825 0.929 . S
C814 C810 1.531 1_455 S
C814 H826 0.960 . S
C814 H827 0.962 . S
C814 H828 0.960 . S
C815 C812 1.511 . S
C815 H829 0.961 . S
C815 H830 0.961 . S
C815 H831 0.961 . S
C816 C817 1.370 . S
C816 C818 1.363 . S
C816 H832 0.931 . S
C817 C816 1.370 . S
C817 C821 1.408 . S
C818 C816 1.363 . S
C818 C819 1.370 . S
C818 C822 1.524 . S
C819 C811 1.503 . S
C819 C818 1.370 . S
C819 C820 1.403 . S
C820 C819 1.403 . S
C820 C821 1.404 . S
C820 C823 1.539 . S
C821 C817 1.408 . S
C821 C820 1.404 . S
C821 H833 0.930 . S
C822 C818 1.524 . S
C822 H834 0.956 1_655 S
C822 H835 0.961 . S
C822 H836 0.961 . S
C823 C820 1.539 . S
C823 H837 0.958 . S
C823 H838 0.961 . S
C823 H839 0.960 . S
H824 C808 0.931 . S
H825 C813 0.929 . S
H826 C814 0.960 . S
H827 C814 0.962 . S
H828 C814 0.960 . S
H829 C815 0.961 . S
H830 C815 0.961 . S
H831 C815 0.961 . S
H832 C816 0.931 . S
H833 C821 0.930 . S
H834 C822 0.956 1_455 S
H835 C822 0.961 . S
H836 C822 0.961 . S
H837 C823 0.958 . S
H838 C823 0.961 . S
H839 C823 0.960 . S
C840 C841 1.391 . S
C840 C842 1.394 . S
C840 H856 0.931 . S
C841 C840 1.391 . S
C841 C845 1.376 . S
C842 C840 1.394 . S
C842 C843 1.369 . S
C842 C846 1.531 . S
C843 C842 1.369 . S
C843 C844 1.410 . S
C843 C851 1.503 . S
C844 C843 1.410 . S
C844 C845 1.392 . S
C844 C847 1.511 . S
C845 C841 1.376 . S
C845 C844 1.392 . S
C845 H857 0.929 . S
C846 C842 1.531 . S
C846 H858 0.960 . S
C846 H859 0.962 . S
C846 H860 0.960 . S
C847 C844 1.511 . S
C847 H861 0.961 . S
C847 H862 0.961 . S
C847 H863 0.961 . S
C848 C849 1.370 . S
C848 C850 1.363 . S
C848 H864 0.931 . S
C849 C848 1.370 . S
C849 C853 1.408 . S
C850 C848 1.363 . S
C850 C851 1.370 . S
C850 C854 1.524 . S
C851 C843 1.503 . S
C851 C850 1.370 . S
C851 C852 1.403 . S
C852 C851 1.403 . S
C852 C853 1.404 . S
C852 C855 1.539 . S
C853 C849 1.408 . S
C853 C852 1.404 . S
C853 H865 0.930 . S
C854 C850 1.524 . S
C854 H866 0.956 . S
C854 H867 0.961 . S
C854 H868 0.961 . S
C855 C852 1.539 . S
C855 H869 0.958 . S
C855 H870 0.961 . S
C855 H871 0.960 . S
H856 C840 0.931 . S
H857 C845 0.929 . S
H858 C846 0.960 . S
H859 C846 0.962 . S
H860 C846 0.960 . S
H861 C847 0.961 . S
H862 C847 0.961 . S
H863 C847 0.961 . S
H864 C848 0.931 . S
H865 C853 0.930 . S
H866 C854 0.956 . S
H867 C854 0.961 . S
H868 C854 0.961 . S
H869 C855 0.958 . S
H870 C855 0.961 . S
H871 C855 0.960 . S
C872 C873 1.391 . S
C872 C874 1.394 . S
C872 H888 0.931 . S
C873 C872 1.391 . S
C873 C877 1.376 . S
C874 C872 1.394 . S
C874 C875 1.369 . S
C874 C878 1.531 . S
C875 C874 1.369 . S
C875 C876 1.410 . S
C875 C883 1.503 . S
C876 C875 1.410 . S
C876 C877 1.392 . S
C876 C879 1.511 . S
C877 C873 1.376 . S
C877 C876 1.392 . S
C877 H889 0.929 . S
C878 C874 1.531 . S
C878 H890 0.960 . S
C878 H891 0.962 . S
C878 H892 0.960 . S
C879 C876 1.511 . S
C879 H893 0.961 . S
C879 H894 0.961 . S
C879 H895 0.961 . S
C880 C881 1.370 . S
C880 C882 1.363 . S
C880 H896 0.931 . S
C881 C880 1.370 . S
C881 C885 1.408 . S
C882 C880 1.363 . S
C882 C883 1.370 . S
C882 C886 1.524 . S
C883 C875 1.503 . S
C883 C882 1.370 . S
C883 C884 1.403 . S
C884 C883 1.403 . S
C884 C885 1.404 . S
C884 C887 1.539 . S
C885 C881 1.408 . S
C885 C884 1.404 . S
C885 H897 0.930 . S
C886 C882 1.524 . S
C886 H898 0.956 . S
C886 H899 0.961 . S
C886 H900 0.961 . S
C887 C884 1.539 . S
C887 H901 0.958 . S
C887 H902 0.961 . S
C887 H903 0.960 . S
H888 C872 0.931 . S
H889 C877 0.929 . S
H890 C878 0.960 . S
H891 C878 0.962 . S
H892 C878 0.960 . S
H893 C879 0.961 . S
H894 C879 0.961 . S
H895 C879 0.961 . S
H896 C880 0.931 . S
H897 C885 0.930 . S
H898 C886 0.956 . S
H899 C886 0.961 . S
H900 C886 0.961 . S
H901 C887 0.958 . S
H902 C887 0.961 . S
H903 C887 0.960 . S
C904 C905 1.391 . S
C904 C906 1.394 . S
C904 H920 0.931 . S
C905 C904 1.391 . S
C905 C909 1.376 . S
C906 C904 1.394 . S
C906 C907 1.369 . S
C906 C910 1.531 . S
C907 C906 1.369 . S
C907 C908 1.410 . S
C907 C915 1.503 . S
C908 C907 1.410 . S
C908 C909 1.392 . S
C908 C911 1.511 . S
C909 C905 1.376 . S
C909 C908 1.392 . S
C909 H921 0.929 . S
C910 C906 1.531 . S
C910 H922 0.960 . S
C910 H923 0.962 . S
C910 H924 0.960 . S
C911 C908 1.511 . S
C911 H925 0.961 . S
C911 H926 0.961 . S
C911 H927 0.961 . S
C912 C913 1.370 . S
C912 C914 1.363 . S
C912 H928 0.931 . S
C913 C912 1.370 . S
C913 C917 1.408 . S
C914 C912 1.363 . S
C914 C915 1.370 . S
C914 C918 1.524 . S
C915 C907 1.503 . S
C915 C914 1.370 . S
C915 C916 1.403 . S
C916 C915 1.403 . S
C916 C917 1.404 . S
C916 C919 1.539 . S
C917 C913 1.408 . S
C917 C916 1.404 . S
C917 H929 0.930 . S
C918 C914 1.524 . S
C918 H930 0.956 . S
C918 H931 0.961 . S
C918 H932 0.961 . S
C919 C916 1.539 . S
C919 H933 0.958 . S
C919 H934 0.961 . S
C919 H935 0.960 . S
H920 C904 0.931 . S
H921 C909 0.929 . S
H922 C910 0.960 . S
H923 C910 0.962 . S
H924 C910 0.960 . S
H925 C911 0.961 . S
H926 C911 0.961 . S
H927 C911 0.961 . S
H928 C912 0.931 . S
H929 C917 0.930 . S
H930 C918 0.956 . S
H931 C918 0.961 . S
H932 C918 0.961 . S
H933 C919 0.958 . S
H934 C919 0.961 . S
H935 C919 0.960 . S
C936 C937 1.391 . S
C936 C938 1.394 . S
C936 H952 0.931 . S
C937 C936 1.391 . S
C937 C941 1.376 . S
C938 C936 1.394 . S
C938 C939 1.369 . S
C938 C942 1.531 . S
C939 C938 1.369 . S
C939 C940 1.410 . S
C939 C947 1.503 . S
C940 C939 1.410 . S
C940 C941 1.392 . S
C940 C943 1.511 . S
C941 C937 1.376 . S
C941 C940 1.392 . S
C941 H953 0.929 . S
C942 C938 1.531 . S
C942 H954 0.960 . S
C942 H955 0.962 . S
C942 H956 0.960 . S
C943 C940 1.511 . S
C943 H957 0.961 . S
C943 H958 0.961 . S
C943 H959 0.961 . S
C944 C945 1.370 . S
C944 C946 1.363 . S
C944 H960 0.931 . S
C945 C944 1.370 . S
C945 C949 1.408 . S
C946 C944 1.363 . S
C946 C947 1.370 . S
C946 C950 1.524 . S
C947 C939 1.503 . S
C947 C946 1.370 . S
C947 C948 1.403 . S
C948 C947 1.403 . S
C948 C949 1.404 . S
C948 C951 1.539 . S
C949 C945 1.408 . S
C949 C948 1.404 . S
C949 H961 0.930 . S
C950 C946 1.524 . S
C950 H962 0.956 . S
C950 H963 0.961 . S
C950 H964 0.961 . S
C951 C948 1.539 . S
C951 H965 0.958 . S
C951 H966 0.961 . S
C951 H967 0.960 . S
H952 C936 0.931 . S
H953 C941 0.929 . S
H954 C942 0.960 . S
H955 C942 0.962 . S
H956 C942 0.960 . S
H957 C943 0.961 . S
H958 C943 0.961 . S
H959 C943 0.961 . S
H960 C944 0.931 . S
H961 C949 0.930 . S
H962 C950 0.956 . S
H963 C950 0.961 . S
H964 C950 0.961 . S
H965 C951 0.958 . S
H966 C951 0.961 . S
H967 C951 0.960 . S
C968 C969 1.391 . S
C968 C970 1.394 . S
C968 H984 0.931 . S
C969 C968 1.391 . S
C969 C973 1.376 . S
C970 C968 1.394 . S
C970 C971 1.369 . S
C970 C974 1.531 . S
C971 C970 1.369 . S
C971 C972 1.410 . S
C971 C979 1.503 . S
C972 C971 1.410 . S
C972 C973 1.392 . S
C972 C975 1.511 . S
C973 C969 1.376 . S
C973 C972 1.392 . S
C973 H985 0.929 . S
C974 C970 1.531 . S
C974 H986 0.960 . S
C974 H987 0.962 . S
C974 H988 0.960 . S
C975 C972 1.511 . S
C975 H989 0.961 . S
C975 H990 0.961 . S
C975 H991 0.961 . S
C976 C977 1.370 . S
C976 C978 1.363 . S
C976 H992 0.931 . S
C977 C976 1.370 . S
C977 C981 1.408 . S
C978 C976 1.363 . S
C978 C979 1.370 . S
C978 C982 1.524 . S
C979 C971 1.503 . S
C979 C978 1.370 . S
C979 C980 1.403 . S
C980 C979 1.403 . S
C980 C981 1.404 . S
C980 C983 1.539 . S
C981 C977 1.408 . S
C981 C980 1.404 . S
C981 H993 0.930 . S
C982 C978 1.524 . S
C982 H994 0.956 . S
C982 H995 0.961 . S
C982 H996 0.961 . S
C983 C980 1.539 . S
C983 H997 0.958 . S
C983 H998 0.961 . S
C983 H999 0.960 . S
H984 C968 0.931 . S
H985 C973 0.929 . S
H986 C974 0.960 . S
H987 C974 0.962 . S
H988 C974 0.960 . S
H989 C975 0.961 . S
H990 C975 0.961 . S
H991 C975 0.961 . S
H992 C976 0.931 . S
H993 C981 0.930 . S
H994 C982 0.956 . S
H995 C982 0.961 . S
H996 C982 0.961 . S
H997 C983 0.958 . S
H998 C983 0.961 . S
H999 C983 0.960 . S
C1000 C1001 1.391 . S
C1000 C1002 1.394 . S
C1000 H1016 0.931 . S
C1001 C1000 1.391 . S
C1001 C1005 1.376 . S
C1002 C1000 1.394 . S
C1002 C1003 1.369 . S
C1002 C1006 1.531 . S
C1003 C1002 1.369 . S
C1003 C1004 1.410 . S
C1003 C1011 1.503 . S
C1004 C1003 1.410 . S
C1004 C1005 1.392 . S
C1004 C1007 1.511 . S
C1005 C1001 1.376 . S
C1005 C1004 1.392 . S
C1005 H1017 0.929 . S
C1006 C1002 1.531 . S
C1006 H1018 0.960 . S
C1006 H1019 0.962 . S
C1006 H1020 0.960 . S
C1007 C1004 1.511 . S
C1007 H1021 0.961 . S
C1007 H1022 0.961 . S
C1007 H1023 0.961 . S
C1008 C1009 1.370 . S
C1008 C1010 1.363 . S
C1008 H1024 0.931 . S
C1009 C1008 1.370 . S
C1009 C1013 1.408 . S
C1010 C1008 1.363 . S
C1010 C1011 1.370 . S
C1010 C1014 1.524 . S
C1011 C1003 1.503 . S
C1011 C1010 1.370 . S
C1011 C1012 1.403 . S
C1012 C1011 1.403 . S
C1012 C1013 1.404 . S
C1012 C1015 1.539 . S
C1013 C1009 1.408 . S
C1013 C1012 1.404 . S
C1013 H1025 0.930 . S
C1014 C1010 1.524 . S
C1014 H1026 0.956 . S
C1014 H1027 0.961 . S
C1014 H1028 0.961 . S
C1015 C1012 1.539 . S
C1015 H1029 0.958 . S
C1015 H1030 0.961 . S
C1015 H1031 0.960 . S
H1016 C1000 0.931 . S
H1017 C1005 0.929 . S
H1018 C1006 0.960 . S
H1019 C1006 0.962 . S
H1020 C1006 0.960 . S
H1021 C1007 0.961 . S
H1022 C1007 0.961 . S
H1023 C1007 0.961 . S
H1024 C1008 0.931 . S
H1025 C1013 0.930 . S
H1026 C1014 0.956 . S
H1027 C1014 0.961 . S
H1028 C1014 0.961 . S
H1029 C1015 0.958 . S
H1030 C1015 0.961 . S
H1031 C1015 0.960 . S
C265 C9 1.390 . S
C273 C121 1.451 . S
C297 C21 1.073 . S
C305 C161 1.077 . S
C337 C186 2.111 . S
C329 C30 2.116 . S
C361 C43 2.211 . S
C369 C226 2.279 . S
C401 C157 1.597 . S
C393 C4 1.464 . S
C433 C117 2.223 . S
C425 C22 2.168 . S
C465 C248 1.373 . S
C457 C34 1.385 . S
C497 C208 1.551 . S
C489 C48 1.566 . S
C521 C8 1.343 . S
C529 C250 1.417 . S
C561 C167 2.101 . S
C553 C35 2.111 . S
C585 C47 2.365 . S
C593 C127 2.322 . S
C617 C17 1.193 . S
C625 C210 1.271 . S
C657 C130 0.971 . S
C649 C60 0.969 . S
C681 C74 1.096 . S
C689 C170 1.131 . S
C713 C82 1.832 . S
C721 C207 1.874 . S
C745 C100 2.830 . S
C753 C247 2.757 . S
C777 C61 1.916 . S
C785 C168 1.993 . S
C817 C128 1.607 . S
C809 C73 1.525 . S
C849 C237 1.875 . S
C841 C87 1.881 . S
C881 C197 1.458 . S
C873 C95 1.470 . S
C905 C56 1.241 . S
C913 C241 1.218 . S
C945 C146 2.309 . S
C937 C86 2.333 . S
C977 C106 2.257 . S
C969 C99 2.279 . S
C1001 C69 0.982 . S
C1009 C201 1.146 . S
