# Generated by pormake.
# Topology pyr, (3,6)-cn, num edge types: 1
# Building blocks:
#     Node 0, Type 0, BuildingBlock: BETDAH_clean_linker_0, # of connection points: 3
#     Node 1, Type 0, BuildingBlock: BETDAH_clean_linker_0, # of connection points: 3
#     Node 2, Type 0, BuildingBlock: BETDAH_clean_linker_0, # of connection points: 3
#     Node 3, Type 0, BuildingBlock: BETDAH_clean_linker_0, # of connection points: 3
#     Node 4, Type 0, BuildingBlock: BETDAH_clean_linker_0, # of connection points: 3
#     Node 5, Type 0, BuildingBlock: BETDAH_clean_linker_0, # of connection points: 3
#     Node 6, Type 0, BuildingBlock: BETDAH_clean_linker_0, # of connection points: 3
#     Node 7, Type 0, BuildingBlock: BETDAH_clean_linker_0, # of connection points: 3
#     Node 8, Type 1, BuildingBlock: BETFEN_clean_sbu_0, # of connection points: 6
#     Node 9, Type 1, BuildingBlock: BETFEN_clean_sbu_0, # of connection points: 6
#     Node 10, Type 1, BuildingBlock: BETFEN_clean_sbu_0, # of connection points: 6
#     Node 11, Type 1, BuildingBlock: BETFEN_clean_sbu_0, # of connection points: 6
#     Edge 12, Type (0, 1), BuildingBlock: XIVTED_clean_linker_0, # of connection points: 2
#     Edge 13, Type (0, 1), BuildingBlock: XIVTED_clean_linker_0, # of connection points: 2
#     Edge 14, Type (0, 1), BuildingBlock: XIVTED_clean_linker_0, # of connection points: 2
#     Edge 15, Type (0, 1), BuildingBlock: XIVTED_clean_linker_0, # of connection points: 2
#     Edge 16, Type (0, 1), BuildingBlock: XIVTED_clean_linker_0, # of connection points: 2
#     Edge 17, Type (0, 1), BuildingBlock: XIVTED_clean_linker_0, # of connection points: 2
#     Edge 18, Type (0, 1), BuildingBlock: XIVTED_clean_linker_0, # of connection points: 2
#     Edge 19, Type (0, 1), BuildingBlock: XIVTED_clean_linker_0, # of connection points: 2
#     Edge 20, Type (0, 1), BuildingBlock: XIVTED_clean_linker_0, # of connection points: 2
#     Edge 21, Type (0, 1), BuildingBlock: XIVTED_clean_linker_0, # of connection points: 2
#     Edge 22, Type (0, 1), BuildingBlock: XIVTED_clean_linker_0, # of connection points: 2
#     Edge 23, Type (0, 1), BuildingBlock: XIVTED_clean_linker_0, # of connection points: 2
#     Edge 24, Type (0, 1), BuildingBlock: XIVTED_clean_linker_0, # of connection points: 2
#     Edge 25, Type (0, 1), BuildingBlock: XIVTED_clean_linker_0, # of connection points: 2
#     Edge 26, Type (0, 1), BuildingBlock: XIVTED_clean_linker_0, # of connection points: 2
#     Edge 27, Type (0, 1), BuildingBlock: XIVTED_clean_linker_0, # of connection points: 2
#     Edge 28, Type (0, 1), BuildingBlock: XIVTED_clean_linker_0, # of connection points: 2
#     Edge 29, Type (0, 1), BuildingBlock: XIVTED_clean_linker_0, # of connection points: 2
#     Edge 30, Type (0, 1), BuildingBlock: XIVTED_clean_linker_0, # of connection points: 2
#     Edge 31, Type (0, 1), BuildingBlock: XIVTED_clean_linker_0, # of connection points: 2
#     Edge 32, Type (0, 1), BuildingBlock: XIVTED_clean_linker_0, # of connection points: 2
#     Edge 33, Type (0, 1), BuildingBlock: XIVTED_clean_linker_0, # of connection points: 2
#     Edge 34, Type (0, 1), BuildingBlock: XIVTED_clean_linker_0, # of connection points: 2
#     Edge 35, Type (0, 1), BuildingBlock: XIVTED_clean_linker_0, # of connection points: 2
# Relax obj value: 0.160
# Max RMSD: 0.294
# Mean RMSD: 0.130
data_MOF--net-pyr--node1-BETFEN_clean_sbu_0--node2-BETDAH_clean_linker_0--edge1-XIVTED_clean_linker_0
_symmetry_space_group_name_H-M    P1
_symmetry_Int_Tables_number       1
_symmetry_cell_setting            triclinic
loop_
_symmetry_equiv_pos_as_xyz
'x, y, z'
_cell_length_a     35.963711
_cell_length_b     40.574375
_cell_length_c     39.273981
_cell_angle_alpha  91.952991
_cell_angle_beta   101.15414
_cell_angle_gamma 116.32478
loop_
_atom_site_label
_atom_site_type_symbol
_atom_site_fract_x
_atom_site_fract_y
_atom_site_fract_z
_atom_type_partial_charge
H0 H 0.39941 0.31728 0.31871 0.0
H1 H 0.48405 0.40198 0.26804 0.0
H2 H 0.4105 0.42701 0.32937 0.0
C3 C 0.41458 0.34587 0.31373 0.0
C4 C 0.40271 0.3712 0.32726 0.0
C5 C 0.44402 0.35659 0.29242 0.0
C6 C 0.46202 0.39342 0.28511 0.0
C7 C 0.44965 0.41874 0.29796 0.0
C8 C 0.42042 0.40767 0.31954 0.0
N9 N 0.46382 0.45407 0.2864 0.0
C10 C 0.43492 0.46758 0.27482 0.0
H11 H 0.37767 0.85245 0.75319 0.0
H12 H 0.27858 0.88629 0.73082 0.0
H13 H 0.29932 0.82778 0.64908 0.0
C14 C 0.35171 0.85372 0.73494 0.0
C15 C 0.34115 0.83789 0.69997 0.0
C16 C 0.32909 0.87085 0.74664 0.0
C17 C 0.29637 0.87327 0.72225 0.0
C18 C 0.28576 0.85778 0.68696 0.0
C19 C 0.30771 0.83967 0.67626 0.0
N20 N 0.25297 0.85943 0.66148 0.0
C21 C 0.23489 0.88285 0.66568 0.0
H22 H 0.66373 0.34565 0.91355 0.0
H23 H 0.67318 0.39076 0.81607 0.0
H24 H 0.58112 0.27789 0.81732 0.0
C25 C 0.65224 0.34298 0.88544 0.0
C26 C 0.61953 0.30887 0.8678 0.0
C27 C 0.67228 0.37259 0.86712 0.0
C28 C 0.65785 0.36815 0.83048 0.0
C29 C 0.62451 0.334 0.81248 0.0
C30 C 0.60626 0.30433 0.83123 0.0
N31 N 0.60942 0.32802 0.77552 0.0
C32 C 0.61398 0.35601 0.75471 0.0
H33 H 0.85846 0.73722 0.40993 0.0
H34 H 0.92499 0.73283 0.3311 0.0
H35 H 0.82134 0.63307 0.349 0.0
C36 C 0.86212 0.72125 0.38929 0.0
C37 C 0.8355 0.68289 0.38171 0.0
C38 C 0.89399 0.73967 0.37115 0.0
C39 C 0.90047 0.71891 0.34522 0.0
C40 C 0.874 0.68008 0.3373 0.0
C41 C 0.84193 0.66267 0.35568 0.0
N42 N 0.87692 0.65682 0.31088 0.0
C43 C 0.9055 0.66561 0.28905 0.0
H44 H 0.72683 0.70822 0.77814 0.0
H45 H 0.62093 0.64535 0.82362 0.0
H46 H 0.6245 0.7372 0.77046 0.0
C47 C 0.69612 0.70277 0.78305 0.0
C48 C 0.67779 0.72576 0.77151 0.0
C49 C 0.67609 0.67377 0.80199 0.0
C50 C 0.63658 0.66729 0.80864 0.0
C51 C 0.61816 0.6903 0.79766 0.0
C52 C 0.63863 0.71928 0.77879 0.0
N53 N 0.58039 0.68532 0.80764 0.0
C54 C 0.57527 0.71559 0.81875 0.0
H55 H 0.81376 0.1952 0.33135 0.0
H56 H 0.8522 0.25537 0.43452 0.0
H57 H 0.76694 0.27295 0.35306 0.0
C58 C 0.81344 0.21606 0.34913 0.0
C59 C 0.78809 0.23364 0.33763 0.0
C60 C 0.83611 0.22335 0.38412 0.0
C61 C 0.83464 0.24944 0.40744 0.0
C62 C 0.80966 0.26717 0.39655 0.0
C63 C 0.78616 0.25911 0.36164 0.0
N64 N 0.80882 0.29277 0.42154 0.0
C65 C 0.77565 0.30201 0.41923 0.0
H66 H 0.39174 0.76213 0.18575 0.0
H67 H 0.4021 0.70841 0.27668 0.0
H68 H 0.49435 0.8213 0.27636 0.0
C69 C 0.40926 0.76299 0.2118 0.0
C70 C 0.44555 0.79578 0.22833 0.0
C71 C 0.39397 0.73131 0.22868 0.0
C72 C 0.41431 0.73267 0.26342 0.0
C73 C 0.45054 0.76547 0.28068 0.0
C74 C 0.46596 0.79659 0.26296 0.0
N75 N 0.47243 0.76861 0.3158 0.0
C76 C 0.46408 0.73984 0.33613 0.0
H77 H 0.19726 0.35744 0.67729 0.0
H78 H 0.25196 0.45595 0.75191 0.0
H79 H 0.13991 0.35947 0.7635 0.0
C80 C 0.19698 0.3723 0.70064 0.0
C81 C 0.16505 0.35408 0.71878 0.0
C82 C 0.22878 0.40886 0.71224 0.0
C83 C 0.22741 0.4278 0.74225 0.0
C84 C 0.19528 0.41069 0.7607 0.0
C85 C 0.16412 0.37336 0.7491 0.0
N86 N 0.19783 0.43189 0.79166 0.0
C87 C 0.1664 0.42634 0.81015 0.0
Pr88 Pr 0.99157 0.02829 0.55199 0.0
Pr89 Pr 0.06955 0.07275 0.52774 0.0
C90 C 0.91438 0.98201 0.56228 0.0
C91 C 0.89253 0.96166 0.58853 0.0
C92 C 0.85228 0.95846 0.58923 0.0
C93 C 0.82937 0.93715 0.61219 0.0
C94 C 0.8463 0.91851 0.63482 0.0
C95 C 0.88726 0.92263 0.63469 0.0
C96 C 0.91024 0.9441 0.61177 0.0
C97 C 0.04418 0.09678 0.59486 0.0
C98 C 0.07773 0.02411 0.58976 0.0
C99 C 0.13826 0.12125 0.50671 0.0
C100 C 0.15562 0.15564 0.49044 0.0
C101 C 0.15288 0.15319 0.45421 0.0
C102 C 0.17352 0.18483 0.4389 0.0
C103 C 0.19764 0.21982 0.45942 0.0
C104 C 0.19928 0.22253 0.49555 0.0
C105 C 0.17854 0.19072 0.51094 0.0
C106 C 0.02942 0.99752 0.49914 0.0
C107 C 0.98344 0.07977 0.49061 0.0
O108 O 0.93872 0.9706 0.55014 0.0
O109 O 0.92988 0.0181 0.56688 0.0
O110 O 0.03544 0.0918 0.5618 0.0
O111 O 0.02633 0.0655 0.60703 0.0
O112 O 0.09763 0.05698 0.57985 0.0
O113 O 0.03624 1.00387 0.57794 0.0
O114 O 0.13425 0.12362 0.53905 0.0
O115 O 0.10747 0.09157 0.48666 0.0
O116 O 1.0105 0.01705 0.50165 0.0
O117 O 0.07001 0.01656 0.51227 0.0
O118 O 0.96268 0.05241 0.5074 0.0
O119 O 0.02505 0.09397 0.49464 0.0
H120 H 0.83823 0.972 0.57156 0.0
H121 H 0.79826 0.93509 0.61204 0.0
H122 H 0.90107 0.90836 0.6515 0.0
H123 H 0.94138 0.94631 0.61172 0.0
H124 H 0.13606 0.12656 0.43773 0.0
H125 H 0.17225 0.18146 0.41116 0.0
H126 H 0.21736 0.2491 0.51205 0.0
H127 H 0.18152 0.19351 0.53899 0.0
Pr128 Pr 0.49079 0.05358 0.06277 0.0
Pr129 Pr 0.56962 0.05302 0.03732 0.0
C130 C 0.43617 0.0464 0.10298 0.0
C131 C 0.43462 0.07402 0.12747 0.0
C132 C 0.40168 0.08417 0.11933 0.0
C133 C 0.40325 0.11407 0.13944 0.0
C134 C 0.43766 0.1342 0.16825 0.0
C135 C 0.46955 0.1229 0.17739 0.0
C136 C 0.46812 0.09319 0.15719 0.0
C137 C 0.52359 0.11286 0.02438 0.0
C138 C 0.59152 0.11132 0.10508 0.0
C139 C 0.62228 0.04694 1.00025 0.0
C140 C 0.61696 0.01423 0.97864 0.0
C141 C 0.58136 0.98003 0.97752 0.0
C142 C 0.57578 0.94831 0.95781 0.0
C143 C 0.60599 0.94998 0.93904 0.0
C144 C 0.64146 0.98449 0.93981 0.0
C145 C 0.6469 0.01644 0.95953 0.0
C146 C 0.5392 0.00627 0.08645 0.0
C147 C 0.46859 1.00068 0.98942 0.0
O148 O 0.46792 0.03833 0.11227 0.0
O149 O 0.42811 0.04999 0.06965 0.0
O150 O 0.53711 0.08958 0.03133 0.0
O151 O 0.49142 0.1062 0.03825 0.0
O152 O 0.60556 0.10697 0.0774 0.0
O153 O 0.55162 0.09066 0.10715 0.0
O154 O 0.59546 0.05986 0.9884 0.0
O155 O 0.627 0.04475 0.03384 0.0
O156 O 0.51624 0.01078 0.06024 0.0
O157 O 0.57951 0.02541 0.08739 0.0
O158 O 0.452 0.0108 1.01244 0.0
O159 O 0.51008 0.01253 0.99343 0.0
H160 H 0.37546 0.06981 0.09666 0.0
H161 H 0.37789 0.12182 0.1321 0.0
H162 H 0.49662 0.13802 0.19927 0.0
H163 H 0.49415 0.08622 0.16422 0.0
H164 H 0.55797 0.97779 0.99222 0.0
H165 H 0.54772 0.92242 0.95731 0.0
H166 H 0.66546 0.98663 0.92586 0.0
H167 H 0.6746 0.04266 0.96017 0.0
Pr168 Pr 0.55137 0.58277 0.57163 0.0
Pr169 Pr 0.51279 0.51072 0.52193 0.0
C170 C 0.56917 0.64673 0.60971 0.0
C171 C 0.54504 0.6658 0.61836 0.0
C172 C 0.5601 0.68986 0.64979 0.0
C173 C 0.5375 0.7083 0.65821 0.0
C174 C 0.49939 0.70297 0.63524 0.0
C175 C 0.48434 0.67854 0.60381 0.0
C176 C 0.50687 0.66003 0.59551 0.0
C177 C 0.57953 0.53188 0.59609 0.0
C178 C 0.45512 0.51688 0.57396 0.0
C179 C 0.4967 0.4474 0.48371 0.0
C180 C 0.52265 0.42979 0.4758 0.0
C181 C 0.5118 0.40894 0.44299 0.0
C182 C 0.53669 0.39253 0.43517 0.0
C183 C 0.57278 0.39664 0.46015 0.0
C184 C 0.5837 0.41786 0.4929 0.0
C185 C 0.559 0.4344 0.5006 0.0
C186 C 0.48519 0.56197 0.49731 0.0
C187 C 0.60896 0.57691 0.51969 0.0
O188 O 0.57172 0.64429 0.57705 0.0
O189 O 0.56238 0.61622 0.62334 0.0
O190 O 0.54185 0.52413 0.58098 0.0
O191 O 0.60421 0.56745 0.60038 0.0
O192 O 0.46312 0.49326 0.55664 0.0
O193 O 0.47998 0.55306 0.57727 0.0
O194 O 0.49298 0.44925 0.5161 0.0
O195 O 0.50275 0.47782 0.47015 0.0
O196 O 0.52271 0.56937 0.51253 0.0
O197 O 0.4603 0.52641 0.49285 0.0
O198 O 0.60057 0.60037 0.53674 0.0
O199 O 0.58438 0.54069 0.5165 0.0
H200 H 0.5893 0.69431 0.66785 0.0
H201 H 0.54967 0.72639 0.6829 0.0
H202 H 0.45546 0.6741 0.5853 0.0
H203 H 0.49459 0.64136 0.57115 0.0
H204 H 0.48413 0.40539 0.4234 0.0
H205 H 0.52737 0.37624 0.40977 0.0
H206 H 0.61173 0.42211 0.51246 0.0
H207 H 0.5684 0.4509 0.52591 0.0
Pr208 Pr 0.0356 0.57615 0.02647 0.0
Pr209 Pr 0.0307 0.51547 0.06917 0.0
C210 C 1.01893 0.62396 0.98824 0.0
C211 C 0.97914 0.6229 0.96886 0.0
C212 C 0.98004 0.64588 0.94295 0.0
C213 C 0.94203 0.64393 0.92355 0.0
C214 C 0.90252 0.61892 0.92981 0.0
C215 C 0.90183 0.59587 0.95586 0.0
C216 C 0.93986 0.59779 0.97517 0.0
C217 C 0.1146 0.59036 0.06902 0.0
C218 C 1.00786 0.57616 0.10243 0.0
C219 C 0.04721 0.4673 0.10693 0.0
C220 C 0.08782 0.46881 0.12475 0.0
C221 C 0.08869 0.44289 0.14708 0.0
C222 C 0.12774 0.44541 0.16482 0.0
C223 C 0.16645 0.47399 0.16048 0.0
C224 C 0.16522 0.4999 0.13799 0.0
C225 C 0.12624 0.49728 0.12026 0.0
C226 C 0.95189 0.50213 0.0268 0.0
C227 C 0.05997 0.51615 0.9939 0.0
O228 O 0.02885 0.59963 0.97548 0.0
O229 O 0.02479 0.62686 0.0223 0.0
O230 O 0.07968 0.5767 0.07793 0.0
O231 O 0.11034 0.60017 0.03799 0.0
O232 O 0.02734 0.55572 0.11101 0.0
O233 O 0.99961 0.58196 0.06948 0.0
O234 O 0.03845 0.49223 0.12015 0.0
O235 O 0.03954 0.46371 0.07276 0.0
O236 O 0.98674 0.51505 0.01784 0.0
O237 O 0.95592 0.49243 0.0579 0.0
O238 O 0.04015 0.53625 0.9849 0.0
O239 O 0.06782 0.51045 0.02692 0.0
H240 H 1.01011 0.66525 0.93767 0.0
H241 H 0.94361 0.66238 0.90397 0.0
H242 H 0.8719 0.57607 0.96101 0.0
H243 H 0.93863 0.57955 0.99491 0.0
H244 H 0.05925 0.42081 0.15085 0.0
H245 H 0.12761 0.42477 0.18162 0.0
H246 H 0.19438 0.52254 0.13445 0.0
H247 H 0.12603 0.51764 0.10318 0.0
H248 H 0.31947 0.32274 0.30212 0.0
H249 H 0.27924 0.27446 0.48731 0.0
H250 H 0.40997 0.38947 0.3967 0.0
H251 H 0.17675 0.23889 0.39466 0.0
H252 H 0.32648 0.31998 0.45624 0.0
H253 H 0.26556 0.29413 0.33597 0.0
C254 C 0.32763 0.33164 0.33005 0.0
C255 C 0.36899 0.35809 0.3469 0.0
C256 C 0.29344 0.30268 0.44294 0.0
C257 C 0.30812 0.3252 0.38589 0.0
C258 C 0.26631 0.27677 0.46073 0.0
C259 C 0.22407 0.25224 0.44338 0.0
C260 C 0.27838 0.30372 0.40744 0.0
C261 C 0.20937 0.25645 0.40878 0.0
C262 C 0.29695 0.31545 0.34936 0.0
C263 C 0.37833 0.36893 0.38301 0.0
N264 N 0.23667 0.28116 0.39177 0.0
N265 N 0.34826 0.35191 0.40154 0.0
H266 H 0.33141 0.93498 0.77548 0.0
H267 H 0.47748 0.94629 0.9552 0.0
H268 H 0.35234 0.84161 0.80404 0.0
H269 H 0.3968 0.99997 0.94956 0.0
H270 H 0.43602 0.91072 0.89766 0.0
H271 H 0.35789 0.96243 0.83725 0.0
C272 C 0.34094 0.91996 0.79465 0.0
C273 C 0.34041 0.88622 0.78429 0.0
C274 C 0.42699 0.92989 0.90922 0.0
C275 C 0.3715 0.91791 0.85466 0.0
C276 C 0.45067 0.95022 0.94195 0.0
C277 C 0.44037 0.97594 0.95702 0.0
C278 C 0.39357 0.93612 0.89101 0.0
C279 C 0.40541 0.9801 0.93882 0.0
C280 C 0.35614 0.93573 0.82986 0.0
C281 C 0.35349 0.86825 0.81046 0.0
N282 N 0.3836 0.96084 0.90634 0.0
N283 N 0.36915 0.8846 0.84427 0.0
H284 H 0.55741 0.3386 0.69335 0.0
H285 H 0.65074 0.54739 0.64776 0.0
H286 H 0.6672 0.42999 0.76001 0.0
H287 H 0.5316 0.45709 0.59074 0.0
H288 H 0.66261 0.50413 0.68524 0.0
H289 H 0.55243 0.3809 0.6518 0.0
C290 C 0.58058 0.36769 0.69903 0.0
C291 C 0.61263 0.3811 0.7299 0.0
C292 C 0.63405 0.49376 0.66436 0.0
C293 C 0.60729 0.42971 0.68278 0.0
C294 C 0.62736 0.51838 0.64287 0.0
C295 C 0.58997 0.5058 0.6163 0.0
C296 C 0.60322 0.45631 0.65903 0.0
C297 C 0.56072 0.46799 0.61108 0.0
C298 C 0.57777 0.39183 0.6754 0.0
C299 C 0.642 0.41883 0.73632 0.0
N300 N 0.56787 0.44466 0.63233 0.0
N301 N 0.63858 0.44197 0.71294 0.0
H302 H 0.89186 0.67635 0.22061 0.0
H303 H 0.02638 0.57462 0.1733 0.0
H304 H 0.96667 0.64306 0.29742 0.0
H305 H 0.96148 0.61582 0.09559 0.0
H306 H 1.00621 0.60125 0.21882 0.0
H307 H 0.91919 0.65748 0.17467 0.0
C308 C 0.91493 0.66597 0.22788 0.0
C309 C 0.92769 0.66189 0.26291 0.0
C310 C 0.99641 0.60464 0.19186 0.0
C311 C 0.95803 0.63901 0.2104 0.0
C312 C 1.00784 0.58926 0.16569 0.0
C313 C 0.99556 0.59273 0.13029 0.0
C314 C 0.97215 0.62366 0.1829 0.0
C315 C 0.97168 0.6123 0.12241 0.0
C316 C 0.93022 0.65485 0.20162 0.0
C317 C 0.95664 0.64729 0.27081 0.0
N318 N 0.96063 0.62683 0.1484 0.0
N319 N 0.97058 0.6362 0.24483 0.0
H320 H 0.44418 0.34513 0.22346 0.0
H321 H 0.46101 0.15567 0.23931 0.0
H322 H 0.46003 0.30235 0.32139 0.0
H323 H 0.42403 0.19012 0.14113 0.0
H324 H 0.46897 0.21264 0.27031 0.0
H325 H 0.44652 0.29255 0.19347 0.0
C326 C 0.44899 0.32505 0.23875 0.0
C327 C 0.45176 0.32801 0.27494 0.0
C328 C 0.45911 0.20771 0.24199 0.0
C329 C 0.45362 0.26738 0.24072 0.0
C330 C 0.45464 0.17526 0.22429 0.0
C331 C 0.44153 0.16803 0.18761 0.0
C332 C 0.45074 0.23327 0.22284 0.0
C333 C 0.4335 0.19427 0.16946 0.0
C334 C 0.44986 0.29481 0.22157 0.0
C335 C 0.45731 0.30085 0.29337 0.0
N336 N 0.43826 0.22572 0.18725 0.0
N337 N 0.45783 0.27156 0.27603 0.0
H338 H 0.15355 0.86257 0.66902 0.0
H339 H 0.16478 0.05353 0.61173 0.0
H340 H 0.2692 0.95571 0.65888 0.0
H341 H 0.0478 0.95709 0.61467 0.0
H342 H 0.20507 0.02197 0.6382 0.0
H343 H 0.11596 0.90039 0.65839 0.0
C344 C 0.17108 0.89128 0.66518 0.0
C345 C 0.21427 0.90632 0.66481 0.0
C346 C 0.1706 0.00788 0.63342 0.0
C347 C 0.17176 0.94947 0.65207 0.0
C348 C 0.14754 0.02594 0.61839 0.0
C349 C 0.10276 0.00779 0.61055 0.0
C350 C 0.14877 0.97136 0.64064 0.0
C351 C 0.08225 0.97207 0.6199 0.0
C352 C 0.14969 0.9128 0.65897 0.0
C353 C 0.23577 0.94337 0.65942 0.0
N354 N 0.10538 0.95492 0.63412 0.0
N355 N 0.21419 0.96367 0.65295 0.0
H356 H 0.68499 0.41102 0.93054 0.0
H357 H 0.93817 0.50988 0.95746 0.0
H358 H 0.7487 0.409 0.8486 0.0
H359 H 0.87286 0.47508 0.04093 0.0
H360 H 0.8693 0.49005 0.91617 0.0
H361 H 0.75408 0.45268 0.96924 0.0
C362 C 0.71344 0.42004 0.92044 0.0
C363 C 0.71122 0.40582 0.88657 0.0
C364 C 0.87013 0.4871 0.94358 0.0
C365 C 0.79019 0.45339 0.93067 0.0
C366 C 0.90931 0.49828 0.96712 0.0
C367 C 0.91096 0.49328 1.00248 0.0
C368 C 0.83245 0.4711 0.95557 0.0
C369 C 0.87282 0.47878 1.01376 0.0
C370 C 0.75281 0.44371 0.94256 0.0
C371 C 0.74894 0.41909 0.87456 0.0
N372 N 0.83501 0.4679 0.99029 0.0
N373 N 0.78704 0.44166 0.89682 0.0
H374 H 0.80624 0.61358 0.40415 0.0
H375 H 0.65765 0.64923 0.51222 0.0
H376 H 0.78506 0.71035 0.40306 0.0
H377 H 0.64144 0.53887 0.48518 0.0
H378 H 0.71201 0.67343 0.47853 0.0
H379 H 0.75182 0.5865 0.43825 0.0
C380 C 0.79011 0.62909 0.4108 0.0
C381 C 0.80091 0.66465 0.40092 0.0
C382 C 0.69669 0.64391 0.47998 0.0
C383 C 0.73921 0.63402 0.44062 0.0
C384 C 0.66573 0.63002 0.49947 0.0
C385 C 0.6447 0.59185 0.50159 0.0
C386 C 0.70731 0.61965 0.46255 0.0
C387 C 0.65671 0.56848 0.48427 0.0
C388 C 0.75921 0.61365 0.43045 0.0
C389 C 0.77896 0.68338 0.41073 0.0
N390 N 0.68725 0.58274 0.46549 0.0
N391 N 0.74957 0.66802 0.43013 0.0
H392 H 0.41926 0.48911 0.21175 0.0
H393 H 0.18982 0.46361 0.22842 0.0
H394 H 0.37183 0.46283 0.30507 0.0
H395 H 0.23777 0.49067 0.13516 0.0
H396 H 0.25784 0.46676 0.25814 0.0
H397 H 0.35513 0.49456 0.18463 0.0
C398 C 0.39552 0.48514 0.22664 0.0
C399 C 0.4005 0.47581 0.26056 0.0
C400 C 0.25356 0.47218 0.23122 0.0
C401 C 0.32707 0.48114 0.22983 0.0
C402 C 0.21461 0.47011 0.21416 0.0
C403 C 0.20797 0.47669 0.17918 0.0
C404 C 0.28614 0.48075 0.21317 0.0
C405 C 0.24156 0.4857 0.16222 0.0
C406 C 0.3589 0.48803 0.21118 0.0
C407 C 0.36895 0.47033 0.27884 0.0
N408 N 0.27909 0.48729 0.17932 0.0
N409 N 0.33334 0.47287 0.26315 0.0
H410 H 0.58377 0.30911 0.92266 0.0
H411 H 0.57674 0.12044 0.98034 0.0
H412 H 0.61437 0.23952 0.85997 0.0
H413 H 0.50398 0.16973 1.01544 0.0
H414 H 0.59772 0.16683 0.93985 0.0
H415 H 0.56003 0.26078 0.9605 0.0
C416 C 0.58502 0.28339 0.91674 0.0
C417 C 0.60077 0.27806 0.88818 0.0
C418 C 0.57714 0.16739 0.95643 0.0
C419 C 0.5746 0.22304 0.93165 0.0
C420 C 0.56545 0.14116 0.97965 0.0
C421 C 0.5387 0.14141 1.0012 0.0
C422 C 0.56241 0.19424 0.95529 0.0
C423 C 0.52468 0.16863 0.99923 0.0
C424 C 0.57156 0.25588 0.9383 0.0
C425 C 0.60199 0.2444 0.8816 0.0
N426 N 0.53686 0.19405 0.97681 0.0
N427 N 0.58947 0.21821 0.90344 0.0
H428 H 0.97985 0.78183 0.40029 0.0
H429 H 0.94724 0.95684 0.46007 0.0
H430 H 0.86351 0.79012 0.36577 0.0
H431 H 0.06762 0.95401 0.48882 0.0
H432 H 0.91706 0.89663 0.42353 0.0
H433 H 1.01465 0.8464 0.42935 0.0
C434 C 0.96209 0.79765 0.39788 0.0
C435 C 0.91888 0.78074 0.38037 0.0
C436 C 0.95014 0.90918 0.43772 0.0
C437 C 0.9578 0.85406 0.41451 0.0
C438 C 0.9673 0.94353 0.45873 0.0
C439 C 1.01 0.96051 0.47757 0.0
C440 C 0.97573 0.89144 0.43559 0.0
C441 C 0.03452 0.94194 0.47475 0.0
C442 C 0.98172 0.83433 0.41486 0.0
C443 C 0.89699 0.80222 0.37882 0.0
N444 N 1.01706 0.90846 0.4543 0.0
N445 N 0.91646 0.83746 0.39591 0.0
H446 H 0.42755 0.86262 0.71524 0.0
H447 H 0.41257 0.67662 0.62365 0.0
H448 H 0.30915 0.77091 0.65891 0.0
H449 H 0.53156 0.77474 0.66662 0.0
H450 H 0.37406 0.71006 0.63744 0.0
H451 H 0.46613 0.83021 0.69894 0.0
C452 C 0.40967 0.83562 0.69944 0.0
C453 C 0.36504 0.81935 0.68855 0.0
C454 C 0.40859 0.72429 0.64379 0.0
C455 C 0.40903 0.78208 0.6697 0.0
C456 C 0.43066 0.70526 0.63577 0.0
C457 C 0.47548 0.72285 0.64391 0.0
C458 C 0.43141 0.76119 0.66024 0.0
C459 C 0.49707 0.75982 0.66028 0.0
C460 C 0.43173 0.8172 0.69001 0.0
C461 C 0.34357 0.78457 0.66766 0.0
N462 N 0.47485 0.7777 0.66792 0.0
N463 N 0.36574 0.76699 0.65909 0.0
H464 H 0.64528 0.74788 0.71274 0.0
H465 H 0.87341 0.90942 0.70253 0.0
H466 H 0.76234 0.77579 0.78887 0.0
H467 H 0.76061 0.8706 0.6184 0.0
H468 H 0.83132 0.86528 0.73757 0.0
H469 H 0.68509 0.7979 0.68103 0.0
C470 C 0.67928 0.76468 0.72286 0.0
C471 C 0.70067 0.75733 0.75313 0.0
C472 C 0.81573 0.86656 0.7115 0.0
C473 C 0.74634 0.81448 0.71716 0.0
C474 C 0.8398 0.89164 0.69141 0.0
C475 C 0.82063 0.89361 0.65736 0.0
C476 C 0.77211 0.84321 0.69748 0.0
C477 C 0.77671 0.87036 0.64463 0.0
C478 C 0.70201 0.79311 0.70473 0.0
C479 C 0.74476 0.78 0.76521 0.0
N480 N 0.754 0.84601 0.66463 0.0
N481 N 0.76613 0.80744 0.74713 0.0
H482 H 0.81105 0.22336 0.27698 0.0
H483 H 0.57263 0.13661 0.16143 0.0
H484 H 0.70501 0.22029 0.31524 0.0
H485 H 0.67917 0.14544 0.12027 0.0
H486 H 0.62201 0.17287 0.21618 0.0
H487 H 0.76483 0.20015 0.21805 0.0
C488 C 0.7781 0.21802 0.27293 0.0
C489 C 0.76178 0.22347 0.30116 0.0
C490 C 0.63472 0.16725 0.1951 0.0
C491 C 0.70871 0.19696 0.23375 0.0
C492 C 0.60649 0.14647 0.16376 0.0
C493 C 0.62174 0.13756 0.13632 0.0
C494 C 0.67859 0.17898 0.19926 0.0
C495 C 0.66599 0.15151 0.14076 0.0
C496 C 0.75178 0.20493 0.23925 0.0
C497 C 0.71904 0.21669 0.29428 0.0
N498 N 0.69284 0.17116 0.17183 0.0
N499 N 0.69391 0.20344 0.26137 0.0
H500 H 0.51339 0.75679 0.4009 0.0
H501 H 0.41654 0.5467 0.44289 0.0
H502 H 0.41108 0.66545 0.3282 0.0
H503 H 0.53257 0.63687 0.50445 0.0
H504 H 0.40705 0.59043 0.40467 0.0
H505 H 0.5141 0.71392 0.44305 0.0
C506 C 0.49088 0.72759 0.39403 0.0
C507 C 0.46225 0.71437 0.36128 0.0
C508 C 0.43436 0.60064 0.42674 0.0
C509 C 0.46282 0.66508 0.40908 0.0
C510 C 0.43966 0.57577 0.44865 0.0
C511 C 0.47557 0.5882 0.4767 0.0
C512 C 0.46503 0.63819 0.43319 0.0
C513 C 0.50459 0.6261 0.48297 0.0
C514 C 0.49128 0.70312 0.418 0.0
C515 C 0.43365 0.67647 0.35336 0.0
N516 N 0.49879 0.64967 0.46133 0.0
N517 N 0.43473 0.65299 0.37711 0.0
H518 H 0.11047 0.45502 0.79877 0.0
H519 H 0.10384 0.4746 1.00213 0.0
H520 H 0.17206 0.41282 0.87774 0.0
H521 H 0.04654 0.5202 0.92307 0.0
H522 H 0.12532 0.44849 0.95679 0.0
H523 H 0.08199 0.47468 0.84314 0.0
C524 C 0.11711 0.4491 0.82533 0.0
C525 C 0.14298 0.43169 0.83451 0.0
C526 C 0.10797 0.46414 0.94933 0.0
C527 C 0.1116 0.45512 0.88587 0.0
C528 C 0.0957 0.47916 0.97529 0.0
C529 C 0.07338 0.49988 0.96664 0.0
C530 C 0.09788 0.4697 0.91423 0.0
C531 C 0.06378 0.50462 0.93121 0.0
C532 C 0.10122 0.46066 0.85078 0.0
C533 C 0.1516 0.4256 0.86949 0.0
N534 N 0.07606 0.48977 0.9065 0.0
N535 N 0.13614 0.4374 0.89388 0.0
H536 H 0.5494 0.72306 0.87696 0.0
H537 H 0.62106 0.94025 0.87421 0.0
H538 H 0.60111 0.78203 0.79462 0.0
H539 H 0.57892 0.88104 0.95972 0.0
H540 H 0.61082 0.88249 0.84287 0.0
H541 H 0.55521 0.78033 0.90548 0.0
C542 C 0.56149 0.74813 0.86477 0.0
C543 C 0.5746 0.74818 0.83353 0.0
C544 C 0.60374 0.88219 0.86847 0.0
C545 C 0.58206 0.81373 0.86595 0.0
C546 C 0.60984 0.91519 0.88646 0.0
C547 C 0.60067 0.91551 0.91961 0.0
C548 C 0.58841 0.8493 0.88376 0.0
C549 C 0.58571 0.88206 0.934 0.0
C550 C 0.56504 0.78081 0.88105 0.0
C551 C 0.5905 0.78115 0.81871 0.0
N552 N 0.58007 0.85042 0.91602 0.0
N553 N 0.59395 0.81278 0.83514 0.0
H554 H 0.8964 0.21267 0.3585 0.0
H555 H 0.90153 0.06661 0.48746 0.0
H556 H 0.82543 0.18384 0.43894 0.0
H557 H 1.01128 0.13298 0.44691 0.0
H558 H 0.86524 0.1002 0.45903 0.0
H559 H 0.93188 0.17533 0.38114 0.0
C560 C 0.88834 0.19843 0.38085 0.0
C561 C 0.85832 0.20147 0.39714 0.0
C562 C 0.89717 0.10725 0.45618 0.0
C563 C 0.89775 0.15849 0.42247 0.0
C564 C 0.9179 0.08793 0.47221 0.0
C565 C 0.95973 0.09714 0.46981 0.0
C566 C 0.91807 0.13576 0.43718 0.0
C567 C 0.97914 0.12511 0.44963 0.0
C568 C 0.90856 0.17731 0.39374 0.0
C569 C 0.84879 0.18253 0.42596 0.0
N570 N 0.95814 0.14355 0.43407 0.0
N571 N 0.86825 0.16169 0.43757 0.0
H572 H 0.38195 0.69613 0.16447 0.0
H573 H 0.12929 0.58594 0.1392 0.0
H574 H 0.31871 0.69156 0.24818 0.0
H575 H 0.19363 0.6195 0.05503 0.0
H576 H 0.19872 0.60985 0.18078 0.0
H577 H 0.31371 0.65215 0.12626 0.0
C578 C 0.35372 0.68509 0.17499 0.0
C579 C 0.35567 0.6978 0.20927 0.0
C580 C 0.19758 0.61164 0.15318 0.0
C581 C 0.27749 0.64805 0.16563 0.0
C582 C 0.15806 0.5981 0.12946 0.0
C583 C 0.15591 0.60148 0.09375 0.0
C584 C 0.23509 0.6284 0.141 0.0
C585 C 0.19398 0.61692 0.08242 0.0
C586 C 0.3148 0.66019 0.15316 0.0
C587 C 0.31839 0.68247 0.22184 0.0
N588 N 0.23205 0.63007 0.10602 0.0
N589 N 0.28053 0.6588 0.19978 0.0
H590 H 0.2704 0.37636 0.6838 0.0
H591 H 0.42589 0.55601 0.61078 0.0
H592 H 0.26737 0.4811 0.69719 0.0
H593 H 0.40375 0.44447 0.57999 0.0
H594 H 0.37129 0.53106 0.64496 0.0
H595 H 0.32329 0.40292 0.64916 0.0
C596 C 0.28061 0.40495 0.67932 0.0
C597 C 0.26362 0.42624 0.69312 0.0
C598 C 0.37826 0.5121 0.63053 0.0
C599 C 0.3254 0.45729 0.65356 0.0
C600 C 0.40939 0.52629 0.61092 0.0
C601 C 0.41957 0.50235 0.59235 0.0
C602 C 0.35745 0.47372 0.63192 0.0
C603 C 0.3971 0.4641 0.59371 0.0
C604 C 0.31107 0.42018 0.65955 0.0
C605 C 0.27948 0.46357 0.68721 0.0
N606 N 0.36745 0.4511 0.61325 0.0
N607 N 0.30937 0.47787 0.66782 0.0
H608 H 0.71981 0.64532 0.77127 0.0
H609 H 0.8346 0.61514 0.95439 0.0
H610 H 0.68592 0.65684 0.86896 0.0
H611 H 0.87908 0.61967 0.85936 0.0
H612 H 0.7715 0.6184 0.92139 0.0
H613 H 0.76918 0.62343 0.80097 0.0
C614 C 0.72233 0.64272 0.79888 0.0
C615 C 0.69919 0.65342 0.81779 0.0
C616 C 0.79487 0.61833 0.90771 0.0
C617 C 0.75578 0.62859 0.852 0.0
C618 C 0.8308 0.61631 0.92649 0.0
C619 C 0.86239 0.61761 0.90965 0.0
C620 C 0.79045 0.62156 0.87182 0.0
C621 C 0.85593 0.61936 0.8735 0.0
C622 C 0.75052 0.63025 0.81583 0.0
C623 C 0.70309 0.64886 0.85336 0.0
N624 N 0.82086 0.62153 0.85585 0.0
N625 N 0.73134 0.63727 0.86944 0.0
H626 H 0.48561 0.87055 0.25486 0.0
H627 H 0.46382 0.94252 0.0714 0.0
H628 H 0.4419 0.79689 0.15765 0.0
H629 H 0.57801 1.00453 0.15268 0.0
H630 H 0.44109 0.89193 0.10743 0.0
H631 H 0.50806 0.9235 0.2218 0.0
C632 C 0.48083 0.86529 0.22676 0.0
C633 C 0.46125 0.82879 0.2092 0.0
C634 C 0.47092 0.91682 0.11739 0.0
C635 C 0.48531 0.88936 0.17136 0.0
C636 C 0.48373 0.94566 0.09704 0.0
C637 C 0.52291 0.97746 0.10912 0.0
C638 C 0.49694 0.92037 0.15034 0.0
C639 C 0.5477 0.98022 0.14244 0.0
C640 C 0.49336 0.89559 0.20797 0.0
C641 C 0.45546 0.82416 0.17251 0.0
N642 N 0.53422 0.95203 0.16207 0.0
N643 N 0.46693 0.85399 0.15484 0.0
H644 H 0.11049 0.3263 0.65483 0.0
H645 H 0.06402 0.11488 0.6666 0.0
H646 H 0.15406 0.29198 0.75055 0.0
H647 H 0.05927 0.16274 0.57049 0.0
H648 H 0.08656 0.17595 0.69965 0.0
H649 H 0.07794 0.2624 0.62595 0.0
C650 C 0.11198 0.30497 0.67007 0.0
C651 C 0.13475 0.31444 0.70521 0.0
C652 C 0.08053 0.17299 0.67134 0.0
C653 C 0.09864 0.24109 0.67195 0.0
C654 C 0.06779 0.1382 0.65246 0.0
C655 C 0.05985 0.13367 0.61569 0.0
C656 C 0.08471 0.20333 0.65326 0.0
C657 C 0.06515 0.16486 0.59877 0.0
C658 C 0.09394 0.26856 0.65344 0.0
C659 C 0.1363 0.28576 0.72357 0.0
N660 N 0.07699 0.19814 0.61761 0.0
N661 N 0.11889 0.25041 0.70664 0.0
H662 H 0.73943 0.3331 0.37221 0.0
H663 H 0.60592 0.35961 0.50278 0.0
H664 H 0.73754 0.29399 0.47274 0.0
H665 H 0.59968 0.39347 0.39974 0.0
H666 H 0.65238 0.33364 0.491 0.0
H667 H 0.6862 0.35349 0.3802 0.0
C668 C 0.72743 0.32862 0.3958 0.0
C669 C 0.7425 0.31202 0.42193 0.0
C670 C 0.64078 0.3466 0.47085 0.0
C671 C 0.68241 0.33523 0.43144 0.0
C672 C 0.61441 0.36162 0.47766 0.0
C673 C 0.59918 0.37903 0.45233 0.0
C674 C 0.65236 0.34911 0.4385 0.0
C675 C 0.61056 0.38016 0.41996 0.0
C676 C 0.6972 0.34022 0.4004 0.0
C677 C 0.72643 0.30675 0.45207 0.0
N678 N 0.63672 0.36565 0.41405 0.0
N679 N 0.69737 0.31847 0.4561 0.0
loop_
_geom_bond_atom_site_label_1
_geom_bond_atom_site_label_2
_geom_bond_distance
_geom_bond_site_symmetry_2
_ccdc_geom_bond_type
H0 C3 0.929 . S
H1 C6 0.929 . S
H2 C8 0.930 . S
C3 H0 0.929 . S
C3 C4 1.398 . S
C3 C5 1.396 . S
C4 C3 1.398 . S
C4 C8 1.407 . S
C5 C3 1.396 . S
C5 C6 1.394 . S
C6 H1 0.929 . S
C6 C5 1.394 . S
C6 C7 1.382 . S
C7 C6 1.382 . S
C7 C8 1.392 . S
C7 N9 1.420 . S
C8 H2 0.930 . S
C8 C4 1.407 . S
C8 C7 1.392 . S
N9 C7 1.420 . S
N9 C10 1.244 . S
C10 N9 1.244 . S
H11 C14 0.929 . S
H12 C17 0.929 . S
H13 C19 0.930 . S
C14 H11 0.929 . S
C14 C15 1.398 . S
C14 C16 1.396 . S
C15 C14 1.398 . S
C15 C19 1.407 . S
C16 C14 1.396 . S
C16 C17 1.394 . S
C17 H12 0.929 . S
C17 C16 1.394 . S
C17 C18 1.382 . S
C18 C17 1.382 . S
C18 C19 1.392 . S
C18 N20 1.420 . S
C19 H13 0.930 . S
C19 C15 1.407 . S
C19 C18 1.392 . S
N20 C18 1.420 . S
N20 C21 1.244 . S
C21 N20 1.244 . S
H22 C25 0.929 . S
H23 C28 0.929 . S
H24 C30 0.930 . S
C25 H22 0.929 . S
C25 C26 1.398 . S
C25 C27 1.396 . S
C26 C25 1.398 . S
C26 C30 1.407 . S
C27 C25 1.396 . S
C27 C28 1.394 . S
C28 H23 0.929 . S
C28 C27 1.394 . S
C28 C29 1.382 . S
C29 C28 1.382 . S
C29 C30 1.392 . S
C29 N31 1.420 . S
C30 H24 0.930 . S
C30 C26 1.407 . S
C30 C29 1.392 . S
N31 C29 1.420 . S
N31 C32 1.244 . S
C32 N31 1.244 . S
H33 C36 0.929 . S
H34 C39 0.929 . S
H35 C41 0.930 . S
C36 H33 0.929 . S
C36 C37 1.398 . S
C36 C38 1.396 . S
C37 C36 1.398 . S
C37 C41 1.407 . S
C38 C36 1.396 . S
C38 C39 1.394 . S
C39 H34 0.929 . S
C39 C38 1.394 . S
C39 C40 1.382 . S
C40 C39 1.382 . S
C40 C41 1.392 . S
C40 N42 1.420 . S
C41 H35 0.930 . S
C41 C37 1.407 . S
C41 C40 1.392 . S
N42 C40 1.420 . S
N42 C43 1.244 . S
C43 N42 1.244 . S
H44 C47 0.929 . S
H45 C50 0.929 . S
H46 C52 0.930 . S
C47 H44 0.929 . S
C47 C48 1.398 . S
C47 C49 1.396 . S
C48 C47 1.398 . S
C48 C52 1.407 . S
C49 C47 1.396 . S
C49 C50 1.394 . S
C50 H45 0.929 . S
C50 C49 1.394 . S
C50 C51 1.382 . S
C51 C50 1.382 . S
C51 C52 1.392 . S
C51 N53 1.420 . S
C52 H46 0.930 . S
C52 C48 1.407 . S
C52 C51 1.392 . S
N53 C51 1.420 . S
N53 C54 1.244 . S
C54 N53 1.244 . S
H55 C58 0.929 . S
H56 C61 0.929 . S
H57 C63 0.930 . S
C58 H55 0.929 . S
C58 C59 1.398 . S
C58 C60 1.396 . S
C59 C58 1.398 . S
C59 C63 1.407 . S
C60 C58 1.396 . S
C60 C61 1.394 . S
C61 H56 0.929 . S
C61 C60 1.394 . S
C61 C62 1.382 . S
C62 C61 1.382 . S
C62 C63 1.392 . S
C62 N64 1.420 . S
C63 H57 0.930 . S
C63 C59 1.407 . S
C63 C62 1.392 . S
N64 C62 1.420 . S
N64 C65 1.244 . S
C65 N64 1.244 . S
H66 C69 0.929 . S
H67 C72 0.929 . S
H68 C74 0.930 . S
C69 H66 0.929 . S
C69 C70 1.398 . S
C69 C71 1.396 . S
C70 C69 1.398 . S
C70 C74 1.407 . S
C71 C69 1.396 . S
C71 C72 1.394 . S
C72 H67 0.929 . S
C72 C71 1.394 . S
C72 C73 1.382 . S
C73 C72 1.382 . S
C73 C74 1.392 . S
C73 N75 1.420 . S
C74 H68 0.930 . S
C74 C70 1.407 . S
C74 C73 1.392 . S
N75 C73 1.420 . S
N75 C76 1.244 . S
C76 N75 1.244 . S
H77 C80 0.929 . S
H78 C83 0.929 . S
H79 C85 0.930 . S
C80 H77 0.929 . S
C80 C81 1.398 . S
C80 C82 1.396 . S
C81 C80 1.398 . S
C81 C85 1.407 . S
C82 C80 1.396 . S
C82 C83 1.394 . S
C83 H78 0.929 . S
C83 C82 1.394 . S
C83 C84 1.382 . S
C84 C83 1.382 . S
C84 C85 1.392 . S
C84 N86 1.420 . S
C85 H79 0.930 . S
C85 C81 1.407 . S
C85 C84 1.392 . S
N86 C84 1.420 . S
N86 C87 1.244 . S
C87 N86 1.244 . S
Pr88 C90 2.880 1_545 S
Pr88 O108 2.562 1_545 S
Pr88 O109 2.490 1_545 S
Pr88 O110 2.695 1_655 S
Pr88 O111 2.512 1_655 S
Pr88 O113 2.437 1_645 S
Pr88 O116 2.436 1_545 S
Pr88 O118 2.438 . S
Pr89 C99 2.880 . S
Pr89 O110 2.436 . S
Pr89 O112 2.438 . S
Pr89 O114 2.562 . S
Pr89 O115 2.490 . S
Pr89 O116 2.695 1_445 S
Pr89 O117 2.512 1_545 S
Pr89 O119 2.437 . S
C90 Pr88 2.880 1_565 S
C90 C91 1.491 . S
C90 O108 1.254 . S
C90 O109 1.225 . S
C91 C90 1.491 . S
C91 C92 1.392 . S
C91 C96 1.356 . S
C92 C91 1.392 . S
C92 C93 1.368 . S
C92 H120 0.929 . S
C93 C92 1.368 . S
C93 C94 1.386 . S
C93 H121 0.929 . S
C94 C93 1.386 . S
C94 C95 1.373 . S
C95 C94 1.373 . S
C95 C96 1.409 . S
C95 H122 0.931 . S
C96 C91 1.356 . S
C96 C95 1.409 . S
C96 H123 0.930 . S
C97 O110 1.270 . S
C97 O111 1.248 . S
C98 O112 1.267 1_565 S
C98 O113 1.278 . S
C99 Pr89 2.880 . S
C99 C100 1.491 . S
C99 O114 1.254 . S
C99 O115 1.225 . S
C100 C99 1.491 . S
C100 C101 1.392 . S
C100 C105 1.356 . S
C101 C100 1.392 . S
C101 C102 1.368 . S
C101 H124 0.929 . S
C102 C101 1.368 . S
C102 C103 1.386 . S
C102 H125 0.929 . S
C103 C102 1.386 . S
C103 C104 1.373 . S
C104 C103 1.373 . S
C104 C105 1.409 . S
C104 H126 0.931 . S
C105 C100 1.356 . S
C105 C104 1.409 . S
C105 H127 0.930 . S
C106 O116 1.270 . S
C106 O117 1.248 1_655 S
C107 O118 1.267 . S
C107 O119 1.278 1_655 S
O108 Pr88 2.562 1_565 S
O108 C90 1.254 . S
O109 Pr88 2.490 1_565 S
O109 C90 1.225 . S
O110 Pr88 2.695 1_455 S
O110 Pr89 2.436 . S
O110 C97 1.270 . S
O111 Pr88 2.512 1_455 S
O111 C97 1.248 . S
O112 Pr89 2.438 . S
O112 C98 1.267 1_545 S
O113 Pr88 2.437 1_465 S
O113 C98 1.278 . S
O114 Pr89 2.562 . S
O114 C99 1.254 . S
O115 Pr89 2.490 . S
O115 C99 1.225 . S
O116 Pr88 2.436 1_565 S
O116 Pr89 2.695 1_665 S
O116 C106 1.270 . S
O117 Pr89 2.512 1_565 S
O117 C106 1.248 1_455 S
O118 Pr88 2.438 . S
O118 C107 1.267 . S
O119 Pr89 2.437 . S
O119 C107 1.278 1_455 S
H120 C92 0.929 . S
H121 C93 0.929 . S
H122 C95 0.931 . S
H123 C96 0.930 . S
H124 C101 0.929 . S
H125 C102 0.929 . S
H126 C104 0.931 . S
H127 C105 0.930 . S
Pr128 C130 2.880 . S
Pr128 O148 2.562 . S
Pr128 O149 2.490 . S
Pr128 O150 2.695 . S
Pr128 O151 2.512 . S
Pr128 O153 2.437 . S
Pr128 O156 2.468 . S
Pr128 O158 2.438 1_545 S
Pr129 C139 2.868 1_544 S
Pr129 O150 2.436 . S
Pr129 O152 2.438 . S
Pr129 O154 2.562 1_544 S
Pr129 O155 2.490 1_545 S
Pr129 O156 2.683 . S
Pr129 O157 2.512 1_545 S
Pr129 O159 2.437 1_545 S
C130 Pr128 2.880 . S
C130 C131 1.491 . S
C130 O148 1.254 . S
C130 O149 1.225 . S
C131 C130 1.491 . S
C131 C132 1.392 . S
C131 C136 1.356 . S
C132 C131 1.392 . S
C132 C133 1.368 . S
C132 H160 0.929 . S
C133 C132 1.368 . S
C133 C134 1.386 . S
C133 H161 0.929 . S
C134 C133 1.386 . S
C134 C135 1.373 . S
C135 C134 1.373 . S
C135 C136 1.409 . S
C135 H162 0.931 . S
C136 C131 1.356 . S
C136 C135 1.409 . S
C136 H163 0.930 . S
C137 O150 1.270 . S
C137 O151 1.248 . S
C138 O152 1.267 . S
C138 O153 1.278 . S
C139 Pr129 2.868 1_566 S
C139 C140 1.502 . S
C139 O154 1.259 . S
C139 O155 1.209 1_556 S
C140 C139 1.502 . S
C140 C141 1.392 . S
C140 C145 1.356 . S
C141 C140 1.392 . S
C141 C142 1.368 . S
C141 H164 0.929 1_556 S
C142 C141 1.368 . S
C142 C143 1.386 . S
C142 H165 0.929 . S
C143 C142 1.386 . S
C143 C144 1.373 . S
C144 C143 1.373 . S
C144 C145 1.409 . S
C144 H166 0.931 . S
C145 C140 1.356 . S
C145 C144 1.409 . S
C145 H167 0.930 . S
C146 O156 1.236 1_565 S
C146 O157 1.248 . S
C147 O158 1.267 1_556 S
C147 O159 1.278 1_556 S
O148 Pr128 2.562 . S
O148 C130 1.254 . S
O149 Pr128 2.490 . S
O149 C130 1.225 . S
O150 Pr128 2.695 . S
O150 Pr129 2.436 . S
O150 C137 1.270 . S
O151 Pr128 2.512 . S
O151 C137 1.248 . S
O152 Pr129 2.438 . S
O152 C138 1.267 . S
O153 Pr128 2.437 . S
O153 C138 1.278 . S
O154 Pr129 2.562 1_566 S
O154 C139 1.259 . S
O155 Pr129 2.490 1_565 S
O155 C139 1.209 1_554 S
O156 Pr128 2.468 . S
O156 Pr129 2.683 . S
O156 C146 1.236 1_545 S
O157 Pr129 2.512 1_565 S
O157 C146 1.248 . S
O158 Pr128 2.438 1_565 S
O158 C147 1.267 1_554 S
O159 Pr129 2.437 1_565 S
O159 C147 1.278 1_554 S
H160 C132 0.929 . S
H161 C133 0.929 . S
H162 C135 0.931 . S
H163 C136 0.930 . S
H164 C141 0.929 1_554 S
H165 C142 0.929 . S
H166 C144 0.931 . S
H167 C145 0.930 . S
Pr168 C170 2.880 . S
Pr168 O188 2.562 . S
Pr168 O189 2.490 . S
Pr168 O190 2.695 . S
Pr168 O191 2.512 . S
Pr168 O193 2.437 . S
Pr168 O196 2.436 . S
Pr168 O198 2.438 . S
Pr169 C179 2.880 . S
Pr169 O190 2.436 . S
Pr169 O192 2.438 . S
Pr169 O194 2.562 . S
Pr169 O195 2.490 . S
Pr169 O196 2.695 . S
Pr169 O197 2.512 . S
Pr169 O199 2.437 . S
C170 Pr168 2.880 . S
C170 C171 1.491 . S
C170 O188 1.254 . S
C170 O189 1.225 . S
C171 C170 1.491 . S
C171 C172 1.392 . S
C171 C176 1.356 . S
C172 C171 1.392 . S
C172 C173 1.368 . S
C172 H200 0.929 . S
C173 C172 1.368 . S
C173 C174 1.386 . S
C173 H201 0.929 . S
C174 C173 1.386 . S
C174 C175 1.373 . S
C175 C174 1.373 . S
C175 C176 1.409 . S
C175 H202 0.931 . S
C176 C171 1.356 . S
C176 C175 1.409 . S
C176 H203 0.930 . S
C177 O190 1.270 . S
C177 O191 1.248 . S
C178 O192 1.267 . S
C178 O193 1.278 . S
C179 Pr169 2.880 . S
C179 C180 1.491 . S
C179 O194 1.254 . S
C179 O195 1.225 . S
C180 C179 1.491 . S
C180 C181 1.392 . S
C180 C185 1.356 . S
C181 C180 1.392 . S
C181 C182 1.368 . S
C181 H204 0.929 . S
C182 C181 1.368 . S
C182 C183 1.386 . S
C182 H205 0.929 . S
C183 C182 1.386 . S
C183 C184 1.373 . S
C184 C183 1.373 . S
C184 C185 1.409 . S
C184 H206 0.931 . S
C185 C180 1.356 . S
C185 C184 1.409 . S
C185 H207 0.930 . S
C186 O196 1.270 . S
C186 O197 1.248 . S
C187 O198 1.267 . S
C187 O199 1.278 . S
O188 Pr168 2.562 . S
O188 C170 1.254 . S
O189 Pr168 2.490 . S
O189 C170 1.225 . S
O190 Pr168 2.695 . S
O190 Pr169 2.436 . S
O190 C177 1.270 . S
O191 Pr168 2.512 . S
O191 C177 1.248 . S
O192 Pr169 2.438 . S
O192 C178 1.267 . S
O193 Pr168 2.437 . S
O193 C178 1.278 . S
O194 Pr169 2.562 . S
O194 C179 1.254 . S
O195 Pr169 2.490 . S
O195 C179 1.225 . S
O196 Pr168 2.436 . S
O196 Pr169 2.695 . S
O196 C186 1.270 . S
O197 Pr169 2.512 . S
O197 C186 1.248 . S
O198 Pr168 2.438 . S
O198 C187 1.267 . S
O199 Pr169 2.437 . S
O199 C187 1.278 . S
H200 C172 0.929 . S
H201 C173 0.929 . S
H202 C175 0.931 . S
H203 C176 0.930 . S
H204 C181 0.929 . S
H205 C182 0.929 . S
H206 C184 0.931 . S
H207 C185 0.930 . S
Pr208 C210 2.880 1_455 S
Pr208 O228 2.562 1_455 S
Pr208 O229 2.490 . S
Pr208 O230 2.695 1_556 S
Pr208 O231 2.512 1_556 S
Pr208 O233 2.437 1_556 S
Pr208 O236 2.436 1_455 S
Pr208 O238 2.438 . S
Pr209 C219 2.880 . S
Pr209 O230 2.436 . S
Pr209 O232 2.411 1_455 S
Pr209 O234 2.562 . S
Pr209 O235 2.490 . S
Pr209 O236 2.695 1_454 S
Pr209 O237 2.512 1_454 S
Pr209 O239 2.437 1_554 S
C210 Pr208 2.880 1_655 S
C210 C211 1.491 . S
C210 O228 1.254 . S
C210 O229 1.225 1_655 S
C211 C210 1.491 . S
C211 C212 1.392 . S
C211 C216 1.356 . S
C212 C211 1.392 . S
C212 C213 1.368 . S
C212 H240 0.929 1_655 S
C213 C212 1.368 . S
C213 C214 1.386 . S
C213 H241 0.929 . S
C214 C213 1.386 . S
C214 C215 1.373 . S
C215 C214 1.373 . S
C215 C216 1.409 . S
C215 H242 0.931 . S
C216 C211 1.356 . S
C216 C215 1.409 . S
C216 H243 0.930 . S
C217 O230 1.270 . S
C217 O231 1.248 . S
C218 O232 1.283 . S
C218 O233 1.278 1_655 S
C219 Pr209 2.880 . S
C219 C220 1.491 . S
C219 O234 1.254 . S
C219 O235 1.225 . S
C220 C219 1.491 . S
C220 C221 1.392 . S
C220 C225 1.356 . S
C221 C220 1.392 . S
C221 C222 1.368 . S
C221 H244 0.929 . S
C222 C221 1.368 . S
C222 C223 1.386 . S
C222 H245 0.929 . S
C223 C222 1.386 . S
C223 C224 1.373 . S
C224 C223 1.373 . S
C224 C225 1.409 . S
C224 H246 0.931 . S
C225 C220 1.356 . S
C225 C224 1.409 . S
C225 H247 0.930 . S
C226 O236 1.270 . S
C226 O237 1.248 . S
C227 O238 1.267 . S
C227 O239 1.278 . S
O228 Pr208 2.562 1_655 S
O228 C210 1.254 . S
O229 Pr208 2.490 . S
O229 C210 1.225 1_455 S
O230 Pr208 2.695 1_554 S
O230 Pr209 2.436 . S
O230 C217 1.270 . S
O231 Pr208 2.512 1_554 S
O231 C217 1.248 . S
O232 Pr209 2.411 1_655 S
O232 C218 1.283 . S
O233 Pr208 2.437 1_554 S
O233 C218 1.278 1_455 S
O234 Pr209 2.562 . S
O234 C219 1.254 . S
O235 Pr209 2.490 . S
O235 C219 1.225 . S
O236 Pr208 2.436 1_655 S
O236 Pr209 2.695 1_656 S
O236 C226 1.270 . S
O237 Pr209 2.512 1_656 S
O237 C226 1.248 . S
O238 Pr208 2.438 . S
O238 C227 1.267 . S
O239 Pr209 2.437 1_556 S
O239 C227 1.278 . S
H240 C212 0.929 1_455 S
H241 C213 0.929 . S
H242 C215 0.931 . S
H243 C216 0.930 . S
H244 C221 0.929 . S
H245 C222 0.929 . S
H246 C224 0.931 . S
H247 C225 0.930 . S
H248 C254 0.930 . S
H249 C258 0.930 . S
H250 C263 0.929 . S
H251 C261 0.929 . S
H252 C256 0.929 . S
H253 C262 0.929 . S
C254 H248 0.930 . S
C254 C255 1.367 . S
C254 C262 1.378 . S
C255 C254 1.367 . S
C255 C263 1.433 . S
C256 H252 0.929 . S
C256 C258 1.378 . S
C256 C260 1.350 . S
C257 C260 1.463 . S
C257 C262 1.350 . S
C257 N265 1.427 . S
C258 H249 0.930 . S
C258 C256 1.378 . S
C258 C259 1.367 . S
C259 C258 1.367 . S
C259 C261 1.433 . S
C260 C256 1.350 . S
C260 C257 1.463 . S
C260 N264 1.427 . S
C261 H251 0.929 . S
C261 C259 1.433 . S
C261 N264 1.384 . S
C262 H253 0.929 . S
C262 C254 1.378 . S
C262 C257 1.350 . S
C263 H250 0.929 . S
C263 C255 1.433 . S
C263 N265 1.384 . S
N264 C260 1.427 . S
N264 C261 1.384 . S
N265 C257 1.427 . S
N265 C263 1.384 . S
H266 C272 0.930 . S
H267 C276 0.930 . S
H268 C281 0.929 . S
H269 C279 0.929 . S
H270 C274 0.929 . S
H271 C280 0.929 . S
C272 H266 0.930 . S
C272 C273 1.367 . S
C272 C280 1.378 . S
C273 C272 1.367 . S
C273 C281 1.433 . S
C274 H270 0.929 . S
C274 C276 1.378 . S
C274 C278 1.350 . S
C275 C278 1.463 . S
C275 C280 1.350 . S
C275 N283 1.427 . S
C276 H267 0.930 . S
C276 C274 1.378 . S
C276 C277 1.367 . S
C277 C276 1.367 . S
C277 C279 1.433 . S
C278 C274 1.350 . S
C278 C275 1.463 . S
C278 N282 1.427 . S
C279 H269 0.929 . S
C279 C277 1.433 . S
C279 N282 1.384 . S
C280 H271 0.929 . S
C280 C272 1.378 . S
C280 C275 1.350 . S
C281 H268 0.929 . S
C281 C273 1.433 . S
C281 N283 1.384 . S
N282 C278 1.427 . S
N282 C279 1.384 . S
N283 C275 1.427 . S
N283 C281 1.384 . S
H284 C290 0.930 . S
H285 C294 0.930 . S
H286 C299 0.929 . S
H287 C297 0.929 . S
H288 C292 0.929 . S
H289 C298 0.929 . S
C290 H284 0.930 . S
C290 C291 1.367 . S
C290 C298 1.378 . S
C291 C290 1.367 . S
C291 C299 1.433 . S
C292 H288 0.929 . S
C292 C294 1.378 . S
C292 C296 1.350 . S
C293 C296 1.463 . S
C293 C298 1.350 . S
C293 N301 1.427 . S
C294 H285 0.930 . S
C294 C292 1.378 . S
C294 C295 1.367 . S
C295 C294 1.367 . S
C295 C297 1.433 . S
C296 C292 1.350 . S
C296 C293 1.463 . S
C296 N300 1.427 . S
C297 H287 0.929 . S
C297 C295 1.433 . S
C297 N300 1.384 . S
C298 H289 0.929 . S
C298 C290 1.378 . S
C298 C293 1.350 . S
C299 H286 0.929 . S
C299 C291 1.433 . S
C299 N301 1.384 . S
N300 C296 1.427 . S
N300 C297 1.384 . S
N301 C293 1.427 . S
N301 C299 1.384 . S
H302 C308 0.930 . S
H303 C312 0.930 . S
H304 C317 0.929 . S
H305 C315 0.929 . S
H306 C310 0.929 . S
H307 C316 0.929 . S
C308 H302 0.930 . S
C308 C309 1.367 . S
C308 C316 1.378 . S
C309 C308 1.367 . S
C309 C317 1.433 . S
C310 H306 0.929 . S
C310 C312 1.378 . S
C310 C314 1.350 . S
C311 C314 1.463 . S
C311 C316 1.350 . S
C311 N319 1.427 . S
C312 H303 0.930 . S
C312 C310 1.378 . S
C312 C313 1.367 . S
C313 C312 1.367 . S
C313 C315 1.433 . S
C314 C310 1.350 . S
C314 C311 1.463 . S
C314 N318 1.427 . S
C315 H305 0.929 . S
C315 C313 1.433 . S
C315 N318 1.384 . S
C316 H307 0.929 . S
C316 C308 1.378 . S
C316 C311 1.350 . S
C317 H304 0.929 . S
C317 C309 1.433 . S
C317 N319 1.384 . S
N318 C314 1.427 . S
N318 C315 1.384 . S
N319 C311 1.427 . S
N319 C317 1.384 . S
H320 C326 0.930 . S
H321 C330 0.930 . S
H322 C335 0.929 . S
H323 C333 0.929 . S
H324 C328 0.929 . S
H325 C334 0.929 . S
C326 H320 0.930 . S
C326 C327 1.367 . S
C326 C334 1.378 . S
C327 C326 1.367 . S
C327 C335 1.433 . S
C328 H324 0.929 . S
C328 C330 1.378 . S
C328 C332 1.350 . S
C329 C332 1.463 . S
C329 C334 1.350 . S
C329 N337 1.427 . S
C330 H321 0.930 . S
C330 C328 1.378 . S
C330 C331 1.367 . S
C331 C330 1.367 . S
C331 C333 1.433 . S
C332 C328 1.350 . S
C332 C329 1.463 . S
C332 N336 1.427 . S
C333 H323 0.929 . S
C333 C331 1.433 . S
C333 N336 1.384 . S
C334 H325 0.929 . S
C334 C326 1.378 . S
C334 C329 1.350 . S
C335 H322 0.929 . S
C335 C327 1.433 . S
C335 N337 1.384 . S
N336 C332 1.427 . S
N336 C333 1.384 . S
N337 C329 1.427 . S
N337 C335 1.384 . S
H338 C344 0.930 . S
H339 C348 0.930 . S
H340 C353 0.929 . S
H341 C351 0.929 . S
H342 C346 0.929 . S
H343 C352 0.929 . S
C344 H338 0.930 . S
C344 C345 1.367 . S
C344 C352 1.378 . S
C345 C344 1.367 . S
C345 C353 1.433 . S
C346 H342 0.929 . S
C346 C348 1.378 . S
C346 C350 1.350 . S
C347 C350 1.463 . S
C347 C352 1.350 . S
C347 N355 1.427 . S
C348 H339 0.930 . S
C348 C346 1.378 . S
C348 C349 1.367 . S
C349 C348 1.367 . S
C349 C351 1.433 . S
C350 C346 1.350 . S
C350 C347 1.463 . S
C350 N354 1.427 . S
C351 H341 0.929 . S
C351 C349 1.433 . S
C351 N354 1.384 . S
C352 H343 0.929 . S
C352 C344 1.378 . S
C352 C347 1.350 . S
C353 H340 0.929 . S
C353 C345 1.433 . S
C353 N355 1.384 . S
N354 C350 1.427 . S
N354 C351 1.384 . S
N355 C347 1.427 . S
N355 C353 1.384 . S
H356 C362 0.930 . S
H357 C366 0.930 . S
H358 C371 0.929 . S
H359 C369 0.929 . S
H360 C364 0.929 . S
H361 C370 0.929 . S
C362 H356 0.930 . S
C362 C363 1.367 . S
C362 C370 1.378 . S
C363 C362 1.367 . S
C363 C371 1.433 . S
C364 H360 0.929 . S
C364 C366 1.378 . S
C364 C368 1.350 . S
C365 C368 1.463 . S
C365 C370 1.350 . S
C365 N373 1.427 . S
C366 H357 0.930 . S
C366 C364 1.378 . S
C366 C367 1.367 . S
C367 C366 1.367 . S
C367 C369 1.433 . S
C368 C364 1.350 . S
C368 C365 1.463 . S
C368 N372 1.427 . S
C369 H359 0.929 . S
C369 C367 1.433 . S
C369 N372 1.384 . S
C370 H361 0.929 . S
C370 C362 1.378 . S
C370 C365 1.350 . S
C371 H358 0.929 . S
C371 C363 1.433 . S
C371 N373 1.384 . S
N372 C368 1.427 . S
N372 C369 1.384 . S
N373 C365 1.427 . S
N373 C371 1.384 . S
H374 C380 0.930 . S
H375 C384 0.930 . S
H376 C389 0.929 . S
H377 C387 0.929 . S
H378 C382 0.929 . S
H379 C388 0.929 . S
C380 H374 0.930 . S
C380 C381 1.367 . S
C380 C388 1.378 . S
C381 C380 1.367 . S
C381 C389 1.433 . S
C382 H378 0.929 . S
C382 C384 1.378 . S
C382 C386 1.350 . S
C383 C386 1.463 . S
C383 C388 1.350 . S
C383 N391 1.427 . S
C384 H375 0.930 . S
C384 C382 1.378 . S
C384 C385 1.367 . S
C385 C384 1.367 . S
C385 C387 1.433 . S
C386 C382 1.350 . S
C386 C383 1.463 . S
C386 N390 1.427 . S
C387 H377 0.929 . S
C387 C385 1.433 . S
C387 N390 1.384 . S
C388 H379 0.929 . S
C388 C380 1.378 . S
C388 C383 1.350 . S
C389 H376 0.929 . S
C389 C381 1.433 . S
C389 N391 1.384 . S
N390 C386 1.427 . S
N390 C387 1.384 . S
N391 C383 1.427 . S
N391 C389 1.384 . S
H392 C398 0.930 . S
H393 C402 0.930 . S
H394 C407 0.929 . S
H395 C405 0.929 . S
H396 C400 0.929 . S
H397 C406 0.929 . S
C398 H392 0.930 . S
C398 C399 1.367 . S
C398 C406 1.378 . S
C399 C398 1.367 . S
C399 C407 1.433 . S
C400 H396 0.929 . S
C400 C402 1.378 . S
C400 C404 1.350 . S
C401 C404 1.463 . S
C401 C406 1.350 . S
C401 N409 1.427 . S
C402 H393 0.930 . S
C402 C400 1.378 . S
C402 C403 1.367 . S
C403 C402 1.367 . S
C403 C405 1.433 . S
C404 C400 1.350 . S
C404 C401 1.463 . S
C404 N408 1.427 . S
C405 H395 0.929 . S
C405 C403 1.433 . S
C405 N408 1.384 . S
C406 H397 0.929 . S
C406 C398 1.378 . S
C406 C401 1.350 . S
C407 H394 0.929 . S
C407 C399 1.433 . S
C407 N409 1.384 . S
N408 C404 1.427 . S
N408 C405 1.384 . S
N409 C401 1.427 . S
N409 C407 1.384 . S
H410 C416 0.930 . S
H411 C420 0.930 . S
H412 C425 0.929 . S
H413 C423 0.929 1_554 S
H414 C418 0.929 . S
H415 C424 0.929 . S
C416 H410 0.930 . S
C416 C417 1.367 . S
C416 C424 1.378 . S
C417 C416 1.367 . S
C417 C425 1.433 . S
C418 H414 0.929 . S
C418 C420 1.378 . S
C418 C422 1.350 . S
C419 C422 1.463 . S
C419 C424 1.350 . S
C419 N427 1.427 . S
C420 H411 0.930 . S
C420 C418 1.378 . S
C420 C421 1.367 . S
C421 C420 1.367 . S
C421 C423 1.433 . S
C422 C418 1.350 . S
C422 C419 1.463 . S
C422 N426 1.427 . S
C423 H413 0.929 1_556 S
C423 C421 1.433 . S
C423 N426 1.384 . S
C424 H415 0.929 . S
C424 C416 1.378 . S
C424 C419 1.350 . S
C425 H412 0.929 . S
C425 C417 1.433 . S
C425 N427 1.384 . S
N426 C422 1.427 . S
N426 C423 1.384 . S
N427 C419 1.427 . S
N427 C425 1.384 . S
H428 C434 0.930 . S
H429 C438 0.930 . S
H430 C443 0.929 . S
H431 C441 0.929 . S
H432 C436 0.929 . S
H433 C442 0.929 . S
C434 H428 0.930 . S
C434 C435 1.367 . S
C434 C442 1.378 . S
C435 C434 1.367 . S
C435 C443 1.433 . S
C436 H432 0.929 . S
C436 C438 1.378 . S
C436 C440 1.350 . S
C437 C440 1.463 . S
C437 C442 1.350 . S
C437 N445 1.427 . S
C438 H429 0.930 . S
C438 C436 1.378 . S
C438 C439 1.367 . S
C439 C438 1.367 . S
C439 C441 1.433 . S
C440 C436 1.350 . S
C440 C437 1.463 . S
C440 N444 1.427 . S
C441 H431 0.929 . S
C441 C439 1.433 . S
C441 N444 1.384 . S
C442 H433 0.929 . S
C442 C434 1.378 . S
C442 C437 1.350 . S
C443 H430 0.929 . S
C443 C435 1.433 . S
C443 N445 1.384 . S
N444 C440 1.427 . S
N444 C441 1.384 . S
N445 C437 1.427 . S
N445 C443 1.384 . S
H446 C452 0.930 . S
H447 C456 0.930 . S
H448 C461 0.929 . S
H449 C459 0.929 . S
H450 C454 0.929 . S
H451 C460 0.929 . S
C452 H446 0.930 . S
C452 C453 1.367 . S
C452 C460 1.378 . S
C453 C452 1.367 . S
C453 C461 1.433 . S
C454 H450 0.929 . S
C454 C456 1.378 . S
C454 C458 1.350 . S
C455 C458 1.463 . S
C455 C460 1.350 . S
C455 N463 1.427 . S
C456 H447 0.930 . S
C456 C454 1.378 . S
C456 C457 1.367 . S
C457 C456 1.367 . S
C457 C459 1.433 . S
C458 C454 1.350 . S
C458 C455 1.463 . S
C458 N462 1.427 . S
C459 H449 0.929 . S
C459 C457 1.433 . S
C459 N462 1.384 . S
C460 H451 0.929 . S
C460 C452 1.378 . S
C460 C455 1.350 . S
C461 H448 0.929 . S
C461 C453 1.433 . S
C461 N463 1.384 . S
N462 C458 1.427 . S
N462 C459 1.384 . S
N463 C455 1.427 . S
N463 C461 1.384 . S
H464 C470 0.930 . S
H465 C474 0.930 . S
H466 C479 0.929 . S
H467 C477 0.929 . S
H468 C472 0.929 . S
H469 C478 0.929 . S
C470 H464 0.930 . S
C470 C471 1.367 . S
C470 C478 1.378 . S
C471 C470 1.367 . S
C471 C479 1.433 . S
C472 H468 0.929 . S
C472 C474 1.378 . S
C472 C476 1.350 . S
C473 C476 1.463 . S
C473 C478 1.350 . S
C473 N481 1.427 . S
C474 H465 0.930 . S
C474 C472 1.378 . S
C474 C475 1.367 . S
C475 C474 1.367 . S
C475 C477 1.433 . S
C476 C472 1.350 . S
C476 C473 1.463 . S
C476 N480 1.427 . S
C477 H467 0.929 . S
C477 C475 1.433 . S
C477 N480 1.384 . S
C478 H469 0.929 . S
C478 C470 1.378 . S
C478 C473 1.350 . S
C479 H466 0.929 . S
C479 C471 1.433 . S
C479 N481 1.384 . S
N480 C476 1.427 . S
N480 C477 1.384 . S
N481 C473 1.427 . S
N481 C479 1.384 . S
H482 C488 0.930 . S
H483 C492 0.930 . S
H484 C497 0.929 . S
H485 C495 0.929 . S
H486 C490 0.929 . S
H487 C496 0.929 . S
C488 H482 0.930 . S
C488 C489 1.367 . S
C488 C496 1.378 . S
C489 C488 1.367 . S
C489 C497 1.433 . S
C490 H486 0.929 . S
C490 C492 1.378 . S
C490 C494 1.350 . S
C491 C494 1.463 . S
C491 C496 1.350 . S
C491 N499 1.427 . S
C492 H483 0.930 . S
C492 C490 1.378 . S
C492 C493 1.367 . S
C493 C492 1.367 . S
C493 C495 1.433 . S
C494 C490 1.350 . S
C494 C491 1.463 . S
C494 N498 1.427 . S
C495 H485 0.929 . S
C495 C493 1.433 . S
C495 N498 1.384 . S
C496 H487 0.929 . S
C496 C488 1.378 . S
C496 C491 1.350 . S
C497 H484 0.929 . S
C497 C489 1.433 . S
C497 N499 1.384 . S
N498 C494 1.427 . S
N498 C495 1.384 . S
N499 C491 1.427 . S
N499 C497 1.384 . S
H500 C506 0.930 . S
H501 C510 0.930 . S
H502 C515 0.929 . S
H503 C513 0.929 . S
H504 C508 0.929 . S
H505 C514 0.929 . S
C506 H500 0.930 . S
C506 C507 1.367 . S
C506 C514 1.378 . S
C507 C506 1.367 . S
C507 C515 1.433 . S
C508 H504 0.929 . S
C508 C510 1.378 . S
C508 C512 1.350 . S
C509 C512 1.463 . S
C509 C514 1.350 . S
C509 N517 1.427 . S
C510 H501 0.930 . S
C510 C508 1.378 . S
C510 C511 1.367 . S
C511 C510 1.367 . S
C511 C513 1.433 . S
C512 C508 1.350 . S
C512 C509 1.463 . S
C512 N516 1.427 . S
C513 H503 0.929 . S
C513 C511 1.433 . S
C513 N516 1.384 . S
C514 H505 0.929 . S
C514 C506 1.378 . S
C514 C509 1.350 . S
C515 H502 0.929 . S
C515 C507 1.433 . S
C515 N517 1.384 . S
N516 C512 1.427 . S
N516 C513 1.384 . S
N517 C509 1.427 . S
N517 C515 1.384 . S
H518 C524 0.930 . S
H519 C528 0.930 . S
H520 C533 0.929 . S
H521 C531 0.929 . S
H522 C526 0.929 . S
H523 C532 0.929 . S
C524 H518 0.930 . S
C524 C525 1.367 . S
C524 C532 1.378 . S
C525 C524 1.367 . S
C525 C533 1.433 . S
C526 H522 0.929 . S
C526 C528 1.378 . S
C526 C530 1.350 . S
C527 C530 1.463 . S
C527 C532 1.350 . S
C527 N535 1.427 . S
C528 H519 0.930 . S
C528 C526 1.378 . S
C528 C529 1.367 . S
C529 C528 1.367 . S
C529 C531 1.433 . S
C530 C526 1.350 . S
C530 C527 1.463 . S
C530 N534 1.427 . S
C531 H521 0.929 . S
C531 C529 1.433 . S
C531 N534 1.384 . S
C532 H523 0.929 . S
C532 C524 1.378 . S
C532 C527 1.350 . S
C533 H520 0.929 . S
C533 C525 1.433 . S
C533 N535 1.384 . S
N534 C530 1.427 . S
N534 C531 1.384 . S
N535 C527 1.427 . S
N535 C533 1.384 . S
H536 C542 0.930 . S
H537 C546 0.930 . S
H538 C551 0.929 . S
H539 C549 0.929 . S
H540 C544 0.929 . S
H541 C550 0.929 . S
C542 H536 0.930 . S
C542 C543 1.367 . S
C542 C550 1.378 . S
C543 C542 1.367 . S
C543 C551 1.433 . S
C544 H540 0.929 . S
C544 C546 1.378 . S
C544 C548 1.350 . S
C545 C548 1.463 . S
C545 C550 1.350 . S
C545 N553 1.427 . S
C546 H537 0.930 . S
C546 C544 1.378 . S
C546 C547 1.367 . S
C547 C546 1.367 . S
C547 C549 1.433 . S
C548 C544 1.350 . S
C548 C545 1.463 . S
C548 N552 1.427 . S
C549 H539 0.929 . S
C549 C547 1.433 . S
C549 N552 1.384 . S
C550 H541 0.929 . S
C550 C542 1.378 . S
C550 C545 1.350 . S
C551 H538 0.929 . S
C551 C543 1.433 . S
C551 N553 1.384 . S
N552 C548 1.427 . S
N552 C549 1.384 . S
N553 C545 1.427 . S
N553 C551 1.384 . S
H554 C560 0.930 . S
H555 C564 0.930 . S
H556 C569 0.929 . S
H557 C567 0.929 . S
H558 C562 0.929 . S
H559 C568 0.929 . S
C560 H554 0.930 . S
C560 C561 1.367 . S
C560 C568 1.378 . S
C561 C560 1.367 . S
C561 C569 1.433 . S
C562 H558 0.929 . S
C562 C564 1.378 . S
C562 C566 1.350 . S
C563 C566 1.463 . S
C563 C568 1.350 . S
C563 N571 1.427 . S
C564 H555 0.930 . S
C564 C562 1.378 . S
C564 C565 1.367 . S
C565 C564 1.367 . S
C565 C567 1.433 . S
C566 C562 1.350 . S
C566 C563 1.463 . S
C566 N570 1.427 . S
C567 H557 0.929 . S
C567 C565 1.433 . S
C567 N570 1.384 . S
C568 H559 0.929 . S
C568 C560 1.378 . S
C568 C563 1.350 . S
C569 H556 0.929 . S
C569 C561 1.433 . S
C569 N571 1.384 . S
N570 C566 1.427 . S
N570 C567 1.384 . S
N571 C563 1.427 . S
N571 C569 1.384 . S
H572 C578 0.930 . S
H573 C582 0.930 . S
H574 C587 0.929 . S
H575 C585 0.929 . S
H576 C580 0.929 . S
H577 C586 0.929 . S
C578 H572 0.930 . S
C578 C579 1.367 . S
C578 C586 1.378 . S
C579 C578 1.367 . S
C579 C587 1.433 . S
C580 H576 0.929 . S
C580 C582 1.378 . S
C580 C584 1.350 . S
C581 C584 1.463 . S
C581 C586 1.350 . S
C581 N589 1.427 . S
C582 H573 0.930 . S
C582 C580 1.378 . S
C582 C583 1.367 . S
C583 C582 1.367 . S
C583 C585 1.433 . S
C584 C580 1.350 . S
C584 C581 1.463 . S
C584 N588 1.427 . S
C585 H575 0.929 . S
C585 C583 1.433 . S
C585 N588 1.384 . S
C586 H577 0.929 . S
C586 C578 1.378 . S
C586 C581 1.350 . S
C587 H574 0.929 . S
C587 C579 1.433 . S
C587 N589 1.384 . S
N588 C584 1.427 . S
N588 C585 1.384 . S
N589 C581 1.427 . S
N589 C587 1.384 . S
H590 C596 0.930 . S
H591 C600 0.930 . S
H592 C605 0.929 . S
H593 C603 0.929 . S
H594 C598 0.929 . S
H595 C604 0.929 . S
C596 H590 0.930 . S
C596 C597 1.367 . S
C596 C604 1.378 . S
C597 C596 1.367 . S
C597 C605 1.433 . S
C598 H594 0.929 . S
C598 C600 1.378 . S
C598 C602 1.350 . S
C599 C602 1.463 . S
C599 C604 1.350 . S
C599 N607 1.427 . S
C600 H591 0.930 . S
C600 C598 1.378 . S
C600 C601 1.367 . S
C601 C600 1.367 . S
C601 C603 1.433 . S
C602 C598 1.350 . S
C602 C599 1.463 . S
C602 N606 1.427 . S
C603 H593 0.929 . S
C603 C601 1.433 . S
C603 N606 1.384 . S
C604 H595 0.929 . S
C604 C596 1.378 . S
C604 C599 1.350 . S
C605 H592 0.929 . S
C605 C597 1.433 . S
C605 N607 1.384 . S
N606 C602 1.427 . S
N606 C603 1.384 . S
N607 C599 1.427 . S
N607 C605 1.384 . S
H608 C614 0.930 . S
H609 C618 0.930 . S
H610 C623 0.929 . S
H611 C621 0.929 . S
H612 C616 0.929 . S
H613 C622 0.929 . S
C614 H608 0.930 . S
C614 C615 1.367 . S
C614 C622 1.378 . S
C615 C614 1.367 . S
C615 C623 1.433 . S
C616 H612 0.929 . S
C616 C618 1.378 . S
C616 C620 1.350 . S
C617 C620 1.463 . S
C617 C622 1.350 . S
C617 N625 1.427 . S
C618 H609 0.930 . S
C618 C616 1.378 . S
C618 C619 1.367 . S
C619 C618 1.367 . S
C619 C621 1.433 . S
C620 C616 1.350 . S
C620 C617 1.463 . S
C620 N624 1.427 . S
C621 H611 0.929 . S
C621 C619 1.433 . S
C621 N624 1.384 . S
C622 H613 0.929 . S
C622 C614 1.378 . S
C622 C617 1.350 . S
C623 H610 0.929 . S
C623 C615 1.433 . S
C623 N625 1.384 . S
N624 C620 1.427 . S
N624 C621 1.384 . S
N625 C617 1.427 . S
N625 C623 1.384 . S
H626 C632 0.930 . S
H627 C636 0.930 . S
H628 C641 0.929 . S
H629 C639 0.929 . S
H630 C634 0.929 . S
H631 C640 0.929 . S
C632 H626 0.930 . S
C632 C633 1.367 . S
C632 C640 1.378 . S
C633 C632 1.367 . S
C633 C641 1.433 . S
C634 H630 0.929 . S
C634 C636 1.378 . S
C634 C638 1.350 . S
C635 C638 1.463 . S
C635 C640 1.350 . S
C635 N643 1.427 . S
C636 H627 0.930 . S
C636 C634 1.378 . S
C636 C637 1.367 . S
C637 C636 1.367 . S
C637 C639 1.433 . S
C638 C634 1.350 . S
C638 C635 1.463 . S
C638 N642 1.427 . S
C639 H629 0.929 . S
C639 C637 1.433 . S
C639 N642 1.384 . S
C640 H631 0.929 . S
C640 C632 1.378 . S
C640 C635 1.350 . S
C641 H628 0.929 . S
C641 C633 1.433 . S
C641 N643 1.384 . S
N642 C638 1.427 . S
N642 C639 1.384 . S
N643 C635 1.427 . S
N643 C641 1.384 . S
H644 C650 0.930 . S
H645 C654 0.930 . S
H646 C659 0.929 . S
H647 C657 0.929 . S
H648 C652 0.929 . S
H649 C658 0.929 . S
C650 H644 0.930 . S
C650 C651 1.367 . S
C650 C658 1.378 . S
C651 C650 1.367 . S
C651 C659 1.433 . S
C652 H648 0.929 . S
C652 C654 1.378 . S
C652 C656 1.350 . S
C653 C656 1.463 . S
C653 C658 1.350 . S
C653 N661 1.427 . S
C654 H645 0.930 . S
C654 C652 1.378 . S
C654 C655 1.367 . S
C655 C654 1.367 . S
C655 C657 1.433 . S
C656 C652 1.350 . S
C656 C653 1.463 . S
C656 N660 1.427 . S
C657 H647 0.929 . S
C657 C655 1.433 . S
C657 N660 1.384 . S
C658 H649 0.929 . S
C658 C650 1.378 . S
C658 C653 1.350 . S
C659 H646 0.929 . S
C659 C651 1.433 . S
C659 N661 1.384 . S
N660 C656 1.427 . S
N660 C657 1.384 . S
N661 C653 1.427 . S
N661 C659 1.384 . S
H662 C668 0.930 . S
H663 C672 0.930 . S
H664 C677 0.929 . S
H665 C675 0.929 . S
H666 C670 0.929 . S
H667 C676 0.929 . S
C668 H662 0.930 . S
C668 C669 1.367 . S
C668 C676 1.378 . S
C669 C668 1.367 . S
C669 C677 1.433 . S
C670 H666 0.929 . S
C670 C672 1.378 . S
C670 C674 1.350 . S
C671 C674 1.463 . S
C671 C676 1.350 . S
C671 N679 1.427 . S
C672 H663 0.930 . S
C672 C670 1.378 . S
C672 C673 1.367 . S
C673 C672 1.367 . S
C673 C675 1.433 . S
C674 C670 1.350 . S
C674 C671 1.463 . S
C674 N678 1.427 . S
C675 H665 0.929 . S
C675 C673 1.433 . S
C675 N678 1.384 . S
C676 H667 0.929 . S
C676 C668 1.378 . S
C676 C671 1.350 . S
C677 H664 0.929 . S
C677 C669 1.433 . S
C677 N679 1.384 . S
N678 C674 1.427 . S
N678 C675 1.384 . S
N679 C671 1.427 . S
N679 C677 1.384 . S
C255 C4 1.017 . S
C259 C103 1.045 . S
C273 C16 1.665 . S
C277 C147 1.699 . S
C295 C177 1.899 . S
C291 C32 1.830 . S
C309 C43 2.640 . S
C313 C218 2.626 . S
C331 C134 1.228 . S
C327 C5 1.192 . S
C349 C98 2.114 . S
C345 C21 2.073 . S
C367 C226 1.115 . S
C363 C27 1.148 . S
C385 C187 2.196 . S
C381 C37 2.254 . S
C399 C10 1.007 . S
C403 C223 1.010 . S
C421 C137 2.212 1_556 S
C417 C26 2.270 . S
C435 C38 1.717 . S
C439 C106 1.709 . S
C453 C15 2.236 . S
C457 C174 2.225 . S
C475 C94 1.238 . S
C471 C48 1.214 . S
C489 C59 1.367 . S
C493 C138 1.364 . S
C507 C76 1.950 . S
C511 C186 1.948 . S
C525 C87 2.453 . S
C529 C227 2.404 . S
C543 C54 0.690 . S
C547 C143 0.690 . S
C565 C107 2.843 . S
C561 C60 2.810 . S
C583 C217 1.075 . S
C579 C71 1.018 . S
C601 C178 1.923 . S
C597 C82 1.936 . S
C615 C49 1.417 . S
C619 C214 1.467 . S
C637 C146 1.512 . S
C633 C70 1.541 . S
C655 C97 2.108 . S
C651 C81 2.162 . S
C669 C65 1.910 . S
C673 C183 1.898 . S
