# Generated by pormake.
# Topology zzz, (3,6)-cn, num edge types: 1
# Building blocks:
#     Node 0, Type 0, BuildingBlock: QEWDON_clean_linker_0, # of connection points: 3
#     Node 1, Type 0, BuildingBlock: QEWDON_clean_linker_0, # of connection points: 3
#     Node 2, Type 0, BuildingBlock: QEWDON_clean_linker_0, # of connection points: 3
#     Node 3, Type 0, BuildingBlock: QEWDON_clean_linker_0, # of connection points: 3
#     Node 4, Type 0, BuildingBlock: QEWDON_clean_linker_0, # of connection points: 3
#     Node 5, Type 0, BuildingBlock: QEWDON_clean_linker_0, # of connection points: 3
#     Node 6, Type 0, BuildingBlock: QEWDON_clean_linker_0, # of connection points: 3
#     Node 7, Type 0, BuildingBlock: QEWDON_clean_linker_0, # of connection points: 3
#     Node 8, Type 1, BuildingBlock: CUKXOW_clean_sbu_0, # of connection points: 6
#     Node 9, Type 1, BuildingBlock: CUKXOW_clean_sbu_0, # of connection points: 6
#     Node 10, Type 1, BuildingBlock: CUKXOW_clean_sbu_0, # of connection points: 6
#     Node 11, Type 1, BuildingBlock: CUKXOW_clean_sbu_0, # of connection points: 6
#     Edge 12, Type (0, 1), BuildingBlock: MIFKUJ_clean_linker_0, # of connection points: 2
#     Edge 13, Type (0, 1), BuildingBlock: MIFKUJ_clean_linker_0, # of connection points: 2
#     Edge 14, Type (0, 1), BuildingBlock: MIFKUJ_clean_linker_0, # of connection points: 2
#     Edge 15, Type (0, 1), BuildingBlock: MIFKUJ_clean_linker_0, # of connection points: 2
#     Edge 16, Type (0, 1), BuildingBlock: MIFKUJ_clean_linker_0, # of connection points: 2
#     Edge 17, Type (0, 1), BuildingBlock: MIFKUJ_clean_linker_0, # of connection points: 2
#     Edge 18, Type (0, 1), BuildingBlock: MIFKUJ_clean_linker_0, # of connection points: 2
#     Edge 19, Type (0, 1), BuildingBlock: MIFKUJ_clean_linker_0, # of connection points: 2
#     Edge 20, Type (0, 1), BuildingBlock: MIFKUJ_clean_linker_0, # of connection points: 2
#     Edge 21, Type (0, 1), BuildingBlock: MIFKUJ_clean_linker_0, # of connection points: 2
#     Edge 22, Type (0, 1), BuildingBlock: MIFKUJ_clean_linker_0, # of connection points: 2
#     Edge 23, Type (0, 1), BuildingBlock: MIFKUJ_clean_linker_0, # of connection points: 2
#     Edge 24, Type (0, 1), BuildingBlock: MIFKUJ_clean_linker_0, # of connection points: 2
#     Edge 25, Type (0, 1), BuildingBlock: MIFKUJ_clean_linker_0, # of connection points: 2
#     Edge 26, Type (0, 1), BuildingBlock: MIFKUJ_clean_linker_0, # of connection points: 2
#     Edge 27, Type (0, 1), BuildingBlock: MIFKUJ_clean_linker_0, # of connection points: 2
#     Edge 28, Type (0, 1), BuildingBlock: MIFKUJ_clean_linker_0, # of connection points: 2
#     Edge 29, Type (0, 1), BuildingBlock: MIFKUJ_clean_linker_0, # of connection points: 2
#     Edge 30, Type (0, 1), BuildingBlock: MIFKUJ_clean_linker_0, # of connection points: 2
#     Edge 31, Type (0, 1), BuildingBlock: MIFKUJ_clean_linker_0, # of connection points: 2
#     Edge 32, Type (0, 1), BuildingBlock: MIFKUJ_clean_linker_0, # of connection points: 2
#     Edge 33, Type (0, 1), BuildingBlock: MIFKUJ_clean_linker_0, # of connection points: 2
#     Edge 34, Type (0, 1), BuildingBlock: MIFKUJ_clean_linker_0, # of connection points: 2
#     Edge 35, Type (0, 1), BuildingBlock: MIFKUJ_clean_linker_0, # of connection points: 2
# Relax obj value: 0.029
# Max RMSD: 0.090
# Mean RMSD: 0.035
data_MOF--net-zzz--node1-CUKXOW_clean_sbu_0--node2-QEWDON_clean_linker_0--edge1-MIFKUJ_clean_linker_0
_symmetry_space_group_name_H-M    P1
_symmetry_Int_Tables_number       1
_symmetry_cell_setting            triclinic
loop_
_symmetry_equiv_pos_as_xyz
'x, y, z'
_cell_length_a     69.846574
_cell_length_b     72.142486
_cell_length_c     19.665654
_cell_angle_alpha  93.050578
_cell_angle_beta   87.019999
_cell_angle_gamma 93.329233
loop_
_atom_site_label
_atom_site_type_symbol
_atom_site_fract_x
_atom_site_fract_y
_atom_site_fract_z
_atom_type_partial_charge
H0 H 0.77026 0.53436 0.98901 0.0
C1 C 0.77769 0.52932 0.03075 0.0
C2 C 0.79637 0.52338 0.01898 0.0
C3 C 0.76897 0.52921 0.09721 0.0
H4 H 0.82119 0.51439 0.06302 0.0
C5 C 0.80637 0.51776 0.07312 0.0
C6 C 0.79806 0.51713 0.13928 0.0
C7 C 0.7792 0.5228 0.15089 0.0
C8 C 0.74959 0.5365 0.1118 0.0
H9 H 0.77243 0.52224 0.20159 0.0
C10 C 0.73457 0.53239 0.06711 0.0
C11 C 0.71614 0.53887 0.08316 0.0
C12 C 0.74601 0.54762 0.17158 0.0
H13 H 0.75732 0.55141 0.2062 0.0
C14 C 0.72784 0.55419 0.18717 0.0
H15 H 0.737 0.52369 0.02119 0.0
C16 C 0.71297 0.54978 0.14357 0.0
H17 H 0.69898 0.55508 0.15673 0.0
H18 H 0.72528 0.56274 0.2333 0.0
H19 H 0.96969 0.78668 0.91351 0.0
C20 C 0.97295 0.79169 0.96479 0.0
C21 C 0.97842 0.81054 0.97786 0.0
C22 C 0.97002 0.77972 0.01931 0.0
H23 H 0.98624 0.8316 0.05466 0.0
C24 C 0.9821 0.81701 0.04448 0.0
C25 C 0.97906 0.8054 0.09894 0.0
C26 C 0.97281 0.78678 0.08657 0.0
C27 C 0.96121 0.76074 0.00767 0.0
H28 H 0.96965 0.77795 0.12912 0.0
C29 C 0.9709 0.74685 0.96885 0.0
C30 C 0.96197 0.72893 0.95827 0.0
C31 C 0.94268 0.7566 0.03583 0.0
H32 H 0.93501 0.7671 0.06574 0.0
C33 C 0.93378 0.73898 0.02499 0.0
H34 H 0.98525 0.74994 0.94724 0.0
C35 C 0.9433 0.72524 0.98645 0.0
H36 H 0.93618 0.71157 0.97969 0.0
H37 H 0.91946 0.73593 0.04676 0.0
H38 H 0.73339 0.97429 0.96028 0.0
C39 C 0.72555 0.97773 0.00786 0.0
C40 C 0.70802 0.98626 0.00679 0.0
C41 C 0.73255 0.97306 0.07043 0.0
H42 H 0.68369 0.99607 0.06637 0.0
C43 C 0.69759 0.99017 0.06796 0.0
C44 C 0.70388 0.9851 0.13025 0.0
C45 C 0.72143 0.97662 0.1314 0.0
C46 C 0.75095 0.96371 0.07247 0.0
H47 H 0.72639 0.9728 0.17979 0.0
C48 C 0.76758 0.97 0.03454 0.0
C49 C 0.78518 0.96178 0.04091 0.0
C50 C 0.75208 0.94867 0.1145 0.0
H51 H 0.7395 0.94328 0.14319 0.0
C52 C 0.76942 0.94034 0.11991 0.0
H53 H 0.76703 0.98168 0.00236 0.0
C54 C 0.78591 0.94694 0.0839 0.0
H55 H 0.79927 0.94036 0.08925 0.0
H56 H 0.77011 0.9288 0.15253 0.0
H57 H 0.55621 0.73354 0.96427 0.0
C58 C 0.55512 0.7261 0.0109 0.0
C59 C 0.55005 0.70695 0.00826 0.0
C60 C 0.56003 0.73529 0.07337 0.0
H61 H 0.54577 0.68233 0.06545 0.0
C62 C 0.54952 0.69716 0.06788 0.0
C63 C 0.55415 0.70602 0.13019 0.0
C64 C 0.5591 0.72513 0.13315 0.0
C65 C 0.56823 0.75481 0.07565 0.0
H66 H 0.56296 0.73192 0.18142 0.0
C67 C 0.55965 0.76906 0.04341 0.0
C68 C 0.56765 0.78752 0.04791 0.0
C69 C 0.5851 0.75917 0.11058 0.0
H70 H 0.59223 0.74848 0.13461 0.0
C71 C 0.5932 0.77726 0.11404 0.0
H72 H 0.54657 0.76591 0.0168 0.0
C73 C 0.58458 0.79133 0.08314 0.0
H74 H 0.59134 0.80523 0.08619 0.0
H75 H 0.60627 0.78038 0.14069 0.0
H76 H 0.2399 0.50669 0.36743 0.0
C77 C 0.23328 0.50369 0.31913 0.0
C78 C 0.21431 0.49608 0.31836 0.0
C79 C 0.24324 0.50854 0.25789 0.0
H80 H 0.19056 0.48818 0.25546 0.0
C81 C 0.20555 0.49301 0.25584 0.0
C82 C 0.21502 0.49811 0.19465 0.0
C83 C 0.23394 0.50577 0.19587 0.0
C84 C 0.26259 0.51818 0.25903 0.0
H85 H 0.24127 0.50991 0.14868 0.0
C86 C 0.27733 0.5114 0.29564 0.0
C87 C 0.29573 0.52058 0.29507 0.0
C88 C 0.26634 0.53444 0.22311 0.0
H89 H 0.25521 0.54012 0.19546 0.0
C90 C 0.28439 0.54372 0.22337 0.0
H91 H 0.27462 0.49873 0.32269 0.0
C92 C 0.29898 0.53689 0.25894 0.0
H93 H 0.31281 0.54451 0.25869 0.0
H94 H 0.28707 0.55631 0.19596 0.0
H95 H 0.00575 0.23454 0.46091 0.0
C96 C 0.01136 0.22801 0.41367 0.0
C97 C 0.02144 0.21176 0.41541 0.0
C98 C 0.00754 0.23514 0.35066 0.0
H99 H 0.03524 0.19009 0.35578 0.0
C100 C 0.02779 0.20282 0.35407 0.0
C101 C 0.02299 0.20886 0.29095 0.0
C102 C 0.01341 0.22542 0.28953 0.0
C103 C 0.9955 0.25143 0.34804 0.0
H104 H 0.00967 0.23025 0.24099 0.0
C105 C 0.99884 0.2678 0.38947 0.0
C106 C 0.98728 0.28311 0.3855 0.0
C107 C 0.98034 0.25051 0.30342 0.0
H108 H 0.97714 0.23803 0.27201 0.0
C109 C 0.96896 0.26557 0.29917 0.0
H110 H 0.0104 0.26861 0.42436 0.0
C111 C 0.97242 0.28176 0.33945 0.0
H112 H 0.96355 0.29335 0.33375 0.0
H113 H 0.95742 0.26472 0.26425 0.0
H114 H 0.28283 0.02098 0.38934 0.0
C115 C 0.29276 0.02412 0.34677 0.0
C116 C 0.31204 0.02913 0.35904 0.0
C117 C 0.28671 0.02187 0.27928 0.0
H118 H 0.34029 0.03483 0.31403 0.0
C119 C 0.32525 0.03181 0.30417 0.0
C120 C 0.31978 0.02881 0.23694 0.0
C121 C 0.30039 0.02452 0.22455 0.0
C122 C 0.2668 0.01456 0.26559 0.0
H123 H 0.29621 0.02222 0.17235 0.0
C124 C 0.25073 0.02077 0.30522 0.0
C125 C 0.23203 0.01341 0.29205 0.0
C126 C 0.26387 1.00074 0.21333 0.0
H127 H 0.27587 0.99525 0.18316 0.0
C128 C 0.24547 0.99342 0.20033 0.0
H129 H 0.25275 0.0315 0.34525 0.0
C130 C 0.22968 0.99964 0.23927 0.0
H131 H 0.21561 0.99336 0.22875 0.0
H132 H 0.24345 0.98269 0.16031 0.0
H133 H 0.4878 0.28338 0.36357 0.0
C134 C 0.48234 0.28937 0.31954 0.0
C135 C 0.47414 0.30678 0.32699 0.0
C136 C 0.48483 0.2804 0.25448 0.0
H137 H 0.4629 0.32882 0.27365 0.0
C138 C 0.46804 0.31488 0.26901 0.0
C139 C 0.47081 0.3064 0.20389 0.0
C140 C 0.47896 0.28905 0.19699 0.0
C141 C 0.4959 0.26336 0.2448 0.0
H142 H 0.48143 0.28266 0.1464 0.0
C143 C 0.49208 0.24798 0.28596 0.0
C144 C 0.50305 0.23213 0.27587 0.0
C145 C 0.5108 0.26268 0.19395 0.0
H146 H 0.51432 0.27438 0.16239 0.0
C147 C 0.52158 0.24705 0.18375 0.0
H148 H 0.4807 0.24836 0.32553 0.0
C149 C 0.51775 0.23189 0.22418 0.0
H150 H 0.52621 0.21982 0.21445 0.0
H151 H 0.53297 0.24669 0.1443 0.0
Tb152 Tb 0.00601 0.99576 0.61805 0.0
C153 C 0.047 0.01615 0.62599 0.0
Tb154 Tb 0.01273 0.02544 0.73607 0.0
O155 O 0.00838 0.01776 0.54467 0.0
O156 O 0.99801 0.02299 0.64494 0.0
O157 O 0.03645 1.00222 0.59734 0.0
C158 C 0.01892 0.05808 0.80443 0.0
O159 O 0.0406 0.02698 0.67836 0.0
C160 C 0.01576 0.99086 0.76552 0.0
C161 C 0.97246 0.00422 0.73062 0.0
O162 O 0.02006 0.04184 0.82902 0.0
O163 O 0.0143 0.05594 0.74135 0.0
O164 O 0.01076 0.00378 0.81057 0.0
O165 O 0.02042 0.9981 0.70988 0.0
O166 O 0.98193 0.01982 0.75175 0.0
O167 O 0.97989 0.99212 0.68448 0.0
C168 C 0.99974 0.9635 0.54733 0.0
O169 O 0.98974 0.97806 0.54427 0.0
O170 O 0.01333 0.96726 0.5892 0.0
C171 C 0.00282 0.03042 0.58985 0.0
Tb172 Tb 0.50702 0.02494 0.63385 0.0
C173 C 0.53321 0.99672 0.55494 0.0
Tb174 Tb 0.50992 0.98619 0.69299 0.0
O175 O 0.53747 0.03196 0.64758 0.0
O176 O 0.52227 0.01339 0.71081 0.0
O177 O 0.52254 0.01115 0.54897 0.0
C178 C 0.51994 0.95448 0.74254 0.0
O179 O 0.53172 0.98627 0.60888 0.0
C180 C 0.47777 0.99095 0.63428 0.0
C181 C 0.48403 0.015 0.7723 0.0
O182 O 0.5127 0.95605 0.68378 0.0
O183 O 0.52169 0.97084 0.77337 0.0
O184 O 0.4796 0.97893 0.67993 0.0
O185 O 0.49428 0.99782 0.6175 0.0
O186 O 0.49448 1.00036 0.77826 0.0
O187 O 0.48557 0.02529 0.71808 0.0
C188 C 0.49668 0.05646 0.58415 0.0
O189 O 0.49453 0.04001 0.55418 0.0
O190 O 0.50451 0.05505 0.64194 0.0
C191 C 0.53881 0.02023 0.69465 0.0
Tb192 Tb 0.51142 0.52223 0.62102 0.0
C193 C 0.46956 0.50399 0.6223 0.0
Tb194 Tb 0.499 0.49487 0.73408 0.0
O195 O 0.50911 0.49969 0.54221 0.0
O196 O 0.51574 0.49441 0.64161 0.0
O197 O 0.48116 0.51804 0.60141 0.0
C198 C 0.48998 0.46402 0.80056 0.0
O199 O 0.47424 0.49243 0.66871 0.0
C200 C 0.49836 0.53037 0.769 0.0
C201 C 0.54112 0.51275 0.73147 0.0
O202 O 0.48061 0.47913 0.80759 0.0
O203 O 0.50424 0.46638 0.7565 0.0
O204 O 0.50123 0.51783 0.81204 0.0
O205 O 0.49447 0.52245 0.71265 0.0
O206 O 0.52921 0.4992 0.75433 0.0
O207 O 0.53665 0.52398 0.68382 0.0
C208 C 0.52148 0.55339 0.55766 0.0
O209 O 0.52836 0.53725 0.54218 0.0
O210 O 0.50888 0.55187 0.60809 0.0
C211 C 0.51167 0.48688 0.58456 0.0
Tb212 Tb 0.99287 0.51306 0.61485 0.0
C213 C 0.00417 0.47254 0.64844 0.0
Tb214 Tb 0.02024 0.50804 0.73097 0.0
O215 O 0.01677 0.52415 0.54958 0.0
O216 O 0.02129 0.50538 0.62379 0.0
O217 O 0.99099 0.48279 0.62487 0.0
C218 C 0.05231 0.5082 0.79958 0.0
O219 O 0.01894 0.48009 0.68214 0.0
C220 C 0.9834 0.50677 0.76614 0.0
C221 C 0.00876 0.54908 0.69695 0.0
O222 O 0.03674 0.49796 0.81224 0.0
O223 O 0.04965 0.51853 0.7493 0.0
O224 O 0.99593 0.49894 0.80025 0.0
O225 O 0.99225 0.51623 0.72184 0.0
O226 O 0.02036 0.53865 0.72879 0.0
O227 O 0.99573 0.54183 0.6545 0.0
C228 C 0.96145 0.5125 0.5427 0.0
O229 O 0.97891 0.51193 0.51681 0.0
O230 O 0.96179 0.51337 0.60849 0.0
C231 C 0.02953 0.51634 0.58266 0.0
H232 H 0.19682 0.02 0.24696 0.0
H233 H 0.16743 0.02556 0.31474 0.0
H234 H 0.19866 0.0271 0.4988 0.0
H235 H 0.22813 0.02048 0.43087 0.0
H236 H 0.16786 0.00617 0.51573 0.0
H237 H 0.17914 0.0669 0.43919 0.0
H238 H 0.18695 0.09172 0.35919 0.0
H239 H 0.13662 0.07516 0.24986 0.0
H240 H 0.12864 0.05004 0.32853 0.0
H241 H 0.07818 0.03091 0.69336 0.0
H242 H 0.11142 0.03525 0.64695 0.0
H243 H 0.09373 0.01409 0.4495 0.0
H244 H 0.06071 0.00923 0.49574 0.0
H245 H 0.11942 0.0495 0.45624 0.0
H246 H 0.11254 0.98544 0.5277 0.0
H247 H 0.10502 0.96189 0.61297 0.0
H248 H 0.14823 0.98767 0.73995 0.0
H249 H 0.1558 0.01155 0.65576 0.0
C250 C 0.1975 0.02156 0.30187 0.0
C251 C 0.21483 0.01956 0.33344 0.0
C252 C 0.18067 0.02503 0.34067 0.0
C253 C 0.18076 0.02697 0.4121 0.0
C254 C 0.19819 0.0257 0.44379 0.0
C255 C 0.21508 0.02207 0.40485 0.0
C256 C 0.16232 0.02875 0.45307 0.0
C257 C 0.15751 0.01599 0.50366 0.0
C258 C 0.1486 0.04144 0.43744 0.0
C259 C 0.15336 0.05649 0.38962 0.0
C260 C 0.16981 0.06844 0.39777 0.0
C261 C 0.17426 0.08259 0.3527 0.0
C262 C 0.16231 0.08499 0.29941 0.0
C263 C 0.14587 0.07327 0.29115 0.0
C264 C 0.14136 0.05909 0.33604 0.0
C265 C 0.08139 0.02726 0.64002 0.0
C266 C 0.0669 0.0196 0.59825 0.0
C267 C 0.10035 0.02974 0.61367 0.0
C268 C 0.10497 0.02499 0.54486 0.0
C269 C 0.09042 0.01787 0.50269 0.0
C270 C 0.07161 0.01499 0.52929 0.0
C271 C 0.12506 0.02668 0.51683 0.0
C272 C 0.13006 0.04003 0.46885 0.0
C273 C 0.13905 0.01478 0.53557 0.0
C274 C 0.13454 1.00041 0.58595 0.0
C275 C 0.12029 0.9862 0.57415 0.0
C276 C 0.11605 0.97277 0.62219 0.0
C277 C 0.12609 0.97332 0.68197 0.0
C278 C 0.14043 0.98728 0.69371 0.0
C279 C 0.1447 1.00077 0.64585 0.0
H280 H 0.12279 0.96291 0.71909 0.0
H281 H 0.16577 0.09596 0.26459 0.0
H282 H 0.4685 0.2139 0.31026 0.0
H283 H 0.4635 0.18414 0.36575 0.0
H284 H 0.52446 0.18325 0.39004 0.0
H285 H 0.52948 0.21278 0.33506 0.0
H286 H 0.51096 0.15108 0.33338 0.0
H287 H 0.49302 0.19209 0.52522 0.0
H288 H 0.47431 0.21631 0.58628 0.0
H289 H 0.42228 0.18262 0.5589 0.0
H290 H 0.44067 0.15829 0.49684 0.0
H291 H 0.50026 0.09104 0.64517 0.0
H292 H 0.49715 0.12077 0.5939 0.0
H293 H 0.48103 0.09181 0.40603 0.0
H294 H 0.48443 0.06193 0.45712 0.0
H295 H 0.46939 0.13817 0.53957 0.0
H296 H 0.50045 0.11627 0.27371 0.0
H297 H 0.52114 0.0927 0.21827 0.0
H298 H 0.5506 0.08984 0.40343 0.0
H299 H 0.53022 0.11353 0.45965 0.0
C300 C 0.48075 0.2075 0.3287 0.0
C301 C 0.4994 0.21559 0.31772 0.0
C302 C 0.4779 0.19048 0.36016 0.0
C303 C 0.49363 0.18137 0.3816 0.0
C304 C 0.51212 0.18987 0.3732 0.0
C305 C 0.51497 0.20677 0.34182 0.0
C306 C 0.49122 0.16261 0.40999 0.0
C307 C 0.50175 0.14827 0.37824 0.0
C308 C 0.47925 0.15886 0.46851 0.0
C309 C 0.46819 0.17348 0.50567 0.0
C310 C 0.47757 0.18992 0.53167 0.0
C311 C 0.46703 0.20365 0.56658 0.0
C312 C 0.44711 0.20104 0.57627 0.0
C313 C 0.43771 0.18465 0.55123 0.0
C314 C 0.44818 0.17088 0.51621 0.0
C315 C 0.49589 0.09101 0.59311 0.0
C316 C 0.49278 0.07421 0.55484 0.0
C317 C 0.49403 0.10802 0.56394 0.0
C318 C 0.48909 0.10858 0.49582 0.0
C319 C 0.48516 0.09175 0.45833 0.0
C320 C 0.48704 0.07469 0.48758 0.0
C321 C 0.48932 0.12678 0.4634 0.0
C322 C 0.47835 0.14096 0.49414 0.0
C323 C 0.50113 0.13053 0.40448 0.0
C324 C 0.51368 0.1165 0.37098 0.0
C325 C 0.51139 0.11064 0.30246 0.0
C326 C 0.52305 0.09726 0.27094 0.0
C327 C 0.53714 0.08974 0.30738 0.0
C328 C 0.53964 0.09563 0.37534 0.0
C329 C 0.52803 0.10902 0.40706 0.0
H330 H 0.54614 0.07936 0.28291 0.0
H331 H 0.43898 0.21168 0.60333 0.0
H332 H 0.33315 0.51849 0.24961 0.0
H333 H 0.36013 0.50987 0.31225 0.0
H334 H 0.32178 0.49707 0.48459 0.0
H335 H 0.29461 0.50648 0.42263 0.0
H336 H 0.35172 0.51727 0.52642 0.0
H337 H 0.34423 0.46228 0.38708 0.0
H338 H 0.33961 0.44256 0.28232 0.0
H339 H 0.3934 0.46444 0.19579 0.0
H340 H 0.39823 0.48451 0.29961 0.0
H341 H 0.43647 0.48736 0.67785 0.0
H342 H 0.40467 0.4846 0.62901 0.0
H343 H 0.42821 0.51128 0.44973 0.0
H344 H 0.45978 0.51442 0.49845 0.0
H345 H 0.403 0.47819 0.42447 0.0
H346 H 0.40635 0.53681 0.56043 0.0
H347 H 0.41059 0.5556 0.66762 0.0
H348 H 0.36345 0.5244 0.76399 0.0
H349 H 0.35913 0.50524 0.65752 0.0
C350 C 0.3304 0.51383 0.30084 0.0
C351 C 0.31172 0.51335 0.33133 0.0
C352 C 0.34585 0.50865 0.33637 0.0
C353 C 0.34302 0.50258 0.40299 0.0
C354 C 0.32432 0.50163 0.43314 0.0
C355 C 0.30878 0.50689 0.39752 0.0
C356 C 0.3599 0.49858 0.442 0.0
C357 C 0.36268 0.50833 0.50481 0.0
C358 C 0.37434 0.48702 0.41391 0.0
C359 C 0.37153 0.475 0.35112 0.0
C360 C 0.35501 0.463 0.34554 0.0
C361 C 0.35237 0.45174 0.28633 0.0
C362 C 0.36619 0.45227 0.2324 0.0
C363 C 0.3827 0.46405 0.23761 0.0
C364 C 0.38542 0.47535 0.29669 0.0
C365 C 0.43486 0.49252 0.62784 0.0
C366 C 0.45057 0.50124 0.59217 0.0
C367 C 0.41672 0.49095 0.60012 0.0
C368 C 0.41413 0.49777 0.53586 0.0
C369 C 0.42993 0.5059 0.49933 0.0
C370 C 0.44793 0.50779 0.52746 0.0
C371 C 0.39489 0.49729 0.50723 0.0
C372 C 0.39175 0.48673 0.4465 0.0
C373 C 0.38002 0.50789 0.53758 0.0
C374 C 0.38259 0.51944 0.60138 0.0
C375 C 0.39702 0.53384 0.60469 0.0
C376 C 0.39941 0.54458 0.66525 0.0
C377 C 0.38734 0.54115 0.72266 0.0
C378 C 0.37282 0.52701 0.71954 0.0
C379 C 0.37039 0.51621 0.65911 0.0
H380 H 0.38921 0.54949 0.7695 0.0
H381 H 0.36412 0.44353 0.18661 0.0
H382 H 0.02172 0.30158 0.41569 0.0
H383 H 0.02648 0.33272 0.47114 0.0
H384 H 0.96521 0.33592 0.50277 0.0
H385 H 0.96035 0.30479 0.44977 0.0
H386 H 0.98356 0.36568 0.43236 0.0
H387 H 0.9904 0.33187 0.6346 0.0
H388 H 0.00493 0.30915 0.70271 0.0
H389 H 0.05976 0.33886 0.67969 0.0
H390 H 0.04561 0.36162 0.61054 0.0
H391 H 0.97261 0.45019 0.6174 0.0
H392 H 0.97136 0.41715 0.58279 0.0
H393 H 0.03255 0.41614 0.60231 0.0
H394 H 0.03369 0.44903 0.64031 0.0
H395 H 0.01689 0.38512 0.6433 0.0
H396 H 0.01105 0.41911 0.44345 0.0
H397 H 0.99753 0.44175 0.37212 0.0
H398 H 0.94278 0.41142 0.38408 0.0
H399 H 0.95586 0.38888 0.45618 0.0
C400 C 0.00929 0.30872 0.43599 0.0
C401 C 0.99063 0.30077 0.4273 0.0
C402 C 0.01204 0.32655 0.4674 0.0
C403 C 0.99618 0.33669 0.49051 0.0
C404 C 0.97764 0.32841 0.48473 0.0
C405 C 0.97489 0.31063 0.45407 0.0
C406 C 0.99858 0.35641 0.51593 0.0
C407 C 0.99068 0.36993 0.47888 0.0
C408 C 0.00849 0.36199 0.57516 0.0
C409 C 0.01699 0.34832 0.61671 0.0
C410 C 0.0056 0.33346 0.64346 0.0
C411 C 0.01375 0.32059 0.68239 0.0
C412 C 0.03327 0.32252 0.69533 0.0
C413 C 0.04466 0.33736 0.66951 0.0
C414 C 0.03657 0.35025 0.63049 0.0
C415 C 0.98578 0.44291 0.61471 0.0
C416 C 0.00327 0.45227 0.63105 0.0
C417 C 0.98508 0.424 0.59453 0.0
C418 C 0.00195 0.41416 0.58808 0.0
C419 C 0.01934 0.42337 0.60647 0.0
C420 C 0.01998 0.44221 0.62809 0.0
C421 C 1.00145 0.39446 0.56048 0.0
C422 C 0.00983 0.38095 0.59664 0.0
C423 C 0.99222 0.38884 0.49964 0.0
C424 C 0.9844 0.40239 0.45569 0.0
C425 C 0.99609 0.41736 0.43117 0.0
C426 C 0.9885 0.43019 0.39056 0.0
C427 C 0.96928 0.4281 0.37366 0.0
C428 C 0.95764 0.41313 0.39718 0.0
C429 C 0.96514 0.4003 0.43789 0.0
H430 H 0.96343 0.43805 0.34223 0.0
H431 H 0.03956 0.31255 0.72552 0.0
H432 H 0.7923 0.96423 0.90347 0.0
H433 H 0.82327 0.97257 0.84398 0.0
H434 H 0.84911 0.98326 0.03762 0.0
H435 H 0.81842 0.97455 0.0969 0.0
H436 H 0.85846 0.01109 0.93548 0.0
H437 H 0.85615 0.94429 0.96354 0.0
H438 H 0.84172 0.91242 0.94845 0.0
H439 H 0.84575 0.91656 0.73109 0.0
H440 H 0.85994 0.94859 0.745 0.0
H441 H 0.95778 0.01422 0.85734 0.0
H442 H 0.92529 0.00766 0.90506 0.0
H443 H 0.90982 0.97941 0.71492 0.0
H444 H 0.94279 0.98484 0.66891 0.0
H445 H 0.89337 0.96132 0.80714 0.0
H446 H 0.8965 0.02631 0.77156 0.0
H447 H 0.90961 0.0588 0.77934 0.0
H448 H 0.90213 0.05966 0.99757 0.0
H449 H 0.88921 0.02709 0.99116 0.0
C450 C 0.80457 0.9686 0.93307 0.0
C451 C 0.80307 0.96875 0.00461 0.0
C452 C 0.82221 0.97327 0.89919 0.0
C453 C 0.83847 0.97845 0.9365 0.0
C454 C 0.83674 0.97932 0.00796 0.0
C455 C 0.81925 0.97432 0.0417 0.0
C456 C 0.85754 0.98225 0.90162 0.0
C457 C 0.8662 1.00024 0.90766 0.0
C458 C 0.8673 0.96819 0.86358 0.0
C459 C 0.85887 0.94891 0.85535 0.0
C460 C 0.85378 0.93847 0.91257 0.0
C461 C 0.84569 0.92037 0.90422 0.0
C462 C 0.84276 0.91249 0.83886 0.0
C463 C 0.84799 0.92269 0.7817 0.0
C464 C 0.85606 0.94082 0.78978 0.0
C465 C 0.94742 0.00664 0.82575 0.0
C466 C 0.95274 1.00024 0.75917 0.0
C467 C 0.92876 0.003 0.85286 0.0
C468 C 0.91476 0.99352 0.81309 0.0
C469 C 0.92021 0.98687 0.74675 0.0
C470 C 0.93905 0.99002 0.72033 0.0
C471 C 0.89461 0.9903 0.84107 0.0
C472 C 0.88569 0.97236 0.83401 0.0
C473 C 0.8844 0.00456 0.87682 0.0
C474 C 0.89202 0.02421 0.88087 0.0
C475 C 0.89775 0.0334 0.82122 0.0
C476 C 0.90514 0.05183 0.82539 0.0
C477 C 0.90674 0.06128 0.88891 0.0
C478 C 0.9009 0.05232 0.9484 0.0
C479 C 0.89351 0.03389 0.94453 0.0
H480 H 0.91248 0.07554 0.89203 0.0
H481 H 0.83649 0.89847 0.8325 0.0
H482 H 0.5528 0.7879 0.92103 0.0
H483 H 0.54174 0.81481 0.86591 0.0
H484 H 0.55208 0.84923 0.04793 0.0
H485 H 0.56239 0.8224 0.10372 0.0
H486 H 0.52061 0.85877 0.99554 0.0
H487 H 0.58497 0.84754 0.90846 0.0
H488 H 0.61037 0.82898 0.85212 0.0
H489 H 0.57858 0.82231 0.67049 0.0
H490 H 0.55285 0.84065 0.72613 0.0
H491 H 0.53252 0.94916 0.86881 0.0
H492 H 0.5383 0.91952 0.91761 0.0
H493 H 0.52278 0.89019 0.7298 0.0
H494 H 0.51709 0.9198 0.68077 0.0
H495 H 0.55466 0.87681 0.77927 0.0
H496 H 0.49136 0.89063 0.86596 0.0
H497 H 0.46679 0.90995 0.92362 0.0
H498 H 0.49747 0.9125 0.10783 0.0
H499 H 0.52237 0.89339 0.05097 0.0
C500 C 0.55235 0.80113 0.94964 0.0
C501 C 0.55875 0.80306 0.01642 0.0
C502 C 0.54621 0.81655 0.91789 0.0
C503 C 0.54644 0.83418 0.95224 0.0
C504 C 0.55188 0.83585 0.02007 0.0
C505 C 0.55793 0.8205 0.05176 0.0
C506 C 0.54188 0.85112 0.91738 0.0
C507 C 0.52816 0.86276 0.94849 0.0
C508 C 0.55144 0.85624 0.85527 0.0
C509 C 0.5669 0.84527 0.8217 0.0
C510 C 0.58334 0.842 0.85668 0.0
C511 C 0.5978 0.83154 0.82485 0.0
C512 C 0.59606 0.82442 0.75784 0.0
C513 C 0.57988 0.8278 0.72244 0.0
C514 C 0.56536 0.83823 0.75408 0.0
C515 C 0.53042 0.93638 0.83794 0.0
C516 C 0.52429 0.93675 0.77115 0.0
C517 C 0.53363 0.91946 0.86592 0.0
C518 C 0.53073 0.90259 0.82767 0.0
C519 C 0.52505 0.903 0.76035 0.0
C520 C 0.52178 0.91992 0.73245 0.0
C521 C 0.53359 0.88453 0.85796 0.0
C522 C 0.54698 0.87272 0.82598 0.0
C523 C 0.52383 0.87932 0.91953 0.0
C524 C 0.50882 0.89071 0.954 0.0
C525 C 0.49294 0.89542 0.91862 0.0
C526 C 0.47894 0.90631 0.95118 0.0
C527 C 0.48059 0.91248 0.0193 0.0
C528 C 0.49622 0.90772 0.05505 0.0
C529 C 0.51027 0.89684 0.0227 0.0
H530 H 0.46974 0.92092 0.04441 0.0
H531 H 0.60728 0.81632 0.73328 0.0
H532 H 0.68036 0.52472 0.1194 0.0
H533 H 0.65283 0.51923 0.04757 0.0
H534 H 0.68769 0.53742 0.87356 0.0
H535 H 0.71545 0.54286 0.94557 0.0
H536 H 0.65151 0.55427 0.89319 0.0
H537 H 0.67617 0.49357 0.87669 0.0
H538 H 0.68838 0.46538 0.92075 0.0
H539 H 0.63489 0.45504 0.03369 0.0
H540 H 0.62245 0.48333 0.99111 0.0
H541 H 0.57386 0.53005 0.67615 0.0
H542 H 0.60556 0.5335 0.72444 0.0
H543 H 0.58301 0.50541 0.90234 0.0
H544 H 0.55165 0.50125 0.85311 0.0
H545 H 0.61584 0.49302 0.86732 0.0
H546 H 0.59208 0.55462 0.89595 0.0
H547 H 0.57945 0.58337 0.8578 0.0
H548 H 0.63036 0.59277 0.72951 0.0
H549 H 0.64315 0.56392 0.76605 0.0
C550 C 0.68218 0.52743 0.06573 0.0
C551 C 0.70001 0.53423 0.03798 0.0
C552 C 0.66649 0.52423 0.02473 0.0
C553 C 0.66824 0.52787 0.95524 0.0
C554 C 0.68607 0.53451 0.92709 0.0
C555 C 0.7019 0.53749 0.96804 0.0
C556 C 0.65118 0.52521 0.91314 0.0
C557 C 0.64387 0.54083 0.88626 0.0
C558 C 0.64103 0.50775 0.90565 0.0
C559 C 0.64843 0.49066 0.93105 0.0
C560 C 0.66706 0.48537 0.91133 0.0
C561 C 0.67401 0.46935 0.93597 0.0
C562 C 0.66243 0.45845 0.98009 0.0
C563 C 0.64385 0.46351 -0.00046 0.0
C564 C 0.63683 0.47952 0.97509 0.0
C565 C 0.57568 0.52464 0.7256 0.0
C566 C 0.56025 0.51535 0.76077 0.0
C567 C 0.5938 0.52669 0.75332 0.0
C568 C 0.5967 0.51991 0.81754 0.0
C569 C 0.58123 0.5107 0.85264 0.0
C570 C 0.56326 0.50836 0.82446 0.0
C571 C 0.61577 0.5222 0.84856 0.0
C572 C 0.62351 0.50647 0.8734 0.0
C573 C 0.62616 0.53963 0.85495 0.0
C574 C 0.61848 0.55701 0.83317 0.0
C575 C 0.60051 0.56275 0.85921 0.0
C576 C 0.59334 0.57907 0.83793 0.0
C577 C 0.60409 0.58986 0.79116 0.0
C578 C 0.62204 0.58438 0.76564 0.0
C579 C 0.62926 0.56805 0.78662 0.0
H580 H 0.59856 0.6025 0.77484 0.0
H581 H 0.66784 0.44605 0.99911 0.0
H582 H 0.99779 0.717 0.97651 0.0
H583 H 0.01195 0.6889 0.92424 0.0
H584 H 0.96236 0.67817 0.80327 0.0
H585 H 0.94827 0.70609 0.85507 0.0
H586 H 0.99615 0.65308 0.93355 0.0
H587 H 0.9754 0.65645 0.65247 0.0
H588 H 0.9727 0.68001 0.56759 0.0
H589 H 0.01385 0.7164 0.67082 0.0
H590 H 0.01701 0.69297 0.75573 0.0
H591 H 0.98402 0.57397 0.65701 0.0
H592 H 0.98183 0.60645 0.69527 0.0
H593 H 0.03138 0.60308 0.81522 0.0
H594 H 0.0334 0.57026 0.77842 0.0
H595 H 0.00356 0.63713 0.68545 0.0
H596 H 0.02633 0.6312 0.96005 0.0
H597 H 0.02732 0.6076 0.04603 0.0
H598 H 0.97975 0.57654 0.95703 0.0
H599 H 0.97835 0.60006 0.87111 0.0
C600 C 0.99017 0.70885 0.9376 0.0
C601 C 0.97194 0.7137 0.91984 0.0
C602 C 0.99819 0.69275 0.90817 0.0
C603 C 0.98827 0.68145 0.85962 0.0
C604 C 0.97041 0.68674 0.83997 0.0
C605 C 0.96233 0.70267 0.86981 0.0
C606 C 0.99567 0.6634 0.83294 0.0
C607 C 0.99823 0.64973 0.87933 0.0
C608 C 0.99795 0.65887 0.76218 0.0
C609 C 0.99633 0.67298 0.71078 0.0
C610 C 0.98395 0.66944 0.65687 0.0
C611 C 0.98232 0.68278 0.60878 0.0
C612 C 0.99306 0.69971 0.61391 0.0
C613 C 0.00549 0.70331 0.66703 0.0
C614 C 0.00718 0.69001 0.71523 0.0
C615 C 0.99459 0.5801 0.69113 0.0
C616 C 0.00879 0.56936 0.71509 0.0
C617 C 0.99334 0.59876 0.71285 0.0
C618 C 0.00626 0.60723 0.75894 0.0
C619 C 0.021 0.5968 0.78066 0.0
C620 C 0.02219 0.57803 0.75931 0.0
C621 C 0.00359 0.62666 0.78601 0.0
C622 C 0.00187 0.64059 0.73971 0.0
C623 C 0.00187 0.63139 0.85688 0.0
C624 C 0.00242 0.61726 0.9087 0.0
C625 C 0.01607 0.61935 0.95898 0.0
C626 C 0.0167 0.60599 0.00767 0.0
C627 C 0.00366 0.59054 0.00682 0.0
C628 C 0.9899 0.58847 0.95746 0.0
C629 C 0.9892 0.6018 0.90872 0.0
H630 H 0.00418 0.58021 0.04451 0.0
H631 H 0.99177 0.71002 0.57665 0.0
H632 H 0.99135 0.19847 0.49462 0.0
H633 H 0.99159 0.17027 0.558 0.0
H634 H 0.05341 0.17204 0.53582 0.0
H635 H 0.05316 0.20018 0.47197 0.0
H636 H 0.03597 0.14254 0.46648 0.0
H637 H 0.03053 0.17078 0.69387 0.0
H638 H 0.01597 0.19106 0.78493 0.0
H639 H 0.96242 0.15901 0.77226 0.0
H640 H 0.97652 0.13874 0.68043 0.0
H641 H 0.03602 0.04852 0.54671 0.0
H642 H 0.04295 0.08215 0.54659 0.0
H643 H 0.98442 0.09099 0.61768 0.0
H644 H 0.97824 0.05735 0.6243 0.0
H645 H 0.00416 0.11613 0.67362 0.0
H646 H 0.00394 0.09351 0.43873 0.0
H647 H 0.01377 0.07437 0.33653 0.0
H648 H 0.07187 0.09665 0.35045 0.0
H649 H 0.06241 0.11578 0.45318 0.0
C650 C 0.00504 0.1935 0.50699 0.0
C651 C 0.02223 0.20138 0.47805 0.0
C652 C 0.00517 0.17729 0.54298 0.0
C653 C 0.02252 0.1689 0.55088 0.0
C654 C 0.03986 0.17824 0.53011 0.0
C655 C 0.03973 0.1944 0.49407 0.0
C656 C 0.02226 0.14885 0.56496 0.0
C657 C 0.02943 0.13679 0.51261 0.0
C658 C 0.0129 0.14131 0.62355 0.0
C659 C 0.00457 0.15332 0.67979 0.0
C660 C 0.01562 0.16813 0.71018 0.0
C661 C 0.00745 0.17961 0.76202 0.0
C662 C 0.98827 0.17636 0.78412 0.0
C663 C 0.97727 0.16152 0.75498 0.0
C664 C 0.98535 0.15002 0.7031 0.0
C665 C 0.02469 0.05773 0.56201 0.0
C666 C 0.00652 0.05052 0.58429 0.0
C667 C 0.02859 0.07695 0.56174 0.0
C668 C 0.01408 0.08928 0.58025 0.0
C669 C 0.99591 0.08191 0.60298 0.0
C670 C 0.99227 0.06271 0.60596 0.0
C671 C 0.01756 0.10976 0.57442 0.0
C672 C 0.01099 0.12188 0.62801 0.0
C673 C 0.02679 0.11745 0.51562 0.0
C674 C 0.03252 0.10589 0.45406 0.0
C675 C 0.01884 0.09422 0.42024 0.0
C676 C 0.02433 0.0834 0.36219 0.0
C677 C 0.04344 0.08425 0.33714 0.0
C678 C 0.05709 0.09597 0.36999 0.0
C679 C 0.05167 0.10682 0.42809 0.0
H680 H 0.04767 0.07587 0.29218 0.0
H681 H 0.98187 0.18534 0.82365 0.0
H682 H 0.32222 0.99803 0.41224 0.0
H683 H 0.34662 0.99635 0.49454 0.0
H684 H 0.34531 0.05563 0.53869 0.0
H685 H 0.32182 0.05732 0.45102 0.0
H686 H 0.37869 0.05039 0.52088 0.0
H687 H 0.33515 0.02046 0.66652 0.0
H688 H 0.30846 1.0 0.71093 0.0
H689 H 0.33944 0.95196 0.64618 0.0
H690 H 0.36622 0.9721 0.60027 0.0
H691 H 0.44746 0.99132 0.72509 0.0
H692 H 0.41657 0.00437 0.71433 0.0
H693 H 0.43485 0.02147 0.51268 0.0
H694 H 0.46662 0.00972 0.5264 0.0
H695 H 0.39012 0.9949 0.64776 0.0
H696 H 0.41021 0.05552 0.45818 0.0
H697 H 0.43367 0.08233 0.45063 0.0
H698 H 0.44598 0.07819 0.66068 0.0
H699 H 0.42236 0.05164 0.67013 0.0
C700 C 0.32649 0.01054 0.44195 0.0
C701 C 0.31999 0.02774 0.42633 0.0
C702 C 0.34051 0.00962 0.48935 0.0
C703 C 0.34795 0.02585 0.52382 0.0
C704 C 0.34002 0.04289 0.51272 0.0
C705 C 0.32634 0.04386 0.46356 0.0
C706 C 0.36582 0.02518 0.56202 0.0
C707 C 0.38108 0.03836 0.54936 0.0
C708 C 0.36889 0.01021 0.60321 0.0
C709 C 0.35273 0.99785 0.62973 0.0
C710 C 0.33624 0.00553 0.66121 0.0
C711 C 0.32109 0.99398 0.68674 0.0
C712 C 0.32225 0.97469 0.68141 0.0
C713 C 0.33857 0.96691 0.65041 0.0
C714 C 0.35377 0.9784 0.62472 0.0
C715 C 0.44499 0.99811 0.67876 0.0
C716 C 0.45938 0.99947 0.62631 0.0
C717 C 0.42724 0.00553 0.67255 0.0
C718 C 0.42313 0.01391 0.61259 0.0
C719 C 0.43765 0.01547 0.56022 0.0
C720 C 0.45576 0.00858 0.56756 0.0
C721 C 0.40325 0.01942 0.60243 0.0
C722 C 0.38765 0.00715 0.62059 0.0
C723 C 0.39959 0.03603 0.57139 0.0
C724 C 0.41449 0.05149 0.56474 0.0
C725 C 0.41787 0.06034 0.50285 0.0
C726 C 0.43119 0.07552 0.49827 0.0
C727 C 0.44117 0.08202 0.55529 0.0
C728 C 0.43816 0.07317 0.61665 0.0
C729 C 0.42484 0.05803 0.62159 0.0
H730 H 0.45119 0.09398 0.55205 0.0
H731 H 0.31052 0.96578 0.70131 0.0
H732 H 0.50502 0.31401 0.40579 0.0
H733 H 0.51026 0.34175 0.48109 0.0
H734 H 0.45155 0.35528 0.46264 0.0
H735 H 0.44601 0.32729 0.38937 0.0
H736 H 0.49298 0.37621 0.39383 0.0
H737 H 0.45202 0.35682 0.59089 0.0
H738 H 0.44332 0.33741 0.68833 0.0
H739 H 0.49806 0.35195 0.77202 0.0
H740 H 0.50723 0.37119 0.67422 0.0
H741 H 0.48729 0.4704 0.49375 0.0
H742 H 0.47996 0.43713 0.47187 0.0
H743 H 0.51978 0.42483 0.62187 0.0
H744 H 0.52671 0.45824 0.64504 0.0
H745 H 0.48985 0.40174 0.63298 0.0
H746 H 0.53135 0.42086 0.44552 0.0
H747 H 0.54326 0.439 0.34765 0.0
H748 H 0.49157 0.42347 0.24467 0.0
H749 H 0.4792 0.40554 0.34247 0.0
C750 C 0.4929 0.32224 0.42118 0.0
C751 C 0.47515 0.31859 0.39109 0.0
C752 C 0.49594 0.33813 0.46414 0.0
C753 C 0.48126 0.35048 0.47777 0.0
C754 C 0.46296 0.34575 0.45385 0.0
C755 C 0.45985 0.3298 0.41162 0.0
C756 C 0.48625 0.37009 0.49838 0.0
C757 C 0.49205 0.38189 0.44601 0.0
C758 C 0.4858 0.37715 0.56674 0.0
C759 C 0.48048 0.36511 0.62432 0.0
C760 C 0.46239 0.35553 0.62909 0.0
C761 C 0.45732 0.34465 0.68469 0.0
C762 C 0.47019 0.34332 0.73606 0.0
C763 C 0.48815 0.35288 0.73195 0.0
C764 C 0.49328 0.36379 0.67648 0.0
C765 C 0.49451 0.46057 0.5218 0.0
C766 C 0.50759 0.4668 0.57089 0.0
C767 C 0.49035 0.44156 0.50929 0.0
C768 C 0.49957 0.42839 0.54433 0.0
C769 C 0.51248 0.43466 0.59414 0.0
C770 C 0.51644 0.45373 0.60732 0.0
C771 C 0.49597 0.40815 0.52778 0.0
C772 C 0.49067 0.39615 0.58065 0.0
C773 C 0.49712 0.40073 0.45963 0.0
C774 C 0.50428 0.41199 0.40162 0.0
C775 C 0.52243 0.42149 0.40234 0.0
C776 C 0.52928 0.43171 0.34682 0.0
C777 C 0.51815 0.43244 0.29006 0.0
C778 C 0.50014 0.42297 0.28876 0.0
C779 C 0.49321 0.41278 0.34423 0.0
H780 H 0.52351 0.4403 0.24703 0.0
H781 H 0.46618 0.335 0.7793 0.0
H782 H 0.2092 0.52232 0.42159 0.0
H783 H 0.18002 0.52446 0.49541 0.0
H784 H 0.16109 0.46907 0.42628 0.0
H785 H 0.19045 0.4666 0.35419 0.0
H786 H 0.1438 0.50864 0.38424 0.0
H787 H 0.15752 0.46637 0.55554 0.0
H788 H 0.17495 0.45501 0.64929 0.0
H789 H 0.16366 0.50469 0.77118 0.0
H790 H 0.14658 0.51662 0.6772 0.0
H791 H 0.04537 0.49422 0.48272 0.0
H792 H 0.07972 0.49091 0.45507 0.0
H793 H 0.09361 0.53334 0.61064 0.0
H794 H 0.05916 0.53682 0.63735 0.0
H795 H 0.11461 0.50214 0.61762 0.0
H796 H 0.09917 0.54355 0.44926 0.0
H797 H 0.0817 0.555 0.35561 0.0
H798 H 0.09619 0.50714 0.22834 0.0
H799 H 0.11346 0.49521 0.32169 0.0
C800 C 0.19943 0.51016 0.42548 0.0
C801 C 0.20193 0.49438 0.38152 0.0
C802 C 0.18272 0.51143 0.46755 0.0
C803 C 0.16845 0.49692 0.46619 0.0
C804 C 0.17206 0.48031 0.42873 0.0
C805 C 0.18882 0.47894 0.3874 0.0
C806 C 0.1484 0.50095 0.48613 0.0
C807 C 0.13732 0.50706 0.43513 0.0
C808 C 0.1403 0.49938 0.55299 0.0
C809 C 0.15119 0.4926 0.60853 0.0
C810 C 0.15915 0.47509 0.60158 0.0
C811 C 0.16886 0.4685 0.65495 0.0
C812 C 0.17053 0.47919 0.71585 0.0
C813 C 0.16246 0.49649 0.7237 0.0
C814 C 0.15279 0.50319 0.67034 0.0
C815 C 0.05583 0.503 0.51 0.0
C816 C 0.04989 0.5158 0.56172 0.0
C817 C 0.07537 0.50109 0.49449 0.0
C818 C 0.08918 0.51193 0.53071 0.0
C819 C 0.08317 0.52484 0.58225 0.0
C820 C 0.06359 0.52684 0.59733 0.0
C821 C 0.10987 0.50949 0.51522 0.0
C822 C 0.12111 0.50382 0.56684 0.0
C823 C 0.11819 0.51143 0.44871 0.0
C824 C 0.10746 0.51839 0.39285 0.0
C825 C 0.09844 0.53535 0.40163 0.0
C826 C 0.08861 0.54195 0.34851 0.0
C827 C 0.08779 0.53178 0.28613 0.0
C828 C 0.0968 0.51498 0.27675 0.0
C829 C 0.10662 0.5083 0.32975 0.0
H830 H 0.08023 0.53695 0.24499 0.0
H831 H 0.17802 0.474 0.75694 0.0
H832 H 1.00088 0.81324 0.85951 0.0
H833 H 0.00592 0.84112 0.7924 0.0
H834 H 0.96144 0.86754 0.91637 0.0
H835 H 0.95601 0.83971 0.98101 0.0
H836 H 0.9619 0.88016 0.79549 0.0
H837 H 0.01056 0.87102 0.95809 0.0
H838 H 0.03578 0.85356 0.00494 0.0
H839 H 0.06803 0.85481 0.81303 0.0
H840 H 0.04281 0.87208 0.76496 0.0
H841 H 0.9903 0.97392 0.85416 0.0
H842 H 0.98341 0.94048 0.86388 0.0
H843 H 0.02679 0.92918 0.70518 0.0
H844 H 0.03395 0.96276 0.69621 0.0
H845 H 0.02842 0.90721 0.8172 0.0
H846 H 0.98241 0.92263 0.66355 0.0
H847 H 0.95779 0.9418 0.62216 0.0
H848 H 0.92086 0.92981 0.79759 0.0
H849 H 0.94541 0.91077 0.84071 0.0
C850 C 0.99175 0.82478 0.87035 0.0
C851 C 0.97823 0.82451 0.92564 0.0
C852 C 0.99474 0.84075 0.83265 0.0
C853 C 0.98446 0.85667 0.85081 0.0
C854 C 0.96968 0.85557 0.90169 0.0
C855 C 0.96659 0.83966 0.93868 0.0
C856 C 0.99045 0.87515 0.82428 0.0
C857 C 0.97645 0.88605 0.80023 0.0
C858 C 0.00953 0.88281 0.82896 0.0
C859 C 0.02476 0.87264 0.85787 0.0
C860 C 0.023 0.86748 0.92592 0.0
C861 C 0.03728 0.85762 0.95265 0.0
C862 C 0.05349 0.85304 0.91192 0.0
C863 C 0.05546 0.85834 0.84446 0.0
C864 C 0.04118 0.86816 0.81746 0.0
C865 C 0.99845 0.96428 0.82178 0.0
C866 C 0.01249 0.97079 0.77392 0.0
C867 C 0.9944 0.94523 0.8269 0.0
C868 C 0.00439 0.93239 0.78445 0.0
C869 C 0.01884 0.93888 0.73795 0.0
C870 C 0.02282 0.95798 0.7326 0.0
C871 C 0.99979 0.91223 0.79003 0.0
C872 C 0.014 0.90114 0.81076 0.0
C873 C 0.98093 0.90445 0.78238 0.0
C874 C 0.96581 0.91534 0.7556 0.0
C875 C 0.96907 0.92413 0.6935 0.0
C876 C 0.95513 0.93497 0.6697 0.0
C877 C 0.93778 0.93702 0.70725 0.0
C878 C 0.93431 0.92818 0.76856 0.0
C879 C 0.94822 0.91733 0.79265 0.0
H880 H 0.92701 0.94544 0.6888 0.0
H881 H 0.06454 0.84541 0.93267 0.0
H882 H 0.69867 0.01899 0.95963 0.0
H883 H 0.67189 0.02264 0.88702 0.0
H884 H 0.66736 0.96335 0.84405 0.0
H885 H 0.69435 0.95972 0.91623 0.0
H886 H 0.65587 0.98317 0.73625 0.0
H887 H 0.64246 0.97881 0.97614 0.0
H888 H 0.64613 0.98672 0.09859 0.0
H889 H 0.63191 0.04281 0.07018 0.0
H890 H 0.62827 0.03525 0.94747 0.0
H891 H 0.5449 0.99941 0.8029 0.0
H892 H 0.57573 0.98967 0.83863 0.0
H893 H 0.605 0.01818 0.67233 0.0
H894 H 0.5742 0.02725 0.63523 0.0
H895 H 0.60378 0.01003 0.88474 0.0
H896 H 0.64832 0.99842 0.62631 0.0
H897 H 0.64435 0.9844 0.51058 0.0
H898 H 0.59381 0.95299 0.58107 0.0
H899 H 0.59772 0.9664 0.69771 0.0
C900 C 0.69263 0.00689 0.93164 0.0
C901 C 0.69853 0.98909 0.94318 0.0
C902 C 0.6772 0.00894 0.89087 0.0
C903 C 0.66737 0.99321 0.86167 0.0
C904 C 0.67472 0.97564 0.86642 0.0
C905 C 0.69024 0.97359 0.90711 0.0
C906 C 0.648 0.99483 0.83587 0.0
C907 C 0.64446 0.98916 0.76823 0.0
C908 C 0.63294 1.00187 0.87885 0.0
C909 C 0.63526 0.00651 0.95253 0.0
C910 C 0.64025 0.99286 0.99593 0.0
C911 C 0.64226 0.99727 0.0654 0.0
C912 C 0.6393 0.01527 0.09207 0.0
C913 C 0.63424 0.02888 0.0494 0.0
C914 C 0.63215 0.02454 0.97993 0.0
C915 C 0.55788 0.00321 0.77329 0.0
C916 C 0.55718 0.01398 0.71629 0.0
C917 C 0.57551 0.99777 0.79387 0.0
C918 C 0.59274 0.00304 0.75783 0.0
C919 C 0.59195 0.01363 0.70029 0.0
C920 C 0.57435 0.01899 0.67962 0.0
C921 C 0.61158 0.99891 0.78377 0.0
C922 C 0.61509 0.00411 0.852 0.0
C923 C 0.62637 0.99094 0.7416 0.0
C924 C 0.62323 0.98358 0.67083 0.0
C925 C 0.63632 0.98855 0.61718 0.0
C926 C 0.63411 0.98069 0.55139 0.0
C927 C 0.61883 0.96786 0.53842 0.0
C928 C 0.60562 0.96297 0.59115 0.0
C929 C 0.60781 0.97073 0.65716 0.0
H930 H 0.61731 0.96164 0.48756 0.0
H931 H 0.64084 0.01866 0.14582 0.0
H932 H 0.57345 0.68276 0.94306 0.0
H933 H 0.56325 0.65632 0.86916 0.0
H934 H 0.5077 0.67904 0.85806 0.0
H935 H 0.51788 0.70528 0.93495 0.0
H936 H 0.50248 0.64694 0.90151 0.0
H937 H 0.53877 0.66872 0.71148 0.0
H938 H 0.56612 0.68231 0.64317 0.0
H939 H 0.59962 0.63629 0.68157 0.0
H940 H 0.5727 0.62268 0.75185 0.0
H941 H 0.47995 0.55811 0.71715 0.0
H942 H 0.48773 0.59175 0.73092 0.0
H943 H 0.53461 0.58136 0.85541 0.0
H944 H 0.52653 0.54775 0.84338 0.0
H945 H 0.53989 0.60905 0.73007 0.0
H946 H 0.5039 0.59386 0.94569 0.0
H947 H 0.47523 0.58041 0.00773 0.0
H948 H 0.4394 0.61529 0.90537 0.0
H949 H 0.46788 0.62877 0.84208 0.0
C950 C 0.5594 0.68255 0.92197 0.0
C951 C 0.54647 0.69605 0.94409 0.0
C952 C 0.55353 0.6674 0.87954 0.0
C953 C 0.53464 0.66555 0.85769 0.0
C954 C 0.52233 0.68009 0.87427 0.0
C955 C 0.52818 0.69521 0.91748 0.0
C956 C 0.52698 0.64714 0.82964 0.0
C957 C 0.51048 0.63895 0.86256 0.0
C958 C 0.53732 0.63642 0.77911 0.0
C959 C 0.55369 0.64469 0.73737 0.0
C960 C 0.55202 0.66156 0.70595 0.0
C961 C 0.56743 0.66926 0.66667 0.0
C962 C 0.58456 0.66014 0.65776 0.0
C963 C 0.58633 0.64333 0.68836 0.0
C964 C 0.571 0.63562 0.72798 0.0
C965 C 0.49184 0.56308 0.74773 0.0
C966 C 0.50259 0.55049 0.77965 0.0
C967 C 0.4963 0.58221 0.75522 0.0
C968 C 0.51178 0.58893 0.79378 0.0
C969 C 0.52266 0.57635 0.82519 0.0
C970 C 0.51794 0.55725 0.81891 0.0
C971 C 0.51616 0.60915 0.80404 0.0
C972 C 0.53188 0.61746 0.76768 0.0
C973 C 0.50499 0.62013 0.85032 0.0
C974 C 0.48794 0.61212 0.8886 0.0
C975 C 0.48988 0.59851 0.93595 0.0
C976 C 0.47368 0.59092 0.97145 0.0
C977 C 0.45549 0.59694 0.96032 0.0
C978 C 0.45348 0.61061 0.91383 0.0
C979 C 0.46965 0.61824 0.87817 0.0
H980 H 0.44296 0.59105 0.98786 0.0
H981 H 0.59645 0.66612 0.62719 0.0
H982 H 0.80393 0.49374 0.93484 0.0
H983 H 0.83469 0.49116 0.87178 0.0
H984 H 0.8451 0.55068 0.89345 0.0
H985 H 0.8146 0.55308 0.95968 0.0
H986 H 0.85749 0.50132 0.77198 0.0
H987 H 0.88934 0.56116 0.94118 0.0
H988 H 0.88212 0.57882 0.04953 0.0
H989 H 0.84959 0.5314 0.12607 0.0
H990 H 0.8567 0.5134 0.01815 0.0
H991 H 0.95925 0.53123 0.72228 0.0
H992 H 0.92461 0.53208 0.74555 0.0
H993 H 0.92641 0.48744 0.88183 0.0
H994 H 0.96106 0.48542 0.85396 0.0
H995 H 0.90815 0.52787 0.92233 0.0
H996 H 0.90789 0.47188 0.78093 0.0
H997 H 0.9144 0.45126 0.67971 0.0
H998 H 0.88226 0.48522 0.5595 0.0
H999 H 0.87686 0.50682 0.65863 0.0
C1000 C 0.81225 0.50637 0.9225 0.0
C1001 C 0.80701 0.52358 0.95232 0.0
C1002 C 0.83001 0.50488 0.8872 0.0
C1003 C 0.84259 0.52064 0.88045 0.0
C1004 C 0.83588 0.53824 0.90009 0.0
C1005 C 0.81823 0.53969 0.93651 0.0
C1006 C 0.86331 0.51821 0.8629 0.0
C1007 C 0.86858 0.50726 0.80451 0.0
C1008 C 0.87779 0.52546 0.9065 0.0
C1009 C 0.87336 0.53605 0.97144 0.0
C1010 C 0.88065 0.55452 0.98117 0.0
C1011 C 0.87657 0.56457 0.04241 0.0
C1012 C 0.86533 0.55625 0.09444 0.0
C1013 C 0.8582 0.53783 0.0855 0.0
C1014 C 0.86222 0.52771 0.02429 0.0
C1015 C 0.95218 0.52112 0.75523 0.0
C1016 C 0.96269 0.50774 0.78415 0.0
C1017 C 0.93243 0.52176 0.76894 0.0
C1018 C 0.92294 0.5095 0.81385 0.0
C1019 C 0.93349 0.49671 0.84566 0.0
C1020 C 0.95323 0.49565 0.83013 0.0
C1021 C 0.90226 0.51121 0.83114 0.0
C1022 C 0.89706 0.52208 0.88947 0.0
C1023 C 0.88788 0.50355 0.78822 0.0
C1024 C 0.89241 0.4913 0.72712 0.0
C1025 C 0.90285 0.47538 0.7324 0.0
C1026 C 0.90632 0.46347 0.67527 0.0
C1027 C 0.89901 0.46705 0.61284 0.0
C1028 C 0.88828 0.4826 0.60741 0.0
C1029 C 0.88513 0.49478 0.66398 0.0
H1030 H 0.90147 0.45763 0.569 0.0
H1031 H 0.86222 0.56407 0.14173 0.0
H1032 H 0.03392 0.21823 0.15909 0.0
H1033 H 0.03783 0.19689 0.05794 0.0
H1034 H 0.02226 0.15024 0.18136 0.0
H1035 H 0.01755 0.17112 0.28078 0.0
H1036 H 0.05714 0.14696 0.09084 0.0
H1037 H 0.98645 0.15943 0.08369 0.0
H1038 H 0.96236 0.18323 0.08446 0.0
H1039 H 0.99425 0.2098 0.92048 0.0
H1040 H 0.01837 0.186 0.91852 0.0
H1041 H 0.02387 0.06371 0.93987 0.0
H1042 H 0.02878 0.09324 0.00439 0.0
H1043 H 0.02656 0.12271 0.81975 0.0
H1044 H 0.0209 0.09295 0.75511 0.0
H1045 H 0.00756 0.14053 0.91791 0.0
H1046 H 0.07001 0.11842 0.89767 0.0
H1047 H 0.09538 0.0961 0.89942 0.0
H1048 H 0.08374 0.0906 0.11416 0.0
H1049 H 0.05811 0.11267 0.1136 0.0
C1050 C 0.03128 0.20344 0.1645 0.0
C1051 C 0.0258 0.19643 0.22856 0.0
C1052 C 0.03361 0.19129 0.10682 0.0
C1053 C 0.03057 0.172 0.1126 0.0
C1054 C 0.02501 0.16505 0.17612 0.0
C1055 C 0.02246 0.17707 0.23314 0.0
C1056 C 0.03242 0.15867 0.05303 0.0
C1057 C 0.04645 0.14556 0.05252 0.0
C1058 C 0.01892 0.15732 0.00188 0.0
C1059 C 0.00402 0.17096 0.00061 0.0
C1060 C 0.98817 0.17028 0.04748 0.0
C1061 C 0.97455 0.18376 0.04819 0.0
C1062 C 0.97674 0.19799 0.0024 0.0
C1063 C 0.99254 0.19874 0.95576 0.0
C1064 C 0.00611 0.18521 0.95454 0.0
C1065 C 0.0245 0.07647 0.91298 0.0
C1066 C 0.02215 0.07606 0.84256 0.0
C1067 C 0.02746 0.09337 0.94979 0.0
C1068 C 0.02857 0.11025 0.9168 0.0
C1069 C 0.02596 0.10989 0.84631 0.0
C1070 C 0.02276 0.09291 0.80945 0.0
C1071 C 0.03187 0.1281 0.95721 0.0
C1072 C 0.01876 0.14209 0.95435 0.0
C1073 C 0.04657 0.13043 0.0046 0.0
C1074 C 0.06207 0.11719 0.00549 0.0
C1075 C 0.07278 0.11238 0.94522 0.0
C1076 C 0.08722 0.09977 0.94601 0.0
C1077 C 0.09116 0.09193 0.00685 0.0
C1078 C 0.08069 0.0967 0.06707 0.0
C1079 C 0.06622 0.10929 0.06657 0.0
H1080 H 0.10234 0.08217 0.00734 0.0
H1081 H 0.96623 0.20846 0.00316 0.0
H1082 H 0.32333 0.04641 0.11547 0.0
H1083 H 0.35065 0.04552 0.03096 0.0
H1084 H 0.37732 0.00664 0.15054 0.0
H1085 H 0.35045 0.00766 0.23434 0.0
H1086 H 0.40191 0.03454 0.12011 0.0
H1087 H 0.35649 0.99375 -0.00016 0.0
H1088 H 0.3264 0.98467 0.94351 0.0
H1089 H 0.3382 0.02777 0.80238 0.0
H1090 H 0.36825 0.03729 0.85847 0.0
H1091 H 0.4753 0.99841 0.89367 0.0
H1092 H 0.4469 0.00273 0.97015 0.0
H1093 H 0.42826 0.04406 0.84135 0.0
H1094 H 0.45644 0.04001 0.76525 0.0
H1095 H 0.39948 0.01794 0.87267 0.0
H1096 H 0.44539 0.05782 0.98966 0.0
H1097 H 0.47589 0.06646 0.04393 0.0
H1098 H 0.46323 0.02474 0.19 0.0
H1099 H 0.43276 0.01566 0.13595 0.0
C1100 C 0.33497 0.03757 0.12294 0.0
C1101 C 0.33498 0.02735 0.18179 0.0
C1102 C 0.35053 0.03703 0.0748 0.0
C1103 C 0.3661 0.02609 0.08471 0.0
C1104 C 0.36562 0.01535 0.14218 0.0
C1105 C 0.35026 0.01596 0.19005 0.0
C1106 C 0.38347 0.02632 0.03788 0.0
C1107 C 0.40136 0.03073 0.0661 0.0
C1108 C 0.38274 0.02192 0.96701 0.0
C1109 C 0.36448 0.01643 0.93411 0.0
C1110 C 0.35256 1.00145 0.95736 0.0
C1111 C 0.33554 0.99618 0.9253 0.0
C1112 C 0.33036 0.00568 0.86955 0.0
C1113 C 0.34221 0.02045 0.84564 0.0
C1114 C 0.35923 0.02579 0.87758 0.0
C1115 C 0.46532 0.00862 0.88222 0.0
C1116 C 0.46826 0.0189 0.82348 0.0
C1117 C 0.44909 0.01106 0.92588 0.0
C1118 C 0.43551 0.02374 0.91136 0.0
C1119 C 0.43855 0.0342 0.85344 0.0
C1120 C 0.45481 0.03193 0.81027 0.0
C1121 C 0.41781 0.02572 0.95544 0.0
C1122 C 0.39994 0.02184 0.92665 0.0
C1123 C 0.41851 0.03057 0.02583 0.0
C1124 C 0.43687 0.03594 0.0583 0.0
C1125 C 0.44919 0.05037 0.03295 0.0
C1126 C 0.46646 0.05537 0.06376 0.0
C1127 C 0.47152 0.04612 0.12027 0.0
C1128 C 0.4593 0.03188 0.14616 0.0
C1129 C 0.44202 0.0268 0.11549 0.0
H1130 H 0.48489 0.05003 0.14409 0.0
H1131 H 0.31718 1.00156 0.84481 0.0
H1132 H 0.49767 0.31419 0.10325 0.0
H1133 H 0.49743 0.33917 0.02399 0.0
H1134 H 0.43917 0.34957 0.09171 0.0
H1135 H 0.43945 0.32472 0.17229 0.0
H1136 H 0.44978 0.3546 0.94241 0.0
H1137 H 0.46667 0.37339 0.1685 0.0
H1138 H 0.48354 0.37152 0.27443 0.0
H1139 H 0.53765 0.3823 0.1659 0.0
H1140 H 0.52109 0.38347 0.05842 0.0
H1141 H 0.45705 0.4536 0.87395 0.0
H1142 H 0.45056 0.42471 0.9346 0.0
H1143 H 0.50721 0.40752 0.87248 0.0
H1144 H 0.51352 0.43591 0.81039 0.0
H1145 H 0.49487 0.40619 0.02059 0.0
H1146 H 0.47459 0.39033 0.79261 0.0
H1147 H 0.45502 0.39402 0.69431 0.0
H1148 H 0.4038 0.37976 0.81473 0.0
H1149 H 0.42297 0.37692 0.91506 0.0
C1150 C 0.48455 0.32129 0.09936 0.0
C1151 C 0.46858 0.31756 0.1439 0.0
C1152 C 0.48447 0.33562 0.05431 0.0
C1153 C 0.46834 0.34627 0.05251 0.0
C1154 C 0.45172 0.34144 0.09227 0.0
C1155 C 0.4519 0.3273 0.13825 0.0
C1156 C 0.46999 0.36402 0.01751 0.0
C1157 C 0.45946 0.36599 0.95971 0.0
C1158 C 0.48256 0.37885 0.04066 0.0
C1159 C 0.49265 0.37819 0.1051 0.0
C1160 C 0.48219 0.37505 0.1669 0.0
C1161 C 0.4917 0.37414 0.2273 0.0
C1162 C 0.51168 0.37675 0.22695 0.0
C1163 C 0.52218 0.38022 0.16606 0.0
C1164 C 0.51274 0.38094 0.1053 0.0
C1165 C 0.46805 0.4436 0.87327 0.0
C1166 C 0.48577 0.44692 0.83767 0.0
C1167 C 0.46433 0.42716 0.90771 0.0
C1168 C 0.47843 0.41405 0.90783 0.0
C1169 C 0.49619 0.4175 0.87296 0.0
C1170 C 0.49974 0.43368 0.83745 0.0
C1171 C 0.47492 0.39674 0.94468 0.0
C1172 C 0.48514 0.39485 0.00317 0.0
C1173 C 0.46173 0.38225 0.92286 0.0
C1174 C 0.45025 0.3837 0.86195 0.0
C1175 C 0.45914 0.38831 0.79873 0.0
C1176 C 0.4481 0.39024 0.74251 0.0
C1177 C 0.42818 0.38711 0.74822 0.0
C1178 C 0.41924 0.38218 0.81036 0.0
C1179 C 0.43018 0.3805 0.86704 0.0
H1180 H 0.41969 0.38848 0.70447 0.0
H1181 H 0.519 0.37618 0.27392 0.0
H1182 H 0.19179 0.46964 0.14292 0.0
H1183 H 0.16756 0.47167 0.05875 0.0
H1184 H 0.18809 0.52807 0.02335 0.0
H1185 H 0.21217 0.52618 0.10861 0.0
H1186 H 0.15031 0.5259 0.05497 0.0
H1187 H 0.19293 0.49355 0.90262 0.0
H1188 H 0.2145 0.46902 0.86237 0.0
H1189 H 0.16733 0.4282 0.87182 0.0
H1190 H 0.14553 0.45238 0.91403 0.0
H1191 H 0.08355 0.53247 0.79034 0.0
H1192 H 0.11423 0.53082 0.84462 0.0
H1193 H 0.09335 0.48005 0.93607 0.0
H1194 H 0.06243 0.48189 0.88345 0.0
H1195 H 0.13325 0.48111 0.8645 0.0
H1196 H 0.09334 0.51208 0.04004 0.0
H1197 H 0.07171 0.53608 0.08566 0.0
H1198 H 0.11424 0.57888 0.03161 0.0
H1199 H 0.13607 0.55509 0.98516 0.0
C1200 C 0.19144 0.4823 0.11585 0.0
C1201 C 0.20383 0.49776 0.13241 0.0
C1202 C 0.17763 0.48344 0.06762 0.0
C1203 C 0.17598 0.50004 0.03473 0.0
C1204 C 0.1891 0.51513 0.04814 0.0
C1205 C 0.20298 0.51397 0.09632 0.0
C1206 C 0.15931 0.50221 0.99243 0.0
C1207 C 0.14685 0.51632 0.01238 0.0
C1208 C 0.15451 0.48944 0.93786 0.0
C1209 C 0.16759 0.47481 0.91225 0.0
C1210 C 0.18717 0.47931 0.89709 0.0
C1211 C 0.19946 0.46546 0.87382 0.0
C1212 C 0.19231 0.44706 0.86472 0.0
C1213 C 0.17286 0.44247 0.87893 0.0
C1214 C 0.16053 0.45625 0.90257 0.0
C1215 C 0.08549 0.52101 0.82232 0.0
C1216 C 0.07061 0.50738 0.83326 0.0
C1217 C 0.10301 0.52006 0.853 0.0
C1218 C 0.10602 0.50529 0.89406 0.0
C1219 C 0.09128 0.4915 0.90425 0.0
C1220 C 0.07363 0.49264 0.87464 0.0
C1221 C 0.12434 0.50454 0.92817 0.0
C1222 C 0.137 0.49075 0.90657 0.0
C1223 C 0.12937 0.51752 0.98142 0.0
C1224 C 0.1162 0.53184 0.00826 0.0
C1225 C 0.09798 0.52662 0.03717 0.0
C1226 C 0.08571 0.54018 0.06341 0.0
C1227 C 0.09156 0.559 0.06126 0.0
C1228 C 0.10971 0.5643 0.03307 0.0
C1229 C 0.12204 0.55079 0.00685 0.0
H1230 H 0.08205 0.56948 0.08164 0.0
H1231 H 0.20182 0.43636 0.84648 0.0
H1232 H 0.94923 0.81709 0.17925 0.0
H1233 H 0.95121 0.84122 0.2717 0.0
H1234 H 0.01286 0.83903 0.26269 0.0
H1235 H 0.01088 0.81518 0.16905 0.0
H1236 H 0.99289 0.84584 0.40249 0.0
H1237 H 0.99853 0.86715 0.17038 0.0
H1238 H 0.98705 0.86837 0.05434 0.0
H1239 H 0.9345 0.89057 0.13622 0.0
H1240 H 0.94547 0.88906 0.25299 0.0
H1241 H 0.02362 0.93504 0.53266 0.0
H1242 H 0.01856 0.90535 0.46895 0.0
H1243 H 0.96247 0.92092 0.41808 0.0
H1244 H 0.96804 0.95115 0.47888 0.0
H1245 H 0.97784 0.906 0.31211 0.0
H1246 H 0.96962 0.88569 0.53894 0.0
H1247 H 0.97689 0.88211 0.6582 0.0
H1248 H 0.02987 0.85769 0.59363 0.0
H1249 H 0.0227 0.86084 0.47327 0.0
C1250 C 0.96309 0.82114 0.19939 0.0
C1251 C 0.97989 0.81416 0.16816 0.0
C1252 C 0.96423 0.83501 0.25165 0.0
C1253 C 0.98219 0.84196 0.27348 0.0
C1254 C 0.99887 0.83375 0.2467 0.0
C1255 C 0.99775 0.82008 0.19367 0.0
C1256 C 0.98376 0.85946 0.31615 0.0
C1257 C 0.98978 0.85905 0.38281 0.0
C1258 C 0.97913 0.87655 0.29081 0.0
C1259 C 0.97273 0.87779 0.22048 0.0
C1260 C 0.98445 0.87212 0.16371 0.0
C1261 C 0.97805 0.87289 0.09778 0.0
C1262 C 0.96005 0.87951 0.08791 0.0
C1263 C 0.94843 0.88541 0.14395 0.0
C1264 C 0.95472 0.8846 0.21002 0.0
C1265 C 0.01021 0.9321 0.50785 0.0
C1266 C 0.99626 0.9454 0.51024 0.0
C1267 C 0.00722 0.91501 0.47202 0.0
C1268 C 0.98996 0.91062 0.43946 0.0
C1269 C 0.97591 0.9239 0.44259 0.0
C1270 C 0.97908 0.94117 0.47734 0.0
C1271 C 0.98701 0.8926 0.39946 0.0
C1272 C 0.98083 0.89287 0.33265 0.0
C1273 C 0.99112 0.87534 0.42523 0.0
C1274 C 0.99571 0.87366 0.49724 0.0
C1275 C 0.98289 0.87968 0.55017 0.0
C1276 C 0.98699 0.87769 0.61804 0.0
C1277 C 0.00394 0.86984 0.63374 0.0
C1278 C 0.01677 0.86381 0.58142 0.0
C1279 C 0.01264 0.8656 0.51333 0.0
H1280 H 0.00711 0.86829 0.68629 0.0
H1281 H 0.95512 0.88013 0.03688 0.0
H1282 H 0.68509 0.01569 0.17667 0.0
H1283 H 0.65767 0.0166 0.25861 0.0
H1284 H 0.66471 0.95948 0.30227 0.0
H1285 H 0.6921 0.95845 0.21913 0.0
H1286 H 0.62906 0.96393 0.26996 0.0
H1287 H 0.67189 0.99525 0.42282 0.0
H1288 H 0.69664 0.0184 0.46309 0.0
H1289 H 0.65974 0.06245 0.43216 0.0
H1290 H 0.63483 0.03959 0.39083 0.0
H1291 H 0.55311 0.96534 0.53011 0.0
H1292 H 0.58286 0.96222 0.46065 0.0
H1293 H 0.58044 0.01862 0.4003 0.0
H1294 H 0.55044 0.02172 0.46849 0.0
H1295 H 0.61479 0.0129 0.44893 0.0
H1296 H 0.57318 0.98118 0.28686 0.0
H1297 H 0.54847 0.95768 0.24854 0.0
H1298 H 0.58353 0.91401 0.30004 0.0
H1299 H 0.60836 0.93728 0.33947 0.0
C1300 C 0.68112 0.00349 0.20517 0.0
C1301 C 0.69071 0.98699 0.19156 0.0
C1302 C 0.66545 0.00402 0.2521 0.0
C1303 C 0.65907 0.98809 0.28659 0.0
C1304 C 0.66935 0.97192 0.27614 0.0
C1305 C 0.68512 0.9714 0.22924 0.0
C1306 C 0.64059 0.98787 0.32772 0.0
C1307 C 0.62608 0.97443 0.31007 0.0
C1308 C 0.6365 1.00184 0.37884 0.0
C1309 C 0.65153 0.01568 0.40319 0.0
C1310 C 0.6691 0.00988 0.424 0.0
C1311 C 0.68315 0.02296 0.44718 0.0
C1312 C 0.67978 0.04189 0.45005 0.0
C1313 C 0.66233 0.04778 0.42987 0.0
C1314 C 0.64823 0.03476 0.40667 0.0
C1315 C 0.55871 0.97696 0.50099 0.0
C1316 C 0.54939 0.99377 0.50473 0.0
C1317 C 0.57578 0.97518 0.46146 0.0
C1318 C 0.58404 0.99026 0.42589 0.0
C1319 C 0.5744 0.00684 0.42768 0.0
C1320 C 0.55715 0.00853 0.46623 0.0
C1321 C 0.60324 0.9892 0.39018 0.0
C1322 C 0.61785 0.00238 0.40896 0.0
C1323 C 0.60745 0.97496 0.34034 0.0
C1324 C 0.59254 0.96097 0.31667 0.0
C1325 C 0.57555 0.96657 0.2905 0.0
C1326 C 0.56154 0.95329 0.26848 0.0
C1327 C 0.5644 0.93436 0.272 0.0
C1328 C 0.58132 0.92868 0.29741 0.0
C1329 C 0.59537 0.9419 0.31953 0.0
H1330 H 0.55354 0.9241 0.25491 0.0
H1331 H 0.69068 0.05199 0.46803 0.0
H1332 H 0.53315 0.70859 0.25173 0.0
H1333 H 0.52986 0.68506 0.33845 0.0
H1334 H 0.57338 0.65388 0.22774 0.0
H1335 H 0.57645 0.67712 0.14134 0.0
H1336 H 0.54025 0.63344 0.24662 0.0
H1337 H 0.58125 0.67454 0.38574 0.0
H1338 H 0.59062 0.70414 0.44696 0.0
H1339 H 0.53782 0.70104 0.56885 0.0
H1340 H 0.5281 0.67146 0.50812 0.0
H1341 H 0.5482 0.55855 0.45349 0.0
H1342 H 0.55585 0.58698 0.39266 0.0
H1343 H 0.5141 0.61561 0.52224 0.0
H1344 H 0.5068 0.5873 0.5844 0.0
H1345 H 0.54485 0.63831 0.49784 0.0
H1346 H 0.50323 0.59848 0.36267 0.0
H1347 H 0.49191 0.56951 0.30147 0.0
H1348 H 0.54308 0.57122 0.17062 0.0
H1349 H 0.55485 0.60007 0.23172 0.0
C1350 C 0.54236 0.69698 0.24736 0.0
C1351 C 0.55496 0.69453 0.18998 0.0
C1352 C 0.54049 0.68355 0.29672 0.0
C1353 C 0.55131 0.66765 0.28934 0.0
C1354 C 0.56481 0.66596 0.2343 0.0
C1355 C 0.5666 0.67924 0.18512 0.0
C1356 C 0.54711 0.65167 0.33336 0.0
C1357 C 0.54157 0.63447 0.30146 0.0
C1358 C 0.54798 0.65317 0.40518 0.0
C1359 C 0.55385 0.67091 0.44182 0.0
C1360 C 0.57157 0.68025 0.42522 0.0
C1361 C 0.57697 0.69699 0.45997 0.0
C1362 C 0.56478 0.70451 0.51155 0.0
C1363 C 0.54721 0.69525 0.52869 0.0
C1364 C 0.54178 0.67846 0.4943 0.0
C1365 C 0.54076 0.57094 0.46917 0.0
C1366 C 0.52675 0.5707 0.52291 0.0
C1367 C 0.54509 0.58717 0.43435 0.0
C1368 C 0.53528 0.60335 0.45203 0.0
C1369 C 0.52178 0.60329 0.50747 0.0
C1370 C 0.51755 0.58709 0.54264 0.0
C1371 C 0.53853 0.62 0.41065 0.0
C1372 C 0.54366 0.6373 0.44297 0.0
C1373 C 0.53702 0.61872 0.33904 0.0
C1374 C 0.53001 0.60133 0.30224 0.0
C1375 C 0.51215 0.59259 0.32122 0.0
C1376 C 0.50564 0.57621 0.28648 0.0
C1377 C 0.51679 0.5685 0.23231 0.0
C1378 C 0.53447 0.57719 0.21267 0.0
C1379 C 0.54106 0.59356 0.24731 0.0
H1380 H 0.51172 0.55583 0.20545 0.0
H1381 H 0.56899 0.71747 0.53842 0.0
H1382 H 0.79729 0.5297 0.27533 0.0
H1383 H 0.82138 0.52534 0.35752 0.0
H1384 H 0.85184 0.49072 0.20707 0.0
H1385 H 0.82604 0.49181 0.13175 0.0
H1386 H 0.8616 0.48039 0.30675 0.0
H1387 H 0.85879 0.54475 0.25011 0.0
H1388 H 0.8439 0.57486 0.24446 0.0
H1389 H 0.83549 0.57837 0.46241 0.0
H1390 H 0.85 0.54817 0.46925 0.0
H1391 H 0.95763 0.50563 0.4058 0.0
H1392 H 0.9278 0.50455 0.34434 0.0
H1393 H 0.89603 0.51819 0.53259 0.0
H1394 H 0.92558 0.51888 0.5942 0.0
H1395 H 0.88627 0.53842 0.426 0.0
H1396 H 0.89894 0.47335 0.46125 0.0
H1397 H 0.91777 0.44545 0.44419 0.0
H1398 H 0.91422 0.44745 0.22744 0.0
H1399 H 0.89562 0.47548 0.24338 0.0
C1400 C 0.80869 0.52052 0.26087 0.0
C1401 C 0.81009 0.51184 0.19514 0.0
C1402 C 0.82286 0.51845 0.30745 0.0
C1403 C 0.83932 0.50868 0.28771 0.0
C1404 C 0.8397 0.49869 0.22439 0.0
C1405 C 0.82497 0.49969 0.18006 0.0
C1406 C 0.85662 0.50939 0.33001 0.0
C1407 C 0.86703 0.49328 0.33146 0.0
C1408 C 0.86391 0.52598 0.36413 0.0
C1409 C 0.85524 0.54413 0.36005 0.0
C1410 C 0.85366 0.55193 0.29671 0.0
C1411 C 0.8453 0.56898 0.29331 0.0
C1412 C 0.83874 0.57849 0.35298 0.0
C1413 C 0.84054 0.57097 0.41622 0.0
C1414 C 0.84881 0.55389 0.41989 0.0
C1415 C 0.94425 0.50835 0.43386 0.0
C1416 C 0.94383 0.51223 0.50462 0.0
C1417 C 0.92725 0.50767 0.39888 0.0
C1418 C 0.90966 0.51094 0.43424 0.0
C1419 C 0.9094 0.51537 0.50457 0.0
C1420 C 0.92628 0.51577 0.53963 0.0
C1421 C 0.89143 0.50983 0.39854 0.0
C1422 C 0.88077 0.52573 0.3999 0.0
C1423 C 0.88466 0.49346 0.36261 0.0
C1424 C 0.8959 0.47657 0.35375 0.0
C1425 C 0.90223 0.46788 0.41012 0.0
C1426 C 0.91288 0.45204 0.40057 0.0
C1427 C 0.91716 0.44468 0.33473 0.0
C1428 C 0.91087 0.45316 0.2784 0.0
C1429 C 0.90028 0.46901 0.28773 0.0
H1430 H 0.9253 0.4324 0.32716 0.0
H1431 H 0.83228 0.59169 0.35022 0.0
loop_
_geom_bond_atom_site_label_1
_geom_bond_atom_site_label_2
_geom_bond_distance
_geom_bond_site_symmetry_2
_ccdc_geom_bond_type
H0 C1 0.949 1_556 S
C1 H0 0.949 1_554 S
C1 C2 1.395 . S
C1 C3 1.391 . S
C2 C1 1.395 . S
C2 C5 1.390 . S
C3 C1 1.391 . S
C3 C7 1.387 . S
C3 C8 1.491 . S
H4 C5 0.950 . S
C5 C2 1.390 . S
C5 H4 0.950 . S
C5 C6 1.378 . S
C6 C5 1.378 . S
C6 C7 1.409 . S
C7 C3 1.387 . S
C7 C6 1.409 . S
C7 H9 0.951 . S
C8 C3 1.491 . S
C8 C10 1.382 . S
C8 C12 1.404 . S
H9 C7 0.951 . S
C10 C8 1.382 . S
C10 C11 1.390 . S
C10 H15 0.949 1_554 S
C11 C10 1.390 . S
C11 C16 1.399 . S
C12 C8 1.404 . S
C12 H13 0.950 . S
C12 C14 1.375 . S
H13 C12 0.950 . S
C14 C12 1.375 . S
C14 C16 1.382 . S
C14 H18 0.950 . S
H15 C10 0.949 1_556 S
C16 C11 1.399 . S
C16 C14 1.382 . S
C16 H17 0.952 . S
H17 C16 0.952 . S
H18 C14 0.950 . S
H19 C20 0.949 . S
C20 H19 0.949 . S
C20 C21 1.395 . S
C20 C22 1.391 1_556 S
C21 C20 1.395 . S
C21 C24 1.390 1_556 S
C22 C20 1.391 1_554 S
C22 C26 1.387 . S
C22 C27 1.491 . S
H23 C24 0.950 . S
C24 C21 1.390 1_554 S
C24 H23 0.950 . S
C24 C25 1.378 . S
C25 C24 1.378 . S
C25 C26 1.409 . S
C26 C22 1.387 . S
C26 C25 1.409 . S
C26 H28 0.951 . S
C27 C22 1.491 . S
C27 C29 1.382 1_554 S
C27 C31 1.404 . S
H28 C26 0.951 . S
C29 C27 1.382 1_556 S
C29 C30 1.390 . S
C29 H34 0.949 . S
C30 C29 1.390 . S
C30 C35 1.399 1_556 S
C31 C27 1.404 . S
C31 H32 0.950 . S
C31 C33 1.375 . S
H32 C31 0.950 . S
C33 C31 1.375 . S
C33 C35 1.382 . S
C33 H37 0.950 . S
H34 C29 0.949 . S
C35 C30 1.399 1_554 S
C35 C33 1.382 . S
C35 H36 0.952 . S
H36 C35 0.952 . S
H37 C33 0.950 . S
H38 C39 0.949 1_556 S
C39 H38 0.949 1_554 S
C39 C40 1.395 . S
C39 C41 1.391 . S
C40 C39 1.395 . S
C40 C43 1.390 . S
C41 C39 1.391 . S
C41 C45 1.387 . S
C41 C46 1.491 . S
H42 C43 0.950 . S
C43 C40 1.390 . S
C43 H42 0.950 . S
C43 C44 1.378 . S
C44 C43 1.378 . S
C44 C45 1.409 . S
C45 C41 1.387 . S
C45 C44 1.409 . S
C45 H47 0.951 . S
C46 C41 1.491 . S
C46 C48 1.382 . S
C46 C50 1.404 . S
H47 C45 0.951 . S
C48 C46 1.382 . S
C48 C49 1.389 1_554 S
C48 H53 0.949 1_554 S
C49 C48 1.389 1_556 S
C49 C54 1.392 1_556 S
C50 C46 1.404 . S
C50 H51 0.950 . S
C50 C52 1.375 . S
H51 C50 0.950 . S
C52 C50 1.375 . S
C52 C54 1.382 . S
C52 H56 0.950 . S
H53 C48 0.949 1_556 S
C54 C49 1.392 1_554 S
C54 C52 1.382 . S
C54 H55 0.952 . S
H55 C54 0.952 . S
H56 C52 0.950 . S
H57 C58 0.949 1_556 S
C58 H57 0.949 1_554 S
C58 C59 1.395 . S
C58 C60 1.391 . S
C59 C58 1.395 . S
C59 C62 1.390 . S
C60 C58 1.391 . S
C60 C64 1.387 . S
C60 C65 1.491 . S
H61 C62 0.950 . S
C62 C59 1.390 . S
C62 H61 0.950 . S
C62 C63 1.378 . S
C63 C62 1.378 . S
C63 C64 1.409 . S
C64 C60 1.387 . S
C64 C63 1.409 . S
C64 H66 0.951 . S
C65 C60 1.491 . S
C65 C67 1.382 . S
C65 C69 1.404 . S
H66 C64 0.951 . S
C67 C65 1.382 . S
C67 C68 1.390 . S
C67 H72 0.949 . S
C68 C67 1.390 . S
C68 C73 1.399 . S
C69 C65 1.404 . S
C69 H70 0.950 . S
C69 C71 1.375 . S
H70 C69 0.950 . S
C71 C69 1.375 . S
C71 C73 1.382 . S
C71 H75 0.950 . S
H72 C67 0.949 . S
C73 C68 1.399 . S
C73 C71 1.382 . S
C73 H74 0.952 . S
H74 C73 0.952 . S
H75 C71 0.950 . S
H76 C77 0.949 . S
C77 H76 0.949 . S
C77 C78 1.395 . S
C77 C79 1.391 . S
C78 C77 1.395 . S
C78 C81 1.390 . S
C79 C77 1.391 . S
C79 C83 1.387 . S
C79 C84 1.491 . S
H80 C81 0.950 . S
C81 C78 1.390 . S
C81 H80 0.950 . S
C81 C82 1.378 . S
C82 C81 1.378 . S
C82 C83 1.409 . S
C83 C79 1.387 . S
C83 C82 1.409 . S
C83 H85 0.951 . S
C84 C79 1.491 . S
C84 C86 1.382 . S
C84 C88 1.404 . S
H85 C83 0.951 . S
C86 C84 1.382 . S
C86 C87 1.390 . S
C86 H91 0.949 . S
C87 C86 1.390 . S
C87 C92 1.399 . S
C88 C84 1.404 . S
C88 H89 0.950 . S
C88 C90 1.375 . S
H89 C88 0.950 . S
C90 C88 1.375 . S
C90 C92 1.382 . S
C90 H94 0.950 . S
H91 C86 0.949 . S
C92 C87 1.399 . S
C92 C90 1.382 . S
C92 H93 0.952 . S
H93 C92 0.952 . S
H94 C90 0.950 . S
H95 C96 0.949 . S
C96 H95 0.949 . S
C96 C97 1.395 . S
C96 C98 1.391 . S
C97 C96 1.395 . S
C97 C100 1.390 . S
C98 C96 1.391 . S
C98 C102 1.387 . S
C98 C103 1.491 . S
H99 C100 0.950 . S
C100 C97 1.390 . S
C100 H99 0.950 . S
C100 C101 1.378 . S
C101 C100 1.378 . S
C101 C102 1.409 . S
C102 C98 1.387 . S
C102 C101 1.409 . S
C102 H104 0.951 . S
C103 C98 1.491 . S
C103 C105 1.382 . S
C103 C107 1.404 . S
H104 C102 0.951 . S
C105 C103 1.382 . S
C105 C106 1.390 . S
C105 H110 0.949 . S
C106 C105 1.390 . S
C106 C111 1.399 . S
C107 C103 1.404 . S
C107 H108 0.950 . S
C107 C109 1.375 . S
H108 C107 0.950 . S
C109 C107 1.375 . S
C109 C111 1.382 . S
C109 H113 0.950 . S
H110 C105 0.949 . S
C111 C106 1.399 . S
C111 C109 1.382 . S
C111 H112 0.952 . S
H112 C111 0.952 . S
H113 C109 0.950 . S
H114 C115 0.949 . S
C115 H114 0.949 . S
C115 C116 1.395 . S
C115 C117 1.391 . S
C116 C115 1.395 . S
C116 C119 1.390 . S
C117 C115 1.391 . S
C117 C121 1.387 . S
C117 C122 1.491 . S
H118 C119 0.950 . S
C119 C116 1.390 . S
C119 H118 0.950 . S
C119 C120 1.378 . S
C120 C119 1.378 . S
C120 C121 1.409 . S
C121 C117 1.387 . S
C121 C120 1.409 . S
C121 H123 0.951 . S
C122 C117 1.491 . S
C122 C124 1.382 . S
C122 C126 1.404 . S
H123 C121 0.951 . S
C124 C122 1.382 . S
C124 C125 1.390 . S
C124 H129 0.949 . S
C125 C124 1.390 . S
C125 C130 1.399 . S
C126 C122 1.404 . S
C126 H127 0.950 . S
C126 C128 1.375 . S
H127 C126 0.950 . S
C128 C126 1.375 . S
C128 C130 1.382 . S
C128 H132 0.950 . S
H129 C124 0.949 . S
C130 C125 1.399 . S
C130 C128 1.382 . S
C130 H131 0.952 . S
H131 C130 0.952 . S
H132 C128 0.950 . S
H133 C134 0.949 . S
C134 H133 0.949 . S
C134 C135 1.395 . S
C134 C136 1.391 . S
C135 C134 1.395 . S
C135 C138 1.390 . S
C136 C134 1.391 . S
C136 C140 1.387 . S
C136 C141 1.491 . S
H137 C138 0.950 . S
C138 C135 1.390 . S
C138 H137 0.950 . S
C138 C139 1.378 . S
C139 C138 1.378 . S
C139 C140 1.409 . S
C140 C136 1.387 . S
C140 C139 1.409 . S
C140 H142 0.951 . S
C141 C136 1.491 . S
C141 C143 1.382 . S
C141 C145 1.404 . S
H142 C140 0.951 . S
C143 C141 1.382 . S
C143 C144 1.390 . S
C143 H148 0.949 . S
C144 C143 1.390 . S
C144 C149 1.399 . S
C145 C141 1.404 . S
C145 H146 0.950 . S
C145 C147 1.375 . S
H146 C145 0.950 . S
C147 C145 1.375 . S
C147 C149 1.382 . S
C147 H151 0.950 . S
H148 C143 0.949 . S
C149 C144 1.399 . S
C149 C147 1.382 . S
C149 H150 0.952 . S
H150 C149 0.952 . S
H151 C147 0.950 . S
Tb152 O155 2.413 1_565 S
Tb152 O156 2.567 1_665 S
Tb152 O157 2.372 1_665 S
Tb152 O165 2.362 1_655 S
Tb152 O167 2.348 1_565 S
Tb152 O169 2.460 . S
Tb152 O170 2.548 1_655 S
C153 O157 1.251 . S
C153 O159 1.263 . S
Tb154 O156 2.343 . S
Tb154 O159 2.353 . S
Tb154 O162 2.427 . S
Tb154 O163 2.512 1_455 S
Tb154 O164 2.453 1_545 S
Tb154 O165 2.596 1_545 S
Tb154 O166 2.374 1_455 S
O155 Tb152 2.413 1_545 S
O155 C171 1.245 1_655 S
O156 Tb152 2.567 1_445 S
O156 Tb154 2.343 . S
O156 C171 1.259 . S
O157 Tb152 2.372 1_445 S
O157 C153 1.251 . S
C158 O162 1.275 . S
C158 O163 1.244 1_455 S
O159 C153 1.263 . S
O159 Tb154 2.353 . S
C160 O164 1.245 . S
C160 O165 1.259 . S
C161 O166 1.250 . S
C161 O167 1.263 . S
O162 Tb154 2.427 . S
O162 C158 1.275 . S
O163 Tb154 2.512 1_655 S
O163 C158 1.244 1_655 S
O164 Tb154 2.453 1_565 S
O164 C160 1.245 . S
O165 Tb152 2.362 1_455 S
O165 Tb154 2.596 1_565 S
O165 C160 1.259 . S
O166 Tb154 2.374 1_655 S
O166 C161 1.250 . S
O167 Tb152 2.348 1_545 S
O167 C161 1.263 . S
C168 O169 1.275 . S
C168 O170 1.246 1_655 S
O169 Tb152 2.460 . S
O169 C168 1.275 . S
O170 Tb152 2.548 1_455 S
O170 C168 1.246 1_455 S
C171 O155 1.245 1_455 S
C171 O156 1.259 . S
Tb172 O175 2.453 . S
Tb172 O176 2.550 1_545 S
Tb172 O177 2.374 . S
Tb172 O185 2.343 . S
Tb172 O187 2.353 . S
Tb172 O189 2.427 . S
Tb172 O190 2.513 . S
C173 O177 1.258 . S
C173 O179 1.257 1_545 S
Tb174 O176 2.369 . S
Tb174 O179 2.353 . S
Tb174 O182 2.427 . S
Tb174 O183 2.513 . S
Tb174 O184 2.453 . S
Tb174 O185 2.596 1_565 S
Tb174 O186 2.374 . S
O175 Tb172 2.453 . S
O175 C191 1.245 . S
O176 Tb172 2.550 1_565 S
O176 Tb174 2.369 . S
O176 C191 1.247 1_565 S
O177 Tb172 2.374 . S
O177 C173 1.258 . S
C178 O182 1.275 . S
C178 O183 1.246 . S
O179 C173 1.257 1_565 S
O179 Tb174 2.353 . S
C180 O184 1.245 1_545 S
C180 O185 1.259 . S
C181 O186 1.250 1_545 S
C181 O187 1.263 . S
O182 Tb174 2.427 . S
O182 C178 1.275 . S
O183 Tb174 2.513 . S
O183 C178 1.246 . S
O184 Tb174 2.453 . S
O184 C180 1.245 1_565 S
O185 Tb172 2.343 . S
O185 Tb174 2.596 1_545 S
O185 C180 1.259 . S
O186 Tb174 2.374 . S
O186 C181 1.250 1_565 S
O187 Tb172 2.353 . S
O187 C181 1.263 . S
C188 O189 1.275 . S
C188 O190 1.246 . S
O189 Tb172 2.427 . S
O189 C188 1.275 . S
O190 Tb172 2.513 . S
O190 C188 1.246 . S
C191 O175 1.245 . S
C191 O176 1.247 1_545 S
Tb192 O195 2.453 . S
Tb192 O196 2.596 . S
Tb192 O197 2.374 . S
Tb192 O205 2.343 . S
Tb192 O207 2.353 . S
Tb192 O209 2.427 . S
Tb192 O210 2.513 . S
C193 O197 1.251 . S
C193 O199 1.263 . S
Tb194 O196 2.343 . S
Tb194 O199 2.353 . S
Tb194 O202 2.427 . S
Tb194 O203 2.513 . S
Tb194 O204 2.453 . S
Tb194 O205 2.596 . S
Tb194 O206 2.374 . S
O195 Tb192 2.453 . S
O195 C211 1.245 . S
O196 Tb192 2.596 . S
O196 Tb194 2.343 . S
O196 C211 1.259 . S
O197 Tb192 2.374 . S
O197 C193 1.251 . S
C198 O202 1.275 . S
C198 O203 1.246 . S
O199 C193 1.263 . S
O199 Tb194 2.353 . S
C200 O204 1.245 . S
C200 O205 1.259 . S
C201 O206 1.250 . S
C201 O207 1.263 . S
O202 Tb194 2.427 . S
O202 C198 1.275 . S
O203 Tb194 2.513 . S
O203 C198 1.246 . S
O204 Tb194 2.453 . S
O204 C200 1.245 . S
O205 Tb192 2.343 . S
O205 Tb194 2.596 . S
O205 C200 1.259 . S
O206 Tb194 2.374 . S
O206 C201 1.250 . S
O207 Tb192 2.353 . S
O207 C201 1.263 . S
C208 O209 1.275 . S
C208 O210 1.246 . S
O209 Tb192 2.427 . S
O209 C208 1.275 . S
O210 Tb192 2.513 . S
O210 C208 1.246 . S
C211 O195 1.245 . S
C211 O196 1.259 . S
Tb212 O215 2.451 . S
Tb212 O216 2.594 . S
Tb212 O217 2.374 . S
Tb212 O225 2.344 1_455 S
Tb212 O227 2.353 . S
Tb212 O229 2.429 1_455 S
Tb212 O230 2.515 1_455 S
C213 O217 1.251 . S
C213 O219 1.263 . S
Tb214 O216 2.343 . S
Tb214 O219 2.353 . S
Tb214 O222 2.427 . S
Tb214 O223 2.513 . S
Tb214 O224 2.453 1_455 S
Tb214 O225 2.596 1_455 S
Tb214 O226 2.374 . S
O215 Tb212 2.451 . S
O215 C231 1.245 . S
O216 Tb212 2.594 . S
O216 Tb214 2.343 . S
O216 C231 1.259 . S
O217 Tb212 2.374 . S
O217 C213 1.251 . S
C218 O222 1.275 . S
C218 O223 1.246 . S
O219 C213 1.263 . S
O219 Tb214 2.353 . S
C220 O224 1.245 . S
C220 O225 1.259 . S
C221 O226 1.250 . S
C221 O227 1.263 . S
O222 Tb214 2.427 . S
O222 C218 1.275 . S
O223 Tb214 2.513 . S
O223 C218 1.246 . S
O224 Tb214 2.453 1_655 S
O224 C220 1.245 . S
O225 Tb212 2.344 1_655 S
O225 Tb214 2.596 1_655 S
O225 C220 1.259 . S
O226 Tb214 2.374 . S
O226 C221 1.250 . S
O227 Tb212 2.353 . S
O227 C221 1.263 . S
C228 O229 1.275 . S
C228 O230 1.246 . S
O229 Tb212 2.429 1_655 S
O229 C228 1.275 . S
O230 Tb212 2.515 1_655 S
O230 C228 1.246 . S
C231 O215 1.245 . S
C231 O216 1.259 . S
H232 C250 0.951 . S
H233 C252 0.951 . S
H234 C254 0.950 . S
H235 C255 0.950 . S
H236 C257 0.950 . S
H237 C260 0.950 . S
H238 C261 0.950 . S
H239 C263 0.950 . S
H240 C264 0.950 . S
H241 C265 0.951 . S
H242 C267 0.951 . S
H243 C269 0.950 . S
H244 C270 0.950 . S
H245 C272 0.950 . S
H246 C275 0.950 . S
H247 C276 0.950 . S
H248 C278 0.950 . S
H249 C279 0.976 . S
C250 H232 0.951 . S
C250 C251 1.366 . S
C250 C252 1.388 . S
C251 C250 1.366 . S
C251 C255 1.385 . S
C252 H233 0.951 . S
C252 C250 1.388 . S
C252 C253 1.366 . S
C253 C252 1.366 . S
C253 C254 1.414 . S
C253 C256 1.499 . S
C254 H234 0.950 . S
C254 C253 1.414 . S
C254 C255 1.374 . S
C255 H235 0.950 . S
C255 C251 1.385 . S
C255 C254 1.374 . S
C256 C253 1.499 . S
C256 C257 1.373 . S
C256 C258 1.389 . S
C257 H236 0.950 . S
C257 C256 1.373 . S
C257 C273 1.377 . S
C258 C256 1.389 . S
C258 C259 1.524 . S
C258 C272 1.377 . S
C259 C258 1.524 . S
C259 C260 1.397 . S
C259 C264 1.363 . S
C260 H237 0.950 . S
C260 C259 1.397 . S
C260 C261 1.334 . S
C261 H238 0.950 . S
C261 C260 1.334 . S
C261 C262 1.287 . S
C262 C261 1.287 . S
C262 C263 1.524 . S
C262 H281 0.913 . S
C263 H239 0.950 . S
C263 C262 1.524 . S
C263 C264 1.415 . S
C264 H240 0.950 . S
C264 C259 1.363 . S
C264 C263 1.415 . S
C265 H241 0.951 . S
C265 C266 1.366 . S
C265 C267 1.388 . S
C266 C265 1.366 . S
C266 C270 1.385 . S
C267 H242 0.951 . S
C267 C265 1.388 . S
C267 C268 1.366 . S
C268 C267 1.366 . S
C268 C269 1.414 . S
C268 C271 1.499 . S
C269 H243 0.950 . S
C269 C268 1.414 . S
C269 C270 1.374 . S
C270 H244 0.950 . S
C270 C266 1.385 . S
C270 C269 1.374 . S
C271 C268 1.499 . S
C271 C272 1.373 . S
C271 C273 1.389 . S
C272 H245 0.950 . S
C272 C258 1.377 . S
C272 C271 1.373 . S
C273 C257 1.377 . S
C273 C271 1.389 . S
C273 C274 1.524 1_545 S
C274 C273 1.524 1_565 S
C274 C275 1.397 . S
C274 C279 1.363 . S
C275 H246 0.950 . S
C275 C274 1.397 . S
C275 C276 1.334 . S
C276 H247 0.950 . S
C276 C275 1.334 . S
C276 C277 1.287 . S
C277 C276 1.287 . S
C277 C278 1.524 . S
C277 H280 0.999 . S
C278 H248 0.950 . S
C278 C277 1.524 . S
C278 C279 1.415 . S
C279 H249 0.976 . S
C279 C274 1.363 . S
C279 C278 1.415 . S
H280 C277 0.999 . S
H281 C262 0.913 . S
H282 C300 0.951 . S
H283 C302 0.951 . S
H284 C304 0.950 . S
H285 C305 0.950 . S
H286 C307 0.950 . S
H287 C310 0.950 . S
H288 C311 0.950 . S
H289 C313 0.950 . S
H290 C314 0.950 . S
H291 C315 0.951 . S
H292 C317 0.951 . S
H293 C319 0.950 . S
H294 C320 0.950 . S
H295 C322 0.950 . S
H296 C325 0.950 . S
H297 C326 0.950 . S
H298 C328 0.950 . S
H299 C329 0.950 . S
C300 H282 0.951 . S
C300 C301 1.366 . S
C300 C302 1.388 . S
C301 C300 1.366 . S
C301 C305 1.385 . S
C302 H283 0.951 . S
C302 C300 1.388 . S
C302 C303 1.366 . S
C303 C302 1.366 . S
C303 C304 1.414 . S
C303 C306 1.499 . S
C304 H284 0.950 . S
C304 C303 1.414 . S
C304 C305 1.374 . S
C305 H285 0.950 . S
C305 C301 1.385 . S
C305 C304 1.374 . S
C306 C303 1.499 . S
C306 C307 1.373 . S
C306 C308 1.389 . S
C307 H286 0.950 . S
C307 C306 1.373 . S
C307 C323 1.377 . S
C308 C306 1.389 . S
C308 C309 1.524 . S
C308 C322 1.377 . S
C309 C308 1.524 . S
C309 C310 1.397 . S
C309 C314 1.363 . S
C310 H287 0.950 . S
C310 C309 1.397 . S
C310 C311 1.334 . S
C311 H288 0.950 . S
C311 C310 1.334 . S
C311 C312 1.287 . S
C312 C311 1.287 . S
C312 C313 1.524 . S
C312 H331 0.913 . S
C313 H289 0.950 . S
C313 C312 1.524 . S
C313 C314 1.415 . S
C314 H290 0.950 . S
C314 C309 1.363 . S
C314 C313 1.415 . S
C315 H291 0.951 . S
C315 C316 1.366 . S
C315 C317 1.388 . S
C316 C315 1.366 . S
C316 C320 1.385 . S
C317 H292 0.951 . S
C317 C315 1.388 . S
C317 C318 1.366 . S
C318 C317 1.366 . S
C318 C319 1.414 . S
C318 C321 1.499 . S
C319 H293 0.950 . S
C319 C318 1.414 . S
C319 C320 1.374 . S
C320 H294 0.950 . S
C320 C316 1.385 . S
C320 C319 1.374 . S
C321 C318 1.499 . S
C321 C322 1.373 . S
C321 C323 1.389 . S
C322 H295 0.950 . S
C322 C308 1.377 . S
C322 C321 1.373 . S
C323 C307 1.377 . S
C323 C321 1.389 . S
C323 C324 1.524 . S
C324 C323 1.524 . S
C324 C325 1.397 . S
C324 C329 1.363 . S
C325 H296 0.950 . S
C325 C324 1.397 . S
C325 C326 1.334 . S
C326 H297 0.950 . S
C326 C325 1.334 . S
C326 C327 1.287 . S
C327 C326 1.287 . S
C327 C328 1.524 . S
C327 H330 0.999 . S
C328 H298 0.950 . S
C328 C327 1.524 . S
C328 C329 1.415 . S
C329 H299 0.950 . S
C329 C324 1.363 . S
C329 C328 1.415 . S
H330 C327 0.999 . S
H331 C312 0.913 . S
H332 C350 0.951 . S
H333 C352 0.951 . S
H334 C354 0.950 . S
H335 C355 0.950 . S
H336 C357 0.950 . S
H337 C360 0.950 . S
H338 C361 0.950 . S
H339 C363 0.950 . S
H340 C364 0.950 . S
H341 C365 0.951 . S
H342 C367 0.951 . S
H343 C369 0.950 . S
H344 C370 0.950 . S
H345 C372 0.950 . S
H346 C375 0.950 . S
H347 C376 0.950 . S
H348 C378 0.950 . S
H349 C379 0.950 . S
C350 H332 0.951 . S
C350 C351 1.366 . S
C350 C352 1.388 . S
C351 C350 1.366 . S
C351 C355 1.385 . S
C352 H333 0.951 . S
C352 C350 1.388 . S
C352 C353 1.366 . S
C353 C352 1.366 . S
C353 C354 1.414 . S
C353 C356 1.499 . S
C354 H334 0.950 . S
C354 C353 1.414 . S
C354 C355 1.374 . S
C355 H335 0.950 . S
C355 C351 1.385 . S
C355 C354 1.374 . S
C356 C353 1.499 . S
C356 C357 1.373 . S
C356 C358 1.389 . S
C357 H336 0.950 . S
C357 C356 1.373 . S
C357 C373 1.377 . S
C358 C356 1.389 . S
C358 C359 1.524 . S
C358 C372 1.377 . S
C359 C358 1.524 . S
C359 C360 1.397 . S
C359 C364 1.363 . S
C360 H337 0.950 . S
C360 C359 1.397 . S
C360 C361 1.334 . S
C361 H338 0.950 . S
C361 C360 1.334 . S
C361 C362 1.287 . S
C362 C361 1.287 . S
C362 C363 1.524 . S
C362 H381 0.913 . S
C363 H339 0.950 . S
C363 C362 1.524 . S
C363 C364 1.415 . S
C364 H340 0.950 . S
C364 C359 1.363 . S
C364 C363 1.415 . S
C365 H341 0.951 . S
C365 C366 1.366 . S
C365 C367 1.388 . S
C366 C365 1.366 . S
C366 C370 1.385 . S
C367 H342 0.951 . S
C367 C365 1.388 . S
C367 C368 1.366 . S
C368 C367 1.366 . S
C368 C369 1.414 . S
C368 C371 1.499 . S
C369 H343 0.950 . S
C369 C368 1.414 . S
C369 C370 1.374 . S
C370 H344 0.950 . S
C370 C366 1.385 . S
C370 C369 1.374 . S
C371 C368 1.499 . S
C371 C372 1.373 . S
C371 C373 1.389 . S
C372 H345 0.950 . S
C372 C358 1.377 . S
C372 C371 1.373 . S
C373 C357 1.377 . S
C373 C371 1.389 . S
C373 C374 1.524 . S
C374 C373 1.524 . S
C374 C375 1.397 . S
C374 C379 1.363 . S
C375 H346 0.950 . S
C375 C374 1.397 . S
C375 C376 1.334 . S
C376 H347 0.950 . S
C376 C375 1.334 . S
C376 C377 1.287 . S
C377 C376 1.287 . S
C377 C378 1.524 . S
C377 H380 0.999 . S
C378 H348 0.950 . S
C378 C377 1.524 . S
C378 C379 1.415 . S
C379 H349 0.950 . S
C379 C374 1.363 . S
C379 C378 1.415 . S
H380 C377 0.999 . S
H381 C362 0.913 . S
H382 C400 0.951 . S
H383 C402 0.951 . S
H384 C404 0.950 . S
H385 C405 0.950 . S
H386 C407 0.950 . S
H387 C410 0.950 . S
H388 C411 0.950 . S
H389 C413 0.950 . S
H390 C414 0.950 . S
H391 C415 1.000 . S
H392 C417 0.951 1_655 S
H393 C419 0.950 . S
H394 C420 0.950 . S
H395 C422 0.950 . S
H396 C425 0.950 . S
H397 C426 0.950 . S
H398 C428 0.950 . S
H399 C429 0.950 . S
C400 H382 0.951 . S
C400 C401 1.366 . S
C400 C402 1.388 . S
C401 C400 1.366 . S
C401 C405 1.385 . S
C402 H383 0.951 . S
C402 C400 1.388 . S
C402 C403 1.366 . S
C403 C402 1.366 . S
C403 C404 1.414 . S
C403 C406 1.499 . S
C404 H384 0.950 . S
C404 C403 1.414 . S
C404 C405 1.374 . S
C405 H385 0.950 . S
C405 C401 1.385 . S
C405 C404 1.374 . S
C406 C403 1.499 . S
C406 C407 1.373 . S
C406 C408 1.389 . S
C407 H386 0.950 . S
C407 C406 1.373 . S
C407 C423 1.377 . S
C408 C406 1.389 . S
C408 C409 1.524 . S
C408 C422 1.377 . S
C409 C408 1.524 . S
C409 C410 1.397 . S
C409 C414 1.363 . S
C410 H387 0.950 . S
C410 C409 1.397 . S
C410 C411 1.334 . S
C411 H388 0.950 . S
C411 C410 1.334 . S
C411 C412 1.287 . S
C412 C411 1.287 . S
C412 C413 1.524 . S
C412 H431 0.913 . S
C413 H389 0.950 . S
C413 C412 1.524 . S
C413 C414 1.415 . S
C414 H390 0.950 . S
C414 C409 1.363 . S
C414 C413 1.415 . S
C415 H391 1.000 . S
C415 C416 1.330 1_655 S
C415 C417 1.377 1_655 S
C416 C415 1.330 1_455 S
C416 C420 1.385 . S
C417 H392 0.951 1_455 S
C417 C415 1.377 1_455 S
C417 C418 1.366 . S
C418 C417 1.366 . S
C418 C419 1.414 . S
C418 C421 1.499 . S
C419 H393 0.950 . S
C419 C418 1.414 . S
C419 C420 1.374 . S
C420 H394 0.950 . S
C420 C416 1.385 . S
C420 C419 1.374 . S
C421 C418 1.499 . S
C421 C422 1.373 . S
C421 C423 1.389 . S
C422 H395 0.950 . S
C422 C408 1.377 . S
C422 C421 1.373 . S
C423 C407 1.377 . S
C423 C421 1.389 . S
C423 C424 1.524 . S
C424 C423 1.524 . S
C424 C425 1.397 . S
C424 C429 1.363 1_455 S
C425 H396 0.950 . S
C425 C424 1.397 . S
C425 C426 1.334 . S
C426 H397 0.950 . S
C426 C425 1.334 . S
C426 C427 1.287 . S
C427 C426 1.287 . S
C427 C428 1.524 1_455 S
C427 H430 0.999 . S
C428 H398 0.950 . S
C428 C427 1.524 1_655 S
C428 C429 1.415 . S
C429 H399 0.950 . S
C429 C424 1.363 1_655 S
C429 C428 1.415 . S
H430 C427 0.999 . S
H431 C412 0.913 . S
H432 C450 0.951 . S
H433 C452 0.951 . S
H434 C454 0.950 . S
H435 C455 0.950 1_554 S
H436 C457 0.950 . S
H437 C460 0.950 . S
H438 C461 0.950 . S
H439 C463 0.950 . S
H440 C464 0.950 . S
H441 C465 0.951 . S
H442 C467 0.951 . S
H443 C469 0.949 1_545 S
H444 C470 0.950 . S
H445 C472 0.950 . S
H446 C475 0.950 . S
H447 C476 0.950 . S
H448 C478 0.950 . S
H449 C479 0.950 . S
C450 H432 0.951 . S
C450 C451 1.366 . S
C450 C452 1.388 . S
C451 C450 1.366 . S
C451 C455 1.385 . S
C452 H433 0.951 . S
C452 C450 1.388 . S
C452 C453 1.366 . S
C453 C452 1.366 . S
C453 C454 1.414 . S
C453 C456 1.499 . S
C454 H434 0.950 . S
C454 C453 1.414 . S
C454 C455 1.374 . S
C455 H435 0.950 1_556 S
C455 C451 1.385 . S
C455 C454 1.374 . S
C456 C453 1.499 . S
C456 C457 1.373 . S
C456 C458 1.389 . S
C457 H436 0.950 . S
C457 C456 1.373 . S
C457 C473 1.377 . S
C458 C456 1.389 . S
C458 C459 1.524 . S
C458 C472 1.377 . S
C459 C458 1.524 . S
C459 C460 1.397 . S
C459 C464 1.363 . S
C460 H437 0.950 . S
C460 C459 1.397 . S
C460 C461 1.334 . S
C461 H438 0.950 . S
C461 C460 1.334 . S
C461 C462 1.287 . S
C462 C461 1.287 . S
C462 C463 1.524 . S
C462 H481 0.913 . S
C463 H439 0.950 . S
C463 C462 1.524 . S
C463 C464 1.415 . S
C464 H440 0.950 . S
C464 C459 1.363 . S
C464 C463 1.415 . S
C465 H441 0.951 . S
C465 C466 1.366 . S
C465 C467 1.388 . S
C466 C465 1.366 . S
C466 C470 1.385 1_565 S
C467 H442 0.951 . S
C467 C465 1.388 . S
C467 C468 1.366 . S
C468 C467 1.366 . S
C468 C469 1.416 . S
C468 C471 1.499 . S
C469 H443 0.949 1_565 S
C469 C468 1.416 . S
C469 C470 1.373 1_565 S
C470 H444 0.950 . S
C470 C466 1.385 1_545 S
C470 C469 1.373 1_545 S
C471 C468 1.499 . S
C471 C472 1.373 . S
C471 C473 1.389 . S
C472 H445 0.950 . S
C472 C458 1.377 . S
C472 C471 1.373 . S
C473 C457 1.377 . S
C473 C471 1.389 . S
C473 C474 1.524 . S
C474 C473 1.524 . S
C474 C475 1.397 1_565 S
C474 C479 1.363 1_556 S
C475 H446 0.950 . S
C475 C474 1.397 1_545 S
C475 C476 1.334 . S
C476 H447 0.950 . S
C476 C475 1.334 . S
C476 C477 1.287 1_556 S
C477 C476 1.287 1_554 S
C477 C478 1.524 1_545 S
C477 H480 0.999 . S
C478 H448 0.950 . S
C478 C477 1.524 1_565 S
C478 C479 1.415 . S
C479 H449 0.950 . S
C479 C474 1.363 1_554 S
C479 C478 1.415 . S
H480 C477 0.999 . S
H481 C462 0.913 . S
H482 C500 0.951 . S
H483 C502 0.951 . S
H484 C504 0.950 . S
H485 C505 0.950 . S
H486 C507 0.950 . S
H487 C510 0.950 . S
H488 C511 0.950 . S
H489 C513 0.950 . S
H490 C514 0.950 . S
H491 C515 0.951 . S
H492 C517 0.951 . S
H493 C519 0.950 . S
H494 C520 0.950 . S
H495 C522 0.950 . S
H496 C525 0.950 . S
H497 C526 0.950 . S
H498 C528 0.950 . S
H499 C529 0.950 . S
C500 H482 0.951 . S
C500 C501 1.366 . S
C500 C502 1.388 . S
C501 C500 1.366 . S
C501 C505 1.385 1_556 S
C502 H483 0.951 . S
C502 C500 1.388 . S
C502 C503 1.366 . S
C503 C502 1.366 . S
C503 C504 1.414 1_556 S
C503 C506 1.499 . S
C504 H484 0.950 . S
C504 C503 1.414 1_554 S
C504 C505 1.374 . S
C505 H485 0.950 . S
C505 C501 1.385 1_554 S
C505 C504 1.374 . S
C506 C503 1.499 . S
C506 C507 1.373 . S
C506 C508 1.389 . S
C507 H486 0.950 . S
C507 C506 1.373 . S
C507 C523 1.377 . S
C508 C506 1.389 . S
C508 C509 1.524 . S
C508 C522 1.377 . S
C509 C508 1.524 . S
C509 C510 1.397 . S
C509 C514 1.363 . S
C510 H487 0.950 . S
C510 C509 1.397 . S
C510 C511 1.334 . S
C511 H488 0.950 . S
C511 C510 1.334 . S
C511 C512 1.287 . S
C512 C511 1.287 . S
C512 C513 1.524 . S
C512 H531 0.913 . S
C513 H489 0.950 . S
C513 C512 1.524 . S
C513 C514 1.415 . S
C514 H490 0.950 . S
C514 C509 1.363 . S
C514 C513 1.415 . S
C515 H491 0.951 . S
C515 C516 1.366 . S
C515 C517 1.388 . S
C516 C515 1.366 . S
C516 C520 1.385 . S
C517 H492 0.951 . S
C517 C515 1.388 . S
C517 C518 1.366 . S
C518 C517 1.366 . S
C518 C519 1.414 . S
C518 C521 1.499 . S
C519 H493 0.950 . S
C519 C518 1.414 . S
C519 C520 1.374 . S
C520 H494 0.950 . S
C520 C516 1.385 . S
C520 C519 1.374 . S
C521 C518 1.499 . S
C521 C522 1.373 . S
C521 C523 1.389 . S
C522 H495 0.950 . S
C522 C508 1.377 . S
C522 C521 1.373 . S
C523 C507 1.377 . S
C523 C521 1.389 . S
C523 C524 1.524 . S
C524 C523 1.524 . S
C524 C525 1.397 . S
C524 C529 1.363 1_556 S
C525 H496 0.950 . S
C525 C524 1.397 . S
C525 C526 1.334 . S
C526 H497 0.950 . S
C526 C525 1.334 . S
C526 C527 1.287 1_556 S
C527 C526 1.287 1_554 S
C527 C528 1.524 . S
C527 H530 0.999 . S
C528 H498 0.950 . S
C528 C527 1.524 . S
C528 C529 1.415 . S
C529 H499 0.950 . S
C529 C524 1.363 1_554 S
C529 C528 1.415 . S
H530 C527 0.999 . S
H531 C512 0.913 . S
H532 C550 0.951 . S
H533 C552 0.951 1_554 S
H534 C554 0.950 . S
H535 C555 0.950 . S
H536 C557 0.950 . S
H537 C560 0.950 . S
H538 C561 0.950 . S
H539 C563 0.950 . S
H540 C564 0.950 . S
H541 C565 0.951 . S
H542 C567 0.951 . S
H543 C569 0.950 . S
H544 C570 0.950 . S
H545 C572 0.950 . S
H546 C575 0.950 . S
H547 C576 0.950 . S
H548 C578 0.950 . S
H549 C579 0.950 . S
C550 H532 0.951 . S
C550 C551 1.366 1_554 S
C550 C552 1.388 1_554 S
C551 C550 1.366 1_556 S
C551 C555 1.385 . S
C552 H533 0.951 1_556 S
C552 C550 1.388 1_556 S
C552 C553 1.366 . S
C553 C552 1.366 . S
C553 C554 1.414 . S
C553 C556 1.499 . S
C554 H534 0.950 . S
C554 C553 1.414 . S
C554 C555 1.374 . S
C555 H535 0.950 . S
C555 C551 1.385 . S
C555 C554 1.374 . S
C556 C553 1.499 . S
C556 C557 1.373 . S
C556 C558 1.389 . S
C557 H536 0.950 . S
C557 C556 1.373 . S
C557 C573 1.377 . S
C558 C556 1.389 . S
C558 C559 1.524 . S
C558 C572 1.377 . S
C559 C558 1.524 . S
C559 C560 1.397 . S
C559 C564 1.363 1_556 S
C560 H537 0.950 . S
C560 C559 1.397 . S
C560 C561 1.334 1_556 S
C561 H538 0.950 . S
C561 C560 1.334 1_554 S
C561 C562 1.287 . S
C562 C561 1.287 . S
C562 C563 1.524 . S
C562 H581 0.913 . S
C563 H539 0.950 . S
C563 C562 1.524 . S
C563 C564 1.415 . S
C564 H540 0.950 . S
C564 C559 1.363 1_554 S
C564 C563 1.415 . S
C565 H541 0.951 . S
C565 C566 1.366 . S
C565 C567 1.388 . S
C566 C565 1.366 . S
C566 C570 1.385 . S
C567 H542 0.951 . S
C567 C565 1.388 . S
C567 C568 1.366 . S
C568 C567 1.366 . S
C568 C569 1.414 . S
C568 C571 1.499 . S
C569 H543 0.950 . S
C569 C568 1.414 . S
C569 C570 1.374 . S
C570 H544 0.950 . S
C570 C566 1.385 . S
C570 C569 1.374 . S
C571 C568 1.499 . S
C571 C572 1.373 . S
C571 C573 1.389 . S
C572 H545 0.950 . S
C572 C558 1.377 . S
C572 C571 1.373 . S
C573 C557 1.377 . S
C573 C571 1.389 . S
C573 C574 1.524 . S
C574 C573 1.524 . S
C574 C575 1.397 . S
C574 C579 1.363 . S
C575 H546 0.950 . S
C575 C574 1.397 . S
C575 C576 1.334 . S
C576 H547 0.950 . S
C576 C575 1.334 . S
C576 C577 1.287 . S
C577 C576 1.287 . S
C577 C578 1.524 . S
C577 H580 0.999 . S
C578 H548 0.950 . S
C578 C577 1.524 . S
C578 C579 1.415 . S
C579 H549 0.950 . S
C579 C574 1.363 . S
C579 C578 1.415 . S
H580 C577 0.999 . S
H581 C562 0.913 . S
H582 C600 0.951 . S
H583 C602 0.951 . S
H584 C604 0.950 . S
H585 C605 0.950 . S
H586 C607 0.950 . S
H587 C610 0.950 . S
H588 C611 0.950 . S
H589 C613 0.950 . S
H590 C614 0.950 1_455 S
H591 C615 0.951 . S
H592 C617 0.951 . S
H593 C619 0.950 . S
H594 C620 0.950 . S
H595 C622 0.950 . S
H596 C625 0.950 . S
H597 C626 0.950 . S
H598 C628 0.950 . S
H599 C629 0.950 . S
C600 H582 0.951 . S
C600 C601 1.366 . S
C600 C602 1.388 . S
C601 C600 1.366 . S
C601 C605 1.385 . S
C602 H583 0.951 . S
C602 C600 1.388 . S
C602 C603 1.366 . S
C603 C602 1.366 . S
C603 C604 1.414 . S
C603 C606 1.499 . S
C604 H584 0.950 . S
C604 C603 1.414 . S
C604 C605 1.374 . S
C605 H585 0.950 . S
C605 C601 1.385 . S
C605 C604 1.374 . S
C606 C603 1.499 . S
C606 C607 1.373 . S
C606 C608 1.389 . S
C607 H586 0.950 . S
C607 C606 1.373 . S
C607 C623 1.377 . S
C608 C606 1.389 . S
C608 C609 1.524 . S
C608 C622 1.377 . S
C609 C608 1.524 . S
C609 C610 1.397 . S
C609 C614 1.363 . S
C610 H587 0.950 . S
C610 C609 1.397 . S
C610 C611 1.334 . S
C611 H588 0.950 . S
C611 C610 1.334 . S
C611 C612 1.287 . S
C612 C611 1.287 . S
C612 C613 1.524 . S
C612 H631 0.913 . S
C613 H589 0.950 . S
C613 C612 1.524 . S
C613 C614 1.415 . S
C614 H590 0.950 1_655 S
C614 C609 1.363 . S
C614 C613 1.415 . S
C615 H591 0.951 . S
C615 C616 1.408 . S
C615 C617 1.388 . S
C616 C615 1.408 . S
C616 C620 1.357 1_655 S
C617 H592 0.951 . S
C617 C615 1.388 . S
C617 C618 1.366 . S
C618 C617 1.366 . S
C618 C619 1.414 1_655 S
C618 C621 1.499 . S
C619 H593 0.950 . S
C619 C618 1.414 1_455 S
C619 C620 1.374 . S
C620 H594 0.950 . S
C620 C616 1.357 1_455 S
C620 C619 1.374 . S
C621 C618 1.499 . S
C621 C622 1.373 . S
C621 C623 1.389 . S
C622 H595 0.950 . S
C622 C608 1.377 . S
C622 C621 1.373 . S
C623 C607 1.377 . S
C623 C621 1.389 . S
C623 C624 1.524 . S
C624 C623 1.524 . S
C624 C625 1.397 1_655 S
C624 C629 1.363 . S
C625 H596 0.950 . S
C625 C624 1.397 1_455 S
C625 C626 1.334 . S
C626 H597 0.950 . S
C626 C625 1.334 . S
C626 C627 1.287 1_556 S
C627 C626 1.287 1_554 S
C627 C628 1.524 1_455 S
C627 H630 0.999 . S
C628 H598 0.950 . S
C628 C627 1.524 1_655 S
C628 C629 1.415 1_554 S
C629 H599 0.950 . S
C629 C624 1.363 . S
C629 C628 1.415 1_556 S
H630 C627 0.999 . S
H631 C612 0.913 . S
H632 C650 0.951 . S
H633 C652 0.951 . S
H634 C654 0.950 . S
H635 C655 0.950 . S
H636 C657 0.950 . S
H637 C660 0.950 1_455 S
H638 C661 0.950 . S
H639 C663 0.950 . S
H640 C664 0.950 . S
H641 C665 0.951 . S
H642 C667 0.951 . S
H643 C669 0.950 1_655 S
H644 C670 0.950 1_655 S
H645 C672 0.950 1_655 S
H646 C675 0.950 . S
H647 C676 0.950 . S
H648 C678 0.950 . S
H649 C679 0.950 . S
C650 H632 0.951 . S
C650 C651 1.366 . S
C650 C652 1.388 . S
C651 C650 1.366 . S
C651 C655 1.385 . S
C652 H633 0.951 . S
C652 C650 1.388 . S
C652 C653 1.366 . S
C653 C652 1.366 . S
C653 C654 1.414 . S
C653 C656 1.499 . S
C654 H634 0.950 . S
C654 C653 1.414 . S
C654 C655 1.374 . S
C655 H635 0.950 . S
C655 C651 1.385 . S
C655 C654 1.374 . S
C656 C653 1.499 . S
C656 C657 1.373 . S
C656 C658 1.389 . S
C657 H636 0.950 . S
C657 C656 1.373 . S
C657 C673 1.377 . S
C658 C656 1.389 . S
C658 C659 1.524 1_455 S
C658 C672 1.377 . S
C659 C658 1.524 1_655 S
C659 C660 1.397 . S
C659 C664 1.363 . S
C660 H637 0.950 1_655 S
C660 C659 1.397 . S
C660 C661 1.334 . S
C661 H638 0.950 . S
C661 C660 1.334 . S
C661 C662 1.287 . S
C662 C661 1.287 . S
C662 C663 1.524 . S
C662 H681 0.913 . S
C663 H639 0.950 . S
C663 C662 1.524 . S
C663 C664 1.415 . S
C664 H640 0.950 . S
C664 C659 1.363 . S
C664 C663 1.415 . S
C665 H641 0.951 . S
C665 C666 1.366 . S
C665 C667 1.388 . S
C666 C665 1.366 . S
C666 C670 1.385 . S
C667 H642 0.951 . S
C667 C665 1.388 . S
C667 C668 1.366 . S
C668 C667 1.366 . S
C668 C669 1.414 . S
C668 C671 1.499 . S
C669 H643 0.950 1_455 S
C669 C668 1.414 . S
C669 C670 1.374 . S
C670 H644 0.950 1_455 S
C670 C666 1.385 . S
C670 C669 1.374 . S
C671 C668 1.499 . S
C671 C672 1.373 . S
C671 C673 1.389 . S
C672 H645 0.950 1_455 S
C672 C658 1.377 . S
C672 C671 1.373 . S
C673 C657 1.377 . S
C673 C671 1.389 . S
C673 C674 1.524 . S
C674 C673 1.524 . S
C674 C675 1.397 . S
C674 C679 1.363 . S
C675 H646 0.950 . S
C675 C674 1.397 . S
C675 C676 1.334 . S
C676 H647 0.950 . S
C676 C675 1.334 . S
C676 C677 1.287 . S
C677 C676 1.287 . S
C677 C678 1.524 . S
C677 H680 0.999 . S
C678 H648 0.950 . S
C678 C677 1.524 . S
C678 C679 1.415 . S
C679 H649 0.950 . S
C679 C674 1.363 . S
C679 C678 1.415 . S
H680 C677 0.999 . S
H681 C662 0.913 . S
H682 C700 0.951 . S
H683 C702 0.951 . S
H684 C704 0.950 . S
H685 C705 0.950 . S
H686 C707 0.950 . S
H687 C710 0.938 1_545 S
H688 C711 0.950 . S
H689 C713 0.950 . S
H690 C714 0.950 . S
H691 C715 0.951 . S
H692 C717 0.951 . S
H693 C719 0.950 . S
H694 C720 0.950 . S
H695 C722 0.950 . S
H696 C725 0.950 . S
H697 C726 0.950 . S
H698 C728 0.950 . S
H699 C729 0.950 . S
C700 H682 0.951 . S
C700 C701 1.366 . S
C700 C702 1.388 . S
C701 C700 1.366 . S
C701 C705 1.385 . S
C702 H683 0.951 . S
C702 C700 1.388 . S
C702 C703 1.366 . S
C703 C702 1.366 . S
C703 C704 1.414 . S
C703 C706 1.499 . S
C704 H684 0.950 . S
C704 C703 1.414 . S
C704 C705 1.374 . S
C705 H685 0.950 . S
C705 C701 1.385 . S
C705 C704 1.374 . S
C706 C703 1.499 . S
C706 C707 1.373 . S
C706 C708 1.389 . S
C707 H686 0.950 . S
C707 C706 1.373 . S
C707 C723 1.377 . S
C708 C706 1.389 . S
C708 C709 1.524 . S
C708 C722 1.377 . S
C709 C708 1.524 . S
C709 C710 1.379 1_545 S
C709 C714 1.363 . S
C710 H687 0.938 1_565 S
C710 C709 1.379 1_565 S
C710 C711 1.366 . S
C711 H688 0.950 . S
C711 C710 1.366 . S
C711 C712 1.287 . S
C712 C711 1.287 . S
C712 C713 1.524 . S
C712 H731 0.913 . S
C713 H689 0.950 . S
C713 C712 1.524 . S
C713 C714 1.415 1_565 S
C714 H690 0.950 . S
C714 C709 1.363 . S
C714 C713 1.415 1_545 S
C715 H691 0.951 . S
C715 C716 1.366 . S
C715 C717 1.388 . S
C716 C715 1.366 . S
C716 C720 1.385 . S
C717 H692 0.951 . S
C717 C715 1.388 . S
C717 C718 1.366 . S
C718 C717 1.366 . S
C718 C719 1.414 . S
C718 C721 1.499 . S
C719 H693 0.950 . S
C719 C718 1.414 . S
C719 C720 1.374 . S
C720 H694 0.950 . S
C720 C716 1.385 . S
C720 C719 1.374 . S
C721 C718 1.499 . S
C721 C722 1.373 . S
C721 C723 1.389 . S
C722 H695 0.950 . S
C722 C708 1.377 . S
C722 C721 1.373 . S
C723 C707 1.377 . S
C723 C721 1.389 . S
C723 C724 1.524 . S
C724 C723 1.524 . S
C724 C725 1.397 . S
C724 C729 1.363 . S
C725 H696 0.950 . S
C725 C724 1.397 . S
C725 C726 1.334 . S
C726 H697 0.950 . S
C726 C725 1.334 . S
C726 C727 1.287 . S
C727 C726 1.287 . S
C727 C728 1.524 . S
C727 H730 0.999 . S
C728 H698 0.950 . S
C728 C727 1.524 . S
C728 C729 1.415 . S
C729 H699 0.950 . S
C729 C724 1.363 . S
C729 C728 1.415 . S
H730 C727 0.999 . S
H731 C712 0.913 . S
H732 C750 0.951 . S
H733 C752 0.951 . S
H734 C754 0.950 . S
H735 C755 0.950 . S
H736 C757 0.950 . S
H737 C760 0.950 . S
H738 C761 0.950 . S
H739 C763 0.950 . S
H740 C764 0.950 . S
H741 C765 0.951 . S
H742 C767 0.951 . S
H743 C769 0.950 . S
H744 C770 0.950 . S
H745 C772 0.950 . S
H746 C775 0.950 . S
H747 C776 0.950 . S
H748 C778 0.950 . S
H749 C779 0.950 . S
C750 H732 0.951 . S
C750 C751 1.366 . S
C750 C752 1.388 . S
C751 C750 1.366 . S
C751 C755 1.385 . S
C752 H733 0.951 . S
C752 C750 1.388 . S
C752 C753 1.366 . S
C753 C752 1.366 . S
C753 C754 1.414 . S
C753 C756 1.499 . S
C754 H734 0.950 . S
C754 C753 1.414 . S
C754 C755 1.374 . S
C755 H735 0.950 . S
C755 C751 1.385 . S
C755 C754 1.374 . S
C756 C753 1.499 . S
C756 C757 1.373 . S
C756 C758 1.389 . S
C757 H736 0.950 . S
C757 C756 1.373 . S
C757 C773 1.377 . S
C758 C756 1.389 . S
C758 C759 1.524 . S
C758 C772 1.377 . S
C759 C758 1.524 . S
C759 C760 1.397 . S
C759 C764 1.363 . S
C760 H737 0.950 . S
C760 C759 1.397 . S
C760 C761 1.334 . S
C761 H738 0.950 . S
C761 C760 1.334 . S
C761 C762 1.287 . S
C762 C761 1.287 . S
C762 C763 1.524 . S
C762 H781 0.913 . S
C763 H739 0.950 . S
C763 C762 1.524 . S
C763 C764 1.415 . S
C764 H740 0.950 . S
C764 C759 1.363 . S
C764 C763 1.415 . S
C765 H741 0.951 . S
C765 C766 1.366 . S
C765 C767 1.388 . S
C766 C765 1.366 . S
C766 C770 1.385 . S
C767 H742 0.951 . S
C767 C765 1.388 . S
C767 C768 1.366 . S
C768 C767 1.366 . S
C768 C769 1.414 . S
C768 C771 1.499 . S
C769 H743 0.950 . S
C769 C768 1.414 . S
C769 C770 1.374 . S
C770 H744 0.950 . S
C770 C766 1.385 . S
C770 C769 1.374 . S
C771 C768 1.499 . S
C771 C772 1.373 . S
C771 C773 1.389 . S
C772 H745 0.950 . S
C772 C758 1.377 . S
C772 C771 1.373 . S
C773 C757 1.377 . S
C773 C771 1.389 . S
C773 C774 1.524 . S
C774 C773 1.524 . S
C774 C775 1.397 . S
C774 C779 1.363 . S
C775 H746 0.950 . S
C775 C774 1.397 . S
C775 C776 1.334 . S
C776 H747 0.950 . S
C776 C775 1.334 . S
C776 C777 1.287 . S
C777 C776 1.287 . S
C777 C778 1.524 . S
C777 H780 0.999 . S
C778 H748 0.950 . S
C778 C777 1.524 . S
C778 C779 1.415 . S
C779 H749 0.950 . S
C779 C774 1.363 . S
C779 C778 1.415 . S
H780 C777 0.999 . S
H781 C762 0.913 . S
H782 C800 0.951 . S
H783 C802 0.951 . S
H784 C804 0.950 . S
H785 C805 0.950 . S
H786 C807 0.950 . S
H787 C810 0.950 . S
H788 C811 0.950 . S
H789 C813 0.950 . S
H790 C814 0.950 . S
H791 C815 0.951 . S
H792 C817 0.951 . S
H793 C819 0.950 . S
H794 C820 0.950 . S
H795 C822 0.950 . S
H796 C825 0.950 . S
H797 C826 0.950 . S
H798 C828 0.950 . S
H799 C829 0.950 . S
C800 H782 0.951 . S
C800 C801 1.366 . S
C800 C802 1.388 . S
C801 C800 1.366 . S
C801 C805 1.385 . S
C802 H783 0.951 . S
C802 C800 1.388 . S
C802 C803 1.366 . S
C803 C802 1.366 . S
C803 C804 1.414 . S
C803 C806 1.499 . S
C804 H784 0.950 . S
C804 C803 1.414 . S
C804 C805 1.374 . S
C805 H785 0.950 . S
C805 C801 1.385 . S
C805 C804 1.374 . S
C806 C803 1.499 . S
C806 C807 1.373 . S
C806 C808 1.389 . S
C807 H786 0.950 . S
C807 C806 1.373 . S
C807 C823 1.377 . S
C808 C806 1.389 . S
C808 C809 1.524 . S
C808 C822 1.377 . S
C809 C808 1.524 . S
C809 C810 1.397 . S
C809 C814 1.363 . S
C810 H787 0.950 . S
C810 C809 1.397 . S
C810 C811 1.334 . S
C811 H788 0.950 . S
C811 C810 1.334 . S
C811 C812 1.287 . S
C812 C811 1.287 . S
C812 C813 1.524 . S
C812 H831 0.913 . S
C813 H789 0.950 . S
C813 C812 1.524 . S
C813 C814 1.415 . S
C814 H790 0.950 . S
C814 C809 1.363 . S
C814 C813 1.415 . S
C815 H791 0.951 . S
C815 C816 1.366 . S
C815 C817 1.388 . S
C816 C815 1.366 . S
C816 C820 1.385 . S
C817 H792 0.951 . S
C817 C815 1.388 . S
C817 C818 1.366 . S
C818 C817 1.366 . S
C818 C819 1.414 . S
C818 C821 1.499 . S
C819 H793 0.950 . S
C819 C818 1.414 . S
C819 C820 1.374 . S
C820 H794 0.950 . S
C820 C816 1.385 . S
C820 C819 1.374 . S
C821 C818 1.499 . S
C821 C822 1.373 . S
C821 C823 1.389 . S
C822 H795 0.950 . S
C822 C808 1.377 . S
C822 C821 1.373 . S
C823 C807 1.377 . S
C823 C821 1.389 . S
C823 C824 1.524 . S
C824 C823 1.524 . S
C824 C825 1.397 . S
C824 C829 1.363 . S
C825 H796 0.950 . S
C825 C824 1.397 . S
C825 C826 1.334 . S
C826 H797 0.950 . S
C826 C825 1.334 . S
C826 C827 1.287 . S
C827 C826 1.287 . S
C827 C828 1.524 . S
C827 H830 0.999 . S
C828 H798 0.950 . S
C828 C827 1.524 . S
C828 C829 1.415 . S
C829 H799 0.950 . S
C829 C824 1.363 . S
C829 C828 1.415 . S
H830 C827 0.999 . S
H831 C812 0.913 . S
H832 C850 0.951 . S
H833 C852 0.951 . S
H834 C854 0.950 . S
H835 C855 0.950 1_554 S
H836 C857 0.950 . S
H837 C860 0.950 . S
H838 C861 0.950 . S
H839 C863 0.950 . S
H840 C864 0.950 . S
H841 C865 0.951 . S
H842 C867 0.951 . S
H843 C869 0.950 . S
H844 C870 0.950 . S
H845 C872 0.950 . S
H846 C875 0.950 . S
H847 C876 0.950 . S
H848 C878 0.950 . S
H849 C879 0.950 . S
C850 H832 0.951 . S
C850 C851 1.366 . S
C850 C852 1.388 . S
C851 C850 1.366 . S
C851 C855 1.385 . S
C852 H833 0.951 . S
C852 C850 1.388 . S
C852 C853 1.366 . S
C853 C852 1.366 . S
C853 C854 1.414 . S
C853 C856 1.499 . S
C854 H834 0.950 . S
C854 C853 1.414 . S
C854 C855 1.374 . S
C855 H835 0.950 1_556 S
C855 C851 1.385 . S
C855 C854 1.374 . S
C856 C853 1.499 . S
C856 C857 1.373 . S
C856 C858 1.389 . S
C857 H836 0.950 . S
C857 C856 1.373 . S
C857 C873 1.377 . S
C858 C856 1.389 . S
C858 C859 1.524 1_655 S
C858 C872 1.377 1_655 S
C859 C858 1.524 1_455 S
C859 C860 1.397 . S
C859 C864 1.363 . S
C860 H837 0.950 . S
C860 C859 1.397 . S
C860 C861 1.334 . S
C861 H838 0.950 . S
C861 C860 1.334 . S
C861 C862 1.287 . S
C862 C861 1.287 . S
C862 C863 1.524 . S
C862 H881 0.913 . S
C863 H839 0.950 . S
C863 C862 1.524 . S
C863 C864 1.415 . S
C864 H840 0.950 . S
C864 C859 1.363 . S
C864 C863 1.415 . S
C865 H841 0.951 . S
C865 C866 1.367 . S
C865 C867 1.388 . S
C866 C865 1.367 . S
C866 C870 1.384 1_655 S
C867 H842 0.951 . S
C867 C865 1.388 . S
C867 C868 1.366 . S
C868 C867 1.366 . S
C868 C869 1.414 1_655 S
C868 C871 1.499 . S
C869 H843 0.950 . S
C869 C868 1.414 1_455 S
C869 C870 1.374 . S
C870 H844 0.950 . S
C870 C866 1.384 1_455 S
C870 C869 1.374 . S
C871 C868 1.499 . S
C871 C872 1.373 1_655 S
C871 C873 1.389 . S
C872 H845 0.950 . S
C872 C858 1.377 1_455 S
C872 C871 1.373 1_455 S
C873 C857 1.377 . S
C873 C871 1.389 . S
C873 C874 1.524 . S
C874 C873 1.524 . S
C874 C875 1.397 . S
C874 C879 1.363 . S
C875 H846 0.950 . S
C875 C874 1.397 . S
C875 C876 1.334 . S
C876 H847 0.950 . S
C876 C875 1.334 . S
C876 C877 1.287 . S
C877 C876 1.287 . S
C877 C878 1.524 . S
C877 H880 0.999 . S
C878 H848 0.950 . S
C878 C877 1.524 . S
C878 C879 1.415 . S
C879 H849 0.950 . S
C879 C874 1.363 . S
C879 C878 1.415 . S
H880 C877 0.999 . S
H881 C862 0.913 . S
H882 C900 0.946 1_554 S
H883 C902 0.951 . S
H884 C904 0.950 . S
H885 C905 0.950 . S
H886 C907 0.950 . S
H887 C910 0.950 . S
H888 C911 0.950 . S
H889 C913 0.950 . S
H890 C914 0.950 . S
H891 C915 0.951 . S
H892 C917 0.951 . S
H893 C919 0.950 . S
H894 C920 0.950 . S
H895 C922 0.950 . S
H896 C925 0.950 . S
H897 C926 0.950 . S
H898 C928 0.950 . S
H899 C929 0.950 . S
C900 H882 0.946 1_556 S
C900 C901 1.366 . S
C900 C902 1.388 . S
C901 C900 1.366 . S
C901 C905 1.385 . S
C902 H883 0.951 . S
C902 C900 1.388 . S
C902 C903 1.366 . S
C903 C902 1.366 . S
C903 C904 1.414 . S
C903 C906 1.499 . S
C904 H884 0.950 . S
C904 C903 1.414 . S
C904 C905 1.374 . S
C905 H885 0.950 . S
C905 C901 1.385 . S
C905 C904 1.374 . S
C906 C903 1.499 . S
C906 C907 1.373 . S
C906 C908 1.389 . S
C907 H886 0.950 . S
C907 C906 1.373 . S
C907 C923 1.377 . S
C908 C906 1.389 . S
C908 C909 1.524 1_556 S
C908 C922 1.377 . S
C909 C908 1.524 1_554 S
C909 C910 1.397 . S
C909 C914 1.363 1_565 S
C910 H887 0.950 . S
C910 C909 1.397 . S
C910 C911 1.334 . S
C911 H888 0.950 . S
C911 C910 1.334 . S
C911 C912 1.287 . S
C912 C911 1.287 . S
C912 C913 1.524 1_565 S
C912 H931 0.913 . S
C913 H889 0.950 . S
C913 C912 1.524 1_545 S
C913 C914 1.415 . S
C914 H890 0.950 . S
C914 C909 1.363 1_545 S
C914 C913 1.415 . S
C915 H891 0.951 . S
C915 C916 1.366 . S
C915 C917 1.388 . S
C916 C915 1.366 . S
C916 C920 1.385 1_565 S
C917 H892 0.951 . S
C917 C915 1.388 . S
C917 C918 1.366 . S
C918 C917 1.366 . S
C918 C919 1.414 1_565 S
C918 C921 1.499 . S
C919 H893 0.950 . S
C919 C918 1.414 1_545 S
C919 C920 1.374 . S
C920 H894 0.950 . S
C920 C916 1.385 1_545 S
C920 C919 1.374 . S
C921 C918 1.499 . S
C921 C922 1.373 . S
C921 C923 1.389 . S
C922 H895 0.950 . S
C922 C908 1.377 . S
C922 C921 1.373 . S
C923 C907 1.377 . S
C923 C921 1.389 . S
C923 C924 1.524 . S
C924 C923 1.524 . S
C924 C925 1.397 . S
C924 C929 1.363 . S
C925 H896 0.950 . S
C925 C924 1.397 . S
C925 C926 1.334 . S
C926 H897 0.950 . S
C926 C925 1.334 . S
C926 C927 1.287 . S
C927 C926 1.287 . S
C927 C928 1.524 . S
C927 H930 0.999 . S
C928 H898 0.950 . S
C928 C927 1.524 . S
C928 C929 1.415 . S
C929 H899 0.950 . S
C929 C924 1.363 . S
C929 C928 1.415 . S
H930 C927 0.999 . S
H931 C912 0.913 . S
H932 C950 0.951 . S
H933 C952 0.951 . S
H934 C954 0.950 . S
H935 C955 0.950 . S
H936 C957 0.950 . S
H937 C960 0.950 . S
H938 C961 0.950 . S
H939 C963 0.950 . S
H940 C964 0.950 . S
H941 C965 0.951 . S
H942 C967 0.951 . S
H943 C969 0.950 . S
H944 C970 0.950 . S
H945 C972 0.950 . S
H946 C975 0.950 . S
H947 C976 0.950 . S
H948 C978 0.950 . S
H949 C979 0.950 . S
C950 H932 0.951 . S
C950 C951 1.366 1_554 S
C950 C952 1.388 1_554 S
C951 C950 1.366 1_556 S
C951 C955 1.385 . S
C952 H933 0.951 . S
C952 C950 1.388 1_556 S
C952 C953 1.366 . S
C953 C952 1.366 . S
C953 C954 1.414 . S
C953 C956 1.499 . S
C954 H934 0.950 . S
C954 C953 1.414 . S
C954 C955 1.374 . S
C955 H935 0.950 . S
C955 C951 1.385 . S
C955 C954 1.374 . S
C956 C953 1.499 . S
C956 C957 1.373 . S
C956 C958 1.389 . S
C957 H936 0.950 . S
C957 C956 1.373 . S
C957 C973 1.377 . S
C958 C956 1.389 . S
C958 C959 1.524 . S
C958 C972 1.377 . S
C959 C958 1.524 . S
C959 C960 1.397 . S
C959 C964 1.363 . S
C960 H937 0.950 . S
C960 C959 1.397 . S
C960 C961 1.334 . S
C961 H938 0.950 . S
C961 C960 1.334 . S
C961 C962 1.287 . S
C962 C961 1.287 . S
C962 C963 1.524 . S
C962 H981 0.913 . S
C963 H939 0.950 . S
C963 C962 1.524 . S
C963 C964 1.415 . S
C964 H940 0.950 . S
C964 C959 1.363 . S
C964 C963 1.415 . S
C965 H941 0.951 . S
C965 C966 1.366 . S
C965 C967 1.388 . S
C966 C965 1.366 . S
C966 C970 1.385 . S
C967 H942 0.951 . S
C967 C965 1.388 . S
C967 C968 1.366 . S
C968 C967 1.366 . S
C968 C969 1.414 . S
C968 C971 1.499 . S
C969 H943 0.950 . S
C969 C968 1.414 . S
C969 C970 1.374 . S
C970 H944 0.950 . S
C970 C966 1.385 . S
C970 C969 1.374 . S
C971 C968 1.499 . S
C971 C972 1.373 . S
C971 C973 1.389 . S
C972 H945 0.950 . S
C972 C958 1.377 . S
C972 C971 1.373 . S
C973 C957 1.377 . S
C973 C971 1.389 . S
C973 C974 1.524 . S
C974 C973 1.524 . S
C974 C975 1.397 . S
C974 C979 1.363 . S
C975 H946 0.950 . S
C975 C974 1.397 . S
C975 C976 1.334 . S
C976 H947 0.950 . S
C976 C975 1.334 . S
C976 C977 1.287 . S
C977 C976 1.287 . S
C977 C978 1.524 . S
C977 H980 0.999 . S
C978 H948 0.950 . S
C978 C977 1.524 . S
C978 C979 1.415 . S
C979 H949 0.950 . S
C979 C974 1.363 . S
C979 C978 1.415 . S
H980 C977 0.999 . S
H981 C962 0.913 . S
H982 C1000 0.951 . S
H983 C1002 0.951 1_554 S
H984 C1004 0.950 . S
H985 C1005 0.950 . S
H986 C1007 0.950 . S
H987 C1010 0.950 . S
H988 C1011 0.950 . S
H989 C1013 0.950 . S
H990 C1014 0.950 . S
H991 C1015 0.951 . S
H992 C1017 0.951 . S
H993 C1019 0.950 . S
H994 C1020 0.950 . S
H995 C1022 0.950 . S
H996 C1025 0.950 . S
H997 C1026 0.950 . S
H998 C1028 0.950 . S
H999 C1029 0.950 . S
C1000 H982 0.951 . S
C1000 C1001 1.366 1_554 S
C1000 C1002 1.388 1_554 S
C1001 C1000 1.366 1_556 S
C1001 C1005 1.385 . S
C1002 H983 0.951 1_556 S
C1002 C1000 1.388 1_556 S
C1002 C1003 1.366 . S
C1003 C1002 1.366 . S
C1003 C1004 1.414 . S
C1003 C1006 1.499 . S
C1004 H984 0.950 . S
C1004 C1003 1.414 . S
C1004 C1005 1.374 . S
C1005 H985 0.950 . S
C1005 C1001 1.385 . S
C1005 C1004 1.374 . S
C1006 C1003 1.499 . S
C1006 C1007 1.373 . S
C1006 C1008 1.389 . S
C1007 H986 0.950 . S
C1007 C1006 1.373 . S
C1007 C1023 1.377 . S
C1008 C1006 1.389 . S
C1008 C1009 1.524 . S
C1008 C1022 1.377 . S
C1009 C1008 1.524 . S
C1009 C1010 1.397 . S
C1009 C1014 1.363 1_556 S
C1010 H987 0.950 . S
C1010 C1009 1.397 . S
C1010 C1011 1.334 1_556 S
C1011 H988 0.950 . S
C1011 C1010 1.334 1_554 S
C1011 C1012 1.287 . S
C1012 C1011 1.287 . S
C1012 C1013 1.524 . S
C1012 H1031 0.913 . S
C1013 H989 0.950 . S
C1013 C1012 1.524 . S
C1013 C1014 1.415 . S
C1014 H990 0.950 . S
C1014 C1009 1.363 1_554 S
C1014 C1013 1.415 . S
C1015 H991 0.951 . S
C1015 C1016 1.366 . S
C1015 C1017 1.388 . S
C1016 C1015 1.366 . S
C1016 C1020 1.385 . S
C1017 H992 0.951 . S
C1017 C1015 1.388 . S
C1017 C1018 1.366 . S
C1018 C1017 1.366 . S
C1018 C1019 1.414 . S
C1018 C1021 1.499 . S
C1019 H993 0.950 . S
C1019 C1018 1.414 . S
C1019 C1020 1.374 . S
C1020 H994 0.950 . S
C1020 C1016 1.385 . S
C1020 C1019 1.374 . S
C1021 C1018 1.499 . S
C1021 C1022 1.373 . S
C1021 C1023 1.389 . S
C1022 H995 0.950 . S
C1022 C1008 1.377 . S
C1022 C1021 1.373 . S
C1023 C1007 1.377 . S
C1023 C1021 1.389 . S
C1023 C1024 1.524 . S
C1024 C1023 1.524 . S
C1024 C1025 1.397 . S
C1024 C1029 1.363 . S
C1025 H996 0.950 . S
C1025 C1024 1.397 . S
C1025 C1026 1.334 . S
C1026 H997 0.950 . S
C1026 C1025 1.334 . S
C1026 C1027 1.287 . S
C1027 C1026 1.287 . S
C1027 C1028 1.524 . S
C1027 H1030 0.999 . S
C1028 H998 0.950 . S
C1028 C1027 1.524 . S
C1028 C1029 1.415 . S
C1029 H999 0.950 . S
C1029 C1024 1.363 . S
C1029 C1028 1.415 . S
H1030 C1027 0.999 . S
H1031 C1012 0.913 . S
H1032 C1050 0.951 . S
H1033 C1052 0.951 . S
H1034 C1054 0.950 . S
H1035 C1055 0.950 . S
H1036 C1057 0.950 . S
H1037 C1060 0.950 . S
H1038 C1061 0.950 . S
H1039 C1063 0.950 . S
H1040 C1064 0.941 1_455 S
H1041 C1065 0.951 . S
H1042 C1067 0.951 1_554 S
H1043 C1069 0.950 . S
H1044 C1070 0.950 . S
H1045 C1072 0.950 . S
H1046 C1075 0.950 . S
H1047 C1076 0.950 . S
H1048 C1078 0.950 . S
H1049 C1079 0.950 . S
C1050 H1032 0.951 . S
C1050 C1051 1.366 . S
C1050 C1052 1.388 . S
C1051 C1050 1.366 . S
C1051 C1055 1.385 . S
C1052 H1033 0.951 . S
C1052 C1050 1.388 . S
C1052 C1053 1.366 . S
C1053 C1052 1.366 . S
C1053 C1054 1.414 . S
C1053 C1056 1.499 . S
C1054 H1034 0.950 . S
C1054 C1053 1.414 . S
C1054 C1055 1.374 . S
C1055 H1035 0.950 . S
C1055 C1051 1.385 . S
C1055 C1054 1.374 . S
C1056 C1053 1.499 . S
C1056 C1057 1.373 . S
C1056 C1058 1.389 . S
C1057 H1036 0.950 . S
C1057 C1056 1.373 . S
C1057 C1073 1.377 . S
C1058 C1056 1.389 . S
C1058 C1059 1.524 . S
C1058 C1072 1.377 1_554 S
C1059 C1058 1.524 . S
C1059 C1060 1.397 1_455 S
C1059 C1064 1.357 1_454 S
C1060 H1037 0.950 . S
C1060 C1059 1.397 1_655 S
C1060 C1061 1.334 . S
C1061 H1038 0.950 . S
C1061 C1060 1.334 . S
C1061 C1062 1.287 . S
C1062 C1061 1.287 . S
C1062 C1063 1.524 1_554 S
C1062 H1081 0.913 . S
C1063 H1039 0.950 . S
C1063 C1062 1.524 1_556 S
C1063 C1064 1.430 . S
C1064 H1040 0.941 1_655 S
C1064 C1059 1.357 1_656 S
C1064 C1063 1.430 . S
C1065 H1041 0.951 . S
C1065 C1066 1.366 . S
C1065 C1067 1.388 . S
C1066 C1065 1.366 . S
C1066 C1070 1.385 . S
C1067 H1042 0.951 1_556 S
C1067 C1065 1.388 . S
C1067 C1068 1.366 . S
C1068 C1067 1.366 . S
C1068 C1069 1.414 . S
C1068 C1071 1.499 . S
C1069 H1043 0.950 . S
C1069 C1068 1.414 . S
C1069 C1070 1.374 . S
C1070 H1044 0.950 . S
C1070 C1066 1.385 . S
C1070 C1069 1.374 . S
C1071 C1068 1.499 . S
C1071 C1072 1.373 . S
C1071 C1073 1.389 1_556 S
C1072 H1045 0.950 . S
C1072 C1058 1.377 1_556 S
C1072 C1071 1.373 . S
C1073 C1057 1.377 . S
C1073 C1071 1.389 1_554 S
C1073 C1074 1.524 . S
C1074 C1073 1.524 . S
C1074 C1075 1.397 1_554 S
C1074 C1079 1.363 . S
C1075 H1046 0.950 . S
C1075 C1074 1.397 1_556 S
C1075 C1076 1.334 . S
C1076 H1047 0.950 . S
C1076 C1075 1.334 . S
C1076 C1077 1.287 1_556 S
C1077 C1076 1.287 1_554 S
C1077 C1078 1.524 . S
C1077 H1080 0.999 . S
C1078 H1048 0.950 . S
C1078 C1077 1.524 . S
C1078 C1079 1.415 . S
C1079 H1049 0.950 . S
C1079 C1074 1.363 . S
C1079 C1078 1.415 . S
H1080 C1077 0.999 . S
H1081 C1062 0.913 . S
H1082 C1100 0.951 . S
H1083 C1102 0.951 . S
H1084 C1104 0.950 . S
H1085 C1105 0.950 . S
H1086 C1107 0.950 . S
H1087 C1110 0.950 . S
H1088 C1111 0.960 . S
H1089 C1113 0.950 . S
H1090 C1114 0.950 . S
H1091 C1115 0.951 . S
H1092 C1117 0.951 . S
H1093 C1119 0.950 . S
H1094 C1120 0.950 . S
H1095 C1122 0.950 . S
H1096 C1125 0.950 . S
H1097 C1126 0.950 . S
H1098 C1128 0.950 . S
H1099 C1129 0.950 . S
C1100 H1082 0.951 . S
C1100 C1101 1.366 . S
C1100 C1102 1.388 . S
C1101 C1100 1.366 . S
C1101 C1105 1.385 . S
C1102 H1083 0.951 . S
C1102 C1100 1.388 . S
C1102 C1103 1.366 . S
C1103 C1102 1.366 . S
C1103 C1104 1.414 . S
C1103 C1106 1.499 . S
C1104 H1084 0.950 . S
C1104 C1103 1.414 . S
C1104 C1105 1.374 . S
C1105 H1085 0.950 . S
C1105 C1101 1.385 . S
C1105 C1104 1.374 . S
C1106 C1103 1.499 . S
C1106 C1107 1.373 . S
C1106 C1108 1.389 1_554 S
C1107 H1086 0.950 . S
C1107 C1106 1.373 . S
C1107 C1123 1.377 . S
C1108 C1106 1.389 1_556 S
C1108 C1109 1.524 . S
C1108 C1122 1.377 . S
C1109 C1108 1.524 . S
C1109 C1110 1.397 1_556 S
C1109 C1114 1.363 . S
C1110 H1087 0.950 . S
C1110 C1109 1.397 1_554 S
C1110 C1111 1.337 1_545 S
C1111 H1088 0.960 . S
C1111 C1110 1.337 1_565 S
C1111 C1112 1.274 1_554 S
C1112 C1111 1.274 1_556 S
C1112 C1113 1.524 1_565 S
C1112 H1131 0.913 . S
C1113 H1089 0.950 . S
C1113 C1112 1.524 1_545 S
C1113 C1114 1.415 . S
C1114 H1090 0.950 . S
C1114 C1109 1.363 . S
C1114 C1113 1.415 . S
C1115 H1091 0.951 . S
C1115 C1116 1.366 . S
C1115 C1117 1.388 . S
C1116 C1115 1.366 . S
C1116 C1120 1.385 . S
C1117 H1092 0.951 . S
C1117 C1115 1.388 . S
C1117 C1118 1.366 . S
C1118 C1117 1.366 . S
C1118 C1119 1.414 . S
C1118 C1121 1.499 . S
C1119 H1093 0.950 . S
C1119 C1118 1.414 . S
C1119 C1120 1.374 . S
C1120 H1094 0.950 . S
C1120 C1116 1.385 . S
C1120 C1119 1.374 . S
C1121 C1118 1.499 . S
C1121 C1122 1.373 . S
C1121 C1123 1.389 1_556 S
C1122 H1095 0.950 . S
C1122 C1108 1.377 . S
C1122 C1121 1.373 . S
C1123 C1107 1.377 . S
C1123 C1121 1.389 1_554 S
C1123 C1124 1.524 . S
C1124 C1123 1.524 . S
C1124 C1125 1.397 1_554 S
C1124 C1129 1.363 . S
C1125 H1096 0.950 . S
C1125 C1124 1.397 1_556 S
C1125 C1126 1.334 . S
C1126 H1097 0.950 . S
C1126 C1125 1.334 . S
C1126 C1127 1.287 1_556 S
C1127 C1126 1.287 1_554 S
C1127 C1128 1.524 . S
C1127 H1130 0.999 . S
C1128 H1098 0.950 . S
C1128 C1127 1.524 . S
C1128 C1129 1.415 . S
C1129 H1099 0.950 . S
C1129 C1124 1.363 . S
C1129 C1128 1.415 . S
H1130 C1127 0.999 . S
H1131 C1112 0.913 . S
H1132 C1150 0.951 . S
H1133 C1152 0.951 . S
H1134 C1154 0.950 . S
H1135 C1155 0.950 . S
H1136 C1157 0.950 . S
H1137 C1160 0.950 . S
H1138 C1161 0.950 . S
H1139 C1163 0.950 . S
H1140 C1164 0.950 . S
H1141 C1165 0.951 . S
H1142 C1167 0.951 . S
H1143 C1169 0.950 . S
H1144 C1170 0.950 . S
H1145 C1172 0.950 . S
H1146 C1175 0.950 . S
H1147 C1176 0.950 . S
H1148 C1178 0.950 . S
H1149 C1179 0.950 . S
C1150 H1132 0.951 . S
C1150 C1151 1.366 . S
C1150 C1152 1.388 . S
C1151 C1150 1.366 . S
C1151 C1155 1.385 . S
C1152 H1133 0.951 . S
C1152 C1150 1.388 . S
C1152 C1153 1.366 . S
C1153 C1152 1.366 . S
C1153 C1154 1.414 . S
C1153 C1156 1.499 . S
C1154 H1134 0.950 . S
C1154 C1153 1.414 . S
C1154 C1155 1.374 . S
C1155 H1135 0.950 . S
C1155 C1151 1.385 . S
C1155 C1154 1.374 . S
C1156 C1153 1.499 . S
C1156 C1157 1.373 1_554 S
C1156 C1158 1.389 . S
C1157 H1136 0.950 . S
C1157 C1156 1.373 1_556 S
C1157 C1173 1.377 . S
C1158 C1156 1.389 . S
C1158 C1159 1.524 . S
C1158 C1172 1.377 . S
C1159 C1158 1.524 . S
C1159 C1160 1.397 . S
C1159 C1164 1.363 . S
C1160 H1137 0.950 . S
C1160 C1159 1.397 . S
C1160 C1161 1.334 . S
C1161 H1138 0.950 . S
C1161 C1160 1.334 . S
C1161 C1162 1.287 . S
C1162 C1161 1.287 . S
C1162 C1163 1.524 . S
C1162 H1181 0.913 . S
C1163 H1139 0.950 . S
C1163 C1162 1.524 . S
C1163 C1164 1.415 . S
C1164 H1140 0.950 . S
C1164 C1159 1.363 . S
C1164 C1163 1.415 . S
C1165 H1141 0.951 . S
C1165 C1166 1.366 . S
C1165 C1167 1.388 . S
C1166 C1165 1.366 . S
C1166 C1170 1.385 . S
C1167 H1142 0.951 . S
C1167 C1165 1.388 . S
C1167 C1168 1.366 . S
C1168 C1167 1.366 . S
C1168 C1169 1.414 . S
C1168 C1171 1.499 . S
C1169 H1143 0.950 . S
C1169 C1168 1.414 . S
C1169 C1170 1.374 . S
C1170 H1144 0.950 . S
C1170 C1166 1.385 . S
C1170 C1169 1.374 . S
C1171 C1168 1.499 . S
C1171 C1172 1.373 1_556 S
C1171 C1173 1.389 . S
C1172 H1145 0.950 . S
C1172 C1158 1.377 . S
C1172 C1171 1.373 1_554 S
C1173 C1157 1.377 . S
C1173 C1171 1.389 . S
C1173 C1174 1.524 . S
C1174 C1173 1.524 . S
C1174 C1175 1.397 . S
C1174 C1179 1.363 . S
C1175 H1146 0.950 . S
C1175 C1174 1.397 . S
C1175 C1176 1.334 . S
C1176 H1147 0.950 . S
C1176 C1175 1.334 . S
C1176 C1177 1.287 . S
C1177 C1176 1.287 . S
C1177 C1178 1.524 . S
C1177 H1180 0.999 . S
C1178 H1148 0.950 . S
C1178 C1177 1.524 . S
C1178 C1179 1.415 . S
C1179 H1149 0.950 . S
C1179 C1174 1.363 . S
C1179 C1178 1.415 . S
H1180 C1177 0.999 . S
H1181 C1162 0.913 . S
H1182 C1200 0.951 . S
H1183 C1202 0.951 . S
H1184 C1204 0.950 . S
H1185 C1205 0.950 . S
H1186 C1207 0.950 . S
H1187 C1210 0.950 . S
H1188 C1211 0.950 . S
H1189 C1213 0.950 . S
H1190 C1214 0.950 . S
H1191 C1215 0.951 . S
H1192 C1217 0.951 . S
H1193 C1219 0.950 . S
H1194 C1220 0.950 . S
H1195 C1222 0.950 . S
H1196 C1225 0.950 . S
H1197 C1226 0.950 . S
H1198 C1228 0.950 . S
H1199 C1229 0.950 . S
C1200 H1182 0.951 . S
C1200 C1201 1.366 . S
C1200 C1202 1.388 . S
C1201 C1200 1.366 . S
C1201 C1205 1.385 . S
C1202 H1183 0.951 . S
C1202 C1200 1.388 . S
C1202 C1203 1.366 . S
C1203 C1202 1.366 . S
C1203 C1204 1.414 . S
C1203 C1206 1.499 . S
C1204 H1184 0.950 . S
C1204 C1203 1.414 . S
C1204 C1205 1.374 . S
C1205 H1185 0.950 . S
C1205 C1201 1.385 . S
C1205 C1204 1.374 . S
C1206 C1203 1.499 . S
C1206 C1207 1.373 . S
C1206 C1208 1.389 1_554 S
C1207 H1186 0.950 . S
C1207 C1206 1.373 . S
C1207 C1223 1.377 . S
C1208 C1206 1.389 1_556 S
C1208 C1209 1.524 . S
C1208 C1222 1.377 . S
C1209 C1208 1.524 . S
C1209 C1210 1.397 . S
C1209 C1214 1.363 . S
C1210 H1187 0.950 . S
C1210 C1209 1.397 . S
C1210 C1211 1.334 . S
C1211 H1188 0.950 . S
C1211 C1210 1.334 . S
C1211 C1212 1.287 . S
C1212 C1211 1.287 . S
C1212 C1213 1.524 . S
C1212 H1231 0.913 . S
C1213 H1189 0.950 . S
C1213 C1212 1.524 . S
C1213 C1214 1.415 . S
C1214 H1190 0.950 . S
C1214 C1209 1.363 . S
C1214 C1213 1.415 . S
C1215 H1191 0.951 . S
C1215 C1216 1.366 . S
C1215 C1217 1.388 . S
C1216 C1215 1.366 . S
C1216 C1220 1.385 . S
C1217 H1192 0.951 . S
C1217 C1215 1.388 . S
C1217 C1218 1.366 . S
C1218 C1217 1.366 . S
C1218 C1219 1.414 . S
C1218 C1221 1.499 . S
C1219 H1193 0.950 . S
C1219 C1218 1.414 . S
C1219 C1220 1.374 . S
C1220 H1194 0.950 . S
C1220 C1216 1.385 . S
C1220 C1219 1.374 . S
C1221 C1218 1.499 . S
C1221 C1222 1.373 . S
C1221 C1223 1.389 1_556 S
C1222 H1195 0.950 . S
C1222 C1208 1.377 . S
C1222 C1221 1.373 . S
C1223 C1207 1.377 . S
C1223 C1221 1.389 1_554 S
C1223 C1224 1.524 . S
C1224 C1223 1.524 . S
C1224 C1225 1.397 . S
C1224 C1229 1.363 . S
C1225 H1196 0.950 . S
C1225 C1224 1.397 . S
C1225 C1226 1.334 . S
C1226 H1197 0.950 . S
C1226 C1225 1.334 . S
C1226 C1227 1.287 . S
C1227 C1226 1.287 . S
C1227 C1228 1.524 . S
C1227 H1230 0.999 . S
C1228 H1198 0.950 . S
C1228 C1227 1.524 . S
C1228 C1229 1.415 . S
C1229 H1199 0.950 . S
C1229 C1224 1.363 . S
C1229 C1228 1.415 . S
H1230 C1227 0.999 . S
H1231 C1212 0.913 . S
H1232 C1250 0.951 . S
H1233 C1252 0.951 . S
H1234 C1254 0.950 . S
H1235 C1255 0.950 . S
H1236 C1257 0.950 . S
H1237 C1260 0.982 . S
H1238 C1261 0.950 . S
H1239 C1263 0.950 . S
H1240 C1264 0.950 . S
H1241 C1265 0.951 . S
H1242 C1267 0.951 . S
H1243 C1269 0.950 . S
H1244 C1270 0.950 . S
H1245 C1272 0.950 . S
H1246 C1275 0.950 . S
H1247 C1276 0.950 . S
H1248 C1278 0.950 1_455 S
H1249 C1279 0.950 1_455 S
C1250 H1232 0.951 . S
C1250 C1251 1.366 . S
C1250 C1252 1.388 . S
C1251 C1250 1.366 . S
C1251 C1255 1.385 . S
C1252 H1233 0.951 . S
C1252 C1250 1.388 . S
C1252 C1253 1.366 . S
C1253 C1252 1.366 . S
C1253 C1254 1.414 . S
C1253 C1256 1.499 . S
C1254 H1234 0.950 . S
C1254 C1253 1.414 . S
C1254 C1255 1.374 . S
C1255 H1235 0.950 . S
C1255 C1251 1.385 . S
C1255 C1254 1.374 . S
C1256 C1253 1.499 . S
C1256 C1257 1.373 . S
C1256 C1258 1.389 . S
C1257 H1236 0.950 . S
C1257 C1256 1.373 . S
C1257 C1273 1.377 . S
C1258 C1256 1.389 . S
C1258 C1259 1.524 . S
C1258 C1272 1.377 . S
C1259 C1258 1.524 . S
C1259 C1260 1.397 . S
C1259 C1264 1.363 . S
C1260 H1237 0.982 . S
C1260 C1259 1.397 . S
C1260 C1261 1.334 . S
C1261 H1238 0.950 . S
C1261 C1260 1.334 . S
C1261 C1262 1.287 . S
C1262 C1261 1.287 . S
C1262 C1263 1.524 . S
C1262 H1281 0.913 . S
C1263 H1239 0.950 . S
C1263 C1262 1.524 . S
C1263 C1264 1.415 . S
C1264 H1240 0.950 . S
C1264 C1259 1.363 . S
C1264 C1263 1.415 . S
C1265 H1241 0.951 . S
C1265 C1266 1.366 1_455 S
C1265 C1267 1.388 . S
C1266 C1265 1.366 1_655 S
C1266 C1270 1.385 . S
C1267 H1242 0.951 . S
C1267 C1265 1.388 . S
C1267 C1268 1.366 1_455 S
C1268 C1267 1.366 1_655 S
C1268 C1269 1.414 . S
C1268 C1271 1.499 . S
C1269 H1243 0.950 . S
C1269 C1268 1.414 . S
C1269 C1270 1.374 . S
C1270 H1244 0.950 . S
C1270 C1266 1.385 . S
C1270 C1269 1.374 . S
C1271 C1268 1.499 . S
C1271 C1272 1.373 . S
C1271 C1273 1.389 . S
C1272 H1245 0.950 . S
C1272 C1258 1.377 . S
C1272 C1271 1.373 . S
C1273 C1257 1.377 . S
C1273 C1271 1.389 . S
C1273 C1274 1.524 . S
C1274 C1273 1.524 . S
C1274 C1275 1.397 . S
C1274 C1279 1.363 . S
C1275 H1246 0.950 . S
C1275 C1274 1.397 . S
C1275 C1276 1.334 . S
C1276 H1247 0.950 . S
C1276 C1275 1.334 . S
C1276 C1277 1.287 . S
C1277 C1276 1.287 . S
C1277 C1278 1.524 . S
C1277 H1280 0.999 . S
C1278 H1248 0.950 1_655 S
C1278 C1277 1.524 . S
C1278 C1279 1.415 . S
C1279 H1249 0.950 1_655 S
C1279 C1274 1.363 . S
C1279 C1278 1.415 . S
H1280 C1277 0.999 . S
H1281 C1262 0.913 . S
H1282 C1300 0.951 . S
H1283 C1302 0.951 . S
H1284 C1304 0.950 . S
H1285 C1305 0.950 . S
H1286 C1307 0.950 . S
H1287 C1310 0.909 1_565 S
H1288 C1311 0.950 . S
H1289 C1313 0.950 . S
H1290 C1314 0.950 . S
H1291 C1315 0.951 . S
H1292 C1317 0.951 . S
H1293 C1319 0.963 . S
H1294 C1320 0.950 . S
H1295 C1322 0.950 1_545 S
H1296 C1325 0.950 . S
H1297 C1326 0.950 . S
H1298 C1328 0.950 . S
H1299 C1329 0.950 . S
C1300 H1282 0.951 . S
C1300 C1301 1.366 . S
C1300 C1302 1.388 . S
C1301 C1300 1.366 . S
C1301 C1305 1.385 . S
C1302 H1283 0.951 . S
C1302 C1300 1.388 . S
C1302 C1303 1.366 . S
C1303 C1302 1.366 . S
C1303 C1304 1.414 . S
C1303 C1306 1.499 . S
C1304 H1284 0.950 . S
C1304 C1303 1.414 . S
C1304 C1305 1.374 . S
C1305 H1285 0.950 . S
C1305 C1301 1.385 . S
C1305 C1304 1.374 . S
C1306 C1303 1.499 . S
C1306 C1307 1.373 . S
C1306 C1308 1.389 . S
C1307 H1286 0.950 . S
C1307 C1306 1.373 . S
C1307 C1323 1.377 . S
C1308 C1306 1.389 . S
C1308 C1309 1.524 1_565 S
C1308 C1322 1.377 . S
C1309 C1308 1.524 1_545 S
C1309 C1310 1.397 . S
C1309 C1314 1.363 . S
C1310 H1287 0.909 1_545 S
C1310 C1309 1.397 . S
C1310 C1311 1.334 . S
C1311 H1288 0.950 . S
C1311 C1310 1.334 . S
C1311 C1312 1.287 . S
C1312 C1311 1.287 . S
C1312 C1313 1.524 . S
C1312 H1331 0.913 . S
C1313 H1289 0.950 . S
C1313 C1312 1.524 . S
C1313 C1314 1.415 . S
C1314 H1290 0.950 . S
C1314 C1309 1.363 . S
C1314 C1313 1.415 . S
C1315 H1291 0.951 . S
C1315 C1316 1.366 . S
C1315 C1317 1.388 . S
C1316 C1315 1.366 . S
C1316 C1320 1.385 1_565 S
C1317 H1292 0.951 . S
C1317 C1315 1.388 . S
C1317 C1318 1.366 . S
C1318 C1317 1.366 . S
C1318 C1319 1.397 1_565 S
C1318 C1321 1.499 . S
C1319 H1293 0.963 . S
C1319 C1318 1.397 1_545 S
C1319 C1320 1.379 . S
C1320 H1294 0.950 . S
C1320 C1316 1.385 1_545 S
C1320 C1319 1.379 . S
C1321 C1318 1.499 . S
C1321 C1322 1.373 . S
C1321 C1323 1.389 . S
C1322 H1295 0.950 1_565 S
C1322 C1308 1.377 . S
C1322 C1321 1.373 . S
C1323 C1307 1.377 . S
C1323 C1321 1.389 . S
C1323 C1324 1.524 . S
C1324 C1323 1.524 . S
C1324 C1325 1.397 . S
C1324 C1329 1.363 . S
C1325 H1296 0.950 . S
C1325 C1324 1.397 . S
C1325 C1326 1.334 . S
C1326 H1297 0.950 . S
C1326 C1325 1.334 . S
C1326 C1327 1.287 . S
C1327 C1326 1.287 . S
C1327 C1328 1.524 . S
C1327 H1330 0.999 . S
C1328 H1298 0.950 . S
C1328 C1327 1.524 . S
C1328 C1329 1.415 . S
C1329 H1299 0.950 . S
C1329 C1324 1.363 . S
C1329 C1328 1.415 . S
H1330 C1327 0.999 . S
H1331 C1312 0.913 . S
H1332 C1350 0.951 . S
H1333 C1352 0.951 . S
H1334 C1354 0.950 . S
H1335 C1355 0.950 . S
H1336 C1357 0.950 . S
H1337 C1360 0.950 . S
H1338 C1361 0.950 . S
H1339 C1363 0.950 . S
H1340 C1364 0.950 . S
H1341 C1365 0.951 . S
H1342 C1367 0.951 . S
H1343 C1369 0.950 . S
H1344 C1370 0.950 . S
H1345 C1372 0.950 . S
H1346 C1375 0.950 . S
H1347 C1376 0.950 . S
H1348 C1378 0.950 . S
H1349 C1379 0.950 . S
C1350 H1332 0.951 . S
C1350 C1351 1.366 . S
C1350 C1352 1.388 . S
C1351 C1350 1.366 . S
C1351 C1355 1.385 . S
C1352 H1333 0.951 . S
C1352 C1350 1.388 . S
C1352 C1353 1.366 . S
C1353 C1352 1.366 . S
C1353 C1354 1.414 . S
C1353 C1356 1.499 . S
C1354 H1334 0.950 . S
C1354 C1353 1.414 . S
C1354 C1355 1.374 . S
C1355 H1335 0.950 . S
C1355 C1351 1.385 . S
C1355 C1354 1.374 . S
C1356 C1353 1.499 . S
C1356 C1357 1.373 . S
C1356 C1358 1.389 . S
C1357 H1336 0.950 . S
C1357 C1356 1.373 . S
C1357 C1373 1.377 . S
C1358 C1356 1.389 . S
C1358 C1359 1.524 . S
C1358 C1372 1.377 . S
C1359 C1358 1.524 . S
C1359 C1360 1.397 . S
C1359 C1364 1.363 . S
C1360 H1337 0.950 . S
C1360 C1359 1.397 . S
C1360 C1361 1.334 . S
C1361 H1338 0.950 . S
C1361 C1360 1.334 . S
C1361 C1362 1.287 . S
C1362 C1361 1.287 . S
C1362 C1363 1.524 . S
C1362 H1381 0.913 . S
C1363 H1339 0.950 . S
C1363 C1362 1.524 . S
C1363 C1364 1.415 . S
C1364 H1340 0.950 . S
C1364 C1359 1.363 . S
C1364 C1363 1.415 . S
C1365 H1341 0.951 . S
C1365 C1366 1.366 . S
C1365 C1367 1.388 . S
C1366 C1365 1.366 . S
C1366 C1370 1.385 . S
C1367 H1342 0.951 . S
C1367 C1365 1.388 . S
C1367 C1368 1.366 . S
C1368 C1367 1.366 . S
C1368 C1369 1.414 . S
C1368 C1371 1.499 . S
C1369 H1343 0.950 . S
C1369 C1368 1.414 . S
C1369 C1370 1.374 . S
C1370 H1344 0.950 . S
C1370 C1366 1.385 . S
C1370 C1369 1.374 . S
C1371 C1368 1.499 . S
C1371 C1372 1.373 . S
C1371 C1373 1.389 . S
C1372 H1345 0.950 . S
C1372 C1358 1.377 . S
C1372 C1371 1.373 . S
C1373 C1357 1.377 . S
C1373 C1371 1.389 . S
C1373 C1374 1.524 . S
C1374 C1373 1.524 . S
C1374 C1375 1.397 . S
C1374 C1379 1.363 . S
C1375 H1346 0.950 . S
C1375 C1374 1.397 . S
C1375 C1376 1.334 . S
C1376 H1347 0.950 . S
C1376 C1375 1.334 . S
C1376 C1377 1.287 . S
C1377 C1376 1.287 . S
C1377 C1378 1.524 . S
C1377 H1380 0.999 . S
C1378 H1348 0.950 . S
C1378 C1377 1.524 . S
C1378 C1379 1.415 . S
C1379 H1349 0.950 . S
C1379 C1374 1.363 . S
C1379 C1378 1.415 . S
H1380 C1377 0.999 . S
H1381 C1362 0.913 . S
H1382 C1400 0.951 . S
H1383 C1402 0.951 . S
H1384 C1404 0.950 . S
H1385 C1405 0.950 . S
H1386 C1407 0.950 . S
H1387 C1410 0.950 . S
H1388 C1411 0.950 . S
H1389 C1413 0.950 . S
H1390 C1414 0.950 . S
H1391 C1415 0.951 . S
H1392 C1417 0.951 . S
H1393 C1419 0.950 . S
H1394 C1420 0.950 . S
H1395 C1422 0.950 . S
H1396 C1425 0.950 . S
H1397 C1426 0.950 . S
H1398 C1428 0.950 . S
H1399 C1429 0.950 . S
C1400 H1382 0.951 . S
C1400 C1401 1.366 . S
C1400 C1402 1.388 . S
C1401 C1400 1.366 . S
C1401 C1405 1.385 . S
C1402 H1383 0.951 . S
C1402 C1400 1.388 . S
C1402 C1403 1.366 . S
C1403 C1402 1.366 . S
C1403 C1404 1.414 . S
C1403 C1406 1.499 . S
C1404 H1384 0.950 . S
C1404 C1403 1.414 . S
C1404 C1405 1.374 . S
C1405 H1385 0.950 . S
C1405 C1401 1.385 . S
C1405 C1404 1.374 . S
C1406 C1403 1.499 . S
C1406 C1407 1.373 . S
C1406 C1408 1.389 . S
C1407 H1386 0.950 . S
C1407 C1406 1.373 . S
C1407 C1423 1.377 . S
C1408 C1406 1.389 . S
C1408 C1409 1.524 . S
C1408 C1422 1.377 . S
C1409 C1408 1.524 . S
C1409 C1410 1.397 . S
C1409 C1414 1.363 . S
C1410 H1387 0.950 . S
C1410 C1409 1.397 . S
C1410 C1411 1.334 . S
C1411 H1388 0.950 . S
C1411 C1410 1.334 . S
C1411 C1412 1.287 . S
C1412 C1411 1.287 . S
C1412 C1413 1.524 . S
C1412 H1431 0.913 . S
C1413 H1389 0.950 . S
C1413 C1412 1.524 . S
C1413 C1414 1.415 . S
C1414 H1390 0.950 . S
C1414 C1409 1.363 . S
C1414 C1413 1.415 . S
C1415 H1391 0.951 . S
C1415 C1416 1.366 . S
C1415 C1417 1.388 . S
C1416 C1415 1.366 . S
C1416 C1420 1.385 . S
C1417 H1392 0.951 . S
C1417 C1415 1.388 . S
C1417 C1418 1.366 . S
C1418 C1417 1.366 . S
C1418 C1419 1.414 . S
C1418 C1421 1.499 . S
C1419 H1393 0.950 . S
C1419 C1418 1.414 . S
C1419 C1420 1.374 . S
C1420 H1394 0.950 . S
C1420 C1416 1.385 . S
C1420 C1419 1.374 . S
C1421 C1418 1.499 . S
C1421 C1422 1.373 . S
C1421 C1423 1.389 . S
C1422 H1395 0.950 . S
C1422 C1408 1.377 . S
C1422 C1421 1.373 . S
C1423 C1407 1.377 . S
C1423 C1421 1.389 . S
C1423 C1424 1.524 . S
C1424 C1423 1.524 . S
C1424 C1425 1.397 . S
C1424 C1429 1.363 . S
C1425 H1396 0.950 . S
C1425 C1424 1.397 . S
C1425 C1426 1.334 . S
C1426 H1397 0.950 . S
C1426 C1425 1.334 . S
C1426 C1427 1.287 . S
C1427 C1426 1.287 . S
C1427 C1428 1.524 . S
C1427 H1430 0.999 . S
C1428 H1398 0.950 . S
C1428 C1427 1.524 . S
C1428 C1429 1.415 . S
C1429 H1399 0.950 . S
C1429 C1424 1.363 . S
C1429 C1428 1.415 . S
H1430 C1427 0.999 . S
H1431 C1412 0.913 . S
C251 C125 1.544 . S
C266 C153 1.686 . S
C316 C188 1.639 . S
C301 C144 1.507 . S
C366 C193 1.360 . S
C351 C87 1.273 . S
C416 C213 1.445 . S
C401 C106 1.318 . S
C466 C161 1.686 1_565 S
C451 C49 1.638 . S
C501 C68 1.610 1_556 S
C516 C178 1.639 . S
C551 C11 1.316 1_556 S
C566 C201 1.360 . S
C601 C30 1.384 . S
C616 C221 1.427 1_655 S
C666 C171 1.229 . S
C651 C97 1.200 . S
C716 C180 0.929 . S
C701 C116 0.916 . S
C766 C211 1.315 . S
C751 C135 1.288 . S
C801 C78 0.940 . S
C816 C231 0.951 . S
C851 C21 1.202 . S
C866 C160 1.229 1_655 S
C916 C191 0.930 1_565 S
C901 C40 0.918 1_556 S
C966 C200 1.314 . S
C951 C59 1.289 1_556 S
C1001 C2 0.942 1_556 S
C1016 C220 0.950 . S
C1051 C101 1.449 . S
C1066 C158 1.461 . S
C1101 C120 1.430 . S
C1116 C181 1.478 . S
C1166 C198 1.583 . S
C1151 C139 1.545 . S
C1216 C218 1.628 . S
C1201 C82 1.605 . S
C1251 C25 1.451 . S
C1266 C168 1.460 . S
C1316 C173 1.476 1_565 S
C1301 C44 1.434 . S
C1366 C208 1.584 . S
C1351 C63 1.549 . S
C1401 C6 1.608 . S
C1416 C228 1.628 . S
