# Generated by pormake.
# Topology llk, (3,12)-cn, num edge types: 1
# Building blocks:
#     Node 0, Type 0, BuildingBlock: KAKCAD_clean_linker_0, # of connection points: 3
#     Node 1, Type 0, BuildingBlock: KAKCAD_clean_linker_0, # of connection points: 3
#     Node 2, Type 0, BuildingBlock: KAKCAD_clean_linker_0, # of connection points: 3
#     Node 3, Type 0, BuildingBlock: KAKCAD_clean_linker_0, # of connection points: 3
#     Node 4, Type 0, BuildingBlock: KAKCAD_clean_linker_0, # of connection points: 3
#     Node 5, Type 0, BuildingBlock: KAKCAD_clean_linker_0, # of connection points: 3
#     Node 6, Type 0, BuildingBlock: KAKCAD_clean_linker_0, # of connection points: 3
#     Node 7, Type 0, BuildingBlock: KAKCAD_clean_linker_0, # of connection points: 3
#     Node 8, Type 0, BuildingBlock: KAKCAD_clean_linker_0, # of connection points: 3
#     Node 9, Type 0, BuildingBlock: KAKCAD_clean_linker_0, # of connection points: 3
#     Node 10, Type 0, BuildingBlock: KAKCAD_clean_linker_0, # of connection points: 3
#     Node 11, Type 0, BuildingBlock: KAKCAD_clean_linker_0, # of connection points: 3
#     Node 12, Type 0, BuildingBlock: KAKCAD_clean_linker_0, # of connection points: 3
#     Node 13, Type 0, BuildingBlock: KAKCAD_clean_linker_0, # of connection points: 3
#     Node 14, Type 0, BuildingBlock: KAKCAD_clean_linker_0, # of connection points: 3
#     Node 15, Type 0, BuildingBlock: KAKCAD_clean_linker_0, # of connection points: 3
#     Node 16, Type 0, BuildingBlock: KAKCAD_clean_linker_0, # of connection points: 3
#     Node 17, Type 0, BuildingBlock: KAKCAD_clean_linker_0, # of connection points: 3
#     Node 18, Type 0, BuildingBlock: KAKCAD_clean_linker_0, # of connection points: 3
#     Node 19, Type 0, BuildingBlock: KAKCAD_clean_linker_0, # of connection points: 3
#     Node 20, Type 0, BuildingBlock: KAKCAD_clean_linker_0, # of connection points: 3
#     Node 21, Type 0, BuildingBlock: KAKCAD_clean_linker_0, # of connection points: 3
#     Node 22, Type 0, BuildingBlock: KAKCAD_clean_linker_0, # of connection points: 3
#     Node 23, Type 0, BuildingBlock: KAKCAD_clean_linker_0, # of connection points: 3
#     Node 24, Type 1, BuildingBlock: QEWDON_clean_sbu_0, # of connection points: 12
#     Node 25, Type 1, BuildingBlock: QEWDON_clean_sbu_0, # of connection points: 12
#     Node 26, Type 1, BuildingBlock: QEWDON_clean_sbu_0, # of connection points: 12
#     Node 27, Type 1, BuildingBlock: QEWDON_clean_sbu_0, # of connection points: 12
#     Node 28, Type 1, BuildingBlock: QEWDON_clean_sbu_0, # of connection points: 12
#     Node 29, Type 1, BuildingBlock: QEWDON_clean_sbu_0, # of connection points: 12
#     Edge 30, Type (0, 1), None
#     Edge 31, Type (0, 1), None
#     Edge 32, Type (0, 1), None
#     Edge 33, Type (0, 1), None
#     Edge 34, Type (0, 1), None
#     Edge 35, Type (0, 1), None
#     Edge 36, Type (0, 1), None
#     Edge 37, Type (0, 1), None
#     Edge 38, Type (0, 1), None
#     Edge 39, Type (0, 1), None
#     Edge 40, Type (0, 1), None
#     Edge 41, Type (0, 1), None
#     Edge 42, Type (0, 1), None
#     Edge 43, Type (0, 1), None
#     Edge 44, Type (0, 1), None
#     Edge 45, Type (0, 1), None
#     Edge 46, Type (0, 1), None
#     Edge 47, Type (0, 1), None
#     Edge 48, Type (0, 1), None
#     Edge 49, Type (0, 1), None
#     Edge 50, Type (0, 1), None
#     Edge 51, Type (0, 1), None
#     Edge 52, Type (0, 1), None
#     Edge 53, Type (0, 1), None
#     Edge 54, Type (0, 1), None
#     Edge 55, Type (0, 1), None
#     Edge 56, Type (0, 1), None
#     Edge 57, Type (0, 1), None
#     Edge 58, Type (0, 1), None
#     Edge 59, Type (0, 1), None
#     Edge 60, Type (0, 1), None
#     Edge 61, Type (0, 1), None
#     Edge 62, Type (0, 1), None
#     Edge 63, Type (0, 1), None
#     Edge 64, Type (0, 1), None
#     Edge 65, Type (0, 1), None
#     Edge 66, Type (0, 1), None
#     Edge 67, Type (0, 1), None
#     Edge 68, Type (0, 1), None
#     Edge 69, Type (0, 1), None
#     Edge 70, Type (0, 1), None
#     Edge 71, Type (0, 1), None
#     Edge 72, Type (0, 1), None
#     Edge 73, Type (0, 1), None
#     Edge 74, Type (0, 1), None
#     Edge 75, Type (0, 1), None
#     Edge 76, Type (0, 1), None
#     Edge 77, Type (0, 1), None
#     Edge 78, Type (0, 1), None
#     Edge 79, Type (0, 1), None
#     Edge 80, Type (0, 1), None
#     Edge 81, Type (0, 1), None
#     Edge 82, Type (0, 1), None
#     Edge 83, Type (0, 1), None
#     Edge 84, Type (0, 1), None
#     Edge 85, Type (0, 1), None
#     Edge 86, Type (0, 1), None
#     Edge 87, Type (0, 1), None
#     Edge 88, Type (0, 1), None
#     Edge 89, Type (0, 1), None
#     Edge 90, Type (0, 1), None
#     Edge 91, Type (0, 1), None
#     Edge 92, Type (0, 1), None
#     Edge 93, Type (0, 1), None
#     Edge 94, Type (0, 1), None
#     Edge 95, Type (0, 1), None
#     Edge 96, Type (0, 1), None
#     Edge 97, Type (0, 1), None
#     Edge 98, Type (0, 1), None
#     Edge 99, Type (0, 1), None
#     Edge 100, Type (0, 1), None
#     Edge 101, Type (0, 1), None
# Relax obj value: 0.132
# Max RMSD: 0.163
# Mean RMSD: 0.147
data_MOF--net-llk--node1-QEWDON_clean_sbu_0--node2-KAKCAD_clean_linker_0--edge1-none
_symmetry_space_group_name_H-M    P1
_symmetry_Int_Tables_number       1
_symmetry_cell_setting            triclinic
loop_
_symmetry_equiv_pos_as_xyz
'x, y, z'
_cell_length_a     32.787395
_cell_length_b     33.557898
_cell_length_c     33.193208
_cell_angle_alpha  89.929118
_cell_angle_beta   90.060627
_cell_angle_gamma 89.754405
loop_
_atom_site_label
_atom_site_type_symbol
_atom_site_fract_x
_atom_site_fract_y
_atom_site_fract_z
_atom_type_partial_charge
C0 C 0.00546 0.3971 0.34777 0.0
C1 C 0.01894 0.40015 0.38768 0.0
C2 C 0.02284 0.36955 0.32191 0.0
C3 C 0.05449 0.34426 0.33503 0.0
C4 C 0.06921 0.34812 0.37464 0.0
C5 C 0.0517 0.37618 0.40079 0.0
C6 C 0.06704 0.31104 0.30835 0.0
C7 C 0.0676 0.31764 0.26685 0.0
C8 C 0.05833 0.28699 0.23992 0.0
C9 C 0.05537 0.24753 0.25446 0.0
C10 C 0.0609 0.23963 0.29617 0.0
C11 C 0.06635 0.27187 0.32272 0.0
C12 C 0.05223 0.20007 0.31459 0.0
C13 C 0.01468 0.1817 0.30711 0.0
C14 C 0.0767 0.18549 0.34644 0.0
C15 C 0.0622 0.15574 0.37249 0.0
C16 C 0.0228 0.14043 0.3673 0.0
C17 C 0.04468 0.29992 0.19924 0.0
C18 C 0.01136 0.32654 0.19699 0.0
C19 C 0.07069 0.29649 0.16589 0.0
C20 C 0.0656 0.32191 0.13254 0.0
C21 C 0.03525 0.35174 0.13276 0.0
C22 C 0.00719 0.35276 0.16448 0.0
C23 C 7e-05 0.15238 0.33328 0.0
H24 H 0.98055 0.41532 0.33656 0.0
H25 H 0.00978 0.36684 0.29206 0.0
H26 H 0.09342 0.32887 0.38557 0.0
H27 H 0.0628 0.37814 0.43146 0.0
H28 H 0.06912 0.34806 0.25576 0.0
H29 H 0.06503 0.26675 0.35495 0.0
H30 H 0.04704 0.22372 0.23407 0.0
H31 H -0.00506 0.1924 0.28321 0.0
H32 H 0.10585 0.19917 0.35291 0.0
H33 H 0.08049 0.14699 0.39822 0.0
H34 H 0.99103 0.32999 0.22249 0.0
H35 H 0.09695 0.27683 0.1671 0.0
H36 H 0.96979 0.14063 0.32806 0.0
H37 H 0.98346 0.37532 0.16522 0.0
H38 H 0.08766 0.32062 0.10835 0.0
C39 C 0.61292 0.06393 0.30341 0.0
C40 C 0.6013 0.02828 0.32245 0.0
C41 C 0.64309 0.06332 0.27399 0.0
C42 C 0.66097 0.02709 0.26279 0.0
C43 C 0.64526 0.99115 0.27726 0.0
C44 C 0.61531 0.9917 0.30697 0.0
C45 C 0.70073 0.02736 0.24314 0.0
C46 C 0.73516 0.03637 0.26568 0.0
C47 C 0.77374 0.03706 0.24768 0.0
C48 C 0.77756 0.02974 0.206 0.0
C49 C 0.7426 0.02078 0.18328 0.0
C50 C 0.7044 0.01882 0.20259 0.0
C51 C 0.74239 0.01982 0.13884 0.0
C52 C 0.73235 0.05706 0.12224 0.0
C53 C 0.72304 0.98627 0.12228 0.0
C54 C 0.6837 0.99104 0.10649 0.0
C55 C 0.66691 0.02952 0.10353 0.0
C56 C 0.80927 0.04129 0.27438 0.0
C57 C 0.80898 0.07017 0.30509 0.0
C58 C 0.83897 0.01129 0.27479 0.0
C59 C 0.86631 0.00862 0.30675 0.0
C60 C 0.86457 0.03603 0.33886 0.0
C61 C 0.83637 0.06753 0.33717 0.0
C62 C 0.69302 0.06245 0.10686 0.0
H63 H 0.60223 0.09259 0.3142 0.0
H64 H 0.65497 0.09125 0.26265 0.0
H65 H 0.65883 0.96297 0.26848 0.0
H66 H 0.6063 0.96371 0.32056 0.0
H67 H 0.73189 0.04146 0.29781 0.0
H68 H 0.67685 0.01257 0.18582 0.0
H69 H 0.8071 0.03132 0.1915 0.0
H70 H 0.74904 0.08333 0.1315 0.0
H71 H 0.73217 0.95672 0.13204 0.0
H72 H 0.66434 0.96508 0.10466 0.0
H73 H 0.7862 0.09367 0.30523 0.0
H74 H 0.83938 0.98838 0.25181 0.0
H75 H 0.68116 0.09249 0.10396 0.0
H76 H 0.83498 0.08966 0.36086 0.0
H77 H 0.88816 0.98431 0.30668 0.0
C78 C 0.00972 0.68258 0.40062 0.0
C79 C 0.02752 0.64468 0.39704 0.0
C80 C 0.01672 0.7115 0.37156 0.0
C81 C 0.04201 0.70313 0.33848 0.0
C82 C 0.06443 0.66717 0.3382 0.0
C83 C 0.05706 0.63792 0.36734 0.0
C84 C 0.03842 0.72813 0.30173 0.0
C85 C 0.03123 0.76908 0.30468 0.0
C86 C 0.01914 0.79155 0.27104 0.0
C87 C 0.01591 0.773 0.23304 0.0
C88 C 0.02461 0.73187 0.2295 0.0
C89 C 0.0355 0.71001 0.26395 0.0
C90 C 0.02 0.70908 0.19156 0.0
C91 C 0.9814 0.70444 0.17387 0.0
C92 C 0.05199 0.68379 0.17944 0.0
C93 C 0.0448 0.65229 0.15301 0.0
C94 C 0.00556 0.64568 0.13747 0.0
C95 C 0.01233 0.83458 0.27792 0.0
C96 C 0.98157 0.8463 0.30515 0.0
C97 C 0.04505 0.86036 0.27096 0.0
C98 C 0.05039 0.89379 0.29542 0.0
C99 C 0.02275 0.90225 0.32668 0.0
C100 C 0.98667 0.88014 0.32936 0.0
C101 C 0.97428 0.67307 0.14685 0.0
H102 H 0.98714 0.68855 0.4237 0.0
H103 H -0.00114 0.73867 0.37304 0.0
H104 H 0.08506 0.66033 0.31367 0.0
H105 H 0.07118 0.60888 0.36412 0.0
H106 H 0.03431 0.78367 0.33367 0.0
H107 H 0.03925 0.67798 0.26151 0.0
H108 H 0.00684 0.79016 0.20683 0.0
H109 H 0.95609 0.7231 0.18321 0.0
H110 H 0.08202 0.68667 0.19278 0.0
H111 H 0.06983 0.63241 0.14567 0.0
H112 H 0.95633 0.8265 0.31142 0.0
H113 H 0.06936 0.85177 0.25062 0.0
H114 H 0.94376 0.66899 0.13514 0.0
H115 H 0.96502 0.88592 0.35332 0.0
H116 H 0.07837 0.91059 0.29263 0.0
C117 C 0.37697 0.04656 0.34757 0.0
C118 C 0.3651 0.02344 0.38066 0.0
C119 C 0.35466 0.04521 0.31188 0.0
C120 C 0.3203 0.02055 0.30888 0.0
C121 C 0.31035 0.99531 0.34134 0.0
C122 C 0.33242 0.99709 0.37725 0.0
C123 C 0.29254 0.02439 0.27392 0.0
C124 C 0.30758 0.02911 0.23487 0.0
C125 C 0.28089 0.03438 0.20206 0.0
C126 C 0.23855 0.03501 0.20831 0.0
C127 C 0.22356 0.03103 0.24764 0.0
C128 C 0.25049 0.02557 0.27997 0.0
C129 C 0.18021 0.03339 0.2578 0.0
C130 C 0.16603 0.06956 0.27376 0.0
C131 C 0.16082 0.99781 0.26856 0.0
C132 C 0.13238 0.99768 0.29974 0.0
C133 C 0.12318 0.03319 0.32041 0.0
C134 C 0.29908 0.03348 0.16172 0.0
C135 C 0.32849 0.06239 0.15231 0.0
C136 C 0.3008 0.99627 0.14273 0.0
C137 C 0.33601 0.98513 0.12211 0.0
C138 C 0.36878 0.01168 0.11918 0.0
C139 C 0.36342 0.05148 0.13088 0.0
C140 C 0.13774 0.06948 0.30513 0.0
H141 H 0.40209 0.06731 0.35013 0.0
H142 H 0.36287 0.06524 0.28762 0.0
H143 H 0.28451 0.97539 0.33952 0.0
H144 H 0.32311 0.97906 0.40271 0.0
H145 H 0.34021 0.02734 0.22969 0.0
H146 H 0.23837 0.02331 0.3103 0.0
H147 H 0.21775 0.03836 0.18313 0.0
H148 H 0.18102 0.09726 0.26606 0.0
H149 H 0.1718 0.96956 0.25696 0.0
H150 H 0.12111 0.96926 0.3103 0.0
H151 H 0.32765 0.09126 0.16689 0.0
H152 H 0.27843 0.97359 0.14968 0.0
H153 H 0.13035 0.09742 0.31978 0.0
H154 H 0.38841 0.07242 0.1289 0.0
H155 H 0.33965 0.95434 0.11311 0.0
C156 C 0.96081 0.64995 0.65359 0.0
C157 C 0.98942 0.6556 0.62285 0.0
C158 C 0.95504 0.67983 0.68229 0.0
C159 C 0.97803 0.71515 0.6802 0.0
C160 C 0.00041 0.72325 0.64514 0.0
C161 C 0.00588 0.6936 0.61648 0.0
C162 C 0.98646 0.73853 0.717 0.0
C163 C 0.99377 0.71878 0.75339 0.0
C164 C 0.0063 0.73951 0.78778 0.0
C165 C 0.01235 0.78099 0.78579 0.0
C166 C 0.00613 0.80093 0.74884 0.0
C167 C 0.99263 0.77958 0.71505 0.0
C168 C 0.00868 0.84453 0.74427 0.0
C169 C 0.97677 0.8676 0.75988 0.0
C170 C 0.03271 0.86015 0.71288 0.0
C171 C 0.02087 0.89522 0.69318 0.0
C172 C 0.9849 0.91477 0.70483 0.0
C173 C 0.00973 0.71599 0.82517 0.0
C174 C 0.97377 0.6994 0.84026 0.0
C175 C 0.04751 0.69995 0.83734 0.0
C176 C 0.04899 0.6661 0.86239 0.0
C177 C 0.01263 0.64737 0.87429 0.0
C178 C 0.97516 0.66526 0.86393 0.0
C179 C 0.96485 0.90249 0.74016 0.0
H180 H 0.94736 0.62094 0.65866 0.0
H181 H 0.93627 0.67352 0.70835 0.0
H182 H 0.01806 0.75029 0.64217 0.0
H183 H 0.02751 0.69868 0.59234 0.0
H184 H 0.99046 0.68667 0.75507 0.0
H185 H 0.98649 0.79521 0.68705 0.0
H186 H 0.02115 0.79745 0.81245 0.0
H187 H 0.95771 0.85608 0.78383 0.0
H188 H 0.05741 0.8426 0.7003 0.0
H189 H 0.03716 0.90433 0.66635 0.0
H190 H 0.94431 0.71072 0.8306 0.0
H191 H 0.07562 0.7118 0.82521 0.0
H192 H 0.93752 0.91769 0.75034 0.0
H193 H 0.94648 0.65207 0.87288 0.0
H194 H 0.0783 0.65338 0.87046 0.0
C195 C 0.42033 0.96066 0.68356 0.0
C196 C 0.40906 0.99299 0.65922 0.0
C197 C 0.39066 0.94105 0.70628 0.0
C198 C 0.34976 0.95386 0.70458 0.0
C199 C 0.33877 0.98451 0.67756 0.0
C200 C 0.36821 0.00385 0.65514 0.0
C201 C 0.32051 0.94345 0.73667 0.0
C202 C 0.33279 0.94864 0.77659 0.0
C203 C 0.30492 0.96169 0.80582 0.0
C204 C 0.26406 0.96878 0.79481 0.0
C205 C 0.25123 0.95974 0.7555 0.0
C206 C 0.27896 0.94412 0.7277 0.0
C207 C 0.2129 0.97491 0.73863 0.0
C208 C 0.1803 0.94878 0.73349 0.0
C209 C 0.21394 0.01073 0.71662 0.0
C210 C 0.18395 0.01914 0.68791 0.0
C211 C 0.15234 0.99193 0.68111 0.0
C212 C 0.32234 0.97632 0.84389 0.0
C213 C 0.34926 0.95155 0.86531 0.0
C214 C 0.32161 0.0173 0.85214 0.0
C215 C 0.34981 0.03362 0.879 0.0
C216 C 0.37906 0.00916 0.89798 0.0
C217 C 0.37749 0.96788 0.89185 0.0
C218 C 0.15006 0.95736 0.70522 0.0
H219 H 0.45201 0.95167 0.68612 0.0
H220 H 0.39993 0.9176 0.72684 0.0
H221 H 0.3079 0.99602 0.67597 0.0
H222 H 0.3593 0.02853 0.63588 0.0
H223 H 0.3651 0.94874 0.78371 0.0
H224 H 0.26929 0.93975 0.69671 0.0
H225 H 0.24322 0.98292 0.81577 0.0
H226 H 0.1797 0.92053 0.74933 0.0
H227 H 0.23967 0.03071 0.71951 0.0
H228 H 0.18608 0.04634 0.67043 0.0
H229 H 0.35072 0.91991 0.85892 0.0
H230 H 0.3016 0.0371 0.83543 0.0
H231 H 0.12579 0.93593 0.70111 0.0
H232 H 0.39938 0.94825 0.90561 0.0
H233 H 0.34968 0.06556 0.88369 0.0
C234 C 0.0095 0.38421 0.605 0.0
C235 C 0.04967 0.39861 0.60812 0.0
C236 C -0.00537 0.35697 0.63333 0.0
C237 C 0.01955 0.34467 0.6654 0.0
C238 C 0.05983 0.35819 0.66783 0.0
C239 C 0.07486 0.38463 0.63936 0.0
C240 C 0.00509 0.31675 0.69627 0.0
C241 C -0.00368 0.27764 0.68575 0.0
C242 C -0.00565 0.24763 0.71523 0.0
C243 C 0.00021 0.25788 0.75631 0.0
C244 C 0.00765 0.29801 0.76711 0.0
C245 C 0.00889 0.32703 0.7367 0.0
C246 C 0.01651 0.31146 0.80898 0.0
C247 C 0.9889 0.30445 0.8405 0.0
C248 C 0.04846 0.33879 0.81533 0.0
C249 C 0.04941 0.36258 0.84977 0.0
C250 C 0.01958 0.35825 0.87947 0.0
C251 C -0.00543 0.20588 0.70031 0.0
C252 C 0.96869 0.19519 0.66818 0.0
C253 C 0.02787 0.18112 0.70941 0.0
C254 C 0.03767 0.14908 0.68423 0.0
C255 C 0.01436 0.14108 0.64947 0.0
C256 C 0.97877 0.16342 0.64272 0.0
C257 C 0.99071 0.32751 0.87576 0.0
H258 H 0.98939 0.39459 0.58126 0.0
H259 H 0.96358 0.34633 0.63085 0.0
H260 H 0.07972 0.34836 0.69202 0.0
H261 H 0.10584 0.39519 0.64281 0.0
H262 H -0.00464 0.26993 0.65403 0.0
H263 H 0.01518 0.35786 0.74421 0.0
H264 H 0.00062 0.23483 0.7792 0.0
H265 H 0.96403 0.28367 0.83656 0.0
H266 H 0.07079 0.34423 0.79193 0.0
H267 H 0.07226 0.38569 0.85227 0.0
H268 H 0.9428 0.21386 0.66041 0.0
H269 H 0.04864 0.18874 0.73359 0.0
H270 H 0.96741 0.3236 0.89852 0.0
H271 H 0.96031 0.15834 0.61628 0.0
H272 H 0.06505 0.13204 0.6907 0.0
C273 C 0.6988 0.00678 0.65204 0.0
C274 C 0.68622 0.04138 0.63142 0.0
C275 C 0.72221 0.00986 0.68699 0.0
C276 C 0.73337 0.04745 0.70132 0.0
C277 C 0.72351 0.08173 0.67942 0.0
C278 C 0.70023 0.07877 0.64456 0.0
C279 C 0.75427 0.05145 0.73985 0.0
C280 C 0.79613 0.05631 0.74058 0.0
C281 C 0.8167 0.06256 0.77704 0.0
C282 C 0.79486 0.06285 0.81354 0.0
C283 C 0.75208 0.05825 0.81252 0.0
C284 C 0.73217 0.05269 0.77554 0.0
C285 C 0.72689 0.05483 0.84895 0.0
C286 C 0.728 0.01883 0.87024 0.0
C287 C 0.69345 0.08079 0.854 0.0
C288 C 0.65977 0.06907 0.8769 0.0
C289 C 0.65911 0.03107 0.89439 0.0
C290 C 0.86079 0.06927 0.77356 0.0
C291 C 0.88461 0.03519 0.76648 0.0
C292 C 0.87185 0.10511 0.75462 0.0
C293 C 0.89779 0.10423 0.72124 0.0
C294 C 0.91447 0.06786 0.70826 0.0
C295 C 0.91136 0.03445 0.73376 0.0
C296 C 0.69419 0.00688 0.89255 0.0
H297 H 0.68868 0.97757 0.64256 0.0
H298 H 0.73033 0.98314 0.70358 0.0
H299 H 0.7324 0.11089 0.69026 0.0
H300 H 0.69107 0.10604 0.62951 0.0
H301 H 0.81286 0.05581 0.71235 0.0
H302 H 0.69935 0.04865 0.77456 0.0
H303 H 0.81064 0.06675 0.84194 0.0
H304 H 0.75317 0.99817 0.86629 0.0
H305 H 0.69187 0.1085 0.83727 0.0
H306 H 0.63326 0.08837 0.87841 0.0
H307 H 0.87724 0.0073 0.78122 0.0
H308 H 0.85436 0.13201 0.76017 0.0
H309 H 0.69472 0.97779 0.9068 0.0
H310 H 0.9257 0.00647 0.72597 0.0
H311 H 0.90109 0.131 0.70328 0.0
C312 C 0.36262 0.3718 0.9764 0.0
C313 C 0.36503 0.39718 0.00992 0.0
C314 C 0.33233 0.34299 0.97449 0.0
C315 C 0.30378 0.33989 0.00566 0.0
C316 C 0.30518 0.36608 0.03842 0.0
C317 C 0.33591 0.3944 0.04074 0.0
C318 C 0.27353 0.30815 0.00498 0.0
C319 C 0.28608 0.26864 0.00438 0.0
C320 C 0.25753 0.23777 0.00526 0.0
C321 C 0.2154 0.24676 0.00617 0.0
C322 C 0.20296 0.28712 0.00654 0.0
C323 C 0.2323 0.31734 0.00615 0.0
C324 C 0.16027 0.30087 0.00608 0.0
C325 C 0.14227 0.30803 0.96836 0.0
C326 C 0.14749 0.32364 0.03924 0.0
C327 C 0.1234 0.35753 0.0334 0.0
C328 C 0.10987 0.36801 0.99461 0.0
C329 C 0.27477 0.19724 0.00591 0.0
C330 C 0.29627 0.18484 0.97158 0.0
C331 C 0.28432 0.18002 0.04337 0.0
C332 C 0.31758 0.15387 0.04702 0.0
C333 C 0.34207 0.14537 0.01335 0.0
C334 C 0.32988 0.1595 0.97531 0.0
C335 C 0.11707 0.34138 0.96266 0.0
H336 H 0.3849 0.37328 0.95236 0.0
H337 H 0.33138 0.32289 0.94899 0.0
H338 H 0.28328 0.36378 0.06274 0.0
H339 H 0.33712 0.4138 0.06678 0.0
H340 H 0.31849 0.2618 0.00411 0.0
H341 H 0.22293 0.34843 0.00621 0.0
H342 H 0.19302 0.22312 0.00656 0.0
H343 H 0.15208 0.29124 0.94222 0.0
H344 H 0.16153 0.31909 0.06849 0.0
H345 H 0.11894 0.37743 0.05868 0.0
H346 H 0.28998 0.19836 0.94254 0.0
H347 H 0.26881 0.18993 0.07038 0.0
H348 H 0.10658 0.34828 0.93248 0.0
H349 H 0.34742 0.15243 0.94858 0.0
H350 H 0.32582 0.14268 0.07657 0.0
C351 C 0.34355 0.68372 0.05997 0.0
C352 C 0.35263 0.66003 0.02622 0.0
C353 C 0.30878 0.70766 0.06015 0.0
C354 C 0.28225 0.70748 0.0271 0.0
C355 C 0.28957 0.68181 0.99465 0.0
C356 C 0.32477 0.65834 0.99407 0.0
C357 C 0.25048 0.73806 0.0239 0.0
C358 C 0.26188 0.7775 0.01812 0.0
C359 C 0.23257 0.8075 0.01303 0.0
C360 C 0.19064 0.79766 0.01435 0.0
C361 C 0.17914 0.75748 0.02081 0.0
C362 C 0.20942 0.72804 0.02507 0.0
C363 C 0.13652 0.74309 0.02061 0.0
C364 C 0.12138 0.7252 0.05595 0.0
C365 C 0.11969 0.73198 0.98345 0.0
C366 C 0.0936 0.69914 0.98111 0.0
C367 C 0.08365 0.6773 0.01591 0.0
C368 C 0.24885 0.84824 0.00792 0.0
C369 C 0.26004 0.86899 0.04285 0.0
C370 C 0.26843 0.85772 0.97146 0.0
C371 C 0.30191 0.88363 0.97097 0.0
C372 C 0.31658 0.90018 0.00708 0.0
C373 C 0.29362 0.8946 0.04249 0.0
C374 C 0.09507 0.69242 0.05362 0.0
H375 H 0.36446 0.68562 0.08518 0.0
H376 H 0.30348 0.7276 0.08528 0.0
H377 H 0.26936 0.68167 0.9688 0.0
H378 H 0.33092 0.64009 0.96785 0.0
H379 H 0.29409 0.7849 0.01718 0.0
H380 H 0.20097 0.69703 0.02898 0.0
H381 H 0.16762 0.82058 0.01044 0.0
H382 H 0.13448 0.73275 0.08493 0.0
H383 H 0.13134 0.74469 0.95575 0.0
H384 H 0.08549 0.6878 0.95161 0.0
H385 H 0.24611 0.86164 0.07149 0.0
H386 H 0.26098 0.84147 0.94426 0.0
H387 H 0.08855 0.67574 0.08077 0.0
H388 H 0.30351 0.90734 0.07077 0.0
H389 H 0.31847 0.88763 0.94304 0.0
C390 C 0.70361 0.38353 0.97344 0.0
C391 C 0.68049 0.38234 0.00902 0.0
C392 C 0.73727 0.35844 0.96908 0.0
C393 C 0.74752 0.33189 5e-05 0.0
C394 C 0.72615 0.33235 0.03641 0.0
C395 C 0.69304 0.35774 0.04108 0.0
C396 C 0.77954 0.30237 0.99423 0.0
C397 C 0.81994 0.31363 0.99691 0.0
C398 C 0.85117 0.28516 0.99455 0.0
C399 C 0.84149 0.2445 0.98941 0.0
C400 C 0.8001 0.23341 0.98583 0.0
C401 C 0.76953 0.26258 0.98861 0.0
C402 C 0.78583 0.19198 0.98193 0.0
C403 C 0.76448 0.18155 0.94676 0.0
C404 C 0.7788 0.17034 0.01736 0.0
C405 C 0.74705 0.14269 0.01904 0.0
C406 C 0.72174 0.13642 0.98528 0.0
C407 C 0.89272 0.30104 -0.00185 0.0
C408 C 0.90509 0.32679 0.96722 0.0
C409 C 0.90852 0.30661 0.03709 0.0
C410 C 0.93139 0.34066 0.04605 0.0
C411 C 0.93816 0.36971 0.01624 0.0
C412 C 0.92634 0.36147 0.97639 0.0
C413 C 0.73266 0.15394 0.94838 0.0
H414 H 0.69477 0.40255 0.94849 0.0
H415 H 0.75417 0.35849 0.94104 0.0
H416 H 0.73435 0.31218 0.06066 0.0
H417 H 0.67594 0.35629 0.06895 0.0
H418 H 0.82715 0.34485 0.00172 0.0
H419 H 0.73762 0.25416 0.98718 0.0
H420 H 0.86542 0.2222 0.98806 0.0
H421 H 0.76899 0.19835 0.91923 0.0
H422 H 0.79435 0.17833 0.045 0.0
H423 H 0.74007 0.12912 0.04783 0.0
H424 H 0.89251 0.32362 0.93718 0.0
H425 H 0.8987 0.28759 0.0616 0.0
H426 H 0.71431 0.14931 0.92164 0.0
H427 H 0.9302 0.38337 0.95272 0.0
H428 H 0.94035 0.34597 0.077 0.0
C429 C 0.70059 0.64858 0.03649 0.0
C430 C 0.66873 0.64934 0.00818 0.0
C431 C 0.73268 0.67563 0.03336 0.0
C432 C 0.73292 0.7039 0.00219 0.0
C433 C 0.7017 0.70404 0.97342 0.0
C434 C 0.66997 0.67697 0.97628 0.0
C435 C 0.76409 0.73508 0.00085 0.0
C436 C 0.80534 0.72555 0.00197 0.0
C437 C 0.83502 0.75555 0.00025 0.0
C438 C 0.82298 0.79594 0.99768 0.0
C439 C 0.78096 0.80529 0.99658 0.0
C440 C 0.75213 0.77476 -0.00177 0.0
C441 C 0.76393 0.84589 0.99486 0.0
C442 C 0.75474 0.86479 0.03146 0.0
C443 C 0.7415 0.8562 0.96027 0.0
C444 C 0.70716 0.88076 0.96328 0.0
C445 C 0.69525 0.89619 0.00078 0.0
C446 C 0.87769 0.74164 0.0011 0.0
C447 C 0.89128 0.7247 0.03744 0.0
C448 C 0.89445 0.7278 0.96472 0.0
C449 C 0.91835 0.69307 0.9643 0.0
C450 C 0.9255 0.67212 0.0002 0.0
C451 C 0.91432 0.68961 0.03694 0.0
C452 C 0.72076 0.89002 0.03436 0.0
H453 H 0.70046 0.62757 0.06128 0.0
H454 H 0.75654 0.67535 0.05596 0.0
H455 H 0.70156 0.72553 0.949 0.0
H456 H 0.64597 0.67841 0.95386 0.0
H457 H 0.81451 0.69446 0.00363 0.0
H458 H 0.71983 0.78208 -0.00193 0.0
H459 H 0.84559 0.81936 0.99657 0.0
H460 H 0.771 0.85662 0.0587 0.0
H461 H 0.74759 0.84141 0.93188 0.0
H462 H 0.68892 0.88616 0.93657 0.0
H463 H 0.87838 0.7345 0.06582 0.0
H464 H 0.88395 0.73998 0.93628 0.0
H465 H 0.7129 0.90237 0.06349 0.0
H466 H 0.91941 0.67388 0.06499 0.0
H467 H 0.92639 0.67994 0.93567 0.0
C468 C 0.50357 0.9093 0.84656 0.0
C469 C 0.52394 0.90406 0.88332 0.0
C470 C 0.51369 0.88587 0.81363 0.0
C471 C 0.54402 0.85645 0.81718 0.0
C472 C 0.56712 0.85388 0.85284 0.0
C473 C 0.55731 0.87794 0.88581 0.0
C474 C 0.54571 0.82464 0.78665 0.0
C475 C 0.54271 0.83401 0.74588 0.0
C476 C 0.53508 0.8045 0.717 0.0
C477 C 0.53157 0.76422 0.72938 0.0
C478 C 0.53557 0.75457 0.77076 0.0
C479 C 0.54289 0.78496 0.79873 0.0
C480 C 0.52945 0.71432 0.78814 0.0
C481 C 0.49003 0.70352 0.80061 0.0
C482 C 0.56309 0.69565 0.80655 0.0
C483 C 0.5577 0.67085 0.84005 0.0
C484 C 0.5185 0.66396 0.85569 0.0
C485 C 0.53188 0.81848 0.67469 0.0
C486 C 0.50387 0.84924 0.66577 0.0
C487 C 0.56488 0.8123 0.64858 0.0
C488 C 0.57273 0.83953 0.61747 0.0
C489 C 0.54796 0.87362 0.61236 0.0
C490 C 0.512 0.87677 0.63513 0.0
C491 C 0.48456 0.67831 0.83398 0.0
H492 H 0.47791 0.92965 0.84409 0.0
H493 H 0.49521 0.88837 0.78666 0.0
H494 H 0.59088 0.83155 0.85603 0.0
H495 H 0.57334 0.87366 0.91405 0.0
H496 H 0.5453 0.86494 0.73663 0.0
H497 H 0.54377 0.77777 0.83062 0.0
H498 H 0.52534 0.74112 0.70749 0.0
H499 H 0.46359 0.71813 0.78757 0.0
H500 H 0.5938 0.70399 0.79805 0.0
H501 H 0.5845 0.65961 0.85552 0.0
H502 H 0.47824 0.85479 0.68562 0.0
H503 H 0.58713 0.78918 0.65498 0.0
H504 H 0.45391 0.67316 0.84489 0.0
H505 H 0.4918 0.90217 0.63146 0.0
H506 H 0.60036 0.83579 0.6 0.0
C507 C 0.20334 0.57232 0.87178 0.0
C508 C 0.17513 0.54153 0.86554 0.0
C509 C 0.23578 0.57731 0.84547 0.0
C510 C 0.24009 0.55193 0.81236 0.0
C511 C 0.21181 0.5214 0.8057 0.0
C512 C 0.17959 0.51603 0.83235 0.0
C513 C 0.27414 0.55744 0.78465 0.0
C514 C 0.31394 0.55718 0.79896 0.0
C515 C 0.3471 0.56079 0.77256 0.0
C516 C 0.33961 0.56489 0.7306 0.0
C517 C 0.29877 0.56678 0.71657 0.0
C518 C 0.26667 0.56241 0.74389 0.0
C519 C 0.28597 0.57089 0.67406 0.0
C520 C 0.26296 0.60503 0.66398 0.0
C521 C 0.27858 0.53556 0.65283 0.0
C522 C 0.24461 0.53264 0.62746 0.0
C523 C 0.21742 0.56498 0.62279 0.0
C524 C 0.38811 0.55647 0.79118 0.0
C525 C 0.39684 0.57907 0.82589 0.0
C526 C 0.41113 0.52191 0.78384 0.0
C527 C 0.43861 0.5077 0.81303 0.0
C528 C 0.44283 0.52744 0.85028 0.0
C529 C 0.42329 0.56432 0.8555 0.0
C530 C 0.22861 0.60201 0.63898 0.0
H531 H 0.20068 0.59233 0.89725 0.0
H532 H 0.25733 0.60115 0.85074 0.0
H533 H 0.21498 0.50151 0.78019 0.0
H534 H 0.15815 0.49216 0.82687 0.0
H535 H 0.3191 0.55247 0.83092 0.0
H536 H 0.23532 0.56275 0.73324 0.0
H537 H 0.36475 0.56681 0.70958 0.0
H538 H 0.26776 0.63261 0.68022 0.0
H539 H 0.29536 0.50865 0.66031 0.0
H540 H 0.23772 0.50386 0.61488 0.0
H541 H 0.37938 0.6058 0.83237 0.0
H542 H 0.40471 0.50362 0.75774 0.0
H543 H 0.20907 0.62784 0.63519 0.0
H544 H 0.42612 0.58039 0.88362 0.0
H545 H 0.45348 0.47927 0.80792 0.0
C546 C 0.46377 0.16353 0.89699 0.0
C547 C 0.49854 0.14043 0.88877 0.0
C548 C 0.44597 0.18632 0.86628 0.0
C549 C 0.46253 0.1854 0.82724 0.0
C550 C 0.49484 0.15904 0.81874 0.0
C551 C 0.51275 0.13696 0.84926 0.0
C552 C 0.45331 0.21685 0.79745 0.0
C553 C 0.45695 0.25655 0.80899 0.0
C554 C 0.46652 0.28613 0.78074 0.0
C555 C 0.47214 0.2754 0.73979 0.0
C556 C 0.46503 0.23551 0.72744 0.0
C557 C 0.45393 0.20729 0.75668 0.0
C558 C 0.4761 0.21921 0.68698 0.0
C559 C 0.45289 0.1876 0.67118 0.0
C560 C 0.51492 0.22611 0.67053 0.0
C561 C 0.53144 0.19964 0.64199 0.0
C562 C 0.50997 0.16516 0.63021 0.0
C563 C 0.47656 0.32567 0.79797 0.0
C564 C 0.44566 0.3464 0.81863 0.0
C565 C 0.51742 0.3341 0.80737 0.0
C566 C 0.52703 0.35926 0.83979 0.0
C567 C 0.49588 0.37619 0.86353 0.0
C568 C 0.45519 0.37133 0.85108 0.0
C569 C 0.47031 0.16001 0.64483 0.0
H570 H 0.45241 0.16635 0.92749 0.0
H571 H 0.42113 0.20644 0.87351 0.0
H572 H 0.50888 0.15801 0.78922 0.0
H573 H 0.5393 0.11886 0.84232 0.0
H574 H 0.45716 0.26394 0.84082 0.0
H575 H 0.45137 0.17608 0.74863 0.0
H576 H 0.48255 0.29739 0.71826 0.0
H577 H 0.42275 0.18144 0.68296 0.0
H578 H 0.53387 0.24984 0.68212 0.0
H579 H 0.56212 0.20485 0.63121 0.0
H580 H 0.41391 0.33993 0.8125 0.0
H581 H 0.54181 0.31792 0.79256 0.0
H582 H 0.45364 0.13325 0.63852 0.0
H583 H 0.43042 0.38457 0.86806 0.0
H584 H 0.55875 0.36293 0.84807 0.0
C585 C 0.83301 0.53694 0.90814 0.0
C586 C 0.85597 0.50243 0.91661 0.0
C587 C 0.79945 0.53491 0.88251 0.0
C588 C 0.78819 0.49839 0.86562 0.0
C589 C 0.80814 0.46333 0.87733 0.0
C590 C 0.8418 0.46527 0.90297 0.0
C591 C 0.76176 0.49839 0.83018 0.0
C592 C 0.77898 0.50596 0.79267 0.0
C593 C 0.75446 0.51074 0.75848 0.0
C594 C 0.71167 0.50751 0.76209 0.0
C595 C 0.6943 0.49935 0.80016 0.0
C596 C 0.71979 0.49469 0.83392 0.0
C597 C 0.65006 0.50141 0.80825 0.0
C598 C 0.63143 0.53909 0.80897 0.0
C599 C 0.63199 0.47 0.82978 0.0
C600 C 0.60061 0.47778 0.85717 0.0
C601 C 0.58679 0.51702 0.86309 0.0
C602 C 0.77555 0.51905 0.72008 0.0
C603 C 0.80278 0.55128 0.71802 0.0
C604 C 0.77638 0.49015 0.6897 0.0
C605 C 0.80559 0.4922 0.65905 0.0
C606 C 0.83464 0.5231 0.65842 0.0
C607 C 0.83208 0.55327 0.68757 0.0
C608 C 0.59989 0.54687 0.83622 0.0
H609 H 0.84296 0.566 0.91826 0.0
H610 H 0.7843 0.56224 0.87335 0.0
H611 H 0.79967 0.43496 0.86426 0.0
H612 H 0.85859 0.4381 0.90934 0.0
H613 H 0.81187 0.50875 0.79026 0.0
H614 H 0.70682 0.49025 0.86365 0.0
H615 H 0.69226 0.51218 0.73605 0.0
H616 H 0.64483 0.5638 0.79271 0.0
H617 H 0.6459 0.44065 0.82964 0.0
H618 H 0.59074 0.45394 0.87678 0.0
H619 H 0.80287 0.57376 0.74143 0.0
H620 H 0.75628 0.46465 0.69112 0.0
H621 H 0.5891 0.57727 0.83928 0.0
H622 H 0.85329 0.57793 0.68746 0.0
H623 H 0.80635 0.46867 0.63675 0.0
C624 C 0.50193 0.13014 0.15894 0.0
C625 C 0.53395 0.14332 0.13422 0.0
C626 C 0.48491 0.15585 0.18751 0.0
C627 C 0.49919 0.19506 0.19072 0.0
C628 C 0.53016 0.20839 0.16493 0.0
C629 C 0.54745 0.18275 0.13708 0.0
C630 C 0.486 0.22157 0.22337 0.0
C631 C 0.49178 0.20987 0.26319 0.0
C632 C 0.49275 0.23812 0.29433 0.0
C633 C 0.48797 0.27914 0.28471 0.0
C634 C 0.48049 0.29064 0.24422 0.0
C635 C 0.47763 0.26126 0.21455 0.0
C636 C 0.48581 0.33152 0.22815 0.0
C637 C 0.45391 0.34848 0.20514 0.0
C638 C 0.52599 0.3428 0.21937 0.0
C639 C 0.53453 0.36477 0.18459 0.0
C640 C 0.50299 0.3771 0.15852 0.0
C641 C 0.49809 0.22245 0.33596 0.0
C642 C 0.46615 0.22671 0.36359 0.0
C643 C 0.52852 0.19351 0.34368 0.0
C644 C 0.52389 0.16574 0.37492 0.0
C645 C 0.48893 0.16674 0.39921 0.0
C646 C 0.46162 0.19912 0.39494 0.0
C647 C 0.46244 0.37136 0.17064 0.0
H648 H 0.491 0.09979 0.15705 0.0
H649 H 0.46124 0.14507 0.20744 0.0
H650 H 0.54222 0.23832 0.16739 0.0
H651 H 0.57177 0.19377 0.11805 0.0
H652 H 0.4976 0.17867 0.2697 0.0
H653 H 0.47415 0.26996 0.18318 0.0
H654 H 0.49122 0.30156 0.30792 0.0
H655 H 0.42266 0.3398 0.21084 0.0
H656 H 0.55124 0.32983 0.23602 0.0
H657 H 0.56616 0.36986 0.17672 0.0
H658 H 0.44226 0.24854 0.35844 0.0
H659 H 0.55365 0.18968 0.32285 0.0
H660 H 0.43752 0.38125 0.1516 0.0
H661 H 0.43474 0.20129 0.41377 0.0
H662 H 0.54561 0.14151 0.3775 0.0
C663 C 0.85416 0.49711 0.18012 0.0
C664 C 0.85451 0.52487 0.14838 0.0
C665 C 0.82211 0.49705 0.2076 0.0
C666 C 0.79006 0.52451 0.20336 0.0
C667 C 0.79047 0.55223 0.1718 0.0
C668 C 0.82244 0.55246 0.14455 0.0
C669 C 0.75631 0.52527 0.23214 0.0
C670 C 0.76403 0.52708 0.27315 0.0
C671 C 0.73215 0.53185 0.30077 0.0
C672 C 0.69133 0.53458 0.28675 0.0
C673 C 0.68372 0.53284 0.2447 0.0
C674 C 0.71646 0.52731 0.21822 0.0
C675 C 0.64303 0.53505 0.22519 0.0
C676 C 0.61917 0.50052 0.22467 0.0
C677 C 0.63834 0.56267 0.19342 0.0
C678 C 0.61765 0.55197 0.15812 0.0
C679 C 0.59889 0.51463 0.15516 0.0
C680 C 0.74533 0.53483 0.34323 0.0
C681 C 0.75905 0.49947 0.36149 0.0
C682 C 0.76271 0.57111 0.35557 0.0
C683 C 0.79727 0.57142 0.38057 0.0
C684 C 0.8148 0.53538 0.39372 0.0
C685 C 0.79366 0.49968 0.38615 0.0
C686 C 0.59693 0.49058 0.19005 0.0
H687 H 0.87858 0.47556 0.18379 0.0
H688 H 0.82215 0.47544 0.23188 0.0
H689 H 0.76624 0.57406 0.16847 0.0
H690 H 0.82187 0.57425 0.12045 0.0
H691 H 0.79539 0.52605 0.2837 0.0
H692 H 0.71094 0.52485 0.18605 0.0
H693 H 0.66641 0.53841 0.30779 0.0
H694 H 0.62221 0.47858 0.24848 0.0
H695 H 0.6567 0.58945 0.19297 0.0
H696 H 0.62051 0.57093 0.13191 0.0
H697 H 0.74679 0.47102 0.35204 0.0
H698 H 0.75318 0.59874 0.34144 0.0
H699 H 0.582 0.46185 0.18917 0.0
H700 H 0.80574 0.47136 0.39638 0.0
H701 H 0.81222 0.59952 0.38652 0.0
C702 C 0.51672 0.84484 0.1322 0.0
C703 C 0.52526 0.88565 0.13376 0.0
C704 C 0.5354 0.81873 0.15888 0.0
C705 C 0.56296 0.83287 0.18795 0.0
C706 C 0.57386 0.87336 0.18762 0.0
C707 C 0.55529 0.89963 0.16037 0.0
C708 C 0.57269 0.80681 0.22259 0.0
C709 C 0.57851 0.76609 0.21635 0.0
C710 C 0.56882 0.73834 0.24648 0.0
C711 C 0.55685 0.75213 0.28495 0.0
C712 C 0.55607 0.79348 0.29267 0.0
C713 C 0.56401 0.82036 0.26133 0.0
C714 C 0.54214 0.81135 0.33089 0.0
C715 C 0.50029 0.81897 0.33616 0.0
C716 C 0.57038 0.83411 0.35255 0.0
C717 C 0.55747 0.86698 0.37494 0.0
C718 C 0.51586 0.87729 0.37706 0.0
C719 C 0.56162 0.69719 0.23222 0.0
C720 C 0.52102 0.68526 0.22682 0.0
C721 C 0.59236 0.67809 0.20969 0.0
C722 C 0.58209 0.65248 0.17806 0.0
C723 C 0.54097 0.64523 0.16888 0.0
C724 C 0.51074 0.65962 0.19525 0.0
C725 C 0.48721 0.85164 0.35924 0.0
H726 H 0.49418 0.83321 0.11145 0.0
H727 H 0.52564 0.78793 0.15865 0.0
H728 H 0.59499 0.88497 0.20975 0.0
H729 H 0.56263 0.93104 0.16175 0.0
H730 H 0.58489 0.75577 0.18601 0.0
H731 H 0.55905 0.85197 0.26637 0.0
H732 H 0.54727 0.73123 0.30793 0.0
H733 H 0.47797 0.80245 0.31891 0.0
H734 H 0.60281 0.82953 0.34808 0.0
H735 H 0.58063 0.88634 0.38726 0.0
H736 H 0.49669 0.6997 0.24345 0.0
H737 H 0.62388 0.68709 0.21304 0.0
H738 H 0.45495 0.85861 0.36033 0.0
H739 H 0.4788 0.65368 0.18957 0.0
H740 H 0.6061 0.64171 0.15848 0.0
C741 C 0.1958 0.51454 0.12633 0.0
C742 C 0.16925 0.54353 0.11051 0.0
C743 C 0.22802 0.5259 0.15102 0.0
C744 C 0.2339 0.56622 0.16002 0.0
C745 C 0.20966 0.59544 0.14183 0.0
C746 C 0.17763 0.58419 0.11683 0.0
C747 C 0.26052 0.57672 0.19346 0.0
C748 C 0.30174 0.58295 0.18719 0.0
C749 C 0.32874 0.58587 0.21994 0.0
C750 C 0.31343 0.5821 0.25966 0.0
C751 C 0.271 0.57767 0.26568 0.0
C752 C 0.24509 0.57504 0.23233 0.0
C753 C 0.25158 0.57205 0.30538 0.0
C754 C 0.25544 0.53535 0.32535 0.0
C755 C 0.21964 0.59795 0.31621 0.0
C756 C 0.19032 0.58625 0.34424 0.0
C757 C 0.19263 0.54856 0.36251 0.0
C758 C 0.37264 0.58521 0.20978 0.0
C759 C 0.39417 0.54976 0.21679 0.0
C760 C 0.38635 0.61093 0.17913 0.0
C761 C 0.41422 0.59724 0.15039 0.0
C762 C 0.4298 0.55841 0.15294 0.0
C763 C 0.42269 0.53646 0.18852 0.0
C764 C 0.22636 0.52383 0.35398 0.0
H765 H 0.19025 0.48308 0.12171 0.0
H766 H 0.24667 0.50313 0.16524 0.0
H767 H 0.21392 0.62666 0.14894 0.0
H768 H 0.15772 0.60727 0.10501 0.0
H769 H 0.31315 0.58272 0.1565 0.0
H770 H 0.21277 0.56943 0.2366 0.0
H771 H 0.33407 0.58222 0.28517 0.0
H772 H 0.27911 0.51443 0.31671 0.0
H773 H 0.21567 0.62611 0.30065 0.0
H774 H 0.16542 0.60648 0.351 0.0
H775 H 0.38463 0.52951 0.24039 0.0
H776 H 0.37047 0.63877 0.17342 0.0
H777 H 0.22931 0.49484 0.36811 0.0
H778 H 0.43542 0.50684 0.19226 0.0
H779 H 0.41953 0.61528 0.12421 0.0
C780 C 0.92145 0.88966 0.49267 0.0
C781 C 0.91688 0.9038 0.53238 0.0
C782 C 0.89394 0.86184 0.47702 0.0
C783 C 0.86154 0.84843 0.50085 0.0
C784 C 0.85805 0.86121 0.54084 0.0
C785 C 0.88556 0.88841 0.55656 0.0
C786 C 0.8299 0.82201 0.48489 0.0
C787 C 0.83798 0.78159 0.4803 0.0
C788 C 0.806 0.75404 0.47764 0.0
C789 C 0.76499 0.76801 0.47888 0.0
C790 C 0.75679 0.80949 0.4819 0.0
C791 C 0.78985 0.83586 0.48371 0.0
C792 C 0.71491 0.8272 0.4855 0.0
C793 C 0.68351 0.81749 0.45842 0.0
C794 C 0.70852 0.85937 0.51221 0.0
C795 C 0.6744 0.88416 0.50852 0.0
C796 C 0.64453 0.87627 0.47954 0.0
C797 C 0.81781 0.71146 0.48225 0.0
C798 C 0.84745 0.6948 0.45639 0.0
C799 C 0.81017 0.6926 0.51916 0.0
C800 C 0.83467 0.66072 0.53191 0.0
C801 C 0.86698 0.64658 0.5078 0.0
C802 C 0.87163 0.66241 0.46892 0.0
C803 C 0.64834 0.84161 0.45581 0.0
H804 H 0.94538 0.90096 0.47337 0.0
H805 H 0.89708 0.8519 0.44614 0.0
H806 H 0.83336 0.85068 0.55973 0.0
H807 H 0.8812 0.89849 0.58726 0.0
H808 H 0.86926 0.77118 0.48294 0.0
H809 H 0.78462 0.86767 0.48662 0.0
H810 H 0.74009 0.7469 0.47903 0.0
H811 H 0.68726 0.79298 0.43753 0.0
H812 H 0.73139 0.867 0.53445 0.0
H813 H 0.67195 0.91019 0.52767 0.0
H814 H 0.85438 0.70917 0.42797 0.0
H815 H 0.78813 0.70507 0.53998 0.0
H816 H 0.62547 0.83467 0.43335 0.0
H817 H 0.89597 0.65199 0.44953 0.0
H818 H 0.82977 0.64864 0.56179 0.0
C819 C 0.9083 0.20329 0.50506 0.0
C820 C 0.90255 0.16488 0.48958 0.0
C821 C 0.87701 0.23122 0.50298 0.0
C822 C 0.83987 0.22153 0.48424 0.0
C823 C 0.83741 0.18565 0.46229 0.0
C824 C 0.86865 0.15726 0.46513 0.0
C825 C 0.8028 0.2457 0.49303 0.0
C826 C 0.8058 0.28662 0.50029 0.0
C827 C 0.77206 0.30897 0.51329 0.0
C828 C 0.73367 0.29072 0.51641 0.0
C829 C 0.73024 0.24954 0.50917 0.0
C830 C 0.76483 0.22735 0.49818 0.0
C831 C 0.69078 0.22867 0.50943 0.0
C832 C 0.68445 0.19708 0.53653 0.0
C833 C 0.66475 0.23306 0.47624 0.0
C834 C 0.6352 0.20428 0.46822 0.0
C835 C 0.63095 0.17087 0.49352 0.0
C836 C 0.77856 0.35203 0.519 0.0
C837 C 0.8094 0.36417 0.54588 0.0
C838 C 0.76736 0.37738 0.48735 0.0
C839 C 0.79185 0.40997 0.47796 0.0
C840 C 0.82732 0.41764 0.50042 0.0
C841 C 0.83385 0.397 0.53658 0.0
C842 C 0.65439 0.16858 0.52887 0.0
H843 H 0.93461 0.20988 0.52368 0.0
H844 H 0.88065 0.25843 0.52004 0.0
H845 H 0.80998 0.178 0.44589 0.0
H846 H 0.86383 0.12786 0.45257 0.0
H847 H 0.83459 0.30163 0.49539 0.0
H848 H 0.76182 0.19552 0.49367 0.0
H849 H 0.707 0.30818 0.52434 0.0
H850 H 0.70476 0.19286 0.56198 0.0
H851 H 0.66962 0.25678 0.45461 0.0
H852 H 0.61721 0.20707 0.44095 0.0
H853 H 0.81855 0.34484 0.5705 0.0
H854 H 0.74386 0.36861 0.4662 0.0
H855 H 0.65169 0.14329 0.54894 0.0
H856 H 0.861 0.40239 0.55437 0.0
H857 H 0.78605 0.42587 0.45012 0.0
C858 C 0.17018 0.89071 0.49039 0.0
C859 C 0.13222 0.89649 0.50902 0.0
C860 C 0.19797 0.86343 0.50599 0.0
C861 C 0.18826 0.84106 0.54035 0.0
C862 C 0.15079 0.84748 0.55981 0.0
C863 C 0.12304 0.8754 0.54445 0.0
C864 C 0.21542 0.80795 0.5521 0.0
C865 C 0.25744 0.81378 0.55371 0.0
C866 C 0.28451 0.78139 0.55405 0.0
C867 C 0.26898 0.74218 0.55331 0.0
C868 C 0.22621 0.73613 0.55392 0.0
C869 C 0.20001 0.76934 0.55374 0.0
C870 C 0.2069 0.69655 0.54833 0.0
C871 C 0.21569 0.67409 0.5138 0.0
C872 C 0.17236 0.68653 0.5714 0.0
C873 C 0.14518 0.65727 0.55822 0.0
C874 C 0.15237 0.63681 0.52214 0.0
C875 C 0.32828 0.79148 0.55097 0.0
C876 C 0.34355 0.8016 0.5128 0.0
C877 C 0.34772 0.80691 0.58527 0.0
C878 C 0.37768 0.83632 0.58141 0.0
C879 C 0.38844 0.85095 0.54313 0.0
C880 C 0.37344 0.83106 0.50888 0.0
C881 C 0.18865 0.64457 0.50081 0.0
H882 H 0.1783 0.90687 0.4633 0.0
H883 H 0.22637 0.85854 0.49004 0.0
H884 H 0.14272 0.83033 0.58628 0.0
H885 H 0.09403 0.87953 0.55949 0.0
H886 H 0.26932 0.8439 0.55219 0.0
H887 H 0.16735 0.76506 0.5509 0.0
H888 H 0.28965 0.71697 0.55164 0.0
H889 H 0.24159 0.68153 0.49503 0.0
H890 H 0.16467 0.70365 0.59801 0.0
H891 H 0.11743 0.65249 0.575 0.0
H892 H 0.32863 0.79068 0.48586 0.0
H893 H 0.33611 0.80003 0.61501 0.0
H894 H 0.19522 0.62908 0.47292 0.0
H895 H 0.38143 0.84108 0.47888 0.0
H896 H 0.38908 0.85046 0.60848 0.0
C897 C 0.15878 0.13561 0.55756 0.0
C898 C 0.12481 0.14026 0.53246 0.0
C899 C 0.18705 0.16654 0.56062 0.0
C900 C 0.1817 0.20183 0.53796 0.0
C901 C 0.14411 0.20854 0.51882 0.0
C902 C 0.11566 0.17806 0.51656 0.0
C903 C 0.21707 0.22745 0.52779 0.0
C904 C 0.25533 0.20997 0.52143 0.0
C905 C 0.28892 0.23277 0.50981 0.0
C906 C 0.28419 0.27394 0.50337 0.0
C907 C 0.24535 0.29176 0.50769 0.0
C908 C 0.21234 0.26837 0.52059 0.0
C909 C 0.23896 0.33533 0.5035 0.0
C910 C 0.26378 0.36147 0.52527 0.0
C911 C 0.20347 0.35036 0.48465 0.0
C912 C 0.19049 0.38958 0.49169 0.0
C913 C 0.21285 0.41394 0.5178 0.0
C914 C 0.3288 0.21232 0.50901 0.0
C915 C 0.35476 0.21661 0.54222 0.0
C916 C 0.33443 0.17977 0.48295 0.0
C917 C 0.36277 0.14986 0.4923 0.0
C918 C 0.38549 0.15184 0.52801 0.0
C919 C 0.38278 0.18656 0.55172 0.0
C920 C 0.25073 0.4004 0.53246 0.0
H921 H 0.16615 0.10678 0.57046 0.0
H922 H 0.21493 0.16124 0.57733 0.0
H923 H 0.13843 0.23533 0.50146 0.0
H924 H 0.0891 0.18236 0.49751 0.0
H925 H 0.25939 0.17816 0.52568 0.0
H926 H 0.18304 0.28238 0.5261 0.0
H927 H 0.31035 0.29182 0.49518 0.0
H928 H 0.29117 0.35081 0.54013 0.0
H929 H 0.18408 0.33081 0.46721 0.0
H930 H 0.16122 0.39934 0.48005 0.0
H931 H 0.35054 0.2411 0.56308 0.0
H932 H 0.31423 0.17561 0.45746 0.0
H933 H 0.26869 0.41888 0.55245 0.0
H934 H 0.40054 0.18944 0.57911 0.0
H935 H 0.36434 0.12394 0.47335 0.0
Zn936 Zn 0.96801 0.98717 0.40421 0.0
Zn937 Zn 0.9396 0.07511 0.43761 0.0
O938 O 0.97794 0.02871 0.44748 0.0
H939 H 0.98581 0.02142 0.47454 0.0
C940 C 0.94147 0.93727 0.54757 0.0
O941 O 0.96589 0.95681 0.52328 0.0
Zn942 Zn 0.08378 0.0554 0.58662 0.0
Zn943 Zn 0.03651 0.97493 0.6204 0.0
O944 O 0.03559 0.01929 0.57886 0.0
H945 H 0.01691 0.02081 0.5564 0.0
Zn946 Zn 0.9545 0.00706 0.59767 0.0
O947 O 0.93561 0.0435 0.55429 0.0
Zn948 Zn 0.94741 0.09249 0.58457 0.0
H949 H 0.91164 0.03829 0.53821 0.0
Zn950 Zn 0.07259 0.97879 0.42915 0.0
O951 O 0.0655 0.02305 0.46782 0.0
H952 H 0.05516 0.02066 0.4949 0.0
Zn953 Zn 0.07603 0.07182 0.4365 0.0
C954 C 0.10261 0.9241 0.49071 0.0
O955 O 0.07218 0.93875 0.51182 0.0
O956 O 0.92234 0.00682 0.36848 0.0
O957 O 0.89214 0.05651 0.40246 0.0
O958 O 0.088 0.97945 0.65325 0.0
O959 O 0.12564 0.02657 0.62325 0.0
O960 O 0.94294 0.02942 0.6552 0.0
O961 O 0.92344 0.09104 0.6407 0.0
C962 C 0.00272 0.11593 0.39875 0.0
O963 O 0.09076 0.99808 0.37306 0.0
O964 O 0.10385 0.0621 0.38312 0.0
O965 O 0.98203 0.96106 0.64917 0.0
C966 C 0.89395 0.03257 0.37231 0.0
O967 O 0.0143 0.95022 0.38057 0.0
C968 C 0.02991 0.11222 0.61918 0.0
O969 O 0.93404 0.95129 0.58237 0.0
C970 C 0.12066 0.99963 0.65042 0.0
O971 O 0.10764 0.93511 0.45445 0.0
C972 C 0.9222 0.13194 0.51108 0.0
O973 O 0.9643 0.11612 0.40112 0.0
O974 O 0.02159 0.09328 0.42313 0.0
C975 C 0.92903 0.06312 0.6663 0.0
O976 O 0.06718 0.10235 0.61998 0.0
O977 O 0.00737 0.09533 0.59312 0.0
C978 C 0.10836 0.10576 0.51113 0.0
O979 O 0.92635 0.13563 0.54913 0.0
O980 O 0.93216 0.09925 0.49407 0.0
C981 C 0.10369 0.03146 0.36042 0.0
O982 O 0.10511 0.10891 0.47295 0.0
O983 O 0.09691 0.07391 0.52884 0.0
C984 C 0.96384 0.94252 0.67727 0.0
O985 O 0.92392 0.9457 0.67929 0.0
C986 C 0.0371 0.926 0.36125 0.0
O987 O 0.07446 0.91981 0.37417 0.0
Zn988 Zn 0.4341 0.06127 0.05772 0.0
Zn989 Zn 0.45029 0.08868 0.96718 0.0
O990 O 0.46406 0.04825 0.00764 0.0
H991 H 0.48564 0.02884 0.00545 0.0
C992 C 0.55406 0.11647 0.10572 0.0
O993 O 0.5351 0.08491 0.09189 0.0
Zn994 Zn 0.58485 0.95398 0.95767 0.0
Zn995 Zn 0.60322 0.97753 0.04695 0.0
O996 O 0.575 0.99606 -0.00222 0.0
H997 H 0.55138 0.01316 0.99728 0.0
Zn998 Zn 0.61409 0.09134 0.04829 0.0
O999 O 0.57088 0.08866 0.00667 0.0
Zn1000 Zn 0.59866 0.09226 0.95455 0.0
H1001 H 0.54278 0.08216 0.01208 0.0
Zn1002 Zn 0.43334 0.93789 0.05936 0.0
O1003 O 0.4696 0.95128 0.01364 0.0
H1004 H 0.49817 0.95784 0.01566 0.0
Zn1005 Zn 0.43505 0.94952 0.9655 0.0
C1006 C 0.50069 0.9131 0.10928 0.0
O1007 O 0.51449 0.94851 0.0995 0.0
O1008 O 0.38334 0.09587 0.04502 0.0
O1009 O 0.40817 0.12701 0.9906 0.0
O1010 O 0.65346 0.94407 0.03322 0.0
O1011 O 0.62866 0.91489 0.97805 0.0
O1012 O 0.66989 0.10828 0.02592 0.0
O1013 O 0.65687 0.11436 0.9604 0.0
C1014 C 0.41085 0.02703 0.92374 0.0
O1015 O 0.3745 0.9223 0.04382 0.0
O1016 O 0.37791 0.92576 0.97702 0.0
O1017 O 0.59614 0.0142 0.09597 0.0
C1018 C 0.38023 0.12206 0.01718 0.0
O1019 O 0.43782 0.01329 0.09645 0.0
C1020 C 0.62197 0.01513 0.9131 0.0
O1021 O 0.5898 0.12453 0.09346 0.0
C1022 C 0.65681 0.91909 0.00458 0.0
O1023 O 0.46553 0.9023 0.09753 0.0
C1024 C 0.52338 0.12374 0.92115 0.0
O1025 O 0.41777 0.06414 0.92201 0.0
O1026 O 0.43104 0.00659 0.94901 0.0
C1027 C 0.6813 0.11726 0.99039 0.0
O1028 O 0.61487 0.97807 0.91109 0.0
O1029 O 0.59931 0.03627 0.9354 0.0
C1030 C 0.50534 0.92047 0.91964 0.0
O1031 O 0.56215 0.12389 0.91759 0.0
O1032 O 0.5072 0.10664 0.95118 0.0
C1033 C 0.358 0.91817 0.00929 0.0
O1034 O 0.46659 0.92006 0.92259 0.0
O1035 O 0.52642 0.9366 0.94718 0.0
C1036 C 0.62343 0.0351 0.11267 0.0
O1037 O 0.61318 0.05802 0.1431 0.0
C1038 C 0.41012 0.9954 0.11579 0.0
O1039 O 0.41983 0.96358 0.13685 0.0
Zn1040 Zn 0.98389 0.46955 0.9374 0.0
Zn1041 Zn 0.96684 0.56418 0.94969 0.0
O1042 O 0.00991 0.52251 0.95438 0.0
H1043 H 0.00099 0.49612 0.94697 0.0
C1044 C 0.95182 0.41035 0.02709 0.0
O1045 O 0.9557 0.43749 -0.00099 0.0
Zn1046 Zn 0.04908 0.56407 0.06164 0.0
Zn1047 Zn 0.0622 0.47098 0.08363 0.0
O1048 O 0.02877 0.50823 0.04756 0.0
H1049 H 0.02146 0.49717 0.02182 0.0
Zn1050 Zn 0.95654 0.48219 0.07702 0.0
O1051 O 0.9551 0.52312 0.03087 0.0
Zn1052 Zn 0.93199 0.57099 0.05571 0.0
H1053 H 0.94927 0.51543 0.00355 0.0
Zn1054 Zn 0.083 0.48207 0.93774 0.0
O1055 O 0.08068 0.52156 0.98439 0.0
H1056 H 0.0954 0.51598 0.00898 0.0
Zn1057 Zn 0.08702 0.57269 0.95499 0.0
C1058 C 0.09403 0.40873 0.98668 0.0
O1059 O 0.08804 0.43365 0.01658 0.0
O1060 O 0.922 0.47647 0.92855 0.0
O1061 O 0.91098 0.54075 0.94145 0.0
O1062 O 0.11702 0.49635 0.0989 0.0
O1063 O 0.10736 0.5588 0.07788 0.0
O1064 O 0.91449 0.49749 0.11992 0.0
O1065 O 0.88895 0.55321 0.09323 0.0
C1066 C 0.01198 0.60968 0.89766 0.0
O1067 O 0.12235 0.50318 0.89461 0.0
O1068 O 0.13314 0.56442 0.91799 0.0
O1069 O 0.0418 0.42041 0.11645 0.0
C1070 C 0.89798 0.50624 0.9319 0.0
O1071 O 0.01072 0.42536 0.90053 0.0
C1072 C -0.00229 0.61019 0.11201 0.0
O1073 O 0.95304 0.42132 0.06364 0.0
C1074 C 0.12989 0.53174 0.0932 0.0
O1075 O 0.09243 0.42189 0.95081 0.0
C1076 C 0.93367 0.62899 -0.00105 0.0
O1077 O 0.9786 0.59089 0.89944 0.0
O1078 O 0.04248 0.598 0.91867 0.0
C1079 C 0.88786 0.52521 0.11911 0.0
O1080 O 0.02264 0.58111 0.11281 0.0
O1081 O 0.96621 0.60935 0.08961 0.0
C1082 C 0.07598 0.63422 0.01147 0.0
O1083 O 0.90747 0.60582 0.01423 0.0
O1084 O 0.9667 0.61502 0.98446 0.0
C1085 C 0.14157 0.5361 0.89395 0.0
O1086 O 0.10301 0.61446 0.99287 0.0
O1087 O 0.04555 0.61691 0.02803 0.0
C1088 C 0.03682 0.38495 0.10352 0.0
O1089 O 0.04041 0.37741 0.06494 0.0
C1090 C 0.01491 0.38895 0.91091 0.0
O1091 O 0.00787 0.37832 0.94825 0.0
Zn1092 Zn 0.46337 0.47588 0.97093 0.0
Zn1093 Zn 0.45857 0.46372 0.07181 0.0
O1094 O 0.48164 0.49697 0.02582 0.0
H1095 H 0.479 0.5255 0.02496 0.0
C1096 C 0.50523 0.39583 0.90274 0.0
O1097 O 0.47564 0.40501 0.92769 0.0
Zn1098 Zn 0.57864 0.57192 0.06388 0.0
Zn1099 Zn 0.55883 0.58889 0.96873 0.0
O1100 O 0.54537 0.55549 0.01659 0.0
H1101 H 0.54676 0.52732 0.01094 0.0
Zn1102 Zn 0.5638 0.42851 0.96766 0.0
O1103 O 0.53107 0.43419 0.02076 0.0
Zn1104 Zn 0.57002 0.42183 0.06679 0.0
H1105 H 0.50322 0.42489 0.02108 0.0
Zn1106 Zn 0.46442 0.61667 0.96941 0.0
O1107 O 0.50351 0.6197 0.0182 0.0
H1108 H 0.5284 0.63502 0.01842 0.0
Zn1109 Zn 0.46857 0.61131 0.06748 0.0
C1110 C 0.51378 0.64666 0.89676 0.0
O1111 O 0.54488 0.64686 0.92166 0.0
O1112 O 0.41764 0.4359 0.98195 0.0
O1113 O 0.41025 0.4354 0.049 0.0
O1114 O 0.60749 0.62293 0.98334 0.0
O1115 O 0.62887 0.60111 0.04339 0.0
O1116 O 0.62334 0.41324 0.97872 0.0
O1117 O 0.62249 0.40272 0.04497 0.0
C1118 C 0.44535 0.53703 0.1169 0.0
O1119 O 0.40649 0.63195 0.98815 0.0
O1120 O 0.41423 0.6364 0.05481 0.0
O1121 O 0.56554 0.56487 0.91116 0.0
C1122 C 0.3991 0.42485 0.01375 0.0
O1123 O 0.45113 0.51414 0.92089 0.0
C1124 C 0.589 0.49692 0.11522 0.0
O1125 O 0.5419 0.40254 0.91326 0.0
C1126 C 0.63344 0.62265 0.01188 0.0
O1127 O 0.47897 0.63605 0.90985 0.0
C1128 C 0.51373 0.39311 0.11815 0.0
O1129 O 0.44169 0.4994 0.11651 0.0
O1130 O 0.45878 0.55428 0.08524 0.0
C1131 C 0.6407 0.40211 0.01118 0.0
O1132 O 0.58666 0.51674 0.08289 0.0
O1133 O 0.58344 0.45974 0.11287 0.0
C1134 C 0.52913 0.62714 0.12988 0.0
O1135 O 0.54626 0.38093 0.10148 0.0
O1136 O 0.49257 0.42009 0.10053 0.0
C1137 C 0.39278 0.64066 0.02301 0.0
O1138 O 0.49427 0.63561 0.11535 0.0
O1139 O 0.55463 0.60583 0.11025 0.0
C1140 C 0.56656 0.52831 0.90139 0.0
O1141 O 0.55923 0.50125 0.92906 0.0
C1142 C 0.46273 0.50698 0.88488 0.0
O1143 O 0.48686 0.47648 0.87816 0.0
Zn1144 Zn 0.93019 0.48244 0.43629 0.0
Zn1145 Zn 0.9308 0.57554 0.44933 0.0
O1146 O 0.96325 0.52653 0.45816 0.0
H1147 H 0.99072 0.52434 0.46848 0.0
C1148 C 0.86183 0.43622 0.47953 0.0
O1149 O 0.86951 0.42482 0.44244 0.0
Zn1150 Zn 0.09063 0.58367 0.58493 0.0
Zn1151 Zn 0.11203 0.50155 0.57122 0.0
O1152 O 0.06415 0.53228 0.59353 0.0
H1153 H 0.04798 0.52524 0.61678 0.0
Zn1154 Zn 0.90104 0.48934 0.54971 0.0
O1155 O 0.94611 0.52939 0.54596 0.0
Zn1156 Zn 0.93554 0.57153 0.58665 0.0
H1157 H 0.97355 0.52206 0.53836 0.0
Zn1158 Zn 0.13918 0.48493 0.4659 0.0
O1159 O 0.08529 0.51443 0.47317 0.0
H1160 H 0.06476 0.50856 0.49316 0.0
Zn1161 Zn 0.08754 0.56358 0.43885 0.0
C1162 C 0.19392 0.44864 0.53752 0.0
O1163 O 0.20057 0.45331 0.57619 0.0
O1164 O 0.8735 0.50006 0.41573 0.0
O1165 O 0.87533 0.56596 0.42103 0.0
O1166 O 0.16788 0.52536 0.589 0.0
O1167 O 0.148 0.58494 0.60985 0.0
O1168 O 0.86237 0.50119 0.59649 0.0
O1169 O 0.89668 0.54856 0.62991 0.0
C1170 C 0.00744 0.61132 0.41733 0.0
O1171 O 0.17138 0.51134 0.41937 0.0
O1172 O 0.1261 0.55352 0.39157 0.0
O1173 O 0.10056 0.44358 0.5862 0.0
C1174 C 0.85646 0.53395 0.41166 0.0
O1175 O 0.96289 0.44161 0.40414 0.0
C1176 C 0.0122 0.62136 0.60745 0.0
O1177 O 0.88699 0.45944 0.49667 0.0
C1178 C 0.17601 0.55869 0.60535 0.0
O1179 O 0.16869 0.47208 0.52026 0.0
C1180 C 0.89733 0.61846 0.52545 0.0
O1181 O 0.96862 0.61323 0.42098 0.0
O1182 O 0.02714 0.58108 0.43057 0.0
C1183 C 0.8666 0.52415 0.62686 0.0
O1184 O 0.05102 0.62431 0.60583 0.0
O1185 O -0.00517 0.58876 0.59798 0.0
C1186 C 0.12131 0.60995 0.50442 0.0
O1187 O 0.90158 0.61667 0.56335 0.0
O1188 O 0.91916 0.59496 0.50463 0.0
C1189 C 0.16123 0.53634 0.39202 0.0
O1190 O 0.12 0.60602 0.46656 0.0
O1191 O 0.09665 0.58963 0.52553 0.0
C1192 C 0.06409 0.43143 0.58235 0.0
O1193 O 0.03765 0.4535 0.56249 0.0
C1194 C -0.0028 0.42741 0.41504 0.0
O1195 O 0.0128 0.43745 0.45004 0.0
Zn1196 Zn 0.4619 0.99419 0.39005 0.0
Zn1197 Zn 0.42325 0.07799 0.46198 0.0
O1198 O 0.46254 0.03039 0.44567 0.0
H1199 H 0.4861 0.02615 0.46282 0.0
C1200 C 0.4074 0.89099 0.5389 0.0
O1201 O 0.40896 0.90793 0.50321 0.0
Zn1202 Zn 0.58828 0.09147 0.56093 0.0
Zn1203 Zn 0.57906 0.99303 0.57035 0.0
O1204 O 0.54939 0.04509 0.55763 0.0
H1205 H 0.52712 0.0467 0.53879 0.0
Zn1206 Zn 0.40885 0.97515 0.56401 0.0
O1207 O 0.45366 0.02328 0.55886 0.0
Zn1208 Zn 0.45832 0.07454 0.5965 0.0
H1209 H 0.46524 0.02428 0.53205 0.0
Zn1210 Zn 0.58004 0.98793 0.44616 0.0
O1211 O 0.56939 0.0418 0.47364 0.0
H1212 H 0.57462 0.01543 0.46319 0.0
Zn1213 Zn 0.55997 0.08579 0.43213 0.0
C1214 C 0.61143 0.90561 0.47193 0.0
O1215 O 0.57461 0.89316 0.46319 0.0
O1216 O 0.42048 0.02059 0.42637 0.0
O1217 O 0.36936 0.05881 0.44128 0.0
O1218 O 0.63297 0.00706 0.5985 0.0
O1219 O 0.63985 0.07228 0.58689 0.0
O1220 O 0.444 0.00975 0.60018 0.0
O1221 O 0.4489 0.05032 0.65076 0.0
C1222 C 0.4767 0.13185 0.42399 0.0
O1223 O 0.58724 0.99897 0.3854 0.0
O1224 O 0.57388 0.06382 0.37761 0.0
O1225 O 0.54796 0.9427 0.59323 0.0
C1226 C 0.38379 0.03117 0.41959 0.0
O1227 O 0.46862 0.93172 0.38505 0.0
C1228 C 0.52998 0.13386 0.60506 0.0
O1229 O 0.41178 0.91286 0.56991 0.0
C1230 C 0.65275 0.03954 0.60194 0.0
O1231 O 0.61954 0.94279 0.46982 0.0
C1232 C 0.409 0.1172 0.54336 0.0
O1233 O 0.43933 0.12775 0.43281 0.0
O1234 O 0.501 0.10387 0.43446 0.0
C1235 C 0.43905 0.01617 0.63764 0.0
O1236 O 0.56681 0.13759 0.5944 0.0
O1237 O 0.51213 0.10212 0.59391 0.0
C1238 C 0.60562 0.13696 0.48032 0.0
O1239 O 0.41626 0.11485 0.58071 0.0
O1240 O 0.42302 0.08961 0.52094 0.0
C1241 C 0.58393 0.0299 0.36325 0.0
O1242 O 0.59601 0.13321 0.44354 0.0
O1243 O 0.59295 0.11033 0.50429 0.0
C1244 C 0.5627 0.90787 0.58794 0.0
O1245 O 0.59586 0.90402 0.56615 0.0
C1246 C 0.50374 0.91724 0.39246 0.0
O1247 O 0.53159 0.94111 0.40705 0.0
loop_
_geom_bond_atom_site_label_1
_geom_bond_atom_site_label_2
_geom_bond_distance
_geom_bond_site_symmetry_2
_ccdc_geom_bond_type
C0 C1 1.386 . S
C0 C2 1.397 . S
C0 H24 0.931 1_455 S
C1 C0 1.386 . S
C1 C5 1.397 . S
C2 C0 1.397 . S
C2 C3 1.384 . S
C2 H25 0.930 1_455 S
C3 C2 1.384 . S
C3 C4 1.377 . S
C3 C6 1.481 . S
C4 C3 1.377 . S
C4 C5 1.389 . S
C4 H26 0.929 . S
C5 C1 1.397 . S
C5 C4 1.389 . S
C5 H27 0.931 . S
C6 C3 1.481 . S
C6 C7 1.387 . S
C6 C11 1.390 . S
C7 C6 1.387 . S
C7 C8 1.401 . S
C7 H28 0.930 . S
C8 C7 1.401 . S
C8 C9 1.376 . S
C8 C17 1.511 . S
C9 C8 1.376 . S
C9 C10 1.392 . S
C9 H30 0.931 . S
C10 C9 1.392 . S
C10 C11 1.361 . S
C10 C12 1.500 . S
C11 C6 1.390 . S
C11 C10 1.361 . S
C11 H29 0.931 . S
C12 C10 1.500 . S
C12 C13 1.371 . S
C12 C14 1.365 . S
C13 C12 1.371 . S
C13 C23 1.386 . S
C13 H31 0.931 . S
C14 C12 1.365 . S
C14 C15 1.409 . S
C14 H32 0.929 . S
C15 C14 1.409 . S
C15 C16 1.380 . S
C15 H33 0.930 . S
C16 C15 1.380 . S
C16 C23 1.357 . S
C17 C8 1.511 . S
C17 C18 1.341 . S
C17 C19 1.371 . S
C18 C17 1.341 . S
C18 C22 1.394 . S
C18 H34 0.930 . S
C19 C17 1.371 . S
C19 C20 1.392 . S
C19 H35 0.931 . S
C20 C19 1.392 . S
C20 C21 1.331 . S
C20 H38 0.932 . S
C21 C20 1.331 . S
C21 C22 1.336 . S
C22 C18 1.394 . S
C22 C21 1.336 . S
C22 H37 0.929 . S
C23 C13 1.386 . S
C23 C16 1.357 . S
C23 H36 0.928 . S
H24 C0 0.931 1_655 S
H25 C2 0.930 1_655 S
H26 C4 0.929 . S
H27 C5 0.931 . S
H28 C7 0.930 . S
H29 C11 0.931 . S
H30 C9 0.931 . S
H31 C13 0.931 . S
H32 C14 0.929 . S
H33 C15 0.930 . S
H34 C18 0.930 . S
H35 C19 0.931 . S
H36 C23 0.928 . S
H37 C22 0.929 . S
H38 C20 0.932 . S
C39 C40 1.386 . S
C39 C41 1.397 . S
C39 H63 0.931 . S
C40 C39 1.386 . S
C40 C44 1.397 . S
C41 C39 1.397 . S
C41 C42 1.384 . S
C41 H64 0.930 . S
C42 C41 1.384 . S
C42 C43 1.377 . S
C42 C45 1.481 . S
C43 C42 1.377 . S
C43 C44 1.389 . S
C43 H65 0.929 . S
C44 C40 1.397 . S
C44 C43 1.389 . S
C44 H66 0.932 1_545 S
C45 C42 1.481 . S
C45 C46 1.387 . S
C45 C50 1.390 . S
C46 C45 1.387 . S
C46 C47 1.401 . S
C46 H67 0.930 . S
C47 C46 1.401 . S
C47 C48 1.376 . S
C47 C56 1.511 . S
C48 C47 1.376 . S
C48 C49 1.392 . S
C48 H69 0.931 . S
C49 C48 1.392 . S
C49 C50 1.361 . S
C49 C51 1.500 . S
C50 C45 1.390 . S
C50 C49 1.361 . S
C50 H68 0.931 . S
C51 C49 1.500 . S
C51 C52 1.371 . S
C51 C53 1.365 . S
C52 C51 1.371 . S
C52 C62 1.386 . S
C52 H70 0.931 . S
C53 C51 1.365 . S
C53 C54 1.409 . S
C53 H71 0.929 . S
C54 C53 1.409 . S
C54 C55 1.380 . S
C54 H72 0.930 . S
C55 C54 1.380 . S
C55 C62 1.357 . S
C56 C47 1.511 . S
C56 C57 1.341 . S
C56 C58 1.371 . S
C57 C56 1.341 . S
C57 C61 1.394 . S
C57 H73 0.930 . S
C58 C56 1.371 . S
C58 C59 1.392 . S
C58 H74 0.931 . S
C59 C58 1.392 . S
C59 C60 1.331 . S
C59 H77 0.932 . S
C60 C59 1.331 . S
C60 C61 1.336 . S
C61 C57 1.394 . S
C61 C60 1.336 . S
C61 H76 0.929 . S
C62 C52 1.386 . S
C62 C55 1.357 . S
C62 H75 0.928 . S
H63 C39 0.931 . S
H64 C41 0.930 . S
H65 C43 0.929 . S
H66 C44 0.932 1_565 S
H67 C46 0.930 . S
H68 C50 0.931 . S
H69 C48 0.931 . S
H70 C52 0.931 . S
H71 C53 0.929 . S
H72 C54 0.930 . S
H73 C57 0.930 . S
H74 C58 0.931 . S
H75 C62 0.928 . S
H76 C61 0.929 . S
H77 C59 0.932 . S
C78 C79 1.386 1_655 S
C78 C80 1.397 . S
C78 H102 0.931 . S
C79 C78 1.386 1_455 S
C79 C83 1.397 . S
C80 C78 1.397 . S
C80 C81 1.384 1_655 S
C80 H103 0.930 . S
C81 C80 1.384 1_455 S
C81 C82 1.377 . S
C81 C84 1.481 . S
C82 C81 1.377 . S
C82 C83 1.389 . S
C82 H104 0.929 . S
C83 C79 1.397 . S
C83 C82 1.389 . S
C83 H105 0.931 . S
C84 C81 1.481 . S
C84 C85 1.387 . S
C84 C89 1.390 . S
C85 C84 1.387 . S
C85 C86 1.401 . S
C85 H106 0.930 . S
C86 C85 1.401 . S
C86 C87 1.376 . S
C86 C95 1.511 . S
C87 C86 1.376 . S
C87 C88 1.392 . S
C87 H108 0.931 . S
C88 C87 1.392 . S
C88 C89 1.361 . S
C88 C90 1.500 . S
C89 C84 1.390 . S
C89 C88 1.361 . S
C89 H107 0.931 . S
C90 C88 1.500 . S
C90 C91 1.371 . S
C90 C92 1.365 . S
C91 C90 1.371 . S
C91 C101 1.386 . S
C91 H109 0.931 1_455 S
C92 C90 1.365 . S
C92 C93 1.409 . S
C92 H110 0.929 . S
C93 C92 1.409 . S
C93 C94 1.380 . S
C93 H111 0.930 . S
C94 C93 1.380 . S
C94 C101 1.357 . S
C95 C86 1.511 . S
C95 C96 1.341 . S
C95 C97 1.371 . S
C96 C95 1.341 . S
C96 C100 1.394 . S
C96 H112 0.934 . S
C97 C95 1.371 . S
C97 C98 1.392 . S
C97 H113 0.931 . S
C98 C97 1.392 . S
C98 C99 1.331 . S
C98 H116 0.932 . S
C99 C98 1.331 . S
C99 C100 1.336 . S
C100 C96 1.394 . S
C100 C99 1.336 . S
C100 H115 0.929 . S
C101 C91 1.386 . S
C101 C94 1.357 . S
C101 H114 0.928 1_455 S
H102 C78 0.931 . S
H103 C80 0.930 . S
H104 C82 0.929 . S
H105 C83 0.931 . S
H106 C85 0.930 . S
H107 C89 0.931 . S
H108 C87 0.931 . S
H109 C91 0.931 1_655 S
H110 C92 0.929 . S
H111 C93 0.930 . S
H112 C96 0.934 . S
H113 C97 0.931 . S
H114 C101 0.928 1_655 S
H115 C100 0.929 . S
H116 C98 0.932 . S
C117 C118 1.386 . S
C117 C119 1.397 . S
C117 H141 0.931 . S
C118 C117 1.386 . S
C118 C122 1.397 1_545 S
C119 C117 1.397 . S
C119 C120 1.384 . S
C119 H142 0.930 . S
C120 C119 1.384 . S
C120 C121 1.377 1_545 S
C120 C123 1.481 . S
C121 C120 1.377 1_565 S
C121 C122 1.389 . S
C121 H143 0.929 . S
C122 C118 1.397 1_565 S
C122 C121 1.389 . S
C122 H144 0.931 . S
C123 C120 1.481 . S
C123 C124 1.387 . S
C123 C128 1.390 . S
C124 C123 1.387 . S
C124 C125 1.401 . S
C124 H145 0.930 . S
C125 C124 1.401 . S
C125 C126 1.376 . S
C125 C134 1.511 . S
C126 C125 1.376 . S
C126 C127 1.392 . S
C126 H147 0.931 . S
C127 C126 1.392 . S
C127 C128 1.361 . S
C127 C129 1.500 . S
C128 C123 1.390 . S
C128 C127 1.361 . S
C128 H146 0.931 . S
C129 C127 1.500 . S
C129 C130 1.371 . S
C129 C131 1.365 1_545 S
C130 C129 1.371 . S
C130 C140 1.386 . S
C130 H148 0.931 . S
C131 C129 1.365 1_565 S
C131 C132 1.409 . S
C131 H149 0.929 . S
C132 C131 1.409 . S
C132 C133 1.380 1_565 S
C132 H150 0.930 . S
C133 C132 1.380 1_545 S
C133 C140 1.357 . S
C134 C125 1.511 . S
C134 C135 1.341 . S
C134 C136 1.371 1_545 S
C135 C134 1.341 . S
C135 C139 1.394 . S
C135 H151 0.930 . S
C136 C134 1.371 1_565 S
C136 C137 1.392 . S
C136 H152 0.931 . S
C137 C136 1.392 . S
C137 C138 1.331 1_565 S
C137 H155 0.932 . S
C138 C137 1.331 1_545 S
C138 C139 1.336 . S
C139 C135 1.394 . S
C139 C138 1.336 . S
C139 H154 0.929 . S
C140 C130 1.386 . S
C140 C133 1.357 . S
C140 H153 0.928 . S
H141 C117 0.931 . S
H142 C119 0.930 . S
H143 C121 0.929 . S
H144 C122 0.931 . S
H145 C124 0.930 . S
H146 C128 0.931 . S
H147 C126 0.931 . S
H148 C130 0.931 . S
H149 C131 0.929 . S
H150 C132 0.930 . S
H151 C135 0.930 . S
H152 C136 0.931 . S
H153 C140 0.928 . S
H154 C139 0.929 . S
H155 C137 0.932 . S
C156 C157 1.386 . S
C156 C158 1.397 . S
C156 H180 0.931 . S
C157 C156 1.386 . S
C157 C161 1.397 1_655 S
C158 C156 1.397 . S
C158 C159 1.385 1_655 S
C158 H181 0.930 . S
C159 C158 1.385 1_455 S
C159 C160 1.376 . S
C159 C162 1.480 1_455 S
C160 C159 1.376 . S
C160 C161 1.389 . S
C160 H182 0.929 . S
C161 C157 1.397 1_455 S
C161 C160 1.389 . S
C161 H183 0.931 . S
C162 C159 1.480 1_655 S
C162 C163 1.388 . S
C162 C167 1.390 . S
C163 C162 1.388 . S
C163 C164 1.402 . S
C163 H184 0.930 . S
C164 C163 1.402 . S
C164 C165 1.376 . S
C164 C173 1.512 . S
C165 C164 1.376 . S
C165 C166 1.392 1_655 S
C165 H186 0.931 . S
C166 C165 1.392 1_455 S
C166 C167 1.361 1_455 S
C166 C168 1.499 . S
C167 C162 1.390 . S
C167 C166 1.361 1_655 S
C167 H185 0.931 1_655 S
C168 C166 1.499 . S
C168 C169 1.371 1_455 S
C168 C170 1.365 . S
C169 C168 1.371 1_655 S
C169 C179 1.386 . S
C169 H187 0.931 . S
C170 C168 1.365 . S
C170 C171 1.409 . S
C170 H188 0.929 . S
C171 C170 1.409 . S
C171 C172 1.386 . S
C171 H189 0.930 . S
C172 C171 1.386 . S
C172 C179 1.352 1_455 S
C173 C164 1.512 . S
C173 C174 1.341 . S
C173 C175 1.371 1_655 S
C174 C173 1.341 . S
C174 C178 1.394 . S
C174 H190 0.930 . S
C175 C173 1.371 1_455 S
C175 C176 1.392 . S
C175 H191 0.931 . S
C176 C175 1.392 . S
C176 C177 1.324 1_455 S
C176 H194 0.932 . S
C177 C176 1.324 1_655 S
C177 C178 1.343 . S
C178 C174 1.394 . S
C178 C177 1.343 . S
C178 H193 0.929 . S
C179 C169 1.386 . S
C179 C172 1.352 1_655 S
C179 H192 0.928 . S
H180 C156 0.931 . S
H181 C158 0.930 . S
H182 C160 0.929 . S
H183 C161 0.931 . S
H184 C163 0.930 . S
H185 C167 0.931 1_455 S
H186 C165 0.931 . S
H187 C169 0.931 . S
H188 C170 0.929 . S
H189 C171 0.930 . S
H190 C174 0.930 . S
H191 C175 0.931 . S
H192 C179 0.928 . S
H193 C178 0.929 . S
H194 C176 0.932 . S
C195 C196 1.386 1_565 S
C195 C197 1.397 . S
C195 H219 0.931 . S
C196 C195 1.386 1_545 S
C196 C200 1.397 . S
C197 C195 1.397 . S
C197 C198 1.384 1_565 S
C197 H220 0.930 . S
C198 C197 1.384 1_545 S
C198 C199 1.377 . S
C198 C201 1.481 . S
C199 C198 1.377 . S
C199 C200 1.389 . S
C199 H221 0.929 . S
C200 C196 1.397 . S
C200 C199 1.389 . S
C200 H222 0.931 . S
C201 C198 1.481 . S
C201 C202 1.387 . S
C201 C206 1.390 . S
C202 C201 1.387 . S
C202 C203 1.401 . S
C202 H223 0.930 . S
C203 C202 1.401 . S
C203 C204 1.376 . S
C203 C212 1.511 . S
C204 C203 1.376 . S
C204 C205 1.392 . S
C204 H225 0.931 . S
C205 C204 1.392 . S
C205 C206 1.361 . S
C205 C207 1.500 . S
C206 C201 1.390 . S
C206 C205 1.361 . S
C206 H224 0.931 . S
C207 C205 1.500 . S
C207 C208 1.371 1_545 S
C207 C209 1.365 . S
C208 C207 1.371 1_565 S
C208 C218 1.386 . S
C208 H226 0.931 . S
C209 C207 1.365 . S
C209 C210 1.409 . S
C209 H227 0.929 . S
C210 C209 1.409 . S
C210 C211 1.380 . S
C210 H228 0.930 . S
C211 C210 1.380 . S
C211 C218 1.357 1_545 S
C212 C203 1.511 . S
C212 C213 1.341 1_545 S
C212 C214 1.371 . S
C213 C212 1.341 1_565 S
C213 C217 1.394 . S
C213 H229 0.930 . S
C214 C212 1.371 . S
C214 C215 1.392 . S
C214 H230 0.931 . S
C215 C214 1.392 . S
C215 C216 1.331 . S
C215 H233 0.932 . S
C216 C215 1.331 . S
C216 C217 1.336 1_545 S
C217 C213 1.394 . S
C217 C216 1.336 1_565 S
C217 H232 0.929 . S
C218 C208 1.386 . S
C218 C211 1.357 1_565 S
C218 H231 0.928 . S
H219 C195 0.931 . S
H220 C197 0.930 . S
H221 C199 0.929 . S
H222 C200 0.931 . S
H223 C202 0.930 . S
H224 C206 0.931 . S
H225 C204 0.931 . S
H226 C208 0.931 . S
H227 C209 0.929 . S
H228 C210 0.930 . S
H229 C213 0.930 . S
H230 C214 0.931 . S
H231 C218 0.928 . S
H232 C217 0.929 . S
H233 C215 0.932 . S
C234 C235 1.386 1_655 S
C234 C236 1.397 . S
C234 H258 0.931 . S
C235 C234 1.386 1_455 S
C235 C239 1.397 . S
C236 C234 1.397 . S
C236 C237 1.384 1_655 S
C236 H259 0.930 . S
C237 C236 1.384 1_455 S
C237 C238 1.377 . S
C237 C240 1.481 . S
C238 C237 1.377 . S
C238 C239 1.389 . S
C238 H260 0.929 . S
C239 C235 1.397 . S
C239 C238 1.389 . S
C239 H261 0.931 . S
C240 C237 1.481 . S
C240 C241 1.387 . S
C240 C245 1.390 . S
C241 C240 1.387 . S
C241 C242 1.401 . S
C241 H262 0.930 . S
C242 C241 1.401 . S
C242 C243 1.376 . S
C242 C251 1.511 . S
C243 C242 1.376 . S
C243 C244 1.392 . S
C243 H264 0.931 . S
C244 C243 1.392 . S
C244 C245 1.361 . S
C244 C246 1.500 . S
C245 C240 1.390 . S
C245 C244 1.361 . S
C245 H263 0.931 . S
C246 C244 1.500 . S
C246 C247 1.371 . S
C246 C248 1.365 . S
C247 C246 1.371 . S
C247 C257 1.386 . S
C247 H265 0.931 1_455 S
C248 C246 1.365 . S
C248 C249 1.409 . S
C248 H266 0.929 . S
C249 C248 1.409 . S
C249 C250 1.380 . S
C249 H267 0.930 . S
C250 C249 1.380 . S
C250 C257 1.357 . S
C251 C242 1.511 . S
C251 C252 1.341 . S
C251 C253 1.371 . S
C252 C251 1.341 . S
C252 C256 1.394 . S
C252 H268 0.934 . S
C253 C251 1.371 . S
C253 C254 1.392 . S
C253 H269 0.931 . S
C254 C253 1.392 . S
C254 C255 1.331 . S
C254 H272 0.932 . S
C255 C254 1.331 . S
C255 C256 1.336 . S
C256 C252 1.394 . S
C256 C255 1.336 . S
C256 H271 0.929 . S
C257 C247 1.386 . S
C257 C250 1.357 . S
C257 H270 0.928 1_455 S
H258 C234 0.931 . S
H259 C236 0.930 . S
H260 C238 0.929 . S
H261 C239 0.931 . S
H262 C241 0.930 . S
H263 C245 0.931 . S
H264 C243 0.931 . S
H265 C247 0.931 1_655 S
H266 C248 0.929 . S
H267 C249 0.930 . S
H268 C252 0.934 . S
H269 C253 0.931 . S
H270 C257 0.928 1_655 S
H271 C256 0.929 . S
H272 C254 0.932 . S
C273 C274 1.386 . S
C273 C275 1.397 . S
C273 H297 0.931 1_545 S
C274 C273 1.386 . S
C274 C278 1.397 . S
C275 C273 1.397 . S
C275 C276 1.384 . S
C275 H298 0.930 1_545 S
C276 C275 1.384 . S
C276 C277 1.377 . S
C276 C279 1.481 . S
C277 C276 1.377 . S
C277 C278 1.389 . S
C277 H299 0.929 . S
C278 C274 1.397 . S
C278 C277 1.389 . S
C278 H300 0.931 . S
C279 C276 1.481 . S
C279 C280 1.387 . S
C279 C284 1.390 . S
C280 C279 1.387 . S
C280 C281 1.401 . S
C280 H301 0.930 . S
C281 C280 1.401 . S
C281 C282 1.376 . S
C281 C290 1.511 . S
C282 C281 1.376 . S
C282 C283 1.392 . S
C282 H303 0.931 . S
C283 C282 1.392 . S
C283 C284 1.361 . S
C283 C285 1.500 . S
C284 C279 1.390 . S
C284 C283 1.361 . S
C284 H302 0.931 . S
C285 C283 1.500 . S
C285 C286 1.371 . S
C285 C287 1.365 . S
C286 C285 1.371 . S
C286 C296 1.386 . S
C286 H304 0.931 . S
C287 C285 1.365 . S
C287 C288 1.409 . S
C287 H305 0.929 . S
C288 C287 1.409 . S
C288 C289 1.380 . S
C288 H306 0.930 . S
C289 C288 1.380 . S
C289 C296 1.357 . S
C290 C281 1.511 . S
C290 C291 1.341 . S
C290 C292 1.371 . S
C291 C290 1.341 . S
C291 C295 1.394 . S
C291 H307 0.930 . S
C292 C290 1.371 . S
C292 C293 1.392 . S
C292 H308 0.931 . S
C293 C292 1.392 . S
C293 C294 1.331 . S
C293 H311 0.932 . S
C294 C293 1.331 . S
C294 C295 1.336 . S
C295 C291 1.394 . S
C295 C294 1.336 . S
C295 H310 0.929 . S
C296 C286 1.386 . S
C296 C289 1.357 . S
C296 H309 0.928 . S
H297 C273 0.931 1_565 S
H298 C275 0.930 1_565 S
H299 C277 0.929 . S
H300 C278 0.931 . S
H301 C280 0.930 . S
H302 C284 0.931 . S
H303 C282 0.931 . S
H304 C286 0.931 . S
H305 C287 0.929 . S
H306 C288 0.930 . S
H307 C291 0.930 . S
H308 C292 0.931 . S
H309 C296 0.928 . S
H310 C295 0.929 . S
H311 C293 0.932 . S
C312 C313 1.386 1_556 S
C312 C314 1.397 . S
C312 H336 0.931 . S
C313 C312 1.386 1_554 S
C313 C317 1.397 . S
C314 C312 1.397 . S
C314 C315 1.384 1_556 S
C314 H337 0.930 . S
C315 C314 1.384 1_554 S
C315 C316 1.377 . S
C315 C318 1.481 . S
C316 C315 1.377 . S
C316 C317 1.389 . S
C316 H338 0.929 . S
C317 C313 1.397 . S
C317 C316 1.389 . S
C317 H339 0.931 . S
C318 C315 1.481 . S
C318 C319 1.387 . S
C318 C323 1.390 . S
C319 C318 1.387 . S
C319 C320 1.401 . S
C319 H340 0.930 . S
C320 C319 1.401 . S
C320 C321 1.376 . S
C320 C329 1.511 . S
C321 C320 1.376 . S
C321 C322 1.392 . S
C321 H342 0.931 . S
C322 C321 1.392 . S
C322 C323 1.361 . S
C322 C324 1.500 . S
C323 C318 1.390 . S
C323 C322 1.361 . S
C323 H341 0.931 . S
C324 C322 1.500 . S
C324 C325 1.371 . S
C324 C326 1.365 . S
C325 C324 1.371 . S
C325 C335 1.386 . S
C325 H343 0.931 1_554 S
C326 C324 1.365 . S
C326 C327 1.409 . S
C326 H344 0.929 . S
C327 C326 1.409 . S
C327 C328 1.380 . S
C327 H345 0.930 . S
C328 C327 1.380 . S
C328 C335 1.357 . S
C329 C320 1.511 . S
C329 C330 1.341 . S
C329 C331 1.371 . S
C330 C329 1.341 . S
C330 C334 1.394 . S
C330 H346 0.930 1_554 S
C331 C329 1.371 . S
C331 C332 1.392 . S
C331 H347 0.931 . S
C332 C331 1.392 . S
C332 C333 1.331 . S
C332 H350 0.932 . S
C333 C332 1.331 . S
C333 C334 1.336 . S
C334 C330 1.394 . S
C334 C333 1.336 . S
C334 H349 0.925 1_554 S
C335 C325 1.386 . S
C335 C328 1.357 . S
C335 H348 0.928 1_554 S
H336 C312 0.931 . S
H337 C314 0.930 . S
H338 C316 0.929 . S
H339 C317 0.931 . S
H340 C319 0.930 . S
H341 C323 0.931 . S
H342 C321 0.931 . S
H343 C325 0.931 1_556 S
H344 C326 0.929 . S
H345 C327 0.930 . S
H346 C330 0.930 1_556 S
H347 C331 0.931 . S
H348 C335 0.928 1_556 S
H349 C334 0.925 1_556 S
H350 C332 0.932 . S
C351 C352 1.386 . S
C351 C353 1.397 . S
C351 H375 0.931 . S
C352 C351 1.386 . S
C352 C356 1.397 1_554 S
C353 C351 1.397 . S
C353 C354 1.384 . S
C353 H376 0.930 . S
C354 C353 1.384 . S
C354 C355 1.377 1_554 S
C354 C357 1.481 . S
C355 C354 1.377 1_556 S
C355 C356 1.389 . S
C355 H377 0.929 . S
C356 C352 1.397 1_556 S
C356 C355 1.389 . S
C356 H378 0.931 . S
C357 C354 1.481 . S
C357 C358 1.387 . S
C357 C362 1.390 . S
C358 C357 1.387 . S
C358 C359 1.401 . S
C358 H379 0.930 . S
C359 C358 1.401 . S
C359 C360 1.376 . S
C359 C368 1.511 . S
C360 C359 1.376 . S
C360 C361 1.392 . S
C360 H381 0.931 . S
C361 C360 1.392 . S
C361 C362 1.361 . S
C361 C363 1.500 . S
C362 C357 1.390 . S
C362 C361 1.361 . S
C362 H380 0.931 . S
C363 C361 1.500 . S
C363 C364 1.371 . S
C363 C365 1.365 1_554 S
C364 C363 1.371 . S
C364 C374 1.386 . S
C364 H382 0.931 . S
C365 C363 1.365 1_556 S
C365 C366 1.409 . S
C365 H383 0.929 . S
C366 C365 1.409 . S
C366 C367 1.380 1_556 S
C366 H384 0.930 . S
C367 C366 1.380 1_554 S
C367 C374 1.357 . S
C368 C359 1.511 . S
C368 C369 1.341 . S
C368 C370 1.371 . S
C369 C368 1.341 . S
C369 C373 1.394 . S
C369 H385 0.930 . S
C370 C368 1.371 . S
C370 C371 1.392 . S
C370 H386 0.931 1_554 S
C371 C370 1.392 . S
C371 C372 1.331 . S
C371 H389 0.932 1_554 S
C372 C371 1.331 . S
C372 C373 1.336 . S
C373 C369 1.394 . S
C373 C372 1.336 . S
C373 H388 0.929 . S
C374 C364 1.386 . S
C374 C367 1.357 . S
C374 H387 0.928 . S
H375 C351 0.931 . S
H376 C353 0.930 . S
H377 C355 0.929 . S
H378 C356 0.931 . S
H379 C358 0.930 . S
H380 C362 0.931 . S
H381 C360 0.931 . S
H382 C364 0.931 . S
H383 C365 0.929 . S
H384 C366 0.930 . S
H385 C369 0.930 . S
H386 C370 0.931 1_556 S
H387 C374 0.928 . S
H388 C373 0.929 . S
H389 C371 0.932 1_556 S
C390 C391 1.386 1_556 S
C390 C392 1.397 . S
C390 H414 0.931 . S
C391 C390 1.386 1_554 S
C391 C395 1.397 . S
C392 C390 1.397 . S
C392 C393 1.384 1_556 S
C392 H415 0.930 . S
C393 C392 1.384 1_554 S
C393 C394 1.377 . S
C393 C396 1.481 . S
C394 C393 1.377 . S
C394 C395 1.389 . S
C394 H416 0.929 . S
C395 C391 1.397 . S
C395 C394 1.389 . S
C395 H417 0.931 . S
C396 C393 1.481 . S
C396 C397 1.387 . S
C396 C401 1.390 . S
C397 C396 1.387 . S
C397 C398 1.401 . S
C397 H418 0.930 1_554 S
C398 C397 1.401 . S
C398 C399 1.377 . S
C398 C407 1.510 1_554 S
C399 C398 1.377 . S
C399 C400 1.393 . S
C399 H420 0.930 1_554 S
C400 C399 1.393 . S
C400 C401 1.361 . S
C400 C402 1.500 . S
C401 C396 1.390 . S
C401 C400 1.361 . S
C401 H419 0.931 . S
C402 C400 1.500 . S
C402 C403 1.371 1_554 S
C402 C404 1.365 . S
C403 C402 1.371 1_556 S
C403 C413 1.386 . S
C403 H421 0.931 . S
C404 C402 1.365 . S
C404 C405 1.409 . S
C404 H422 0.929 . S
C405 C404 1.409 . S
C405 C406 1.380 . S
C405 H423 0.930 . S
C406 C405 1.380 . S
C406 C413 1.357 1_554 S
C407 C398 1.510 1_556 S
C407 C408 1.345 . S
C407 C409 1.366 1_556 S
C408 C407 1.345 . S
C408 C412 1.394 . S
C408 H424 0.930 . S
C409 C407 1.366 1_554 S
C409 C410 1.392 . S
C409 H425 0.931 . S
C410 C409 1.392 . S
C410 C411 1.331 . S
C410 H428 0.932 . S
C411 C410 1.331 . S
C411 C412 1.336 1_554 S
C412 C408 1.394 . S
C412 C411 1.336 1_556 S
C412 H427 0.929 . S
C413 C403 1.386 . S
C413 C406 1.357 1_556 S
C413 H426 0.928 . S
H414 C390 0.931 . S
H415 C392 0.930 . S
H416 C394 0.929 . S
H417 C395 0.931 . S
H418 C397 0.930 1_556 S
H419 C401 0.931 . S
H420 C399 0.930 1_556 S
H421 C403 0.931 . S
H422 C404 0.929 . S
H423 C405 0.930 . S
H424 C408 0.930 . S
H425 C409 0.931 . S
H426 C413 0.928 . S
H427 C412 0.929 . S
H428 C410 0.932 . S
C429 C430 1.386 . S
C429 C431 1.397 . S
C429 H453 0.931 . S
C430 C429 1.386 . S
C430 C434 1.397 1_554 S
C431 C429 1.397 . S
C431 C432 1.384 . S
C431 H454 0.930 . S
C432 C431 1.384 . S
C432 C433 1.377 1_554 S
C432 C435 1.481 . S
C433 C432 1.377 1_556 S
C433 C434 1.389 . S
C433 H455 0.929 . S
C434 C430 1.397 1_556 S
C434 C433 1.389 . S
C434 H456 0.931 . S
C435 C432 1.481 . S
C435 C436 1.387 . S
C435 C440 1.390 . S
C436 C435 1.387 . S
C436 C437 1.401 . S
C436 H457 0.930 . S
C437 C436 1.401 . S
C437 C438 1.376 . S
C437 C446 1.511 . S
C438 C437 1.376 . S
C438 C439 1.392 . S
C438 H459 0.931 . S
C439 C438 1.392 . S
C439 C440 1.361 . S
C439 C441 1.500 . S
C440 C435 1.390 . S
C440 C439 1.361 . S
C440 H458 0.931 . S
C441 C439 1.500 . S
C441 C442 1.371 . S
C441 C443 1.365 1_554 S
C442 C441 1.371 . S
C442 C452 1.386 . S
C442 H460 0.931 . S
C443 C441 1.365 1_556 S
C443 C444 1.409 . S
C443 H461 0.929 . S
C444 C443 1.409 . S
C444 C445 1.380 1_556 S
C444 H462 0.930 . S
C445 C444 1.380 1_554 S
C445 C452 1.357 . S
C446 C437 1.511 . S
C446 C447 1.341 . S
C446 C448 1.371 1_554 S
C447 C446 1.341 . S
C447 C451 1.394 . S
C447 H463 0.930 . S
C448 C446 1.371 1_556 S
C448 C449 1.392 . S
C448 H464 0.931 . S
C449 C448 1.392 . S
C449 C450 1.331 1_556 S
C449 H467 0.932 . S
C450 C449 1.331 1_554 S
C450 C451 1.336 . S
C451 C447 1.394 . S
C451 C450 1.336 . S
C451 H466 0.929 . S
C452 C442 1.386 . S
C452 C445 1.357 . S
C452 H465 0.928 . S
H453 C429 0.931 . S
H454 C431 0.930 . S
H455 C433 0.929 . S
H456 C434 0.931 . S
H457 C436 0.930 . S
H458 C440 0.931 . S
H459 C438 0.931 . S
H460 C442 0.931 . S
H461 C443 0.929 . S
H462 C444 0.930 . S
H463 C447 0.930 . S
H464 C448 0.931 . S
H465 C452 0.928 . S
H466 C451 0.929 . S
H467 C449 0.932 . S
C468 C469 1.386 . S
C468 C470 1.397 . S
C468 H492 0.931 . S
C469 C468 1.386 . S
C469 C473 1.397 . S
C470 C468 1.397 . S
C470 C471 1.384 . S
C470 H493 0.930 . S
C471 C470 1.384 . S
C471 C472 1.377 . S
C471 C474 1.481 . S
C472 C471 1.377 . S
C472 C473 1.389 . S
C472 H494 0.929 . S
C473 C469 1.397 . S
C473 C472 1.389 . S
C473 H495 0.931 . S
C474 C471 1.481 . S
C474 C475 1.387 . S
C474 C479 1.390 . S
C475 C474 1.387 . S
C475 C476 1.401 . S
C475 H496 0.930 . S
C476 C475 1.401 . S
C476 C477 1.376 . S
C476 C485 1.511 . S
C477 C476 1.376 . S
C477 C478 1.392 . S
C477 H498 0.931 . S
C478 C477 1.392 . S
C478 C479 1.361 . S
C478 C480 1.500 . S
C479 C474 1.390 . S
C479 C478 1.361 . S
C479 H497 0.931 . S
C480 C478 1.500 . S
C480 C481 1.371 . S
C480 C482 1.365 . S
C481 C480 1.371 . S
C481 C491 1.386 . S
C481 H499 0.931 . S
C482 C480 1.365 . S
C482 C483 1.409 . S
C482 H500 0.929 . S
C483 C482 1.409 . S
C483 C484 1.380 . S
C483 H501 0.930 . S
C484 C483 1.380 . S
C484 C491 1.357 . S
C485 C476 1.511 . S
C485 C486 1.341 . S
C485 C487 1.371 . S
C486 C485 1.341 . S
C486 C490 1.394 . S
C486 H502 0.930 . S
C487 C485 1.371 . S
C487 C488 1.392 . S
C487 H503 0.931 . S
C488 C487 1.392 . S
C488 C489 1.331 . S
C488 H506 0.932 . S
C489 C488 1.331 . S
C489 C490 1.336 . S
C490 C486 1.394 . S
C490 C489 1.336 . S
C490 H505 0.929 . S
C491 C481 1.386 . S
C491 C484 1.357 . S
C491 H504 0.928 . S
H492 C468 0.931 . S
H493 C470 0.930 . S
H494 C472 0.929 . S
H495 C473 0.931 . S
H496 C475 0.930 . S
H497 C479 0.931 . S
H498 C477 0.931 . S
H499 C481 0.931 . S
H500 C482 0.929 . S
H501 C483 0.930 . S
H502 C486 0.930 . S
H503 C487 0.931 . S
H504 C491 0.928 . S
H505 C490 0.929 . S
H506 C488 0.932 . S
C507 C508 1.386 . S
C507 C509 1.397 . S
C507 H531 0.931 . S
C508 C507 1.386 . S
C508 C512 1.397 . S
C509 C507 1.397 . S
C509 C510 1.384 . S
C509 H532 0.930 . S
C510 C509 1.384 . S
C510 C511 1.377 . S
C510 C513 1.481 . S
C511 C510 1.377 . S
C511 C512 1.389 . S
C511 H533 0.929 . S
C512 C508 1.397 . S
C512 C511 1.389 . S
C512 H534 0.931 . S
C513 C510 1.481 . S
C513 C514 1.387 . S
C513 C518 1.390 . S
C514 C513 1.387 . S
C514 C515 1.401 . S
C514 H535 0.930 . S
C515 C514 1.401 . S
C515 C516 1.376 . S
C515 C524 1.511 . S
C516 C515 1.376 . S
C516 C517 1.392 . S
C516 H537 0.931 . S
C517 C516 1.392 . S
C517 C518 1.361 . S
C517 C519 1.500 . S
C518 C513 1.390 . S
C518 C517 1.361 . S
C518 H536 0.931 . S
C519 C517 1.500 . S
C519 C520 1.371 . S
C519 C521 1.365 . S
C520 C519 1.371 . S
C520 C530 1.386 . S
C520 H538 0.931 . S
C521 C519 1.365 . S
C521 C522 1.409 . S
C521 H539 0.929 . S
C522 C521 1.409 . S
C522 C523 1.380 . S
C522 H540 0.930 . S
C523 C522 1.380 . S
C523 C530 1.357 . S
C524 C515 1.511 . S
C524 C525 1.341 . S
C524 C526 1.371 . S
C525 C524 1.341 . S
C525 C529 1.394 . S
C525 H541 0.930 . S
C526 C524 1.371 . S
C526 C527 1.392 . S
C526 H542 0.931 . S
C527 C526 1.392 . S
C527 C528 1.331 . S
C527 H545 0.932 . S
C528 C527 1.331 . S
C528 C529 1.336 . S
C529 C525 1.394 . S
C529 C528 1.336 . S
C529 H544 0.929 . S
C530 C520 1.386 . S
C530 C523 1.357 . S
C530 H543 0.928 . S
H531 C507 0.931 . S
H532 C509 0.930 . S
H533 C511 0.929 . S
H534 C512 0.931 . S
H535 C514 0.930 . S
H536 C518 0.931 . S
H537 C516 0.931 . S
H538 C520 0.931 . S
H539 C521 0.929 . S
H540 C522 0.930 . S
H541 C525 0.930 . S
H542 C526 0.931 . S
H543 C530 0.928 . S
H544 C529 0.929 . S
H545 C527 0.932 . S
C546 C547 1.386 . S
C546 C548 1.397 . S
C546 H570 0.931 . S
C547 C546 1.386 . S
C547 C551 1.397 . S
C548 C546 1.397 . S
C548 C549 1.384 . S
C548 H571 0.930 . S
C549 C548 1.384 . S
C549 C550 1.377 . S
C549 C552 1.481 . S
C550 C549 1.377 . S
C550 C551 1.389 . S
C550 H572 0.929 . S
C551 C547 1.397 . S
C551 C550 1.389 . S
C551 H573 0.931 . S
C552 C549 1.481 . S
C552 C553 1.387 . S
C552 C557 1.390 . S
C553 C552 1.387 . S
C553 C554 1.401 . S
C553 H574 0.930 . S
C554 C553 1.401 . S
C554 C555 1.376 . S
C554 C563 1.511 . S
C555 C554 1.376 . S
C555 C556 1.392 . S
C555 H576 0.931 . S
C556 C555 1.392 . S
C556 C557 1.361 . S
C556 C558 1.500 . S
C557 C552 1.390 . S
C557 C556 1.361 . S
C557 H575 0.931 . S
C558 C556 1.500 . S
C558 C559 1.371 . S
C558 C560 1.365 . S
C559 C558 1.371 . S
C559 C569 1.386 . S
C559 H577 0.931 . S
C560 C558 1.365 . S
C560 C561 1.409 . S
C560 H578 0.929 . S
C561 C560 1.409 . S
C561 C562 1.380 . S
C561 H579 0.930 . S
C562 C561 1.380 . S
C562 C569 1.357 . S
C563 C554 1.511 . S
C563 C564 1.341 . S
C563 C565 1.371 . S
C564 C563 1.341 . S
C564 C568 1.394 . S
C564 H580 0.930 . S
C565 C563 1.371 . S
C565 C566 1.392 . S
C565 H581 0.931 . S
C566 C565 1.392 . S
C566 C567 1.331 . S
C566 H584 0.932 . S
C567 C566 1.331 . S
C567 C568 1.336 . S
C568 C564 1.394 . S
C568 C567 1.336 . S
C568 H583 0.929 . S
C569 C559 1.386 . S
C569 C562 1.357 . S
C569 H582 0.928 . S
H570 C546 0.931 . S
H571 C548 0.930 . S
H572 C550 0.929 . S
H573 C551 0.931 . S
H574 C553 0.930 . S
H575 C557 0.931 . S
H576 C555 0.931 . S
H577 C559 0.931 . S
H578 C560 0.929 . S
H579 C561 0.930 . S
H580 C564 0.930 . S
H581 C565 0.931 . S
H582 C569 0.928 . S
H583 C568 0.929 . S
H584 C566 0.932 . S
C585 C586 1.386 . S
C585 C587 1.397 . S
C585 H609 0.931 . S
C586 C585 1.386 . S
C586 C590 1.397 . S
C587 C585 1.397 . S
C587 C588 1.384 . S
C587 H610 0.930 . S
C588 C587 1.384 . S
C588 C589 1.377 . S
C588 C591 1.481 . S
C589 C588 1.377 . S
C589 C590 1.389 . S
C589 H611 0.929 . S
C590 C586 1.397 . S
C590 C589 1.389 . S
C590 H612 0.931 . S
C591 C588 1.481 . S
C591 C592 1.387 . S
C591 C596 1.390 . S
C592 C591 1.387 . S
C592 C593 1.401 . S
C592 H613 0.930 . S
C593 C592 1.401 . S
C593 C594 1.376 . S
C593 C602 1.511 . S
C594 C593 1.376 . S
C594 C595 1.392 . S
C594 H615 0.931 . S
C595 C594 1.392 . S
C595 C596 1.361 . S
C595 C597 1.500 . S
C596 C591 1.390 . S
C596 C595 1.361 . S
C596 H614 0.931 . S
C597 C595 1.500 . S
C597 C598 1.371 . S
C597 C599 1.365 . S
C598 C597 1.371 . S
C598 C608 1.386 . S
C598 H616 0.931 . S
C599 C597 1.365 . S
C599 C600 1.409 . S
C599 H617 0.929 . S
C600 C599 1.409 . S
C600 C601 1.380 . S
C600 H618 0.930 . S
C601 C600 1.380 . S
C601 C608 1.357 . S
C602 C593 1.511 . S
C602 C603 1.341 . S
C602 C604 1.371 . S
C603 C602 1.341 . S
C603 C607 1.394 . S
C603 H619 0.930 . S
C604 C602 1.371 . S
C604 C605 1.392 . S
C604 H620 0.931 . S
C605 C604 1.392 . S
C605 C606 1.331 . S
C605 H623 0.932 . S
C606 C605 1.331 . S
C606 C607 1.336 . S
C607 C603 1.394 . S
C607 C606 1.336 . S
C607 H622 0.929 . S
C608 C598 1.386 . S
C608 C601 1.357 . S
C608 H621 0.928 . S
H609 C585 0.931 . S
H610 C587 0.930 . S
H611 C589 0.929 . S
H612 C590 0.931 . S
H613 C592 0.930 . S
H614 C596 0.931 . S
H615 C594 0.931 . S
H616 C598 0.931 . S
H617 C599 0.929 . S
H618 C600 0.930 . S
H619 C603 0.930 . S
H620 C604 0.931 . S
H621 C608 0.928 . S
H622 C607 0.929 . S
H623 C605 0.932 . S
C624 C625 1.386 . S
C624 C626 1.397 . S
C624 H648 0.931 . S
C625 C624 1.386 . S
C625 C629 1.397 . S
C626 C624 1.397 . S
C626 C627 1.384 . S
C626 H649 0.930 . S
C627 C626 1.384 . S
C627 C628 1.377 . S
C627 C630 1.481 . S
C628 C627 1.377 . S
C628 C629 1.389 . S
C628 H650 0.929 . S
C629 C625 1.397 . S
C629 C628 1.389 . S
C629 H651 0.931 . S
C630 C627 1.481 . S
C630 C631 1.387 . S
C630 C635 1.390 . S
C631 C630 1.387 . S
C631 C632 1.401 . S
C631 H652 0.930 . S
C632 C631 1.401 . S
C632 C633 1.376 . S
C632 C641 1.511 . S
C633 C632 1.376 . S
C633 C634 1.392 . S
C633 H654 0.931 . S
C634 C633 1.392 . S
C634 C635 1.361 . S
C634 C636 1.500 . S
C635 C630 1.390 . S
C635 C634 1.361 . S
C635 H653 0.931 . S
C636 C634 1.500 . S
C636 C637 1.371 . S
C636 C638 1.365 . S
C637 C636 1.371 . S
C637 C647 1.386 . S
C637 H655 0.931 . S
C638 C636 1.365 . S
C638 C639 1.409 . S
C638 H656 0.929 . S
C639 C638 1.409 . S
C639 C640 1.380 . S
C639 H657 0.930 . S
C640 C639 1.380 . S
C640 C647 1.357 . S
C641 C632 1.511 . S
C641 C642 1.341 . S
C641 C643 1.371 . S
C642 C641 1.341 . S
C642 C646 1.394 . S
C642 H658 0.930 . S
C643 C641 1.371 . S
C643 C644 1.392 . S
C643 H659 0.931 . S
C644 C643 1.392 . S
C644 C645 1.331 . S
C644 H662 0.932 . S
C645 C644 1.331 . S
C645 C646 1.336 . S
C646 C642 1.394 . S
C646 C645 1.336 . S
C646 H661 0.929 . S
C647 C637 1.386 . S
C647 C640 1.357 . S
C647 H660 0.928 . S
H648 C624 0.931 . S
H649 C626 0.930 . S
H650 C628 0.929 . S
H651 C629 0.931 . S
H652 C631 0.930 . S
H653 C635 0.931 . S
H654 C633 0.931 . S
H655 C637 0.931 . S
H656 C638 0.929 . S
H657 C639 0.930 . S
H658 C642 0.930 . S
H659 C643 0.931 . S
H660 C647 0.928 . S
H661 C646 0.929 . S
H662 C644 0.932 . S
C663 C664 1.386 . S
C663 C665 1.397 . S
C663 H687 0.931 . S
C664 C663 1.386 . S
C664 C668 1.397 . S
C665 C663 1.397 . S
C665 C666 1.384 . S
C665 H688 0.930 . S
C666 C665 1.384 . S
C666 C667 1.377 . S
C666 C669 1.481 . S
C667 C666 1.377 . S
C667 C668 1.389 . S
C667 H689 0.929 . S
C668 C664 1.397 . S
C668 C667 1.389 . S
C668 H690 0.931 . S
C669 C666 1.481 . S
C669 C670 1.387 . S
C669 C674 1.390 . S
C670 C669 1.387 . S
C670 C671 1.401 . S
C670 H691 0.930 . S
C671 C670 1.401 . S
C671 C672 1.376 . S
C671 C680 1.511 . S
C672 C671 1.376 . S
C672 C673 1.392 . S
C672 H693 0.931 . S
C673 C672 1.392 . S
C673 C674 1.361 . S
C673 C675 1.500 . S
C674 C669 1.390 . S
C674 C673 1.361 . S
C674 H692 0.931 . S
C675 C673 1.500 . S
C675 C676 1.371 . S
C675 C677 1.365 . S
C676 C675 1.371 . S
C676 C686 1.386 . S
C676 H694 0.931 . S
C677 C675 1.365 . S
C677 C678 1.409 . S
C677 H695 0.929 . S
C678 C677 1.409 . S
C678 C679 1.380 . S
C678 H696 0.930 . S
C679 C678 1.380 . S
C679 C686 1.357 . S
C680 C671 1.511 . S
C680 C681 1.341 . S
C680 C682 1.371 . S
C681 C680 1.341 . S
C681 C685 1.394 . S
C681 H697 0.930 . S
C682 C680 1.371 . S
C682 C683 1.392 . S
C682 H698 0.931 . S
C683 C682 1.392 . S
C683 C684 1.331 . S
C683 H701 0.932 . S
C684 C683 1.331 . S
C684 C685 1.336 . S
C685 C681 1.394 . S
C685 C684 1.336 . S
C685 H700 0.929 . S
C686 C676 1.386 . S
C686 C679 1.357 . S
C686 H699 0.928 . S
H687 C663 0.931 . S
H688 C665 0.930 . S
H689 C667 0.929 . S
H690 C668 0.931 . S
H691 C670 0.930 . S
H692 C674 0.931 . S
H693 C672 0.931 . S
H694 C676 0.931 . S
H695 C677 0.929 . S
H696 C678 0.930 . S
H697 C681 0.930 . S
H698 C682 0.931 . S
H699 C686 0.928 . S
H700 C685 0.929 . S
H701 C683 0.932 . S
C702 C703 1.386 . S
C702 C704 1.397 . S
C702 H726 0.931 . S
C703 C702 1.386 . S
C703 C707 1.397 . S
C704 C702 1.397 . S
C704 C705 1.384 . S
C704 H727 0.930 . S
C705 C704 1.384 . S
C705 C706 1.377 . S
C705 C708 1.481 . S
C706 C705 1.377 . S
C706 C707 1.389 . S
C706 H728 0.929 . S
C707 C703 1.397 . S
C707 C706 1.389 . S
C707 H729 0.931 . S
C708 C705 1.481 . S
C708 C709 1.387 . S
C708 C713 1.390 . S
C709 C708 1.387 . S
C709 C710 1.401 . S
C709 H730 0.930 . S
C710 C709 1.401 . S
C710 C711 1.376 . S
C710 C719 1.511 . S
C711 C710 1.376 . S
C711 C712 1.392 . S
C711 H732 0.931 . S
C712 C711 1.392 . S
C712 C713 1.361 . S
C712 C714 1.500 . S
C713 C708 1.390 . S
C713 C712 1.361 . S
C713 H731 0.931 . S
C714 C712 1.500 . S
C714 C715 1.371 . S
C714 C716 1.365 . S
C715 C714 1.371 . S
C715 C725 1.386 . S
C715 H733 0.931 . S
C716 C714 1.365 . S
C716 C717 1.409 . S
C716 H734 0.929 . S
C717 C716 1.409 . S
C717 C718 1.380 . S
C717 H735 0.930 . S
C718 C717 1.380 . S
C718 C725 1.357 . S
C719 C710 1.511 . S
C719 C720 1.341 . S
C719 C721 1.371 . S
C720 C719 1.341 . S
C720 C724 1.394 . S
C720 H736 0.930 . S
C721 C719 1.371 . S
C721 C722 1.392 . S
C721 H737 0.931 . S
C722 C721 1.392 . S
C722 C723 1.331 . S
C722 H740 0.932 . S
C723 C722 1.331 . S
C723 C724 1.336 . S
C724 C720 1.394 . S
C724 C723 1.336 . S
C724 H739 0.929 . S
C725 C715 1.386 . S
C725 C718 1.357 . S
C725 H738 0.928 . S
H726 C702 0.931 . S
H727 C704 0.930 . S
H728 C706 0.929 . S
H729 C707 0.931 . S
H730 C709 0.930 . S
H731 C713 0.931 . S
H732 C711 0.931 . S
H733 C715 0.931 . S
H734 C716 0.929 . S
H735 C717 0.930 . S
H736 C720 0.930 . S
H737 C721 0.931 . S
H738 C725 0.928 . S
H739 C724 0.929 . S
H740 C722 0.932 . S
C741 C742 1.386 . S
C741 C743 1.397 . S
C741 H765 0.931 . S
C742 C741 1.386 . S
C742 C746 1.397 . S
C743 C741 1.397 . S
C743 C744 1.384 . S
C743 H766 0.930 . S
C744 C743 1.384 . S
C744 C745 1.377 . S
C744 C747 1.481 . S
C745 C744 1.377 . S
C745 C746 1.389 . S
C745 H767 0.929 . S
C746 C742 1.397 . S
C746 C745 1.389 . S
C746 H768 0.931 . S
C747 C744 1.481 . S
C747 C748 1.387 . S
C747 C752 1.390 . S
C748 C747 1.387 . S
C748 C749 1.401 . S
C748 H769 0.930 . S
C749 C748 1.401 . S
C749 C750 1.376 . S
C749 C758 1.511 . S
C750 C749 1.376 . S
C750 C751 1.392 . S
C750 H771 0.931 . S
C751 C750 1.392 . S
C751 C752 1.361 . S
C751 C753 1.500 . S
C752 C747 1.390 . S
C752 C751 1.361 . S
C752 H770 0.931 . S
C753 C751 1.500 . S
C753 C754 1.371 . S
C753 C755 1.365 . S
C754 C753 1.371 . S
C754 C764 1.386 . S
C754 H772 0.931 . S
C755 C753 1.365 . S
C755 C756 1.409 . S
C755 H773 0.929 . S
C756 C755 1.409 . S
C756 C757 1.380 . S
C756 H774 0.930 . S
C757 C756 1.380 . S
C757 C764 1.357 . S
C758 C749 1.511 . S
C758 C759 1.341 . S
C758 C760 1.371 . S
C759 C758 1.341 . S
C759 C763 1.394 . S
C759 H775 0.930 . S
C760 C758 1.371 . S
C760 C761 1.392 . S
C760 H776 0.931 . S
C761 C760 1.392 . S
C761 C762 1.331 . S
C761 H779 0.932 . S
C762 C761 1.331 . S
C762 C763 1.336 . S
C763 C759 1.394 . S
C763 C762 1.336 . S
C763 H778 0.929 . S
C764 C754 1.386 . S
C764 C757 1.357 . S
C764 H777 0.928 . S
H765 C741 0.931 . S
H766 C743 0.930 . S
H767 C745 0.929 . S
H768 C746 0.931 . S
H769 C748 0.930 . S
H770 C752 0.931 . S
H771 C750 0.931 . S
H772 C754 0.931 . S
H773 C755 0.929 . S
H774 C756 0.930 . S
H775 C759 0.930 . S
H776 C760 0.931 . S
H777 C764 0.928 . S
H778 C763 0.929 . S
H779 C761 0.932 . S
C780 C781 1.386 . S
C780 C782 1.397 . S
C780 H804 0.931 . S
C781 C780 1.386 . S
C781 C785 1.397 . S
C782 C780 1.397 . S
C782 C783 1.384 . S
C782 H805 0.930 . S
C783 C782 1.384 . S
C783 C784 1.377 . S
C783 C786 1.481 . S
C784 C783 1.377 . S
C784 C785 1.389 . S
C784 H806 0.929 . S
C785 C781 1.397 . S
C785 C784 1.389 . S
C785 H807 0.931 . S
C786 C783 1.481 . S
C786 C787 1.387 . S
C786 C791 1.390 . S
C787 C786 1.387 . S
C787 C788 1.401 . S
C787 H808 0.930 . S
C788 C787 1.401 . S
C788 C789 1.376 . S
C788 C797 1.511 . S
C789 C788 1.376 . S
C789 C790 1.392 . S
C789 H810 0.931 . S
C790 C789 1.392 . S
C790 C791 1.361 . S
C790 C792 1.500 . S
C791 C786 1.390 . S
C791 C790 1.361 . S
C791 H809 0.931 . S
C792 C790 1.500 . S
C792 C793 1.371 . S
C792 C794 1.365 . S
C793 C792 1.371 . S
C793 C803 1.386 . S
C793 H811 0.931 . S
C794 C792 1.365 . S
C794 C795 1.409 . S
C794 H812 0.929 . S
C795 C794 1.409 . S
C795 C796 1.380 . S
C795 H813 0.930 . S
C796 C795 1.380 . S
C796 C803 1.357 . S
C797 C788 1.511 . S
C797 C798 1.341 . S
C797 C799 1.371 . S
C798 C797 1.341 . S
C798 C802 1.394 . S
C798 H814 0.930 . S
C799 C797 1.371 . S
C799 C800 1.392 . S
C799 H815 0.931 . S
C800 C799 1.392 . S
C800 C801 1.331 . S
C800 H818 0.932 . S
C801 C800 1.331 . S
C801 C802 1.336 . S
C802 C798 1.394 . S
C802 C801 1.336 . S
C802 H817 0.929 . S
C803 C793 1.386 . S
C803 C796 1.357 . S
C803 H816 0.928 . S
H804 C780 0.931 . S
H805 C782 0.930 . S
H806 C784 0.929 . S
H807 C785 0.931 . S
H808 C787 0.930 . S
H809 C791 0.931 . S
H810 C789 0.931 . S
H811 C793 0.931 . S
H812 C794 0.929 . S
H813 C795 0.930 . S
H814 C798 0.930 . S
H815 C799 0.931 . S
H816 C803 0.928 . S
H817 C802 0.929 . S
H818 C800 0.932 . S
C819 C820 1.386 . S
C819 C821 1.397 . S
C819 H843 0.931 . S
C820 C819 1.386 . S
C820 C824 1.397 . S
C821 C819 1.397 . S
C821 C822 1.384 . S
C821 H844 0.930 . S
C822 C821 1.384 . S
C822 C823 1.377 . S
C822 C825 1.481 . S
C823 C822 1.377 . S
C823 C824 1.389 . S
C823 H845 0.929 . S
C824 C820 1.397 . S
C824 C823 1.389 . S
C824 H846 0.931 . S
C825 C822 1.481 . S
C825 C826 1.387 . S
C825 C830 1.390 . S
C826 C825 1.387 . S
C826 C827 1.401 . S
C826 H847 0.930 . S
C827 C826 1.401 . S
C827 C828 1.376 . S
C827 C836 1.511 . S
C828 C827 1.376 . S
C828 C829 1.392 . S
C828 H849 0.931 . S
C829 C828 1.392 . S
C829 C830 1.361 . S
C829 C831 1.500 . S
C830 C825 1.390 . S
C830 C829 1.361 . S
C830 H848 0.931 . S
C831 C829 1.500 . S
C831 C832 1.371 . S
C831 C833 1.365 . S
C832 C831 1.371 . S
C832 C842 1.386 . S
C832 H850 0.931 . S
C833 C831 1.365 . S
C833 C834 1.409 . S
C833 H851 0.929 . S
C834 C833 1.409 . S
C834 C835 1.380 . S
C834 H852 0.930 . S
C835 C834 1.380 . S
C835 C842 1.357 . S
C836 C827 1.511 . S
C836 C837 1.341 . S
C836 C838 1.371 . S
C837 C836 1.341 . S
C837 C841 1.394 . S
C837 H853 0.930 . S
C838 C836 1.371 . S
C838 C839 1.392 . S
C838 H854 0.931 . S
C839 C838 1.392 . S
C839 C840 1.331 . S
C839 H857 0.932 . S
C840 C839 1.331 . S
C840 C841 1.336 . S
C841 C837 1.394 . S
C841 C840 1.336 . S
C841 H856 0.929 . S
C842 C832 1.386 . S
C842 C835 1.357 . S
C842 H855 0.928 . S
H843 C819 0.931 . S
H844 C821 0.930 . S
H845 C823 0.929 . S
H846 C824 0.931 . S
H847 C826 0.930 . S
H848 C830 0.931 . S
H849 C828 0.931 . S
H850 C832 0.931 . S
H851 C833 0.929 . S
H852 C834 0.930 . S
H853 C837 0.930 . S
H854 C838 0.931 . S
H855 C842 0.928 . S
H856 C841 0.929 . S
H857 C839 0.932 . S
C858 C859 1.386 . S
C858 C860 1.397 . S
C858 H882 0.931 . S
C859 C858 1.386 . S
C859 C863 1.397 . S
C860 C858 1.397 . S
C860 C861 1.384 . S
C860 H883 0.930 . S
C861 C860 1.384 . S
C861 C862 1.377 . S
C861 C864 1.481 . S
C862 C861 1.377 . S
C862 C863 1.389 . S
C862 H884 0.929 . S
C863 C859 1.397 . S
C863 C862 1.389 . S
C863 H885 0.931 . S
C864 C861 1.481 . S
C864 C865 1.387 . S
C864 C869 1.390 . S
C865 C864 1.387 . S
C865 C866 1.401 . S
C865 H886 0.930 . S
C866 C865 1.401 . S
C866 C867 1.376 . S
C866 C875 1.511 . S
C867 C866 1.376 . S
C867 C868 1.392 . S
C867 H888 0.931 . S
C868 C867 1.392 . S
C868 C869 1.361 . S
C868 C870 1.500 . S
C869 C864 1.390 . S
C869 C868 1.361 . S
C869 H887 0.931 . S
C870 C868 1.500 . S
C870 C871 1.371 . S
C870 C872 1.365 . S
C871 C870 1.371 . S
C871 C881 1.386 . S
C871 H889 0.931 . S
C872 C870 1.365 . S
C872 C873 1.409 . S
C872 H890 0.929 . S
C873 C872 1.409 . S
C873 C874 1.380 . S
C873 H891 0.930 . S
C874 C873 1.380 . S
C874 C881 1.357 . S
C875 C866 1.511 . S
C875 C876 1.341 . S
C875 C877 1.371 . S
C876 C875 1.341 . S
C876 C880 1.394 . S
C876 H892 0.930 . S
C877 C875 1.371 . S
C877 C878 1.392 . S
C877 H893 0.931 . S
C878 C877 1.392 . S
C878 C879 1.331 . S
C878 H896 0.932 . S
C879 C878 1.331 . S
C879 C880 1.336 . S
C880 C876 1.394 . S
C880 C879 1.336 . S
C880 H895 0.929 . S
C881 C871 1.386 . S
C881 C874 1.357 . S
C881 H894 0.928 . S
H882 C858 0.931 . S
H883 C860 0.930 . S
H884 C862 0.929 . S
H885 C863 0.931 . S
H886 C865 0.930 . S
H887 C869 0.931 . S
H888 C867 0.931 . S
H889 C871 0.931 . S
H890 C872 0.929 . S
H891 C873 0.930 . S
H892 C876 0.930 . S
H893 C877 0.931 . S
H894 C881 0.928 . S
H895 C880 0.929 . S
H896 C878 0.932 . S
C897 C898 1.386 . S
C897 C899 1.397 . S
C897 H921 0.931 . S
C898 C897 1.386 . S
C898 C902 1.397 . S
C899 C897 1.397 . S
C899 C900 1.384 . S
C899 H922 0.930 . S
C900 C899 1.384 . S
C900 C901 1.377 . S
C900 C903 1.481 . S
C901 C900 1.377 . S
C901 C902 1.389 . S
C901 H923 0.929 . S
C902 C898 1.397 . S
C902 C901 1.389 . S
C902 H924 0.931 . S
C903 C900 1.481 . S
C903 C904 1.387 . S
C903 C908 1.390 . S
C904 C903 1.387 . S
C904 C905 1.401 . S
C904 H925 0.930 . S
C905 C904 1.401 . S
C905 C906 1.376 . S
C905 C914 1.511 . S
C906 C905 1.376 . S
C906 C907 1.392 . S
C906 H927 0.931 . S
C907 C906 1.392 . S
C907 C908 1.361 . S
C907 C909 1.500 . S
C908 C903 1.390 . S
C908 C907 1.361 . S
C908 H926 0.931 . S
C909 C907 1.500 . S
C909 C910 1.371 . S
C909 C911 1.365 . S
C910 C909 1.371 . S
C910 C920 1.386 . S
C910 H928 0.931 . S
C911 C909 1.365 . S
C911 C912 1.409 . S
C911 H929 0.929 . S
C912 C911 1.409 . S
C912 C913 1.380 . S
C912 H930 0.930 . S
C913 C912 1.380 . S
C913 C920 1.357 . S
C914 C905 1.511 . S
C914 C915 1.341 . S
C914 C916 1.371 . S
C915 C914 1.341 . S
C915 C919 1.394 . S
C915 H931 0.930 . S
C916 C914 1.371 . S
C916 C917 1.392 . S
C916 H932 0.931 . S
C917 C916 1.392 . S
C917 C918 1.331 . S
C917 H935 0.932 . S
C918 C917 1.331 . S
C918 C919 1.336 . S
C919 C915 1.394 . S
C919 C918 1.336 . S
C919 H934 0.929 . S
C920 C910 1.386 . S
C920 C913 1.357 . S
C920 H933 0.928 . S
H921 C897 0.931 . S
H922 C899 0.930 . S
H923 C901 0.929 . S
H924 C902 0.931 . S
H925 C904 0.930 . S
H926 C908 0.931 . S
H927 C906 0.931 . S
H928 C910 0.931 . S
H929 C911 0.929 . S
H930 C912 0.930 . S
H931 C915 0.930 . S
H932 C916 0.931 . S
H933 C920 0.928 . S
H934 C919 0.929 . S
H935 C917 0.932 . S
Zn936 O938 1.933 1_565 S
Zn936 O956 1.985 . S
Zn936 O967 1.955 . S
Zn937 O938 1.911 . S
Zn937 O957 1.970 . S
Zn937 O973 1.945 . S
Zn937 O980 1.981 . S
O938 Zn936 1.933 1_545 S
O938 Zn937 1.911 . S
O938 H939 0.841 1_655 S
H939 O938 0.841 1_455 S
C940 O941 1.246 . S
C940 O969 1.276 . S
O941 C940 1.246 . S
Zn942 O944 1.911 . S
Zn942 O959 1.970 . S
Zn942 O976 1.945 . S
Zn942 O983 1.981 . S
Zn943 O944 1.933 1_565 S
Zn943 O958 1.985 . S
Zn943 O965 1.955 . S
O944 Zn942 1.911 . S
O944 Zn943 1.933 1_545 S
O944 H945 0.841 . S
H945 O944 0.841 . S
Zn946 O947 1.933 1_565 S
Zn946 O960 1.985 . S
Zn946 O969 1.955 . S
O947 Zn946 1.933 1_545 S
O947 Zn948 1.911 . S
O947 H949 0.841 . S
Zn948 O947 1.911 . S
Zn948 O961 1.970 . S
Zn948 O977 1.981 1_655 S
Zn948 O979 1.945 . S
H949 O947 0.841 . S
Zn950 O951 1.933 1_565 S
Zn950 O963 1.985 . S
Zn950 O971 1.955 . S
O951 Zn950 1.933 1_545 S
O951 H952 0.841 . S
O951 Zn953 1.911 . S
H952 O951 0.841 . S
Zn953 O951 1.911 . S
Zn953 O964 1.970 . S
Zn953 O974 1.981 . S
Zn953 O982 1.945 . S
C954 O955 1.246 . S
C954 O971 1.276 . S
O955 C954 1.246 . S
O956 Zn936 1.985 . S
O956 C966 1.245 1_565 S
O957 Zn937 1.970 . S
O957 C966 1.263 . S
O958 Zn943 1.985 . S
O958 C970 1.245 1_565 S
O959 Zn942 1.970 . S
O959 C970 1.263 . S
O960 Zn946 1.985 . S
O960 C975 1.245 1_565 S
O961 Zn948 1.970 . S
O961 C975 1.263 . S
C962 O973 1.262 1_455 S
C962 O974 1.245 . S
O963 Zn950 1.985 . S
O963 C981 1.245 1_565 S
O964 Zn953 1.970 . S
O964 C981 1.263 . S
O965 Zn943 1.955 . S
O965 C984 1.276 . S
C966 O956 1.245 1_545 S
C966 O957 1.263 . S
O967 Zn936 1.955 . S
O967 C986 1.276 1_655 S
C968 O976 1.262 . S
C968 O977 1.245 . S
O969 C940 1.276 . S
O969 Zn946 1.955 . S
C970 O958 1.245 1_545 S
C970 O959 1.263 . S
O971 Zn950 1.955 . S
O971 C954 1.276 . S
C972 O979 1.262 . S
C972 O980 1.245 . S
O973 Zn937 1.945 . S
O973 C962 1.262 1_655 S
O974 Zn953 1.981 . S
O974 C962 1.245 . S
C975 O960 1.245 1_545 S
C975 O961 1.263 . S
O976 Zn942 1.945 . S
O976 C968 1.262 . S
O977 Zn948 1.981 1_455 S
O977 C968 1.245 . S
C978 O982 1.262 . S
C978 O983 1.245 . S
O979 Zn948 1.945 . S
O979 C972 1.262 . S
O980 Zn937 1.981 . S
O980 C972 1.245 . S
C981 O963 1.245 1_545 S
C981 O964 1.263 . S
O982 Zn953 1.945 . S
O982 C978 1.262 . S
O983 Zn942 1.981 . S
O983 C978 1.245 . S
C984 O965 1.276 . S
C984 O985 1.246 1_455 S
O985 C984 1.246 1_655 S
C986 O967 1.276 1_455 S
C986 O987 1.246 . S
O987 C986 1.246 . S
Zn988 O990 1.933 . S
Zn988 O1008 1.985 . S
Zn988 O1019 1.955 . S
Zn989 O990 1.911 1_556 S
Zn989 O1009 1.970 . S
Zn989 O1025 1.945 . S
Zn989 O1032 1.981 . S
O990 Zn988 1.933 . S
O990 Zn989 1.911 1_554 S
O990 H991 0.841 . S
H991 O990 0.841 . S
C992 O993 1.246 . S
C992 O1021 1.276 . S
O993 C992 1.246 . S
Zn994 O996 1.911 1_556 S
Zn994 O1011 1.970 . S
Zn994 O1028 1.945 . S
Zn994 O1035 1.981 . S
Zn995 O996 1.933 . S
Zn995 O1010 1.985 . S
Zn995 O1017 1.955 . S
O996 Zn994 1.911 1_554 S
O996 Zn995 1.933 . S
O996 H997 0.841 1_565 S
H997 O996 0.841 1_545 S
Zn998 O999 1.933 . S
Zn998 O1012 1.985 . S
Zn998 O1021 1.955 . S
O999 Zn998 1.933 . S
O999 Zn1000 1.911 1_554 S
O999 H1001 0.841 . S
Zn1000 O999 1.911 1_556 S
Zn1000 O1013 1.970 . S
Zn1000 O1029 1.981 . S
Zn1000 O1031 1.945 . S
H1001 O999 0.841 . S
Zn1002 O1003 1.933 . S
Zn1002 O1015 1.985 . S
Zn1002 O1023 1.955 . S
O1003 Zn1002 1.933 . S
O1003 H1004 0.841 . S
O1003 Zn1005 1.911 1_554 S
H1004 O1003 0.841 . S
Zn1005 O1003 1.911 1_556 S
Zn1005 O1016 1.970 . S
Zn1005 O1026 1.986 . S
Zn1005 O1034 1.945 . S
C1006 O1007 1.246 . S
C1006 O1023 1.276 . S
O1007 C1006 1.246 . S
O1008 Zn988 1.985 . S
O1008 C1018 1.245 . S
O1009 Zn989 1.970 . S
O1009 C1018 1.263 1_556 S
O1010 Zn995 1.985 . S
O1010 C1022 1.245 . S
O1011 Zn994 1.970 . S
O1011 C1022 1.263 1_556 S
O1012 Zn998 1.985 . S
O1012 C1027 1.245 . S
O1013 Zn1000 1.970 . S
O1013 C1027 1.263 1_556 S
C1014 O1025 1.262 . S
C1014 O1026 1.242 1_545 S
O1015 Zn1002 1.985 . S
O1015 C1033 1.245 . S
O1016 Zn1005 1.970 . S
O1016 C1033 1.263 1_556 S
O1017 Zn995 1.955 . S
O1017 C1036 1.276 1_565 S
C1018 O1008 1.245 . S
C1018 O1009 1.263 1_554 S
O1019 Zn988 1.955 . S
O1019 C1038 1.276 . S
C1020 O1028 1.262 1_545 S
C1020 O1029 1.245 . S
O1021 C992 1.276 . S
O1021 Zn998 1.955 . S
C1022 O1010 1.245 . S
C1022 O1011 1.263 1_554 S
O1023 Zn1002 1.955 . S
O1023 C1006 1.276 . S
C1024 O1031 1.262 . S
C1024 O1032 1.245 . S
O1025 Zn989 1.945 . S
O1025 C1014 1.262 . S
O1026 Zn1005 1.986 . S
O1026 C1014 1.242 1_565 S
C1027 O1012 1.245 . S
C1027 O1013 1.263 1_554 S
O1028 Zn994 1.945 . S
O1028 C1020 1.262 1_565 S
O1029 Zn1000 1.981 . S
O1029 C1020 1.245 . S
C1030 O1034 1.262 . S
C1030 O1035 1.245 . S
O1031 Zn1000 1.945 . S
O1031 C1024 1.262 . S
O1032 Zn989 1.981 . S
O1032 C1024 1.245 . S
C1033 O1015 1.245 . S
C1033 O1016 1.263 1_554 S
O1034 Zn1005 1.945 . S
O1034 C1030 1.262 . S
O1035 Zn994 1.981 . S
O1035 C1030 1.245 . S
C1036 O1017 1.276 1_545 S
C1036 O1037 1.246 . S
O1037 C1036 1.246 . S
C1038 O1019 1.276 . S
C1038 O1039 1.246 1_545 S
O1039 C1038 1.246 1_565 S
Zn1040 O1042 1.933 . S
Zn1040 O1060 1.985 . S
Zn1040 O1071 1.955 . S
Zn1041 O1042 1.911 . S
Zn1041 O1061 1.970 . S
Zn1041 O1077 1.945 . S
Zn1041 O1084 1.981 . S
O1042 Zn1040 1.933 . S
O1042 Zn1041 1.911 . S
O1042 H1043 0.841 1_655 S
H1043 O1042 0.841 1_455 S
C1044 O1045 1.246 1_554 S
C1044 O1073 1.276 . S
O1045 C1044 1.246 1_556 S
Zn1046 O1048 1.911 . S
Zn1046 O1063 1.970 . S
Zn1046 O1080 1.945 . S
Zn1046 O1087 1.981 . S
Zn1047 O1048 1.933 . S
Zn1047 O1062 1.985 . S
Zn1047 O1069 1.955 . S
O1048 Zn1046 1.911 . S
O1048 Zn1047 1.933 . S
O1048 H1049 0.841 . S
H1049 O1048 0.841 . S
Zn1050 O1051 1.933 . S
Zn1050 O1064 1.985 . S
Zn1050 O1073 1.955 . S
O1051 Zn1050 1.933 . S
O1051 Zn1052 1.911 . S
O1051 H1053 0.841 . S
Zn1052 O1051 1.911 . S
Zn1052 O1065 1.970 . S
Zn1052 O1081 1.981 . S
Zn1052 O1083 1.945 . S
H1053 O1051 0.841 . S
Zn1054 O1055 1.933 . S
Zn1054 O1067 1.985 . S
Zn1054 O1075 1.955 . S
O1055 Zn1054 1.933 . S
O1055 H1056 0.817 1_556 S
O1055 Zn1057 1.911 . S
H1056 O1055 0.817 1_554 S
Zn1057 O1055 1.911 . S
Zn1057 O1068 1.970 . S
Zn1057 O1078 1.981 . S
Zn1057 O1086 1.945 . S
C1058 O1059 1.246 . S
C1058 O1075 1.276 1_554 S
O1059 C1058 1.246 . S
O1060 Zn1040 1.985 . S
O1060 C1070 1.245 . S
O1061 Zn1041 1.970 . S
O1061 C1070 1.263 . S
O1062 Zn1047 1.985 . S
O1062 C1074 1.245 . S
O1063 Zn1046 1.970 . S
O1063 C1074 1.263 . S
O1064 Zn1050 1.985 . S
O1064 C1079 1.245 . S
O1065 Zn1052 1.970 . S
O1065 C1079 1.263 . S
C1066 O1077 1.262 1_455 S
C1066 O1078 1.245 . S
O1067 Zn1054 1.985 . S
O1067 C1085 1.245 . S
O1068 Zn1057 1.970 . S
O1068 C1085 1.263 . S
O1069 Zn1047 1.955 . S
O1069 C1088 1.276 . S
C1070 O1060 1.245 . S
C1070 O1061 1.263 . S
O1071 Zn1040 1.955 . S
O1071 C1090 1.276 1_655 S
C1072 O1080 1.262 . S
C1072 O1081 1.245 1_455 S
O1073 C1044 1.276 . S
O1073 Zn1050 1.955 . S
C1074 O1062 1.245 . S
C1074 O1063 1.263 . S
O1075 Zn1054 1.955 . S
O1075 C1058 1.276 1_556 S
C1076 O1083 1.262 . S
C1076 O1084 1.245 1_554 S
O1077 Zn1041 1.945 . S
O1077 C1066 1.262 1_655 S
O1078 Zn1057 1.981 . S
O1078 C1066 1.245 . S
C1079 O1064 1.245 . S
C1079 O1065 1.263 . S
O1080 Zn1046 1.945 . S
O1080 C1072 1.262 . S
O1081 Zn1052 1.981 . S
O1081 C1072 1.245 1_655 S
C1082 O1086 1.262 1_554 S
C1082 O1087 1.245 . S
O1083 Zn1052 1.945 . S
O1083 C1076 1.262 . S
O1084 Zn1041 1.981 . S
O1084 C1076 1.245 1_556 S
C1085 O1067 1.245 . S
C1085 O1068 1.263 . S
O1086 Zn1057 1.945 . S
O1086 C1082 1.262 1_556 S
O1087 Zn1046 1.981 . S
O1087 C1082 1.245 . S
C1088 O1069 1.276 . S
C1088 O1089 1.246 . S
O1089 C1088 1.246 . S
C1090 O1071 1.276 1_455 S
C1090 O1091 1.246 . S
O1091 C1090 1.246 . S
Zn1092 O1094 1.933 1_556 S
Zn1092 O1112 1.985 . S
Zn1092 O1123 1.955 . S
Zn1093 O1094 1.911 . S
Zn1093 O1113 1.970 . S
Zn1093 O1129 1.945 . S
Zn1093 O1136 1.981 . S
O1094 Zn1092 1.933 1_554 S
O1094 Zn1093 1.911 . S
O1094 H1095 0.841 . S
H1095 O1094 0.841 . S
C1096 O1097 1.246 . S
C1096 O1125 1.276 . S
O1097 C1096 1.246 . S
Zn1098 O1100 1.911 . S
Zn1098 O1115 1.970 . S
Zn1098 O1132 1.945 . S
Zn1098 O1139 1.981 . S
Zn1099 O1100 1.933 1_556 S
Zn1099 O1114 1.985 . S
Zn1099 O1121 1.955 . S
O1100 Zn1098 1.911 . S
O1100 Zn1099 1.933 1_554 S
O1100 H1101 0.841 . S
H1101 O1100 0.841 . S
Zn1102 O1103 1.933 1_556 S
Zn1102 O1116 1.985 . S
Zn1102 O1125 1.955 . S
O1103 Zn1102 1.933 1_554 S
O1103 Zn1104 1.911 . S
O1103 H1105 0.841 . S
Zn1104 O1103 1.911 . S
Zn1104 O1117 1.970 . S
Zn1104 O1133 1.981 . S
Zn1104 O1135 1.945 . S
H1105 O1103 0.841 . S
Zn1106 O1107 1.933 1_556 S
Zn1106 O1119 1.985 . S
Zn1106 O1127 1.955 . S
O1107 Zn1106 1.933 1_554 S
O1107 H1108 0.841 . S
O1107 Zn1109 1.911 . S
H1108 O1107 0.841 . S
Zn1109 O1107 1.911 . S
Zn1109 O1120 1.970 . S
Zn1109 O1130 1.981 . S
Zn1109 O1138 1.945 . S
C1110 O1111 1.246 . S
C1110 O1127 1.276 . S
O1111 C1110 1.246 . S
O1112 Zn1092 1.985 . S
O1112 C1122 1.245 1_556 S
O1113 Zn1093 1.970 . S
O1113 C1122 1.263 . S
O1114 Zn1099 1.985 . S
O1114 C1126 1.245 1_556 S
O1115 Zn1098 1.970 . S
O1115 C1126 1.263 . S
O1116 Zn1102 1.985 . S
O1116 C1131 1.245 1_556 S
O1117 Zn1104 1.970 . S
O1117 C1131 1.263 . S
C1118 O1129 1.262 . S
C1118 O1130 1.245 . S
O1119 Zn1106 1.985 . S
O1119 C1137 1.245 1_556 S
O1120 Zn1109 1.970 . S
O1120 C1137 1.263 . S
O1121 Zn1099 1.955 . S
O1121 C1140 1.276 . S
C1122 O1112 1.245 1_554 S
C1122 O1113 1.263 . S
O1123 Zn1092 1.955 . S
O1123 C1142 1.276 . S
C1124 O1132 1.262 . S
C1124 O1133 1.245 . S
O1125 C1096 1.276 . S
O1125 Zn1102 1.955 . S
C1126 O1114 1.245 1_554 S
C1126 O1115 1.263 . S
O1127 Zn1106 1.955 . S
O1127 C1110 1.276 . S
C1128 O1135 1.262 . S
C1128 O1136 1.245 . S
O1129 Zn1093 1.945 . S
O1129 C1118 1.262 . S
O1130 Zn1109 1.981 . S
O1130 C1118 1.245 . S
C1131 O1116 1.245 1_554 S
C1131 O1117 1.263 . S
O1132 Zn1098 1.945 . S
O1132 C1124 1.262 . S
O1133 Zn1104 1.981 . S
O1133 C1124 1.245 . S
C1134 O1138 1.262 . S
C1134 O1139 1.245 . S
O1135 Zn1104 1.945 . S
O1135 C1128 1.262 . S
O1136 Zn1093 1.981 . S
O1136 C1128 1.245 . S
C1137 O1119 1.245 1_554 S
C1137 O1120 1.263 . S
O1138 Zn1109 1.945 . S
O1138 C1134 1.262 . S
O1139 Zn1098 1.981 . S
O1139 C1134 1.245 . S
C1140 O1121 1.276 . S
C1140 O1141 1.246 . S
O1141 C1140 1.246 . S
C1142 O1123 1.276 . S
C1142 O1143 1.246 . S
O1143 C1142 1.246 . S
Zn1144 O1146 1.933 . S
Zn1144 O1164 1.985 . S
Zn1144 O1175 1.955 . S
Zn1145 O1146 1.911 . S
Zn1145 O1165 1.970 . S
Zn1145 O1181 1.945 . S
Zn1145 O1188 1.981 . S
O1146 Zn1144 1.933 . S
O1146 Zn1145 1.911 . S
O1146 H1147 0.841 1_655 S
H1147 O1146 0.841 1_455 S
C1148 O1149 1.246 . S
C1148 O1177 1.276 . S
O1149 C1148 1.246 . S
Zn1150 O1152 1.911 . S
Zn1150 O1167 1.970 . S
Zn1150 O1184 1.945 . S
Zn1150 O1191 1.981 . S
Zn1151 O1152 1.933 . S
Zn1151 O1166 1.985 . S
Zn1151 O1173 1.955 . S
O1152 Zn1150 1.911 . S
O1152 Zn1151 1.933 . S
O1152 H1153 0.841 . S
H1153 O1152 0.841 . S
Zn1154 O1155 1.933 . S
Zn1154 O1168 1.985 . S
Zn1154 O1177 1.955 . S
O1155 Zn1154 1.933 . S
O1155 Zn1156 1.911 . S
O1155 H1157 0.841 . S
Zn1156 O1155 1.911 . S
Zn1156 O1169 1.970 . S
Zn1156 O1185 1.981 . S
Zn1156 O1187 1.945 . S
H1157 O1155 0.841 . S
Zn1158 O1159 1.933 . S
Zn1158 O1171 1.985 . S
Zn1158 O1179 1.955 . S
O1159 Zn1158 1.933 . S
O1159 H1160 0.841 . S
O1159 Zn1161 1.911 . S
H1160 O1159 0.841 . S
Zn1161 O1159 1.911 . S
Zn1161 O1172 1.970 . S
Zn1161 O1182 1.981 . S
Zn1161 O1190 1.945 . S
C1162 O1163 1.246 . S
C1162 O1179 1.276 . S
O1163 C1162 1.246 . S
O1164 Zn1144 1.985 . S
O1164 C1174 1.245 . S
O1165 Zn1145 1.970 . S
O1165 C1174 1.263 . S
O1166 Zn1151 1.985 . S
O1166 C1178 1.245 . S
O1167 Zn1150 1.970 . S
O1167 C1178 1.263 . S
O1168 Zn1154 1.985 . S
O1168 C1183 1.245 . S
O1169 Zn1156 1.970 . S
O1169 C1183 1.263 . S
C1170 O1181 1.262 1_455 S
C1170 O1182 1.245 . S
O1171 Zn1158 1.985 . S
O1171 C1189 1.245 . S
O1172 Zn1161 1.970 . S
O1172 C1189 1.263 . S
O1173 Zn1151 1.955 . S
O1173 C1192 1.276 . S
C1174 O1164 1.245 . S
C1174 O1165 1.263 . S
O1175 Zn1144 1.955 . S
O1175 C1194 1.276 1_655 S
C1176 O1184 1.262 . S
C1176 O1185 1.245 1_455 S
O1177 C1148 1.276 . S
O1177 Zn1154 1.955 . S
C1178 O1166 1.245 . S
C1178 O1167 1.263 . S
O1179 Zn1158 1.955 . S
O1179 C1162 1.276 . S
C1180 O1187 1.262 . S
C1180 O1188 1.245 . S
O1181 Zn1145 1.945 . S
O1181 C1170 1.262 1_655 S
O1182 Zn1161 1.981 . S
O1182 C1170 1.245 . S
C1183 O1168 1.245 . S
C1183 O1169 1.263 . S
O1184 Zn1150 1.945 . S
O1184 C1176 1.262 . S
O1185 Zn1156 1.981 . S
O1185 C1176 1.245 1_655 S
C1186 O1190 1.262 . S
C1186 O1191 1.245 . S
O1187 Zn1156 1.945 . S
O1187 C1180 1.262 . S
O1188 Zn1145 1.981 . S
O1188 C1180 1.245 . S
C1189 O1171 1.245 . S
C1189 O1172 1.263 . S
O1190 Zn1161 1.945 . S
O1190 C1186 1.262 . S
O1191 Zn1150 1.981 . S
O1191 C1186 1.245 . S
C1192 O1173 1.276 . S
C1192 O1193 1.237 1_455 S
O1193 C1192 1.237 1_655 S
C1194 O1175 1.276 1_455 S
C1194 O1195 1.246 . S
O1195 C1194 1.246 . S
Zn1196 O1198 1.933 1_565 S
Zn1196 O1216 1.985 . S
Zn1196 O1227 1.955 . S
Zn1197 O1198 1.911 . S
Zn1197 O1217 1.970 . S
Zn1197 O1233 1.945 . S
Zn1197 O1240 1.981 . S
O1198 Zn1196 1.933 1_545 S
O1198 Zn1197 1.911 . S
O1198 H1199 0.841 . S
H1199 O1198 0.841 . S
C1200 O1201 1.246 . S
C1200 O1229 1.276 . S
O1201 C1200 1.246 . S
Zn1202 O1204 1.911 . S
Zn1202 O1219 1.970 . S
Zn1202 O1236 1.945 . S
Zn1202 O1243 1.981 . S
Zn1203 O1204 1.933 1_565 S
Zn1203 O1218 1.985 . S
Zn1203 O1225 1.955 . S
O1204 Zn1202 1.911 . S
O1204 Zn1203 1.933 1_545 S
O1204 H1205 0.841 . S
H1205 O1204 0.841 . S
Zn1206 O1207 1.933 1_565 S
Zn1206 O1220 1.985 . S
Zn1206 O1229 1.955 . S
O1207 Zn1206 1.933 1_545 S
O1207 Zn1208 1.911 . S
O1207 H1209 0.841 . S
Zn1208 O1207 1.911 . S
Zn1208 O1221 1.970 . S
Zn1208 O1237 1.981 . S
Zn1208 O1239 1.945 . S
H1209 O1207 0.841 . S
Zn1210 O1211 1.933 1_565 S
Zn1210 O1223 1.985 . S
Zn1210 O1231 1.955 . S
O1211 Zn1210 1.933 1_545 S
O1211 H1212 0.841 . S
O1211 Zn1213 1.911 . S
H1212 O1211 0.841 . S
Zn1213 O1211 1.911 . S
Zn1213 O1224 1.970 . S
Zn1213 O1234 1.981 . S
Zn1213 O1242 1.945 . S
C1214 O1215 1.246 . S
C1214 O1231 1.276 . S
O1215 C1214 1.246 . S
O1216 Zn1196 1.985 . S
O1216 C1226 1.245 1_565 S
O1217 Zn1197 1.970 . S
O1217 C1226 1.263 . S
O1218 Zn1203 1.985 . S
O1218 C1230 1.245 1_565 S
O1219 Zn1202 1.970 . S
O1219 C1230 1.263 . S
O1220 Zn1206 1.985 . S
O1220 C1235 1.245 1_565 S
O1221 Zn1208 1.970 . S
O1221 C1235 1.263 . S
C1222 O1233 1.262 . S
C1222 O1234 1.245 . S
O1223 Zn1210 1.985 . S
O1223 C1241 1.245 1_565 S
O1224 Zn1213 1.970 . S
O1224 C1241 1.263 . S
O1225 Zn1203 1.955 . S
O1225 C1244 1.276 . S
C1226 O1216 1.245 1_545 S
C1226 O1217 1.263 . S
O1227 Zn1196 1.955 . S
O1227 C1246 1.276 . S
C1228 O1236 1.262 . S
C1228 O1237 1.245 . S
O1229 C1200 1.276 . S
O1229 Zn1206 1.955 . S
C1230 O1218 1.245 1_545 S
C1230 O1219 1.263 . S
O1231 Zn1210 1.955 . S
O1231 C1214 1.276 . S
C1232 O1239 1.262 . S
C1232 O1240 1.245 . S
O1233 Zn1197 1.945 . S
O1233 C1222 1.262 . S
O1234 Zn1213 1.981 . S
O1234 C1222 1.245 . S
C1235 O1220 1.245 1_545 S
C1235 O1221 1.263 . S
O1236 Zn1202 1.945 . S
O1236 C1228 1.262 . S
O1237 Zn1208 1.981 . S
O1237 C1228 1.245 . S
C1238 O1242 1.262 . S
C1238 O1243 1.245 . S
O1239 Zn1208 1.945 . S
O1239 C1232 1.262 . S
O1240 Zn1197 1.981 . S
O1240 C1232 1.245 . S
C1241 O1223 1.245 1_545 S
C1241 O1224 1.263 . S
O1242 Zn1213 1.945 . S
O1242 C1238 1.262 . S
O1243 Zn1202 1.981 . S
O1243 C1238 1.245 . S
C1244 O1225 1.276 . S
C1244 O1245 1.246 . S
O1245 C1244 1.246 . S
C1246 O1227 1.276 . S
C1246 O1247 1.246 . S
O1247 C1246 1.246 . S
C978 C898 1.048 . S
C820 C972 0.972 . S
C940 C781 1.112 . S
C859 C954 1.130 . S
C992 C625 1.668 . S
C1079 C664 1.014 . S
C703 C1006 1.838 . S
C1074 C742 0.509 . S
C469 C1030 1.733 . S
C1085 C508 1.104 . S
C547 C1024 1.789 . S
C586 C1070 0.609 . S
C1126 C430 0.508 . S
C352 C1137 0.974 . S
C313 C1122 0.638 . S
C1131 C391 1.087 . S
C157 C1176 1.189 1_655 S
C196 C1235 0.400 . S
C235 C1192 1.215 . S
C274 C1230 0.802 . S
C1194 C1 1.283 . S
C1241 C40 0.594 . S
C79 C1170 1.009 . S
C1226 C118 0.804 . S
C962 C16 3.174 . S
C60 C966 3.060 . S
C99 C986 3.297 . S
C133 C981 2.717 . S
C172 C984 3.270 . S
C970 C211 3.030 . S
C255 C968 3.211 . S
C975 C294 2.847 . S
C1038 C138 3.460 . S
C21 C1088 3.438 . S
C1036 C55 2.729 . S
C1072 C94 3.265 . S
C216 C1014 2.719 . S
C1090 C250 3.334 . S
C1020 C289 3.305 . S
C1066 C177 3.400 1_455 S
C1058 C328 3.416 . S
C367 C1082 3.520 . S
C1018 C333 3.175 . S
C1044 C411 3.571 . S
C445 C1022 2.978 . S
C450 C1076 3.511 . S
C1033 C372 3.392 . S
C1027 C406 3.412 . S
C1110 C484 3.668 . S
C1142 C528 3.702 . S
C567 C1096 3.696 . S
C1140 C601 3.015 . S
C1128 C640 3.592 . S
C679 C1124 3.634 . S
C723 C1134 3.812 . S
C1118 C762 3.103 . S
C1183 C606 3.525 . S
C489 C1244 3.620 . S
C1178 C523 3.154 . S
C1228 C562 3.618 . S
C1174 C684 3.111 . S
C718 C1246 3.398 . S
C1189 C757 3.322 . S
C1222 C645 3.442 . S
C1214 C796 3.381 . S
C835 C1238 3.256 . S
C1180 C801 2.971 . S
C879 C1200 3.365 . S
C1162 C913 2.990 . S
C1232 C918 3.404 . S
C1148 C840 3.242 . S
C874 C1186 3.078 . S
