# Generated by pormake.
# Topology zzz, (3,6)-cn, num edge types: 1
# Building blocks:
#     Node 0, Type 0, BuildingBlock: QEWDON_clean_linker_0, # of connection points: 3
#     Node 1, Type 0, BuildingBlock: QEWDON_clean_linker_0, # of connection points: 3
#     Node 2, Type 0, BuildingBlock: QEWDON_clean_linker_0, # of connection points: 3
#     Node 3, Type 0, BuildingBlock: QEWDON_clean_linker_0, # of connection points: 3
#     Node 4, Type 0, BuildingBlock: QEWDON_clean_linker_0, # of connection points: 3
#     Node 5, Type 0, BuildingBlock: QEWDON_clean_linker_0, # of connection points: 3
#     Node 6, Type 0, BuildingBlock: QEWDON_clean_linker_0, # of connection points: 3
#     Node 7, Type 0, BuildingBlock: QEWDON_clean_linker_0, # of connection points: 3
#     Node 8, Type 1, BuildingBlock: PAMTUU_clean_sbu_0, # of connection points: 6
#     Node 9, Type 1, BuildingBlock: PAMTUU_clean_sbu_0, # of connection points: 6
#     Node 10, Type 1, BuildingBlock: PAMTUU_clean_sbu_0, # of connection points: 6
#     Node 11, Type 1, BuildingBlock: PAMTUU_clean_sbu_0, # of connection points: 6
#     Edge 12, Type (0, 1), BuildingBlock: KIFKEQ_clean_linker_1, # of connection points: 2
#     Edge 13, Type (0, 1), BuildingBlock: KIFKEQ_clean_linker_1, # of connection points: 2
#     Edge 14, Type (0, 1), BuildingBlock: KIFKEQ_clean_linker_1, # of connection points: 2
#     Edge 15, Type (0, 1), BuildingBlock: KIFKEQ_clean_linker_1, # of connection points: 2
#     Edge 16, Type (0, 1), BuildingBlock: KIFKEQ_clean_linker_1, # of connection points: 2
#     Edge 17, Type (0, 1), BuildingBlock: KIFKEQ_clean_linker_1, # of connection points: 2
#     Edge 18, Type (0, 1), BuildingBlock: KIFKEQ_clean_linker_1, # of connection points: 2
#     Edge 19, Type (0, 1), BuildingBlock: KIFKEQ_clean_linker_1, # of connection points: 2
#     Edge 20, Type (0, 1), BuildingBlock: KIFKEQ_clean_linker_1, # of connection points: 2
#     Edge 21, Type (0, 1), BuildingBlock: KIFKEQ_clean_linker_1, # of connection points: 2
#     Edge 22, Type (0, 1), BuildingBlock: KIFKEQ_clean_linker_1, # of connection points: 2
#     Edge 23, Type (0, 1), BuildingBlock: KIFKEQ_clean_linker_1, # of connection points: 2
#     Edge 24, Type (0, 1), BuildingBlock: KIFKEQ_clean_linker_1, # of connection points: 2
#     Edge 25, Type (0, 1), BuildingBlock: KIFKEQ_clean_linker_1, # of connection points: 2
#     Edge 26, Type (0, 1), BuildingBlock: KIFKEQ_clean_linker_1, # of connection points: 2
#     Edge 27, Type (0, 1), BuildingBlock: KIFKEQ_clean_linker_1, # of connection points: 2
#     Edge 28, Type (0, 1), BuildingBlock: KIFKEQ_clean_linker_1, # of connection points: 2
#     Edge 29, Type (0, 1), BuildingBlock: KIFKEQ_clean_linker_1, # of connection points: 2
#     Edge 30, Type (0, 1), BuildingBlock: KIFKEQ_clean_linker_1, # of connection points: 2
#     Edge 31, Type (0, 1), BuildingBlock: KIFKEQ_clean_linker_1, # of connection points: 2
#     Edge 32, Type (0, 1), BuildingBlock: KIFKEQ_clean_linker_1, # of connection points: 2
#     Edge 33, Type (0, 1), BuildingBlock: KIFKEQ_clean_linker_1, # of connection points: 2
#     Edge 34, Type (0, 1), BuildingBlock: KIFKEQ_clean_linker_1, # of connection points: 2
#     Edge 35, Type (0, 1), BuildingBlock: KIFKEQ_clean_linker_1, # of connection points: 2
# Relax obj value: 0.133
# Max RMSD: 0.204
# Mean RMSD: 0.080
data_MOF--net-zzz--node1-PAMTUU_clean_sbu_0--node2-QEWDON_clean_linker_0--edge1-KIFKEQ_clean_linker_1
_symmetry_space_group_name_H-M    P1
_symmetry_Int_Tables_number       1
_symmetry_cell_setting            triclinic
loop_
_symmetry_equiv_pos_as_xyz
'x, y, z'
_cell_length_a     55.372645
_cell_length_b     58.943698
_cell_length_c     15.39019
_cell_angle_alpha  100.81856
_cell_angle_beta   90.366061
_cell_angle_gamma 91.304993
loop_
_atom_site_label
_atom_site_type_symbol
_atom_site_fract_x
_atom_site_fract_y
_atom_site_fract_z
_atom_type_partial_charge
H0 H 0.76976 0.53798 0.3615 0.0
C1 C 0.78318 0.53386 0.40711 0.0
C2 C 0.80648 0.54304 0.40288 0.0
C3 C 0.77734 0.51975 0.46874 0.0
H4 H 0.84259 0.54528 0.4552 0.0
C5 C 0.82434 0.53884 0.46222 0.0
C6 C 0.81974 0.5252 0.52588 0.0
C7 C 0.79613 0.51519 0.52775 0.0
C8 C 0.75142 0.51104 0.47252 0.0
H9 H 0.79256 0.50412 0.57505 0.0
C10 C 0.73511 0.50846 0.39829 0.0
C11 C 0.71022 0.50267 0.40582 0.0
C12 C 0.74217 0.50689 0.55309 0.0
H13 H 0.75338 0.50912 0.61202 0.0
C14 C 0.71791 0.50073 0.56052 0.0
H15 H 0.74161 0.51071 0.3343 0.0
C16 C 0.70211 0.49887 0.48849 0.0
H17 H 0.68326 0.49495 0.49868 0.0
H18 H 0.71114 0.49792 0.62357 0.0
H19 H 0.9992 0.74738 0.2607 0.0
C20 C 0.99843 0.76163 0.31621 0.0
C21 C 1.00907 0.78287 0.30738 0.0
C22 C 0.98659 0.75918 0.39544 0.0
H23 H 1.01403 0.81874 0.36601 0.0
C24 C 1.00666 0.80209 0.37481 0.0
C25 C 0.99417 0.80055 0.45185 0.0
C26 C 0.98502 0.77896 0.46388 0.0
C27 C 0.97522 0.73641 0.40552 0.0
H28 H 0.97633 0.77794 0.52581 0.0
C29 C 0.98384 0.71517 0.3586 0.0
C30 C 0.97279 0.69383 0.36698 0.0
C31 C 0.95521 0.73573 0.4612 0.0
H32 H 0.94716 0.75137 0.49576 0.0
C33 C 0.94481 0.71474 0.47237 0.0
H34 H 0.99898 0.71517 0.31473 0.0
C35 C 0.95355 0.69399 0.42635 0.0
H36 H 0.94509 0.67806 0.43746 0.0
H37 H 0.92967 0.71457 0.51643 0.0
H38 H 0.78473 0.03307 0.32608 0.0
C39 C 0.77318 0.02864 0.37714 0.0
C40 C 0.75399 0.04319 0.40617 0.0
C41 C 0.7766 0.00809 0.4097 0.0
H42 H 0.72222 0.04797 0.48663 0.0
C43 C 0.73772 0.03724 0.46803 0.0
C44 C 0.73953 0.0166 0.49954 0.0
C45 C 0.75921 1.00214 0.47104 0.0
C46 C 0.7972 0.99242 0.37448 0.0
H47 H 0.76078 0.98648 0.49741 0.0
C48 C 0.81865 1.00064 0.33721 0.0
C49 C 0.83726 0.98535 0.30282 0.0
C50 C 0.79513 0.96856 0.37472 0.0
H51 H 0.77906 0.96101 0.39823 0.0
C52 C 0.8135 0.95362 0.34212 0.0
H53 H 0.82129 0.01881 0.33612 0.0
C54 C 0.83431 0.96186 0.30689 0.0
H55 H 0.848 0.94965 0.28085 0.0
H56 H 0.81144 0.93536 0.34309 0.0
H57 H 0.52982 0.7402 0.03893 0.0
C58 C 0.53157 0.73658 0.10513 0.0
C59 C 0.52218 0.71548 0.12365 0.0
C60 C 0.54495 0.7521 0.17048 0.0
H61 H 0.51969 0.69381 0.22152 0.0
C62 C 0.52575 0.71045 0.20812 0.0
C63 C 0.54005 0.72467 0.27173 0.0
C64 C 0.54954 0.74556 0.25322 0.0
C65 C 0.55841 0.77257 0.14776 0.0
H66 H 0.56128 0.75625 0.30168 0.0
C67 C 0.54712 0.79097 0.11583 0.0
C68 C 0.56129 0.80979 0.09582 0.0
C69 C 0.58365 0.77344 0.15882 0.0
H70 H 0.59285 0.75964 0.1821 0.0
C71 C 0.59746 0.79181 0.13932 0.0
H72 H 0.52769 0.79064 0.10667 0.0
C73 C 0.58646 0.80976 0.10823 0.0
H74 H 0.59775 0.82386 0.09415 0.0
H75 H 0.61688 0.79213 0.1483 0.0
H76 H 0.29338 0.49738 0.39663 0.0
C77 C 0.28016 0.49515 0.34364 0.0
C78 C 0.25602 0.49238 0.36568 0.0
C79 C 0.28711 0.49646 0.25712 0.0
H80 H 0.2192 0.48907 0.3181 0.0
C81 C 0.23801 0.49049 0.30006 0.0
C82 C 0.24362 0.49216 0.21279 0.0
C83 C 0.26835 0.49517 0.19124 0.0
C84 C 0.31365 0.50131 0.24123 0.0
H85 H 0.27273 0.49636 0.12385 0.0
C86 C 0.33244 0.49617 0.29876 0.0
C87 C 0.35671 0.50396 0.29233 0.0
C88 C 0.32034 0.51319 0.17367 0.0
H89 H 0.30702 0.518 0.12921 0.0
C90 C 0.34433 0.52012 0.16461 0.0
H91 H 0.32842 0.48608 0.3489 0.0
C92 C 0.3622 0.51589 0.22358 0.0
H93 H 0.38029 0.52258 0.21632 0.0
H94 H 0.349 0.52954 0.11284 0.0
H95 H 0.04028 0.26545 0.38546 0.0
C96 C 0.04747 0.25189 0.33564 0.0
C97 C 0.05078 0.23015 0.35691 0.0
C98 C 0.05252 0.25579 0.24972 0.0
H99 H 0.06004 0.19495 0.30885 0.0
C100 C 0.05872 0.21203 0.29253 0.0
C101 C 0.06263 0.21493 0.20569 0.0
C102 C 0.05971 0.23691 0.18429 0.0
C103 C 0.04889 0.27922 0.22847 0.0
H104 H 0.06299 0.23915 0.11711 0.0
C105 C 0.05325 0.29932 0.2933 0.0
C106 C 0.04766 0.32141 0.27728 0.0
C107 C 0.03988 0.28171 0.14522 0.0
H108 H 0.03585 0.26678 0.09416 0.0
C109 C 0.03509 0.30357 0.12771 0.0
H110 H 0.06098 0.29778 0.35666 0.0
C111 C 0.0387 0.32324 0.19319 0.0
H112 H 0.03378 0.3398 0.17848 0.0
H113 H 0.02791 0.30522 0.06366 0.0
H114 H 0.26648 0.97692 0.35161 0.0
C115 C 0.28068 0.98243 0.31172 0.0
C116 C 0.30239 0.97063 0.30572 0.0
C117 C 0.27711 1.00042 0.26449 0.0
H118 H 0.33779 0.9673 0.24969 0.0
C119 C 0.32094 0.97645 0.25213 0.0
C120 C 0.31864 0.99431 0.20452 0.0
C121 C 0.29675 0.00664 0.21221 0.0
C122 C 0.25238 0.01107 0.2651 0.0
H123 H 0.29504 0.02066 0.17639 0.0
C124 C 0.23555 0.01123 0.33577 0.0
C125 C 0.21162 0.0193 0.33032 0.0
C126 C 0.24461 0.0196 0.19042 0.0
H127 H 0.25612 0.01926 0.13374 0.0
C128 C 0.22135 0.02778 0.18516 0.0
H129 H 0.24096 1.00535 0.39526 0.0
C130 C 0.20503 0.02747 0.25343 0.0
H131 H 0.1869 0.0332 0.24451 0.0
H132 H 0.21571 0.03394 0.12642 0.0
H133 H 0.54805 0.26408 0.631 0.0
C134 C 0.53752 0.2692 0.57863 0.0
C135 C 0.53189 0.29265 0.58379 0.0
C136 C 0.53108 0.25276 0.50201 0.0
H137 H 0.51561 0.31758 0.51824 0.0
C138 C 0.51922 0.29938 0.5146 0.0
C139 C 0.51396 0.28392 0.43636 0.0
C140 C 0.5199 0.26055 0.42984 0.0
C141 C 0.54023 0.22863 0.48904 0.0
H142 H 0.51661 0.24864 0.36793 0.0
C143 C 0.53322 0.21228 0.54227 0.0
C144 C 0.54161 0.18921 0.52228 0.0
C145 C 0.55624 0.22183 0.41909 0.0
H146 H 0.56209 0.23394 0.37805 0.0
C147 C 0.565 0.19952 0.40118 0.0
H148 H 0.52074 0.21717 0.5961 0.0
C149 C 0.55773 0.18338 0.45173 0.0
H150 H 0.56483 0.16614 0.43552 0.0
H151 H 0.57741 0.19464 0.34719 0.0
Tb152 Tb 1.01088 0.01606 0.76853 0.0
Tb153 Tb 0.04463 0.99726 0.91154 0.0
C154 C 0.98908 1.00513 0.94451 0.0
C155 C 0.99277 0.05567 0.63079 0.0
C156 C 1.0045 0.10054 0.60372 0.0
C157 C 0.98045 0.09206 0.59457 0.0
C158 C 0.97462 0.0698 0.6085 0.0
C159 C 1.01683 0.06381 0.63726 0.0
C160 C 1.02263 0.08601 0.62421 0.0
C161 C 0.98653 0.03444 0.66297 0.0
O162 O 0.03397 0.04506 0.82747 0.0
O163 O 0.0439 0.03463 0.95932 0.0
O164 O 0.07068 0.00961 0.82383 0.0
O165 O 0.04578 0.00809 0.70288 0.0
O166 O 0.05032 0.99103 0.0403 0.0
O167 O 0.07525 0.97899 0.93602 0.0
O168 O 0.03609 0.96852 0.8044 0.0
O169 O 1.00004 0.97988 0.75682 0.0
O170 O 0.99007 0.02 0.89085 0.0
O171 O 1.00702 0.99104 0.94742 0.0
C172 C 0.04196 0.05038 0.90929 0.0
O173 O 1.0004 0.01687 0.63739 0.0
O174 O 0.98289 0.03783 0.74775 0.0
C175 C 0.06764 0.00934 0.73873 0.0
C176 C 0.06373 0.95299 0.02523 0.0
C177 C 0.05643 0.90593 0.03311 0.0
C178 C 0.07665 0.91844 0.07501 0.0
C179 C 0.08032 0.94182 0.07077 0.0
C180 C 0.04366 0.94053 0.98318 0.0
C181 C 0.04011 0.91726 0.98657 0.0
C182 C 0.06783 0.97699 0.01431 0.0
C183 C 1.01502 0.96352 0.76557 0.0
H184 H 0.96612 0.1027 0.57761 0.0
H185 H 0.9559 0.06391 0.60484 0.0
H186 H 0.03107 0.05336 0.65633 0.0
H187 H 0.04126 0.09205 0.63333 0.0
H188 H 0.0894 0.91028 0.11231 0.0
H189 H 0.09606 0.95112 0.10273 0.0
H190 H 0.03078 0.94878 0.9468 0.0
H191 H 1.02459 0.90812 0.95231 0.0
Tb192 Tb 0.51989 0.99078 0.75988 0.0
Tb193 Tb 0.53985 0.01851 0.94871 0.0
C194 C 0.53396 0.96455 0.91232 0.0
C195 C 0.47841 0.95512 0.60273 0.0
C196 C 0.43311 0.93223 0.57076 0.0
C197 C 0.45385 0.92264 0.52728 0.0
C198 C 0.47633 0.93403 0.54322 0.0
C199 C 0.45798 0.96423 0.64891 0.0
C200 C 0.43557 0.95294 0.63303 0.0
C201 C 0.50198 0.96712 0.61955 0.0
O202 O 0.48904 0.99055 0.84829 0.0
O203 O 0.50032 0.02072 0.95893 0.0
O204 O 0.54312 0.04279 0.85787 0.0
O205 O 0.51334 0.02739 0.76018 0.0
O206 O 0.5608 0.02009 0.06365 0.0
O207 O 0.53993 0.04924 0.04364 0.0
O208 O 0.57255 0.00729 0.8728 0.0
O209 O 0.55715 0.99971 0.73087 0.0
O210 O 0.53623 0.96559 0.82834 0.0
O211 O 0.53083 0.98356 0.97087 0.0
C212 C 0.48374 1.00594 0.91882 0.0
O213 O 0.50166 0.98958 0.63893 0.0
O214 O 0.51626 0.95884 0.67245 0.0
C215 C 0.52771 0.04488 0.79488 0.0
C216 C 0.57806 0.05721 0.11136 0.0
C217 C 0.62066 0.08384 0.15916 0.0
C218 C 0.59934 0.08868 0.20804 0.0
C219 C 0.57826 0.07535 0.18458 0.0
C220 C 0.59865 0.05346 0.05856 0.0
C221 C 0.61978 0.06651 0.08245 0.0
C222 C 0.55661 0.04196 0.09106 0.0
C223 C 0.57572 1.00321 0.78621 0.0
H224 H 0.45258 0.90663 0.47945 0.0
H225 H 0.49203 0.92653 0.5083 0.0
H226 H 0.45923 0.98038 0.69593 0.0
H227 H 0.41999 0.9611 0.66654 0.0
H228 H 0.5992 0.10218 0.26644 0.0
H229 H 0.56233 0.07878 0.22503 0.0
H230 H 0.5987 0.03979 0.00074 0.0
H231 H 0.63577 0.06196 0.04354 0.0
Tb232 Tb 0.51484 0.49709 0.92757 0.0
Tb233 Tb 0.55098 0.51101 0.7754 0.0
C234 C 0.49495 0.50312 0.7403 0.0
C235 C 0.49164 0.46093 0.08131 0.0
C236 C 0.49487 0.41828 0.14108 0.0
C237 C 0.47331 0.43079 0.15 0.0
C238 C 0.4717 0.45178 0.11997 0.0
C239 C 0.51338 0.44896 0.07465 0.0
C240 C 0.51496 0.42787 0.10367 0.0
C241 C 0.48897 0.48139 0.03922 0.0
O242 O 0.5366 0.46734 0.88168 0.0
O243 O 0.54823 0.47304 0.7442 0.0
O244 O 0.57574 0.5014 0.87337 0.0
O245 O 0.55015 0.50667 0.99259 0.0
O246 O 0.55787 0.51233 0.64189 0.0
O247 O 0.58156 0.52983 0.74545 0.0
O248 O 0.54405 0.54177 0.87288 0.0
O249 O 0.50697 0.53326 0.92484 0.0
O250 O 0.49402 0.4907 0.80291 0.0
O251 O 0.51402 0.5163 0.73317 0.0
C252 C 0.54459 0.4594 0.80212 0.0
O253 O 0.50481 0.49828 0.06052 0.0
O254 O 0.48533 0.47654 0.95414 0.0
C255 C 0.5721 0.50403 0.95932 0.0
C256 C 0.5726 0.5497 0.63074 0.0
C257 C 0.56798 0.59282 0.57603 0.0
C258 C 0.5882 0.579 0.55168 0.0
C259 C 0.59045 0.55766 0.57871 0.0
C260 C 0.5525 0.56347 0.6557 0.0
C261 C 0.55018 0.58472 0.62851 0.0
C262 C 0.57533 0.52768 0.66256 0.0
C263 C 0.52335 0.54843 0.9085 0.0
H264 H 0.45757 0.42436 0.17996 0.0
H265 H 0.45469 0.46064 0.1254 0.0
H266 H 0.529 0.45566 0.04482 0.0
H267 H 0.5318 0.4188 0.09431 0.0
H268 H 0.60214 0.58454 0.51067 0.0
H269 H 0.60618 0.5474 0.55919 0.0
H270 H 0.53865 0.55786 0.69691 0.0
H271 H 0.53457 0.59498 0.64972 0.0
Tb272 Tb 0.04099 0.51975 0.79917 0.0
Tb273 Tb 1.02045 0.4896 0.93754 0.0
C274 C 1.01928 0.54378 0.97644 0.0
C275 C 0.08908 0.54278 0.69235 0.0
C276 C 0.13848 0.53676 0.72179 0.0
C277 C 0.1283 0.55849 0.74918 0.0
C278 C 0.10374 0.56148 0.73453 0.0
C279 C 0.09978 0.52156 0.65936 0.0
C280 C 0.12418 0.5186 0.67405 0.0
C281 C 0.06277 0.54349 0.70488 0.0
O282 O 0.07083 0.51744 0.89236 0.0
O283 O 0.05958 0.48452 0.94137 0.0
O284 O 1.02387 0.46496 0.81491 0.0
O285 O 0.05163 0.48456 0.74549 0.0
O286 O 1.02018 0.48267 0.06676 0.0
O287 O 0.99655 0.46381 0.96563 0.0
O288 O 0.98819 0.50283 0.88117 0.0
O289 O 1.00369 0.51146 0.75286 0.0
O290 O 1.01992 0.5434 0.89139 0.0
O291 O 1.02368 0.52522 0.00863 0.0
C292 C 0.0763 0.50003 0.93092 0.0
O293 O 0.05033 0.52471 0.67162 0.0
O294 O 0.0566 0.55162 0.7861 0.0
C295 C 0.03952 0.46554 0.75179 0.0
C296 C 0.97862 0.48063 0.09884 0.0
C297 C 0.9387 0.50932 0.13955 0.0
C298 C 0.9357 0.48727 0.08641 0.0
C299 C 0.95545 0.47299 0.06663 0.0
C300 C 0.98103 0.50159 0.15979 0.0
C301 C 0.9613 0.51586 0.17943 0.0
C302 C 1.00002 0.47067 0.05044 0.0
C303 C 0.98504 0.50743 0.80124 0.0
H304 H 0.1391 0.57288 0.78457 0.0
H305 H 0.09586 0.57794 0.76147 0.0
H306 H 0.0891 0.50673 0.62677 0.0
H307 H 0.13179 0.50191 0.64879 0.0
H308 H 0.91826 0.48136 0.05746 0.0
H309 H 0.95296 0.45685 0.02011 0.0
H310 H 0.99855 0.50799 0.1866 0.0
H311 H 0.96417 0.53262 0.22157 0.0
H312 H 0.20356 0.9866 0.437 0.0
H313 H 0.17646 0.05102 0.38612 0.0
H314 H 0.16978 0.9841 0.53775 0.0
H315 H 0.14261 0.04802 0.48336 0.0
H316 H 0.06991 0.02061 0.5731 0.0
H317 H 0.10544 0.02316 0.48147 0.0
H318 H 0.1507 1.00332 0.68234 0.0
H319 H 0.11515 1.00099 0.77467 0.0
C320 C 0.19068 1.00038 0.44773 0.0
C321 C 0.19283 0.01881 0.40131 0.0
C322 C 0.17115 0.99887 0.50536 0.0
C323 C 0.15303 0.01563 0.51775 0.0
C324 C 0.15574 0.03445 0.4741 0.0
C325 C 0.17531 0.03612 0.41783 0.0
C326 C 0.0874 0.01675 0.59795 0.0
C327 C 0.08947 0.01063 0.68182 0.0
C328 C 0.10788 0.01834 0.54541 0.0
C329 C 0.13114 0.01351 0.57414 0.0
C330 C 0.13318 0.00703 0.65745 0.0
C331 C 0.11273 1.00583 0.71075 0.0
H332 H 0.52338 0.14649 0.45079 0.0
H333 H 0.54348 0.18864 0.70193 0.0
H334 H 0.51843 0.11296 0.52029 0.0
H335 H 0.53783 0.15496 0.7734 0.0
H336 H 0.55673 0.08386 0.84346 0.0
H337 H 0.55679 0.11955 0.78492 0.0
H338 H 0.49664 0.09287 0.6131 0.0
H339 H 0.49707 0.05694 0.66998 0.0
C340 C 0.52621 0.14871 0.52165 0.0
C341 C 0.53386 0.17036 0.57056 0.0
C342 C 0.52326 0.12938 0.56192 0.0
C343 C 0.52783 0.13089 0.653 0.0
C344 C 0.53447 0.15285 0.70294 0.0
C345 C 0.53737 0.17233 0.66231 0.0
C346 C 0.54344 0.08557 0.79332 0.0
C347 C 0.52701 0.06723 0.76125 0.0
C348 C 0.54334 0.10626 0.76007 0.0
C349 C 0.52677 0.1094 0.69358 0.0
C350 C 0.51 0.09119 0.66298 0.0
C351 C 0.51015 0.07048 0.69606 0.0
H352 H 0.40523 0.49571 0.26296 0.0
H353 H 0.35309 0.50531 0.47324 0.0
H354 H 0.43751 0.49509 0.37033 0.0
H355 H 0.38557 0.50425 0.58096 0.0
H356 H 0.44978 0.48206 0.74249 0.0
H357 H 0.41632 0.48075 0.63652 0.0
H358 H 0.45926 0.52134 0.48624 0.0
H359 H 0.49258 0.52259 0.59149 0.0
C360 C 0.40051 0.49776 0.3321 0.0
C361 C 0.37625 0.50088 0.35848 0.0
C362 C 0.4192 0.4974 0.39414 0.0
C363 C 0.41445 0.49994 0.48526 0.0
C364 C 0.39011 0.50213 0.51163 0.0
C365 C 0.37135 0.50265 0.4494 0.0
C366 C 0.45213 0.49073 0.68688 0.0
C367 C 0.47412 0.5024 0.67614 0.0
C368 C 0.4328 0.49007 0.62606 0.0
C369 C 0.43489 0.50083 0.5518 0.0
C370 C 0.45689 0.51251 0.54139 0.0
C371 C 0.47608 0.51337 0.6025 0.0
H372 H 0.03872 0.32434 0.45427 0.0
H373 H 0.06112 0.36601 0.26463 0.0
H374 H 0.03981 0.35842 0.57039 0.0
H375 H 0.06048 0.40045 0.37997 0.0
H376 H 0.07403 0.45714 0.62248 0.0
H377 H 0.0786 0.42207 0.51114 0.0
H378 H 1.01651 0.3911 0.61662 0.0
H379 H 1.01256 0.42553 0.72899 0.0
C380 C 0.04409 0.34071 0.43716 0.0
C381 C 0.04976 0.34227 0.34944 0.0
C382 C 0.04432 0.36042 0.50384 0.0
C383 C 0.0499 0.38237 0.48478 0.0
C384 C 0.05623 0.38389 0.39759 0.0
C385 C 0.05625 0.3641 0.33095 0.0
C386 C 0.06148 0.44275 0.62214 0.0
C387 C 0.04298 0.44417 0.68499 0.0
C388 C 0.06401 0.42267 0.55792 0.0
C389 C 0.04799 0.40359 0.55466 0.0
C390 C 0.02956 0.40512 0.61786 0.0
C391 C 0.02717 0.42504 0.68226 0.0
H392 H 0.88419 0.9775 0.34233 0.0
H393 H 0.84154 0.00921 0.16506 0.0
H394 H 0.92052 0.98377 0.26099 0.0
H395 H 0.87782 0.01477 0.0804 0.0
H396 H 0.95074 0.03468 0.97146 0.0
H397 H 0.91509 0.03261 0.06236 0.0
H398 H 0.94117 0.96991 0.13319 0.0
H399 H 0.97713 0.9726 0.04527 0.0
C400 C 0.88261 0.98603 0.28608 0.0
C401 C 0.85983 0.99289 0.26068 0.0
C402 C 0.90352 0.98937 0.23825 0.0
C403 C 0.90249 0.99942 0.16202 0.0
C404 C 0.87974 0.00712 0.13864 0.0
C405 C 0.85878 1.004 0.18743 0.0
C406 C 0.94894 0.02049 0.00676 0.0
C407 C 0.96709 1.00387 0.00077 0.0
C408 C 0.92826 0.01919 0.05883 0.0
C409 C 0.92483 1.00112 0.10651 0.0
C410 C 0.94303 0.98446 0.09985 0.0
C411 C 0.96378 0.98587 0.04844 0.0
H412 H 0.52866 0.84207 0.17395 0.0
H413 H 0.57276 0.82394 0.94297 0.0
H414 H 0.5197 0.87913 0.13053 0.0
H415 H 0.56454 0.86071 0.90057 0.0
H416 H 0.5352 0.95426 0.08107 0.0
H417 H 0.53817 0.91621 0.12236 0.0
H418 H 0.53706 0.88414 0.84595 0.0
H419 H 0.53486 0.92188 0.80524 0.0
C420 C 0.53591 0.84573 0.1127 0.0
C421 C 0.55116 0.82985 0.06133 0.0
C422 C 0.53115 0.86718 0.08844 0.0
C423 C 0.54144 0.87329 0.01189 0.0
C424 C 0.55589 0.85683 0.9591 0.0
C425 C 0.56064 0.83559 0.98341 0.0
C426 C 0.5356 0.93907 0.02915 0.0
C427 C 0.53509 0.94138 0.93963 0.0
C428 C 0.53711 0.91712 0.05286 0.0
C429 C 0.53807 0.89678 0.98779 0.0
C430 C 0.53693 0.8992 0.89845 0.0
C431 C 0.53556 0.92103 0.8749 0.0
H432 H 0.7077 0.52948 0.27527 0.0
H433 H 0.6712 0.47256 0.36376 0.0
H434 H 0.67553 0.52959 0.16497 0.0
H435 H 0.63903 0.47317 0.25607 0.0
H436 H 0.57155 0.49929 0.13369 0.0
H437 H 0.60561 0.49842 0.23427 0.0
H438 H 0.65515 0.50726 0.02734 0.0
H439 H 0.62092 0.50805 0.92604 0.0
C440 C 0.69308 0.51679 0.27085 0.0
C441 C 0.69215 0.50126 0.33036 0.0
C442 C 0.67448 0.51693 0.20756 0.0
C443 C 0.65427 0.50166 0.20214 0.0
C444 C 0.65387 0.48561 0.25928 0.0
C445 C 0.67247 0.4853 0.32155 0.0
C446 C 0.58966 0.50109 0.10925 0.0
C447 C 0.59327 0.50373 0.0211 0.0
C448 C 0.60931 0.50044 0.16709 0.0
C449 C 0.63335 0.50267 0.13943 0.0
C450 C 0.637 0.50562 0.05158 0.0
C451 C 0.61729 0.50595 0.99317 0.0
H452 H 0.94471 0.65535 0.29946 0.0
H453 H 1.01867 0.68124 0.30861 0.0
H454 H 0.95723 0.61889 0.21165 0.0
H455 H 0.03058 0.6451 0.215 0.0
H456 H 0.02566 0.58769 0.94678 0.0
H457 H 1.01575 0.62387 0.04521 0.0
H458 H 0.98949 0.58548 0.23936 0.0
H459 H 1.00021 0.54925 0.1423 0.0
C460 C 0.96367 0.65334 0.28389 0.0
C461 C 0.98064 0.67147 0.31239 0.0
C462 C 0.97073 0.63242 0.23282 0.0
C463 C 0.99482 0.62925 0.20689 0.0
C464 C 1.01184 0.64724 0.23402 0.0
C465 C 1.00491 0.66802 0.28704 0.0
C466 C 1.01788 0.58696 0.01063 0.0
C467 C 1.01359 0.56562 0.03676 0.0
C468 C 1.01236 0.60766 0.06698 0.0
C469 C 1.00191 0.60738 0.14961 0.0
C470 C 0.99754 0.58609 0.17582 0.0
C471 C 1.00366 0.56541 0.1204 0.0
H472 H 0.07902 0.2203 0.48849 0.0
H473 H 1.00484 0.22479 0.40833 0.0
H474 H 0.06694 0.19296 0.58215 0.0
H475 H 0.99269 0.197 0.49982 0.0
H476 H 0.97929 0.14029 0.6589 0.0
H477 H 0.98995 0.17936 0.63672 0.0
H478 H 0.05496 0.15355 0.50334 0.0
H479 H 0.04419 0.11485 0.52313 0.0
C480 C 0.05996 0.21645 0.49516 0.0
C481 C 0.04283 0.22439 0.44123 0.0
C482 C 0.05306 0.20059 0.5477 0.0
C483 C 0.02901 0.19231 0.5458 0.0
C484 C 1.01137 0.20299 0.50238 0.0
C485 C 1.01828 0.21902 0.45032 0.0
C486 C 0.99583 0.14301 0.62471 0.0
C487 C 1.01088 0.12442 0.59266 0.0
C488 C 1.00203 0.1654 0.61301 0.0
C489 C 1.0235 0.1696 0.56997 0.0
C490 C 0.03867 0.15105 0.53936 0.0
C491 C 0.0324 0.12878 0.55024 0.0
H492 H 0.30741 0.97818 0.48332 0.0
H493 H 0.30996 0.92478 0.25048 0.0
H494 H 0.33301 0.95586 0.56222 0.0
H495 H 0.33475 0.90158 0.33038 0.0
H496 H 0.39327 0.92857 0.67392 0.0
H497 H 0.35132 0.92586 0.62234 0.0
H498 H 0.37595 0.91269 0.35183 0.0
H499 H 0.41722 0.91537 0.40288 0.0
C500 C 0.31225 0.96096 0.45095 0.0
C501 C 0.30732 0.95332 0.36075 0.0
C502 C 0.32693 0.94801 0.49617 0.0
C503 C 0.33676 0.92725 0.45144 0.0
C504 C 0.32812 0.91785 0.36576 0.0
C505 C 0.31379 0.93099 0.32013 0.0
C506 C 0.38958 0.92439 0.60344 0.0
C507 C 0.40857 0.92295 0.54245 0.0
C508 C 0.36556 0.92275 0.57393 0.0
C509 C 0.36018 0.91973 0.483 0.0
C510 C 0.37919 0.91501 0.42242 0.0
C511 C 0.40311 0.91663 0.45185 0.0
H512 H 0.5101 0.31575 0.73075 0.0
H513 H 0.57489 0.31456 0.57681 0.0
H514 H 0.51784 0.35659 0.79247 0.0
H515 H 0.58255 0.35558 0.63701 0.0
H516 H 0.54301 0.42871 0.91444 0.0
H517 H 0.54538 0.38703 0.87992 0.0
H518 H 0.55886 0.39012 0.6065 0.0
H519 H 0.55623 0.43239 0.6409 0.0
C520 C 0.52676 0.3239 0.71425 0.0
C521 C 0.54217 0.31185 0.65059 0.0
C522 C 0.53103 0.34742 0.74832 0.0
C523 C 0.55058 0.35945 0.7182 0.0
C524 C 0.56717 0.34689 0.66055 0.0
C525 C 0.5631 0.32327 0.62774 0.0
C526 C 0.54663 0.42072 0.84678 0.0
C527 C 0.54908 0.4341 0.78015 0.0
C528 C 0.54801 0.39669 0.82722 0.0
C529 C 0.55217 0.3852 0.74056 0.0
C530 C 0.55582 0.3985 0.67428 0.0
C531 C 0.55423 0.42272 0.69381 0.0
H532 H 0.27374 0.52354 0.50716 0.0
H533 H 0.22321 0.46597 0.43662 0.0
H534 H 0.25564 0.53325 0.65238 0.0
H535 H 0.20445 0.47623 0.58009 0.0
H536 H 0.15893 0.50031 0.7786 0.0
H537 H 0.1995 0.48684 0.74066 0.0
H538 H 0.2166 0.55131 0.65694 0.0
H539 H 0.17641 0.56458 0.69481 0.0
C540 C 0.25935 0.51241 0.52376 0.0
C541 C 0.24931 0.49441 0.45967 0.0
C542 C 0.24902 0.518 0.60715 0.0
C543 C 0.22825 0.50596 0.62698 0.0
C544 C 0.22041 0.48598 0.56721 0.0
C545 C 0.23083 0.48031 0.48407 0.0
C546 C 0.17181 0.51193 0.75573 0.0
C547 C 0.16435 0.533 0.73543 0.0
C548 C 0.19505 0.50428 0.7346 0.0
C549 C 0.21081 0.51755 0.69206 0.0
C550 C 0.2048 0.54045 0.68838 0.0
C551 C 0.1816 0.5481 0.70964 0.0
H552 H 0.05607 0.79411 0.28913 0.0
H553 H 0.98834 0.78236 0.14659 0.0
H554 H 0.07027 0.81864 0.18887 0.0
H555 H 1.00273 0.80637 0.04331 0.0
H556 H 1.01295 0.88597 0.06009 0.0
H557 H 1.00481 0.84761 0.0884 0.0
H558 H 0.08043 0.83186 0.05485 0.0
H559 H 0.08864 0.87075 0.02619 0.0
C560 C 0.04484 0.79565 0.23268 0.0
C561 C 1.02105 0.78671 0.22596 0.0
C562 C 0.05292 0.80979 0.17511 0.0
C563 C 0.0373 0.81514 0.10983 0.0
C564 C 1.01493 0.8031 0.09461 0.0
C565 C 1.00679 0.78904 0.15275 0.0
C566 C 0.02781 0.8742 0.05624 0.0
C567 C 0.0515 0.88155 0.04163 0.0
C568 C 1.0231 0.85201 0.0719 0.0
C569 C 0.04195 0.8365 0.0736 0.0
C570 C 0.06553 0.84343 0.05464 0.0
C571 C 0.07025 0.86574 0.03891 0.0
H572 H 0.7486 0.04147 0.22977 0.0
H573 H 0.74389 0.08769 0.4817 0.0
H574 H 0.72166 0.06553 0.16438 0.0
H575 H 0.71711 0.1123 0.41583 0.0
H576 H 0.63528 0.09406 0.33219 0.0
H577 H 0.67623 0.09756 0.38634 0.0
H578 H 0.70206 0.09861 0.12276 0.0
H579 H 0.66041 0.09565 0.06792 0.0
C580 C 0.74294 0.05755 0.26992 0.0
C581 C 0.74767 0.06239 0.36126 0.0
C582 C 0.72744 0.07147 0.23237 0.0
C583 C 0.71649 0.09041 0.28583 0.0
C584 C 0.72473 0.09745 0.37359 0.0
C585 C 0.74011 0.08342 0.41128 0.0
C586 C 0.64942 0.09621 0.28595 0.0
C587 C 0.64447 0.09375 0.19494 0.0
C588 C 0.67317 0.09828 0.31736 0.0
C589 C 0.69256 0.09776 0.25845 0.0
C590 C 0.68752 0.09853 0.16944 0.0
C591 C 0.66365 0.09665 0.13801 0.0
H592 H 0.48145 0.68849 0.12523 0.0
H593 H 0.54435 0.69675 0.96959 0.0
H594 H 0.47873 0.64769 0.05979 0.0
H595 H 0.5407 0.65622 0.8985 0.0
H596 H 0.55738 0.58289 0.92669 0.0
H597 H 0.55203 0.62407 0.95271 0.0
H598 H 0.47456 0.61331 0.95723 0.0
H599 H 0.48021 0.57147 0.93447 0.0
C600 C 0.4939 0.68183 0.07311 0.0
C601 C 0.51347 0.69577 0.05425 0.0
C602 C 0.49244 0.65826 0.03564 0.0
C603 C 0.51016 0.64818 0.97647 0.0
C604 C 0.52737 0.66304 0.94701 0.0
C605 C 0.52912 0.68653 0.98599 0.0
C606 C 0.53913 0.58919 0.93333 0.0
C607 C 0.51923 0.57375 0.92916 0.0
C608 C 0.536 0.61302 0.94693 0.0
C609 C 0.5128 0.62239 0.95565 0.0
C610 C 0.49276 0.60692 0.95137 0.0
C611 C 0.49595 0.58288 0.93865 0.0
H612 H 0.82886 0.58504 0.40571 0.0
H613 H 0.80239 0.52374 0.22966 0.0
H614 H 0.86092 0.58948 0.30213 0.0
H615 H 0.8346 0.52759 0.12792 0.0
H616 H 0.90535 0.51729 0.01684 0.0
H617 H 0.86846 0.5394 0.04516 0.0
H618 H 0.89024 0.56034 0.31945 0.0
H619 H 0.92636 0.53823 0.29166 0.0
C620 C 0.82898 0.57339 0.34225 0.0
C621 C 0.81408 0.55342 0.3271 0.0
C622 C 0.8474 0.57584 0.28302 0.0
C623 C 0.85121 0.55799 0.21019 0.0
C624 C 0.83266 0.5413 0.18489 0.0
C625 C 0.81406 0.53903 0.24351 0.0
C626 C 0.90227 0.52688 0.08292 0.0
C627 C 0.91836 0.52546 0.15277 0.0
C628 C 0.88137 0.53982 0.09866 0.0
C629 C 0.87626 0.55157 0.18446 0.0
C630 C 0.89363 0.55188 0.25203 0.0
C631 C 0.91436 0.53891 0.23643 0.0
H632 H 0.09707 0.18271 0.20671 0.0
H633 H 0.03568 0.19872 0.05736 0.0
H634 H 0.09533 0.14286 0.12606 0.0
H635 H 0.03361 0.1588 0.97719 0.0
H636 H 0.05806 0.0702 0.07654 0.0
H637 H 0.06725 0.111 0.13367 0.0
H638 H 0.05123 0.12695 0.877 0.0
H639 H 0.04169 0.08641 0.8204 0.0
C640 C 0.08369 0.17784 0.15446 0.0
C641 C 0.0665 0.19379 0.13825 0.0
C642 C 0.08245 0.15494 0.10919 0.0
C643 C 0.06398 0.14744 0.04661 0.0
C644 C 0.04811 0.16394 0.02485 0.0
C645 C 0.04938 0.1869 0.07023 0.0
C646 C 0.05667 0.08237 0.03217 0.0
C647 C 0.04898 0.07493 0.94407 0.0
C648 C 0.06211 0.10578 0.06467 0.0
C649 C 0.06001 0.12233 0.00988 0.0
C650 C 0.05281 0.11478 0.92133 0.0
C651 C 0.0474 0.09143 0.88888 0.0
H652 H 0.34141 0.96316 0.08084 0.0
H653 H 0.34461 0.0352 0.2027 0.0
H654 H 0.37998 0.96719 0.01095 0.0
H655 H 0.38332 0.0397 0.1295 0.0
H656 H 0.46576 0.03221 0.07215 0.0
H657 H 0.42507 0.03132 0.13232 0.0
H658 H 0.40299 0.9801 0.90508 0.0
H659 H 0.4437 0.98033 0.84749 0.0
C660 C 0.35011 0.98012 0.09091 0.0
C661 C 0.33966 0.99885 0.1475 0.0
C662 C 0.37242 0.9825 0.05025 0.0
C663 C 0.38532 1.0038 0.06393 0.0
C664 C 0.37437 0.02287 0.11781 0.0
C665 C 0.35187 0.02044 0.15884 0.0
C666 C 0.45223 0.02076 0.03486 0.0
C667 C 0.45838 1.00626 0.9547 0.0
C668 C 0.42865 0.02037 0.06924 0.0
C669 C 0.41028 1.00553 0.02457 0.0
C670 C 0.41642 0.99146 0.94329 0.0
C671 C 0.43997 0.99172 0.90943 0.0
H672 H 0.47118 0.30386 0.41264 0.0
H673 H 0.54111 0.29012 0.29619 0.0
H674 H 0.46549 0.33428 0.32675 0.0
H675 H 0.53558 0.32058 0.20989 0.0
H676 H 0.5337 0.39998 0.21478 0.0
H677 H 0.53604 0.36302 0.2624 0.0
H678 H 0.46175 0.3473 0.18296 0.0
H679 H 0.45947 0.3841 0.13273 0.0
C680 C 0.48477 0.30654 0.365 0.0
C681 C 0.50641 0.29434 0.36002 0.0
C682 C 0.48166 0.32417 0.31639 0.0
C683 C 0.50028 0.33022 0.26253 0.0
C684 C 0.52104 0.31663 0.25177 0.0
C685 C 0.52402 0.29883 0.29977 0.0
C686 C 0.51793 0.38856 0.20564 0.0
C687 C 0.49636 0.39532 0.16976 0.0
C688 C 0.51931 0.36724 0.23301 0.0
C689 C 0.49913 0.35202 0.22611 0.0
C690 C 0.4776 0.35862 0.1898 0.0
C691 C 0.47627 0.37988 0.16158 0.0
H692 H 0.2261 0.52783 0.13943 0.0
H693 H 0.21219 0.45632 0.14999 0.0
H694 H 0.18666 0.52963 0.06855 0.0
H695 H 0.17334 0.45748 0.07571 0.0
H696 H 0.09358 0.47126 0.03845 0.0
H697 H 0.13436 0.46903 0.09565 0.0
H698 H 0.15854 0.52204 0.95454 0.0
H699 H 0.11743 0.52477 0.90019 0.0
C700 C 0.21499 0.51221 0.12348 0.0
C701 C 0.22267 0.49181 0.14918 0.0
C702 C 0.19211 0.51321 0.08296 0.0
C703 C 0.17603 0.49379 0.0665 0.0
C704 C 0.18444 0.47311 0.08864 0.0
C705 C 0.20713 0.47223 0.12993 0.0
C706 C 0.10756 0.48244 0.01932 0.0
C707 C 0.10183 0.49824 0.9645 0.0
C708 C 0.13129 0.48105 0.05177 0.0
C709 C 0.15047 0.49521 0.03009 0.0
C710 C 0.14465 0.51094 0.97458 0.0
C711 C 0.12086 0.51246 0.94267 0.0
H712 H 0.97132 0.83799 0.41894 0.0
H713 H 1.0088 0.81231 0.62562 0.0
H714 H 0.97311 0.87682 0.50648 0.0
H715 H 1.01002 0.85136 0.71605 0.0
H716 H 0.04275 0.92588 0.76734 0.0
H717 H 0.03299 0.88566 0.70728 0.0
H718 H 0.9621 0.90463 0.63066 0.0
H719 H 0.97222 0.9452 0.68865 0.0
C720 C 0.97926 0.84063 0.48473 0.0
C721 C 0.99006 0.82226 0.51548 0.0
C722 C 0.98022 0.86291 0.53526 0.0
C723 C 0.99198 0.86739 0.61814 0.0
C724 C 1.00121 0.84861 0.65177 0.0
C725 C 1.00026 0.8262 0.60076 0.0
C726 C 1.02504 0.92155 0.73783 0.0
C727 C 1.00842 0.93889 0.73146 0.0
C728 C 1.0193 0.89833 0.70434 0.0
C729 C 0.99674 0.89177 0.66381 0.0
C730 C 0.9798 0.90905 0.66019 0.0
C731 C 0.98558 0.93234 0.69344 0.0
H732 H 0.70862 0.9786 0.46704 0.0
H733 H 0.72299 0.04146 0.65503 0.0
H734 H 0.66999 0.97348 0.5394 0.0
H735 H 0.68457 0.03655 0.72722 0.0
H736 H 0.61917 0.01456 0.8755 0.0
H737 H 0.65981 0.01501 0.81464 0.0
H738 H 0.63053 0.99145 0.55189 0.0
H739 H 0.58996 0.99097 0.61264 0.0
C740 C 0.7039 0.99094 0.52551 0.0
C741 C 0.71917 0.01028 0.55572 0.0
C742 C 0.6815 0.98825 0.56632 0.0
C743 C 0.67376 1.0047 0.63922 0.0
C744 C 0.68973 0.02336 0.67207 0.0
C745 C 0.71191 0.02617 0.63071 0.0
C746 C 0.62131 0.0094 0.80475 0.0
C747 C 0.60096 1.00283 0.74944 0.0
C748 C 0.64476 0.00973 0.76957 0.0
C749 C 0.64879 1.00324 0.67784 0.0
C750 C 0.62845 0.99628 0.62281 0.0
C751 C 0.605 0.99618 0.65786 0.0
H752 H 0.58409 0.70786 0.29887 0.0
H753 H 0.51285 0.71597 0.40913 0.0
H754 H 0.59204 0.6779 0.38455 0.0
H755 H 0.52091 0.68672 0.49818 0.0
H756 H 0.52696 0.61026 0.51594 0.0
H757 H 0.52233 0.64622 0.46292 0.0
H758 H 0.59805 0.66297 0.51546 0.0
H759 H 0.60271 0.62655 0.56724 0.0
C760 C 0.57063 0.70411 0.34532 0.0
C761 C 0.54797 0.71447 0.34819 0.0
C762 C 0.57506 0.68672 0.39407 0.0
C763 C 0.55693 0.67934 0.44717 0.0
C764 C 0.53511 0.69139 0.4563 0.0
C765 C 0.53062 0.70857 0.40684 0.0
C766 C 0.54259 0.62171 0.51733 0.0
C767 C 0.56522 0.61538 0.54591 0.0
C768 C 0.53993 0.64253 0.48722 0.0
C769 C 0.55976 0.65784 0.48522 0.0
C770 C 0.58237 0.65163 0.51491 0.0
C771 C 0.58507 0.63068 0.54459 0.0
H772 H 0.85175 0.55795 0.61171 0.0
H773 H 0.83613 0.48472 0.57425 0.0
H774 H 0.89059 0.55255 0.67895 0.0
H775 H 0.87512 0.47945 0.64595 0.0
H776 H 0.94213 0.49046 0.85848 0.0
H777 H 0.90098 0.4933 0.80102 0.0
H778 H 0.92911 0.53124 0.60873 0.0
H779 H 0.97014 0.52793 0.66406 0.0
C780 C 0.85638 0.54065 0.61907 0.0
C781 C 0.84066 0.52174 0.58583 0.0
C782 C 0.87882 0.53757 0.65761 0.0
C783 C 0.88634 0.51553 0.66674 0.0
C784 C 0.87 0.4967 0.63975 0.0
C785 C 0.84751 0.49974 0.59924 0.0
C786 C 0.9396 0.49931 0.80358 0.0
C787 C 0.95972 0.50896 0.76617 0.0
C788 C 0.91594 0.50082 0.77035 0.0
C789 C 0.91158 0.51252 0.70011 0.0
C790 C 0.93167 0.52218 0.66306 0.0
C791 C 0.95531 0.52023 0.69481 0.0
loop_
_geom_bond_atom_site_label_1
_geom_bond_atom_site_label_2
_geom_bond_distance
_geom_bond_site_symmetry_2
_ccdc_geom_bond_type
H0 C1 0.949 . S
C1 H0 0.949 . S
C1 C2 1.395 . S
C1 C3 1.391 . S
C2 C1 1.395 . S
C2 C5 1.390 . S
C3 C1 1.391 . S
C3 C7 1.387 . S
C3 C8 1.491 . S
H4 C5 0.950 . S
C5 C2 1.390 . S
C5 H4 0.950 . S
C5 C6 1.378 . S
C6 C5 1.378 . S
C6 C7 1.409 . S
C7 C3 1.387 . S
C7 C6 1.409 . S
C7 H9 0.951 . S
C8 C3 1.491 . S
C8 C10 1.382 . S
C8 C12 1.404 . S
H9 C7 0.951 . S
C10 C8 1.382 . S
C10 C11 1.390 . S
C10 H15 0.949 . S
C11 C10 1.390 . S
C11 C16 1.399 . S
C12 C8 1.404 . S
C12 H13 0.950 . S
C12 C14 1.375 . S
H13 C12 0.950 . S
C14 C12 1.375 . S
C14 C16 1.382 . S
C14 H18 0.950 . S
H15 C10 0.949 . S
C16 C11 1.399 . S
C16 C14 1.382 . S
C16 H17 0.952 . S
H17 C16 0.952 . S
H18 C14 0.950 . S
H19 C20 0.949 . S
C20 H19 0.949 . S
C20 C21 1.395 . S
C20 C22 1.391 . S
C21 C20 1.395 . S
C21 C24 1.393 . S
C22 C20 1.391 . S
C22 C26 1.387 . S
C22 C27 1.491 . S
H23 C24 0.945 1_455 S
C24 C21 1.393 . S
C24 H23 0.945 1_655 S
C24 C25 1.382 . S
C25 C24 1.382 . S
C25 C26 1.409 . S
C26 C22 1.387 . S
C26 C25 1.409 . S
C26 H28 0.951 . S
C27 C22 1.491 . S
C27 C29 1.382 . S
C27 C31 1.404 . S
H28 C26 0.951 . S
C29 C27 1.382 . S
C29 C30 1.390 . S
C29 H34 0.949 1_655 S
C30 C29 1.390 . S
C30 C35 1.399 . S
C31 C27 1.404 . S
C31 H32 0.950 . S
C31 C33 1.375 . S
H32 C31 0.950 . S
C33 C31 1.375 . S
C33 C35 1.382 . S
C33 H37 0.950 . S
H34 C29 0.949 1_455 S
C35 C30 1.399 . S
C35 C33 1.382 . S
C35 H36 0.952 . S
H36 C35 0.952 . S
H37 C33 0.950 . S
H38 C39 0.949 . S
C39 H38 0.949 . S
C39 C40 1.396 . S
C39 C41 1.391 . S
C40 C39 1.396 . S
C40 C43 1.391 1_565 S
C41 C39 1.391 . S
C41 C45 1.387 . S
C41 C46 1.491 . S
H42 C43 0.950 . S
C43 C40 1.391 1_545 S
C43 H42 0.950 . S
C43 C44 1.373 1_545 S
C44 C43 1.373 1_565 S
C44 C45 1.413 . S
C45 C41 1.387 . S
C45 C44 1.413 . S
C45 H47 0.951 . S
C46 C41 1.491 . S
C46 C48 1.382 . S
C46 C50 1.404 . S
H47 C45 0.951 . S
C48 C46 1.382 . S
C48 C49 1.390 . S
C48 H53 0.949 1_565 S
C49 C48 1.390 . S
C49 C54 1.399 . S
C50 C46 1.404 . S
C50 H51 0.950 . S
C50 C52 1.375 . S
H51 C50 0.950 . S
C52 C50 1.375 . S
C52 C54 1.382 . S
C52 H56 0.950 . S
H53 C48 0.949 1_545 S
C54 C49 1.399 . S
C54 C52 1.382 . S
C54 H55 0.952 . S
H55 C54 0.952 . S
H56 C52 0.950 . S
H57 C58 0.949 . S
C58 H57 0.949 . S
C58 C59 1.395 . S
C58 C60 1.391 1_556 S
C59 C58 1.395 . S
C59 C62 1.390 1_556 S
C60 C58 1.391 1_554 S
C60 C64 1.387 . S
C60 C65 1.491 . S
H61 C62 0.950 . S
C62 C59 1.390 1_554 S
C62 H61 0.950 . S
C62 C63 1.378 . S
C63 C62 1.378 . S
C63 C64 1.409 . S
C64 C60 1.387 . S
C64 C63 1.409 . S
C64 H66 0.951 . S
C65 C60 1.491 . S
C65 C67 1.382 1_554 S
C65 C69 1.404 . S
H66 C64 0.951 . S
C67 C65 1.382 1_556 S
C67 C68 1.390 . S
C67 H72 0.949 . S
C68 C67 1.390 . S
C68 C73 1.399 1_556 S
C69 C65 1.404 . S
C69 H70 0.950 . S
C69 C71 1.375 . S
H70 C69 0.950 . S
C71 C69 1.375 . S
C71 C73 1.382 . S
C71 H75 0.950 . S
H72 C67 0.949 . S
C73 C68 1.399 1_554 S
C73 C71 1.382 . S
C73 H74 0.952 . S
H74 C73 0.952 . S
H75 C71 0.950 . S
H76 C77 0.949 . S
C77 H76 0.949 . S
C77 C78 1.395 . S
C77 C79 1.391 . S
C78 C77 1.395 . S
C78 C81 1.390 . S
C79 C77 1.391 . S
C79 C83 1.387 . S
C79 C84 1.491 . S
H80 C81 0.950 . S
C81 C78 1.390 . S
C81 H80 0.950 . S
C81 C82 1.378 . S
C82 C81 1.378 . S
C82 C83 1.409 . S
C83 C79 1.387 . S
C83 C82 1.409 . S
C83 H85 0.951 . S
C84 C79 1.491 . S
C84 C86 1.382 . S
C84 C88 1.404 . S
H85 C83 0.951 . S
C86 C84 1.382 . S
C86 C87 1.390 . S
C86 H91 0.949 . S
C87 C86 1.390 . S
C87 C92 1.399 . S
C88 C84 1.404 . S
C88 H89 0.950 . S
C88 C90 1.375 . S
H89 C88 0.950 . S
C90 C88 1.375 . S
C90 C92 1.382 . S
C90 H94 0.950 . S
H91 C86 0.949 . S
C92 C87 1.399 . S
C92 C90 1.382 . S
C92 H93 0.952 . S
H93 C92 0.952 . S
H94 C90 0.950 . S
H95 C96 0.949 . S
C96 H95 0.949 . S
C96 C97 1.395 . S
C96 C98 1.391 . S
C97 C96 1.395 . S
C97 C100 1.390 . S
C98 C96 1.391 . S
C98 C102 1.387 . S
C98 C103 1.491 . S
H99 C100 0.950 . S
C100 C97 1.390 . S
C100 H99 0.950 . S
C100 C101 1.378 . S
C101 C100 1.378 . S
C101 C102 1.409 . S
C102 C98 1.387 . S
C102 C101 1.409 . S
C102 H104 0.951 . S
C103 C98 1.491 . S
C103 C105 1.382 . S
C103 C107 1.404 1_455 S
H104 C102 0.951 . S
C105 C103 1.382 . S
C105 C106 1.390 . S
C105 H110 0.949 . S
C106 C105 1.390 . S
C106 C111 1.399 1_455 S
C107 C103 1.404 1_655 S
C107 H108 0.950 . S
C107 C109 1.375 . S
H108 C107 0.950 . S
C109 C107 1.375 . S
C109 C111 1.382 . S
C109 H113 0.950 . S
H110 C105 0.949 . S
C111 C106 1.399 1_655 S
C111 C109 1.382 . S
C111 H112 0.952 . S
H112 C111 0.952 . S
H113 C109 0.950 . S
H114 C115 0.949 . S
C115 H114 0.949 . S
C115 C116 1.394 . S
C115 C117 1.391 . S
C116 C115 1.394 . S
C116 C119 1.392 1_565 S
C117 C115 1.391 . S
C117 C121 1.387 . S
C117 C122 1.491 . S
H118 C119 0.950 . S
C119 C116 1.392 1_545 S
C119 H118 0.950 . S
C119 C120 1.379 1_545 S
C120 C119 1.379 1_565 S
C120 C121 1.410 . S
C121 C117 1.387 . S
C121 C120 1.410 . S
C121 H123 0.951 . S
C122 C117 1.491 . S
C122 C124 1.396 . S
C122 C126 1.404 . S
H123 C121 0.951 . S
C124 C122 1.396 . S
C124 C125 1.399 . S
C124 H129 0.927 1_565 S
C125 C124 1.399 . S
C125 C130 1.399 . S
C126 C122 1.404 . S
C126 H127 0.950 . S
C126 C128 1.375 . S
H127 C126 0.950 . S
C128 C126 1.375 . S
C128 C130 1.382 . S
C128 H132 0.950 . S
H129 C124 0.927 1_545 S
C130 C125 1.399 . S
C130 C128 1.382 . S
C130 H131 0.952 . S
H131 C130 0.952 . S
H132 C128 0.950 . S
H133 C134 0.949 . S
C134 H133 0.949 . S
C134 C135 1.395 . S
C134 C136 1.391 . S
C135 C134 1.395 . S
C135 C138 1.390 . S
C136 C134 1.391 . S
C136 C140 1.387 . S
C136 C141 1.491 . S
H137 C138 0.950 . S
C138 C135 1.390 . S
C138 H137 0.950 . S
C138 C139 1.378 . S
C139 C138 1.378 . S
C139 C140 1.409 . S
C140 C136 1.387 . S
C140 C139 1.409 . S
C140 H142 0.951 . S
C141 C136 1.491 . S
C141 C143 1.382 . S
C141 C145 1.404 . S
H142 C140 0.951 . S
C143 C141 1.382 . S
C143 C144 1.390 . S
C143 H148 0.949 . S
C144 C143 1.390 . S
C144 C149 1.399 . S
C145 C141 1.404 . S
C145 H146 0.950 . S
C145 C147 1.375 . S
H146 C145 0.950 . S
C147 C145 1.375 . S
C147 C149 1.382 . S
C147 H151 0.950 . S
H148 C143 0.949 . S
C149 C144 1.399 . S
C149 C147 1.382 . S
C149 H150 0.952 . S
H150 C149 0.952 . S
H151 C147 0.950 . S
Tb152 C161 2.764 . S
Tb152 O162 2.337 . S
Tb152 O165 2.303 1_655 S
Tb152 O169 2.322 1_545 S
Tb152 O170 2.349 . S
Tb152 O173 2.415 1_655 S
Tb152 O174 2.399 . S
Tb153 O163 2.322 1_565 S
Tb153 O164 2.349 . S
Tb153 O166 2.415 1_556 S
Tb153 O167 2.399 . S
Tb153 O168 2.325 . S
Tb153 O171 2.303 1_455 S
Tb153 C182 2.764 1_556 S
C154 O170 1.275 . S
C154 O171 1.252 1_545 S
C155 C158 1.358 . S
C155 C159 1.332 1_655 S
C155 C161 1.504 . S
C156 C157 1.373 . S
C156 C160 1.312 1_655 S
C157 C156 1.373 . S
C157 C158 1.429 . S
C157 H184 0.932 . S
C158 C155 1.358 . S
C158 C157 1.429 . S
C158 H185 0.930 . S
C159 C155 1.332 1_455 S
C159 C160 1.394 . S
C159 H186 0.932 . S
C160 C156 1.312 1_455 S
C160 C159 1.394 . S
C160 H187 0.925 . S
C161 Tb152 2.764 . S
C161 C155 1.504 . S
C161 O173 1.239 1_655 S
C161 O174 1.263 . S
O162 Tb152 2.337 . S
O162 C172 1.204 1_655 S
O163 Tb153 2.322 1_545 S
O163 C172 1.257 . S
O164 Tb153 2.349 . S
O164 C175 1.268 . S
O165 Tb152 2.303 1_455 S
O165 C175 1.254 1_545 S
O166 Tb153 2.415 1_554 S
O166 C182 1.239 . S
O167 Tb153 2.399 . S
O167 C182 1.263 1_556 S
O168 Tb153 2.325 . S
O168 C183 1.236 1_455 S
O169 Tb152 2.322 1_565 S
O169 C183 1.257 . S
O170 Tb152 2.349 . S
O170 C154 1.275 . S
O171 Tb153 2.303 1_655 S
O171 C154 1.252 1_565 S
C172 O162 1.204 1_455 S
C172 O163 1.257 . S
O173 Tb152 2.415 1_455 S
O173 C161 1.239 1_455 S
O174 Tb152 2.399 . S
O174 C161 1.263 . S
C175 O164 1.268 . S
C175 O165 1.254 1_565 S
C176 C179 1.358 . S
C176 C180 1.332 . S
C176 C182 1.504 . S
C177 C178 1.373 . S
C177 C181 1.308 . S
C178 C177 1.373 . S
C178 C179 1.429 . S
C178 H188 0.932 . S
C179 C176 1.358 . S
C179 C178 1.429 . S
C179 H189 0.930 . S
C180 C176 1.332 . S
C180 C181 1.394 . S
C180 H190 0.932 1_455 S
C181 C177 1.308 . S
C181 C180 1.394 . S
C181 H191 0.929 1_455 S
C182 Tb153 2.764 1_554 S
C182 O166 1.239 . S
C182 O167 1.263 1_554 S
C182 C176 1.504 . S
C183 O168 1.236 1_655 S
C183 O169 1.257 . S
H184 C157 0.932 . S
H185 C158 0.930 . S
H186 C159 0.932 . S
H187 C160 0.925 . S
H188 C178 0.932 . S
H189 C179 0.930 . S
H190 C180 0.932 1_655 S
H191 C181 0.929 1_655 S
Tb192 C201 2.764 . S
Tb192 O202 2.325 . S
Tb192 O205 2.303 1_565 S
Tb192 O209 2.322 . S
Tb192 O210 2.349 . S
Tb192 O213 2.415 1_565 S
Tb192 O214 2.399 . S
Tb193 O203 2.322 . S
Tb193 O204 2.349 . S
Tb193 O206 2.415 1_546 S
Tb193 O207 2.399 1_556 S
Tb193 O208 2.325 . S
Tb193 O211 2.303 1_545 S
Tb193 C222 2.764 1_556 S
C194 O210 1.261 . S
C194 O211 1.257 . S
C195 C198 1.358 . S
C195 C199 1.332 1_565 S
C195 C201 1.504 . S
C196 C197 1.373 . S
C196 C200 1.308 1_565 S
C197 C196 1.373 . S
C197 C198 1.429 . S
C197 H224 0.932 . S
C198 C195 1.358 . S
C198 C197 1.429 . S
C198 H225 0.930 . S
C199 C195 1.332 1_545 S
C199 C200 1.394 . S
C199 H226 0.932 . S
C200 C196 1.308 1_545 S
C200 C199 1.394 . S
C200 H227 0.929 . S
C201 Tb192 2.764 . S
C201 C195 1.504 . S
C201 O213 1.239 1_565 S
C201 O214 1.263 . S
O202 Tb192 2.325 . S
O202 C212 1.236 1_565 S
O203 Tb193 2.322 . S
O203 C212 1.257 . S
O204 Tb193 2.349 . S
O204 C215 1.261 . S
O205 Tb192 2.303 1_545 S
O205 C215 1.257 . S
O206 Tb193 2.415 1_564 S
O206 C222 1.239 1_565 S
O207 Tb193 2.399 1_554 S
O207 C222 1.263 . S
O208 Tb193 2.325 . S
O208 C223 1.236 1_545 S
O209 Tb192 2.322 . S
O209 C223 1.257 . S
O210 Tb192 2.349 . S
O210 C194 1.261 . S
O211 Tb193 2.303 1_565 S
O211 C194 1.257 . S
C212 O202 1.236 1_545 S
C212 O203 1.257 . S
O213 Tb192 2.415 1_545 S
O213 C201 1.239 1_545 S
O214 Tb192 2.399 . S
O214 C201 1.263 . S
C215 O204 1.261 . S
C215 O205 1.257 . S
C216 C219 1.358 . S
C216 C220 1.332 1_545 S
C216 C222 1.504 . S
C217 C218 1.373 . S
C217 C221 1.308 1_545 S
C218 C217 1.373 . S
C218 C219 1.429 . S
C218 H228 0.932 . S
C219 C216 1.358 . S
C219 C218 1.429 . S
C219 H229 0.930 . S
C220 C216 1.332 1_565 S
C220 C221 1.394 . S
C220 H230 0.932 . S
C221 C217 1.308 1_565 S
C221 C220 1.394 . S
C221 H231 0.929 . S
C222 Tb193 2.764 1_554 S
C222 O206 1.239 1_545 S
C222 O207 1.263 . S
C222 C216 1.504 . S
C223 O208 1.236 1_565 S
C223 O209 1.257 . S
H224 C197 0.932 . S
H225 C198 0.930 . S
H226 C199 0.932 . S
H227 C200 0.929 . S
H228 C218 0.932 . S
H229 C219 0.930 . S
H230 C220 0.932 . S
H231 C221 0.929 . S
Tb232 C241 2.764 1_556 S
Tb232 O242 2.325 . S
Tb232 O245 2.303 . S
Tb232 O249 2.322 . S
Tb232 O250 2.349 . S
Tb232 O253 2.415 1_556 S
Tb232 O254 2.399 1_556 S
Tb233 O243 2.322 . S
Tb233 O244 2.349 . S
Tb233 O246 2.415 . S
Tb233 O247 2.399 . S
Tb233 O248 2.325 . S
Tb233 O251 2.303 . S
Tb233 C262 2.764 . S
C234 O250 1.261 . S
C234 O251 1.257 . S
C235 C238 1.358 . S
C235 C239 1.332 . S
C235 C241 1.504 . S
C236 C237 1.373 . S
C236 C240 1.308 . S
C237 C236 1.373 . S
C237 C238 1.429 . S
C237 H264 0.932 . S
C238 C235 1.358 . S
C238 C237 1.429 . S
C238 H265 0.930 . S
C239 C235 1.332 . S
C239 C240 1.394 . S
C239 H266 0.932 . S
C240 C236 1.308 . S
C240 C239 1.394 . S
C240 H267 0.929 . S
C241 Tb232 2.764 1_554 S
C241 C235 1.504 . S
C241 O253 1.239 . S
C241 O254 1.263 . S
O242 Tb232 2.325 . S
O242 C252 1.236 . S
O243 Tb233 2.322 . S
O243 C252 1.257 . S
O244 Tb233 2.349 . S
O244 C255 1.261 . S
O245 Tb232 2.303 . S
O245 C255 1.257 . S
O246 Tb233 2.415 . S
O246 C262 1.239 . S
O247 Tb233 2.399 . S
O247 C262 1.263 . S
O248 Tb233 2.325 . S
O248 C263 1.236 . S
O249 Tb232 2.322 . S
O249 C263 1.257 . S
O250 Tb232 2.349 . S
O250 C234 1.261 . S
O251 Tb233 2.303 . S
O251 C234 1.257 . S
C252 O242 1.236 . S
C252 O243 1.257 . S
O253 Tb232 2.415 1_554 S
O253 C241 1.239 . S
O254 Tb232 2.399 1_554 S
O254 C241 1.263 . S
C255 O244 1.261 . S
C255 O245 1.257 . S
C256 C259 1.358 . S
C256 C260 1.332 . S
C256 C262 1.504 . S
C257 C258 1.373 . S
C257 C261 1.308 . S
C258 C257 1.373 . S
C258 C259 1.429 . S
C258 H268 0.932 . S
C259 C256 1.358 . S
C259 C258 1.429 . S
C259 H269 0.930 . S
C260 C256 1.332 . S
C260 C261 1.394 . S
C260 H270 0.932 . S
C261 C257 1.308 . S
C261 C260 1.394 . S
C261 H271 0.929 . S
C262 Tb233 2.764 . S
C262 O246 1.239 . S
C262 O247 1.263 . S
C262 C256 1.504 . S
C263 O248 1.236 . S
C263 O249 1.257 . S
H264 C237 0.932 . S
H265 C238 0.930 . S
H266 C239 0.932 . S
H267 C240 0.929 . S
H268 C258 0.932 . S
H269 C259 0.930 . S
H270 C260 0.932 . S
H271 C261 0.929 . S
Tb272 C281 2.764 . S
Tb272 O282 2.325 . S
Tb272 O285 2.303 . S
Tb272 O289 2.322 1_455 S
Tb272 O290 2.349 . S
Tb272 O293 2.415 . S
Tb272 O294 2.399 . S
Tb273 O283 2.322 1_655 S
Tb273 O284 2.349 . S
Tb273 O286 2.415 1_556 S
Tb273 O287 2.399 . S
Tb273 O288 2.325 . S
Tb273 O291 2.303 1_655 S
Tb273 C302 2.764 1_556 S
C274 O290 1.261 . S
C274 O291 1.257 . S
C275 C278 1.358 . S
C275 C279 1.332 . S
C275 C281 1.504 . S
C276 C277 1.373 . S
C276 C280 1.308 . S
C277 C276 1.373 . S
C277 C278 1.429 . S
C277 H304 0.932 . S
C278 C275 1.358 . S
C278 C277 1.429 . S
C278 H305 0.930 . S
C279 C275 1.332 . S
C279 C280 1.394 . S
C279 H306 0.932 . S
C280 C276 1.308 . S
C280 C279 1.394 . S
C280 H307 0.929 . S
C281 Tb272 2.764 . S
C281 C275 1.504 . S
C281 O293 1.239 . S
C281 O294 1.263 . S
O282 Tb272 2.325 . S
O282 C292 1.236 . S
O283 Tb273 2.322 1_455 S
O283 C292 1.257 . S
O284 Tb273 2.349 . S
O284 C295 1.261 1_655 S
O285 Tb272 2.303 . S
O285 C295 1.257 . S
O286 Tb273 2.415 1_554 S
O286 C302 1.239 . S
O287 Tb273 2.399 . S
O287 C302 1.263 1_556 S
O288 Tb273 2.325 . S
O288 C303 1.236 . S
O289 Tb272 2.322 1_655 S
O289 C303 1.257 . S
O290 Tb272 2.349 . S
O290 C274 1.261 . S
O291 Tb273 2.303 1_455 S
O291 C274 1.257 . S
C292 O282 1.236 . S
C292 O283 1.257 . S
O293 Tb272 2.415 . S
O293 C281 1.239 . S
O294 Tb272 2.399 . S
O294 C281 1.263 . S
C295 O284 1.261 1_455 S
C295 O285 1.257 . S
C296 C299 1.358 . S
C296 C300 1.332 . S
C296 C302 1.504 . S
C297 C298 1.373 . S
C297 C301 1.308 . S
C298 C297 1.373 . S
C298 C299 1.429 . S
C298 H308 0.932 . S
C299 C296 1.358 . S
C299 C298 1.429 . S
C299 H309 0.930 . S
C300 C296 1.332 . S
C300 C301 1.394 . S
C300 H310 0.932 . S
C301 C297 1.308 . S
C301 C300 1.394 . S
C301 H311 0.929 . S
C302 Tb273 2.764 1_554 S
C302 O286 1.239 . S
C302 O287 1.263 1_554 S
C302 C296 1.504 . S
C303 O288 1.236 . S
C303 O289 1.257 . S
H304 C277 0.932 . S
H305 C278 0.930 . S
H306 C279 0.932 . S
H307 C280 0.929 . S
H308 C298 0.932 . S
H309 C299 0.930 . S
H310 C300 0.932 . S
H311 C301 0.929 . S
H312 C320 0.950 . S
H313 C325 0.950 . S
H314 C322 0.950 . S
H315 C324 0.950 . S
H316 C326 0.950 . S
H317 C328 0.950 . S
H318 C330 0.950 . S
H319 C331 0.950 . S
C320 H312 0.950 . S
C320 C321 1.386 . S
C320 C322 1.391 . S
C321 C320 1.386 . S
C321 C325 1.393 1_545 S
C322 H314 0.950 . S
C322 C320 1.391 . S
C322 C323 1.400 . S
C323 C322 1.400 . S
C323 C324 1.398 1_545 S
C323 C329 1.491 . S
C324 H315 0.950 . S
C324 C323 1.398 1_565 S
C324 C325 1.391 . S
C325 H313 0.950 . S
C325 C321 1.393 1_565 S
C325 C324 1.391 . S
C326 H316 0.950 . S
C326 C327 1.386 1_565 S
C326 C328 1.391 . S
C327 C326 1.386 1_545 S
C327 C331 1.393 . S
C328 H317 0.950 . S
C328 C326 1.391 . S
C328 C329 1.400 1_565 S
C329 C323 1.491 . S
C329 C328 1.400 1_545 S
C329 C330 1.398 . S
C330 H318 0.950 . S
C330 C329 1.398 . S
C330 C331 1.391 . S
C331 H319 0.950 . S
C331 C327 1.393 . S
C331 C330 1.391 . S
H332 C340 0.950 . S
H333 C345 0.950 . S
H334 C342 0.950 . S
H335 C344 0.950 . S
H336 C346 0.950 . S
H337 C348 0.950 . S
H338 C350 0.950 . S
H339 C351 0.950 . S
C340 H332 0.950 . S
C340 C341 1.386 . S
C340 C342 1.391 . S
C341 C340 1.386 . S
C341 C345 1.393 . S
C342 H334 0.950 . S
C342 C340 1.391 . S
C342 C343 1.400 . S
C343 C342 1.400 . S
C343 C344 1.398 . S
C343 C349 1.491 . S
C344 H335 0.950 . S
C344 C343 1.398 . S
C344 C345 1.391 . S
C345 H333 0.950 . S
C345 C341 1.393 . S
C345 C344 1.391 . S
C346 H336 0.950 . S
C346 C347 1.386 . S
C346 C348 1.391 . S
C347 C346 1.386 . S
C347 C351 1.393 . S
C348 H337 0.950 . S
C348 C346 1.391 . S
C348 C349 1.400 . S
C349 C343 1.491 . S
C349 C348 1.400 . S
C349 C350 1.398 . S
C350 H338 0.950 . S
C350 C349 1.398 . S
C350 C351 1.391 . S
C351 H339 0.950 . S
C351 C347 1.393 . S
C351 C350 1.391 . S
H352 C360 0.950 . S
H353 C365 0.950 . S
H354 C362 0.950 . S
H355 C364 0.950 . S
H356 C366 0.950 . S
H357 C368 0.950 . S
H358 C370 0.950 . S
H359 C371 0.950 . S
C360 H352 0.950 . S
C360 C361 1.386 . S
C360 C362 1.391 . S
C361 C360 1.386 . S
C361 C365 1.393 . S
C362 H354 0.950 . S
C362 C360 1.391 . S
C362 C363 1.400 . S
C363 C362 1.400 . S
C363 C364 1.398 . S
C363 C369 1.491 . S
C364 H355 0.950 . S
C364 C363 1.398 . S
C364 C365 1.391 . S
C365 H353 0.950 . S
C365 C361 1.393 . S
C365 C364 1.391 . S
C366 H356 0.950 . S
C366 C367 1.386 . S
C366 C368 1.391 . S
C367 C366 1.386 . S
C367 C371 1.393 . S
C368 H357 0.950 . S
C368 C366 1.391 . S
C368 C369 1.400 . S
C369 C363 1.491 . S
C369 C368 1.400 . S
C369 C370 1.398 . S
C370 H358 0.950 . S
C370 C369 1.398 . S
C370 C371 1.391 . S
C371 H359 0.950 . S
C371 C367 1.393 . S
C371 C370 1.391 . S
H372 C380 0.949 . S
H373 C385 0.950 . S
H374 C382 0.950 . S
H375 C384 0.950 . S
H376 C386 0.950 . S
H377 C388 0.950 . S
H378 C390 0.950 . S
H379 C391 0.950 . S
C380 H372 0.949 . S
C380 C381 1.386 1_655 S
C380 C382 1.391 . S
C381 C380 1.386 1_455 S
C381 C385 1.393 . S
C382 H374 0.950 . S
C382 C380 1.391 . S
C382 C383 1.400 1_655 S
C383 C382 1.400 1_455 S
C383 C384 1.398 . S
C383 C389 1.491 . S
C384 H375 0.950 . S
C384 C383 1.398 . S
C384 C385 1.391 . S
C385 H373 0.950 . S
C385 C381 1.393 . S
C385 C384 1.391 . S
C386 H376 0.950 . S
C386 C387 1.386 . S
C386 C388 1.391 . S
C387 C386 1.386 . S
C387 C391 1.393 1_455 S
C388 H377 0.950 . S
C388 C386 1.391 . S
C388 C389 1.400 . S
C389 C383 1.491 . S
C389 C388 1.400 . S
C389 C390 1.398 1_455 S
C390 H378 0.950 . S
C390 C389 1.398 1_655 S
C390 C391 1.391 . S
C391 H379 0.950 . S
C391 C387 1.393 1_655 S
C391 C390 1.391 . S
H392 C400 0.950 . S
H393 C405 0.950 . S
H394 C402 0.950 . S
H395 C404 0.950 . S
H396 C406 0.950 . S
H397 C408 0.950 . S
H398 C410 0.950 . S
H399 C411 0.950 . S
C400 H392 0.950 . S
C400 C401 1.386 . S
C400 C402 1.391 . S
C401 C400 1.386 . S
C401 C405 1.393 1_565 S
C402 H394 0.950 . S
C402 C400 1.391 . S
C402 C403 1.400 . S
C403 C402 1.400 . S
C403 C404 1.398 1_565 S
C403 C409 1.491 . S
C404 H395 0.950 . S
C404 C403 1.398 1_545 S
C404 C405 1.391 . S
C405 H393 0.950 . S
C405 C401 1.393 1_545 S
C405 C404 1.391 . S
C406 H396 0.950 . S
C406 C407 1.386 1_546 S
C406 C408 1.391 1_556 S
C407 C406 1.386 1_564 S
C407 C411 1.393 . S
C408 H397 0.950 . S
C408 C406 1.391 1_554 S
C408 C409 1.400 1_545 S
C409 C403 1.491 . S
C409 C408 1.400 1_565 S
C409 C410 1.398 . S
C410 H398 0.950 . S
C410 C409 1.398 . S
C410 C411 1.391 . S
C411 H399 0.950 . S
C411 C407 1.393 . S
C411 C410 1.391 . S
H412 C420 0.950 . S
H413 C425 0.950 1_554 S
H414 C422 0.950 . S
H415 C424 0.950 . S
H416 C426 0.950 . S
H417 C428 0.950 . S
H418 C430 0.950 . S
H419 C431 0.950 . S
C420 H412 0.950 . S
C420 C421 1.386 . S
C420 C422 1.391 . S
C421 C420 1.386 . S
C421 C425 1.393 . S
C422 H414 0.950 . S
C422 C420 1.391 . S
C422 C423 1.400 . S
C423 C422 1.400 . S
C423 C424 1.398 . S
C423 C429 1.491 . S
C424 H415 0.950 . S
C424 C423 1.398 . S
C424 C425 1.391 . S
C425 H413 0.950 1_556 S
C425 C421 1.393 . S
C425 C424 1.391 . S
C426 H416 0.950 . S
C426 C427 1.386 . S
C426 C428 1.391 . S
C427 C426 1.386 . S
C427 C431 1.393 . S
C428 H417 0.950 . S
C428 C426 1.391 . S
C428 C429 1.400 . S
C429 C423 1.491 . S
C429 C428 1.400 . S
C429 C430 1.398 . S
C430 H418 0.950 . S
C430 C429 1.398 . S
C430 C431 1.391 . S
C431 H419 0.950 . S
C431 C427 1.393 . S
C431 C430 1.391 . S
H432 C440 0.950 . S
H433 C445 0.950 . S
H434 C442 0.950 . S
H435 C444 0.950 . S
H436 C446 0.950 . S
H437 C448 0.950 . S
H438 C450 0.950 . S
H439 C451 0.950 . S
C440 H432 0.950 . S
C440 C441 1.386 . S
C440 C442 1.391 . S
C441 C440 1.386 . S
C441 C445 1.393 . S
C442 H434 0.950 . S
C442 C440 1.391 . S
C442 C443 1.400 . S
C443 C442 1.400 . S
C443 C444 1.398 . S
C443 C449 1.491 . S
C444 H435 0.950 . S
C444 C443 1.398 . S
C444 C445 1.391 . S
C445 H433 0.950 . S
C445 C441 1.393 . S
C445 C444 1.391 . S
C446 H436 0.950 . S
C446 C447 1.386 . S
C446 C448 1.391 . S
C447 C446 1.386 . S
C447 C451 1.393 1_554 S
C448 H437 0.950 . S
C448 C446 1.391 . S
C448 C449 1.400 . S
C449 C443 1.491 . S
C449 C448 1.400 . S
C449 C450 1.398 . S
C450 H438 0.950 . S
C450 C449 1.398 . S
C450 C451 1.391 1_554 S
C451 H439 0.950 . S
C451 C447 1.393 1_556 S
C451 C450 1.391 1_556 S
H452 C460 0.950 . S
H453 C465 0.950 . S
H454 C462 0.950 . S
H455 C464 0.950 . S
H456 C466 0.950 . S
H457 C468 0.950 . S
H458 C470 0.950 . S
H459 C471 0.950 . S
C460 H452 0.950 . S
C460 C461 1.386 . S
C460 C462 1.391 . S
C461 C460 1.386 . S
C461 C465 1.393 1_655 S
C462 H454 0.950 . S
C462 C460 1.391 . S
C462 C463 1.415 . S
C463 C462 1.415 . S
C463 C464 1.386 1_655 S
C463 C469 1.489 1_655 S
C464 H455 0.950 . S
C464 C463 1.386 1_455 S
C464 C465 1.391 . S
C465 H453 0.950 . S
C465 C461 1.393 1_455 S
C465 C464 1.391 . S
C466 H456 0.950 . S
C466 C467 1.386 . S
C466 C468 1.391 1_556 S
C467 C466 1.386 . S
C467 C471 1.393 1_456 S
C468 H457 0.950 . S
C468 C466 1.391 1_554 S
C468 C469 1.400 . S
C469 C463 1.489 1_455 S
C469 C468 1.400 . S
C469 C470 1.398 1_455 S
C470 H458 0.950 . S
C470 C469 1.398 1_655 S
C470 C471 1.391 . S
C471 H459 0.950 . S
C471 C467 1.393 1_654 S
C471 C470 1.391 . S
H472 C480 0.950 . S
H473 C485 0.950 . S
H474 C482 0.950 . S
H475 C484 0.950 . S
H476 C486 0.950 . S
H477 C488 0.950 . S
H478 C490 0.950 . S
H479 C491 0.950 1_455 S
C480 H472 0.950 . S
C480 C481 1.386 . S
C480 C482 1.391 . S
C481 C480 1.386 . S
C481 C485 1.393 1_455 S
C482 H474 0.950 . S
C482 C480 1.391 . S
C482 C483 1.400 1_455 S
C483 C482 1.400 1_655 S
C483 C484 1.398 . S
C483 C489 1.491 . S
C484 H475 0.950 . S
C484 C483 1.398 . S
C484 C485 1.391 . S
C485 H473 0.950 . S
C485 C481 1.393 1_655 S
C485 C484 1.391 . S
C486 H476 0.950 . S
C486 C487 1.386 . S
C486 C488 1.391 . S
C487 C486 1.386 . S
C487 C491 1.393 . S
C488 H477 0.950 . S
C488 C486 1.391 . S
C488 C489 1.400 . S
C489 C483 1.491 . S
C489 C488 1.400 . S
C489 C490 1.398 1_655 S
C490 H478 0.950 . S
C490 C489 1.398 1_455 S
C490 C491 1.391 1_455 S
C491 H479 0.950 1_655 S
C491 C487 1.393 . S
C491 C490 1.391 1_655 S
H492 C500 0.950 . S
H493 C505 0.950 . S
H494 C502 0.950 . S
H495 C504 0.950 . S
H496 C506 0.950 . S
H497 C508 0.950 . S
H498 C510 0.950 . S
H499 C511 0.950 . S
C500 H492 0.950 . S
C500 C501 1.386 . S
C500 C502 1.391 . S
C501 C500 1.386 . S
C501 C505 1.393 1_545 S
C502 H494 0.950 . S
C502 C500 1.391 . S
C502 C503 1.400 1_545 S
C503 C502 1.400 1_565 S
C503 C504 1.398 . S
C503 C509 1.491 . S
C504 H495 0.950 . S
C504 C503 1.398 . S
C504 C505 1.391 . S
C505 H493 0.950 . S
C505 C501 1.393 1_565 S
C505 C504 1.391 . S
C506 H496 0.950 . S
C506 C507 1.386 . S
C506 C508 1.391 . S
C507 C506 1.386 . S
C507 C511 1.393 . S
C508 H497 0.950 . S
C508 C506 1.391 . S
C508 C509 1.400 . S
C509 C503 1.491 . S
C509 C508 1.400 . S
C509 C510 1.398 . S
C510 H498 0.950 . S
C510 C509 1.398 . S
C510 C511 1.391 . S
C511 H499 0.950 . S
C511 C507 1.393 . S
C511 C510 1.391 . S
H512 C520 0.950 . S
H513 C525 0.950 . S
H514 C522 0.950 . S
H515 C524 0.950 . S
H516 C526 0.950 . S
H517 C528 0.950 . S
H518 C530 0.950 . S
H519 C531 0.950 . S
C520 H512 0.950 . S
C520 C521 1.386 . S
C520 C522 1.391 . S
C521 C520 1.386 . S
C521 C525 1.393 . S
C522 H514 0.950 . S
C522 C520 1.391 . S
C522 C523 1.400 . S
C523 C522 1.400 . S
C523 C524 1.398 . S
C523 C529 1.491 . S
C524 H515 0.950 . S
C524 C523 1.398 . S
C524 C525 1.391 . S
C525 H513 0.950 . S
C525 C521 1.393 . S
C525 C524 1.391 . S
C526 H516 0.950 . S
C526 C527 1.386 . S
C526 C528 1.391 . S
C527 C526 1.386 . S
C527 C531 1.393 . S
C528 H517 0.950 . S
C528 C526 1.391 . S
C528 C529 1.400 . S
C529 C523 1.491 . S
C529 C528 1.400 . S
C529 C530 1.398 . S
C530 H518 0.950 . S
C530 C529 1.398 . S
C530 C531 1.391 . S
C531 H519 0.950 . S
C531 C527 1.393 . S
C531 C530 1.391 . S
H532 C540 0.950 . S
H533 C545 0.950 . S
H534 C542 0.950 . S
H535 C544 0.950 . S
H536 C546 0.950 . S
H537 C548 0.950 . S
H538 C550 0.950 . S
H539 C551 0.950 . S
C540 H532 0.950 . S
C540 C541 1.386 . S
C540 C542 1.391 . S
C541 C540 1.386 . S
C541 C545 1.393 . S
C542 H534 0.950 . S
C542 C540 1.391 . S
C542 C543 1.400 . S
C543 C542 1.400 . S
C543 C544 1.398 . S
C543 C549 1.491 . S
C544 H535 0.950 . S
C544 C543 1.398 . S
C544 C545 1.391 . S
C545 H533 0.950 . S
C545 C541 1.393 . S
C545 C544 1.391 . S
C546 H536 0.950 . S
C546 C547 1.386 . S
C546 C548 1.391 . S
C547 C546 1.386 . S
C547 C551 1.393 . S
C548 H537 0.950 . S
C548 C546 1.391 . S
C548 C549 1.400 . S
C549 C543 1.491 . S
C549 C548 1.400 . S
C549 C550 1.398 . S
C550 H538 0.950 . S
C550 C549 1.398 . S
C550 C551 1.391 . S
C551 H539 0.950 . S
C551 C547 1.393 . S
C551 C550 1.391 . S
H552 C560 0.950 . S
H553 C565 0.950 . S
H554 C562 0.950 . S
H555 C564 0.950 . S
H556 C566 0.950 . S
H557 C568 0.950 1_655 S
H558 C570 0.950 . S
H559 C571 0.950 . S
C560 H552 0.950 . S
C560 C561 1.386 1_455 S
C560 C562 1.391 . S
C561 C560 1.386 1_655 S
C561 C565 1.393 . S
C562 H554 0.950 . S
C562 C560 1.391 . S
C562 C563 1.400 . S
C563 C562 1.400 . S
C563 C564 1.398 1_455 S
C563 C569 1.491 . S
C564 H555 0.950 . S
C564 C563 1.398 1_655 S
C564 C565 1.391 . S
C565 H553 0.950 . S
C565 C561 1.393 . S
C565 C564 1.391 . S
C566 H556 0.950 . S
C566 C567 1.386 . S
C566 C568 1.391 . S
C567 C566 1.386 . S
C567 C571 1.393 . S
C568 H557 0.950 1_455 S
C568 C566 1.391 . S
C568 C569 1.400 . S
C569 C563 1.491 . S
C569 C568 1.400 . S
C569 C570 1.398 . S
C570 H558 0.950 . S
C570 C569 1.398 . S
C570 C571 1.391 . S
C571 H559 0.950 . S
C571 C567 1.393 . S
C571 C570 1.391 . S
H572 C580 0.950 . S
H573 C585 0.950 . S
H574 C582 0.950 . S
H575 C584 0.950 . S
H576 C586 0.950 . S
H577 C588 0.950 . S
H578 C590 0.950 1_565 S
H579 C591 0.950 . S
C580 H572 0.950 . S
C580 C581 1.386 . S
C580 C582 1.391 . S
C581 C580 1.386 . S
C581 C585 1.393 1_565 S
C582 H574 0.950 . S
C582 C580 1.391 . S
C582 C583 1.400 1_565 S
C583 C582 1.400 1_545 S
C583 C584 1.398 . S
C583 C589 1.491 . S
C584 H575 0.950 . S
C584 C583 1.398 . S
C584 C585 1.391 . S
C585 H573 0.950 . S
C585 C581 1.393 1_545 S
C585 C584 1.391 . S
C586 H576 0.950 . S
C586 C587 1.386 . S
C586 C588 1.391 . S
C587 C586 1.386 . S
C587 C591 1.393 . S
C588 H577 0.950 . S
C588 C586 1.391 . S
C588 C589 1.400 . S
C589 C583 1.491 . S
C589 C588 1.400 . S
C589 C590 1.398 . S
C590 H578 0.950 1_545 S
C590 C589 1.398 . S
C590 C591 1.391 . S
C591 H579 0.950 . S
C591 C587 1.393 . S
C591 C590 1.391 . S
H592 C600 0.950 . S
H593 C605 0.950 1_554 S
H594 C602 0.950 . S
H595 C604 0.950 1_554 S
H596 C606 0.950 1_554 S
H597 C608 0.950 1_554 S
H598 C610 0.950 . S
H599 C611 0.950 . S
C600 H592 0.950 . S
C600 C601 1.386 . S
C600 C602 1.391 . S
C601 C600 1.386 . S
C601 C605 1.393 . S
C602 H594 0.950 . S
C602 C600 1.391 . S
C602 C603 1.400 . S
C603 C602 1.400 . S
C603 C604 1.398 . S
C603 C609 1.491 . S
C604 H595 0.950 1_556 S
C604 C603 1.398 . S
C604 C605 1.391 . S
C605 H593 0.950 1_556 S
C605 C601 1.393 . S
C605 C604 1.391 . S
C606 H596 0.950 1_556 S
C606 C607 1.386 . S
C606 C608 1.391 . S
C607 C606 1.386 . S
C607 C611 1.393 . S
C608 H597 0.950 1_556 S
C608 C606 1.391 . S
C608 C609 1.400 . S
C609 C603 1.491 . S
C609 C608 1.400 . S
C609 C610 1.398 . S
C610 H598 0.950 . S
C610 C609 1.398 . S
C610 C611 1.391 . S
C611 H599 0.950 . S
C611 C607 1.393 . S
C611 C610 1.391 . S
H612 C620 0.950 . S
H613 C625 0.950 . S
H614 C622 0.950 . S
H615 C624 0.950 . S
H616 C626 0.950 . S
H617 C628 0.950 . S
H618 C630 0.950 . S
H619 C631 0.950 . S
C620 H612 0.950 . S
C620 C621 1.386 . S
C620 C622 1.391 . S
C621 C620 1.386 . S
C621 C625 1.393 . S
C622 H614 0.950 . S
C622 C620 1.391 . S
C622 C623 1.400 . S
C623 C622 1.400 . S
C623 C624 1.398 . S
C623 C629 1.491 . S
C624 H615 0.950 . S
C624 C623 1.398 . S
C624 C625 1.391 . S
C625 H613 0.950 . S
C625 C621 1.393 . S
C625 C624 1.391 . S
C626 H616 0.950 . S
C626 C627 1.386 . S
C626 C628 1.391 . S
C627 C626 1.386 . S
C627 C631 1.393 . S
C628 H617 0.950 . S
C628 C626 1.391 . S
C628 C629 1.400 . S
C629 C623 1.491 . S
C629 C628 1.400 . S
C629 C630 1.398 . S
C630 H618 0.950 . S
C630 C629 1.398 . S
C630 C631 1.391 . S
C631 H619 0.950 . S
C631 C627 1.393 . S
C631 C630 1.391 . S
H632 C640 0.950 1_556 S
H633 C645 0.930 1_655 S
H634 C642 0.950 . S
H635 C644 0.950 1_655 S
H636 C646 0.950 1_655 S
H637 C648 0.950 1_655 S
H638 C650 0.950 . S
H639 C651 0.950 . S
C640 H632 0.950 1_554 S
C640 C641 1.386 . S
C640 C642 1.391 1_554 S
C641 C640 1.386 . S
C641 C645 1.411 . S
C642 H634 0.950 . S
C642 C640 1.391 1_556 S
C642 C643 1.400 1_556 S
C643 C642 1.400 1_554 S
C643 C644 1.398 . S
C643 C649 1.491 . S
C644 H635 0.950 1_455 S
C644 C643 1.398 . S
C644 C645 1.393 . S
C645 H633 0.930 1_455 S
C645 C641 1.411 . S
C645 C644 1.393 . S
C646 H636 0.950 1_455 S
C646 C647 1.386 1_554 S
C646 C648 1.391 . S
C647 C646 1.386 1_556 S
C647 C651 1.393 . S
C648 H637 0.950 1_455 S
C648 C646 1.391 . S
C648 C649 1.400 . S
C649 C643 1.491 . S
C649 C648 1.400 . S
C649 C650 1.398 1_554 S
C650 H638 0.950 . S
C650 C649 1.398 1_556 S
C650 C651 1.391 . S
C651 H639 0.950 . S
C651 C647 1.393 . S
C651 C650 1.391 . S
H652 C660 0.950 . S
H653 C665 0.950 . S
H654 C662 0.950 . S
H655 C664 0.950 . S
H656 C666 0.950 . S
H657 C668 0.950 . S
H658 C670 0.950 . S
H659 C671 0.950 . S
C660 H652 0.950 . S
C660 C661 1.386 1_566 S
C660 C662 1.391 . S
C661 C660 1.386 1_544 S
C661 C665 1.393 . S
C662 H654 0.950 . S
C662 C660 1.391 . S
C662 C663 1.400 1_566 S
C663 C662 1.400 1_544 S
C663 C664 1.398 . S
C663 C669 1.491 1_554 S
C664 H655 0.950 . S
C664 C663 1.398 . S
C664 C665 1.391 . S
C665 H653 0.950 . S
C665 C661 1.393 . S
C665 C664 1.391 . S
C666 H656 0.950 . S
C666 C667 1.386 1_554 S
C666 C668 1.391 . S
C667 C666 1.386 1_556 S
C667 C671 1.393 1_545 S
C668 H657 0.950 . S
C668 C666 1.391 . S
C668 C669 1.400 1_554 S
C669 C663 1.491 1_556 S
C669 C668 1.400 1_556 S
C669 C670 1.398 1_545 S
C670 H658 0.950 . S
C670 C669 1.398 1_565 S
C670 C671 1.391 . S
C671 H659 0.950 . S
C671 C667 1.393 1_565 S
C671 C670 1.391 . S
H672 C680 0.950 . S
H673 C685 0.950 . S
H674 C682 0.950 . S
H675 C684 0.950 . S
H676 C686 0.950 . S
H677 C688 0.950 . S
H678 C690 0.950 . S
H679 C691 0.950 . S
C680 H672 0.950 . S
C680 C681 1.386 . S
C680 C682 1.391 . S
C681 C680 1.386 . S
C681 C685 1.393 . S
C682 H674 0.950 . S
C682 C680 1.391 . S
C682 C683 1.400 . S
C683 C682 1.400 . S
C683 C684 1.398 . S
C683 C689 1.491 . S
C684 H675 0.950 . S
C684 C683 1.398 . S
C684 C685 1.391 . S
C685 H673 0.950 . S
C685 C681 1.393 . S
C685 C684 1.391 . S
C686 H676 0.950 . S
C686 C687 1.386 . S
C686 C688 1.391 . S
C687 C686 1.386 . S
C687 C691 1.393 . S
C688 H677 0.950 . S
C688 C686 1.391 . S
C688 C689 1.400 . S
C689 C683 1.491 . S
C689 C688 1.400 . S
C689 C690 1.398 . S
C690 H678 0.950 . S
C690 C689 1.398 . S
C690 C691 1.391 . S
C691 H679 0.950 . S
C691 C687 1.393 . S
C691 C690 1.391 . S
H692 C700 0.950 . S
H693 C705 0.950 . S
H694 C702 0.950 . S
H695 C704 0.950 . S
H696 C706 0.950 . S
H697 C708 0.950 . S
H698 C710 0.950 . S
H699 C711 0.950 1_554 S
C700 H692 0.950 . S
C700 C701 1.386 . S
C700 C702 1.391 . S
C701 C700 1.386 . S
C701 C705 1.393 1_554 S
C702 H694 0.950 . S
C702 C700 1.391 . S
C702 C703 1.400 1_554 S
C703 C702 1.400 1_556 S
C703 C704 1.398 . S
C703 C709 1.491 . S
C704 H695 0.950 . S
C704 C703 1.398 . S
C704 C705 1.391 . S
C705 H693 0.950 . S
C705 C701 1.393 1_556 S
C705 C704 1.391 . S
C706 H696 0.950 . S
C706 C707 1.386 . S
C706 C708 1.391 . S
C707 C706 1.386 . S
C707 C711 1.393 . S
C708 H697 0.950 . S
C708 C706 1.391 . S
C708 C709 1.400 . S
C709 C703 1.491 . S
C709 C708 1.400 . S
C709 C710 1.398 1_556 S
C710 H698 0.950 . S
C710 C709 1.398 1_554 S
C710 C711 1.391 1_554 S
C711 H699 0.950 1_556 S
C711 C707 1.393 . S
C711 C710 1.391 1_556 S
H712 C720 0.950 . S
H713 C725 0.950 . S
H714 C722 0.950 . S
H715 C724 0.950 . S
H716 C726 0.950 . S
H717 C728 0.950 . S
H718 C730 0.950 . S
H719 C731 0.950 . S
C720 H712 0.950 . S
C720 C721 1.386 . S
C720 C722 1.391 . S
C721 C720 1.386 . S
C721 C725 1.393 1_655 S
C722 H714 0.950 . S
C722 C720 1.391 . S
C722 C723 1.400 . S
C723 C722 1.400 . S
C723 C724 1.398 1_655 S
C723 C729 1.491 . S
C724 H715 0.950 . S
C724 C723 1.398 1_455 S
C724 C725 1.391 . S
C725 H713 0.950 . S
C725 C721 1.393 1_455 S
C725 C724 1.391 . S
C726 H716 0.950 . S
C726 C727 1.386 1_455 S
C726 C728 1.391 . S
C727 C726 1.386 1_655 S
C727 C731 1.393 . S
C728 H717 0.950 . S
C728 C726 1.391 . S
C728 C729 1.400 1_455 S
C729 C723 1.491 . S
C729 C728 1.400 1_655 S
C729 C730 1.398 . S
C730 H718 0.950 . S
C730 C729 1.398 . S
C730 C731 1.391 . S
C731 H719 0.950 . S
C731 C727 1.393 . S
C731 C730 1.391 . S
H732 C740 0.950 . S
H733 C745 0.950 . S
H734 C742 0.950 . S
H735 C744 0.950 . S
H736 C746 0.950 . S
H737 C748 0.950 . S
H738 C750 0.950 . S
H739 C751 0.950 . S
C740 H732 0.950 . S
C740 C741 1.386 . S
C740 C742 1.391 . S
C741 C740 1.386 . S
C741 C745 1.393 1_565 S
C742 H734 0.950 . S
C742 C740 1.391 . S
C742 C743 1.400 . S
C743 C742 1.400 . S
C743 C744 1.398 1_565 S
C743 C749 1.491 . S
C744 H735 0.950 . S
C744 C743 1.398 1_545 S
C744 C745 1.391 . S
C745 H733 0.950 . S
C745 C741 1.393 1_545 S
C745 C744 1.391 . S
C746 H736 0.950 . S
C746 C747 1.386 1_545 S
C746 C748 1.391 . S
C747 C746 1.386 1_565 S
C747 C751 1.393 . S
C748 H737 0.950 . S
C748 C746 1.391 . S
C748 C749 1.400 1_545 S
C749 C743 1.491 . S
C749 C748 1.400 1_565 S
C749 C750 1.398 . S
C750 H738 0.950 . S
C750 C749 1.398 . S
C750 C751 1.391 . S
C751 H739 0.950 . S
C751 C747 1.393 . S
C751 C750 1.391 . S
H752 C760 0.950 . S
H753 C765 0.950 . S
H754 C762 0.950 . S
H755 C764 0.950 . S
H756 C766 0.950 . S
H757 C768 0.950 . S
H758 C770 0.950 . S
H759 C771 0.950 . S
C760 H752 0.950 . S
C760 C761 1.386 . S
C760 C762 1.391 . S
C761 C760 1.386 . S
C761 C765 1.393 . S
C762 H754 0.950 . S
C762 C760 1.391 . S
C762 C763 1.400 . S
C763 C762 1.400 . S
C763 C764 1.398 . S
C763 C769 1.491 . S
C764 H755 0.950 . S
C764 C763 1.398 . S
C764 C765 1.391 . S
C765 H753 0.950 . S
C765 C761 1.393 . S
C765 C764 1.391 . S
C766 H756 0.950 . S
C766 C767 1.386 . S
C766 C768 1.391 . S
C767 C766 1.386 . S
C767 C771 1.393 . S
C768 H757 0.950 . S
C768 C766 1.391 . S
C768 C769 1.400 . S
C769 C763 1.491 . S
C769 C768 1.400 . S
C769 C770 1.398 . S
C770 H758 0.950 . S
C770 C769 1.398 . S
C770 C771 1.391 . S
C771 H759 0.950 . S
C771 C767 1.393 . S
C771 C770 1.391 . S
H772 C780 0.950 . S
H773 C785 0.950 . S
H774 C782 0.950 . S
H775 C784 0.950 . S
H776 C786 0.950 . S
H777 C788 0.950 . S
H778 C790 0.950 . S
H779 C791 0.950 . S
C780 H772 0.950 . S
C780 C781 1.386 . S
C780 C782 1.391 . S
C781 C780 1.386 . S
C781 C785 1.393 . S
C782 H774 0.950 . S
C782 C780 1.391 . S
C782 C783 1.400 . S
C783 C782 1.400 . S
C783 C784 1.398 . S
C783 C789 1.491 . S
C784 H775 0.950 . S
C784 C783 1.398 . S
C784 C785 1.391 . S
C785 H773 0.950 . S
C785 C781 1.393 . S
C785 C784 1.391 . S
C786 H776 0.950 . S
C786 C787 1.386 . S
C786 C788 1.391 . S
C787 C786 1.386 . S
C787 C791 1.393 . S
C788 H777 0.950 . S
C788 C786 1.391 . S
C788 C789 1.400 . S
C789 C783 1.491 . S
C789 C788 1.400 . S
C789 C790 1.398 . S
C790 H778 0.950 . S
C790 C789 1.398 . S
C790 C791 1.391 . S
C791 H779 0.950 . S
C791 C787 1.393 . S
C791 C790 1.391 . S
C321 C125 1.974 1_545 S
C327 C175 1.991 1_545 S
C347 C215 1.811 . S
C341 C144 1.640 . S
C367 C234 1.992 . S
C361 C87 1.920 . S
C387 C295 1.399 . S
C381 C106 1.381 . S
C407 C154 1.987 1_564 S
C401 C49 1.953 . S
C421 C68 1.716 . S
C427 C194 1.815 . S
C441 C11 1.991 . S
C447 C255 1.993 1_554 S
C461 C30 1.375 . S
C467 C274 1.401 . S
C487 C156 0.910 . S
C481 C97 0.913 . S
C507 C196 0.444 . S
C501 C116 0.495 1_545 S
C527 C252 1.110 . S
C521 C135 1.024 . S
C541 C78 0.479 . S
C547 C276 0.461 . S
C561 C21 0.912 . S
C567 C177 0.920 . S
C587 C217 0.427 . S
C581 C40 0.454 . S
C607 C263 1.118 . S
C601 C59 1.010 . S
C621 C2 0.470 . S
C627 C297 0.425 . S
C641 C101 1.435 . S
C647 C172 1.565 . S
C661 C120 2.175 1_545 S
C667 C212 2.346 . S
C687 C236 1.451 . S
C681 C139 1.448 . S
C707 C292 2.344 . S
C701 C82 2.175 . S
C721 C25 1.469 . S
C727 C183 1.583 . S
C747 C223 2.344 . S
C741 C44 2.172 . S
C767 C257 1.476 . S
C761 C63 1.463 . S
C781 C6 2.174 . S
C787 C303 2.341 . S
