# Generated by pormake.
# Topology ctn, (3,4)-cn, num edge types: 1
# Building blocks:
#     Node 0, Type 0, BuildingBlock: BETDAH_clean_linker_0, # of connection points: 3
#     Node 1, Type 0, BuildingBlock: BETDAH_clean_linker_0, # of connection points: 3
#     Node 2, Type 0, BuildingBlock: BETDAH_clean_linker_0, # of connection points: 3
#     Node 3, Type 0, BuildingBlock: BETDAH_clean_linker_0, # of connection points: 3
#     Node 4, Type 0, BuildingBlock: BETDAH_clean_linker_0, # of connection points: 3
#     Node 5, Type 0, BuildingBlock: BETDAH_clean_linker_0, # of connection points: 3
#     Node 6, Type 0, BuildingBlock: BETDAH_clean_linker_0, # of connection points: 3
#     Node 7, Type 0, BuildingBlock: BETDAH_clean_linker_0, # of connection points: 3
#     Node 8, Type 0, BuildingBlock: BETDAH_clean_linker_0, # of connection points: 3
#     Node 9, Type 0, BuildingBlock: BETDAH_clean_linker_0, # of connection points: 3
#     Node 10, Type 0, BuildingBlock: BETDAH_clean_linker_0, # of connection points: 3
#     Node 11, Type 0, BuildingBlock: BETDAH_clean_linker_0, # of connection points: 3
#     Node 12, Type 0, BuildingBlock: BETDAH_clean_linker_0, # of connection points: 3
#     Node 13, Type 0, BuildingBlock: BETDAH_clean_linker_0, # of connection points: 3
#     Node 14, Type 0, BuildingBlock: BETDAH_clean_linker_0, # of connection points: 3
#     Node 15, Type 0, BuildingBlock: BETDAH_clean_linker_0, # of connection points: 3
#     Node 16, Type 1, BuildingBlock: AZAVOO_clean_sbu_0, # of connection points: 4
#     Node 17, Type 1, BuildingBlock: AZAVOO_clean_sbu_0, # of connection points: 4
#     Node 18, Type 1, BuildingBlock: AZAVOO_clean_sbu_0, # of connection points: 4
#     Node 19, Type 1, BuildingBlock: AZAVOO_clean_sbu_0, # of connection points: 4
#     Node 20, Type 1, BuildingBlock: AZAVOO_clean_sbu_0, # of connection points: 4
#     Node 21, Type 1, BuildingBlock: AZAVOO_clean_sbu_0, # of connection points: 4
#     Node 22, Type 1, BuildingBlock: AZAVOO_clean_sbu_0, # of connection points: 4
#     Node 23, Type 1, BuildingBlock: AZAVOO_clean_sbu_0, # of connection points: 4
#     Node 24, Type 1, BuildingBlock: AZAVOO_clean_sbu_0, # of connection points: 4
#     Node 25, Type 1, BuildingBlock: AZAVOO_clean_sbu_0, # of connection points: 4
#     Node 26, Type 1, BuildingBlock: AZAVOO_clean_sbu_0, # of connection points: 4
#     Node 27, Type 1, BuildingBlock: AZAVOO_clean_sbu_0, # of connection points: 4
#     Edge 28, Type (0, 1), None
#     Edge 29, Type (0, 1), None
#     Edge 30, Type (0, 1), None
#     Edge 31, Type (0, 1), None
#     Edge 32, Type (0, 1), None
#     Edge 33, Type (0, 1), None
#     Edge 34, Type (0, 1), None
#     Edge 35, Type (0, 1), None
#     Edge 36, Type (0, 1), None
#     Edge 37, Type (0, 1), None
#     Edge 38, Type (0, 1), None
#     Edge 39, Type (0, 1), None
#     Edge 40, Type (0, 1), None
#     Edge 41, Type (0, 1), None
#     Edge 42, Type (0, 1), None
#     Edge 43, Type (0, 1), None
#     Edge 44, Type (0, 1), None
#     Edge 45, Type (0, 1), None
#     Edge 46, Type (0, 1), None
#     Edge 47, Type (0, 1), None
#     Edge 48, Type (0, 1), None
#     Edge 49, Type (0, 1), None
#     Edge 50, Type (0, 1), None
#     Edge 51, Type (0, 1), None
#     Edge 52, Type (0, 1), None
#     Edge 53, Type (0, 1), None
#     Edge 54, Type (0, 1), None
#     Edge 55, Type (0, 1), None
#     Edge 56, Type (0, 1), None
#     Edge 57, Type (0, 1), None
#     Edge 58, Type (0, 1), None
#     Edge 59, Type (0, 1), None
#     Edge 60, Type (0, 1), None
#     Edge 61, Type (0, 1), None
#     Edge 62, Type (0, 1), None
#     Edge 63, Type (0, 1), None
#     Edge 64, Type (0, 1), None
#     Edge 65, Type (0, 1), None
#     Edge 66, Type (0, 1), None
#     Edge 67, Type (0, 1), None
#     Edge 68, Type (0, 1), None
#     Edge 69, Type (0, 1), None
#     Edge 70, Type (0, 1), None
#     Edge 71, Type (0, 1), None
#     Edge 72, Type (0, 1), None
#     Edge 73, Type (0, 1), None
#     Edge 74, Type (0, 1), None
#     Edge 75, Type (0, 1), None
# Relax obj value: 0.060
# Max RMSD: 0.186
# Mean RMSD: 0.097
data_MOF--net-ctn--node1-AZAVOO_clean_sbu_0--node2-BETDAH_clean_linker_0--edge1-none
_symmetry_space_group_name_H-M    P1
_symmetry_Int_Tables_number       1
_symmetry_cell_setting            triclinic
loop_
_symmetry_equiv_pos_as_xyz
'x, y, z'
_cell_length_a     23.161652
_cell_length_b     23.193168
_cell_length_c     23.817586
_cell_angle_alpha  99.371354
_cell_angle_beta   94.580919
_cell_angle_gamma 99.489311
loop_
_atom_site_label
_atom_site_type_symbol
_atom_site_fract_x
_atom_site_fract_y
_atom_site_fract_z
_atom_type_partial_charge
H0 H 0.07539 0.97406 0.1391 0.0
H1 H 0.07221 0.96416 0.95702 0.0
H2 H 0.9629 0.06859 0.05075 0.0
C3 C 0.05815 0.98614 0.10004 0.0
C4 C 0.01598 0.02341 0.10194 0.0
C5 C 0.07839 0.96408 0.04796 0.0
C6 C 0.05705 0.98063 -0.00255 0.0
C7 C 0.01565 0.01828 -0.00126 0.0
C8 C 0.99506 0.03952 0.05066 0.0
N9 N 0.99546 0.03536 0.94752 0.0
C10 C 0.01696 0.0916 0.93734 0.0
H11 H 0.33257 0.63538 0.30637 0.0
H12 H 0.42064 0.80977 0.29288 0.0
H13 H 0.25277 0.73512 0.19503 0.0
C14 C 0.33503 0.67427 0.28612 0.0
C15 C 0.28873 0.6789 0.24655 0.0
C16 C 0.38224 0.7214 0.30328 0.0
C17 C 0.3846 0.77258 0.27893 0.0
C18 C 0.33859 0.77801 0.23962 0.0
C19 C 0.29003 0.73095 0.22364 0.0
N20 N 0.34098 0.83257 0.21969 0.0
C21 C 0.30266 0.83947 0.1747 0.0
H22 H 0.09667 0.41571 0.05157 0.0
H23 H 0.03118 0.57909 0.08899 0.0
H24 H 0.92659 0.4285 0.97367 0.0
C25 C 0.06298 0.44205 0.04461 0.0
C26 C 0.01121 0.41563 0.0094 0.0
C27 C 0.06995 0.50027 0.07438 0.0
C28 C 0.02584 0.53393 0.06589 0.0
C29 C 0.97458 0.50871 0.02797 0.0
C30 C 0.96653 0.44866 0.00162 0.0
N31 N 0.93071 0.54251 0.01569 0.0
C32 C 0.94347 0.6036 0.01724 0.0
H33 H 0.90114 0.81341 0.15263 0.0
H34 H 0.71986 0.74056 0.16173 0.0
H35 H 0.79435 0.91555 0.25364 0.0
C36 C 0.86024 0.81669 0.17116 0.0
C37 C 0.85449 0.86954 0.20679 0.0
C38 C 0.81204 0.77004 0.15473 0.0
C39 C 0.75809 0.77525 0.17608 0.0
C40 C 0.75229 0.82758 0.21245 0.0
C41 C 0.79996 0.87485 0.22676 0.0
N42 N 0.6974 0.83506 0.23141 0.0
C43 C 0.6739 0.80356 0.27142 0.0
H44 H 0.10249 0.10891 0.40603 0.0
H45 H 0.12834 0.06267 0.57237 0.0
H46 H 0.98608 0.96139 0.44947 0.0
C47 C 0.08839 0.08141 0.43696 0.0
C48 C 0.03996 0.0349 0.42142 0.0
C49 C 0.12111 0.09069 0.49051 0.0
C50 C 0.10395 0.05447 0.53022 0.0
C51 C 0.0551 0.0079 0.51617 0.0
C52 C 0.02349 0.99743 0.461 0.0
N53 N 0.03433 0.97832 0.5606 0.0
C54 C 0.03149 0.91794 0.56208 0.0
H55 H 0.35832 0.74363 0.87703 0.0
H56 H 0.17652 0.75297 0.82828 0.0
H57 H 0.26902 0.64153 0.71934 0.0
C58 C 0.31901 0.73168 0.84662 0.0
C59 C 0.31987 0.69085 0.79692 0.0
C60 C 0.26698 0.7527 0.86006 0.0
C61 C 0.21717 0.73814 0.81864 0.0
C62 C 0.21864 0.69902 0.76683 0.0
C63 C 0.26925 0.67412 0.75761 0.0
N64 N 0.1673 0.67447 0.7282 0.0
C65 C 0.12703 0.70433 0.70374 0.0
H66 H 0.88411 0.542 0.58892 0.0
H67 H -0.00202 0.60792 0.46912 0.0
H68 H 0.91494 0.42422 0.44083 0.0
C69 C 0.90601 0.53492 0.55047 0.0
C70 C 0.89621 0.478 0.51723 0.0
C71 C 0.94338 0.58239 0.53386 0.0
C72 C 0.97032 0.57175 0.48311 0.0
C73 C 0.95944 0.51433 0.44956 0.0
C74 C 0.92308 0.46819 0.46716 0.0
N75 N 0.98148 0.50099 0.39627 0.0
C76 C 0.02906 0.5346 0.37822 0.0
H77 H 0.86536 0.71648 0.82357 0.0
H78 H 0.77822 0.79425 0.69572 0.0
H79 H 0.69403 0.76219 0.84392 0.0
C80 C 0.8283 0.73516 0.80864 0.0
C81 C 0.78075 0.73889 0.84165 0.0
C82 C 0.8278 0.75604 0.7562 0.0
C83 C 0.77969 0.78001 0.73691 0.0
C84 C 0.73127 0.78126 0.76833 0.0
C85 C 0.73172 0.76022 0.81988 0.0
N86 N 0.68112 0.80261 0.74828 0.0
C87 C 0.68636 0.85743 0.73125 0.0
H88 H 0.36535 0.21702 0.32097 0.0
H89 H 0.27505 0.29324 0.19381 0.0
H90 H 0.19404 0.26203 0.34375 0.0
C91 C 0.32783 0.23525 0.30644 0.0
C92 C 0.28076 0.23888 0.34022 0.0
C93 C 0.326 0.25547 0.25361 0.0
C94 C 0.27736 0.27909 0.23502 0.0
C95 C 0.22976 0.28077 0.26745 0.0
C96 C 0.23126 0.25995 0.31908 0.0
N97 N 0.17951 0.30267 0.24852 0.0
C98 C 0.18471 0.35772 0.2319 0.0
H99 H 0.59654 0.91557 0.55192 0.0
H100 H 0.53221 0.07955 0.58951 0.0
H101 H 0.42658 0.92939 0.47444 0.0
C102 C 0.56302 0.94213 0.54503 0.0
C103 C 0.51104 0.91595 0.51 0.0
C104 C 0.57041 1.00042 0.57473 0.0
C105 C 0.52652 0.03436 0.5664 0.0
C106 C 0.47509 0.00942 0.52862 0.0
C107 C 0.46663 0.94933 0.5023 0.0
N108 N 0.43142 0.04352 0.51646 0.0
C109 C 0.4441 0.10488 0.51975 0.0
H110 H 0.40166 0.31471 0.65123 0.0
H111 H 0.22061 0.24161 0.66112 0.0
H112 H 0.29515 0.41679 0.75267 0.0
C113 C 0.36082 0.31798 0.66986 0.0
C114 C 0.35514 0.37083 0.70555 0.0
C115 C 0.31266 0.27125 0.65365 0.0
C116 C 0.25881 0.27639 0.67526 0.0
C117 C 0.25306 0.32875 0.71165 0.0
C118 C 0.30069 0.3761 0.72572 0.0
N119 N 0.19826 0.33616 0.73092 0.0
C120 C 0.17479 0.30436 0.77075 0.0
H121 H 0.83327 0.13454 0.80658 0.0
H122 H 0.9209 0.30956 0.7947 0.0
H123 H 0.75226 0.23614 0.69794 0.0
C124 C 0.83544 0.17379 0.7869 0.0
C125 C 0.78872 0.17899 0.74807 0.0
C126 C 0.88277 0.22081 0.80413 0.0
C127 C 0.88479 0.27245 0.78063 0.0
C128 C 0.83843 0.27847 0.74211 0.0
C129 C 0.78976 0.23152 0.72599 0.0
N130 N 0.84064 0.33349 0.72314 0.0
C131 C 0.80282 0.34068 0.67796 0.0
H132 H 0.57746 0.4752 0.63948 0.0
H133 H 0.57327 0.46319 0.45713 0.0
H134 H 0.46513 0.56941 0.55051 0.0
C135 C 0.56015 0.48702 0.6003 0.0
C136 C 0.51819 0.52446 0.602 0.0
C137 C 0.58006 0.46434 0.54827 0.0
C138 C 0.55852 0.48037 0.49756 0.0
C139 C 0.51743 0.51835 0.49864 0.0
C140 C 0.49725 0.54031 0.55057 0.0
N141 N 0.49643 0.53417 0.44702 0.0
C142 C 0.51461 0.59101 0.43658 0.0
H143 H 0.60232 0.60885 0.90642 0.0
H144 H 0.62705 0.56272 0.07288 0.0
H145 H 0.48584 0.46087 0.94908 0.0
C146 C 0.58799 0.58131 0.93726 0.0
C147 C 0.53973 0.53467 0.92141 0.0
C148 C 0.62033 0.59065 0.99099 0.0
C149 C 0.60288 0.55449 0.03062 0.0
C150 C 0.55423 0.50777 0.0163 0.0
C151 C 0.52305 0.49709 0.96087 0.0
N152 N 0.53375 0.47785 0.06064 0.0
C153 C 0.52808 0.41691 0.06049 0.0
H154 H 0.85869 0.24014 0.37802 0.0
H155 H 0.67783 0.25533 0.33395 0.0
H156 H 0.76437 0.14215 0.22036 0.0
C157 C 0.81883 0.22953 0.34834 0.0
C158 C 0.81782 0.18942 0.29758 0.0
C159 C 0.76804 0.25204 0.36333 0.0
C160 C 0.71757 0.23923 0.32308 0.0
C161 C 0.71678 0.20057 0.27067 0.0
C162 C 0.7662 0.17425 0.25931 0.0
N163 N 0.66364 0.17871 0.23405 0.0
C164 C 0.63247 0.2125 0.20372 0.0
H165 H 0.388 0.03961 0.09083 0.0
H166 H 0.49297 0.11002 0.96674 0.0
H167 H 0.40532 0.92784 0.93346 0.0
C168 C 0.40694 0.03391 0.05055 0.0
C169 C 0.39383 0.97833 0.01464 0.0
C170 C 0.4431 0.0821 0.03383 0.0
C171 C 0.46639 0.07327 0.98091 0.0
C172 C 0.45218 0.01742 0.94476 0.0
C173 C 0.41632 0.97059 0.96192 0.0
N174 N 0.4693 0.00759 0.88893 0.0
C175 C 0.52294 0.03307 0.87421 0.0
Mg176 Mg 0.21831 0.85493 0.03009 0.0
O177 O 0.30031 0.92524 0.02552 0.0
O178 O 0.37995 0.88314 0.03782 0.0
Mg179 Mg 0.35054 0.78718 0.04741 0.0
C180 C 0.35609 0.92744 0.03008 0.0
C181 C 0.12028 0.92242 0.04721 0.0
O182 O 0.12297 0.89163 0.08865 0.0
O183 O 0.22506 0.81103 0.93567 0.0
O184 O 0.30519 0.77354 0.95694 0.0
O185 O 0.23088 0.88032 0.12584 0.0
O186 O 0.27019 0.81012 0.07709 0.0
C187 C 0.26522 0.78157 0.92041 0.0
C188 C 0.26524 0.84194 0.12506 0.0
O189 O 0.15467 0.91602 0.00828 0.0
Mg190 Mg 0.16142 0.55075 0.25771 0.0
O191 O 0.10976 0.53841 0.16972 0.0
O192 O 0.1708 0.51078 0.10679 0.0
Mg193 Mg 0.2631 0.51976 0.15362 0.0
C194 C 0.12036 0.52132 0.11866 0.0
C195 C 0.07858 0.5568 0.35114 0.0
O196 O 0.12915 0.57975 0.38188 0.0
O197 O 0.15986 0.45148 0.24767 0.0
O198 O 0.22948 0.43518 0.18977 0.0
O199 O 0.18843 0.64665 0.25877 0.0
O200 O 0.24087 0.57805 0.22889 0.0
C201 C 0.19082 0.41742 0.22152 0.0
C202 C 0.23578 0.63318 0.2386 0.0
O203 O 0.07663 0.54128 0.29741 0.0
Mg204 Mg 0.82189 0.66022 0.00606 0.0
O205 O 0.72369 0.61918 -0.0 0.0
O206 O 0.66943 0.69079 0.01173 0.0
Mg207 Mg 0.73279 0.7804 0.02657 0.0
C208 C 0.67421 0.63611 0.00348 0.0
C209 C 0.95939 0.66662 0.01913 0.0
O210 O 0.01522 0.69126 0.02456 0.0
O211 O 0.80906 0.68645 0.91606 0.0
O212 O 0.75661 0.75881 0.93571 0.0
O213 O 0.82904 0.67521 0.10533 0.0
O214 O 0.80603 0.73972 0.05497 0.0
C215 C 0.78244 0.72664 0.90083 0.0
C216 C 0.81457 0.72597 0.10385 0.0
O217 O 0.92008 0.6983 0.01373 0.0
Mg218 Mg 0.94979 0.06727 0.2513 0.0
O219 O 0.89458 0.97281 0.23187 0.0
O220 O 0.95645 0.90849 0.21773 0.0
Mg221 Mg 0.05025 0.95974 0.23078 0.0
C222 C 0.90456 0.9198 0.22012 0.0
C223 C 0.87067 0.16302 0.28609 0.0
O224 O 0.9223 0.19778 0.29063 0.0
O225 O 0.97864 0.05407 0.34365 0.0
O226 O 0.04145 0.99128 0.32597 0.0
O227 O 0.94763 0.07004 0.15755 0.0
O228 O 0.01636 0.03633 0.20536 0.0
C229 C 0.01468 0.02244 0.36081 0.0
C230 C 0.9935 0.04491 0.15688 0.0
O231 O 0.86741 0.10689 0.27448 0.0
Mg232 Mg 0.32262 0.16085 0.50514 0.0
O233 O 0.22447 0.11951 0.49923 0.0
O234 O 0.17001 0.19094 0.51081 0.0
Mg235 Mg 0.23317 0.28073 0.52527 0.0
C236 C 0.17493 0.13629 0.50275 0.0
C237 C 0.46005 0.16758 0.51979 0.0
O238 O 0.51589 0.19214 0.52501 0.0
O239 O 0.30982 0.18669 0.41477 0.0
O240 O 0.25729 0.2589 0.43453 0.0
O241 O 0.32973 0.17628 0.6045 0.0
O242 O 0.30661 0.2405 0.55389 0.0
C243 C 0.28317 0.22688 0.39957 0.0
C244 C 0.31516 0.22698 0.60287 0.0
O245 O 0.42078 0.19895 0.51275 0.0
Mg246 Mg 0.45159 0.56833 0.75097 0.0
O247 O 0.39565 0.47407 0.7309 0.0
O248 O 0.45718 0.40937 0.71698 0.0
Mg249 Mg 0.55119 0.46007 0.73079 0.0
C250 C 0.40537 0.42095 0.71907 0.0
C251 C 0.37324 0.66456 0.78776 0.0
O252 O 0.42528 0.69907 0.79608 0.0
O253 O 0.47934 0.55445 0.84333 0.0
O254 O 0.54173 0.49117 0.82598 0.0
O255 O 0.45012 0.57165 0.65744 0.0
O256 O 0.51815 0.53711 0.70537 0.0
C257 C 0.51485 0.52239 0.86066 0.0
C258 C 0.49572 0.54613 0.65688 0.0
O259 O 0.36958 0.6086 0.77337 0.0
Mg260 Mg 0.72017 0.35576 0.53279 0.0
O261 O 0.80223 0.42606 0.52856 0.0
O262 O 0.8812 0.38292 0.54052 0.0
Mg263 Mg 0.85176 0.28737 0.55105 0.0
C264 C 0.8579 0.42757 0.53284 0.0
C265 C 0.62171 0.42251 0.54786 0.0
O266 O 0.62379 0.39156 0.58923 0.0
O267 O 0.72804 0.3113 0.43922 0.0
O268 O 0.80764 0.27248 0.45986 0.0
O269 O 0.73175 0.38164 0.62832 0.0
O270 O 0.77145 0.3112 0.5802 0.0
C271 C 0.76766 0.28119 0.42372 0.0
C272 C 0.76627 0.34341 0.6279 0.0
O273 O 0.65679 0.41644 0.50954 0.0
Mg274 Mg 0.6616 0.04973 0.7581 0.0
O275 O 0.61035 0.038 0.67007 0.0
O276 O 0.6714 0.01099 0.60693 0.0
Mg277 Mg 0.76375 0.02051 0.65399 0.0
C278 C 0.62092 0.02127 0.61894 0.0
C279 C 0.5746 0.05443 0.8496 0.0
O280 O 0.62264 0.08205 0.8824 0.0
O281 O 0.66091 0.95076 0.74718 0.0
O282 O 0.73084 0.93531 0.68945 0.0
O283 O 0.68831 0.14605 0.76003 0.0
O284 O 0.74115 0.07801 0.72975 0.0
C285 C 0.69214 0.91711 0.72096 0.0
C286 C 0.73584 0.13305 0.73989 0.0
O287 O 0.57601 0.03782 0.79645 0.0
Mg288 Mg 0.0654 0.25277 0.90786 0.0
O289 O 0.97959 0.23796 0.84972 0.0
O290 O 0.90508 0.20734 0.89843 0.0
Mg291 Mg 0.94298 0.21141 0.99024 0.0
C292 C 0.92512 0.22004 0.85275 0.0
C293 C 0.14835 0.27442 0.81285 0.0
O294 O 0.16292 0.22428 0.82238 0.0
O295 O 0.04479 0.33995 0.95034 0.0
O296 O 0.96913 0.31395 -0.0004 0.0
O297 O 0.07021 0.15718 0.88523 0.0
O298 O 0.02699 0.19588 0.95869 0.0
C299 C 0.0057 0.35321 0.98243 0.0
C300 C 0.03901 0.14983 0.92708 0.0
O301 O 0.11118 0.29722 0.84131 0.0
Mg302 Mg 0.5642 0.75259 0.40837 0.0
O303 O 0.47879 0.73854 0.34967 0.0
O304 O 0.40377 0.70833 0.39791 0.0
Mg305 Mg 0.44099 0.71181 0.48986 0.0
C306 C 0.4242 0.72103 0.35239 0.0
C307 C 0.64748 0.77391 0.31369 0.0
O308 O 0.66157 0.72353 0.32306 0.0
O309 O 0.54417 0.83992 0.45098 0.0
O310 O 0.46805 0.8144 0.49981 0.0
O311 O 0.5685 0.65699 0.38539 0.0
O312 O 0.52503 0.69545 0.45876 0.0
C313 C 0.5051 0.85347 0.48296 0.0
C314 C 0.53706 0.64945 0.42703 0.0
O315 O 0.61057 0.79705 0.34224 0.0
Mg316 Mg 0.95438 0.74656 0.62457 0.0
O317 O 0.04128 0.73945 0.67707 0.0
O318 O 0.10212 0.71886 0.61131 0.0
Mg319 Mg 0.05907 0.72046 0.52099 0.0
C320 C 0.09051 0.72679 0.66322 0.0
C321 C 0.86917 0.74076 0.71517 0.0
O322 O 0.85298 0.6909 0.67856 0.0
O323 O 0.99012 0.84008 0.60689 0.0
O324 O 0.04896 0.8202 0.53878 0.0
O325 O 0.92739 0.64961 0.61604 0.0
O326 O 0.973 0.69033 0.55063 0.0
C327 C 0.02345 0.85642 0.56986 0.0
C328 C 0.94977 0.64277 0.56816 0.0
O329 O 0.91228 0.77887 0.70607 0.0
Mg330 Mg 0.45472 0.24534 0.12541 0.0
O331 O 0.54255 0.23908 0.17588 0.0
O332 O 0.60497 0.2235 0.11041 0.0
Mg333 Mg 0.55828 0.22063 0.02039 0.0
C334 C 0.59301 0.2302 0.16222 0.0
C335 C 0.36705 0.2411 0.21179 0.0
O336 O 0.34806 0.19589 0.1701 0.0
O337 O 0.48888 0.33904 0.10654 0.0
O338 O 0.54648 0.31966 0.03713 0.0
O339 O 0.42871 0.14831 0.11762 0.0
O340 O 0.47312 0.18973 0.05178 0.0
C341 C 0.52102 0.35554 0.06865 0.0
C342 C 0.45058 0.14196 0.06937 0.0
O343 O 0.41394 0.2771 0.20777 0.0
loop_
_geom_bond_atom_site_label_1
_geom_bond_atom_site_label_2
_geom_bond_distance
_geom_bond_site_symmetry_2
_ccdc_geom_bond_type
H0 C3 0.929 . S
H1 C6 0.929 1_556 S
H2 C8 0.930 1_655 S
C3 H0 0.929 . S
C3 C4 1.398 1_565 S
C3 C5 1.396 . S
C4 C3 1.398 1_545 S
C4 C8 1.407 . S
C5 C3 1.396 . S
C5 C6 1.394 1_565 S
C6 H1 0.929 1_554 S
C6 C5 1.394 1_545 S
C6 C7 1.382 . S
C7 C6 1.382 . S
C7 C8 1.392 . S
C7 N9 1.420 1_554 S
C8 H2 0.930 1_455 S
C8 C4 1.407 . S
C8 C7 1.392 . S
N9 C7 1.420 1_556 S
N9 C10 1.244 . S
C10 N9 1.244 . S
H11 C14 0.929 . S
H12 C17 0.929 . S
H13 C19 0.930 . S
C14 H11 0.929 . S
C14 C15 1.398 . S
C14 C16 1.396 . S
C15 C14 1.398 . S
C15 C19 1.407 . S
C16 C14 1.396 . S
C16 C17 1.394 . S
C17 H12 0.929 . S
C17 C16 1.394 . S
C17 C18 1.382 . S
C18 C17 1.382 . S
C18 C19 1.392 . S
C18 N20 1.420 . S
C19 H13 0.930 . S
C19 C15 1.407 . S
C19 C18 1.392 . S
N20 C18 1.420 . S
N20 C21 1.244 . S
C21 N20 1.244 . S
H22 C25 0.929 . S
H23 C28 0.929 . S
H24 C30 0.930 . S
C25 H22 0.929 . S
C25 C26 1.398 . S
C25 C27 1.396 . S
C26 C25 1.398 . S
C26 C30 1.407 1_454 S
C27 C25 1.396 . S
C27 C28 1.394 . S
C28 H23 0.929 . S
C28 C27 1.394 . S
C28 C29 1.382 1_455 S
C29 C28 1.382 1_655 S
C29 C30 1.392 1_554 S
C29 N31 1.420 . S
C30 H24 0.930 . S
C30 C26 1.407 1_656 S
C30 C29 1.392 1_556 S
N31 C29 1.420 . S
N31 C32 1.244 . S
C32 N31 1.244 . S
H33 C36 0.929 . S
H34 C39 0.929 . S
H35 C41 0.930 . S
C36 H33 0.929 . S
C36 C37 1.398 . S
C36 C38 1.396 . S
C37 C36 1.398 . S
C37 C41 1.407 . S
C38 C36 1.396 . S
C38 C39 1.394 . S
C39 H34 0.929 . S
C39 C38 1.394 . S
C39 C40 1.382 . S
C40 C39 1.382 . S
C40 C41 1.392 . S
C40 N42 1.420 . S
C41 H35 0.930 . S
C41 C37 1.407 . S
C41 C40 1.392 . S
N42 C40 1.420 . S
N42 C43 1.244 . S
C43 N42 1.244 . S
H44 C47 0.929 . S
H45 C50 0.929 . S
H46 C52 0.930 1_655 S
C47 H44 0.929 . S
C47 C48 1.398 . S
C47 C49 1.396 . S
C48 C47 1.398 . S
C48 C52 1.407 1_545 S
C49 C47 1.396 . S
C49 C50 1.394 . S
C50 H45 0.929 . S
C50 C49 1.394 . S
C50 C51 1.382 1_545 S
C51 C50 1.382 1_565 S
C51 C52 1.392 . S
C51 N53 1.420 . S
C52 H46 0.930 1_455 S
C52 C48 1.407 1_565 S
C52 C51 1.392 . S
N53 C51 1.420 . S
N53 C54 1.244 . S
C54 N53 1.244 . S
H55 C58 0.929 . S
H56 C61 0.929 . S
H57 C63 0.930 . S
C58 H55 0.929 . S
C58 C59 1.398 . S
C58 C60 1.396 . S
C59 C58 1.398 . S
C59 C63 1.407 . S
C60 C58 1.396 . S
C60 C61 1.394 . S
C61 H56 0.929 . S
C61 C60 1.394 . S
C61 C62 1.382 . S
C62 C61 1.382 . S
C62 C63 1.392 . S
C62 N64 1.420 . S
C63 H57 0.930 . S
C63 C59 1.407 . S
C63 C62 1.392 . S
N64 C62 1.420 . S
N64 C65 1.244 . S
C65 N64 1.244 . S
H66 C69 0.929 . S
H67 C72 0.928 . S
H68 C74 0.930 . S
C69 H66 0.929 . S
C69 C70 1.398 . S
C69 C71 1.396 . S
C70 C69 1.398 . S
C70 C74 1.407 . S
C71 C69 1.396 . S
C71 C72 1.395 1_655 S
C72 H67 0.928 . S
C72 C71 1.395 1_455 S
C72 C73 1.382 1_455 S
C73 C72 1.382 1_655 S
C73 C74 1.392 . S
C73 N75 1.420 1_655 S
C74 H68 0.930 . S
C74 C70 1.407 . S
C74 C73 1.392 . S
N75 C73 1.420 1_455 S
N75 C76 1.244 . S
C76 N75 1.244 . S
H77 C80 0.929 . S
H78 C83 0.929 . S
H79 C85 0.930 . S
C80 H77 0.929 . S
C80 C81 1.398 . S
C80 C82 1.396 . S
C81 C80 1.398 . S
C81 C85 1.407 . S
C82 C80 1.396 . S
C82 C83 1.394 . S
C83 H78 0.929 . S
C83 C82 1.394 . S
C83 C84 1.382 . S
C84 C83 1.382 . S
C84 C85 1.392 . S
C84 N86 1.420 . S
C85 H79 0.930 . S
C85 C81 1.407 . S
C85 C84 1.392 . S
N86 C84 1.420 . S
N86 C87 1.244 . S
C87 N86 1.244 . S
H88 C91 0.929 . S
H89 C94 0.929 . S
H90 C96 0.930 . S
C91 H88 0.929 . S
C91 C92 1.398 . S
C91 C93 1.396 . S
C92 C91 1.398 . S
C92 C96 1.407 . S
C93 C91 1.396 . S
C93 C94 1.394 . S
C94 H89 0.929 . S
C94 C93 1.394 . S
C94 C95 1.382 . S
C95 C94 1.382 . S
C95 C96 1.392 . S
C95 N97 1.420 . S
C96 H90 0.930 . S
C96 C92 1.407 . S
C96 C95 1.392 . S
N97 C95 1.420 . S
N97 C98 1.244 . S
C98 N97 1.244 . S
H99 C102 0.929 . S
H100 C105 0.929 . S
H101 C107 0.930 . S
C102 H99 0.929 . S
C102 C103 1.398 . S
C102 C104 1.396 . S
C103 C102 1.398 . S
C103 C107 1.407 . S
C104 C102 1.396 . S
C104 C105 1.394 1_565 S
C105 H100 0.929 . S
C105 C104 1.394 1_545 S
C105 C106 1.382 1_545 S
C106 C105 1.382 1_565 S
C106 C107 1.392 . S
C106 N108 1.420 1_565 S
C107 H101 0.930 . S
C107 C103 1.407 . S
C107 C106 1.392 . S
N108 C106 1.420 1_545 S
N108 C109 1.244 . S
C109 N108 1.244 . S
H110 C113 0.929 . S
H111 C116 0.929 . S
H112 C118 0.930 . S
C113 H110 0.929 . S
C113 C114 1.398 . S
C113 C115 1.396 . S
C114 C113 1.398 . S
C114 C118 1.407 . S
C115 C113 1.396 . S
C115 C116 1.394 . S
C116 H111 0.929 . S
C116 C115 1.394 . S
C116 C117 1.382 . S
C117 C116 1.382 . S
C117 C118 1.392 . S
C117 N119 1.420 . S
C118 H112 0.930 . S
C118 C114 1.407 . S
C118 C117 1.392 . S
N119 C117 1.420 . S
N119 C120 1.244 . S
C120 N119 1.244 . S
H121 C124 0.929 . S
H122 C127 0.929 . S
H123 C129 0.930 . S
C124 H121 0.929 . S
C124 C125 1.398 . S
C124 C126 1.396 . S
C125 C124 1.398 . S
C125 C129 1.407 . S
C126 C124 1.396 . S
C126 C127 1.394 . S
C127 H122 0.929 . S
C127 C126 1.394 . S
C127 C128 1.382 . S
C128 C127 1.382 . S
C128 C129 1.392 . S
C128 N130 1.420 . S
C129 H123 0.930 . S
C129 C125 1.407 . S
C129 C128 1.392 . S
N130 C128 1.420 . S
N130 C131 1.244 . S
C131 N130 1.244 . S
H132 C135 0.929 . S
H133 C138 0.929 . S
H134 C140 0.930 . S
C135 H132 0.929 . S
C135 C136 1.398 . S
C135 C137 1.396 . S
C136 C135 1.398 . S
C136 C140 1.407 . S
C137 C135 1.396 . S
C137 C138 1.394 . S
C138 H133 0.929 . S
C138 C137 1.394 . S
C138 C139 1.382 . S
C139 C138 1.382 . S
C139 C140 1.392 . S
C139 N141 1.420 . S
C140 H134 0.930 . S
C140 C136 1.407 . S
C140 C139 1.392 . S
N141 C139 1.420 . S
N141 C142 1.244 . S
C142 N141 1.244 . S
H143 C146 0.929 . S
H144 C149 0.929 . S
H145 C151 0.930 . S
C146 H143 0.929 . S
C146 C147 1.398 . S
C146 C148 1.396 . S
C147 C146 1.398 . S
C147 C151 1.407 . S
C148 C146 1.396 . S
C148 C149 1.394 1_556 S
C149 H144 0.929 . S
C149 C148 1.394 1_554 S
C149 C150 1.382 . S
C150 C149 1.382 . S
C150 C151 1.392 1_554 S
C150 N152 1.420 . S
C151 H145 0.930 . S
C151 C147 1.407 . S
C151 C150 1.392 1_556 S
N152 C150 1.420 . S
N152 C153 1.244 . S
C153 N152 1.244 . S
H154 C157 0.929 . S
H155 C160 0.929 . S
H156 C162 0.930 . S
C157 H154 0.929 . S
C157 C158 1.398 . S
C157 C159 1.396 . S
C158 C157 1.398 . S
C158 C162 1.407 . S
C159 C157 1.396 . S
C159 C160 1.394 . S
C160 H155 0.929 . S
C160 C159 1.394 . S
C160 C161 1.382 . S
C161 C160 1.382 . S
C161 C162 1.392 . S
C161 N163 1.420 . S
C162 H156 0.930 . S
C162 C158 1.407 . S
C162 C161 1.392 . S
N163 C161 1.420 . S
N163 C164 1.244 . S
C164 N163 1.244 . S
H165 C168 0.929 . S
H166 C171 0.929 . S
H167 C173 0.930 . S
C168 H165 0.929 . S
C168 C169 1.398 1_545 S
C168 C170 1.396 . S
C169 C168 1.398 1_565 S
C169 C173 1.407 1_554 S
C170 C168 1.396 . S
C170 C171 1.394 1_554 S
C171 H166 0.929 . S
C171 C170 1.394 1_556 S
C171 C172 1.382 . S
C172 C171 1.382 . S
C172 C173 1.392 1_545 S
C172 N174 1.420 1_545 S
C173 H167 0.930 . S
C173 C169 1.407 1_556 S
C173 C172 1.392 1_565 S
N174 C172 1.420 1_565 S
N174 C175 1.244 1_565 S
C175 N174 1.244 1_545 S
Mg176 O177 2.028 . S
Mg176 O183 1.986 1_554 S
Mg176 O185 2.114 . S
Mg176 O186 2.251 . S
Mg176 O189 2.010 . S
O177 Mg176 2.028 . S
O177 C180 1.250 . S
O178 Mg179 2.028 . S
O178 C180 1.248 . S
Mg179 O178 2.028 . S
Mg179 O184 2.032 1_554 S
Mg179 O186 2.079 . S
C180 O177 1.250 . S
C180 O178 1.248 . S
C181 O182 1.264 . S
C181 O189 1.249 . S
O182 C181 1.264 . S
O183 Mg176 1.986 1_556 S
O183 C187 1.246 . S
O184 Mg179 2.032 1_556 S
O184 C187 1.259 . S
O185 Mg176 2.114 . S
O185 C188 1.252 . S
O186 Mg176 2.251 . S
O186 Mg179 2.079 . S
O186 C188 1.273 . S
C187 O183 1.246 . S
C187 O184 1.259 . S
C188 O185 1.252 . S
C188 O186 1.273 . S
O189 Mg176 2.010 . S
O189 C181 1.249 . S
Mg190 O191 2.028 . S
Mg190 O197 1.986 . S
Mg190 O199 2.114 . S
Mg190 O200 2.251 . S
Mg190 O203 2.010 . S
O191 Mg190 2.028 . S
O191 C194 1.250 . S
O192 Mg193 2.028 . S
O192 C194 1.248 . S
Mg193 O192 2.028 . S
Mg193 O198 2.032 . S
Mg193 O200 2.079 . S
C194 O191 1.250 . S
C194 O192 1.248 . S
C195 O196 1.264 . S
C195 O203 1.249 . S
O196 C195 1.264 . S
O197 Mg190 1.986 . S
O197 C201 1.246 . S
O198 Mg193 2.032 . S
O198 C201 1.259 . S
O199 Mg190 2.114 . S
O199 C202 1.252 . S
O200 Mg190 2.251 . S
O200 Mg193 2.079 . S
O200 C202 1.273 . S
C201 O197 1.246 . S
C201 O198 1.259 . S
C202 O199 1.252 . S
C202 O200 1.273 . S
O203 Mg190 2.010 . S
O203 C195 1.249 . S
Mg204 O205 2.028 1_554 S
Mg204 O211 1.986 1_554 S
Mg204 O213 2.114 . S
Mg204 O214 2.251 . S
Mg204 O217 2.010 . S
O205 Mg204 2.028 1_556 S
O205 C208 1.250 . S
O206 Mg207 2.028 . S
O206 C208 1.248 . S
Mg207 O206 2.028 . S
Mg207 O212 2.032 . S
Mg207 O214 2.079 1_556 S
C208 O205 1.250 . S
C208 O206 1.248 . S
C209 O210 1.264 . S
C209 O217 1.249 . S
O210 C209 1.264 . S
O211 Mg204 1.986 1_556 S
O211 C215 1.246 . S
O212 Mg207 2.032 . S
O212 C215 1.259 . S
O213 Mg204 2.114 . S
O213 C216 1.252 . S
O214 Mg204 2.251 . S
O214 Mg207 2.079 1_554 S
O214 C216 1.273 . S
C215 O211 1.246 . S
C215 O212 1.259 . S
C216 O213 1.252 . S
C216 O214 1.273 . S
O217 Mg204 2.010 . S
O217 C209 1.249 . S
Mg218 O219 2.028 1_545 S
Mg218 O225 1.986 . S
Mg218 O227 2.114 . S
Mg218 O228 2.251 1_655 S
Mg218 O231 2.010 . S
O219 Mg218 2.028 1_565 S
O219 C222 1.250 . S
O220 Mg221 2.028 1_655 S
O220 C222 1.248 . S
Mg221 O220 2.028 1_455 S
Mg221 O226 2.032 . S
Mg221 O228 2.079 1_565 S
C222 O219 1.250 . S
C222 O220 1.248 . S
C223 O224 1.264 . S
C223 O231 1.249 . S
O224 C223 1.264 . S
O225 Mg218 1.986 . S
O225 C229 1.246 1_655 S
O226 Mg221 2.032 . S
O226 C229 1.259 1_565 S
O227 Mg218 2.114 . S
O227 C230 1.252 . S
O228 Mg218 2.251 1_455 S
O228 Mg221 2.079 1_545 S
O228 C230 1.273 1_455 S
C229 O225 1.246 1_455 S
C229 O226 1.259 1_545 S
C230 O227 1.252 . S
C230 O228 1.273 1_655 S
O231 Mg218 2.010 . S
O231 C223 1.249 . S
Mg232 O233 2.028 . S
Mg232 O239 1.986 . S
Mg232 O241 2.114 . S
Mg232 O242 2.251 . S
Mg232 O245 2.010 . S
O233 Mg232 2.028 . S
O233 C236 1.250 . S
O234 Mg235 2.028 . S
O234 C236 1.248 . S
Mg235 O234 2.028 . S
Mg235 O240 2.032 . S
Mg235 O242 2.079 . S
C236 O233 1.250 . S
C236 O234 1.248 . S
C237 O238 1.264 . S
C237 O245 1.249 . S
O238 C237 1.264 . S
O239 Mg232 1.986 . S
O239 C243 1.246 . S
O240 Mg235 2.032 . S
O240 C243 1.259 . S
O241 Mg232 2.114 . S
O241 C244 1.252 . S
O242 Mg232 2.251 . S
O242 Mg235 2.079 . S
O242 C244 1.273 . S
C243 O239 1.246 . S
C243 O240 1.259 . S
C244 O241 1.252 . S
C244 O242 1.273 . S
O245 Mg232 2.010 . S
O245 C237 1.249 . S
Mg246 O247 2.028 . S
Mg246 O253 1.986 . S
Mg246 O255 2.114 . S
Mg246 O256 2.251 . S
Mg246 O259 2.010 . S
O247 Mg246 2.028 . S
O247 C250 1.250 . S
O248 Mg249 2.028 . S
O248 C250 1.248 . S
Mg249 O248 2.028 . S
Mg249 O254 2.032 . S
Mg249 O256 2.079 . S
C250 O247 1.250 . S
C250 O248 1.248 . S
C251 O252 1.264 . S
C251 O259 1.249 . S
O252 C251 1.264 . S
O253 Mg246 1.986 . S
O253 C257 1.246 . S
O254 Mg249 2.032 . S
O254 C257 1.259 . S
O255 Mg246 2.114 . S
O255 C258 1.252 . S
O256 Mg246 2.251 . S
O256 Mg249 2.079 . S
O256 C258 1.273 . S
C257 O253 1.246 . S
C257 O254 1.259 . S
C258 O255 1.252 . S
C258 O256 1.273 . S
O259 Mg246 2.010 . S
O259 C251 1.249 . S
Mg260 O261 2.028 . S
Mg260 O267 1.986 . S
Mg260 O269 2.114 . S
Mg260 O270 2.251 . S
Mg260 O273 2.010 . S
O261 Mg260 2.028 . S
O261 C264 1.250 . S
O262 Mg263 2.028 . S
O262 C264 1.248 . S
Mg263 O262 2.028 . S
Mg263 O268 2.032 . S
Mg263 O270 2.079 . S
C264 O261 1.250 . S
C264 O262 1.248 . S
C265 O266 1.264 . S
C265 O273 1.249 . S
O266 C265 1.264 . S
O267 Mg260 1.986 . S
O267 C271 1.246 . S
O268 Mg263 2.032 . S
O268 C271 1.259 . S
O269 Mg260 2.114 . S
O269 C272 1.252 . S
O270 Mg260 2.251 . S
O270 Mg263 2.079 . S
O270 C272 1.273 . S
C271 O267 1.246 . S
C271 O268 1.259 . S
C272 O269 1.252 . S
C272 O270 1.273 . S
O273 Mg260 2.010 . S
O273 C265 1.249 . S
Mg274 O275 2.028 1_545 S
Mg274 O281 1.986 1_545 S
Mg274 O283 2.114 . S
Mg274 O284 2.251 . S
Mg274 O287 2.010 . S
O275 Mg274 2.028 1_565 S
O275 C278 1.250 . S
O276 Mg277 2.028 . S
O276 C278 1.248 . S
Mg277 O276 2.028 . S
Mg277 O282 2.032 . S
Mg277 O284 2.079 1_565 S
C278 O275 1.250 . S
C278 O276 1.248 . S
C279 O280 1.264 . S
C279 O287 1.249 . S
O280 C279 1.264 . S
O281 Mg274 1.986 1_565 S
O281 C285 1.246 . S
O282 Mg277 2.032 . S
O282 C285 1.259 . S
O283 Mg274 2.114 . S
O283 C286 1.252 . S
O284 Mg274 2.251 . S
O284 Mg277 2.079 1_545 S
O284 C286 1.273 . S
C285 O281 1.246 . S
C285 O282 1.259 . S
C286 O283 1.252 . S
C286 O284 1.273 . S
O287 Mg274 2.010 . S
O287 C279 1.249 . S
Mg288 O289 2.028 1_455 S
Mg288 O295 1.986 . S
Mg288 O297 2.114 . S
Mg288 O298 2.251 1_455 S
Mg288 O301 2.010 . S
O289 Mg288 2.028 1_655 S
O289 C292 1.250 . S
O290 Mg291 2.028 . S
O290 C292 1.248 . S
Mg291 O290 2.028 . S
Mg291 O296 2.032 . S
Mg291 O298 2.079 . S
C292 O289 1.250 . S
C292 O290 1.248 . S
C293 O294 1.264 . S
C293 O301 1.249 . S
O294 C293 1.264 . S
O295 Mg288 1.986 . S
O295 C299 1.246 . S
O296 Mg291 2.032 . S
O296 C299 1.259 1_655 S
O297 Mg288 2.114 . S
O297 C300 1.252 . S
O298 Mg288 2.251 1_655 S
O298 Mg291 2.079 . S
O298 C300 1.273 1_655 S
C299 O295 1.246 . S
C299 O296 1.259 1_455 S
C300 O297 1.252 . S
C300 O298 1.273 1_455 S
O301 Mg288 2.010 . S
O301 C293 1.249 . S
Mg302 O303 2.028 . S
Mg302 O309 1.986 . S
Mg302 O311 2.114 . S
Mg302 O312 2.251 . S
Mg302 O315 2.010 . S
O303 Mg302 2.028 . S
O303 C306 1.250 . S
O304 Mg305 2.028 . S
O304 C306 1.248 . S
Mg305 O304 2.028 . S
Mg305 O310 2.032 . S
Mg305 O312 2.079 . S
C306 O303 1.250 . S
C306 O304 1.248 . S
C307 O308 1.264 . S
C307 O315 1.249 . S
O308 C307 1.264 . S
O309 Mg302 1.986 . S
O309 C313 1.246 . S
O310 Mg305 2.032 . S
O310 C313 1.259 . S
O311 Mg302 2.114 . S
O311 C314 1.252 . S
O312 Mg302 2.251 . S
O312 Mg305 2.079 . S
O312 C314 1.273 . S
C313 O309 1.246 . S
C313 O310 1.259 . S
C314 O311 1.252 . S
C314 O312 1.273 . S
O315 Mg302 2.010 . S
O315 C307 1.249 . S
Mg316 O317 2.028 1_655 S
Mg316 O323 1.986 1_655 S
Mg316 O325 2.114 . S
Mg316 O326 2.251 1_655 S
Mg316 O329 2.010 . S
O317 Mg316 2.028 1_455 S
O317 C320 1.250 . S
O318 Mg319 2.028 . S
O318 C320 1.248 . S
Mg319 O318 2.028 . S
Mg319 O324 2.032 . S
Mg319 O326 2.079 . S
C320 O317 1.250 . S
C320 O318 1.248 . S
C321 O322 1.264 . S
C321 O329 1.249 . S
O322 C321 1.264 . S
O323 Mg316 1.986 1_455 S
O323 C327 1.246 . S
O324 Mg319 2.032 . S
O324 C327 1.259 . S
O325 Mg316 2.114 . S
O325 C328 1.252 . S
O326 Mg316 2.251 1_455 S
O326 Mg319 2.079 . S
O326 C328 1.273 1_455 S
C327 O323 1.246 . S
C327 O324 1.259 . S
C328 O325 1.252 . S
C328 O326 1.273 1_655 S
O329 Mg316 2.010 . S
O329 C321 1.249 . S
Mg330 O331 2.028 . S
Mg330 O337 1.986 . S
Mg330 O339 2.114 . S
Mg330 O340 2.251 . S
Mg330 O343 2.010 . S
O331 Mg330 2.028 . S
O331 C334 1.250 . S
O332 Mg333 2.028 . S
O332 C334 1.248 . S
Mg333 O332 2.028 . S
Mg333 O338 2.032 . S
Mg333 O340 2.079 . S
C334 O331 1.250 . S
C334 O332 1.248 . S
C335 O336 1.264 . S
C335 O343 1.249 . S
O336 C335 1.264 . S
O337 Mg330 1.986 . S
O337 C341 1.246 . S
O338 Mg333 2.032 . S
O338 C341 1.259 . S
O339 Mg330 2.114 . S
O339 C342 1.252 . S
O340 Mg330 2.251 . S
O340 Mg333 2.079 . S
O340 C342 1.273 . S
C341 O337 1.246 . S
C341 O338 1.259 . S
C342 O339 1.252 . S
C342 O340 1.273 . S
O343 Mg330 2.010 . S
O343 C335 1.249 . S
C187 C60 1.615 . S
C195 C76 1.011 . S
C81 C215 1.828 . S
C229 C48 1.571 . S
C244 C115 1.542 . S
C258 C136 1.821 . S
C131 C272 1.478 . S
C278 C104 1.449 . S
C126 C292 1.558 . S
C313 C103 1.548 . S
C120 C293 1.244 . S
C314 C142 1.519 . S
C82 C321 1.355 . S
C54 C327 1.754 . S
C65 C320 1.313 . S
C71 C328 1.277 . S
C37 C222 1.600 . S
C158 C223 1.822 . S
C180 C169 1.388 . S
C201 C98 1.323 . S
C49 C236 1.712 . S
C286 C125 1.553 . S
C237 C109 1.286 . S
C265 C137 1.448 . S
C271 C159 1.615 . S
C175 C279 1.011 . S
C92 C243 1.828 . S
C257 C147 1.571 . S
C38 C216 1.542 . S
C230 C4 1.821 1_655 S
C188 C21 1.478 . S
C194 C27 1.450 . S
C16 C306 1.558 . S
C26 C299 1.548 1_554 S
C43 C307 1.244 . S
C10 C300 1.518 . S
C335 C93 1.355 . S
C341 C153 1.754 . S
C334 C164 1.313 . S
C170 C342 1.277 . S
C114 C250 1.600 . S
C251 C59 1.822 . S
C264 C70 1.388 . S
C285 C87 1.325 . S
C148 C208 1.712 . S
C202 C15 1.554 . S
C32 C209 1.286 . S
C181 C5 1.448 . S
