# Generated by pormake.
# Topology ftw, (4,12)-cn, num edge types: 1
# Building blocks:
#     Node 0, Type 0, BuildingBlock: MUDLON_clean_linker_0, # of connection points: 4
#     Node 1, Type 0, BuildingBlock: MUDLON_clean_linker_0, # of connection points: 4
#     Node 2, Type 0, BuildingBlock: MUDLON_clean_linker_0, # of connection points: 4
#     Node 3, Type 1, BuildingBlock: EZIPEK_clean_sbu_0, # of connection points: 12
#     Edge 4, Type (0, 1), BuildingBlock: OJICUG_clean_linker_0, # of connection points: 2
#     Edge 5, Type (0, 1), BuildingBlock: OJICUG_clean_linker_0, # of connection points: 2
#     Edge 6, Type (0, 1), BuildingBlock: OJICUG_clean_linker_0, # of connection points: 2
#     Edge 7, Type (0, 1), BuildingBlock: OJICUG_clean_linker_0, # of connection points: 2
#     Edge 8, Type (0, 1), BuildingBlock: OJICUG_clean_linker_0, # of connection points: 2
#     Edge 9, Type (0, 1), BuildingBlock: OJICUG_clean_linker_0, # of connection points: 2
#     Edge 10, Type (0, 1), BuildingBlock: OJICUG_clean_linker_0, # of connection points: 2
#     Edge 11, Type (0, 1), BuildingBlock: OJICUG_clean_linker_0, # of connection points: 2
#     Edge 12, Type (0, 1), BuildingBlock: OJICUG_clean_linker_0, # of connection points: 2
#     Edge 13, Type (0, 1), BuildingBlock: OJICUG_clean_linker_0, # of connection points: 2
#     Edge 14, Type (0, 1), BuildingBlock: OJICUG_clean_linker_0, # of connection points: 2
#     Edge 15, Type (0, 1), BuildingBlock: OJICUG_clean_linker_0, # of connection points: 2
# Relax obj value: 0.081
# Max RMSD: 0.225
# Mean RMSD: 0.171
data_MOF--net-ftw--node1-EZIPEK_clean_sbu_0--node2-MUDLON_clean_linker_0--edge1-OJICUG_clean_linker_0
_symmetry_space_group_name_H-M    P1
_symmetry_Int_Tables_number       1
_symmetry_cell_setting            triclinic
loop_
_symmetry_equiv_pos_as_xyz
'x, y, z'
_cell_length_a     23.661285
_cell_length_b     26.530367
_cell_length_c     23.945318
_cell_angle_alpha  89.939204
_cell_angle_beta   89.777556
_cell_angle_gamma 90.063888
loop_
_atom_site_label
_atom_site_type_symbol
_atom_site_fract_x
_atom_site_fract_y
_atom_site_fract_z
_atom_type_partial_charge
H0 H 0.9123 0.77094 0.60301 0.0
N1 N 0.99589 0.72462 0.54957 0.0
H2 H 0.91541 0.81339 0.69349 0.0
H3 H 0.09024 0.73935 0.61354 0.0
H4 H 0.09437 0.78283 0.70423 0.0
H5 H 0.0954 0.76477 0.51167 0.0
H6 H 0.11312 0.80148 0.41953 0.0
H7 H 0.92146 0.73958 0.46802 0.0
H8 H 0.93768 0.77839 0.3765 0.0
H9 H 0.92067 0.65444 0.57789 0.0
H10 H 0.09437 0.67431 0.52842 0.0
H11 H 0.93451 0.56324 0.58235 0.0
H12 H 0.10806 0.58328 0.52906 0.0
H13 H 0.95399 0.32572 0.60493 0.0
H14 H 0.93854 0.28799 0.69743 0.0
H15 H 0.11918 0.28064 0.72184 0.0
H16 H 0.1338 0.31864 0.62955 0.0
H17 H 0.14353 0.32288 0.49511 0.0
H18 H 0.14256 0.2802 0.40433 0.0
H19 H 0.96037 0.2734 0.41112 0.0
H20 H 0.96191 0.31534 0.50254 0.0
H21 H 0.95857 0.39986 0.53177 0.0
H22 H 0.94531 0.49094 0.52899 0.0
H23 H 0.1178 0.51175 0.5839 0.0
N24 N 0.0556 0.3498 0.55779 0.0
H25 H 0.13125 0.42042 0.5828 0.0
C26 C 1.00096 0.75266 0.60106 0.0
C27 C 0.95228 0.77389 0.62464 0.0
C28 C 0.95425 0.7981 0.67652 0.0
C29 C 0.00525 0.80188 0.70648 0.0
C30 C 0.05426 0.78031 0.68279 0.0
C31 C 0.05217 0.75601 0.63055 0.0
C32 C 0.0069 0.74964 0.49692 0.0
C33 C 0.06085 0.76757 0.48238 0.0
C34 C 0.07077 0.78879 0.42946 0.0
C35 C 0.02687 0.79314 0.38987 0.0
C36 C 0.97292 0.77505 0.40496 0.0
C37 C 0.96326 0.75347 0.45766 0.0
C38 C 0.0061 0.67111 0.5523 0.0
C39 C 0.9617 0.63892 0.56752 0.0
C40 C 0.96967 0.5867 0.56946 0.0
C41 C 0.02235 0.5653 0.55551 0.0
C42 C 0.06706 0.598 0.54079 0.0
C43 C 0.0592 0.65032 0.53977 0.0
C44 C 0.04516 0.32419 0.61003 0.0
C45 C 0.99014 0.31539 0.62997 0.0
C46 C 0.98147 0.29402 0.68307 0.0
C47 C 0.02763 0.28144 0.71755 0.0
C48 C 0.08259 0.29052 0.69713 0.0
C49 C 0.09111 0.31157 0.64406 0.0
C50 C 0.05304 0.32232 0.50575 0.0
C51 C 0.10345 0.31185 0.47715 0.0
C52 C 0.10274 0.28758 0.42522 0.0
C53 C 0.05134 0.27359 0.40016 0.0
C54 C 1.00063 0.28429 0.42881 0.0
C55 C 1.00147 0.30805 0.4813 0.0
C56 C 0.0463 0.40343 0.55658 0.0
C57 C 0.99368 0.42404 0.54243 0.0
C58 C 0.98602 0.47639 0.54164 0.0
C59 C 0.03049 0.50931 0.55614 0.0
C60 C 0.08284 0.4881 0.57123 0.0
C61 C 0.09061 0.43583 0.57109 0.0
H62 H 0.4622 0.85071 0.28173 0.0
N63 N 0.54414 0.90062 0.33355 0.0
H64 H 0.37259 0.88465 0.24638 0.0
H65 H 0.51399 1.00077 0.32833 0.0
H66 H 0.42545 0.03461 0.29248 0.0
H67 H 0.5755 0.9688 0.24918 0.0
H68 H 0.6699 0.99915 0.23122 0.0
H69 H 0.64185 0.86013 0.36662 0.0
H70 H 0.73704 0.89171 0.34915 0.0
H71 H 0.49855 0.83477 0.40513 0.0
H72 H 0.58053 0.97997 0.39671 0.0
H73 H 0.48946 0.84365 0.50691 0.0
H74 H 0.57295 0.98845 0.49728 0.0
H75 H 0.42306 0.8917 0.77658 0.0
H76 H 0.32928 0.92328 0.80074 0.0
H77 H 0.38953 0.0761 0.77837 0.0
H78 H 0.48382 0.04398 0.75852 0.0
H79 H 0.58034 0.02581 0.718 0.0
H80 H 0.6699 0.04939 0.76146 0.0
H81 H 0.65099 0.92702 0.87904 0.0
H82 H 0.56177 0.90296 0.83479 0.0
H83 H 0.54055 0.8599 0.69354 0.0
H84 H 0.54799 0.84683 0.59224 0.0
H85 H 0.49929 1.0019 0.56516 0.0
N86 N 0.51326 0.94448 0.74657 0.0
H87 H 0.49401 1.01498 0.66492 0.0
C88 C 0.49544 0.92293 0.30673 0.0
C89 C 0.45472 0.89094 0.28343 0.0
C90 C 0.40344 0.91025 0.26399 0.0
C91 C 0.39221 0.96217 0.26708 0.0
C92 C 0.43321 0.99446 0.28954 0.0
C93 C 0.48392 0.97505 0.30994 0.0
C94 C 0.60013 0.91381 0.31249 0.0
C95 C 0.60964 0.95172 0.27219 0.0
C96 C 0.66427 0.96939 0.26176 0.0
C97 C 0.71085 0.94952 0.29072 0.0
C98 C 0.7021 0.90858 0.32686 0.0
C99 C 0.64755 0.89048 0.33683 0.0
C100 C 0.53986 0.90655 0.39336 0.0
C101 C 0.51465 0.86834 0.42528 0.0
C102 C 0.50987 0.87335 0.48319 0.0
C103 C 0.53026 0.91686 0.50988 0.0
C104 C 0.55586 0.95493 0.4778 0.0
C105 C 0.56031 0.95005 0.4202 0.0
C106 C 0.46045 0.96522 0.76602 0.0
C107 C 0.41598 0.93201 0.77784 0.0
C108 C 0.36209 0.95024 0.79043 0.0
C109 C 0.35114 1.0024 0.79057 0.0
C110 C 0.39614 0.03574 0.7791 0.0
C111 C 0.45034 1.0174 0.76765 0.0
C112 C 0.56414 0.96225 0.77321 0.0
C113 C 0.59523 1.0039 0.75301 0.0
C114 C 0.64673 1.01725 0.77759 0.0
C115 C 0.66747 0.98989 0.82333 0.0
C116 C 0.63589 0.9489 0.8439 0.0
C117 C 0.58492 0.93521 0.81892 0.0
C118 C 0.5168 0.93815 0.68697 0.0
C119 C 0.53166 0.8909 0.66547 0.0
C120 C 0.53544 0.88347 0.60783 0.0
C121 C 0.52438 0.92343 0.57089 0.0
C122 C 0.50892 0.9706 0.59259 0.0
C123 C 0.50545 0.97801 0.64994 0.0
H124 H 0.44106 0.34588 0.16984 0.0
N125 N 0.5285 0.35589 0.10064 0.0
H126 H 0.35049 0.30421 0.15219 0.0
H127 H 0.49775 0.30786 1.00413 0.0
H128 H 0.40683 0.26791 0.98503 0.0
H129 H 0.59494 0.34301 1.00752 0.0
H130 H 0.68632 0.29939 1.00332 0.0
H131 H 0.58134 0.30849 0.18278 0.0
H132 H 0.67275 0.26562 0.17941 0.0
H133 H 0.55531 0.43086 0.16897 0.0
H134 H 0.50714 0.39958 0.99921 0.0
H135 H 0.55869 0.52102 0.14786 0.0
H136 H 0.50723 0.48942 0.97828 0.0
H137 H 0.48017 0.76575 0.10329 0.0
H138 H 0.38791 0.80732 0.10551 0.0
H139 H 0.37358 0.78841 0.9271 0.0
H140 H 0.46549 0.74563 0.9254 0.0
H141 H 0.6051 0.76157 0.93639 0.0
H142 H 0.69629 0.80246 0.95383 0.0
H143 H 0.66804 0.78825 0.13149 0.0
H144 H 0.57713 0.74715 0.11351 0.0
H145 H 0.50195 0.68069 0.1099 0.0
H146 H 0.50071 0.59084 0.13016 0.0
H147 H 0.56495 0.56035 0.96422 0.0
N148 N 0.53256 0.72521 1.01101 0.0
H149 H 0.56291 0.65062 0.94354 0.0
C150 C 0.47641 0.32959 0.08873 0.0
C151 C 0.43379 0.32857 0.12956 0.0
C152 C 0.38173 0.3053 0.11905 0.0
C153 C 0.37087 0.28263 0.06706 0.0
C154 C 0.41368 0.28425 1.02587 0.0
C155 C 0.46589 0.30726 1.03662 0.0
C156 C 0.58095 0.32843 0.09554 0.0
C157 C 0.61146 0.32584 0.04504 0.0
C158 C 0.66409 0.30141 0.04287 0.0
C159 C 0.68708 0.27892 0.09102 0.0
C160 C 0.65622 0.28187 0.14133 0.0
C161 C 0.6039 0.30628 0.14342 0.0
C162 C 0.53044 0.40858 0.08608 0.0
C163 C 0.54504 0.44362 0.12725 0.0
C164 C 0.54644 0.49515 0.11513 0.0
C165 C 0.53271 0.51285 0.06141 0.0
C166 C 0.51869 0.47738 1.01993 0.0
C167 C 0.51803 0.42578 1.03199 0.0
C168 C 0.4797 0.75218 1.01398 0.0
C169 C 0.45718 0.77003 0.0647 0.0
C170 C 0.40421 0.79367 0.06599 0.0
C171 C 0.37328 0.80075 1.01654 0.0
C172 C 0.39639 0.78353 0.96586 0.0
C173 C 0.44883 0.75924 0.96478 0.0
C174 C 0.584 0.752 1.02343 0.0
C175 C 0.61855 0.76765 0.97904 0.0
C176 C 0.67086 0.79042 0.98912 0.0
C177 C 0.68967 0.79826 0.04407 0.0
C178 C 0.65464 0.78299 0.08869 0.0
C179 C 0.60244 0.75975 0.07849 0.0
C180 C 0.53172 0.67235 1.0247 0.0
C181 C 0.51513 0.65479 0.07764 0.0
C182 C 0.51513 0.60314 0.0894 0.0
C183 C 0.53267 0.56796 0.04885 0.0
C184 C 0.55005 0.58598 0.99618 0.0
C185 C 0.54932 0.63757 0.98431 0.0
C186 C 0.01325 0.16376 0.92106 0.0
C187 C 0.04508 0.15497 0.19594 0.0
C188 C 0.01573 0.92079 0.91126 0.0
C189 C 0.04528 0.91223 0.18651 0.0
C190 C 0.16886 0.91939 1.02945 0.0
C191 C 0.16776 0.16086 0.04579 0.0
C192 C 0.89361 0.91627 0.06539 0.0
C193 C 0.89132 0.15797 0.07524 0.0
C194 C 0.91339 0.02602 0.20364 0.0
C195 C 0.18504 0.02781 0.16622 0.0
C196 C 0.87493 0.03473 0.94107 0.0
C197 C 0.14802 0.04701 0.90352 0.0
Eu198 Eu 0.02943 0.13681 0.05769 0.0
O199 O 0.08543 0.08353 0.09828 0.0
O200 O 0.97433 0.08571 1.01269 0.0
Eu201 Eu 0.13318 0.03983 0.03963 0.0
Eu202 Eu 0.92774 0.03749 0.06808 0.0
O203 O 0.07102 0.08616 0.99987 0.0
O204 O 0.98851 0.08225 0.11188 0.0
Eu205 Eu 0.01535 0.04132 0.94887 0.0
Eu206 Eu 0.04527 0.03442 0.15813 0.0
O207 O 0.07226 0.99455 0.99612 0.0
O208 O 0.08618 0.99095 0.09394 0.0
O209 O 0.98969 0.9904 0.10684 0.0
O210 O 0.97563 0.99328 1.0098 0.0
Eu211 Eu 0.0313 0.93958 0.04956 0.0
O212 O 0.02377 0.1795 0.97348 0.0
O213 O 0.03521 0.174 0.14476 0.0
O214 O 0.02473 0.90173 0.96262 0.0
O215 O 0.03609 0.89644 0.13383 0.0
O216 O 0.18193 0.96808 1.0249 0.0
O217 O 0.18176 0.11262 0.03944 0.0
O218 O 0.87966 0.96432 0.07374 0.0
O219 O 0.87822 0.10921 0.07775 0.0
O220 O 0.96852 0.02384 0.2149 0.0
O221 O 0.13483 0.02684 0.19187 0.0
O222 O 0.92495 0.03645 0.91474 0.0
O223 O 0.09309 0.04255 0.89143 0.0
O224 O 0.9457 0.89915 0.05403 0.0
O225 O 0.11741 0.9007 0.04084 0.0
O226 O 0.94341 0.17666 0.06666 0.0
O227 O 0.11503 0.17819 0.05375 0.0
O228 O 0.05127 0.10621 0.20829 0.0
O229 O 0.05149 0.96003 0.20226 0.0
O230 O 0.0068 0.11597 0.9051 0.0
O231 O 0.01062 0.96961 0.899 0.0
O232 O 0.16997 0.04821 0.95436 0.0
O233 O 0.19328 0.03382 0.11169 0.0
O234 O 0.868 0.03644 0.99608 0.0
O235 O 0.89066 0.0336 0.15383 0.0
C236 C 0.01386 0.25862 0.30217 0.0
C237 C 0.05125 0.24586 0.34571 0.0
H238 H 0.98352 0.24094 0.21964 0.0
C239 C 0.08863 0.20543 0.33737 0.0
H240 H 0.98478 0.28981 0.30711 0.0
C241 C 0.0876 0.17753 0.28787 0.0
C242 C 0.04978 0.18957 0.24466 0.0
H243 H 0.11768 0.19425 0.36996 0.0
H244 H 0.11607 0.14577 0.28377 0.0
C245 C 0.01355 0.23107 0.25186 0.0
C246 C 0.77466 0.0236 0.27441 0.0
C247 C 0.76814 0.97135 0.28228 0.0
H248 H 0.82834 0.08283 0.24445 0.0
C249 C 0.81603 0.94017 0.27784 0.0
H250 H 0.73908 0.0489 0.27919 0.0
C251 C 0.86783 0.96018 0.26019 0.0
C252 C 0.87217 1.0114 0.24625 0.0
H253 H 0.81259 0.89979 0.28355 0.0
H254 H 0.9025 0.93465 0.25142 0.0
C255 C 0.82608 0.04335 0.25598 0.0
C256 C 0.07297 0.86072 0.33125 0.0
C257 C 0.03644 0.81902 0.33466 0.0
H258 H 0.10531 0.9213 0.28202 0.0
C259 C 0.00734 0.8045 0.28572 0.0
H260 H 0.09568 0.87384 0.36761 0.0
C261 C 0.01273 0.83241 0.2358 0.0
C262 C 0.04717 0.87557 0.2338 0.0
H263 H 0.97947 0.77212 0.28621 0.0
H264 H 0.98783 0.82173 0.19984 0.0
C265 C 0.07828 0.88833 0.28181 0.0
C266 C 0.2863 0.96174 0.26293 0.0
C267 C 0.3382 0.98273 0.24604 0.0
H268 H 0.19635 0.96098 0.25198 0.0
C269 C 0.33844 0.02249 0.20734 0.0
H270 H 0.28509 0.9313 0.29312 0.0
C271 C 0.28797 0.0391 0.18361 0.0
C272 C 0.23621 1.01697 0.19901 0.0
H273 H 0.37791 0.03925 0.19364 0.0
H274 H 0.28958 0.06823 0.15189 0.0
C275 C 0.23559 0.97911 0.24001 0.0
C276 C 0.97589 0.87488 0.76679 0.0
C277 C 0.00698 0.83009 0.76083 0.0
H278 H 0.95342 0.93719 0.81845 0.0
C279 C 0.03916 0.81335 0.80683 0.0
H280 H 0.95117 0.88954 0.73245 0.0
C281 C 0.04048 0.84114 0.8571 0.0
C282 C 0.01026 0.88658 0.86205 0.0
H283 H 0.06328 0.77878 0.80401 0.0
H284 H 0.06649 0.82797 0.89124 0.0
C285 C 0.9775 0.90252 0.81635 0.0
C286 C 0.28967 0.06517 0.84012 0.0
C287 C 0.29423 1.02165 0.807 0.0
H288 H 0.23764 0.10874 0.89476 0.0
C289 C 0.24463 0.99409 0.79512 0.0
H290 H 0.32649 0.08742 0.85062 0.0
C291 C 0.19329 1.00636 0.82116 0.0
C292 C 0.19088 0.04657 0.85897 0.0
H293 H 0.24612 0.96123 0.7684 0.0
H294 H 0.15726 0.98159 0.81591 0.0
C295 C 0.2385 0.0776 0.86548 0.0
C296 C 0.0533 0.26837 0.81957 0.0
C297 C 0.0189 0.25665 0.77326 0.0
H298 H 0.07766 0.24914 0.90357 0.0
C299 C 0.97812 0.2185 0.77952 0.0
H300 H 0.08467 0.298 0.81657 0.0
C301 C 0.97408 0.1909 0.82919 0.0
C302 C 0.0103 0.20078 0.87441 0.0
H303 H 0.95112 0.20805 0.74499 0.0
H304 H 0.94389 0.16021 0.83137 0.0
C305 C 0.04882 0.2409 0.86976 0.0
C306 C 0.72078 1.00994 0.90971 0.0
C307 C 0.72055 1.00493 0.85156 0.0
H308 H 0.76835 0.02392 0.98287 0.0
C309 C 0.77118 1.01284 0.82167 0.0
H310 H 0.68229 1.00476 0.93373 0.0
C311 C 0.82169 0.02366 0.85005 0.0
C312 C 0.82201 0.02743 0.90866 0.0
H313 H 0.77201 1.00912 0.77663 0.0
H314 H 0.86041 0.02814 0.82627 0.0
C315 C 0.77052 1.02124 0.93779 0.0
C316 C 0.26474 0.27159 0.07977 0.0
C317 C 0.31663 0.25491 0.05704 0.0
H318 H 0.1765 0.25558 0.09359 0.0
C319 C 0.31699 0.2097 1.02658 0.0
H320 H 0.26253 0.30665 0.10278 0.0
C321 C 0.26787 0.18106 1.02082 0.0
C322 C 0.21657 0.19638 0.04556 0.0
H323 H 0.35583 0.19507 1.00892 0.0
H324 H 0.2707 0.14584 0.99812 0.0
C325 C 0.21518 0.24268 0.07397 0.0
C326 C 0.27589 0.81593 0.05657 0.0
C327 C 0.3183 0.82796 1.01731 0.0
H328 H 0.19404 0.83458 0.09018 0.0
C329 C 0.30866 0.86745 0.97943 0.0
H330 H 0.28208 0.78544 0.08603 0.0
C331 C 0.25888 0.89561 0.98217 0.0
C332 C 0.21699 0.88441 1.02213 0.0
H333 H 0.34057 0.8778 0.94892 0.0
H334 H 0.25362 0.92699 0.95363 0.0
C335 C 0.22534 0.84359 0.05856 0.0
C336 C 0.78866 0.26784 0.05807 0.0
C337 C 0.74152 0.25034 0.08879 0.0
H338 H 0.87391 0.25308 1.03045 0.0
C339 C 0.74618 0.20427 0.11733 0.0
H340 H 0.78668 0.30344 1.03599 0.0
C341 C 0.79569 0.17592 0.11434 0.0
C342 C 0.84242 0.19257 0.08276 0.0
H343 H 0.71082 0.18919 0.14088 0.0
H344 H 0.7969 0.14016 0.13624 0.0
C345 C 0.83884 0.23937 0.0554 0.0
C346 C 0.74835 0.86266 0.09423 0.0
C347 C 0.74469 0.82395 0.05443 0.0
H348 H 0.79864 0.92168 0.12927 0.0
C349 C 0.79306 0.81212 1.02253 0.0
H350 H 0.71195 0.87288 0.11934 0.0
C351 C 0.84316 0.83988 1.0286 0.0
C352 C 0.84552 0.88046 0.06609 0.0
H353 H 0.79177 0.78205 0.992 0.0
H354 H 0.87893 0.83131 1.00188 0.0
C355 C 0.79802 0.89074 0.09976 0.0
loop_
_geom_bond_atom_site_label_1
_geom_bond_atom_site_label_2
_geom_bond_distance
_geom_bond_site_symmetry_2
_ccdc_geom_bond_type
H0 C27 0.929 . S
N1 C26 1.433 . S
N1 C32 1.435 . S
N1 C38 1.423 1_455 S
H2 C28 0.930 . S
H3 C31 0.931 . S
H4 C30 0.929 . S
H5 C33 0.930 . S
H6 C34 0.932 . S
H7 C37 0.929 . S
H8 C36 0.931 . S
H9 C39 0.929 . S
H10 C43 0.932 . S
H11 C40 0.931 . S
H12 C42 0.929 . S
H13 C45 0.929 . S
H14 C46 0.930 . S
H15 C48 0.929 . S
H16 C49 0.931 . S
H17 C51 0.930 . S
H18 C52 0.932 . S
H19 C54 0.931 . S
H20 C55 0.929 . S
H21 C57 0.929 . S
H22 C58 0.931 . S
H23 C60 0.929 . S
N24 C44 1.433 . S
N24 C50 1.435 . S
N24 C56 1.423 1_455 S
H25 C61 0.932 . S
C26 N1 1.433 . S
C26 C27 1.363 1_455 S
C26 C31 1.370 . S
C27 H0 0.929 . S
C27 C26 1.363 1_655 S
C27 C28 1.385 . S
C28 H2 0.930 . S
C28 C27 1.385 . S
C28 C29 1.357 1_655 S
C29 C28 1.357 1_455 S
C29 C30 1.406 . S
C30 H4 0.929 . S
C30 C29 1.406 . S
C30 C31 1.391 . S
C31 H3 0.931 . S
C31 C26 1.370 . S
C31 C30 1.391 . S
C32 N1 1.435 . S
C32 C33 1.358 . S
C32 C37 1.371 1_455 S
C33 H5 0.930 . S
C33 C32 1.358 . S
C33 C34 1.405 . S
C34 H6 0.932 . S
C34 C33 1.405 . S
C34 C35 1.383 . S
C35 C34 1.383 . S
C35 C36 1.393 1_455 S
C36 H8 0.931 . S
C36 C35 1.393 1_655 S
C36 C37 1.382 . S
C37 H7 0.929 . S
C37 C32 1.371 1_655 S
C37 C36 1.382 . S
C38 N1 1.423 1_655 S
C38 C39 1.362 . S
C38 C43 1.388 1_655 S
C39 H9 0.929 . S
C39 C38 1.362 . S
C39 C40 1.376 . S
C40 H11 0.931 . S
C40 C39 1.376 . S
C40 C41 1.396 . S
C41 C40 1.396 . S
C41 C42 1.348 1_655 S
C41 C59 1.472 . S
C42 H12 0.929 . S
C42 C41 1.348 1_455 S
C42 C43 1.443 . S
C43 H10 0.932 . S
C43 C38 1.388 1_455 S
C43 C42 1.443 . S
C44 N24 1.433 . S
C44 C45 1.363 1_455 S
C44 C49 1.370 . S
C45 H13 0.929 . S
C45 C44 1.363 1_655 S
C45 C46 1.385 . S
C46 H14 0.930 . S
C46 C45 1.385 . S
C46 C47 1.357 1_655 S
C47 C46 1.357 1_455 S
C47 C48 1.406 . S
C48 H15 0.929 . S
C48 C47 1.406 . S
C48 C49 1.391 . S
C49 H16 0.931 . S
C49 C44 1.370 . S
C49 C48 1.391 . S
C50 N24 1.435 . S
C50 C51 1.358 . S
C50 C55 1.371 1_455 S
C51 H17 0.930 . S
C51 C50 1.358 . S
C51 C52 1.405 . S
C52 H18 0.932 . S
C52 C51 1.405 . S
C52 C53 1.383 . S
C53 C52 1.383 . S
C53 C54 1.393 1_455 S
C54 H19 0.931 . S
C54 C53 1.393 1_655 S
C54 C55 1.382 . S
C55 H20 0.929 . S
C55 C50 1.371 1_655 S
C55 C54 1.382 . S
C56 N24 1.423 1_655 S
C56 C57 1.362 . S
C56 C61 1.388 1_655 S
C57 H21 0.929 . S
C57 C56 1.362 . S
C57 C58 1.376 . S
C58 H22 0.931 . S
C58 C57 1.376 . S
C58 C59 1.396 . S
C59 C41 1.472 . S
C59 C58 1.396 . S
C59 C60 1.348 1_655 S
C60 H23 0.929 . S
C60 C59 1.348 1_455 S
C60 C61 1.443 . S
C61 H25 0.932 . S
C61 C56 1.388 1_455 S
C61 C60 1.443 . S
H62 C89 0.929 . S
N63 C88 1.433 . S
N63 C94 1.435 . S
N63 C100 1.423 . S
H64 C90 0.930 . S
H65 C93 0.931 . S
H66 C92 0.929 . S
H67 C95 0.930 . S
H68 C96 0.932 . S
H69 C99 0.929 . S
H70 C98 0.931 . S
H71 C101 0.929 . S
H72 C105 0.932 1_545 S
H73 C102 0.931 . S
H74 C104 0.929 1_545 S
H75 C107 0.929 . S
H76 C108 0.930 . S
H77 C110 0.929 . S
H78 C111 0.931 . S
H79 C113 0.930 . S
H80 C114 0.932 . S
H81 C116 0.931 . S
H82 C117 0.929 . S
H83 C119 0.929 . S
H84 C120 0.931 . S
H85 C122 0.929 1_545 S
N86 C106 1.433 . S
N86 C112 1.435 . S
N86 C118 1.423 . S
H87 C123 0.932 1_545 S
C88 N63 1.433 . S
C88 C89 1.363 . S
C88 C93 1.370 1_565 S
C89 H62 0.929 . S
C89 C88 1.363 . S
C89 C90 1.385 . S
C90 H64 0.930 . S
C90 C89 1.385 . S
C90 C91 1.357 . S
C91 C90 1.357 . S
C91 C92 1.406 1_565 S
C92 H66 0.929 . S
C92 C91 1.406 1_545 S
C92 C93 1.391 . S
C93 H65 0.931 . S
C93 C88 1.370 1_545 S
C93 C92 1.391 . S
C94 N63 1.435 . S
C94 C95 1.358 1_565 S
C94 C99 1.371 . S
C95 H67 0.930 . S
C95 C94 1.358 1_545 S
C95 C96 1.405 . S
C96 H68 0.932 . S
C96 C95 1.405 . S
C96 C97 1.383 1_545 S
C97 C96 1.383 1_565 S
C97 C98 1.393 . S
C98 H70 0.931 . S
C98 C97 1.393 . S
C98 C99 1.382 . S
C99 H69 0.929 . S
C99 C94 1.371 . S
C99 C98 1.382 . S
C100 N63 1.423 . S
C100 C101 1.362 . S
C100 C105 1.388 . S
C101 H71 0.929 . S
C101 C100 1.362 . S
C101 C102 1.376 . S
C102 H73 0.931 . S
C102 C101 1.376 . S
C102 C103 1.396 . S
C103 C102 1.396 . S
C103 C104 1.348 . S
C103 C121 1.472 . S
C104 H74 0.929 1_565 S
C104 C103 1.348 . S
C104 C105 1.443 . S
C105 H72 0.932 1_565 S
C105 C100 1.388 . S
C105 C104 1.443 . S
C106 N86 1.433 . S
C106 C107 1.363 . S
C106 C111 1.370 1_565 S
C107 H75 0.929 . S
C107 C106 1.363 . S
C107 C108 1.385 . S
C108 H76 0.930 . S
C108 C107 1.385 . S
C108 C109 1.357 . S
C109 C108 1.357 . S
C109 C110 1.406 1_565 S
C110 H77 0.929 . S
C110 C109 1.406 1_545 S
C110 C111 1.391 . S
C111 H78 0.931 . S
C111 C106 1.370 1_545 S
C111 C110 1.391 . S
C112 N86 1.435 . S
C112 C113 1.358 1_565 S
C112 C117 1.371 . S
C113 H79 0.930 . S
C113 C112 1.358 1_545 S
C113 C114 1.405 . S
C114 H80 0.932 . S
C114 C113 1.405 . S
C114 C115 1.383 1_545 S
C115 C114 1.383 1_565 S
C115 C116 1.393 . S
C116 H81 0.931 . S
C116 C115 1.393 . S
C116 C117 1.382 . S
C117 H82 0.929 . S
C117 C112 1.371 . S
C117 C116 1.382 . S
C118 N86 1.423 . S
C118 C119 1.362 . S
C118 C123 1.388 . S
C119 H83 0.929 . S
C119 C118 1.362 . S
C119 C120 1.376 . S
C120 H84 0.931 . S
C120 C119 1.376 . S
C120 C121 1.396 . S
C121 C103 1.472 . S
C121 C120 1.396 . S
C121 C122 1.348 . S
C122 H85 0.929 1_565 S
C122 C121 1.348 . S
C122 C123 1.443 . S
C123 H87 0.932 1_565 S
C123 C118 1.388 . S
C123 C122 1.443 . S
H124 C151 0.929 . S
N125 C150 1.433 . S
N125 C156 1.435 . S
N125 C162 1.423 . S
H126 C152 0.930 . S
H127 C155 0.931 . S
H128 C154 0.929 . S
H129 C157 0.930 . S
H130 C158 0.932 . S
H131 C161 0.929 . S
H132 C160 0.931 . S
H133 C163 0.929 . S
H134 C167 0.932 1_556 S
H135 C164 0.931 . S
H136 C166 0.940 . S
H137 C169 0.929 . S
H138 C170 0.930 . S
H139 C172 0.929 . S
H140 C173 0.931 . S
H141 C175 0.930 . S
H142 C176 0.932 . S
H143 C178 0.931 . S
H144 C179 0.929 . S
H145 C181 0.929 . S
H146 C182 0.931 . S
H147 C184 0.940 . S
N148 C168 1.433 . S
N148 C174 1.435 . S
N148 C180 1.423 . S
H149 C185 0.932 1_556 S
C150 N125 1.433 . S
C150 C151 1.363 . S
C150 C155 1.370 1_554 S
C151 H124 0.929 . S
C151 C150 1.363 . S
C151 C152 1.385 . S
C152 H126 0.930 . S
C152 C151 1.385 . S
C152 C153 1.357 . S
C153 C152 1.357 . S
C153 C154 1.406 1_554 S
C154 H128 0.929 . S
C154 C153 1.406 1_556 S
C154 C155 1.391 . S
C155 H127 0.931 . S
C155 C150 1.370 1_556 S
C155 C154 1.391 . S
C156 N125 1.435 . S
C156 C157 1.358 1_554 S
C156 C161 1.371 . S
C157 H129 0.930 . S
C157 C156 1.358 1_556 S
C157 C158 1.405 . S
C158 H130 0.932 . S
C158 C157 1.405 . S
C158 C159 1.383 1_556 S
C159 C158 1.383 1_554 S
C159 C160 1.393 . S
C160 H132 0.931 . S
C160 C159 1.393 . S
C160 C161 1.382 . S
C161 H131 0.929 . S
C161 C156 1.371 . S
C161 C160 1.382 . S
C162 N125 1.423 . S
C162 C163 1.362 . S
C162 C167 1.388 . S
C163 H133 0.929 . S
C163 C162 1.362 . S
C163 C164 1.376 . S
C164 H135 0.931 . S
C164 C163 1.376 . S
C164 C165 1.396 . S
C165 C164 1.396 . S
C165 C166 1.348 . S
C165 C183 1.472 . S
C166 H136 0.940 . S
C166 C165 1.348 . S
C166 C167 1.443 . S
C167 H134 0.932 1_554 S
C167 C162 1.388 . S
C167 C166 1.443 . S
C168 N148 1.433 . S
C168 C169 1.363 . S
C168 C173 1.370 1_554 S
C169 H137 0.929 . S
C169 C168 1.363 . S
C169 C170 1.385 . S
C170 H138 0.930 . S
C170 C169 1.385 . S
C170 C171 1.357 . S
C171 C170 1.357 . S
C171 C172 1.406 1_554 S
C172 H139 0.929 . S
C172 C171 1.406 1_556 S
C172 C173 1.391 . S
C173 H140 0.931 . S
C173 C168 1.370 1_556 S
C173 C172 1.391 . S
C174 N148 1.435 . S
C174 C175 1.358 1_554 S
C174 C179 1.371 . S
C175 H141 0.930 . S
C175 C174 1.358 1_556 S
C175 C176 1.405 . S
C176 H142 0.932 . S
C176 C175 1.405 . S
C176 C177 1.383 1_556 S
C177 C176 1.383 1_554 S
C177 C178 1.393 . S
C178 H143 0.931 . S
C178 C177 1.393 . S
C178 C179 1.382 . S
C179 H144 0.929 . S
C179 C174 1.371 . S
C179 C178 1.382 . S
C180 N148 1.423 . S
C180 C181 1.362 . S
C180 C185 1.388 . S
C181 H145 0.929 . S
C181 C180 1.362 . S
C181 C182 1.376 . S
C182 H146 0.931 . S
C182 C181 1.376 . S
C182 C183 1.396 . S
C183 C165 1.472 . S
C183 C182 1.396 . S
C183 C184 1.348 . S
C184 H147 0.940 . S
C184 C183 1.348 . S
C184 C185 1.443 . S
C185 H149 0.932 1_554 S
C185 C180 1.388 . S
C185 C184 1.443 . S
C186 O212 1.283 . S
C186 O230 1.283 . S
C187 O213 1.283 . S
C187 O228 1.283 . S
C188 O214 1.283 . S
C188 O231 1.283 . S
C189 O215 1.283 . S
C189 O229 1.283 . S
C190 O216 1.283 . S
C190 O225 1.283 . S
C191 O217 1.283 . S
C191 O227 1.283 . S
C192 O218 1.283 . S
C192 O224 1.283 . S
C193 O219 1.283 . S
C193 O226 1.283 . S
C194 O220 1.283 . S
C194 O235 1.283 . S
C195 O221 1.283 . S
C195 O233 1.283 . S
C196 O222 1.283 . S
C196 O234 1.283 . S
C197 O223 1.283 . S
C197 O232 1.283 . S
Eu198 O199 2.370 . S
Eu198 O200 2.370 1_454 S
Eu198 O203 2.370 1_554 S
Eu198 O204 2.370 1_455 S
Eu198 O212 2.363 1_554 S
Eu198 O213 2.363 . S
Eu198 O226 2.363 1_455 S
Eu198 O227 2.363 . S
O199 Eu198 2.370 . S
O199 Eu201 2.370 . S
O199 Eu206 2.370 . S
O200 Eu198 2.370 1_656 S
O200 Eu202 2.370 1_556 S
O200 Eu205 2.370 1_655 S
Eu201 O199 2.370 . S
Eu201 O203 2.370 1_554 S
Eu201 O207 2.370 1_544 S
Eu201 O208 2.370 1_545 S
Eu201 O216 2.363 1_545 S
Eu201 O217 2.363 . S
Eu201 O232 2.363 1_554 S
Eu201 O233 2.363 . S
Eu202 O200 2.370 1_554 S
Eu202 O204 2.370 . S
Eu202 O209 2.370 1_545 S
Eu202 O210 2.370 1_544 S
Eu202 O218 2.363 1_545 S
Eu202 O219 2.363 . S
Eu202 O234 2.363 1_554 S
Eu202 O235 2.363 . S
O203 Eu198 2.370 1_556 S
O203 Eu201 2.370 1_556 S
O203 Eu205 2.370 . S
O204 Eu198 2.370 1_655 S
O204 Eu202 2.370 . S
O204 Eu206 2.370 1_655 S
Eu205 O200 2.370 1_455 S
Eu205 O203 2.370 . S
Eu205 O207 2.370 1_545 S
Eu205 O210 2.370 1_445 S
Eu205 O222 2.363 1_455 S
Eu205 O223 2.363 . S
Eu205 O230 2.363 . S
Eu205 O231 2.363 1_545 S
Eu206 O199 2.370 . S
Eu206 O204 2.370 1_455 S
Eu206 O208 2.370 1_545 S
Eu206 O209 2.370 1_445 S
Eu206 O220 2.363 1_455 S
Eu206 O221 2.363 . S
Eu206 O228 2.363 . S
Eu206 O229 2.363 1_545 S
O207 Eu201 2.370 1_566 S
O207 Eu205 2.370 1_565 S
O207 Eu211 2.370 1_556 S
O208 Eu201 2.370 1_565 S
O208 Eu206 2.370 1_565 S
O208 Eu211 2.370 . S
O209 Eu202 2.370 1_565 S
O209 Eu206 2.370 1_665 S
O209 Eu211 2.370 1_655 S
O210 Eu202 2.370 1_566 S
O210 Eu205 2.370 1_665 S
O210 Eu211 2.370 1_656 S
Eu211 O207 2.370 1_554 S
Eu211 O208 2.370 . S
Eu211 O209 2.370 1_455 S
Eu211 O210 2.370 1_454 S
Eu211 O214 2.363 1_554 S
Eu211 O215 2.363 . S
Eu211 O224 2.363 1_455 S
Eu211 O225 2.363 . S
O212 C186 1.283 . S
O212 Eu198 2.363 1_556 S
O213 C187 1.283 . S
O213 Eu198 2.363 . S
O214 C188 1.283 . S
O214 Eu211 2.363 1_556 S
O215 C189 1.283 . S
O215 Eu211 2.363 . S
O216 C190 1.283 . S
O216 Eu201 2.363 1_565 S
O217 C191 1.283 . S
O217 Eu201 2.363 . S
O218 C192 1.283 . S
O218 Eu202 2.363 1_565 S
O219 C193 1.283 . S
O219 Eu202 2.363 . S
O220 C194 1.283 . S
O220 Eu206 2.363 1_655 S
O221 C195 1.283 . S
O221 Eu206 2.363 . S
O222 C196 1.283 . S
O222 Eu205 2.363 1_655 S
O223 C197 1.283 . S
O223 Eu205 2.363 . S
O224 C192 1.283 . S
O224 Eu211 2.363 1_655 S
O225 C190 1.283 . S
O225 Eu211 2.363 . S
O226 C193 1.283 . S
O226 Eu198 2.363 1_655 S
O227 C191 1.283 . S
O227 Eu198 2.363 . S
O228 C187 1.283 . S
O228 Eu206 2.363 . S
O229 C189 1.283 . S
O229 Eu206 2.363 1_565 S
O230 C186 1.283 . S
O230 Eu205 2.363 . S
O231 C188 1.283 . S
O231 Eu205 2.363 1_565 S
O232 C197 1.283 . S
O232 Eu201 2.363 1_556 S
O233 C195 1.283 . S
O233 Eu201 2.363 . S
O234 C196 1.283 . S
O234 Eu202 2.363 1_556 S
O235 C194 1.283 . S
O235 Eu202 2.363 . S
C236 C237 1.387 1_655 S
C236 H240 0.950 . S
C236 C245 1.390 . S
C237 C236 1.387 1_455 S
C237 C239 1.387 . S
H238 C245 0.950 . S
C239 C237 1.387 . S
C239 C241 1.390 . S
C239 H243 0.950 . S
H240 C236 0.950 . S
C241 C239 1.390 . S
C241 C242 1.387 . S
C241 H244 0.950 . S
C242 C241 1.387 . S
C242 C245 1.387 1_455 S
H243 C239 0.950 . S
H244 C241 0.950 . S
C245 C236 1.390 . S
C245 H238 0.950 . S
C245 C242 1.387 1_655 S
C246 C247 1.387 . S
C246 H250 0.950 . S
C246 C255 1.390 . S
C247 C246 1.387 . S
C247 C249 1.388 1_545 S
H248 C255 0.950 . S
C249 C247 1.388 1_565 S
C249 C251 1.390 . S
C249 H253 0.950 . S
H250 C246 0.950 . S
C251 C249 1.390 . S
C251 C252 1.387 1_565 S
C251 H254 0.950 . S
C252 C251 1.387 1_545 S
C252 C255 1.387 . S
H253 C249 0.950 . S
H254 C251 0.950 . S
C255 C246 1.390 . S
C255 H248 0.950 . S
C255 C252 1.387 . S
C256 C257 1.387 . S
C256 H260 0.950 . S
C256 C265 1.390 . S
C257 C256 1.387 . S
C257 C259 1.387 1_455 S
H258 C265 0.950 . S
C259 C257 1.387 1_655 S
C259 C261 1.390 . S
C259 H263 0.950 . S
H260 C256 0.950 . S
C261 C259 1.390 . S
C261 C262 1.387 1_655 S
C261 H264 0.950 . S
C262 C261 1.387 1_455 S
C262 C265 1.387 . S
H263 C259 0.950 . S
H264 C261 0.950 . S
C265 C256 1.390 . S
C265 H258 0.950 . S
C265 C262 1.387 . S
C266 C267 1.388 1_565 S
C266 H270 0.950 . S
C266 C275 1.390 . S
C267 C266 1.388 1_545 S
C267 C269 1.387 . S
H268 C275 0.950 . S
C269 C267 1.387 . S
C269 C271 1.390 . S
C269 H273 0.950 . S
H270 C266 0.950 . S
C271 C269 1.390 . S
C271 C272 1.387 . S
C271 H274 0.950 . S
C272 C271 1.387 . S
C272 C275 1.387 1_545 S
H273 C269 0.950 . S
H274 C271 0.950 . S
C275 C266 1.390 . S
C275 H268 0.950 . S
C275 C272 1.387 1_565 S
C276 C277 1.387 1_655 S
C276 H280 0.950 . S
C276 C285 1.390 . S
C277 C276 1.387 1_455 S
C277 C279 1.387 . S
H278 C285 0.950 . S
C279 C277 1.387 . S
C279 C281 1.390 . S
C279 H283 0.950 . S
H280 C276 0.950 . S
C281 C279 1.390 . S
C281 C282 1.387 . S
C281 H284 0.950 . S
C282 C281 1.387 . S
C282 C285 1.387 1_455 S
H283 C279 0.950 . S
H284 C281 0.950 . S
C285 C276 1.390 . S
C285 H278 0.950 . S
C285 C282 1.387 1_655 S
C286 C287 1.387 . S
C286 H290 0.950 . S
C286 C295 1.390 . S
C287 C286 1.387 . S
C287 C289 1.388 1_545 S
H288 C295 0.950 . S
C289 C287 1.388 1_565 S
C289 C291 1.390 . S
C289 H293 0.950 . S
H290 C286 0.950 . S
C291 C289 1.390 . S
C291 C292 1.387 1_565 S
C291 H294 0.950 . S
C292 C291 1.387 1_545 S
C292 C295 1.387 . S
H293 C289 0.950 . S
H294 C291 0.950 . S
C295 C286 1.390 . S
C295 H288 0.950 . S
C295 C292 1.387 . S
C296 C297 1.387 . S
C296 H300 0.950 . S
C296 C305 1.390 . S
C297 C296 1.387 . S
C297 C299 1.387 1_455 S
H298 C305 0.950 . S
C299 C297 1.387 1_655 S
C299 C301 1.390 . S
C299 H303 0.950 . S
H300 C296 0.950 . S
C301 C299 1.390 . S
C301 C302 1.387 1_655 S
C301 H304 0.950 . S
C302 C301 1.387 1_455 S
C302 C305 1.387 . S
H303 C299 0.950 . S
H304 C301 0.950 . S
C305 C296 1.390 . S
C305 H298 0.950 . S
C305 C302 1.387 . S
C306 C307 1.387 1_565 S
C306 H310 0.950 . S
C306 C315 1.390 . S
C307 C306 1.387 1_545 S
C307 C309 1.387 . S
H308 C315 0.950 . S
C309 C307 1.387 . S
C309 C311 1.390 . S
C309 H313 0.950 . S
H310 C306 0.950 . S
C311 C309 1.390 . S
C311 C312 1.388 . S
C311 H314 0.950 . S
C312 C311 1.388 . S
C312 C315 1.387 1_545 S
H313 C309 0.950 . S
H314 C311 0.950 . S
C315 C306 1.390 . S
C315 H308 0.950 . S
C315 C312 1.387 1_565 S
C316 C317 1.387 . S
C316 H320 0.950 . S
C316 C325 1.390 . S
C317 C316 1.387 . S
C317 C319 1.387 1_554 S
H318 C325 0.950 . S
C319 C317 1.387 1_556 S
C319 C321 1.390 . S
C319 H323 0.950 . S
H320 C316 0.950 . S
C321 C319 1.390 . S
C321 C322 1.387 1_556 S
C321 H324 0.950 . S
C322 C321 1.387 1_554 S
C322 C325 1.387 . S
H323 C319 0.950 . S
H324 C321 0.950 . S
C325 C316 1.390 . S
C325 H318 0.950 . S
C325 C322 1.387 . S
C326 C327 1.387 . S
C326 H330 0.950 . S
C326 C335 1.390 . S
C327 C326 1.387 . S
C327 C329 1.387 1_554 S
H328 C335 0.950 . S
C329 C327 1.387 1_556 S
C329 C331 1.390 . S
C329 H333 0.950 . S
H330 C326 0.950 . S
C331 C329 1.390 . S
C331 C332 1.387 1_556 S
C331 H334 0.950 . S
C332 C331 1.387 1_554 S
C332 C335 1.387 . S
H333 C329 0.950 . S
H334 C331 0.950 . S
C335 C326 1.390 . S
C335 H328 0.950 . S
C335 C332 1.387 . S
C336 C337 1.387 1_556 S
C336 H340 0.950 . S
C336 C345 1.390 . S
C337 C336 1.387 1_554 S
C337 C339 1.387 . S
H338 C345 0.950 . S
C339 C337 1.387 . S
C339 C341 1.390 . S
C339 H343 0.950 . S
H340 C336 0.950 . S
C341 C339 1.390 . S
C341 C342 1.387 . S
C341 H344 0.950 . S
C342 C341 1.387 . S
C342 C345 1.387 1_554 S
H343 C339 0.950 . S
H344 C341 0.950 . S
C345 C336 1.390 . S
C345 H338 0.950 . S
C345 C342 1.387 1_556 S
C346 C347 1.387 . S
C346 H350 0.950 . S
C346 C355 1.390 . S
C347 C346 1.387 . S
C347 C349 1.387 1_554 S
H348 C355 0.950 . S
C349 C347 1.387 1_556 S
C349 C351 1.390 . S
C349 H353 0.950 . S
H350 C346 0.950 . S
C351 C349 1.390 . S
C351 C352 1.387 1_556 S
C351 H354 0.950 . S
C352 C351 1.387 1_554 S
C352 C355 1.387 . S
H353 C349 0.950 . S
H354 C351 0.950 . S
C355 C346 1.390 . S
C355 H348 0.950 . S
C355 C352 1.387 . S
C242 C187 2.057 . S
C237 C53 2.079 . S
C252 C194 1.436 . S
C247 C97 1.461 1_545 S
C262 C189 2.057 . S
C257 C35 2.082 . S
C272 C195 1.408 . S
C267 C91 1.390 1_545 S
C277 C29 2.086 . S
C282 C188 2.117 . S
C292 C197 1.408 . S
C287 C109 1.390 1_545 S
C297 C47 2.086 . S
C302 C186 2.114 . S
C307 C115 1.461 1_545 S
C312 C196 1.436 . S
C317 C153 1.665 . S
C322 C191 1.716 . S
C327 C171 1.667 . S
C332 C190 1.720 . S
C342 C193 1.623 . S
C337 C159 1.637 . S
C352 C192 1.623 . S
C347 C177 1.639 . S
