# Generated by pormake.
# Topology csq, (4,8)-cn, num edge types: 1
# Building blocks:
#     Node 0, Type 0, BuildingBlock: MUDLON_clean_linker_0, # of connection points: 4
#     Node 1, Type 0, BuildingBlock: MUDLON_clean_linker_0, # of connection points: 4
#     Node 2, Type 0, BuildingBlock: MUDLON_clean_linker_0, # of connection points: 4
#     Node 3, Type 0, BuildingBlock: MUDLON_clean_linker_0, # of connection points: 4
#     Node 4, Type 0, BuildingBlock: MUDLON_clean_linker_0, # of connection points: 4
#     Node 5, Type 0, BuildingBlock: MUDLON_clean_linker_0, # of connection points: 4
#     Node 6, Type 1, BuildingBlock: TAGTUT_clean_sbu_1, # of connection points: 8
#     Node 7, Type 1, BuildingBlock: TAGTUT_clean_sbu_1, # of connection points: 8
#     Node 8, Type 1, BuildingBlock: TAGTUT_clean_sbu_1, # of connection points: 8
#     Edge 9, Type (0, 1), BuildingBlock: OJICUG_clean_linker_0, # of connection points: 2
#     Edge 10, Type (0, 1), BuildingBlock: OJICUG_clean_linker_0, # of connection points: 2
#     Edge 11, Type (0, 1), BuildingBlock: OJICUG_clean_linker_0, # of connection points: 2
#     Edge 12, Type (0, 1), BuildingBlock: OJICUG_clean_linker_0, # of connection points: 2
#     Edge 13, Type (0, 1), BuildingBlock: OJICUG_clean_linker_0, # of connection points: 2
#     Edge 14, Type (0, 1), BuildingBlock: OJICUG_clean_linker_0, # of connection points: 2
#     Edge 15, Type (0, 1), BuildingBlock: OJICUG_clean_linker_0, # of connection points: 2
#     Edge 16, Type (0, 1), BuildingBlock: OJICUG_clean_linker_0, # of connection points: 2
#     Edge 17, Type (0, 1), BuildingBlock: OJICUG_clean_linker_0, # of connection points: 2
#     Edge 18, Type (0, 1), BuildingBlock: OJICUG_clean_linker_0, # of connection points: 2
#     Edge 19, Type (0, 1), BuildingBlock: OJICUG_clean_linker_0, # of connection points: 2
#     Edge 20, Type (0, 1), BuildingBlock: OJICUG_clean_linker_0, # of connection points: 2
#     Edge 21, Type (0, 1), BuildingBlock: OJICUG_clean_linker_0, # of connection points: 2
#     Edge 22, Type (0, 1), BuildingBlock: OJICUG_clean_linker_0, # of connection points: 2
#     Edge 23, Type (0, 1), BuildingBlock: OJICUG_clean_linker_0, # of connection points: 2
#     Edge 24, Type (0, 1), BuildingBlock: OJICUG_clean_linker_0, # of connection points: 2
#     Edge 25, Type (0, 1), BuildingBlock: OJICUG_clean_linker_0, # of connection points: 2
#     Edge 26, Type (0, 1), BuildingBlock: OJICUG_clean_linker_0, # of connection points: 2
#     Edge 27, Type (0, 1), BuildingBlock: OJICUG_clean_linker_0, # of connection points: 2
#     Edge 28, Type (0, 1), BuildingBlock: OJICUG_clean_linker_0, # of connection points: 2
#     Edge 29, Type (0, 1), BuildingBlock: OJICUG_clean_linker_0, # of connection points: 2
#     Edge 30, Type (0, 1), BuildingBlock: OJICUG_clean_linker_0, # of connection points: 2
#     Edge 31, Type (0, 1), BuildingBlock: OJICUG_clean_linker_0, # of connection points: 2
#     Edge 32, Type (0, 1), BuildingBlock: OJICUG_clean_linker_0, # of connection points: 2
# Relax obj value: 0.048
# Max RMSD: 0.132
# Mean RMSD: 0.092
data_MOF--net-csq--node1-TAGTUT_clean_sbu_1--node2-MUDLON_clean_linker_0--edge1-OJICUG_clean_linker_0
_symmetry_space_group_name_H-M    P1
_symmetry_Int_Tables_number       1
_symmetry_cell_setting            triclinic
loop_
_symmetry_equiv_pos_as_xyz
'x, y, z'
_cell_length_a     56.860307
_cell_length_b     56.320781
_cell_length_c     19.246525
_cell_angle_alpha  93.125773
_cell_angle_beta   92.656515
_cell_angle_gamma 119.88097
loop_
_atom_site_label
_atom_site_type_symbol
_atom_site_fract_x
_atom_site_fract_y
_atom_site_fract_z
_atom_type_partial_charge
H0 H 0.36622 0.4994 0.20118 0.0
N1 N 0.31936 0.4512 0.1569 0.0
H2 H 0.39305 0.50994 0.3123 0.0
H3 H 0.30897 0.41937 0.26144 0.0
H4 H 0.33497 0.4302 0.37501 0.0
H5 H 0.32901 0.41674 0.08101 0.0
H6 H 0.35326 0.42504 0.97536 0.0
H7 H 0.34067 0.49853 0.08988 0.0
H8 H 0.36469 0.50701 0.98342 0.0
H9 H 0.31873 0.49767 0.20361 0.0
H10 H 0.26825 0.41397 0.11502 0.0
H11 H 0.27821 0.50125 0.2202 0.0
H12 H 0.22762 0.41765 0.12804 0.0
H13 H 0.16031 0.50553 0.28929 0.0
H14 H 0.13678 0.50672 0.39121 0.0
H15 H 0.09404 0.41774 0.37876 0.0
H16 H 0.11585 0.41714 0.27284 0.0
H17 H 0.13254 0.42444 0.09409 0.0
H18 H 0.1149 0.42895 0.98049 0.0
H19 H 0.1228 0.50595 0.06256 0.0
H20 H 0.14248 0.50217 0.17318 0.0
H21 H 0.19831 0.50355 0.18174 0.0
H22 H 0.24064 0.50308 0.16554 0.0
H23 H 0.20195 0.41899 0.21965 0.0
N24 N 0.15026 0.46031 0.20756 0.0
H25 H 0.15966 0.4195 0.23212 0.0
C26 C 0.33589 0.45822 0.22218 0.0
C27 C 0.35936 0.48406 0.23838 0.0
C28 C 0.37445 0.49026 0.30291 0.0
C29 C 0.36621 0.47097 0.35329 0.0
C30 C 0.34222 0.44544 0.33745 0.0
C31 C 0.32733 0.43918 0.27257 0.0
C32 C 0.33314 0.45694 0.09354 0.0
C33 C 0.33663 0.43642 0.05962 0.0
C34 C 0.35025 0.44114 -0.0012 0.0
C35 C 0.36081 0.46666 0.97035 0.0
C36 C 0.35696 0.48718 0.004 0.0
C37 C 0.3432 0.48236 0.06491 0.0
C38 C 0.29635 0.45532 0.15886 0.0
C39 C 0.29891 0.48019 0.18671 0.0
C40 C 0.27569 0.48224 0.19588 0.0
C41 C 0.24956 0.45957 0.17664 0.0
C42 C 0.24732 0.43526 0.14541 0.0
C43 C 0.27048 0.43317 0.13703 0.0
C44 C 0.13901 0.46124 0.27237 0.0
C45 C 0.14566 0.48636 0.30846 0.0
C46 C 0.1325 0.48692 0.36778 0.0
C47 C 0.11296 0.46228 0.39342 0.0
C48 C 0.10816 0.43718 0.35981 0.0
C49 C 0.12075 0.4367 0.29943 0.0
C50 C 0.13837 0.46268 0.14246 0.0
C51 C 0.13044 0.44227 0.08713 0.0
C52 C 0.12026 0.4449 0.02221 0.0
C53 C 0.11719 0.46781 0.01153 0.0
C54 C 0.12528 0.48826 0.06753 0.0
C55 C 0.1361 0.4859 0.13182 0.0
C56 C 0.17607 0.46156 0.20812 0.0
C57 C 0.19926 0.48523 0.19083 0.0
C58 C 0.22337 0.48487 0.18169 0.0
C59 C 0.22463 0.46084 0.19028 0.0
C60 C 0.20156 0.43761 0.21077 0.0
C61 C 0.17748 0.43794 0.21903 0.0
H62 H 0.68346 0.07614 0.19511 0.0
N63 N 0.70036 0.11938 0.12151 0.0
H64 H 0.66065 0.06814 0.30295 0.0
H65 H 0.68582 0.15363 0.1893 0.0
H66 H 0.66376 0.14634 0.29863 0.0
H67 H 0.65818 0.12676 0.07573 0.0
H68 H 0.63039 0.10792 0.96472 0.0
H69 H 0.70588 0.08982 0.01819 0.0
H70 H 0.67869 0.07152 0.90568 0.0
H71 H 0.74799 0.13163 0.18433 0.0
H72 H 0.7086 0.16596 0.06252 0.0
H73 H 0.79072 0.17527 0.1913 0.0
H74 H 0.75151 0.2089 0.06431 0.0
H75 H 0.92685 0.31854 0.21435 0.0
H76 H 0.94742 0.35205 0.31683 0.0
H77 H 0.86846 0.34034 0.35684 0.0
H78 H 0.84809 0.30759 0.25406 0.0
H79 H 0.85986 0.3351 0.14189 0.0
H80 H 0.88245 0.37593 0.07815 0.0
H81 H 0.93436 0.34724 -0.00243 0.0
H82 H 0.91126 0.30603 0.06042 0.0
H83 H 0.86953 0.24738 0.14357 0.0
H84 H 0.82664 0.20375 0.12916 0.0
H85 H 0.78262 0.2481 0.13342 0.0
N86 N 0.87672 0.29752 0.15603 0.0
H87 H 0.82539 0.29121 0.14214 0.0
C88 C 0.68622 0.11529 0.18405 0.0
C89 C 0.67913 0.09147 0.21749 0.0
C90 C 0.66647 0.08719 0.27974 0.0
C91 C 0.66068 0.1068 0.31037 0.0
C92 C 0.66782 0.13077 0.2766 0.0
C93 C 0.68043 0.13497 0.21399 0.0
C94 C 0.68378 0.10913 0.05589 0.0
C95 C 0.66275 0.11467 0.03912 0.0
C96 C 0.64714 0.10423 0.97493 0.0
C97 C 0.65229 0.08819 0.92606 0.0
C98 C 0.67395 0.08351 0.94229 0.0
C99 C 0.68946 0.09387 0.0065 0.0
C100 C 0.72525 0.14533 0.12228 0.0
C101 C 0.74875 0.14851 0.15814 0.0
C102 C 0.7732 0.17342 0.1614 0.0
C103 C 0.7748 0.19569 0.12767 0.0
C104 C 0.7511 0.19243 0.09165 0.0
C105 C 0.72649 0.16765 0.08977 0.0
C106 C 0.886 0.31044 0.22613 0.0
C107 C 0.91387 0.32258 0.24647 0.0
C108 C 0.92561 0.34193 0.30414 0.0
C109 C 0.90947 0.34895 0.34335 0.0
C110 C 0.88124 0.33524 0.32679 0.0
C111 C 0.86956 0.31629 0.26816 0.0
C112 C 0.88365 0.31719 0.10499 0.0
C113 C 0.87515 0.33681 0.10798 0.0
C114 C 0.88838 0.36044 0.07252 0.0
C115 C 0.9105 0.36491 0.03464 0.0
C116 C 0.91769 0.34445 0.02781 0.0
C117 C 0.90425 0.32073 0.06245 0.0
C118 C 0.8508 0.27253 0.14498 0.0
C119 C 0.85053 0.24753 0.14068 0.0
C120 C 0.82596 0.22264 0.1332 0.0
C121 C 0.80098 0.22224 0.13117 0.0
C122 C 0.80133 0.24745 0.13401 0.0
C123 C 0.82596 0.27233 0.1399 0.0
H124 H 0.60565 0.92557 0.95926 0.0
N125 N 0.57555 0.88554 0.03639 0.0
H126 H 0.59041 0.93587 0.84997 0.0
H127 H 0.52925 0.84958 0.95407 0.0
H128 H 0.51329 0.86046 0.84616 0.0
H129 H 0.5222 0.87036 0.05323 0.0
H130 H 0.50676 0.89794 0.11545 0.0
H131 H 0.60544 0.92945 0.12531 0.0
H132 H 0.58997 0.95665 0.19149 0.0
H133 H 0.61074 0.87089 -0.00148 0.0
H134 H 0.53729 0.8423 0.10428 0.0
H135 H 0.60953 0.82764 0.0125 0.0
H136 H 0.53683 0.79976 0.12221 0.0
H137 H 0.60723 0.69091 0.08345 0.0
H138 H 0.59865 0.65251 0.00057 0.0
H139 H 0.52603 0.65009 0.91284 0.0
H140 H 0.53439 0.6879 0.99703 0.0
H141 H 0.52124 0.67154 0.11698 0.0
H142 H 0.50596 0.63864 0.20564 0.0
H143 H 0.58576 0.68439 0.31708 0.0
H144 H 0.60096 0.71679 0.22763 0.0
H145 H 0.61679 0.76031 0.10813 0.0
H146 H 0.61694 0.80324 0.096 0.0
H147 H 0.52893 0.75795 0.06549 0.0
N148 N 0.57438 0.71046 0.10575 0.0
H149 H 0.52915 0.71545 0.08278 0.0
C150 C 0.56846 0.88722 0.96502 0.0
C151 C 0.5859 0.91081 0.93336 0.0
C152 C 0.57713 0.91665 0.87138 0.0
C153 C 0.5506 0.89904 0.84078 0.0
C154 C 0.53374 0.87436 0.86959 0.0
C155 C 0.54283 0.8682 0.93091 0.0
C156 C 0.56519 0.8978 0.0848 0.0
C157 C 0.53721 0.88897 0.0837 0.0
C158 C 0.52833 0.90487 0.1193 0.0
C159 C 0.54713 0.92979 0.15745 0.0
C160 C 0.57496 0.93797 0.1609 0.0
C161 C 0.58384 0.92217 0.12461 0.0
C162 C 0.57436 0.86011 0.05038 0.0
C163 C 0.59458 0.85541 0.02569 0.0
C164 C 0.59392 0.83072 0.0342 0.0
C165 C 0.57317 0.81019 0.069 0.0
C166 C 0.5529 0.81493 0.09427 0.0
C167 C 0.55331 0.83955 0.08456 0.0
C168 C 0.57174 0.69251 0.04617 0.0
C169 C 0.58987 0.6825 0.04507 0.0
C170 C 0.58478 0.66043 -0.00186 0.0
C171 C 0.56143 0.64801 0.95084 0.0
C172 C 0.54385 0.65883 0.94979 0.0
C173 C 0.54892 0.68087 0.99713 0.0
C174 C 0.56245 0.69637 0.16565 0.0
C175 C 0.53516 0.67499 0.16164 0.0
C176 C 0.52648 0.65609 0.21194 0.0
C177 C 0.5448 0.65881 0.26738 0.0
C178 C 0.57116 0.68188 0.27497 0.0
C179 C 0.5799 0.70046 0.22424 0.0
C180 C 0.57313 0.7348 0.09497 0.0
C181 C 0.59761 0.75978 0.09858 0.0
C182 C 0.59759 0.78422 0.0912 0.0
C183 C 0.57294 0.7841 0.07886 0.0
C184 C 0.54829 0.75889 0.07552 0.0
C185 C 0.54836 0.73445 0.08424 0.0
H186 H 0.91797 0.5879 0.15304 0.0
N187 N 0.87254 0.55868 0.06996 0.0
H188 H 0.93069 0.57559 0.2628 0.0
H189 H 0.84365 0.50964 0.12637 0.0
H190 H 0.85604 0.49708 0.23668 0.0
H191 H 0.86437 0.50867 0.01652 0.0
H192 H 0.88197 0.49996 0.91108 0.0
H193 H 0.89591 0.59295 0.9728 0.0
H194 H 0.91235 0.58414 0.86461 0.0
H195 H 0.86501 0.59491 0.14395 0.0
H196 H 0.82283 0.52141 0.00275 0.0
H197 H 0.82252 0.5945 0.15785 0.0
H198 H 0.78039 0.52196 0.01128 0.0
H199 H 0.69145 0.59704 0.18557 0.0
H200 H 0.66658 0.58856 0.29029 0.0
H201 H 0.65059 0.5049 0.27476 0.0
H202 H 0.67511 0.51348 0.16981 0.0
H203 H 0.65468 0.51251 0.0562 0.0
H204 H 0.62782 0.50276 0.9455 0.0
H205 H 0.68289 0.5852 0.89242 0.0
H206 H 0.70847 0.5952 0.00605 0.0
H207 H 0.74924 0.60406 0.11845 0.0
H208 H 0.79128 0.60335 0.10538 0.0
H209 H 0.74532 0.51435 0.07945 0.0
N210 N 0.69902 0.5618 0.10635 0.0
H211 H 0.70328 0.51574 0.08614 0.0
C212 C 0.88014 0.54967 0.13137 0.0
C213 C 0.90452 0.56798 0.17088 0.0
C214 C 0.91149 0.56104 0.23402 0.0
C215 C 0.89416 0.53549 0.25908 0.0
C216 C 0.86981 0.5169 0.21884 0.0
C217 C 0.86278 0.52397 0.15565 0.0
C218 C 0.87955 0.55178 0.00364 0.0
C219 C 0.87474 0.52524 0.98368 0.0
C220 C 0.88452 0.52018 0.92241 0.0
C221 C 0.89894 0.54142 0.8792 0.0
C222 C 0.90192 0.56742 0.89712 0.0
C223 C 0.89246 0.57251 0.95879 0.0
C224 C 0.8472 0.55857 0.07162 0.0
C225 C 0.84655 0.57903 0.11469 0.0
C226 C 0.82219 0.5788 0.1221 0.0
C227 C 0.79782 0.55837 0.08511 0.0
C228 C 0.79856 0.53784 0.04142 0.0
C229 C 0.82294 0.53771 0.0355 0.0
C230 C 0.6851 0.55601 0.16946 0.0
C231 C 0.68272 0.57695 0.20518 0.0
C232 C 0.66872 0.5721 0.2654 0.0
C233 C 0.65666 0.54604 0.29132 0.0
C234 C 0.65947 0.52514 0.25606 0.0
C235 C 0.67359 0.53007 0.19585 0.0
C236 C 0.68311 0.55493 0.04033 0.0
C237 C 0.66083 0.52856 0.02116 0.0
C238 C 0.64575 0.52287 0.95679 0.0
C239 C 0.65302 0.54321 0.90942 0.0
C240 C 0.67623 0.56916 0.92775 0.0
C241 C 0.69092 0.57495 0.99264 0.0
C242 C 0.72335 0.56005 0.10524 0.0
C243 C 0.74842 0.58446 0.1106 0.0
C244 C 0.77244 0.58391 0.10345 0.0
C245 C 0.77197 0.55874 0.09214 0.0
C246 C 0.74663 0.53416 0.08738 0.0
C247 C 0.72251 0.53483 0.09284 0.0
H248 H 0.15254 0.65513 0.14 0.0
N249 N 0.13992 0.69508 0.1146 0.0
H250 H 0.12571 0.61599 0.20605 0.0
H251 H 0.10763 0.69359 0.21072 0.0
H252 H 0.08125 0.65489 0.27902 0.0
H253 H 0.0928 0.68383 0.0517 0.0
H254 H 0.06839 0.65133 0.94951 0.0
H255 H 0.16203 0.67324 0.0271 0.0
H256 H 0.13771 0.64048 0.92448 0.0
H257 H 0.18976 0.70064 0.15356 0.0
H258 H 0.14955 0.74397 0.08494 0.0
H259 H 0.23373 0.7433 0.16114 0.0
H260 H 0.19326 0.78627 0.08864 0.0
H261 H 0.34717 0.85698 0.20409 0.0
H262 H 0.37472 0.88104 0.31317 0.0
H263 H 0.3427 0.93653 0.31113 0.0
H264 H 0.31783 0.91406 0.19846 0.0
H265 H 0.29719 0.88107 0.00794 0.0
H266 H 0.31822 0.89103 0.89742 0.0
H267 H 0.38567 0.88498 0.98993 0.0
H268 H 0.36355 0.87315 0.09747 0.0
H269 H 0.30968 0.82093 0.09449 0.0
H270 H 0.2672 0.77673 0.09365 0.0
H271 H 0.22687 0.81963 0.17043 0.0
N272 N 0.31585 0.87161 0.12621 0.0
H273 H 0.26878 0.86337 0.16683 0.0
C274 C 0.13189 0.67727 0.17015 0.0
C275 C 0.1377 0.65574 0.17203 0.0
C276 C 0.12218 0.6332 0.20947 0.0
C277 C 0.10079 0.63198 0.24575 0.0
C278 C 0.09702 0.65486 0.24957 0.0
C279 C 0.11242 0.67724 0.21192 0.0
C280 C 0.12903 0.68083 0.0466 0.0
C281 C 0.10293 0.675 0.02283 0.0
C282 C 0.08904 0.65636 0.96486 0.0
C283 C 0.10109 0.64318 0.92973 0.0
C284 C 0.12784 0.65006 0.95147 0.0
C285 C 0.14183 0.66893 0.00941 0.0
C286 C 0.16633 0.71937 0.11989 0.0
C287 C 0.19036 0.71929 0.14013 0.0
C288 C 0.21555 0.74369 0.1438 0.0
C289 C 0.21705 0.76836 0.12642 0.0
C290 C 0.1929 0.76794 0.10446 0.0
C291 C 0.1679 0.74378 0.10177 0.0
C292 C 0.33169 0.88477 0.19158 0.0
C293 C 0.3468 0.87483 0.22646 0.0
C294 C 0.36198 0.88824 0.29 0.0
C295 C 0.3615 0.91124 0.32126 0.0
C296 C 0.34461 0.91968 0.28803 0.0
C297 C 0.33026 0.90685 0.22357 0.0
C298 C 0.32894 0.87698 0.06173 0.0
C299 C 0.31642 0.8817 0.00387 0.0
C300 C 0.32859 0.88751 0.94076 0.0
C301 C 0.35394 0.88919 0.93425 0.0
C302 C 0.36601 0.88354 0.99194 0.0
C303 C 0.35352 0.87719 0.05458 0.0
C304 C 0.29198 0.84528 0.12941 0.0
C305 C 0.29156 0.82061 0.11079 0.0
C306 C 0.26736 0.79542 0.11099 0.0
C307 C 0.24345 0.79462 0.13089 0.0
C308 C 0.24459 0.81944 0.15274 0.0
C309 C 0.26853 0.84446 0.15135 0.0
H310 H 0.55251 0.37999 0.13489 0.0
N311 N 0.51398 0.33475 0.18213 0.0
H312 H 0.54645 0.405 0.04229 0.0
H313 H 0.47088 0.31254 0.08074 0.0
H314 H 0.46441 0.33757 0.99069 0.0
H315 H 0.46466 0.33211 0.19342 0.0
H316 H 0.45532 0.35956 0.277 0.0
H317 H 0.54581 0.36621 0.2933 0.0
H318 H 0.53652 0.39416 0.37747 0.0
H319 H 0.54629 0.31348 0.18384 0.0
H320 H 0.4618 0.29086 0.18325 0.0
H321 H 0.53348 0.26524 0.18854 0.0
H322 H 0.44874 0.24298 0.18305 0.0
H323 H 0.5093 0.1426 0.20014 0.0
H324 H 0.519 0.1104 0.13638 0.0
H325 H 0.43549 0.06501 0.04735 0.0
H326 H 0.42566 0.09674 0.11424 0.0
H327 H 0.42208 0.09627 0.2764 0.0
H328 H 0.43057 0.07962 0.38396 0.0
H329 H 0.51281 0.14856 0.40904 0.0
H330 H 0.50398 0.16533 0.30175 0.0
H331 H 0.50007 0.1742 0.13493 0.0
H332 H 0.51256 0.22166 0.1252 0.0
H333 H 0.44921 0.21191 0.25668 0.0
N334 N 0.45863 0.13684 0.20999 0.0
H335 H 0.43575 0.16385 0.26306 0.0
C336 C 0.51222 0.34457 0.11564 0.0
C337 C 0.53363 0.37023 0.1017 0.0
C338 C 0.52996 0.38463 0.04964 0.0
C339 C 0.5047 0.37353 0.01055 0.0
C340 C 0.48411 0.34671 0.02001 0.0
C341 C 0.48784 0.3323 0.07194 0.0
C342 C 0.506 0.34674 0.23768 0.0
C343 C 0.48025 0.34476 0.2346 0.0
C344 C 0.47493 0.36072 0.28215 0.0
C345 C 0.49528 0.37919 0.33307 0.0
C346 C 0.52059 0.38036 0.33792 0.0
C347 C 0.52582 0.3642 0.29067 0.0
C348 C 0.5052 0.30597 0.18289 0.0
C349 C 0.52498 0.29808 0.18381 0.0
C350 C 0.51756 0.27048 0.18586 0.0
C351 C 0.49003 0.2501 0.18616 0.0
C352 C 0.47018 0.25807 0.18424 0.0
C353 C 0.47768 0.28568 0.18352 0.0
C354 C 0.46659 0.12211 0.16177 0.0
C355 C 0.49309 0.1259 0.16649 0.0
C356 C 0.49865 0.1074 0.13002 0.0
C357 C 0.4779 0.08479 0.08791 0.0
C358 C 0.45176 0.08175 0.08097 0.0
C359 C 0.44621 0.10017 0.1178 0.0
C360 C 0.46239 0.13168 0.28087 0.0
C361 C 0.44159 0.10823 0.30649 0.0
C362 C 0.44651 0.0988 0.36773 0.0
C363 C 0.47246 0.11269 0.40404 0.0
C364 C 0.49275 0.13737 0.3813 0.0
C365 C 0.48769 0.14697 0.32034 0.0
C366 C 0.46685 0.16514 0.20053 0.0
C367 C 0.48867 0.18196 0.16171 0.0
C368 C 0.49601 0.20941 0.15639 0.0
C369 C 0.48199 0.22077 0.19025 0.0
C370 C 0.4602 0.20387 0.22869 0.0
C371 C 0.45259 0.1764 0.23296 0.0
C372 C 0.97369 0.44913 0.86785 0.0
C373 C 0.05075 0.47478 0.79023 0.0
C374 C 0.03865 0.56049 0.703 0.0
Mg375 Mg 0.99194 0.4443 0.72236 0.0
O376 O 0.99216 0.47726 0.71865 0.0
Mg377 Mg 0.01423 0.50747 0.794 0.0
Mg378 Mg 0.00259 0.49748 0.63413 0.0
O379 O 0.01279 0.51794 0.54982 0.0
Mg380 Mg 0.0092 0.54908 0.54918 0.0
Mg381 Mg 0.99083 0.48762 0.47443 0.0
C382 C 0.96398 0.43377 0.56744 0.0
C383 C 0.03778 0.47733 0.54307 0.0
O384 O 0.98927 0.47545 0.87312 0.0
O385 O 0.97091 0.43355 0.81359 0.0
O386 O 0.04712 0.49496 0.80696 0.0
O387 O 0.03278 0.45346 0.75226 0.0
O388 O 0.96999 0.42473 0.62136 0.0
O389 O 0.97143 0.45931 0.56421 0.0
C390 C 0.96762 0.51811 0.72492 0.0
O391 O 0.97075 0.51066 0.66322 0.0
O392 O 0.98168 0.5185 0.77911 0.0
O393 O 0.01566 0.52064 0.39754 0.0
O394 O 0.02918 0.56184 0.45664 0.0
O395 O 0.9571 0.49869 0.4603 0.0
C396 C 0.02866 0.54713 0.40289 0.0
O397 O 0.96746 0.53763 0.52244 0.0
O398 O 0.03057 0.56871 0.6508 0.0
C399 C 0.95122 0.51702 0.47989 0.0
O400 O 0.03373 0.53559 0.70388 0.0
O401 O 0.03458 0.4844 0.6051 0.0
O402 O 0.02377 0.4773 0.48929 0.0
C403 C 0.48606 0.01646 0.88139 0.0
C404 C 0.43119 0.94876 0.74237 0.0
C405 C 0.52434 0.95621 0.64417 0.0
Mg406 Mg 0.46594 0.01022 0.72606 0.0
O407 O 0.49714 0.00787 0.71779 0.0
Mg408 Mg 0.50017 0.97883 0.76653 0.0
Mg409 Mg 0.50675 0.00238 0.62317 0.0
O410 O 0.51647 0.99709 0.52844 0.0
Mg411 Mg 0.54796 0.99538 0.52076 0.0
Mg412 Mg 0.5138 0.02644 0.48045 0.0
C413 C 0.48934 0.04867 0.60127 0.0
C414 C 0.45313 0.97974 0.51249 0.0
O415 O 0.49551 0.00019 0.86938 0.0
O416 O 0.47483 0.02344 0.83383 0.0
O417 O 0.45351 0.94924 0.75892 0.0
O418 O 0.43109 0.96955 0.71936 0.0
O419 O 0.47258 0.03928 0.64873 0.0
O420 O 0.50648 0.04059 0.58986 0.0
C421 C 0.56068 0.02524 0.73305 0.0
O422 O 0.55171 0.0279 0.6731 0.0
O423 O 0.5451 0.00823 0.77412 0.0
O424 O 0.51903 0.00587 0.37715 0.0
O425 O 0.53946 0.98245 0.41307 0.0
O426 O 0.56027 0.05605 0.48858 0.0
C427 C 0.52847 0.98959 0.36532 0.0
O428 O 0.58285 0.03612 0.52911 0.0
O429 O 0.54096 0.966 0.59659 0.0
C430 C 0.58266 0.05677 0.50545 0.0
O431 O 0.50719 0.96418 0.6569 0.0
O432 O 0.46175 0.97687 0.57273 0.0
O433 O 0.46906 0.99692 0.47224 0.0
C434 C 0.53685 0.57549 0.4386 0.0
C435 C 0.58047 0.5337 0.49127 0.0
C436 C 0.4826 0.44925 0.53748 0.0
Mg437 Mg 0.55766 0.56384 0.5764 0.0
O438 O 0.52175 0.53476 0.56281 0.0
Mg439 Mg 0.51234 0.50987 0.47533 0.0
Mg440 Mg 0.50912 0.50787 0.63392 0.0
O441 O 0.49665 0.48076 0.70424 0.0
Mg442 Mg 0.46185 0.44936 0.6902 0.0
Mg443 Mg 0.50577 0.50583 0.79104 0.0
C444 C 0.53941 0.56535 0.73087 0.0
C445 C 0.56245 0.51808 0.73052 0.0
O446 O 0.52302 0.54954 0.41882 0.0
O447 O 0.55126 0.58505 0.49712 0.0
O448 O 0.55596 0.51832 0.46528 0.0
O449 O 0.58637 0.55215 0.54115 0.0
O450 O 0.55651 0.57587 0.68458 0.0
O451 O 0.51753 0.54169 0.71963 0.0
C452 C 0.45576 0.49771 0.53713 0.0
O453 O 0.46516 0.49876 0.59993 0.0
O454 O 0.46995 0.50148 0.48514 0.0
O455 O 0.49563 0.46703 0.84874 0.0
O456 O 0.46928 0.42972 0.77364 0.0
O457 O 0.46164 0.49629 0.79722 0.0
C458 C 0.48307 0.44088 0.83251 0.0
O459 O 0.43224 0.46038 0.72394 0.0
O460 O 0.46539 0.43672 0.58248 0.0
C461 C 0.43733 0.47956 0.77131 0.0
O462 O 0.50137 0.4746 0.54903 0.0
O463 O 0.55295 0.51679 0.66773 0.0
O464 O 0.54838 0.51456 0.78271 0.0
C465 C 0.10451 0.48522 0.49934 0.0
C466 C 0.0953 0.4627 0.44846 0.0
H467 H 0.09315 0.50738 0.57217 0.0
C468 C 0.06768 0.44206 0.44451 0.0
H469 H 0.12571 0.50121 0.50557 0.0
C470 C 0.04943 0.44524 0.48436 0.0
C471 C 0.05812 0.4692 0.52881 0.0
H472 H 0.0594 0.4245 0.40611 0.0
H473 H 0.02792 0.43022 0.47498 0.0
C474 C 0.08601 0.48853 0.53892 0.0
C475 C 0.64949 0.08638 0.42591 0.0
C476 C 0.64534 0.10091 0.37405 0.0
H477 H 0.63333 0.06173 0.51107 0.0
C478 C 0.62415 0.10678 0.37936 0.0
H479 H 0.66621 0.08233 0.42499 0.0
C480 C 0.60559 0.09547 0.42985 0.0
C481 C 0.60755 0.07766 0.47541 0.0
H482 H 0.62038 0.11808 0.34087 0.0
H483 H 0.58816 0.09844 0.42816 0.0
C484 C 0.63081 0.07488 0.4761 0.0
C485 C 0.54555 0.64242 0.38419 0.0
C486 C 0.53808 0.6363 0.31238 0.0
H487 H 0.55094 0.628 0.48006 0.0
C488 C 0.52775 0.60921 0.28266 0.0
H489 H 0.55328 0.66306 0.40836 0.0
C490 C 0.52646 0.58892 0.32373 0.0
C491 C 0.53564 0.59559 0.39484 0.0
H492 H 0.52209 0.60408 0.22706 0.0
H493 H 0.51939 0.56845 0.29934 0.0
C494 C 0.54437 0.62232 0.42497 0.0
C495 C 0.90034 0.50215 0.32817 0.0
C496 C 0.90254 0.52803 0.325 0.0
H497 H 0.91333 0.47786 0.38174 0.0
C498 C 0.91558 0.54776 0.38251 0.0
H499 H 0.89029 0.48641 0.28501 0.0
C500 C 0.92877 0.54286 0.43831 0.0
C501 C 0.92938 0.51818 0.43741 0.0
H502 H 0.91694 0.56764 0.3825 0.0
H503 H 0.94046 0.55938 0.47887 0.0
C504 C 0.91357 0.49724 0.3839 0.0
C505 C 0.39187 0.95678 0.3897 0.0
C506 C 0.38054 0.92805 0.3836 0.0
H507 H 0.42302 0.99551 0.43841 0.0
C508 C 0.38992 0.91637 0.43314 0.0
H509 H 0.38573 0.96691 0.35286 0.0
C510 C 0.41198 0.9332 0.48232 0.0
C511 C 0.42477 0.9619 0.4829 0.0
H512 H 0.38124 0.89432 0.43167 0.0
H513 H 0.42041 0.92385 0.51543 0.0
C514 C 0.41348 0.97339 0.43899 0.0
C515 C 0.46636 0.38783 0.41322 0.0
C516 C 0.49049 0.39785 0.37959 0.0
H517 H 0.44463 0.39644 0.48895 0.0
C518 C 0.51034 0.42579 0.39159 0.0
H519 H 0.45067 0.36637 0.4046 0.0
C520 C 0.50682 0.44308 0.43929 0.0
C521 C 0.48347 0.4327 0.47642 0.0
H522 H 0.52888 0.43418 0.36511 0.0
H523 H 0.52309 0.46418 0.44961 0.0
C524 C 0.4629 0.40508 0.46137 0.0
C525 C 0.55494 0.91738 0.72534 0.0
C526 C 0.54012 0.90834 0.78366 0.0
H527 H 0.56134 0.93924 0.6352 0.0
C528 C 0.51789 0.91232 0.79228 0.0
H529 H 0.57211 0.91441 0.71788 0.0
C530 C 0.51178 0.92697 0.74536 0.0
C531 C 0.52784 0.93768 0.68938 0.0
H532 H 0.50634 0.9056 0.83752 0.0
H533 H 0.49523 0.93074 0.75447 0.0
C534 C 0.54878 0.93175 0.67842 0.0
C535 C 0.63037 0.55925 0.82354 0.0
C536 C 0.63484 0.5382 0.84511 0.0
H537 H 0.60389 0.56915 0.76537 0.0
C538 C 0.61902 0.51163 0.81056 0.0
H539 H 0.64184 0.57993 0.84883 0.0
C540 C 0.59701 0.50553 0.76279 0.0
C541 C 0.59091 0.52602 0.74761 0.0
H542 H 0.62232 0.49505 0.82412 0.0
H543 H 0.58322 0.48431 0.74329 0.0
C544 C 0.60867 0.55318 0.77501 0.0
C545 C 0.06978 0.62626 0.82112 0.0
C546 C 0.08529 0.6218 0.87189 0.0
H547 H 0.04264 0.6103 0.72895 0.0
C548 C 0.08473 0.59651 0.86841 0.0
H549 H 0.06992 0.64559 0.82242 0.0
C550 C 0.06897 0.57607 0.81463 0.0
C551 C 0.05373 0.58076 0.76332 0.0
H552 H 0.09624 0.59245 0.90767 0.0
H553 H 0.06909 0.55687 0.81259 0.0
C554 C 0.05419 0.606 0.7675 0.0
C555 C 0.50758 0.07439 0.01482 0.0
C556 C 0.48355 0.06496 0.04886 0.0
H557 H 0.52767 0.06517 0.93525 0.0
C558 C 0.46372 0.03686 0.03925 0.0
H559 H 0.52323 0.09588 0.02085 0.0
C560 C 0.4664 0.01933 0.99027 0.0
C561 C 0.48911 0.02956 0.95124 0.0
H562 H 0.4453 0.02882 0.06614 0.0
H563 H 0.44958 0.99852 0.97823 0.0
C564 C 0.51031 0.05676 0.9663 0.0
C565 C 0.37079 0.45165 0.85473 0.0
C566 C 0.37757 0.47227 0.90933 0.0
H567 H 0.38405 0.43801 0.76655 0.0
C568 C 0.40206 0.49733 0.90892 0.0
H569 H 0.35179 0.43231 0.8525 0.0
C570 C 0.42043 0.50072 0.85918 0.0
C571 C 0.41479 0.47912 0.80858 0.0
H572 H 0.40802 0.51368 0.94999 0.0
H573 H 0.4399 0.51963 0.86349 0.0
C574 C 0.38916 0.45506 0.80478 0.0
C575 C 0.95533 0.40522 0.01493 0.0
C576 C 0.92678 0.39112 0.00377 0.0
H577 H 0.99305 0.43621 0.98113 0.0
C578 C 0.91421 0.40084 0.95815 0.0
H579 H 0.96541 0.39824 0.0507 0.0
C580 C 0.93003 0.42261 0.91886 0.0
C581 C 0.95851 0.43516 0.92596 0.0
H582 H 0.89223 0.39027 0.94886 0.0
H583 H 0.92001 0.42813 0.87892 0.0
C584 C 0.97112 0.42718 0.97626 0.0
C585 C 0.90334 0.51169 0.78289 0.0
C586 C 0.91373 0.5374 0.82155 0.0
H587 H 0.91251 0.48548 0.71831 0.0
C588 C 0.94026 0.55835 0.81154 0.0
H589 H 0.88285 0.49522 0.78812 0.0
C590 C 0.95687 0.55288 0.77032 0.0
C591 C 0.94738 0.52643 0.73794 0.0
H592 H 0.94924 0.57833 0.8406 0.0
H593 H 0.97806 0.56859 0.76958 0.0
C594 C 0.92009 0.50622 0.74159 0.0
C595 C 0.36726 0.91962 0.83495 0.0
C596 C 0.36897 0.89926 0.87058 0.0
H597 H 0.38481 0.95039 0.76352 0.0
C598 C 0.38743 0.89104 0.84946 0.0
H599 H 0.35344 0.92669 0.8492 0.0
C600 C 0.40592 0.90512 0.80056 0.0
C601 C 0.40615 0.92752 0.77098 0.0
H602 H 0.38871 0.87475 0.87352 0.0
H603 H 0.42137 0.89981 0.79012 0.0
C604 C 0.3854 0.93333 0.78524 0.0
C605 C 0.508 0.41829 0.98703 0.0
C606 C 0.499 0.39068 0.96482 0.0
H607 H 0.50969 0.45572 0.96335 0.0
C608 C 0.48354 0.37936 0.90045 0.0
H609 H 0.51939 0.42742 0.03723 0.0
C610 C 0.47754 0.39544 0.85864 0.0
C611 C 0.487 0.42323 0.88019 0.0
H612 H 0.47639 0.35819 0.88185 0.0
H613 H 0.466 0.38617 0.80868 0.0
C614 C 0.50212 0.43442 0.94511 0.0
C615 C 0.11053 0.49534 0.92089 0.0
C616 C 0.10412 0.46965 0.94423 0.0
H617 H 0.09887 0.51723 0.85259 0.0
C618 C 0.08335 0.44573 0.90567 0.0
H619 H 0.12701 0.51425 0.9472 0.0
C620 C 0.068 0.4475 0.84944 0.0
C621 C 0.07256 0.47321 0.83127 0.0
H622 H 0.07749 0.42552 0.92161 0.0
H623 H 0.05093 0.42864 0.82457 0.0
C624 C 0.09473 0.4971 0.86565 0.0
C625 C 0.62149 0.08686 0.82503 0.0
C626 C 0.63337 0.07403 0.86218 0.0
H627 H 0.58917 0.08125 0.7513 0.0
C628 C 0.62454 0.04622 0.84302 0.0
H629 H 0.62812 0.10836 0.83779 0.0
C630 C 0.6026 0.03097 0.79322 0.0
C631 C 0.58914 0.04317 0.76104 0.0
H632 H 0.63299 0.03556 0.87064 0.0
H633 H 0.59462 0.009 0.7843 0.0
C634 C 0.59955 0.07152 0.77458 0.0
C635 C 0.52917 0.6021 0.88561 0.0
C636 C 0.55584 0.62431 0.9016 0.0
H637 H 0.50295 0.56522 0.81942 0.0
C638 C 0.57722 0.62438 0.86792 0.0
H639 H 0.51236 0.60123 0.91194 0.0
C640 C 0.57189 0.60372 0.81616 0.0
C641 C 0.54506 0.58259 0.79661 0.0
H642 H 0.59796 0.64116 0.87883 0.0
H643 H 0.58873 0.60515 0.78885 0.0
C644 C 0.52381 0.58129 0.83355 0.0
C645 C 0.46065 0.08775 0.51139 0.0
C646 C 0.47889 0.09962 0.46037 0.0
H647 H 0.44969 0.06243 0.59596 0.0
C648 C 0.50175 0.09625 0.45874 0.0
H649 H 0.44298 0.09021 0.51382 0.0
C650 C 0.50561 0.08017 0.50554 0.0
C651 C 0.4867 0.06731 0.55476 0.0
H652 H 0.51596 0.105 0.41928 0.0
H653 H 0.52305 0.0774 0.50214 0.0
C654 C 0.46456 0.07183 0.55829 0.0
C655 C 0.39996 0.50365 0.45093 0.0
C656 C 0.38397 0.47667 0.41888 0.0
H657 H 0.43558 0.53159 0.51783 0.0
C658 C 0.38787 0.45582 0.44449 0.0
H659 H 0.39707 0.52012 0.43408 0.0
C660 C 0.40932 0.46236 0.49452 0.0
C661 C 0.42732 0.4898 0.51952 0.0
H662 H 0.37615 0.43483 0.42122 0.0
H663 H 0.41379 0.44641 0.50712 0.0
C664 C 0.42161 0.51019 0.50033 0.0
C665 C 0.94311 0.39757 0.38597 0.0
C666 C 0.92227 0.3714 0.39959 0.0
H667 H 0.97246 0.43839 0.42879 0.0
C668 C 0.91395 0.36668 0.46721 0.0
H669 H 0.9496 0.40159 0.33373 0.0
C670 C 0.92712 0.38751 0.52126 0.0
C671 C 0.94837 0.41352 0.50815 0.0
H672 H 0.89787 0.34665 0.4786 0.0
H673 H 0.921 0.38317 0.5737 0.0
C674 C 0.95594 0.41864 0.43992 0.0
C675 C 0.51436 0.93353 0.23342 0.0
C676 C 0.53776 0.9465 0.19677 0.0
H677 H 0.49232 0.93805 0.3152 0.0
C678 C 0.55359 0.9754 0.20415 0.0
H679 H 0.50175 0.91135 0.22932 0.0
C680 C 0.54803 0.99067 0.25351 0.0
C681 C 0.52639 0.97722 0.29519 0.0
H682 H 0.57134 0.98606 0.17525 0.0
H683 H 0.56219 0.01253 0.26392 0.0
C684 C 0.50874 0.94882 0.28221 0.0
C685 C 0.64699 0.56025 0.40829 0.0
C686 C 0.63951 0.54034 0.35145 0.0
H687 H 0.63447 0.57345 0.49872 0.0
C688 C 0.61418 0.51599 0.34916 0.0
H689 H 0.66658 0.579 0.41245 0.0
C690 C 0.59586 0.51268 0.39894 0.0
C691 C 0.60241 0.53365 0.45231 0.0
H692 H 0.60768 0.50022 0.30622 0.0
H693 H 0.57586 0.49442 0.39285 0.0
C694 C 0.62869 0.5569 0.45833 0.0
C695 C 0.0906 0.59169 0.31429 0.0
C696 C 0.08139 0.60652 0.27626 0.0
H697 H 0.08023 0.55998 0.38367 0.0
C698 C 0.05338 0.59752 0.26972 0.0
H699 H 0.11205 0.59813 0.32016 0.0
C700 C 0.03531 0.5757 0.30554 0.0
C701 C 0.04488 0.56224 0.34739 0.0
H702 H 0.04557 0.60809 0.23921 0.0
H703 H 0.0142 0.57054 0.30431 0.0
C704 C 0.07242 0.56971 0.3499 0.0
loop_
_geom_bond_atom_site_label_1
_geom_bond_atom_site_label_2
_geom_bond_distance
_geom_bond_site_symmetry_2
_ccdc_geom_bond_type
H0 C27 0.929 . S
N1 C26 1.433 . S
N1 C32 1.435 . S
N1 C38 1.423 . S
H2 C28 0.930 . S
H3 C31 0.931 . S
H4 C30 0.929 . S
H5 C33 0.930 . S
H6 C34 0.932 . S
H7 C37 0.929 . S
H8 C36 0.931 1_556 S
H9 C39 0.929 . S
H10 C43 0.932 . S
H11 C40 0.931 . S
H12 C42 0.929 . S
H13 C45 0.929 . S
H14 C46 0.930 . S
H15 C48 0.929 . S
H16 C49 0.931 . S
H17 C51 0.930 . S
H18 C52 0.932 . S
H19 C54 0.931 1_556 S
H20 C55 0.929 . S
H21 C57 0.929 . S
H22 C58 0.931 . S
H23 C60 0.929 . S
N24 C44 1.433 . S
N24 C50 1.435 . S
N24 C56 1.423 . S
H25 C61 0.932 . S
C26 N1 1.433 . S
C26 C27 1.363 . S
C26 C31 1.370 . S
C27 H0 0.929 . S
C27 C26 1.363 . S
C27 C28 1.385 . S
C28 H2 0.930 . S
C28 C27 1.385 . S
C28 C29 1.357 . S
C29 C28 1.357 . S
C29 C30 1.406 . S
C30 H4 0.929 . S
C30 C29 1.406 . S
C30 C31 1.391 . S
C31 H3 0.931 . S
C31 C26 1.370 . S
C31 C30 1.391 . S
C32 N1 1.435 . S
C32 C33 1.358 . S
C32 C37 1.371 . S
C33 H5 0.930 . S
C33 C32 1.358 . S
C33 C34 1.405 . S
C34 H6 0.932 . S
C34 C33 1.405 . S
C34 C35 1.383 . S
C35 C34 1.383 . S
C35 C36 1.393 . S
C36 H8 0.931 1_554 S
C36 C35 1.393 . S
C36 C37 1.382 . S
C37 H7 0.929 . S
C37 C32 1.371 . S
C37 C36 1.382 . S
C38 N1 1.423 . S
C38 C39 1.362 . S
C38 C43 1.388 . S
C39 H9 0.929 . S
C39 C38 1.362 . S
C39 C40 1.376 . S
C40 H11 0.931 . S
C40 C39 1.376 . S
C40 C41 1.396 . S
C41 C40 1.396 . S
C41 C42 1.348 . S
C41 C59 1.472 . S
C42 H12 0.929 . S
C42 C41 1.348 . S
C42 C43 1.443 . S
C43 H10 0.932 . S
C43 C38 1.388 . S
C43 C42 1.443 . S
C44 N24 1.433 . S
C44 C45 1.363 . S
C44 C49 1.370 . S
C45 H13 0.929 . S
C45 C44 1.363 . S
C45 C46 1.385 . S
C46 H14 0.930 . S
C46 C45 1.385 . S
C46 C47 1.357 . S
C47 C46 1.357 . S
C47 C48 1.406 . S
C48 H15 0.929 . S
C48 C47 1.406 . S
C48 C49 1.391 . S
C49 H16 0.931 . S
C49 C44 1.370 . S
C49 C48 1.391 . S
C50 N24 1.435 . S
C50 C51 1.358 . S
C50 C55 1.371 . S
C51 H17 0.930 . S
C51 C50 1.358 . S
C51 C52 1.405 . S
C52 H18 0.932 . S
C52 C51 1.405 . S
C52 C53 1.383 . S
C53 C52 1.383 . S
C53 C54 1.393 . S
C54 H19 0.931 1_554 S
C54 C53 1.393 . S
C54 C55 1.382 . S
C55 H20 0.929 . S
C55 C50 1.371 . S
C55 C54 1.382 . S
C56 N24 1.423 . S
C56 C57 1.362 . S
C56 C61 1.388 . S
C57 H21 0.929 . S
C57 C56 1.362 . S
C57 C58 1.376 . S
C58 H22 0.931 . S
C58 C57 1.376 . S
C58 C59 1.396 . S
C59 C41 1.472 . S
C59 C58 1.396 . S
C59 C60 1.348 . S
C60 H23 0.929 . S
C60 C59 1.348 . S
C60 C61 1.443 . S
C61 H25 0.932 . S
C61 C56 1.388 . S
C61 C60 1.443 . S
H62 C89 0.929 . S
N63 C88 1.433 . S
N63 C94 1.435 . S
N63 C100 1.423 . S
H64 C90 0.930 . S
H65 C93 0.931 . S
H66 C92 0.929 . S
H67 C95 0.930 . S
H68 C96 0.932 . S
H69 C99 0.929 . S
H70 C98 0.931 . S
H71 C101 0.929 . S
H72 C105 0.932 . S
H73 C102 0.931 . S
H74 C104 0.929 . S
H75 C107 0.929 . S
H76 C108 0.930 . S
H77 C110 0.929 . S
H78 C111 0.931 . S
H79 C113 0.930 . S
H80 C114 0.932 . S
H81 C116 0.931 . S
H82 C117 0.929 . S
H83 C119 0.929 . S
H84 C120 0.931 . S
H85 C122 0.929 . S
N86 C106 1.433 . S
N86 C112 1.435 . S
N86 C118 1.423 . S
H87 C123 0.932 . S
C88 N63 1.433 . S
C88 C89 1.363 . S
C88 C93 1.370 . S
C89 H62 0.929 . S
C89 C88 1.363 . S
C89 C90 1.385 . S
C90 H64 0.930 . S
C90 C89 1.385 . S
C90 C91 1.357 . S
C91 C90 1.357 . S
C91 C92 1.406 . S
C92 H66 0.929 . S
C92 C91 1.406 . S
C92 C93 1.391 . S
C93 H65 0.931 . S
C93 C88 1.370 . S
C93 C92 1.391 . S
C94 N63 1.435 . S
C94 C95 1.358 . S
C94 C99 1.371 . S
C95 H67 0.930 . S
C95 C94 1.358 . S
C95 C96 1.405 . S
C96 H68 0.932 . S
C96 C95 1.405 . S
C96 C97 1.383 1_554 S
C97 C96 1.383 1_556 S
C97 C98 1.393 . S
C98 H70 0.931 . S
C98 C97 1.393 . S
C98 C99 1.382 1_556 S
C99 H69 0.929 . S
C99 C94 1.371 . S
C99 C98 1.382 1_554 S
C100 N63 1.423 . S
C100 C101 1.362 . S
C100 C105 1.388 . S
C101 H71 0.929 . S
C101 C100 1.362 . S
C101 C102 1.376 . S
C102 H73 0.931 . S
C102 C101 1.376 . S
C102 C103 1.396 . S
C103 C102 1.396 . S
C103 C104 1.348 . S
C103 C121 1.472 . S
C104 H74 0.929 . S
C104 C103 1.348 . S
C104 C105 1.443 . S
C105 H72 0.932 . S
C105 C100 1.388 . S
C105 C104 1.443 . S
C106 N86 1.433 . S
C106 C107 1.363 . S
C106 C111 1.370 . S
C107 H75 0.929 . S
C107 C106 1.363 . S
C107 C108 1.385 . S
C108 H76 0.930 . S
C108 C107 1.385 . S
C108 C109 1.357 . S
C109 C108 1.357 . S
C109 C110 1.406 . S
C110 H77 0.929 . S
C110 C109 1.406 . S
C110 C111 1.391 . S
C111 H78 0.931 . S
C111 C106 1.370 . S
C111 C110 1.391 . S
C112 N86 1.435 . S
C112 C113 1.358 . S
C112 C117 1.371 . S
C113 H79 0.930 . S
C113 C112 1.358 . S
C113 C114 1.405 . S
C114 H80 0.932 . S
C114 C113 1.405 . S
C114 C115 1.383 1_554 S
C115 C114 1.383 1_556 S
C115 C116 1.393 . S
C116 H81 0.931 . S
C116 C115 1.393 . S
C116 C117 1.382 1_556 S
C117 H82 0.929 . S
C117 C112 1.371 . S
C117 C116 1.382 1_554 S
C118 N86 1.423 . S
C118 C119 1.362 . S
C118 C123 1.388 . S
C119 H83 0.929 . S
C119 C118 1.362 . S
C119 C120 1.376 . S
C120 H84 0.931 . S
C120 C119 1.376 . S
C120 C121 1.396 . S
C121 C103 1.472 . S
C121 C120 1.396 . S
C121 C122 1.348 . S
C122 H85 0.929 . S
C122 C121 1.348 . S
C122 C123 1.443 . S
C123 H87 0.932 . S
C123 C118 1.388 . S
C123 C122 1.443 . S
H124 C151 0.929 . S
N125 C150 1.433 1_554 S
N125 C156 1.435 . S
N125 C162 1.423 . S
H126 C152 0.930 . S
H127 C155 0.931 . S
H128 C154 0.929 . S
H129 C157 0.930 . S
H130 C158 0.932 . S
H131 C161 0.929 . S
H132 C160 0.931 . S
H133 C163 0.929 1_556 S
H134 C167 0.932 . S
H135 C164 0.931 1_556 S
H136 C166 0.929 . S
H137 C169 0.929 . S
H138 C170 0.930 . S
H139 C172 0.929 . S
H140 C173 0.931 . S
H141 C175 0.930 . S
H142 C176 0.932 . S
H143 C178 0.931 . S
H144 C179 0.929 . S
H145 C181 0.926 1_556 S
H146 C182 0.931 1_556 S
H147 C184 0.929 . S
N148 C168 1.433 1_554 S
N148 C174 1.435 . S
N148 C180 1.423 . S
H149 C185 0.932 . S
C150 N125 1.433 1_556 S
C150 C151 1.363 . S
C150 C155 1.370 . S
C151 H124 0.929 . S
C151 C150 1.363 . S
C151 C152 1.385 . S
C152 H126 0.930 . S
C152 C151 1.385 . S
C152 C153 1.357 . S
C153 C152 1.357 . S
C153 C154 1.406 . S
C154 H128 0.929 . S
C154 C153 1.406 . S
C154 C155 1.391 . S
C155 H127 0.931 . S
C155 C150 1.370 . S
C155 C154 1.391 . S
C156 N125 1.435 . S
C156 C157 1.358 . S
C156 C161 1.371 . S
C157 H129 0.930 . S
C157 C156 1.358 . S
C157 C158 1.405 . S
C158 H130 0.932 . S
C158 C157 1.405 . S
C158 C159 1.383 . S
C159 C158 1.383 . S
C159 C160 1.393 . S
C160 H132 0.931 . S
C160 C159 1.393 . S
C160 C161 1.382 . S
C161 H131 0.929 . S
C161 C156 1.371 . S
C161 C160 1.382 . S
C162 N125 1.423 . S
C162 C163 1.362 . S
C162 C167 1.388 . S
C163 H133 0.929 1_554 S
C163 C162 1.362 . S
C163 C164 1.376 . S
C164 H135 0.931 1_554 S
C164 C163 1.376 . S
C164 C165 1.396 . S
C165 C164 1.396 . S
C165 C166 1.348 . S
C165 C183 1.472 . S
C166 H136 0.929 . S
C166 C165 1.348 . S
C166 C167 1.443 . S
C167 H134 0.932 . S
C167 C162 1.388 . S
C167 C166 1.443 . S
C168 N148 1.433 1_556 S
C168 C169 1.363 . S
C168 C173 1.370 . S
C169 H137 0.929 . S
C169 C168 1.363 . S
C169 C170 1.385 . S
C170 H138 0.930 . S
C170 C169 1.385 . S
C170 C171 1.357 . S
C171 C170 1.357 . S
C171 C172 1.406 . S
C172 H139 0.929 . S
C172 C171 1.406 . S
C172 C173 1.391 . S
C173 H140 0.931 . S
C173 C168 1.370 . S
C173 C172 1.391 . S
C174 N148 1.435 . S
C174 C175 1.358 . S
C174 C179 1.371 . S
C175 H141 0.930 . S
C175 C174 1.358 . S
C175 C176 1.405 . S
C176 H142 0.932 . S
C176 C175 1.405 . S
C176 C177 1.383 . S
C177 C176 1.383 . S
C177 C178 1.393 . S
C178 H143 0.931 . S
C178 C177 1.393 . S
C178 C179 1.382 . S
C179 H144 0.929 . S
C179 C174 1.371 . S
C179 C178 1.382 . S
C180 N148 1.423 . S
C180 C181 1.365 . S
C180 C185 1.388 . S
C181 H145 0.926 1_554 S
C181 C180 1.365 . S
C181 C182 1.377 . S
C182 H146 0.931 1_554 S
C182 C181 1.377 . S
C182 C183 1.396 . S
C183 C165 1.472 . S
C183 C182 1.396 . S
C183 C184 1.348 . S
C184 H147 0.929 . S
C184 C183 1.348 . S
C184 C185 1.443 . S
C185 H149 0.932 . S
C185 C180 1.388 . S
C185 C184 1.443 . S
H186 C213 0.929 . S
N187 C212 1.433 . S
N187 C218 1.435 . S
N187 C224 1.423 . S
H188 C214 0.930 . S
H189 C217 0.931 . S
H190 C216 0.929 . S
H191 C219 0.930 . S
H192 C220 0.932 . S
H193 C223 0.929 . S
H194 C222 0.931 . S
H195 C225 0.929 . S
H196 C229 0.932 1_556 S
H197 C226 0.931 . S
H198 C228 0.929 1_556 S
H199 C231 0.929 . S
H200 C232 0.930 . S
H201 C234 0.929 . S
H202 C235 0.931 . S
H203 C237 0.930 . S
H204 C238 0.932 . S
H205 C240 0.931 . S
H206 C241 0.929 . S
H207 C243 0.929 . S
H208 C244 0.931 . S
H209 C246 0.929 1_556 S
N210 C230 1.433 . S
N210 C236 1.435 . S
N210 C242 1.423 . S
H211 C247 0.932 1_556 S
C212 N187 1.433 . S
C212 C213 1.363 . S
C212 C217 1.370 . S
C213 H186 0.929 . S
C213 C212 1.363 . S
C213 C214 1.385 . S
C214 H188 0.930 . S
C214 C213 1.385 . S
C214 C215 1.357 . S
C215 C214 1.357 . S
C215 C216 1.406 . S
C216 H190 0.929 . S
C216 C215 1.406 . S
C216 C217 1.391 . S
C217 H189 0.931 . S
C217 C212 1.370 . S
C217 C216 1.391 . S
C218 N187 1.435 . S
C218 C219 1.358 . S
C218 C223 1.371 1_554 S
C219 H191 0.930 . S
C219 C218 1.358 . S
C219 C220 1.405 1_554 S
C220 H192 0.932 . S
C220 C219 1.405 1_556 S
C220 C221 1.383 . S
C221 C220 1.383 . S
C221 C222 1.393 . S
C222 H194 0.931 . S
C222 C221 1.393 . S
C222 C223 1.382 . S
C223 H193 0.929 . S
C223 C218 1.371 1_556 S
C223 C222 1.382 . S
C224 N187 1.423 . S
C224 C225 1.362 . S
C224 C229 1.388 . S
C225 H195 0.929 . S
C225 C224 1.362 . S
C225 C226 1.376 . S
C226 H197 0.931 . S
C226 C225 1.376 . S
C226 C227 1.396 . S
C227 C226 1.396 . S
C227 C228 1.348 . S
C227 C245 1.472 . S
C228 H198 0.929 1_554 S
C228 C227 1.348 . S
C228 C229 1.443 . S
C229 H196 0.932 1_554 S
C229 C224 1.388 . S
C229 C228 1.443 . S
C230 N210 1.433 . S
C230 C231 1.363 . S
C230 C235 1.370 . S
C231 H199 0.929 . S
C231 C230 1.363 . S
C231 C232 1.385 . S
C232 H200 0.930 . S
C232 C231 1.385 . S
C232 C233 1.357 . S
C233 C232 1.357 . S
C233 C234 1.406 . S
C234 H201 0.929 . S
C234 C233 1.406 . S
C234 C235 1.391 . S
C235 H202 0.931 . S
C235 C230 1.370 . S
C235 C234 1.391 . S
C236 N210 1.435 . S
C236 C237 1.358 . S
C236 C241 1.371 1_554 S
C237 H203 0.930 . S
C237 C236 1.358 . S
C237 C238 1.405 1_554 S
C238 H204 0.932 . S
C238 C237 1.405 1_556 S
C238 C239 1.383 . S
C239 C238 1.383 . S
C239 C240 1.393 . S
C240 H205 0.931 . S
C240 C239 1.393 . S
C240 C241 1.382 . S
C241 H206 0.929 . S
C241 C236 1.371 1_556 S
C241 C240 1.382 . S
C242 N210 1.423 . S
C242 C243 1.362 . S
C242 C247 1.388 . S
C243 H207 0.929 . S
C243 C242 1.362 . S
C243 C244 1.376 . S
C244 H208 0.931 . S
C244 C243 1.376 . S
C244 C245 1.396 . S
C245 C227 1.472 . S
C245 C244 1.396 . S
C245 C246 1.348 . S
C246 H209 0.929 1_554 S
C246 C245 1.348 . S
C246 C247 1.443 . S
C247 H211 0.932 1_554 S
C247 C242 1.388 . S
C247 C246 1.443 . S
H248 C275 0.929 . S
N249 C274 1.433 . S
N249 C280 1.435 . S
N249 C286 1.423 . S
H250 C276 0.930 . S
H251 C279 0.931 . S
H252 C278 0.929 . S
H253 C281 0.930 . S
H254 C282 0.932 . S
H255 C285 0.929 . S
H256 C284 0.931 . S
H257 C287 0.929 . S
H258 C291 0.932 . S
H259 C288 0.931 . S
H260 C290 0.929 . S
H261 C293 0.929 . S
H262 C294 0.930 . S
H263 C296 0.929 . S
H264 C297 0.931 . S
H265 C299 0.930 . S
H266 C300 0.932 . S
H267 C302 0.931 . S
H268 C303 0.929 . S
H269 C305 0.929 . S
H270 C306 0.931 . S
H271 C308 0.929 . S
N272 C292 1.433 . S
N272 C298 1.435 . S
N272 C304 1.423 . S
H273 C309 0.932 . S
C274 N249 1.433 . S
C274 C275 1.363 . S
C274 C279 1.370 . S
C275 H248 0.929 . S
C275 C274 1.363 . S
C275 C276 1.385 . S
C276 H250 0.930 . S
C276 C275 1.385 . S
C276 C277 1.357 . S
C277 C276 1.357 . S
C277 C278 1.406 . S
C278 H252 0.929 . S
C278 C277 1.406 . S
C278 C279 1.391 . S
C279 H251 0.931 . S
C279 C274 1.370 . S
C279 C278 1.391 . S
C280 N249 1.435 . S
C280 C281 1.358 . S
C280 C285 1.371 1_554 S
C281 H253 0.930 . S
C281 C280 1.358 . S
C281 C282 1.405 1_554 S
C282 H254 0.932 . S
C282 C281 1.405 1_556 S
C282 C283 1.383 . S
C283 C282 1.383 . S
C283 C284 1.393 . S
C284 H256 0.931 . S
C284 C283 1.393 . S
C284 C285 1.382 . S
C285 H255 0.929 . S
C285 C280 1.371 1_556 S
C285 C284 1.382 . S
C286 N249 1.423 . S
C286 C287 1.362 . S
C286 C291 1.388 . S
C287 H257 0.929 . S
C287 C286 1.362 . S
C287 C288 1.376 . S
C288 H259 0.931 . S
C288 C287 1.376 . S
C288 C289 1.396 . S
C289 C288 1.396 . S
C289 C290 1.348 . S
C289 C307 1.472 . S
C290 H260 0.929 . S
C290 C289 1.348 . S
C290 C291 1.443 . S
C291 H258 0.932 . S
C291 C286 1.388 . S
C291 C290 1.443 . S
C292 N272 1.433 . S
C292 C293 1.363 . S
C292 C297 1.370 . S
C293 H261 0.929 . S
C293 C292 1.363 . S
C293 C294 1.385 . S
C294 H262 0.930 . S
C294 C293 1.385 . S
C294 C295 1.357 . S
C295 C294 1.357 . S
C295 C296 1.406 . S
C296 H263 0.929 . S
C296 C295 1.406 . S
C296 C297 1.391 . S
C297 H264 0.931 . S
C297 C292 1.370 . S
C297 C296 1.391 . S
C298 N272 1.435 . S
C298 C299 1.358 . S
C298 C303 1.371 1_554 S
C299 H265 0.930 . S
C299 C298 1.358 . S
C299 C300 1.405 . S
C300 H266 0.932 . S
C300 C299 1.405 . S
C300 C301 1.383 1_554 S
C301 C300 1.383 1_556 S
C301 C302 1.393 . S
C302 H267 0.931 . S
C302 C301 1.393 . S
C302 C303 1.382 . S
C303 H268 0.929 . S
C303 C298 1.371 1_556 S
C303 C302 1.382 . S
C304 N272 1.423 . S
C304 C305 1.362 . S
C304 C309 1.388 . S
C305 H269 0.929 . S
C305 C304 1.362 . S
C305 C306 1.376 . S
C306 H270 0.931 . S
C306 C305 1.376 . S
C306 C307 1.396 . S
C307 C289 1.472 . S
C307 C306 1.396 . S
C307 C308 1.348 . S
C308 H271 0.929 . S
C308 C307 1.348 . S
C308 C309 1.443 . S
C309 H273 0.932 . S
C309 C304 1.388 . S
C309 C308 1.443 . S
H310 C337 0.929 . S
N311 C336 1.433 . S
N311 C342 1.435 . S
N311 C348 1.423 . S
H312 C338 0.930 . S
H313 C341 0.931 . S
H314 C340 0.929 . S
H315 C343 0.930 . S
H316 C344 0.932 . S
H317 C347 0.929 . S
H318 C346 0.931 . S
H319 C349 0.929 . S
H320 C353 0.932 . S
H321 C350 0.931 . S
H322 C352 0.929 . S
H323 C355 0.929 . S
H324 C356 0.930 . S
H325 C358 0.929 . S
H326 C359 0.931 . S
H327 C361 0.930 . S
H328 C362 0.932 . S
H329 C364 0.931 . S
H330 C365 0.929 . S
H331 C367 0.929 . S
H332 C368 0.931 . S
H333 C370 0.929 . S
N334 C354 1.433 . S
N334 C360 1.435 . S
N334 C366 1.423 . S
H335 C371 0.932 . S
C336 N311 1.433 . S
C336 C337 1.363 . S
C336 C341 1.370 . S
C337 H310 0.929 . S
C337 C336 1.363 . S
C337 C338 1.385 . S
C338 H312 0.930 . S
C338 C337 1.385 . S
C338 C339 1.357 . S
C339 C338 1.357 . S
C339 C340 1.406 . S
C340 H314 0.929 . S
C340 C339 1.406 . S
C340 C341 1.391 . S
C341 H313 0.931 . S
C341 C336 1.370 . S
C341 C340 1.391 . S
C342 N311 1.435 . S
C342 C343 1.358 . S
C342 C347 1.371 . S
C343 H315 0.930 . S
C343 C342 1.358 . S
C343 C344 1.405 . S
C344 H316 0.932 . S
C344 C343 1.405 . S
C344 C345 1.383 . S
C345 C344 1.383 . S
C345 C346 1.393 . S
C346 H318 0.931 . S
C346 C345 1.393 . S
C346 C347 1.382 . S
C347 H317 0.929 . S
C347 C342 1.371 . S
C347 C346 1.382 . S
C348 N311 1.423 . S
C348 C349 1.362 . S
C348 C353 1.388 . S
C349 H319 0.929 . S
C349 C348 1.362 . S
C349 C350 1.376 . S
C350 H321 0.931 . S
C350 C349 1.376 . S
C350 C351 1.396 . S
C351 C350 1.396 . S
C351 C352 1.348 . S
C351 C369 1.472 . S
C352 H322 0.929 . S
C352 C351 1.348 . S
C352 C353 1.443 . S
C353 H320 0.932 . S
C353 C348 1.388 . S
C353 C352 1.443 . S
C354 N334 1.433 . S
C354 C355 1.363 . S
C354 C359 1.370 . S
C355 H323 0.929 . S
C355 C354 1.363 . S
C355 C356 1.385 . S
C356 H324 0.930 . S
C356 C355 1.385 . S
C356 C357 1.357 . S
C357 C356 1.357 . S
C357 C358 1.406 . S
C358 H325 0.929 . S
C358 C357 1.406 . S
C358 C359 1.391 . S
C359 H326 0.931 . S
C359 C354 1.370 . S
C359 C358 1.391 . S
C360 N334 1.435 . S
C360 C361 1.358 . S
C360 C365 1.371 . S
C361 H327 0.930 . S
C361 C360 1.358 . S
C361 C362 1.405 . S
C362 H328 0.932 . S
C362 C361 1.405 . S
C362 C363 1.383 . S
C363 C362 1.383 . S
C363 C364 1.393 . S
C364 H329 0.931 . S
C364 C363 1.393 . S
C364 C365 1.382 . S
C365 H330 0.929 . S
C365 C360 1.371 . S
C365 C364 1.382 . S
C366 N334 1.423 . S
C366 C367 1.362 . S
C366 C371 1.388 . S
C367 H331 0.929 . S
C367 C366 1.362 . S
C367 C368 1.376 . S
C368 H332 0.931 . S
C368 C367 1.376 . S
C368 C369 1.396 . S
C369 C351 1.472 . S
C369 C368 1.396 . S
C369 C370 1.348 . S
C370 H333 0.929 . S
C370 C369 1.348 . S
C370 C371 1.443 . S
C371 H335 0.932 . S
C371 C366 1.388 . S
C371 C370 1.443 . S
C372 O384 1.241 . S
C372 O385 1.280 . S
C373 O386 1.277 . S
C373 O387 1.245 . S
C374 O398 1.247 . S
C374 O400 1.289 . S
Mg375 O376 1.911 . S
Mg375 O385 1.984 . S
Mg375 O387 1.988 1_655 S
Mg375 O388 2.061 . S
O376 Mg375 1.911 . S
O376 Mg377 1.989 1_655 S
O376 Mg378 1.920 1_655 S
Mg377 O376 1.989 1_455 S
Mg377 O384 2.042 1_455 S
Mg377 O386 2.041 . S
Mg377 O392 2.038 1_455 S
Mg377 O400 2.238 . S
Mg378 O376 1.920 1_455 S
Mg378 O379 1.917 . S
Mg378 O389 2.106 1_455 S
Mg378 O391 2.079 1_455 S
Mg378 O400 2.106 . S
Mg378 O401 2.079 . S
O379 Mg378 1.917 . S
O379 Mg380 1.926 . S
O379 Mg381 1.986 . S
Mg380 O379 1.926 . S
Mg380 O394 1.984 . S
Mg380 O397 1.988 1_455 S
Mg380 O398 2.061 . S
Mg381 O379 1.986 . S
Mg381 O389 2.238 1_455 S
Mg381 O393 2.042 . S
Mg381 O395 2.041 1_455 S
Mg381 O402 2.038 . S
C382 O388 1.247 . S
C382 O389 1.289 . S
C383 O401 1.245 . S
C383 O402 1.274 . S
O384 C372 1.241 . S
O384 Mg377 2.042 1_655 S
O385 C372 1.280 . S
O385 Mg375 1.984 . S
O386 C373 1.277 . S
O386 Mg377 2.041 . S
O387 C373 1.245 . S
O387 Mg375 1.988 1_455 S
O388 Mg375 2.061 . S
O388 C382 1.247 . S
O389 Mg378 2.106 1_655 S
O389 Mg381 2.238 1_655 S
O389 C382 1.289 . S
C390 O391 1.245 . S
C390 O392 1.274 . S
O391 Mg378 2.079 1_655 S
O391 C390 1.245 . S
O392 Mg377 2.038 1_655 S
O392 C390 1.274 . S
O393 Mg381 2.042 . S
O393 C396 1.241 . S
O394 Mg380 1.984 . S
O394 C396 1.280 . S
O395 Mg381 2.041 1_655 S
O395 C399 1.277 . S
C396 O393 1.241 . S
C396 O394 1.280 . S
O397 Mg380 1.988 1_655 S
O397 C399 1.245 . S
O398 C374 1.247 . S
O398 Mg380 2.061 . S
C399 O395 1.277 . S
C399 O397 1.245 . S
O400 C374 1.289 . S
O400 Mg377 2.238 . S
O400 Mg378 2.106 . S
O401 Mg378 2.079 . S
O401 C383 1.245 . S
O402 Mg381 2.038 . S
O402 C383 1.274 . S
C403 O415 1.241 . S
C403 O416 1.280 . S
C404 O417 1.277 . S
C404 O418 1.245 . S
C405 O429 1.247 . S
C405 O431 1.289 . S
Mg406 O407 1.926 . S
Mg406 O416 1.984 . S
Mg406 O418 1.988 1_545 S
Mg406 O419 2.061 . S
O407 Mg406 1.926 . S
O407 Mg408 1.986 . S
O407 Mg409 1.917 . S
Mg408 O407 1.986 . S
Mg408 O415 2.042 . S
Mg408 O417 2.041 1_545 S
Mg408 O423 2.038 . S
Mg408 O431 2.238 1_545 S
Mg409 O407 1.917 . S
Mg409 O410 1.917 1_545 S
Mg409 O420 2.106 . S
Mg409 O422 2.079 . S
Mg409 O431 2.106 1_545 S
Mg409 O432 2.079 1_545 S
O410 Mg409 1.917 1_565 S
O410 Mg411 1.926 . S
O410 Mg412 1.986 1_565 S
Mg411 O410 1.926 . S
Mg411 O425 1.984 . S
Mg411 O428 1.988 1_565 S
Mg411 O429 2.061 . S
Mg412 O410 1.986 1_545 S
Mg412 O420 2.238 . S
Mg412 O424 2.042 1_545 S
Mg412 O426 2.041 . S
Mg412 O433 2.038 1_545 S
C413 O419 1.247 . S
C413 O420 1.289 . S
C414 O432 1.245 . S
C414 O433 1.274 . S
O415 C403 1.241 . S
O415 Mg408 2.042 . S
O416 C403 1.280 . S
O416 Mg406 1.984 . S
O417 C404 1.277 . S
O417 Mg408 2.041 1_565 S
O418 C404 1.245 . S
O418 Mg406 1.988 1_565 S
O419 Mg406 2.061 . S
O419 C413 1.247 . S
O420 Mg409 2.106 . S
O420 Mg412 2.238 . S
O420 C413 1.289 . S
C421 O422 1.245 . S
C421 O423 1.274 . S
O422 Mg409 2.079 . S
O422 C421 1.245 . S
O423 Mg408 2.038 . S
O423 C421 1.274 . S
O424 Mg412 2.042 1_565 S
O424 C427 1.241 . S
O425 Mg411 1.984 . S
O425 C427 1.280 . S
O426 Mg412 2.041 . S
O426 C430 1.277 . S
C427 O424 1.241 . S
C427 O425 1.280 . S
O428 Mg411 1.988 1_545 S
O428 C430 1.245 . S
O429 C405 1.247 . S
O429 Mg411 2.061 . S
C430 O426 1.277 . S
C430 O428 1.245 . S
O431 C405 1.289 . S
O431 Mg408 2.238 1_565 S
O431 Mg409 2.106 1_565 S
O432 Mg409 2.079 1_565 S
O432 C414 1.245 . S
O433 Mg412 2.038 1_565 S
O433 C414 1.274 . S
C434 O446 1.241 . S
C434 O447 1.280 . S
C435 O448 1.277 . S
C435 O449 1.245 . S
C436 O460 1.247 . S
C436 O462 1.289 . S
Mg437 O438 1.926 . S
Mg437 O447 1.984 . S
Mg437 O449 1.988 . S
Mg437 O450 2.061 . S
O438 Mg437 1.926 . S
O438 Mg439 1.986 . S
O438 Mg440 1.917 . S
Mg439 O438 1.986 . S
Mg439 O446 2.042 . S
Mg439 O448 2.041 . S
Mg439 O454 2.038 . S
Mg439 O462 2.238 . S
Mg440 O438 1.917 . S
Mg440 O441 1.917 . S
Mg440 O451 2.106 . S
Mg440 O453 2.079 . S
Mg440 O462 2.106 . S
Mg440 O463 2.079 . S
O441 Mg440 1.917 . S
O441 Mg442 1.926 . S
O441 Mg443 1.986 . S
Mg442 O441 1.926 . S
Mg442 O456 1.984 . S
Mg442 O459 1.988 . S
Mg442 O460 2.061 . S
Mg443 O441 1.986 . S
Mg443 O451 2.238 . S
Mg443 O455 2.042 . S
Mg443 O457 2.041 . S
Mg443 O464 2.038 . S
C444 O450 1.247 . S
C444 O451 1.289 . S
C445 O463 1.245 . S
C445 O464 1.274 . S
O446 C434 1.241 . S
O446 Mg439 2.042 . S
O447 C434 1.280 . S
O447 Mg437 1.984 . S
O448 C435 1.277 . S
O448 Mg439 2.041 . S
O449 C435 1.245 . S
O449 Mg437 1.988 . S
O450 Mg437 2.061 . S
O450 C444 1.247 . S
O451 Mg440 2.106 . S
O451 Mg443 2.238 . S
O451 C444 1.289 . S
C452 O453 1.245 . S
C452 O454 1.274 . S
O453 Mg440 2.079 . S
O453 C452 1.245 . S
O454 Mg439 2.038 . S
O454 C452 1.274 . S
O455 Mg443 2.042 . S
O455 C458 1.241 . S
O456 Mg442 1.984 . S
O456 C458 1.280 . S
O457 Mg443 2.041 . S
O457 C461 1.277 . S
C458 O455 1.241 . S
C458 O456 1.280 . S
O459 Mg442 1.988 . S
O459 C461 1.245 . S
O460 C436 1.247 . S
O460 Mg442 2.061 . S
C461 O457 1.277 . S
C461 O459 1.245 . S
O462 C436 1.289 . S
O462 Mg439 2.238 . S
O462 Mg440 2.106 . S
O463 Mg440 2.079 . S
O463 C445 1.245 . S
O464 Mg443 2.038 . S
O464 C445 1.274 . S
C465 C466 1.387 . S
C465 H469 0.950 . S
C465 C474 1.390 . S
C466 C465 1.387 . S
C466 C468 1.387 . S
H467 C474 0.950 . S
C468 C466 1.387 . S
C468 C470 1.390 . S
C468 H472 0.950 . S
H469 C465 0.950 . S
C470 C468 1.390 . S
C470 C471 1.387 . S
C470 H473 0.950 . S
C471 C470 1.387 . S
C471 C474 1.387 . S
H472 C468 0.950 . S
H473 C470 0.950 . S
C474 C465 1.390 . S
C474 H467 0.950 . S
C474 C471 1.387 . S
C475 C476 1.387 . S
C475 H479 0.950 . S
C475 C484 1.390 . S
C476 C475 1.387 . S
C476 C478 1.387 . S
H477 C484 0.950 . S
C478 C476 1.387 . S
C478 C480 1.390 . S
C478 H482 0.950 . S
H479 C475 0.950 . S
C480 C478 1.390 . S
C480 C481 1.387 . S
C480 H483 0.950 . S
C481 C480 1.387 . S
C481 C484 1.387 . S
H482 C478 0.950 . S
H483 C480 0.950 . S
C484 C475 1.390 . S
C484 H477 0.950 . S
C484 C481 1.387 . S
C485 C486 1.387 . S
C485 H489 0.950 . S
C485 C494 1.390 . S
C486 C485 1.387 . S
C486 C488 1.387 . S
H487 C494 0.950 . S
C488 C486 1.387 . S
C488 C490 1.390 . S
C488 H492 0.950 . S
H489 C485 0.950 . S
C490 C488 1.390 . S
C490 C491 1.387 . S
C490 H493 0.950 . S
C491 C490 1.387 . S
C491 C494 1.387 . S
H492 C488 0.950 . S
H493 C490 0.950 . S
C494 C485 1.390 . S
C494 H487 0.950 . S
C494 C491 1.387 . S
C495 C496 1.387 . S
C495 H499 0.950 . S
C495 C504 1.390 . S
C496 C495 1.387 . S
C496 C498 1.387 . S
H497 C504 0.950 . S
C498 C496 1.387 . S
C498 C500 1.390 . S
C498 H502 0.950 . S
H499 C495 0.950 . S
C500 C498 1.390 . S
C500 C501 1.387 . S
C500 H503 0.950 . S
C501 C500 1.387 . S
C501 C504 1.387 . S
H502 C498 0.950 . S
H503 C500 0.950 . S
C504 C495 1.390 . S
C504 H497 0.950 . S
C504 C501 1.387 . S
C505 C506 1.387 . S
C505 H509 0.950 . S
C505 C514 1.390 . S
C506 C505 1.387 . S
C506 C508 1.387 . S
H507 C514 0.950 . S
C508 C506 1.387 . S
C508 C510 1.390 . S
C508 H512 0.950 . S
H509 C505 0.950 . S
C510 C508 1.390 . S
C510 C511 1.387 . S
C510 H513 0.950 . S
C511 C510 1.387 . S
C511 C514 1.387 . S
H512 C508 0.950 . S
H513 C510 0.950 . S
C514 C505 1.390 . S
C514 H507 0.950 . S
C514 C511 1.387 . S
C515 C516 1.387 . S
C515 H519 0.950 . S
C515 C524 1.390 . S
C516 C515 1.387 . S
C516 C518 1.387 . S
H517 C524 0.950 . S
C518 C516 1.387 . S
C518 C520 1.390 . S
C518 H522 0.950 . S
H519 C515 0.950 . S
C520 C518 1.390 . S
C520 C521 1.387 . S
C520 H523 0.950 . S
C521 C520 1.387 . S
C521 C524 1.387 . S
H522 C518 0.950 . S
H523 C520 0.950 . S
C524 C515 1.390 . S
C524 H517 0.950 . S
C524 C521 1.387 . S
C525 C526 1.387 . S
C525 H529 0.950 . S
C525 C534 1.390 . S
C526 C525 1.387 . S
C526 C528 1.387 . S
H527 C534 0.950 . S
C528 C526 1.387 . S
C528 C530 1.390 . S
C528 H532 0.950 . S
H529 C525 0.950 . S
C530 C528 1.390 . S
C530 C531 1.387 . S
C530 H533 0.950 . S
C531 C530 1.387 . S
C531 C534 1.387 . S
H532 C528 0.950 . S
H533 C530 0.950 . S
C534 C525 1.390 . S
C534 H527 0.950 . S
C534 C531 1.387 . S
C535 C536 1.387 . S
C535 H539 0.950 . S
C535 C544 1.390 . S
C536 C535 1.387 . S
C536 C538 1.387 . S
H537 C544 0.950 . S
C538 C536 1.387 . S
C538 C540 1.390 . S
C538 H542 0.950 . S
H539 C535 0.950 . S
C540 C538 1.390 . S
C540 C541 1.387 . S
C540 H543 0.950 . S
C541 C540 1.387 . S
C541 C544 1.387 . S
H542 C538 0.950 . S
H543 C540 0.950 . S
C544 C535 1.390 . S
C544 H537 0.950 . S
C544 C541 1.387 . S
C545 C546 1.387 . S
C545 H549 0.950 . S
C545 C554 1.390 . S
C546 C545 1.387 . S
C546 C548 1.387 . S
H547 C554 0.950 . S
C548 C546 1.387 . S
C548 C550 1.390 . S
C548 H552 0.950 . S
H549 C545 0.950 . S
C550 C548 1.390 . S
C550 C551 1.387 . S
C550 H553 0.950 . S
C551 C550 1.387 . S
C551 C554 1.387 . S
H552 C548 0.950 . S
H553 C550 0.950 . S
C554 C545 1.390 . S
C554 H547 0.950 . S
C554 C551 1.387 . S
C555 C556 1.387 . S
C555 H559 0.950 1_556 S
C555 C564 1.390 . S
C556 C555 1.387 . S
C556 C558 1.387 . S
H557 C564 0.950 . S
C558 C556 1.387 . S
C558 C560 1.390 . S
C558 H562 0.950 . S
H559 C555 0.950 1_554 S
C560 C558 1.390 . S
C560 C561 1.387 . S
C560 H563 0.950 . S
C561 C560 1.387 . S
C561 C564 1.387 . S
H562 C558 0.950 . S
H563 C560 0.950 . S
C564 C555 1.390 . S
C564 H557 0.950 . S
C564 C561 1.387 . S
C565 C566 1.387 . S
C565 H569 0.950 . S
C565 C574 1.390 . S
C566 C565 1.387 . S
C566 C568 1.387 . S
H567 C574 0.950 . S
C568 C566 1.387 . S
C568 C570 1.390 . S
C568 H572 0.950 . S
H569 C565 0.950 . S
C570 C568 1.390 . S
C570 C571 1.387 . S
C570 H573 0.950 . S
C571 C570 1.387 . S
C571 C574 1.387 . S
H572 C568 0.950 . S
H573 C570 0.950 . S
C574 C565 1.390 . S
C574 H567 0.950 . S
C574 C571 1.387 . S
C575 C576 1.387 . S
C575 H579 0.950 . S
C575 C584 1.390 . S
C576 C575 1.387 . S
C576 C578 1.387 . S
H577 C584 0.950 . S
C578 C576 1.387 . S
C578 C580 1.390 . S
C578 H582 0.950 . S
H579 C575 0.950 . S
C580 C578 1.390 . S
C580 C581 1.387 . S
C580 H583 0.950 . S
C581 C580 1.387 . S
C581 C584 1.387 . S
H582 C578 0.950 . S
H583 C580 0.950 . S
C584 C575 1.390 . S
C584 H577 0.950 . S
C584 C581 1.387 . S
C585 C586 1.387 . S
C585 H589 0.950 . S
C585 C594 1.390 . S
C586 C585 1.387 . S
C586 C588 1.387 . S
H587 C594 0.950 . S
C588 C586 1.387 . S
C588 C590 1.390 . S
C588 H592 0.950 . S
H589 C585 0.950 . S
C590 C588 1.390 . S
C590 C591 1.387 . S
C590 H593 0.950 . S
C591 C590 1.387 . S
C591 C594 1.387 . S
H592 C588 0.950 . S
H593 C590 0.950 . S
C594 C585 1.390 . S
C594 H587 0.950 . S
C594 C591 1.387 . S
C595 C596 1.387 . S
C595 H599 0.950 . S
C595 C604 1.390 . S
C596 C595 1.387 . S
C596 C598 1.387 . S
H597 C604 0.950 . S
C598 C596 1.387 . S
C598 C600 1.390 . S
C598 H602 0.950 . S
H599 C595 0.950 . S
C600 C598 1.390 . S
C600 C601 1.387 . S
C600 H603 0.950 . S
C601 C600 1.387 . S
C601 C604 1.387 . S
H602 C598 0.950 . S
H603 C600 0.950 . S
C604 C595 1.390 . S
C604 H597 0.950 . S
C604 C601 1.387 . S
C605 C606 1.387 . S
C605 H609 0.950 . S
C605 C614 1.390 . S
C606 C605 1.387 . S
C606 C608 1.387 . S
H607 C614 0.950 . S
C608 C606 1.387 . S
C608 C610 1.390 . S
C608 H612 0.950 . S
H609 C605 0.950 . S
C610 C608 1.390 . S
C610 C611 1.387 . S
C610 H613 0.950 . S
C611 C610 1.387 . S
C611 C614 1.387 . S
H612 C608 0.950 . S
H613 C610 0.950 . S
C614 C605 1.390 . S
C614 H607 0.950 . S
C614 C611 1.387 . S
C615 C616 1.387 . S
C615 H619 0.950 . S
C615 C624 1.390 . S
C616 C615 1.387 . S
C616 C618 1.387 . S
H617 C624 0.950 . S
C618 C616 1.387 . S
C618 C620 1.390 . S
C618 H622 0.950 . S
H619 C615 0.950 . S
C620 C618 1.390 . S
C620 C621 1.387 . S
C620 H623 0.950 . S
C621 C620 1.387 . S
C621 C624 1.387 . S
H622 C618 0.950 . S
H623 C620 0.950 . S
C624 C615 1.390 . S
C624 H617 0.950 . S
C624 C621 1.387 . S
C625 C626 1.387 . S
C625 H629 0.950 . S
C625 C634 1.390 . S
C626 C625 1.387 . S
C626 C628 1.387 . S
H627 C634 0.950 . S
C628 C626 1.387 . S
C628 C630 1.390 . S
C628 H632 0.950 . S
H629 C625 0.950 . S
C630 C628 1.390 . S
C630 C631 1.387 . S
C630 H633 0.950 . S
C631 C630 1.387 . S
C631 C634 1.387 . S
H632 C628 0.950 . S
H633 C630 0.950 . S
C634 C625 1.390 . S
C634 H627 0.950 . S
C634 C631 1.387 . S
C635 C636 1.387 . S
C635 H639 0.950 . S
C635 C644 1.390 . S
C636 C635 1.387 . S
C636 C638 1.387 . S
H637 C644 0.950 . S
C638 C636 1.387 . S
C638 C640 1.390 . S
C638 H642 0.950 . S
H639 C635 0.950 . S
C640 C638 1.390 . S
C640 C641 1.387 . S
C640 H643 0.950 . S
C641 C640 1.387 . S
C641 C644 1.387 . S
H642 C638 0.950 . S
H643 C640 0.950 . S
C644 C635 1.390 . S
C644 H637 0.950 . S
C644 C641 1.387 . S
C645 C646 1.387 . S
C645 H649 0.950 . S
C645 C654 1.390 . S
C646 C645 1.387 . S
C646 C648 1.387 . S
H647 C654 0.950 . S
C648 C646 1.387 . S
C648 C650 1.390 . S
C648 H652 0.950 . S
H649 C645 0.950 . S
C650 C648 1.390 . S
C650 C651 1.387 . S
C650 H653 0.950 . S
C651 C650 1.387 . S
C651 C654 1.387 . S
H652 C648 0.950 . S
H653 C650 0.950 . S
C654 C645 1.390 . S
C654 H647 0.950 . S
C654 C651 1.387 . S
C655 C656 1.387 . S
C655 H659 0.950 . S
C655 C664 1.390 . S
C656 C655 1.387 . S
C656 C658 1.387 . S
H657 C664 0.950 . S
C658 C656 1.387 . S
C658 C660 1.390 . S
C658 H662 0.950 . S
H659 C655 0.950 . S
C660 C658 1.390 . S
C660 C661 1.387 . S
C660 H663 0.950 . S
C661 C660 1.387 . S
C661 C664 1.387 . S
H662 C658 0.950 . S
H663 C660 0.950 . S
C664 C655 1.390 . S
C664 H657 0.950 . S
C664 C661 1.387 . S
C665 C666 1.387 . S
C665 H669 0.950 . S
C665 C674 1.390 . S
C666 C665 1.387 . S
C666 C668 1.387 . S
H667 C674 0.950 . S
C668 C666 1.387 . S
C668 C670 1.390 . S
C668 H672 0.950 . S
H669 C665 0.950 . S
C670 C668 1.390 . S
C670 C671 1.387 . S
C670 H673 0.950 . S
C671 C670 1.387 . S
C671 C674 1.387 . S
H672 C668 0.950 . S
H673 C670 0.950 . S
C674 C665 1.390 . S
C674 H667 0.950 . S
C674 C671 1.387 . S
C675 C676 1.387 . S
C675 H679 0.950 . S
C675 C684 1.390 . S
C676 C675 1.387 . S
C676 C678 1.387 . S
H677 C684 0.950 . S
C678 C676 1.387 . S
C678 C680 1.390 . S
C678 H682 0.950 . S
H679 C675 0.950 . S
C680 C678 1.390 . S
C680 C681 1.387 . S
C680 H683 0.950 . S
C681 C680 1.387 . S
C681 C684 1.387 . S
H682 C678 0.950 . S
H683 C680 0.950 . S
C684 C675 1.390 . S
C684 H677 0.950 . S
C684 C681 1.387 . S
C685 C686 1.387 . S
C685 H689 0.950 . S
C685 C694 1.390 . S
C686 C685 1.387 . S
C686 C688 1.387 . S
H687 C694 0.950 . S
C688 C686 1.387 . S
C688 C690 1.390 . S
C688 H692 0.950 . S
H689 C685 0.950 . S
C690 C688 1.390 . S
C690 C691 1.387 . S
C690 H693 0.950 . S
C691 C690 1.387 . S
C691 C694 1.387 . S
H692 C688 0.950 . S
H693 C690 0.950 . S
C694 C685 1.390 . S
C694 H687 0.950 . S
C694 C691 1.387 . S
C695 C696 1.387 . S
C695 H699 0.950 . S
C695 C704 1.390 . S
C696 C695 1.387 . S
C696 C698 1.387 . S
H697 C704 0.950 . S
C698 C696 1.387 . S
C698 C700 1.390 . S
C698 H702 0.950 . S
H699 C695 0.950 . S
C700 C698 1.390 . S
C700 C701 1.387 . S
C700 H703 0.950 . S
C701 C700 1.387 . S
C701 C704 1.387 . S
H702 C698 0.950 . S
H703 C700 0.950 . S
C704 C695 1.390 . S
C704 H697 0.950 . S
C704 C701 1.387 . S
C466 C47 2.006 . S
C471 C383 2.156 . S
C476 C91 1.770 . S
C481 C430 1.863 . S
C491 C434 1.766 . S
C486 C177 1.898 . S
C501 C399 1.720 . S
C496 C215 1.719 . S
C506 C295 1.959 . S
C511 C414 2.017 . S
C521 C436 1.021 . S
C516 C345 1.046 . S
C531 C405 1.769 . S
C526 C153 1.711 . S
C536 C239 1.464 . S
C541 C445 1.378 . S
C551 C374 1.375 . S
C546 C283 1.458 . S
C556 C357 1.607 1_556 S
C561 C403 1.642 . S
C566 C35 1.952 1_556 S
C571 C461 1.843 . S
C581 C372 1.446 . S
C576 C115 1.531 . S
C591 C390 1.747 . S
C586 C221 1.858 . S
C601 C404 1.501 . S
C596 C301 1.550 . S
C611 C458 2.000 . S
C606 C339 1.970 1_556 S
C621 C373 1.506 . S
C616 C53 1.601 1_556 S
C631 C421 1.749 . S
C626 C97 1.921 . S
C636 C171 1.339 . S
C641 C444 1.399 . S
C651 C413 1.377 . S
C646 C363 1.425 . S
C661 C452 1.777 . S
C656 C29 1.607 . S
C671 C382 1.619 . S
C666 C109 1.652 . S
C681 C427 1.432 . S
C676 C159 1.539 . S
C686 C233 2.089 . S
C691 C435 2.085 . S
C696 C277 1.663 . S
C701 C396 1.773 . S
