# Generated by pormake.
# Topology llk, (3,12)-cn, num edge types: 1
# Building blocks:
#     Node 0, Type 0, BuildingBlock: QEWDON_clean_linker_0, # of connection points: 3
#     Node 1, Type 0, BuildingBlock: QEWDON_clean_linker_0, # of connection points: 3
#     Node 2, Type 0, BuildingBlock: QEWDON_clean_linker_0, # of connection points: 3
#     Node 3, Type 0, BuildingBlock: QEWDON_clean_linker_0, # of connection points: 3
#     Node 4, Type 0, BuildingBlock: QEWDON_clean_linker_0, # of connection points: 3
#     Node 5, Type 0, BuildingBlock: QEWDON_clean_linker_0, # of connection points: 3
#     Node 6, Type 0, BuildingBlock: QEWDON_clean_linker_0, # of connection points: 3
#     Node 7, Type 0, BuildingBlock: QEWDON_clean_linker_0, # of connection points: 3
#     Node 8, Type 0, BuildingBlock: QEWDON_clean_linker_0, # of connection points: 3
#     Node 9, Type 0, BuildingBlock: QEWDON_clean_linker_0, # of connection points: 3
#     Node 10, Type 0, BuildingBlock: QEWDON_clean_linker_0, # of connection points: 3
#     Node 11, Type 0, BuildingBlock: QEWDON_clean_linker_0, # of connection points: 3
#     Node 12, Type 0, BuildingBlock: QEWDON_clean_linker_0, # of connection points: 3
#     Node 13, Type 0, BuildingBlock: QEWDON_clean_linker_0, # of connection points: 3
#     Node 14, Type 0, BuildingBlock: QEWDON_clean_linker_0, # of connection points: 3
#     Node 15, Type 0, BuildingBlock: QEWDON_clean_linker_0, # of connection points: 3
#     Node 16, Type 0, BuildingBlock: QEWDON_clean_linker_0, # of connection points: 3
#     Node 17, Type 0, BuildingBlock: QEWDON_clean_linker_0, # of connection points: 3
#     Node 18, Type 0, BuildingBlock: QEWDON_clean_linker_0, # of connection points: 3
#     Node 19, Type 0, BuildingBlock: QEWDON_clean_linker_0, # of connection points: 3
#     Node 20, Type 0, BuildingBlock: QEWDON_clean_linker_0, # of connection points: 3
#     Node 21, Type 0, BuildingBlock: QEWDON_clean_linker_0, # of connection points: 3
#     Node 22, Type 0, BuildingBlock: QEWDON_clean_linker_0, # of connection points: 3
#     Node 23, Type 0, BuildingBlock: QEWDON_clean_linker_0, # of connection points: 3
#     Node 24, Type 1, BuildingBlock: QEWDON_clean_sbu_0, # of connection points: 12
#     Node 25, Type 1, BuildingBlock: QEWDON_clean_sbu_0, # of connection points: 12
#     Node 26, Type 1, BuildingBlock: QEWDON_clean_sbu_0, # of connection points: 12
#     Node 27, Type 1, BuildingBlock: QEWDON_clean_sbu_0, # of connection points: 12
#     Node 28, Type 1, BuildingBlock: QEWDON_clean_sbu_0, # of connection points: 12
#     Node 29, Type 1, BuildingBlock: QEWDON_clean_sbu_0, # of connection points: 12
#     Edge 30, Type (0, 1), BuildingBlock: XIVTED_clean_linker_0, # of connection points: 2
#     Edge 31, Type (0, 1), BuildingBlock: XIVTED_clean_linker_0, # of connection points: 2
#     Edge 32, Type (0, 1), BuildingBlock: XIVTED_clean_linker_0, # of connection points: 2
#     Edge 33, Type (0, 1), BuildingBlock: XIVTED_clean_linker_0, # of connection points: 2
#     Edge 34, Type (0, 1), BuildingBlock: XIVTED_clean_linker_0, # of connection points: 2
#     Edge 35, Type (0, 1), BuildingBlock: XIVTED_clean_linker_0, # of connection points: 2
#     Edge 36, Type (0, 1), BuildingBlock: XIVTED_clean_linker_0, # of connection points: 2
#     Edge 37, Type (0, 1), BuildingBlock: XIVTED_clean_linker_0, # of connection points: 2
#     Edge 38, Type (0, 1), BuildingBlock: XIVTED_clean_linker_0, # of connection points: 2
#     Edge 39, Type (0, 1), BuildingBlock: XIVTED_clean_linker_0, # of connection points: 2
#     Edge 40, Type (0, 1), BuildingBlock: XIVTED_clean_linker_0, # of connection points: 2
#     Edge 41, Type (0, 1), BuildingBlock: XIVTED_clean_linker_0, # of connection points: 2
#     Edge 42, Type (0, 1), BuildingBlock: XIVTED_clean_linker_0, # of connection points: 2
#     Edge 43, Type (0, 1), BuildingBlock: XIVTED_clean_linker_0, # of connection points: 2
#     Edge 44, Type (0, 1), BuildingBlock: XIVTED_clean_linker_0, # of connection points: 2
#     Edge 45, Type (0, 1), BuildingBlock: XIVTED_clean_linker_0, # of connection points: 2
#     Edge 46, Type (0, 1), BuildingBlock: XIVTED_clean_linker_0, # of connection points: 2
#     Edge 47, Type (0, 1), BuildingBlock: XIVTED_clean_linker_0, # of connection points: 2
#     Edge 48, Type (0, 1), BuildingBlock: XIVTED_clean_linker_0, # of connection points: 2
#     Edge 49, Type (0, 1), BuildingBlock: XIVTED_clean_linker_0, # of connection points: 2
#     Edge 50, Type (0, 1), BuildingBlock: XIVTED_clean_linker_0, # of connection points: 2
#     Edge 51, Type (0, 1), BuildingBlock: XIVTED_clean_linker_0, # of connection points: 2
#     Edge 52, Type (0, 1), BuildingBlock: XIVTED_clean_linker_0, # of connection points: 2
#     Edge 53, Type (0, 1), BuildingBlock: XIVTED_clean_linker_0, # of connection points: 2
#     Edge 54, Type (0, 1), BuildingBlock: XIVTED_clean_linker_0, # of connection points: 2
#     Edge 55, Type (0, 1), BuildingBlock: XIVTED_clean_linker_0, # of connection points: 2
#     Edge 56, Type (0, 1), BuildingBlock: XIVTED_clean_linker_0, # of connection points: 2
#     Edge 57, Type (0, 1), BuildingBlock: XIVTED_clean_linker_0, # of connection points: 2
#     Edge 58, Type (0, 1), BuildingBlock: XIVTED_clean_linker_0, # of connection points: 2
#     Edge 59, Type (0, 1), BuildingBlock: XIVTED_clean_linker_0, # of connection points: 2
#     Edge 60, Type (0, 1), BuildingBlock: XIVTED_clean_linker_0, # of connection points: 2
#     Edge 61, Type (0, 1), BuildingBlock: XIVTED_clean_linker_0, # of connection points: 2
#     Edge 62, Type (0, 1), BuildingBlock: XIVTED_clean_linker_0, # of connection points: 2
#     Edge 63, Type (0, 1), BuildingBlock: XIVTED_clean_linker_0, # of connection points: 2
#     Edge 64, Type (0, 1), BuildingBlock: XIVTED_clean_linker_0, # of connection points: 2
#     Edge 65, Type (0, 1), BuildingBlock: XIVTED_clean_linker_0, # of connection points: 2
#     Edge 66, Type (0, 1), BuildingBlock: XIVTED_clean_linker_0, # of connection points: 2
#     Edge 67, Type (0, 1), BuildingBlock: XIVTED_clean_linker_0, # of connection points: 2
#     Edge 68, Type (0, 1), BuildingBlock: XIVTED_clean_linker_0, # of connection points: 2
#     Edge 69, Type (0, 1), BuildingBlock: XIVTED_clean_linker_0, # of connection points: 2
#     Edge 70, Type (0, 1), BuildingBlock: XIVTED_clean_linker_0, # of connection points: 2
#     Edge 71, Type (0, 1), BuildingBlock: XIVTED_clean_linker_0, # of connection points: 2
#     Edge 72, Type (0, 1), BuildingBlock: XIVTED_clean_linker_0, # of connection points: 2
#     Edge 73, Type (0, 1), BuildingBlock: XIVTED_clean_linker_0, # of connection points: 2
#     Edge 74, Type (0, 1), BuildingBlock: XIVTED_clean_linker_0, # of connection points: 2
#     Edge 75, Type (0, 1), BuildingBlock: XIVTED_clean_linker_0, # of connection points: 2
#     Edge 76, Type (0, 1), BuildingBlock: XIVTED_clean_linker_0, # of connection points: 2
#     Edge 77, Type (0, 1), BuildingBlock: XIVTED_clean_linker_0, # of connection points: 2
#     Edge 78, Type (0, 1), BuildingBlock: XIVTED_clean_linker_0, # of connection points: 2
#     Edge 79, Type (0, 1), BuildingBlock: XIVTED_clean_linker_0, # of connection points: 2
#     Edge 80, Type (0, 1), BuildingBlock: XIVTED_clean_linker_0, # of connection points: 2
#     Edge 81, Type (0, 1), BuildingBlock: XIVTED_clean_linker_0, # of connection points: 2
#     Edge 82, Type (0, 1), BuildingBlock: XIVTED_clean_linker_0, # of connection points: 2
#     Edge 83, Type (0, 1), BuildingBlock: XIVTED_clean_linker_0, # of connection points: 2
#     Edge 84, Type (0, 1), BuildingBlock: XIVTED_clean_linker_0, # of connection points: 2
#     Edge 85, Type (0, 1), BuildingBlock: XIVTED_clean_linker_0, # of connection points: 2
#     Edge 86, Type (0, 1), BuildingBlock: XIVTED_clean_linker_0, # of connection points: 2
#     Edge 87, Type (0, 1), BuildingBlock: XIVTED_clean_linker_0, # of connection points: 2
#     Edge 88, Type (0, 1), BuildingBlock: XIVTED_clean_linker_0, # of connection points: 2
#     Edge 89, Type (0, 1), BuildingBlock: XIVTED_clean_linker_0, # of connection points: 2
#     Edge 90, Type (0, 1), BuildingBlock: XIVTED_clean_linker_0, # of connection points: 2
#     Edge 91, Type (0, 1), BuildingBlock: XIVTED_clean_linker_0, # of connection points: 2
#     Edge 92, Type (0, 1), BuildingBlock: XIVTED_clean_linker_0, # of connection points: 2
#     Edge 93, Type (0, 1), BuildingBlock: XIVTED_clean_linker_0, # of connection points: 2
#     Edge 94, Type (0, 1), BuildingBlock: XIVTED_clean_linker_0, # of connection points: 2
#     Edge 95, Type (0, 1), BuildingBlock: XIVTED_clean_linker_0, # of connection points: 2
#     Edge 96, Type (0, 1), BuildingBlock: XIVTED_clean_linker_0, # of connection points: 2
#     Edge 97, Type (0, 1), BuildingBlock: XIVTED_clean_linker_0, # of connection points: 2
#     Edge 98, Type (0, 1), BuildingBlock: XIVTED_clean_linker_0, # of connection points: 2
#     Edge 99, Type (0, 1), BuildingBlock: XIVTED_clean_linker_0, # of connection points: 2
#     Edge 100, Type (0, 1), BuildingBlock: XIVTED_clean_linker_0, # of connection points: 2
#     Edge 101, Type (0, 1), BuildingBlock: XIVTED_clean_linker_0, # of connection points: 2
# Relax obj value: 0.112
# Max RMSD: 0.259
# Mean RMSD: 0.203
data_MOF--net-llk--node1-QEWDON_clean_sbu_0--node2-QEWDON_clean_linker_0--edge1-XIVTED_clean_linker_0
_symmetry_space_group_name_H-M    P1
_symmetry_Int_Tables_number       1
_symmetry_cell_setting            triclinic
loop_
_symmetry_equiv_pos_as_xyz
'x, y, z'
_cell_length_a     48.990322
_cell_length_b     49.836284
_cell_length_c     48.377436
_cell_angle_alpha  90.064453
_cell_angle_beta   89.935612
_cell_angle_gamma 89.558774
loop_
_atom_site_label
_atom_site_type_symbol
_atom_site_fract_x
_atom_site_fract_y
_atom_site_fract_z
_atom_type_partial_charge
H0 H 0.03498 0.30004 0.29862 0.0
C1 C 0.03919 0.28107 0.30871 0.0
C2 C 0.04028 0.28018 0.33774 0.0
C3 C 0.04195 0.25758 0.29279 0.0
H4 H 0.04315 0.25433 0.37329 0.0
C5 C 0.04337 0.25521 0.35093 0.0
C6 C 0.04588 0.23138 0.33548 0.0
C7 C 0.04613 0.233 0.30645 0.0
C8 C 0.03868 0.25844 0.26209 0.0
H9 H 0.0492 0.2149 0.29442 0.0
C10 C 0.04742 0.28079 0.24665 0.0
C11 C 0.04298 0.28218 0.21792 0.0
C12 C 0.02572 0.23727 0.24809 0.0
H13 H 0.01796 0.22008 0.25919 0.0
C14 C 0.02184 0.23828 0.21955 0.0
H15 H 0.05789 0.29708 0.25689 0.0
C16 C 0.03032 0.26056 0.20453 0.0
H17 H 0.02631 0.26116 0.18253 0.0
H18 H 0.01174 0.22191 0.2091 0.0
H19 H 0.71341 0.12018 0.26161 0.0
C20 C 0.71117 0.11454 0.2401 0.0
C21 C 0.68664 0.10308 0.23127 0.0
C22 C 0.73326 0.11754 0.22172 0.0
H23 H 0.66489 0.08676 0.1966 0.0
C24 C 0.68384 0.09561 0.2036 0.0
C25 C 0.70544 0.0985 0.18492 0.0
C26 C 0.73011 0.10972 0.19384 0.0
C27 C 0.75997 0.12706 0.23236 0.0
H28 H 0.74708 0.1111 0.17954 0.0
C29 C 0.76974 0.11801 0.25814 0.0
C30 C 0.79471 0.1271 0.26885 0.0
C31 C 0.77574 0.14524 0.21712 0.0
H32 H 0.76872 0.15268 0.19732 0.0
C33 C 0.80056 0.15438 0.22761 0.0
H34 H 0.75784 0.1038 0.26993 0.0
C35 C 0.81 0.14548 0.25329 0.0
H36 H 0.82948 0.15263 0.26072 0.0
H37 H 0.81256 0.16845 0.21576 0.0
H38 H 0.98946 0.74613 0.29703 0.0
C39 C 0.99359 0.73412 0.27885 0.0
C40 C 0.00436 0.70809 0.28233 0.0
C41 C 0.98755 0.74424 0.25227 0.0
H42 H 0.01525 0.6712 0.26154 0.0
C43 C 0.00809 0.69169 0.25902 0.0
C44 C 0.00196 0.70115 0.23249 0.0
C45 C 0.99277 0.72766 0.22918 0.0
C46 C 0.97416 0.77117 0.2486 0.0
H47 H 0.98887 0.73491 0.20848 0.0
C48 C 0.97773 0.792 0.2681 0.0
C49 C 0.96301 0.81626 0.26579 0.0
C50 C 0.95632 0.77579 0.22617 0.0
H51 H 0.95194 0.76029 0.21119 0.0
C52 C 0.9429 0.80035 0.22308 0.0
H53 H 0.99119 0.78923 0.28559 0.0
C54 C 0.94604 0.82041 0.2428 0.0
H55 H 0.9348 0.83906 0.24036 0.0
H56 H 0.92937 0.80356 0.2057 0.0
H57 H 0.24547 0.97058 0.298 0.0
C58 C 0.25842 0.97513 0.28047 0.0
C59 C 0.28446 0.98557 0.28525 0.0
C60 C 0.24913 0.97064 0.25329 0.0
H61 H 0.32228 0.99764 0.26677 0.0
C62 C 0.30175 0.99064 0.26281 0.0
C63 C 0.29327 0.98575 0.23559 0.0
C64 C 0.26679 0.97604 0.23099 0.0
C65 C 0.22104 0.96047 0.24823 0.0
H66 H 0.25977 0.97322 0.20997 0.0
C67 C 0.1991 0.9689 0.26504 0.0
C68 C 0.17265 0.9588 0.261 0.0
C69 C 0.21597 0.94204 0.22681 0.0
H70 H 0.23237 0.93476 0.21372 0.0
C71 C 0.18968 0.93231 0.22239 0.0
H72 H 0.20265 0.98307 0.28162 0.0
C73 C 0.16814 0.9405 0.23941 0.0
H74 H 0.14797 0.93254 0.23566 0.0
H75 H 0.18604 0.91812 0.20587 0.0
H76 H 0.99364 0.71128 0.74346 0.0
C77 C -0.00113 0.72801 0.73029 0.0
C78 C -0.00098 0.72423 0.70145 0.0
C79 C 0.00495 0.75321 0.74196 0.0
H80 H 0.00497 0.74343 0.66192 0.0
C81 C 0.00431 0.74621 0.68413 0.0
C82 C 0.01018 0.77149 0.69519 0.0
C83 C 0.01106 0.77465 0.72401 0.0
C84 C 0.00474 0.75749 0.77265 0.0
H85 H 0.01639 0.79406 0.73236 0.0
C86 C 0.01121 0.7365 0.79128 0.0
C87 C 0.0106 0.7408 0.82013 0.0
C88 C -0.00228 0.78284 0.78363 0.0
H89 H 0.99145 0.79927 0.77043 0.0
C90 C -0.00174 0.78747 0.812 0.0
H91 H 0.01631 0.71674 0.78349 0.0
C92 C 0.00479 0.76674 0.83012 0.0
H93 H 0.00495 0.77103 0.85206 0.0
H94 H 0.99321 0.80717 0.82003 0.0
H95 H 0.31105 0.97955 0.73121 0.0
C96 C 0.31885 0.97116 0.75029 0.0
C97 C 0.34354 0.95692 0.74927 0.0
C98 C 0.30584 0.97682 0.77564 0.0
H99 H 0.37426 0.93647 0.77271 0.0
C100 C 0.35495 0.94719 0.7737 0.0
C101 C 0.34446 0.95524 0.79942 0.0
C102 C 0.31909 0.96882 0.80032 0.0
C103 C 0.28061 0.99408 0.77582 0.0
H104 H 0.31065 0.97454 0.82014 0.0
C105 C 0.26278 0.99418 0.75288 0.0
C106 C 0.24127 0.01295 0.75072 0.0
C107 C 0.2753 0.01225 0.79755 0.0
H108 H 0.28864 0.01356 0.81528 0.0
C109 C 0.25315 0.03001 0.79617 0.0
H110 H 0.2662 0.98025 0.73605 0.0
C111 C 0.23641 0.03062 0.77285 0.0
H112 H 0.21972 0.04496 0.77213 0.0
H113 H 0.24937 0.0439 0.81299 0.0
H114 H 0.9805 0.28626 0.69023 0.0
C115 C 0.98067 0.29803 0.70908 0.0
C116 C -0.00412 0.32172 0.70988 0.0
C117 C 0.96535 0.28976 0.73218 0.0
H118 H 0.00673 0.35606 0.73435 0.0
C119 C -0.00461 0.33747 0.73387 0.0
C120 C 0.97957 0.33016 0.75681 0.0
C121 C 0.96498 0.30599 0.75605 0.0
C122 C 0.94899 0.26474 0.73071 0.0
H123 H 0.95291 0.30017 0.7738 0.0
C124 C 0.9593 0.24208 0.71669 0.0
C125 C 0.94324 0.21912 0.71301 0.0
C126 C 0.92254 0.2637 0.742 0.0
H127 H 0.91379 0.28086 0.75261 0.0
C128 C 0.90668 0.2407 0.73886 0.0
H129 H 0.97969 0.24249 0.70799 0.0
C130 C 0.91681 0.2186 0.7242 0.0
H131 H 0.90406 0.20111 0.72165 0.0
H132 H 0.88627 0.24018 0.74744 0.0
H133 H 0.7241 0.11427 0.75315 0.0
C134 C 0.74582 0.11126 0.75001 0.0
C135 C 0.75527 0.10042 0.7249 0.0
C136 C 0.76431 0.11771 0.77129 0.0
H137 H 0.7909 0.08825 0.70173 0.0
C138 C 0.78334 0.09643 0.7211 0.0
C139 C 0.8019 0.10291 0.74194 0.0
C140 C 0.79249 0.11361 0.76698 0.0
C141 C 0.75418 0.12759 0.79842 0.0
H142 H 0.80698 0.11803 0.78324 0.0
C143 C 0.73233 0.1147 0.81167 0.0
C144 C 0.72348 0.12289 0.83813 0.0
C145 C 0.76685 0.14927 0.81163 0.0
H146 H 0.78362 0.15965 0.80183 0.0
C147 C 0.75789 0.15786 0.8376 0.0
H148 H 0.72251 0.09799 0.80149 0.0
C149 C 0.73646 0.14474 0.85085 0.0
H150 H 0.73051 0.15137 0.87133 0.0
H151 H 0.76781 0.17456 0.84765 0.0
H152 H 0.26463 0.31124 0.0361 0.0
C153 C 0.27414 0.29225 0.03064 0.0
C154 C 0.30121 0.29192 0.0212 0.0
C155 C 0.2595 0.26816 0.03338 0.0
H156 H 0.33504 0.2671 0.0085 0.0
C157 C 0.31374 0.2674 0.01467 0.0
C158 C 0.29984 0.24318 0.01797 0.0
C159 C 0.27266 0.24364 0.02723 0.0
C160 C 0.23063 0.26868 0.0429 0.0
H161 H 0.26178 0.22491 0.02943 0.0
C162 C 0.21246 0.28844 0.03304 0.0
C163 C 0.18518 0.28944 0.04214 0.0
C164 C 0.2211 0.24966 0.06198 0.0
H165 H 0.23465 0.23438 0.07022 0.0
C166 C 0.19403 0.2505 0.07107 0.0
H167 H 0.21961 0.30319 0.01833 0.0
C168 C 0.17615 0.27028 0.06131 0.0
H169 H 0.15522 0.27042 0.06854 0.0
H170 H 0.1869 0.23581 0.08582 0.0
H171 H 0.2499 0.72946 0.04241 0.0
C172 C 0.26067 0.74833 0.04252 0.0
C173 C 0.28874 0.74772 0.03705 0.0
C174 C 0.24656 0.77294 0.04619 0.0
H175 H 0.32455 0.77136 0.02954 0.0
C176 C 0.30293 0.77181 0.03443 0.0
C177 C 0.28958 0.79647 0.03829 0.0
C178 C 0.26169 0.79696 0.04503 0.0
C179 C 0.21598 0.77345 0.04841 0.0
H180 H 0.25184 0.81621 0.04833 0.0
C181 C 0.20161 0.7508 0.05794 0.0
C182 C 0.17313 0.74873 0.05454 0.0
C183 C 0.20074 0.79542 0.03825 0.0
H184 H 0.21054 0.81308 0.03008 0.0
C185 C 0.17233 0.79444 0.03703 0.0
H186 H 0.21264 0.73424 0.06721 0.0
C187 C 0.15861 0.77116 0.04454 0.0
H188 H 0.13679 0.77046 0.04121 0.0
H189 H 0.16096 0.81137 0.02886 0.0
H190 H 0.76717 0.26526 0.02727 0.0
C191 C 0.78514 0.27554 0.01988 0.0
C192 C 0.78357 0.30338 0.01557 0.0
C193 C 0.80976 0.26125 0.01543 0.0
H194 H 0.806 0.33871 0.00445 0.0
C195 C 0.80702 0.31716 0.00741 0.0
C196 C 0.83181 0.30351 0.00319 0.0
C197 C 0.83297 0.2756 0.00686 0.0
C198 C 0.81129 0.23156 0.01989 0.0
H199 H 0.852 0.26518 0.00267 0.0
C200 C 0.78818 0.21535 0.01578 0.0
C201 C 0.78919 0.18759 0.02085 0.0
C202 C 0.83572 0.21912 0.0287 0.0
H203 H 0.85381 0.23074 0.03296 0.0
C204 C 0.83705 0.1914 0.03279 0.0
H205 H 0.76924 0.22413 0.00847 0.0
C206 C 0.81394 0.17566 0.02891 0.0
H207 H 0.81519 0.15433 0.03307 0.0
H208 H 0.85595 0.18215 0.03955 0.0
H209 H 0.74237 0.74382 0.97502 0.0
C210 C 0.76141 0.7337 0.97984 0.0
C211 C 0.76064 0.70869 0.99311 0.0
C212 C 0.78636 0.7456 0.97252 0.0
H213 H 0.78501 0.67576 0.00861 0.0
C214 C 0.78528 0.69541 -0.001 0.0
C215 C 0.81032 0.70662 0.99126 0.0
C216 C 0.81082 0.73167 0.97807 0.0
C217 C 0.7865 0.77236 0.95886 0.0
H218 H 0.83029 0.74042 0.97268 0.0
C219 C 0.76677 0.79182 0.96606 0.0
C220 C 0.76464 0.81607 0.95151 0.0
C221 C 0.80523 0.77824 0.93768 0.0
H222 H 0.8205 0.76368 0.93133 0.0
C223 C 0.80379 0.80276 0.92374 0.0
H224 H 0.75234 0.78776 0.98249 0.0
C225 C 0.78341 0.82147 0.93032 0.0
H226 H 0.78224 0.84008 0.91882 0.0
H227 H 0.81815 0.80703 0.90732 0.0
H228 H 0.47765 0.80575 0.75336 0.0
C229 C 0.48252 0.7866 0.76277 0.0
C230 C 0.48887 0.78596 0.79093 0.0
C231 C 0.48334 0.76301 0.74667 0.0
H232 H 0.49915 0.76091 0.82557 0.0
C233 C 0.49475 0.76138 0.80361 0.0
C234 C 0.49416 0.73738 0.78844 0.0
C235 C 0.4886 0.73827 0.75992 0.0
C236 C 0.47989 0.76478 0.71605 0.0
H237 H 0.48931 0.71981 0.7481 0.0
C238 C 0.48937 0.78746 0.70166 0.0
C239 C 0.48562 0.79013 0.67302 0.0
C240 C 0.46724 0.74421 0.70092 0.0
H241 H 0.45932 0.72661 0.71119 0.0
C242 C 0.46419 0.74638 0.67225 0.0
H243 H 0.50011 0.80313 0.71261 0.0
C244 C 0.47328 0.7692 0.65832 0.0
H245 H 0.47016 0.77074 0.63621 0.0
H246 H 0.45438 0.73045 0.66083 0.0
H247 H 0.26841 0.60023 0.80147 0.0
C248 C 0.26493 0.59591 0.77979 0.0
C249 C 0.24045 0.58377 0.7716 0.0
C250 C 0.28494 0.60262 0.7601 0.0
H251 H 0.21746 0.56889 0.73688 0.0
C252 C 0.23639 0.57798 0.74356 0.0
C253 C 0.25602 0.58474 0.72375 0.0
C254 C 0.28013 0.5974 0.73194 0.0
C255 C 0.31086 0.61496 0.7691 0.0
H256 H 0.29532 0.60257 0.71657 0.0
C257 C 0.32638 0.60309 0.79031 0.0
C258 C 0.35052 0.61515 0.7996 0.0
C259 C 0.32001 0.63883 0.7569 0.0
H260 H 0.30839 0.64833 0.74052 0.0
C261 C 0.34393 0.65095 0.76624 0.0
H262 H 0.31961 0.58454 0.79968 0.0
C263 C 0.35904 0.63931 0.78764 0.0
H264 H 0.37755 0.64895 0.79461 0.0
H265 H 0.35072 0.66948 0.75693 0.0
H266 H 0.43838 0.20193 0.81127 0.0
C267 C 0.44156 0.19346 0.79087 0.0
C268 C 0.45046 0.16675 0.78844 0.0
C269 C 0.43765 0.20953 0.76734 0.0
H270 H 0.46198 0.13519 0.7602 0.0
C271 C 0.45463 0.15569 0.76203 0.0
C272 C 0.4504 0.17114 0.73808 0.0
C273 C 0.44202 0.19813 0.74097 0.0
C274 C 0.42945 0.23829 0.77048 0.0
H275 H 0.43927 0.21035 0.72266 0.0
C276 C 0.44043 0.25428 0.79185 0.0
C277 C 0.43201 0.28118 0.79546 0.0
C278 C 0.41017 0.24981 0.75247 0.0
H279 H 0.40106 0.23807 0.7361 0.0
C280 C 0.40195 0.27649 0.75576 0.0
H281 H 0.45541 0.24574 0.80582 0.0
C282 C 0.41267 0.29207 0.77708 0.0
H283 H 0.40603 0.31277 0.77899 0.0
H284 H 0.38706 0.28513 0.74178 0.0
H285 H 0.74656 0.50699 0.81303 0.0
C286 C 0.76116 0.51035 0.79658 0.0
C287 C 0.78702 0.52031 0.80331 0.0
C288 C 0.7544 0.50408 0.76903 0.0
H289 H 0.82698 0.52991 0.78771 0.0
C290 C 0.80654 0.52356 0.78235 0.0
C291 C 0.80061 0.51661 0.75494 0.0
C292 C 0.77435 0.50741 0.74835 0.0
C293 C 0.72698 0.49302 0.76216 0.0
H294 H 0.76958 0.50278 0.72702 0.0
C295 C 0.70357 0.50153 0.77679 0.0
C296 C 0.67793 0.48997 0.77173 0.0
C297 C 0.7241 0.47315 0.74167 0.0
H298 H 0.74161 0.46562 0.73033 0.0
C299 C 0.69858 0.4621 0.73607 0.0
H300 H 0.70536 0.51678 0.79263 0.0
C301 C 0.67564 0.47028 0.75109 0.0
H302 H 0.65613 0.46116 0.74663 0.0
H303 H 0.69666 0.44678 0.72032 0.0
H304 H 0.47706 0.23081 0.24376 0.0
C305 C 0.47686 0.25074 0.23501 0.0
C306 C 0.47402 0.25353 0.20623 0.0
C307 C 0.48003 0.27336 0.25231 0.0
H308 H 0.46957 0.28181 0.17285 0.0
C309 C 0.47243 0.2794 0.19491 0.0
C310 C 0.47589 0.30225 0.21137 0.0
C311 C 0.48027 0.2991 0.23991 0.0
C312 C 0.4829 0.27013 0.28311 0.0
H313 H 0.48393 0.31683 0.25225 0.0
C314 C 0.49357 0.24626 0.29499 0.0
C315 C 0.49459 0.24279 0.32393 0.0
C316 C 0.47394 0.29068 0.30108 0.0
H317 H 0.46473 0.30895 0.29328 0.0
C318 C 0.47592 0.28775 0.32968 0.0
H319 H 0.50123 0.23023 0.28197 0.0
C320 C 0.48603 0.26402 0.34106 0.0
H321 H 0.48618 0.26195 0.36334 0.0
H322 H 0.46885 0.30373 0.34313 0.0
H323 H 0.77263 0.50854 0.22118 0.0
C324 C 0.77859 0.50595 0.24258 0.0
C325 C 0.80645 0.50372 0.24934 0.0
C326 C 0.75866 0.50661 0.26366 0.0
H327 H 0.83561 0.49943 0.28241 0.0
C328 C 0.81415 0.50105 0.27708 0.0
C329 C 0.79457 0.50132 0.29811 0.0
C330 C 0.76696 0.50419 0.29142 0.0
C331 C 0.72938 0.51155 0.25726 0.0
H332 H 0.75197 0.50456 0.30792 0.0
C333 C 0.71631 0.4984 0.23517 0.0
C334 C 0.68831 0.5029 0.22994 0.0
C335 C 0.71423 0.5296 0.27372 0.0
H336 H 0.7238 0.54045 0.29048 0.0
C337 C 0.68664 0.53418 0.26858 0.0
H338 H 0.72772 0.48431 0.22248 0.0
C339 C 0.67374 0.52097 0.24691 0.0
H340 H 0.65241 0.52546 0.24306 0.0
H341 H 0.67526 0.54822 0.2813 0.0
H342 H 0.55015 0.76793 0.22298 0.0
C343 C 0.55376 0.77679 0.24305 0.0
C344 C 0.55504 0.80485 0.24493 0.0
C345 C 0.55539 0.76044 0.26681 0.0
H346 H 0.5581 0.83853 0.27257 0.0
C347 C 0.55755 0.81685 0.27097 0.0
C348 C 0.558 0.80136 0.29509 0.0
C349 C 0.55737 0.77319 0.29295 0.0
C350 C 0.55332 0.73041 0.26409 0.0
H351 H 0.55844 0.76152 0.31176 0.0
C352 C 0.56078 0.71712 0.23922 0.0
C353 C 0.55609 0.68944 0.23545 0.0
C354 C 0.54243 0.71485 0.28569 0.0
H355 H 0.53563 0.72389 0.30484 0.0
C356 C 0.5391 0.68722 0.28261 0.0
H357 H 0.57007 0.7282 0.22251 0.0
C358 C 0.5456 0.67462 0.25768 0.0
H359 H 0.54136 0.65343 0.25555 0.0
H360 H 0.53053 0.67563 0.29938 0.0
H361 H 0.26062 0.60938 0.22328 0.0
C362 C 0.28221 0.60577 0.21992 0.0
C363 C 0.29073 0.5933 0.19538 0.0
C364 C 0.30127 0.61308 0.24033 0.0
H365 H 0.32529 0.57937 0.17181 0.0
C366 C 0.31853 0.58875 0.19091 0.0
C367 C 0.33785 0.59645 0.21059 0.0
C368 C 0.32934 0.60865 0.23532 0.0
C369 C 0.29146 0.62457 0.26696 0.0
H370 H 0.34439 0.61397 0.25073 0.0
C371 C 0.26785 0.6143 0.27965 0.0
C372 C 0.25753 0.62551 0.30424 0.0
C373 C 0.30505 0.64606 0.27957 0.0
H374 H 0.32313 0.65455 0.27023 0.0
C375 C 0.29501 0.65724 0.30409 0.0
H376 H 0.25731 0.5976 0.27022 0.0
C377 C 0.27136 0.64716 0.31633 0.0
H378 H 0.26412 0.65606 0.33544 0.0
H379 H 0.30555 0.67386 0.31361 0.0
H380 H 0.79253 0.8076 0.50033 0.0
C381 C 0.80477 0.78987 0.49626 0.0
C382 C 0.83315 0.79168 0.49939 0.0
C383 C 0.79221 0.76527 0.48979 0.0
H384 H 0.87119 0.7699 0.49892 0.0
C385 C 0.84924 0.76851 0.49652 0.0
C386 C 0.83745 0.74346 0.49133 0.0
C387 C 0.80907 0.74212 0.48691 0.0
C388 C 0.76155 0.76358 0.48843 0.0
H389 H 0.80024 0.72282 0.48226 0.0
C390 C 0.74515 0.7863 0.48182 0.0
C391 C 0.71639 0.78532 0.48345 0.0
C392 C 0.74822 0.73957 0.49555 0.0
H393 H 0.75951 0.72185 0.50172 0.0
C394 C 0.71982 0.73816 0.49583 0.0
H395 H 0.75459 0.80504 0.47611 0.0
C396 C 0.70401 0.76079 0.48999 0.0
H397 H 0.682 0.75909 0.49077 0.0
H398 H 0.70997 0.71952 0.50125 0.0
H399 H 0.78106 0.22123 0.4703 0.0
C400 C 0.79059 0.24076 0.4696 0.0
C401 C 0.81912 0.24261 0.47205 0.0
C402 C 0.77437 0.26402 0.46624 0.0
H403 H 0.85336 0.2695 0.47181 0.0
C404 C 0.83136 0.26793 0.47035 0.0
C405 C 0.81567 0.29136 0.46738 0.0
C406 C 0.78717 0.2893 0.46569 0.0
C407 C 0.74423 0.26204 0.46237 0.0
H408 H 0.77501 0.30744 0.46373 0.0
C409 C 0.72852 0.2431 0.47705 0.0
C410 C 0.70008 0.24132 0.47281 0.0
C411 C 0.73103 0.27906 0.44333 0.0
H412 H 0.74245 0.29336 0.43119 0.0
C413 C 0.70298 0.27747 0.43918 0.0
H414 H 0.73828 0.23007 0.49204 0.0
C415 C 0.68761 0.25878 0.45369 0.0
H416 H 0.66597 0.25759 0.44935 0.0
H417 H 0.69313 0.29057 0.42432 0.0
H418 H 0.21424 0.79264 0.55701 0.0
C419 C 0.23264 0.80149 0.5487 0.0
C420 C 0.23253 0.82876 0.54157 0.0
C421 C 0.2567 0.78602 0.54655 0.0
H422 H 0.25646 0.86159 0.52642 0.0
C423 C 0.25658 0.84046 0.5317 0.0
C424 C 0.28079 0.82544 0.52894 0.0
C425 C 0.2807 0.79817 0.53651 0.0
C426 C 0.25703 0.75763 0.55621 0.0
H427 H 0.29922 0.78634 0.53436 0.0
C428 C 0.23489 0.74042 0.55085 0.0
C429 C 0.23469 0.71392 0.56113 0.0
C430 C 0.27914 0.74789 0.57184 0.0
H431 H 0.29624 0.76069 0.57675 0.0
C432 C 0.27911 0.72174 0.58205 0.0
H433 H 0.21806 0.74753 0.53825 0.0
C434 C 0.25707 0.70491 0.57689 0.0
H435 H 0.25745 0.68491 0.58562 0.0
H436 H 0.29612 0.71457 0.59431 0.0
H437 H 0.21647 0.23368 0.48872 0.0
C438 C 0.23495 0.22201 0.49178 0.0
C439 C 0.23304 0.19583 0.50248 0.0
C440 C 0.26042 0.23287 0.48438 0.0
H441 H 0.25559 0.15992 0.51292 0.0
C442 C 0.25694 0.18045 0.50571 0.0
C443 C 0.28251 0.19066 0.49835 0.0
C444 C 0.28415 0.21689 0.48791 0.0
C445 C 0.26221 0.26038 0.47203 0.0
H446 H 0.30406 0.22486 0.48295 0.0
C447 C 0.24414 0.28138 0.47995 0.0
C448 C 0.24643 0.30718 0.4682 0.0
C449 C 0.2821 0.26572 0.45174 0.0
H450 H 0.29571 0.25009 0.4443 0.0
C451 C 0.28446 0.29123 0.44026 0.0
H452 H 0.22875 0.27801 0.49562 0.0
C453 C 0.26689 0.31185 0.44848 0.0
H454 H 0.26897 0.3314 0.43897 0.0
H455 H 0.29987 0.29499 0.42472 0.0
Zn456 Zn 0.92185 0.99796 0.44584 0.0
Zn457 Zn 0.94167 0.0563 0.46499 0.0
O458 O 0.95396 0.01814 0.46161 0.0
H459 H 0.97009 0.01031 0.46989 0.0
C460 C 0.92218 0.96543 0.5512 0.0
O461 O 0.91617 0.98792 0.53834 0.0
Zn462 Zn 0.06812 0.05107 0.56304 0.0
Zn463 Zn 0.07192 0.98731 0.56759 0.0
O464 O 0.04488 0.01845 0.56855 0.0
H465 H 0.0263 0.01789 0.57526 0.0
Zn466 Zn 0.95801 0.00192 0.58012 0.0
O467 O 0.9655 0.02693 0.54789 0.0
Zn468 Zn 0.97018 0.06282 0.56518 0.0
H469 H 0.97204 0.02155 0.52984 0.0
Zn470 Zn 0.03828 0.97961 0.47824 0.0
O471 O 0.03663 0.01583 0.4975 0.0
H472 H 0.02798 0.01889 0.51519 0.0
Zn473 Zn 0.03993 0.04318 0.46764 0.0
C474 C 0.08004 0.95628 0.51241 0.0
O475 O 0.08671 0.98176 0.51304 0.0
O476 O 0.89216 0.02306 0.42994 0.0
O477 O 0.90497 0.06284 0.44597 0.0
O478 O 0.1091 0.99957 0.58186 0.0
O479 O 0.10578 0.04406 0.58042 0.0
O480 O 0.94639 0.02126 0.61622 0.0
O481 O 0.95462 0.06344 0.60408 0.0
C482 C 0.99311 0.0755 0.44565 0.0
O483 O 0.04854 0.98241 0.43694 0.0
O484 O 0.05343 0.02647 0.43172 0.0
O485 O 0.06116 0.95113 0.58563 0.0
C486 C 0.88853 0.04832 0.4321 0.0
O487 O 0.92965 0.96367 0.42284 0.0
C488 C 0.02454 0.08426 0.58307 0.0
O489 O 0.93978 0.96574 0.57047 0.0
C490 C 0.11893 0.02266 0.58671 0.0
O491 O 0.05888 0.9494 0.49911 0.0
C492 C 0.94066 0.0877 0.51835 0.0
O493 O 0.96757 0.07914 0.44376 0.0
O494 O 0.00208 0.05739 0.46175 0.0
C495 C 0.94634 0.04629 0.62171 0.0
O496 O 0.05031 0.08136 0.58392 0.0
O497 O 0.01088 0.06933 0.56691 0.0
C498 C 0.07422 0.0755 0.50365 0.0
O499 O 0.94937 0.09054 0.54291 0.0
O500 O 0.94548 0.06592 0.50551 0.0
C501 C 0.0549 0.00259 0.42218 0.0
O502 O 0.06552 0.07265 0.47907 0.0
O503 O 0.06666 0.05865 0.52183 0.0
C504 C 0.04246 0.935 0.5786 0.0
O505 O 0.02678 0.94078 0.55738 0.0
C506 C 0.95289 0.95779 0.41267 0.0
O507 O 0.97376 0.97347 0.41769 0.0
Zn508 Zn 0.46479 0.0525 0.05351 0.0
Zn509 Zn 0.474 0.05402 0.98753 0.0
O510 O 0.47853 0.03059 0.02106 0.0
H511 H 0.48989 0.01473 0.02262 0.0
C512 C 0.51892 0.09598 0.08829 0.0
O513 O 0.52124 0.07213 0.09964 0.0
Zn514 Zn 0.5562 0.96494 0.95364 0.0
Zn515 Zn 0.56925 0.97331 0.01648 0.0
O516 O 0.54044 0.98249 0.98713 0.0
H517 H 0.5276 0.99729 0.98723 0.0
Zn518 Zn 0.55921 0.07441 0.04787 0.0
O519 O 0.54655 0.04772 0.01935 0.0
Zn520 Zn 0.57006 0.05621 0.98666 0.0
H521 H 0.5385 0.03055 0.02346 0.0
Zn522 Zn 0.48645 0.94723 0.03968 0.0
O523 O 0.50702 0.94392 0.00306 0.0
H524 H 0.50021 0.94465 0.02179 0.0
Zn525 Zn 0.47757 0.95429 0.97696 0.0
C526 C 0.5202 0.91117 0.07306 0.0
O527 O 0.52531 0.90076 0.04861 0.0
O528 O 0.44237 0.08507 0.04106 0.0
O529 O 0.44781 0.08518 0.99542 0.0
O530 O 0.59534 0.94181 0.00725 0.0
O531 O 0.58428 0.9367 0.96319 0.0
O532 O 0.59755 0.08894 0.04009 0.0
O533 O 0.60657 0.07244 -0.00172 0.0
C534 C 0.45988 0.0064 0.95707 0.0
O535 O 0.44575 0.9371 0.03596 0.0
O536 O 0.44193 0.93806 0.99024 0.0
O537 O 0.58794 0.0033 0.03902 0.0
C538 C 0.43711 0.09489 0.01737 0.0
O539 O 0.44649 0.0335 0.08658 0.0
C540 C 0.58376 0.01497 0.94101 0.0
O541 O 0.53202 0.10098 0.06622 0.0
C542 C 0.59843 0.92996 0.98415 0.0
O543 O 0.50494 0.93184 0.0748 0.0
C544 C 0.52437 0.08123 0.9601 0.0
O545 O 0.45815 0.03183 0.95706 0.0
O546 O 0.47336 0.99441 0.97579 0.0
C547 C 0.61366 0.08578 0.01962 0.0
O548 O 0.57821 0.99167 0.93201 0.0
O549 O 0.5733 0.02224 0.96398 0.0
C550 C 0.50529 0.93751 0.92256 0.0
O551 O 0.55017 0.08206 0.96205 0.0
O552 O 0.5116 0.0667 0.97734 0.0
C553 C 0.4319 0.93322 0.01407 0.0
O554 O 0.48506 0.93941 0.93902 0.0
O555 O 0.5288 0.94648 0.92879 0.0
C556 C 0.61155 0.01105 0.03171 0.0
O557 O 0.62244 0.00121 0.009 0.0
C558 C 0.42746 0.01678 0.08245 0.0
O559 O 0.42162 0.00967 0.05698 0.0
Zn560 Zn 0.95703 0.48624 0.96537 0.0
Zn561 Zn 0.96244 0.55 0.97284 0.0
O562 O 0.98438 0.51678 0.96545 0.0
H563 H 0.00393 0.51472 0.96708 0.0
C564 C 0.96345 0.44538 0.02291 0.0
O565 O 0.95315 0.469 0.01665 0.0
Zn566 Zn 0.08564 0.54468 0.0539 0.0
Zn567 Zn 0.10127 0.48267 0.06409 0.0
O568 O 0.06927 0.5082 0.05702 0.0
H569 H 0.05127 0.50315 0.05087 0.0
Zn570 Zn 0.98835 0.4791 0.06322 0.0
O571 O 0.98873 0.51305 0.04012 0.0
Zn572 Zn 0.98857 0.54147 0.06924 0.0
H573 H -0.00221 0.51434 0.02242 0.0
Zn574 Zn 0.06899 0.49706 0.94439 0.0
O575 O 0.0615 0.52313 0.97564 0.0
H576 H 0.05244 0.51834 0.99267 0.0
Zn577 Zn 0.05875 0.55872 0.95694 0.0
C578 C 0.07754 0.44952 0.97933 0.0
O579 O 0.06215 0.46339 0.99651 0.0
O580 O 0.91751 0.49978 0.96007 0.0
O581 O 0.92279 0.54399 0.96224 0.0
O582 O 0.13715 0.50193 0.07432 0.0
O583 O 0.12511 0.5441 0.06527 0.0
O584 O 0.96532 0.48437 0.09839 0.0
O585 O 0.96836 0.52853 0.10374 0.0
C586 C 0.00214 0.58304 0.9447 0.0
O587 O 0.0884 0.51538 0.9117 0.0
O588 O 0.08064 0.55854 0.921 0.0
O589 O 0.09309 0.44713 0.08475 0.0
C590 C 0.90782 0.52351 0.95825 0.0
O591 O 0.96624 0.45435 0.93946 0.0
C592 C 0.04169 0.56959 0.08412 0.0
O593 O 0.98069 0.44378 0.04242 0.0
C594 C 0.14271 0.52686 0.0733 0.0
O595 O 0.08292 0.45923 0.95567 0.0
C596 C 0.95996 0.5764 0.03088 0.0
O597 O 0.9769 0.58055 0.94992 0.0
O598 O 0.01842 0.56488 0.9531 0.0
C599 C 0.95953 0.50574 0.11168 0.0
O600 O 0.06711 0.57067 0.07938 0.0
O601 O 0.02823 0.55044 0.07363 0.0
C602 C 0.08152 0.5819 0.00635 0.0
O603 O 0.96778 0.57379 0.05577 0.0
O604 O 0.96705 0.55839 0.01354 0.0
C605 C 0.09128 0.54015 0.90591 0.0
O606 O 0.07391 0.58729 0.98188 0.0
O607 O 0.0798 0.55795 0.01512 0.0
C608 C 0.08178 0.44877 0.10835 0.0
O609 O 0.07551 0.47259 0.11827 0.0
C610 C 0.96591 0.46103 0.91415 0.0
O611 O 0.96117 0.48629 0.90783 0.0
Zn612 Zn 0.47307 0.4783 0.98555 0.0
Zn613 Zn 0.47911 0.47294 0.05187 0.0
O614 O 0.48745 0.49698 0.01975 0.0
H615 H 0.50158 0.51039 0.01962 0.0
C616 C 0.51072 0.3979 0.94548 0.0
O617 O 0.49464 0.41291 0.96092 0.0
Zn618 Zn 0.56388 0.55337 0.04152 0.0
Zn619 Zn 0.55479 0.56678 0.98013 0.0
O620 O 0.55802 0.53441 0.00565 0.0
H621 H 0.54929 0.51728 0.00304 0.0
Zn622 Zn 0.55776 0.42095 0.9789 0.0
O623 O 0.54071 0.44623 0.00702 0.0
Zn624 Zn 0.56857 0.45073 0.03753 0.0
H625 H 0.52489 0.4575 0.00387 0.0
Zn626 Zn 0.45956 0.57143 0.97503 0.0
O627 O 0.48814 0.56516 0.00472 0.0
H628 H 0.50686 0.55974 0.00161 0.0
Zn629 Zn 0.46879 0.56849 0.0413 0.0
C630 C 0.49295 0.59635 0.93092 0.0
O631 O 0.51105 0.59824 0.95083 0.0
O632 O 0.44766 0.44716 0.99523 0.0
O633 O 0.45022 0.44552 0.04118 0.0
O634 O 0.57864 0.59798 0.99381 0.0
O635 O 0.58987 0.5844 0.03608 0.0
O636 O 0.59531 0.40716 0.99095 0.0
O637 O 0.60445 0.43033 0.02924 0.0
C638 C 0.46261 0.52066 0.08147 0.0
O639 O 0.4254 0.58976 0.99088 0.0
O640 O 0.43138 0.58689 0.03633 0.0
O641 O 0.56017 0.55925 0.93835 0.0
C642 C 0.44029 0.43726 0.01831 0.0
O643 O 0.46109 0.50141 0.95189 0.0
C644 C 0.58129 0.5019 0.06626 0.0
O645 O 0.53638 0.39845 0.94944 0.0
C646 C 0.59225 0.60087 0.01604 0.0
O647 O 0.47036 0.58499 0.93587 0.0
C648 C 0.52802 0.44006 0.07762 0.0
O649 O 0.46598 0.49545 0.0841 0.0
O650 O 0.46712 0.53108 0.05786 0.0
C651 C 0.61123 0.41303 0.01083 0.0
O652 O 0.57938 0.52725 0.06918 0.0
O653 O 0.57281 0.49073 0.04426 0.0
C654 C 0.51716 0.58657 0.06777 0.0
O655 O 0.55288 0.43491 0.07222 0.0
O656 O 0.51508 0.45505 0.06078 0.0
C657 C 0.41728 0.59433 0.01545 0.0
O658 O 0.4917 0.59122 0.06637 0.0
O659 O 0.52701 0.56781 0.05283 0.0
C660 C 0.55606 0.53644 0.92746 0.0
O661 O 0.54623 0.51701 0.94279 0.0
C662 C 0.44136 0.51781 0.95523 0.0
O663 O 0.43022 0.52011 0.97985 0.0
Zn664 Zn 0.97115 0.49111 0.4704 0.0
Zn665 Zn 0.96508 0.55426 0.46895 0.0
O666 O 0.99316 0.525 0.46442 0.0
H667 H 0.00944 0.52548 0.45316 0.0
C668 C 0.93388 0.44543 0.51169 0.0
O669 O 0.96016 0.44111 0.50837 0.0
Zn670 Zn 0.081 0.54907 0.55574 0.0
Zn671 Zn 0.10236 0.4877 0.55426 0.0
O672 O 0.06847 0.51145 0.55138 0.0
H673 H 0.05027 0.50583 0.54647 0.0
Zn674 Zn 0.95345 0.48501 0.5525 0.0
O675 O 0.97592 0.51492 0.53629 0.0
Zn676 Zn 0.97822 0.54374 0.56532 0.0
H677 H 0.98844 0.51283 0.52098 0.0
Zn678 Zn 0.08488 0.50627 0.44918 0.0
O679 O 0.06375 0.53028 0.47599 0.0
H680 H 0.05296 0.524 0.49138 0.0
Zn681 Zn 0.06083 0.56701 0.45849 0.0
C682 C 0.12577 0.46952 0.47366 0.0
O683 O 0.13672 0.4926 0.48044 0.0
O684 O 0.931 0.49686 0.45936 0.0
O685 O 0.92848 0.54122 0.45455 0.0
O686 O 0.13645 0.50822 0.5678 0.0
O687 O 0.12009 0.54995 0.5695 0.0
O688 O 0.94092 0.49307 0.59194 0.0
O689 O 0.95891 0.53294 0.60139 0.0
C690 C 0.0027 0.59155 0.44449 0.0
O691 O 0.10318 0.5279 0.41808 0.0
O692 O 0.0836 0.56813 0.42302 0.0
O693 O 0.0957 0.45083 0.5726 0.0
C694 C 0.91773 0.51799 0.45277 0.0
O695 O 0.98785 0.45502 0.45643 0.0
C696 C 0.03174 0.56663 0.58604 0.0
O697 O 0.92603 0.46346 0.52854 0.0
C698 C 0.13949 0.53308 0.57314 0.0
O699 O 0.10303 0.46961 0.46098 0.0
C700 C 0.95411 0.58015 0.52594 0.0
O701 O 0.97746 0.58707 0.44843 0.0
O702 O 0.02011 0.57508 0.45444 0.0
C703 C 0.94454 0.5127 0.60837 0.0
O704 O 0.05756 0.56823 0.58403 0.0
O705 O 0.01875 0.5514 0.56963 0.0
C706 C 0.08504 0.58869 0.50814 0.0
O707 O 0.95846 0.57666 0.55153 0.0
O708 O 0.96264 0.56211 0.5094 0.0
C709 C 0.09996 0.55219 0.41039 0.0
O710 O 0.07882 0.59426 0.48333 0.0
O711 O 0.07671 0.56676 0.51843 0.0
C712 C 0.07548 0.43655 0.56558 0.0
O713 O 0.05965 0.44475 0.54533 0.0
C714 C 0.00261 0.45456 0.43482 0.0
O715 O 0.00816 0.47726 0.42231 0.0
Zn716 Zn 0.46309 0.97527 0.45542 0.0
Zn717 Zn 0.45604 0.03983 0.46119 0.0
O718 O 0.48416 0.01027 0.4584 0.0
H719 H 0.50329 0.01165 0.463 0.0
C720 C 0.4378 0.9478 0.50868 0.0
O721 O 0.4298 0.97303 0.50836 0.0
Zn722 Zn 0.57356 0.05926 0.54568 0.0
Zn723 Zn 0.58877 0.99733 0.55787 0.0
O724 O 0.55859 0.02213 0.54536 0.0
H725 H 0.54283 0.0164 0.53499 0.0
Zn726 Zn 0.48547 0.97138 0.53641 0.0
O727 O 0.48691 0.00979 0.52127 0.0
Zn728 Zn 0.481 0.03519 0.55318 0.0
H729 H 0.48666 0.99102 0.52623 0.0
Zn730 Zn 0.57577 1.00051 0.43396 0.0
O731 O 0.5643 0.02588 0.46525 0.0
H732 H 0.56048 0.02052 0.48404 0.0
Zn733 Zn 0.55274 0.0607 0.44734 0.0
C734 C 0.5962 0.94897 0.45867 0.0
O735 O 0.57392 0.95113 0.47367 0.0
O736 O 0.42325 0.98215 0.44326 0.0
O737 O 0.41961 0.02668 0.44622 0.0
O738 O 0.62022 0.01788 0.57655 0.0
O739 O 0.61082 0.06012 0.56437 0.0
O740 O 0.47789 0.97043 0.57821 0.0
O741 O 0.47166 0.01383 0.58719 0.0
C742 C 0.49388 0.07651 0.43507 0.0
O743 O 0.5803 0.02051 0.3969 0.0
O744 O 0.56517 0.06149 0.4076 0.0
O745 O 0.57631 0.96037 0.57305 0.0
C746 C 0.40951 0.00379 0.44029 0.0
O747 O 0.48214 0.94086 0.43904 0.0
C748 C 0.52404 0.07681 0.57184 0.0
O749 O 0.46159 0.94213 0.51748 0.0
C750 C 0.62596 0.04283 0.57661 0.0
O751 O 0.60148 0.96717 0.44106 0.0
C752 C 0.44166 0.0636 0.52026 0.0
O753 O 0.46874 0.07093 0.43796 0.0
O754 O 0.51147 0.06305 0.44872 0.0
C755 C 0.47158 0.98934 0.59478 0.0
O756 O 0.54891 0.08306 0.5686 0.0
O757 O 0.51542 0.05628 0.55891 0.0
C758 C 0.578 0.09118 0.49169 0.0
O759 O 0.45003 0.06069 0.54493 0.0
O760 O 0.45367 0.04999 0.50152 0.0
C761 C 0.57536 0.04484 0.39033 0.0
O762 O 0.57108 0.09184 0.46641 0.0
O763 O 0.5719 0.07068 0.50588 0.0
C764 C 0.55554 0.96027 0.58883 0.0
O765 O 0.54376 0.98323 0.59524 0.0
C766 C 0.50716 0.9399 0.43198 0.0
O767 O 0.52235 0.96122 0.43565 0.0
H768 H 0.21878 0.16332 0.54601 0.0
H769 H 0.07855 0.12207 0.47505 0.0
H770 H 0.18588 0.19982 0.47221 0.0
H771 H 0.11228 0.08042 0.54528 0.0
H772 H 0.11362 0.15595 0.47944 0.0
H773 H 0.17654 0.13793 0.5513 0.0
C774 C 0.20259 0.1662 0.53106 0.0
C775 C 0.20609 0.18349 0.50839 0.0
C776 C 0.11324 0.13964 0.4942 0.0
C777 C 0.15761 0.15462 0.51448 0.0
C778 C 0.09312 0.12024 0.49174 0.0
C779 C 0.0926 0.09817 0.50974 0.0
C780 C 0.13339 0.13687 0.51459 0.0
C781 C 0.11191 0.09706 0.53106 0.0
C782 C 0.17844 0.15177 0.53417 0.0
C783 C 0.18416 0.18685 0.49005 0.0
N784 N 0.13185 0.11592 0.53266 0.0
N785 N 0.16104 0.17233 0.49334 0.0
H786 H 0.81511 0.19199 0.44897 0.0
H787 H 0.95311 0.14047 0.52017 0.0
H788 H 0.86292 0.2382 0.50663 0.0
H789 H 0.89242 0.08549 0.49047 0.0
H790 H 0.92383 0.17804 0.50633 0.0
H791 H 0.84604 0.15359 0.4565 0.0
C792 C 0.83196 0.19406 0.46326 0.0
C793 C 0.83655 0.21851 0.47696 0.0
C794 C 0.91709 0.15776 0.50231 0.0
C795 C 0.87217 0.17503 0.48509 0.0
C796 C 0.93387 0.13638 0.51001 0.0
C797 C 0.92541 0.10997 0.50561 0.0
C798 C 0.8915 0.15267 0.49041 0.0
C799 C 0.90013 0.10562 0.49289 0.0
C800 C 0.84967 0.17223 0.46737 0.0
C801 C 0.85889 0.22007 0.49506 0.0
N802 N 0.88391 0.1268 0.4858 0.0
N803 N 0.87587 0.19874 0.49845 0.0
H804 H 0.87264 0.79984 0.53836 0.0
H805 H 0.88295 0.95794 0.51168 0.0
H806 H 0.82276 0.84212 0.47894 0.0
H807 H 0.93063 0.91523 0.57269 0.0
H808 H 0.86084 0.91588 0.49907 0.0
H809 H 0.89427 0.84204 0.55082 0.0
C810 C 0.86636 0.81801 0.5278 0.0
C811 C 0.84601 0.81742 0.5074 0.0
C812 C 0.87611 0.91572 0.51524 0.0
C813 C 0.87052 0.86598 0.52184 0.0
C814 C 0.88877 0.93973 0.52245 0.0
C815 C 0.90865 0.94013 0.54332 0.0
C816 C 0.88341 0.89191 0.52896 0.0
C817 C 0.91538 0.9159 0.55651 0.0
C818 C 0.87861 0.84215 0.53505 0.0
C819 C 0.83827 0.8417 0.49486 0.0
N820 N 0.90279 0.8928 0.5491 0.0
N821 N 0.8506 0.86499 0.50222 0.0
H822 H 0.22778 0.87868 0.56448 0.0
H823 H 0.07548 0.90143 0.51014 0.0
H824 H 0.18036 0.81678 0.52533 0.0
H825 H 0.12739 0.96436 0.5409 0.0
H826 H 0.11018 0.86832 0.52348 0.0
H827 H 0.18787 0.90826 0.5638 0.0
C828 C 0.20886 0.87128 0.55587 0.0
C829 C 0.20748 0.84543 0.54447 0.0
C830 C 0.1138 0.88936 0.52759 0.0
C831 C 0.16165 0.87918 0.54364 0.0
C832 C 0.094 0.90828 0.52002 0.0
C833 C 0.09876 0.93577 0.52395 0.0
C834 C 0.13848 0.89802 0.53921 0.0
C835 C 0.12297 0.94344 0.53714 0.0
C836 C 0.18606 0.88814 0.55557 0.0
C837 C 0.1823 0.83662 0.53421 0.0
N838 N 0.14203 0.9247 0.54401 0.0
N839 N 0.16044 0.85361 0.5337 0.0
H840 H 0.45258 0.20271 0.2143 0.0
H841 H 0.5116 0.14757 0.07079 0.0
H842 H 0.49858 0.24955 0.15555 0.0
H843 H 0.49453 0.09511 0.13956 0.0
H844 H 0.4954 0.18557 0.09808 0.0
H845 H 0.45813 0.16348 0.18402 0.0
C846 C 0.46368 0.20489 0.19508 0.0
C847 C 0.47505 0.22968 0.18756 0.0
C848 C 0.49496 0.16571 0.10713 0.0
C849 C 0.48082 0.18505 0.15268 0.0
C850 C 0.50414 0.14396 0.09153 0.0
C851 C 0.50494 0.11816 0.10309 0.0
C852 C 0.48645 0.16174 0.13452 0.0
C853 C 0.4946 0.11472 0.12996 0.0
C854 C 0.46667 0.18251 0.17778 0.0
C855 C 0.48885 0.23122 0.16212 0.0
N856 N 0.48604 0.13635 0.14494 0.0
N857 N 0.49132 0.20929 0.14571 0.0
H858 H 0.8485 0.53892 0.24773 0.0
H859 H 0.92682 0.46357 0.12555 0.0
H860 H 0.81383 0.47245 0.20323 0.0
H861 H 0.94484 0.54526 0.14871 0.0
H862 H 0.88899 0.46367 0.15842 0.0
H863 H 0.88685 0.53934 0.2152 0.0
C864 C 0.84894 0.52454 0.23092 0.0
C865 C 0.82806 0.50562 0.22805 0.0
C866 C 0.9013 0.48152 0.15638 0.0
C867 C 0.87201 0.50566 0.19115 0.0
C868 C 0.92311 0.48143 0.13781 0.0
C869 C 0.9391 0.50449 0.13428 0.0
C870 C 0.89555 0.50469 0.17186 0.0
C871 C 0.93308 0.52705 0.15069 0.0
C872 C 0.87078 0.52478 0.21242 0.0
C873 C 0.82948 0.48743 0.20598 0.0
N874 N 0.91179 0.52658 0.16878 0.0
N875 N 0.85127 0.48771 0.18849 0.0
H876 H 0.52524 0.85122 0.23926 0.0
H877 H 0.55177 0.86568 0.07723 0.0
H878 H 0.57754 0.79702 0.19341 0.0
H879 H 0.50922 0.92487 0.12669 0.0
H880 H 0.56259 0.84067 0.11935 0.0
H881 H 0.52002 0.87871 0.19807 0.0
C882 C 0.53591 0.84524 0.2206 0.0
C883 C 0.55201 0.82182 0.21988 0.0
C884 C 0.55107 0.85924 0.12097 0.0
C885 C 0.54563 0.85307 0.1723 0.0
C886 C 0.54491 0.87355 0.09694 0.0
C887 C 0.52937 0.89729 0.09841 0.0
C888 C 0.54149 0.86869 0.14659 0.0
C889 C 0.52112 0.90659 0.12452 0.0
C890 C 0.53279 0.86091 0.197 0.0
C891 C 0.56474 0.81477 0.19484 0.0
N892 N 0.5271 0.89216 0.14753 0.0
N893 N 0.56121 0.8303 0.17201 0.0
H894 H 0.24773 0.62166 0.17396 0.0
H895 H 0.18604 0.49722 0.09298 0.0
H896 H 0.28835 0.54467 0.16956 0.0
H897 H 0.15792 0.57884 0.08172 0.0
H898 H 0.2245 0.51401 0.11995 0.0
H899 H 0.21449 0.60612 0.1399 0.0
C900 C 0.24958 0.60149 0.16581 0.0
C901 C 0.27067 0.58438 0.17458 0.0
C902 C 0.21009 0.52824 0.11121 0.0
C903 C 0.23295 0.56646 0.13566 0.0
C904 C 0.18817 0.51867 0.09576 0.0
C905 C 0.16854 0.53661 0.08529 0.0
C906 C 0.21218 0.55587 0.11645 0.0
C907 C 0.17243 0.56421 0.08948 0.0
C908 C 0.2308 0.59267 0.14623 0.0
C909 C 0.27243 0.55851 0.16317 0.0
N910 N 0.19357 0.57297 0.10504 0.0
N911 N 0.25367 0.55024 0.14444 0.0
H912 H 0.44982 0.82517 0.79723 0.0
H913 H 0.54612 0.91725 0.88995 0.0
H914 H 0.53208 0.80386 0.82054 0.0
H915 H 0.45829 0.91921 0.8981 0.0
H916 H 0.54188 0.88309 0.85415 0.0
H917 H 0.45342 0.86638 0.82513 0.0
C918 C 0.46864 0.82932 0.8081 0.0
C919 C 0.49062 0.81114 0.80694 0.0
C920 C 0.52354 0.89124 0.86357 0.0
C921 C 0.49503 0.85803 0.83813 0.0
C922 C 0.52589 0.91089 0.88389 0.0
C923 C 0.50253 0.92079 0.89743 0.0
C924 C 0.49766 0.88158 0.85649 0.0
C925 C 0.47686 0.91181 0.88852 0.0
C926 C 0.47066 0.8527 0.82395 0.0
C927 C 0.5146 0.81728 0.82127 0.0
N928 N 0.4751 0.8925 0.86872 0.0
N929 N 0.51619 0.84026 0.83623 0.0
H930 H 0.22045 0.61587 0.81314 0.0
H931 H 0.1126 0.50752 0.86567 0.0
H932 H 0.21044 0.5379 0.77583 0.0
H933 H 0.11341 0.58946 0.89477 0.0
H934 H 0.14844 0.51841 0.83263 0.0
H935 H 0.18225 0.6063 0.8443 0.0
C936 C 0.21037 0.59665 0.8117 0.0
C937 C 0.21861 0.57766 0.79188 0.0
C938 C 0.14065 0.53409 0.84608 0.0
C939 C 0.17474 0.5667 0.82714 0.0
C940 C 0.12009 0.5279 0.86492 0.0
C941 C 0.11004 0.54755 0.88317 0.0
C942 C 0.15151 0.56008 0.84557 0.0
C943 C 0.12052 0.57364 0.88112 0.0
C944 C 0.18841 0.5913 0.82927 0.0
C945 C 0.2046 0.55322 0.79063 0.0
N946 N 0.14088 0.57909 0.86287 0.0
N947 N 0.18341 0.54844 0.80802 0.0
H948 H 0.42091 0.15982 0.83634 0.0
H949 H 0.54965 0.10852 0.91916 0.0
H950 H 0.4979 0.13974 0.79792 0.0
H951 H 0.46927 0.08502 0.94622 0.0
H952 H 0.52983 0.12752 0.8777 0.0
H953 H 0.43691 0.13839 0.87935 0.0
C954 C 0.44103 0.15067 0.83691 0.0
C955 C 0.45814 0.15147 0.81358 0.0
C956 C 0.51646 0.11826 0.89272 0.0
C957 C 0.47654 0.12764 0.86248 0.0
C958 C 0.52771 0.10752 0.91662 0.0
C959 C 0.51111 0.095 0.93641 0.0
C960 C 0.48827 0.11694 0.88844 0.0
C961 C 0.48282 0.09448 0.93166 0.0
C962 C 0.45005 0.13845 0.86134 0.0
C963 C 0.48397 0.13934 0.81531 0.0
N964 N 0.47219 0.1054 0.9081 0.0
N965 N 0.49249 0.12824 0.83942 0.0
H966 H 0.77979 0.48695 0.84752 0.0
H967 H 0.88444 0.57001 0.93891 0.0
H968 H 0.81262 0.564 0.82516 0.0
H969 H 0.86881 0.4854 0.94893 0.0
H970 H 0.84604 0.57297 0.9069 0.0
H971 H 0.80045 0.4914 0.89335 0.0
C972 C 0.79077 0.5051 0.85251 0.0
C973 C 0.7949 0.52498 0.83246 0.0
C974 C 0.85067 0.5539 0.9166 0.0
C975 C 0.81867 0.53008 0.88462 0.0
C976 C 0.87251 0.55219 0.93502 0.0
C977 C 0.88038 0.52723 0.946 0.0
C978 C 0.83659 0.53052 0.90923 0.0
C979 C 0.86388 0.50494 0.94044 0.0
C980 C 0.80265 0.50757 0.8786 0.0
C981 C 0.80941 0.54802 0.83993 0.0
N982 N 0.84308 0.507 0.92202 0.0
N983 N 0.82106 0.54981 0.86531 0.0
H984 H 0.74623 0.68067 0.0398 0.0
H985 H 0.59973 0.64211 0.97973 0.0
H986 H 0.71447 0.70766 0.96131 0.0
H987 H 0.63325 0.60734 0.05418 0.0
H988 H 0.63887 0.67174 0.97692 0.0
H989 H 0.70285 0.65821 0.04887 0.0
C990 C 0.73015 0.68192 0.0245 0.0
C991 C 0.73407 0.69602 -0.0003 0.0
C992 C 0.63759 0.65782 0.99403 0.0
C993 C 0.68432 0.67068 0.01011 0.0
C994 C 0.61516 0.64091 0.99571 0.0
C995 C 0.61339 0.62189 0.017 0.0
C996 C 0.65856 0.65565 0.01368 0.0
C997 C 0.63388 0.62154 0.03728 0.0
C998 C 0.70534 0.66925 0.02979 0.0
C999 C 0.71233 0.69734 0.98085 0.0
N1000 N 0.65583 0.63794 0.03492 0.0
N1001 N 0.6885 0.68474 0.9864 0.0
H1002 H 0.31679 0.73135 0.99152 0.0
H1003 H 0.39347 0.61125 0.06424 0.0
H1004 H 0.29389 0.70604 0.07342 0.0
H1005 H 0.38541 0.61723 0.97551 0.0
H1006 H 0.35789 0.64584 0.0693 0.0
H1007 H 0.34371 0.69011 0.98607 0.0
C1008 C 0.31735 0.71692 0.00825 0.0
C1009 C 0.30328 0.72195 0.03294 0.0
C1010 C 0.36369 0.6392 0.04878 0.0
C1011 C 0.33422 0.67503 0.02712 0.0
C1012 C 0.38398 0.61947 0.04586 0.0
C1013 C 0.39278 0.61156 0.0194 0.0
C1014 C 0.35252 0.65131 0.02511 0.0
C1015 C 0.37961 0.62287 0.99634 0.0
C1016 C 0.33257 0.69338 0.00514 0.0
C1017 C 0.3045 0.70271 0.05406 0.0
N1018 N 0.3605 0.64244 -0.00026 0.0
N1019 N 0.32008 0.68018 0.05084 0.0
H1020 H 0.30846 0.32982 0.06139 0.0
H1021 H 0.42033 0.40959 0.97406 0.0
H1022 H 0.33163 0.30959 0.97787 0.0
H1023 H 0.41125 0.41784 0.0625 0.0
H1024 H 0.38379 0.37674 0.97393 0.0
H1025 H 0.34126 0.36681 0.06066 0.0
C1026 C 0.32008 0.33354 0.04274 0.0
C1027 C 0.3175 0.3167 0.01968 0.0
C1028 C 0.38977 0.38573 0.99338 0.0
C1029 C 0.3551 0.35848 0.01879 0.0
C1030 C 0.41067 0.4045 0.99349 0.0
C1031 C 0.41892 0.41649 0.01835 0.0
C1032 C 0.37683 0.37895 0.01827 0.0
C1033 C 0.40564 0.409 0.04288 0.0
C1034 C 0.33896 0.35441 0.04243 0.0
C1035 C 0.33322 0.32208 0.99613 0.0
N1036 N 0.38518 0.39073 0.04221 0.0
N1037 N 0.35143 0.34244 0.99632 0.0
H1038 H 0.73363 0.28886 0.99591 0.0
H1039 H 0.65464 0.42153 0.04625 0.0
H1040 H 0.77381 0.35164 0.0415 0.0
H1041 H 0.62687 0.36914 0.98103 0.0
H1042 H 0.69636 0.39399 0.05011 0.0
H1043 H 0.69147 0.31534 0.9967 0.0
C1044 C 0.73346 0.30807 0.00642 0.0
C1045 C 0.75727 0.31813 0.01849 0.0
C1046 C 0.68106 0.38867 0.03497 0.0
C1047 C 0.70919 0.34875 0.0192 0.0
C1048 C 0.6573 0.40437 0.03273 0.0
C1049 C 0.63723 0.39777 0.0132 0.0
C1050 C 0.68448 0.36607 0.01784 0.0
C1051 C 0.64175 0.37521 0.99629 0.0
C1052 C 0.70948 0.3233 0.00665 0.0
C1053 C 0.75596 0.34331 0.03161 0.0
N1054 N 0.66476 0.36019 -0.00091 0.0
N1055 N 0.73232 0.35782 0.03157 0.0
H1056 H 0.02048 0.67646 0.71959 0.0
H1057 H 0.99263 0.60426 0.57617 0.0
H1058 H 0.97002 0.71016 0.65511 0.0
H1059 H 0.04169 0.57006 0.64103 0.0
H1060 H 0.97651 0.63896 0.60815 0.0
H1061 H 0.021 0.63368 0.69499 0.0
C1062 C 0.00902 0.67473 0.70054 0.0
C1063 C -0.00443 0.6971 0.68917 0.0
C1064 C 0.99018 0.62345 0.61571 0.0
C1065 C -0.00346 0.64825 0.66056 0.0
C1066 C -0.00112 0.60332 0.59755 0.0
C1067 C 0.01772 0.5839 0.60628 0.0
C1068 C 0.00096 0.6244 0.64263 0.0
C1069 C 0.02686 0.58462 0.63369 0.0
C1070 C 0.00948 0.65031 0.68638 0.0
C1071 C 0.98123 0.69364 0.6643 0.0
N1072 N 0.0186 0.6047 0.65085 0.0
N1073 N 0.98241 0.66982 0.65065 0.0
H1074 H 0.37378 0.91688 0.72416 0.0
H1075 H 0.45676 0.02393 0.63596 0.0
H1076 H 0.35491 0.00151 0.71984 0.0
H1077 H 0.45758 0.93968 0.61464 0.0
H1078 H 0.42633 0.01422 0.67434 0.0
H1079 H 0.40949 0.92329 0.68897 0.0
C1080 C 0.37681 0.93663 0.7154 0.0
C1081 C 0.36116 0.95863 0.72456 0.0
C1082 C 0.43337 0.99782 0.66139 0.0
C1083 C 0.40223 0.9662 0.6855 0.0
C1084 C 0.45094 0.0033 0.63961 0.0
C1085 C 0.45922 0.98268 0.62167 0.0
C1086 C 0.42405 0.97154 0.66533 0.0
C1087 C 0.45136 0.95625 0.62775 0.0
C1088 C 0.39724 0.9403 0.6956 0.0
C1089 C 0.36606 0.9839 0.71294 0.0
N1090 N 0.43384 0.95144 0.64893 0.0
N1091 N 0.3863 0.98701 0.69421 0.0
H1092 H 0.97777 0.32446 0.65641 0.0
H1093 H 0.10342 0.41461 0.60909 0.0
H1094 H 0.04778 0.3413 0.70737 0.0
H1095 H 0.02973 0.40544 0.56123 0.0
H1096 H 0.08711 0.38062 0.6412 0.0
H1097 H 0.00027 0.3467 0.61755 0.0
C1098 C -0.00189 0.33237 0.65924 0.0
C1099 C 0.01083 0.33134 0.6852 0.0
C1100 C 0.07462 0.38581 0.62351 0.0
C1101 C 0.03651 0.35705 0.64104 0.0
C1102 C 0.08394 0.40522 0.60512 0.0
C1103 C 0.06771 0.41323 0.58267 0.0
C1104 C 0.04882 0.37437 0.61953 0.0
C1105 C 0.04279 0.40011 0.57843 0.0
C1106 C 0.01086 0.34521 0.63713 0.0
C1107 C 0.03709 0.34208 0.68781 0.0
N1108 N 0.03395 0.38156 0.5969 0.0
N1109 N 0.04895 0.35471 0.66609 0.0
H1110 H 0.71235 0.12935 0.70344 0.0
H1111 H 0.66675 0.01286 0.60023 0.0
H1112 H 0.75502 0.05369 0.69556 0.0
H1113 H 0.63592 0.09407 0.59454 0.0
H1114 H 0.69896 0.02741 0.63552 0.0
H1115 H 0.68273 0.11641 0.66482 0.0
C1116 C 0.71533 0.10997 0.69368 0.0
C1117 C 0.73616 0.09258 0.70262 0.0
C1118 C 0.68534 0.04212 0.62636 0.0
C1119 C 0.70265 0.07775 0.65846 0.0
C1120 C 0.66699 0.03383 0.60613 0.0
C1121 C 0.64847 0.05222 0.59448 0.0
C1122 C 0.68501 0.06894 0.63533 0.0
C1123 C 0.6498 0.07918 0.60293 0.0
C1124 C 0.69864 0.1027 0.67152 0.0
C1125 C 0.73937 0.0678 0.68912 0.0
N1126 N 0.66752 0.08666 0.62308 0.0
N1127 N 0.72277 0.06111 0.66781 0.0
H1128 H 0.01049 0.28799 0.38537 0.0
H1129 H 0.03483 0.44643 0.38925 0.0
H1130 H 0.06203 0.32972 0.32742 0.0
H1131 H 0.99029 0.40367 0.45216 0.0
H1132 H 0.04609 0.4037 0.3671 0.0
H1133 H 0.00392 0.32986 0.41088 0.0
C1134 C 0.02069 0.30587 0.37816 0.0
C1135 C 0.03684 0.30528 0.35414 0.0
C1136 C 0.03398 0.40363 0.38584 0.0
C1137 C 0.02901 0.35348 0.38309 0.0
C1138 C 0.02754 0.42805 0.39852 0.0
C1139 C 0.0114 0.42868 0.4225 0.0
C1140 C 0.02409 0.37962 0.3971 0.0
C1141 C 0.00264 0.40418 0.43361 0.0
C1142 C 0.01679 0.32983 0.39267 0.0
C1143 C 0.0491 0.32927 0.34557 0.0
N1144 N 0.00894 0.38067 0.42072 0.0
N1145 N 0.04485 0.35237 0.35995 0.0
H1146 H 0.6589 0.05609 0.23504 0.0
H1147 H 0.57943 0.09702 0.37304 0.0
H1148 H 0.66555 0.13399 0.27343 0.0
H1149 H 0.59245 0.01532 0.34577 0.0
H1150 H 0.60192 0.11289 0.33106 0.0
H1151 H 0.62573 0.04328 0.27006 0.0
C1152 C 0.65304 0.07067 0.25061 0.0
C1153 C 0.66502 0.09615 0.25138 0.0
C1154 C 0.59954 0.09152 0.33418 0.0
C1155 C 0.62734 0.08142 0.29178 0.0
C1156 C 0.5866 0.08241 0.35804 0.0
C1157 C 0.5845 0.05475 0.36314 0.0
C1158 C 0.61017 0.07285 0.31523 0.0
C1159 C 0.59399 0.0368 0.3429 0.0
C1160 C 0.63423 0.06327 0.27069 0.0
C1161 C 0.657 0.11406 0.27231 0.0
N1162 N 0.60663 0.04617 0.31993 0.0
N1163 N 0.6387 0.1063 0.29182 0.0
H1164 H 0.04793 0.67718 0.29887 0.0
H1165 H 0.97736 0.64 0.44217 0.0
H1166 H 0.97354 0.71348 0.32949 0.0
H1167 H 0.04389 0.5949 0.4064 0.0
H1168 H 0.9828 0.67406 0.4064 0.0
H1169 H 0.05333 0.65374 0.34293 0.0
C1170 C 0.03286 0.68042 0.31495 0.0
C1171 C 0.00999 0.697 0.31028 0.0
C1172 C -0.00333 0.65704 0.40668 0.0
C1173 C 0.01621 0.67039 0.36084 0.0
C1174 C 0.99365 0.63765 0.42716 0.0
C1175 C 0.01036 0.61467 0.42726 0.0
C1176 C 0.01631 0.65323 0.38587 0.0
C1177 C 0.03107 0.61256 0.40739 0.0
C1178 C 0.03604 0.66712 0.34013 0.0
C1179 C 0.99149 0.70095 0.3321 0.0
N1180 N 0.03321 0.63139 0.38718 0.0
N1181 N 0.99483 0.68749 0.35629 0.0
H1182 H 0.30485 0.0321 0.30572 0.0
H1183 H 0.37863 0.95936 0.42934 0.0
H1184 H 0.28722 0.95053 0.32869 0.0
H1185 H 0.37998 0.04523 0.41771 0.0
H1186 H 0.34081 0.95652 0.39669 0.0
H1187 H 0.32811 0.03845 0.34987 0.0
C1188 C 0.30556 0.01567 0.32036 0.0
C1189 C 0.29442 0.9907 0.31359 0.0
C1190 C 0.34902 0.97605 0.40167 0.0
C1191 C 0.32136 0.99758 0.36391 0.0
C1192 C 0.37065 0.9777 0.42034 0.0
C1193 C 0.38292 0.00252 0.42584 0.0
C1194 C 0.33985 0.99933 0.38811 0.0
C1195 C 0.37144 0.02562 0.41383 0.0
C1196 C 0.31877 0.01928 0.34557 0.0
C1197 C 0.29565 0.97006 0.33322 0.0
N1198 N 0.35092 0.02339 0.39511 0.0
N1199 N 0.30937 0.9738 0.35734 0.0
H1200 H 0.02144 0.18515 0.31775 0.0
H1201 H 0.03051 0.1121 0.46266 0.0
H1202 H 0.06905 0.21646 0.38547 0.0
H1203 H 0.994 0.07785 0.39 0.0
H1204 H 0.05071 0.1474 0.43385 0.0
H1205 H 0.01684 0.14319 0.34241 0.0
C1206 C 0.03145 0.18314 0.33758 0.0
C1207 C 0.04559 0.20469 0.34948 0.0
C1208 C 0.03895 0.13173 0.42407 0.0
C1209 C 0.03949 0.15642 0.37852 0.0
C1210 C 0.02781 0.11142 0.44046 0.0
C1211 C 0.0111 0.09196 0.42847 0.0
C1212 C 0.03284 0.13262 0.39567 0.0
C1213 C 0.00702 0.09247 0.39986 0.0
C1214 C 0.0286 0.15907 0.35183 0.0
C1215 C 0.05746 0.20072 0.37565 0.0
N1216 N 0.01756 0.11264 0.38447 0.0
N1217 N 0.05384 0.17721 0.38945 0.0
H1218 H 0.82055 0.15521 0.31015 0.0
H1219 H 0.84861 0.02427 0.40145 0.0
H1220 H 0.79218 0.07589 0.28947 0.0
H1221 H 0.88162 0.1021 0.42105 0.0
H1222 H 0.82196 0.04463 0.36442 0.0
H1223 H 0.83847 0.1376 0.35379 0.0
C1224 C 0.81808 0.1341 0.31475 0.0
C1225 C 0.80492 0.11701 0.29596 0.0
C1226 C 0.83476 0.05735 0.37701 0.0
C1227 C 0.82508 0.09679 0.34611 0.0
C1228 C 0.84991 0.04574 0.39832 0.0
C1229 C 0.86778 0.06138 0.41417 0.0
C1230 C 0.83755 0.08482 0.37129 0.0
C1231 C 0.86834 0.08917 0.40923 0.0
C1232 C 0.82812 0.12411 0.33978 0.0
C1233 C 0.80189 0.08994 0.30334 0.0
N1234 N 0.85378 0.09993 0.38794 0.0
N1235 N 0.812 0.08068 0.3277 0.0
H1236 H 0.0072 0.83714 0.29354 0.0
H1237 H 0.91276 0.92421 0.39518 0.0
H1238 H 0.91927 0.84057 0.28982 0.0
H1239 H -0.00097 0.93915 0.38608 0.0
H1240 H 0.91633 0.88873 0.36081 0.0
H1241 H 0.00603 0.87034 0.33126 0.0
C1242 C 0.98771 0.84485 0.30069 0.0
C1243 C 0.9633 0.83634 0.2884 0.0
C1244 C 0.93453 0.8997 0.36634 0.0
C1245 C 0.96179 0.87385 0.33143 0.0
C1246 C 0.93253 0.91993 0.38608 0.0
C1247 C 0.95559 0.93486 0.3934 0.0
C1248 C 0.95979 0.89414 0.35377 0.0
C1249 C 0.98069 0.92824 0.38093 0.0
C1250 C 0.98705 0.8638 0.32209 0.0
C1251 C 0.93858 0.84692 0.29838 0.0
N1252 N 0.98213 0.90838 0.36162 0.0
N1253 N 0.93848 0.86504 0.31929 0.0
H1254 H 0.13412 0.92614 0.284 0.0
H1255 H 0.07803 0.03929 0.38712 0.0
H1256 H 0.16031 0.00861 0.28216 0.0
H1257 H 0.05824 0.95521 0.39355 0.0
H1258 H 0.10238 0.02985 0.34404 0.0
H1259 H 0.10048 0.93797 0.31932 0.0
C1260 C 0.13252 0.94683 0.29071 0.0
C1261 C 0.15026 0.96636 0.2803 0.0
C1262 C 0.09249 0.01352 0.35476 0.0
C1263 C 0.11202 0.97998 0.32107 0.0
C1264 C 0.0785 0.0189 0.37934 0.0
C1265 C 0.06643 0.99794 0.39426 0.0
C1266 C 0.09439 0.98701 0.34499 0.0
C1267 C 0.06757 0.97196 0.383 0.0
C1268 C 0.11341 0.95354 0.31103 0.0
C1269 C 0.1474 0.9928 0.29 0.0
N1270 N 0.08153 0.96721 0.3592 0.0
N1271 N 0.12881 0.9988 0.30999 0.0
H1272 H 0.98232 0.78613 0.64836 0.0
H1273 H 0.07292 0.91669 0.62199 0.0
H1274 H 0.05007 0.8096 0.69969 0.0
H1275 H 0.00302 0.89645 0.57205 0.0
H1276 H 0.06577 0.87636 0.64928 0.0
H1277 H 0.99064 0.82503 0.61876 0.0
C1278 C -0.00094 0.79937 0.6533 0.0
C1279 C 0.01547 0.79465 0.67662 0.0
C1280 C 0.05198 0.88066 0.63235 0.0
C1281 C 0.02495 0.83932 0.64295 0.0
C1282 C 0.05604 0.90375 0.61671 0.0
C1283 C 0.03845 0.91009 0.59473 0.0
C1284 C 0.03016 0.86363 0.62606 0.0
C1285 C 0.01704 0.8924 0.58884 0.0
C1286 C 0.0037 0.82165 0.63647 0.0
C1287 C 0.03666 0.81264 0.68219 0.0
N1288 N 0.01345 0.87 0.60447 0.0
N1289 N 0.04076 0.83415 0.66551 0.0
H1290 H 0.22289 0.97202 0.71758 0.0
H1291 H 0.1391 0.06631 0.61482 0.0
H1292 H 0.2228 0.05843 0.72428 0.0
H1293 H 0.15378 0.98184 0.60075 0.0
H1294 H 0.17163 0.06488 0.65321 0.0
H1295 H 0.19828 0.97583 0.67402 0.0
C1296 C 0.21784 0.99183 0.70987 0.0
C1297 C 0.225 0.01492 0.72476 0.0
C1298 C 0.16802 0.04677 0.64141 0.0
C1299 C 0.19642 0.01945 0.67476 0.0
C1300 C 0.14962 0.04763 0.61931 0.0
C1301 C 0.14333 0.02407 0.60475 0.0
C1302 C 0.18006 0.02218 0.64905 0.0
C1303 C 0.15762 1.00044 0.61161 0.0
C1304 C 0.20373 0.994 0.68493 0.0
C1305 C 0.21736 0.04003 0.71382 0.0
N1306 N 0.17495 1.00002 0.63348 0.0
N1307 N 0.20341 0.04162 0.68957 0.0
H1308 H 0.9928 0.19402 0.71724 0.0
H1309 H 0.97878 0.11508 0.57509 0.0
H1310 H 0.91794 0.19314 0.67043 0.0
H1311 H 0.04077 0.09651 0.63524 0.0
H1312 H 0.95717 0.14579 0.60824 0.0
H1313 H 0.0118 0.15979 0.6863 0.0
C1314 C 0.98033 0.18645 0.70053 0.0
C1315 C 0.95384 0.19644 0.69627 0.0
C1316 C 0.97532 0.13475 0.61429 0.0
C1317 C 0.97548 0.15757 0.66066 0.0
C1318 C 0.98742 0.11703 0.59546 0.0
C1319 C 0.01108 0.10278 0.60267 0.0
C1320 C 0.98717 0.13832 0.64045 0.0
C1321 C 0.0224 0.10705 0.62892 0.0
C1322 C 0.99113 0.16689 0.68293 0.0
C1323 C 0.93842 0.18583 0.67447 0.0
N1324 N 0.01034 0.12443 0.64688 0.0
N1325 N 0.94957 0.16715 0.65725 0.0
H1326 H 0.82902 0.05606 0.75014 0.0
H1327 H 0.93976 0.09822 0.63927 0.0
H1328 H 0.8395 0.13663 0.72019 0.0
H1329 H 0.92406 0.01651 0.66369 0.0
H1330 H 0.91219 0.11404 0.67799 0.0
H1331 H 0.87242 0.0431 0.72855 0.0
C1332 C 0.84108 0.0712 0.73984 0.0
C1333 C 0.831 0.09739 0.7369 0.0
C1334 C 0.91512 0.09265 0.67517 0.0
C1335 C 0.87989 0.08268 0.71136 0.0
C1336 C 0.93097 0.08358 0.65305 0.0
C1337 C 0.93383 0.05597 0.64781 0.0
C1338 C 0.90179 0.07398 0.69208 0.0
C1339 C 0.92205 0.03798 0.66658 0.0
C1340 C 0.86568 0.0638 0.72732 0.0
C1341 C 0.84688 0.11628 0.72297 0.0
N1342 N 0.90616 0.04729 0.6876 0.0
N1343 N 0.8704 0.10845 0.71029 0.0
H1344 H 0.3294 0.02701 0.22917 0.0
H1345 H 0.386 0.97998 0.08214 0.0
H1346 H 0.30098 0.95517 0.18875 0.0
H1347 H 0.42727 0.03632 0.13523 0.0
H1348 H 0.35299 0.9717 0.11922 0.0
H1349 H 0.36314 0.03259 0.19268 0.0
C1350 C 0.33029 0.01233 0.21267 0.0
C1351 C 0.31244 0.99042 0.21224 0.0
C1352 C 0.36941 0.9857 0.12276 0.0
C1353 C 0.35096 0.99694 0.17005 0.0
C1354 C 0.38828 0.99042 0.10165 0.0
C1355 C 0.40936 0.00899 0.10553 0.0
C1356 C 0.37149 0.99991 0.14775 0.0
C1357 C 0.41136 0.02186 0.13126 0.0
C1358 C 0.34957 0.01556 0.19179 0.0
C1359 C 0.31416 0.97247 0.18986 0.0
N1360 N 0.39254 0.01726 0.15126 0.0
N1361 N 0.33311 0.97611 0.16964 0.0
H1362 H 0.06671 0.28508 0.16657 0.0
H1363 H 0.0582 0.44549 0.15951 0.0
H1364 H 0.03598 0.33482 0.23292 0.0
H1365 H 0.09285 0.39636 0.09463 0.0
H1366 H 0.04972 0.40507 0.18653 0.0
H1367 H 0.0764 0.32549 0.1398 0.0
C1368 C 0.06201 0.3045 0.17551 0.0
C1369 C 0.05048 0.30654 0.20203 0.0
C1370 C 0.05919 0.40311 0.16639 0.0
C1371 C 0.06159 0.35293 0.17152 0.0
C1372 C 0.06401 0.4262 0.15091 0.0
C1373 C 0.07624 0.42433 0.12473 0.0
C1374 C 0.0666 0.37789 0.15564 0.0
C1375 C 0.08332 0.39876 0.11468 0.0
C1376 C 0.06763 0.32758 0.16026 0.0
C1377 C 0.04516 0.33227 0.21271 0.0
N1378 N 0.07838 0.37655 0.13014 0.0
N1379 N 0.05065 0.35442 0.19738 0.0
H1380 H 0.70072 0.12534 0.13569 0.0
H1381 H 0.59614 0.03213 0.08151 0.0
H1382 H 0.69972 0.04633 0.17176 0.0
H1383 H 0.66411 0.02884 0.02456 0.0
H1384 H 0.62502 0.05591 0.11455 0.0
H1385 H 0.68051 0.10658 0.09314 0.0
C1386 C 0.6973 0.10394 0.13416 0.0
C1387 C 0.70189 0.08722 0.157 0.0
C1388 C 0.63331 0.05025 0.09458 0.0
C1389 C 0.67856 0.06619 0.10936 0.0
C1390 C 0.61699 0.03664 0.07578 0.0
C1391 C 0.62784 0.02814 0.05037 0.0
C1392 C 0.66053 0.05558 0.08789 0.0
C1393 C 0.65503 0.03479 0.04406 0.0
C1394 C 0.68568 0.09338 0.11009 0.0
C1395 C 0.69654 0.05974 0.15443 0.0
N1396 N 0.67066 0.04798 0.06288 0.0
N1397 N 0.68455 0.05015 0.13124 0.0
H1398 H 0.98275 0.65 0.22836 0.0
H1399 H 0.05479 0.62214 0.08406 0.0
H1400 H 0.02483 0.71078 0.18175 0.0
H1401 H 0.00106 0.5654 0.12287 0.0
H1402 H 0.04089 0.65599 0.11771 0.0
H1403 H 0.98687 0.61949 0.18893 0.0
C1404 C 0.99292 0.65688 0.2098 0.0
C1405 C 0.00379 0.68283 0.2084 0.0
C1406 C 0.03169 0.63632 0.11866 0.0
C1407 C 0.00831 0.64815 0.16313 0.0
C1408 C 0.03957 0.61702 0.0994 0.0
C1409 C 0.02898 0.591 0.10076 0.0
C1410 C 0.0135 0.6294 0.13987 0.0
C1411 C 0.00939 0.58533 0.12098 0.0
C1412 C 0.99501 0.63956 0.18723 0.0
C1413 C 0.0162 0.69094 0.18369 0.0
N1414 N 0.00259 0.60429 0.14011 0.0
N1415 N 0.01835 0.67356 0.16212 0.0
H1416 H 0.39956 0.96335 0.79965 0.0
H1417 H 0.41415 0.97638 0.96278 0.0
H1418 H 0.3322 0.94788 0.85513 0.0
H1419 H 0.4729 0.00351 0.90294 0.0
H1420 H 0.38707 0.95664 0.92518 0.0
H1421 H 0.4295 0.9677 0.83861 0.0
C1422 C 0.39099 0.96009 0.81999 0.0
C1423 C 0.36304 0.95485 0.82383 0.0
C1424 C 0.40611 0.9665 0.92036 0.0
C1425 C 0.39769 0.96158 0.86923 0.0
C1426 C 0.4216 0.97751 0.94173 0.0
C1427 C 0.4457 0.99127 0.93565 0.0
C1428 C 0.41496 0.96946 0.89292 0.0
C1429 C 0.45437 0.99296 0.90825 0.0
C1430 C 0.40826 0.96305 0.84241 0.0
C1431 C 0.35346 0.95213 0.85108 0.0
N1432 N 0.43894 0.98226 0.88785 0.0
N1433 N 0.37073 0.95583 0.87282 0.0
H1434 H 0.97207 0.38429 0.75505 0.0
H1435 H 0.97174 0.40622 0.91902 0.0
H1436 H 0.9811 0.31873 0.81261 0.0
H1437 H 0.96741 0.46987 0.85866 0.0
H1438 H 0.97505 0.37346 0.88119 0.0
H1439 H 0.96977 0.4155 0.79357 0.0
C1440 C 0.97376 0.37646 0.77587 0.0
C1441 C 0.97714 0.34887 0.7806 0.0
C1442 C 0.97345 0.39462 0.87632 0.0
C1443 C 0.97413 0.38466 0.8251 0.0
C1444 C 0.97163 0.41331 0.89786 0.0
C1445 C 0.96924 0.44083 0.89198 0.0
C1446 C 0.97285 0.40357 0.84879 0.0
C1447 C 0.96913 0.4489 0.86422 0.0
C1448 C 0.97231 0.39432 0.79792 0.0
C1449 C 0.97845 0.33985 0.80806 0.0
N1450 N 0.97084 0.43038 0.84374 0.0
N1451 N 0.97703 0.35774 0.82935 0.0
H1452 H 0.68281 0.14304 0.87197 0.0
H1453 H 0.61385 1.00027 0.89614 0.0
H1454 H 0.714 0.06866 0.83803 0.0
H1455 H 0.59665 0.06876 0.94795 0.0
H1456 H 0.64658 0.0269 0.87048 0.0
H1457 H 0.64771 0.11774 0.89656 0.0
C1458 C 0.68238 0.12143 0.86969 0.0
C1459 C 0.70147 0.10804 0.85275 0.0
C1460 C 0.63561 0.03616 0.88749 0.0
C1461 C 0.66099 0.07908 0.88049 0.0
C1462 C 0.61674 0.02099 0.90215 0.0
C1463 C 0.60236 0.03219 0.92459 0.0
C1464 C 0.64018 0.06291 0.89507 0.0
C1465 C 0.60722 0.05915 0.93119 0.0
C1466 C 0.66224 0.10704 0.88365 0.0
C1467 C 0.6995 0.08002 0.85032 0.0
N1468 N 0.62572 0.07362 0.91653 0.0
N1469 N 0.67965 0.06654 0.86397 0.0
H1470 H 0.04578 0.69692 0.81712 0.0
H1471 H 0.98522 0.63333 0.95586 0.0
H1472 H 0.98319 0.7327 0.86855 0.0
H1473 H 0.03837 0.58852 0.90149 0.0
H1474 H 0.99179 0.67305 0.92756 0.0
H1475 H 0.04923 0.6595 0.85005 0.0
C1476 C 0.03284 0.69702 0.83528 0.0
C1477 C 0.01423 0.71819 0.84002 0.0
C1478 C 0.00238 0.65471 0.92186 0.0
C1479 C 0.01845 0.67572 0.87789 0.0
C1480 C -0.00124 0.63207 0.93816 0.0
C1481 C 0.01129 0.60771 0.93093 0.0
C1482 C 0.01826 0.65296 0.89772 0.0
C1483 C 0.02863 0.60708 0.90784 0.0
C1484 C 0.03498 0.67574 0.85414 0.0
C1485 C -0.00174 0.71729 0.86413 0.0
N1486 N 0.0313 0.62935 0.8917 0.0
N1487 N 0.00073 0.6965 0.88199 0.0
H1488 H 0.17973 0.30805 0.98918 0.0
H1489 H 0.0738 0.42474 0.02979 0.0
H1490 H 0.14795 0.31937 0.07165 0.0
H1491 H 0.11005 0.41578 0.94886 0.0
H1492 H 0.09739 0.38378 0.04454 0.0
H1493 H 0.15114 0.34521 0.9732 0.0
C1494 C 0.16673 0.31837 0.00394 0.0
C1495 C 0.16644 0.31075 0.03186 0.0
C1496 C 0.10008 0.39074 0.02354 0.0
C1497 C 0.13345 0.35325 0.01365 0.0
C1498 C 0.08658 0.4141 0.01507 0.0
C1499 C 0.09011 0.42383 0.98808 0.0
C1500 C 0.11725 0.37703 0.00492 0.0
C1501 C 0.10685 0.40914 0.9699 0.0
C1502 C 0.15031 0.33952 0.99478 0.0
C1503 C 0.14873 0.32448 0.04993 0.0
N1504 N 0.11988 0.38658 0.97869 0.0
N1505 N 0.13308 0.34518 0.04055 0.0
H1506 H 0.11985 0.73837 0.07061 0.0
H1507 H 0.13115 0.58304 0.03092 0.0
H1508 H 0.19437 0.69825 0.04519 0.0
H1509 H 0.05803 0.63004 0.01886 0.0
H1510 H 0.15301 0.6221 0.05204 0.0
H1511 H 0.09592 0.6956 0.06663 0.0
C1512 C 0.13134 0.72068 0.06453 0.0
C1513 C 0.15923 0.72231 0.05776 0.0
C1514 C 0.13194 0.62364 0.04546 0.0
C1515 C 0.13197 0.6732 0.05404 0.0
C1516 C 0.11939 0.6013 0.03379 0.0
C1517 C 0.09274 0.60338 0.02363 0.0
C1518 C 0.11763 0.64813 0.04695 0.0
C1519 C 0.07865 0.62779 0.02659 0.0
C1520 C 0.11763 0.69626 0.06246 0.0
C1521 C 0.17302 0.69831 0.05089 0.0
N1522 N 0.09132 0.64935 0.03789 0.0
N1523 N 0.15922 0.67489 0.049 0.0
H1524 H 0.30154 0.20031 0.05292 0.0
H1525 H 0.42242 0.12495 0.97192 0.0
H1526 H 0.33342 0.22855 0.97513 0.0
H1527 H 0.40357 0.11327 0.05832 0.0
H1528 H 0.38558 0.1585 0.96936 0.0
H1529 H 0.3334 0.16238 0.05097 0.0
C1530 C 0.31483 0.19817 0.03512 0.0
C1531 C 0.31505 0.21765 0.01427 0.0
C1532 C 0.3896 0.14853 0.98883 0.0
C1533 C 0.3519 0.17472 0.01217 0.0
C1534 C 0.41065 0.12948 0.99033 0.0
C1535 C 0.41622 0.11638 0.01541 0.0
C1536 C 0.37387 0.1542 0.01246 0.0
C1537 C 0.40021 0.12296 0.03859 0.0
C1538 C 0.33323 0.17672 0.03417 0.0
C1539 C 0.3329 0.21408 0.9918 0.0
N1540 N 0.37976 0.14131 0.03651 0.0
N1541 N 0.35081 0.19313 0.99143 0.0
H1542 H 0.83776 0.34393 0.96538 0.0
H1543 H 0.97453 0.39306 0.03665 0.0
H1544 H 0.88237 0.29853 0.02656 0.0
H1545 H 0.92486 0.4417 0.98231 0.0
H1546 H 0.9478 0.35386 0.02368 0.0
H1547 H 0.87593 0.37503 0.96205 0.0
C1548 C 0.85579 0.3403 0.97781 0.0
C1549 C 0.8567 0.31899 0.99671 0.0
C1550 C 0.94305 0.37303 0.01424 0.0
C1551 C 0.90036 0.35449 0.99313 0.0
C1552 C 0.95834 0.39543 0.0216 0.0
C1553 C 0.95145 0.42082 0.01108 0.0
C1554 C 0.92071 0.3761 0.99632 0.0
C1555 C 0.93053 0.42261 0.99137 0.0
C1556 C 0.87759 0.35801 0.97586 0.0
C1557 C 0.88077 0.31481 0.01184 0.0
N1558 N 0.91561 0.40063 0.98497 0.0
N1559 N 0.90147 0.33271 0.0101 0.0
H1560 H 0.74551 0.83339 0.00177 0.0
H1561 H 0.6132 0.9036 0.93678 0.0
H1562 H 0.73043 0.83976 0.91418 0.0
H1563 H 0.63567 0.91222 0.02264 0.0
H1564 H 0.65396 0.87633 0.92919 0.0
H1565 H 0.70393 0.85963 0.01065 0.0
C1566 C 0.73352 0.84049 0.98442 0.0
C1567 C 0.7414 0.83445 0.95719 0.0
C1568 C 0.64994 0.88409 0.94972 0.0
C1569 C 0.69376 0.86413 0.96717 0.0
C1570 C 0.62652 0.89953 0.95415 0.0
C1571 C 0.62102 0.9104 0.98039 0.0
C1572 C 0.66802 0.87931 0.97167 0.0
C1573 C 0.6391 0.90434 0.00206 0.0
C1574 C 0.70982 0.85543 0.98949 0.0
C1575 C 0.72526 0.84423 0.93546 0.0
N1576 N 0.66187 0.88928 -0.00281 0.0
N1577 N 0.70211 0.85843 0.94093 0.0
H1578 H 0.84883 0.69097 0.95365 0.0
H1579 H 0.941 0.61548 0.06543 0.0
H1580 H 0.82917 0.68777 0.04045 0.0
H1581 H 0.93708 0.58984 0.98035 0.0
H1582 H 0.90756 0.65049 0.05535 0.0
H1583 H 0.8888 0.66194 0.96222 0.0
C1584 C 0.85324 0.68445 0.97454 0.0
C1585 C 0.83583 0.69156 0.99642 0.0
C1586 C 0.91425 0.6373 0.03883 0.0
C1587 C 0.88117 0.65882 0.00632 0.0
C1588 C 0.93341 0.61728 0.04448 0.0
C1589 C 0.94185 0.59932 0.02367 0.0
C1590 C 0.90358 0.63967 0.0121 0.0
C1591 C 0.93129 0.60298 -0.00301 0.0
C1592 C 0.87584 0.66785 0.97937 0.0
C1593 C 0.84213 0.68253 0.02308 0.0
N1594 N 0.9126 0.62269 0.99194 0.0
N1595 N 0.86433 0.66663 0.02731 0.0
H1596 H 0.29693 0.83843 0.0742 0.0
H1597 H 0.40067 0.91272 0.97222 0.0
H1598 H 0.31697 0.81113 0.99203 0.0
H1599 H 0.40195 0.92306 0.06087 0.0
H1600 H 0.36093 0.88381 0.97703 0.0
H1601 H 0.32689 0.87734 0.06732 0.0
C1602 C 0.30733 0.84092 0.0546 0.0
C1603 C 0.30485 0.82156 0.03374 0.0
C1604 C 0.36973 0.89268 0.99539 0.0
C1605 C 0.33869 0.86573 0.02565 0.0
C1606 C 0.39237 0.9093 0.99267 0.0
C1607 C 0.40505 0.9199 0.01624 0.0
C1608 C 0.35956 0.88676 0.02182 0.0
C1609 C 0.39314 0.91493 0.04217 0.0
C1610 C 0.32442 0.86297 0.05071 0.0
C1611 C 0.31868 0.82553 0.00871 0.0
N1612 N 0.37122 0.89848 0.0443 0.0
N1613 N 0.33509 0.84711 0.0054 0.0
H1614 H 0.78112 0.13895 0.99531 0.0
H1615 H 0.63119 0.12295 0.05678 0.0
H1616 H 0.74003 0.19961 0.04395 0.0
H1617 H 0.65747 0.07886 0.98444 0.0
H1618 H 0.67424 0.14687 0.05666 0.0
H1619 H 0.73884 0.11258 0.99498 0.0
C1620 C 0.7632 0.14667 0.00588 0.0
C1621 C 0.76393 0.17152 0.01955 0.0
C1622 C 0.67063 0.13196 0.0408 0.0
C1623 C 0.71598 0.14152 0.01954 0.0
C1624 C 0.64607 0.11816 0.0409 0.0
C1625 C 0.64058 0.099 0.02043 0.0
C1626 C 0.69018 0.12631 0.02039 0.0
C1627 C 0.66079 0.09363 0.00049 0.0
C1628 C 0.73915 0.13172 0.0056 0.0
C1629 C 0.74022 0.18071 0.03288 0.0
N1630 N 0.68481 0.10721 0.00099 0.0
N1631 N 0.71728 0.16565 0.03268 0.0
H1632 H 0.53621 0.72426 0.82291 0.0
H1633 H 0.45791 0.59983 0.8868 0.0
H1634 H 0.46245 0.69237 0.78772 0.0
H1635 H 0.53679 0.62646 0.915 0.0
H1636 H 0.4617 0.6297 0.847 0.0
H1637 H 0.53949 0.68512 0.85311 0.0
C1638 C 0.52091 0.70874 0.82131 0.0
C1639 C 0.49888 0.71162 0.80304 0.0
C1640 C 0.47836 0.62874 0.86167 0.0
C1641 C 0.50221 0.66691 0.83783 0.0
C1642 C 0.47622 0.61166 0.88444 0.0
C1643 C 0.49687 0.61096 0.90457 0.0
C1644 C 0.50122 0.6454 0.85909 0.0
C1645 C 0.52019 0.62659 0.90024 0.0
C1646 C 0.52278 0.68639 0.83854 0.0
C1647 C 0.47975 0.69086 0.80155 0.0
N1648 N 0.52156 0.64342 0.8782 0.0
N1649 N 0.4816 0.66957 0.81907 0.0
H1650 H 0.36393 0.63653 0.84965 0.0
H1651 H 0.4553 0.51378 0.90038 0.0
H1652 H 0.37342 0.56515 0.80007 0.0
H1653 H 0.40211 0.55713 0.95622 0.0
H1654 H 0.43536 0.5389 0.86163 0.0
H1655 H 0.38847 0.61401 0.88758 0.0
C1656 C 0.37144 0.61623 0.84674 0.0
C1657 C 0.3666 0.60251 0.82194 0.0
C1658 C 0.42832 0.54295 0.88246 0.0
C1659 C 0.39479 0.57701 0.86468 0.0
C1660 C 0.43966 0.52872 0.90456 0.0
C1661 C 0.43044 0.53344 0.93165 0.0
C1662 C 0.40807 0.56239 0.88758 0.0
C1663 C 0.41007 0.55303 0.93578 0.0
C1664 C 0.38528 0.60342 0.8683 0.0
C1665 C 0.37664 0.57622 0.81905 0.0
N1666 N 0.39968 0.56691 0.91401 0.0
N1667 N 0.3904 0.56431 0.84017 0.0
H1668 H 0.40451 0.31658 0.82919 0.0
H1669 H 0.53819 0.3633 0.91102 0.0
H1670 H 0.48502 0.28406 0.81394 0.0
H1671 H 0.45703 0.39223 0.93007 0.0
H1672 H 0.51909 0.33455 0.87514 0.0
H1673 H 0.42335 0.34478 0.86575 0.0
C1674 C 0.42618 0.31542 0.83344 0.0
C1675 C 0.44319 0.29793 0.81832 0.0
C1676 C 0.50543 0.34715 0.88716 0.0
C1677 C 0.46493 0.33014 0.86045 0.0
C1678 C 0.51633 0.36364 0.90768 0.0
C1679 C 0.49922 0.3803 0.92364 0.0
C1680 C 0.47716 0.34728 0.88239 0.0
C1681 C 0.47104 0.37977 0.9183 0.0
C1682 C 0.43691 0.33145 0.85446 0.0
C1683 C 0.47105 0.29701 0.82517 0.0
N1684 N 0.46092 0.36359 0.89813 0.0
N1685 N 0.48104 0.31294 0.84562 0.0
H1686 H 0.64017 0.45654 0.79492 0.0
H1687 H 0.57669 0.57215 0.89009 0.0
H1688 H 0.66164 0.54014 0.78874 0.0
H1689 H 0.56003 0.48787 0.90098 0.0
H1690 H 0.60128 0.56157 0.84752 0.0
H1691 H 0.60452 0.46847 0.8282 0.0
C1692 C 0.63708 0.47747 0.80019 0.0
C1693 C 0.65412 0.49735 0.78926 0.0
C1694 C 0.59199 0.5454 0.85904 0.0
C1695 C 0.61358 0.5111 0.82764 0.0
C1696 C 0.5779 0.55143 0.88335 0.0
C1697 C 0.56672 0.53079 0.89942 0.0
C1698 C 0.59504 0.51854 0.85074 0.0
C1699 C 0.56859 0.50439 0.88943 0.0
C1700 C 0.61682 0.48425 0.81934 0.0
C1701 C 0.64932 0.52411 0.79706 0.0
N1702 N 0.58284 0.49897 0.86592 0.0
N1703 N 0.62967 0.53017 0.81595 0.0
H1704 H 0.44074 0.32342 0.17303 0.0
H1705 H 0.47338 0.43128 0.08853 0.0
H1706 H 0.51437 0.34141 0.21785 0.0
H1707 H 0.55387 0.42018 0.12281 0.0
H1708 H 0.45477 0.40346 0.12569 0.0
H1709 H 0.4482 0.36257 0.14394 0.0
C1710 C 0.45817 0.33606 0.17715 0.0
C1711 C 0.47709 0.32899 0.19774 0.0
C1712 C 0.47651 0.407 0.12509 0.0
C1713 C 0.48578 0.37429 0.1646 0.0
C1714 C 0.48707 0.4232 0.10399 0.0
C1715 C 0.51527 0.42748 0.10214 0.0
C1716 C 0.4944 0.39507 0.1444 0.0
C1717 C 0.53205 0.41686 0.12302 0.0
C1718 C 0.46234 0.35864 0.16062 0.0
C1719 C 0.49921 0.34613 0.20229 0.0
N1720 N 0.52142 0.40101 0.14305 0.0
N1721 N 0.5032 0.36766 0.18552 0.0
H1722 H 0.70768 0.49458 0.17722 0.0
H1723 H 0.56066 0.49289 0.11732 0.0
H1724 H 0.63665 0.48214 0.22833 0.0
H1725 H 0.63129 0.47829 0.06631 0.0
H1726 H 0.5876 0.48159 0.15825 0.0
H1727 H 0.68101 0.4818 0.13669 0.0
C1728 C 0.68667 0.48856 0.18005 0.0
C1729 C 0.67421 0.49012 0.20615 0.0
C1730 C 0.59712 0.48003 0.13809 0.0
C1731 C 0.64341 0.47593 0.15976 0.0
C1732 C 0.58165 0.48631 0.11477 0.0
C1733 C 0.5939 0.48642 0.08865 0.0
C1734 C 0.62525 0.47487 0.13524 0.0
C1735 C 0.6212 0.47823 0.08624 0.0
C1736 C 0.6714 0.48132 0.15685 0.0
C1737 C 0.64687 0.48209 0.20848 0.0
N1738 N 0.63623 0.47343 0.10936 0.0
N1739 N 0.63226 0.47588 0.18555 0.0
H1740 H 0.54435 0.71082 0.18456 0.0
H1741 H 0.55696 0.57062 0.10444 0.0
H1742 H 0.57493 0.63837 0.2228 0.0
H1743 H 0.51347 0.64025 0.07467 0.0
H1744 H 0.57399 0.59749 0.14351 0.0
H1745 H 0.54348 0.68769 0.14022 0.0
C1746 C 0.55144 0.6902 0.18363 0.0
C1747 C 0.55945 0.67653 0.2077 0.0
C1748 C 0.56124 0.60701 0.12804 0.0
C1749 C 0.5579 0.64957 0.15668 0.0
C1750 C 0.55181 0.59176 0.10561 0.0
C1751 C 0.53376 0.60328 0.08644 0.0
C1752 C 0.55267 0.63391 0.131 0.0
C1753 C 0.52727 0.63062 0.08912 0.0
C1754 C 0.55071 0.67689 0.15823 0.0
C1755 C 0.56804 0.64962 0.20497 0.0
N1756 N 0.53649 0.64489 0.11107 0.0
N1757 N 0.56675 0.63695 0.18003 0.0
H1758 H 0.37484 0.63082 0.1888 0.0
H1759 H 0.44547 0.57336 0.08308 0.0
H1760 H 0.36481 0.54911 0.21546 0.0
H1761 H 0.45782 0.50432 0.13517 0.0
H1762 H 0.42452 0.59697 0.12134 0.0
H1763 H 0.41501 0.61709 0.16196 0.0
C1764 C 0.38181 0.61016 0.18976 0.0
C1765 C 0.36669 0.59099 0.20418 0.0
C1766 C 0.43263 0.57703 0.1249 0.0
C1767 C 0.41115 0.57473 0.17219 0.0
C1768 C 0.44453 0.5634 0.10271 0.0
C1769 C 0.45334 0.53675 0.10559 0.0
C1770 C 0.42925 0.56379 0.1503 0.0
C1771 C 0.45106 0.52478 0.13178 0.0
C1772 C 0.40433 0.60216 0.17394 0.0
C1773 C 0.37613 0.56441 0.20458 0.0
N1774 N 0.4388 0.5382 0.15294 0.0
N1775 N 0.39751 0.55694 0.18835 0.0
H1776 H 0.81275 0.47739 0.71753 0.0
H1777 H 0.93425 0.55531 0.64349 0.0
H1778 H 0.83908 0.55542 0.74494 0.0
H1779 H 0.91745 0.47108 0.63208 0.0
H1780 H 0.90028 0.55665 0.68084 0.0
H1781 H 0.85053 0.47607 0.68475 0.0
C1782 C 0.82633 0.4944 0.71641 0.0
C1783 C 0.82264 0.51663 0.73384 0.0
C1784 C 0.90434 0.53784 0.67033 0.0
C1785 C 0.86637 0.5151 0.69658 0.0
C1786 C 0.92386 0.53701 0.64914 0.0
C1787 C 0.9285 0.51312 0.63436 0.0
C1788 C 0.88936 0.51467 0.67657 0.0
C1789 C 0.91435 0.49006 0.64258 0.0
C1790 C 0.84812 0.49352 0.69791 0.0
C1791 C 0.84126 0.53787 0.73189 0.0
N1792 N 0.89526 0.4915 0.66285 0.0
N1793 N 0.86228 0.53666 0.71349 0.0
H1794 H 0.47539 0.84157 0.68934 0.0
H1795 H 0.56961 0.90876 0.57406 0.0
H1796 H 0.51506 0.7957 0.62496 0.0
H1797 H 0.51645 0.95376 0.62852 0.0
H1798 H 0.55119 0.86705 0.59295 0.0
H1799 H 0.49136 0.88285 0.66781 0.0
C1800 C 0.4875 0.84023 0.67062 0.0
C1801 C 0.49409 0.81519 0.659 0.0
C1802 C 0.5435 0.88607 0.60066 0.0
C1803 C 0.51252 0.86241 0.63421 0.0
C1804 C 0.55408 0.90988 0.58998 0.0
C1805 C 0.54461 0.9348 0.59979 0.0
C1806 C 0.5235 0.88719 0.62147 0.0
C1807 C 0.52435 0.93503 0.62032 0.0
C1808 C 0.49652 0.8638 0.65827 0.0
C1809 C 0.50948 0.81462 0.63452 0.0
N1810 N 0.51458 0.91162 0.63055 0.0
N1811 N 0.51839 0.8379 0.62304 0.0
H1812 H 0.2432 0.62013 0.68288 0.0
H1813 H 0.18376 0.50266 0.58884 0.0
H1814 H 0.2541 0.53582 0.69933 0.0
H1815 H 0.15291 0.58409 0.58923 0.0
H1816 H 0.22099 0.51662 0.61907 0.0
H1817 H 0.22192 0.60888 0.63839 0.0
C1818 C 0.24192 0.5993 0.6766 0.0
C1819 C 0.25025 0.5788 0.69453 0.0
C1820 C 0.20634 0.5315 0.61206 0.0
C1821 C 0.22576 0.5658 0.64435 0.0
C1822 C 0.18508 0.52358 0.59477 0.0
C1823 C 0.16485 0.54213 0.58682 0.0
C1824 C 0.20745 0.55816 0.62138 0.0
C1825 C 0.16786 0.56902 0.59498 0.0
C1826 C 0.22963 0.59288 0.65142 0.0
C1827 C 0.24786 0.5521 0.68588 0.0
N1828 N 0.18853 0.57615 0.61211 0.0
N1829 N 0.23554 0.54632 0.66149 0.0
H1830 H 0.47785 0.19413 0.69477 0.0
H1831 H 0.47737 0.06192 0.6 0.0
H1832 H 0.43695 0.12122 0.71816 0.0
H1833 H 0.5325 0.12801 0.58906 0.0
H1834 H 0.45534 0.08633 0.63816 0.0
H1835 H 0.49096 0.17314 0.65098 0.0
C1836 C 0.47126 0.17384 0.69055 0.0
C1837 C 0.4564 0.15939 0.71032 0.0
C1838 C 0.47206 0.09558 0.62715 0.0
C1839 C 0.47161 0.13507 0.66015 0.0
C1840 C 0.48452 0.08168 0.60523 0.0
C1841 C 0.50703 0.09269 0.59148 0.0
C1842 C 0.482 0.12085 0.6351 0.0
C1843 C 0.51542 0.11853 0.59926 0.0
C1844 C 0.47892 0.16178 0.66558 0.0
C1845 C 0.44875 0.13299 0.70372 0.0
N1846 N 0.50304 0.13161 0.62056 0.0
N1847 N 0.45653 0.12165 0.67928 0.0
H1848 H 0.8219 0.46103 0.32412 0.0
H1849 H 0.88318 0.55758 0.4338 0.0
H1850 H 0.78861 0.5403 0.33713 0.0
H1851 H 0.89131 0.47141 0.43999 0.0
H1852 H 0.84507 0.55157 0.4019 0.0
H1853 H 0.84429 0.46346 0.36922 0.0
C1854 C 0.8189 0.4787 0.33687 0.0
C1855 C 0.80361 0.50053 0.32711 0.0
C1856 C 0.85483 0.534 0.41072 0.0
C1857 C 0.82959 0.50387 0.37818 0.0
C1858 C 0.87663 0.53741 0.42892 0.0
C1859 C 0.89098 0.51498 0.439 0.0
C1860 C 0.84767 0.50801 0.40228 0.0
C1861 C 0.88128 0.48933 0.43227 0.0
C1862 C 0.8316 0.48012 0.36257 0.0
C1863 C 0.80028 0.52308 0.34415 0.0
N1864 N 0.86064 0.48655 0.41384 0.0
N1865 N 0.81368 0.52443 0.3687 0.0
H1866 H 0.52089 0.7937 0.33656 0.0
H1867 H 0.55835 0.93279 0.40994 0.0
H1868 H 0.5901 0.84202 0.31433 0.0
H1869 H 0.4816 0.89219 0.42103 0.0
H1870 H 0.57481 0.89492 0.38223 0.0
H1871 H 0.51132 0.82433 0.37517 0.0
C1872 C 0.53454 0.81031 0.34032 0.0
C1873 C 0.55622 0.81545 0.32215 0.0
C1874 C 0.55445 0.89419 0.39093 0.0
C1875 C 0.54512 0.85085 0.36588 0.0
C1876 C 0.54502 0.91582 0.4068 0.0
C1877 C 0.51838 0.9159 0.41756 0.0
C1878 C 0.53715 0.87239 0.38573 0.0
C1879 C 0.50217 0.89318 0.41291 0.0
C1880 C 0.5289 0.82796 0.36216 0.0
C1881 C 0.57305 0.83748 0.32775 0.0
N1882 N 0.51172 0.87248 0.39717 0.0
N1883 N 0.56699 0.85451 0.3489 0.0
H1884 H 0.2432 0.57276 0.31005 0.0
H1885 H 0.10571 0.60459 0.39371 0.0
H1886 H 0.21457 0.65308 0.32779 0.0
H1887 H 0.1373 0.52471 0.37882 0.0
H1888 H 0.14227 0.6227 0.36495 0.0
H1889 H 0.20193 0.55493 0.33113 0.0
C1890 C 0.22813 0.58668 0.31819 0.0
C1891 C 0.23243 0.61449 0.31716 0.0
C1892 C 0.14101 0.60119 0.36776 0.0
C1893 C 0.18506 0.59413 0.34166 0.0
C1894 C 0.12002 0.59079 0.38406 0.0
C1895 C 0.11858 0.56306 0.38903 0.0
C1896 C 0.16068 0.58375 0.35634 0.0
C1897 C 0.1377 0.54623 0.37585 0.0
C1898 C 0.20457 0.57647 0.33034 0.0
C1899 C 0.21231 0.6315 0.32847 0.0
N1900 N 0.15807 0.55685 0.36037 0.0
N1901 N 0.18954 0.62105 0.3403 0.0
H1902 H 0.52617 0.23295 0.37001 0.0
H1903 H 0.47273 0.0837 0.38403 0.0
H1904 H 0.47989 0.1925 0.30685 0.0
H1905 H 0.5312 0.11722 0.44053 0.0
H1906 H 0.47892 0.12205 0.35345 0.0
H1907 H 0.53202 0.1901 0.39415 0.0
C1908 C 0.51751 0.21501 0.36104 0.0
C1909 C 0.50224 0.21644 0.33647 0.0
C1910 C 0.49082 0.12092 0.37227 0.0
C1911 C 0.50881 0.16728 0.36409 0.0
C1912 C 0.48729 0.09899 0.38973 0.0
C1913 C 0.50154 0.0973 0.41478 0.0
C1914 C 0.50827 0.14179 0.38017 0.0
C1915 C 0.52012 0.11763 0.42122 0.0
C1916 C 0.52096 0.19052 0.37479 0.0
C1917 C 0.49188 0.19244 0.32563 0.0
N1918 N 0.52263 0.13932 0.40423 0.0
N1919 N 0.49503 0.169 0.33968 0.0
H1920 H 0.67165 0.80074 0.51366 0.0
H1921 H 0.64285 0.93653 0.42941 0.0
H1922 H 0.72181 0.82641 0.44539 0.0
H1923 H 0.59168 0.90741 0.49539 0.0
H1924 H 0.67262 0.8972 0.43522 0.0
H1925 H 0.64287 0.84032 0.50748 0.0
C1926 C 0.67654 0.81459 0.49718 0.0
C1927 C 0.69913 0.80995 0.47983 0.0
C1928 C 0.6549 0.89944 0.44843 0.0
C1929 C 0.66622 0.85591 0.47289 0.0
C1930 C 0.63787 0.92192 0.44515 0.0
C1931 C 0.61468 0.92537 0.46196 0.0
C1932 C 0.64875 0.88023 0.4687 0.0
C1933 C 0.60929 0.90569 0.48195 0.0
C1934 C 0.66013 0.83736 0.49378 0.0
C1935 C 0.70474 0.82914 0.45934 0.0
N1936 N 0.62616 0.88406 0.48474 0.0
N1937 N 0.68836 0.85121 0.45639 0.0
H1938 H 0.64832 0.24683 0.49393 0.0
H1939 H 0.62778 0.08941 0.51686 0.0
H1940 H 0.71324 0.18853 0.48405 0.0
H1941 H 0.56476 0.14395 0.48954 0.0
H1942 H 0.65909 0.12757 0.52158 0.0
H1943 H 0.61795 0.21099 0.50882 0.0
C1944 C 0.65632 0.22654 0.49515 0.0
C1945 C 0.68324 0.22063 0.48697 0.0
C1946 C 0.63816 0.13121 0.51536 0.0
C1947 C 0.64858 0.17957 0.50457 0.0
C1948 C 0.62024 0.10955 0.51302 0.0
C1949 C 0.59371 0.11372 0.50294 0.0
C1950 C 0.62921 0.15707 0.5079 0.0
C1951 C 0.58506 0.14003 0.49749 0.0
C1952 C 0.63898 0.20614 0.50381 0.0
C1953 C 0.69264 0.19406 0.48996 0.0
N1954 N 0.60281 0.1607 0.49985 0.0
N1955 N 0.67521 0.17442 0.49814 0.0
H1956 H 0.83848 0.69772 0.4582 0.0
H1957 H 0.95237 0.62748 0.55303 0.0
H1958 H 0.87583 0.73272 0.53034 0.0
H1959 H 0.92268 0.58938 0.47896 0.0
H1960 H 0.92499 0.66676 0.54267 0.0
H1961 H 0.86854 0.65806 0.46363 0.0
C1962 C 0.85294 0.69711 0.4751 0.0
C1963 C 0.85483 0.7188 0.49362 0.0
C1964 C 0.92441 0.64999 0.52843 0.0
C1965 C 0.88917 0.67374 0.49987 0.0
C1966 C 0.94018 0.62745 0.53436 0.0
C1967 C 0.93977 0.60497 0.51692 0.0
C1968 C 0.90758 0.65027 0.50495 0.0
C1969 C 0.92366 0.6063 0.49291 0.0
C1970 C 0.87017 0.67458 0.47808 0.0
C1971 C 0.87395 0.71689 0.51514 0.0
N1972 N 0.90792 0.62851 0.48774 0.0
N1973 N 0.89022 0.69492 0.5176 0.0
H1974 H 0.28628 0.86306 0.48787 0.0
H1975 H 0.44229 0.89471 0.52296 0.0
H1976 H 0.33331 0.81897 0.54831 0.0
H1977 H 0.38714 0.95166 0.48499 0.0
H1978 H 0.40588 0.86136 0.52283 0.0
H1979 H 0.3264 0.89007 0.47755 0.0
C1980 C 0.30507 0.85891 0.49888 0.0
C1981 C 0.30618 0.839 0.51943 0.0
C1982 C 0.40189 0.88105 0.5142 0.0
C1983 C 0.3524 0.86968 0.50729 0.0
C1984 C 0.4227 0.90008 0.5141 0.0
C1985 C 0.41767 0.92616 0.50425 0.0
C1986 C 0.37595 0.88803 0.50411 0.0
C1987 C 0.39186 0.9319 0.49304 0.0
C1988 C 0.328 0.8743 0.49287 0.0
C1989 C 0.33141 0.83406 0.53234 0.0
N1990 N 0.37192 0.91306 0.49345 0.0
N1991 N 0.35344 0.84947 0.52625 0.0
H1992 H 0.2596 0.35772 0.48484 0.0
H1993 H 0.11008 0.41776 0.46177 0.0
H1994 H 0.19033 0.30759 0.46781 0.0
H1995 H 0.17683 0.46318 0.4957 0.0
H1996 H 0.13804 0.37687 0.46536 0.0
H1997 H 0.22886 0.39616 0.49065 0.0
C1998 C 0.23782 0.35479 0.48265 0.0
C1999 C 0.22749 0.32948 0.47573 0.0
C2000 C 0.14644 0.39575 0.47227 0.0
C2001 C 0.19205 0.37356 0.4819 0.0
C2002 C 0.1305 0.41913 0.47021 0.0
C2003 C 0.14118 0.44407 0.47818 0.0
C2004 C 0.17336 0.39732 0.48216 0.0
C2005 C 0.16774 0.44452 0.48908 0.0
C2006 C 0.22025 0.37673 0.48597 0.0
C2007 C 0.19909 0.32675 0.47326 0.0
N2008 N 0.18294 0.42162 0.49048 0.0
N2009 N 0.18236 0.34861 0.47596 0.0
H2010 H 0.29801 0.16161 0.54337 0.0
H2011 H 0.42182 0.08312 0.47024 0.0
H2012 H 0.32279 0.17994 0.46001 0.0
H2013 H 0.40827 0.08646 0.55837 0.0
H2014 H 0.38365 0.11518 0.46396 0.0
H2015 H 0.33654 0.13061 0.54738 0.0
C2016 C 0.31169 0.15914 0.52593 0.0
C2017 C 0.30723 0.17338 0.50136 0.0
C2018 C 0.38919 0.10882 0.48461 0.0
C2019 C 0.35146 0.13761 0.50564 0.0
C2020 C 0.41084 0.09046 0.48818 0.0
C2021 C 0.41834 0.08208 0.51486 0.0
C2022 C 0.37484 0.11848 0.50787 0.0
C2023 C 0.40341 0.09232 0.5374 0.0
C2024 C 0.33373 0.14145 0.5282 0.0
C2025 C 0.32569 0.16949 0.47941 0.0
N2026 N 0.38247 0.10979 0.53337 0.0
N2027 N 0.34693 0.1518 0.48197 0.0
H2028 H 0.8616 0.30554 0.43884 0.0
H2029 H 0.87849 0.44424 0.51996 0.0
H2030 H 0.80148 0.33729 0.49556 0.0
H2031 H 0.94328 0.40488 0.47452 0.0
H2032 H 0.84677 0.41001 0.50379 0.0
H2033 H 0.88818 0.34644 0.44435 0.0
C2034 C 0.85387 0.32125 0.45228 0.0
C2035 C 0.82951 0.3178 0.46714 0.0
C2036 C 0.86786 0.40903 0.49713 0.0
C2037 C 0.85984 0.36477 0.4735 0.0
C2038 C 0.886 0.4286 0.5063 0.0
C2039 C 0.91373 0.42718 0.49896 0.0
C2040 C 0.87747 0.38793 0.48042 0.0
C2041 C 0.92219 0.40659 0.48101 0.0
C2042 C 0.86904 0.34462 0.45538 0.0
C2043 C 0.82015 0.33908 0.48375 0.0
N2044 N 0.9042 0.38765 0.47258 0.0
N2045 N 0.83551 0.36154 0.48676 0.0
H2046 H 0.17968 0.72612 0.55903 0.0
H2047 H 0.13567 0.575 0.52531 0.0
H2048 H 0.23627 0.65975 0.55051 0.0
H2049 H 0.08003 0.64204 0.5201 0.0
H2050 H 0.17157 0.60527 0.54091 0.0
H2051 H 0.14198 0.69543 0.54981 0.0
C2052 C 0.18426 0.70517 0.55511 0.0
C2053 C 0.21134 0.69562 0.55554 0.0
C2054 C 0.15137 0.61337 0.53697 0.0
C2055 C 0.1681 0.66025 0.54549 0.0
C2056 C 0.13076 0.59598 0.52862 0.0
C2057 C 0.10467 0.60595 0.52255 0.0
C2058 C 0.14591 0.64103 0.53904 0.0
C2059 C 0.09978 0.63358 0.5253 0.0
C2060 C 0.16266 0.68762 0.55006 0.0
C2061 C 0.21581 0.66809 0.55083 0.0
N2062 N 0.12022 0.65021 0.53337 0.0
N2063 N 0.19448 0.65146 0.54601 0.0
loop_
_geom_bond_atom_site_label_1
_geom_bond_atom_site_label_2
_geom_bond_distance
_geom_bond_site_symmetry_2
_ccdc_geom_bond_type
H0 C1 0.949 . S
C1 H0 0.949 . S
C1 C2 1.395 . S
C1 C3 1.391 . S
C2 C1 1.395 . S
C2 C5 1.390 . S
C3 C1 1.391 . S
C3 C7 1.387 . S
C3 C8 1.491 . S
H4 C5 0.950 . S
C5 C2 1.390 . S
C5 H4 0.950 . S
C5 C6 1.378 . S
C6 C5 1.378 . S
C6 C7 1.409 . S
C7 C3 1.387 . S
C7 C6 1.409 . S
C7 H9 0.951 . S
C8 C3 1.491 . S
C8 C10 1.382 . S
C8 C12 1.404 . S
H9 C7 0.951 . S
C10 C8 1.382 . S
C10 C11 1.390 . S
C10 H15 0.949 . S
C11 C10 1.390 . S
C11 C16 1.399 . S
C12 C8 1.404 . S
C12 H13 0.950 1_455 S
C12 C14 1.375 1_455 S
H13 C12 0.950 1_655 S
C14 C12 1.375 1_655 S
C14 C16 1.382 1_655 S
C14 H18 0.950 . S
H15 C10 0.949 . S
C16 C11 1.399 . S
C16 C14 1.382 1_455 S
C16 H17 0.952 . S
H17 C16 0.952 . S
H18 C14 0.950 . S
H19 C20 0.949 . S
C20 H19 0.949 . S
C20 C21 1.395 . S
C20 C22 1.391 . S
C21 C20 1.395 . S
C21 C24 1.390 . S
C22 C20 1.391 . S
C22 C26 1.387 . S
C22 C27 1.491 . S
H23 C24 0.950 . S
C24 C21 1.390 . S
C24 H23 0.950 . S
C24 C25 1.378 . S
C25 C24 1.378 . S
C25 C26 1.409 . S
C26 C22 1.387 . S
C26 C25 1.409 . S
C26 H28 0.951 . S
C27 C22 1.491 . S
C27 C29 1.382 . S
C27 C31 1.404 . S
H28 C26 0.951 . S
C29 C27 1.382 . S
C29 C30 1.390 . S
C29 H34 0.949 . S
C30 C29 1.390 . S
C30 C35 1.399 . S
C31 C27 1.404 . S
C31 H32 0.950 . S
C31 C33 1.375 . S
H32 C31 0.950 . S
C33 C31 1.375 . S
C33 C35 1.382 . S
C33 H37 0.950 . S
H34 C29 0.949 . S
C35 C30 1.399 . S
C35 C33 1.382 . S
C35 H36 0.952 . S
H36 C35 0.952 . S
H37 C33 0.950 . S
H38 C39 0.949 . S
C39 H38 0.949 . S
C39 C40 1.395 . S
C39 C41 1.391 . S
C40 C39 1.395 . S
C40 C43 1.390 . S
C41 C39 1.391 . S
C41 C45 1.387 . S
C41 C46 1.491 . S
H42 C43 0.950 . S
C43 C40 1.390 . S
C43 H42 0.950 . S
C43 C44 1.378 . S
C44 C43 1.378 . S
C44 C45 1.409 . S
C45 C41 1.387 . S
C45 C44 1.409 . S
C45 H47 0.951 . S
C46 C41 1.491 . S
C46 C48 1.382 . S
C46 C50 1.404 1_455 S
H47 C45 0.951 . S
C48 C46 1.382 . S
C48 C49 1.390 . S
C48 H53 0.949 . S
C49 C48 1.390 . S
C49 C54 1.399 1_455 S
C50 C46 1.404 1_655 S
C50 H51 0.950 . S
C50 C52 1.375 . S
H51 C50 0.950 . S
C52 C50 1.375 . S
C52 C54 1.382 . S
C52 H56 0.950 . S
H53 C48 0.949 . S
C54 C49 1.399 1_655 S
C54 C52 1.382 . S
C54 H55 0.952 . S
H55 C54 0.952 . S
H56 C52 0.950 . S
H57 C58 0.949 . S
C58 H57 0.949 . S
C58 C59 1.395 1_565 S
C58 C60 1.391 . S
C59 C58 1.395 1_545 S
C59 C62 1.390 . S
C60 C58 1.391 . S
C60 C64 1.387 . S
C60 C65 1.491 . S
H61 C62 0.950 . S
C62 C59 1.390 . S
C62 H61 0.950 . S
C62 C63 1.378 . S
C63 C62 1.378 . S
C63 C64 1.409 1_545 S
C64 C60 1.387 . S
C64 C63 1.409 1_565 S
C64 H66 0.951 . S
C65 C60 1.491 . S
C65 C67 1.368 1_565 S
C65 C69 1.404 . S
H66 C64 0.951 . S
C67 C65 1.368 1_545 S
C67 C68 1.383 1_545 S
C67 H72 0.971 . S
C68 C67 1.383 1_565 S
C68 C73 1.399 . S
C69 C65 1.404 . S
C69 H70 0.950 . S
C69 C71 1.375 . S
H70 C69 0.950 . S
C71 C69 1.375 . S
C71 C73 1.382 . S
C71 H75 0.950 . S
H72 C67 0.971 . S
C73 C68 1.399 . S
C73 C71 1.382 . S
C73 H74 0.952 . S
H74 C73 0.952 . S
H75 C71 0.950 . S
H76 C77 0.949 . S
C77 H76 0.949 . S
C77 C78 1.392 1_655 S
C77 C79 1.391 . S
C78 C77 1.392 1_455 S
C78 C81 1.391 . S
C79 C77 1.391 . S
C79 C83 1.387 . S
C79 C84 1.491 . S
H80 C81 0.950 . S
C81 C78 1.391 . S
C81 H80 0.950 . S
C81 C82 1.379 . S
C82 C81 1.379 . S
C82 C83 1.406 1_455 S
C83 C79 1.387 . S
C83 C82 1.406 1_655 S
C83 H85 0.951 . S
C84 C79 1.491 . S
C84 C86 1.382 . S
C84 C88 1.404 . S
H85 C83 0.951 . S
C86 C84 1.382 . S
C86 C87 1.390 . S
C86 H91 0.949 1_655 S
C87 C86 1.390 . S
C87 C92 1.399 . S
C88 C84 1.404 . S
C88 H89 0.950 . S
C88 C90 1.375 . S
H89 C88 0.950 . S
C90 C88 1.375 . S
C90 C92 1.382 . S
C90 H94 0.950 . S
H91 C86 0.949 1_455 S
C92 C87 1.399 . S
C92 C90 1.382 . S
C92 H93 0.952 . S
H93 C92 0.952 . S
H94 C90 0.950 . S
H95 C96 0.949 . S
C96 H95 0.949 . S
C96 C97 1.395 . S
C96 C98 1.391 . S
C97 C96 1.395 . S
C97 C100 1.390 . S
C98 C96 1.391 . S
C98 C102 1.387 . S
C98 C103 1.491 . S
H99 C100 0.950 . S
C100 C97 1.390 . S
C100 H99 0.950 . S
C100 C101 1.378 . S
C101 C100 1.378 . S
C101 C102 1.409 . S
C102 C98 1.387 . S
C102 C101 1.409 . S
C102 H104 0.951 . S
C103 C98 1.491 . S
C103 C105 1.382 . S
C103 C107 1.404 . S
H104 C102 0.951 . S
C105 C103 1.382 . S
C105 C106 1.390 . S
C105 H110 0.949 1_545 S
C106 C105 1.390 . S
C106 C111 1.399 . S
C107 C103 1.404 . S
C107 H108 0.950 . S
C107 C109 1.375 . S
H108 C107 0.950 . S
C109 C107 1.375 . S
C109 C111 1.382 . S
C109 H113 0.950 . S
H110 C105 0.949 1_565 S
C111 C106 1.399 . S
C111 C109 1.382 . S
C111 H112 0.952 . S
H112 C111 0.952 . S
H113 C109 0.950 . S
H114 C115 0.949 . S
C115 H114 0.949 . S
C115 C116 1.395 . S
C115 C117 1.391 . S
C116 C115 1.395 . S
C116 C119 1.390 . S
C117 C115 1.391 . S
C117 C121 1.387 . S
C117 C122 1.491 . S
H118 C119 0.950 . S
C119 C116 1.390 . S
C119 H118 0.950 . S
C119 C120 1.378 . S
C120 C119 1.378 . S
C120 C121 1.409 . S
C121 C117 1.387 . S
C121 C120 1.409 . S
C121 H123 0.951 . S
C122 C117 1.491 . S
C122 C124 1.382 . S
C122 C126 1.404 1_455 S
H123 C121 0.951 . S
C124 C122 1.382 . S
C124 C125 1.390 . S
C124 H129 0.949 . S
C125 C124 1.390 . S
C125 C130 1.399 1_455 S
C126 C122 1.404 1_655 S
C126 H127 0.950 . S
C126 C128 1.375 . S
H127 C126 0.950 . S
C128 C126 1.375 . S
C128 C130 1.382 . S
C128 H132 0.950 . S
H129 C124 0.949 . S
C130 C125 1.399 1_655 S
C130 C128 1.382 . S
C130 H131 0.952 . S
H131 C130 0.952 . S
H132 C128 0.950 . S
H133 C134 0.949 . S
C134 H133 0.949 . S
C134 C135 1.395 . S
C134 C136 1.391 . S
C135 C134 1.395 . S
C135 C138 1.390 . S
C136 C134 1.391 . S
C136 C140 1.387 . S
C136 C141 1.491 . S
H137 C138 0.950 . S
C138 C135 1.390 . S
C138 H137 0.950 . S
C138 C139 1.378 . S
C139 C138 1.378 . S
C139 C140 1.409 . S
C140 C136 1.387 . S
C140 C139 1.409 . S
C140 H142 0.951 . S
C141 C136 1.491 . S
C141 C143 1.382 . S
C141 C145 1.404 . S
H142 C140 0.951 . S
C143 C141 1.382 . S
C143 C144 1.390 . S
C143 H148 0.949 . S
C144 C143 1.390 . S
C144 C149 1.399 . S
C145 C141 1.404 . S
C145 H146 0.950 . S
C145 C147 1.375 . S
H146 C145 0.950 . S
C147 C145 1.375 . S
C147 C149 1.382 . S
C147 H151 0.950 . S
H148 C143 0.949 . S
C149 C144 1.399 . S
C149 C147 1.382 . S
C149 H150 0.952 . S
H150 C149 0.952 . S
H151 C147 0.950 . S
H152 C153 0.949 . S
C153 H152 0.949 . S
C153 C154 1.395 . S
C153 C155 1.391 . S
C154 C153 1.395 . S
C154 C157 1.390 . S
C155 C153 1.391 . S
C155 C159 1.387 . S
C155 C160 1.491 . S
H156 C157 0.950 . S
C157 C154 1.390 . S
C157 H156 0.950 . S
C157 C158 1.378 . S
C158 C157 1.378 . S
C158 C159 1.409 . S
C159 C155 1.387 . S
C159 C158 1.409 . S
C159 H161 0.951 . S
C160 C155 1.491 . S
C160 C162 1.382 . S
C160 C164 1.404 . S
H161 C159 0.951 . S
C162 C160 1.382 . S
C162 C163 1.390 . S
C162 H167 0.949 . S
C163 C162 1.390 . S
C163 C168 1.399 . S
C164 C160 1.404 . S
C164 H165 0.950 . S
C164 C166 1.375 . S
H165 C164 0.950 . S
C166 C164 1.375 . S
C166 C168 1.382 . S
C166 H170 0.950 . S
H167 C162 0.949 . S
C168 C163 1.399 . S
C168 C166 1.382 . S
C168 H169 0.952 . S
H169 C168 0.952 . S
H170 C166 0.950 . S
H171 C172 0.949 . S
C172 H171 0.949 . S
C172 C173 1.395 . S
C172 C174 1.391 . S
C173 C172 1.395 . S
C173 C176 1.390 . S
C174 C172 1.391 . S
C174 C178 1.387 . S
C174 C179 1.499 . S
H175 C176 0.950 . S
C176 C173 1.390 . S
C176 H175 0.950 . S
C176 C177 1.378 . S
C177 C176 1.378 . S
C177 C178 1.409 . S
C178 C174 1.387 . S
C178 C177 1.409 . S
C178 H180 0.951 . S
C179 C174 1.499 . S
C179 C181 1.397 . S
C179 C183 1.380 1_554 S
H180 C178 0.951 . S
C181 C179 1.397 . S
C181 C182 1.390 . S
C181 H186 0.949 . S
C182 C181 1.390 . S
C182 C187 1.399 1_554 S
C183 C179 1.380 1_556 S
C183 H184 0.950 . S
C183 C185 1.375 . S
H184 C183 0.950 . S
C185 C183 1.375 . S
C185 C187 1.382 . S
C185 H189 0.950 . S
H186 C181 0.949 . S
C187 C182 1.399 1_556 S
C187 C185 1.382 . S
C187 H188 0.952 . S
H188 C187 0.952 . S
H189 C185 0.950 . S
H190 C191 0.949 . S
C191 H190 0.949 . S
C191 C192 1.395 . S
C191 C193 1.391 . S
C192 C191 1.395 . S
C192 C195 1.390 . S
C193 C191 1.391 . S
C193 C197 1.387 . S
C193 C198 1.491 . S
H194 C195 0.944 1_556 S
C195 C192 1.390 . S
C195 H194 0.944 1_554 S
C195 C196 1.378 . S
C196 C195 1.378 . S
C196 C197 1.409 . S
C197 C193 1.387 . S
C197 C196 1.409 . S
C197 H199 0.951 . S
C198 C193 1.491 . S
C198 C200 1.382 . S
C198 C202 1.404 . S
H199 C197 0.951 . S
C200 C198 1.382 . S
C200 C201 1.390 . S
C200 H205 0.949 1_554 S
C201 C200 1.390 . S
C201 C206 1.399 . S
C202 C198 1.404 . S
C202 H203 0.950 . S
C202 C204 1.375 . S
H203 C202 0.950 . S
C204 C202 1.375 . S
C204 C206 1.382 . S
C204 H208 0.950 . S
H205 C200 0.949 1_556 S
C206 C201 1.399 . S
C206 C204 1.382 . S
C206 H207 0.952 . S
H207 C206 0.952 . S
H208 C204 0.950 . S
H209 C210 0.949 . S
C210 H209 0.949 . S
C210 C211 1.398 . S
C210 C212 1.388 1_554 S
C211 C210 1.398 . S
C211 C214 1.390 . S
C212 C210 1.388 1_556 S
C212 C216 1.390 . S
C212 C217 1.491 . S
H213 C214 0.950 . S
C214 C211 1.390 . S
C214 H213 0.950 . S
C214 C215 1.378 . S
C215 C214 1.378 . S
C215 C216 1.404 1_554 S
C216 C212 1.390 . S
C216 C215 1.404 1_556 S
C216 H218 0.955 . S
C217 C212 1.491 . S
C217 C219 1.382 1_556 S
C217 C221 1.404 . S
H218 C216 0.955 . S
C219 C217 1.382 1_554 S
C219 C220 1.390 1_554 S
C219 H224 0.949 . S
C220 C219 1.390 1_556 S
C220 C225 1.399 . S
C221 C217 1.404 . S
C221 H222 0.950 . S
C221 C223 1.375 . S
H222 C221 0.950 . S
C223 C221 1.375 . S
C223 C225 1.382 . S
C223 H227 0.950 . S
H224 C219 0.949 . S
C225 C220 1.399 . S
C225 C223 1.382 . S
C225 H226 0.952 . S
H226 C225 0.952 . S
H227 C223 0.950 . S
H228 C229 0.949 . S
C229 H228 0.949 . S
C229 C230 1.395 . S
C229 C231 1.391 . S
C230 C229 1.395 . S
C230 C233 1.390 . S
C231 C229 1.391 . S
C231 C235 1.387 . S
C231 C236 1.491 . S
H232 C233 0.950 . S
C233 C230 1.390 . S
C233 H232 0.950 . S
C233 C234 1.378 . S
C234 C233 1.378 . S
C234 C235 1.409 . S
C235 C231 1.387 . S
C235 C234 1.409 . S
C235 H237 0.951 . S
C236 C231 1.491 . S
C236 C238 1.382 . S
C236 C240 1.404 . S
H237 C235 0.951 . S
C238 C236 1.382 . S
C238 C239 1.390 . S
C238 H243 0.949 . S
C239 C238 1.390 . S
C239 C244 1.399 . S
C240 C236 1.404 . S
C240 H241 0.950 . S
C240 C242 1.375 . S
H241 C240 0.950 . S
C242 C240 1.375 . S
C242 C244 1.382 . S
C242 H246 0.950 . S
H243 C238 0.949 . S
C244 C239 1.399 . S
C244 C242 1.382 . S
C244 H245 0.952 . S
H245 C244 0.952 . S
H246 C242 0.950 . S
H247 C248 0.949 . S
C248 H247 0.949 . S
C248 C249 1.395 . S
C248 C250 1.391 . S
C249 C248 1.395 . S
C249 C252 1.390 . S
C250 C248 1.391 . S
C250 C254 1.387 . S
C250 C255 1.491 . S
H251 C252 0.950 . S
C252 C249 1.390 . S
C252 H251 0.950 . S
C252 C253 1.378 . S
C253 C252 1.378 . S
C253 C254 1.409 . S
C254 C250 1.387 . S
C254 C253 1.409 . S
C254 H256 0.951 . S
C255 C250 1.491 . S
C255 C257 1.382 . S
C255 C259 1.404 . S
H256 C254 0.951 . S
C257 C255 1.382 . S
C257 C258 1.390 . S
C257 H262 0.949 . S
C258 C257 1.390 . S
C258 C263 1.399 . S
C259 C255 1.404 . S
C259 H260 0.950 . S
C259 C261 1.375 . S
H260 C259 0.950 . S
C261 C259 1.375 . S
C261 C263 1.382 . S
C261 H265 0.950 . S
H262 C257 0.949 . S
C263 C258 1.399 . S
C263 C261 1.382 . S
C263 H264 0.952 . S
H264 C263 0.952 . S
H265 C261 0.950 . S
H266 C267 0.949 . S
C267 H266 0.949 . S
C267 C268 1.395 . S
C267 C269 1.391 . S
C268 C267 1.395 . S
C268 C271 1.390 . S
C269 C267 1.391 . S
C269 C273 1.387 . S
C269 C274 1.491 . S
H270 C271 0.950 . S
C271 C268 1.390 . S
C271 H270 0.950 . S
C271 C272 1.378 . S
C272 C271 1.378 . S
C272 C273 1.409 . S
C273 C269 1.387 . S
C273 C272 1.409 . S
C273 H275 0.951 . S
C274 C269 1.491 . S
C274 C276 1.382 . S
C274 C278 1.404 . S
H275 C273 0.951 . S
C276 C274 1.382 . S
C276 C277 1.390 . S
C276 H281 0.949 . S
C277 C276 1.390 . S
C277 C282 1.399 . S
C278 C274 1.404 . S
C278 H279 0.950 . S
C278 C280 1.375 . S
H279 C278 0.950 . S
C280 C278 1.375 . S
C280 C282 1.382 . S
C280 H284 0.950 . S
H281 C276 0.949 . S
C282 C277 1.399 . S
C282 C280 1.382 . S
C282 H283 0.952 . S
H283 C282 0.952 . S
H284 C280 0.950 . S
H285 C286 0.949 . S
C286 H285 0.949 . S
C286 C287 1.395 . S
C286 C288 1.391 . S
C287 C286 1.395 . S
C287 C290 1.390 . S
C288 C286 1.391 . S
C288 C292 1.387 . S
C288 C293 1.491 . S
H289 C290 0.950 . S
C290 C287 1.390 . S
C290 H289 0.950 . S
C290 C291 1.378 . S
C291 C290 1.378 . S
C291 C292 1.409 . S
C292 C288 1.387 . S
C292 C291 1.409 . S
C292 H294 0.951 . S
C293 C288 1.491 . S
C293 C295 1.382 . S
C293 C297 1.404 . S
H294 C292 0.951 . S
C295 C293 1.382 . S
C295 C296 1.390 . S
C295 H300 0.949 . S
C296 C295 1.390 . S
C296 C301 1.399 . S
C297 C293 1.404 . S
C297 H298 0.950 . S
C297 C299 1.375 . S
H298 C297 0.950 . S
C299 C297 1.375 . S
C299 C301 1.382 . S
C299 H303 0.950 . S
H300 C295 0.949 . S
C301 C296 1.399 . S
C301 C299 1.382 . S
C301 H302 0.952 . S
H302 C301 0.952 . S
H303 C299 0.950 . S
H304 C305 0.949 . S
C305 H304 0.949 . S
C305 C306 1.395 . S
C305 C307 1.391 . S
C306 C305 1.395 . S
C306 C309 1.390 . S
C307 C305 1.391 . S
C307 C311 1.387 . S
C307 C312 1.491 . S
H308 C309 0.950 . S
C309 C306 1.390 . S
C309 H308 0.950 . S
C309 C310 1.378 . S
C310 C309 1.378 . S
C310 C311 1.409 . S
C311 C307 1.387 . S
C311 C310 1.409 . S
C311 H313 0.951 . S
C312 C307 1.491 . S
C312 C314 1.382 . S
C312 C316 1.404 . S
H313 C311 0.951 . S
C314 C312 1.382 . S
C314 C315 1.390 . S
C314 H319 0.949 . S
C315 C314 1.390 . S
C315 C320 1.399 . S
C316 C312 1.404 . S
C316 H317 0.950 . S
C316 C318 1.375 . S
H317 C316 0.950 . S
C318 C316 1.375 . S
C318 C320 1.382 . S
C318 H322 0.950 . S
H319 C314 0.949 . S
C320 C315 1.399 . S
C320 C318 1.382 . S
C320 H321 0.952 . S
H321 C320 0.952 . S
H322 C318 0.950 . S
H323 C324 0.949 . S
C324 H323 0.949 . S
C324 C325 1.395 . S
C324 C326 1.391 . S
C325 C324 1.395 . S
C325 C328 1.390 . S
C326 C324 1.391 . S
C326 C330 1.387 . S
C326 C331 1.491 . S
H327 C328 0.950 . S
C328 C325 1.390 . S
C328 H327 0.950 . S
C328 C329 1.378 . S
C329 C328 1.378 . S
C329 C330 1.409 . S
C330 C326 1.387 . S
C330 C329 1.409 . S
C330 H332 0.951 . S
C331 C326 1.491 . S
C331 C333 1.382 . S
C331 C335 1.404 . S
H332 C330 0.951 . S
C333 C331 1.382 . S
C333 C334 1.390 . S
C333 H338 0.949 . S
C334 C333 1.390 . S
C334 C339 1.399 . S
C335 C331 1.404 . S
C335 H336 0.950 . S
C335 C337 1.375 . S
H336 C335 0.950 . S
C337 C335 1.375 . S
C337 C339 1.382 . S
C337 H341 0.950 . S
H338 C333 0.949 . S
C339 C334 1.399 . S
C339 C337 1.382 . S
C339 H340 0.952 . S
H340 C339 0.952 . S
H341 C337 0.950 . S
H342 C343 0.949 . S
C343 H342 0.949 . S
C343 C344 1.395 . S
C343 C345 1.391 . S
C344 C343 1.395 . S
C344 C347 1.390 . S
C345 C343 1.391 . S
C345 C349 1.387 . S
C345 C350 1.491 . S
H346 C347 0.950 . S
C347 C344 1.390 . S
C347 H346 0.950 . S
C347 C348 1.378 . S
C348 C347 1.378 . S
C348 C349 1.409 . S
C349 C345 1.387 . S
C349 C348 1.409 . S
C349 H351 0.951 . S
C350 C345 1.491 . S
C350 C352 1.382 . S
C350 C354 1.404 . S
H351 C349 0.951 . S
C352 C350 1.382 . S
C352 C353 1.390 . S
C352 H357 0.949 . S
C353 C352 1.390 . S
C353 C358 1.399 . S
C354 C350 1.404 . S
C354 H355 0.950 . S
C354 C356 1.375 . S
H355 C354 0.950 . S
C356 C354 1.375 . S
C356 C358 1.382 . S
C356 H360 0.950 . S
H357 C352 0.949 . S
C358 C353 1.399 . S
C358 C356 1.382 . S
C358 H359 0.952 . S
H359 C358 0.952 . S
H360 C356 0.950 . S
H361 C362 0.949 . S
C362 H361 0.949 . S
C362 C363 1.395 . S
C362 C364 1.391 . S
C363 C362 1.395 . S
C363 C366 1.390 . S
C364 C362 1.391 . S
C364 C368 1.387 . S
C364 C369 1.491 . S
H365 C366 0.950 . S
C366 C363 1.390 . S
C366 H365 0.950 . S
C366 C367 1.378 . S
C367 C366 1.378 . S
C367 C368 1.409 . S
C368 C364 1.387 . S
C368 C367 1.409 . S
C368 H370 0.951 . S
C369 C364 1.491 . S
C369 C371 1.382 . S
C369 C373 1.404 . S
H370 C368 0.951 . S
C371 C369 1.382 . S
C371 C372 1.390 . S
C371 H376 0.949 . S
C372 C371 1.390 . S
C372 C377 1.399 . S
C373 C369 1.404 . S
C373 H374 0.950 . S
C373 C375 1.375 . S
H374 C373 0.950 . S
C375 C373 1.375 . S
C375 C377 1.382 . S
C375 H379 0.950 . S
H376 C371 0.949 . S
C377 C372 1.399 . S
C377 C375 1.382 . S
C377 H378 0.952 . S
H378 C377 0.952 . S
H379 C375 0.950 . S
H380 C381 0.949 . S
C381 H380 0.949 . S
C381 C382 1.395 . S
C381 C383 1.391 . S
C382 C381 1.395 . S
C382 C385 1.390 . S
C383 C381 1.391 . S
C383 C387 1.387 . S
C383 C388 1.491 . S
H384 C385 0.950 . S
C385 C382 1.390 . S
C385 H384 0.950 . S
C385 C386 1.378 . S
C386 C385 1.378 . S
C386 C387 1.409 . S
C387 C383 1.387 . S
C387 C386 1.409 . S
C387 H389 0.951 . S
C388 C383 1.491 . S
C388 C390 1.382 . S
C388 C392 1.404 . S
H389 C387 0.951 . S
C390 C388 1.382 . S
C390 C391 1.390 . S
C390 H395 0.949 . S
C391 C390 1.390 . S
C391 C396 1.399 . S
C392 C388 1.404 . S
C392 H393 0.950 . S
C392 C394 1.375 . S
H393 C392 0.950 . S
C394 C392 1.375 . S
C394 C396 1.382 . S
C394 H398 0.950 . S
H395 C390 0.949 . S
C396 C391 1.399 . S
C396 C394 1.382 . S
C396 H397 0.952 . S
H397 C396 0.952 . S
H398 C394 0.950 . S
H399 C400 0.949 . S
C400 H399 0.949 . S
C400 C401 1.395 . S
C400 C402 1.391 . S
C401 C400 1.395 . S
C401 C404 1.390 . S
C402 C400 1.391 . S
C402 C406 1.387 . S
C402 C407 1.491 . S
H403 C404 0.950 . S
C404 C401 1.390 . S
C404 H403 0.950 . S
C404 C405 1.378 . S
C405 C404 1.378 . S
C405 C406 1.409 . S
C406 C402 1.387 . S
C406 C405 1.409 . S
C406 H408 0.951 . S
C407 C402 1.491 . S
C407 C409 1.382 . S
C407 C411 1.404 . S
H408 C406 0.951 . S
C409 C407 1.382 . S
C409 C410 1.390 . S
C409 H414 0.949 . S
C410 C409 1.390 . S
C410 C415 1.399 . S
C411 C407 1.404 . S
C411 H412 0.950 . S
C411 C413 1.375 . S
H412 C411 0.950 . S
C413 C411 1.375 . S
C413 C415 1.382 . S
C413 H417 0.950 . S
H414 C409 0.949 . S
C415 C410 1.399 . S
C415 C413 1.382 . S
C415 H416 0.952 . S
H416 C415 0.952 . S
H417 C413 0.950 . S
H418 C419 0.949 . S
C419 H418 0.949 . S
C419 C420 1.395 . S
C419 C421 1.391 . S
C420 C419 1.395 . S
C420 C423 1.390 . S
C421 C419 1.391 . S
C421 C425 1.387 . S
C421 C426 1.491 . S
H422 C423 0.950 . S
C423 C420 1.390 . S
C423 H422 0.950 . S
C423 C424 1.378 . S
C424 C423 1.378 . S
C424 C425 1.409 . S
C425 C421 1.387 . S
C425 C424 1.409 . S
C425 H427 0.951 . S
C426 C421 1.491 . S
C426 C428 1.382 . S
C426 C430 1.404 . S
H427 C425 0.951 . S
C428 C426 1.382 . S
C428 C429 1.390 . S
C428 H433 0.949 . S
C429 C428 1.390 . S
C429 C434 1.399 . S
C430 C426 1.404 . S
C430 H431 0.950 . S
C430 C432 1.375 . S
H431 C430 0.950 . S
C432 C430 1.375 . S
C432 C434 1.382 . S
C432 H436 0.950 . S
H433 C428 0.949 . S
C434 C429 1.399 . S
C434 C432 1.382 . S
C434 H435 0.952 . S
H435 C434 0.952 . S
H436 C432 0.950 . S
H437 C438 0.949 . S
C438 H437 0.949 . S
C438 C439 1.395 . S
C438 C440 1.391 . S
C439 C438 1.395 . S
C439 C442 1.390 . S
C440 C438 1.391 . S
C440 C444 1.387 . S
C440 C445 1.491 . S
H441 C442 0.950 . S
C442 C439 1.390 . S
C442 H441 0.950 . S
C442 C443 1.378 . S
C443 C442 1.378 . S
C443 C444 1.409 . S
C444 C440 1.387 . S
C444 C443 1.409 . S
C444 H446 0.951 . S
C445 C440 1.491 . S
C445 C447 1.382 . S
C445 C449 1.404 . S
H446 C444 0.951 . S
C447 C445 1.382 . S
C447 C448 1.390 . S
C447 H452 0.949 . S
C448 C447 1.390 . S
C448 C453 1.399 . S
C449 C445 1.404 . S
C449 H450 0.950 . S
C449 C451 1.375 . S
H450 C449 0.950 . S
C451 C449 1.375 . S
C451 C453 1.382 . S
C451 H455 0.950 . S
H452 C447 0.949 . S
C453 C448 1.399 . S
C453 C451 1.382 . S
C453 H454 0.952 . S
H454 C453 0.952 . S
H455 C451 0.950 . S
Zn456 O458 1.933 1_665 S
Zn456 O476 1.985 . S
Zn456 O487 1.948 1_655 S
Zn457 O458 1.911 1_655 S
Zn457 O477 1.970 . S
Zn457 O493 1.945 1_655 S
Zn457 O500 1.981 . S
O458 Zn456 1.933 1_445 S
O458 Zn457 1.911 1_455 S
O458 H459 0.841 . S
H459 O458 0.841 . S
C460 O461 1.246 . S
C460 O489 1.276 . S
O461 C460 1.246 . S
Zn462 O464 1.911 . S
Zn462 O479 1.970 . S
Zn462 O496 1.945 . S
Zn462 O503 1.981 . S
Zn463 O464 1.933 1_565 S
Zn463 O478 1.985 . S
Zn463 O485 1.955 . S
O464 Zn462 1.911 . S
O464 Zn463 1.933 1_545 S
O464 H465 0.841 . S
H465 O464 0.841 . S
Zn466 O467 1.933 1_565 S
Zn466 O480 1.985 . S
Zn466 O489 1.955 . S
O467 Zn466 1.933 1_545 S
O467 Zn468 1.911 . S
O467 H469 0.841 . S
Zn468 O467 1.911 . S
Zn468 O481 1.970 . S
Zn468 O497 1.981 1_655 S
Zn468 O499 1.945 . S
H469 O467 0.841 . S
Zn470 O471 1.933 1_565 S
Zn470 O483 1.985 . S
Zn470 O491 1.955 . S
O471 Zn470 1.933 1_545 S
O471 H472 0.841 . S
O471 Zn473 1.911 . S
H472 O471 0.841 . S
Zn473 O471 1.911 . S
Zn473 O484 1.970 . S
Zn473 O494 1.981 . S
Zn473 O502 1.945 . S
C474 O475 1.246 . S
C474 O491 1.276 . S
O475 C474 1.246 . S
O476 Zn456 1.985 . S
O476 C486 1.245 1_565 S
O477 Zn457 1.970 . S
O477 C486 1.263 . S
O478 Zn463 1.985 . S
O478 C490 1.245 1_565 S
O479 Zn462 1.970 . S
O479 C490 1.263 . S
O480 Zn466 1.985 . S
O480 C495 1.245 1_565 S
O481 Zn468 1.970 . S
O481 C495 1.263 . S
C482 O493 1.262 . S
C482 O494 1.245 . S
O483 Zn470 1.985 . S
O483 C501 1.245 1_565 S
O484 Zn473 1.970 . S
O484 C501 1.263 . S
O485 Zn463 1.955 . S
O485 C504 1.276 . S
C486 O476 1.245 1_545 S
C486 O477 1.263 . S
O487 Zn456 1.948 1_455 S
O487 C506 1.303 . S
C488 O496 1.262 . S
C488 O497 1.245 . S
O489 C460 1.276 . S
O489 Zn466 1.955 . S
C490 O478 1.245 1_545 S
C490 O479 1.263 . S
O491 Zn470 1.955 . S
O491 C474 1.276 . S
C492 O499 1.262 . S
C492 O500 1.245 . S
O493 Zn457 1.945 1_455 S
O493 C482 1.262 . S
O494 Zn473 1.981 . S
O494 C482 1.245 . S
C495 O480 1.245 1_545 S
C495 O481 1.263 . S
O496 Zn462 1.945 . S
O496 C488 1.262 . S
O497 Zn468 1.981 1_455 S
O497 C488 1.245 . S
C498 O502 1.262 . S
C498 O503 1.245 . S
O499 Zn468 1.945 . S
O499 C492 1.262 . S
O500 Zn457 1.981 . S
O500 C492 1.245 . S
C501 O483 1.245 1_545 S
C501 O484 1.263 . S
O502 Zn473 1.945 . S
O502 C498 1.262 . S
O503 Zn462 1.981 . S
O503 C498 1.245 . S
C504 O485 1.276 . S
C504 O505 1.246 . S
O505 C504 1.246 . S
C506 O487 1.303 . S
C506 O507 1.246 . S
O507 C506 1.246 . S
Zn508 O510 1.933 . S
Zn508 O528 1.985 . S
Zn508 O539 1.955 . S
Zn509 O510 1.911 1_556 S
Zn509 O529 1.970 . S
Zn509 O545 1.945 . S
Zn509 O552 1.981 . S
O510 Zn508 1.933 . S
O510 Zn509 1.911 1_554 S
O510 H511 0.841 . S
H511 O510 0.841 . S
C512 O513 1.246 . S
C512 O541 1.276 . S
O513 C512 1.246 . S
Zn514 O516 1.911 1_556 S
Zn514 O531 1.970 . S
Zn514 O548 1.945 . S
Zn514 O555 1.981 . S
Zn515 O516 1.933 . S
Zn515 O530 1.985 . S
Zn515 O537 1.955 . S
O516 Zn514 1.911 1_554 S
O516 Zn515 1.933 . S
O516 H517 0.841 1_565 S
H517 O516 0.841 1_545 S
Zn518 O519 1.933 . S
Zn518 O532 1.985 . S
Zn518 O541 1.955 . S
O519 Zn518 1.933 . S
O519 Zn520 1.911 1_554 S
O519 H521 0.841 . S
Zn520 O519 1.911 1_556 S
Zn520 O533 1.970 . S
Zn520 O549 1.981 . S
Zn520 O551 1.945 . S
H521 O519 0.841 . S
Zn522 O523 1.933 . S
Zn522 O535 1.985 . S
Zn522 O543 1.955 . S
O523 Zn522 1.933 . S
O523 H524 0.841 . S
O523 Zn525 1.911 1_554 S
H524 O523 0.841 . S
Zn525 O523 1.911 1_556 S
Zn525 O536 1.970 . S
Zn525 O546 1.981 1_565 S
Zn525 O554 1.945 . S
C526 O527 1.246 . S
C526 O543 1.276 . S
O527 C526 1.246 . S
O528 Zn508 1.985 . S
O528 C538 1.245 . S
O529 Zn509 1.970 . S
O529 C538 1.263 1_556 S
O530 Zn515 1.985 . S
O530 C542 1.245 . S
O531 Zn514 1.970 . S
O531 C542 1.263 1_556 S
O532 Zn518 1.985 . S
O532 C547 1.245 . S
O533 Zn520 1.970 . S
O533 C547 1.263 1_556 S
C534 O545 1.262 . S
C534 O546 1.245 . S
O535 Zn522 1.985 . S
O535 C553 1.245 . S
O536 Zn525 1.970 . S
O536 C553 1.263 1_556 S
O537 Zn515 1.955 . S
O537 C556 1.276 1_565 S
C538 O528 1.245 . S
C538 O529 1.263 1_554 S
O539 Zn508 1.955 . S
O539 C558 1.276 . S
C540 O548 1.262 1_545 S
C540 O549 1.245 . S
O541 C512 1.276 . S
O541 Zn518 1.955 . S
C542 O530 1.245 . S
C542 O531 1.263 1_554 S
O543 Zn522 1.955 . S
O543 C526 1.276 . S
C544 O551 1.262 . S
C544 O552 1.245 . S
O545 Zn509 1.945 . S
O545 C534 1.262 . S
O546 Zn525 1.981 1_545 S
O546 C534 1.245 . S
C547 O532 1.245 . S
C547 O533 1.263 1_554 S
O548 Zn514 1.945 . S
O548 C540 1.262 1_565 S
O549 Zn520 1.981 . S
O549 C540 1.245 . S
C550 O554 1.262 . S
C550 O555 1.245 . S
O551 Zn520 1.945 . S
O551 C544 1.262 . S
O552 Zn509 1.981 . S
O552 C544 1.245 . S
C553 O535 1.245 . S
C553 O536 1.263 1_554 S
O554 Zn525 1.945 . S
O554 C550 1.262 . S
O555 Zn514 1.981 . S
O555 C550 1.245 . S
C556 O537 1.276 1_545 S
C556 O557 1.246 . S
O557 C556 1.246 . S
C558 O539 1.276 . S
C558 O559 1.246 . S
O559 C558 1.246 . S
Zn560 O562 1.933 . S
Zn560 O580 1.985 . S
Zn560 O591 1.955 . S
Zn561 O562 1.911 . S
Zn561 O581 1.970 . S
Zn561 O597 1.945 . S
Zn561 O604 1.981 . S
O562 Zn560 1.933 . S
O562 Zn561 1.911 . S
O562 H563 0.841 1_655 S
H563 O562 0.841 1_455 S
C564 O565 1.246 1_554 S
C564 O593 1.276 . S
O565 C564 1.246 1_556 S
Zn566 O568 1.911 . S
Zn566 O583 1.970 . S
Zn566 O600 1.945 . S
Zn566 O607 1.981 . S
Zn567 O568 1.933 . S
Zn567 O582 1.985 . S
Zn567 O589 1.955 . S
O568 Zn566 1.911 . S
O568 Zn567 1.933 . S
O568 H569 0.841 . S
H569 O568 0.841 . S
Zn570 O571 1.933 . S
Zn570 O584 1.985 . S
Zn570 O593 1.955 . S
O571 Zn570 1.933 . S
O571 Zn572 1.911 . S
O571 H573 0.841 . S
Zn572 O571 1.911 . S
Zn572 O585 1.970 . S
Zn572 O601 1.992 . S
Zn572 O603 1.945 . S
H573 O571 0.841 . S
Zn574 O575 1.933 . S
Zn574 O587 1.985 . S
Zn574 O595 1.955 . S
O575 Zn574 1.933 . S
O575 H576 0.841 . S
O575 Zn577 1.911 . S
H576 O575 0.841 . S
Zn577 O575 1.911 . S
Zn577 O588 1.970 . S
Zn577 O598 1.981 . S
Zn577 O606 1.945 . S
C578 O579 1.246 . S
C578 O595 1.276 1_554 S
O579 C578 1.246 . S
O580 Zn560 1.985 . S
O580 C590 1.245 . S
O581 Zn561 1.970 . S
O581 C590 1.263 . S
O582 Zn567 1.985 . S
O582 C594 1.245 . S
O583 Zn566 1.970 . S
O583 C594 1.263 . S
O584 Zn570 1.985 . S
O584 C599 1.245 . S
O585 Zn572 1.970 . S
O585 C599 1.263 . S
C586 O597 1.262 1_455 S
C586 O598 1.245 . S
O587 Zn574 1.985 . S
O587 C605 1.245 . S
O588 Zn577 1.970 . S
O588 C605 1.263 . S
O589 Zn567 1.955 . S
O589 C608 1.276 . S
C590 O580 1.245 . S
C590 O581 1.263 . S
O591 Zn560 1.955 . S
O591 C610 1.276 1_655 S
C592 O600 1.262 . S
C592 O601 1.238 1_455 S
O593 C564 1.276 . S
O593 Zn570 1.955 . S
C594 O582 1.245 . S
C594 O583 1.263 . S
O595 Zn574 1.955 . S
O595 C578 1.276 1_556 S
C596 O603 1.262 . S
C596 O604 1.245 1_554 S
O597 Zn561 1.945 . S
O597 C586 1.262 1_655 S
O598 Zn577 1.981 . S
O598 C586 1.245 . S
C599 O584 1.245 . S
C599 O585 1.263 . S
O600 Zn566 1.945 . S
O600 C592 1.262 . S
O601 Zn572 1.992 . S
O601 C592 1.238 1_655 S
C602 O606 1.262 1_554 S
C602 O607 1.245 . S
O603 Zn572 1.945 . S
O603 C596 1.262 . S
O604 Zn561 1.981 . S
O604 C596 1.245 1_556 S
C605 O587 1.245 . S
C605 O588 1.263 . S
O606 Zn577 1.945 . S
O606 C602 1.262 1_556 S
O607 Zn566 1.981 . S
O607 C602 1.245 . S
C608 O589 1.276 . S
C608 O609 1.246 . S
O609 C608 1.246 . S
C610 O591 1.276 1_455 S
C610 O611 1.246 . S
O611 C610 1.246 . S
Zn612 O614 1.933 1_556 S
Zn612 O632 1.985 . S
Zn612 O643 1.955 . S
Zn613 O614 1.911 . S
Zn613 O633 1.970 . S
Zn613 O649 1.945 . S
Zn613 O656 1.981 . S
O614 Zn612 1.933 1_554 S
O614 Zn613 1.911 . S
O614 H615 0.841 . S
H615 O614 0.841 . S
C616 O617 1.246 . S
C616 O645 1.276 . S
O617 C616 1.246 . S
Zn618 O620 1.911 . S
Zn618 O635 1.970 . S
Zn618 O652 1.945 . S
Zn618 O659 1.981 . S
Zn619 O620 1.933 1_556 S
Zn619 O634 1.985 . S
Zn619 O641 1.955 . S
O620 Zn618 1.911 . S
O620 Zn619 1.933 1_554 S
O620 H621 0.841 . S
H621 O620 0.841 . S
Zn622 O623 1.933 1_556 S
Zn622 O636 1.985 . S
Zn622 O645 1.955 . S
O623 Zn622 1.933 1_554 S
O623 Zn624 1.911 . S
O623 H625 0.841 . S
Zn624 O623 1.911 . S
Zn624 O637 1.970 . S
Zn624 O653 1.981 . S
Zn624 O655 1.945 . S
H625 O623 0.841 . S
Zn626 O627 1.933 1_556 S
Zn626 O639 1.985 . S
Zn626 O647 1.955 . S
O627 Zn626 1.933 1_554 S
O627 H628 0.841 . S
O627 Zn629 1.911 . S
H628 O627 0.841 . S
Zn629 O627 1.911 . S
Zn629 O640 1.970 . S
Zn629 O650 1.981 . S
Zn629 O658 1.945 . S
C630 O631 1.246 . S
C630 O647 1.276 . S
O631 C630 1.246 . S
O632 Zn612 1.985 . S
O632 C642 1.245 1_556 S
O633 Zn613 1.970 . S
O633 C642 1.263 . S
O634 Zn619 1.985 . S
O634 C646 1.245 1_556 S
O635 Zn618 1.970 . S
O635 C646 1.263 . S
O636 Zn622 1.985 . S
O636 C651 1.245 1_556 S
O637 Zn624 1.970 . S
O637 C651 1.263 . S
C638 O649 1.262 . S
C638 O650 1.245 . S
O639 Zn626 1.985 . S
O639 C657 1.245 1_556 S
O640 Zn629 1.970 . S
O640 C657 1.263 . S
O641 Zn619 1.955 . S
O641 C660 1.276 . S
C642 O632 1.245 1_554 S
C642 O633 1.263 . S
O643 Zn612 1.955 . S
O643 C662 1.276 . S
C644 O652 1.262 . S
C644 O653 1.245 . S
O645 C616 1.276 . S
O645 Zn622 1.955 . S
C646 O634 1.245 1_554 S
C646 O635 1.263 . S
O647 Zn626 1.955 . S
O647 C630 1.276 . S
C648 O655 1.262 . S
C648 O656 1.245 . S
O649 Zn613 1.945 . S
O649 C638 1.262 . S
O650 Zn629 1.981 . S
O650 C638 1.245 . S
C651 O636 1.245 1_554 S
C651 O637 1.263 . S
O652 Zn618 1.945 . S
O652 C644 1.262 . S
O653 Zn624 1.981 . S
O653 C644 1.245 . S
C654 O658 1.262 . S
C654 O659 1.245 . S
O655 Zn624 1.945 . S
O655 C648 1.262 . S
O656 Zn613 1.981 . S
O656 C648 1.245 . S
C657 O639 1.245 1_554 S
C657 O640 1.263 . S
O658 Zn629 1.945 . S
O658 C654 1.262 . S
O659 Zn618 1.981 . S
O659 C654 1.245 . S
C660 O641 1.276 . S
C660 O661 1.246 . S
O661 C660 1.246 . S
C662 O643 1.276 . S
C662 O663 1.246 . S
O663 C662 1.246 . S
Zn664 O666 1.933 . S
Zn664 O684 1.985 . S
Zn664 O695 1.959 . S
Zn665 O666 1.911 . S
Zn665 O685 1.970 . S
Zn665 O701 1.945 . S
Zn665 O708 1.981 . S
O666 Zn664 1.933 . S
O666 Zn665 1.911 . S
O666 H667 0.841 1_655 S
H667 O666 0.841 1_455 S
C668 O669 1.246 . S
C668 O697 1.276 . S
O669 C668 1.246 . S
Zn670 O672 1.911 . S
Zn670 O687 1.970 . S
Zn670 O704 1.945 . S
Zn670 O711 1.981 . S
Zn671 O672 1.933 . S
Zn671 O686 1.985 . S
Zn671 O693 1.955 . S
O672 Zn670 1.911 . S
O672 Zn671 1.933 . S
O672 H673 0.841 . S
H673 O672 0.841 . S
Zn674 O675 1.933 . S
Zn674 O688 1.985 . S
Zn674 O697 1.955 . S
O675 Zn674 1.933 . S
O675 Zn676 1.911 . S
O675 H677 0.841 . S
Zn676 O675 1.911 . S
Zn676 O689 1.970 . S
Zn676 O705 1.981 1_655 S
Zn676 O707 1.945 . S
H677 O675 0.841 . S
Zn678 O679 1.933 . S
Zn678 O691 1.985 . S
Zn678 O699 1.955 . S
O679 Zn678 1.933 . S
O679 H680 0.841 . S
O679 Zn681 1.911 . S
H680 O679 0.841 . S
Zn681 O679 1.911 . S
Zn681 O692 1.970 . S
Zn681 O702 1.981 . S
Zn681 O710 1.945 . S
C682 O683 1.246 . S
C682 O699 1.276 . S
O683 C682 1.246 . S
O684 Zn664 1.985 . S
O684 C694 1.245 . S
O685 Zn665 1.970 . S
O685 C694 1.263 . S
O686 Zn671 1.985 . S
O686 C698 1.245 . S
O687 Zn670 1.970 . S
O687 C698 1.263 . S
O688 Zn674 1.985 . S
O688 C703 1.245 . S
O689 Zn676 1.970 . S
O689 C703 1.263 . S
C690 O701 1.262 1_455 S
C690 O702 1.245 . S
O691 Zn678 1.985 . S
O691 C709 1.245 . S
O692 Zn681 1.970 . S
O692 C709 1.263 . S
O693 Zn671 1.955 . S
O693 C712 1.276 . S
C694 O684 1.245 . S
C694 O685 1.263 . S
O695 Zn664 1.959 . S
O695 C714 1.264 1_655 S
C696 O704 1.262 . S
C696 O705 1.245 . S
O697 C668 1.276 . S
O697 Zn674 1.955 . S
C698 O686 1.245 . S
C698 O687 1.263 . S
O699 Zn678 1.955 . S
O699 C682 1.276 . S
C700 O707 1.262 . S
C700 O708 1.245 . S
O701 Zn665 1.945 . S
O701 C690 1.262 1_655 S
O702 Zn681 1.981 . S
O702 C690 1.245 . S
C703 O688 1.245 . S
C703 O689 1.263 . S
O704 Zn670 1.945 . S
O704 C696 1.262 . S
O705 Zn676 1.981 1_455 S
O705 C696 1.245 . S
C706 O710 1.262 . S
C706 O711 1.245 . S
O707 Zn676 1.945 . S
O707 C700 1.262 . S
O708 Zn665 1.981 . S
O708 C700 1.245 . S
C709 O691 1.245 . S
C709 O692 1.263 . S
O710 Zn681 1.945 . S
O710 C706 1.262 . S
O711 Zn670 1.981 . S
O711 C706 1.245 . S
C712 O693 1.276 . S
C712 O713 1.246 . S
O713 C712 1.246 . S
C714 O695 1.264 1_455 S
C714 O715 1.246 . S
O715 C714 1.246 . S
Zn716 O718 1.933 1_565 S
Zn716 O736 1.985 . S
Zn716 O747 1.955 . S
Zn717 O718 1.911 . S
Zn717 O737 1.970 . S
Zn717 O753 1.945 . S
Zn717 O760 1.981 . S
O718 Zn716 1.933 1_545 S
O718 Zn717 1.911 . S
O718 H719 0.841 . S
H719 O718 0.841 . S
C720 O721 1.246 . S
C720 O749 1.276 . S
O721 C720 1.246 . S
Zn722 O724 1.911 . S
Zn722 O739 1.970 . S
Zn722 O756 1.945 . S
Zn722 O763 1.981 . S
Zn723 O724 1.933 1_565 S
Zn723 O738 1.985 1_565 S
Zn723 O745 1.955 . S
O724 Zn722 1.911 . S
O724 Zn723 1.933 1_545 S
O724 H725 0.841 . S
H725 O724 0.841 . S
Zn726 O727 1.933 1_565 S
Zn726 O740 1.985 . S
Zn726 O749 1.955 . S
O727 Zn726 1.933 1_545 S
O727 Zn728 1.911 . S
O727 H729 0.841 . S
Zn728 O727 1.911 . S
Zn728 O741 1.970 . S
Zn728 O757 1.981 . S
Zn728 O759 1.945 . S
H729 O727 0.841 . S
Zn730 O731 1.933 1_565 S
Zn730 O743 1.985 . S
Zn730 O751 1.955 . S
O731 Zn730 1.933 1_545 S
O731 H732 0.841 . S
O731 Zn733 1.911 . S
H732 O731 0.841 . S
Zn733 O731 1.911 . S
Zn733 O744 1.970 . S
Zn733 O754 1.981 . S
Zn733 O762 1.945 . S
C734 O735 1.246 . S
C734 O751 1.276 . S
O735 C734 1.246 . S
O736 Zn716 1.985 . S
O736 C746 1.245 1_565 S
O737 Zn717 1.970 . S
O737 C746 1.263 . S
O738 Zn723 1.985 1_545 S
O738 C750 1.245 . S
O739 Zn722 1.970 . S
O739 C750 1.263 . S
O740 Zn726 1.985 . S
O740 C755 1.245 1_565 S
O741 Zn728 1.970 . S
O741 C755 1.263 . S
C742 O753 1.262 . S
C742 O754 1.245 . S
O743 Zn730 1.985 . S
O743 C761 1.247 1_565 S
O744 Zn733 1.970 . S
O744 C761 1.263 . S
O745 Zn723 1.955 . S
O745 C764 1.276 . S
C746 O736 1.245 1_545 S
C746 O737 1.263 . S
O747 Zn716 1.955 . S
O747 C766 1.276 . S
C748 O756 1.262 . S
C748 O757 1.245 . S
O749 C720 1.276 . S
O749 Zn726 1.955 . S
C750 O738 1.245 . S
C750 O739 1.263 . S
O751 Zn730 1.955 . S
O751 C734 1.276 . S
C752 O759 1.262 . S
C752 O760 1.245 . S
O753 Zn717 1.945 . S
O753 C742 1.262 . S
O754 Zn733 1.981 . S
O754 C742 1.245 . S
C755 O740 1.245 1_545 S
C755 O741 1.263 . S
O756 Zn722 1.945 . S
O756 C748 1.262 . S
O757 Zn728 1.981 . S
O757 C748 1.245 . S
C758 O762 1.262 . S
C758 O763 1.245 . S
O759 Zn728 1.945 . S
O759 C752 1.262 . S
O760 Zn717 1.981 . S
O760 C752 1.245 . S
C761 O743 1.247 1_545 S
C761 O744 1.263 . S
O762 Zn733 1.945 . S
O762 C758 1.262 . S
O763 Zn722 1.981 . S
O763 C758 1.245 . S
C764 O745 1.276 . S
C764 O765 1.246 . S
O765 C764 1.246 . S
C766 O747 1.276 . S
C766 O767 1.246 . S
O767 C766 1.246 . S
H768 C774 0.930 . S
H769 C778 0.930 . S
H770 C783 0.929 . S
H771 C781 0.929 . S
H772 C776 0.929 . S
H773 C782 0.929 . S
C774 H768 0.930 . S
C774 C775 1.367 . S
C774 C782 1.378 . S
C775 C774 1.367 . S
C775 C783 1.433 . S
C776 H772 0.929 . S
C776 C778 1.378 . S
C776 C780 1.350 . S
C777 C780 1.463 . S
C777 C782 1.350 . S
C777 N785 1.427 . S
C778 H769 0.930 . S
C778 C776 1.378 . S
C778 C779 1.367 . S
C779 C778 1.367 . S
C779 C781 1.433 . S
C780 C776 1.350 . S
C780 C777 1.463 . S
C780 N784 1.427 . S
C781 H771 0.929 . S
C781 C779 1.433 . S
C781 N784 1.384 . S
C782 H773 0.929 . S
C782 C774 1.378 . S
C782 C777 1.350 . S
C783 H770 0.929 . S
C783 C775 1.433 . S
C783 N785 1.384 . S
N784 C780 1.427 . S
N784 C781 1.384 . S
N785 C777 1.427 . S
N785 C783 1.384 . S
H786 C792 0.930 . S
H787 C796 0.930 . S
H788 C801 0.929 . S
H789 C799 0.929 . S
H790 C794 0.929 . S
H791 C800 0.929 . S
C792 H786 0.930 . S
C792 C793 1.367 . S
C792 C800 1.378 . S
C793 C792 1.367 . S
C793 C801 1.433 . S
C794 H790 0.929 . S
C794 C796 1.378 . S
C794 C798 1.350 . S
C795 C798 1.463 . S
C795 C800 1.350 . S
C795 N803 1.427 . S
C796 H787 0.930 . S
C796 C794 1.378 . S
C796 C797 1.367 . S
C797 C796 1.367 . S
C797 C799 1.433 . S
C798 C794 1.350 . S
C798 C795 1.463 . S
C798 N802 1.427 . S
C799 H789 0.929 . S
C799 C797 1.433 . S
C799 N802 1.384 . S
C800 H791 0.929 . S
C800 C792 1.378 . S
C800 C795 1.350 . S
C801 H788 0.929 . S
C801 C793 1.433 . S
C801 N803 1.384 . S
N802 C798 1.427 . S
N802 C799 1.384 . S
N803 C795 1.427 . S
N803 C801 1.384 . S
H804 C810 0.930 . S
H805 C814 0.930 . S
H806 C819 0.929 . S
H807 C817 0.929 . S
H808 C812 0.929 . S
H809 C818 0.929 . S
C810 H804 0.930 . S
C810 C811 1.367 . S
C810 C818 1.378 . S
C811 C810 1.367 . S
C811 C819 1.433 . S
C812 H808 0.929 . S
C812 C814 1.378 . S
C812 C816 1.350 . S
C813 C816 1.463 . S
C813 C818 1.350 . S
C813 N821 1.427 . S
C814 H805 0.930 . S
C814 C812 1.378 . S
C814 C815 1.367 . S
C815 C814 1.367 . S
C815 C817 1.433 . S
C816 C812 1.350 . S
C816 C813 1.463 . S
C816 N820 1.427 . S
C817 H807 0.929 . S
C817 C815 1.433 . S
C817 N820 1.384 . S
C818 H809 0.929 . S
C818 C810 1.378 . S
C818 C813 1.350 . S
C819 H806 0.929 . S
C819 C811 1.433 . S
C819 N821 1.384 . S
N820 C816 1.427 . S
N820 C817 1.384 . S
N821 C813 1.427 . S
N821 C819 1.384 . S
H822 C828 0.930 . S
H823 C832 0.930 . S
H824 C837 0.929 . S
H825 C835 0.929 . S
H826 C830 0.929 . S
H827 C836 0.929 . S
C828 H822 0.930 . S
C828 C829 1.367 . S
C828 C836 1.378 . S
C829 C828 1.367 . S
C829 C837 1.433 . S
C830 H826 0.929 . S
C830 C832 1.378 . S
C830 C834 1.350 . S
C831 C834 1.463 . S
C831 C836 1.350 . S
C831 N839 1.427 . S
C832 H823 0.930 . S
C832 C830 1.378 . S
C832 C833 1.367 . S
C833 C832 1.367 . S
C833 C835 1.433 . S
C834 C830 1.350 . S
C834 C831 1.463 . S
C834 N838 1.427 . S
C835 H825 0.929 . S
C835 C833 1.433 . S
C835 N838 1.384 . S
C836 H827 0.929 . S
C836 C828 1.378 . S
C836 C831 1.350 . S
C837 H824 0.929 . S
C837 C829 1.433 . S
C837 N839 1.384 . S
N838 C834 1.427 . S
N838 C835 1.384 . S
N839 C831 1.427 . S
N839 C837 1.384 . S
H840 C846 0.930 . S
H841 C850 0.930 . S
H842 C855 0.929 . S
H843 C853 0.929 . S
H844 C848 0.929 . S
H845 C854 0.929 . S
C846 H840 0.930 . S
C846 C847 1.367 . S
C846 C854 1.378 . S
C847 C846 1.367 . S
C847 C855 1.433 . S
C848 H844 0.929 . S
C848 C850 1.378 . S
C848 C852 1.350 . S
C849 C852 1.463 . S
C849 C854 1.350 . S
C849 N857 1.427 . S
C850 H841 0.930 . S
C850 C848 1.378 . S
C850 C851 1.367 . S
C851 C850 1.367 . S
C851 C853 1.433 . S
C852 C848 1.350 . S
C852 C849 1.463 . S
C852 N856 1.427 . S
C853 H843 0.929 . S
C853 C851 1.433 . S
C853 N856 1.384 . S
C854 H845 0.929 . S
C854 C846 1.378 . S
C854 C849 1.350 . S
C855 H842 0.929 . S
C855 C847 1.433 . S
C855 N857 1.384 . S
N856 C852 1.427 . S
N856 C853 1.384 . S
N857 C849 1.427 . S
N857 C855 1.384 . S
H858 C864 0.930 . S
H859 C868 0.930 . S
H860 C873 0.929 . S
H861 C871 0.929 . S
H862 C866 0.929 . S
H863 C872 0.929 . S
C864 H858 0.930 . S
C864 C865 1.367 . S
C864 C872 1.378 . S
C865 C864 1.367 . S
C865 C873 1.433 . S
C866 H862 0.929 . S
C866 C868 1.378 . S
C866 C870 1.350 . S
C867 C870 1.463 . S
C867 C872 1.350 . S
C867 N875 1.427 . S
C868 H859 0.930 . S
C868 C866 1.378 . S
C868 C869 1.367 . S
C869 C868 1.367 . S
C869 C871 1.433 . S
C870 C866 1.350 . S
C870 C867 1.463 . S
C870 N874 1.427 . S
C871 H861 0.929 . S
C871 C869 1.433 . S
C871 N874 1.384 . S
C872 H863 0.929 . S
C872 C864 1.378 . S
C872 C867 1.350 . S
C873 H860 0.929 . S
C873 C865 1.433 . S
C873 N875 1.384 . S
N874 C870 1.427 . S
N874 C871 1.384 . S
N875 C867 1.427 . S
N875 C873 1.384 . S
H876 C882 0.930 . S
H877 C886 0.930 . S
H878 C891 0.929 . S
H879 C889 0.929 . S
H880 C884 0.929 . S
H881 C890 0.929 . S
C882 H876 0.930 . S
C882 C883 1.367 . S
C882 C890 1.378 . S
C883 C882 1.367 . S
C883 C891 1.433 . S
C884 H880 0.929 . S
C884 C886 1.378 . S
C884 C888 1.350 . S
C885 C888 1.463 . S
C885 C890 1.350 . S
C885 N893 1.427 . S
C886 H877 0.930 . S
C886 C884 1.378 . S
C886 C887 1.367 . S
C887 C886 1.367 . S
C887 C889 1.433 . S
C888 C884 1.350 . S
C888 C885 1.463 . S
C888 N892 1.427 . S
C889 H879 0.929 . S
C889 C887 1.433 . S
C889 N892 1.384 . S
C890 H881 0.929 . S
C890 C882 1.378 . S
C890 C885 1.350 . S
C891 H878 0.929 . S
C891 C883 1.433 . S
C891 N893 1.384 . S
N892 C888 1.427 . S
N892 C889 1.384 . S
N893 C885 1.427 . S
N893 C891 1.384 . S
H894 C900 0.930 . S
H895 C904 0.930 . S
H896 C909 0.929 . S
H897 C907 0.929 . S
H898 C902 0.929 . S
H899 C908 0.929 . S
C900 H894 0.930 . S
C900 C901 1.367 . S
C900 C908 1.378 . S
C901 C900 1.367 . S
C901 C909 1.433 . S
C902 H898 0.929 . S
C902 C904 1.378 . S
C902 C906 1.350 . S
C903 C906 1.463 . S
C903 C908 1.350 . S
C903 N911 1.427 . S
C904 H895 0.930 . S
C904 C902 1.378 . S
C904 C905 1.367 . S
C905 C904 1.367 . S
C905 C907 1.433 . S
C906 C902 1.350 . S
C906 C903 1.463 . S
C906 N910 1.427 . S
C907 H897 0.929 . S
C907 C905 1.433 . S
C907 N910 1.384 . S
C908 H899 0.929 . S
C908 C900 1.378 . S
C908 C903 1.350 . S
C909 H896 0.929 . S
C909 C901 1.433 . S
C909 N911 1.384 . S
N910 C906 1.427 . S
N910 C907 1.384 . S
N911 C903 1.427 . S
N911 C909 1.384 . S
H912 C918 0.930 . S
H913 C922 0.930 . S
H914 C927 0.929 . S
H915 C925 0.929 . S
H916 C920 0.929 . S
H917 C926 0.929 . S
C918 H912 0.930 . S
C918 C919 1.367 . S
C918 C926 1.378 . S
C919 C918 1.367 . S
C919 C927 1.433 . S
C920 H916 0.929 . S
C920 C922 1.378 . S
C920 C924 1.350 . S
C921 C924 1.463 . S
C921 C926 1.350 . S
C921 N929 1.427 . S
C922 H913 0.930 . S
C922 C920 1.378 . S
C922 C923 1.367 . S
C923 C922 1.367 . S
C923 C925 1.433 . S
C924 C920 1.350 . S
C924 C921 1.463 . S
C924 N928 1.427 . S
C925 H915 0.929 . S
C925 C923 1.433 . S
C925 N928 1.384 . S
C926 H917 0.929 . S
C926 C918 1.378 . S
C926 C921 1.350 . S
C927 H914 0.929 . S
C927 C919 1.433 . S
C927 N929 1.384 . S
N928 C924 1.427 . S
N928 C925 1.384 . S
N929 C921 1.427 . S
N929 C927 1.384 . S
H930 C936 0.930 . S
H931 C940 0.930 . S
H932 C945 0.929 . S
H933 C943 0.929 . S
H934 C938 0.929 . S
H935 C944 0.929 . S
C936 H930 0.930 . S
C936 C937 1.367 . S
C936 C944 1.378 . S
C937 C936 1.367 . S
C937 C945 1.433 . S
C938 H934 0.929 . S
C938 C940 1.378 . S
C938 C942 1.350 . S
C939 C942 1.463 . S
C939 C944 1.350 . S
C939 N947 1.427 . S
C940 H931 0.930 . S
C940 C938 1.378 . S
C940 C941 1.367 . S
C941 C940 1.367 . S
C941 C943 1.433 . S
C942 C938 1.350 . S
C942 C939 1.463 . S
C942 N946 1.427 . S
C943 H933 0.929 . S
C943 C941 1.433 . S
C943 N946 1.384 . S
C944 H935 0.929 . S
C944 C936 1.378 . S
C944 C939 1.350 . S
C945 H932 0.929 . S
C945 C937 1.433 . S
C945 N947 1.384 . S
N946 C942 1.427 . S
N946 C943 1.384 . S
N947 C939 1.427 . S
N947 C945 1.384 . S
H948 C954 0.930 . S
H949 C958 0.930 . S
H950 C963 0.929 . S
H951 C961 0.929 . S
H952 C956 0.929 . S
H953 C962 0.929 . S
C954 H948 0.930 . S
C954 C955 1.367 . S
C954 C962 1.378 . S
C955 C954 1.367 . S
C955 C963 1.433 . S
C956 H952 0.929 . S
C956 C958 1.378 . S
C956 C960 1.350 . S
C957 C960 1.463 . S
C957 C962 1.350 . S
C957 N965 1.427 . S
C958 H949 0.930 . S
C958 C956 1.378 . S
C958 C959 1.367 . S
C959 C958 1.367 . S
C959 C961 1.433 . S
C960 C956 1.350 . S
C960 C957 1.463 . S
C960 N964 1.427 . S
C961 H951 0.929 . S
C961 C959 1.433 . S
C961 N964 1.384 . S
C962 H953 0.929 . S
C962 C954 1.378 . S
C962 C957 1.350 . S
C963 H950 0.929 . S
C963 C955 1.433 . S
C963 N965 1.384 . S
N964 C960 1.427 . S
N964 C961 1.384 . S
N965 C957 1.427 . S
N965 C963 1.384 . S
H966 C972 0.930 . S
H967 C976 0.930 . S
H968 C981 0.929 . S
H969 C979 0.929 . S
H970 C974 0.929 . S
H971 C980 0.929 . S
C972 H966 0.930 . S
C972 C973 1.367 . S
C972 C980 1.378 . S
C973 C972 1.367 . S
C973 C981 1.433 . S
C974 H970 0.929 . S
C974 C976 1.378 . S
C974 C978 1.350 . S
C975 C978 1.463 . S
C975 C980 1.350 . S
C975 N983 1.427 . S
C976 H967 0.930 . S
C976 C974 1.378 . S
C976 C977 1.367 . S
C977 C976 1.367 . S
C977 C979 1.433 . S
C978 C974 1.350 . S
C978 C975 1.463 . S
C978 N982 1.427 . S
C979 H969 0.929 . S
C979 C977 1.433 . S
C979 N982 1.384 . S
C980 H971 0.929 . S
C980 C972 1.378 . S
C980 C975 1.350 . S
C981 H968 0.929 . S
C981 C973 1.433 . S
C981 N983 1.384 . S
N982 C978 1.427 . S
N982 C979 1.384 . S
N983 C975 1.427 . S
N983 C981 1.384 . S
H984 C990 0.930 . S
H985 C994 0.930 . S
H986 C999 0.929 . S
H987 C997 0.929 . S
H988 C992 0.929 . S
H989 C998 0.929 . S
C990 H984 0.930 . S
C990 C991 1.367 . S
C990 C998 1.378 . S
C991 C990 1.367 . S
C991 C999 1.433 1_554 S
C992 H988 0.929 . S
C992 C994 1.378 . S
C992 C996 1.350 1_556 S
C993 C996 1.463 . S
C993 C998 1.350 . S
C993 N1001 1.427 1_554 S
C994 H985 0.930 . S
C994 C992 1.378 . S
C994 C995 1.367 1_556 S
C995 C994 1.367 1_554 S
C995 C997 1.433 . S
C996 C992 1.350 1_554 S
C996 C993 1.463 . S
C996 N1000 1.427 . S
C997 H987 0.929 . S
C997 C995 1.433 . S
C997 N1000 1.384 . S
C998 H989 0.929 . S
C998 C990 1.378 . S
C998 C993 1.350 . S
C999 H986 0.929 . S
C999 C991 1.433 1_556 S
C999 N1001 1.384 . S
N1000 C996 1.427 . S
N1000 C997 1.384 . S
N1001 C993 1.427 1_556 S
N1001 C999 1.384 . S
H1002 C1008 0.930 . S
H1003 C1012 0.930 . S
H1004 C1017 0.929 . S
H1005 C1015 0.929 . S
H1006 C1010 0.929 . S
H1007 C1016 0.929 . S
C1008 H1002 0.930 . S
C1008 C1009 1.367 1_556 S
C1008 C1016 1.378 . S
C1009 C1008 1.367 1_554 S
C1009 C1017 1.433 . S
C1010 H1006 0.929 . S
C1010 C1012 1.378 . S
C1010 C1014 1.350 . S
C1011 C1014 1.463 . S
C1011 C1016 1.350 1_554 S
C1011 N1019 1.427 . S
C1012 H1003 0.930 . S
C1012 C1010 1.378 . S
C1012 C1013 1.367 . S
C1013 C1012 1.367 . S
C1013 C1015 1.433 1_554 S
C1014 C1010 1.350 . S
C1014 C1011 1.463 . S
C1014 N1018 1.427 1_554 S
C1015 H1005 0.929 . S
C1015 C1013 1.433 1_556 S
C1015 N1018 1.384 . S
C1016 H1007 0.929 . S
C1016 C1008 1.378 . S
C1016 C1011 1.350 1_556 S
C1017 H1004 0.929 . S
C1017 C1009 1.433 . S
C1017 N1019 1.384 . S
N1018 C1014 1.427 1_556 S
N1018 C1015 1.384 . S
N1019 C1011 1.427 . S
N1019 C1017 1.384 . S
H1020 C1026 0.930 . S
H1021 C1030 0.930 . S
H1022 C1035 0.929 . S
H1023 C1033 0.929 . S
H1024 C1028 0.929 . S
H1025 C1034 0.929 . S
C1026 H1020 0.930 . S
C1026 C1027 1.367 . S
C1026 C1034 1.378 . S
C1027 C1026 1.367 . S
C1027 C1035 1.433 1_554 S
C1028 H1024 0.929 . S
C1028 C1030 1.378 . S
C1028 C1032 1.350 1_556 S
C1029 C1032 1.463 . S
C1029 C1034 1.350 . S
C1029 N1037 1.427 1_554 S
C1030 H1021 0.930 . S
C1030 C1028 1.378 . S
C1030 C1031 1.367 1_556 S
C1031 C1030 1.367 1_554 S
C1031 C1033 1.433 . S
C1032 C1028 1.350 1_554 S
C1032 C1029 1.463 . S
C1032 N1036 1.427 . S
C1033 H1023 0.929 . S
C1033 C1031 1.433 . S
C1033 N1036 1.384 . S
C1034 H1025 0.929 . S
C1034 C1026 1.378 . S
C1034 C1029 1.350 . S
C1035 H1022 0.929 . S
C1035 C1027 1.433 1_556 S
C1035 N1037 1.384 . S
N1036 C1032 1.427 . S
N1036 C1033 1.384 . S
N1037 C1029 1.427 1_556 S
N1037 C1035 1.384 . S
H1038 C1044 0.930 . S
H1039 C1048 0.930 . S
H1040 C1053 0.934 . S
H1041 C1051 0.929 . S
H1042 C1046 0.929 . S
H1043 C1052 0.929 . S
C1044 H1038 0.930 . S
C1044 C1045 1.367 . S
C1044 C1052 1.378 . S
C1045 C1044 1.367 . S
C1045 C1053 1.433 . S
C1046 H1042 0.929 . S
C1046 C1048 1.378 . S
C1046 C1050 1.350 . S
C1047 C1050 1.463 . S
C1047 C1052 1.350 . S
C1047 N1055 1.427 . S
C1048 H1039 0.930 . S
C1048 C1046 1.378 . S
C1048 C1049 1.367 . S
C1049 C1048 1.367 . S
C1049 C1051 1.433 . S
C1050 C1046 1.350 . S
C1050 C1047 1.463 . S
C1050 N1054 1.427 . S
C1051 H1041 0.929 . S
C1051 C1049 1.433 . S
C1051 N1054 1.384 . S
C1052 H1043 0.929 . S
C1052 C1044 1.378 . S
C1052 C1047 1.350 . S
C1053 H1040 0.934 . S
C1053 C1045 1.433 . S
C1053 N1055 1.384 . S
N1054 C1050 1.427 . S
N1054 C1051 1.384 . S
N1055 C1047 1.427 . S
N1055 C1053 1.384 . S
H1056 C1062 0.930 . S
H1057 C1066 0.930 . S
H1058 C1071 0.928 1_655 S
H1059 C1069 0.929 . S
H1060 C1064 0.929 . S
H1061 C1070 0.929 . S
C1062 H1056 0.930 . S
C1062 C1063 1.367 . S
C1062 C1070 1.378 . S
C1063 C1062 1.367 . S
C1063 C1071 1.434 . S
C1064 H1060 0.929 . S
C1064 C1066 1.378 . S
C1064 C1068 1.350 . S
C1065 C1068 1.463 . S
C1065 C1070 1.350 . S
C1065 N1073 1.427 . S
C1066 H1057 0.930 . S
C1066 C1064 1.378 . S
C1066 C1067 1.367 . S
C1067 C1066 1.367 . S
C1067 C1069 1.433 . S
C1068 C1064 1.350 . S
C1068 C1065 1.463 . S
C1068 N1072 1.427 . S
C1069 H1059 0.929 . S
C1069 C1067 1.433 . S
C1069 N1072 1.384 . S
C1070 H1061 0.929 . S
C1070 C1062 1.378 . S
C1070 C1065 1.350 . S
C1071 H1058 0.928 1_455 S
C1071 C1063 1.434 . S
C1071 N1073 1.384 . S
N1072 C1068 1.427 . S
N1072 C1069 1.384 . S
N1073 C1065 1.427 . S
N1073 C1071 1.384 . S
H1074 C1080 0.930 . S
H1075 C1084 0.930 . S
H1076 C1089 0.929 . S
H1077 C1087 0.929 . S
H1078 C1082 0.929 . S
H1079 C1088 0.929 . S
C1080 H1074 0.930 . S
C1080 C1081 1.367 1_565 S
C1080 C1088 1.378 . S
C1081 C1080 1.367 1_545 S
C1081 C1089 1.433 . S
C1082 H1078 0.929 . S
C1082 C1084 1.378 . S
C1082 C1086 1.350 . S
C1083 C1086 1.463 . S
C1083 C1088 1.350 1_545 S
C1083 N1091 1.427 . S
C1084 H1075 0.930 . S
C1084 C1082 1.378 . S
C1084 C1085 1.367 . S
C1085 C1084 1.367 . S
C1085 C1087 1.433 1_545 S
C1086 C1082 1.350 . S
C1086 C1083 1.463 . S
C1086 N1090 1.427 1_545 S
C1087 H1077 0.929 . S
C1087 C1085 1.433 1_565 S
C1087 N1090 1.384 . S
C1088 H1079 0.929 . S
C1088 C1080 1.378 . S
C1088 C1083 1.350 1_565 S
C1089 H1076 0.929 . S
C1089 C1081 1.433 . S
C1089 N1091 1.384 . S
N1090 C1086 1.427 1_565 S
N1090 C1087 1.384 . S
N1091 C1083 1.427 . S
N1091 C1089 1.384 . S
H1092 C1098 0.930 . S
H1093 C1102 0.930 . S
H1094 C1107 0.929 . S
H1095 C1105 0.929 . S
H1096 C1100 0.929 . S
H1097 C1106 0.929 . S
C1098 H1092 0.930 . S
C1098 C1099 1.367 1_655 S
C1098 C1106 1.378 . S
C1099 C1098 1.367 1_455 S
C1099 C1107 1.433 . S
C1100 H1096 0.929 . S
C1100 C1102 1.378 . S
C1100 C1104 1.350 . S
C1101 C1104 1.463 . S
C1101 C1106 1.350 1_455 S
C1101 N1109 1.427 . S
C1102 H1093 0.930 . S
C1102 C1100 1.378 . S
C1102 C1103 1.367 . S
C1103 C1102 1.367 . S
C1103 C1105 1.433 1_455 S
C1104 C1100 1.350 . S
C1104 C1101 1.463 . S
C1104 N1108 1.427 1_455 S
C1105 H1095 0.929 . S
C1105 C1103 1.433 1_655 S
C1105 N1108 1.384 . S
C1106 H1097 0.929 . S
C1106 C1098 1.378 . S
C1106 C1101 1.350 1_655 S
C1107 H1094 0.929 . S
C1107 C1099 1.433 . S
C1107 N1109 1.384 . S
N1108 C1104 1.427 1_655 S
N1108 C1105 1.384 . S
N1109 C1101 1.427 . S
N1109 C1107 1.384 . S
H1110 C1116 0.930 . S
H1111 C1120 0.930 1_565 S
H1112 C1125 0.929 1_565 S
H1113 C1123 0.929 . S
H1114 C1118 0.929 1_565 S
H1115 C1124 0.929 . S
C1116 H1110 0.930 . S
C1116 C1117 1.367 . S
C1116 C1124 1.378 . S
C1117 C1116 1.367 . S
C1117 C1125 1.433 . S
C1118 H1114 0.929 1_545 S
C1118 C1120 1.378 . S
C1118 C1122 1.350 . S
C1119 C1122 1.463 . S
C1119 C1124 1.350 . S
C1119 N1127 1.427 . S
C1120 H1111 0.930 1_545 S
C1120 C1118 1.378 . S
C1120 C1121 1.367 . S
C1121 C1120 1.367 . S
C1121 C1123 1.433 . S
C1122 C1118 1.350 . S
C1122 C1119 1.463 . S
C1122 N1126 1.427 . S
C1123 H1113 0.929 . S
C1123 C1121 1.433 . S
C1123 N1126 1.384 . S
C1124 H1115 0.929 . S
C1124 C1116 1.378 . S
C1124 C1119 1.350 . S
C1125 H1112 0.929 1_545 S
C1125 C1117 1.433 . S
C1125 N1127 1.384 . S
N1126 C1122 1.427 . S
N1126 C1123 1.384 . S
N1127 C1119 1.427 . S
N1127 C1125 1.384 . S
H1128 C1134 0.930 1_655 S
H1129 C1138 0.930 . S
H1130 C1143 0.929 . S
H1131 C1141 0.929 1_655 S
H1132 C1136 0.929 . S
H1133 C1142 0.929 1_655 S
C1134 H1128 0.930 1_455 S
C1134 C1135 1.367 . S
C1134 C1142 1.378 . S
C1135 C1134 1.367 . S
C1135 C1143 1.433 . S
C1136 H1132 0.929 . S
C1136 C1138 1.378 . S
C1136 C1140 1.350 . S
C1137 C1140 1.463 . S
C1137 C1142 1.350 . S
C1137 N1145 1.427 . S
C1138 H1129 0.930 . S
C1138 C1136 1.378 . S
C1138 C1139 1.367 . S
C1139 C1138 1.367 . S
C1139 C1141 1.433 . S
C1140 C1136 1.350 . S
C1140 C1137 1.463 . S
C1140 N1144 1.427 . S
C1141 H1131 0.929 1_455 S
C1141 C1139 1.433 . S
C1141 N1144 1.384 . S
C1142 H1133 0.929 1_455 S
C1142 C1134 1.378 . S
C1142 C1137 1.350 . S
C1143 H1130 0.929 . S
C1143 C1135 1.433 . S
C1143 N1145 1.384 . S
N1144 C1140 1.427 . S
N1144 C1141 1.384 . S
N1145 C1137 1.427 . S
N1145 C1143 1.384 . S
H1146 C1152 0.930 1_565 S
H1147 C1156 0.930 . S
H1148 C1161 0.929 . S
H1149 C1159 0.930 . S
H1150 C1154 0.929 . S
H1151 C1160 0.929 1_565 S
C1152 H1146 0.930 1_545 S
C1152 C1153 1.367 . S
C1152 C1160 1.378 . S
C1153 C1152 1.367 . S
C1153 C1161 1.433 . S
C1154 H1150 0.929 . S
C1154 C1156 1.378 . S
C1154 C1158 1.350 . S
C1155 C1158 1.463 . S
C1155 C1160 1.350 . S
C1155 N1163 1.427 . S
C1156 H1147 0.930 . S
C1156 C1154 1.378 . S
C1156 C1157 1.367 . S
C1157 C1156 1.367 . S
C1157 C1159 1.432 1_545 S
C1158 C1154 1.350 . S
C1158 C1155 1.463 . S
C1158 N1162 1.427 . S
C1159 H1149 0.930 . S
C1159 C1157 1.432 1_565 S
C1159 N1162 1.383 1_565 S
C1160 H1151 0.929 1_545 S
C1160 C1152 1.378 . S
C1160 C1155 1.350 . S
C1161 H1148 0.929 . S
C1161 C1153 1.433 . S
C1161 N1163 1.384 . S
N1162 C1158 1.427 . S
N1162 C1159 1.383 1_545 S
N1163 C1155 1.427 . S
N1163 C1161 1.384 . S
H1164 C1170 0.930 . S
H1165 C1174 0.930 1_655 S
H1166 C1179 0.925 1_655 S
H1167 C1177 0.929 . S
H1168 C1172 0.929 1_655 S
H1169 C1178 0.929 . S
C1170 H1164 0.930 . S
C1170 C1171 1.367 . S
C1170 C1178 1.378 . S
C1171 C1170 1.367 . S
C1171 C1179 1.437 . S
C1172 H1168 0.929 1_455 S
C1172 C1174 1.378 . S
C1172 C1176 1.350 . S
C1173 C1176 1.463 . S
C1173 C1178 1.350 . S
C1173 N1181 1.463 . S
C1174 H1165 0.930 1_455 S
C1174 C1172 1.378 . S
C1174 C1175 1.367 . S
C1175 C1174 1.367 . S
C1175 C1177 1.433 . S
C1176 C1172 1.350 . S
C1176 C1173 1.463 . S
C1176 N1180 1.427 . S
C1177 H1167 0.929 . S
C1177 C1175 1.433 . S
C1177 N1180 1.384 . S
C1178 H1169 0.929 . S
C1178 C1170 1.378 . S
C1178 C1173 1.350 . S
C1179 H1166 0.925 1_455 S
C1179 C1171 1.437 . S
C1179 N1181 1.383 . S
N1180 C1176 1.427 . S
N1180 C1177 1.384 . S
N1181 C1173 1.463 . S
N1181 C1179 1.383 . S
H1182 C1188 0.930 . S
H1183 C1192 0.930 . S
H1184 C1197 0.929 . S
H1185 C1195 0.929 . S
H1186 C1190 0.929 . S
H1187 C1196 0.929 . S
C1188 H1182 0.930 . S
C1188 C1189 1.367 . S
C1188 C1196 1.378 . S
C1189 C1188 1.367 . S
C1189 C1197 1.433 1_545 S
C1190 H1186 0.929 . S
C1190 C1192 1.378 . S
C1190 C1194 1.350 1_565 S
C1191 C1194 1.463 . S
C1191 C1196 1.350 . S
C1191 N1199 1.427 1_545 S
C1192 H1183 0.930 . S
C1192 C1190 1.378 . S
C1192 C1193 1.367 1_565 S
C1193 C1192 1.367 1_545 S
C1193 C1195 1.433 . S
C1194 C1190 1.350 1_545 S
C1194 C1191 1.463 . S
C1194 N1198 1.427 . S
C1195 H1185 0.929 . S
C1195 C1193 1.433 . S
C1195 N1198 1.384 . S
C1196 H1187 0.929 . S
C1196 C1188 1.378 . S
C1196 C1191 1.350 . S
C1197 H1184 0.929 . S
C1197 C1189 1.433 1_565 S
C1197 N1199 1.384 . S
N1198 C1194 1.427 . S
N1198 C1195 1.384 . S
N1199 C1191 1.427 1_565 S
N1199 C1197 1.384 . S
H1200 C1206 0.930 . S
H1201 C1210 0.930 . S
H1202 C1215 0.929 . S
H1203 C1213 0.929 . S
H1204 C1208 0.929 . S
H1205 C1214 0.929 . S
C1206 H1200 0.930 . S
C1206 C1207 1.367 . S
C1206 C1214 1.378 . S
C1207 C1206 1.367 . S
C1207 C1215 1.433 . S
C1208 H1204 0.929 . S
C1208 C1210 1.378 . S
C1208 C1212 1.350 . S
C1209 C1212 1.463 . S
C1209 C1214 1.350 . S
C1209 N1217 1.427 . S
C1210 H1201 0.930 . S
C1210 C1208 1.378 . S
C1210 C1211 1.367 . S
C1211 C1210 1.367 . S
C1211 C1213 1.433 . S
C1212 C1208 1.350 . S
C1212 C1209 1.463 . S
C1212 N1216 1.427 . S
C1213 H1203 0.929 . S
C1213 C1211 1.433 . S
C1213 N1216 1.384 . S
C1214 H1205 0.929 . S
C1214 C1206 1.378 . S
C1214 C1209 1.350 . S
C1215 H1202 0.929 . S
C1215 C1207 1.433 . S
C1215 N1217 1.384 . S
N1216 C1212 1.427 . S
N1216 C1213 1.384 . S
N1217 C1209 1.427 . S
N1217 C1215 1.384 . S
H1218 C1224 0.930 . S
H1219 C1228 0.930 1_565 S
H1220 C1233 0.929 . S
H1221 C1231 0.929 . S
H1222 C1226 0.914 1_565 S
H1223 C1232 0.929 . S
C1224 H1218 0.930 . S
C1224 C1225 1.367 . S
C1224 C1232 1.378 . S
C1225 C1224 1.367 . S
C1225 C1233 1.433 . S
C1226 H1222 0.914 1_545 S
C1226 C1228 1.378 . S
C1226 C1230 1.350 . S
C1227 C1230 1.463 . S
C1227 C1232 1.350 . S
C1227 N1235 1.427 . S
C1228 H1219 0.930 1_545 S
C1228 C1226 1.378 . S
C1228 C1229 1.367 . S
C1229 C1228 1.367 . S
C1229 C1231 1.433 . S
C1230 C1226 1.350 . S
C1230 C1227 1.463 . S
C1230 N1234 1.427 . S
C1231 H1221 0.929 . S
C1231 C1229 1.433 . S
C1231 N1234 1.384 . S
C1232 H1223 0.929 . S
C1232 C1224 1.378 . S
C1232 C1227 1.350 . S
C1233 H1220 0.929 . S
C1233 C1225 1.433 . S
C1233 N1235 1.384 . S
N1234 C1230 1.427 . S
N1234 C1231 1.384 . S
N1235 C1227 1.427 . S
N1235 C1233 1.384 . S
H1236 C1242 0.930 . S
H1237 C1246 0.930 . S
H1238 C1251 0.927 1_655 S
H1239 C1249 0.929 . S
H1240 C1244 0.929 . S
H1241 C1250 0.929 . S
C1242 H1236 0.930 . S
C1242 C1243 1.367 . S
C1242 C1250 1.378 . S
C1243 C1242 1.367 . S
C1243 C1251 1.433 . S
C1244 H1240 0.929 . S
C1244 C1246 1.378 . S
C1244 C1248 1.350 . S
C1245 C1248 1.463 . S
C1245 C1250 1.350 . S
C1245 N1253 1.427 . S
C1246 H1237 0.930 . S
C1246 C1244 1.378 . S
C1246 C1247 1.367 . S
C1247 C1246 1.367 . S
C1247 C1249 1.433 . S
C1248 C1244 1.350 . S
C1248 C1245 1.463 . S
C1248 N1252 1.427 . S
C1249 H1239 0.929 . S
C1249 C1247 1.433 . S
C1249 N1252 1.384 . S
C1250 H1241 0.929 . S
C1250 C1242 1.378 . S
C1250 C1245 1.350 . S
C1251 H1238 0.927 1_455 S
C1251 C1243 1.433 . S
C1251 N1253 1.384 . S
N1252 C1248 1.427 . S
N1252 C1249 1.384 . S
N1253 C1245 1.427 . S
N1253 C1251 1.384 . S
H1254 C1260 0.930 . S
H1255 C1264 0.930 . S
H1256 C1269 0.929 . S
H1257 C1267 0.929 . S
H1258 C1262 0.929 . S
H1259 C1268 0.929 . S
C1260 H1254 0.930 . S
C1260 C1261 1.367 1_565 S
C1260 C1268 1.378 . S
C1261 C1260 1.367 1_545 S
C1261 C1269 1.433 . S
C1262 H1258 0.929 . S
C1262 C1264 1.378 . S
C1262 C1266 1.350 . S
C1263 C1266 1.463 . S
C1263 C1268 1.350 1_545 S
C1263 N1271 1.427 . S
C1264 H1255 0.930 . S
C1264 C1262 1.378 . S
C1264 C1265 1.367 . S
C1265 C1264 1.367 . S
C1265 C1267 1.433 1_545 S
C1266 C1262 1.350 . S
C1266 C1263 1.463 . S
C1266 N1270 1.427 1_545 S
C1267 H1257 0.929 . S
C1267 C1265 1.433 1_565 S
C1267 N1270 1.384 . S
C1268 H1259 0.929 . S
C1268 C1260 1.378 . S
C1268 C1263 1.350 1_565 S
C1269 H1256 0.929 . S
C1269 C1261 1.433 . S
C1269 N1271 1.384 . S
N1270 C1266 1.427 1_565 S
N1270 C1267 1.384 . S
N1271 C1263 1.427 . S
N1271 C1269 1.384 . S
H1272 C1278 0.930 . S
H1273 C1282 0.930 . S
H1274 C1287 0.929 . S
H1275 C1285 0.929 . S
H1276 C1280 0.929 . S
H1277 C1286 0.929 . S
C1278 H1272 0.930 . S
C1278 C1279 1.367 1_655 S
C1278 C1286 1.378 . S
C1279 C1278 1.367 1_455 S
C1279 C1287 1.433 . S
C1280 H1276 0.929 . S
C1280 C1282 1.378 . S
C1280 C1284 1.350 . S
C1281 C1284 1.463 . S
C1281 C1286 1.350 1_455 S
C1281 N1289 1.427 . S
C1282 H1273 0.930 . S
C1282 C1280 1.378 . S
C1282 C1283 1.367 . S
C1283 C1282 1.367 . S
C1283 C1285 1.433 1_455 S
C1284 C1280 1.350 . S
C1284 C1281 1.463 . S
C1284 N1288 1.427 1_455 S
C1285 H1275 0.929 . S
C1285 C1283 1.433 1_655 S
C1285 N1288 1.384 . S
C1286 H1277 0.929 . S
C1286 C1278 1.378 . S
C1286 C1281 1.350 1_655 S
C1287 H1274 0.929 . S
C1287 C1279 1.433 . S
C1287 N1289 1.384 . S
N1288 C1284 1.427 1_655 S
N1288 C1285 1.384 . S
N1289 C1281 1.427 . S
N1289 C1287 1.384 . S
H1290 C1296 0.930 . S
H1291 C1300 0.930 . S
H1292 C1305 0.929 . S
H1293 C1303 0.929 . S
H1294 C1298 0.929 . S
H1295 C1304 0.929 . S
C1296 H1290 0.930 . S
C1296 C1297 1.367 1_565 S
C1296 C1304 1.378 . S
C1297 C1296 1.367 1_545 S
C1297 C1305 1.433 . S
C1298 H1294 0.929 . S
C1298 C1300 1.378 . S
C1298 C1302 1.350 . S
C1299 C1302 1.463 . S
C1299 C1304 1.350 1_545 S
C1299 N1307 1.427 . S
C1300 H1291 0.930 . S
C1300 C1298 1.378 . S
C1300 C1301 1.367 . S
C1301 C1300 1.367 . S
C1301 C1303 1.433 1_545 S
C1302 C1298 1.350 . S
C1302 C1299 1.463 . S
C1302 N1306 1.427 1_545 S
C1303 H1293 0.929 . S
C1303 C1301 1.433 1_565 S
C1303 N1306 1.384 . S
C1304 H1295 0.929 . S
C1304 C1296 1.378 . S
C1304 C1299 1.350 1_565 S
C1305 H1292 0.929 . S
C1305 C1297 1.433 . S
C1305 N1307 1.384 . S
N1306 C1302 1.427 1_565 S
N1306 C1303 1.384 . S
N1307 C1299 1.427 . S
N1307 C1305 1.384 . S
H1308 C1314 0.930 . S
H1309 C1318 0.930 . S
H1310 C1323 0.929 . S
H1311 C1321 0.929 . S
H1312 C1316 0.929 . S
H1313 C1322 0.929 . S
C1314 H1308 0.930 . S
C1314 C1315 1.367 . S
C1314 C1322 1.378 . S
C1315 C1314 1.367 . S
C1315 C1323 1.433 1_455 S
C1316 H1312 0.929 . S
C1316 C1318 1.378 . S
C1316 C1320 1.350 1_655 S
C1317 C1320 1.463 . S
C1317 C1322 1.350 . S
C1317 N1325 1.427 1_455 S
C1318 H1309 0.930 . S
C1318 C1316 1.378 . S
C1318 C1319 1.367 1_655 S
C1319 C1318 1.367 1_455 S
C1319 C1321 1.433 . S
C1320 C1316 1.350 1_455 S
C1320 C1317 1.463 . S
C1320 N1324 1.427 . S
C1321 H1311 0.929 . S
C1321 C1319 1.433 . S
C1321 N1324 1.384 . S
C1322 H1313 0.929 . S
C1322 C1314 1.378 . S
C1322 C1317 1.350 . S
C1323 H1310 0.929 . S
C1323 C1315 1.433 1_655 S
C1323 N1325 1.384 . S
N1324 C1320 1.427 . S
N1324 C1321 1.384 . S
N1325 C1317 1.427 1_655 S
N1325 C1323 1.384 . S
H1326 C1332 0.930 1_565 S
H1327 C1336 0.930 . S
H1328 C1341 0.929 . S
H1329 C1339 0.929 1_565 S
H1330 C1334 0.929 . S
H1331 C1340 0.929 1_565 S
C1332 H1326 0.930 1_545 S
C1332 C1333 1.367 . S
C1332 C1340 1.378 . S
C1333 C1332 1.367 . S
C1333 C1341 1.433 . S
C1334 H1330 0.929 . S
C1334 C1336 1.378 . S
C1334 C1338 1.350 . S
C1335 C1338 1.463 . S
C1335 C1340 1.350 . S
C1335 N1343 1.427 . S
C1336 H1327 0.930 . S
C1336 C1334 1.378 . S
C1336 C1337 1.367 . S
C1337 C1336 1.367 . S
C1337 C1339 1.433 . S
C1338 C1334 1.350 . S
C1338 C1335 1.463 . S
C1338 N1342 1.427 . S
C1339 H1329 0.929 1_545 S
C1339 C1337 1.433 . S
C1339 N1342 1.384 . S
C1340 H1331 0.929 1_545 S
C1340 C1332 1.378 . S
C1340 C1335 1.350 . S
C1341 H1328 0.929 . S
C1341 C1333 1.433 . S
C1341 N1343 1.384 . S
N1342 C1338 1.427 . S
N1342 C1339 1.384 . S
N1343 C1335 1.427 . S
N1343 C1341 1.384 . S
H1344 C1350 0.930 . S
H1345 C1354 0.930 . S
H1346 C1359 0.929 . S
H1347 C1357 0.929 . S
H1348 C1352 0.929 . S
H1349 C1358 0.929 . S
C1350 H1344 0.930 . S
C1350 C1351 1.367 . S
C1350 C1358 1.378 . S
C1351 C1350 1.367 . S
C1351 C1359 1.433 1_545 S
C1352 H1348 0.929 . S
C1352 C1354 1.378 . S
C1352 C1356 1.350 1_565 S
C1353 C1356 1.463 . S
C1353 C1358 1.350 . S
C1353 N1361 1.427 1_545 S
C1354 H1345 0.930 . S
C1354 C1352 1.378 . S
C1354 C1355 1.367 1_565 S
C1355 C1354 1.367 1_545 S
C1355 C1357 1.433 . S
C1356 C1352 1.350 1_545 S
C1356 C1353 1.463 . S
C1356 N1360 1.427 . S
C1357 H1347 0.929 . S
C1357 C1355 1.433 . S
C1357 N1360 1.384 . S
C1358 H1349 0.929 . S
C1358 C1350 1.378 . S
C1358 C1353 1.350 . S
C1359 H1346 0.929 . S
C1359 C1351 1.433 1_565 S
C1359 N1361 1.384 . S
N1360 C1356 1.427 . S
N1360 C1357 1.384 . S
N1361 C1353 1.427 1_565 S
N1361 C1359 1.384 . S
H1362 C1368 0.930 . S
H1363 C1372 0.922 1_655 S
H1364 C1377 0.929 . S
H1365 C1375 0.929 . S
H1366 C1370 0.929 1_655 S
H1367 C1376 0.929 . S
C1368 H1362 0.930 . S
C1368 C1369 1.367 . S
C1368 C1376 1.378 . S
C1369 C1368 1.367 . S
C1369 C1377 1.433 . S
C1370 H1366 0.929 1_455 S
C1370 C1372 1.380 . S
C1370 C1374 1.350 . S
C1371 C1374 1.463 . S
C1371 C1376 1.350 . S
C1371 N1379 1.427 . S
C1372 H1363 0.922 1_455 S
C1372 C1370 1.380 . S
C1372 C1373 1.373 . S
C1373 C1372 1.373 . S
C1373 C1375 1.433 . S
C1374 C1370 1.350 . S
C1374 C1371 1.463 . S
C1374 N1378 1.427 . S
C1375 H1365 0.929 . S
C1375 C1373 1.433 . S
C1375 N1378 1.384 . S
C1376 H1367 0.929 . S
C1376 C1368 1.378 . S
C1376 C1371 1.350 . S
C1377 H1364 0.929 . S
C1377 C1369 1.433 . S
C1377 N1379 1.384 . S
N1378 C1374 1.427 . S
N1378 C1375 1.384 . S
N1379 C1371 1.427 . S
N1379 C1377 1.384 . S
H1380 C1386 0.930 . S
H1381 C1390 0.930 1_565 S
H1382 C1395 0.929 1_565 S
H1383 C1393 0.929 . S
H1384 C1388 0.929 1_565 S
H1385 C1394 0.929 . S
C1386 H1380 0.930 . S
C1386 C1387 1.367 . S
C1386 C1394 1.378 . S
C1387 C1386 1.367 . S
C1387 C1395 1.433 . S
C1388 H1384 0.929 1_545 S
C1388 C1390 1.378 . S
C1388 C1392 1.350 . S
C1389 C1392 1.463 . S
C1389 C1394 1.350 . S
C1389 N1397 1.427 . S
C1390 H1381 0.930 1_545 S
C1390 C1388 1.378 . S
C1390 C1391 1.367 . S
C1391 C1390 1.367 . S
C1391 C1393 1.433 . S
C1392 C1388 1.350 . S
C1392 C1389 1.463 . S
C1392 N1396 1.427 . S
C1393 H1383 0.929 . S
C1393 C1391 1.433 . S
C1393 N1396 1.384 . S
C1394 H1385 0.929 . S
C1394 C1386 1.378 . S
C1394 C1389 1.350 . S
C1395 H1382 0.929 1_545 S
C1395 C1387 1.433 . S
C1395 N1397 1.384 . S
N1396 C1392 1.427 . S
N1396 C1393 1.384 . S
N1397 C1389 1.427 . S
N1397 C1395 1.384 . S
H1398 C1404 0.930 . S
H1399 C1408 0.930 . S
H1400 C1413 0.929 . S
H1401 C1411 0.929 . S
H1402 C1406 0.929 . S
H1403 C1412 0.929 . S
C1404 H1398 0.930 . S
C1404 C1405 1.367 1_655 S
C1404 C1412 1.378 . S
C1405 C1404 1.367 1_455 S
C1405 C1413 1.433 . S
C1406 H1402 0.929 . S
C1406 C1408 1.378 . S
C1406 C1410 1.350 . S
C1407 C1410 1.463 . S
C1407 C1412 1.350 1_455 S
C1407 N1415 1.427 . S
C1408 H1399 0.930 . S
C1408 C1406 1.378 . S
C1408 C1409 1.367 . S
C1409 C1408 1.367 . S
C1409 C1411 1.433 1_455 S
C1410 C1406 1.350 . S
C1410 C1407 1.463 . S
C1410 N1414 1.427 1_455 S
C1411 H1401 0.929 . S
C1411 C1409 1.433 1_655 S
C1411 N1414 1.384 . S
C1412 H1403 0.929 . S
C1412 C1404 1.378 . S
C1412 C1407 1.350 1_655 S
C1413 H1400 0.929 . S
C1413 C1405 1.433 . S
C1413 N1415 1.384 . S
N1414 C1410 1.427 1_655 S
N1414 C1411 1.384 . S
N1415 C1407 1.427 . S
N1415 C1413 1.384 . S
H1416 C1422 0.930 . S
H1417 C1426 0.930 . S
H1418 C1431 0.929 . S
H1419 C1429 0.929 . S
H1420 C1424 0.929 . S
H1421 C1430 0.929 . S
C1422 H1416 0.930 . S
C1422 C1423 1.367 . S
C1422 C1430 1.378 . S
C1423 C1422 1.367 . S
C1423 C1431 1.433 . S
C1424 H1420 0.929 . S
C1424 C1426 1.378 . S
C1424 C1428 1.350 . S
C1425 C1428 1.463 . S
C1425 C1430 1.350 . S
C1425 N1433 1.427 . S
C1426 H1417 0.930 . S
C1426 C1424 1.378 . S
C1426 C1427 1.367 . S
C1427 C1426 1.367 . S
C1427 C1429 1.433 . S
C1428 C1424 1.350 . S
C1428 C1425 1.463 . S
C1428 N1432 1.427 . S
C1429 H1419 0.929 . S
C1429 C1427 1.433 . S
C1429 N1432 1.384 . S
C1430 H1421 0.929 . S
C1430 C1422 1.378 . S
C1430 C1425 1.350 . S
C1431 H1418 0.929 . S
C1431 C1423 1.433 . S
C1431 N1433 1.384 . S
N1432 C1428 1.427 . S
N1432 C1429 1.384 . S
N1433 C1425 1.427 . S
N1433 C1431 1.384 . S
H1434 C1440 0.930 . S
H1435 C1444 0.930 . S
H1436 C1449 0.929 . S
H1437 C1447 0.929 . S
H1438 C1442 0.929 . S
H1439 C1448 0.929 . S
C1440 H1434 0.930 . S
C1440 C1441 1.367 . S
C1440 C1448 1.378 . S
C1441 C1440 1.367 . S
C1441 C1449 1.433 . S
C1442 H1438 0.929 . S
C1442 C1444 1.378 . S
C1442 C1446 1.350 . S
C1443 C1446 1.463 . S
C1443 C1448 1.350 . S
C1443 N1451 1.427 . S
C1444 H1435 0.930 . S
C1444 C1442 1.378 . S
C1444 C1445 1.367 . S
C1445 C1444 1.367 . S
C1445 C1447 1.433 . S
C1446 C1442 1.350 . S
C1446 C1443 1.463 . S
C1446 N1450 1.427 . S
C1447 H1437 0.929 . S
C1447 C1445 1.433 . S
C1447 N1450 1.384 . S
C1448 H1439 0.929 . S
C1448 C1440 1.378 . S
C1448 C1443 1.350 . S
C1449 H1436 0.929 . S
C1449 C1441 1.433 . S
C1449 N1451 1.384 . S
N1450 C1446 1.427 . S
N1450 C1447 1.384 . S
N1451 C1443 1.427 . S
N1451 C1449 1.384 . S
H1452 C1458 0.930 . S
H1453 C1462 0.930 1_565 S
H1454 C1467 0.929 1_565 S
H1455 C1465 0.929 . S
H1456 C1460 0.929 1_565 S
H1457 C1466 0.929 . S
C1458 H1452 0.930 . S
C1458 C1459 1.367 . S
C1458 C1466 1.378 . S
C1459 C1458 1.367 . S
C1459 C1467 1.433 . S
C1460 H1456 0.929 1_545 S
C1460 C1462 1.378 . S
C1460 C1464 1.350 . S
C1461 C1464 1.463 . S
C1461 C1466 1.350 . S
C1461 N1469 1.427 . S
C1462 H1453 0.930 1_545 S
C1462 C1460 1.378 . S
C1462 C1463 1.367 . S
C1463 C1462 1.367 . S
C1463 C1465 1.433 . S
C1464 C1460 1.350 . S
C1464 C1461 1.463 . S
C1464 N1468 1.427 . S
C1465 H1455 0.929 . S
C1465 C1463 1.433 . S
C1465 N1468 1.384 . S
C1466 H1457 0.929 . S
C1466 C1458 1.378 . S
C1466 C1461 1.350 . S
C1467 H1454 0.929 1_545 S
C1467 C1459 1.433 . S
C1467 N1469 1.384 . S
N1468 C1464 1.427 . S
N1468 C1465 1.384 . S
N1469 C1461 1.427 . S
N1469 C1467 1.384 . S
H1470 C1476 0.930 . S
H1471 C1480 0.930 . S
H1472 C1485 0.929 . S
H1473 C1483 0.929 . S
H1474 C1478 0.929 . S
H1475 C1484 0.929 . S
C1476 H1470 0.930 . S
C1476 C1477 1.381 . S
C1476 C1484 1.378 . S
C1477 C1476 1.381 . S
C1477 C1485 1.421 1_455 S
C1478 H1474 0.929 . S
C1478 C1480 1.378 . S
C1478 C1482 1.350 1_655 S
C1479 C1482 1.463 . S
C1479 C1484 1.350 . S
C1479 N1487 1.427 1_455 S
C1480 H1471 0.930 . S
C1480 C1478 1.378 . S
C1480 C1481 1.367 1_655 S
C1481 C1480 1.367 1_455 S
C1481 C1483 1.433 . S
C1482 C1478 1.350 1_455 S
C1482 C1479 1.463 . S
C1482 N1486 1.427 . S
C1483 H1473 0.929 . S
C1483 C1481 1.433 . S
C1483 N1486 1.384 . S
C1484 H1475 0.929 . S
C1484 C1476 1.378 . S
C1484 C1479 1.350 . S
C1485 H1472 0.929 . S
C1485 C1477 1.421 1_655 S
C1485 N1487 1.384 . S
N1486 C1482 1.427 . S
N1486 C1483 1.384 . S
N1487 C1479 1.427 1_655 S
N1487 C1485 1.384 . S
H1488 C1494 0.930 . S
H1489 C1498 0.930 . S
H1490 C1503 0.929 . S
H1491 C1501 0.929 . S
H1492 C1496 0.929 . S
H1493 C1502 0.929 . S
C1494 H1488 0.930 . S
C1494 C1495 1.367 1_556 S
C1494 C1502 1.378 . S
C1495 C1494 1.367 1_554 S
C1495 C1503 1.433 . S
C1496 H1492 0.929 . S
C1496 C1498 1.378 . S
C1496 C1500 1.350 . S
C1497 C1500 1.463 . S
C1497 C1502 1.350 1_554 S
C1497 N1505 1.427 . S
C1498 H1489 0.930 . S
C1498 C1496 1.378 . S
C1498 C1499 1.367 . S
C1499 C1498 1.367 . S
C1499 C1501 1.433 1_554 S
C1500 C1496 1.350 . S
C1500 C1497 1.463 . S
C1500 N1504 1.427 1_554 S
C1501 H1491 0.929 . S
C1501 C1499 1.433 1_556 S
C1501 N1504 1.384 . S
C1502 H1493 0.929 . S
C1502 C1494 1.378 . S
C1502 C1497 1.350 1_556 S
C1503 H1490 0.929 . S
C1503 C1495 1.433 . S
C1503 N1505 1.384 . S
N1504 C1500 1.427 1_556 S
N1504 C1501 1.384 . S
N1505 C1497 1.427 . S
N1505 C1503 1.384 . S
H1506 C1512 0.930 . S
H1507 C1516 0.930 . S
H1508 C1521 0.916 1_556 S
H1509 C1519 0.929 . S
H1510 C1514 0.939 . S
H1511 C1520 0.929 . S
C1512 H1506 0.930 . S
C1512 C1513 1.367 . S
C1512 C1520 1.378 . S
C1513 C1512 1.367 . S
C1513 C1521 1.449 . S
C1514 H1510 0.939 . S
C1514 C1516 1.378 . S
C1514 C1518 1.340 1_556 S
C1515 C1518 1.463 . S
C1515 C1520 1.350 . S
C1515 N1523 1.434 . S
C1516 H1507 0.930 . S
C1516 C1514 1.378 . S
C1516 C1517 1.367 1_556 S
C1517 C1516 1.367 1_554 S
C1517 C1519 1.433 . S
C1518 C1514 1.340 1_554 S
C1518 C1515 1.463 . S
C1518 N1522 1.427 . S
C1519 H1509 0.929 . S
C1519 C1517 1.433 . S
C1519 N1522 1.384 . S
C1520 H1511 0.929 . S
C1520 C1512 1.378 . S
C1520 C1515 1.350 . S
C1521 H1508 0.916 1_554 S
C1521 C1513 1.449 . S
C1521 N1523 1.383 . S
N1522 C1518 1.427 . S
N1522 C1519 1.384 . S
N1523 C1515 1.434 . S
N1523 C1521 1.383 . S
H1524 C1530 0.930 . S
H1525 C1534 0.930 . S
H1526 C1539 0.908 1_556 S
H1527 C1537 0.929 . S
H1528 C1532 0.929 . S
H1529 C1538 0.929 . S
C1530 H1524 0.930 . S
C1530 C1531 1.367 . S
C1530 C1538 1.378 . S
C1531 C1530 1.367 . S
C1531 C1539 1.457 . S
C1532 H1528 0.929 . S
C1532 C1534 1.378 . S
C1532 C1536 1.350 1_556 S
C1533 C1536 1.463 . S
C1533 C1538 1.350 . S
C1533 N1541 1.429 . S
C1534 H1525 0.930 . S
C1534 C1532 1.378 . S
C1534 C1535 1.367 1_556 S
C1535 C1534 1.367 1_554 S
C1535 C1537 1.433 . S
C1536 C1532 1.350 1_554 S
C1536 C1533 1.463 . S
C1536 N1540 1.427 . S
C1537 H1527 0.929 . S
C1537 C1535 1.433 . S
C1537 N1540 1.384 . S
C1538 H1529 0.929 . S
C1538 C1530 1.378 . S
C1538 C1533 1.350 . S
C1539 H1526 0.908 1_554 S
C1539 C1531 1.457 . S
C1539 N1541 1.383 . S
N1540 C1536 1.427 . S
N1540 C1537 1.384 . S
N1541 C1533 1.429 . S
N1541 C1539 1.383 . S
H1542 C1548 0.930 . S
H1543 C1552 0.930 . S
H1544 C1557 0.929 . S
H1545 C1555 0.929 . S
H1546 C1550 0.929 . S
H1547 C1556 0.929 . S
C1548 H1542 0.930 . S
C1548 C1549 1.367 1_556 S
C1548 C1556 1.378 . S
C1549 C1548 1.367 1_554 S
C1549 C1557 1.433 . S
C1550 H1546 0.929 . S
C1550 C1552 1.378 . S
C1550 C1554 1.345 1_554 S
C1551 C1554 1.462 . S
C1551 C1556 1.373 . S
C1551 N1559 1.403 1_556 S
C1552 H1543 0.930 . S
C1552 C1550 1.378 . S
C1552 C1553 1.367 1_554 S
C1553 C1552 1.367 1_556 S
C1553 C1555 1.433 . S
C1554 C1550 1.345 1_556 S
C1554 C1551 1.462 . S
C1554 N1558 1.433 . S
C1555 H1545 0.929 . S
C1555 C1553 1.433 . S
C1555 N1558 1.384 . S
C1556 H1547 0.929 . S
C1556 C1548 1.378 . S
C1556 C1551 1.373 . S
C1557 H1544 0.929 . S
C1557 C1549 1.433 . S
C1557 N1559 1.384 . S
N1558 C1554 1.433 . S
N1558 C1555 1.384 . S
N1559 C1551 1.403 1_554 S
N1559 C1557 1.384 . S
H1560 C1566 0.930 . S
H1561 C1570 0.930 . S
H1562 C1575 0.929 . S
H1563 C1573 0.929 . S
H1564 C1568 0.929 . S
H1565 C1574 0.929 . S
C1566 H1560 0.930 . S
C1566 C1567 1.367 . S
C1566 C1574 1.378 . S
C1567 C1566 1.367 . S
C1567 C1575 1.433 1_554 S
C1568 H1564 0.929 . S
C1568 C1570 1.378 . S
C1568 C1572 1.350 1_556 S
C1569 C1572 1.463 . S
C1569 C1574 1.350 . S
C1569 N1577 1.427 1_554 S
C1570 H1561 0.930 . S
C1570 C1568 1.378 . S
C1570 C1571 1.367 1_556 S
C1571 C1570 1.367 1_554 S
C1571 C1573 1.433 . S
C1572 C1568 1.350 1_554 S
C1572 C1569 1.463 . S
C1572 N1576 1.427 . S
C1573 H1563 0.929 . S
C1573 C1571 1.433 . S
C1573 N1576 1.384 . S
C1574 H1565 0.929 . S
C1574 C1566 1.378 . S
C1574 C1569 1.350 . S
C1575 H1562 0.929 . S
C1575 C1567 1.433 1_556 S
C1575 N1577 1.384 . S
N1576 C1572 1.427 . S
N1576 C1573 1.384 . S
N1577 C1569 1.427 1_556 S
N1577 C1575 1.384 . S
H1578 C1584 0.930 . S
H1579 C1588 0.930 . S
H1580 C1593 0.929 . S
H1581 C1591 0.929 . S
H1582 C1586 0.929 . S
H1583 C1592 0.929 . S
C1584 H1578 0.930 . S
C1584 C1585 1.367 1_556 S
C1584 C1592 1.378 . S
C1585 C1584 1.367 1_554 S
C1585 C1593 1.433 . S
C1586 H1582 0.929 . S
C1586 C1588 1.378 . S
C1586 C1590 1.350 . S
C1587 C1590 1.464 . S
C1587 C1592 1.322 1_554 S
C1587 N1595 1.457 . S
C1588 H1579 0.930 . S
C1588 C1586 1.378 . S
C1588 C1589 1.365 1_554 S
C1589 C1588 1.365 1_556 S
C1589 C1591 1.435 . S
C1590 C1586 1.350 . S
C1590 C1587 1.464 . S
C1590 N1594 1.427 1_554 S
C1591 H1581 0.929 . S
C1591 C1589 1.435 . S
C1591 N1594 1.384 . S
C1592 H1583 0.929 . S
C1592 C1584 1.378 . S
C1592 C1587 1.322 1_556 S
C1593 H1580 0.929 . S
C1593 C1585 1.433 . S
C1593 N1595 1.384 . S
N1594 C1590 1.427 1_556 S
N1594 C1591 1.384 . S
N1595 C1587 1.457 . S
N1595 C1593 1.384 . S
H1596 C1602 0.930 . S
H1597 C1606 0.930 1_556 S
H1598 C1611 0.929 1_556 S
H1599 C1609 0.929 . S
H1600 C1604 0.929 1_556 S
H1601 C1610 0.929 . S
C1602 H1596 0.930 . S
C1602 C1603 1.367 . S
C1602 C1610 1.378 . S
C1603 C1602 1.367 . S
C1603 C1611 1.433 . S
C1604 H1600 0.929 1_554 S
C1604 C1606 1.378 . S
C1604 C1608 1.350 . S
C1605 C1608 1.463 . S
C1605 C1610 1.350 . S
C1605 N1613 1.427 . S
C1606 H1597 0.930 1_554 S
C1606 C1604 1.378 . S
C1606 C1607 1.367 . S
C1607 C1606 1.367 . S
C1607 C1609 1.433 . S
C1608 C1604 1.350 . S
C1608 C1605 1.463 . S
C1608 N1612 1.427 . S
C1609 H1599 0.929 . S
C1609 C1607 1.433 . S
C1609 N1612 1.384 . S
C1610 H1601 0.929 . S
C1610 C1602 1.378 . S
C1610 C1605 1.350 . S
C1611 H1598 0.929 1_554 S
C1611 C1603 1.433 . S
C1611 N1613 1.384 . S
N1612 C1608 1.427 . S
N1612 C1609 1.384 . S
N1613 C1605 1.427 . S
N1613 C1611 1.384 . S
H1614 C1620 0.930 1_556 S
H1615 C1624 0.930 . S
H1616 C1629 0.929 . S
H1617 C1627 0.929 . S
H1618 C1622 0.929 . S
H1619 C1628 0.929 1_556 S
C1620 H1614 0.930 1_554 S
C1620 C1621 1.367 . S
C1620 C1628 1.378 . S
C1621 C1620 1.367 . S
C1621 C1629 1.433 . S
C1622 H1618 0.929 . S
C1622 C1624 1.378 . S
C1622 C1626 1.350 . S
C1623 C1626 1.463 . S
C1623 C1628 1.350 . S
C1623 N1631 1.427 . S
C1624 H1615 0.930 . S
C1624 C1622 1.378 . S
C1624 C1625 1.367 . S
C1625 C1624 1.367 . S
C1625 C1627 1.433 . S
C1626 C1622 1.350 . S
C1626 C1623 1.463 . S
C1626 N1630 1.427 . S
C1627 H1617 0.929 . S
C1627 C1625 1.433 . S
C1627 N1630 1.384 . S
C1628 H1619 0.929 1_554 S
C1628 C1620 1.378 . S
C1628 C1623 1.350 . S
C1629 H1616 0.929 . S
C1629 C1621 1.433 . S
C1629 N1631 1.384 . S
N1630 C1626 1.427 . S
N1630 C1627 1.384 . S
N1631 C1623 1.427 . S
N1631 C1629 1.384 . S
H1632 C1638 0.930 . S
H1633 C1642 0.930 . S
H1634 C1647 0.929 . S
H1635 C1645 0.929 . S
H1636 C1640 0.929 . S
H1637 C1646 0.929 . S
C1638 H1632 0.930 . S
C1638 C1639 1.367 . S
C1638 C1646 1.378 . S
C1639 C1638 1.367 . S
C1639 C1647 1.433 . S
C1640 H1636 0.929 . S
C1640 C1642 1.378 . S
C1640 C1644 1.350 . S
C1641 C1644 1.463 . S
C1641 C1646 1.350 . S
C1641 N1649 1.427 . S
C1642 H1633 0.930 . S
C1642 C1640 1.378 . S
C1642 C1643 1.367 . S
C1643 C1642 1.367 . S
C1643 C1645 1.433 . S
C1644 C1640 1.350 . S
C1644 C1641 1.463 . S
C1644 N1648 1.427 . S
C1645 H1635 0.929 . S
C1645 C1643 1.433 . S
C1645 N1648 1.384 . S
C1646 H1637 0.929 . S
C1646 C1638 1.378 . S
C1646 C1641 1.350 . S
C1647 H1634 0.929 . S
C1647 C1639 1.433 . S
C1647 N1649 1.384 . S
N1648 C1644 1.427 . S
N1648 C1645 1.384 . S
N1649 C1641 1.427 . S
N1649 C1647 1.384 . S
H1650 C1656 0.930 . S
H1651 C1660 0.930 . S
H1652 C1665 0.929 . S
H1653 C1663 0.929 . S
H1654 C1658 0.929 . S
H1655 C1664 0.929 . S
C1656 H1650 0.930 . S
C1656 C1657 1.367 . S
C1656 C1664 1.378 . S
C1657 C1656 1.367 . S
C1657 C1665 1.433 . S
C1658 H1654 0.929 . S
C1658 C1660 1.378 . S
C1658 C1662 1.350 . S
C1659 C1662 1.463 . S
C1659 C1664 1.350 . S
C1659 N1667 1.427 . S
C1660 H1651 0.930 . S
C1660 C1658 1.378 . S
C1660 C1661 1.367 . S
C1661 C1660 1.367 . S
C1661 C1663 1.433 . S
C1662 C1658 1.350 . S
C1662 C1659 1.463 . S
C1662 N1666 1.427 . S
C1663 H1653 0.929 . S
C1663 C1661 1.433 . S
C1663 N1666 1.384 . S
C1664 H1655 0.929 . S
C1664 C1656 1.378 . S
C1664 C1659 1.350 . S
C1665 H1652 0.929 . S
C1665 C1657 1.433 . S
C1665 N1667 1.384 . S
N1666 C1662 1.427 . S
N1666 C1663 1.384 . S
N1667 C1659 1.427 . S
N1667 C1665 1.384 . S
H1668 C1674 0.930 . S
H1669 C1678 0.930 . S
H1670 C1683 0.929 . S
H1671 C1681 0.929 . S
H1672 C1676 0.929 . S
H1673 C1682 0.929 . S
C1674 H1668 0.930 . S
C1674 C1675 1.367 . S
C1674 C1682 1.378 . S
C1675 C1674 1.367 . S
C1675 C1683 1.433 . S
C1676 H1672 0.929 . S
C1676 C1678 1.378 . S
C1676 C1680 1.350 . S
C1677 C1680 1.463 . S
C1677 C1682 1.350 . S
C1677 N1685 1.427 . S
C1678 H1669 0.930 . S
C1678 C1676 1.378 . S
C1678 C1679 1.367 . S
C1679 C1678 1.367 . S
C1679 C1681 1.433 . S
C1680 C1676 1.350 . S
C1680 C1677 1.463 . S
C1680 N1684 1.427 . S
C1681 H1671 0.929 . S
C1681 C1679 1.433 . S
C1681 N1684 1.384 . S
C1682 H1673 0.929 . S
C1682 C1674 1.378 . S
C1682 C1677 1.350 . S
C1683 H1670 0.929 . S
C1683 C1675 1.433 . S
C1683 N1685 1.384 . S
N1684 C1680 1.427 . S
N1684 C1681 1.384 . S
N1685 C1677 1.427 . S
N1685 C1683 1.384 . S
H1686 C1692 0.930 . S
H1687 C1696 0.930 . S
H1688 C1701 0.929 . S
H1689 C1699 0.929 . S
H1690 C1694 0.929 . S
H1691 C1700 0.929 . S
C1692 H1686 0.930 . S
C1692 C1693 1.367 . S
C1692 C1700 1.378 . S
C1693 C1692 1.367 . S
C1693 C1701 1.433 . S
C1694 H1690 0.929 . S
C1694 C1696 1.378 . S
C1694 C1698 1.350 . S
C1695 C1698 1.463 . S
C1695 C1700 1.350 . S
C1695 N1703 1.427 . S
C1696 H1687 0.930 . S
C1696 C1694 1.378 . S
C1696 C1697 1.367 . S
C1697 C1696 1.367 . S
C1697 C1699 1.433 . S
C1698 C1694 1.350 . S
C1698 C1695 1.463 . S
C1698 N1702 1.427 . S
C1699 H1689 0.929 . S
C1699 C1697 1.433 . S
C1699 N1702 1.384 . S
C1700 H1691 0.929 . S
C1700 C1692 1.378 . S
C1700 C1695 1.350 . S
C1701 H1688 0.929 . S
C1701 C1693 1.433 . S
C1701 N1703 1.384 . S
N1702 C1698 1.427 . S
N1702 C1699 1.384 . S
N1703 C1695 1.427 . S
N1703 C1701 1.384 . S
H1704 C1710 0.930 . S
H1705 C1714 0.930 . S
H1706 C1719 0.929 . S
H1707 C1717 0.929 . S
H1708 C1712 0.929 . S
H1709 C1718 0.929 . S
C1710 H1704 0.930 . S
C1710 C1711 1.367 . S
C1710 C1718 1.378 . S
C1711 C1710 1.367 . S
C1711 C1719 1.433 . S
C1712 H1708 0.929 . S
C1712 C1714 1.378 . S
C1712 C1716 1.350 . S
C1713 C1716 1.463 . S
C1713 C1718 1.350 . S
C1713 N1721 1.427 . S
C1714 H1705 0.930 . S
C1714 C1712 1.378 . S
C1714 C1715 1.367 . S
C1715 C1714 1.367 . S
C1715 C1717 1.433 . S
C1716 C1712 1.350 . S
C1716 C1713 1.463 . S
C1716 N1720 1.427 . S
C1717 H1707 0.929 . S
C1717 C1715 1.433 . S
C1717 N1720 1.384 . S
C1718 H1709 0.929 . S
C1718 C1710 1.378 . S
C1718 C1713 1.350 . S
C1719 H1706 0.929 . S
C1719 C1711 1.433 . S
C1719 N1721 1.384 . S
N1720 C1716 1.427 . S
N1720 C1717 1.384 . S
N1721 C1713 1.427 . S
N1721 C1719 1.384 . S
H1722 C1728 0.930 . S
H1723 C1732 0.930 . S
H1724 C1737 0.929 . S
H1725 C1735 0.929 . S
H1726 C1730 0.929 . S
H1727 C1736 0.929 . S
C1728 H1722 0.930 . S
C1728 C1729 1.367 . S
C1728 C1736 1.378 . S
C1729 C1728 1.367 . S
C1729 C1737 1.433 . S
C1730 H1726 0.929 . S
C1730 C1732 1.378 . S
C1730 C1734 1.350 . S
C1731 C1734 1.463 . S
C1731 C1736 1.350 . S
C1731 N1739 1.427 . S
C1732 H1723 0.930 . S
C1732 C1730 1.378 . S
C1732 C1733 1.367 . S
C1733 C1732 1.367 . S
C1733 C1735 1.433 . S
C1734 C1730 1.350 . S
C1734 C1731 1.463 . S
C1734 N1738 1.427 . S
C1735 H1725 0.929 . S
C1735 C1733 1.433 . S
C1735 N1738 1.384 . S
C1736 H1727 0.929 . S
C1736 C1728 1.378 . S
C1736 C1731 1.350 . S
C1737 H1724 0.929 . S
C1737 C1729 1.433 . S
C1737 N1739 1.384 . S
N1738 C1734 1.427 . S
N1738 C1735 1.384 . S
N1739 C1731 1.427 . S
N1739 C1737 1.384 . S
H1740 C1746 0.930 . S
H1741 C1750 0.930 . S
H1742 C1755 0.929 . S
H1743 C1753 0.929 . S
H1744 C1748 0.929 . S
H1745 C1754 0.929 . S
C1746 H1740 0.930 . S
C1746 C1747 1.367 . S
C1746 C1754 1.378 . S
C1747 C1746 1.367 . S
C1747 C1755 1.433 . S
C1748 H1744 0.929 . S
C1748 C1750 1.378 . S
C1748 C1752 1.350 . S
C1749 C1752 1.463 . S
C1749 C1754 1.350 . S
C1749 N1757 1.427 . S
C1750 H1741 0.930 . S
C1750 C1748 1.378 . S
C1750 C1751 1.367 . S
C1751 C1750 1.367 . S
C1751 C1753 1.433 . S
C1752 C1748 1.350 . S
C1752 C1749 1.463 . S
C1752 N1756 1.427 . S
C1753 H1743 0.929 . S
C1753 C1751 1.433 . S
C1753 N1756 1.384 . S
C1754 H1745 0.929 . S
C1754 C1746 1.378 . S
C1754 C1749 1.350 . S
C1755 H1742 0.929 . S
C1755 C1747 1.433 . S
C1755 N1757 1.384 . S
N1756 C1752 1.427 . S
N1756 C1753 1.384 . S
N1757 C1749 1.427 . S
N1757 C1755 1.384 . S
H1758 C1764 0.930 . S
H1759 C1768 0.930 . S
H1760 C1773 0.929 . S
H1761 C1771 0.929 . S
H1762 C1766 0.929 . S
H1763 C1772 0.929 . S
C1764 H1758 0.930 . S
C1764 C1765 1.367 . S
C1764 C1772 1.378 . S
C1765 C1764 1.367 . S
C1765 C1773 1.433 . S
C1766 H1762 0.929 . S
C1766 C1768 1.378 . S
C1766 C1770 1.350 . S
C1767 C1770 1.463 . S
C1767 C1772 1.350 . S
C1767 N1775 1.427 . S
C1768 H1759 0.930 . S
C1768 C1766 1.378 . S
C1768 C1769 1.367 . S
C1769 C1768 1.367 . S
C1769 C1771 1.433 . S
C1770 C1766 1.350 . S
C1770 C1767 1.463 . S
C1770 N1774 1.427 . S
C1771 H1761 0.929 . S
C1771 C1769 1.433 . S
C1771 N1774 1.384 . S
C1772 H1763 0.929 . S
C1772 C1764 1.378 . S
C1772 C1767 1.350 . S
C1773 H1760 0.929 . S
C1773 C1765 1.433 . S
C1773 N1775 1.384 . S
N1774 C1770 1.427 . S
N1774 C1771 1.384 . S
N1775 C1767 1.427 . S
N1775 C1773 1.384 . S
H1776 C1782 0.930 . S
H1777 C1786 0.930 . S
H1778 C1791 0.929 . S
H1779 C1789 0.929 . S
H1780 C1784 0.929 . S
H1781 C1790 0.929 . S
C1782 H1776 0.930 . S
C1782 C1783 1.367 . S
C1782 C1790 1.378 . S
C1783 C1782 1.367 . S
C1783 C1791 1.433 . S
C1784 H1780 0.929 . S
C1784 C1786 1.378 . S
C1784 C1788 1.350 . S
C1785 C1788 1.463 . S
C1785 C1790 1.350 . S
C1785 N1793 1.427 . S
C1786 H1777 0.930 . S
C1786 C1784 1.378 . S
C1786 C1787 1.367 . S
C1787 C1786 1.367 . S
C1787 C1789 1.433 . S
C1788 C1784 1.350 . S
C1788 C1785 1.463 . S
C1788 N1792 1.427 . S
C1789 H1779 0.929 . S
C1789 C1787 1.433 . S
C1789 N1792 1.384 . S
C1790 H1781 0.929 . S
C1790 C1782 1.378 . S
C1790 C1785 1.350 . S
C1791 H1778 0.929 . S
C1791 C1783 1.433 . S
C1791 N1793 1.384 . S
N1792 C1788 1.427 . S
N1792 C1789 1.384 . S
N1793 C1785 1.427 . S
N1793 C1791 1.384 . S
H1794 C1800 0.930 . S
H1795 C1804 0.930 . S
H1796 C1809 0.929 . S
H1797 C1807 0.929 . S
H1798 C1802 0.929 . S
H1799 C1808 0.929 . S
C1800 H1794 0.930 . S
C1800 C1801 1.367 . S
C1800 C1808 1.378 . S
C1801 C1800 1.367 . S
C1801 C1809 1.433 . S
C1802 H1798 0.929 . S
C1802 C1804 1.378 . S
C1802 C1806 1.350 . S
C1803 C1806 1.463 . S
C1803 C1808 1.350 . S
C1803 N1811 1.427 . S
C1804 H1795 0.930 . S
C1804 C1802 1.378 . S
C1804 C1805 1.367 . S
C1805 C1804 1.367 . S
C1805 C1807 1.433 . S
C1806 C1802 1.350 . S
C1806 C1803 1.463 . S
C1806 N1810 1.427 . S
C1807 H1797 0.929 . S
C1807 C1805 1.433 . S
C1807 N1810 1.384 . S
C1808 H1799 0.929 . S
C1808 C1800 1.378 . S
C1808 C1803 1.350 . S
C1809 H1796 0.929 . S
C1809 C1801 1.433 . S
C1809 N1811 1.384 . S
N1810 C1806 1.427 . S
N1810 C1807 1.384 . S
N1811 C1803 1.427 . S
N1811 C1809 1.384 . S
H1812 C1818 0.930 . S
H1813 C1822 0.930 . S
H1814 C1827 0.929 . S
H1815 C1825 0.929 . S
H1816 C1820 0.929 . S
H1817 C1826 0.929 . S
C1818 H1812 0.930 . S
C1818 C1819 1.367 . S
C1818 C1826 1.378 . S
C1819 C1818 1.367 . S
C1819 C1827 1.433 . S
C1820 H1816 0.929 . S
C1820 C1822 1.378 . S
C1820 C1824 1.350 . S
C1821 C1824 1.463 . S
C1821 C1826 1.350 . S
C1821 N1829 1.427 . S
C1822 H1813 0.930 . S
C1822 C1820 1.378 . S
C1822 C1823 1.367 . S
C1823 C1822 1.367 . S
C1823 C1825 1.433 . S
C1824 C1820 1.350 . S
C1824 C1821 1.463 . S
C1824 N1828 1.427 . S
C1825 H1815 0.929 . S
C1825 C1823 1.433 . S
C1825 N1828 1.384 . S
C1826 H1817 0.929 . S
C1826 C1818 1.378 . S
C1826 C1821 1.350 . S
C1827 H1814 0.929 . S
C1827 C1819 1.433 . S
C1827 N1829 1.384 . S
N1828 C1824 1.427 . S
N1828 C1825 1.384 . S
N1829 C1821 1.427 . S
N1829 C1827 1.384 . S
H1830 C1836 0.930 . S
H1831 C1840 0.930 . S
H1832 C1845 0.929 . S
H1833 C1843 0.929 . S
H1834 C1838 0.929 . S
H1835 C1844 0.929 . S
C1836 H1830 0.930 . S
C1836 C1837 1.367 . S
C1836 C1844 1.378 . S
C1837 C1836 1.367 . S
C1837 C1845 1.433 . S
C1838 H1834 0.929 . S
C1838 C1840 1.378 . S
C1838 C1842 1.350 . S
C1839 C1842 1.463 . S
C1839 C1844 1.350 . S
C1839 N1847 1.427 . S
C1840 H1831 0.930 . S
C1840 C1838 1.378 . S
C1840 C1841 1.367 . S
C1841 C1840 1.367 . S
C1841 C1843 1.433 . S
C1842 C1838 1.350 . S
C1842 C1839 1.463 . S
C1842 N1846 1.427 . S
C1843 H1833 0.929 . S
C1843 C1841 1.433 . S
C1843 N1846 1.384 . S
C1844 H1835 0.929 . S
C1844 C1836 1.378 . S
C1844 C1839 1.350 . S
C1845 H1832 0.929 . S
C1845 C1837 1.433 . S
C1845 N1847 1.384 . S
N1846 C1842 1.427 . S
N1846 C1843 1.384 . S
N1847 C1839 1.427 . S
N1847 C1845 1.384 . S
H1848 C1854 0.930 . S
H1849 C1858 0.930 . S
H1850 C1863 0.929 . S
H1851 C1861 0.929 . S
H1852 C1856 0.929 . S
H1853 C1862 0.929 . S
C1854 H1848 0.930 . S
C1854 C1855 1.367 . S
C1854 C1862 1.378 . S
C1855 C1854 1.367 . S
C1855 C1863 1.433 . S
C1856 H1852 0.929 . S
C1856 C1858 1.378 . S
C1856 C1860 1.350 . S
C1857 C1860 1.463 . S
C1857 C1862 1.350 . S
C1857 N1865 1.427 . S
C1858 H1849 0.930 . S
C1858 C1856 1.378 . S
C1858 C1859 1.367 . S
C1859 C1858 1.367 . S
C1859 C1861 1.433 . S
C1860 C1856 1.350 . S
C1860 C1857 1.463 . S
C1860 N1864 1.427 . S
C1861 H1851 0.929 . S
C1861 C1859 1.433 . S
C1861 N1864 1.384 . S
C1862 H1853 0.929 . S
C1862 C1854 1.378 . S
C1862 C1857 1.350 . S
C1863 H1850 0.929 . S
C1863 C1855 1.433 . S
C1863 N1865 1.384 . S
N1864 C1860 1.427 . S
N1864 C1861 1.384 . S
N1865 C1857 1.427 . S
N1865 C1863 1.384 . S
H1866 C1872 0.930 . S
H1867 C1876 0.930 . S
H1868 C1881 0.929 . S
H1869 C1879 0.929 . S
H1870 C1874 0.929 . S
H1871 C1880 0.929 . S
C1872 H1866 0.930 . S
C1872 C1873 1.367 . S
C1872 C1880 1.378 . S
C1873 C1872 1.367 . S
C1873 C1881 1.433 . S
C1874 H1870 0.929 . S
C1874 C1876 1.378 . S
C1874 C1878 1.350 . S
C1875 C1878 1.463 . S
C1875 C1880 1.350 . S
C1875 N1883 1.427 . S
C1876 H1867 0.930 . S
C1876 C1874 1.378 . S
C1876 C1877 1.367 . S
C1877 C1876 1.367 . S
C1877 C1879 1.433 . S
C1878 C1874 1.350 . S
C1878 C1875 1.463 . S
C1878 N1882 1.427 . S
C1879 H1869 0.929 . S
C1879 C1877 1.433 . S
C1879 N1882 1.384 . S
C1880 H1871 0.929 . S
C1880 C1872 1.378 . S
C1880 C1875 1.350 . S
C1881 H1868 0.929 . S
C1881 C1873 1.433 . S
C1881 N1883 1.384 . S
N1882 C1878 1.427 . S
N1882 C1879 1.384 . S
N1883 C1875 1.427 . S
N1883 C1881 1.384 . S
H1884 C1890 0.930 . S
H1885 C1894 0.930 . S
H1886 C1899 0.929 . S
H1887 C1897 0.929 . S
H1888 C1892 0.929 . S
H1889 C1898 0.929 . S
C1890 H1884 0.930 . S
C1890 C1891 1.367 . S
C1890 C1898 1.378 . S
C1891 C1890 1.367 . S
C1891 C1899 1.433 . S
C1892 H1888 0.929 . S
C1892 C1894 1.378 . S
C1892 C1896 1.350 . S
C1893 C1896 1.463 . S
C1893 C1898 1.350 . S
C1893 N1901 1.427 . S
C1894 H1885 0.930 . S
C1894 C1892 1.378 . S
C1894 C1895 1.367 . S
C1895 C1894 1.367 . S
C1895 C1897 1.433 . S
C1896 C1892 1.350 . S
C1896 C1893 1.463 . S
C1896 N1900 1.427 . S
C1897 H1887 0.929 . S
C1897 C1895 1.433 . S
C1897 N1900 1.384 . S
C1898 H1889 0.929 . S
C1898 C1890 1.378 . S
C1898 C1893 1.350 . S
C1899 H1886 0.929 . S
C1899 C1891 1.433 . S
C1899 N1901 1.384 . S
N1900 C1896 1.427 . S
N1900 C1897 1.384 . S
N1901 C1893 1.427 . S
N1901 C1899 1.384 . S
H1902 C1908 0.930 . S
H1903 C1912 0.930 . S
H1904 C1917 0.929 . S
H1905 C1915 0.929 . S
H1906 C1910 0.929 . S
H1907 C1916 0.929 . S
C1908 H1902 0.930 . S
C1908 C1909 1.367 . S
C1908 C1916 1.378 . S
C1909 C1908 1.367 . S
C1909 C1917 1.433 . S
C1910 H1906 0.929 . S
C1910 C1912 1.378 . S
C1910 C1914 1.350 . S
C1911 C1914 1.463 . S
C1911 C1916 1.350 . S
C1911 N1919 1.427 . S
C1912 H1903 0.930 . S
C1912 C1910 1.378 . S
C1912 C1913 1.367 . S
C1913 C1912 1.367 . S
C1913 C1915 1.433 . S
C1914 C1910 1.350 . S
C1914 C1911 1.463 . S
C1914 N1918 1.427 . S
C1915 H1905 0.929 . S
C1915 C1913 1.433 . S
C1915 N1918 1.384 . S
C1916 H1907 0.929 . S
C1916 C1908 1.378 . S
C1916 C1911 1.350 . S
C1917 H1904 0.929 . S
C1917 C1909 1.433 . S
C1917 N1919 1.384 . S
N1918 C1914 1.427 . S
N1918 C1915 1.384 . S
N1919 C1911 1.427 . S
N1919 C1917 1.384 . S
H1920 C1926 0.930 . S
H1921 C1930 0.930 . S
H1922 C1935 0.929 . S
H1923 C1933 0.929 . S
H1924 C1928 0.929 . S
H1925 C1934 0.929 . S
C1926 H1920 0.930 . S
C1926 C1927 1.367 . S
C1926 C1934 1.378 . S
C1927 C1926 1.367 . S
C1927 C1935 1.433 . S
C1928 H1924 0.929 . S
C1928 C1930 1.378 . S
C1928 C1932 1.350 . S
C1929 C1932 1.463 . S
C1929 C1934 1.350 . S
C1929 N1937 1.427 . S
C1930 H1921 0.930 . S
C1930 C1928 1.378 . S
C1930 C1931 1.367 . S
C1931 C1930 1.367 . S
C1931 C1933 1.433 . S
C1932 C1928 1.350 . S
C1932 C1929 1.463 . S
C1932 N1936 1.427 . S
C1933 H1923 0.929 . S
C1933 C1931 1.433 . S
C1933 N1936 1.384 . S
C1934 H1925 0.929 . S
C1934 C1926 1.378 . S
C1934 C1929 1.350 . S
C1935 H1922 0.929 . S
C1935 C1927 1.433 . S
C1935 N1937 1.384 . S
N1936 C1932 1.427 . S
N1936 C1933 1.384 . S
N1937 C1929 1.427 . S
N1937 C1935 1.384 . S
H1938 C1944 0.930 . S
H1939 C1948 0.930 . S
H1940 C1953 0.929 . S
H1941 C1951 0.929 . S
H1942 C1946 0.929 . S
H1943 C1952 0.929 . S
C1944 H1938 0.930 . S
C1944 C1945 1.367 . S
C1944 C1952 1.378 . S
C1945 C1944 1.367 . S
C1945 C1953 1.433 . S
C1946 H1942 0.929 . S
C1946 C1948 1.378 . S
C1946 C1950 1.350 . S
C1947 C1950 1.463 . S
C1947 C1952 1.350 . S
C1947 N1955 1.427 . S
C1948 H1939 0.930 . S
C1948 C1946 1.378 . S
C1948 C1949 1.367 . S
C1949 C1948 1.367 . S
C1949 C1951 1.433 . S
C1950 C1946 1.350 . S
C1950 C1947 1.463 . S
C1950 N1954 1.427 . S
C1951 H1941 0.929 . S
C1951 C1949 1.433 . S
C1951 N1954 1.384 . S
C1952 H1943 0.929 . S
C1952 C1944 1.378 . S
C1952 C1947 1.350 . S
C1953 H1940 0.929 . S
C1953 C1945 1.433 . S
C1953 N1955 1.384 . S
N1954 C1950 1.427 . S
N1954 C1951 1.384 . S
N1955 C1947 1.427 . S
N1955 C1953 1.384 . S
H1956 C1962 0.930 . S
H1957 C1966 0.930 . S
H1958 C1971 0.929 . S
H1959 C1969 0.929 . S
H1960 C1964 0.929 . S
H1961 C1970 0.929 . S
C1962 H1956 0.930 . S
C1962 C1963 1.367 . S
C1962 C1970 1.378 . S
C1963 C1962 1.367 . S
C1963 C1971 1.433 . S
C1964 H1960 0.929 . S
C1964 C1966 1.378 . S
C1964 C1968 1.350 . S
C1965 C1968 1.463 . S
C1965 C1970 1.350 . S
C1965 N1973 1.427 . S
C1966 H1957 0.930 . S
C1966 C1964 1.378 . S
C1966 C1967 1.367 . S
C1967 C1966 1.367 . S
C1967 C1969 1.433 . S
C1968 C1964 1.350 . S
C1968 C1965 1.463 . S
C1968 N1972 1.427 . S
C1969 H1959 0.929 . S
C1969 C1967 1.433 . S
C1969 N1972 1.384 . S
C1970 H1961 0.929 . S
C1970 C1962 1.378 . S
C1970 C1965 1.350 . S
C1971 H1958 0.929 . S
C1971 C1963 1.433 . S
C1971 N1973 1.384 . S
N1972 C1968 1.427 . S
N1972 C1969 1.384 . S
N1973 C1965 1.427 . S
N1973 C1971 1.384 . S
H1974 C1980 0.930 . S
H1975 C1984 0.930 . S
H1976 C1989 0.929 . S
H1977 C1987 0.929 . S
H1978 C1982 0.929 . S
H1979 C1988 0.929 . S
C1980 H1974 0.930 . S
C1980 C1981 1.367 . S
C1980 C1988 1.378 . S
C1981 C1980 1.367 . S
C1981 C1989 1.433 . S
C1982 H1978 0.929 . S
C1982 C1984 1.378 . S
C1982 C1986 1.350 . S
C1983 C1986 1.463 . S
C1983 C1988 1.350 . S
C1983 N1991 1.427 . S
C1984 H1975 0.930 . S
C1984 C1982 1.378 . S
C1984 C1985 1.367 . S
C1985 C1984 1.367 . S
C1985 C1987 1.433 . S
C1986 C1982 1.350 . S
C1986 C1983 1.463 . S
C1986 N1990 1.427 . S
C1987 H1977 0.929 . S
C1987 C1985 1.433 . S
C1987 N1990 1.384 . S
C1988 H1979 0.929 . S
C1988 C1980 1.378 . S
C1988 C1983 1.350 . S
C1989 H1976 0.929 . S
C1989 C1981 1.433 . S
C1989 N1991 1.384 . S
N1990 C1986 1.427 . S
N1990 C1987 1.384 . S
N1991 C1983 1.427 . S
N1991 C1989 1.384 . S
H1992 C1998 0.930 . S
H1993 C2002 0.930 . S
H1994 C2007 0.929 . S
H1995 C2005 0.929 . S
H1996 C2000 0.929 . S
H1997 C2006 0.929 . S
C1998 H1992 0.930 . S
C1998 C1999 1.367 . S
C1998 C2006 1.378 . S
C1999 C1998 1.367 . S
C1999 C2007 1.433 . S
C2000 H1996 0.929 . S
C2000 C2002 1.378 . S
C2000 C2004 1.350 . S
C2001 C2004 1.463 . S
C2001 C2006 1.350 . S
C2001 N2009 1.427 . S
C2002 H1993 0.930 . S
C2002 C2000 1.378 . S
C2002 C2003 1.367 . S
C2003 C2002 1.367 . S
C2003 C2005 1.433 . S
C2004 C2000 1.350 . S
C2004 C2001 1.463 . S
C2004 N2008 1.427 . S
C2005 H1995 0.929 . S
C2005 C2003 1.433 . S
C2005 N2008 1.384 . S
C2006 H1997 0.929 . S
C2006 C1998 1.378 . S
C2006 C2001 1.350 . S
C2007 H1994 0.929 . S
C2007 C1999 1.433 . S
C2007 N2009 1.384 . S
N2008 C2004 1.427 . S
N2008 C2005 1.384 . S
N2009 C2001 1.427 . S
N2009 C2007 1.384 . S
H2010 C2016 0.930 . S
H2011 C2020 0.930 . S
H2012 C2025 0.929 . S
H2013 C2023 0.929 . S
H2014 C2018 0.929 . S
H2015 C2024 0.929 . S
C2016 H2010 0.930 . S
C2016 C2017 1.367 . S
C2016 C2024 1.378 . S
C2017 C2016 1.367 . S
C2017 C2025 1.433 . S
C2018 H2014 0.929 . S
C2018 C2020 1.378 . S
C2018 C2022 1.350 . S
C2019 C2022 1.463 . S
C2019 C2024 1.350 . S
C2019 N2027 1.427 . S
C2020 H2011 0.930 . S
C2020 C2018 1.378 . S
C2020 C2021 1.367 . S
C2021 C2020 1.367 . S
C2021 C2023 1.433 . S
C2022 C2018 1.350 . S
C2022 C2019 1.463 . S
C2022 N2026 1.427 . S
C2023 H2013 0.929 . S
C2023 C2021 1.433 . S
C2023 N2026 1.384 . S
C2024 H2015 0.929 . S
C2024 C2016 1.378 . S
C2024 C2019 1.350 . S
C2025 H2012 0.929 . S
C2025 C2017 1.433 . S
C2025 N2027 1.384 . S
N2026 C2022 1.427 . S
N2026 C2023 1.384 . S
N2027 C2019 1.427 . S
N2027 C2025 1.384 . S
H2028 C2034 0.930 . S
H2029 C2038 0.930 . S
H2030 C2043 0.929 . S
H2031 C2041 0.929 . S
H2032 C2036 0.929 . S
H2033 C2042 0.929 . S
C2034 H2028 0.930 . S
C2034 C2035 1.367 . S
C2034 C2042 1.378 . S
C2035 C2034 1.367 . S
C2035 C2043 1.433 . S
C2036 H2032 0.929 . S
C2036 C2038 1.378 . S
C2036 C2040 1.350 . S
C2037 C2040 1.463 . S
C2037 C2042 1.350 . S
C2037 N2045 1.427 . S
C2038 H2029 0.930 . S
C2038 C2036 1.378 . S
C2038 C2039 1.367 . S
C2039 C2038 1.367 . S
C2039 C2041 1.433 . S
C2040 C2036 1.350 . S
C2040 C2037 1.463 . S
C2040 N2044 1.427 . S
C2041 H2031 0.929 . S
C2041 C2039 1.433 . S
C2041 N2044 1.384 . S
C2042 H2033 0.929 . S
C2042 C2034 1.378 . S
C2042 C2037 1.350 . S
C2043 H2030 0.929 . S
C2043 C2035 1.433 . S
C2043 N2045 1.384 . S
N2044 C2040 1.427 . S
N2044 C2041 1.384 . S
N2045 C2037 1.427 . S
N2045 C2043 1.384 . S
H2046 C2052 0.930 . S
H2047 C2056 0.930 . S
H2048 C2061 0.929 . S
H2049 C2059 0.929 . S
H2050 C2054 0.929 . S
H2051 C2060 0.929 . S
C2052 H2046 0.930 . S
C2052 C2053 1.367 . S
C2052 C2060 1.378 . S
C2053 C2052 1.367 . S
C2053 C2061 1.433 . S
C2054 H2050 0.929 . S
C2054 C2056 1.378 . S
C2054 C2058 1.350 . S
C2055 C2058 1.463 . S
C2055 C2060 1.350 . S
C2055 N2063 1.427 . S
C2056 H2047 0.930 . S
C2056 C2054 1.378 . S
C2056 C2057 1.367 . S
C2057 C2056 1.367 . S
C2057 C2059 1.433 . S
C2058 C2054 1.350 . S
C2058 C2055 1.463 . S
C2058 N2062 1.427 . S
C2059 H2049 0.929 . S
C2059 C2057 1.433 . S
C2059 N2062 1.384 . S
C2060 H2051 0.929 . S
C2060 C2052 1.378 . S
C2060 C2055 1.350 . S
C2061 H2048 0.929 . S
C2061 C2053 1.433 . S
C2061 N2063 1.384 . S
N2062 C2058 1.427 . S
N2062 C2059 1.384 . S
N2063 C2055 1.427 . S
N2063 C2061 1.384 . S
C779 C498 1.539 . S
C775 C439 1.622 . S
C793 C401 1.825 . S
C797 C492 1.745 . S
C815 C460 1.860 . S
C811 C382 1.954 . S
C829 C420 1.814 . S
C833 C474 1.687 . S
C851 C512 2.034 . S
C847 C306 2.194 . S
C869 C599 1.697 . S
C865 C325 1.720 . S
C883 C344 2.176 . S
C887 C526 2.091 . S
C905 C594 1.508 . S
C901 C363 1.524 . S
C919 C230 2.355 . S
C923 C550 2.233 . S
C941 C605 1.743 . S
C937 C249 1.780 . S
C955 C268 2.268 . S
C959 C544 2.201 . S
C973 C287 1.345 . S
C977 C590 1.308 . S
C995 C646 1.362 . S
C991 C211 1.400 . S
C1009 C173 1.933 . S
C1013 C657 1.893 . S
C1027 C154 1.636 . S
C1031 C642 1.616 . S
C1049 C651 1.790 . S
C1045 C192 1.807 . S
C1063 C78 1.719 . S
C1067 C696 1.667 . S
C1081 C97 1.015 . S
C1085 C755 1.011 . S
C1099 C116 1.829 . S
C1103 C712 1.694 . S
C1117 C135 1.505 . S
C1121 C750 1.481 . S
C1139 C714 1.924 . S
C1135 C2 2.014 . S
C1157 C761 0.908 . S
C1153 C21 0.917 . S
C1171 C40 1.835 . S
C1175 C690 1.719 . S
C1193 C746 1.200 . S
C1189 C59 1.248 . S
C1211 C482 1.655 . S
C1207 C6 1.705 . S
C1225 C30 1.155 . S
C1229 C486 1.140 . S
C1243 C49 1.394 . S
C1247 C506 1.291 . S
C1261 C68 0.754 1_545 S
C1265 C501 0.762 . S
C1279 C82 1.731 . S
C1283 C504 1.666 . S
C1301 C490 1.055 . S
C1297 C106 1.064 . S
C1315 C125 1.317 . S
C1319 C488 1.256 . S
C1337 C495 1.379 . S
C1333 C139 1.415 . S
C1355 C558 1.574 . S
C1351 C63 1.637 . S
C1369 C11 1.593 . S
C1373 C608 1.567 . S
C1391 C556 1.285 . S
C1387 C25 1.340 . S
C1409 C592 1.829 . S
C1405 C44 1.951 . S
C1423 C101 1.444 . S
C1427 C534 1.400 . S
C1445 C610 1.722 . S
C1441 C120 1.802 . S
C1463 C540 1.221 . S
C1459 C144 1.291 . S
C1481 C586 1.369 . S
C1477 C87 1.405 1_455 S
C1499 C578 1.393 . S
C1495 C163 1.407 . S
C1513 C182 1.251 . S
C1517 C602 1.237 . S
C1535 C538 1.474 . S
C1531 C158 1.472 . S
C1553 C564 1.521 1_556 S
C1549 C196 1.587 . S
C1567 C220 0.964 1_554 S
C1571 C542 0.936 . S
C1585 C215 1.683 . S
C1589 C596 1.624 1_556 S
C1607 C553 1.694 . S
C1603 C177 1.701 . S
C1625 C547 1.269 . S
C1621 C201 1.235 . S
C1643 C630 1.936 . S
C1639 C234 2.027 . S
C1661 C662 1.381 . S
C1657 C258 1.400 . S
C1675 C277 1.635 . S
C1679 C616 1.610 . S
C1697 C660 0.936 . S
C1693 C296 0.945 . S
C1715 C648 1.892 . S
C1711 C310 1.967 . S
C1729 C334 1.229 . S
C1733 C644 1.239 . S
C1747 C353 1.599 . S
C1751 C654 1.634 . S
C1769 C638 1.489 . S
C1765 C367 1.584 . S
C1787 C703 1.460 . S
C1783 C291 1.460 . S
C1801 C239 1.407 . S
C1805 C764 1.404 . S
C1823 C698 1.153 . S
C1819 C253 1.151 . S
C1841 C748 1.663 . S
C1837 C272 1.699 . S
C1859 C694 1.273 . S
C1855 C329 1.275 . S
C1873 C348 1.493 . S
C1877 C766 1.482 . S
C1895 C709 1.119 . S
C1891 C372 1.160 . S
C1913 C742 1.156 . S
C1909 C315 1.186 . S
C1931 C734 1.510 . S
C1927 C391 1.525 . S
C1945 C410 1.624 . S
C1949 C758 1.553 . S
C1967 C700 1.694 . S
C1963 C386 1.743 . S
C1981 C424 2.080 . S
C1985 C720 1.938 . S
C2003 C682 1.227 . S
C1999 C448 1.298 . S
C2021 C752 1.761 . S
C2017 C443 1.839 . S
C2039 C668 1.692 . S
C2035 C405 1.766 . S
C2053 C429 1.253 . S
C2057 C706 1.179 . S
