# Generated by pormake.
# Topology apo, (3,6)-cn, num edge types: 1
# Building blocks:
#     Node 0, Type 0, BuildingBlock: MIDCAF_clean_linker_0, # of connection points: 3
#     Node 1, Type 0, BuildingBlock: MIDCAF_clean_linker_0, # of connection points: 3
#     Node 2, Type 0, BuildingBlock: MIDCAF_clean_linker_0, # of connection points: 3
#     Node 3, Type 0, BuildingBlock: MIDCAF_clean_linker_0, # of connection points: 3
#     Node 4, Type 0, BuildingBlock: MIDCAF_clean_linker_0, # of connection points: 3
#     Node 5, Type 0, BuildingBlock: MIDCAF_clean_linker_0, # of connection points: 3
#     Node 6, Type 0, BuildingBlock: MIDCAF_clean_linker_0, # of connection points: 3
#     Node 7, Type 0, BuildingBlock: MIDCAF_clean_linker_0, # of connection points: 3
#     Node 8, Type 1, BuildingBlock: KUMBOL_clean_sbu_1, # of connection points: 6
#     Node 9, Type 1, BuildingBlock: KUMBOL_clean_sbu_1, # of connection points: 6
#     Node 10, Type 1, BuildingBlock: KUMBOL_clean_sbu_1, # of connection points: 6
#     Node 11, Type 1, BuildingBlock: KUMBOL_clean_sbu_1, # of connection points: 6
#     Edge 12, Type (0, 1), BuildingBlock: XUDNAN_clean_linker_2, # of connection points: 2
#     Edge 13, Type (0, 1), BuildingBlock: XUDNAN_clean_linker_2, # of connection points: 2
#     Edge 14, Type (0, 1), BuildingBlock: XUDNAN_clean_linker_2, # of connection points: 2
#     Edge 15, Type (0, 1), BuildingBlock: XUDNAN_clean_linker_2, # of connection points: 2
#     Edge 16, Type (0, 1), BuildingBlock: XUDNAN_clean_linker_2, # of connection points: 2
#     Edge 17, Type (0, 1), BuildingBlock: XUDNAN_clean_linker_2, # of connection points: 2
#     Edge 18, Type (0, 1), BuildingBlock: XUDNAN_clean_linker_2, # of connection points: 2
#     Edge 19, Type (0, 1), BuildingBlock: XUDNAN_clean_linker_2, # of connection points: 2
#     Edge 20, Type (0, 1), BuildingBlock: XUDNAN_clean_linker_2, # of connection points: 2
#     Edge 21, Type (0, 1), BuildingBlock: XUDNAN_clean_linker_2, # of connection points: 2
#     Edge 22, Type (0, 1), BuildingBlock: XUDNAN_clean_linker_2, # of connection points: 2
#     Edge 23, Type (0, 1), BuildingBlock: XUDNAN_clean_linker_2, # of connection points: 2
#     Edge 24, Type (0, 1), BuildingBlock: XUDNAN_clean_linker_2, # of connection points: 2
#     Edge 25, Type (0, 1), BuildingBlock: XUDNAN_clean_linker_2, # of connection points: 2
#     Edge 26, Type (0, 1), BuildingBlock: XUDNAN_clean_linker_2, # of connection points: 2
#     Edge 27, Type (0, 1), BuildingBlock: XUDNAN_clean_linker_2, # of connection points: 2
#     Edge 28, Type (0, 1), BuildingBlock: XUDNAN_clean_linker_2, # of connection points: 2
#     Edge 29, Type (0, 1), BuildingBlock: XUDNAN_clean_linker_2, # of connection points: 2
#     Edge 30, Type (0, 1), BuildingBlock: XUDNAN_clean_linker_2, # of connection points: 2
#     Edge 31, Type (0, 1), BuildingBlock: XUDNAN_clean_linker_2, # of connection points: 2
#     Edge 32, Type (0, 1), BuildingBlock: XUDNAN_clean_linker_2, # of connection points: 2
#     Edge 33, Type (0, 1), BuildingBlock: XUDNAN_clean_linker_2, # of connection points: 2
#     Edge 34, Type (0, 1), BuildingBlock: XUDNAN_clean_linker_2, # of connection points: 2
#     Edge 35, Type (0, 1), BuildingBlock: XUDNAN_clean_linker_2, # of connection points: 2
# Relax obj value: 0.009
# Max RMSD: 0.095
# Mean RMSD: 0.075
data_MOF--net-apo--node1-KUMBOL_clean_sbu_1--node2-MIDCAF_clean_linker_0--edge1-XUDNAN_clean_linker_2
_symmetry_space_group_name_H-M    P1
_symmetry_Int_Tables_number       1
_symmetry_cell_setting            triclinic
loop_
_symmetry_equiv_pos_as_xyz
'x, y, z'
_cell_length_a     29.198021
_cell_length_b     51.915455
_cell_length_c     63.951411
_cell_angle_alpha  89.915368
_cell_angle_beta   89.821809
_cell_angle_gamma 90.635474
loop_
_atom_site_label
_atom_site_type_symbol
_atom_site_fract_x
_atom_site_fract_y
_atom_site_fract_z
_atom_type_partial_charge
C0 C 0.32656 0.40017 0.48497 0.0
C1 C 0.32944 0.3763 0.49522 0.0
C2 C 0.31289 0.35412 0.48494 0.0
C3 C 0.29603 0.35568 0.46444 0.0
H4 H 0.22214 0.31587 0.41475 0.0
H5 H 0.17769 0.28322 0.39537 0.0
H6 H 0.17553 0.33332 0.34158 0.0
H7 H 0.21967 0.36553 0.36036 0.0
H8 H 0.28657 0.41277 0.35741 0.0
H9 H 0.31106 0.4514 0.33835 0.0
H10 H 0.34386 0.48888 0.39666 0.0
H11 H 0.31988 0.45037 0.41583 0.0
H12 H 0.30912 0.42048 0.45718 0.0
H13 H 0.33764 0.41774 0.49264 0.0
H14 H 0.31448 0.33545 0.49246 0.0
H15 H 0.28501 0.33818 0.45666 0.0
N16 N 0.26023 0.36185 0.42136 0.0
N17 N 0.26357 0.38564 0.39007 0.0
N18 N 0.29545 0.40276 0.42053 0.0
C19 C 0.25024 0.36401 0.40059 0.0
C20 C 0.28621 0.40506 0.39988 0.0
C21 C 0.2828 0.38134 0.43143 0.0
C22 C 0.22452 0.34346 0.38921 0.0
C23 C 0.21247 0.31982 0.39874 0.0
C24 C 0.18729 0.30108 0.38767 0.0
C25 C 0.17331 0.30585 0.36703 0.0
C26 C 0.18579 0.32923 0.3575 0.0
C27 C 0.21117 0.3477 0.36836 0.0
C28 C 0.30108 0.42843 0.38819 0.0
C29 C 0.29906 0.4292 0.3662 0.0
C30 C 0.31332 0.45123 0.35526 0.0
C31 C 0.32924 0.47306 0.36607 0.0
C32 C 0.33138 0.47234 0.38798 0.0
C33 C 0.31773 0.45023 0.39892 0.0
C34 C 0.29544 0.37946 0.45386 0.0
C35 C 0.3099 0.40173 0.46461 0.0
C36 C 0.149 0.10636 0.98071 0.0
C37 C 0.17104 0.12126 0.99606 0.0
C38 C 0.20706 0.13793 0.98987 0.0
C39 C 0.22179 0.13876 0.96891 0.0
H40 H 0.27241 0.18741 0.91692 0.0
H41 H 0.31173 0.22262 0.89912 0.0
H42 H 0.34723 0.1713 0.84851 0.0
H43 H 0.30589 0.13648 0.86586 0.0
H44 H 0.2464 0.08298 0.86066 0.0
H45 H 0.2214 0.04445 0.84158 0.0
H46 H 0.13424 0.0228 0.89355 0.0
H47 H 0.15952 0.06045 0.91262 0.0
H48 H 0.14633 0.0947 0.94887 0.0
H49 H 0.12033 0.09386 0.98469 0.0
H50 H 0.22494 0.14964 1.00129 0.0
H51 H 0.25037 0.15119 0.96467 0.0
N52 N 0.24435 0.14011 0.9232 0.0
N53 N 0.24651 0.11674 0.89164 0.0
N54 N 0.20625 0.10035 0.92043 0.0
C55 C 0.25871 0.13799 0.90293 0.0
C56 C 0.22017 0.09783 0.90035 0.0
C57 C 0.21798 0.1212 0.93202 0.0
C58 C 0.28565 0.15908 0.89281 0.0
C59 C 0.28873 0.18359 0.90203 0.0
C60 C 0.31167 0.20383 0.89181 0.0
C61 C 0.33279 0.20004 0.87223 0.0
C62 C 0.33064 0.17528 0.8633 0.0
C63 C 0.30715 0.15515 0.87338 0.0
C64 C 0.20532 0.07481 0.88826 0.0
C65 C 0.22198 0.06995 0.86799 0.0
C66 C 0.20752 0.04794 0.85703 0.0
C67 C 0.17618 0.0304 0.86613 0.0
C68 C 0.1592 0.03554 0.88624 0.0
C69 C 0.17363 0.05733 0.89716 0.0
C70 C 0.20094 0.12278 0.95387 0.0
C71 C 0.16389 0.10696 0.96003 0.0
C72 C 0.83354 0.10594 0.52568 0.0
C73 C 0.82626 0.1294 0.51539 0.0
C74 C 0.80134 0.14872 0.52552 0.0
C75 C 0.78593 0.14516 0.546 0.0
H76 H 0.73108 0.18456 0.5946 0.0
H77 H 0.69096 0.21904 0.61208 0.0
H78 H 0.67641 0.1717 0.66743 0.0
H79 H 0.7183 0.13742 0.65018 0.0
H80 H 0.78776 0.08929 0.65365 0.0
H81 H 0.81223 0.05107 0.67277 0.0
H82 H 0.85184 0.01536 0.61465 0.0
H83 H 0.82749 0.05323 0.59548 0.0
H84 H 0.82601 0.08442 0.55402 0.0
H85 H 0.85265 0.09075 0.51815 0.0
H86 H 0.79463 0.16684 0.51774 0.0
H87 H 0.76785 0.16075 0.55351 0.0
N88 N 0.76127 0.13878 0.58935 0.0
N89 N 0.7666 0.11619 0.621 0.0
N90 N 0.79786 0.09892 0.59033 0.0
C91 C 0.75236 0.13714 0.61017 0.0
C92 C 0.78942 0.097 0.61117 0.0
C93 C 0.78387 0.11972 0.5793 0.0
C94 C 0.72782 0.15813 0.62094 0.0
C95 C 0.71942 0.18143 0.6105 0.0
C96 C 0.69607 0.20121 0.62051 0.0
C97 C 0.68 0.1981 0.64112 0.0
C98 C 0.6887 0.17487 0.65164 0.0
C99 C 0.7125 0.15513 0.64168 0.0
C100 C 0.80524 0.07427 0.62299 0.0
C101 C 0.80171 0.07331 0.64493 0.0
C102 C 0.81595 0.05152 0.65592 0.0
C103 C 0.83349 0.03025 0.64514 0.0
C104 C 0.83777 0.03138 0.62329 0.0
C105 C 0.82394 0.05316 0.61234 0.0
C106 C 0.79548 0.12226 0.55683 0.0
C107 C 0.81845 0.10242 0.54625 0.0
C108 C 0.66923 0.38983 0.02473 0.0
C109 C 0.68268 0.36743 0.01419 0.0
C110 C 0.71379 0.35081 0.02396 0.0
C111 C 0.73015 0.35613 0.04402 0.0
H112 H 0.77725 0.31825 0.09988 0.0
H113 H 0.81001 0.28613 0.12354 0.0
H114 H 0.85463 0.34712 0.16483 0.0
H115 H 0.82151 0.37886 0.14172 0.0
H116 H 0.76035 0.42897 0.14414 0.0
H117 H 0.72457 0.46264 0.16504 0.0
H118 H 0.62756 0.47618 0.11565 0.0
H119 H 0.66338 0.44283 0.09446 0.0
H120 H 0.67386 0.41244 0.05252 0.0
H121 H 0.64516 0.40296 0.01768 0.0
H122 H 0.72561 0.33367 0.01606 0.0
H123 H 0.75378 0.34278 0.0511 0.0
N124 N 0.75714 0.36585 0.08694 0.0
N125 N 0.75762 0.39263 0.11644 0.0
N126 N 0.71863 0.40535 0.08633 0.0
C127 C 0.77053 0.37048 0.10694 0.0
C128 C 0.73168 0.41015 0.10632 0.0
C129 C 0.7315 0.3834 0.07645 0.0
C130 C 0.79605 0.35108 0.11912 0.0
C131 C 0.79472 0.32476 0.11386 0.0
C132 C 0.81352 0.30637 0.12737 0.0
C133 C 0.83402 0.31409 0.14625 0.0
C134 C 0.83797 0.34051 0.15068 0.0
C135 C 0.81907 0.35873 0.13737 0.0
C136 C 0.71442 0.43296 0.11769 0.0
C137 C 0.73197 0.43944 0.13751 0.0
C138 C 0.7118 0.45882 0.14945 0.0
C139 C 0.67346 0.47184 0.14189 0.0
C140 C 0.6572 0.46631 0.12174 0.0
C141 C 0.67773 0.44721 0.10966 0.0
C142 C 0.71587 0.37824 0.05478 0.0
C143 C 0.68561 0.39518 0.04478 0.0
C144 C 0.67108 0.60749 0.5256 0.0
C145 C 0.68537 0.62884 0.51363 0.0
C146 C 0.71761 0.64614 0.52216 0.0
C147 C 0.73471 0.64236 0.54232 0.0
H148 H 0.78404 0.68508 0.59668 0.0
H149 H 0.81598 0.71856 0.61975 0.0
H150 H 0.86312 0.65969 0.66199 0.0
H151 H 0.83139 0.62657 0.63934 0.0
H152 H 0.71385 0.59727 0.64871 0.0
H153 H 0.68583 0.56374 0.67175 0.0
H154 H 0.68622 0.50952 0.62048 0.0
H155 H 0.71239 0.54415 0.59684 0.0
H156 H 0.67594 0.58713 0.55451 0.0
H157 H 0.64598 0.59392 0.51958 0.0
H158 H 0.72999 0.66252 0.51319 0.0
H159 H 0.75933 0.65616 0.54842 0.0
N160 N 0.76363 0.6359 0.58532 0.0
N161 N 0.76223 0.61233 0.61655 0.0
N162 N 0.7221 0.5968 0.58751 0.0
C163 C 0.77711 0.63311 0.60552 0.0
C164 C 0.73483 0.59415 0.60777 0.0
C165 C 0.7364 0.61764 0.57615 0.0
C166 C 0.80426 0.65322 0.61646 0.0
C167 C 0.80223 0.67934 0.61064 0.0
C168 C 0.82049 0.69848 0.62381 0.0
C169 C 0.84101 0.69168 0.64287 0.0
C170 C 0.84651 0.6655 0.64763 0.0
C171 C 0.82833 0.64653 0.63462 0.0
C172 C 0.71609 0.57322 0.62106 0.0
C173 C 0.70806 0.57821 0.64228 0.0
C174 C 0.69219 0.55885 0.65555 0.0
C175 C 0.68497 0.53362 0.64818 0.0
C176 C 0.69152 0.5287 0.62671 0.0
C177 C 0.70667 0.54844 0.6132 0.0
C178 C 0.72 0.62115 0.5544 0.0
C179 C 0.68822 0.60367 0.54571 0.0
C180 C 0.84258 0.89779 0.03014 0.0
C181 C 0.82034 0.88353 0.01447 0.0
C182 C 0.78215 0.8681 0.02005 0.0
C183 C 0.76566 0.86786 0.04072 0.0
H184 H 0.72001 0.81762 0.09649 0.0
H185 H 0.68558 0.78321 0.11806 0.0
H186 H 0.63685 0.84025 0.16154 0.0
H187 H 0.67135 0.87425 0.1405 0.0
H188 H 0.77144 0.91448 0.15171 0.0
H189 H 0.80914 0.94934 0.17103 0.0
H190 H 0.83353 0.99011 0.11303 0.0
H191 H 0.79751 0.95516 0.09382 0.0
H192 H 0.84382 0.90947 0.06199 0.0
H193 H 0.87285 0.90927 0.02664 0.0
H194 H 0.76409 0.85692 0.00834 0.0
H195 H 0.73552 0.8564 0.0445 0.0
N196 N 0.74155 0.86668 0.08642 0.0
N197 N 0.73921 0.89056 0.11773 0.0
N198 N 0.77995 0.9065 0.08897 0.0
C199 C 0.72663 0.86928 0.10656 0.0
C200 C 0.76571 0.90931 0.10896 0.0
C201 C 0.76834 0.88543 0.07757 0.0
C202 C 0.69937 0.84865 0.11705 0.0
C203 C 0.70112 0.82279 0.11044 0.0
C204 C 0.68127 0.80309 0.12271 0.0
C205 C 0.65928 0.80904 0.14165 0.0
C206 C 0.65436 0.83504 0.14722 0.0
C207 C 0.67427 0.85454 0.13515 0.0
C208 C 0.78215 0.93182 0.1212 0.0
C209 C 0.78439 0.93105 0.14315 0.0
C210 C 0.80594 0.95107 0.15423 0.0
C211 C 0.82533 0.97231 0.14356 0.0
C212 C 0.82036 0.9737 0.12173 0.0
C213 C 0.79936 0.95368 0.1107 0.0
C214 C 0.78687 0.88321 0.05605 0.0
C215 C 0.82595 0.89778 0.05053 0.0
C216 C 0.16858 0.90067 0.48354 0.0
C217 C 0.18776 0.88267 0.49726 0.0
C218 C 0.22047 0.8654 0.48937 0.0
C219 C 0.23351 0.86611 0.46825 0.0
H220 H 0.27617 0.81746 0.41264 0.0
H221 H 0.3108 0.78399 0.39052 0.0
H222 H 0.35021 0.84221 0.34554 0.0
H223 H 0.31578 0.87512 0.36706 0.0
H224 H 0.21559 0.91175 0.35749 0.0
H225 H 0.18868 0.94871 0.33727 0.0
H226 H 0.17032 0.99166 0.39431 0.0
H227 H 0.19621 0.95474 0.41463 0.0
H228 H 0.16577 0.91562 0.45254 0.0
H229 H 0.14279 0.91396 0.48892 0.0
H230 H 0.23647 0.8515 0.49957 0.0
H231 H 0.2589 0.85266 0.46272 0.0
N232 N 0.25339 0.86693 0.42289 0.0
N233 N 0.25001 0.88948 0.391 0.0
N234 N 0.21378 0.90602 0.42058 0.0
C235 C 0.26485 0.86892 0.40223 0.0
C236 C 0.22451 0.90808 0.40004 0.0
C237 C 0.22779 0.88563 0.43216 0.0
C238 C 0.29211 0.84889 0.39136 0.0
C239 C 0.29299 0.82307 0.3982 0.0
C240 C 0.31291 0.80393 0.3856 0.0
C241 C 0.33229 0.81044 0.36609 0.0
C242 C 0.33463 0.83651 0.36026 0.0
C243 C 0.31473 0.8554 0.37263 0.0
C244 C 0.20821 0.93032 0.38768 0.0
C245 C 0.20573 0.92905 0.36573 0.0
C246 C 0.19007 0.95009 0.35416 0.0
C247 C 0.17754 0.97293 0.36428 0.0
C248 C 0.17998 0.97425 0.38617 0.0
C249 C 0.19472 0.95308 0.39777 0.0
C250 C 0.21428 0.8842 0.45457 0.0
C251 C 0.18169 0.90147 0.46255 0.0
C252 C 0.32581 0.59825 0.98444 0.0
C253 C 0.315 0.61962 0.99684 0.0
C254 C 0.29176 0.64034 0.98762 0.0
C255 C 0.2797 0.6397 0.96644 0.0
H256 H 0.24169 0.68593 0.91233 0.0
H257 H 0.20487 0.72094 0.89392 0.0
H258 H 0.15048 0.66681 0.84874 0.0
H259 H 0.18993 0.63203 0.86657 0.0
H260 H 0.25766 0.58237 0.85905 0.0
H261 H 0.28274 0.54498 0.83897 0.0
H262 H 0.36462 0.52001 0.891 0.0
H263 H 0.33933 0.55697 0.91142 0.0
H264 H 0.32315 0.58079 0.95431 0.0
H265 H 0.3441 0.58211 0.99099 0.0
H266 H 0.2824 0.65697 0.99684 0.0
H267 H 0.26176 0.65594 0.95987 0.0
N268 N 0.25492 0.63666 0.9221 0.0
N269 N 0.25669 0.61422 0.89022 0.0
N270 N 0.29153 0.59679 0.91985 0.0
C271 C 0.24368 0.63511 0.90145 0.0
C272 C 0.28089 0.59506 0.89929 0.0
C273 C 0.27863 0.61735 0.93145 0.0
C274 C 0.21873 0.6562 0.89096 0.0
C275 C 0.2217 0.6815 0.89852 0.0
C276 C 0.20022 0.7016 0.88795 0.0
C277 C 0.17411 0.69688 0.86979 0.0
C278 C 0.17076 0.67142 0.86239 0.0
C279 C 0.1931 0.65138 0.87275 0.0
C280 C 0.2963 0.57267 0.8869 0.0
C281 C 0.28099 0.56897 0.86627 0.0
C282 C 0.29526 0.54765 0.85476 0.0
C283 C 0.32555 0.52993 0.86355 0.0
C284 C 0.34143 0.53366 0.88397 0.0
C285 C 0.32672 0.55475 0.89561 0.0
C286 C 0.29079 0.61834 0.95399 0.0
C287 C 0.31394 0.59762 0.96331 0.0
C288 C 0.84509 0.11398 0.26063 0.0
C289 C 0.83971 0.06979 0.27312 0.0
C290 C 0.86417 0.09324 0.27114 0.0
C291 C 0.79573 0.06747 0.26448 0.0
C292 C 0.80053 0.11179 0.25226 0.0
C293 C 0.77616 0.08842 0.25413 0.0
N294 N 0.86919 0.13655 0.25936 0.0
C295 C 0.84897 0.15805 0.25136 0.0
C296 C 0.78115 0.13335 0.24279 0.0
C297 C 0.80528 0.15666 0.24257 0.0
Gd298 Gd 0.0506 0.14097 0.23568 0.0
Gd299 Gd 0.94093 0.1366 0.27624 0.0
N300 N 0.90697 0.09587 0.27922 0.0
C301 C 0.86023 0.04936 0.28376 0.0
C302 C 0.92636 0.07649 0.29042 0.0
C303 C 0.90364 0.05278 0.29254 0.0
H304 H 0.95934 0.07939 0.29768 0.0
H305 H 0.91938 0.03725 0.30113 0.0
H306 H 0.03398 0.20402 0.22406 0.0
H307 H 0.86507 0.17667 0.25251 0.0
H308 H 0.07544 0.24508 0.22773 0.0
H309 H 0.84263 0.031 0.2855 0.0
H310 H 0.77647 0.04958 0.26577 0.0
H311 H 0.12437 0.09519 0.24997 0.0
H312 H 0.74699 0.13245 0.23623 0.0
H313 H 0.78979 0.17376 0.23613 0.0
H314 H 0.22053 0.22173 0.25663 0.0
H315 H 0.74198 0.08641 0.24774 0.0
H316 H 0.24891 0.13232 0.26912 0.0
H317 H 0.20298 0.09255 0.26383 0.0
N318 N 0.12515 0.13611 0.24829 0.0
C319 C 0.15034 0.15814 0.25031 0.0
C320 C 0.1438 0.11271 0.25254 0.0
C321 C 0.21433 0.13362 0.26314 0.0
C322 C 0.18848 0.11112 0.26022 0.0
C323 C 0.1955 0.1575 0.25804 0.0
H324 H 0.25512 0.18047 0.26637 0.0
N325 N 0.08715 0.18152 0.23723 0.0
C326 C 0.13086 0.18147 0.24462 0.0
C327 C 0.13556 0.22776 0.24085 0.0
C328 C 0.15605 0.20465 0.2468 0.0
C329 C 0.06758 0.20393 0.23083 0.0
C330 C 0.09129 0.22735 0.23269 0.0
O331 O 0.94913 0.10365 0.25343 0.0
O332 O 0.97914 0.12807 0.22759 0.0
O333 O 0.06814 0.15079 0.20374 0.0
O334 O 0.07908 0.11183 0.21499 0.0
O335 O 0.00868 0.12047 0.28661 0.0
O336 O 0.04209 0.10537 0.25603 0.0
O337 O 0.0589 0.15944 0.26786 0.0
O338 O 0.98525 0.17209 0.27411 0.0
O339 O 0.94549 0.13611 0.31085 0.0
O340 O 0.88748 0.15315 0.2945 0.0
O341 O 0.98971 0.1645 0.22541 0.0
O342 O 0.94436 0.17173 0.25493 0.0
C343 C 0.96095 0.10635 0.23383 0.0
C344 C 0.03698 0.10525 0.27653 0.0
C345 C 0.11917 0.12546 0.18413 0.0
C346 C 0.14356 0.1231 0.14771 0.0
C347 C 0.19995 0.12348 0.17558 0.0
C348 C 0.165 0.12495 0.19054 0.0
C349 C 0.18935 0.12264 0.15427 0.0
C350 C 0.10856 0.12442 0.16271 0.0
C351 C 0.08133 0.12764 0.19911 0.0
C352 C 0.20078 0.20409 0.25478 0.0
C353 C 0.22047 0.18058 0.26035 0.0
H354 H 0.15379 0.24596 0.24227 0.0
C355 C 0.02924 0.17387 0.27783 0.0
C356 C 0.95729 0.17696 0.2355 0.0
C357 C 0.8833 0.15537 0.33189 0.0
C358 C 0.87713 0.15625 0.36983 0.0
C359 C 0.81948 0.17699 0.34869 0.0
C360 C 0.84258 0.1696 0.33066 0.0
C361 C 0.8366 0.17035 0.36819 0.0
C362 C 0.90067 0.14867 0.35167 0.0
C363 C 0.90629 0.14781 0.3123 0.0
H364 H 0.23534 0.12288 0.18052 0.0
H365 H 0.17369 0.12572 0.20698 0.0
H366 H 0.21678 0.12114 0.1429 0.0
H367 H 0.07309 0.12456 0.15771 0.0
H368 H 0.78825 0.18793 0.34755 0.0
H369 H 0.82836 0.17511 0.3157 0.0
H370 H 0.81829 0.17634 0.3821 0.0
H371 H 0.93203 0.13781 0.35296 0.0
C372 C 0.65782 0.37638 0.7649 0.0
C373 C 0.66903 0.4187 0.78013 0.0
C374 C 0.64101 0.39701 0.776 0.0
C375 C 0.71376 0.41974 0.77202 0.0
C376 C 0.70357 0.3767 0.75772 0.0
C377 C 0.731 0.39877 0.76081 0.0
N378 N 0.63076 0.3551 0.7628 0.0
C379 C 0.64913 0.33265 0.75582 0.0
C380 C 0.72105 0.35436 0.74863 0.0
C381 C 0.69396 0.33206 0.74809 0.0
Gd382 Gd 0.44716 0.36529 0.73482 0.0
Gd383 Gd 0.55549 0.35788 0.77608 0.0
N384 N 0.59765 0.39539 0.78357 0.0
C385 C 0.65142 0.43845 0.7926 0.0
C386 C 0.58111 0.41388 0.79661 0.0
C387 C 0.60739 0.43588 0.80106 0.0
H388 H 0.54762 0.41157 0.80358 0.0
H389 H 0.59381 0.45074 0.8111 0.0
H390 H 0.47048 0.30325 0.72184 0.0
H391 H 0.62994 0.31494 0.75708 0.0
H392 H 0.43051 0.26141 0.72204 0.0
H393 H 0.67179 0.45546 0.7961 0.0
H394 H 0.73565 0.43637 0.77478 0.0
H395 H 0.37135 0.40838 0.75177 0.0
H396 H 0.75605 0.35376 0.74299 0.0
H397 H 0.70801 0.31424 0.74227 0.0
H398 H 0.28028 0.28043 0.74773 0.0
H399 H 0.76607 0.39946 0.75523 0.0
H400 H 0.2459 0.36789 0.76487 0.0
H401 H 0.29057 0.40863 0.76351 0.0
N402 N 0.37243 0.36784 0.74734 0.0
C403 C 0.34821 0.34529 0.74723 0.0
C404 C 0.35219 0.39047 0.75259 0.0
C405 C 0.28134 0.36764 0.75981 0.0
C406 C 0.30645 0.39069 0.7591 0.0
C407 C 0.30203 0.34459 0.75374 0.0
H408 H 0.24243 0.32016 0.75892 0.0
N409 N 0.41459 0.32377 0.73459 0.0
C410 C 0.36975 0.32271 0.74071 0.0
C411 C 0.36766 0.27686 0.73415 0.0
C412 C 0.34531 0.29912 0.74081 0.0
C413 C 0.43607 0.30225 0.7276 0.0
C414 C 0.41314 0.27847 0.72744 0.0
O415 O 0.5526 0.39449 0.75681 0.0
O416 O 0.51427 0.38493 0.72599 0.0
O417 O 0.42542 0.35592 0.70293 0.0
O418 O 0.41291 0.39427 0.71634 0.0
O419 O 0.49091 0.37847 0.7864 0.0
O420 O 0.4572 0.39816 0.75743 0.0
O421 O 0.43534 0.34591 0.76625 0.0
O422 O 0.50425 0.32685 0.76875 0.0
O423 O 0.54517 0.35722 0.80984 0.0
O424 O 0.59302 0.33131 0.7956 0.0
O425 O 0.51227 0.34851 0.72259 0.0
O426 O 0.55238 0.32879 0.74941 0.0
C427 C 0.54389 0.39869 0.73689 0.0
C428 C 0.46616 0.39669 0.77763 0.0
C429 C 0.38417 0.38687 0.68131 0.0
C430 C 0.37223 0.38483 0.64355 0.0
C431 C 0.31987 0.40879 0.66556 0.0
C432 C 0.34527 0.40233 0.68318 0.0
C433 C 0.3331 0.40004 0.64588 0.0
C434 C 0.39788 0.37818 0.66135 0.0
C435 C 0.40793 0.37871 0.70045 0.0
C436 C 0.29945 0.29842 0.7475 0.0
C437 C 0.27789 0.32105 0.75391 0.0
H438 H 0.35007 0.25837 0.73405 0.0
C439 C 0.46198 0.32896 0.77499 0.0
C440 C 0.5418 0.33163 0.72946 0.0
C441 C 0.61185 0.34751 0.82889 0.0
C442 C 0.63315 0.35344 0.86539 0.0
C443 C 0.68885 0.36178 0.83787 0.0
C444 C 0.65635 0.35511 0.82285 0.0
C445 C 0.67732 0.36109 0.85903 0.0
C446 C 0.60045 0.3465 0.85026 0.0
C447 C 0.5774 0.34062 0.81302 0.0
H448 H 0.28974 0.42059 0.66716 0.0
H449 H 0.33392 0.40896 0.69838 0.0
H450 H 0.31313 0.40549 0.63235 0.0
H451 H 0.42797 0.36629 0.65969 0.0
H452 H 0.72312 0.36742 0.83311 0.0
H453 H 0.66619 0.35576 0.80654 0.0
H454 H 0.70318 0.36609 0.87049 0.0
H455 H 0.56632 0.34049 0.85509 0.0
C456 C 0.84968 0.85252 0.76413 0.0
C457 C 0.83654 0.81014 0.77934 0.0
C458 C 0.86549 0.83148 0.77531 0.0
C459 C 0.79159 0.81003 0.77163 0.0
C460 C 0.80415 0.85277 0.75687 0.0
C461 C 0.77542 0.83129 0.76043 0.0
N462 N 0.87814 0.87317 0.7612 0.0
C463 C 0.86229 0.89522 0.7523 0.0
C464 C 0.78851 0.87485 0.74668 0.0
C465 C 0.81759 0.89625 0.74457 0.0
Gd466 Gd 0.06053 0.8599 0.73474 0.0
Gd467 Gd 0.95195 0.86946 0.77531 0.0
N468 N 0.90936 0.83199 0.78232 0.0
C469 C 0.85365 0.78961 0.79111 0.0
C470 C 0.92567 0.81258 0.79453 0.0
C471 C 0.89833 0.79093 0.79885 0.0
H472 H 0.95969 0.81381 0.80096 0.0
H473 H 0.91165 0.77535 0.80822 0.0
H474 H 0.03685 0.9197 0.71639 0.0
H475 H 0.88368 0.91228 0.75155 0.0
H476 H 0.0741 0.96237 0.71552 0.0
H477 H 0.83255 0.77281 0.79448 0.0
H478 H 0.7689 0.79372 0.77444 0.0
H479 H 0.1345 0.82034 0.75795 0.0
H480 H 0.75374 0.87581 0.74088 0.0
H481 H 0.80536 0.91369 0.73727 0.0
H482 H 0.22054 0.94883 0.74719 0.0
H483 H 0.74041 0.83108 0.75487 0.0
H484 H 0.25589 0.86408 0.77165 0.0
H485 H 0.21282 0.82276 0.7724 0.0
N486 N 0.1331 0.86001 0.74974 0.0
C487 C 0.15636 0.88284 0.74872 0.0
C488 C 0.15277 0.83854 0.7579 0.0
C489 C 0.22148 0.86316 0.76539 0.0
C490 C 0.19722 0.83981 0.76591 0.0
C491 C 0.20112 0.88506 0.75676 0.0
H492 H 0.25843 0.91103 0.76219 0.0
N493 N 0.09107 0.9018 0.73278 0.0
C494 C 0.13474 0.90431 0.74015 0.0
C495 C 0.13537 0.94942 0.73078 0.0
C496 C 0.1578 0.92831 0.73951 0.0
C497 C 0.0698 0.92209 0.72356 0.0
C498 C 0.09131 0.94625 0.72268 0.0
O499 O 0.94708 0.83431 0.75423 0.0
O500 O 0.99833 0.83666 0.72615 0.0
O501 O 0.08228 0.86736 0.70263 0.0
O502 O 0.1001 0.83106 0.71813 0.0
O503 O 0.01481 0.84857 0.78581 0.0
O504 O 0.04892 0.827 0.75803 0.0
O505 O 0.07024 0.87903 0.76624 0.0
O506 O 0.00359 0.90087 0.7685 0.0
O507 O 0.96101 0.87111 0.80913 0.0
O508 O 0.91146 0.89546 0.79402 0.0
O509 O 0.99575 0.87722 0.72165 0.0
O510 O 0.96482 0.89838 0.7498 0.0
C511 C 0.96205 0.82705 0.73568 0.0
C512 C 0.03804 0.8291 0.7781 0.0
C513 C 0.12697 0.8369 0.6822 0.0
C514 C 0.14252 0.84017 0.64456 0.0
C515 C 0.18359 0.80938 0.66611 0.0
C516 C 0.15947 0.81731 0.68372 0.0
C517 C 0.1754 0.82071 0.64675 0.0
C518 C 0.11862 0.84843 0.66255 0.0
C519 C 0.10279 0.84528 0.70131 0.0
C520 C 0.20241 0.93051 0.74753 0.0
C521 C 0.22401 0.90897 0.75608 0.0
H522 H 0.15196 0.96817 0.72999 0.0
C523 C 0.04641 0.8981 0.77372 0.0
C524 C 0.9656 0.89291 0.72982 0.0
C525 C 0.89241 0.87962 0.82753 0.0
C526 C 0.86944 0.87506 0.86406 0.0
C527 C 0.81615 0.86377 0.83639 0.0
C528 C 0.84882 0.87071 0.82142 0.0
C529 C 0.82637 0.86581 0.85759 0.0
C530 C 0.90248 0.88196 0.84892 0.0
C531 C 0.92709 0.8869 0.81172 0.0
H532 H 0.20906 0.79449 0.66749 0.0
H533 H 0.16676 0.80832 0.69862 0.0
H534 H 0.19557 0.81442 0.6335 0.0
H535 H 0.09328 0.86344 0.66122 0.0
H536 H 0.78259 0.85708 0.83153 0.0
H537 H 0.83971 0.86936 0.80511 0.0
H538 H 0.8001 0.86088 0.86896 0.0
H539 H 0.93576 0.8892 0.85377 0.0
C540 C 0.65113 0.65162 0.26696 0.0
C541 C 0.66185 0.69609 0.27757 0.0
C542 C 0.6338 0.67396 0.27538 0.0
C543 C 0.70721 0.69567 0.27025 0.0
C544 C 0.69742 0.65068 0.2606 0.0
C545 C 0.72497 0.67299 0.26176 0.0
N546 N 0.62361 0.63038 0.26628 0.0
C547 C 0.64191 0.60694 0.26147 0.0
C548 C 0.7151 0.62712 0.254 0.0
C549 C 0.68745 0.60505 0.25485 0.0
Gd550 Gd 0.44138 0.64116 0.2323 0.0
Gd551 Gd 0.54613 0.63622 0.27632 0.0
N552 N 0.58973 0.6738 0.2821 0.0
C553 C 0.64361 0.71783 0.28733 0.0
C554 C 0.57235 0.69453 0.29242 0.0
C555 C 0.59879 0.71691 0.29503 0.0
H556 H 0.53797 0.69387 0.29852 0.0
H557 H 0.58457 0.73343 0.30294 0.0
H558 H 0.44531 0.58533 0.2044 0.0
H559 H 0.62164 0.58947 0.26282 0.0
H560 H 0.40559 0.54331 0.204 0.0
H561 H 0.66401 0.73521 0.28931 0.0
H562 H 0.72912 0.71258 0.27151 0.0
H563 H 0.36733 0.68232 0.25295 0.0
H564 H 0.75047 0.62557 0.24902 0.0
H565 H 0.70134 0.58652 0.25067 0.0
H566 H 0.2765 0.55488 0.24942 0.0
H567 H 0.76042 0.67271 0.2567 0.0
H568 H 0.25014 0.64021 0.27515 0.0
H569 H 0.29276 0.68147 0.27133 0.0
N570 N 0.36831 0.64217 0.2478 0.0
C571 C 0.34401 0.61971 0.24837 0.0
C572 C 0.34964 0.66431 0.25514 0.0
C573 C 0.28307 0.64056 0.26729 0.0
C574 C 0.30709 0.66385 0.26524 0.0
C575 C 0.30117 0.61814 0.25853 0.0
H576 H 0.24482 0.59276 0.26723 0.0
N577 N 0.4028 0.60109 0.22818 0.0
C578 C 0.36222 0.5984 0.23854 0.0
C579 C 0.35441 0.55456 0.2264 0.0
C580 C 0.33742 0.57493 0.23829 0.0
C581 C 0.41662 0.58221 0.2148 0.0
C582 C 0.39349 0.55847 0.21414 0.0
O583 O 0.54686 0.66947 0.25371 0.0
O584 O 0.51432 0.65311 0.22366 0.0
O585 O 0.41741 0.63676 0.20036 0.0
O586 O 0.41598 0.67465 0.21528 0.0
O587 O 0.48255 0.65949 0.2843 0.0
O588 O 0.45561 0.67599 0.25282 0.0
O589 O 0.42662 0.62788 0.26521 0.0
O590 O 0.4923 0.60614 0.26958 0.0
O591 O 0.54148 0.64087 0.31028 0.0
O592 O 0.56871 0.60613 0.29705 0.0
O593 O 0.49563 0.61189 0.22443 0.0
O594 O 0.55276 0.60777 0.24989 0.0
C595 C 0.54005 0.67028 0.23338 0.0
C596 C 0.4614 0.67743 0.27332 0.0
C597 C 0.3883 0.67179 0.17925 0.0
C598 C 0.37091 0.66827 0.1419 0.0
C599 C 0.34928 0.70648 0.16149 0.0
C600 C 0.36817 0.69618 0.17961 0.0
C601 C 0.35051 0.69269 0.14281 0.0
C602 C 0.38951 0.65781 0.16034 0.0
C603 C 0.40741 0.66096 0.19865 0.0
C604 C 0.29569 0.57287 0.24921 0.0
C605 C 0.27757 0.59445 0.25929 0.0
H606 H 0.33643 0.5362 0.22578 0.0
C607 C 0.44962 0.6098 0.27451 0.0
C608 C 0.53314 0.60151 0.23208 0.0
C609 C 0.6008 0.6199 0.3289 0.0
C610 C 0.62814 0.62306 0.36474 0.0
C611 C 0.68058 0.61137 0.33693 0.0
C612 C 0.64529 0.61335 0.3224 0.0
C613 C 0.67202 0.61596 0.35802 0.0
C614 C 0.59255 0.62517 0.35013 0.0
C615 C 0.56241 0.61939 0.31397 0.0
H616 H 0.33334 0.72519 0.16195 0.0
H617 H 0.36658 0.7072 0.19395 0.0
H618 H 0.33477 0.70105 0.12911 0.0
H619 H 0.40541 0.63906 0.1599 0.0
H620 H 0.71456 0.60603 0.33184 0.0
H621 H 0.65277 0.60927 0.30618 0.0
H622 H 0.69978 0.61422 0.36913 0.0
H623 H 0.55843 0.63021 0.35534 0.0
H624 H 0.10812 0.97615 0.33558 0.0
H625 H 0.21506 0.02102 0.36577 0.0
H626 H 0.19237 0.05946 0.34553 0.0
H627 H 0.11505 0.00468 0.2847 0.0
H628 H 0.05399 0.00501 0.28057 0.0
H629 H 0.07873 0.98093 0.29726 0.0
H630 H 0.02546 0.99475 0.32763 0.0
H631 H 0.00039 0.01874 0.31096 0.0
H632 H 0.02498 0.02801 0.33567 0.0
H633 H 0.15717 0.09312 0.32277 0.0
H634 H 0.11055 0.12009 0.29916 0.0
H635 H 0.02735 0.05347 0.28307 0.0
C636 C 0.12683 0.99408 0.33776 0.0
C637 C 0.16349 0.99574 0.35208 0.0
C638 C 0.18682 0.01951 0.35487 0.0
C639 C 0.17426 0.04135 0.34343 0.0
C640 C 0.13797 0.03915 0.32943 0.0
C641 C 0.11428 0.0162 0.32667 0.0
C642 C 0.07543 0.01936 0.31122 0.0
C643 C 0.08118 1.00143 0.29231 0.0
C644 C 0.02882 0.01495 0.32202 0.0
C645 C 0.08205 0.0474 0.30517 0.0
C646 C 0.11795 0.05853 0.31609 0.0
C647 C 0.12924 0.08457 0.31401 0.0
C648 C 0.10278 0.0997 0.30059 0.0
C649 C 0.06624 0.0886 0.28918 0.0
C650 C 0.05588 0.06214 0.29137 0.0
H651 H 0.40991 0.51985 0.84724 0.0
H652 H 0.27191 0.4891 0.85313 0.0
H653 H 0.29455 0.45026 0.8333 0.0
H654 H 0.42772 0.50021 0.79477 0.0
H655 H 0.48723 0.49232 0.79814 0.0
H656 H 0.46147 0.51645 0.81441 0.0
H657 H 0.4864 0.49141 0.84749 0.0
H658 H 0.51211 0.46714 0.83125 0.0
H659 H 0.46964 0.45809 0.85048 0.0
H660 H 0.33305 0.41425 0.81441 0.0
H661 H 0.38194 0.38595 0.79292 0.0
H662 H 0.49115 0.44302 0.79463 0.0
C663 C 0.38476 0.50477 0.84441 0.0
C664 C 0.33937 0.50706 0.85169 0.0
C665 C 0.30687 0.48737 0.84762 0.0
C666 C 0.31948 0.46531 0.83652 0.0
C667 C 0.36454 0.46353 0.82948 0.0
C668 C 0.39659 0.48284 0.833 0.0
C669 C 0.44188 0.47682 0.82254 0.0
C670 C 0.45533 0.49769 0.80651 0.0
C671 C 0.47974 0.47315 0.83892 0.0
C672 C 0.42976 0.45154 0.81205 0.0
C673 C 0.38549 0.44382 0.81688 0.0
C674 C 0.36737 0.42035 0.81012 0.0
C675 C 0.39503 0.40458 0.79777 0.0
C676 C 0.43921 0.41292 0.79158 0.0
C677 C 0.45709 0.4365 0.79897 0.0
H678 H 0.62517 0.49194 0.64273 0.0
H679 H 0.71645 0.52782 0.68799 0.0
H680 H 0.68911 0.49773 0.71493 0.0
H681 H 0.53231 0.47873 0.67655 0.0
H682 H 0.51858 0.44727 0.66628 0.0
H683 H 0.54556 0.47112 0.64972 0.0
H684 H 0.61174 0.43985 0.64156 0.0
H685 H 0.58455 0.41572 0.65782 0.0
H686 H 0.64291 0.42551 0.66282 0.0
H687 H 0.6453 0.46864 0.738 0.0
H688 H 0.59766 0.43564 0.75497 0.0
H689 H 0.54295 0.41253 0.69483 0.0
C690 C 0.63998 0.49318 0.6582 0.0
C691 C 0.672 0.51291 0.66332 0.0
C692 C 0.6906 0.51365 0.68378 0.0
C693 C 0.67558 0.49649 0.69923 0.0
C694 C 0.64278 0.47807 0.69393 0.0
C695 C 0.62603 0.47569 0.67385 0.0
C696 C 0.59154 0.45357 0.67257 0.0
C697 C 0.5442 0.46326 0.66588 0.0
C698 C 0.60873 0.4324 0.65782 0.0
C699 C 0.59105 0.44443 0.69517 0.0
C700 C 0.62053 0.45919 0.70715 0.0
C701 C 0.62355 0.45619 0.72868 0.0
C702 C 0.59681 0.43702 0.73821 0.0
C703 C 0.56873 0.42024 0.72629 0.0
C704 C 0.56516 0.42442 0.70442 0.0
H705 H 0.80916 0.99394 0.18244 0.0
H706 H 0.9046 0.99572 0.13019 0.0
H707 H 0.94962 0.02961 0.14775 0.0
H708 H 0.8122 0.0616 0.19227 0.0
H709 H 0.80961 0.05881 0.22027 0.0
H710 H 0.78393 0.0342 0.2042 0.0
H711 H 0.83229 0.9992 0.22219 0.0
H712 H 0.85746 0.02342 0.23886 0.0
H713 H 0.89369 0.003 0.22333 0.0
H714 H 0.98188 0.0651 0.16979 0.0
H715 H 0.00204 0.09778 0.19621 0.0
H716 H 0.89086 0.0704 0.23564 0.0
C717 C 0.83981 1.00121 0.17479 0.0
C718 C 0.85286 0.9923 0.15475 0.0
C719 C 0.89307 0.00261 0.14526 0.0
C720 C 0.9192 0.02175 0.15519 0.0
C721 C 0.90512 0.03027 0.17476 0.0
C722 C 0.86666 0.02022 0.18458 0.0
C723 C 0.85891 0.03311 0.20554 0.0
C724 C 0.81345 0.04778 0.20556 0.0
C725 C 0.86072 0.01351 0.22355 0.0
C726 C 0.89951 0.05156 0.20608 0.0
C727 C 0.92522 0.04991 0.188 0.0
C728 C 0.96249 0.06625 0.1842 0.0
C729 C 0.97379 0.08474 0.19933 0.0
C730 C 0.94874 0.08637 0.21826 0.0
C731 C 0.91128 0.06939 0.22163 0.0
H732 H 0.88656 0.02603 0.68034 0.0
H733 H 0.80928 0.98106 0.63518 0.0
H734 H 0.8331 0.94099 0.65266 0.0
H735 H 0.98112 0.98296 0.68354 0.0
H736 H 0.99028 0.98773 0.71112 0.0
H737 H 0.96591 0.01306 0.69559 0.0
H738 H 0.8958 0.01458 0.72051 0.0
H739 H 0.92011 0.98932 0.73614 0.0
H740 H 0.86325 0.98551 0.72559 0.0
H741 H 0.86912 0.90594 0.67326 0.0
H742 H 0.91238 0.87786 0.69739 0.0
H743 H 0.96301 0.94531 0.73023 0.0
C744 C 0.87421 0.00774 0.67436 0.0
C745 C 0.84623 0.00653 0.65641 0.0
C746 C 0.83119 0.98229 0.64879 0.0
C747 C 0.84435 0.95948 0.65864 0.0
C748 C 0.87252 0.96127 0.67609 0.0
C749 C 0.88718 0.98473 0.68398 0.0
C750 C 0.91846 0.98113 0.70258 0.0
C751 C 0.96679 0.99186 0.69792 0.0
C752 C 0.89816 0.99335 0.72238 0.0
C753 C 0.91854 0.95202 0.704 0.0
C754 C 0.89229 0.94094 0.68841 0.0
C755 C 0.88942 0.91433 0.68569 0.0
C756 C 0.91413 0.89858 0.6993 0.0
C757 C 0.94045 0.90959 0.71552 0.0
C758 C 0.94244 0.93657 0.71803 0.0
H759 H 0.7016 0.51643 0.16169 0.0
H760 H 0.58553 0.46457 0.15366 0.0
H761 H 0.54021 0.49062 0.17829 0.0
H762 H 0.68163 0.53113 0.21713 0.0
H763 H 0.69796 0.56456 0.21446 0.0
H764 H 0.72295 0.54076 0.19754 0.0
H765 H 0.69604 0.56651 0.16514 0.0
H766 H 0.67114 0.59027 0.18206 0.0
H767 H 0.63631 0.57442 0.16261 0.0
H768 H 0.50951 0.51987 0.20514 0.0
H769 H 0.48837 0.55641 0.22757 0.0
H770 H 0.61858 0.59377 0.21454 0.0
C771 C 0.66667 0.51067 0.16524 0.0
C772 C 0.64684 0.48853 0.15595 0.0
C773 C 0.60103 0.48153 0.16066 0.0
C774 C 0.57526 0.49605 0.17472 0.0
C775 C 0.5957 0.51765 0.18375 0.0
C776 C 0.63997 0.52534 0.17896 0.0
C777 C 0.65213 0.55049 0.18987 0.0
C778 C 0.69098 0.54649 0.20569 0.0
C779 C 0.66462 0.57168 0.17396 0.0
C780 C 0.60724 0.55603 0.20095 0.0
C781 C 0.57595 0.53626 0.19772 0.0
C782 C 0.533 0.53594 0.20715 0.0
C783 C 0.52083 0.55697 0.21945 0.0
C784 C 0.55031 0.57855 0.22133 0.0
C785 C 0.59486 0.57776 0.21268 0.0
H786 H 0.38822 0.4778 0.33274 0.0
H787 H 0.30015 0.52182 0.37373 0.0
H788 H 0.32111 0.56168 0.35459 0.0
H789 H 0.47843 0.52544 0.32923 0.0
H790 H 0.49118 0.51898 0.30216 0.0
H791 H 0.46816 0.49376 0.31859 0.0
H792 H 0.4013 0.48667 0.29256 0.0
H793 H 0.42426 0.51184 0.27604 0.0
H794 H 0.36606 0.51355 0.28534 0.0
H795 H 0.34809 0.5962 0.3298 0.0
H796 H 0.38598 0.62398 0.30323 0.0
H797 H 0.46145 0.55828 0.28033 0.0
C798 C 0.37326 0.49585 0.33758 0.0
C799 C 0.34241 0.49683 0.35461 0.0
C800 C 0.32396 0.52077 0.36074 0.0
C801 C 0.33549 0.54344 0.34992 0.0
C802 C 0.36594 0.54185 0.33318 0.0
C803 C 0.38503 0.51875 0.32717 0.0
C804 C 0.41799 0.52253 0.30904 0.0
C805 C 0.46683 0.51472 0.31513 0.0
C806 C 0.40139 0.50777 0.2896 0.0
C807 C 0.41454 0.55136 0.30589 0.0
C808 C 0.38368 0.56206 0.31972 0.0
C809 C 0.37279 0.58813 0.31907 0.0
C810 C 0.3943 0.60371 0.30396 0.0
C811 C 0.42698 0.59324 0.29012 0.0
C812 C 0.43723 0.56678 0.29111 0.0
H813 H 0.15356 0.02514 0.8245 0.0
H814 H 0.16366 0.98212 0.88255 0.0
H815 H 0.13232 0.94357 0.86503 0.0
H816 H 0.04936 0.9985 0.80714 0.0
H817 H 0.0654 0.99681 0.77993 0.0
H818 H 0.0912 0.02081 0.79657 0.0
H819 H 0.17232 0.00434 0.78691 0.0
H820 H 0.14632 0.98075 0.76993 0.0
H821 H 0.18494 0.97065 0.79018 0.0
H822 H 0.09841 0.90993 0.84163 0.0
H823 H 0.06379 0.88347 0.81348 0.0
H824 H 0.07406 0.94819 0.77089 0.0
C825 C 0.14994 0.0075 0.83343 0.0
C826 C 0.16082 0.00675 0.85496 0.0
C827 C 0.15493 0.98332 0.86614 0.0
C828 C 0.13743 0.96125 0.8563 0.0
C829 C 0.12628 0.96279 0.83521 0.0
C830 C 0.13256 0.98522 0.82383 0.0
C831 C 0.11688 0.98176 0.80143 0.0
C832 C 0.07842 1.00059 0.79596 0.0
C833 C 0.15754 0.98454 0.78622 0.0
C834 C 0.09941 0.9542 0.80221 0.0
C835 C 0.10589 0.94348 0.82177 0.0
C836 C 0.09316 0.9181 0.82626 0.0
C837 C 0.07349 0.90327 0.81028 0.0
C838 C 0.06607 0.91405 0.79032 0.0
C839 C 0.07907 0.93977 0.7862 0.0
H840 H 0.16561 0.1584 0.02716 0.0
H841 H 0.14782 0.07638 0.01597 0.0
H842 H 0.12558 0.07 0.05263 0.0
H843 H 0.21899 0.15319 0.0752 0.0
H844 H 0.19156 0.18038 0.08725 0.0
H845 H 0.19853 0.17939 0.05933 0.0
H846 H 0.11113 0.18547 0.05493 0.0
H847 H 0.10387 0.18606 0.08294 0.0
H848 H 0.07187 0.16324 0.06742 0.0
H849 H 0.1115 0.07117 0.09062 0.0
H850 H 0.11642 0.07922 0.12865 0.0
H851 H 0.14813 0.15959 0.11665 0.0
C852 C 0.15665 0.13915 0.03239 0.0
C853 C 0.15759 0.11801 0.01843 0.0
C854 C 0.14597 0.09308 0.02604 0.0
C855 C 0.13326 0.0892 0.04691 0.0
C856 C 0.13237 0.11037 0.06018 0.0
C857 C 0.14406 0.13486 0.05334 0.0
C858 C 0.1444 0.15377 0.07142 0.0
C859 C 0.19117 0.16747 0.07342 0.0
C860 C 0.10551 0.17329 0.06904 0.0
C861 C 0.13507 0.13562 0.08963 0.0
C862 C 0.12611 0.1109 0.08261 0.0
C863 C 0.11809 0.09046 0.09634 0.0
C864 C 0.12096 0.09515 0.11786 0.0
C865 C 0.13266 0.11992 0.12535 0.0
C866 C 0.13879 0.14054 0.11114 0.0
H867 H 0.29998 0.34843 0.52951 0.0
H868 H 0.4067 0.40141 0.50871 0.0
H869 H 0.43861 0.40241 0.54433 0.0
H870 H 0.27703 0.3769 0.57619 0.0
H871 H 0.2681 0.34767 0.59099 0.0
H872 H 0.25886 0.34769 0.56325 0.0
H873 H 0.31624 0.31021 0.55936 0.0
H874 H 0.32625 0.31041 0.58718 0.0
H875 H 0.37365 0.31393 0.56925 0.0
H876 H 0.45334 0.40209 0.58277 0.0
H877 H 0.44439 0.40378 0.62125 0.0
H878 H 0.32824 0.35154 0.61741 0.0
C879 C 0.33085 0.35963 0.53233 0.0
C880 C 0.35078 0.37483 0.5163 0.0
C881 C 0.39053 0.38976 0.52077 0.0
C882 C 0.4093 0.39021 0.54091 0.0
C883 C 0.38838 0.37538 0.55647 0.0
C884 C 0.35005 0.36032 0.55242 0.0
C885 C 0.33128 0.34837 0.57235 0.0
C886 C 0.28086 0.35562 0.57589 0.0
C887 C 0.33721 0.31899 0.57201 0.0
C888 C 0.36267 0.36075 0.58839 0.0
C889 C 0.3966 0.37542 0.57884 0.0
C890 C 0.42755 0.39026 0.59043 0.0
C891 C 0.42244 0.39102 0.61227 0.0
C892 C 0.38616 0.37746 0.62216 0.0
C893 C 0.35692 0.36152 0.61014 0.0
H894 H 0.66954 0.40035 0.9811 0.0
H895 H 0.65415 0.32031 0.99976 0.0
H896 H 0.62714 0.30933 0.96433 0.0
H897 H 0.56846 0.40044 0.94452 0.0
H898 H 0.59754 0.42163 0.92637 0.0
H899 H 0.60898 0.42408 0.954 0.0
H900 H 0.69567 0.41798 0.94699 0.0
H901 H 0.68456 0.41581 0.91945 0.0
H902 H 0.71436 0.39019 0.93252 0.0
H903 H 0.60914 0.30618 0.92624 0.0
H904 H 0.60906 0.31065 0.88767 0.0
H905 H 0.63708 0.39237 0.89374 0.0
C906 C 0.65934 0.38063 0.9779 0.0
C907 C 0.66394 0.36119 0.99321 0.0
C908 C 0.65135 0.33549 0.98822 0.0
C909 C 0.63538 0.32912 0.96822 0.0
C910 C 0.63171 0.34868 0.95342 0.0
C911 C 0.64331 0.37395 0.95801 0.0
C912 C 0.64044 0.39088 0.93877 0.0
C913 C 0.60154 0.41042 0.94105 0.0
C914 C 0.68651 0.40449 0.93417 0.0
C915 C 0.62883 0.37084 0.92238 0.0
C916 C 0.62216 0.34679 0.93126 0.0
C917 C 0.61359 0.32497 0.91912 0.0
C918 C 0.61346 0.32765 0.89728 0.0
C919 C 0.62282 0.35184 0.88795 0.0
C920 C 0.62932 0.37376 0.90065 0.0
H921 H 0.8222 0.09941 0.48008 0.0
H922 H 0.87715 0.17131 0.50428 0.0
H923 H 0.91111 0.18117 0.46981 0.0
H924 H 0.91859 0.08627 0.44243 0.0
H925 H 0.88006 0.07376 0.42286 0.0
H926 H 0.86654 0.06988 0.45024 0.0
H927 H 0.78838 0.0921 0.44473 0.0
H928 H 0.8013 0.09546 0.41738 0.0
H929 H 0.78708 0.12348 0.43261 0.0
H930 H 0.93173 0.18574 0.43271 0.0
H931 H 0.92775 0.18774 0.39418 0.0
H932 H 0.85839 0.11368 0.39314 0.0
C933 C 0.84233 0.1169 0.47815 0.0
C934 C 0.84741 0.13456 0.49477 0.0
C935 C 0.87286 0.1576 0.49166 0.0
C936 C 0.89275 0.16319 0.47224 0.0
C937 C 0.88705 0.1455 0.4561 0.0
C938 C 0.8621 0.12292 0.45874 0.0
C939 C 0.85626 0.10886 0.43815 0.0
C940 C 0.88189 0.08317 0.43844 0.0
C941 C 0.80524 0.10477 0.43291 0.0
C942 C 0.87925 0.12792 0.42338 0.0
C943 C 0.89836 0.1484 0.43422 0.0
C944 C 0.91791 0.16958 0.42402 0.0
C945 C 0.91584 0.1705 0.40218 0.0
C946 C 0.89393 0.15054 0.39092 0.0
C947 C 0.87688 0.1286 0.40152 0.0
H948 H 0.82488 0.84567 0.9841 0.0
H949 H 0.85042 0.92722 0.99456 0.0
H950 H 0.87781 0.93189 0.9584 0.0
H951 H 0.92193 0.8357 0.94726 0.0
H952 H 0.88932 0.81391 0.93104 0.0
H953 H 0.87763 0.8157 0.9587 0.0
H954 H 0.79241 0.82567 0.95111 0.0
H955 H 0.8038 0.82347 0.92354 0.0
H956 H 0.77865 0.85223 0.93413 0.0
H957 H 0.89769 0.92885 0.92071 0.0
H958 H 0.8988 0.91925 0.88286 0.0
H959 H 0.85672 0.8405 0.89592 0.0
C960 C 0.83647 0.86447 0.97883 0.0
C961 C 0.83629 0.88594 0.99241 0.0
C962 C 0.8515 0.91026 0.98476 0.0
C963 C 0.86714 0.91316 0.96418 0.0
C964 C 0.86731 0.89162 0.9513 0.0
C965 C 0.85201 0.86778 0.95822 0.0
C966 C 0.852 0.84832 0.94058 0.0
C967 C 0.88732 0.82715 0.94464 0.0
C968 C 0.80384 0.83676 0.93714 0.0
C969 C 0.86688 0.86539 0.92249 0.0
C970 C 0.87718 0.89006 0.92918 0.0
C971 C 0.89011 0.90955 0.91527 0.0
C972 C 0.89086 0.90392 0.89384 0.0
C973 C 0.87785 0.87919 0.8866 0.0
C974 C 0.86695 0.85954 0.90115 0.0
H975 H 0.66995 0.59234 0.4835 0.0
H976 H 0.66017 0.6744 0.49526 0.0
H977 H 0.63314 0.68104 0.4591 0.0
H978 H 0.71391 0.59619 0.4338 0.0
H979 H 0.68236 0.56903 0.42349 0.0
H980 H 0.69495 0.57056 0.45093 0.0
H981 H 0.60837 0.56561 0.45944 0.0
H982 H 0.59551 0.56429 0.4319 0.0
H983 H 0.5683 0.58788 0.44827 0.0
H984 H 0.61341 0.67913 0.42083 0.0
H985 H 0.60954 0.66912 0.38296 0.0
H986 H 0.6328 0.58861 0.39652 0.0
C987 C 0.661 0.61163 0.47867 0.0
C988 C 0.66701 0.63283 0.49225 0.0
C989 C 0.65617 0.65788 0.48508 0.0
C990 C 0.64027 0.6618 0.46466 0.0
C991 C 0.63498 0.64047 0.45165 0.0
C992 C 0.64506 0.61587 0.4584 0.0
C993 C 0.64032 0.59647 0.4409 0.0
C994 C 0.68558 0.58225 0.43706 0.0
C995 C 0.60077 0.57744 0.4454 0.0
C996 C 0.62871 0.61419 0.42295 0.0
C997 C 0.62431 0.6394 0.42956 0.0
C998 C 0.6161 0.65942 0.41552 0.0
C999 C 0.6138 0.65361 0.39412 0.0
C1000 C 0.62053 0.62814 0.3871 0.0
C1001 C 0.62694 0.60816 0.40169 0.0
H1002 H 0.35121 0.66032 0.0187 0.0
H1003 H 0.30816 0.58054 0.02576 0.0
H1004 H 0.32734 0.58237 0.06338 0.0
H1005 H 0.44575 0.65817 0.05686 0.0
H1006 H 0.43476 0.69034 0.06602 0.0
H1007 H 0.42238 0.68178 0.0393 0.0
H1008 H 0.33829 0.69639 0.04414 0.0
H1009 H 0.35049 0.70517 0.07075 0.0
H1010 H 0.30445 0.68283 0.06516 0.0
H1011 H 0.34388 0.59465 0.10116 0.0
H1012 H 0.35397 0.61652 0.13524 0.0
H1013 H 0.38801 0.68771 0.10284 0.0
C1014 C 0.34601 0.64318 0.02812 0.0
C1015 C 0.32811 0.62031 0.01929 0.0
C1016 C 0.32227 0.59822 0.03214 0.0
C1017 C 0.33307 0.59908 0.05353 0.0
C1018 C 0.35018 0.62208 0.06178 0.0
C1019 C 0.35684 0.64366 0.0494 0.0
C1020 C 0.37312 0.66645 0.06216 0.0
C1021 C 0.4219 0.67467 0.0557 0.0
C1022 C 0.33958 0.68903 0.06045 0.0
C1023 C 0.37253 0.65474 0.08381 0.0
C1024 C 0.35999 0.62901 0.08333 0.0
C1025 C 0.35432 0.61471 0.10168 0.0
C1026 C 0.3603 0.62727 0.12098 0.0
C1027 C 0.37144 0.65391 0.12174 0.0
C1028 C 0.379 0.66742 0.10283 0.0
H1029 H 0.17302 0.83996 0.52181 0.0
H1030 H 0.16986 0.92348 0.52344 0.0
H1031 H 0.14683 0.92185 0.56064 0.0
H1032 H 0.07712 0.82821 0.55758 0.0
H1033 H 0.10434 0.80095 0.5696 0.0
H1034 H 0.11607 0.80875 0.54262 0.0
H1035 H 0.20316 0.81122 0.55042 0.0
H1036 H 0.19181 0.80307 0.57728 0.0
H1037 H 0.2235 0.83206 0.571 0.0
H1038 H 0.13158 0.91076 0.599 0.0
H1039 H 0.12944 0.8914 0.63442 0.0
H1040 H 0.14005 0.81538 0.60685 0.0
C1041 C 0.16745 0.85795 0.52993 0.0
C1042 C 0.17324 0.88183 0.51962 0.0
C1043 C 0.16507 0.90489 0.53087 0.0
C1044 C 0.15199 0.90417 0.55204 0.0
C1045 C 0.1469 0.88024 0.56175 0.0
C1046 C 0.15436 0.85758 0.55098 0.0
C1047 C 0.14962 0.8344 0.56516 0.0
C1048 C 0.10938 0.81706 0.55833 0.0
C1049 C 0.19469 0.81932 0.56601 0.0
C1050 C 0.13966 0.8475 0.58575 0.0
C1051 C 0.13771 0.87394 0.58354 0.0
C1052 C 0.13249 0.89005 0.60085 0.0
C1053 C 0.13104 0.87887 0.62093 0.0
C1054 C 0.13508 0.85185 0.62351 0.0
C1055 C 0.13749 0.83611 0.60552 0.0
H1056 H 0.19019 0.25523 0.3563 0.0
H1057 H 0.08985 0.31585 0.3511 0.0
H1058 H 0.0424 0.28816 0.32832 0.0
H1059 H 0.18415 0.23432 0.30361 0.0
H1060 H 0.18928 0.20042 0.3091 0.0
H1061 H 0.21411 0.22378 0.32666 0.0
H1062 H 0.16797 0.20405 0.35759 0.0
H1063 H 0.1435 0.18046 0.34011 0.0
H1064 H 0.10664 0.20067 0.35549 0.0
H1065 H 0.00783 0.25574 0.30512 0.0
H1066 H 0.98564 0.21917 0.28294 0.0
H1067 H 0.10869 0.17875 0.30124 0.0
C1068 C 0.15777 0.26233 0.35065 0.0
C1069 C 0.14337 0.28759 0.35548 0.0
C1070 C 0.10125 0.29655 0.34756 0.0
C1071 C 0.07415 0.28098 0.33463 0.0
C1072 C 0.0897 0.25648 0.32967 0.0
C1073 C 0.1303 0.24702 0.33745 0.0
C1074 C 0.13941 0.22022 0.32885 0.0
C1075 C 0.18442 0.21967 0.31631 0.0
C1076 C 0.13938 0.20016 0.34656 0.0
C1077 C 0.09818 0.21651 0.31468 0.0
C1078 C 0.06986 0.23764 0.31569 0.0
C1079 C 0.02953 0.23901 0.30427 0.0
C1080 C 0.01725 0.21809 0.2917 0.0
C1081 C 0.04533 0.19605 0.29042 0.0
C1082 C 0.08671 0.1954 0.30187 0.0
H1083 H 0.33843 0.20888 0.82957 0.0
H1084 H 0.38097 0.24087 0.88932 0.0
H1085 H 0.41622 0.27786 0.871 0.0
H1086 H 0.44303 0.22634 0.80207 0.0
H1087 H 0.41389 0.23313 0.7779 0.0
H1088 H 0.39048 0.20955 0.79578 0.0
H1089 H 0.31373 0.23436 0.79668 0.0
H1090 H 0.33729 0.2579 0.77883 0.0
H1091 H 0.31412 0.26802 0.8036 0.0
H1092 H 0.4431 0.31281 0.84621 0.0
H1093 H 0.4671 0.34035 0.81648 0.0
H1094 H 0.41636 0.28305 0.77306 0.0
C1095 C 0.35565 0.22338 0.83891 0.0
C1096 C 0.35617 0.22188 0.86105 0.0
C1097 C 0.37877 0.24171 0.87245 0.0
C1098 C 0.39927 0.26278 0.86216 0.0
C1099 C 0.39759 0.26369 0.84042 0.0
C1100 C 0.377 0.24432 0.8289 0.0
C1101 C 0.38119 0.24955 0.80564 0.0
C1102 C 0.4088 0.22838 0.79471 0.0
C1103 C 0.33375 0.25264 0.79561 0.0
C1104 C 0.40733 0.27489 0.80589 0.0
C1105 C 0.41587 0.28292 0.82612 0.0
C1106 C 0.43755 0.3064 0.83031 0.0
C1107 C 0.45154 0.3218 0.81336 0.0
C1108 C 0.44497 0.31332 0.7926 0.0
C1109 C 0.4222 0.28974 0.78883 0.0
H1110 H 0.68314 0.21347 0.68244 0.0
H1111 H 0.61689 0.22979 0.62317 0.0
H1112 H 0.57627 0.26587 0.63944 0.0
H1113 H 0.58315 0.2262 0.71459 0.0
H1114 H 0.61605 0.24034 0.73553 0.0
H1115 H 0.64116 0.21607 0.71914 0.0
H1116 H 0.7086 0.24732 0.71021 0.0
H1117 H 0.68333 0.27142 0.72671 0.0
H1118 H 0.69632 0.27877 0.69977 0.0
H1119 H 0.54702 0.30144 0.66101 0.0
H1120 H 0.52297 0.33205 0.68773 0.0
H1121 H 0.59837 0.28911 0.7346 0.0
C1122 C 0.65968 0.2244 0.67292 0.0
C1123 C 0.65387 0.21899 0.65139 0.0
C1124 C 0.62302 0.23395 0.63951 0.0
C1125 C 0.5995 0.25439 0.64863 0.0
C1126 C 0.60665 0.25942 0.66972 0.0
C1127 C 0.6353 0.24467 0.68185 0.0
C1128 C 0.63575 0.25396 0.70432 0.0
C1129 C 0.61794 0.23289 0.71927 0.0
C1130 C 0.68387 0.26343 0.71061 0.0
C1131 C 0.60275 0.27619 0.70284 0.0
C1132 C 0.58723 0.27921 0.68263 0.0
C1133 C 0.55856 0.29915 0.67696 0.0
C1134 C 0.54522 0.31652 0.69238 0.0
C1135 C 0.55953 0.31356 0.71347 0.0
C1136 C 0.58819 0.29278 0.71871 0.0
H1137 H 0.88196 0.26871 0.14081 0.0
H1138 H 0.81691 0.31624 0.18794 0.0
H1139 H 0.84257 0.28666 0.21542 0.0
H1140 H 0.85376 0.20709 0.16557 0.0
H1141 H 0.90737 0.19247 0.1586 0.0
H1142 H 0.88377 0.21726 0.14224 0.0
H1143 H 0.9593 0.24364 0.14564 0.0
H1144 H 0.98282 0.21899 0.16216 0.0
H1145 H 0.98049 0.25178 0.17128 0.0
H1146 H 0.87672 0.25376 0.23791 0.0
H1147 H 0.91384 0.21678 0.25451 0.0
H1148 H 0.95513 0.18861 0.19341 0.0
C1149 C 0.8729 0.27272 0.1569 0.0
C1150 C 0.8481 0.29505 0.16227 0.0
C1151 C 0.83683 0.29963 0.1835 0.0
C1152 C 0.85102 0.28288 0.19923 0.0
C1153 C 0.87618 0.26143 0.19353 0.0
C1154 C 0.88679 0.25606 0.17293 0.0
C1155 C 0.91424 0.23144 0.17135 0.0
C1156 C 0.88821 0.21085 0.15869 0.0
C1157 C 0.96205 0.2368 0.16205 0.0
C1158 C 0.91721 0.22402 0.19426 0.0
C1159 C 0.89515 0.24174 0.2067 0.0
C1160 C 0.89366 0.23953 0.22836 0.0
C1161 C 0.91473 0.21838 0.23762 0.0
C1162 C 0.93659 0.19952 0.22525 0.0
C1163 C 0.93832 0.2026 0.20327 0.0
H1164 H 0.89105 0.73714 0.63876 0.0
H1165 H 0.81525 0.69029 0.68354 0.0
H1166 H 0.83521 0.72079 0.71157 0.0
H1167 H 0.98313 0.75363 0.67246 0.0
H1168 H 0.98976 0.78631 0.6633 0.0
H1169 H 0.96708 0.76191 0.64611 0.0
H1170 H 0.89472 0.7893 0.63993 0.0
H1171 H 0.91728 0.81386 0.65706 0.0
H1172 H 0.8615 0.79992 0.66204 0.0
H1173 H 0.86628 0.75438 0.73515 0.0
H1174 H 0.90725 0.78963 0.75301 0.0
H1175 H 0.96235 0.81597 0.69357 0.0
C1176 C 0.8783 0.73357 0.65443 0.0
C1177 C 0.85193 0.71125 0.65905 0.0
C1178 C 0.83606 0.70707 0.67975 0.0
C1179 C 0.84696 0.72435 0.69576 0.0
C1180 C 0.87368 0.74587 0.69086 0.0
C1181 C 0.88912 0.75068 0.67075 0.0
C1182 C 0.91882 0.77487 0.67011 0.0
C1183 C 0.96759 0.7688 0.66255 0.0
C1184 C 0.89675 0.79572 0.65647 0.0
C1185 C 0.91832 0.78242 0.69304 0.0
C1186 C 0.89163 0.76554 0.70464 0.0
C1187 C 0.88673 0.76799 0.72621 0.0
C1188 C 0.90977 0.78827 0.73624 0.0
C1189 C 0.93719 0.80596 0.72477 0.0
C1190 C 0.94146 0.80287 0.70283 0.0
H1191 H 0.60845 0.76359 0.13625 0.0
H1192 H 0.68349 0.80863 0.18224 0.0
H1193 H 0.66176 0.77759 0.20955 0.0
H1194 H 0.51475 0.74559 0.17016 0.0
H1195 H 0.50835 0.7132 0.16042 0.0
H1196 H 0.5307 0.73824 0.14359 0.0
H1197 H 0.60331 0.71133 0.13657 0.0
H1198 H 0.58099 0.68614 0.15328 0.0
H1199 H 0.63669 0.70005 0.15835 0.0
H1200 H 0.62851 0.7452 0.23225 0.0
H1201 H 0.58938 0.70978 0.24986 0.0
H1202 H 0.53786 0.68152 0.19045 0.0
C1203 C 0.62052 0.76665 0.15205 0.0
C1204 C 0.64713 0.78878 0.15721 0.0
C1205 C 0.66234 0.79218 0.17803 0.0
C1206 C 0.65038 0.77458 0.19365 0.0
C1207 C 0.62334 0.75343 0.18828 0.0
C1208 C 0.60873 0.74907 0.16806 0.0
C1209 C 0.57923 0.72465 0.16711 0.0
C1210 C 0.53036 0.73079 0.15989 0.0
C1211 C 0.60139 0.70434 0.15299 0.0
C1212 C 0.57969 0.71628 0.18995 0.0
C1213 C 0.60527 0.73345 0.20168 0.0
C1214 C 0.60932 0.73121 0.22319 0.0
C1215 C 0.58715 0.71068 0.23309 0.0
C1216 C 0.5619 0.692 0.22166 0.0
C1217 C 0.55775 0.69504 0.19968 0.0
H1218 H 0.38849 0.76752 0.37067 0.0
H1219 H 0.30431 0.80842 0.32599 0.0
H1220 H 0.32959 0.77941 0.29805 0.0
H1221 H 0.48223 0.75558 0.335 0.0
H1222 H 0.49423 0.72369 0.34453 0.0
H1223 H 0.46982 0.74728 0.36183 0.0
H1224 H 0.40203 0.71628 0.37014 0.0
H1225 H 0.42668 0.69251 0.35311 0.0
H1226 H 0.36872 0.70296 0.34896 0.0
H1227 H 0.37142 0.75109 0.27417 0.0
H1228 H 0.41447 0.71752 0.25609 0.0
H1229 H 0.46303 0.6889 0.31588 0.0
C1230 C 0.37505 0.77005 0.35505 0.0
C1231 C 0.34509 0.7906 0.3504 0.0
C1232 C 0.32813 0.79327 0.32979 0.0
C1233 C 0.34222 0.77687 0.3138 0.0
C1234 C 0.373 0.75755 0.3186 0.0
C1235 C 0.3886 0.75353 0.33872 0.0
C1236 C 0.4214 0.7309 0.3392 0.0
C1237 C 0.46978 0.7399 0.34553 0.0
C1238 C 0.40361 0.70938 0.35371 0.0
C1239 C 0.4205 0.72265 0.31637 0.0
C1240 C 0.3936 0.739 0.30478 0.0
C1241 C 0.39116 0.73745 0.28312 0.0
C1242 C 0.41562 0.71811 0.273 0.0
C1243 C 0.44023 0.69949 0.28452 0.0
C1244 C 0.44336 0.70221 0.30657 0.0
H1245 H 0.15675 0.7031 0.82717 0.0
H1246 H 0.13607 0.73969 0.88761 0.0
H1247 H 0.10198 0.7768 0.87015 0.0
H1248 H 0.18289 0.75874 0.79723 0.0
H1249 H 0.15001 0.7495 0.77458 0.0
H1250 H 0.17326 0.72512 0.79145 0.0
H1251 H 0.09232 0.70522 0.79677 0.0
H1252 H 0.06887 0.72936 0.7797 0.0
H1253 H 0.04641 0.72533 0.80579 0.0
H1254 H 0.0733 0.81029 0.84718 0.0
H1255 H 0.04436 0.83813 0.81975 0.0
H1256 H 0.07747 0.78045 0.77292 0.0
C1257 C 0.14457 0.71872 0.83682 0.0
C1258 C 0.15042 0.71849 0.85889 0.0
C1259 C 0.13383 0.73954 0.87072 0.0
C1260 C 0.11387 0.76071 0.86095 0.0
C1261 C 0.10965 0.76049 0.8393 0.0
C1262 C 0.12363 0.73998 0.82732 0.0
C1263 C 0.11344 0.74475 0.80428 0.0
C1264 C 0.15755 0.74452 0.79111 0.0
C1265 C 0.07817 0.72499 0.79615 0.0
C1266 C 0.09307 0.77157 0.80526 0.0
C1267 C 0.09122 0.77997 0.82574 0.0
C1268 C 0.07418 0.80388 0.83109 0.0
C1269 C 0.05781 0.81962 0.8152 0.0
C1270 C 0.05835 0.81162 0.79396 0.0
C1271 C 0.07667 0.78722 0.78892 0.0
loop_
_geom_bond_atom_site_label_1
_geom_bond_atom_site_label_2
_geom_bond_distance
_geom_bond_site_symmetry_2
_ccdc_geom_bond_type
C0 C1 1.384 . S
C0 H13 0.947 . S
C0 C35 1.382 . S
C1 C0 1.384 . S
C1 C2 1.378 . S
C2 C1 1.378 . S
C2 C3 1.378 . S
C2 H14 0.952 . S
C3 C2 1.378 . S
C3 H15 0.950 . S
C3 C34 1.383 . S
H4 C23 0.947 . S
H5 C24 0.946 . S
H6 C26 0.953 . S
H7 C27 0.945 . S
H8 C29 0.952 . S
H9 C30 0.949 . S
H10 C32 0.950 . S
H11 C33 0.948 . S
H12 C35 0.951 . S
H13 C0 0.947 . S
H14 C2 0.952 . S
H15 C3 0.950 . S
N16 C19 1.382 . S
N16 C21 1.363 . S
N17 C19 1.371 . S
N17 C20 1.372 . S
N18 C20 1.361 . S
N18 C21 1.377 . S
C19 N16 1.382 . S
C19 N17 1.371 . S
C19 C22 1.480 . S
C20 N17 1.372 . S
C20 N18 1.361 . S
C20 C28 1.457 . S
C21 N16 1.363 . S
C21 N18 1.377 . S
C21 C34 1.479 . S
C22 C19 1.480 . S
C22 C23 1.383 . S
C22 C27 1.385 . S
C23 H4 0.947 . S
C23 C22 1.383 . S
C23 C24 1.388 . S
C24 H5 0.946 . S
C24 C23 1.388 . S
C24 C25 1.384 . S
C25 C24 1.384 . S
C25 C26 1.377 . S
C26 H6 0.953 . S
C26 C25 1.377 . S
C26 C27 1.369 . S
C27 H7 0.945 . S
C27 C22 1.385 . S
C27 C26 1.369 . S
C28 C20 1.457 . S
C28 C29 1.372 . S
C28 C33 1.364 . S
C29 H8 0.952 . S
C29 C28 1.372 . S
C29 C30 1.389 . S
C30 H9 0.949 . S
C30 C29 1.389 . S
C30 C31 1.387 . S
C31 C30 1.387 . S
C31 C32 1.372 . S
C32 H10 0.950 . S
C32 C31 1.372 . S
C32 C33 1.379 . S
C33 H11 0.948 . S
C33 C28 1.364 . S
C33 C32 1.379 . S
C34 C3 1.383 . S
C34 C21 1.479 . S
C34 C35 1.398 . S
C35 C0 1.382 . S
C35 H12 0.951 . S
C35 C34 1.398 . S
C36 C37 1.384 . S
C36 H49 0.947 . S
C36 C71 1.382 . S
C37 C36 1.384 . S
C37 C38 1.378 . S
C38 C37 1.378 . S
C38 C39 1.378 . S
C38 H50 0.952 . S
C39 C38 1.378 . S
C39 H51 0.950 . S
C39 C70 1.383 . S
H40 C59 0.947 . S
H41 C60 0.946 . S
H42 C62 0.953 . S
H43 C63 0.945 . S
H44 C65 0.952 . S
H45 C66 0.949 . S
H46 C68 0.950 . S
H47 C69 0.948 . S
H48 C71 0.951 . S
H49 C36 0.947 . S
H50 C38 0.952 . S
H51 C39 0.950 . S
N52 C55 1.382 . S
N52 C57 1.363 . S
N53 C55 1.371 . S
N53 C56 1.372 . S
N54 C56 1.361 . S
N54 C57 1.377 . S
C55 N52 1.382 . S
C55 N53 1.371 . S
C55 C58 1.480 . S
C56 N53 1.372 . S
C56 N54 1.361 . S
C56 C64 1.457 . S
C57 N52 1.363 . S
C57 N54 1.377 . S
C57 C70 1.479 . S
C58 C55 1.480 . S
C58 C59 1.383 . S
C58 C63 1.385 . S
C59 H40 0.947 . S
C59 C58 1.383 . S
C59 C60 1.388 . S
C60 H41 0.946 . S
C60 C59 1.388 . S
C60 C61 1.384 . S
C61 C60 1.384 . S
C61 C62 1.377 . S
C62 H42 0.953 . S
C62 C61 1.377 . S
C62 C63 1.369 . S
C63 H43 0.945 . S
C63 C58 1.385 . S
C63 C62 1.369 . S
C64 C56 1.457 . S
C64 C65 1.372 . S
C64 C69 1.364 . S
C65 H44 0.952 . S
C65 C64 1.372 . S
C65 C66 1.389 . S
C66 H45 0.949 . S
C66 C65 1.389 . S
C66 C67 1.387 . S
C67 C66 1.387 . S
C67 C68 1.372 . S
C68 H46 0.950 . S
C68 C67 1.372 . S
C68 C69 1.379 . S
C69 H47 0.948 . S
C69 C64 1.364 . S
C69 C68 1.379 . S
C70 C39 1.383 . S
C70 C57 1.479 . S
C70 C71 1.398 . S
C71 C36 1.382 . S
C71 H48 0.951 . S
C71 C70 1.398 . S
C72 C73 1.384 . S
C72 H85 0.947 . S
C72 C107 1.382 . S
C73 C72 1.384 . S
C73 C74 1.378 . S
C74 C73 1.378 . S
C74 C75 1.378 . S
C74 H86 0.952 . S
C75 C74 1.378 . S
C75 H87 0.950 . S
C75 C106 1.383 . S
H76 C95 0.947 . S
H77 C96 0.946 . S
H78 C98 0.953 . S
H79 C99 0.945 . S
H80 C101 0.952 . S
H81 C102 0.949 . S
H82 C104 0.950 . S
H83 C105 0.948 . S
H84 C107 0.951 . S
H85 C72 0.947 . S
H86 C74 0.952 . S
H87 C75 0.950 . S
N88 C91 1.382 . S
N88 C93 1.363 . S
N89 C91 1.371 . S
N89 C92 1.372 . S
N90 C92 1.361 . S
N90 C93 1.377 . S
C91 N88 1.382 . S
C91 N89 1.371 . S
C91 C94 1.480 . S
C92 N89 1.372 . S
C92 N90 1.361 . S
C92 C100 1.457 . S
C93 N88 1.363 . S
C93 N90 1.377 . S
C93 C106 1.479 . S
C94 C91 1.480 . S
C94 C95 1.383 . S
C94 C99 1.385 . S
C95 H76 0.947 . S
C95 C94 1.383 . S
C95 C96 1.388 . S
C96 H77 0.946 . S
C96 C95 1.388 . S
C96 C97 1.384 . S
C97 C96 1.384 . S
C97 C98 1.377 . S
C98 H78 0.953 . S
C98 C97 1.377 . S
C98 C99 1.369 . S
C99 H79 0.945 . S
C99 C94 1.385 . S
C99 C98 1.369 . S
C100 C92 1.457 . S
C100 C101 1.372 . S
C100 C105 1.364 . S
C101 H80 0.952 . S
C101 C100 1.372 . S
C101 C102 1.389 . S
C102 H81 0.949 . S
C102 C101 1.389 . S
C102 C103 1.387 . S
C103 C102 1.387 . S
C103 C104 1.372 . S
C104 H82 0.950 . S
C104 C103 1.372 . S
C104 C105 1.379 . S
C105 H83 0.948 . S
C105 C100 1.364 . S
C105 C104 1.379 . S
C106 C75 1.383 . S
C106 C93 1.479 . S
C106 C107 1.398 . S
C107 C72 1.382 . S
C107 H84 0.951 . S
C107 C106 1.398 . S
C108 C109 1.384 . S
C108 H121 0.947 . S
C108 C143 1.382 . S
C109 C108 1.384 . S
C109 C110 1.378 . S
C110 C109 1.378 . S
C110 C111 1.378 . S
C110 H122 0.952 . S
C111 C110 1.378 . S
C111 H123 0.950 . S
C111 C142 1.383 . S
H112 C131 0.947 . S
H113 C132 0.946 . S
H114 C134 0.953 . S
H115 C135 0.945 . S
H116 C137 0.952 . S
H117 C138 0.949 . S
H118 C140 0.950 . S
H119 C141 0.948 . S
H120 C143 0.951 . S
H121 C108 0.947 . S
H122 C110 0.952 . S
H123 C111 0.950 . S
N124 C127 1.382 . S
N124 C129 1.363 . S
N125 C127 1.371 . S
N125 C128 1.372 . S
N126 C128 1.361 . S
N126 C129 1.377 . S
C127 N124 1.382 . S
C127 N125 1.371 . S
C127 C130 1.480 . S
C128 N125 1.372 . S
C128 N126 1.361 . S
C128 C136 1.457 . S
C129 N124 1.363 . S
C129 N126 1.377 . S
C129 C142 1.479 . S
C130 C127 1.480 . S
C130 C131 1.383 . S
C130 C135 1.385 . S
C131 H112 0.947 . S
C131 C130 1.383 . S
C131 C132 1.388 . S
C132 H113 0.946 . S
C132 C131 1.388 . S
C132 C133 1.384 . S
C133 C132 1.384 . S
C133 C134 1.377 . S
C134 H114 0.953 . S
C134 C133 1.377 . S
C134 C135 1.369 . S
C135 H115 0.945 . S
C135 C130 1.385 . S
C135 C134 1.369 . S
C136 C128 1.457 . S
C136 C137 1.372 . S
C136 C141 1.364 . S
C137 H116 0.952 . S
C137 C136 1.372 . S
C137 C138 1.389 . S
C138 H117 0.949 . S
C138 C137 1.389 . S
C138 C139 1.387 . S
C139 C138 1.387 . S
C139 C140 1.372 . S
C140 H118 0.950 . S
C140 C139 1.372 . S
C140 C141 1.379 . S
C141 H119 0.948 . S
C141 C136 1.364 . S
C141 C140 1.379 . S
C142 C111 1.383 . S
C142 C129 1.479 . S
C142 C143 1.398 . S
C143 C108 1.382 . S
C143 H120 0.951 . S
C143 C142 1.398 . S
C144 C145 1.384 . S
C144 H157 0.947 . S
C144 C179 1.382 . S
C145 C144 1.384 . S
C145 C146 1.378 . S
C146 C145 1.378 . S
C146 C147 1.378 . S
C146 H158 0.952 . S
C147 C146 1.378 . S
C147 H159 0.950 . S
C147 C178 1.383 . S
H148 C167 0.947 . S
H149 C168 0.946 . S
H150 C170 0.953 . S
H151 C171 0.945 . S
H152 C173 0.952 . S
H153 C174 0.949 . S
H154 C176 0.950 . S
H155 C177 0.948 . S
H156 C179 0.951 . S
H157 C144 0.947 . S
H158 C146 0.952 . S
H159 C147 0.950 . S
N160 C163 1.382 . S
N160 C165 1.363 . S
N161 C163 1.371 . S
N161 C164 1.372 . S
N162 C164 1.361 . S
N162 C165 1.377 . S
C163 N160 1.382 . S
C163 N161 1.371 . S
C163 C166 1.480 . S
C164 N161 1.372 . S
C164 N162 1.361 . S
C164 C172 1.457 . S
C165 N160 1.363 . S
C165 N162 1.377 . S
C165 C178 1.479 . S
C166 C163 1.480 . S
C166 C167 1.383 . S
C166 C171 1.385 . S
C167 H148 0.947 . S
C167 C166 1.383 . S
C167 C168 1.388 . S
C168 H149 0.946 . S
C168 C167 1.388 . S
C168 C169 1.384 . S
C169 C168 1.384 . S
C169 C170 1.377 . S
C170 H150 0.953 . S
C170 C169 1.377 . S
C170 C171 1.369 . S
C171 H151 0.945 . S
C171 C166 1.385 . S
C171 C170 1.369 . S
C172 C164 1.457 . S
C172 C173 1.372 . S
C172 C177 1.364 . S
C173 H152 0.952 . S
C173 C172 1.372 . S
C173 C174 1.389 . S
C174 H153 0.949 . S
C174 C173 1.389 . S
C174 C175 1.387 . S
C175 C174 1.387 . S
C175 C176 1.372 . S
C176 H154 0.950 . S
C176 C175 1.372 . S
C176 C177 1.379 . S
C177 H155 0.948 . S
C177 C172 1.364 . S
C177 C176 1.379 . S
C178 C147 1.383 . S
C178 C165 1.479 . S
C178 C179 1.398 . S
C179 C144 1.382 . S
C179 H156 0.951 . S
C179 C178 1.398 . S
C180 C181 1.384 . S
C180 H193 0.947 . S
C180 C215 1.382 . S
C181 C180 1.384 . S
C181 C182 1.378 . S
C182 C181 1.378 . S
C182 C183 1.378 . S
C182 H194 0.952 . S
C183 C182 1.378 . S
C183 H195 0.950 . S
C183 C214 1.383 . S
H184 C203 0.947 . S
H185 C204 0.946 . S
H186 C206 0.953 . S
H187 C207 0.945 . S
H188 C209 0.952 . S
H189 C210 0.949 . S
H190 C212 0.950 . S
H191 C213 0.948 . S
H192 C215 0.951 . S
H193 C180 0.947 . S
H194 C182 0.952 . S
H195 C183 0.950 . S
N196 C199 1.382 . S
N196 C201 1.363 . S
N197 C199 1.371 . S
N197 C200 1.372 . S
N198 C200 1.361 . S
N198 C201 1.377 . S
C199 N196 1.382 . S
C199 N197 1.371 . S
C199 C202 1.480 . S
C200 N197 1.372 . S
C200 N198 1.361 . S
C200 C208 1.457 . S
C201 N196 1.363 . S
C201 N198 1.377 . S
C201 C214 1.479 . S
C202 C199 1.480 . S
C202 C203 1.383 . S
C202 C207 1.385 . S
C203 H184 0.947 . S
C203 C202 1.383 . S
C203 C204 1.388 . S
C204 H185 0.946 . S
C204 C203 1.388 . S
C204 C205 1.384 . S
C205 C204 1.384 . S
C205 C206 1.377 . S
C206 H186 0.953 . S
C206 C205 1.377 . S
C206 C207 1.369 . S
C207 H187 0.945 . S
C207 C202 1.385 . S
C207 C206 1.369 . S
C208 C200 1.457 . S
C208 C209 1.372 . S
C208 C213 1.364 . S
C209 H188 0.952 . S
C209 C208 1.372 . S
C209 C210 1.389 . S
C210 H189 0.949 . S
C210 C209 1.389 . S
C210 C211 1.387 . S
C211 C210 1.387 . S
C211 C212 1.372 . S
C212 H190 0.950 . S
C212 C211 1.372 . S
C212 C213 1.379 . S
C213 H191 0.948 . S
C213 C208 1.364 . S
C213 C212 1.379 . S
C214 C183 1.383 . S
C214 C201 1.479 . S
C214 C215 1.398 . S
C215 C180 1.382 . S
C215 H192 0.951 . S
C215 C214 1.398 . S
C216 C217 1.384 . S
C216 H229 0.947 . S
C216 C251 1.382 . S
C217 C216 1.384 . S
C217 C218 1.378 . S
C218 C217 1.378 . S
C218 C219 1.378 . S
C218 H230 0.952 . S
C219 C218 1.378 . S
C219 H231 0.950 . S
C219 C250 1.383 . S
H220 C239 0.947 . S
H221 C240 0.946 . S
H222 C242 0.953 . S
H223 C243 0.945 . S
H224 C245 0.952 . S
H225 C246 0.949 . S
H226 C248 0.950 . S
H227 C249 0.948 . S
H228 C251 0.951 . S
H229 C216 0.947 . S
H230 C218 0.952 . S
H231 C219 0.950 . S
N232 C235 1.382 . S
N232 C237 1.363 . S
N233 C235 1.371 . S
N233 C236 1.372 . S
N234 C236 1.361 . S
N234 C237 1.377 . S
C235 N232 1.382 . S
C235 N233 1.371 . S
C235 C238 1.480 . S
C236 N233 1.372 . S
C236 N234 1.361 . S
C236 C244 1.457 . S
C237 N232 1.363 . S
C237 N234 1.377 . S
C237 C250 1.479 . S
C238 C235 1.480 . S
C238 C239 1.383 . S
C238 C243 1.385 . S
C239 H220 0.947 . S
C239 C238 1.383 . S
C239 C240 1.388 . S
C240 H221 0.946 . S
C240 C239 1.388 . S
C240 C241 1.384 . S
C241 C240 1.384 . S
C241 C242 1.377 . S
C242 H222 0.953 . S
C242 C241 1.377 . S
C242 C243 1.369 . S
C243 H223 0.945 . S
C243 C238 1.385 . S
C243 C242 1.369 . S
C244 C236 1.457 . S
C244 C245 1.372 . S
C244 C249 1.364 . S
C245 H224 0.952 . S
C245 C244 1.372 . S
C245 C246 1.389 . S
C246 H225 0.949 . S
C246 C245 1.389 . S
C246 C247 1.387 . S
C247 C246 1.387 . S
C247 C248 1.372 . S
C248 H226 0.950 . S
C248 C247 1.372 . S
C248 C249 1.379 . S
C249 H227 0.948 . S
C249 C244 1.364 . S
C249 C248 1.379 . S
C250 C219 1.383 . S
C250 C237 1.479 . S
C250 C251 1.398 . S
C251 C216 1.382 . S
C251 H228 0.951 . S
C251 C250 1.398 . S
C252 C253 1.384 . S
C252 H265 0.947 . S
C252 C287 1.382 . S
C253 C252 1.384 . S
C253 C254 1.378 . S
C254 C253 1.378 . S
C254 C255 1.378 . S
C254 H266 0.952 . S
C255 C254 1.378 . S
C255 H267 0.950 . S
C255 C286 1.383 . S
H256 C275 0.947 . S
H257 C276 0.946 . S
H258 C278 0.953 . S
H259 C279 0.945 . S
H260 C281 0.952 . S
H261 C282 0.949 . S
H262 C284 0.950 . S
H263 C285 0.948 . S
H264 C287 0.951 . S
H265 C252 0.947 . S
H266 C254 0.952 . S
H267 C255 0.950 . S
N268 C271 1.382 . S
N268 C273 1.363 . S
N269 C271 1.371 . S
N269 C272 1.372 . S
N270 C272 1.361 . S
N270 C273 1.377 . S
C271 N268 1.382 . S
C271 N269 1.371 . S
C271 C274 1.480 . S
C272 N269 1.372 . S
C272 N270 1.361 . S
C272 C280 1.457 . S
C273 N268 1.363 . S
C273 N270 1.377 . S
C273 C286 1.479 . S
C274 C271 1.480 . S
C274 C275 1.383 . S
C274 C279 1.385 . S
C275 H256 0.947 . S
C275 C274 1.383 . S
C275 C276 1.388 . S
C276 H257 0.946 . S
C276 C275 1.388 . S
C276 C277 1.384 . S
C277 C276 1.384 . S
C277 C278 1.377 . S
C278 H258 0.953 . S
C278 C277 1.377 . S
C278 C279 1.369 . S
C279 H259 0.945 . S
C279 C274 1.385 . S
C279 C278 1.369 . S
C280 C272 1.457 . S
C280 C281 1.372 . S
C280 C285 1.364 . S
C281 H260 0.952 . S
C281 C280 1.372 . S
C281 C282 1.389 . S
C282 H261 0.949 . S
C282 C281 1.389 . S
C282 C283 1.387 . S
C283 C282 1.387 . S
C283 C284 1.372 . S
C284 H262 0.950 . S
C284 C283 1.372 . S
C284 C285 1.379 . S
C285 H263 0.948 . S
C285 C280 1.364 . S
C285 C284 1.379 . S
C286 C255 1.383 . S
C286 C273 1.479 . S
C286 C287 1.398 . S
C287 C252 1.382 . S
C287 H264 0.951 . S
C287 C286 1.398 . S
C288 C290 1.422 . S
C288 C292 1.415 . S
C288 N294 1.369 . S
C289 C290 1.421 . S
C289 C291 1.417 . S
C289 C301 1.422 . S
C290 C288 1.422 . S
C290 C289 1.421 . S
C290 N300 1.359 . S
C291 C289 1.417 . S
C291 C293 1.329 . S
C291 H310 0.930 . S
C292 C288 1.415 . S
C292 C293 1.437 . S
C292 C296 1.413 . S
C293 C291 1.329 . S
C293 C292 1.437 . S
C293 H315 0.929 . S
N294 C288 1.369 . S
N294 C295 1.338 . S
N294 Gd299 2.622 . S
C295 N294 1.338 . S
C295 C297 1.378 . S
C295 H307 0.929 . S
C296 C292 1.413 . S
C296 C297 1.348 . S
C296 H312 0.931 . S
C297 C295 1.378 . S
C297 C296 1.348 . S
C297 H313 0.930 . S
Gd298 N318 2.622 . S
Gd298 N325 2.570 . S
Gd298 O332 2.353 . S
Gd298 O333 2.468 . S
Gd298 O334 2.427 . S
Gd298 O336 2.388 . S
Gd298 O337 2.386 . S
Gd298 O341 2.313 . S
Gd298 C351 2.805 . S
Gd299 N294 2.622 . S
Gd299 N300 2.570 . S
Gd299 O331 2.386 . S
Gd299 O335 2.307 1_655 S
Gd299 O338 2.340 1_655 S
Gd299 O339 2.468 . S
Gd299 O340 2.427 . S
Gd299 O342 2.388 . S
Gd299 C363 2.805 . S
N300 C290 1.359 . S
N300 Gd299 2.570 . S
N300 C302 1.343 . S
C301 C289 1.422 . S
C301 C303 1.321 . S
C301 H309 0.931 . S
C302 N300 1.343 . S
C302 C303 1.390 . S
C302 H304 0.931 . S
C303 C301 1.321 . S
C303 C302 1.390 . S
C303 H305 0.930 . S
H304 C302 0.931 . S
H305 C303 0.930 . S
H306 C329 0.931 . S
H307 C295 0.929 . S
H308 C330 0.930 . S
H309 C301 0.931 . S
H310 C291 0.930 . S
H311 C320 0.929 . S
H312 C296 0.931 . S
H313 C297 0.930 . S
H314 C352 0.930 . S
H315 C293 0.929 . S
H316 C321 0.931 . S
H317 C322 0.930 . S
N318 Gd298 2.622 . S
N318 C319 1.369 . S
N318 C320 1.338 . S
C319 N318 1.369 . S
C319 C323 1.415 . S
C319 C326 1.422 . S
C320 H311 0.929 . S
C320 N318 1.338 . S
C320 C322 1.378 . S
C321 H316 0.931 . S
C321 C322 1.348 . S
C321 C323 1.413 . S
C322 H317 0.930 . S
C322 C320 1.378 . S
C322 C321 1.348 . S
C323 C319 1.415 . S
C323 C321 1.413 . S
C323 C353 1.437 . S
H324 C353 0.929 . S
N325 Gd298 2.570 . S
N325 C326 1.359 . S
N325 C329 1.343 . S
C326 C319 1.422 . S
C326 N325 1.359 . S
C326 C328 1.421 . S
C327 C328 1.422 . S
C327 C330 1.321 . S
C327 H354 0.931 . S
C328 C326 1.421 . S
C328 C327 1.422 . S
C328 C352 1.417 . S
C329 H306 0.931 . S
C329 N325 1.343 . S
C329 C330 1.390 . S
C330 H308 0.930 . S
C330 C327 1.321 . S
C330 C329 1.390 . S
O331 Gd299 2.386 . S
O331 C343 1.265 . S
O332 Gd298 2.353 . S
O332 C343 1.242 1_455 S
O333 Gd298 2.468 . S
O333 C351 1.263 . S
O334 Gd298 2.427 . S
O334 C351 1.252 . S
O335 Gd299 2.307 1_455 S
O335 C344 1.261 . S
O336 Gd298 2.388 . S
O336 C344 1.252 . S
O337 Gd298 2.386 . S
O337 C355 1.265 . S
O338 Gd299 2.340 1_455 S
O338 C355 1.258 . S
O339 Gd299 2.468 . S
O339 C363 1.263 . S
O340 Gd299 2.427 . S
O340 C363 1.252 . S
O341 Gd298 2.313 . S
O341 C356 1.254 1_455 S
O342 Gd299 2.388 . S
O342 C356 1.252 . S
C343 O331 1.265 . S
C343 O332 1.242 1_655 S
C344 O335 1.261 . S
C344 O336 1.252 . S
C345 C348 1.394 . S
C345 C350 1.370 . S
C345 C351 1.500 . S
C346 C349 1.383 . S
C346 C350 1.395 . S
C347 C348 1.396 . S
C347 C349 1.365 . S
C347 H364 0.929 . S
C348 C345 1.394 . S
C348 C347 1.396 . S
C348 H365 0.930 . S
C349 C346 1.383 . S
C349 C347 1.365 . S
C349 H366 0.931 . S
C350 C345 1.370 . S
C350 C346 1.395 . S
C350 H367 0.930 . S
C351 Gd298 2.805 . S
C351 O333 1.263 . S
C351 O334 1.252 . S
C351 C345 1.500 . S
C352 H314 0.930 . S
C352 C328 1.417 . S
C352 C353 1.329 . S
C353 C323 1.437 . S
C353 H324 0.929 . S
C353 C352 1.329 . S
H354 C327 0.931 . S
C355 O337 1.265 . S
C355 O338 1.258 . S
C356 O341 1.254 1_655 S
C356 O342 1.252 . S
C357 C360 1.394 . S
C357 C362 1.370 . S
C357 C363 1.500 . S
C358 C361 1.383 . S
C358 C362 1.395 . S
C359 C360 1.396 . S
C359 C361 1.365 . S
C359 H368 0.929 . S
C360 C357 1.394 . S
C360 C359 1.396 . S
C360 H369 0.930 . S
C361 C358 1.383 . S
C361 C359 1.365 . S
C361 H370 0.931 . S
C362 C357 1.370 . S
C362 C358 1.395 . S
C362 H371 0.930 . S
C363 Gd299 2.805 . S
C363 O339 1.263 . S
C363 O340 1.252 . S
C363 C357 1.500 . S
H364 C347 0.929 . S
H365 C348 0.930 . S
H366 C349 0.931 . S
H367 C350 0.930 . S
H368 C359 0.929 . S
H369 C360 0.930 . S
H370 C361 0.931 . S
H371 C362 0.930 . S
C372 C374 1.422 . S
C372 C376 1.415 . S
C372 N378 1.369 . S
C373 C374 1.421 . S
C373 C375 1.417 . S
C373 C385 1.422 . S
C374 C372 1.422 . S
C374 C373 1.421 . S
C374 N384 1.359 . S
C375 C373 1.417 . S
C375 C377 1.329 . S
C375 H394 0.930 . S
C376 C372 1.415 . S
C376 C377 1.437 . S
C376 C380 1.413 . S
C377 C375 1.329 . S
C377 C376 1.437 . S
C377 H399 0.929 . S
N378 C372 1.369 . S
N378 C379 1.338 . S
N378 Gd383 2.622 . S
C379 N378 1.338 . S
C379 C381 1.378 . S
C379 H391 0.929 . S
C380 C376 1.413 . S
C380 C381 1.348 . S
C380 H396 0.931 . S
C381 C379 1.378 . S
C381 C380 1.348 . S
C381 H397 0.930 . S
Gd382 N402 2.622 . S
Gd382 N409 2.570 . S
Gd382 O416 2.353 . S
Gd382 O417 2.468 . S
Gd382 O418 2.427 . S
Gd382 O420 2.388 . S
Gd382 O421 2.386 . S
Gd382 O425 2.307 . S
Gd382 C435 2.805 . S
Gd383 N378 2.622 . S
Gd383 N384 2.570 . S
Gd383 O415 2.386 . S
Gd383 O419 2.307 . S
Gd383 O422 2.353 . S
Gd383 O423 2.468 . S
Gd383 O424 2.427 . S
Gd383 O426 2.388 . S
Gd383 C447 2.805 . S
N384 C374 1.359 . S
N384 Gd383 2.570 . S
N384 C386 1.343 . S
C385 C373 1.422 . S
C385 C387 1.321 . S
C385 H393 0.931 . S
C386 N384 1.343 . S
C386 C387 1.390 . S
C386 H388 0.931 . S
C387 C385 1.321 . S
C387 C386 1.390 . S
C387 H389 0.930 . S
H388 C386 0.931 . S
H389 C387 0.930 . S
H390 C413 0.931 . S
H391 C379 0.929 . S
H392 C414 0.930 . S
H393 C385 0.931 . S
H394 C375 0.930 . S
H395 C404 0.929 . S
H396 C380 0.931 . S
H397 C381 0.930 . S
H398 C436 0.930 . S
H399 C377 0.929 . S
H400 C405 0.931 . S
H401 C406 0.930 . S
N402 Gd382 2.622 . S
N402 C403 1.369 . S
N402 C404 1.338 . S
C403 N402 1.369 . S
C403 C407 1.415 . S
C403 C410 1.422 . S
C404 H395 0.929 . S
C404 N402 1.338 . S
C404 C406 1.378 . S
C405 H400 0.931 . S
C405 C406 1.348 . S
C405 C407 1.413 . S
C406 H401 0.930 . S
C406 C404 1.378 . S
C406 C405 1.348 . S
C407 C403 1.415 . S
C407 C405 1.413 . S
C407 C437 1.437 . S
H408 C437 0.929 . S
N409 Gd382 2.570 . S
N409 C410 1.359 . S
N409 C413 1.343 . S
C410 C403 1.422 . S
C410 N409 1.359 . S
C410 C412 1.421 . S
C411 C412 1.422 . S
C411 C414 1.321 . S
C411 H438 0.931 . S
C412 C410 1.421 . S
C412 C411 1.422 . S
C412 C436 1.417 . S
C413 H390 0.931 . S
C413 N409 1.343 . S
C413 C414 1.390 . S
C414 H392 0.930 . S
C414 C411 1.321 . S
C414 C413 1.390 . S
O415 Gd383 2.386 . S
O415 C427 1.265 . S
O416 Gd382 2.353 . S
O416 C427 1.242 . S
O417 Gd382 2.468 . S
O417 C435 1.263 . S
O418 Gd382 2.427 . S
O418 C435 1.252 . S
O419 Gd383 2.307 . S
O419 C428 1.261 . S
O420 Gd382 2.388 . S
O420 C428 1.252 . S
O421 Gd382 2.386 . S
O421 C439 1.265 . S
O422 Gd383 2.353 . S
O422 C439 1.242 . S
O423 Gd383 2.468 . S
O423 C447 1.263 . S
O424 Gd383 2.427 . S
O424 C447 1.252 . S
O425 Gd382 2.307 . S
O425 C440 1.261 . S
O426 Gd383 2.388 . S
O426 C440 1.252 . S
C427 O415 1.265 . S
C427 O416 1.242 . S
C428 O419 1.261 . S
C428 O420 1.252 . S
C429 C432 1.394 . S
C429 C434 1.370 . S
C429 C435 1.500 . S
C430 C433 1.383 . S
C430 C434 1.395 . S
C431 C432 1.396 . S
C431 C433 1.365 . S
C431 H448 0.929 . S
C432 C429 1.394 . S
C432 C431 1.396 . S
C432 H449 0.930 . S
C433 C430 1.383 . S
C433 C431 1.365 . S
C433 H450 0.931 . S
C434 C429 1.370 . S
C434 C430 1.395 . S
C434 H451 0.930 . S
C435 Gd382 2.805 . S
C435 O417 1.263 . S
C435 O418 1.252 . S
C435 C429 1.500 . S
C436 H398 0.930 . S
C436 C412 1.417 . S
C436 C437 1.329 . S
C437 C407 1.437 . S
C437 H408 0.929 . S
C437 C436 1.329 . S
H438 C411 0.931 . S
C439 O421 1.265 . S
C439 O422 1.242 . S
C440 O425 1.261 . S
C440 O426 1.252 . S
C441 C444 1.394 . S
C441 C446 1.370 . S
C441 C447 1.500 . S
C442 C445 1.383 . S
C442 C446 1.395 . S
C443 C444 1.396 . S
C443 C445 1.365 . S
C443 H452 0.929 . S
C444 C441 1.394 . S
C444 C443 1.396 . S
C444 H453 0.930 . S
C445 C442 1.383 . S
C445 C443 1.365 . S
C445 H454 0.931 . S
C446 C441 1.370 . S
C446 C442 1.395 . S
C446 H455 0.930 . S
C447 Gd383 2.805 . S
C447 O423 1.263 . S
C447 O424 1.252 . S
C447 C441 1.500 . S
H448 C431 0.929 . S
H449 C432 0.930 . S
H450 C433 0.931 . S
H451 C434 0.930 . S
H452 C443 0.929 . S
H453 C444 0.930 . S
H454 C445 0.931 . S
H455 C446 0.930 . S
C456 C458 1.422 . S
C456 C460 1.415 . S
C456 N462 1.369 . S
C457 C458 1.421 . S
C457 C459 1.417 . S
C457 C469 1.422 . S
C458 C456 1.422 . S
C458 C457 1.421 . S
C458 N468 1.359 . S
C459 C457 1.417 . S
C459 C461 1.329 . S
C459 H478 0.930 . S
C460 C456 1.415 . S
C460 C461 1.437 . S
C460 C464 1.413 . S
C461 C459 1.329 . S
C461 C460 1.437 . S
C461 H483 0.929 . S
N462 C456 1.369 . S
N462 C463 1.338 . S
N462 Gd467 2.622 . S
C463 N462 1.338 . S
C463 C465 1.378 . S
C463 H475 0.929 . S
C464 C460 1.413 . S
C464 C465 1.348 . S
C464 H480 0.931 . S
C465 C463 1.378 . S
C465 C464 1.348 . S
C465 H481 0.930 . S
Gd466 N486 2.622 . S
Gd466 N493 2.570 . S
Gd466 O500 2.353 . S
Gd466 O501 2.468 . S
Gd466 O502 2.427 . S
Gd466 O504 2.388 . S
Gd466 O505 2.386 . S
Gd466 O509 2.307 . S
Gd466 C519 2.805 . S
Gd467 N462 2.622 . S
Gd467 N468 2.570 . S
Gd467 O499 2.386 . S
Gd467 O503 2.307 1_655 S
Gd467 O506 2.353 1_655 S
Gd467 O507 2.468 . S
Gd467 O508 2.427 . S
Gd467 O510 2.388 . S
Gd467 C531 2.805 . S
N468 C458 1.359 . S
N468 Gd467 2.570 . S
N468 C470 1.343 . S
C469 C457 1.422 . S
C469 C471 1.321 . S
C469 H477 0.931 . S
C470 N468 1.343 . S
C470 C471 1.390 . S
C470 H472 0.931 . S
C471 C469 1.321 . S
C471 C470 1.390 . S
C471 H473 0.930 . S
H472 C470 0.931 . S
H473 C471 0.930 . S
H474 C497 0.931 . S
H475 C463 0.929 . S
H476 C498 0.930 . S
H477 C469 0.931 . S
H478 C459 0.930 . S
H479 C488 0.929 . S
H480 C464 0.931 . S
H481 C465 0.930 . S
H482 C520 0.930 . S
H483 C461 0.929 . S
H484 C489 0.931 . S
H485 C490 0.930 . S
N486 Gd466 2.622 . S
N486 C487 1.369 . S
N486 C488 1.338 . S
C487 N486 1.369 . S
C487 C491 1.415 . S
C487 C494 1.422 . S
C488 H479 0.929 . S
C488 N486 1.338 . S
C488 C490 1.378 . S
C489 H484 0.931 . S
C489 C490 1.348 . S
C489 C491 1.413 . S
C490 H485 0.930 . S
C490 C488 1.378 . S
C490 C489 1.348 . S
C491 C487 1.415 . S
C491 C489 1.413 . S
C491 C521 1.437 . S
H492 C521 0.929 . S
N493 Gd466 2.570 . S
N493 C494 1.359 . S
N493 C497 1.343 . S
C494 C487 1.422 . S
C494 N493 1.359 . S
C494 C496 1.421 . S
C495 C496 1.422 . S
C495 C498 1.321 . S
C495 H522 0.931 . S
C496 C494 1.421 . S
C496 C495 1.422 . S
C496 C520 1.417 . S
C497 H474 0.931 . S
C497 N493 1.343 . S
C497 C498 1.390 . S
C498 H476 0.930 . S
C498 C495 1.321 . S
C498 C497 1.390 . S
O499 Gd467 2.386 . S
O499 C511 1.265 . S
O500 Gd466 2.353 . S
O500 C511 1.242 1_455 S
O501 Gd466 2.468 . S
O501 C519 1.263 . S
O502 Gd466 2.427 . S
O502 C519 1.252 . S
O503 Gd467 2.307 1_455 S
O503 C512 1.261 . S
O504 Gd466 2.388 . S
O504 C512 1.252 . S
O505 Gd466 2.386 . S
O505 C523 1.265 . S
O506 Gd467 2.353 1_455 S
O506 C523 1.242 . S
O507 Gd467 2.468 . S
O507 C531 1.263 . S
O508 Gd467 2.427 . S
O508 C531 1.252 . S
O509 Gd466 2.307 . S
O509 C524 1.261 1_455 S
O510 Gd467 2.388 . S
O510 C524 1.252 . S
C511 O499 1.265 . S
C511 O500 1.242 1_655 S
C512 O503 1.261 . S
C512 O504 1.252 . S
C513 C516 1.394 . S
C513 C518 1.370 . S
C513 C519 1.500 . S
C514 C517 1.383 . S
C514 C518 1.395 . S
C515 C516 1.396 . S
C515 C517 1.365 . S
C515 H532 0.929 . S
C516 C513 1.394 . S
C516 C515 1.396 . S
C516 H533 0.930 . S
C517 C514 1.383 . S
C517 C515 1.365 . S
C517 H534 0.931 . S
C518 C513 1.370 . S
C518 C514 1.395 . S
C518 H535 0.930 . S
C519 Gd466 2.805 . S
C519 O501 1.263 . S
C519 O502 1.252 . S
C519 C513 1.500 . S
C520 H482 0.930 . S
C520 C496 1.417 . S
C520 C521 1.329 . S
C521 C491 1.437 . S
C521 H492 0.929 . S
C521 C520 1.329 . S
H522 C495 0.931 . S
C523 O505 1.265 . S
C523 O506 1.242 . S
C524 O509 1.261 1_655 S
C524 O510 1.252 . S
C525 C528 1.394 . S
C525 C530 1.370 . S
C525 C531 1.500 . S
C526 C529 1.383 . S
C526 C530 1.395 . S
C527 C528 1.396 . S
C527 C529 1.365 . S
C527 H536 0.929 . S
C528 C525 1.394 . S
C528 C527 1.396 . S
C528 H537 0.930 . S
C529 C526 1.383 . S
C529 C527 1.365 . S
C529 H538 0.931 . S
C530 C525 1.370 . S
C530 C526 1.395 . S
C530 H539 0.930 . S
C531 Gd467 2.805 . S
C531 O507 1.263 . S
C531 O508 1.252 . S
C531 C525 1.500 . S
H532 C515 0.929 . S
H533 C516 0.930 . S
H534 C517 0.931 . S
H535 C518 0.930 . S
H536 C527 0.929 . S
H537 C528 0.930 . S
H538 C529 0.931 . S
H539 C530 0.930 . S
C540 C542 1.422 . S
C540 C544 1.415 . S
C540 N546 1.369 . S
C541 C542 1.421 . S
C541 C543 1.417 . S
C541 C553 1.422 . S
C542 C540 1.422 . S
C542 C541 1.421 . S
C542 N552 1.359 . S
C543 C541 1.417 . S
C543 C545 1.329 . S
C543 H562 0.930 . S
C544 C540 1.415 . S
C544 C545 1.437 . S
C544 C548 1.413 . S
C545 C543 1.329 . S
C545 C544 1.437 . S
C545 H567 0.929 . S
N546 C540 1.369 . S
N546 C547 1.338 . S
N546 Gd551 2.622 . S
C547 N546 1.338 . S
C547 C549 1.378 . S
C547 H559 0.929 . S
C548 C544 1.413 . S
C548 C549 1.348 . S
C548 H564 0.931 . S
C549 C547 1.378 . S
C549 C548 1.348 . S
C549 H565 0.930 . S
Gd550 N570 2.622 . S
Gd550 N577 2.570 . S
Gd550 O584 2.353 . S
Gd550 O585 2.468 . S
Gd550 O586 2.427 . S
Gd550 O588 2.388 . S
Gd550 O589 2.386 . S
Gd550 O593 2.307 . S
Gd550 C603 2.805 . S
Gd551 N546 2.622 . S
Gd551 N552 2.570 . S
Gd551 O583 2.386 . S
Gd551 O587 2.307 . S
Gd551 O590 2.353 . S
Gd551 O591 2.468 . S
Gd551 O592 2.427 . S
Gd551 O594 2.388 . S
Gd551 C615 2.805 . S
N552 C542 1.359 . S
N552 Gd551 2.570 . S
N552 C554 1.343 . S
C553 C541 1.422 . S
C553 C555 1.321 . S
C553 H561 0.931 . S
C554 N552 1.343 . S
C554 C555 1.390 . S
C554 H556 0.931 . S
C555 C553 1.321 . S
C555 C554 1.390 . S
C555 H557 0.930 . S
H556 C554 0.931 . S
H557 C555 0.930 . S
H558 C581 0.931 . S
H559 C547 0.929 . S
H560 C582 0.930 . S
H561 C553 0.931 . S
H562 C543 0.930 . S
H563 C572 0.929 . S
H564 C548 0.931 . S
H565 C549 0.930 . S
H566 C604 0.930 . S
H567 C545 0.929 . S
H568 C573 0.931 . S
H569 C574 0.930 . S
N570 Gd550 2.622 . S
N570 C571 1.369 . S
N570 C572 1.338 . S
C571 N570 1.369 . S
C571 C575 1.415 . S
C571 C578 1.422 . S
C572 H563 0.929 . S
C572 N570 1.338 . S
C572 C574 1.378 . S
C573 H568 0.931 . S
C573 C574 1.348 . S
C573 C575 1.413 . S
C574 H569 0.930 . S
C574 C572 1.378 . S
C574 C573 1.348 . S
C575 C571 1.415 . S
C575 C573 1.413 . S
C575 C605 1.437 . S
H576 C605 0.929 . S
N577 Gd550 2.570 . S
N577 C578 1.359 . S
N577 C581 1.343 . S
C578 C571 1.422 . S
C578 N577 1.359 . S
C578 C580 1.421 . S
C579 C580 1.422 . S
C579 C582 1.321 . S
C579 H606 0.931 . S
C580 C578 1.421 . S
C580 C579 1.422 . S
C580 C604 1.417 . S
C581 H558 0.931 . S
C581 N577 1.343 . S
C581 C582 1.390 . S
C582 H560 0.930 . S
C582 C579 1.321 . S
C582 C581 1.390 . S
O583 Gd551 2.386 . S
O583 C595 1.265 . S
O584 Gd550 2.353 . S
O584 C595 1.242 . S
O585 Gd550 2.468 . S
O585 C603 1.263 . S
O586 Gd550 2.427 . S
O586 C603 1.252 . S
O587 Gd551 2.307 . S
O587 C596 1.261 . S
O588 Gd550 2.388 . S
O588 C596 1.252 . S
O589 Gd550 2.386 . S
O589 C607 1.265 . S
O590 Gd551 2.353 . S
O590 C607 1.242 . S
O591 Gd551 2.468 . S
O591 C615 1.263 . S
O592 Gd551 2.427 . S
O592 C615 1.252 . S
O593 Gd550 2.307 . S
O593 C608 1.261 . S
O594 Gd551 2.388 . S
O594 C608 1.252 . S
C595 O583 1.265 . S
C595 O584 1.242 . S
C596 O587 1.261 . S
C596 O588 1.252 . S
C597 C600 1.394 . S
C597 C602 1.370 . S
C597 C603 1.500 . S
C598 C601 1.383 . S
C598 C602 1.395 . S
C599 C600 1.396 . S
C599 C601 1.365 . S
C599 H616 0.929 . S
C600 C597 1.394 . S
C600 C599 1.396 . S
C600 H617 0.930 . S
C601 C598 1.383 . S
C601 C599 1.365 . S
C601 H618 0.931 . S
C602 C597 1.370 . S
C602 C598 1.395 . S
C602 H619 0.930 . S
C603 Gd550 2.805 . S
C603 O585 1.263 . S
C603 O586 1.252 . S
C603 C597 1.500 . S
C604 H566 0.930 . S
C604 C580 1.417 . S
C604 C605 1.329 . S
C605 C575 1.437 . S
C605 H576 0.929 . S
C605 C604 1.329 . S
H606 C579 0.931 . S
C607 O589 1.265 . S
C607 O590 1.242 . S
C608 O593 1.261 . S
C608 O594 1.252 . S
C609 C612 1.394 . S
C609 C614 1.370 . S
C609 C615 1.500 . S
C610 C613 1.383 . S
C610 C614 1.395 . S
C611 C612 1.396 . S
C611 C613 1.365 . S
C611 H620 0.929 . S
C612 C609 1.394 . S
C612 C611 1.396 . S
C612 H621 0.930 . S
C613 C610 1.383 . S
C613 C611 1.365 . S
C613 H622 0.931 . S
C614 C609 1.370 . S
C614 C610 1.395 . S
C614 H623 0.930 . S
C615 Gd551 2.805 . S
C615 O591 1.263 . S
C615 O592 1.252 . S
C615 C609 1.500 . S
H616 C599 0.929 . S
H617 C600 0.930 . S
H618 C601 0.931 . S
H619 C602 0.930 . S
H620 C611 0.929 . S
H621 C612 0.930 . S
H622 C613 0.931 . S
H623 C614 0.930 . S
H624 C636 0.930 . S
H625 C638 0.930 . S
H626 C639 0.930 . S
H627 C643 0.957 1_545 S
H628 C643 0.959 1_545 S
H629 C643 0.961 . S
H630 C644 0.971 . S
H631 C644 0.961 1_655 S
H632 C644 0.959 . S
H633 C647 0.929 . S
H634 C648 0.931 . S
H635 C650 0.930 . S
C636 H624 0.930 . S
C636 C637 1.399 . S
C636 C641 1.399 1_565 S
C637 C636 1.399 . S
C637 C638 1.376 1_565 S
C638 H625 0.930 . S
C638 C637 1.376 1_545 S
C638 C639 1.388 . S
C639 H626 0.930 . S
C639 C638 1.388 . S
C639 C640 1.390 . S
C640 C639 1.390 . S
C640 C641 1.394 . S
C640 C646 1.465 . S
C641 C636 1.399 1_545 S
C641 C640 1.394 . S
C641 C642 1.516 . S
C642 C641 1.516 . S
C642 C643 1.502 1_545 S
C642 C644 1.561 . S
C642 C645 1.526 . S
C643 H627 0.957 1_565 S
C643 H628 0.959 1_565 S
C643 H629 0.961 . S
C643 C642 1.502 1_565 S
C644 H630 0.971 . S
C644 H631 0.961 1_455 S
C644 H632 0.959 . S
C644 C642 1.561 . S
C645 C642 1.526 . S
C645 C646 1.396 . S
C645 C650 1.390 . S
C646 C640 1.465 . S
C646 C645 1.396 . S
C646 C647 1.399 . S
C647 H633 0.929 . S
C647 C646 1.399 . S
C647 C648 1.385 . S
C648 H634 0.931 . S
C648 C647 1.385 . S
C648 C649 1.389 . S
C649 C648 1.389 . S
C649 C650 1.387 . S
C650 H635 0.930 . S
C650 C645 1.390 . S
C650 C649 1.387 . S
H651 C663 0.930 . S
H652 C665 0.930 . S
H653 C666 0.930 . S
H654 C670 0.959 . S
H655 C670 0.959 . S
H656 C670 0.961 . S
H657 C671 0.960 . S
H658 C671 0.961 . S
H659 C671 0.959 . S
H660 C674 0.929 . S
H661 C675 0.931 . S
H662 C677 0.930 . S
C663 H651 0.930 . S
C663 C664 1.399 . S
C663 C668 1.399 . S
C664 C663 1.399 . S
C664 C665 1.376 . S
C665 H652 0.930 . S
C665 C664 1.376 . S
C665 C666 1.388 . S
C666 H653 0.930 . S
C666 C665 1.388 . S
C666 C667 1.390 . S
C667 C666 1.390 . S
C667 C668 1.394 . S
C667 C673 1.465 . S
C668 C663 1.399 . S
C668 C667 1.394 . S
C668 C669 1.516 . S
C669 C668 1.516 . S
C669 C670 1.502 . S
C669 C671 1.561 . S
C669 C672 1.526 . S
C670 H654 0.959 . S
C670 H655 0.959 . S
C670 H656 0.961 . S
C670 C669 1.502 . S
C671 H657 0.960 . S
C671 H658 0.961 . S
C671 H659 0.959 . S
C671 C669 1.561 . S
C672 C669 1.526 . S
C672 C673 1.396 . S
C672 C677 1.390 . S
C673 C667 1.465 . S
C673 C672 1.396 . S
C673 C674 1.399 . S
C674 H660 0.929 . S
C674 C673 1.399 . S
C674 C675 1.385 . S
C675 H661 0.931 . S
C675 C674 1.385 . S
C675 C676 1.389 . S
C676 C675 1.389 . S
C676 C677 1.387 . S
C677 H662 0.930 . S
C677 C672 1.390 . S
C677 C676 1.387 . S
H678 C690 0.930 . S
H679 C692 0.930 . S
H680 C693 0.930 . S
H681 C697 0.959 . S
H682 C697 0.959 . S
H683 C697 0.961 . S
H684 C698 0.960 . S
H685 C698 0.961 . S
H686 C698 0.959 . S
H687 C701 0.929 . S
H688 C702 0.931 . S
H689 C704 0.930 . S
C690 H678 0.930 . S
C690 C691 1.399 . S
C690 C695 1.399 . S
C691 C690 1.399 . S
C691 C692 1.376 . S
C692 H679 0.930 . S
C692 C691 1.376 . S
C692 C693 1.388 . S
C693 H680 0.930 . S
C693 C692 1.388 . S
C693 C694 1.390 . S
C694 C693 1.390 . S
C694 C695 1.394 . S
C694 C700 1.465 . S
C695 C690 1.399 . S
C695 C694 1.394 . S
C695 C696 1.516 . S
C696 C695 1.516 . S
C696 C697 1.502 . S
C696 C698 1.561 . S
C696 C699 1.526 . S
C697 H681 0.959 . S
C697 H682 0.959 . S
C697 H683 0.961 . S
C697 C696 1.502 . S
C698 H684 0.960 . S
C698 H685 0.961 . S
C698 H686 0.959 . S
C698 C696 1.561 . S
C699 C696 1.526 . S
C699 C700 1.396 . S
C699 C704 1.390 . S
C700 C694 1.465 . S
C700 C699 1.396 . S
C700 C701 1.399 . S
C701 H687 0.929 . S
C701 C700 1.399 . S
C701 C702 1.385 . S
C702 H688 0.931 . S
C702 C701 1.385 . S
C702 C703 1.389 . S
C703 C702 1.389 . S
C703 C704 1.387 . S
C704 H689 0.930 . S
C704 C699 1.390 . S
C704 C703 1.387 . S
H705 C717 0.920 1_565 S
H706 C719 0.930 . S
H707 C720 0.930 . S
H708 C724 0.959 . S
H709 C724 0.959 . S
H710 C724 0.961 . S
H711 C725 0.960 1_565 S
H712 C725 0.961 . S
H713 C725 0.959 . S
H714 C728 0.929 . S
H715 C729 0.938 . S
H716 C731 0.930 . S
C717 H705 0.920 1_545 S
C717 C718 1.387 1_545 S
C717 C722 1.421 . S
C718 C717 1.387 1_565 S
C718 C719 1.376 . S
C719 H706 0.930 . S
C719 C718 1.376 . S
C719 C720 1.388 1_565 S
C720 H707 0.930 . S
C720 C719 1.388 1_545 S
C720 C721 1.390 . S
C721 C720 1.390 . S
C721 C722 1.394 . S
C721 C727 1.465 . S
C722 C717 1.421 . S
C722 C721 1.394 . S
C722 C723 1.516 . S
C723 C722 1.516 . S
C723 C724 1.502 . S
C723 C725 1.561 . S
C723 C726 1.526 . S
C724 H708 0.959 . S
C724 H709 0.959 . S
C724 H710 0.961 . S
C724 C723 1.502 . S
C725 H711 0.960 1_545 S
C725 H712 0.961 . S
C725 H713 0.959 . S
C725 C723 1.561 . S
C726 C723 1.526 . S
C726 C727 1.396 . S
C726 C731 1.390 . S
C727 C721 1.465 . S
C727 C726 1.396 . S
C727 C728 1.399 . S
C728 H714 0.929 . S
C728 C727 1.399 . S
C728 C729 1.385 . S
C729 H715 0.938 . S
C729 C728 1.385 . S
C729 C730 1.389 . S
C730 C729 1.389 . S
C730 C731 1.387 . S
C731 H716 0.930 . S
C731 C726 1.390 . S
C731 C730 1.387 . S
H732 C744 0.930 . S
H733 C746 0.930 . S
H734 C747 0.930 . S
H735 C751 0.959 . S
H736 C751 0.959 . S
H737 C751 0.961 1_545 S
H738 C752 0.952 1_545 S
H739 C752 0.962 . S
H740 C752 0.962 . S
H741 C755 0.929 . S
H742 C756 0.931 . S
H743 C758 0.930 . S
C744 H732 0.930 . S
C744 C745 1.399 . S
C744 C749 1.399 1_545 S
C745 C744 1.399 . S
C745 C746 1.376 1_545 S
C746 H733 0.930 . S
C746 C745 1.376 1_565 S
C746 C747 1.388 . S
C747 H734 0.930 . S
C747 C746 1.388 . S
C747 C748 1.390 . S
C748 C747 1.390 . S
C748 C749 1.394 . S
C748 C754 1.465 . S
C749 C744 1.399 1_565 S
C749 C748 1.394 . S
C749 C750 1.516 . S
C750 C749 1.516 . S
C750 C751 1.502 . S
C750 C752 1.565 . S
C750 C753 1.526 . S
C751 H735 0.959 . S
C751 H736 0.959 . S
C751 H737 0.961 1_565 S
C751 C750 1.502 . S
C752 H738 0.952 1_565 S
C752 H739 0.962 . S
C752 H740 0.962 . S
C752 C750 1.565 . S
C753 C750 1.526 . S
C753 C754 1.396 . S
C753 C758 1.390 . S
C754 C748 1.465 . S
C754 C753 1.396 . S
C754 C755 1.399 . S
C755 H741 0.929 . S
C755 C754 1.399 . S
C755 C756 1.385 . S
C756 H742 0.931 . S
C756 C755 1.385 . S
C756 C757 1.389 . S
C757 C756 1.389 . S
C757 C758 1.387 . S
C758 H743 0.930 . S
C758 C753 1.390 . S
C758 C757 1.387 . S
H759 C771 0.930 . S
H760 C773 0.930 . S
H761 C774 0.930 . S
H762 C778 0.959 . S
H763 C778 0.959 . S
H764 C778 0.961 . S
H765 C779 0.960 . S
H766 C779 0.961 . S
H767 C779 0.959 . S
H768 C782 0.929 . S
H769 C783 0.931 . S
H770 C785 0.930 . S
C771 H759 0.930 . S
C771 C772 1.399 . S
C771 C776 1.399 . S
C772 C771 1.399 . S
C772 C773 1.376 . S
C773 H760 0.930 . S
C773 C772 1.376 . S
C773 C774 1.388 . S
C774 H761 0.930 . S
C774 C773 1.388 . S
C774 C775 1.390 . S
C775 C774 1.390 . S
C775 C776 1.394 . S
C775 C781 1.465 . S
C776 C771 1.399 . S
C776 C775 1.394 . S
C776 C777 1.516 . S
C777 C776 1.516 . S
C777 C778 1.502 . S
C777 C779 1.561 . S
C777 C780 1.526 . S
C778 H762 0.959 . S
C778 H763 0.959 . S
C778 H764 0.961 . S
C778 C777 1.502 . S
C779 H765 0.960 . S
C779 H766 0.961 . S
C779 H767 0.959 . S
C779 C777 1.561 . S
C780 C777 1.526 . S
C780 C781 1.396 . S
C780 C785 1.390 . S
C781 C775 1.465 . S
C781 C780 1.396 . S
C781 C782 1.399 . S
C782 H768 0.929 . S
C782 C781 1.399 . S
C782 C783 1.385 . S
C783 H769 0.931 . S
C783 C782 1.385 . S
C783 C784 1.389 . S
C784 C783 1.389 . S
C784 C785 1.387 . S
C785 H770 0.930 . S
C785 C780 1.390 . S
C785 C784 1.387 . S
H786 C798 0.930 . S
H787 C800 0.930 . S
H788 C801 0.930 . S
H789 C805 0.959 . S
H790 C805 0.959 . S
H791 C805 0.961 . S
H792 C806 0.960 . S
H793 C806 0.961 . S
H794 C806 0.959 . S
H795 C809 0.929 . S
H796 C810 0.931 . S
H797 C812 0.930 . S
C798 H786 0.930 . S
C798 C799 1.399 . S
C798 C803 1.399 . S
C799 C798 1.399 . S
C799 C800 1.376 . S
C800 H787 0.930 . S
C800 C799 1.376 . S
C800 C801 1.388 . S
C801 H788 0.930 . S
C801 C800 1.388 . S
C801 C802 1.390 . S
C802 C801 1.390 . S
C802 C803 1.394 . S
C802 C808 1.465 . S
C803 C798 1.399 . S
C803 C802 1.394 . S
C803 C804 1.516 . S
C804 C803 1.516 . S
C804 C805 1.502 . S
C804 C806 1.561 . S
C804 C807 1.526 . S
C805 H789 0.959 . S
C805 H790 0.959 . S
C805 H791 0.961 . S
C805 C804 1.502 . S
C806 H792 0.960 . S
C806 H793 0.961 . S
C806 H794 0.959 . S
C806 C804 1.561 . S
C807 C804 1.526 . S
C807 C808 1.396 . S
C807 C812 1.390 . S
C808 C802 1.465 . S
C808 C807 1.396 . S
C808 C809 1.399 . S
C809 H795 0.929 . S
C809 C808 1.399 . S
C809 C810 1.385 . S
C810 H796 0.931 . S
C810 C809 1.385 . S
C810 C811 1.389 . S
C811 C810 1.389 . S
C811 C812 1.387 . S
C812 H797 0.930 . S
C812 C807 1.390 . S
C812 C811 1.387 . S
H813 C825 0.930 . S
H814 C827 0.930 . S
H815 C828 0.930 . S
H816 C832 0.959 1_565 S
H817 C832 0.959 1_565 S
H818 C832 0.961 . S
H819 C833 0.960 . S
H820 C833 0.961 . S
H821 C833 0.959 . S
H822 C836 0.929 . S
H823 C837 0.931 . S
H824 C839 0.930 . S
C825 H813 0.930 . S
C825 C826 1.399 . S
C825 C830 1.399 1_545 S
C826 C825 1.399 . S
C826 C827 1.376 1_545 S
C827 H814 0.930 . S
C827 C826 1.376 1_565 S
C827 C828 1.388 . S
C828 H815 0.930 . S
C828 C827 1.388 . S
C828 C829 1.390 . S
C829 C828 1.390 . S
C829 C830 1.394 . S
C829 C835 1.465 . S
C830 C825 1.399 1_565 S
C830 C829 1.394 . S
C830 C831 1.516 . S
C831 C830 1.516 . S
C831 C832 1.502 1_565 S
C831 C833 1.561 . S
C831 C834 1.526 . S
C832 H816 0.959 1_545 S
C832 H817 0.959 1_545 S
C832 H818 0.961 . S
C832 C831 1.502 1_545 S
C833 H819 0.960 . S
C833 H820 0.961 . S
C833 H821 0.959 . S
C833 C831 1.561 . S
C834 C831 1.526 . S
C834 C835 1.396 . S
C834 C839 1.390 . S
C835 C829 1.465 . S
C835 C834 1.396 . S
C835 C836 1.399 . S
C836 H822 0.929 . S
C836 C835 1.399 . S
C836 C837 1.385 . S
C837 H823 0.931 . S
C837 C836 1.385 . S
C837 C838 1.389 . S
C838 C837 1.389 . S
C838 C839 1.387 . S
C839 H824 0.930 . S
C839 C834 1.390 . S
C839 C838 1.387 . S
H840 C852 0.930 . S
H841 C854 0.930 . S
H842 C855 0.930 . S
H843 C859 0.959 . S
H844 C859 0.959 . S
H845 C859 0.961 . S
H846 C860 0.960 . S
H847 C860 0.961 . S
H848 C860 0.959 . S
H849 C863 0.929 . S
H850 C864 0.931 . S
H851 C866 0.930 . S
C852 H840 0.930 . S
C852 C853 1.399 . S
C852 C857 1.399 . S
C853 C852 1.399 . S
C853 C854 1.376 . S
C854 H841 0.930 . S
C854 C853 1.376 . S
C854 C855 1.388 . S
C855 H842 0.930 . S
C855 C854 1.388 . S
C855 C856 1.390 . S
C856 C855 1.390 . S
C856 C857 1.394 . S
C856 C862 1.465 . S
C857 C852 1.399 . S
C857 C856 1.394 . S
C857 C858 1.516 . S
C858 C857 1.516 . S
C858 C859 1.502 . S
C858 C860 1.561 . S
C858 C861 1.526 . S
C859 H843 0.959 . S
C859 H844 0.959 . S
C859 H845 0.961 . S
C859 C858 1.502 . S
C860 H846 0.960 . S
C860 H847 0.961 . S
C860 H848 0.959 . S
C860 C858 1.561 . S
C861 C858 1.526 . S
C861 C862 1.396 . S
C861 C866 1.390 . S
C862 C856 1.465 . S
C862 C861 1.396 . S
C862 C863 1.399 . S
C863 H849 0.929 . S
C863 C862 1.399 . S
C863 C864 1.385 . S
C864 H850 0.931 . S
C864 C863 1.385 . S
C864 C865 1.389 . S
C865 C864 1.389 . S
C865 C866 1.387 . S
C866 H851 0.930 . S
C866 C861 1.390 . S
C866 C865 1.387 . S
H867 C879 0.930 . S
H868 C881 0.930 . S
H869 C882 0.930 . S
H870 C886 0.959 . S
H871 C886 0.959 . S
H872 C886 0.961 . S
H873 C887 0.960 . S
H874 C887 0.961 . S
H875 C887 0.959 . S
H876 C890 0.929 . S
H877 C891 0.931 . S
H878 C893 0.930 . S
C879 H867 0.930 . S
C879 C880 1.399 . S
C879 C884 1.399 . S
C880 C879 1.399 . S
C880 C881 1.376 . S
C881 H868 0.930 . S
C881 C880 1.376 . S
C881 C882 1.388 . S
C882 H869 0.930 . S
C882 C881 1.388 . S
C882 C883 1.390 . S
C883 C882 1.390 . S
C883 C884 1.394 . S
C883 C889 1.465 . S
C884 C879 1.399 . S
C884 C883 1.394 . S
C884 C885 1.516 . S
C885 C884 1.516 . S
C885 C886 1.502 . S
C885 C887 1.561 . S
C885 C888 1.526 . S
C886 H870 0.959 . S
C886 H871 0.959 . S
C886 H872 0.961 . S
C886 C885 1.502 . S
C887 H873 0.960 . S
C887 H874 0.961 . S
C887 H875 0.959 . S
C887 C885 1.561 . S
C888 C885 1.526 . S
C888 C889 1.396 . S
C888 C893 1.390 . S
C889 C883 1.465 . S
C889 C888 1.396 . S
C889 C890 1.399 . S
C890 H876 0.929 . S
C890 C889 1.399 . S
C890 C891 1.385 . S
C891 H877 0.931 . S
C891 C890 1.385 . S
C891 C892 1.389 . S
C892 C891 1.389 . S
C892 C893 1.387 . S
C893 H878 0.930 . S
C893 C888 1.390 . S
C893 C892 1.387 . S
H894 C906 0.930 . S
H895 C908 0.930 . S
H896 C909 0.930 . S
H897 C913 0.959 . S
H898 C913 0.959 . S
H899 C913 0.961 . S
H900 C914 0.960 . S
H901 C914 0.961 . S
H902 C914 0.959 . S
H903 C917 0.929 . S
H904 C918 0.931 . S
H905 C920 0.930 . S
C906 H894 0.930 . S
C906 C907 1.399 . S
C906 C911 1.399 . S
C907 C906 1.399 . S
C907 C908 1.376 . S
C908 H895 0.930 . S
C908 C907 1.376 . S
C908 C909 1.388 . S
C909 H896 0.930 . S
C909 C908 1.388 . S
C909 C910 1.390 . S
C910 C909 1.390 . S
C910 C911 1.394 . S
C910 C916 1.465 . S
C911 C906 1.399 . S
C911 C910 1.394 . S
C911 C912 1.516 . S
C912 C911 1.516 . S
C912 C913 1.502 . S
C912 C914 1.561 . S
C912 C915 1.526 . S
C913 H897 0.959 . S
C913 H898 0.959 . S
C913 H899 0.961 . S
C913 C912 1.502 . S
C914 H900 0.960 . S
C914 H901 0.961 . S
C914 H902 0.959 . S
C914 C912 1.561 . S
C915 C912 1.526 . S
C915 C916 1.396 . S
C915 C920 1.390 . S
C916 C910 1.465 . S
C916 C915 1.396 . S
C916 C917 1.399 . S
C917 H903 0.929 . S
C917 C916 1.399 . S
C917 C918 1.385 . S
C918 H904 0.931 . S
C918 C917 1.385 . S
C918 C919 1.389 . S
C919 C918 1.389 . S
C919 C920 1.387 . S
C920 H905 0.930 . S
C920 C915 1.390 . S
C920 C919 1.387 . S
H921 C933 0.930 . S
H922 C935 0.930 . S
H923 C936 0.930 . S
H924 C940 0.959 . S
H925 C940 0.959 . S
H926 C940 0.961 . S
H927 C941 0.960 . S
H928 C941 0.961 . S
H929 C941 0.959 . S
H930 C944 0.929 . S
H931 C945 0.931 . S
H932 C947 0.930 . S
C933 H921 0.930 . S
C933 C934 1.399 . S
C933 C938 1.399 . S
C934 C933 1.399 . S
C934 C935 1.376 . S
C935 H922 0.930 . S
C935 C934 1.376 . S
C935 C936 1.388 . S
C936 H923 0.930 . S
C936 C935 1.388 . S
C936 C937 1.390 . S
C937 C936 1.390 . S
C937 C938 1.394 . S
C937 C943 1.465 . S
C938 C933 1.399 . S
C938 C937 1.394 . S
C938 C939 1.516 . S
C939 C938 1.516 . S
C939 C940 1.502 . S
C939 C941 1.561 . S
C939 C942 1.526 . S
C940 H924 0.959 . S
C940 H925 0.959 . S
C940 H926 0.961 . S
C940 C939 1.502 . S
C941 H927 0.960 . S
C941 H928 0.961 . S
C941 H929 0.959 . S
C941 C939 1.561 . S
C942 C939 1.526 . S
C942 C943 1.396 . S
C942 C947 1.390 . S
C943 C937 1.465 . S
C943 C942 1.396 . S
C943 C944 1.399 . S
C944 H930 0.929 . S
C944 C943 1.399 . S
C944 C945 1.385 . S
C945 H931 0.931 . S
C945 C944 1.385 . S
C945 C946 1.389 . S
C946 C945 1.389 . S
C946 C947 1.387 . S
C947 H932 0.930 . S
C947 C942 1.390 . S
C947 C946 1.387 . S
H948 C960 0.930 . S
H949 C962 0.930 . S
H950 C963 0.930 . S
H951 C967 0.959 . S
H952 C967 0.959 . S
H953 C967 0.961 . S
H954 C968 0.960 . S
H955 C968 0.961 . S
H956 C968 0.959 . S
H957 C971 0.929 . S
H958 C972 0.931 . S
H959 C974 0.930 . S
C960 H948 0.930 . S
C960 C961 1.399 . S
C960 C965 1.399 . S
C961 C960 1.399 . S
C961 C962 1.376 . S
C962 H949 0.930 . S
C962 C961 1.376 . S
C962 C963 1.388 . S
C963 H950 0.930 . S
C963 C962 1.388 . S
C963 C964 1.390 . S
C964 C963 1.390 . S
C964 C965 1.394 . S
C964 C970 1.465 . S
C965 C960 1.399 . S
C965 C964 1.394 . S
C965 C966 1.516 . S
C966 C965 1.516 . S
C966 C967 1.502 . S
C966 C968 1.561 . S
C966 C969 1.526 . S
C967 H951 0.959 . S
C967 H952 0.959 . S
C967 H953 0.961 . S
C967 C966 1.502 . S
C968 H954 0.960 . S
C968 H955 0.961 . S
C968 H956 0.959 . S
C968 C966 1.561 . S
C969 C966 1.526 . S
C969 C970 1.396 . S
C969 C974 1.390 . S
C970 C964 1.465 . S
C970 C969 1.396 . S
C970 C971 1.399 . S
C971 H957 0.929 . S
C971 C970 1.399 . S
C971 C972 1.385 . S
C972 H958 0.931 . S
C972 C971 1.385 . S
C972 C973 1.389 . S
C973 C972 1.389 . S
C973 C974 1.387 . S
C974 H959 0.930 . S
C974 C969 1.390 . S
C974 C973 1.387 . S
H975 C987 0.930 . S
H976 C989 0.930 . S
H977 C990 0.930 . S
H978 C994 0.959 . S
H979 C994 0.959 . S
H980 C994 0.961 . S
H981 C995 0.960 . S
H982 C995 0.961 . S
H983 C995 0.959 . S
H984 C998 0.929 . S
H985 C999 0.931 . S
H986 C1001 0.930 . S
C987 H975 0.930 . S
C987 C988 1.399 . S
C987 C992 1.399 . S
C988 C987 1.399 . S
C988 C989 1.376 . S
C989 H976 0.930 . S
C989 C988 1.376 . S
C989 C990 1.388 . S
C990 H977 0.930 . S
C990 C989 1.388 . S
C990 C991 1.390 . S
C991 C990 1.390 . S
C991 C992 1.394 . S
C991 C997 1.465 . S
C992 C987 1.399 . S
C992 C991 1.394 . S
C992 C993 1.516 . S
C993 C992 1.516 . S
C993 C994 1.502 . S
C993 C995 1.561 . S
C993 C996 1.526 . S
C994 H978 0.959 . S
C994 H979 0.959 . S
C994 H980 0.961 . S
C994 C993 1.502 . S
C995 H981 0.960 . S
C995 H982 0.961 . S
C995 H983 0.959 . S
C995 C993 1.561 . S
C996 C993 1.526 . S
C996 C997 1.396 . S
C996 C1001 1.390 . S
C997 C991 1.465 . S
C997 C996 1.396 . S
C997 C998 1.399 . S
C998 H984 0.929 . S
C998 C997 1.399 . S
C998 C999 1.385 . S
C999 H985 0.931 . S
C999 C998 1.385 . S
C999 C1000 1.389 . S
C1000 C999 1.389 . S
C1000 C1001 1.387 . S
C1001 H986 0.930 . S
C1001 C996 1.390 . S
C1001 C1000 1.387 . S
H1002 C1014 0.930 . S
H1003 C1016 0.930 . S
H1004 C1017 0.930 . S
H1005 C1021 0.959 . S
H1006 C1021 0.959 . S
H1007 C1021 0.961 . S
H1008 C1022 0.960 . S
H1009 C1022 0.961 . S
H1010 C1022 0.959 . S
H1011 C1025 0.929 . S
H1012 C1026 0.931 . S
H1013 C1028 0.930 . S
C1014 H1002 0.930 . S
C1014 C1015 1.399 . S
C1014 C1019 1.399 . S
C1015 C1014 1.399 . S
C1015 C1016 1.376 . S
C1016 H1003 0.930 . S
C1016 C1015 1.376 . S
C1016 C1017 1.388 . S
C1017 H1004 0.930 . S
C1017 C1016 1.388 . S
C1017 C1018 1.390 . S
C1018 C1017 1.390 . S
C1018 C1019 1.394 . S
C1018 C1024 1.465 . S
C1019 C1014 1.399 . S
C1019 C1018 1.394 . S
C1019 C1020 1.516 . S
C1020 C1019 1.516 . S
C1020 C1021 1.502 . S
C1020 C1022 1.561 . S
C1020 C1023 1.526 . S
C1021 H1005 0.959 . S
C1021 H1006 0.959 . S
C1021 H1007 0.961 . S
C1021 C1020 1.502 . S
C1022 H1008 0.960 . S
C1022 H1009 0.961 . S
C1022 H1010 0.959 . S
C1022 C1020 1.561 . S
C1023 C1020 1.526 . S
C1023 C1024 1.396 . S
C1023 C1028 1.390 . S
C1024 C1018 1.465 . S
C1024 C1023 1.396 . S
C1024 C1025 1.399 . S
C1025 H1011 0.929 . S
C1025 C1024 1.399 . S
C1025 C1026 1.385 . S
C1026 H1012 0.931 . S
C1026 C1025 1.385 . S
C1026 C1027 1.389 . S
C1027 C1026 1.389 . S
C1027 C1028 1.387 . S
C1028 H1013 0.930 . S
C1028 C1023 1.390 . S
C1028 C1027 1.387 . S
H1029 C1041 0.930 . S
H1030 C1043 0.930 . S
H1031 C1044 0.930 . S
H1032 C1048 0.959 . S
H1033 C1048 0.959 . S
H1034 C1048 0.961 . S
H1035 C1049 0.960 . S
H1036 C1049 0.961 . S
H1037 C1049 0.959 . S
H1038 C1052 0.929 . S
H1039 C1053 0.931 . S
H1040 C1055 0.930 . S
C1041 H1029 0.930 . S
C1041 C1042 1.399 . S
C1041 C1046 1.399 . S
C1042 C1041 1.399 . S
C1042 C1043 1.376 . S
C1043 H1030 0.930 . S
C1043 C1042 1.376 . S
C1043 C1044 1.388 . S
C1044 H1031 0.930 . S
C1044 C1043 1.388 . S
C1044 C1045 1.390 . S
C1045 C1044 1.390 . S
C1045 C1046 1.394 . S
C1045 C1051 1.465 . S
C1046 C1041 1.399 . S
C1046 C1045 1.394 . S
C1046 C1047 1.516 . S
C1047 C1046 1.516 . S
C1047 C1048 1.502 . S
C1047 C1049 1.561 . S
C1047 C1050 1.526 . S
C1048 H1032 0.959 . S
C1048 H1033 0.959 . S
C1048 H1034 0.961 . S
C1048 C1047 1.502 . S
C1049 H1035 0.960 . S
C1049 H1036 0.961 . S
C1049 H1037 0.959 . S
C1049 C1047 1.561 . S
C1050 C1047 1.526 . S
C1050 C1051 1.396 . S
C1050 C1055 1.390 . S
C1051 C1045 1.465 . S
C1051 C1050 1.396 . S
C1051 C1052 1.399 . S
C1052 H1038 0.929 . S
C1052 C1051 1.399 . S
C1052 C1053 1.385 . S
C1053 H1039 0.931 . S
C1053 C1052 1.385 . S
C1053 C1054 1.389 . S
C1054 C1053 1.389 . S
C1054 C1055 1.387 . S
C1055 H1040 0.930 . S
C1055 C1050 1.390 . S
C1055 C1054 1.387 . S
H1056 C1068 0.930 . S
H1057 C1070 0.930 . S
H1058 C1071 0.930 . S
H1059 C1075 0.959 . S
H1060 C1075 0.959 . S
H1061 C1075 0.961 . S
H1062 C1076 0.960 . S
H1063 C1076 0.961 . S
H1064 C1076 0.959 . S
H1065 C1079 0.929 . S
H1066 C1080 0.938 . S
H1067 C1082 0.930 . S
C1068 H1056 0.930 . S
C1068 C1069 1.399 . S
C1068 C1073 1.399 . S
C1069 C1068 1.399 . S
C1069 C1070 1.376 . S
C1070 H1057 0.930 . S
C1070 C1069 1.376 . S
C1070 C1071 1.388 . S
C1071 H1058 0.930 . S
C1071 C1070 1.388 . S
C1071 C1072 1.390 . S
C1072 C1071 1.390 . S
C1072 C1073 1.394 . S
C1072 C1078 1.465 . S
C1073 C1068 1.399 . S
C1073 C1072 1.394 . S
C1073 C1074 1.516 . S
C1074 C1073 1.516 . S
C1074 C1075 1.502 . S
C1074 C1076 1.561 . S
C1074 C1077 1.526 . S
C1075 H1059 0.959 . S
C1075 H1060 0.959 . S
C1075 H1061 0.961 . S
C1075 C1074 1.502 . S
C1076 H1062 0.960 . S
C1076 H1063 0.961 . S
C1076 H1064 0.959 . S
C1076 C1074 1.561 . S
C1077 C1074 1.526 . S
C1077 C1078 1.396 . S
C1077 C1082 1.390 . S
C1078 C1072 1.465 . S
C1078 C1077 1.396 . S
C1078 C1079 1.399 . S
C1079 H1065 0.929 . S
C1079 C1078 1.399 . S
C1079 C1080 1.385 . S
C1080 H1066 0.938 . S
C1080 C1079 1.385 . S
C1080 C1081 1.389 . S
C1081 C1080 1.389 . S
C1081 C1082 1.387 . S
C1082 H1067 0.930 . S
C1082 C1077 1.390 . S
C1082 C1081 1.387 . S
H1083 C1095 0.930 . S
H1084 C1097 0.930 . S
H1085 C1098 0.930 . S
H1086 C1102 0.959 . S
H1087 C1102 0.959 . S
H1088 C1102 0.961 . S
H1089 C1103 0.960 . S
H1090 C1103 0.961 . S
H1091 C1103 0.959 . S
H1092 C1106 0.929 . S
H1093 C1107 0.931 . S
H1094 C1109 0.930 . S
C1095 H1083 0.930 . S
C1095 C1096 1.399 . S
C1095 C1100 1.399 . S
C1096 C1095 1.399 . S
C1096 C1097 1.376 . S
C1097 H1084 0.930 . S
C1097 C1096 1.376 . S
C1097 C1098 1.388 . S
C1098 H1085 0.930 . S
C1098 C1097 1.388 . S
C1098 C1099 1.390 . S
C1099 C1098 1.390 . S
C1099 C1100 1.394 . S
C1099 C1105 1.465 . S
C1100 C1095 1.399 . S
C1100 C1099 1.394 . S
C1100 C1101 1.516 . S
C1101 C1100 1.516 . S
C1101 C1102 1.502 . S
C1101 C1103 1.561 . S
C1101 C1104 1.526 . S
C1102 H1086 0.959 . S
C1102 H1087 0.959 . S
C1102 H1088 0.961 . S
C1102 C1101 1.502 . S
C1103 H1089 0.960 . S
C1103 H1090 0.961 . S
C1103 H1091 0.959 . S
C1103 C1101 1.561 . S
C1104 C1101 1.526 . S
C1104 C1105 1.396 . S
C1104 C1109 1.390 . S
C1105 C1099 1.465 . S
C1105 C1104 1.396 . S
C1105 C1106 1.399 . S
C1106 H1092 0.929 . S
C1106 C1105 1.399 . S
C1106 C1107 1.385 . S
C1107 H1093 0.931 . S
C1107 C1106 1.385 . S
C1107 C1108 1.389 . S
C1108 C1107 1.389 . S
C1108 C1109 1.387 . S
C1109 H1094 0.930 . S
C1109 C1104 1.390 . S
C1109 C1108 1.387 . S
H1110 C1122 0.930 . S
H1111 C1124 0.930 . S
H1112 C1125 0.930 . S
H1113 C1129 0.959 . S
H1114 C1129 0.959 . S
H1115 C1129 0.961 . S
H1116 C1130 0.960 . S
H1117 C1130 0.961 . S
H1118 C1130 0.959 . S
H1119 C1133 0.929 . S
H1120 C1134 0.931 . S
H1121 C1136 0.930 . S
C1122 H1110 0.930 . S
C1122 C1123 1.399 . S
C1122 C1127 1.399 . S
C1123 C1122 1.399 . S
C1123 C1124 1.376 . S
C1124 H1111 0.930 . S
C1124 C1123 1.376 . S
C1124 C1125 1.388 . S
C1125 H1112 0.930 . S
C1125 C1124 1.388 . S
C1125 C1126 1.390 . S
C1126 C1125 1.390 . S
C1126 C1127 1.394 . S
C1126 C1132 1.465 . S
C1127 C1122 1.399 . S
C1127 C1126 1.394 . S
C1127 C1128 1.516 . S
C1128 C1127 1.516 . S
C1128 C1129 1.502 . S
C1128 C1130 1.561 . S
C1128 C1131 1.526 . S
C1129 H1113 0.959 . S
C1129 H1114 0.959 . S
C1129 H1115 0.961 . S
C1129 C1128 1.502 . S
C1130 H1116 0.960 . S
C1130 H1117 0.961 . S
C1130 H1118 0.959 . S
C1130 C1128 1.561 . S
C1131 C1128 1.526 . S
C1131 C1132 1.396 . S
C1131 C1136 1.390 . S
C1132 C1126 1.465 . S
C1132 C1131 1.396 . S
C1132 C1133 1.399 . S
C1133 H1119 0.929 . S
C1133 C1132 1.399 . S
C1133 C1134 1.385 . S
C1134 H1120 0.931 . S
C1134 C1133 1.385 . S
C1134 C1135 1.389 . S
C1135 C1134 1.389 . S
C1135 C1136 1.387 . S
C1136 H1121 0.930 . S
C1136 C1131 1.390 . S
C1136 C1135 1.387 . S
H1137 C1149 0.930 . S
H1138 C1151 0.930 . S
H1139 C1152 0.930 . S
H1140 C1156 0.959 . S
H1141 C1156 0.959 . S
H1142 C1156 0.961 . S
H1143 C1157 0.960 . S
H1144 C1157 0.961 . S
H1145 C1157 0.959 . S
H1146 C1160 0.929 . S
H1147 C1161 0.931 . S
H1148 C1163 0.930 . S
C1149 H1137 0.930 . S
C1149 C1150 1.399 . S
C1149 C1154 1.399 . S
C1150 C1149 1.399 . S
C1150 C1151 1.376 . S
C1151 H1138 0.930 . S
C1151 C1150 1.376 . S
C1151 C1152 1.388 . S
C1152 H1139 0.930 . S
C1152 C1151 1.388 . S
C1152 C1153 1.390 . S
C1153 C1152 1.390 . S
C1153 C1154 1.394 . S
C1153 C1159 1.465 . S
C1154 C1149 1.399 . S
C1154 C1153 1.394 . S
C1154 C1155 1.516 . S
C1155 C1154 1.516 . S
C1155 C1156 1.502 . S
C1155 C1157 1.561 . S
C1155 C1158 1.526 . S
C1156 H1140 0.959 . S
C1156 H1141 0.959 . S
C1156 H1142 0.961 . S
C1156 C1155 1.502 . S
C1157 H1143 0.960 . S
C1157 H1144 0.961 . S
C1157 H1145 0.959 . S
C1157 C1155 1.561 . S
C1158 C1155 1.526 . S
C1158 C1159 1.396 . S
C1158 C1163 1.390 . S
C1159 C1153 1.465 . S
C1159 C1158 1.396 . S
C1159 C1160 1.399 . S
C1160 H1146 0.929 . S
C1160 C1159 1.399 . S
C1160 C1161 1.385 . S
C1161 H1147 0.931 . S
C1161 C1160 1.385 . S
C1161 C1162 1.389 . S
C1162 C1161 1.389 . S
C1162 C1163 1.387 . S
C1163 H1148 0.930 . S
C1163 C1158 1.390 . S
C1163 C1162 1.387 . S
H1164 C1176 0.930 . S
H1165 C1178 0.930 . S
H1166 C1179 0.930 . S
H1167 C1183 0.959 . S
H1168 C1183 0.959 . S
H1169 C1183 0.961 . S
H1170 C1184 0.960 . S
H1171 C1184 0.961 . S
H1172 C1184 0.959 . S
H1173 C1187 0.929 . S
H1174 C1188 0.931 . S
H1175 C1190 0.930 . S
C1176 H1164 0.930 . S
C1176 C1177 1.399 . S
C1176 C1181 1.399 . S
C1177 C1176 1.399 . S
C1177 C1178 1.376 . S
C1178 H1165 0.930 . S
C1178 C1177 1.376 . S
C1178 C1179 1.388 . S
C1179 H1166 0.930 . S
C1179 C1178 1.388 . S
C1179 C1180 1.390 . S
C1180 C1179 1.390 . S
C1180 C1181 1.394 . S
C1180 C1186 1.465 . S
C1181 C1176 1.399 . S
C1181 C1180 1.394 . S
C1181 C1182 1.516 . S
C1182 C1181 1.516 . S
C1182 C1183 1.502 . S
C1182 C1184 1.561 . S
C1182 C1185 1.526 . S
C1183 H1167 0.959 . S
C1183 H1168 0.959 . S
C1183 H1169 0.961 . S
C1183 C1182 1.502 . S
C1184 H1170 0.960 . S
C1184 H1171 0.961 . S
C1184 H1172 0.959 . S
C1184 C1182 1.561 . S
C1185 C1182 1.526 . S
C1185 C1186 1.396 . S
C1185 C1190 1.390 . S
C1186 C1180 1.465 . S
C1186 C1185 1.396 . S
C1186 C1187 1.399 . S
C1187 H1173 0.929 . S
C1187 C1186 1.399 . S
C1187 C1188 1.385 . S
C1188 H1174 0.931 . S
C1188 C1187 1.385 . S
C1188 C1189 1.389 . S
C1189 C1188 1.389 . S
C1189 C1190 1.387 . S
C1190 H1175 0.930 . S
C1190 C1185 1.390 . S
C1190 C1189 1.387 . S
H1191 C1203 0.930 . S
H1192 C1205 0.930 . S
H1193 C1206 0.930 . S
H1194 C1210 0.959 . S
H1195 C1210 0.959 . S
H1196 C1210 0.961 . S
H1197 C1211 0.960 . S
H1198 C1211 0.961 . S
H1199 C1211 0.959 . S
H1200 C1214 0.929 . S
H1201 C1215 0.931 . S
H1202 C1217 0.930 . S
C1203 H1191 0.930 . S
C1203 C1204 1.399 . S
C1203 C1208 1.399 . S
C1204 C1203 1.399 . S
C1204 C1205 1.376 . S
C1205 H1192 0.930 . S
C1205 C1204 1.376 . S
C1205 C1206 1.388 . S
C1206 H1193 0.930 . S
C1206 C1205 1.388 . S
C1206 C1207 1.390 . S
C1207 C1206 1.390 . S
C1207 C1208 1.394 . S
C1207 C1213 1.465 . S
C1208 C1203 1.399 . S
C1208 C1207 1.394 . S
C1208 C1209 1.516 . S
C1209 C1208 1.516 . S
C1209 C1210 1.502 . S
C1209 C1211 1.561 . S
C1209 C1212 1.526 . S
C1210 H1194 0.959 . S
C1210 H1195 0.959 . S
C1210 H1196 0.961 . S
C1210 C1209 1.502 . S
C1211 H1197 0.960 . S
C1211 H1198 0.961 . S
C1211 H1199 0.959 . S
C1211 C1209 1.561 . S
C1212 C1209 1.526 . S
C1212 C1213 1.396 . S
C1212 C1217 1.390 . S
C1213 C1207 1.465 . S
C1213 C1212 1.396 . S
C1213 C1214 1.399 . S
C1214 H1200 0.929 . S
C1214 C1213 1.399 . S
C1214 C1215 1.385 . S
C1215 H1201 0.931 . S
C1215 C1214 1.385 . S
C1215 C1216 1.389 . S
C1216 C1215 1.389 . S
C1216 C1217 1.387 . S
C1217 H1202 0.930 . S
C1217 C1212 1.390 . S
C1217 C1216 1.387 . S
H1218 C1230 0.930 . S
H1219 C1232 0.930 . S
H1220 C1233 0.930 . S
H1221 C1237 0.959 . S
H1222 C1237 0.959 . S
H1223 C1237 0.961 . S
H1224 C1238 0.960 . S
H1225 C1238 0.961 . S
H1226 C1238 0.959 . S
H1227 C1241 0.929 . S
H1228 C1242 0.931 . S
H1229 C1244 0.930 . S
C1230 H1218 0.930 . S
C1230 C1231 1.399 . S
C1230 C1235 1.399 . S
C1231 C1230 1.399 . S
C1231 C1232 1.376 . S
C1232 H1219 0.930 . S
C1232 C1231 1.376 . S
C1232 C1233 1.388 . S
C1233 H1220 0.930 . S
C1233 C1232 1.388 . S
C1233 C1234 1.390 . S
C1234 C1233 1.390 . S
C1234 C1235 1.394 . S
C1234 C1240 1.465 . S
C1235 C1230 1.399 . S
C1235 C1234 1.394 . S
C1235 C1236 1.516 . S
C1236 C1235 1.516 . S
C1236 C1237 1.502 . S
C1236 C1238 1.561 . S
C1236 C1239 1.526 . S
C1237 H1221 0.959 . S
C1237 H1222 0.959 . S
C1237 H1223 0.961 . S
C1237 C1236 1.502 . S
C1238 H1224 0.960 . S
C1238 H1225 0.961 . S
C1238 H1226 0.959 . S
C1238 C1236 1.561 . S
C1239 C1236 1.526 . S
C1239 C1240 1.396 . S
C1239 C1244 1.390 . S
C1240 C1234 1.465 . S
C1240 C1239 1.396 . S
C1240 C1241 1.399 . S
C1241 H1227 0.929 . S
C1241 C1240 1.399 . S
C1241 C1242 1.385 . S
C1242 H1228 0.931 . S
C1242 C1241 1.385 . S
C1242 C1243 1.389 . S
C1243 C1242 1.389 . S
C1243 C1244 1.387 . S
C1244 H1229 0.930 . S
C1244 C1239 1.390 . S
C1244 C1243 1.387 . S
H1245 C1257 0.930 . S
H1246 C1259 0.930 . S
H1247 C1260 0.930 . S
H1248 C1264 0.959 . S
H1249 C1264 0.959 . S
H1250 C1264 0.961 . S
H1251 C1265 0.960 . S
H1252 C1265 0.961 . S
H1253 C1265 0.959 . S
H1254 C1268 0.929 . S
H1255 C1269 0.931 . S
H1256 C1271 0.930 . S
C1257 H1245 0.930 . S
C1257 C1258 1.399 . S
C1257 C1262 1.399 . S
C1258 C1257 1.399 . S
C1258 C1259 1.376 . S
C1259 H1246 0.930 . S
C1259 C1258 1.376 . S
C1259 C1260 1.388 . S
C1260 H1247 0.930 . S
C1260 C1259 1.388 . S
C1260 C1261 1.390 . S
C1261 C1260 1.390 . S
C1261 C1262 1.394 . S
C1261 C1267 1.465 . S
C1262 C1257 1.399 . S
C1262 C1261 1.394 . S
C1262 C1263 1.516 . S
C1263 C1262 1.516 . S
C1263 C1264 1.502 . S
C1263 C1265 1.561 . S
C1263 C1266 1.526 . S
C1264 H1248 0.959 . S
C1264 H1249 0.959 . S
C1264 H1250 0.961 . S
C1264 C1263 1.502 . S
C1265 H1251 0.960 . S
C1265 H1252 0.961 . S
C1265 H1253 0.959 . S
C1265 C1263 1.561 . S
C1266 C1263 1.526 . S
C1266 C1267 1.396 . S
C1266 C1271 1.390 . S
C1267 C1261 1.465 . S
C1267 C1266 1.396 . S
C1267 C1268 1.399 . S
C1268 H1254 0.929 . S
C1268 C1267 1.399 . S
C1268 C1269 1.385 . S
C1269 H1255 0.931 . S
C1269 C1268 1.385 . S
C1269 C1270 1.389 . S
C1270 C1269 1.389 . S
C1270 C1271 1.387 . S
C1271 H1256 0.930 . S
C1271 C1266 1.390 . S
C1271 C1270 1.387 . S
C637 C247 1.473 . S
C649 C344 1.466 . S
C676 C428 1.456 . S
C664 C283 1.473 . S
C703 C427 1.467 . S
C691 C175 1.466 . S
C718 C211 1.466 . S
C730 C343 1.461 . S
C757 C524 1.465 . S
C745 C103 1.480 . S
C784 C608 1.463 . S
C772 C139 1.448 . S
C799 C31 1.473 . S
C811 C607 1.450 . S
C826 C67 1.469 . S
C838 C523 1.450 . S
C865 C346 1.285 . S
C853 C37 1.505 1_554 S
C892 C430 1.335 . S
C880 C1 1.490 . S
C919 C442 1.345 . S
C907 C109 1.527 1_556 S
C946 C358 1.362 . S
C934 C73 1.519 . S
C973 C526 1.271 . S
C961 C181 1.518 1_556 S
C988 C145 1.509 . S
C1000 C610 1.389 . S
C1027 C598 1.407 . S
C1015 C253 1.539 1_554 S
C1042 C217 1.539 . S
C1054 C514 1.435 . S
C1081 C355 1.579 . S
C1069 C25 1.570 . S
C1108 C439 1.564 . S
C1096 C61 1.557 . S
C1123 C97 1.555 . S
C1135 C440 1.567 . S
C1162 C356 1.531 . S
C1150 C133 1.527 . S
C1189 C511 1.584 . S
C1177 C169 1.554 . S
C1204 C205 1.556 . S
C1216 C595 1.583 . S
C1231 C241 1.549 . S
C1243 C596 1.538 . S
C1258 C277 1.570 . S
C1270 C512 1.569 . S
