# Generated by pormake.
# Topology tsx, (6,3)-cn, num edge types: 1
# Building blocks:
#     Node 0, Type 0, BuildingBlock: FUNLAD_clean_sbu_0, # of connection points: 6
#     Node 1, Type 0, BuildingBlock: FUNLAD_clean_sbu_0, # of connection points: 6
#     Node 2, Type 1, BuildingBlock: MIDCAF_clean_linker_0, # of connection points: 3
#     Node 3, Type 1, BuildingBlock: MIDCAF_clean_linker_0, # of connection points: 3
#     Node 4, Type 1, BuildingBlock: MIDCAF_clean_linker_0, # of connection points: 3
#     Node 5, Type 1, BuildingBlock: MIDCAF_clean_linker_0, # of connection points: 3
#     Edge 6, Type (0, 1), BuildingBlock: KIFKEQ_clean_linker_1, # of connection points: 2
#     Edge 7, Type (0, 1), BuildingBlock: KIFKEQ_clean_linker_1, # of connection points: 2
#     Edge 8, Type (0, 1), BuildingBlock: KIFKEQ_clean_linker_1, # of connection points: 2
#     Edge 9, Type (0, 1), BuildingBlock: KIFKEQ_clean_linker_1, # of connection points: 2
#     Edge 10, Type (0, 1), BuildingBlock: KIFKEQ_clean_linker_1, # of connection points: 2
#     Edge 11, Type (0, 1), BuildingBlock: KIFKEQ_clean_linker_1, # of connection points: 2
#     Edge 12, Type (0, 1), BuildingBlock: KIFKEQ_clean_linker_1, # of connection points: 2
#     Edge 13, Type (0, 1), BuildingBlock: KIFKEQ_clean_linker_1, # of connection points: 2
#     Edge 14, Type (0, 1), BuildingBlock: KIFKEQ_clean_linker_1, # of connection points: 2
#     Edge 15, Type (0, 1), BuildingBlock: KIFKEQ_clean_linker_1, # of connection points: 2
#     Edge 16, Type (0, 1), BuildingBlock: KIFKEQ_clean_linker_1, # of connection points: 2
#     Edge 17, Type (0, 1), BuildingBlock: KIFKEQ_clean_linker_1, # of connection points: 2
# Relax obj value: 0.165
# Max RMSD: 0.155
# Mean RMSD: 0.090
data_MOF--net-tsx--node1-FUNLAD_clean_sbu_0--node2-MIDCAF_clean_linker_0--edge1-KIFKEQ_clean_linker_1
_symmetry_space_group_name_H-M    P1
_symmetry_Int_Tables_number       1
_symmetry_cell_setting            triclinic
loop_
_symmetry_equiv_pos_as_xyz
'x, y, z'
_cell_length_a     23.491765
_cell_length_b     26.098256
_cell_length_c     50.556468
_cell_angle_alpha  91.080564
_cell_angle_beta   91.88306
_cell_angle_gamma 90.204762
loop_
_atom_site_label
_atom_site_type_symbol
_atom_site_fract_x
_atom_site_fract_y
_atom_site_fract_z
_atom_type_partial_charge
C0 C 0.9127 0.9298 0.00088 0.0
N1 N 0.00158 0.00028 0.06503 0.0
C2 C 0.95105 0.00173 0.07741 0.0
C3 C 0.94988 0.00196 0.10499 0.0
C4 C 0.00122 0.00086 0.12003 0.0
C5 C 0.05276 -0.0005 0.10669 0.0
C6 C 0.05195 -0.00085 0.07906 0.0
Zn7 Zn 0.00159 -0.00017 0.02466 0.0
C8 C 0.07926 0.92059 0.00328 0.0
N9 N 0.00137 -0.00154 0.94014 0.0
C10 C 0.95113 6e-05 0.926 0.0
C11 C 0.05205 -0.00253 0.92785 0.0
C12 C 0.05353 -0.00139 0.90029 0.0
C13 C 0.00235 0.00032 0.8852 0.0
C14 C 0.95064 0.00077 0.89837 0.0
Zn15 Zn 0.00118 -0.00138 0.98059 0.0
O16 O 0.93405 0.94614 0.02288 0.0
C17 C 0.92485 0.07882 0.00227 0.0
O18 O 0.93303 0.94527 0.97945 0.0
H19 H 0.09151 -0.00407 0.93944 0.0
H20 H 0.91148 0.00256 0.06588 0.0
H21 H 0.91135 0.0011 0.93616 0.0
O22 O 0.94228 0.06014 0.02406 0.0
O23 O 0.9427 0.06023 0.98065 0.0
H24 H 0.09163 -0.0019 0.06881 0.0
O25 O 0.06914 0.05152 0.98215 0.0
O26 O 0.06888 0.05435 0.02556 0.0
O27 O 0.06012 0.93802 0.98144 0.0
O28 O 0.06151 0.93921 0.02489 0.0
C29 C 0.08951 0.06911 0.00405 0.0
H30 H 0.90913 0.0023 0.1144 0.0
H31 H 0.09337 -0.00067 0.11745 0.0
H32 H 0.09427 -0.00237 0.89087 0.0
H33 H 0.91027 0.00255 0.88745 0.0
C34 C 0.41415 0.43114 0.49785 0.0
N35 N 0.50721 0.49882 0.56159 0.0
C36 C 0.45665 0.50473 0.57364 0.0
C37 C 0.4546 0.50536 0.60119 0.0
C38 C 0.50508 0.49991 0.61652 0.0
C39 C 0.55671 0.49411 0.60354 0.0
C40 C 0.5568 0.49364 0.57593 0.0
Zn41 Zn 0.50808 0.49711 0.52126 0.0
C42 C 0.57802 0.41204 0.50077 0.0
N43 N 0.50772 0.49321 0.43682 0.0
C44 C 0.45826 0.49595 0.42214 0.0
C45 C 0.55889 0.48935 0.42509 0.0
C46 C 0.56175 0.48862 0.39757 0.0
C47 C 0.51143 0.49134 0.38193 0.0
C48 C 0.45912 0.49478 0.39451 0.0
Zn49 Zn 0.50648 0.49507 0.47722 0.0
O50 O 0.43618 0.44765 0.5197 0.0
C51 C 0.43644 0.58006 0.49821 0.0
O52 O 0.43532 0.44483 0.47627 0.0
H53 H 0.59767 0.48683 0.43711 0.0
H54 H 0.41774 0.50893 0.56185 0.0
H55 H 0.41808 0.49919 0.43187 0.0
O56 O 0.45382 0.56127 0.51999 0.0
O57 O 0.45179 0.5597 0.47653 0.0
H58 H 0.59649 0.48883 0.56594 0.0
O59 O 0.57753 0.5454 0.47861 0.0
O60 O 0.58003 0.54657 0.52204 0.0
O61 O 0.56108 0.43046 0.47878 0.0
O62 O 0.56237 0.43288 0.52221 0.0
C63 C 0.60031 0.56117 0.50041 0.0
H64 H 0.41398 0.5106 0.61037 0.0
H65 H 0.59653 0.48918 0.61459 0.0
H66 H 0.60286 0.48531 0.38861 0.0
H67 H 0.41942 0.49736 0.38311 0.0
C68 C 0.82537 0.09077 0.45748 0.0
C69 C 0.83372 0.11004 0.48345 0.0
C70 C 0.88313 0.09596 0.49801 0.0
C71 C 0.92429 0.06485 0.48636 0.0
H72 H 0.05425 0.93919 0.49647 0.0
H73 H 0.12768 0.88351 0.51584 0.0
H74 H 0.22301 0.8945 0.44444 0.0
H75 H 0.15129 0.95013 0.42561 0.0
H76 H 0.0767 0.95027 0.37185 0.0
H77 H 0.07491 0.95094 0.3237 0.0
H78 H 0.92744 0.04925 0.32379 0.0
H79 H 0.92932 0.0492 0.37202 0.0
H80 H 0.859 0.04754 0.42552 0.0
H81 H 0.7883 0.10135 0.44552 0.0
H82 H 0.89054 0.10992 0.51815 0.0
H83 H 0.96265 0.05577 0.49772 0.0
N84 N 0.00677 -0.00164 0.45921 0.0
N85 N 0.04762 0.97643 0.41876 0.0
N86 N 0.96231 0.02183 0.41892 0.0
C87 C 0.04931 0.97568 0.44563 0.0
C88 C 0.00438 -0.00063 0.40523 0.0
C89 C 0.96303 0.02157 0.44581 0.0
C90 C 0.09644 0.94838 0.45935 0.0
C91 C 0.09147 0.93038 0.48521 0.0
C92 C 0.13337 0.89833 0.49623 0.0
C93 C 0.18115 0.88435 0.48166 0.0
C94 C 0.18731 0.90489 0.45643 0.0
C95 C 0.14563 0.93647 0.44546 0.0
C96 C 0.00315 -0.0003 0.3759 0.0
C97 C 0.04384 0.97211 0.36168 0.0
C98 C 0.04267 0.97221 0.33405 0.0
C99 C 0.00099 7e-05 0.31998 0.0
C100 C 0.96041 0.02781 0.33412 0.0
C101 C 0.96135 0.02751 0.36177 0.0
C102 C 0.91704 0.04809 0.45986 0.0
C103 C 0.8664 0.06026 0.44587 0.0
C104 C 0.92965 0.82495 0.54797 0.0
C105 C 0.90517 0.82787 0.52232 0.0
C106 C 0.91305 0.87293 0.50794 0.0
C107 C 0.94283 0.9148 0.51947 0.0
H108 H 0.0716 0.04194 0.50894 0.0
H109 H 0.12096 0.11283 0.48823 0.0
H110 H 0.10287 0.20507 0.55935 0.0
H111 H 0.05279 0.13566 0.57951 0.0
H112 H 0.06632 0.06861 0.63452 0.0
H113 H 0.0646 0.07071 0.6828 0.0
H114 H 0.95136 0.93994 0.68053 0.0
H115 H 0.95276 0.93766 0.63238 0.0
H116 H 0.9759 0.8631 0.57952 0.0
H117 H 0.92381 0.79134 0.55985 0.0
H118 H 0.8951 0.87623 0.48805 0.0
H119 H 0.94658 0.94964 0.50834 0.0
N120 N 0.01168 -0.00226 0.54626 0.0
N121 N 0.03258 0.04073 0.58674 0.0
N122 N 0.98942 0.96004 0.58647 0.0
C123 C 0.03328 0.03941 0.55984 0.0
C124 C 0.01067 0.00125 0.6002 0.0
C125 C 0.98974 0.95781 0.55962 0.0
C126 C 0.05859 0.08299 0.54595 0.0
C127 C 0.07736 0.07773 0.5199 0.0
C128 C 0.10591 0.1182 0.50811 0.0
C129 C 0.11586 0.16469 0.52211 0.0
C130 C 0.09521 0.17024 0.54777 0.0
C131 C 0.06698 0.13004 0.55949 0.0
C132 C 0.00969 0.00296 0.62952 0.0
C133 C 0.04095 0.04034 0.64428 0.0
C134 C 0.04025 0.04142 0.67194 0.0
C135 C 0.00779 0.00553 0.68539 0.0
C136 C 0.97631 0.9684 0.67067 0.0
C137 C 0.97744 0.96696 0.64307 0.0
C138 C 0.96482 0.91235 0.54562 0.0
C139 C 0.95906 0.86652 0.55942 0.0
C140 C 0.39472 0.66399 0.95364 0.0
C141 C 0.38365 0.6616 0.98069 0.0
C142 C 0.40501 0.62023 0.99535 0.0
C143 C 0.43706 0.58195 0.98301 0.0
H144 H 0.54727 0.44571 0.99379 0.0
H145 H 0.61579 0.38732 0.01522 0.0
H146 H 0.70637 0.3754 0.94236 0.0
H147 H 0.63916 0.4328 0.92131 0.0
H148 H 0.5616 0.43912 0.86866 0.0
H149 H 0.55865 0.43652 0.82055 0.0
H150 H 0.44023 0.56275 0.81956 0.0
H151 H 0.44217 0.56495 0.86776 0.0
H152 H 0.43312 0.62906 0.92038 0.0
H153 H 0.37797 0.69493 0.94173 0.0
H154 H 0.39689 0.61755 0.01625 0.0
H155 H 0.45292 0.55031 0.99463 0.0
N156 N 0.51462 0.51159 0.9554 0.0
N157 N 0.54127 0.47376 0.91517 0.0
N158 N 0.47508 0.54015 0.91502 0.0
C159 C 0.54604 0.47665 0.94199 0.0
C160 C 0.50569 0.50509 0.90151 0.0
C161 C 0.47919 0.54371 0.94188 0.0
C162 C 0.58766 0.44357 0.95587 0.0
C163 C 0.58222 0.43086 0.98258 0.0
C164 C 0.62122 0.39747 0.99478 0.0
C165 C 0.66671 0.37736 0.98051 0.0
C166 C 0.67242 0.39103 0.95402 0.0
C167 C 0.6334 0.42354 0.94186 0.0
C168 C 0.50228 0.5024 0.87218 0.0
C169 C 0.53469 0.46627 0.85827 0.0
C170 C 0.5333 0.46492 0.83064 0.0
C171 C 0.49948 0.49961 0.81624 0.0
C172 C 0.46631 0.53517 0.83009 0.0
C173 C 0.46769 0.53657 0.85775 0.0
C174 C 0.44718 0.58417 0.95576 0.0
C175 C 0.42589 0.6258 0.94134 0.0
C176 C 0.43967 0.31967 0.03862 0.0
C177 C 0.40107 0.33139 0.01786 0.0
C178 C 0.40118 0.38085 0.00737 0.0
C179 C 0.43707 0.41883 0.01854 0.0
H180 H 0.56646 0.54386 0.00561 0.0
H181 H 0.60966 0.61844 0.98546 0.0
H182 H 0.61248 0.6979 0.06126 0.0
H183 H 0.56866 0.62457 0.08112 0.0
H184 H 0.58899 0.54925 0.13227 0.0
H185 H 0.58944 0.5482 0.18039 0.0
H186 H 0.47271 0.41964 0.17682 0.0
H187 H 0.47391 0.41948 0.12878 0.0
H188 H 0.5019 0.34843 0.06702 0.0
H189 H 0.4401 0.2819 0.04716 0.0
H190 H 0.37179 0.39062 0.99131 0.0
H191 H 0.43452 0.4573 0.01092 0.0
N192 N 0.51975 0.49235 0.04362 0.0
N193 N 0.54775 0.52863 0.08487 0.0
N194 N 0.50605 0.44713 0.08265 0.0
C195 C 0.54339 0.53186 0.05808 0.0
C196 C 0.52911 0.48647 0.09732 0.0
C197 C 0.50138 0.44974 0.05586 0.0
C198 C 0.56466 0.57807 0.04503 0.0
C199 C 0.57544 0.57762 0.01782 0.0
C200 C 0.60036 0.6202 0.0063 0.0
C201 C 0.6145 0.66404 0.02176 0.0
C202 C 0.60139 0.66508 0.04868 0.0
C203 C 0.57684 0.62267 0.06016 0.0
C204 C 0.53134 0.48452 0.12661 0.0
C205 C 0.56364 0.52057 0.14174 0.0
C206 C 0.56361 0.52017 0.16938 0.0
C207 C 0.53082 0.48405 0.18257 0.0
C208 C 0.49912 0.44757 0.1674 0.0
C209 C 0.4996 0.44764 0.13978 0.0
C210 C 0.47233 0.40804 0.0407 0.0
C211 C 0.47467 0.35779 0.05009 0.0
H212 H 0.11897 0.13808 0.04329 0.0
H213 H 0.1651 0.08565 0.9653 0.0
H214 H 0.19444 0.20288 0.043 0.0
H215 H 0.24148 0.14987 0.9654 0.0
H216 H 0.41296 0.23073 0.00315 0.0
H217 H 0.33664 0.1665 0.99754 0.0
H218 H 0.21149 0.28386 0.01122 0.0
H219 H 0.28735 0.34805 0.01635 0.0
C220 C 0.14544 0.14021 0.0262 0.0
C221 C 0.13618 0.107 0.00431 0.0
C222 C 0.18827 0.17739 0.02598 0.0
C223 C 0.22325 0.18126 0.00411 0.0
C224 C 0.21487 0.14746 0.98243 0.0
C225 C 0.17121 0.11096 0.9824 0.0
C226 C 0.36902 0.24278 0.00435 0.0
C227 C 0.35582 0.29419 0.01005 0.0
C228 C 0.32558 0.20622 0.00115 0.0
C229 C 0.26857 0.22048 0.00419 0.0
C230 C 0.25528 0.27211 0.00895 0.0
C231 C 0.29853 0.30876 0.01162 0.0
H232 H 0.14217 0.88935 0.96187 0.0
H233 H 0.11854 0.86337 0.04502 0.0
H234 H 0.22018 0.82836 0.96217 0.0
H235 H 0.19697 0.80142 0.0451 0.0
H236 H 0.29069 0.64774 0.01103 0.0
H237 H 0.21774 0.71188 0.02069 0.0
H238 H 0.3203 0.82835 0.98556 0.0
H239 H 0.39315 0.76478 0.97624 0.0
C240 C 0.15337 0.87038 0.98018 0.0
C241 C 0.12426 0.88124 0.00343 0.0
C242 C 0.19835 0.83578 0.98039 0.0
C243 C 0.21491 0.81082 0.00375 0.0
C244 C 0.18501 0.82043 0.02689 0.0
C245 C 0.1403 0.85579 0.02681 0.0
C246 C 0.29839 0.6874 0.00625 0.0
C247 C 0.34698 0.70128 0.9925 0.0
C248 C 0.25666 0.72396 0.01168 0.0
C249 C 0.26312 0.77464 0.00334 0.0
C250 C 0.31396 0.78925 0.99172 0.0
C251 C 0.35559 0.75297 0.98645 0.0
H252 H 0.84578 0.90568 0.04178 0.0
H253 H 0.86956 0.87277 0.95875 0.0
H254 H 0.7665 0.8454 0.04145 0.0
H255 H 0.78985 0.81194 0.95854 0.0
H256 H 0.70608 0.65757 0.98992 0.0
H257 H 0.77333 0.72597 0.98073 0.0
H258 H 0.66721 0.83502 0.02106 0.0
H259 H 0.59943 0.76686 0.02993 0.0
C260 C 0.83397 0.88567 0.02343 0.0
C261 C 0.86407 0.89376 0.00033 0.0
C262 C 0.7882 0.85153 0.02318 0.0
C263 C 0.77181 0.82435 -0.0001 0.0
C264 C 0.80168 0.83247 0.97673 0.0
C265 C 0.84717 0.86724 0.97688 0.0
C266 C 0.69609 0.69642 0.99603 0.0
C267 C 0.64795 0.70673 0.01103 0.0
C268 C 0.73471 0.73554 0.99083 0.0
C269 C 0.72588 0.7855 0.00062 0.0
C270 C 0.6755 0.79657 0.01374 0.0
C271 C 0.63679 0.7576 0.0188 0.0
H272 H 0.86191 0.11571 0.04301 0.0
H273 H 0.90055 0.14225 0.96135 0.0
H274 H 0.80064 0.19156 0.04302 0.0
H275 H 0.84007 0.21789 0.96158 0.0
H276 H 0.78209 0.37749 0.97798 0.0
H277 H 0.84565 0.30561 0.98661 0.0
H278 H 0.70592 0.21965 0.01731 0.0
H279 H 0.64171 0.29157 0.00825 0.0
C280 C 0.8573 0.13768 0.0251 0.0
C281 C 0.88606 0.12315 0.00217 0.0
C282 C 0.82226 0.18091 0.02515 0.0
C283 C 0.81635 0.21071 0.00243 0.0
C284 C 0.84471 0.19591 0.97949 0.0
C285 C 0.87893 0.15241 0.9793 0.0
C286 C 0.76517 0.34361 0.98703 0.0
C287 C 0.70685 0.33963 0.99201 0.0
C288 C 0.80146 0.30255 0.99189 0.0
C289 C 0.78026 0.25693 0.00209 0.0
C290 C 0.72312 0.25451 0.00937 0.0
C291 C 0.68653 0.29565 0.00431 0.0
H292 H 0.67493 0.58425 0.54143 0.0
H293 H 0.63584 0.61927 0.45964 0.0
H294 H 0.75367 0.64565 0.54203 0.0
H295 H 0.71435 0.68126 0.46044 0.0
H296 H 0.80311 0.83559 0.49485 0.0
H297 H 0.73298 0.76758 0.48607 0.0
H298 H 0.84986 0.65698 0.51923 0.0
H299 H 0.92085 0.72444 0.52725 0.0
C300 C 0.68328 0.60491 0.52357 0.0
C301 C 0.64916 0.59702 0.50052 0.0
C302 C 0.72856 0.63976 0.52386 0.0
C303 C 0.74012 0.66798 0.50123 0.0
C304 C 0.70622 0.66 0.47813 0.0
C305 C 0.66148 0.62447 0.4777 0.0
C306 C 0.81467 0.79656 0.49947 0.0
C307 C 0.86733 0.78562 0.51213 0.0
C308 C 0.77434 0.75767 0.49455 0.0
C309 C 0.78578 0.70729 0.5024 0.0
C310 C 0.83968 0.69573 0.51344 0.0
C311 C 0.8802 0.73439 0.51805 0.0
H312 H 0.59566 0.34385 0.46047 0.0
H313 H 0.6424 0.37628 0.54251 0.0
H314 H 0.65453 0.26711 0.4615 0.0
H315 H 0.70211 0.29945 0.54333 0.0
H316 H 0.85863 0.19919 0.51091 0.0
H317 H 0.79402 0.27068 0.51883 0.0
H318 H 0.65346 0.18066 0.48596 0.0
H319 H 0.71744 0.10869 0.47868 0.0
C320 C 0.61857 0.33464 0.4787 0.0
C321 C 0.61444 0.36606 0.5014 0.0
C322 C 0.65187 0.29051 0.47935 0.0
C323 C 0.68237 0.27725 0.50257 0.0
C324 C 0.67887 0.30888 0.52522 0.0
C325 C 0.64471 0.35268 0.52472 0.0
C326 C 0.81364 0.19399 0.50623 0.0
C327 C 0.79329 0.14857 0.49376 0.0
C328 C 0.77675 0.23502 0.51065 0.0
C329 C 0.71911 0.23134 0.50252 0.0
C330 C 0.69799 0.18469 0.49194 0.0
C331 C 0.73462 0.14359 0.48778 0.0
H332 H 0.37476 0.36815 0.45731 0.0
H333 H 0.34304 0.41339 0.53815 0.0
H334 H 0.29666 0.30574 0.45828 0.0
H335 H 0.26502 0.35167 0.53893 0.0
H336 H 0.099 0.2683 0.52567 0.0
H337 H 0.16719 0.33579 0.51635 0.0
H338 H 0.28146 0.22281 0.48468 0.0
H339 H 0.21401 0.15493 0.49462 0.0
C340 C 0.35077 0.36514 0.47516 0.0
C341 C 0.36511 0.39549 0.4977 0.0
C342 C 0.30629 0.32938 0.4757 0.0
C343 C 0.27473 0.32412 0.49862 0.0
C344 C 0.2882 0.35539 0.52089 0.0
C345 C 0.33314 0.39045 0.5205 0.0
C346 C 0.13843 0.25783 0.5165 0.0
C347 C 0.1515 0.2061 0.51134 0.0
C348 C 0.17734 0.29649 0.51112 0.0
C349 C 0.22983 0.28437 0.50015 0.0
C350 C 0.24115 0.23319 0.49307 0.0
C351 C 0.2024 0.19435 0.49869 0.0
H352 H 0.41534 0.64555 0.45767 0.0
H353 H 0.37485 0.61809 0.53899 0.0
H354 H 0.35647 0.72249 0.45819 0.0
H355 H 0.31531 0.69488 0.53929 0.0
H356 H 0.15751 0.79507 0.50682 0.0
H357 H 0.22162 0.72271 0.51385 0.0
H358 H 0.36027 0.81041 0.48344 0.0
H359 H 0.29697 0.8834 0.47721 0.0
C360 C 0.39375 0.65585 0.4756 0.0
C361 C 0.39971 0.62585 0.49827 0.0
C362 C 0.36046 0.70005 0.47596 0.0
C363 C 0.33181 0.71467 0.49886 0.0
C364 C 0.33705 0.68436 0.52142 0.0
C365 C 0.37115 0.64058 0.52122 0.0
C366 C 0.20206 0.79958 0.50246 0.0
C367 C 0.22193 0.84477 0.49107 0.0
C368 C 0.23863 0.75802 0.50634 0.0
C369 C 0.29547 0.76083 0.4987 0.0
C370 C 0.31628 0.80704 0.489 0.0
C371 C 0.28002 0.84873 0.48544 0.0
H372 H 0.93199 0.05559 0.15264 0.0
H373 H 0.06988 0.94639 0.154 0.0
H374 H 0.9304 0.05447 0.20076 0.0
H375 H 0.07017 0.94725 0.20216 0.0
H376 H 0.01404 0.91852 0.2861 0.0
H377 H 0.01343 0.91871 0.23788 0.0
H378 H 0.98587 0.08239 0.23936 0.0
H379 H 0.98576 0.08195 0.2876 0.0
C380 C 0.96195 0.03131 0.16319 0.0
C381 C 0.00098 0.00099 0.14943 0.0
C382 C 0.96151 0.03117 0.19081 0.0
C383 C 0.00019 0.00081 0.20535 0.0
C384 C 0.03934 0.97061 0.19159 0.0
C385 C 0.03967 0.97064 0.16396 0.0
C386 C 0.00816 0.95455 0.2761 0.0
C387 C 2e-05 0.00022 0.29062 0.0
C388 C 0.00791 0.95471 0.24848 0.0
C389 C -0.00025 0.00059 0.23474 0.0
C390 C 0.99141 0.04625 0.24929 0.0
C391 C 0.99141 0.04604 0.27693 0.0
H392 H 0.06955 0.05934 0.85481 0.0
H393 H 0.93656 0.94468 0.8495 0.0
H394 H 0.07037 0.06223 0.80665 0.0
H395 H 0.93818 0.94643 0.80134 0.0
H396 H 0.91527 -0.00188 0.71638 0.0
H397 H 0.91361 -0.00178 0.76456 0.0
H398 H 0.09702 0.01376 0.76873 0.0
H399 H 0.09822 0.01498 0.72052 0.0
C400 C 0.04087 0.03439 0.8433 0.0
C401 C 0.00297 0.00182 0.8559 0.0
C402 C 0.04141 0.03591 0.8157 0.0
C403 C 0.00436 0.00454 0.80003 0.0
C404 C 0.96658 0.97182 0.81272 0.0
C405 C 0.96572 0.97066 0.84033 0.0
C406 C 0.95519 0.00145 0.72764 0.0
C407 C 0.00687 0.0065 0.71472 0.0
C408 C 0.95432 0.00132 0.75526 0.0
C409 C 0.00521 0.00579 0.77061 0.0
C410 C 0.05691 0.01107 0.7576 0.0
C411 C 0.05768 0.01165 0.72997 0.0
H412 H 0.42782 0.45294 0.64744 0.0
H413 H 0.57948 0.54727 0.65191 0.0
H414 H 0.42599 0.45291 0.69563 0.0
H415 H 0.57763 0.54726 0.7001 0.0
H416 H 0.5911 0.48912 0.7847 0.0
H417 H 0.59191 0.48835 0.73652 0.0
H418 H 0.4097 0.51084 0.73317 0.0
H419 H 0.4086 0.50969 0.78142 0.0
C420 C 0.46046 0.47406 0.65871 0.0
C421 C 0.50382 0.50009 0.64585 0.0
C422 C 0.4594 0.47404 0.68632 0.0
C423 C 0.50169 0.50004 0.70168 0.0
C424 C 0.54495 0.52619 0.68882 0.0
C425 C 0.54601 0.52619 0.66122 0.0
C426 C 0.55111 0.49333 0.77368 0.0
C427 C 0.49975 0.49932 0.78688 0.0
C428 C 0.55168 0.49351 0.74608 0.0
C429 C 0.5009 0.49968 0.73103 0.0
C430 C 0.44948 0.50554 0.74421 0.0
C431 C 0.44892 0.50543 0.77184 0.0
H432 H 0.44577 0.43494 0.34646 0.0
H433 H 0.5824 0.54619 0.35144 0.0
H434 H 0.45058 0.43319 0.29817 0.0
H435 H 0.58753 0.54413 0.30322 0.0
H436 H 0.52944 0.56806 0.21595 0.0
H437 H 0.5252 0.56978 0.26405 0.0
H438 H 0.52111 0.40443 0.26405 0.0
H439 H 0.52705 0.40237 0.21596 0.0
C440 C 0.47661 0.45915 0.3372 0.0
C441 C 0.51373 0.49067 0.35266 0.0
C442 C 0.4797 0.45782 0.30963 0.0
C443 C 0.51948 0.48847 0.29699 0.0
C444 C 0.55621 0.52036 0.31244 0.0
C445 C 0.55357 0.52124 0.34001 0.0
C446 C 0.52855 0.53199 0.22616 0.0
C447 C 0.52873 0.48506 0.21198 0.0
C448 C 0.52586 0.53305 0.25372 0.0
C449 C 0.52271 0.48725 0.26775 0.0
C450 C 0.52276 0.44033 0.25369 0.0
C451 C 0.52602 0.43922 0.22613 0.0
loop_
_geom_bond_atom_site_label_1
_geom_bond_atom_site_label_2
_geom_bond_distance
_geom_bond_site_symmetry_2
_ccdc_geom_bond_type
C0 O16 1.251 . S
C0 O18 1.254 1_554 S
N1 C2 1.333 1_445 S
N1 C6 1.307 . S
N1 Zn7 2.020 . S
C2 N1 1.333 1_665 S
C2 C3 1.379 . S
C2 H20 0.952 . S
C3 C2 1.379 . S
C3 C4 1.390 1_665 S
C3 H30 0.949 . S
C4 C3 1.390 1_445 S
C4 C5 1.357 . S
C5 C4 1.357 . S
C5 C6 1.370 . S
C5 H31 0.950 . S
C6 N1 1.307 . S
C6 C5 1.370 . S
C6 H24 0.948 . S
Zn7 N1 2.020 . S
Zn7 O16 2.039 1_445 S
Zn7 O22 2.034 1_455 S
Zn7 O26 2.025 . S
Zn7 O28 2.024 1_545 S
C8 O27 1.246 1_554 S
C8 O28 1.249 . S
N9 C10 1.307 1_445 S
N9 C11 1.333 . S
N9 Zn15 2.020 . S
C10 N9 1.307 1_665 S
C10 C14 1.370 . S
C10 H21 0.948 . S
C11 N9 1.333 . S
C11 C12 1.379 . S
C11 H19 0.952 . S
C12 C11 1.379 . S
C12 C13 1.390 . S
C12 H32 0.949 . S
C13 C12 1.390 . S
C13 C14 1.357 1_445 S
C14 C10 1.370 . S
C14 C13 1.357 1_665 S
C14 H33 0.950 . S
Zn15 N9 2.020 . S
Zn15 O18 2.025 1_445 S
Zn15 O23 2.024 1_455 S
Zn15 O25 2.039 . S
Zn15 O27 2.034 1_545 S
O16 C0 1.251 . S
O16 Zn7 2.039 1_665 S
C17 O22 1.246 . S
C17 O23 1.249 1_554 S
O18 C0 1.254 1_556 S
O18 Zn15 2.025 1_665 S
H19 C11 0.952 . S
H20 C2 0.952 . S
H21 C10 0.948 . S
O22 Zn7 2.034 1_655 S
O22 C17 1.246 . S
O23 Zn15 2.024 1_655 S
O23 C17 1.249 1_556 S
H24 C6 0.948 . S
O25 Zn15 2.039 . S
O25 C29 1.251 1_556 S
O26 Zn7 2.025 . S
O26 C29 1.254 . S
O27 C8 1.246 1_556 S
O27 Zn15 2.034 1_565 S
O28 Zn7 2.024 1_565 S
O28 C8 1.249 . S
C29 O25 1.251 1_554 S
C29 O26 1.254 . S
H30 C3 0.949 . S
H31 C5 0.950 . S
H32 C12 0.949 . S
H33 C14 0.950 . S
C34 O50 1.251 . S
C34 O52 1.254 . S
N35 C36 1.333 . S
N35 C40 1.307 . S
N35 Zn41 2.020 . S
C36 N35 1.333 . S
C36 C37 1.379 . S
C36 H54 0.952 . S
C37 C36 1.379 . S
C37 C38 1.390 . S
C37 H64 0.949 . S
C38 C37 1.390 . S
C38 C39 1.357 . S
C39 C38 1.357 . S
C39 C40 1.370 . S
C39 H65 0.950 . S
C40 N35 1.307 . S
C40 C39 1.370 . S
C40 H58 0.948 . S
Zn41 N35 2.020 . S
Zn41 O50 2.039 . S
Zn41 O56 2.034 . S
Zn41 O60 2.025 . S
Zn41 O62 2.024 . S
C42 O61 1.246 . S
C42 O62 1.249 . S
N43 C44 1.307 . S
N43 C45 1.333 . S
N43 Zn49 2.020 . S
C44 N43 1.307 . S
C44 C48 1.370 . S
C44 H55 0.948 . S
C45 N43 1.333 . S
C45 C46 1.379 . S
C45 H53 0.952 . S
C46 C45 1.379 . S
C46 C47 1.390 . S
C46 H66 0.949 . S
C47 C46 1.390 . S
C47 C48 1.357 . S
C48 C44 1.370 . S
C48 C47 1.357 . S
C48 H67 0.950 . S
Zn49 N43 2.020 . S
Zn49 O52 2.025 . S
Zn49 O57 2.024 . S
Zn49 O59 2.039 . S
Zn49 O61 2.034 . S
O50 C34 1.251 . S
O50 Zn41 2.039 . S
C51 O56 1.246 . S
C51 O57 1.249 . S
O52 C34 1.254 . S
O52 Zn49 2.025 . S
H53 C45 0.952 . S
H54 C36 0.952 . S
H55 C44 0.948 . S
O56 Zn41 2.034 . S
O56 C51 1.246 . S
O57 Zn49 2.024 . S
O57 C51 1.249 . S
H58 C40 0.948 . S
O59 Zn49 2.039 . S
O59 C63 1.251 . S
O60 Zn41 2.025 . S
O60 C63 1.254 . S
O61 C42 1.246 . S
O61 Zn49 2.034 . S
O62 Zn41 2.024 . S
O62 C42 1.249 . S
C63 O59 1.251 . S
C63 O60 1.254 . S
H64 C37 0.949 . S
H65 C39 0.950 . S
H66 C46 0.949 . S
H67 C48 0.950 . S
C68 C69 1.384 . S
C68 H81 0.947 . S
C68 C103 1.382 . S
C69 C68 1.384 . S
C69 C70 1.378 . S
C70 C69 1.378 . S
C70 C71 1.378 . S
C70 H82 0.952 . S
C71 C70 1.378 . S
C71 H83 0.950 . S
C71 C102 1.383 . S
H72 C91 0.947 . S
H73 C92 0.946 . S
H74 C94 0.953 . S
H75 C95 0.945 . S
H76 C97 0.952 . S
H77 C98 0.949 . S
H78 C100 0.950 . S
H79 C101 0.948 . S
H80 C103 0.951 . S
H81 C68 0.947 . S
H82 C70 0.952 . S
H83 C71 0.950 . S
N84 C87 1.382 1_545 S
N84 C89 1.363 1_455 S
N85 C87 1.371 . S
N85 C88 1.372 1_565 S
N86 C88 1.361 1_655 S
N86 C89 1.377 . S
C87 N84 1.382 1_565 S
C87 N85 1.371 . S
C87 C90 1.480 . S
C88 N85 1.372 1_545 S
C88 N86 1.361 1_455 S
C88 C96 1.457 . S
C89 N84 1.363 1_655 S
C89 N86 1.377 . S
C89 C102 1.479 . S
C90 C87 1.480 . S
C90 C91 1.383 . S
C90 C95 1.385 . S
C91 H72 0.947 . S
C91 C90 1.383 . S
C91 C92 1.388 . S
C92 H73 0.946 . S
C92 C91 1.388 . S
C92 C93 1.384 . S
C93 C92 1.384 . S
C93 C94 1.377 . S
C94 H74 0.953 . S
C94 C93 1.377 . S
C94 C95 1.369 . S
C95 H75 0.945 . S
C95 C90 1.385 . S
C95 C94 1.369 . S
C96 C88 1.457 . S
C96 C97 1.372 1_545 S
C96 C101 1.364 1_455 S
C97 H76 0.952 . S
C97 C96 1.372 1_565 S
C97 C98 1.389 . S
C98 H77 0.949 . S
C98 C97 1.389 . S
C98 C99 1.387 1_565 S
C99 C98 1.387 1_545 S
C99 C100 1.372 1_455 S
C100 H78 0.950 . S
C100 C99 1.372 1_655 S
C100 C101 1.379 . S
C101 H79 0.948 . S
C101 C96 1.364 1_655 S
C101 C100 1.379 . S
C102 C71 1.383 . S
C102 C89 1.479 . S
C102 C103 1.398 . S
C103 C68 1.382 . S
C103 H80 0.951 . S
C103 C102 1.398 . S
C104 C105 1.384 . S
C104 H117 0.947 . S
C104 C139 1.382 . S
C105 C104 1.384 . S
C105 C106 1.378 . S
C106 C105 1.378 . S
C106 C107 1.378 . S
C106 H118 0.952 . S
C107 C106 1.378 . S
C107 H119 0.950 . S
C107 C138 1.383 . S
H108 C127 0.947 . S
H109 C128 0.946 . S
H110 C130 0.953 . S
H111 C131 0.945 . S
H112 C133 0.952 . S
H113 C134 0.949 . S
H114 C136 0.950 . S
H115 C137 0.953 . S
H116 C139 0.951 . S
H117 C104 0.947 . S
H118 C106 0.952 . S
H119 C107 0.950 . S
N120 C123 1.373 1_565 S
N120 C125 1.373 1_455 S
N121 C123 1.371 . S
N121 C124 1.378 . S
N122 C124 1.356 1_665 S
N122 C125 1.377 . S
C123 N120 1.373 1_545 S
C123 N121 1.371 . S
C123 C126 1.480 . S
C124 N121 1.378 . S
C124 N122 1.356 1_445 S
C124 C132 1.457 . S
C125 N120 1.373 1_655 S
C125 N122 1.377 . S
C125 C138 1.479 . S
C126 C123 1.480 . S
C126 C127 1.383 . S
C126 C131 1.385 . S
C127 H108 0.947 . S
C127 C126 1.383 . S
C127 C128 1.388 . S
C128 H109 0.946 . S
C128 C127 1.388 . S
C128 C129 1.384 . S
C129 C128 1.384 . S
C129 C130 1.377 . S
C130 H110 0.953 . S
C130 C129 1.377 . S
C130 C131 1.369 . S
C131 H111 0.945 . S
C131 C126 1.385 . S
C131 C130 1.369 . S
C132 C124 1.457 . S
C132 C133 1.375 . S
C132 C137 1.355 1_445 S
C133 H112 0.952 . S
C133 C132 1.375 . S
C133 C134 1.389 . S
C134 H113 0.949 . S
C134 C133 1.389 . S
C134 C135 1.387 . S
C135 C134 1.387 . S
C135 C136 1.372 1_445 S
C136 H114 0.950 . S
C136 C135 1.372 1_665 S
C136 C137 1.380 . S
C137 H115 0.953 . S
C137 C132 1.355 1_665 S
C137 C136 1.380 . S
C138 C107 1.383 . S
C138 C125 1.479 . S
C138 C139 1.398 . S
C139 C104 1.382 . S
C139 H116 0.951 . S
C139 C138 1.398 . S
C140 C141 1.384 . S
C140 H153 0.947 . S
C140 C175 1.382 . S
C141 C140 1.384 . S
C141 C142 1.378 1_556 S
C142 C141 1.378 1_554 S
C142 C143 1.378 1_554 S
C142 H154 0.952 . S
C143 C142 1.378 1_556 S
C143 H155 0.950 1_556 S
C143 C174 1.383 . S
H144 C163 0.949 1_554 S
H145 C164 0.946 . S
H146 C166 0.953 . S
H147 C167 0.945 . S
H148 C169 0.952 . S
H149 C170 0.949 . S
H150 C172 0.950 . S
H151 C173 0.948 . S
H152 C175 0.951 . S
H153 C140 0.947 . S
H154 C142 0.952 . S
H155 C143 0.950 1_554 S
N156 C159 1.382 . S
N156 C161 1.363 . S
N157 C159 1.371 . S
N157 C160 1.372 . S
N158 C160 1.361 . S
N158 C161 1.377 . S
C159 N156 1.382 . S
C159 N157 1.371 . S
C159 C162 1.480 . S
C160 N157 1.372 . S
C160 N158 1.361 . S
C160 C168 1.457 . S
C161 N156 1.363 . S
C161 N158 1.377 . S
C161 C174 1.479 . S
C162 C159 1.480 . S
C162 C163 1.383 . S
C162 C167 1.385 . S
C163 H144 0.949 1_556 S
C163 C162 1.383 . S
C163 C164 1.388 1_556 S
C164 H145 0.946 . S
C164 C163 1.388 1_554 S
C164 C165 1.384 1_554 S
C165 C164 1.384 1_556 S
C165 C166 1.377 . S
C166 H146 0.953 . S
C166 C165 1.377 . S
C166 C167 1.369 . S
C167 H147 0.945 . S
C167 C162 1.385 . S
C167 C166 1.369 . S
C168 C160 1.457 . S
C168 C169 1.372 . S
C168 C173 1.364 . S
C169 H148 0.952 . S
C169 C168 1.372 . S
C169 C170 1.389 . S
C170 H149 0.949 . S
C170 C169 1.389 . S
C170 C171 1.387 . S
C171 C170 1.387 . S
C171 C172 1.372 . S
C172 H150 0.950 . S
C172 C171 1.372 . S
C172 C173 1.379 . S
C173 H151 0.948 . S
C173 C168 1.364 . S
C173 C172 1.379 . S
C174 C143 1.383 . S
C174 C161 1.479 . S
C174 C175 1.398 . S
C175 C140 1.382 . S
C175 H152 0.951 . S
C175 C174 1.398 . S
C176 C177 1.384 . S
C176 H189 0.947 . S
C176 C211 1.382 . S
C177 C176 1.384 . S
C177 C178 1.378 1_554 S
C178 C177 1.378 1_556 S
C178 C179 1.378 1_556 S
C178 H190 0.952 . S
C179 C178 1.378 1_554 S
C179 H191 0.950 . S
C179 C210 1.383 . S
H180 C199 0.947 . S
H181 C200 0.946 1_556 S
H182 C202 0.953 . S
H183 C203 0.945 . S
H184 C205 0.952 . S
H185 C206 0.949 . S
H186 C208 0.950 . S
H187 C209 0.948 . S
H188 C211 0.951 . S
H189 C176 0.947 . S
H190 C178 0.952 . S
H191 C179 0.950 . S
N192 C195 1.382 . S
N192 C197 1.363 . S
N193 C195 1.371 . S
N193 C196 1.372 . S
N194 C196 1.361 . S
N194 C197 1.377 . S
C195 N192 1.382 . S
C195 N193 1.371 . S
C195 C198 1.480 . S
C196 N193 1.372 . S
C196 N194 1.361 . S
C196 C204 1.457 . S
C197 N192 1.363 . S
C197 N194 1.377 . S
C197 C210 1.479 . S
C198 C195 1.480 . S
C198 C199 1.383 . S
C198 C203 1.385 . S
C199 H180 0.947 . S
C199 C198 1.383 . S
C199 C200 1.388 . S
C200 H181 0.946 1_554 S
C200 C199 1.388 . S
C200 C201 1.384 . S
C201 C200 1.384 . S
C201 C202 1.377 . S
C202 H182 0.953 . S
C202 C201 1.377 . S
C202 C203 1.369 . S
C203 H183 0.945 . S
C203 C198 1.385 . S
C203 C202 1.369 . S
C204 C196 1.457 . S
C204 C205 1.372 . S
C204 C209 1.364 . S
C205 H184 0.952 . S
C205 C204 1.372 . S
C205 C206 1.389 . S
C206 H185 0.949 . S
C206 C205 1.389 . S
C206 C207 1.387 . S
C207 C206 1.387 . S
C207 C208 1.372 . S
C208 H186 0.950 . S
C208 C207 1.372 . S
C208 C209 1.379 . S
C209 H187 0.948 . S
C209 C204 1.364 . S
C209 C208 1.379 . S
C210 C179 1.383 . S
C210 C197 1.479 . S
C210 C211 1.398 . S
C211 C176 1.382 . S
C211 H188 0.951 . S
C211 C210 1.398 . S
H212 C220 0.950 . S
H213 C225 0.950 . S
H214 C222 0.950 . S
H215 C224 0.950 . S
H216 C226 0.950 . S
H217 C228 0.950 . S
H218 C230 0.950 . S
H219 C231 0.950 . S
C220 H212 0.950 . S
C220 C221 1.386 . S
C220 C222 1.391 . S
C221 C220 1.386 . S
C221 C225 1.393 1_554 S
C222 H214 0.950 . S
C222 C220 1.391 . S
C222 C223 1.400 . S
C223 C222 1.400 . S
C223 C224 1.398 1_554 S
C223 C229 1.491 . S
C224 H215 0.950 . S
C224 C223 1.398 1_556 S
C224 C225 1.391 . S
C225 H213 0.950 . S
C225 C221 1.393 1_556 S
C225 C224 1.391 . S
C226 H216 0.950 . S
C226 C227 1.386 1_556 S
C226 C228 1.391 . S
C227 C226 1.386 1_554 S
C227 C231 1.393 . S
C228 H217 0.950 . S
C228 C226 1.391 . S
C228 C229 1.400 1_556 S
C229 C223 1.491 . S
C229 C228 1.400 1_554 S
C229 C230 1.398 . S
C230 H218 0.950 . S
C230 C229 1.398 . S
C230 C231 1.391 . S
C231 H219 0.950 . S
C231 C227 1.393 . S
C231 C230 1.391 . S
H232 C240 0.950 . S
H233 C245 0.950 . S
H234 C242 0.950 . S
H235 C244 0.950 . S
H236 C246 0.950 . S
H237 C248 0.950 . S
H238 C250 0.950 . S
H239 C251 0.950 . S
C240 H232 0.950 . S
C240 C241 1.386 1_556 S
C240 C242 1.391 . S
C241 C240 1.386 1_554 S
C241 C245 1.393 . S
C242 H234 0.950 . S
C242 C240 1.391 . S
C242 C243 1.377 1_556 S
C243 C242 1.377 1_554 S
C243 C244 1.423 . S
C243 C249 1.488 1_554 S
C244 H235 0.950 . S
C244 C243 1.423 . S
C244 C245 1.391 . S
C245 H233 0.950 . S
C245 C241 1.393 . S
C245 C244 1.391 . S
C246 H236 0.950 . S
C246 C247 1.386 1_554 S
C246 C248 1.391 . S
C247 C246 1.386 1_556 S
C247 C251 1.393 . S
C248 H237 0.950 . S
C248 C246 1.391 . S
C248 C249 1.378 1_554 S
C249 C243 1.488 1_556 S
C249 C248 1.378 1_556 S
C249 C250 1.423 . S
C250 H238 0.950 . S
C250 C249 1.423 . S
C250 C251 1.391 . S
C251 H239 0.950 . S
C251 C247 1.393 . S
C251 C250 1.391 . S
H252 C260 0.950 . S
H253 C265 0.950 . S
H254 C262 0.950 . S
H255 C264 0.950 . S
H256 C266 0.950 . S
H257 C268 0.950 . S
H258 C270 0.950 . S
H259 C271 0.950 . S
C260 H252 0.950 . S
C260 C261 1.386 . S
C260 C262 1.391 . S
C261 C260 1.386 . S
C261 C265 1.393 1_554 S
C262 H254 0.950 . S
C262 C260 1.391 . S
C262 C263 1.400 . S
C263 C262 1.400 . S
C263 C264 1.398 1_554 S
C263 C269 1.491 . S
C264 H255 0.950 . S
C264 C263 1.398 1_556 S
C264 C265 1.391 . S
C265 H253 0.950 . S
C265 C261 1.393 1_556 S
C265 C264 1.391 . S
C266 H256 0.950 . S
C266 C267 1.386 1_556 S
C266 C268 1.391 . S
C267 C266 1.386 1_554 S
C267 C271 1.393 . S
C268 H257 0.950 . S
C268 C266 1.391 . S
C268 C269 1.400 1_556 S
C269 C263 1.491 . S
C269 C268 1.400 1_554 S
C269 C270 1.398 . S
C270 H258 0.950 . S
C270 C269 1.398 . S
C270 C271 1.391 . S
C271 H259 0.950 . S
C271 C267 1.393 . S
C271 C270 1.391 . S
H272 C280 0.950 . S
H273 C285 0.950 . S
H274 C282 0.950 . S
H275 C284 0.950 . S
H276 C286 0.950 . S
H277 C288 0.950 . S
H278 C290 0.950 . S
H279 C291 0.950 . S
C280 H272 0.950 . S
C280 C281 1.386 . S
C280 C282 1.391 . S
C281 C280 1.386 . S
C281 C285 1.393 1_554 S
C282 H274 0.950 . S
C282 C280 1.391 . S
C282 C283 1.400 . S
C283 C282 1.400 . S
C283 C284 1.398 1_554 S
C283 C289 1.491 . S
C284 H275 0.950 . S
C284 C283 1.398 1_556 S
C284 C285 1.391 . S
C285 H273 0.950 . S
C285 C281 1.393 1_556 S
C285 C284 1.391 . S
C286 H276 0.950 . S
C286 C287 1.386 . S
C286 C288 1.391 . S
C287 C286 1.386 . S
C287 C291 1.393 1_556 S
C288 H277 0.950 . S
C288 C286 1.391 . S
C288 C289 1.392 1_556 S
C289 C283 1.491 . S
C289 C288 1.392 1_554 S
C289 C290 1.406 . S
C290 H278 0.950 . S
C290 C289 1.406 . S
C290 C291 1.391 . S
C291 H279 0.950 . S
C291 C287 1.393 1_554 S
C291 C290 1.391 . S
H292 C300 0.950 . S
H293 C305 0.950 . S
H294 C302 0.950 . S
H295 C304 0.950 . S
H296 C306 0.950 . S
H297 C308 0.950 . S
H298 C310 0.950 . S
H299 C311 0.950 . S
C300 H292 0.950 . S
C300 C301 1.386 . S
C300 C302 1.391 . S
C301 C300 1.386 . S
C301 C305 1.393 . S
C302 H294 0.950 . S
C302 C300 1.391 . S
C302 C303 1.400 . S
C303 C302 1.400 . S
C303 C304 1.398 . S
C303 C309 1.491 . S
C304 H295 0.950 . S
C304 C303 1.398 . S
C304 C305 1.391 . S
C305 H293 0.950 . S
C305 C301 1.393 . S
C305 C304 1.391 . S
C306 H296 0.950 . S
C306 C307 1.386 . S
C306 C308 1.391 . S
C307 C306 1.386 . S
C307 C311 1.393 . S
C308 H297 0.950 . S
C308 C306 1.391 . S
C308 C309 1.400 . S
C309 C303 1.491 . S
C309 C308 1.400 . S
C309 C310 1.398 . S
C310 H298 0.950 . S
C310 C309 1.398 . S
C310 C311 1.391 . S
C311 H299 0.950 . S
C311 C307 1.393 . S
C311 C310 1.391 . S
H312 C320 0.950 . S
H313 C325 0.950 . S
H314 C322 0.950 . S
H315 C324 0.950 . S
H316 C326 0.950 . S
H317 C328 0.950 . S
H318 C330 0.950 . S
H319 C331 0.950 . S
C320 H312 0.950 . S
C320 C321 1.386 . S
C320 C322 1.391 . S
C321 C320 1.386 . S
C321 C325 1.393 . S
C322 H314 0.950 . S
C322 C320 1.391 . S
C322 C323 1.400 . S
C323 C322 1.400 . S
C323 C324 1.398 . S
C323 C329 1.491 . S
C324 H315 0.950 . S
C324 C323 1.398 . S
C324 C325 1.391 . S
C325 H313 0.950 . S
C325 C321 1.393 . S
C325 C324 1.391 . S
C326 H316 0.950 . S
C326 C327 1.386 . S
C326 C328 1.391 . S
C327 C326 1.386 . S
C327 C331 1.393 . S
C328 H317 0.950 . S
C328 C326 1.391 . S
C328 C329 1.400 . S
C329 C323 1.491 . S
C329 C328 1.400 . S
C329 C330 1.398 . S
C330 H318 0.950 . S
C330 C329 1.398 . S
C330 C331 1.391 . S
C331 H319 0.950 . S
C331 C327 1.393 . S
C331 C330 1.391 . S
H332 C340 0.950 . S
H333 C345 0.950 . S
H334 C342 0.950 . S
H335 C344 0.950 . S
H336 C346 0.950 . S
H337 C348 0.950 . S
H338 C350 0.950 . S
H339 C351 0.950 . S
C340 H332 0.950 . S
C340 C341 1.386 . S
C340 C342 1.391 . S
C341 C340 1.386 . S
C341 C345 1.393 . S
C342 H334 0.950 . S
C342 C340 1.391 . S
C342 C343 1.400 . S
C343 C342 1.400 . S
C343 C344 1.398 . S
C343 C349 1.491 . S
C344 H335 0.950 . S
C344 C343 1.398 . S
C344 C345 1.391 . S
C345 H333 0.950 . S
C345 C341 1.393 . S
C345 C344 1.391 . S
C346 H336 0.950 . S
C346 C347 1.386 . S
C346 C348 1.391 . S
C347 C346 1.386 . S
C347 C351 1.393 . S
C348 H337 0.950 . S
C348 C346 1.391 . S
C348 C349 1.400 . S
C349 C343 1.491 . S
C349 C348 1.400 . S
C349 C350 1.398 . S
C350 H338 0.950 . S
C350 C349 1.398 . S
C350 C351 1.391 . S
C351 H339 0.950 . S
C351 C347 1.393 . S
C351 C350 1.391 . S
H352 C360 0.950 . S
H353 C365 0.950 . S
H354 C362 0.950 . S
H355 C364 0.950 . S
H356 C366 0.950 . S
H357 C368 0.950 . S
H358 C370 0.950 . S
H359 C371 0.950 . S
C360 H352 0.950 . S
C360 C361 1.386 . S
C360 C362 1.391 . S
C361 C360 1.386 . S
C361 C365 1.393 . S
C362 H354 0.950 . S
C362 C360 1.391 . S
C362 C363 1.400 . S
C363 C362 1.400 . S
C363 C364 1.398 . S
C363 C369 1.491 . S
C364 H355 0.950 . S
C364 C363 1.398 . S
C364 C365 1.391 . S
C365 H353 0.950 . S
C365 C361 1.393 . S
C365 C364 1.391 . S
C366 H356 0.950 . S
C366 C367 1.386 . S
C366 C368 1.391 . S
C367 C366 1.386 . S
C367 C371 1.393 . S
C368 H357 0.950 . S
C368 C366 1.391 . S
C368 C369 1.400 . S
C369 C363 1.491 . S
C369 C368 1.400 . S
C369 C370 1.398 . S
C370 H358 0.950 . S
C370 C369 1.398 . S
C370 C371 1.391 . S
C371 H359 0.950 . S
C371 C367 1.393 . S
C371 C370 1.391 . S
H372 C380 0.950 . S
H373 C385 0.950 . S
H374 C382 0.950 . S
H375 C384 0.950 . S
H376 C386 0.950 . S
H377 C388 0.950 . S
H378 C390 0.950 . S
H379 C391 0.950 . S
C380 H372 0.950 . S
C380 C381 1.386 1_655 S
C380 C382 1.391 . S
C381 C380 1.386 1_455 S
C381 C385 1.393 1_545 S
C382 H374 0.950 . S
C382 C380 1.391 . S
C382 C383 1.400 1_655 S
C383 C382 1.400 1_455 S
C383 C384 1.398 1_545 S
C383 C389 1.491 . S
C384 H375 0.950 . S
C384 C383 1.398 1_565 S
C384 C385 1.391 . S
C385 H373 0.950 . S
C385 C381 1.393 1_565 S
C385 C384 1.391 . S
C386 H376 0.950 . S
C386 C387 1.386 1_565 S
C386 C388 1.391 . S
C387 C386 1.386 1_545 S
C387 C391 1.393 1_455 S
C388 H377 0.950 . S
C388 C386 1.391 . S
C388 C389 1.400 1_565 S
C389 C383 1.491 . S
C389 C388 1.400 1_545 S
C389 C390 1.398 1_455 S
C390 H378 0.950 . S
C390 C389 1.398 1_655 S
C390 C391 1.391 . S
C391 H379 0.950 . S
C391 C387 1.393 1_655 S
C391 C390 1.391 . S
H392 C400 0.950 . S
H393 C405 0.950 . S
H394 C402 0.950 . S
H395 C404 0.950 . S
H396 C406 0.950 . S
H397 C408 0.950 . S
H398 C410 0.950 . S
H399 C411 0.950 . S
C400 H392 0.950 . S
C400 C401 1.386 . S
C400 C402 1.391 . S
C401 C400 1.386 . S
C401 C405 1.393 1_445 S
C402 H394 0.950 . S
C402 C400 1.391 . S
C402 C403 1.400 . S
C403 C402 1.400 . S
C403 C404 1.398 1_445 S
C403 C409 1.491 . S
C404 H395 0.950 . S
C404 C403 1.398 1_665 S
C404 C405 1.391 . S
C405 H393 0.950 . S
C405 C401 1.393 1_665 S
C405 C404 1.391 . S
C406 H396 0.950 . S
C406 C407 1.386 1_665 S
C406 C408 1.391 . S
C407 C406 1.386 1_445 S
C407 C411 1.393 . S
C408 H397 0.950 . S
C408 C406 1.391 . S
C408 C409 1.400 1_665 S
C409 C403 1.491 . S
C409 C408 1.400 1_445 S
C409 C410 1.398 . S
C410 H398 0.950 . S
C410 C409 1.398 . S
C410 C411 1.391 . S
C411 H399 0.950 . S
C411 C407 1.393 . S
C411 C410 1.391 . S
H412 C420 0.950 . S
H413 C425 0.950 . S
H414 C422 0.950 . S
H415 C424 0.950 . S
H416 C426 0.950 . S
H417 C428 0.950 . S
H418 C430 0.950 . S
H419 C431 0.950 . S
C420 H412 0.950 . S
C420 C421 1.386 . S
C420 C422 1.391 . S
C421 C420 1.386 . S
C421 C425 1.393 . S
C422 H414 0.950 . S
C422 C420 1.391 . S
C422 C423 1.400 . S
C423 C422 1.400 . S
C423 C424 1.398 . S
C423 C429 1.491 . S
C424 H415 0.950 . S
C424 C423 1.398 . S
C424 C425 1.391 . S
C425 H413 0.950 . S
C425 C421 1.393 . S
C425 C424 1.391 . S
C426 H416 0.950 . S
C426 C427 1.386 . S
C426 C428 1.391 . S
C427 C426 1.386 . S
C427 C431 1.393 . S
C428 H417 0.950 . S
C428 C426 1.391 . S
C428 C429 1.400 . S
C429 C423 1.491 . S
C429 C428 1.400 . S
C429 C430 1.398 . S
C430 H418 0.950 . S
C430 C429 1.398 . S
C430 C431 1.391 . S
C431 H419 0.950 . S
C431 C427 1.393 . S
C431 C430 1.391 . S
H432 C440 0.950 . S
H433 C445 0.950 . S
H434 C442 0.950 . S
H435 C444 0.950 . S
H436 C446 0.950 . S
H437 C448 0.950 . S
H438 C450 0.950 . S
H439 C451 0.950 . S
C440 H432 0.950 . S
C440 C441 1.386 . S
C440 C442 1.391 . S
C441 C440 1.386 . S
C441 C445 1.393 . S
C442 H434 0.950 . S
C442 C440 1.391 . S
C442 C443 1.400 . S
C443 C442 1.400 . S
C443 C444 1.398 . S
C443 C449 1.491 . S
C444 H435 0.950 . S
C444 C443 1.398 . S
C444 C445 1.391 . S
C445 H433 0.950 . S
C445 C441 1.393 . S
C445 C444 1.391 . S
C446 H436 0.950 . S
C446 C447 1.386 . S
C446 C448 1.391 . S
C447 C446 1.386 . S
C447 C451 1.393 . S
C448 H437 0.950 . S
C448 C446 1.391 . S
C448 C449 1.400 . S
C449 C443 1.491 . S
C449 C448 1.400 . S
C449 C450 1.398 . S
C450 H438 0.950 . S
C450 C449 1.398 . S
C450 C451 1.391 . S
C451 H439 0.950 . S
C451 C447 1.393 . S
C451 C450 1.391 . S
C227 C177 1.466 . S
C221 C29 1.493 . S
C241 C8 1.476 . S
C247 C141 1.440 . S
C261 C0 1.468 . S
C267 C201 1.400 . S
C281 C17 1.488 . S
C287 C165 1.419 . S
C301 C63 1.494 . S
C307 C105 1.451 . S
C321 C42 1.477 . S
C327 C69 1.453 . S
C347 C129 1.422 . S
C341 C34 1.468 . S
C367 C93 1.428 . S
C361 C51 1.481 . S
C381 C4 1.486 . S
C387 C99 1.477 . S
C401 C13 1.482 . S
C407 C135 1.485 . S
C427 C171 1.480 . S
C421 C38 1.485 . S
C441 C47 1.481 . S
C447 C207 1.480 . S
