# Generated by pormake.
# Topology anh, (6,3)-cn, num edge types: 1
# Building blocks:
#     Node 0, Type 0, BuildingBlock: HISSIN_clean_sbu_0, # of connection points: 6
#     Node 1, Type 0, BuildingBlock: HISSIN_clean_sbu_0, # of connection points: 6
#     Node 2, Type 0, BuildingBlock: HISSIN_clean_sbu_0, # of connection points: 6
#     Node 3, Type 1, BuildingBlock: CUQRIR_clean_linker_1, # of connection points: 3
#     Node 4, Type 1, BuildingBlock: CUQRIR_clean_linker_1, # of connection points: 3
#     Node 5, Type 1, BuildingBlock: CUQRIR_clean_linker_1, # of connection points: 3
#     Node 6, Type 1, BuildingBlock: CUQRIR_clean_linker_1, # of connection points: 3
#     Node 7, Type 1, BuildingBlock: CUQRIR_clean_linker_1, # of connection points: 3
#     Node 8, Type 1, BuildingBlock: CUQRIR_clean_linker_1, # of connection points: 3
#     Edge 9, Type (0, 1), BuildingBlock: AJUNOK_clean_linker_0, # of connection points: 2
#     Edge 10, Type (0, 1), BuildingBlock: AJUNOK_clean_linker_0, # of connection points: 2
#     Edge 11, Type (0, 1), BuildingBlock: AJUNOK_clean_linker_0, # of connection points: 2
#     Edge 12, Type (0, 1), BuildingBlock: AJUNOK_clean_linker_0, # of connection points: 2
#     Edge 13, Type (0, 1), BuildingBlock: AJUNOK_clean_linker_0, # of connection points: 2
#     Edge 14, Type (0, 1), BuildingBlock: AJUNOK_clean_linker_0, # of connection points: 2
#     Edge 15, Type (0, 1), BuildingBlock: AJUNOK_clean_linker_0, # of connection points: 2
#     Edge 16, Type (0, 1), BuildingBlock: AJUNOK_clean_linker_0, # of connection points: 2
#     Edge 17, Type (0, 1), BuildingBlock: AJUNOK_clean_linker_0, # of connection points: 2
#     Edge 18, Type (0, 1), BuildingBlock: AJUNOK_clean_linker_0, # of connection points: 2
#     Edge 19, Type (0, 1), BuildingBlock: AJUNOK_clean_linker_0, # of connection points: 2
#     Edge 20, Type (0, 1), BuildingBlock: AJUNOK_clean_linker_0, # of connection points: 2
#     Edge 21, Type (0, 1), BuildingBlock: AJUNOK_clean_linker_0, # of connection points: 2
#     Edge 22, Type (0, 1), BuildingBlock: AJUNOK_clean_linker_0, # of connection points: 2
#     Edge 23, Type (0, 1), BuildingBlock: AJUNOK_clean_linker_0, # of connection points: 2
#     Edge 24, Type (0, 1), BuildingBlock: AJUNOK_clean_linker_0, # of connection points: 2
#     Edge 25, Type (0, 1), BuildingBlock: AJUNOK_clean_linker_0, # of connection points: 2
#     Edge 26, Type (0, 1), BuildingBlock: AJUNOK_clean_linker_0, # of connection points: 2
# Relax obj value: 0.449
# Max RMSD: 0.209
# Mean RMSD: 0.168
data_MOF--net-anh--node1-HISSIN_clean_sbu_0--node2-CUQRIR_clean_linker_1--edge1-AJUNOK_clean_linker_0
_symmetry_space_group_name_H-M    P1
_symmetry_Int_Tables_number       1
_symmetry_cell_setting            triclinic
loop_
_symmetry_equiv_pos_as_xyz
'x, y, z'
_cell_length_a     20.516833
_cell_length_b     20.271368
_cell_length_c     33.960094
_cell_angle_alpha  89.042048
_cell_angle_beta   90.170615
_cell_angle_gamma 120.75081
loop_
_atom_site_label
_atom_site_type_symbol
_atom_site_fract_x
_atom_site_fract_y
_atom_site_fract_z
_atom_type_partial_charge
Eu0 Eu 1.06517 0.55635 0.13851 0.0
Eu1 Eu 1.14152 0.72368 0.16983 0.0
C2 C 1.08104 0.58944 0.2352 0.0
C3 C 1.03488 0.36123 0.12933 0.0
C4 C 1.08602 0.38006 0.16063 0.0
C5 C 0.99111 0.22738 0.14077 0.0
C6 C 1.08425 0.32181 0.18403 0.0
C7 C 0.99325 0.28539 0.11711 0.0
C8 C 1.02708 0.24519 0.17794 0.0
C9 C 1.01556 0.41742 0.11468 0.0
O10 O 0.24802 0.70444 0.168 0.0
O11 O 1.1903 0.58505 0.14178 0.0
C12 C 0.25363 0.64566 0.15414 0.0
O13 O 1.10205 0.63224 0.0832 0.0
O14 O 0.20886 0.82267 0.20696 0.0
O15 O 1.15333 0.83401 0.15482 0.0
O16 O 0.19879 0.73368 0.11325 0.0
C17 C 1.16787 0.69624 0.08145 0.0
O18 O 0.96055 0.57421 0.13233 0.0
O19 O 1.01727 0.69681 0.15418 0.0
O20 O 1.09895 0.66025 0.2274 0.0
O21 O 0.97864 0.43475 0.13976 0.0
O22 O 1.07052 0.47794 0.09727 0.0
O23 O 1.07295 0.54284 0.20623 0.0
C24 C 0.2782 0.92929 0.16425 0.0
C25 C 0.28866 0.99986 0.15069 0.0
C26 C 0.40077 0.96329 0.13768 0.0
C27 C 0.35619 1.05296 0.13133 0.0
C28 C 0.33403 0.91096 0.15672 0.0
C29 C 0.41358 1.03561 0.12507 0.0
C30 C 0.20569 0.86981 0.18116 0.0
C31 C 0.95533 0.63566 0.14008 0.0
H32 H 1.12112 0.43904 0.16962 0.0
H33 H 0.95032 0.16887 0.13301 0.0
H34 H 1.11808 0.33754 0.21052 0.0
H35 H 0.9557 0.27009 0.09205 0.0
H36 H 0.24489 1.01387 0.15518 0.0
H37 H 0.44396 0.94799 0.13504 0.0
H38 H 0.3646 1.10835 0.12242 0.0
H39 H 0.32662 0.85615 0.16593 0.0
Eu40 Eu 0.71277 1.0282 0.48689 0.0
Eu41 Eu 0.62025 1.11392 0.49135 0.0
C42 C 0.67769 1.07052 0.57362 0.0
C43 C 0.87411 0.99533 0.50051 0.0
C44 C 0.89213 1.03408 0.53641 0.0
C45 C 0.97866 0.97393 0.50899 0.0
C46 C 0.94856 1.03585 0.56024 0.0
C47 C 0.92137 0.97088 0.48549 0.0
C48 C 0.9861 0.99775 0.54835 0.0
C49 C 0.80229 0.97351 0.48103 0.0
O50 O 0.74246 0.21968 0.47913 0.0
O51 O 0.80904 0.15735 0.47833 0.0
C52 C 0.80844 0.22249 0.47472 0.0
O53 O 0.66529 1.02004 0.42672 0.0
O54 O 0.58962 0.19168 0.51767 0.0
O55 O 0.52733 1.12467 0.46724 0.0
O56 O 0.66646 1.13179 0.42972 0.0
C57 C 0.66828 1.07903 0.40904 0.0
O58 O 0.58742 0.92247 0.48457 0.0
O59 O 0.52377 0.98768 0.48161 0.0
O60 O 0.63135 1.08908 0.55643 0.0
O61 O 0.74254 0.94315 0.50404 0.0
O62 O 0.80407 1.02432 0.45638 0.0
O63 O 0.71905 1.05189 0.5524 0.0
C64 C 0.55562 0.25266 0.47019 0.0
C65 C 0.59568 0.27516 0.43429 0.0
C66 C 0.59259 0.38443 0.48187 0.0
C67 C 0.63942 0.35282 0.4241 0.0
C68 C 0.54866 0.30673 0.49197 0.0
C69 C 0.64432 0.40807 0.45023 0.0
C70 C 0.54112 0.18159 0.48999 0.0
C71 C 0.52197 0.92134 0.48077 0.0
H72 H 0.8577 1.056 0.5477 0.0
H73 H 1.00791 0.9457 0.49853 0.0
H74 H 0.95396 1.05561 0.59017 0.0
H75 H 0.9097 0.94315 0.45721 0.0
H76 H 0.60098 0.23407 0.41675 0.0
H77 H 0.59499 0.42574 0.50255 0.0
H78 H 0.67831 0.36977 0.39937 0.0
H79 H 0.5175 0.29024 0.51959 0.0
Eu80 Eu 0.64949 0.61415 0.81581 0.0
Eu81 Eu 0.82308 0.71155 0.8365 0.0
C82 C 0.70667 0.65371 0.90971 0.0
C83 C 0.44482 0.50493 0.83768 0.0
C84 C 0.458 0.4936 0.87729 0.0
C85 C 0.35745 0.54338 0.85904 0.0
C86 C 0.42638 0.51424 0.90748 0.0
C87 C 0.38857 0.52225 0.82892 0.0
C88 C 0.38268 0.54732 0.89804 0.0
C89 C 0.50367 0.5232 0.80795 0.0
O90 O 0.80603 0.58616 0.83179 0.0
O91 O 0.68379 0.52233 0.81012 0.0
C92 C 0.74578 0.52087 0.81921 0.0
O93 O 0.70647 0.6398 0.7556 0.0
O94 O 0.92993 0.7441 0.86591 0.0
O95 O 0.92377 0.82112 0.82282 0.0
O96 O 0.82595 0.67537 0.77603 0.0
C97 C 0.77627 0.65655 0.74815 0.0
O98 O 0.66554 0.73626 0.80572 0.0
O99 O 0.78981 0.80542 0.82301 0.0
O100 O 0.77739 0.69131 0.8981 0.0
O101 O 0.53986 0.59459 0.7957 0.0
O102 O 0.54986 0.49875 0.81583 0.0
O103 O 0.651 0.62152 0.88384 0.0
C104 C 1.0407 0.82653 0.82745 0.0
C105 C 1.07416 0.78333 0.83728 0.0
C106 C 1.15429 0.91654 0.79033 0.0
C107 C 1.14769 0.80782 0.825 0.0
C108 C 1.08042 0.89213 0.80294 0.0
C109 C 1.18976 0.87615 0.80248 0.0
C110 C 0.9676 0.80768 0.84507 0.0
C111 C 0.72755 0.80442 0.8107 0.0
H112 H 0.50005 0.47846 0.88497 0.0
H113 H 0.32266 0.56738 0.85081 0.0
H114 H 0.44439 0.51419 0.9375 0.0
H115 H 0.37685 0.53022 0.79863 0.0
H116 H 1.04516 0.73262 0.85609 0.0
H117 H 1.18477 0.96884 0.77281 0.0
H118 H 1.17324 0.77568 0.83579 0.0
H119 H 1.05557 0.92643 0.79486 0.0
C120 C 0.74202 0.14096 0.18154 0.0
N121 N 0.75624 1.12218 0.21775 0.0
N122 N 0.67308 1.13425 0.18093 0.0
C123 C 0.79933 0.17561 0.14874 0.0
C124 C 0.64568 1.11 0.2179 0.0
N125 N 0.69703 1.10476 0.24051 0.0
C126 C 0.56719 1.08778 0.23169 0.0
H127 H 0.8532 0.22302 0.1605 0.0
H128 H 0.7799 0.19856 0.12447 0.0
H129 H 0.81048 1.13148 0.1371 0.0
H130 H 0.52517 1.05739 0.20814 0.0
H131 H 0.56599 0.14028 0.23899 0.0
H132 H 0.55053 1.05013 0.25836 0.0
C133 C 0.93611 0.70425 0.53578 0.0
N134 N 0.94006 0.72249 0.57438 0.0
N135 N 0.88929 0.62806 0.53099 0.0
C136 C 0.96594 0.76176 0.50204 0.0
C137 C 0.86514 0.60041 0.56789 0.0
N138 N 0.89346 0.65779 0.59402 0.0
C139 C 0.80679 0.51789 0.57747 0.0
H140 H 0.94737 0.80399 0.50565 0.0
H141 H 0.94642 0.73377 0.47314 0.0
H142 H 1.02873 0.79324 0.50181 0.0
H143 H 0.82316 0.4795 0.5633 0.0
H144 H 0.75107 0.50413 0.56525 0.0
H145 H 0.80113 0.50609 0.60968 0.0
C146 C 0.43544 0.86648 0.89765 0.0
N147 N 0.40497 0.82381 0.931 0.0
N148 N 0.40444 0.91031 0.88925 0.0
C149 C 0.48813 0.85777 0.87013 0.0
C150 C 0.35641 0.89512 0.92028 0.0
N151 N 0.35636 0.84236 0.94508 0.0
C152 C 0.30323 0.92544 0.92411 0.0
H153 H 0.54156 0.87319 0.88558 0.0
H154 H 0.50298 0.89595 0.84377 0.0
H155 H 0.46179 0.79721 0.86084 0.0
H156 H 0.26036 0.90204 0.90034 0.0
H157 H 0.33525 0.98879 0.92135 0.0
H158 H 0.27385 0.91058 0.95302 0.0
C159 C 1.16083 0.56976 0.46149 0.0
N160 N 1.10387 0.52313 0.4351 0.0
N161 N 0.2237 0.63141 0.4435 0.0
C162 C 1.15356 0.55862 0.50532 0.0
C163 C 0.2026 0.62058 0.40519 0.0
N164 N 1.13204 0.55744 0.39973 0.0
C165 C 0.25038 0.67549 0.37257 0.0
H166 H 1.09342 0.53191 0.51473 0.0
H167 H 1.18818 0.61432 0.52022 0.0
H168 H 1.17496 0.52035 0.51447 0.0
H169 H 0.31138 0.70711 0.38032 0.0
H170 H 0.23219 0.71792 0.36754 0.0
H171 H 0.24313 0.64477 0.3447 0.0
C172 C 0.74062 0.16188 0.80211 0.0
N173 N 0.7288 1.10383 0.77626 0.0
N174 N 0.73692 0.22201 0.78404 0.0
C175 C 0.75102 0.15812 0.84558 0.0
C176 C 0.72205 0.1976 0.74629 0.0
N177 N 0.71615 1.1277 0.7414 0.0
C178 C 0.71561 0.24446 0.71317 0.0
H179 H 0.72658 1.09784 0.85607 0.0
H180 H 0.72416 0.18555 0.86155 0.0
H181 H 0.81254 0.19047 0.8522 0.0
H182 H 0.74537 0.30636 0.72024 0.0
H183 H 0.65484 0.22447 0.70825 0.0
H184 H 0.73975 0.23748 0.68544 0.0
C185 C 0.61141 0.64848 0.13823 0.0
N186 N 0.66071 0.64345 0.11156 0.0
N187 N 0.54942 0.64779 0.12047 0.0
C188 C 0.62215 0.65106 0.18187 0.0
C189 C 0.56405 0.64267 0.08195 0.0
N190 N 0.62853 0.63915 0.07636 0.0
C191 C 0.51647 0.64595 0.04888 0.0
H192 H 0.64363 0.61284 0.19103 0.0
H193 H 0.56826 0.63409 0.19752 0.0
H194 H 0.66507 0.71054 0.19008 0.0
H195 H 0.55251 0.67783 0.02316 0.0
H196 H 0.48503 0.67435 0.05801 0.0
H197 H 0.47473 0.58673 0.03973 0.0
C198 C 0.40603 0.71068 0.15625 0.0
C199 C 0.33168 0.64597 0.14971 0.0
C200 C 0.47613 0.71051 0.14912 0.0
C201 C 0.47824 0.64511 0.13552 0.0
H202 H 0.41063 0.76352 0.1659 0.0
H203 H 0.52947 0.76343 0.15318 0.0
S204 S 0.30306 0.45948 0.11368 0.0
N205 N 0.26933 0.51349 0.12844 0.0
N206 N 0.39628 0.51367 0.11603 0.0
C207 C 0.40477 0.58031 0.12948 0.0
C208 C 0.33395 0.58049 0.13636 0.0
C209 C 0.95589 0.32063 0.48035 0.0
C210 C 0.88395 0.30032 0.46415 0.0
C211 C 1.02532 0.39156 0.47083 0.0
C212 C 1.02968 0.44871 0.4439 0.0
H213 H 0.95887 0.28117 0.50112 0.0
H214 H 1.07689 0.40091 0.48459 0.0
S215 S 0.86 0.42134 0.38844 0.0
N216 N 0.82514 0.34242 0.41594 0.0
N217 N 0.95043 0.47377 0.40004 0.0
C218 C 0.95799 0.42795 0.42682 0.0
C219 C 0.88746 0.35539 0.43638 0.0
C220 C 0.66705 0.8852 0.78331 0.0
C221 C 0.72812 0.88226 0.80206 0.0
C222 C 0.66772 0.95591 0.77463 0.0
C223 C 0.72898 1.03012 0.78457 0.0
H224 H 0.61755 0.83177 0.77482 0.0
H225 H 0.61866 0.952 0.76034 0.0
S226 S 0.90505 1.05959 0.83292 0.0
N227 N 0.85341 0.96529 0.82919 0.0
N228 N 0.85399 1.09382 0.81373 0.0
C229 C 0.79028 1.02822 0.80319 0.0
C230 C 0.79003 0.95649 0.81158 0.0
C231 C 0.86492 0.69438 0.14771 0.0
C232 C 0.87829 0.63653 0.13277 0.0
C233 C 0.79534 0.69582 0.14151 0.0
C234 C 0.7326 0.64029 0.11906 0.0
H235 H 0.90908 0.73981 0.1649 0.0
H236 H 0.7915 0.7424 0.15411 0.0
S237 S 0.73297 0.47469 0.07285 0.0
N238 N 0.81692 0.52059 0.09413 0.0
N239 N 0.69114 0.52398 0.08237 0.0
C240 C 0.74504 0.58235 0.10383 0.0
C241 C 0.81534 0.58026 0.11064 0.0
C242 C 0.43622 0.77112 0.47007 0.0
C243 C 0.44348 0.84454 0.47445 0.0
C244 C 0.36482 0.70173 0.46234 0.0
C245 C 0.29452 0.69967 0.45903 0.0
H246 H 0.4868 0.76715 0.47171 0.0
H247 H 0.36518 0.6492 0.45779 0.0
S248 S 0.27745 0.8729 0.46729 0.0
N249 N 0.36886 0.90701 0.47435 0.0
N250 N 0.23908 0.77991 0.46018 0.0
C251 C 0.30068 0.772 0.46356 0.0
C252 C 0.37299 0.84255 0.47124 0.0
C253 C 0.80982 0.4344 0.81517 0.0
C254 C 0.74451 0.44243 0.81384 0.0
C255 C 0.8072 0.36263 0.80781 0.0
C256 C 0.73887 0.29267 0.79916 0.0
H257 H 0.86442 0.48476 0.82095 0.0
H258 H 0.86 0.36272 0.80773 0.0
S259 S 0.55051 0.27708 0.79278 0.0
N260 N 0.60804 0.36818 0.80346 0.0
N261 N 0.60424 0.2384 0.79031 0.0
C262 C 0.67357 0.29962 0.79844 0.0
C263 C 0.67603 0.37205 0.80562 0.0
C264 C 0.93231 0.89519 0.59769 0.0
C265 C 0.99838 0.9507 0.57776 0.0
C266 C 0.9158 0.81962 0.6011 0.0
C267 C 0.9679 0.79914 0.5882 0.0
H268 H 0.88628 0.90549 0.60325 0.0
H269 H 0.85817 0.77654 0.60843 0.0
S270 S 1.16387 0.9322 0.55346 0.0
N271 N 1.12561 0.98655 0.55703 0.0
N272 N 1.09823 0.84535 0.56881 0.0
C273 C 1.04149 0.8583 0.5782 0.0
C274 C 1.05657 0.93461 0.57226 0.0
C275 C 0.29994 0.85921 0.7969 0.0
C276 C 0.27313 0.91038 0.79952 0.0
C277 C 0.35483 0.86502 0.8233 0.0
C278 C 0.38873 0.92617 0.8499 0.0
H279 H 0.26708 0.80578 0.78138 0.0
H280 H 0.36078 0.81528 0.82704 0.0
S281 S 0.37605 1.10129 0.846 0.0
N282 N 0.30834 1.04094 0.81639 0.0
N283 N 0.41992 1.05667 0.86187 0.0
C284 C 0.38045 0.9896 0.8424 0.0
C285 C 0.32079 0.98127 0.81751 0.0
C286 C 0.52547 0.16131 0.13879 0.0
C287 C 0.49239 1.09635 0.11473 0.0
C288 C 0.59634 0.18591 0.15571 0.0
C289 C 0.63395 0.14554 0.14885 0.0
H290 H 0.49158 0.18329 0.15078 0.0
H291 H 0.61494 0.22689 0.17929 0.0
S292 S 0.59068 1.00577 0.06994 0.0
N293 N 0.51857 1.02055 0.06977 0.0
N294 N 0.64873 1.06128 0.10452 0.0
C295 C 0.6114 1.09666 0.1166 0.0
C296 C 0.54104 1.07442 0.09808 0.0
C297 C 0.78116 0.47129 0.46267 0.0
C298 C 0.71804 0.4794 0.45507 0.0
C299 C 0.84421 0.52719 0.48269 0.0
C300 C 0.84486 0.59168 0.49695 0.0
H301 H 0.77762 0.41698 0.4581 0.0
H302 H 0.88792 0.5152 0.49162 0.0
S303 S 0.6994 0.64565 0.48054 0.0
N304 N 0.66517 0.56233 0.45853 0.0
N305 N 0.78252 0.66619 0.49848 0.0
C306 C 0.78615 0.60476 0.48612 0.0
C307 C 0.7226 0.54852 0.46481 0.0
C308 C 0.31854 0.61256 0.92469 0.0
C309 C 0.38328 0.60587 0.92366 0.0
C310 C 0.32528 0.6837 0.93054 0.0
C311 C 0.3963 0.74944 0.93743 0.0
H312 H 0.26405 0.56506 0.91582 0.0
H313 H 0.27586 0.68865 0.92554 0.0
S314 S 0.57988 0.75871 0.94802 0.0
N315 N 0.51921 0.66874 0.93651 0.0
N316 N 0.52928 0.80078 0.95128 0.0
C317 C 0.4592 0.74103 0.94286 0.0
C318 C 0.45322 0.66923 0.93544 0.0
C319 C 0.93082 1.11756 0.20512 0.0
C320 C 0.98211 0.19582 0.2124 0.0
C321 C 0.8531 1.08675 0.21217 0.0
C322 C 0.82724 1.13122 0.23005 0.0
H323 H 0.94748 1.08649 0.18592 0.0
H324 H 0.81287 1.03305 0.19866 0.0
S325 S 0.94504 0.31629 0.27934 0.0
N326 N 1.00631 0.29993 0.25661 0.0
N327 N 0.86062 0.24176 0.26995 0.0
C328 C 0.8803 0.19882 0.24833 0.0
C329 C 0.95896 0.23032 0.24069 0.0
C330 C 1.18162 0.72679 0.00865 0.0
C331 C 0.21387 0.72595 0.04506 0.0
C332 C 0.22818 0.76581 0.97584 0.0
C333 C 0.30796 0.80512 0.97878 0.0
H334 H 1.12064 0.69933 0.00583 0.0
H335 H 0.20195 0.76512 0.94802 0.0
S336 S 0.41948 0.81218 0.06586 0.0
N337 N 0.33037 0.76203 0.08079 0.0
N338 N 0.41635 0.83561 0.01943 0.0
C339 C 0.34019 0.80183 0.01441 0.0
C340 C 0.29353 0.76228 0.0475 0.0
C341 C 0.68117 1.03101 0.34378 0.0
C342 C 0.67801 1.08782 0.36578 0.0
C343 C 0.69018 1.03785 0.30275 0.0
C344 C 0.69574 1.10128 0.28263 0.0
H345 H 0.67605 0.98051 0.35822 0.0
H346 H 0.69086 0.99268 0.28651 0.0
S347 S 0.69662 0.26831 0.32551 0.0
N348 N 0.68599 0.21209 0.36367 0.0
N349 N 0.70154 0.22335 0.2866 0.0
C350 C 0.6945 0.15911 0.30399 0.0
C351 C 0.68599 0.1528 0.3456 0.0
C352 C 0.8796 0.67575 0.70237 0.0
C353 C 0.8028 0.65433 0.70791 0.0
C354 C 0.90852 0.67577 0.66523 0.0
C355 C 0.86184 0.65366 0.63228 0.0
H356 H 0.91861 0.69348 0.72686 0.0
H357 H 0.9678 0.69346 0.66207 0.0
S358 S 0.65896 0.59691 0.62927 0.0
N359 N 0.68156 0.61264 0.6763 0.0
N360 N 0.73677 0.61353 0.60616 0.0
C361 C 0.78527 0.63232 0.63691 0.0
C362 C 0.75561 0.63259 0.6748 0.0
C363 C 0.62507 1.06545 0.64217 0.0
C364 C 0.68426 1.07193 0.61823 0.0
C365 C 0.63238 1.07363 0.68353 0.0
C366 C 0.69971 1.09021 0.70327 0.0
H367 H 0.57319 1.0563 0.62876 0.0
H368 H 0.58698 1.07302 0.70002 0.0
S369 S 0.87029 1.10808 0.65559 0.0
N370 N 0.81116 1.0902 0.61867 0.0
N371 N 0.82517 1.10869 0.69568 0.0
C372 C 0.7577 1.09276 0.68016 0.0
C373 C 0.75001 1.08311 0.63801 0.0
C374 C 0.62433 0.58462 0.96986 0.0
C375 C 0.69041 0.64761 0.95352 0.0
C376 C 0.60834 0.5787 0.0107 0.0
C377 C 0.65665 0.63611 0.0373 0.0
H378 H 0.58421 0.53962 0.95091 0.0
H379 H 0.55557 0.53032 0.02146 0.0
S380 S 0.83732 0.81238 0.01046 0.0
N381 N 0.80616 0.76763 0.96826 0.0
N382 N 0.77381 0.75734 0.04411 0.0
C383 C 0.7237 0.69816 0.02166 0.0
C384 C 0.7409 0.70377 0.98016 0.0
C385 C 1.09632 0.51232 0.29154 0.0
C386 C 1.07565 0.56564 0.27826 0.0
C387 C 1.106 0.5021 0.3323 0.0
C388 C 1.09439 0.54382 0.36163 0.0
H389 H 1.11026 0.48219 0.27024 0.0
H390 H 1.12847 0.46587 0.3407 0.0
S391 S 1.03301 0.68471 0.34345 0.0
N392 N 1.03733 0.65524 0.29902 0.0
N393 N 1.05758 0.63737 0.37418 0.0
C394 C 1.06947 0.59351 0.34871 0.0
C395 C 1.05947 0.60389 0.30765 0.0
loop_
_geom_bond_atom_site_label_1
_geom_bond_atom_site_label_2
_geom_bond_distance
_geom_bond_site_symmetry_2
_ccdc_geom_bond_type
Eu0 C9 2.828 . S
Eu0 O11 2.392 1_655 S
Eu0 O13 2.418 . S
Eu0 O18 2.373 . S
Eu0 O21 2.488 . S
Eu0 O22 2.471 . S
Eu0 O23 2.349 . S
Eu1 O10 2.373 . S
Eu1 O14 2.488 . S
Eu1 O15 2.471 . S
Eu1 O16 2.349 . S
Eu1 O19 2.392 1_455 S
Eu1 O20 2.418 . S
Eu1 C30 2.828 . S
C2 O20 1.244 . S
C2 O23 1.265 1_455 S
C3 C4 1.379 . S
C3 C7 1.373 . S
C3 C9 1.505 . S
C4 C3 1.379 . S
C4 C6 1.369 . S
C4 H32 0.930 . S
C5 C7 1.383 . S
C5 C8 1.382 . S
C5 H33 0.930 . S
C6 C4 1.369 . S
C6 C8 1.392 . S
C6 H34 0.930 . S
C7 C3 1.373 . S
C7 C5 1.383 . S
C7 H35 0.931 . S
C8 C5 1.382 . S
C8 C6 1.392 . S
C9 Eu0 2.828 . S
C9 C3 1.505 . S
C9 O21 1.249 . S
C9 O22 1.244 . S
O10 Eu1 2.373 . S
O10 C12 1.258 . S
O11 Eu0 2.392 1_455 S
O11 C12 1.242 . S
C12 O10 1.258 . S
C12 O11 1.242 . S
O13 Eu0 2.418 . S
O13 C17 1.244 . S
O14 Eu1 2.488 . S
O14 C30 1.249 . S
O15 Eu1 2.471 . S
O15 C30 1.244 . S
O16 Eu1 2.349 . S
O16 C17 1.265 1_455 S
C17 O13 1.244 . S
C17 O16 1.265 1_655 S
O18 Eu0 2.373 . S
O18 C31 1.258 . S
O19 Eu1 2.392 1_655 S
O19 C31 1.242 . S
O20 Eu1 2.418 . S
O20 C2 1.244 . S
O21 Eu0 2.488 . S
O21 C9 1.249 . S
O22 Eu0 2.471 . S
O22 C9 1.244 . S
O23 Eu0 2.349 . S
O23 C2 1.265 1_655 S
C24 C25 1.379 . S
C24 C28 1.373 . S
C24 C30 1.505 . S
C25 C24 1.379 . S
C25 C27 1.369 . S
C25 H36 0.930 . S
C26 C28 1.383 . S
C26 C29 1.382 . S
C26 H37 0.930 . S
C27 C25 1.369 . S
C27 C29 1.392 . S
C27 H38 0.930 . S
C28 C24 1.373 . S
C28 C26 1.383 . S
C28 H39 0.931 . S
C29 C26 1.382 . S
C29 C27 1.392 . S
C30 Eu1 2.828 . S
C30 O14 1.249 . S
C30 O15 1.244 . S
C30 C24 1.505 . S
C31 O18 1.258 . S
C31 O19 1.242 . S
H32 C4 0.930 . S
H33 C5 0.930 . S
H34 C6 0.930 . S
H35 C7 0.931 . S
H36 C25 0.930 . S
H37 C26 0.930 . S
H38 C27 0.930 . S
H39 C28 0.931 . S
Eu40 C49 2.828 . S
Eu40 O51 2.392 1_565 S
Eu40 O53 2.418 . S
Eu40 O58 2.373 . S
Eu40 O61 2.488 . S
Eu40 O62 2.471 . S
Eu40 O63 2.349 1_565 S
Eu41 O50 2.373 . S
Eu41 O54 2.488 . S
Eu41 O55 2.471 . S
Eu41 O56 2.349 . S
Eu41 O59 2.392 1_545 S
Eu41 O60 2.418 . S
Eu41 C70 2.828 . S
C42 O60 1.244 . S
C42 O63 1.265 . S
C43 C44 1.379 . S
C43 C47 1.373 . S
C43 C49 1.505 . S
C44 C43 1.379 . S
C44 C46 1.369 . S
C44 H72 0.930 . S
C45 C47 1.383 . S
C45 C48 1.382 . S
C45 H73 0.930 . S
C46 C44 1.369 . S
C46 C48 1.392 . S
C46 H74 0.930 . S
C47 C43 1.373 . S
C47 C45 1.383 . S
C47 H75 0.931 . S
C48 C45 1.382 . S
C48 C46 1.392 . S
C49 Eu40 2.828 . S
C49 C43 1.505 . S
C49 O61 1.249 . S
C49 O62 1.244 . S
O50 Eu41 2.373 . S
O50 C52 1.258 . S
O51 Eu40 2.392 1_545 S
O51 C52 1.242 . S
C52 O50 1.258 . S
C52 O51 1.242 . S
O53 Eu40 2.418 . S
O53 C57 1.244 1_565 S
O54 Eu41 2.488 . S
O54 C70 1.249 . S
O55 Eu41 2.471 . S
O55 C70 1.244 . S
O56 Eu41 2.349 . S
O56 C57 1.265 . S
C57 O53 1.244 1_545 S
C57 O56 1.265 . S
O58 Eu40 2.373 . S
O58 C71 1.258 . S
O59 Eu41 2.392 1_565 S
O59 C71 1.242 . S
O60 Eu41 2.418 . S
O60 C42 1.244 . S
O61 Eu40 2.488 . S
O61 C49 1.249 . S
O62 Eu40 2.471 . S
O62 C49 1.244 . S
O63 Eu40 2.349 1_545 S
O63 C42 1.265 . S
C64 C65 1.379 . S
C64 C68 1.373 . S
C64 C70 1.505 . S
C65 C64 1.379 . S
C65 C67 1.369 . S
C65 H76 0.930 . S
C66 C68 1.383 . S
C66 C69 1.382 . S
C66 H77 0.930 . S
C67 C65 1.369 . S
C67 C69 1.392 . S
C67 H78 0.930 . S
C68 C64 1.373 . S
C68 C66 1.383 . S
C68 H79 0.931 . S
C69 C66 1.382 . S
C69 C67 1.392 . S
C70 Eu41 2.828 . S
C70 O54 1.249 . S
C70 O55 1.244 . S
C70 C64 1.505 . S
C71 O58 1.258 . S
C71 O59 1.242 . S
H72 C44 0.930 . S
H73 C45 0.930 . S
H74 C46 0.930 . S
H75 C47 0.931 . S
H76 C65 0.930 . S
H77 C66 0.930 . S
H78 C67 0.930 . S
H79 C68 0.931 . S
Eu80 C89 2.828 . S
Eu80 O91 2.392 . S
Eu80 O93 2.418 . S
Eu80 O98 2.373 . S
Eu80 O101 2.488 . S
Eu80 O102 2.471 . S
Eu80 O103 2.349 . S
Eu81 O90 2.373 . S
Eu81 O94 2.488 . S
Eu81 O95 2.471 . S
Eu81 O96 2.349 . S
Eu81 O99 2.392 . S
Eu81 O100 2.418 . S
Eu81 C110 2.828 . S
C82 O100 1.244 . S
C82 O103 1.265 . S
C83 C84 1.379 . S
C83 C87 1.373 . S
C83 C89 1.505 . S
C84 C83 1.379 . S
C84 C86 1.369 . S
C84 H112 0.930 . S
C85 C87 1.383 . S
C85 C88 1.382 . S
C85 H113 0.930 . S
C86 C84 1.369 . S
C86 C88 1.392 . S
C86 H114 0.930 . S
C87 C83 1.373 . S
C87 C85 1.383 . S
C87 H115 0.931 . S
C88 C85 1.382 . S
C88 C86 1.392 . S
C89 Eu80 2.828 . S
C89 C83 1.505 . S
C89 O101 1.249 . S
C89 O102 1.244 . S
O90 Eu81 2.373 . S
O90 C92 1.258 . S
O91 Eu80 2.392 . S
O91 C92 1.242 . S
C92 O90 1.258 . S
C92 O91 1.242 . S
O93 Eu80 2.418 . S
O93 C97 1.244 . S
O94 Eu81 2.488 . S
O94 C110 1.249 . S
O95 Eu81 2.471 . S
O95 C110 1.244 . S
O96 Eu81 2.349 . S
O96 C97 1.265 . S
C97 O93 1.244 . S
C97 O96 1.265 . S
O98 Eu80 2.373 . S
O98 C111 1.258 . S
O99 Eu81 2.392 . S
O99 C111 1.242 . S
O100 Eu81 2.418 . S
O100 C82 1.244 . S
O101 Eu80 2.488 . S
O101 C89 1.249 . S
O102 Eu80 2.471 . S
O102 C89 1.244 . S
O103 Eu80 2.349 . S
O103 C82 1.265 . S
C104 C105 1.379 . S
C104 C108 1.373 . S
C104 C110 1.505 . S
C105 C104 1.379 . S
C105 C107 1.369 . S
C105 H116 0.930 . S
C106 C108 1.383 . S
C106 C109 1.382 . S
C106 H117 0.930 . S
C107 C105 1.369 . S
C107 C109 1.392 . S
C107 H118 0.930 . S
C108 C104 1.373 . S
C108 C106 1.383 . S
C108 H119 0.931 . S
C109 C106 1.382 . S
C109 C107 1.392 . S
C110 Eu81 2.828 . S
C110 O94 1.249 . S
C110 O95 1.244 . S
C110 C104 1.505 . S
C111 O98 1.258 . S
C111 O99 1.242 . S
H112 C84 0.930 . S
H113 C85 0.930 . S
H114 C86 0.930 . S
H115 C87 0.931 . S
H116 C105 0.930 . S
H117 C106 0.930 . S
H118 C107 0.930 . S
H119 C108 0.931 . S
C120 N121 1.317 . S
C120 N122 1.348 1_545 S
C120 C123 1.485 . S
N121 C120 1.317 . S
N121 N125 1.370 . S
N122 C120 1.348 1_565 S
N122 C124 1.346 . S
C123 C120 1.485 . S
C123 H127 0.960 . S
C123 H128 0.961 1_545 S
C123 H129 0.960 . S
C124 N122 1.346 . S
C124 N125 1.307 1_565 S
C124 C126 1.486 . S
N125 N121 1.370 . S
N125 C124 1.307 1_545 S
C126 C124 1.486 . S
C126 H130 0.960 . S
C126 H131 0.960 . S
C126 H132 0.959 . S
H127 C123 0.960 . S
H128 C123 0.961 1_565 S
H129 C123 0.960 . S
H130 C126 0.960 . S
H131 C126 0.960 . S
H132 C126 0.959 . S
C133 N134 1.317 . S
C133 N135 1.348 . S
C133 C136 1.485 . S
N134 C133 1.317 . S
N134 N138 1.370 . S
N135 C133 1.348 . S
N135 C137 1.346 . S
C136 C133 1.485 . S
C136 H140 0.960 . S
C136 H141 0.961 . S
C136 H142 0.960 . S
C137 N135 1.346 . S
C137 N138 1.307 . S
C137 C139 1.486 . S
N138 N134 1.370 . S
N138 C137 1.307 . S
C139 C137 1.486 . S
C139 H143 0.960 . S
C139 H144 0.960 . S
C139 H145 0.959 . S
H140 C136 0.960 . S
H141 C136 0.961 . S
H142 C136 0.960 . S
H143 C139 0.960 . S
H144 C139 0.960 . S
H145 C139 0.959 . S
C146 N147 1.317 . S
C146 N148 1.348 1_455 S
C146 C149 1.485 . S
N147 C146 1.317 . S
N147 N151 1.370 . S
N148 C146 1.348 1_655 S
N148 C150 1.346 . S
C149 C146 1.485 . S
C149 H153 0.960 . S
C149 H154 0.961 . S
C149 H155 0.960 . S
C150 N148 1.346 . S
C150 N151 1.307 1_655 S
C150 C152 1.486 . S
N151 N147 1.370 . S
N151 C150 1.307 1_455 S
C152 C150 1.486 . S
C152 H156 0.960 . S
C152 H157 0.960 . S
C152 H158 0.959 . S
H153 C149 0.960 . S
H154 C149 0.961 . S
H155 C149 0.960 . S
H156 C152 0.960 . S
H157 C152 0.960 . S
H158 C152 0.959 . S
C159 N160 1.317 . S
C159 N161 1.348 . S
C159 C162 1.485 . S
N160 C159 1.317 . S
N160 N164 1.370 . S
N161 C159 1.348 . S
N161 C163 1.346 . S
C162 C159 1.485 . S
C162 H166 0.960 . S
C162 H167 0.961 . S
C162 H168 0.960 . S
C163 N161 1.346 . S
C163 N164 1.307 . S
C163 C165 1.486 . S
N164 N160 1.370 . S
N164 C163 1.307 . S
C165 C163 1.486 . S
C165 H169 0.960 . S
C165 H170 0.960 . S
C165 H171 0.959 . S
H166 C162 0.960 . S
H167 C162 0.961 . S
H168 C162 0.960 . S
H169 C165 0.960 . S
H170 C165 0.960 . S
H171 C165 0.959 . S
C172 N173 1.317 . S
C172 N174 1.348 . S
C172 C175 1.485 . S
N173 C172 1.317 . S
N173 N177 1.370 . S
N174 C172 1.348 . S
N174 C176 1.346 . S
C175 C172 1.485 . S
C175 H179 0.960 . S
C175 H180 0.961 . S
C175 H181 0.960 . S
C176 N174 1.346 . S
C176 N177 1.307 . S
C176 C178 1.486 . S
N177 N173 1.370 . S
N177 C176 1.307 . S
C178 C176 1.486 . S
C178 H182 0.960 . S
C178 H183 0.960 . S
C178 H184 0.959 . S
H179 C175 0.960 . S
H180 C175 0.961 . S
H181 C175 0.960 . S
H182 C178 0.960 . S
H183 C178 0.960 . S
H184 C178 0.959 . S
C185 N186 1.317 . S
C185 N187 1.348 . S
C185 C188 1.485 . S
N186 C185 1.317 . S
N186 N190 1.370 . S
N187 C185 1.348 . S
N187 C189 1.346 . S
C188 C185 1.485 . S
C188 H192 0.960 . S
C188 H193 0.961 . S
C188 H194 0.960 . S
C189 N187 1.346 . S
C189 N190 1.307 . S
C189 C191 1.486 . S
N190 N186 1.370 . S
N190 C189 1.307 . S
C191 C189 1.486 . S
C191 H195 0.960 . S
C191 H196 0.960 . S
C191 H197 0.959 . S
H192 C188 0.960 . S
H193 C188 0.961 . S
H194 C188 0.960 . S
H195 C191 0.960 . S
H196 C191 0.960 . S
H197 C191 0.959 . S
C198 C199 1.369 . S
C198 C200 1.419 . S
C198 H202 0.930 . S
C199 C198 1.369 . S
C199 C208 1.429 . S
C200 C198 1.419 . S
C200 C201 1.363 . S
C200 H203 0.929 . S
C201 C200 1.363 . S
C201 C207 1.428 . S
H202 C198 0.930 . S
H203 C200 0.929 . S
S204 N205 1.613 . S
S204 N206 1.610 . S
N205 S204 1.613 . S
N205 C208 1.350 . S
N206 S204 1.610 . S
N206 C207 1.351 . S
C207 C201 1.428 . S
C207 N206 1.351 . S
C207 C208 1.434 . S
C208 C199 1.429 . S
C208 N205 1.350 . S
C208 C207 1.434 . S
C209 C210 1.369 . S
C209 C211 1.419 . S
C209 H213 0.930 . S
C210 C209 1.369 . S
C210 C219 1.429 . S
C211 C209 1.419 . S
C211 C212 1.363 . S
C211 H214 0.929 . S
C212 C211 1.363 . S
C212 C218 1.428 . S
H213 C209 0.930 . S
H214 C211 0.929 . S
S215 N216 1.613 . S
S215 N217 1.610 . S
N216 S215 1.613 . S
N216 C219 1.350 . S
N217 S215 1.610 . S
N217 C218 1.351 . S
C218 C212 1.428 . S
C218 N217 1.351 . S
C218 C219 1.434 . S
C219 C210 1.429 . S
C219 N216 1.350 . S
C219 C218 1.434 . S
C220 C221 1.369 . S
C220 C222 1.419 . S
C220 H224 0.930 . S
C221 C220 1.369 . S
C221 C230 1.429 . S
C222 C220 1.419 . S
C222 C223 1.363 . S
C222 H225 0.929 . S
C223 C222 1.363 . S
C223 C229 1.428 . S
H224 C220 0.930 . S
H225 C222 0.929 . S
S226 N227 1.613 . S
S226 N228 1.610 . S
N227 S226 1.613 . S
N227 C230 1.350 . S
N228 S226 1.610 . S
N228 C229 1.351 . S
C229 C223 1.428 . S
C229 N228 1.351 . S
C229 C230 1.434 . S
C230 C221 1.429 . S
C230 N227 1.350 . S
C230 C229 1.434 . S
C231 C232 1.369 . S
C231 C233 1.419 . S
C231 H235 0.930 . S
C232 C231 1.369 . S
C232 C241 1.429 . S
C233 C231 1.419 . S
C233 C234 1.363 . S
C233 H236 0.929 . S
C234 C233 1.363 . S
C234 C240 1.428 . S
H235 C231 0.930 . S
H236 C233 0.929 . S
S237 N238 1.613 . S
S237 N239 1.610 . S
N238 S237 1.613 . S
N238 C241 1.350 . S
N239 S237 1.610 . S
N239 C240 1.351 . S
C240 C234 1.428 . S
C240 N239 1.351 . S
C240 C241 1.434 . S
C241 C232 1.429 . S
C241 N238 1.350 . S
C241 C240 1.434 . S
C242 C243 1.369 . S
C242 C244 1.419 . S
C242 H246 0.930 . S
C243 C242 1.369 . S
C243 C252 1.429 . S
C244 C242 1.419 . S
C244 C245 1.363 . S
C244 H247 0.929 . S
C245 C244 1.363 . S
C245 C251 1.428 . S
H246 C242 0.930 . S
H247 C244 0.929 . S
S248 N249 1.613 . S
S248 N250 1.610 . S
N249 S248 1.613 . S
N249 C252 1.350 . S
N250 S248 1.610 . S
N250 C251 1.351 . S
C251 C245 1.428 . S
C251 N250 1.351 . S
C251 C252 1.434 . S
C252 C243 1.429 . S
C252 N249 1.350 . S
C252 C251 1.434 . S
C253 C254 1.369 . S
C253 C255 1.419 . S
C253 H257 0.930 . S
C254 C253 1.369 . S
C254 C263 1.429 . S
C255 C253 1.419 . S
C255 C256 1.363 . S
C255 H258 0.929 . S
C256 C255 1.363 . S
C256 C262 1.428 . S
H257 C253 0.930 . S
H258 C255 0.929 . S
S259 N260 1.613 . S
S259 N261 1.610 . S
N260 S259 1.613 . S
N260 C263 1.350 . S
N261 S259 1.610 . S
N261 C262 1.351 . S
C262 C256 1.428 . S
C262 N261 1.351 . S
C262 C263 1.434 . S
C263 C254 1.429 . S
C263 N260 1.350 . S
C263 C262 1.434 . S
C264 C265 1.369 . S
C264 C266 1.419 . S
C264 H268 0.930 . S
C265 C264 1.369 . S
C265 C274 1.429 . S
C266 C264 1.419 . S
C266 C267 1.363 . S
C266 H269 0.929 . S
C267 C266 1.363 . S
C267 C273 1.428 . S
H268 C264 0.930 . S
H269 C266 0.929 . S
S270 N271 1.613 . S
S270 N272 1.610 . S
N271 S270 1.613 . S
N271 C274 1.350 . S
N272 S270 1.610 . S
N272 C273 1.351 . S
C273 C267 1.428 . S
C273 N272 1.351 . S
C273 C274 1.434 . S
C274 C265 1.429 . S
C274 N271 1.350 . S
C274 C273 1.434 . S
C275 C276 1.369 . S
C275 C277 1.419 . S
C275 H279 0.930 . S
C276 C275 1.369 . S
C276 C285 1.429 . S
C277 C275 1.419 . S
C277 C278 1.363 . S
C277 H280 0.929 1_655 S
C278 C277 1.363 . S
C278 C284 1.428 . S
H279 C275 0.930 . S
H280 C277 0.929 1_455 S
S281 N282 1.613 . S
S281 N283 1.610 . S
N282 S281 1.613 . S
N282 C285 1.350 . S
N283 S281 1.610 . S
N283 C284 1.351 . S
C284 C278 1.428 . S
C284 N283 1.351 . S
C284 C285 1.434 . S
C285 C276 1.429 . S
C285 N282 1.350 . S
C285 C284 1.434 . S
C286 C287 1.369 . S
C286 C288 1.419 . S
C286 H290 0.930 . S
C287 C286 1.369 . S
C287 C296 1.429 . S
C288 C286 1.419 . S
C288 C289 1.363 . S
C288 H291 0.929 . S
C289 C288 1.363 . S
C289 C295 1.428 . S
H290 C286 0.930 . S
H291 C288 0.929 . S
S292 N293 1.613 . S
S292 N294 1.610 . S
N293 S292 1.613 . S
N293 C296 1.350 . S
N294 S292 1.610 . S
N294 C295 1.351 . S
C295 C289 1.428 . S
C295 N294 1.351 . S
C295 C296 1.434 . S
C296 C287 1.429 . S
C296 N293 1.350 . S
C296 C295 1.434 . S
C297 C298 1.369 . S
C297 C299 1.419 . S
C297 H301 0.930 . S
C298 C297 1.369 . S
C298 C307 1.429 . S
C299 C297 1.419 . S
C299 C300 1.363 . S
C299 H302 0.929 . S
C300 C299 1.363 . S
C300 C306 1.428 . S
H301 C297 0.930 . S
H302 C299 0.929 . S
S303 N304 1.613 . S
S303 N305 1.610 . S
N304 S303 1.613 . S
N304 C307 1.350 . S
N305 S303 1.610 . S
N305 C306 1.351 . S
C306 C300 1.428 . S
C306 N305 1.351 . S
C306 C307 1.434 . S
C307 C298 1.429 . S
C307 N304 1.350 . S
C307 C306 1.434 . S
C308 C309 1.369 . S
C308 C310 1.419 . S
C308 H312 0.930 . S
C309 C308 1.369 . S
C309 C318 1.429 . S
C310 C308 1.419 . S
C310 C311 1.363 . S
C310 H313 0.929 . S
C311 C310 1.363 . S
C311 C317 1.428 . S
H312 C308 0.930 . S
H313 C310 0.929 . S
S314 N315 1.613 . S
S314 N316 1.610 . S
N315 S314 1.613 . S
N315 C318 1.350 . S
N316 S314 1.610 . S
N316 C317 1.351 . S
C317 C311 1.428 . S
C317 N316 1.351 . S
C317 C318 1.434 . S
C318 C309 1.429 . S
C318 N315 1.350 . S
C318 C317 1.434 . S
C319 C320 1.369 . S
C319 C321 1.419 . S
C319 H323 0.930 . S
C320 C319 1.369 . S
C320 C329 1.429 . S
C321 C319 1.419 . S
C321 C322 1.363 . S
C321 H324 0.929 . S
C322 C321 1.363 . S
C322 C328 1.428 . S
H323 C319 0.930 . S
H324 C321 0.929 . S
S325 N326 1.613 . S
S325 N327 1.610 . S
N326 S325 1.613 . S
N326 C329 1.350 . S
N327 S325 1.610 . S
N327 C328 1.351 . S
C328 C322 1.428 . S
C328 N327 1.351 . S
C328 C329 1.434 . S
C329 C320 1.429 . S
C329 N326 1.350 . S
C329 C328 1.434 . S
C330 C331 1.369 1_655 S
C330 C332 1.419 1_554 S
C330 H334 0.930 . S
C331 C330 1.369 1_455 S
C331 C340 1.429 . S
C332 C330 1.419 1_556 S
C332 C333 1.363 1_655 S
C332 H335 0.929 . S
C333 C332 1.363 1_455 S
C333 C339 1.428 . S
H334 C330 0.930 . S
H335 C332 0.929 . S
S336 N337 1.613 . S
S336 N338 1.610 1_554 S
N337 S336 1.613 . S
N337 C340 1.350 . S
N338 S336 1.610 1_556 S
N338 C339 1.351 . S
C339 C333 1.428 . S
C339 N338 1.351 . S
C339 C340 1.434 1_556 S
C340 C331 1.429 . S
C340 N337 1.350 . S
C340 C339 1.434 1_554 S
C341 C342 1.369 1_565 S
C341 C343 1.419 . S
C341 H345 0.930 . S
C342 C341 1.369 1_545 S
C342 C351 1.429 . S
C343 C341 1.419 . S
C343 C344 1.363 1_565 S
C343 H346 0.929 . S
C344 C343 1.363 1_545 S
C344 C350 1.428 . S
H345 C341 0.930 . S
H346 C343 0.929 . S
S347 N348 1.613 . S
S347 N349 1.610 . S
N348 S347 1.613 . S
N348 C351 1.350 . S
N349 S347 1.610 . S
N349 C350 1.351 . S
C350 C344 1.428 . S
C350 N349 1.351 . S
C350 C351 1.434 . S
C351 C342 1.429 . S
C351 N348 1.350 . S
C351 C350 1.434 . S
C352 C353 1.369 . S
C352 C354 1.419 . S
C352 H356 0.930 . S
C353 C352 1.369 . S
C353 C362 1.429 . S
C354 C352 1.419 . S
C354 C355 1.363 . S
C354 H357 0.929 . S
C355 C354 1.363 . S
C355 C361 1.428 . S
H356 C352 0.930 . S
H357 C354 0.929 . S
S358 N359 1.613 . S
S358 N360 1.610 . S
N359 S358 1.613 . S
N359 C362 1.350 . S
N360 S358 1.610 . S
N360 C361 1.351 . S
C361 C355 1.428 . S
C361 N360 1.351 . S
C361 C362 1.434 . S
C362 C353 1.429 . S
C362 N359 1.350 . S
C362 C361 1.434 . S
C363 C364 1.369 1_565 S
C363 C365 1.419 . S
C363 H367 0.930 . S
C364 C363 1.369 1_545 S
C364 C373 1.429 . S
C365 C363 1.419 . S
C365 C366 1.363 1_565 S
C365 H368 0.929 . S
C366 C365 1.363 1_545 S
C366 C372 1.428 . S
H367 C363 0.930 . S
H368 C365 0.929 . S
S369 N370 1.613 . S
S369 N371 1.610 . S
N370 S369 1.613 . S
N370 C373 1.350 . S
N371 S369 1.610 . S
N371 C372 1.351 . S
C372 C366 1.428 . S
C372 N371 1.351 . S
C372 C373 1.434 . S
C373 C364 1.429 . S
C373 N370 1.350 . S
C373 C372 1.434 . S
C374 C375 1.369 . S
C374 C376 1.419 1_556 S
C374 H378 0.930 . S
C375 C374 1.369 . S
C375 C384 1.429 . S
C376 C374 1.419 1_554 S
C376 C377 1.363 . S
C376 H379 0.929 . S
C377 C376 1.363 . S
C377 C383 1.428 . S
H378 C374 0.930 . S
H379 C376 0.929 . S
S380 N381 1.613 1_554 S
S380 N382 1.610 . S
N381 S380 1.613 1_556 S
N381 C384 1.350 . S
N382 S380 1.610 . S
N382 C383 1.351 . S
C383 C377 1.428 . S
C383 N382 1.351 . S
C383 C384 1.434 1_554 S
C384 C375 1.429 . S
C384 N381 1.350 . S
C384 C383 1.434 1_556 S
C385 C386 1.369 1_655 S
C385 C387 1.419 . S
C385 H389 0.930 . S
C386 C385 1.369 1_455 S
C386 C395 1.429 . S
C387 C385 1.419 . S
C387 C388 1.363 1_655 S
C387 H390 0.929 . S
C388 C387 1.363 1_455 S
C388 C394 1.428 . S
H389 C385 0.930 . S
H390 C387 0.929 . S
S391 N392 1.613 . S
S391 N393 1.610 . S
N392 S391 1.613 . S
N392 C395 1.350 . S
N393 S391 1.610 . S
N393 C394 1.351 . S
C394 C388 1.428 . S
C394 N393 1.351 . S
C394 C395 1.434 . S
C395 C386 1.429 . S
C395 N392 1.350 . S
C395 C394 1.434 . S
C199 C12 2.826 . S
C201 N187 2.774 . S
C210 C52 2.951 . S
C212 N160 2.954 1_655 S
C221 C111 2.977 . S
C223 N173 2.980 1_565 S
C232 C31 3.314 . S
C234 N186 3.328 . S
C245 N161 3.116 . S
C243 C71 3.152 . S
C256 N174 3.096 . S
C254 C92 3.127 . S
C265 C48 0.607 . S
C267 N134 0.568 . S
C276 C109 0.697 . S
C278 N148 0.663 . S
C287 C29 0.894 . S
C289 N122 1.016 . S
C300 N135 0.862 . S
C298 C69 0.825 . S
C311 N147 0.776 . S
C309 C88 0.777 . S
C320 C8 0.650 . S
C322 N121 0.658 . S
C333 N151 1.104 . S
C331 C17 1.130 1_455 S
C342 C57 1.199 . S
C344 N125 1.176 . S
C353 C97 1.068 . S
C355 N138 1.095 . S
C366 N177 1.859 . S
C364 C42 1.750 . S
C377 N190 1.775 . S
C375 C82 1.758 . S
C386 C2 1.725 . S
C388 N164 1.811 . S
