# Generated by pormake.
# Topology ptr, (4,4)-cn, num edge types: 1
# Building blocks:
#     Node 0, Type 0, BuildingBlock: KUFVIS_clean_sbu_0, # of connection points: 4
#     Node 1, Type 0, BuildingBlock: KUFVIS_clean_sbu_0, # of connection points: 4
#     Node 2, Type 0, BuildingBlock: KUFVIS_clean_sbu_0, # of connection points: 4
#     Node 3, Type 0, BuildingBlock: KUFVIS_clean_sbu_0, # of connection points: 4
#     Node 4, Type 0, BuildingBlock: KUFVIS_clean_sbu_0, # of connection points: 4
#     Node 5, Type 0, BuildingBlock: KUFVIS_clean_sbu_0, # of connection points: 4
#     Node 6, Type 0, BuildingBlock: KUFVIS_clean_sbu_0, # of connection points: 4
#     Node 7, Type 0, BuildingBlock: KUFVIS_clean_sbu_0, # of connection points: 4
#     Node 8, Type 0, BuildingBlock: KUFVIS_clean_sbu_0, # of connection points: 4
#     Node 9, Type 0, BuildingBlock: KUFVIS_clean_sbu_0, # of connection points: 4
#     Node 10, Type 0, BuildingBlock: KUFVIS_clean_sbu_0, # of connection points: 4
#     Node 11, Type 0, BuildingBlock: KUFVIS_clean_sbu_0, # of connection points: 4
#     Node 12, Type 0, BuildingBlock: KUFVIS_clean_sbu_0, # of connection points: 4
#     Node 13, Type 0, BuildingBlock: KUFVIS_clean_sbu_0, # of connection points: 4
#     Node 14, Type 0, BuildingBlock: KUFVIS_clean_sbu_0, # of connection points: 4
#     Node 15, Type 0, BuildingBlock: KUFVIS_clean_sbu_0, # of connection points: 4
#     Node 16, Type 0, BuildingBlock: KUFVIS_clean_sbu_0, # of connection points: 4
#     Node 17, Type 0, BuildingBlock: KUFVIS_clean_sbu_0, # of connection points: 4
#     Node 18, Type 1, BuildingBlock: KUFVIS_clean_linker_0, # of connection points: 4
#     Node 19, Type 1, BuildingBlock: KUFVIS_clean_linker_0, # of connection points: 4
#     Node 20, Type 1, BuildingBlock: KUFVIS_clean_linker_0, # of connection points: 4
#     Node 21, Type 1, BuildingBlock: KUFVIS_clean_linker_0, # of connection points: 4
#     Node 22, Type 1, BuildingBlock: KUFVIS_clean_linker_0, # of connection points: 4
#     Node 23, Type 1, BuildingBlock: KUFVIS_clean_linker_0, # of connection points: 4
#     Node 24, Type 1, BuildingBlock: KUFVIS_clean_linker_0, # of connection points: 4
#     Node 25, Type 1, BuildingBlock: KUFVIS_clean_linker_0, # of connection points: 4
#     Node 26, Type 1, BuildingBlock: KUFVIS_clean_linker_0, # of connection points: 4
#     Node 27, Type 1, BuildingBlock: KUFVIS_clean_linker_0, # of connection points: 4
#     Node 28, Type 1, BuildingBlock: KUFVIS_clean_linker_0, # of connection points: 4
#     Node 29, Type 1, BuildingBlock: KUFVIS_clean_linker_0, # of connection points: 4
#     Node 30, Type 1, BuildingBlock: KUFVIS_clean_linker_0, # of connection points: 4
#     Node 31, Type 1, BuildingBlock: KUFVIS_clean_linker_0, # of connection points: 4
#     Node 32, Type 1, BuildingBlock: KUFVIS_clean_linker_0, # of connection points: 4
#     Node 33, Type 1, BuildingBlock: KUFVIS_clean_linker_0, # of connection points: 4
#     Node 34, Type 1, BuildingBlock: KUFVIS_clean_linker_0, # of connection points: 4
#     Node 35, Type 1, BuildingBlock: KUFVIS_clean_linker_0, # of connection points: 4
#     Edge 36, Type (0, 1), BuildingBlock: KIFKEQ_clean_linker_1, # of connection points: 2
#     Edge 37, Type (0, 1), BuildingBlock: KIFKEQ_clean_linker_1, # of connection points: 2
#     Edge 38, Type (0, 1), BuildingBlock: KIFKEQ_clean_linker_1, # of connection points: 2
#     Edge 39, Type (0, 1), BuildingBlock: KIFKEQ_clean_linker_1, # of connection points: 2
#     Edge 40, Type (0, 1), BuildingBlock: KIFKEQ_clean_linker_1, # of connection points: 2
#     Edge 41, Type (0, 1), BuildingBlock: KIFKEQ_clean_linker_1, # of connection points: 2
#     Edge 42, Type (0, 1), BuildingBlock: KIFKEQ_clean_linker_1, # of connection points: 2
#     Edge 43, Type (0, 1), BuildingBlock: KIFKEQ_clean_linker_1, # of connection points: 2
#     Edge 44, Type (0, 1), BuildingBlock: KIFKEQ_clean_linker_1, # of connection points: 2
#     Edge 45, Type (0, 1), BuildingBlock: KIFKEQ_clean_linker_1, # of connection points: 2
#     Edge 46, Type (0, 1), BuildingBlock: KIFKEQ_clean_linker_1, # of connection points: 2
#     Edge 47, Type (0, 1), BuildingBlock: KIFKEQ_clean_linker_1, # of connection points: 2
#     Edge 48, Type (0, 1), BuildingBlock: KIFKEQ_clean_linker_1, # of connection points: 2
#     Edge 49, Type (0, 1), BuildingBlock: KIFKEQ_clean_linker_1, # of connection points: 2
#     Edge 50, Type (0, 1), BuildingBlock: KIFKEQ_clean_linker_1, # of connection points: 2
#     Edge 51, Type (0, 1), BuildingBlock: KIFKEQ_clean_linker_1, # of connection points: 2
#     Edge 52, Type (0, 1), BuildingBlock: KIFKEQ_clean_linker_1, # of connection points: 2
#     Edge 53, Type (0, 1), BuildingBlock: KIFKEQ_clean_linker_1, # of connection points: 2
#     Edge 54, Type (0, 1), BuildingBlock: KIFKEQ_clean_linker_1, # of connection points: 2
#     Edge 55, Type (0, 1), BuildingBlock: KIFKEQ_clean_linker_1, # of connection points: 2
#     Edge 56, Type (0, 1), BuildingBlock: KIFKEQ_clean_linker_1, # of connection points: 2
#     Edge 57, Type (0, 1), BuildingBlock: KIFKEQ_clean_linker_1, # of connection points: 2
#     Edge 58, Type (0, 1), BuildingBlock: KIFKEQ_clean_linker_1, # of connection points: 2
#     Edge 59, Type (0, 1), BuildingBlock: KIFKEQ_clean_linker_1, # of connection points: 2
#     Edge 60, Type (0, 1), BuildingBlock: KIFKEQ_clean_linker_1, # of connection points: 2
#     Edge 61, Type (0, 1), BuildingBlock: KIFKEQ_clean_linker_1, # of connection points: 2
#     Edge 62, Type (0, 1), BuildingBlock: KIFKEQ_clean_linker_1, # of connection points: 2
#     Edge 63, Type (0, 1), BuildingBlock: KIFKEQ_clean_linker_1, # of connection points: 2
#     Edge 64, Type (0, 1), BuildingBlock: KIFKEQ_clean_linker_1, # of connection points: 2
#     Edge 65, Type (0, 1), BuildingBlock: KIFKEQ_clean_linker_1, # of connection points: 2
#     Edge 66, Type (0, 1), BuildingBlock: KIFKEQ_clean_linker_1, # of connection points: 2
#     Edge 67, Type (0, 1), BuildingBlock: KIFKEQ_clean_linker_1, # of connection points: 2
#     Edge 68, Type (0, 1), BuildingBlock: KIFKEQ_clean_linker_1, # of connection points: 2
#     Edge 69, Type (0, 1), BuildingBlock: KIFKEQ_clean_linker_1, # of connection points: 2
#     Edge 70, Type (0, 1), BuildingBlock: KIFKEQ_clean_linker_1, # of connection points: 2
#     Edge 71, Type (0, 1), BuildingBlock: KIFKEQ_clean_linker_1, # of connection points: 2
#     Edge 72, Type (0, 1), BuildingBlock: KIFKEQ_clean_linker_1, # of connection points: 2
#     Edge 73, Type (0, 1), BuildingBlock: KIFKEQ_clean_linker_1, # of connection points: 2
#     Edge 74, Type (0, 1), BuildingBlock: KIFKEQ_clean_linker_1, # of connection points: 2
#     Edge 75, Type (0, 1), BuildingBlock: KIFKEQ_clean_linker_1, # of connection points: 2
#     Edge 76, Type (0, 1), BuildingBlock: KIFKEQ_clean_linker_1, # of connection points: 2
#     Edge 77, Type (0, 1), BuildingBlock: KIFKEQ_clean_linker_1, # of connection points: 2
#     Edge 78, Type (0, 1), BuildingBlock: KIFKEQ_clean_linker_1, # of connection points: 2
#     Edge 79, Type (0, 1), BuildingBlock: KIFKEQ_clean_linker_1, # of connection points: 2
#     Edge 80, Type (0, 1), BuildingBlock: KIFKEQ_clean_linker_1, # of connection points: 2
#     Edge 81, Type (0, 1), BuildingBlock: KIFKEQ_clean_linker_1, # of connection points: 2
#     Edge 82, Type (0, 1), BuildingBlock: KIFKEQ_clean_linker_1, # of connection points: 2
#     Edge 83, Type (0, 1), BuildingBlock: KIFKEQ_clean_linker_1, # of connection points: 2
#     Edge 84, Type (0, 1), BuildingBlock: KIFKEQ_clean_linker_1, # of connection points: 2
#     Edge 85, Type (0, 1), BuildingBlock: KIFKEQ_clean_linker_1, # of connection points: 2
#     Edge 86, Type (0, 1), BuildingBlock: KIFKEQ_clean_linker_1, # of connection points: 2
#     Edge 87, Type (0, 1), BuildingBlock: KIFKEQ_clean_linker_1, # of connection points: 2
#     Edge 88, Type (0, 1), BuildingBlock: KIFKEQ_clean_linker_1, # of connection points: 2
#     Edge 89, Type (0, 1), BuildingBlock: KIFKEQ_clean_linker_1, # of connection points: 2
#     Edge 90, Type (0, 1), BuildingBlock: KIFKEQ_clean_linker_1, # of connection points: 2
#     Edge 91, Type (0, 1), BuildingBlock: KIFKEQ_clean_linker_1, # of connection points: 2
#     Edge 92, Type (0, 1), BuildingBlock: KIFKEQ_clean_linker_1, # of connection points: 2
#     Edge 93, Type (0, 1), BuildingBlock: KIFKEQ_clean_linker_1, # of connection points: 2
#     Edge 94, Type (0, 1), BuildingBlock: KIFKEQ_clean_linker_1, # of connection points: 2
#     Edge 95, Type (0, 1), BuildingBlock: KIFKEQ_clean_linker_1, # of connection points: 2
#     Edge 96, Type (0, 1), BuildingBlock: KIFKEQ_clean_linker_1, # of connection points: 2
#     Edge 97, Type (0, 1), BuildingBlock: KIFKEQ_clean_linker_1, # of connection points: 2
#     Edge 98, Type (0, 1), BuildingBlock: KIFKEQ_clean_linker_1, # of connection points: 2
#     Edge 99, Type (0, 1), BuildingBlock: KIFKEQ_clean_linker_1, # of connection points: 2
#     Edge 100, Type (0, 1), BuildingBlock: KIFKEQ_clean_linker_1, # of connection points: 2
#     Edge 101, Type (0, 1), BuildingBlock: KIFKEQ_clean_linker_1, # of connection points: 2
#     Edge 102, Type (0, 1), BuildingBlock: KIFKEQ_clean_linker_1, # of connection points: 2
#     Edge 103, Type (0, 1), BuildingBlock: KIFKEQ_clean_linker_1, # of connection points: 2
#     Edge 104, Type (0, 1), BuildingBlock: KIFKEQ_clean_linker_1, # of connection points: 2
#     Edge 105, Type (0, 1), BuildingBlock: KIFKEQ_clean_linker_1, # of connection points: 2
#     Edge 106, Type (0, 1), BuildingBlock: KIFKEQ_clean_linker_1, # of connection points: 2
#     Edge 107, Type (0, 1), BuildingBlock: KIFKEQ_clean_linker_1, # of connection points: 2
# Relax obj value: 0.050
# Max RMSD: 0.134
# Mean RMSD: 0.089
data_MOF--net-ptr--node1-KUFVIS_clean_sbu_0--node2-KUFVIS_clean_linker_0--edge1-KIFKEQ_clean_linker_1
_symmetry_space_group_name_H-M    P1
_symmetry_Int_Tables_number       1
_symmetry_cell_setting            triclinic
loop_
_symmetry_equiv_pos_as_xyz
'x, y, z'
_cell_length_a     77.945664
_cell_length_b     77.557383
_cell_length_c     50.930803
_cell_angle_alpha  90.013378
_cell_angle_beta   90.323183
_cell_angle_gamma 119.59164
loop_
_atom_site_label
_atom_site_type_symbol
_atom_site_fract_x
_atom_site_fract_y
_atom_site_fract_z
_atom_type_partial_charge
Mn0 Mn 1.02261 0.37696 -0.01039 0.0
Mn1 Mn 0.06423 0.41918 0.97369 0.0
C2 C 1.02137 0.3984 0.95916 0.0
C3 C 1.00082 0.34315 0.98345 0.0
C4 C 0.0414 0.41438 0.02369 0.0
O5 O 0.04454 0.37224 0.00385 0.0
O6 O 0.07109 0.3999 0.98919 0.0
C7 C 0.07811 0.40302 0.93131 0.0
N8 N 0.07276 0.41636 0.93967 0.0
C9 C 0.08022 0.43247 0.8976 0.0
C10 C 0.08592 0.41897 0.88857 0.0
C11 C 0.08477 0.40412 0.90547 0.0
C12 C 0.07353 0.43051 0.92346 0.0
H13 H 0.07731 0.39163 0.94427 0.0
C14 C 0.06315 0.38299 0.00053 0.0
O15 O 1.00155 0.35191 0.00549 0.0
O16 O 1.01326 0.35384 0.96546 0.0
N17 N 0.06006 0.4393 0.95816 0.0
C18 C 0.05359 0.45088 0.96971 0.0
C19 C 0.05351 0.46628 0.9553 0.0
C20 C 0.06042 0.46984 0.92936 0.0
C21 C 0.06737 0.45799 0.91808 0.0
C22 C 0.06701 0.4428 0.93335 0.0
H23 H 0.04848 0.44838 -0.01026 0.0
O24 O 1.00546 0.3855 0.97091 0.0
O25 O 0.03745 0.39803 0.96499 0.0
O26 O 0.02749 0.39681 0.019 0.0
O27 O 0.05627 0.42376 0.0087 0.0
C28 C 0.07462 0.46062 0.89227 0.0
C29 C 0.08086 0.44775 0.88194 0.0
H30 H 0.09114 0.41983 0.86869 0.0
H31 H 0.08907 0.3936 0.89862 0.0
H32 H 0.04819 0.47541 0.96419 0.0
H33 H 0.0603 0.48171 0.91829 0.0
H34 H 0.07521 0.47233 0.88007 0.0
H35 H 0.08608 0.44972 0.86191 0.0
Mn36 Mn 0.67112 0.66389 0.00639 0.0
Mn37 Mn 0.67378 0.62265 0.02117 0.0
C38 C 0.64931 0.64115 0.03606 0.0
C39 C 0.68071 0.69735 0.01287 0.0
C40 C 0.65394 0.62638 0.97193 0.0
O41 O 0.69833 0.67063 -0.00746 0.0
O42 O 0.69856 0.64284 0.00451 0.0
C43 C 0.70484 0.64084 0.06212 0.0
N44 N 0.68646 0.62651 0.05459 0.0
C45 C 0.68037 0.61104 0.09703 0.0
C46 C 0.69928 0.62556 0.1052 0.0
C47 C 0.71152 0.64057 0.0877 0.0
C48 C 0.67446 0.61218 0.07138 0.0
H49 H 0.71432 0.65238 0.04872 0.0
C50 C 0.70678 0.66014 -0.00572 0.0
O51 O 0.67314 0.68844 -0.00924 0.0
O52 O 0.68328 0.68701 0.03092 0.0
N53 N 0.65114 0.60153 0.03765 0.0
C54 C 0.63338 0.58855 0.02666 0.0
C55 C 0.6194 0.57261 0.04159 0.0
C56 C 0.62396 0.56994 0.06745 0.0
C57 C 0.64254 0.58315 0.07809 0.0
C58 C 0.65587 0.59876 0.06228 0.0
H59 H 0.62985 0.59036 0.00668 0.0
O60 O 0.6453 0.65367 0.02457 0.0
O61 O 0.6663 0.64266 0.03064 0.0
O62 O 0.65731 0.64399 0.97645 0.0
O63 O 0.65994 0.6172 0.98693 0.0
C64 C 0.64834 0.58147 0.10378 0.0
C65 C 0.66717 0.59551 0.11333 0.0
H66 H 0.70452 0.62536 0.12489 0.0
H67 H 0.72611 0.65187 0.09389 0.0
H68 H 0.60515 0.56239 0.03316 0.0
H69 H 0.61311 0.55769 0.07895 0.0
H70 H 0.63837 0.5695 0.11642 0.0
H71 H 0.67137 0.59418 0.13322 0.0
Mn72 Mn 0.37983 1.01265 0.00659 0.0
Mn73 Mn 0.42259 0.05544 0.01745 0.0
C74 C 0.4027 1.01347 0.03656 0.0
C75 C 0.34634 0.9911 0.01491 0.0
C76 C 0.41611 0.02866 0.97077 0.0
O77 O 0.3741 0.03355 -0.00927 0.0
O78 O 0.40296 0.06088 -1e-05 0.0
C79 C 0.40723 0.07267 0.05646 0.0
N80 N 0.42053 0.06692 0.04965 0.0
C81 C 0.43803 0.0789 0.09058 0.0
C82 C 0.42459 0.08505 0.09799 0.0
C83 C 0.40905 0.08181 0.08091 0.0
C84 C 0.4353 0.06962 0.06613 0.0
H85 H 0.39535 0.07034 0.04331 0.0
C86 C 0.3854 0.05234 -0.00936 0.0
O87 O 0.35435 0.99059 -0.00714 0.0
O88 O 0.35767 1.00448 0.03184 0.0
N89 N 0.44333 0.05316 0.03447 0.0
C90 C 0.45497 0.04624 0.02445 0.0
C91 C 0.4711 0.04818 0.03923 0.0
C92 C 0.4754 0.05765 0.06382 0.0
C93 C 0.46353 0.06512 0.07341 0.0
C94 C 0.44755 0.0626 0.05792 0.0
H95 H 0.45196 0.03925 0.00536 0.0
O96 O 0.38935 0.99678 0.02653 0.0
O97 O 0.40197 0.02923 0.0295 0.0
O98 O 0.39841 1.01564 0.97632 0.0
O99 O 0.42626 0.04437 0.9844 0.0
C100 C 0.46694 0.075 0.09771 0.0
C101 C 0.45407 0.08167 0.10644 0.0
H102 H 0.42603 0.09224 0.11676 0.0
H103 H 0.39858 0.08647 0.08652 0.0
H104 H 0.48027 0.04248 0.03161 0.0
H105 H 0.48786 0.05912 0.07516 0.0
H106 H 0.47934 0.0774 0.10997 0.0
H107 H 0.45667 0.08897 0.12535 0.0
Mn108 Mn 0.02706 0.66009 0.98588 0.0
Mn109 Mn 0.06993 0.65984 0.97582 0.0
C110 C 0.02831 0.63828 0.95588 0.0
C111 C 1.00471 0.67142 0.97779 0.0
C112 C 0.04327 0.63951 0.02189 0.0
O113 O 0.04761 0.68656 0.00207 0.0
O114 O 0.07486 0.68438 -0.00577 0.0
C115 C 0.08691 0.69308 0.93799 0.0
N116 N 0.0814 0.67396 0.94414 0.0
C117 C 0.09309 0.66906 0.90272 0.0
C118 C 0.09899 0.68874 0.896 0.0
C119 C 0.09579 0.70076 0.91367 0.0
C120 C 0.0841 0.66216 0.92711 0.0
H121 H 0.08455 0.7024 0.95155 0.0
C122 C 0.06626 0.6935 0.00331 0.0
O123 O 1.00482 0.66306 -0.00022 0.0
O124 O 1.0181 0.6739 0.96077 0.0
N125 N 0.06816 0.63725 0.95809 0.0
C126 C 0.06187 0.61869 0.96771 0.0
C127 C 0.06409 0.60482 0.95248 0.0
C128 C 0.07315 0.6103 0.92781 0.0
C129 C 0.08005 0.62966 0.91867 0.0
C130 C 0.0774 0.64282 0.93469 0.0
H131 H 0.05516 0.61447 0.98683 0.0
O132 O 1.01162 0.63484 0.96578 0.0
O133 O 0.04385 0.65467 0.96317 0.0
O134 O 0.03051 0.64469 0.01616 0.0
O135 O 0.05877 0.64452 0.00834 0.0
C136 C 0.08948 0.63642 0.89431 0.0
C137 C 0.09581 0.65604 0.88621 0.0
H138 H 0.10595 0.69475 0.87732 0.0
H139 H 0.10024 0.71595 0.90859 0.0
H140 H 0.05887 0.58996 0.95978 0.0
H141 H 0.07478 0.59955 0.91608 0.0
H142 H 0.09184 0.62661 0.88157 0.0
H143 H 0.10283 0.66098 0.8673 0.0
Mn144 Mn 0.38039 0.37621 0.01084 0.0
Mn145 Mn 0.42355 0.37753 0.02517 0.0
C146 C 0.40205 0.39899 0.04116 0.0
C147 C 0.34653 0.36369 0.01727 0.0
C148 C 0.41744 0.39651 0.97661 0.0
O149 O 0.37613 0.34984 -0.00422 0.0
O150 O 0.40482 0.35196 0.00826 0.0
C151 C 0.40811 0.34603 0.06553 0.0
N152 N 0.42119 0.36492 0.05821 0.0
C153 C 0.43797 0.3717 0.0999 0.0
C154 C 0.42476 0.35228 0.10784 0.0
C155 C 0.40969 0.33942 0.09063 0.0
C156 C 0.43549 0.37753 0.0748 0.0
H157 H 0.39658 0.33606 0.0523 0.0
C158 C 0.3877 0.34261 -0.00235 0.0
O159 O 0.35499 0.37197 -0.00465 0.0
O160 O 0.35761 0.36205 0.03511 0.0
N161 N 0.4435 0.40109 0.04192 0.0
C162 C 0.45494 0.41941 0.03136 0.0
C163 C 0.47059 0.4341 0.04619 0.0
C164 C 0.47464 0.42967 0.07143 0.0
C165 C 0.463 0.41057 0.08161 0.0
C166 C 0.4475 0.39659 0.06602 0.0
H167 H 0.45214 0.42282 0.01179 0.0
O168 O 0.38853 0.40161 0.02998 0.0
O169 O 0.40213 0.38271 0.03513 0.0
O170 O 0.39956 0.39171 0.98126 0.0
O171 O 0.42754 0.39139 -0.00877 0.0
C172 C 0.46619 0.40483 0.10659 0.0
C173 C 0.45354 0.3855 0.11587 0.0
H174 H 0.42603 0.34709 0.12711 0.0
H175 H 0.39939 0.32443 0.09663 0.0
H176 H 0.47958 0.44878 0.03811 0.0
H177 H 0.48672 0.44104 0.0828 0.0
H178 H 0.47823 0.41524 0.11895 0.0
H179 H 0.45596 0.38137 0.13529 0.0
Mn180 Mn 0.67329 0.02751 -0.00713 0.0
Mn181 Mn 0.63052 0.98543 0.97991 0.0
C182 C 0.6507 0.02802 0.96368 0.0
C183 C 0.70678 0.04849 0.98485 0.0
C184 C 0.63754 1.00997 0.02927 0.0
O185 O 0.67857 1.00584 0.00666 0.0
O186 O 0.65023 0.97886 -0.00554 0.0
C187 C 0.64464 0.96991 0.937 0.0
N188 N 0.6318 0.97566 0.94596 0.0
C189 C 0.6137 0.96641 0.90517 0.0
C190 C 0.62668 0.9603 0.89554 0.0
C191 C 0.64228 0.96217 0.91148 0.0
C192 C 0.61696 0.97426 0.93063 0.0
H193 H 0.65657 0.97119 0.94927 0.0
C194 C 0.66765 0.98709 0.00432 0.0
O195 O 0.699 0.04869 0.00724 0.0
O196 O 0.69516 0.03591 0.96734 0.0
N197 N 0.6099 0.98918 0.9654 0.0
C198 C 0.59888 0.99607 0.97747 0.0
C199 C 0.58283 0.9955 0.96403 0.0
C200 C 0.57801 0.98748 0.93857 0.0
C201 C 0.58929 0.9801 0.92678 0.0
C202 C 0.60522 0.98121 0.94104 0.0
H203 H 0.60232 1.00197 -0.00282 0.0
O204 O 0.6641 0.04433 0.9745 0.0
O205 O 0.65124 1.01201 0.96967 0.0
O206 O 0.65491 0.02365 0.02361 0.0
O207 O 0.62755 0.99468 0.01485 0.0
C208 C 0.58534 0.97165 0.90146 0.0
C209 C 0.59766 0.96501 0.89054 0.0
H210 H 0.62483 0.9542 0.87592 0.0
H211 H 0.65239 0.95754 0.90416 0.0
H212 H 0.57413 1.00113 0.97332 0.0
H213 H 0.56561 0.98705 0.92826 0.0
H214 H 0.57302 0.97044 0.89006 0.0
H215 H 0.59467 0.95886 0.87087 0.0
Mn216 Mn 0.69315 0.71491 0.32345 0.0
Mn217 Mn 0.73665 0.75614 0.3107 0.0
C218 C 0.69432 0.73876 0.29515 0.0
C219 C 0.66937 0.68205 0.31438 0.0
C220 C 0.71357 0.75047 0.36072 0.0
O221 O 0.71351 0.70747 0.33644 0.0
O222 O 0.74139 0.73489 0.32418 0.0
C223 C 0.74932 0.7403 0.26652 0.0
N224 N 0.74519 0.75419 0.27629 0.0
C225 C 0.75416 0.77219 0.23559 0.0
C226 C 0.75866 0.75817 0.22515 0.0
C227 C 0.75614 0.74211 0.24065 0.0
C228 C 0.74729 0.76953 0.26142 0.0
H229 H 0.74741 0.72794 0.27838 0.0
C230 C 0.73225 0.7174 0.33383 0.0
O231 O 0.67071 0.68985 0.33738 0.0
O232 O 0.68243 0.69303 0.29717 0.0
N233 N 0.7345 0.77803 0.2972 0.0
C234 C 0.72902 0.78998 0.30997 0.0
C235 C 0.73035 0.80658 0.29702 0.0
C236 C 0.73761 0.81092 0.27128 0.0
C237 C 0.74352 0.79863 0.25874 0.0
C238 C 0.74183 0.78228 0.2726 0.0
H239 H 0.72362 0.78686 0.32985 0.0
O240 O 0.67783 0.72626 0.30611 0.0
O241 O 0.70951 0.73674 0.30064 0.0
O242 O 0.69904 0.73354 0.35473 0.0
O243 O 0.72875 0.75983 0.34622 0.0
C244 C 0.75093 0.80192 0.23298 0.0
C245 C 0.7561 0.78862 0.22133 0.0
H246 H 0.76397 0.75954 0.20523 0.0
H247 H 0.75948 0.73117 0.2327 0.0
H248 H 0.72582 0.81603 0.30689 0.0
H249 H 0.73855 0.8237 0.26133 0.0
H250 H 0.75246 0.81448 0.22181 0.0
H251 H 0.76146 0.79112 0.20134 0.0
Mn252 Mn 0.33515 0.99425 0.34109 0.0
Mn253 Mn 0.33862 0.95354 0.35632 0.0
C254 C 0.31342 0.97135 0.37076 0.0
C255 C 0.34439 0.02764 0.34711 0.0
C256 C 0.31938 0.95721 0.30632 0.0
O257 O 0.36242 1.00115 0.32726 0.0
O258 O 0.36387 0.97443 0.34154 0.0
C259 C 0.36795 0.97126 0.39941 0.0
N260 N 0.35009 0.95678 0.39049 0.0
C261 C 0.34298 0.93983 0.43193 0.0
C262 C 0.36139 0.95444 0.44149 0.0
C263 C 0.37387 0.97029 0.42521 0.0
C264 C 0.3378 0.94169 0.40615 0.0
H265 H 0.37759 0.98346 0.38696 0.0
C266 C 0.37161 0.99149 0.33069 0.0
O267 O 0.33688 0.01852 0.3251 0.0
O268 O 0.34708 1.01752 0.3654 0.0
N269 N 0.31554 0.93187 0.3712 0.0
C270 C 0.29809 0.91923 0.35919 0.0
C271 C 0.2838 0.90274 0.37299 0.0
C272 C 0.28774 0.89916 0.39875 0.0
C273 C 0.30598 0.9121 0.41046 0.0
C274 C 0.31961 0.92835 0.39581 0.0
H275 H 0.29505 0.92172 0.33927 0.0
O276 O 0.30924 0.98375 0.35925 0.0
O277 O 0.33052 0.97313 0.36541 0.0
O278 O 0.32167 0.97433 0.31133 0.0
O279 O 0.32601 0.94848 0.32113 0.0
C280 C 0.31115 0.90956 0.43614 0.0
C281 C 0.32954 0.92352 0.44698 0.0
H282 H 0.36605 0.95369 0.46134 0.0
H283 H 0.38806 0.98169 0.43249 0.0
H284 H 0.2698 0.89277 0.36375 0.0
H285 H 0.27667 0.88645 0.40934 0.0
H286 H 0.30098 0.89702 0.44785 0.0
H287 H 0.33319 0.92159 0.46691 0.0
Mn288 Mn 0.04356 0.34535 0.33639 0.0
Mn289 Mn 0.08644 0.38795 0.34761 0.0
C290 C 0.06667 0.34574 0.36563 0.0
C291 C 1.01018 0.32351 0.34514 0.0
C292 C 0.07975 0.36173 0.30024 0.0
O293 O 0.03765 0.36648 0.3216 0.0
O294 O 0.06682 0.3935 0.33048 0.0
C295 C 0.07107 0.40485 0.38708 0.0
N296 N 0.08442 0.39922 0.38 0.0
C297 C 0.10229 0.41146 0.42063 0.0
C298 C 0.0888 0.41749 0.42832 0.0
C299 C 0.07305 0.41404 0.41154 0.0
C300 C 0.09938 0.40208 0.39622 0.0
H301 H 0.05905 0.4024 0.37414 0.0
C302 C 0.04917 0.38523 0.32151 0.0
O303 O 1.01796 0.32336 0.32274 0.0
O304 O 1.02163 0.33676 0.36212 0.0
N305 N 0.10726 0.38565 0.36435 0.0
C306 C 0.11888 0.37878 0.35412 0.0
C307 C 0.13518 0.38086 0.36862 0.0
C308 C 0.1397 0.39048 0.39313 0.0
C309 C 0.12784 0.3979 0.40293 0.0
C310 C 0.11165 0.39517 0.38776 0.0
H311 H 0.11572 0.37173 0.33507 0.0
O312 O 0.05328 0.32922 0.35528 0.0
O313 O 0.06588 0.3616 0.35933 0.0
O314 O 0.06195 0.3488 0.30555 0.0
O315 O 0.09006 0.37711 0.31437 0.0
C316 C 0.13148 0.40795 0.42714 0.0
C317 C 0.11857 0.41449 0.43615 0.0
H318 H 0.09038 0.42474 0.44707 0.0
H319 H 0.06255 0.4186 0.41735 0.0
H320 H 0.14434 0.37521 0.36084 0.0
H321 H 0.15231 0.3921 0.40423 0.0
H322 H 0.14407 0.41057 0.43912 0.0
H323 H 0.12134 0.4219 0.455 0.0
Mn324 Mn 0.68702 0.98741 0.32776 0.0
Mn325 Mn 0.72732 0.98406 0.3117 0.0
C326 C 0.68435 0.9638 0.29772 0.0
C327 C 0.66624 1.0008 0.32149 0.0
C328 C 0.70432 0.96716 0.3619 0.0
O329 O 0.70983 1.0136 0.34157 0.0
O330 O 0.73548 1.01049 0.32739 0.0
C331 C 0.74201 1.01403 0.26933 0.0
N332 N 0.73593 0.99519 0.27759 0.0
C333 C 0.74111 0.98555 0.23474 0.0
C334 C 0.74755 1.00489 0.22582 0.0
C335 C 0.74795 0.01917 0.24318 0.0
C336 C 0.73531 0.98129 0.26099 0.0
H337 H 0.74228 0.02503 0.28259 0.0
C338 C 0.72834 0.02035 0.33853 0.0
O339 O 0.66679 0.99283 0.34367 0.0
O340 O 0.67837 1.00177 0.30343 0.0
N341 N 0.72201 0.95946 0.29604 0.0
C342 C 0.71539 0.94148 0.30773 0.0
C343 C 0.71435 0.92563 0.29313 0.0
C344 C 0.72031 0.92846 0.26678 0.0
C345 C 0.72726 0.94713 0.25525 0.0
C346 C 0.72822 0.96245 0.27087 0.0
H347 H 0.71096 0.93924 0.32805 0.0
O348 O 0.66885 0.96189 0.3096 0.0
O349 O 0.70091 0.97978 0.30312 0.0
O350 O 0.69119 0.97207 0.35738 0.0
O351 O 0.71892 0.97161 0.3467 0.0
C352 C 0.73323 0.95113 0.22885 0.0
C353 C 0.74004 0.9703 0.21856 0.0
H354 H 0.75214 1.00891 0.20566 0.0
H355 H 0.75282 0.0341 0.23641 0.0
H356 H 0.70902 0.91127 0.30219 0.0
H357 H 0.71958 0.91623 0.25564 0.0
H358 H 0.73249 0.93953 0.21623 0.0
H359 H 0.74441 0.97316 0.19817 0.0
Mn360 Mn 0.04769 0.71236 0.34328 0.0
Mn361 Mn 0.09115 0.71494 0.35932 0.0
C362 C 0.06871 0.73591 0.37311 0.0
C363 C 1.01371 0.69926 0.34895 0.0
C364 C 0.0853 0.73312 0.30991 0.0
O365 O 0.04406 0.68595 0.32972 0.0
O366 O 0.07337 0.68925 0.34164 0.0
C367 C 0.07509 0.68332 0.39951 0.0
N368 N 0.08798 0.70238 0.39262 0.0
C369 C 0.10192 0.71002 0.43618 0.0
C370 C 0.08888 0.69043 0.4437 0.0
C371 C 0.07537 0.67705 0.4253 0.0
C372 C 0.10088 0.71544 0.41025 0.0
H373 H 0.06465 0.67299 0.38546 0.0
C374 C 0.0562 0.67942 0.3312 0.0
O375 O 1.02224 0.70725 0.32694 0.0
O376 O 1.02481 0.69831 0.36735 0.0
N377 N 0.11022 0.73867 0.3767 0.0
C378 C 0.12211 0.7569 0.36614 0.0
C379 C 0.13674 0.77191 0.38183 0.0
C380 C 0.1392 0.76794 0.40807 0.0
C381 C 0.12707 0.74898 0.41835 0.0
C382 C 0.11289 0.73455 0.40169 0.0
H383 H 0.12045 0.75999 0.34591 0.0
O384 O 0.0551 0.73797 0.36118 0.0
O385 O 0.06923 0.71969 0.36806 0.0
O386 O 0.06712 0.72758 0.31373 0.0
O387 O 0.09563 0.7288 0.32533 0.0
C388 C 0.1285 0.74383 0.44447 0.0
C389 C 0.11585 0.72439 0.45343 0.0
H390 H 0.08907 0.68553 0.46356 0.0
H391 H 0.0652 0.66193 0.43098 0.0
H392 H 0.14613 0.78648 0.37371 0.0
H393 H 0.15054 0.77952 0.42009 0.0
H394 H 0.13922 0.75472 0.45787 0.0
H395 H 0.117 0.72063 0.4736 0.0
Mn396 Mn 0.34125 0.36067 0.32265 0.0
Mn397 Mn 0.29866 0.31854 0.30857 0.0
C398 C 0.31893 0.36133 0.2931 0.0
C399 C 0.3748 0.38246 0.31606 0.0
C400 C 0.30452 0.34294 0.35757 0.0
O401 O 0.3467 0.33905 0.33634 0.0
O402 O 0.31795 0.31223 0.32511 0.0
C403 C 0.31452 0.30309 0.26778 0.0
N404 N 0.30116 0.30857 0.27536 0.0
C405 C 0.28397 0.29812 0.234 0.0
C406 C 0.29748 0.29228 0.22577 0.0
C407 C 0.3129 0.2949 0.24268 0.0
C408 C 0.28654 0.30652 0.25905 0.0
H409 H 0.32627 0.30489 0.28081 0.0
C410 C 0.33536 0.32031 0.33488 0.0
O411 O 0.36638 0.3819 0.33818 0.0
O412 O 0.36382 0.37003 0.29795 0.0
N413 N 0.27823 0.3217 0.29219 0.0
C414 C 0.26652 0.32824 0.30303 0.0
C415 C 0.25052 0.32688 0.28852 0.0
C416 C 0.24639 0.31832 0.26334 0.0
C417 C 0.25832 0.31121 0.25289 0.0
C418 C 0.27422 0.31321 0.26811 0.0
H419 H 0.26937 0.33447 0.32258 0.0
O420 O 0.33207 0.3775 0.30447 0.0
O421 O 0.31953 0.34525 0.29863 0.0
O422 O 0.32228 0.35618 0.35287 0.0
O423 O 0.29449 0.32798 0.34265 0.0
C424 C 0.25502 0.30212 0.22801 0.0
C425 C 0.26799 0.29584 0.21841 0.0
H426 H 0.29616 0.28578 0.20652 0.0
H427 H 0.32341 0.29046 0.23646 0.0
H428 H 0.24129 0.33228 0.29681 0.0
H429 H 0.234 0.31724 0.25224 0.0
H430 H 0.24266 0.30011 0.21595 0.0
H431 H 0.26548 0.2892 0.19906 0.0
Mn432 Mn 0.35936 0.04431 0.65298 0.0
Mn433 Mn 0.40236 0.08609 0.63951 0.0
C434 C 0.36002 0.06671 0.62258 0.0
C435 C 0.33639 1.01079 0.64646 0.0
C436 C 0.37786 0.08193 0.68731 0.0
O437 O 0.38003 0.03808 0.6681 0.0
O438 O 0.40746 0.0665 0.65771 0.0
C439 C 0.417 0.06809 0.60063 0.0
N440 N 0.41218 0.08221 0.60704 0.0
C441 C 0.42223 0.09752 0.56465 0.0
C442 C 0.42742 0.08321 0.55764 0.0
C443 C 0.42469 0.06838 0.57567 0.0
C444 C 0.41442 0.09634 0.58969 0.0
H445 H 0.41501 0.05671 0.61447 0.0
C446 C 0.39876 0.04915 0.66775 0.0
O447 O 0.33729 0.01978 0.66834 0.0
O448 O 0.34932 0.02109 0.62869 0.0
N449 N 0.40033 0.10676 0.62174 0.0
C450 C 0.39479 0.11958 0.63166 0.0
C451 C 0.39661 0.13535 0.6161 0.0
C452 C 0.40454 0.13804 0.59076 0.0
C453 C 0.41068 0.12501 0.58127 0.0
C454 C 0.40844 0.10953 0.59763 0.0
H455 H 0.38895 0.11777 0.65127 0.0
O456 O 0.34359 0.05413 0.63361 0.0
O457 O 0.3756 0.06554 0.629 0.0
O458 O 0.36438 0.06415 0.68259 0.0
O459 O 0.39297 0.09153 0.67279 0.0
C460 C 0.41897 0.12678 0.55623 0.0
C461 C 0.42455 0.11293 0.54781 0.0
H462 H 0.43346 0.08346 0.53845 0.0
H463 H 0.4286 0.05724 0.57037 0.0
H464 H 0.39198 0.14544 0.62366 0.0
H465 H 0.40588 0.15018 0.57879 0.0
H466 H 0.42101 0.13868 0.54321 0.0
H467 H 0.43068 0.11431 0.52839 0.0
Mn468 Mn 1.00282 0.32611 0.67127 0.0
Mn469 Mn 1.00496 0.28453 0.68564 0.0
C470 C 0.981 0.30353 0.70102 0.0
C471 C 1.01316 0.35975 0.67761 0.0
C472 C 0.98512 0.28865 0.63667 0.0
O473 O 0.02981 0.33248 0.65727 0.0
O474 O 0.02978 0.30447 0.66879 0.0
C475 C 0.03629 0.30232 0.7263 0.0
N476 N 1.0178 0.28816 0.71888 0.0
C477 C 1.01191 0.27236 0.76108 0.0
C478 C 0.03093 0.2867 0.76912 0.0
C479 C 0.04313 0.3018 0.75169 0.0
C480 C 1.00583 0.27377 0.73563 0.0
H481 H 0.04574 0.3139 0.71293 0.0
C482 C 0.03807 0.32182 0.65873 0.0
O483 O 1.00529 0.35082 0.65561 0.0
O484 O 1.01541 0.34924 0.69574 0.0
N485 N 0.98226 0.2636 0.70227 0.0
C486 C 0.9643 0.25093 0.6915 0.0
C487 C 0.9503 0.23502 0.70644 0.0
C488 C 0.95504 0.23204 0.73206 0.0
C489 C 0.97379 0.24494 0.74247 0.0
C490 C 0.98712 0.26058 0.72669 0.0
H491 H 0.96065 0.25298 0.67169 0.0
O492 O 0.97714 0.31621 0.68967 0.0
O493 O 0.99786 0.30479 0.6954 0.0
O494 O 0.9887 0.30631 0.64133 0.0
O495 O 0.99098 0.27928 0.65154 0.0
C496 C 0.97978 0.24293 0.7679 0.0
C497 C 0.99875 0.25675 0.7773 0.0
H498 H 0.03629 0.28629 0.78865 0.0
H499 H 0.0578 0.31296 0.75778 0.0
H500 H 0.9359 0.22505 0.6982 0.0
H501 H 0.94418 0.21979 0.74356 0.0
H502 H 0.96986 0.23089 0.78047 0.0
H503 H 1.00308 0.25519 0.79702 0.0
Mn504 Mn 0.71264 0.67543 0.674 0.0
Mn505 Mn 0.75621 0.71627 0.68853 0.0
C506 C 0.73477 0.67309 0.70226 0.0
C507 C 0.67896 0.65462 0.68189 0.0
C508 C 0.74901 0.69263 0.63829 0.0
O509 O 0.70825 0.69809 0.66159 0.0
O510 O 0.73745 0.72404 0.67347 0.0
C511 C 0.74154 0.73119 0.7315 0.0
N512 N 0.75431 0.72528 0.72276 0.0
C513 C 0.77019 0.73142 0.76508 0.0
C514 C 0.75729 0.7377 0.77449 0.0
C515 C 0.74286 0.73752 0.75764 0.0
C516 C 0.76808 0.72516 0.73889 0.0
H517 H 0.73041 0.73104 0.71864 0.0
C518 C 0.72006 0.71672 0.66374 0.0
O519 O 0.68663 0.65496 0.65919 0.0
O520 O 0.69073 0.66677 0.69964 0.0
N521 N 0.77613 0.7116 0.70347 0.0
C522 C 0.78762 0.70537 0.69122 0.0
C523 C 0.80309 0.70513 0.70517 0.0
C524 C 0.80675 0.71152 0.73143 0.0
C525 C 0.79489 0.71808 0.74353 0.0
C526 C 0.77986 0.71825 0.72854 0.0
H527 H 0.78508 0.70069 0.67093 0.0
O528 O 0.72095 0.65741 0.69079 0.0
O529 O 0.73487 0.68965 0.69764 0.0
O530 O 0.73113 0.67964 0.64309 0.0
O531 O 0.75948 0.70733 0.65347 0.0
C532 C 0.79741 0.7245 0.76987 0.0
C533 C 0.78498 0.73103 0.78068 0.0
H534 H 0.75828 0.74262 0.79463 0.0
H535 H 0.7328 0.74226 0.76479 0.0
H536 H 0.81225 0.70013 0.69567 0.0
H537 H 0.8188 0.7115 0.74205 0.0
H538 H 0.8088 0.72435 0.78201 0.0
H539 H 0.78696 0.73579 0.80101 0.0
Mn540 Mn 0.35566 0.32553 0.65742 0.0
Mn541 Mn 0.39754 0.32391 0.6456 0.0
C542 C 0.35552 0.3031 0.62719 0.0
C543 C 0.33425 0.33797 0.64956 0.0
C544 C 0.37188 0.30521 0.69329 0.0
O545 O 0.37715 0.35173 0.67329 0.0
O546 O 0.40393 0.34965 0.66183 0.0
C547 C 0.41417 0.35512 0.6049 0.0
N548 N 0.40825 0.33621 0.61268 0.0
C549 C 0.41875 0.32884 0.57192 0.0
C550 C 0.4251 0.34828 0.56353 0.0
C551 C 0.42268 0.36143 0.58003 0.0
C552 C 0.41015 0.32332 0.59676 0.0
H553 H 0.41241 0.36529 0.61757 0.0
C554 C 0.39585 0.35896 0.67196 0.0
O555 O 0.33414 0.32959 0.67165 0.0
O556 O 0.34738 0.3399 0.63245 0.0
N557 N 0.39406 0.30005 0.62961 0.0
C558 C 0.38669 0.28166 0.64035 0.0
C559 C 0.3876 0.26663 0.62611 0.0
C560 C 0.39648 0.27076 0.60128 0.0
C561 C 0.40435 0.28991 0.59089 0.0
C562 C 0.40286 0.30424 0.60586 0.0
H563 H 0.38012 0.27846 0.6596 0.0
O564 O 0.33919 0.30029 0.63757 0.0
O565 O 0.37144 0.31922 0.63417 0.0
O566 O 0.35878 0.30986 0.68745 0.0
O567 O 0.38732 0.31034 0.67955 0.0
C568 C 0.41362 0.29534 0.56625 0.0
C569 C 0.4206 0.31471 0.55662 0.0
H570 H 0.43178 0.35324 0.54443 0.0
H571 H 0.42746 0.37643 0.57366 0.0
H572 H 0.38157 0.25191 0.63433 0.0
H573 H 0.39717 0.25913 0.59036 0.0
H574 H 0.41522 0.28463 0.55437 0.0
H575 H 0.42735 0.31858 0.53743 0.0
Mn576 Mn 0.71413 0.04479 0.67655 0.0
Mn577 Mn 0.75813 0.04862 0.69256 0.0
C578 C 0.73528 0.06928 0.70537 0.0
C579 C 0.68015 0.03137 0.68299 0.0
C580 C 0.75124 0.06503 0.64214 0.0
O581 O 0.71079 1.01817 0.66428 0.0
O582 O 0.74046 0.02238 0.67619 0.0
C583 C 0.74309 1.01819 0.73434 0.0
N584 N 0.75564 0.03709 0.72648 0.0
C585 C 0.77023 0.04615 0.76959 0.0
C586 C 0.75755 0.02674 0.77811 0.0
C587 C 0.74388 1.01272 0.76042 0.0
C588 C 0.76868 0.05076 0.74342 0.0
H589 H 0.73254 1.00737 0.72083 0.0
C590 C 0.72323 1.01203 0.66615 0.0
O591 O 0.68827 0.03883 0.66058 0.0
O592 O 0.69165 0.03113 0.70135 0.0
N593 N 0.77713 0.07297 0.70873 0.0
C594 C 0.78861 0.09094 0.69725 0.0
C595 C 0.80336 0.1065 0.71213 0.0
C596 C 0.80637 0.10336 0.73851 0.0
C597 C 0.79462 0.08467 0.74977 0.0
C598 C 0.7803 0.06966 0.73389 0.0
H599 H 0.78655 0.09338 0.67689 0.0
O600 O 0.72141 0.07081 0.6933 0.0
O601 O 0.73602 0.0531 0.70101 0.0
O602 O 0.73306 0.05939 0.6462 0.0
O603 O 0.76191 0.06142 0.65789 0.0
C604 C 0.79657 0.08034 0.77612 0.0
C605 C 0.7843 0.06113 0.78607 0.0
H606 H 0.75814 0.02246 0.79819 0.0
H607 H 0.73399 0.99774 0.76686 0.0
H608 H 0.81245 0.12086 0.70326 0.0
H609 H 0.81784 0.11535 0.74987 0.0
H610 H 0.80739 0.09171 0.78893 0.0
H611 H 0.78584 0.058 0.80641 0.0
Mn612 Mn 1.00568 0.69173 0.65678 0.0
Mn613 Mn 0.96208 0.65112 0.64187 0.0
C614 C 0.98435 0.694 0.62698 0.0
C615 C 0.03956 0.71177 0.6501 0.0
C616 C 0.96933 0.67509 0.69185 0.0
O617 O 1.00913 0.66888 0.67071 0.0
O618 O 0.98071 0.64303 0.65618 0.0
C619 C 0.97561 0.63547 0.59843 0.0
N620 N 0.96323 0.64174 0.6076 0.0
C621 C 0.94529 0.63356 0.56672 0.0
C622 C 0.95776 0.62689 0.55686 0.0
C623 C 0.97308 0.62799 0.57273 0.0
C624 C 0.94874 0.64117 0.59231 0.0
H625 H 0.9873 0.63615 0.61065 0.0
C626 C 0.99771 0.6503 0.66709 0.0
O627 O 0.03146 0.71188 0.67226 0.0
O628 O 0.02805 0.69963 0.63212 0.0
N629 N 0.94237 0.65632 0.62747 0.0
C630 C 0.93181 0.66364 0.63977 0.0
C631 C 0.91612 0.66389 0.62642 0.0
C632 C 0.91113 0.65618 0.60082 0.0
C633 C 0.92191 0.64831 0.5888 0.0
C634 C 0.93753 0.64867 0.60294 0.0
H635 H 0.93532 0.66925 0.65961 0.0
O636 O 0.99813 0.70982 0.6383 0.0
O637 O 0.98385 0.67744 0.63271 0.0
O638 O 0.98695 0.68842 0.68669 0.0
O639 O 0.95918 0.66 0.67716 0.0
C640 C 0.91771 0.64004 0.56337 0.0
C641 C 0.92953 0.63289 0.55221 0.0
H642 H 0.95575 0.62095 0.53713 0.0
H643 H 0.98281 0.62293 0.56524 0.0
H644 H 0.9078 0.66988 0.63591 0.0
H645 H 0.89899 0.65635 0.59061 0.0
H646 H 0.90559 0.63939 0.55206 0.0
H647 H 0.92637 0.62691 0.53244 0.0
H648 H 0.25332 0.35607 0.12114 0.0
H649 H 0.20165 0.34711 0.07983 0.0
H650 H 0.2086 0.3605 0.1635 0.0
H651 H 0.17689 0.34456 0.16434 0.0
H652 H 0.12944 0.34675 0.12497 0.0
H653 H 0.18055 0.3583 0.08119 0.0
C654 C 0.23915 0.35559 0.12125 0.0
C655 C 0.23164 0.35794 0.14489 0.0
C656 C 0.2286 0.35209 0.09785 0.0
C657 C 0.20996 0.35082 0.09801 0.0
C658 C 0.20207 0.35368 0.12173 0.0
C659 C 0.2136 0.35783 0.145 0.0
C660 C 0.18175 0.35164 0.12257 0.0
C661 C 0.17102 0.34714 0.14644 0.0
C662 C 0.1523 0.34564 0.14757 0.0
C663 C 0.14371 0.3475 0.12439 0.0
C664 C 0.15364 0.35154 0.10053 0.0
C665 C 0.17281 0.35417 0.09968 0.0
H666 H 0.68912 0.91255 0.12128 0.0
H667 H 0.70031 0.87233 0.07678 0.0
H668 H 0.67652 0.85728 0.15545 0.0
H669 H 0.69549 0.84407 0.15815 0.0
H670 H 0.69693 0.79691 0.11707 0.0
H671 H 0.68793 0.8391 0.07345 0.0
C672 C 0.68886 0.89848 0.11985 0.0
C673 C 0.68248 0.8856 0.14125 0.0
C674 C 0.6948 0.89358 0.09646 0.0
C675 C 0.69504 0.8756 0.09467 0.0
C676 C 0.68917 0.86244 0.11626 0.0
C677 C 0.68223 0.86745 0.13912 0.0
C678 C 0.69111 0.84408 0.11583 0.0
C679 C 0.6941 0.83657 0.1397 0.0
C680 C 0.69589 0.81951 0.1402 0.0
C681 C 0.69562 0.81021 0.11668 0.0
C682 C 0.69312 0.81738 0.09266 0.0
C683 C 0.69047 0.83409 0.09214 0.0
H684 H 0.25598 0.90762 0.12353 0.0
H685 H 0.20253 0.86651 0.08462 0.0
H686 H 0.21099 0.86043 0.16786 0.0
H687 H 0.1797 0.84483 0.17015 0.0
H688 H 0.13147 0.79507 0.1332 0.0
H689 H 0.18024 0.83501 0.08623 0.0
C690 C 0.24142 0.89461 0.1245 0.0
C691 C 0.23421 0.88531 0.14857 0.0
C692 C 0.23018 0.88772 0.10159 0.0
C693 C 0.21123 0.87097 0.10248 0.0
C694 C 0.20367 0.86056 0.12641 0.0
C695 C 0.21578 0.86788 0.14924 0.0
C696 C 0.18322 0.84257 0.12795 0.0
C697 C 0.17335 0.83639 0.15241 0.0
C698 C 0.15484 0.8192 0.15445 0.0
C699 C 0.14548 0.80869 0.13167 0.0
C700 C 0.15419 0.81472 0.10703 0.0
C701 C 0.17331 0.83125 0.10527 0.0
H702 H 0.35783 0.1235 0.86952 0.0
H703 H 0.35093 0.16613 0.9149 0.0
H704 H 0.36395 0.17513 0.83157 0.0
H705 H 0.34891 0.1917 0.83232 0.0
H706 H 0.35589 0.24271 0.87347 0.0
H707 H 0.36224 0.1986 0.91584 0.0
C708 C 0.35719 0.13714 0.87046 0.0
C709 C 0.36006 0.14811 0.84762 0.0
C710 C 0.3541 0.14361 0.89467 0.0
C711 C 0.35388 0.16165 0.89613 0.0
C712 C 0.35697 0.17335 0.8733 0.0
C713 C 0.3607 0.16647 0.8493 0.0
C714 C 0.35602 0.19238 0.87395 0.0
C715 C 0.3523 0.19992 0.85052 0.0
C716 C 0.35275 0.21822 0.85001 0.0
C717 C 0.35529 0.22843 0.87356 0.0
C718 C 0.35805 0.22108 0.89726 0.0
C719 C 0.35901 0.20341 0.89747 0.0
H720 H 0.7967 0.13119 0.87631 0.0
H721 H 0.84902 0.1728 0.91665 0.0
H722 H 0.83869 0.18348 0.83596 0.0
H723 H 0.87073 0.19775 0.83292 0.0
H724 H 0.92059 0.24396 0.8728 0.0
H725 H 0.86958 0.20518 0.91735 0.0
C726 C 0.8104 0.14522 0.87614 0.0
C727 C 0.81643 0.15657 0.85322 0.0
C728 C 0.82182 0.15138 0.899 0.0
C729 C 0.8401 0.16889 0.89899 0.0
C730 C 0.84691 0.18068 0.87606 0.0
C731 C 0.83451 0.17447 0.85346 0.0
C732 C 0.86712 0.1988 0.87528 0.0
C733 C 0.87724 0.20544 0.85113 0.0
C734 C 0.89636 0.22178 0.85021 0.0
C735 C 0.9058 0.23128 0.87349 0.0
C736 C 0.89632 0.22513 0.89762 0.0
C737 C 0.87685 0.20926 0.89853 0.0
H738 H 0.79907 0.68102 0.87143 0.0
H739 H 0.85207 0.69496 0.91357 0.0
H740 H 0.84225 0.67055 0.83473 0.0
H741 H 0.87422 0.69035 0.83133 0.0
H742 H 0.9228 0.69057 0.87101 0.0
H743 H 0.87319 0.68274 0.91583 0.0
C744 C 0.81319 0.68148 0.87215 0.0
C745 C 0.81947 0.67523 0.85033 0.0
C746 C 0.82459 0.68817 0.89507 0.0
C747 C 0.84316 0.68925 0.89597 0.0
C748 C 0.85028 0.68358 0.87389 0.0
C749 C 0.83786 0.67605 0.85143 0.0
C750 C 0.87065 0.68591 0.87361 0.0
C751 C 0.88068 0.68889 0.84946 0.0
C752 C 0.89933 0.69034 0.8483 0.0
C753 C 0.90854 0.68983 0.87164 0.0
C754 C 0.89946 0.68766 0.89591 0.0
C755 C 0.88034 0.68523 0.89697 0.0
H756 H 0.92129 0.69102 0.45143 0.0
H757 H 0.86823 0.6801 0.41229 0.0
H758 H 0.87661 0.69409 0.49578 0.0
H759 H 0.84501 0.67816 0.49777 0.0
H760 H 0.7963 0.67876 0.45971 0.0
H761 H 0.84676 0.69054 0.41438 0.0
C762 C 0.90692 0.69007 0.45217 0.0
C763 C 0.89968 0.6922 0.47617 0.0
C764 C 0.89581 0.6861 0.42921 0.0
C765 C 0.87693 0.68421 0.43015 0.0
C766 C 0.86938 0.68702 0.4542 0.0
C767 C 0.8814 0.69155 0.47703 0.0
C768 C 0.84893 0.68458 0.45577 0.0
C769 C 0.83868 0.68031 0.48001 0.0
C770 C 0.81984 0.67849 0.4817 0.0
C771 C 0.81065 0.67975 0.45872 0.0
C772 C 0.82012 0.68352 0.43453 0.0
C773 C 0.8394 0.68655 0.43314 0.0
H774 H 0.36301 0.24849 0.4517 0.0
H775 H 0.36485 0.20297 0.40643 0.0
H776 H 0.35123 0.19506 0.48982 0.0
H777 H 0.36299 0.17572 0.48992 0.0
H778 H 0.35976 0.1268 0.44798 0.0
H779 H 0.35415 0.17123 0.40516 0.0
C780 C 0.36194 0.23401 0.45063 0.0
C781 C 0.35797 0.22283 0.47343 0.0
C782 C 0.36401 0.22676 0.42647 0.0
C783 C 0.36242 0.20789 0.42518 0.0
C784 C 0.35834 0.19603 0.44808 0.0
C785 C 0.3553 0.20363 0.47197 0.0
C786 C 0.35818 0.17642 0.44761 0.0
C787 C 0.36062 0.1682 0.4713 0.0
C788 C 0.36084 0.15028 0.47143 0.0
C789 C 0.35944 0.14064 0.44784 0.0
C790 C 0.35742 0.14836 0.42405 0.0
C791 C 0.35633 0.16596 0.42383 0.0
H792 H 0.91964 0.23962 0.45599 0.0
H793 H 0.86842 0.19606 0.41514 0.0
H794 H 0.87554 0.19054 0.49887 0.0
H795 H 0.84392 0.17411 0.49952 0.0
H796 H 0.79851 0.12249 0.46134 0.0
H797 H 0.84819 0.16357 0.41667 0.0
C798 C 0.9055 0.22604 0.45649 0.0
C799 C 0.89824 0.21636 0.48034 0.0
C800 C 0.89497 0.21866 0.43311 0.0
C801 C 0.87665 0.20104 0.43334 0.0
C802 C 0.86901 0.19041 0.45711 0.0
C803 C 0.88043 0.19823 0.4804 0.0
C804 C 0.84914 0.17163 0.45798 0.0
C805 C 0.8385 0.16527 0.48187 0.0
C806 C 0.82044 0.14745 0.48339 0.0
C807 C 0.81229 0.13642 0.46048 0.0
C808 C 0.82197 0.14249 0.43647 0.0
C809 C 0.84057 0.15974 0.43525 0.0
H810 H 1.02432 0.459 0.2067 0.0
H811 H 1.01807 0.503 0.24972 0.0
H812 H 0.03249 0.51061 0.16668 0.0
H813 H 1.01852 0.52794 0.1654 0.0
H814 H 1.02532 0.57973 0.20371 0.0
H815 H 0.02849 0.5352 0.24969 0.0
C816 C 1.02408 0.47287 0.20697 0.0
C817 C 0.02752 0.48357 0.18378 0.0
C818 C 1.02087 0.47984 0.23068 0.0
C819 C 1.02112 0.49815 0.23131 0.0
C820 C 1.02482 0.50961 0.20807 0.0
C821 C 0.02871 0.5022 0.18464 0.0
C822 C 1.02425 0.52889 0.20758 0.0
C823 C 1.02154 0.53635 0.18338 0.0
C824 C 1.02239 0.55479 0.18175 0.0
C825 C 1.02434 0.5653 0.20481 0.0
C826 C 1.02569 0.55794 0.22934 0.0
C827 C 1.02638 0.5401 0.2307 0.0
H828 H 0.46819 0.46346 0.21153 0.0
H829 H 0.51622 0.51118 0.25241 0.0
H830 H 0.50872 0.51433 0.16815 0.0
H831 H 0.54039 0.53248 0.16775 0.0
H832 H 0.58439 0.58507 0.20531 0.0
H833 H 0.53465 0.54372 0.25002 0.0
C834 C 0.48132 0.478 0.2111 0.0
C835 C 0.4879 0.48774 0.1872 0.0
C836 C 0.4912 0.48661 0.23451 0.0
C837 C 0.50835 0.50528 0.23413 0.0
C838 C 0.51543 0.5157 0.21013 0.0
C839 C 0.50443 0.50683 0.18683 0.0
C840 C 0.53452 0.53519 0.20905 0.0
C841 C 0.5453 0.54152 0.1853 0.0
C842 C 0.56306 0.55951 0.18396 0.0
C843 C 0.57059 0.57115 0.20642 0.0
C844 C 0.56051 0.5654 0.23018 0.0
C845 C 0.54245 0.54755 0.23157 0.0
H846 H 0.46937 0.02264 0.20847 0.0
H847 H 0.51631 0.02327 0.25277 0.0
H848 H 0.51233 1.01421 0.16807 0.0
H849 H 0.543 0.02519 0.16855 0.0
H850 H 0.58807 0.02044 0.21022 0.0
H851 H 0.53872 1.01496 0.25283 0.0
C852 C 0.48292 0.0219 0.20898 0.0
C853 C 0.49054 0.0192 0.18567 0.0
C854 C 0.49188 0.02276 0.23305 0.0
C855 C 0.50943 0.0218 0.23383 0.0
C856 C 0.51787 0.01939 0.21038 0.0
C857 C 0.50748 1.01722 0.18644 0.0
C858 C 0.53744 0.01955 0.21057 0.0
C859 C 0.54813 0.02244 0.18693 0.0
C860 C 0.56614 0.02241 0.18654 0.0
C861 C 0.57421 0.02056 0.21018 0.0
C862 C 0.56459 0.0185 0.23394 0.0
C863 C 0.54604 1.01739 0.23417 0.0
H864 H 0.58677 0.02071 0.7868 0.0
H865 H 0.53392 1.01013 0.74729 0.0
H866 H 0.5425 0.02481 0.83059 0.0
H867 H 0.51118 1.00925 0.83312 0.0
H868 H 0.46255 1.01028 0.79609 0.0
H869 H 0.51148 0.01918 0.74913 0.0
C870 C 0.57244 0.01986 0.78742 0.0
C871 C 0.5653 0.02235 0.81129 0.0
C872 C 0.5614 1.01592 0.76439 0.0
C873 C 0.54256 1.0142 0.76519 0.0
C874 C 0.53501 1.01715 0.78916 0.0
C875 C 0.54712 0.0219 0.81195 0.0
C876 C 0.51454 1.01474 0.79083 0.0
C877 C 0.50471 1.01116 0.81534 0.0
C878 C 0.48608 1.00971 0.81736 0.0
C879 C 0.47663 1.01073 0.79456 0.0
C880 C 0.48539 1.01341 0.76992 0.0
C881 C 0.50455 1.01603 0.76817 0.0
H882 H 0.03169 0.57931 0.78422 0.0
H883 H 1.01835 0.52762 0.73905 0.0
H884 H 0.03042 0.53002 0.82285 0.0
H885 H 1.01536 0.49861 0.8211 0.0
H886 H 1.0201 0.45391 0.77845 0.0
H887 H 0.02802 0.50539 0.73744 0.0
C888 C 0.03004 0.56458 0.78317 0.0
C889 C 0.03089 0.5553 0.80614 0.0
C890 C 1.02586 0.55475 0.75905 0.0
C891 C 1.02245 0.53519 0.75779 0.0
C892 C 1.02425 0.52569 0.78061 0.0
C893 C 0.02853 0.5362 0.8048 0.0
C894 C 1.0219 0.50515 0.7794 0.0
C895 C 1.01799 0.49363 0.80254 0.0
C896 C 1.01822 0.47569 0.80237 0.0
C897 C 1.02037 0.46805 0.77866 0.0
C898 C 1.0234 0.47847 0.7553 0.0
C899 C 1.02455 0.49715 0.75559 0.0
H900 H 0.58748 0.57439 0.79251 0.0
H901 H 0.53574 0.53096 0.75271 0.0
H902 H 0.54306 0.52661 0.83675 0.0
H903 H 0.51186 0.50911 0.83815 0.0
H904 H 0.46464 0.45918 0.79967 0.0
H905 H 0.51426 0.49946 0.75447 0.0
C906 C 0.57321 0.56099 0.79336 0.0
C907 C 0.56591 0.55182 0.81748 0.0
C908 C 0.56252 0.55334 0.77017 0.0
C909 C 0.54401 0.536 0.77086 0.0
C910 C 0.53631 0.52579 0.79489 0.0
C911 C 0.5479 0.53388 0.81803 0.0
C912 C 0.51622 0.50723 0.79609 0.0
C913 C 0.50596 0.50072 0.82026 0.0
C914 C 0.48756 0.48328 0.82179 0.0
C915 C 0.4787 0.47281 0.79877 0.0
C916 C 0.48804 0.47895 0.77458 0.0
C917 C 0.50698 0.49571 0.77328 0.0
H918 H 0.69917 0.79298 0.54776 0.0
H919 H 0.69015 0.83534 0.59062 0.0
H920 H 0.70472 0.84361 0.50766 0.0
H921 H 0.6888 0.85916 0.50643 0.0
H922 H 0.69324 0.91012 0.54438 0.0
H923 H 0.69982 0.86758 0.59045 0.0
C924 C 0.69828 0.80651 0.54802 0.0
C925 C 0.70118 0.81706 0.5248 0.0
C926 C 0.69448 0.81304 0.57169 0.0
C927 C 0.69372 0.83085 0.57229 0.0
C928 C 0.69696 0.84221 0.54905 0.0
C929 C 0.70138 0.83524 0.52564 0.0
C930 C 0.69521 0.86084 0.54847 0.0
C931 C 0.69163 0.86767 0.52429 0.0
C932 C 0.69133 0.88555 0.52258 0.0
C933 C 0.69308 0.89608 0.54555 0.0
C934 C 0.69528 0.88928 0.57007 0.0
C935 C 0.69706 0.87204 0.5715 0.0
H936 H 0.13026 0.79623 0.54495 0.0
H937 H 0.18242 0.83801 0.5856 0.0
H938 H 0.17187 0.84894 0.50512 0.0
H939 H 0.20386 0.8632 0.5019 0.0
H940 H 0.25323 0.91035 0.54128 0.0
H941 H 0.20293 0.87065 0.58639 0.0
C942 C 0.14388 0.81033 0.54493 0.0
C943 C 0.14983 0.82183 0.52215 0.0
C944 C 0.15528 0.81643 0.56782 0.0
C945 C 0.17349 0.83409 0.56795 0.0
C946 C 0.18021 0.84602 0.54511 0.0
C947 C 0.16779 0.83983 0.52253 0.0
C948 C 0.20033 0.86429 0.54429 0.0
C949 C 0.21032 0.87103 0.52004 0.0
C950 C 0.22924 0.88767 0.51894 0.0
C951 C 0.2386 0.89741 0.54211 0.0
C952 C 0.22934 0.89113 0.56634 0.0
C953 C 0.21007 0.87488 0.56749 0.0
H954 H 0.13465 0.35417 0.53396 0.0
H955 H 0.18337 0.35878 0.57864 0.0
H956 H 0.17828 0.34632 0.4947 0.0
H957 H 0.20935 0.35921 0.49502 0.0
H958 H 0.25506 0.35569 0.5369 0.0
H959 H 0.20533 0.3495 0.57937 0.0
C960 C 0.1485 0.35403 0.53485 0.0
C961 C 0.15613 0.35099 0.5118 0.0
C962 C 0.15802 0.35641 0.55896 0.0
C963 C 0.17593 0.35612 0.55989 0.0
C964 C 0.18415 0.35297 0.53672 0.0
C965 C 0.17339 0.34965 0.51283 0.0
C966 C 0.20397 0.35375 0.53706 0.0
C967 C 0.21467 0.35671 0.51343 0.0
C968 C 0.23284 0.35703 0.51311 0.0
C969 C 0.24108 0.35557 0.53681 0.0
C970 C 0.23147 0.35353 0.56057 0.0
C971 C 0.21273 0.35199 0.56075 0.0
H972 H 1.00771 0.40697 0.0487 0.0
H973 H 0.07081 0.44605 0.05023 0.0
H974 H 1.00409 0.42505 0.08511 0.0
H975 H 0.06736 0.46362 0.08782 0.0
H976 H 0.05339 0.50141 0.14275 0.0
H977 H 0.05648 0.4855 0.10297 0.0
H978 H 1.00926 0.42914 0.12989 0.0
H979 H 1.00523 0.44518 0.16811 0.0
C980 C 1.02087 0.41924 0.05715 0.0
C981 C 0.03957 0.42493 0.04677 0.0
C982 C 1.01882 0.42963 0.07813 0.0
C983 C 0.03545 0.44575 0.08971 0.0
C984 C 0.05418 0.45148 0.07924 0.0
C985 C 0.0562 0.44128 0.05786 0.0
C986 C 0.04346 0.48571 0.13983 0.0
C987 C 0.02919 0.47456 0.15876 0.0
C988 C 0.0454 0.47651 0.11722 0.0
C989 C 0.03318 0.45596 0.11315 0.0
C990 C 1.01876 0.445 0.13197 0.0
C991 C 1.01665 0.45419 0.15423 0.0
H992 H 0.61035 0.61441 0.03124 0.0
H993 H 0.65844 0.6394 0.08692 0.0
H994 H 0.58848 0.59205 0.06496 0.0
H995 H 0.63658 0.61811 0.12123 0.0
H996 H 0.60019 0.56722 0.17322 0.0
H997 H 0.62051 0.58584 0.13623 0.0
H998 H 0.57101 0.58919 0.10305 0.0
H999 H 0.55059 0.56976 0.13976 0.0
C1000 C 0.61612 0.61512 0.05085 0.0
C1001 C 0.63611 0.62797 0.05644 0.0
C1002 C 0.60361 0.60246 0.07025 0.0
C1003 C 0.61074 0.60294 0.09587 0.0
C1004 C 0.63063 0.61672 0.1016 0.0
C1005 C 0.64318 0.62904 0.08205 0.0
C1006 C 0.5936 0.57151 0.15756 0.0
C1007 C 0.57388 0.56701 0.15911 0.0
C1008 C 0.60528 0.58241 0.1365 0.0
C1009 C 0.59759 0.58938 0.11668 0.0
C1010 C 0.57748 0.58398 0.1177 0.0
C1011 C 0.56572 0.57281 0.13868 0.0
H1012 H 0.40669 0.02832 0.08557 0.0
H1013 H 0.42698 0.99763 0.03503 0.0
H1014 H 0.42828 0.02874 0.12061 0.0
H1015 H 0.4496 0.99889 0.06955 0.0
H1016 H 0.47524 0.99008 0.14784 0.0
H1017 H 0.45358 0.98759 0.11116 0.0
H1018 H 0.46138 0.04509 0.13192 0.0
H1019 H 0.48262 0.04734 0.16816 0.0
C1020 C 0.41605 0.02191 0.08196 0.0
C1021 C 0.41579 1.01358 0.05749 0.0
C1022 C 0.42851 0.02218 0.10194 0.0
C1023 C 0.44114 1.01427 0.09781 0.0
C1024 C 0.44013 1.0051 0.07354 0.0
C1025 C 0.42733 1.00451 0.05369 0.0
C1026 C 0.4726 1.00232 0.14399 0.0
C1027 C 0.48048 0.01886 0.16078 0.0
C1028 C 0.46017 1.00091 0.12307 0.0
C1029 C 0.45548 1.01607 0.11862 0.0
C1030 C 0.4643 0.03299 0.13481 0.0
C1031 C 0.47661 0.03437 0.15555 0.0
H1032 H 0.44976 0.05516 0.9454 0.0
H1033 H 0.40537 0.99318 0.94663 0.0
H1034 H 0.46712 0.04849 0.91087 0.0
H1035 H 0.42318 0.98629 0.9129 0.0
H1036 H 0.44734 0.98643 0.83065 0.0
H1037 H 0.4306 0.99033 0.86829 0.0
H1038 H 0.48681 0.03411 0.90088 0.0
H1039 H 0.50343 0.03103 0.86214 0.0
C1040 C 0.44372 0.04008 0.93834 0.0
C1041 C 0.42605 0.02475 0.94863 0.0
C1042 C 0.45384 0.03618 0.91872 0.0
C1043 C 0.44671 1.01679 0.90909 0.0
C1044 C 0.42903 1.00146 0.91947 0.0
C1045 C 0.41877 1.00541 0.93885 0.0
C1046 C 0.45615 0.99677 0.84597 0.0
C1047 C 0.47669 1.00867 0.84316 0.0
C1048 C 0.44655 0.9989 0.86775 0.0
C1049 C 0.45725 1.01281 0.88756 0.0
C1050 C 0.47799 0.02363 0.8857 0.0
C1051 C 0.4876 0.02162 0.86371 0.0
H1052 H 1.00663 0.42371 0.95897 0.0
H1053 H 0.03175 0.39708 0.90923 0.0
H1054 H 1.00529 0.44303 0.92177 0.0
H1055 H 0.02925 0.41508 0.87166 0.0
H1056 H 0.99166 0.46334 0.84305 0.0
H1057 H 0.99104 0.44387 0.88136 0.0
H1058 H 0.04479 0.44635 0.85453 0.0
H1059 H 0.04513 0.46533 0.81682 0.0
C1060 C 1.0117 0.42195 0.93992 0.0
C1061 C 1.02 0.40964 0.93692 0.0
C1062 C 1.01076 0.43281 0.91855 0.0
C1063 C 1.0175 0.43096 0.89367 0.0
C1064 C 1.02461 0.41753 0.89062 0.0
C1065 C 1.02597 0.40712 0.91206 0.0
C1066 C 1.00339 0.45983 0.84574 0.0
C1067 C 1.01831 0.46559 0.82694 0.0
C1068 C 1.0031 0.44872 0.86764 0.0
C1069 C 1.01781 0.44334 0.8711 0.0
C1070 C 0.03302 0.44981 0.85254 0.0
C1071 C 0.03327 0.46077 0.83084 0.0
H1072 H 0.64965 0.59273 0.94806 0.0
H1073 H 0.62856 0.63479 0.94516 0.0
H1074 H 0.62739 0.57406 0.91206 0.0
H1075 H 0.60572 0.61573 0.91024 0.0
H1076 H 0.58356 0.59114 0.82921 0.0
H1077 H 0.60483 0.6086 0.86597 0.0
H1078 H 0.59405 0.55284 0.89916 0.0
H1079 H 0.57364 0.53533 0.86093 0.0
C1080 C 0.64025 0.59798 0.93976 0.0
C1081 C 0.64111 0.61543 0.94926 0.0
C1082 C 0.6273 0.58713 0.9193 0.0
C1083 C 0.6147 0.59333 0.90808 0.0
C1084 C 0.61546 0.61067 0.91788 0.0
C1085 C 0.62859 0.62165 0.938 0.0
C1086 C 0.58582 0.58254 0.8442 0.0
C1087 C 0.57713 0.56183 0.84184 0.0
C1088 C 0.59785 0.59259 0.8656 0.0
C1089 C 0.60128 0.58222 0.8857 0.0
C1090 C 0.59204 0.56138 0.88386 0.0
C1091 C 0.5801 0.55128 0.86214 0.0
H1092 H 1.01385 0.59848 0.95789 0.0
H1093 H 0.04247 0.64898 0.9067 0.0
H1094 H 1.01567 0.57725 0.92382 0.0
H1095 H 0.04323 0.62784 0.87188 0.0
H1096 H 0.05981 0.59184 0.82135 0.0
H1097 H 0.05922 0.61121 0.85849 0.0
H1098 H 1.00412 0.56139 0.88386 0.0
H1099 H 1.00531 0.54189 0.84703 0.0
C1100 C 1.02036 0.60492 0.93914 0.0
C1101 C 0.02867 0.62536 0.93505 0.0
C1102 C 1.02129 0.59278 0.91951 0.0
C1103 C 0.02994 0.60079 0.89506 0.0
C1104 C 0.03713 0.62116 0.89066 0.0
C1105 C 0.0366 0.63332 0.9105 0.0
C1106 C 0.04789 0.58494 0.83535 0.0
C1107 C 0.03267 0.56539 0.83148 0.0
C1108 C 0.04737 0.5961 0.85651 0.0
C1109 C 0.03147 0.58809 0.87417 0.0
C1110 C 1.01673 0.56811 0.87095 0.0
C1111 C 1.01739 0.55685 0.84988 0.0
H1112 H 0.45185 0.4039 0.95284 0.0
H1113 H 0.40622 0.42011 0.95037 0.0
H1114 H 0.46914 0.42716 0.91757 0.0
H1115 H 0.4239 0.44401 0.916 0.0
H1116 H 0.44841 0.4666 0.83383 0.0
H1117 H 0.4317 0.44631 0.87161 0.0
H1118 H 0.48809 0.46095 0.90624 0.0
H1119 H 0.50474 0.48027 0.86739 0.0
C1120 C 0.44553 0.41247 0.94482 0.0
C1121 C 0.42753 0.40995 0.95427 0.0
C1122 C 0.45558 0.42603 0.92478 0.0
C1123 C 0.44804 0.43764 0.9139 0.0
C1124 C 0.43006 0.43515 0.9235 0.0
C1125 C 0.41988 0.42141 0.94328 0.0
C1126 C 0.45726 0.46559 0.84959 0.0
C1127 C 0.4779 0.4748 0.84737 0.0
C1128 C 0.44767 0.45406 0.87146 0.0
C1129 C 0.45847 0.45166 0.89196 0.0
C1130 C 0.47923 0.46202 0.89056 0.0
C1131 C 0.48883 0.47342 0.86849 0.0
H1132 H 0.62526 0.04261 0.96433 0.0
H1133 H 0.65017 1.01614 0.91396 0.0
H1134 H 0.60402 0.04196 0.92825 0.0
H1135 H 0.63036 1.01679 0.87739 0.0
H1136 H 0.57757 0.99692 0.82615 0.0
H1137 H 0.59879 0.99983 0.86246 0.0
H1138 H 0.59991 0.05367 0.88766 0.0
H1139 H 0.57825 0.0505 0.85062 0.0
C1140 C 0.62628 0.03688 0.94535 0.0
C1141 C 0.63864 0.02872 0.94195 0.0
C1142 C 0.6143 0.03667 0.9246 0.0
C1143 C 0.61506 0.02892 0.89988 0.0
C1144 C 0.62866 0.02213 0.89629 0.0
C1145 C 0.64015 0.02185 0.91716 0.0
C1146 C 0.58227 1.00934 0.83955 0.0
C1147 C 0.57644 0.02358 0.83549 0.0
C1148 C 0.59454 1.01108 0.86045 0.0
C1149 C 0.60132 0.02707 0.87815 0.0
C1150 C 0.5949 0.04104 0.87463 0.0
C1151 C 0.5825 0.03927 0.85347 0.0
H1152 H 0.6037 0.98213 0.05296 0.0
H1153 H 0.64886 0.04376 0.05813 0.0
H1154 H 0.58645 0.9868 0.08949 0.0
H1155 H 0.63121 0.04862 0.09407 0.0
H1156 H 0.60576 0.04372 0.17662 0.0
H1157 H 0.62309 0.04106 0.1387 0.0
H1158 H 0.56724 1.00168 0.10125 0.0
H1159 H 0.54992 1.00343 0.14002 0.0
C1160 C 0.60996 0.9967 0.06188 0.0
C1161 C 0.62775 1.01253 0.05267 0.0
C1162 C 0.59992 0.99944 0.08267 0.0
C1163 C 0.6073 1.01814 0.09465 0.0
C1164 C 0.62518 0.03395 0.08556 0.0
C1165 C 0.63533 0.03116 0.06491 0.0
C1166 C 0.59716 0.0345 0.16028 0.0
C1167 C 0.57645 0.02354 0.16154 0.0
C1168 C 0.60712 0.03313 0.13836 0.0
C1169 C 0.59661 0.02094 0.11697 0.0
C1170 C 0.57584 1.01085 0.11761 0.0
C1171 C 0.56587 1.0121 0.13967 0.0
H1172 H 1.00859 0.61821 0.04827 0.0
H1173 H 0.06894 0.63021 0.04671 0.0
H1174 H 1.00166 0.59528 0.08439 0.0
H1175 H 0.06221 0.60785 0.08361 0.0
H1176 H 0.0418 0.55525 0.13685 0.0
H1177 H 0.04556 0.57409 0.09689 0.0
H1178 H 1.00801 0.595 0.12947 0.0
H1179 H 1.00332 0.57526 0.16853 0.0
C1180 C 1.02047 0.61615 0.05583 0.0
C1181 C 0.03937 0.62619 0.04466 0.0
C1182 C 1.01649 0.60299 0.07663 0.0
C1183 C 0.03136 0.59967 0.08703 0.0
C1184 C 0.05028 0.60973 0.07585 0.0
C1185 C 0.05421 0.62274 0.05483 0.0
C1186 C 0.03393 0.56345 0.13515 0.0
C1187 C 1.02241 0.56388 0.156 0.0
C1188 C 0.03635 0.57453 0.11241 0.0
C1189 C 0.02736 0.58637 0.11004 0.0
C1190 C 1.01509 0.58602 0.13043 0.0
C1191 C 1.01256 0.57484 0.15301 0.0
H1192 H 0.42514 0.43899 0.03751 0.0
H1193 H 0.40621 0.39018 0.09134 0.0
H1194 H 0.44692 0.4619 0.0714 0.0
H1195 H 0.42704 0.4129 0.12568 0.0
H1196 H 0.48122 0.4516 0.17222 0.0
H1197 H 0.46026 0.43098 0.13688 0.0
H1198 H 0.44986 0.47835 0.11209 0.0
H1199 H 0.47118 0.49919 0.14801 0.0
C1200 C 0.42561 0.43326 0.05674 0.0
C1201 C 0.41472 0.41284 0.06169 0.0
C1202 C 0.43793 0.44636 0.07622 0.0
C1203 C 0.4391 0.43927 0.10123 0.0
C1204 C 0.42711 0.41888 0.10645 0.0
C1205 C 0.41511 0.40581 0.08686 0.0
C1206 C 0.47464 0.4577 0.159 0.0
C1207 C 0.47769 0.47692 0.16291 0.0
C1208 C 0.46251 0.44582 0.13875 0.0
C1209 C 0.45309 0.45279 0.12167 0.0
C1210 C 0.45691 0.47246 0.12477 0.0
C1211 C 0.46915 0.48445 0.14525 0.0
H1212 H 0.74337 0.78177 0.38746 0.0
H1213 H 0.68036 0.74205 0.38794 0.0
H1214 H 0.7405 0.79857 0.42634 0.0
H1215 H 0.67735 0.7593 0.42577 0.0
H1216 H 0.72625 0.83549 0.48317 0.0
H1217 H 0.72918 0.82 0.44284 0.0
H1218 H 0.6838 0.76293 0.4706 0.0
H1219 H 0.67994 0.77848 0.50949 0.0
C1220 C 0.72891 0.77665 0.39583 0.0
C1221 C 0.71214 0.76039 0.38481 0.0
C1222 C 0.72723 0.78642 0.41796 0.0
C1223 C 0.7087 0.78029 0.42936 0.0
C1224 C 0.69193 0.76419 0.41801 0.0
C1225 C 0.69365 0.75427 0.3962 0.0
C1226 C 0.71672 0.8197 0.48038 0.0
C1227 C 0.70299 0.80823 0.4997 0.0
C1228 C 0.71857 0.81075 0.45743 0.0
C1229 C 0.70676 0.79016 0.4534 0.0
C1230 C 0.69296 0.77883 0.47269 0.0
C1231 C 0.69096 0.78775 0.49531 0.0
H1232 H 0.27444 0.94443 0.36613 0.0
H1233 H 0.3228 0.96948 0.42142 0.0
H1234 H 0.25284 0.92175 0.3999 0.0
H1235 H 0.30126 0.94775 0.45565 0.0
H1236 H 0.26604 0.89541 0.50594 0.0
H1237 H 0.28571 0.91492 0.46921 0.0
H1238 H 0.23571 0.91875 0.43911 0.0
H1239 H 0.21595 0.89885 0.47606 0.0
C1240 C 0.28033 0.94508 0.38565 0.0
C1241 C 0.30033 0.95805 0.39113 0.0
C1242 C 0.26799 0.93223 0.40505 0.0
C1243 C 0.27532 0.9326 0.4305 0.0
C1244 C 0.29519 0.94649 0.43613 0.0
C1245 C 0.30755 0.95903 0.41661 0.0
C1246 C 0.25917 0.90007 0.49111 0.0
C1247 C 0.23953 0.8957 0.4938 0.0
C1248 C 0.27048 0.91141 0.47011 0.0
C1249 C 0.26247 0.91871 0.45122 0.0
C1250 C 0.2424 0.91331 0.45311 0.0
C1251 C 0.23102 0.90185 0.47421 0.0
H1252 H 0.09025 0.32909 0.36284 0.0
H1253 H 0.0718 0.36063 0.41479 0.0
H1254 H 0.11325 0.32985 0.39652 0.0
H1255 H 0.09395 0.36076 0.44884 0.0
H1256 H 0.13929 0.32085 0.47532 0.0
H1257 H 0.11722 0.31831 0.43901 0.0
H1258 H 0.12796 0.37724 0.45727 0.0
H1259 H 0.14972 0.37965 0.49289 0.0
C1260 C 0.09109 0.33606 0.3816 0.0
C1261 C 0.07997 0.34551 0.38604 0.0
C1262 C 0.10411 0.33639 0.40093 0.0
C1263 C 0.10581 0.34574 0.42524 0.0
C1264 C 0.09359 0.35402 0.43007 0.0
C1265 C 0.08085 0.35394 0.41065 0.0
C1266 C 0.13724 0.33338 0.47092 0.0
C1267 C 0.1461 0.35042 0.48682 0.0
C1268 C 0.12457 0.33194 0.45027 0.0
C1269 C 0.12057 0.34752 0.44537 0.0
C1270 C 0.13039 0.36487 0.46057 0.0
C1271 C 0.14299 0.36633 0.48093 0.0
H1272 H 0.06846 0.32679 0.27406 0.0
H1273 H 0.1139 0.38839 0.27612 0.0
H1274 H 0.08651 0.32035 0.2401 0.0
H1275 H 0.13152 0.38218 0.24155 0.0
H1276 H 0.16839 0.36506 0.1939 0.0
H1277 H 0.15083 0.36725 0.2321 0.0
H1278 H 0.09531 0.3257 0.19565 0.0
H1279 H 0.11295 0.32262 0.1584 0.0
C1280 C 0.08214 0.33904 0.26697 0.0
C1281 C 0.08967 0.35812 0.27779 0.0
C1282 C 0.09253 0.33534 0.24748 0.0
C1283 C 0.11063 0.35069 0.23811 0.0
C1284 C 0.11793 0.36985 0.24865 0.0
C1285 C 0.10766 0.37348 0.26831 0.0
C1286 C 0.15249 0.35592 0.19444 0.0
C1287 C 0.14208 0.34387 0.17292 0.0
C1288 C 0.14235 0.35744 0.21615 0.0
C1289 C 0.12156 0.34704 0.21678 0.0
C1290 C 0.11128 0.33396 0.19601 0.0
C1291 C 0.12141 0.33231 0.17447 0.0
H1292 H 0.68267 0.76654 0.29629 0.0
H1293 H 0.70505 0.73797 0.2453 0.0
H1294 H 0.68416 0.78809 0.26025 0.0
H1295 H 0.70535 0.7583 0.20878 0.0
H1296 H 0.72295 0.80868 0.1539 0.0
H1297 H 0.72255 0.78981 0.19209 0.0
H1298 H 0.67066 0.79049 0.22053 0.0
H1299 H 0.67155 0.80991 0.18236 0.0
C1300 C 0.68773 0.76484 0.2772 0.0
C1301 C 0.69439 0.75123 0.27354 0.0
C1302 C 0.68845 0.77702 0.25649 0.0
C1303 C 0.6952 0.77524 0.23156 0.0
C1304 C 0.70076 0.76068 0.22782 0.0
C1305 C 0.70046 0.7489 0.24864 0.0
C1306 C 0.71167 0.80502 0.16858 0.0
C1307 C 0.69727 0.81066 0.16525 0.0
C1308 C 0.71132 0.79408 0.19046 0.0
C1309 C 0.69645 0.78838 0.20947 0.0
C1310 C 0.68248 0.79476 0.20657 0.0
C1311 C 0.68296 0.80589 0.18471 0.0
H1312 H 0.29435 0.9655 0.27865 0.0
H1313 H 0.31597 0.92387 0.28229 0.0
H1314 H 0.27268 0.94698 0.24258 0.0
H1315 H 0.29476 0.90567 0.24508 0.0
H1316 H 0.24123 0.86785 0.19162 0.0
H1317 H 0.2613 0.88458 0.23049 0.0
H1318 H 0.27414 0.94119 0.19805 0.0
H1319 H 0.25327 0.92458 0.16064 0.0
C1320 C 0.29475 0.95256 0.27145 0.0
C1321 C 0.30712 0.94634 0.28321 0.0
C1322 C 0.28229 0.94191 0.25065 0.0
C1323 C 0.28205 0.92488 0.24063 0.0
C1324 C 0.29438 0.91857 0.25243 0.0
C1325 C 0.3067 0.92913 0.27358 0.0
C1326 C 0.24812 0.88384 0.19309 0.0
C1327 C 0.24577 0.89486 0.17288 0.0
C1328 C 0.25984 0.89346 0.21518 0.0
C1329 C 0.2694 0.91428 0.21748 0.0
C1330 C 0.26682 0.92516 0.1973 0.0
C1331 C 0.25504 0.9156 0.17554 0.0
H1332 H 0.69421 0.9737 0.24704 0.0
H1333 H 0.66816 0.92368 0.29946 0.0
H1334 H 0.68979 0.95151 0.21029 0.0
H1335 H 0.66404 0.90132 0.26267 0.0
H1336 H 0.69189 0.88096 0.19187 0.0
H1337 H 0.6891 0.89744 0.23126 0.0
H1338 H 0.65985 0.92247 0.18598 0.0
H1339 H 0.6615 0.90515 0.14699 0.0
C1340 C 0.68766 0.95793 0.25062 0.0
C1341 C 0.68205 0.95035 0.27601 0.0
C1342 C 0.68493 0.94523 0.22964 0.0
C1343 C 0.67658 0.92472 0.23371 0.0
C1344 C 0.67061 0.91708 0.2591 0.0
C1345 C 0.67297 0.9298 0.28003 0.0
C1346 C 0.68428 0.88943 0.19047 0.0
C1347 C 0.67732 0.89209 0.16611 0.0
C1348 C 0.68285 0.899 0.213 0.0
C1349 C 0.67478 0.91165 0.21142 0.0
C1350 C 0.66654 0.91314 0.18756 0.0
C1351 C 0.66757 0.90327 0.16525 0.0
H1352 H 0.11966 0.7404 0.28615 0.0
H1353 H 0.0742 0.75683 0.28387 0.0
H1354 H 0.13696 0.76362 0.25083 0.0
H1355 H 0.09192 0.78078 0.24958 0.0
H1356 H 0.11597 0.80332 0.16745 0.0
H1357 H 0.09949 0.78326 0.20543 0.0
H1358 H 0.15602 0.79707 0.23884 0.0
H1359 H 0.1724 0.81607 0.19966 0.0
C1360 C 0.1134 0.74903 0.27815 0.0
C1361 C 0.09542 0.74656 0.2876 0.0
C1362 C 0.12345 0.76257 0.25809 0.0
C1363 C 0.11596 0.77425 0.24727 0.0
C1364 C 0.09803 0.77185 0.25698 0.0
C1365 C 0.08782 0.75808 0.27671 0.0
C1366 C 0.12491 0.80217 0.18297 0.0
C1367 C 0.14548 0.81101 0.18027 0.0
C1368 C 0.11545 0.79078 0.20498 0.0
C1369 C 0.12633 0.78819 0.22521 0.0
C1370 C 0.14707 0.79826 0.22338 0.0
C1371 C 0.15654 0.80948 0.20112 0.0
H1372 H 0.29449 0.37701 0.29565 0.0
H1373 H 0.31639 0.34888 0.2431 0.0
H1374 H 0.2725 0.37691 0.26098 0.0
H1375 H 0.29559 0.34981 0.20797 0.0
H1376 H 0.24117 0.33071 0.16062 0.0
H1377 H 0.26285 0.33308 0.19613 0.0
H1378 H 0.26831 0.38909 0.22 0.0
H1379 H 0.24633 0.3866 0.18362 0.0
C1380 C 0.29467 0.371 0.27651 0.0
C1381 C 0.30641 0.36223 0.27212 0.0
C1382 C 0.28224 0.37109 0.2566 0.0
C1383 C 0.28187 0.36294 0.23174 0.0
C1384 C 0.29483 0.35551 0.22707 0.0
C1385 C 0.30685 0.35503 0.2471 0.0
C1386 C 0.24682 0.34342 0.17367 0.0
C1387 C 0.24222 0.35853 0.16935 0.0
C1388 C 0.25935 0.34484 0.19407 0.0
C1389 C 0.26757 0.36134 0.21099 0.0
C1390 C 0.2622 0.3761 0.20747 0.0
C1391 C 0.24959 0.3747 0.18674 0.0
H1392 H 0.27024 0.31545 0.38074 0.0
H1393 H 0.31572 0.37696 0.38565 0.0
H1394 H 0.25281 0.32054 0.41672 0.0
H1395 H 0.29789 0.38229 0.42087 0.0
H1396 H 0.2724 0.37844 0.5029 0.0
H1397 H 0.28966 0.37534 0.46527 0.0
H1398 H 0.23375 0.33548 0.42827 0.0
H1399 H 0.21651 0.33758 0.46688 0.0
C1400 C 0.2765 0.33008 0.38947 0.0
C1401 C 0.29447 0.34575 0.38044 0.0
C1402 C 0.26638 0.33308 0.40993 0.0
C1403 C 0.27382 0.35188 0.42167 0.0
C1404 C 0.29182 0.36754 0.41261 0.0
C1405 C 0.30206 0.36448 0.39237 0.0
C1406 C 0.26377 0.36901 0.48673 0.0
C1407 C 0.24307 0.35799 0.48812 0.0
C1408 C 0.27369 0.3674 0.46495 0.0
C1409 C 0.26315 0.35494 0.44378 0.0
C1410 C 0.24238 0.34484 0.44448 0.0
C1411 C 0.23246 0.34631 0.46643 0.0
H1412 H 0.7318 0.95982 0.3854 0.0
H1413 H 0.67082 0.94542 0.39035 0.0
H1414 H 0.7271 0.93824 0.42263 0.0
H1415 H 0.66587 0.9232 0.42667 0.0
H1416 H 0.67026 0.90411 0.5101 0.0
H1417 H 0.67325 0.92332 0.47111 0.0
H1418 H 0.71235 0.90495 0.43694 0.0
H1419 H 0.71036 0.88674 0.47692 0.0
C1420 C 0.71737 0.952 0.39437 0.0
C1421 C 0.70176 0.95455 0.38506 0.0
C1422 C 0.7146 0.93942 0.41556 0.0
C1423 C 0.69607 0.92887 0.42774 0.0
C1424 C 0.68044 0.93132 0.41819 0.0
C1425 C 0.68328 0.94408 0.39727 0.0
C1426 C 0.67949 0.90414 0.49426 0.0
C1427 C 0.6903 0.89412 0.49683 0.0
C1428 C 0.68105 0.91501 0.47169 0.0
C1429 C 0.69323 0.91593 0.45085 0.0
C1430 C 0.70318 0.90497 0.45281 0.0
C1431 C 0.70177 0.89423 0.47556 0.0
H1432 H 0.07094 0.72827 0.42448 0.0
H1433 H 0.09225 0.77572 0.36804 0.0
H1434 H 0.08996 0.75213 0.45918 0.0
H1435 H 0.11173 0.79969 0.40269 0.0
H1436 H 0.16218 0.82328 0.47126 0.0
H1437 H 0.14185 0.80465 0.43353 0.0
H1438 H 0.08954 0.78282 0.48084 0.0
H1439 H 0.1095 0.80234 0.51799 0.0
C1440 C 0.07986 0.74382 0.41956 0.0
C1441 C 0.08072 0.75019 0.39363 0.0
C1442 C 0.09056 0.75747 0.43936 0.0
C1443 C 0.10234 0.77773 0.43353 0.0
C1444 C 0.10288 0.78415 0.40761 0.0
C1445 C 0.09181 0.7705 0.38789 0.0
C1446 C 0.1463 0.81504 0.4734 0.0
C1447 C 0.13754 0.81397 0.49789 0.0
C1448 C 0.13469 0.80422 0.45186 0.0
C1449 C 0.11423 0.79186 0.45458 0.0
C1450 C 0.10535 0.79189 0.47843 0.0
C1451 C 0.11683 0.80303 0.4997 0.0
H1452 H 0.40625 0.11408 0.7143 0.0
H1453 H 0.34344 0.0737 0.71095 0.0
H1454 H 0.40159 0.13109 0.75159 0.0
H1455 H 0.33861 0.09121 0.74708 0.0
H1456 H 0.33837 0.10998 0.83077 0.0
H1457 H 0.3431 0.09485 0.79206 0.0
H1458 H 0.38964 0.15214 0.76666 0.0
H1459 H 0.38577 0.16713 0.80687 0.0
C1460 C 0.39144 0.10892 0.72144 0.0
C1461 C 0.37525 0.09234 0.70997 0.0
C1462 C 0.38873 0.1188 0.74265 0.0
C1463 C 0.36972 0.11251 0.75257 0.0
C1464 C 0.35353 0.09622 0.74052 0.0
C1465 C 0.35628 0.08616 0.71971 0.0
C1466 C 0.34974 0.11938 0.81706 0.0
C1467 C 0.3619 0.13973 0.82217 0.0
C1468 C 0.35227 0.11072 0.79454 0.0
C1469 C 0.36677 0.12221 0.77606 0.0
C1470 C 0.37852 0.14275 0.78065 0.0
C1471 C 0.37614 0.15142 0.8035 0.0
H1472 H 0.94173 0.27762 0.69708 0.0
H1473 H 0.99067 0.30138 0.75148 0.0
H1474 H 0.92002 0.25551 0.73119 0.0
H1475 H 0.96904 0.28023 0.78609 0.0
H1476 H 0.93278 0.22844 0.83692 0.0
H1477 H 0.95256 0.24739 0.79985 0.0
H1478 H 0.90354 0.25334 0.77063 0.0
H1479 H 0.88363 0.23385 0.80771 0.0
C1480 C 0.94773 0.27811 0.71648 0.0
C1481 C 0.96789 0.29052 0.7216 0.0
C1482 C 0.93533 0.26559 0.73608 0.0
C1483 C 0.94278 0.26576 0.76138 0.0
C1484 C 0.96285 0.27913 0.76667 0.0
C1485 C 0.97527 0.29133 0.74695 0.0
C1486 C 0.92615 0.23346 0.82221 0.0
C1487 C 0.90674 0.22975 0.82511 0.0
C1488 C 0.93753 0.24449 0.80105 0.0
C1489 C 0.92983 0.25222 0.78231 0.0
C1490 C 0.90998 0.24755 0.7845 0.0
C1491 C 0.89852 0.23634 0.80569 0.0
H1492 H 0.75901 0.65738 0.69679 0.0
H1493 H 0.73721 0.68306 0.75348 0.0
H1494 H 0.77944 0.65385 0.73112 0.0
H1495 H 0.75713 0.67917 0.7878 0.0
H1496 H 0.77931 0.65205 0.84718 0.0
H1497 H 0.75827 0.64912 0.80994 0.0
H1498 H 0.80961 0.67992 0.76107 0.0
H1499 H 0.83095 0.68419 0.79884 0.0
C1500 C 0.75862 0.66221 0.71663 0.0
C1501 C 0.74712 0.67104 0.72253 0.0
C1502 C 0.77023 0.66019 0.73616 0.0
C1503 C 0.76981 0.66622 0.76204 0.0
C1504 C 0.75761 0.67428 0.76803 0.0
C1505 C 0.7464 0.67669 0.74843 0.0
C1506 C 0.78618 0.65819 0.82849 0.0
C1507 C 0.80687 0.66895 0.82623 0.0
C1508 C 0.7741 0.65642 0.80718 0.0
C1509 C 0.78238 0.66482 0.7829 0.0
C1510 C 0.8029 0.67366 0.77975 0.0
C1511 C 0.8151 0.6759 0.80132 0.0
H1512 H 0.78283 0.72005 0.61407 0.0
H1513 H 0.73782 0.65834 0.61081 0.0
H1514 H 0.80018 0.71468 0.57824 0.0
H1515 H 0.7556 0.65269 0.57582 0.0
H1516 H 0.78075 0.65529 0.49378 0.0
H1517 H 0.76366 0.6583 0.53163 0.0
H1518 H 0.81962 0.70052 0.56647 0.0
H1519 H 0.83661 0.69848 0.52754 0.0
C1520 C 0.77663 0.70531 0.60571 0.0
C1521 C 0.75881 0.68968 0.61518 0.0
C1522 C 0.78674 0.70215 0.58534 0.0
C1523 C 0.77946 0.68319 0.57412 0.0
C1524 C 0.76158 0.66757 0.5836 0.0
C1525 C 0.75133 0.6708 0.60371 0.0
C1526 C 0.78944 0.66515 0.50958 0.0
C1527 C 0.81005 0.67691 0.50736 0.0
C1528 C 0.77962 0.66675 0.5315 0.0
C1529 C 0.79016 0.67993 0.55209 0.0
C1530 C 0.81092 0.69062 0.55072 0.0
C1531 C 0.82074 0.68918 0.52859 0.0
H1532 H 0.34676 0.09309 0.6245 0.0
H1533 H 0.37178 0.06759 0.57263 0.0
H1534 H 0.34773 0.11504 0.58943 0.0
H1535 H 0.37155 0.08831 0.53688 0.0
H1536 H 0.38833 0.14 0.48445 0.0
H1537 H 0.38789 0.12016 0.52155 0.0
H1538 H 0.33491 0.11855 0.55007 0.0
H1539 H 0.33599 0.13913 0.51314 0.0
C1540 C 0.35228 0.09213 0.60539 0.0
C1541 C 0.35989 0.07934 0.6013 0.0
C1542 C 0.35269 0.10454 0.5852 0.0
C1543 C 0.36005 0.1038 0.56027 0.0
C1544 C 0.36647 0.08993 0.55597 0.0
C1545 C 0.36651 0.07793 0.57634 0.0
C1546 C 0.37686 0.13569 0.49902 0.0
C1547 C 0.36223 0.14107 0.49611 0.0
C1548 C 0.37644 0.12414 0.52021 0.0
C1549 C 0.36124 0.11746 0.53887 0.0
C1550 C 0.347 0.12355 0.53638 0.0
C1551 C 0.34757 0.13535 0.51526 0.0
H1552 H 0.95964 0.29721 0.61049 0.0
H1553 H 0.98106 0.25539 0.61193 0.0
H1554 H 0.93704 0.27863 0.5751 0.0
H1555 H 0.95907 0.23724 0.57546 0.0
H1556 H 0.90594 0.19923 0.5231 0.0
H1557 H 0.92596 0.21611 0.56186 0.0
H1558 H 0.93648 0.27233 0.53064 0.0
H1559 H 0.91554 0.25546 0.49338 0.0
C1560 C 0.95978 0.28422 0.60292 0.0
C1561 C 0.97233 0.27793 0.61389 0.0
C1562 C 0.9468 0.27353 0.58252 0.0
C1563 C 0.94623 0.25642 0.57215 0.0
C1564 C 0.95883 0.25014 0.58313 0.0
C1565 C 0.97162 0.26068 0.60387 0.0
C1566 C 0.91225 0.21514 0.52485 0.0
C1567 C 0.90929 0.22599 0.50496 0.0
C1568 C 0.92397 0.22488 0.54688 0.0
C1569 C 0.93302 0.24567 0.54944 0.0
C1570 C 0.92963 0.25634 0.52973 0.0
C1571 C 0.91781 0.24664 0.50803 0.0
H1572 H 0.36959 0.31456 0.57827 0.0
H1573 H 0.33917 0.26291 0.62715 0.0
H1574 H 0.369 0.29384 0.54199 0.0
H1575 H 0.33941 0.24193 0.59128 0.0
H1576 H 0.32903 0.2091 0.5112 0.0
H1577 H 0.3273 0.22778 0.54907 0.0
H1578 H 0.38468 0.27659 0.52914 0.0
H1579 H 0.3863 0.25805 0.49205 0.0
C1580 C 0.36303 0.29872 0.58124 0.0
C1581 C 0.35505 0.29032 0.60558 0.0
C1582 C 0.36272 0.2868 0.56054 0.0
C1583 C 0.35457 0.26617 0.56379 0.0
C1584 C 0.34579 0.2577 0.58798 0.0
C1585 C 0.34578 0.26967 0.60858 0.0
C1586 C 0.34138 0.22366 0.51545 0.0
C1587 C 0.35772 0.23223 0.49866 0.0
C1588 C 0.34042 0.2344 0.53706 0.0
C1589 C 0.3558 0.25386 0.54215 0.0
C1590 C 0.37244 0.26185 0.52585 0.0
C1591 C 0.37342 0.25118 0.50454 0.0
H1592 H 0.73842 0.08585 0.61231 0.0
H1593 H 0.78637 0.07327 0.61994 0.0
H1594 H 0.75554 0.10854 0.57647 0.0
H1595 H 0.80312 0.09526 0.58335 0.0
H1596 H 0.83737 0.14693 0.53051 0.0
H1597 H 0.82072 0.12862 0.56993 0.0
H1598 H 0.76423 0.10966 0.53248 0.0
H1599 H 0.78087 0.129 0.49398 0.0
C1600 C 0.75248 0.08768 0.60607 0.0
C1601 C 0.76095 0.07763 0.61895 0.0
C1602 C 0.76233 0.10072 0.58545 0.0
C1603 C 0.78082 0.10388 0.57693 0.0
C1604 C 0.78915 0.09361 0.58966 0.0
C1605 C 0.77942 0.08078 0.61049 0.0
C1606 C 0.82141 0.13933 0.53101 0.0
C1607 C 0.81048 0.13925 0.50893 0.0
C1608 C 0.81182 0.12851 0.55347 0.0
C1609 C 0.79107 0.11724 0.55432 0.0
C1610 C 0.78019 0.11813 0.53274 0.0
C1611 C 0.78976 0.1291 0.51046 0.0
H1612 H 0.98375 0.68294 0.57683 0.0
H1613 H 0.96005 0.7099 0.6284 0.0
H1614 H 0.96445 0.6849 0.54054 0.0
H1615 H 0.93917 0.71044 0.59266 0.0
H1616 H 0.91295 0.7199 0.51613 0.0
H1617 H 0.93479 0.72249 0.55266 0.0
H1618 H 0.93304 0.66873 0.52562 0.0
H1619 H 0.91157 0.66634 0.48999 0.0
C1620 C 0.97411 0.68906 0.58034 0.0
C1621 C 0.97277 0.69567 0.60537 0.0
C1622 C 0.96289 0.69007 0.55964 0.0
C1623 C 0.94966 0.69728 0.56368 0.0
C1624 C 0.94915 0.70484 0.58865 0.0
C1625 C 0.96091 0.70436 0.60921 0.0
C1626 C 0.91707 0.70855 0.51852 0.0
C1627 C 0.91077 0.69302 0.50024 0.0
C1628 C 0.92959 0.70999 0.53937 0.0
C1629 C 0.9359 0.69587 0.54222 0.0
C1630 C 0.92888 0.68007 0.52419 0.0
C1631 C 0.91645 0.67862 0.50366 0.0
H1632 H 0.93602 0.64744 0.71677 0.0
H1633 H 0.97999 0.70959 0.71832 0.0
H1634 H 0.91879 0.65279 0.75281 0.0
H1635 H 0.96233 0.71516 0.75348 0.0
H1636 H 0.93838 0.713 0.83597 0.0
H1637 H 0.95519 0.70958 0.7981 0.0
H1638 H 0.89901 0.66684 0.7643 0.0
H1639 H 0.88229 0.6693 0.80326 0.0
C1640 C 0.94199 0.66226 0.72478 0.0
C1641 C 0.95949 0.67804 0.71483 0.0
C1642 C 0.93197 0.6654 0.74526 0.0
C1643 C 0.93904 0.68445 0.75604 0.0
C1644 C 0.95656 0.70022 0.74602 0.0
C1645 C 0.96673 0.69703 0.72581 0.0
C1646 C 0.9296 0.70289 0.82043 0.0
C1647 C 0.90901 0.69117 0.82287 0.0
C1648 C 0.93924 0.70107 0.79851 0.0
C1649 C 0.92853 0.68771 0.77819 0.0
C1650 C 0.9078 0.67692 0.77985 0.0
C1651 C 0.89815 0.67858 0.80199 0.0
H1652 H 0.33763 0.28415 0.72069 0.0
H1653 H 0.39792 0.29605 0.71732 0.0
H1654 H 0.33107 0.2609 0.75628 0.0
H1655 H 0.39155 0.27333 0.75366 0.0
H1656 H 0.37134 0.21942 0.80407 0.0
H1657 H 0.37473 0.23917 0.76523 0.0
H1658 H 0.33786 0.25964 0.80116 0.0
H1659 H 0.33352 0.23898 0.83917 0.0
C1660 C 0.34959 0.28203 0.72777 0.0
C1661 C 0.36835 0.29208 0.71618 0.0
C1662 C 0.34581 0.26867 0.74825 0.0
C1663 C 0.36074 0.26514 0.75787 0.0
C1664 C 0.37956 0.27535 0.74644 0.0
C1665 C 0.3833 0.28857 0.72576 0.0
C1666 C 0.36351 0.2277 0.80335 0.0
C1667 C 0.35228 0.22773 0.82484 0.0
C1668 C 0.36573 0.23931 0.78126 0.0
C1669 C 0.35687 0.25131 0.7802 0.0
C1670 C 0.34486 0.25056 0.80116 0.0
C1671 C 0.34251 0.23884 0.82312 0.0
H1672 H 0.73771 0.06234 0.75692 0.0
H1673 H 0.75839 0.10913 0.69956 0.0
H1674 H 0.75667 0.08665 0.79118 0.0
H1675 H 0.77784 0.13357 0.73379 0.0
H1676 H 0.82865 0.15781 0.80227 0.0
H1677 H 0.80822 0.13905 0.76469 0.0
H1678 H 0.75603 0.11746 0.8122 0.0
H1679 H 0.77608 0.1372 0.84915 0.0
C1680 C 0.74647 0.07785 0.75171 0.0
C1681 C 0.74716 0.08391 0.72564 0.0
C1682 C 0.75714 0.09175 0.77126 0.0
C1683 C 0.76874 0.11196 0.76505 0.0
C1684 C 0.76912 0.11807 0.739 0.0
C1685 C 0.75805 0.10416 0.71952 0.0
C1686 C 0.81278 0.14961 0.80449 0.0
C1687 C 0.80409 0.14865 0.82899 0.0
C1688 C 0.80111 0.1387 0.78303 0.0
C1689 C 0.78066 0.12634 0.78587 0.0
C1690 C 0.77184 0.12652 0.8097 0.0
C1691 C 0.78337 0.13777 0.83087 0.0
H1692 H 0.05536 0.35336 0.03603 0.0
H1693 H 0.10161 0.39686 0.98711 0.0
H1694 H 0.07866 0.34427 0.05468 0.0
H1695 H 0.12469 0.38739 0.00514 0.0
H1696 H 0.1637 0.38558 0.07398 0.0
H1697 H 0.14187 0.39165 0.04564 0.0
H1698 H 0.09864 0.32922 0.04771 0.0
H1699 H 0.12036 0.32347 0.07673 0.0
C1700 C 0.07039 0.36076 0.02895 0.0
C1701 C 0.07663 0.37601 0.01034 0.0
C1702 C 0.08377 0.35546 0.0395 0.0
C1703 C 0.10364 0.36517 0.03151 0.0
C1704 C 0.10963 0.37985 0.01211 0.0
C1705 C 0.09633 0.38524 0.00173 0.0
C1706 C 0.14985 0.37311 0.06749 0.0
C1707 C 0.1437 0.35408 0.0773 0.0
C1708 C 0.13725 0.37655 0.05136 0.0
C1709 C 0.11829 0.36096 0.04472 0.0
C1710 C 0.11291 0.34163 0.0529 0.0
C1711 C 0.12544 0.33826 0.06915 0.0
H1712 H 0.70396 0.7224 0.05156 0.0
H1713 H 0.6668 0.71862 0.98611 0.0
H1714 H 0.70859 0.75501 0.06277 0.0
H1715 H 0.67123 0.7513 -0.00237 0.0
H1716 H 0.72455 0.81735 0.0708 0.0
H1717 H 0.72337 0.79013 0.04521 0.0
H1718 H 0.66015 0.76379 0.03789 0.0
H1719 H 0.66144 0.79112 0.06365 0.0
C1720 C 0.69698 0.72865 0.03937 0.0
C1721 C 0.68501 0.71793 0.01798 0.0
C1722 C 0.69972 0.7474 0.04568 0.0
C1723 C 0.69034 0.75577 0.03099 0.0
C1724 C 0.67865 0.74523 0.00927 0.0
C1725 C 0.67619 0.72657 0.00265 0.0
C1726 C 0.71055 0.80627 0.06254 0.0
C1727 C 0.69311 0.8064 0.06892 0.0
C1728 C 0.70983 0.79054 0.04823 0.0
C1729 C 0.69163 0.77465 0.03996 0.0
C1730 C 0.6744 0.77586 0.04392 0.0
C1731 C 0.67512 0.79158 0.05845 0.0
H1732 H 0.32456 0.99127 0.05655 0.0
H1733 H 0.32143 0.95716 0.98785 0.0
H1734 H 0.29204 0.96521 0.06982 0.0
H1735 H 0.28872 0.93096 0.00117 0.0
H1736 H 0.23095 0.92151 0.08645 0.0
H1737 H 0.25651 0.94722 0.05921 0.0
H1738 H 0.27709 0.90665 0.03792 0.0
H1739 H 0.25136 0.881 0.06501 0.0
C1740 C 0.31679 0.97834 0.04405 0.0
C1741 C 0.32565 0.97626 0.02124 0.0
C1742 C 0.29804 0.96343 0.05154 0.0
C1743 C 0.28771 0.94597 0.03652 0.0
C1744 C 0.2963 0.94418 0.01322 0.0
C1745 C 0.31502 0.95922 0.00556 0.0
C1746 C 0.24027 0.91782 0.07477 0.0
C1747 C 0.23905 0.89923 0.07747 0.0
C1748 C 0.25513 0.93262 0.05954 0.0
C1749 C 0.26909 0.92912 0.0468 0.0
C1750 C 0.26654 0.90984 0.04734 0.0
C1751 C 0.25169 0.89505 0.06267 0.0
H1752 H 0.34698 0.04388 0.98269 0.0
H1753 H 0.40741 0.09074 0.97525 0.0
H1754 H 0.33566 0.06648 0.96728 0.0
H1755 H 0.39632 0.11289 0.95904 0.0
H1756 H 0.37683 0.15469 0.93918 0.0
H1757 H 0.38174 0.1323 0.96804 0.0
H1758 H 0.33363 0.08202 0.92895 0.0
H1759 H 0.32819 0.10445 0.90145 0.0
C1760 C 0.35784 0.05892 0.97756 0.0
C1761 C 0.3781 0.06543 0.98011 0.0
C1762 C 0.35137 0.07194 0.96878 0.0
C1763 C 0.36502 0.0917 0.96211 0.0
C1764 C 0.38526 0.09806 0.96468 0.0
C1765 C 0.39168 0.08519 0.97367 0.0
C1766 C 0.36673 0.13889 0.93774 0.0
C1767 C 0.3523 0.13129 0.91791 0.0
C1768 C 0.36976 0.12598 0.95388 0.0
C1769 C 0.35857 0.10524 0.95024 0.0
C1770 C 0.34264 0.0978 0.93242 0.0
C1771 C 0.33947 0.11068 0.91659 0.0
H1772 H 1.00065 0.31884 0.94483 0.0
H1773 H 0.96589 0.32092 0.0092 0.0
H1774 H 0.97359 0.28655 0.93183 0.0
H1775 H 0.93854 0.28846 -0.00406 0.0
H1776 H 0.89071 0.251 0.9277 0.0
H1777 H 0.91598 0.27729 0.95529 0.0
H1778 H 0.95338 0.2512 0.94622 0.0
H1779 H 0.92818 0.22513 0.91863 0.0
C1780 C 0.98733 0.31223 0.95647 0.0
C1781 C 0.98539 0.32244 0.97799 0.0
C1782 C 0.97184 0.29365 0.94913 0.0
C1783 C 0.95392 0.28492 0.96291 0.0
C1784 C 0.95216 0.29484 0.98495 0.0
C1785 C 0.96784 0.31335 -0.00741 0.0
C1786 C 0.90394 0.25041 0.93272 0.0
C1787 C 0.90754 0.23607 0.92122 0.0
C1788 C 0.91846 0.2655 0.94837 0.0
C1789 C 0.93681 0.26648 0.95253 0.0
C1790 C 0.93952 0.25098 0.94306 0.0
C1791 C 0.92503 0.23594 0.92754 0.0
H1792 H 0.73393 0.69855 0.98052 0.0
H1793 H 0.72608 0.63947 0.98574 0.0
H1794 H 0.76742 0.7107 0.96421 0.0
H1795 H 0.75878 0.65125 0.96869 0.0
H1796 H 0.81838 0.67202 0.9441 0.0
H1797 H 0.79293 0.66922 0.97437 0.0
H1798 H 0.78329 0.70951 0.92597 0.0
H1799 H 0.80944 0.71312 0.89696 0.0
C1800 C 0.73929 0.68815 0.97813 0.0
C1801 C 0.7272 0.668 0.98431 0.0
C1802 C 0.75852 0.69511 0.9688 0.0
C1803 C 0.76603 0.68204 0.96521 0.0
C1804 C 0.75392 0.66197 0.97179 0.0
C1805 C 0.73491 0.65511 0.98129 0.0
C1806 C 0.81149 0.68103 0.94078 0.0
C1807 C 0.81562 0.69251 0.91798 0.0
C1808 C 0.7966 0.67915 0.9578 0.0
C1809 C 0.7854 0.68849 0.9521 0.0
C1810 C 0.79137 0.70194 0.93108 0.0
C1811 C 0.80642 0.70404 0.91435 0.0
H1812 H 1.00389 0.69457 0.9379 0.0
H1813 H 0.96993 0.65926 0.0036 0.0
H1814 H 0.97682 0.70032 0.92553 0.0
H1815 H 0.9427 0.66484 -0.00903 0.0
H1816 H 0.8935 0.65594 0.92557 0.0
H1817 H 0.91916 0.65381 0.95109 0.0
H1818 H 0.9577 0.71679 0.94172 0.0
H1819 H 0.93203 0.7188 0.9164 0.0
C1820 C 0.99074 0.68824 0.94988 0.0
C1821 C 0.98907 0.67646 0.9717 0.0
C1822 C 0.97527 0.69162 0.9429 0.0
C1823 C 0.95763 0.68308 0.95735 0.0
C1824 C 0.95608 0.67159 0.97946 0.0
C1825 C 0.97171 0.66847 0.98671 0.0
C1826 C 0.90706 0.66944 0.93023 0.0
C1827 C 0.91075 0.68756 0.9193 0.0
C1828 C 0.92184 0.66823 0.9446 0.0
C1829 C 0.94058 0.68509 0.94796 0.0
C1830 C 0.94352 0.70351 0.93913 0.0
C1831 C 0.92874 0.70473 0.92499 0.0
H1832 H 0.3571 0.31978 0.96364 0.0
H1833 H 0.40404 0.31938 0.00869 0.0
H1834 H 0.34883 0.2876 0.94481 0.0
H1835 H 0.39545 0.28714 -0.00943 0.0
H1836 H 0.39256 0.24589 0.92194 0.0
H1837 H 0.39852 0.27394 0.94984 0.0
H1838 H 0.3358 0.25282 0.95197 0.0
H1839 H 0.33012 0.22514 0.92341 0.0
C1840 C 0.36548 0.31274 0.9698 0.0
C1841 C 0.3814 0.32236 0.9874 0.0
C1842 C 0.36066 0.29418 0.95916 0.0
C1843 C 0.37154 0.28472 0.96605 0.0
C1844 C 0.38698 0.29407 0.98439 0.0
C1845 C 0.39187 0.31261 -0.00516 0.0
C1846 C 0.38005 0.24684 0.92937 0.0
C1847 C 0.36089 0.23324 0.92096 0.0
C1848 C 0.38341 0.263 0.94521 0.0
C1849 C 0.36765 0.26589 0.95289 0.0
C1850 C 0.34832 0.25134 0.94602 0.0
C1851 C 0.345 0.23526 0.93011 0.0
H1852 H 0.72749 0.04863 0.94196 0.0
H1853 H 0.73319 0.08054 0.01395 0.0
H1854 H 0.7603 0.07397 0.92904 0.0
H1855 H 0.76638 0.10601 0.00107 0.0
H1856 H 0.82016 0.11636 0.90941 0.0
H1857 H 0.7956 0.09033 0.9373 0.0
H1858 H 0.77833 0.13171 0.96692 0.0
H1859 H 0.80326 0.15771 0.93946 0.0
C1860 C 0.73591 0.0609 0.95526 0.0
C1861 C 0.72766 0.06268 0.97884 0.0
C1862 C 0.75485 0.07537 0.94799 0.0
C1863 C 0.76604 0.09205 0.96406 0.0
C1864 C 0.75811 0.09341 0.98821 0.0
C1865 C 0.73913 0.0788 -0.00441 0.0
C1866 C 0.81181 0.12007 0.92298 0.0
C1867 C 0.81361 0.13897 0.92253 0.0
C1868 C 0.79755 0.10514 0.93864 0.0
C1869 C 0.78468 0.10882 0.95386 0.0
C1870 C 0.78802 0.12836 0.95553 0.0
C1871 C 0.80237 0.14332 0.93992 0.0
H1872 H 0.70599 0.99678 0.01568 0.0
H1873 H 0.64658 0.94717 0.01176 0.0
H1874 H 0.71798 0.97441 0.02954 0.0
H1875 H 0.65827 0.92518 0.02641 0.0
H1876 H 0.67827 0.88478 0.04754 0.0
H1877 H 0.67572 0.90833 0.01821 0.0
H1878 H 0.7172 0.95673 0.06728 0.0
H1879 H 0.72052 0.93327 0.09534 0.0
C1880 C 0.69549 0.98115 0.01785 0.0
C1881 C 0.6753 0.97384 0.01283 0.0
C1882 C 0.70235 0.96829 0.02573 0.0
C1883 C 0.68916 0.94787 0.02898 0.0
C1884 C 0.66904 0.94064 0.02349 0.0
C1885 C 0.66224 0.95338 0.01541 0.0
C1886 C 0.68758 0.90051 0.05117 0.0
C1887 C 0.69925 0.90721 0.07395 0.0
C1888 C 0.68587 0.91403 0.03469 0.0
C1889 C 0.6956 0.93442 0.04097 0.0
C1890 C 0.70932 0.94121 0.0618 0.0
C1891 C 0.71123 0.92773 0.07799 0.0
H1892 H 0.1023 0.70646 0.02555 0.0
H1893 H 0.0597 0.72516 0.00819 0.0
H1894 H 0.1243 0.73853 0.04467 0.0
H1895 H 0.08229 0.75798 0.02633 0.0
H1896 H 0.11592 0.80205 0.09416 0.0
H1897 H 0.09493 0.77439 0.0658 0.0
H1898 H 0.14617 0.77204 0.03843 0.0
H1899 H 0.16702 0.79905 0.06846 0.0
C1900 C 0.09771 0.71756 0.02557 0.0
C1901 C 0.07916 0.71318 0.01549 0.0
C1902 C 0.11052 0.73616 0.03626 0.0
C1903 C 0.10534 0.75114 0.03688 0.0
C1904 C 0.08679 0.74682 0.02653 0.0
C1905 C 0.07378 0.72799 0.01614 0.0
C1906 C 0.12274 0.79584 0.08169 0.0
C1907 C 0.14305 0.80242 0.08397 0.0
C1908 C 0.11068 0.77999 0.06522 0.0
C1909 C 0.11866 0.77048 0.0502 0.0
C1910 C 0.13935 0.77852 0.05037 0.0
C1911 C 0.15142 0.79426 0.06722 0.0
H1912 H 0.32379 0.34205 0.05841 0.0
H1913 H 0.32215 0.37257 0.98836 0.0
H1914 H 0.29098 0.33591 0.07002 0.0
H1915 H 0.28917 0.36642 5e-05 0.0
H1916 H 0.25055 0.37974 0.06155 0.0
H1917 H 0.27685 0.37951 0.03589 0.0
H1918 H 0.25559 0.31851 0.05774 0.0
H1919 H 0.22942 0.31894 0.08348 0.0
C1920 C 0.31629 0.34716 0.04525 0.0
C1921 C 0.32564 0.35787 0.02253 0.0
C1922 C 0.29738 0.34351 0.0518 0.0
C1923 C 0.28739 0.35064 0.03593 0.0
C1924 C 0.29648 0.3608 0.01273 0.0
C1925 C 0.31535 0.36425 0.00601 0.0
C1926 C 0.25086 0.36598 0.05958 0.0
C1927 C 0.23782 0.34928 0.07415 0.0
C1928 C 0.26605 0.36587 0.0451 0.0
C1929 C 0.26855 0.34909 0.04519 0.0
C1930 C 0.25424 0.33176 0.0576 0.0
C1931 C 0.23904 0.33186 0.07195 0.0
H1932 H 0.72317 0.68808 0.37022 0.0
H1933 H 0.76936 0.72761 0.31792 0.0
H1934 H 0.74542 0.67764 0.38899 0.0
H1935 H 0.79133 0.71672 0.33595 0.0
H1936 H 0.83079 0.7164 0.40494 0.0
H1937 H 0.80919 0.72223 0.37588 0.0
H1938 H 0.76387 0.66087 0.38393 0.0
H1939 H 0.78539 0.65542 0.41373 0.0
C1940 C 0.73791 0.6942 0.36234 0.0
C1941 C 0.74456 0.70888 0.34289 0.0
C1942 C 0.75068 0.68815 0.37298 0.0
C1943 C 0.77029 0.69648 0.36415 0.0
C1944 C 0.7765 0.71031 0.34363 0.0
C1945 C 0.76385 0.7165 0.33323 0.0
C1946 C 0.81647 0.70406 0.3997 0.0
C1947 C 0.80969 0.6855 0.41144 0.0
C1948 C 0.80402 0.70735 0.3831 0.0
C1949 C 0.78461 0.69207 0.37786 0.0
C1950 C 0.77852 0.67307 0.38801 0.0
C1951 C 0.7909 0.66986 0.40476 0.0
H1952 H 0.32989 0.04818 0.31998 0.0
H1953 H 0.36796 0.05343 0.38503 0.0
H1954 H 0.33424 0.08098 0.3305 0.0
H1955 H 0.37258 0.08622 0.39516 0.0
H1956 H 0.32509 0.12139 0.39684 0.0
H1957 H 0.3235 0.09374 0.37157 0.0
H1958 H 0.38696 0.12119 0.3753 0.0
H1959 H 0.38845 0.14882 0.40027 0.0
C1960 C 0.33946 0.05648 0.33622 0.0
C1961 C 0.34856 0.04822 0.35174 0.0
C1962 C 0.34189 0.07521 0.34224 0.0
C1963 C 0.35384 0.08621 0.36352 0.0
C1964 C 0.3635 0.07822 0.3784 0.0
C1965 C 0.36076 0.05938 0.37272 0.0
C1966 C 0.33871 0.12204 0.39086 0.0
C1967 C 0.3569 0.13732 0.40014 0.0
C1968 C 0.33782 0.10613 0.37664 0.0
C1969 C 0.3551 0.10518 0.37188 0.0
C1970 C 0.37341 0.12146 0.37892 0.0
C1971 C 0.37429 0.13741 0.39285 0.0
H1972 H 0.98543 0.28931 0.31842 0.0
H1973 H 0.98865 0.32324 0.38735 0.0
H1974 H 0.95312 0.26266 0.3324 0.0
H1975 H 0.95654 0.29676 0.40125 0.0
H1976 H 0.8956 0.25246 0.41833 0.0
H1977 H 0.92093 0.27835 0.39107 0.0
H1978 H 0.94206 0.23833 0.36934 0.0
H1979 H 0.91654 0.21245 0.39648 0.0
C1980 C 0.97911 0.29123 0.33632 0.0
C1981 C 0.98966 0.30837 0.35185 0.0
C1982 C 0.96064 0.27592 0.34436 0.0
C1983 C 0.95219 0.27756 0.3679 0.0
C1984 C 0.96242 0.29509 0.3828 0.0
C1985 C 0.98094 0.31025 0.37494 0.0
C1986 C 0.90501 0.24892 0.4066 0.0
C1987 C 0.90397 0.23041 0.40917 0.0
C1988 C 0.91973 0.26384 0.39134 0.0
C1989 C 0.93377 0.26054 0.37843 0.0
C1990 C 0.93145 0.24135 0.37891 0.0
C1991 C 0.91672 0.22644 0.39426 0.0
H1992 H 0.07167 0.42323 0.30509 0.0
H1993 H 1.01091 0.37808 0.31597 0.0
H1994 H 0.06126 0.44632 0.29073 0.0
H1995 H 1.0003 0.40168 0.30233 0.0
H1996 H 0.99298 0.44147 0.2386 0.0
H1997 H 0.99764 0.41804 0.26504 0.0
H1998 H 0.0484 0.46681 0.30233 0.0
H1999 H 0.04421 0.49014 0.27449 0.0
C2000 C 0.056 0.41825 0.30464 0.0
C2001 C 0.04213 0.3987 0.31158 0.0
C2002 C 0.05 0.43167 0.29672 0.0
C2003 C 0.02989 0.42614 0.29575 0.0
C2004 C 1.01592 0.40653 0.30271 0.0
C2005 C 1.02197 0.39294 0.31043 0.0
C2006 C 1.00464 0.44719 0.25327 0.0
C2007 C 1.01841 0.4676 0.25426 0.0
C2008 C 1.00739 0.43372 0.26843 0.0
C2009 C 1.02385 0.4404 0.28523 0.0
C2010 C 0.03598 0.46104 0.28886 0.0
C2011 C 0.03336 0.47452 0.27337 0.0
H2012 H 0.65947 0.66582 0.26551 0.0
H2013 H 0.64081 0.65417 0.34642 0.0
H2014 H 0.62964 0.63573 0.25208 0.0
H2015 H 0.61092 0.6236 0.33268 0.0
H2016 H 0.58035 0.56082 0.27134 0.0
H2017 H 0.60607 0.5882 0.2974 0.0
H2018 H 0.58892 0.62835 0.26332 0.0
H2019 H 0.5632 0.60108 0.23767 0.0
C2020 C 0.64919 0.65669 0.2805 0.0
C2021 C 0.6525 0.66245 0.30704 0.0
C2022 C 0.63208 0.63952 0.27276 0.0
C2023 C 0.61802 0.62755 0.29136 0.0
C2024 C 0.6216 0.63269 0.31804 0.0
C2025 C 0.63867 0.65012 0.32582 0.0
C2026 C 0.58138 0.57526 0.27064 0.0
C2027 C 0.56969 0.57886 0.25281 0.0
C2028 C 0.59617 0.59091 0.28533 0.0
C2029 C 0.59945 0.61029 0.28213 0.0
C2030 C 0.58658 0.61349 0.26612 0.0
C2031 C 0.57177 0.59789 0.25167 0.0
H2032 H 0.3996 0.98342 0.34966 0.0
H2033 H 0.39053 0.01886 0.29177 0.0
H2034 H 0.43263 0.99484 0.33315 0.0
H2035 H 0.42334 0.02961 0.27427 0.0
H2036 H 0.48465 0.05195 0.24927 0.0
H2037 H 0.45799 0.04763 0.27834 0.0
H2038 H 0.44654 0.98842 0.29657 0.0
H2039 H 0.4737 0.99329 0.26844 0.0
C2040 C 0.40468 0.99371 0.33337 0.0
C2041 C 0.39232 1.00006 0.32181 0.0
C2042 C 0.42366 1.0002 0.32382 0.0
C2043 C 0.43072 1.01299 0.30213 0.0
C2044 C 0.41861 0.01999 0.29123 0.0
C2045 C 0.39969 1.01371 0.30111 0.0
C2046 C 0.47696 0.03841 0.26055 0.0
C2047 C 0.48128 0.02301 0.25689 0.0
C2048 C 0.46144 0.03575 0.2768 0.0
C2049 C 0.44972 1.0175 0.28941 0.0
C2050 C 0.45524 1.00275 0.28743 0.0
C2051 C 0.47092 1.00553 0.27141 0.0
H2052 H 0.63115 0.98868 0.34657 0.0
H2053 H 0.66707 0.0257 0.28327 0.0
H2054 H 0.60428 0.99463 0.33292 0.0
H2055 H 0.64049 0.03186 0.26998 0.0
H2056 H 0.55808 0.98611 0.26247 0.0
H2057 H 0.58262 0.98402 0.29061 0.0
H2058 H 0.62023 0.04745 0.28526 0.0
H2059 H 0.59568 0.04942 0.25726 0.0
C2060 C 0.63347 0.99844 0.33014 0.0
C2061 C 0.6512 1.0067 0.31593 0.0
C2062 C 0.61807 1.00175 0.32228 0.0
C2063 C 0.6203 1.01375 0.30045 0.0
C2064 C 0.6384 0.02276 0.2871 0.0
C2065 C 0.65361 0.01915 0.29462 0.0
C2066 C 0.57114 0.99966 0.26849 0.0
C2067 C 0.57497 1.01794 0.25801 0.0
C2068 C 0.58525 0.99848 0.28444 0.0
C2069 C 0.60346 1.01556 0.28979 0.0
C2070 C 0.60642 0.03404 0.28123 0.0
C2071 C 0.59229 0.03521 0.2655 0.0
H2072 H 1.01903 0.64731 0.32614 0.0
H2073 H 0.08041 0.66626 0.31258 0.0
H2074 H 1.0099 0.61447 0.30912 0.0
H2075 H 0.07139 0.63405 0.29402 0.0
H2076 H 0.05429 0.57341 0.2679 0.0
H2077 H 0.06036 0.60055 0.29792 0.0
H2078 H 1.00653 0.59813 0.27061 0.0
H2079 H 1.00009 0.57048 0.24241 0.0
C2080 C 0.03056 0.6445 0.31924 0.0
C2081 C 0.05042 0.65945 0.32051 0.0
C2082 C 1.02535 0.62564 0.30939 0.0
C2083 C 0.03984 0.62137 0.29993 0.0
C2084 C 0.05974 0.63639 0.30155 0.0
C2085 C 0.06495 0.65505 0.31193 0.0
C2086 C 0.04343 0.57822 0.26927 0.0
C2087 C 0.02681 0.56995 0.25271 0.0
C2088 C 0.04705 0.59406 0.28606 0.0
C2089 C 0.03425 0.6021 0.28635 0.0
C2090 C 1.01678 0.59254 0.27132 0.0
C2091 C 1.01307 0.57662 0.25496 0.0
H2092 H 0.39883 0.41544 0.34528 0.0
H2093 H 0.39776 0.38345 0.2753 0.0
H2094 H 0.43193 0.44203 0.33406 0.0
H2095 H 0.43067 0.40985 0.26419 0.0
H2096 H 0.46971 0.49311 0.27079 0.0
H2097 H 0.44401 0.46717 0.2976 0.0
H2098 H 0.46602 0.42757 0.27747 0.0
H2099 H 0.49153 0.45352 0.25051 0.0
C2100 C 0.40579 0.41392 0.32776 0.0
C2101 C 0.39564 0.39741 0.31106 0.0
C2102 C 0.42471 0.42916 0.32134 0.0
C2103 C 0.43397 0.42803 0.29832 0.0
C2104 C 0.42412 0.41106 0.2823 0.0
C2105 C 0.40516 0.39599 0.28853 0.0
C2106 C 0.4697 0.47924 0.27337 0.0
C2107 C 0.48259 0.47528 0.25878 0.0
C2108 C 0.45489 0.4643 0.28854 0.0
C2109 C 0.45274 0.44518 0.28916 0.0
C2110 C 0.46712 0.44204 0.27701 0.0
C2111 C 0.48191 0.45697 0.26192 0.0
H2112 H 0.37363 0.32798 0.34106 0.0
H2113 H 0.31297 0.28175 0.34906 0.0
H2114 H 0.38458 0.30464 0.35444 0.0
H2115 H 0.32369 0.25889 0.36337 0.0
H2116 H 0.34151 0.21618 0.38185 0.0
H2117 H 0.33753 0.23912 0.35302 0.0
H2118 H 0.3868 0.2885 0.39184 0.0
H2119 H 0.39142 0.26548 0.41914 0.0
C2120 C 0.36266 0.31291 0.34589 0.0
C2121 C 0.34244 0.30677 0.34412 0.0
C2122 C 0.3689 0.29948 0.35348 0.0
C2123 C 0.35506 0.2797 0.35978 0.0
C2124 C 0.33487 0.27372 0.35794 0.0
C2125 C 0.32867 0.28699 0.35007 0.0
C2126 C 0.35208 0.23187 0.38319 0.0
C2127 C 0.36651 0.2391 0.40302 0.0
C2128 C 0.34958 0.2451 0.36707 0.0
C2129 C 0.36129 0.26578 0.37082 0.0
C2130 C 0.37736 0.27278 0.38836 0.0
C2131 C 0.38004 0.25955 0.40411 0.0
H2132 H 0.76771 0.04225 0.32763 0.0
H2133 H 0.72159 0.04436 0.37178 0.0
H2134 H 0.79176 0.07435 0.34543 0.0
H2135 H 0.74584 0.07634 0.39018 0.0
H2136 H 0.79003 0.13865 0.4101 0.0
H2137 H 0.76775 0.11078 0.38217 0.0
H2138 H 0.8082 0.08783 0.3862 0.0
H2139 H 0.8306 0.11609 0.41346 0.0
C2140 C 0.76265 0.04954 0.34117 0.0
C2141 C 0.74265 0.04054 0.34844 0.0
C2142 C 0.77653 0.06799 0.35145 0.0
C2143 C 0.77086 0.07799 0.36939 0.0
C2144 C 0.75076 0.06926 0.37613 0.0
C2145 C 0.73683 0.05081 0.36572 0.0
C2146 C 0.79446 0.12804 0.40401 0.0
C2147 C 0.81214 0.12963 0.41347 0.0
C2148 C 0.78155 0.11187 0.38844 0.0
C2149 C 0.78595 0.0968 0.38225 0.0
C2150 C 0.80434 0.09918 0.39032 0.0
C2151 C 0.81729 0.11543 0.4058 0.0
H2152 H 0.99077 0.67711 0.38955 0.0
H2153 H 0.9892 0.70759 0.31942 0.0
H2154 H 0.95767 0.67034 0.4006 0.0
H2155 H 0.95591 0.70083 0.33057 0.0
H2156 H 0.89627 0.65294 0.41402 0.0
H2157 H 0.92229 0.65264 0.38777 0.0
H2158 H 0.94345 0.71376 0.36666 0.0
H2159 H 0.91731 0.71386 0.39283 0.0
C2160 C 0.98322 0.68207 0.37624 0.0
C2161 C 0.99267 0.69298 0.3537 0.0
C2162 C 0.96414 0.67805 0.38246 0.0
C2163 C 0.95409 0.68501 0.36642 0.0
C2164 C 0.96327 0.69531 0.34334 0.0
C2165 C 0.98231 0.69912 0.33694 0.0
C2166 C 0.90581 0.66591 0.40252 0.0
C2167 C 0.90467 0.68334 0.40512 0.0
C2168 C 0.92091 0.66587 0.38787 0.0
C2169 C 0.93518 0.68329 0.37556 0.0
C2170 C 0.93267 0.70006 0.37578 0.0
C2171 C 0.91758 0.70011 0.39057 0.0
H2172 H 0.4353 0.07152 0.68868 0.0
H2173 H 0.39141 1.01078 0.67233 0.0
H2174 H 0.45702 0.06067 0.70715 0.0
H2175 H 0.41371 0.99975 0.68964 0.0
H2176 H 0.44698 0.98848 0.75722 0.0
H2177 H 0.42632 0.99567 0.7288 0.0
H2178 H 0.47813 0.04807 0.70076 0.0
H2179 H 0.49863 0.04149 0.73099 0.0
C2180 C 0.43039 0.05579 0.68875 0.0
C2181 C 0.41156 0.04198 0.67925 0.0
C2182 C 0.44301 0.04954 0.69905 0.0
C2183 C 0.43735 0.02929 0.69974 0.0
C2184 C 0.41856 1.01546 0.6898 0.0
C2185 C 0.40573 0.02173 0.67989 0.0
C2186 C 0.45399 1.00137 0.74463 0.0
C2187 C 0.47435 1.01471 0.74683 0.0
C2188 C 0.44212 1.00544 0.72809 0.0
C2189 C 0.45039 0.0228 0.71289 0.0
C2190 C 0.47111 0.03493 0.71288 0.0
C2191 C 0.48298 0.03101 0.72984 0.0
H2192 H 0.0347 0.38375 0.71824 0.0
H2193 H 1.00298 0.38287 0.64801 0.0
H2194 H 0.04038 0.41681 0.72868 0.0
H2195 H 1.00864 0.41611 0.65855 0.0
H2196 H 0.05659 0.47855 0.74004 0.0
H2197 H 0.05714 0.45207 0.71466 0.0
H2198 H 0.99575 0.42893 0.69434 0.0
H2199 H 0.99539 0.45553 0.71965 0.0
C2200 C 0.02918 0.39073 0.70483 0.0
C2201 C 1.0183 0.38063 0.68239 0.0
C2202 C 0.03258 0.40979 0.71068 0.0
C2203 C 1.02503 0.41916 0.69437 0.0
C2204 C 1.01462 0.40928 0.67151 0.0
C2205 C 1.01142 0.39027 0.66547 0.0
C2206 C 0.04358 0.46845 0.72888 0.0
C2207 C 1.02602 0.46918 0.73148 0.0
C2208 C 0.04377 0.45309 0.71473 0.0
C2209 C 1.02638 0.43816 0.70294 0.0
C2210 C 1.00942 0.44021 0.7031 0.0
C2211 C 1.00922 0.45556 0.71738 0.0
H2212 H 0.65747 0.65533 0.72338 0.0
H2213 H 0.6536 0.62083 0.6548 0.0
H2214 H 0.62487 0.62966 0.73691 0.0
H2215 H 0.62077 0.5949 0.66847 0.0
H2216 H 0.5637 0.58708 0.75388 0.0
H2217 H 0.5892 0.61213 0.7259 0.0
H2218 H 0.60924 0.57085 0.70628 0.0
H2219 H 0.58355 0.54582 0.73416 0.0
C2220 C 0.6495 0.64239 0.71095 0.0
C2221 C 0.65816 0.64009 0.68809 0.0
C2222 C 0.63071 0.62771 0.7186 0.0
C2223 C 0.62015 0.61022 0.70372 0.0
C2224 C 0.62854 0.60818 0.68037 0.0
C2225 C 0.64729 0.62305 0.6725 0.0
C2226 C 0.57289 0.58308 0.74245 0.0
C2227 C 0.57155 0.56449 0.74586 0.0
C2228 C 0.58769 0.59749 0.72676 0.0
C2229 C 0.60149 0.59361 0.71427 0.0
C2230 C 0.5988 0.5743 0.71552 0.0
C2231 C 0.584 0.55988 0.73131 0.0
H2232 H 0.68228 0.71033 0.6563 0.0
H2233 H 0.74352 0.75565 0.65149 0.0
H2234 H 0.67246 0.7344 0.64246 0.0
H2235 H 0.73393 0.77927 0.63654 0.0
H2236 H 0.7172 0.82317 0.61619 0.0
H2237 H 0.72084 0.7998 0.6447 0.0
H2238 H 0.67113 0.75107 0.60558 0.0
H2239 H 0.66696 0.77451 0.57861 0.0
C2240 C 0.69364 0.72538 0.65211 0.0
C2241 C 0.71369 0.73098 0.65488 0.0
C2242 C 0.68803 0.73924 0.64417 0.0
C2243 C 0.70234 0.75899 0.6384 0.0
C2244 C 0.72236 0.76449 0.64142 0.0
C2245 C 0.72792 0.75077 0.6497 0.0
C2246 C 0.70647 0.80752 0.61477 0.0
C2247 C 0.69189 0.80063 0.59513 0.0
C2248 C 0.70879 0.79402 0.63066 0.0
C2249 C 0.69676 0.77337 0.62689 0.0
C2250 C 0.68077 0.76673 0.60924 0.0
C2251 C 0.67829 0.78021 0.59373 0.0
H2252 H 0.30166 0.9896 0.67292 0.0
H2253 H 0.3348 0.98576 0.60772 0.0
H2254 H 0.27378 0.95713 0.66107 0.0
H2255 H 0.30714 0.95333 0.59615 0.0
H2256 H 0.26111 0.89113 0.58765 0.0
H2257 H 0.2871 0.9182 0.61318 0.0
H2258 H 0.25032 0.94509 0.62086 0.0
H2259 H 0.22433 0.9179 0.59518 0.0
C2260 C 0.30313 0.98168 0.65636 0.0
C2261 C 0.32042 0.99025 0.6412 0.0
C2262 C 0.28714 0.96314 0.64955 0.0
C2263 C 0.28829 0.95264 0.62777 0.0
C2264 C 0.30589 0.96092 0.61327 0.0
C2265 C 0.3217 0.97956 0.61979 0.0
C2266 C 0.25825 0.90234 0.59592 0.0
C2267 C 0.2407 0.90239 0.5897 0.0
C2268 C 0.27321 0.91796 0.6102 0.0
C2269 C 0.27088 0.93393 0.6186 0.0
C2270 C 0.25251 0.93295 0.61472 0.0
C2271 C 0.23755 0.91732 0.60023 0.0
H2272 H 0.05586 0.30065 0.6446 0.0
H2273 H 0.06646 0.36068 0.65069 0.0
H2274 H 0.08875 0.31276 0.62771 0.0
H2275 H 0.10006 0.37308 0.63486 0.0
H2276 H 0.14347 0.38141 0.56715 0.0
H2277 H 0.11656 0.37529 0.59622 0.0
H2278 H 0.12269 0.32874 0.63427 0.0
H2279 H 0.14888 0.33415 0.60364 0.0
C2280 C 0.06536 0.31653 0.64267 0.0
C2281 C 0.05842 0.32968 0.64873 0.0
C2282 C 0.08444 0.32354 0.63328 0.0
C2283 C 0.09734 0.34399 0.63003 0.0
C2284 C 0.09054 0.35722 0.63675 0.0
C2285 C 0.07125 0.35014 0.6458 0.0
C2286 C 0.13943 0.37026 0.58227 0.0
C2287 C 0.14791 0.35792 0.58273 0.0
C2288 C 0.12396 0.36675 0.59909 0.0
C2289 C 0.11686 0.35102 0.61713 0.0
C2290 C 0.12723 0.34048 0.61994 0.0
C2291 C 0.14254 0.34381 0.60276 0.0
H2292 H 0.33473 0.36205 0.61024 0.0
H2293 H 0.29889 0.32553 0.67396 0.0
H2294 H 0.30791 0.36767 0.59631 0.0
H2295 H 0.27186 0.33097 0.65972 0.0
H2296 H 0.22523 0.32154 0.5898 0.0
H2297 H 0.25007 0.31986 0.61779 0.0
H2298 H 0.28751 0.38323 0.611 0.0
H2299 H 0.26266 0.38479 0.58318 0.0
C2300 C 0.32123 0.35548 0.62151 0.0
C2301 C 0.31893 0.34334 0.64316 0.0
C2302 C 0.30589 0.35878 0.61363 0.0
C2303 C 0.28778 0.34978 0.62698 0.0
C2304 C 0.28563 0.33806 0.64907 0.0
C2305 C 0.30114 0.33504 0.65725 0.0
C2306 C 0.23832 0.33518 0.59549 0.0
C2307 C 0.24201 0.35331 0.58465 0.0
C2308 C 0.25261 0.33424 0.61132 0.0
C2309 C 0.27086 0.3514 0.61621 0.0
C2310 C 0.27369 0.36976 0.6073 0.0
C2311 C 0.25939 0.37069 0.59169 0.0
H2312 H 0.68649 0.97893 0.66335 0.0
H2313 H 0.7479 0.99958 0.64732 0.0
H2314 H 0.67815 0.94584 0.64816 0.0
H2315 H 0.73963 0.96713 0.63054 0.0
H2316 H 0.72466 0.90672 0.60734 0.0
H2317 H 0.73018 0.93424 0.63623 0.0
H2318 H 0.67428 0.92804 0.61097 0.0
H2319 H 0.66844 0.89998 0.584 0.0
C2320 C 0.69817 0.97643 0.65628 0.0
C2321 C 0.71782 0.99192 0.65636 0.0
C2322 C 0.69343 0.95743 0.64749 0.0
C2323 C 0.70816 0.95354 0.63791 0.0
C2324 C 0.72783 0.96914 0.63826 0.0
C2325 C 0.73259 0.98795 0.64759 0.0
C2326 C 0.71325 0.91077 0.609 0.0
C2327 C 0.69621 0.90134 0.5933 0.0
C2328 C 0.71654 0.92684 0.62511 0.0
C2329 C 0.70299 0.93398 0.62551 0.0
C2330 C 0.68514 0.92321 0.61154 0.0
C2331 C 0.68175 0.90703 0.5959 0.0
H2332 H 0.06088 0.71256 0.60746 0.0
H2333 H 0.0657 0.74321 0.6803 0.0
H2334 H 0.09381 0.73824 0.59541 0.0
H2335 H 0.09895 0.769 0.6683 0.0
H2336 H 0.15398 0.78146 0.57742 0.0
H2337 H 0.12911 0.7548 0.60424 0.0
H2338 H 0.11108 0.7953 0.63493 0.0
H2339 H 0.13627 0.82192 0.60847 0.0
C2340 C 0.06913 0.7246 0.62116 0.0
C2341 C 0.06059 0.72593 0.64472 0.0
C2342 C 0.08814 0.73928 0.61436 0.0
C2343 C 0.09909 0.75573 0.6309 0.0
C2344 C 0.09088 0.7566 0.65506 0.0
C2345 C 0.07186 0.74179 0.66196 0.0
C2346 C 0.1454 0.78484 0.59103 0.0
C2347 C 0.14708 0.80371 0.59113 0.0
C2348 C 0.13095 0.76953 0.60606 0.0
C2349 C 0.11779 0.77279 0.62126 0.0
C2350 C 0.12099 0.79226 0.62354 0.0
C2351 C 0.13551 0.80759 0.60853 0.0
H2352 H 0.02733 0.65634 0.70179 0.0
H2353 H 0.98255 0.61185 0.65139 0.0
H2354 H 0.03565 0.63175 0.71798 0.0
H2355 H 0.99126 0.58755 0.66687 0.0
H2356 H 0.99222 0.54602 0.73262 0.0
H2357 H 0.98691 0.56914 0.70601 0.0
H2358 H 0.0495 0.61094 0.70868 0.0
H2359 H 0.0545 0.5879 0.73604 0.0
C2360 C 1.01948 0.64142 0.69388 0.0
C2361 C 1.0041 0.63604 0.6756 0.0
C2362 C 1.02433 0.62732 0.70299 0.0
C2363 C 1.01405 0.60758 0.69381 0.0
C2364 C 0.99923 0.60247 0.67473 0.0
C2365 C 0.99427 0.61647 0.66583 0.0
C2366 C 1.00487 0.5598 0.72654 0.0
C2367 C 1.02375 0.56519 0.73612 0.0
C2368 C 1.00188 0.57316 0.71142 0.0
C2369 C 1.01775 0.59211 0.70558 0.0
C2370 C 0.03689 0.59669 0.71332 0.0
C2371 C 0.03983 0.5834 0.72857 0.0
H2372 H 0.38802 0.38058 0.70809 0.0
H2373 H 0.43447 0.38309 0.65957 0.0
H2374 H 0.41155 0.41231 0.728 0.0
H2375 H 0.45771 0.41494 0.67865 0.0
H2376 H 0.49728 0.45463 0.74706 0.0
H2377 H 0.4749 0.42712 0.7188 0.0
H2378 H 0.43213 0.44716 0.72309 0.0
H2379 H 0.45442 0.4742 0.75209 0.0
C2380 C 0.40314 0.38804 0.70136 0.0
C2381 C 0.40936 0.37912 0.6825 0.0
C2382 C 0.41666 0.40633 0.71264 0.0
C2383 C 0.43667 0.41622 0.70511 0.0
C2384 C 0.4426 0.40764 0.6854 0.0
C2385 C 0.42918 0.38934 0.67437 0.0
C2386 C 0.48341 0.45351 0.74109 0.0
C2387 C 0.47762 0.46658 0.75144 0.0
C2388 C 0.47046 0.43768 0.725 0.0
C2389 C 0.45149 0.43467 0.7189 0.0
C2390 C 0.44639 0.44871 0.72781 0.0
C2391 C 0.45927 0.46441 0.74402 0.0
H2392 H 0.65483 0.03868 0.65363 0.0
H2393 H 0.65798 1.00967 0.72437 0.0
H2394 H 0.62144 0.03137 0.6653 0.0
H2395 H 0.62478 1.00234 0.73591 0.0
H2396 H 0.56298 0.98322 0.74977 0.0
H2397 H 0.58931 0.98358 0.72353 0.0
H2398 H 0.60858 0.04412 0.70129 0.0
H2399 H 0.58212 0.04357 0.72748 0.0
C2400 C 0.64827 0.03042 0.67141 0.0
C2401 C 0.65909 0.02483 0.68816 0.0
C2402 C 0.62918 0.02631 0.67811 0.0
C2403 C 0.62039 1.01621 0.70148 0.0
C2404 C 0.63094 1.00986 0.71756 0.0
C2405 C 0.65006 1.0142 0.71106 0.0
C2406 C 0.57216 0.99619 0.73804 0.0
C2407 C 0.57039 1.01328 0.74033 0.0
C2408 C 0.58746 0.99653 0.72339 0.0
C2409 C 0.6013 1.01401 0.71075 0.0
C2410 C 0.59815 0.03039 0.71068 0.0
C2411 C 0.58287 0.03005 0.72547 0.0
loop_
_geom_bond_atom_site_label_1
_geom_bond_atom_site_label_2
_geom_bond_distance
_geom_bond_site_symmetry_2
_ccdc_geom_bond_type
Mn0 O5 2.095 1_655 S
Mn0 O15 2.162 . S
Mn0 O16 2.297 1_554 S
Mn0 O24 2.385 1_554 S
Mn0 O25 2.209 1_654 S
Mn0 O26 2.094 . S
Mn1 O6 2.121 . S
Mn1 N8 2.257 1_554 S
Mn1 N17 2.282 1_554 S
Mn1 O25 2.215 1_554 S
Mn1 O27 2.117 . S
C2 O24 1.234 1_455 S
C2 O25 1.283 . S
C3 O15 1.281 1_556 S
C3 O16 1.236 . S
C4 O26 1.230 1_455 S
C4 O27 1.291 . S
O5 Mn0 2.095 1_455 S
O5 C14 1.250 . S
O6 Mn1 2.121 . S
O6 C14 1.258 . S
C7 N8 1.326 . S
C7 C11 1.460 . S
C7 H13 0.929 . S
N8 Mn1 2.257 1_556 S
N8 C7 1.326 . S
N8 C12 1.362 . S
C9 C10 1.258 . S
C9 C12 1.431 . S
C9 C29 1.449 . S
C10 C9 1.258 . S
C10 C11 1.477 . S
C10 H30 0.931 . S
C11 C7 1.460 . S
C11 C10 1.477 . S
C11 H31 0.930 . S
C12 N8 1.362 . S
C12 C9 1.431 . S
C12 C22 1.476 . S
H13 C7 0.929 . S
C14 O5 1.250 . S
C14 O6 1.258 . S
O15 Mn0 2.162 . S
O15 C3 1.281 1_554 S
O16 Mn0 2.297 1_556 S
O16 C3 1.236 . S
N17 Mn1 2.282 1_556 S
N17 C18 1.328 1_556 S
N17 C22 1.318 . S
C18 N17 1.328 1_554 S
C18 C19 1.457 1_554 S
C18 H23 0.929 . S
C19 C18 1.457 1_556 S
C19 C20 1.291 . S
C19 H32 0.931 . S
C20 C19 1.291 . S
C20 C21 1.373 . S
C20 H33 0.929 . S
C21 C20 1.373 . S
C21 C22 1.396 . S
C21 C28 1.403 . S
C22 C12 1.476 . S
C22 N17 1.318 . S
C22 C21 1.396 . S
H23 C18 0.929 . S
O24 Mn0 2.385 1_556 S
O24 C2 1.234 1_655 S
O25 Mn0 2.209 1_456 S
O25 Mn1 2.215 1_556 S
O25 C2 1.283 . S
O26 Mn0 2.094 . S
O26 C4 1.230 1_655 S
O27 Mn1 2.117 . S
O27 C4 1.291 . S
C28 C21 1.403 . S
C28 C29 1.399 . S
C28 H34 0.929 . S
C29 C9 1.449 . S
C29 C28 1.399 . S
C29 H35 0.930 . S
H30 C10 0.931 . S
H31 C11 0.930 . S
H32 C19 0.931 . S
H33 C20 0.929 . S
H34 C28 0.929 . S
H35 C29 0.930 . S
Mn36 O41 2.095 1_554 S
Mn36 O51 2.162 . S
Mn36 O52 2.297 . S
Mn36 O60 2.385 . S
Mn36 O61 2.209 . S
Mn36 O62 2.094 1_554 S
Mn37 O42 2.128 . S
Mn37 N44 2.232 1_556 S
Mn37 N53 2.268 1_556 S
Mn37 O61 2.188 1_556 S
Mn37 O63 2.141 . S
C38 O60 1.234 . S
C38 O61 1.283 . S
C39 O51 1.281 . S
C39 O52 1.236 . S
C40 O62 1.240 . S
C40 O63 1.264 . S
O41 Mn36 2.095 1_556 S
O41 C50 1.250 . S
O42 Mn37 2.128 . S
O42 C50 1.258 . S
C43 N44 1.326 . S
C43 C47 1.460 . S
C43 H49 0.929 . S
N44 Mn37 2.232 1_554 S
N44 C43 1.326 . S
N44 C48 1.362 . S
C45 C46 1.258 . S
C45 C48 1.431 . S
C45 C65 1.449 . S
C46 C45 1.258 . S
C46 C47 1.477 . S
C46 H66 0.931 . S
C47 C43 1.460 . S
C47 C46 1.477 . S
C47 H67 0.930 . S
C48 N44 1.362 . S
C48 C45 1.431 . S
C48 C58 1.476 . S
H49 C43 0.929 . S
C50 O41 1.250 . S
C50 O42 1.258 . S
O51 Mn36 2.162 . S
O51 C39 1.281 . S
O52 Mn36 2.297 . S
O52 C39 1.236 . S
N53 Mn37 2.268 1_554 S
N53 C54 1.328 . S
N53 C58 1.318 . S
C54 N53 1.328 . S
C54 C55 1.457 . S
C54 H59 0.929 1_554 S
C55 C54 1.457 . S
C55 C56 1.291 . S
C55 H68 0.931 . S
C56 C55 1.291 . S
C56 C57 1.373 . S
C56 H69 0.929 . S
C57 C56 1.373 . S
C57 C58 1.396 . S
C57 C64 1.403 . S
C58 C48 1.476 . S
C58 N53 1.318 . S
C58 C57 1.396 . S
H59 C54 0.929 1_556 S
O60 Mn36 2.385 . S
O60 C38 1.234 . S
O61 Mn36 2.209 . S
O61 Mn37 2.188 1_554 S
O61 C38 1.283 . S
O62 Mn36 2.094 1_556 S
O62 C40 1.240 . S
O63 Mn37 2.141 . S
O63 C40 1.264 . S
C64 C57 1.403 . S
C64 C65 1.399 . S
C64 H70 0.929 . S
C65 C45 1.449 . S
C65 C64 1.399 . S
C65 H71 0.930 . S
H66 C46 0.931 . S
H67 C47 0.930 . S
H68 C55 0.931 . S
H69 C56 0.929 . S
H70 C64 0.929 . S
H71 C65 0.930 . S
Mn72 O77 2.095 1_564 S
Mn72 O87 2.162 . S
Mn72 O88 2.297 . S
Mn72 O96 2.385 . S
Mn72 O97 2.209 1_565 S
Mn72 O98 2.094 1_554 S
Mn73 O78 2.121 1_554 S
Mn73 N80 2.257 . S
Mn73 N89 2.282 . S
Mn73 O97 2.215 . S
Mn73 O99 2.117 1_554 S
C74 O96 1.197 1_545 S
C74 O97 1.322 . S
C75 O87 1.281 . S
C75 O88 1.236 . S
C76 O98 1.253 . S
C76 O99 1.235 1_565 S
O77 Mn72 2.095 1_546 S
O77 C86 1.250 . S
O78 Mn73 2.121 1_556 S
O78 C86 1.258 . S
C79 N80 1.326 . S
C79 C83 1.460 . S
C79 H85 0.929 . S
N80 Mn73 2.257 . S
N80 C79 1.326 . S
N80 C84 1.362 . S
C81 C82 1.258 . S
C81 C84 1.431 . S
C81 C101 1.449 . S
C82 C81 1.258 . S
C82 C83 1.477 . S
C82 H102 0.931 . S
C83 C79 1.460 . S
C83 C82 1.477 . S
C83 H103 0.930 . S
C84 N80 1.362 . S
C84 C81 1.431 . S
C84 C94 1.476 . S
H85 C79 0.929 . S
C86 O77 1.250 . S
C86 O78 1.258 . S
O87 Mn72 2.162 . S
O87 C75 1.281 . S
O88 Mn72 2.297 . S
O88 C75 1.236 . S
N89 Mn73 2.282 . S
N89 C90 1.328 . S
N89 C94 1.318 . S
C90 N89 1.328 . S
C90 C91 1.457 . S
C90 H95 0.929 . S
C91 C90 1.457 . S
C91 C92 1.291 . S
C91 H104 0.931 . S
C92 C91 1.291 . S
C92 C93 1.373 . S
C92 H105 0.929 . S
C93 C92 1.373 . S
C93 C94 1.396 . S
C93 C100 1.403 . S
C94 C84 1.476 . S
C94 N89 1.318 . S
C94 C93 1.396 . S
H95 C90 0.929 . S
O96 Mn72 2.385 . S
O96 C74 1.197 1_565 S
O97 Mn72 2.209 1_545 S
O97 Mn73 2.215 . S
O97 C74 1.322 . S
O98 Mn72 2.094 1_556 S
O98 C76 1.253 . S
O99 Mn73 2.117 1_556 S
O99 C76 1.235 1_545 S
C100 C93 1.403 . S
C100 C101 1.399 . S
C100 H106 0.929 . S
C101 C81 1.449 . S
C101 C100 1.399 . S
C101 H107 0.930 . S
H102 C82 0.931 . S
H103 C83 0.930 . S
H104 C91 0.931 . S
H105 C92 0.929 . S
H106 C100 0.929 . S
H107 C101 0.930 . S
Mn108 O113 2.095 1_655 S
Mn108 O123 2.162 . S
Mn108 O124 2.297 1_554 S
Mn108 O132 2.385 1_554 S
Mn108 O133 2.209 1_654 S
Mn108 O134 2.094 . S
Mn109 O114 2.121 . S
Mn109 N116 2.257 1_554 S
Mn109 N125 2.282 1_554 S
Mn109 O133 2.215 1_554 S
Mn109 O135 2.117 . S
C110 O132 1.234 1_455 S
C110 O133 1.283 . S
C111 O123 1.281 1_556 S
C111 O124 1.236 . S
C112 O134 1.244 1_455 S
C112 O135 1.261 . S
O113 Mn108 2.095 1_455 S
O113 C122 1.250 . S
O114 Mn109 2.121 . S
O114 C122 1.258 . S
C115 N116 1.326 . S
C115 C119 1.460 . S
C115 H121 0.929 . S
N116 Mn109 2.257 1_556 S
N116 C115 1.326 . S
N116 C120 1.362 . S
C117 C118 1.258 . S
C117 C120 1.431 . S
C117 C137 1.449 . S
C118 C117 1.258 . S
C118 C119 1.477 . S
C118 H138 0.931 . S
C119 C115 1.460 . S
C119 C118 1.477 . S
C119 H139 0.930 . S
C120 N116 1.362 . S
C120 C117 1.431 . S
C120 C130 1.476 . S
H121 C115 0.929 . S
C122 O113 1.250 . S
C122 O114 1.258 . S
O123 Mn108 2.162 . S
O123 C111 1.281 1_554 S
O124 Mn108 2.297 1_556 S
O124 C111 1.236 . S
N125 Mn109 2.282 1_556 S
N125 C126 1.328 1_556 S
N125 C130 1.318 . S
C126 N125 1.328 1_554 S
C126 C127 1.457 1_554 S
C126 H131 0.929 . S
C127 C126 1.457 1_556 S
C127 C128 1.291 . S
C127 H140 0.931 . S
C128 C127 1.291 . S
C128 C129 1.373 . S
C128 H141 0.929 . S
C129 C128 1.373 . S
C129 C130 1.396 . S
C129 C136 1.403 . S
C130 C120 1.476 . S
C130 N125 1.318 . S
C130 C129 1.396 . S
H131 C126 0.929 . S
O132 Mn108 2.385 1_556 S
O132 C110 1.234 1_655 S
O133 Mn108 2.209 1_456 S
O133 Mn109 2.215 1_556 S
O133 C110 1.283 . S
O134 Mn108 2.094 . S
O134 C112 1.244 1_655 S
O135 Mn109 2.117 . S
O135 C112 1.261 . S
C136 C129 1.403 . S
C136 C137 1.399 . S
C136 H142 0.929 . S
C137 C117 1.449 . S
C137 C136 1.399 . S
C137 H143 0.930 . S
H138 C118 0.931 . S
H139 C119 0.930 . S
H140 C127 0.931 . S
H141 C128 0.929 . S
H142 C136 0.929 . S
H143 C137 0.930 . S
Mn144 O149 2.095 1_554 S
Mn144 O159 2.162 . S
Mn144 O160 2.297 . S
Mn144 O168 2.385 . S
Mn144 O169 2.209 . S
Mn144 O170 2.094 1_554 S
Mn145 O150 2.121 1_554 S
Mn145 N152 2.257 . S
Mn145 N161 2.282 . S
Mn145 O169 2.215 . S
Mn145 O171 2.117 1_554 S
C146 O168 1.234 . S
C146 O169 1.283 . S
C147 O159 1.281 . S
C147 O160 1.236 . S
C148 O170 1.240 . S
C148 O171 1.264 . S
O149 Mn144 2.095 1_556 S
O149 C158 1.250 . S
O150 Mn145 2.121 1_556 S
O150 C158 1.258 . S
C151 N152 1.326 . S
C151 C155 1.460 . S
C151 H157 0.929 . S
N152 Mn145 2.257 . S
N152 C151 1.326 . S
N152 C156 1.362 . S
C153 C154 1.258 . S
C153 C156 1.431 . S
C153 C173 1.449 . S
C154 C153 1.258 . S
C154 C155 1.477 . S
C154 H174 0.931 . S
C155 C151 1.460 . S
C155 C154 1.477 . S
C155 H175 0.930 . S
C156 N152 1.362 . S
C156 C153 1.431 . S
C156 C166 1.476 . S
H157 C151 0.929 . S
C158 O149 1.250 . S
C158 O150 1.258 . S
O159 Mn144 2.162 . S
O159 C147 1.281 . S
O160 Mn144 2.297 . S
O160 C147 1.236 . S
N161 Mn145 2.282 . S
N161 C162 1.328 . S
N161 C166 1.318 . S
C162 N161 1.328 . S
C162 C163 1.457 . S
C162 H167 0.929 1_554 S
C163 C162 1.457 . S
C163 C164 1.291 . S
C163 H176 0.931 . S
C164 C163 1.291 . S
C164 C165 1.373 . S
C164 H177 0.929 . S
C165 C164 1.373 . S
C165 C166 1.396 . S
C165 C172 1.403 . S
C166 C156 1.476 . S
C166 N161 1.318 . S
C166 C165 1.396 . S
H167 C162 0.929 1_556 S
O168 Mn144 2.385 . S
O168 C146 1.234 . S
O169 Mn144 2.209 . S
O169 Mn145 2.215 . S
O169 C146 1.283 . S
O170 Mn144 2.094 1_556 S
O170 C148 1.240 . S
O171 Mn145 2.117 1_556 S
O171 C148 1.264 . S
C172 C165 1.403 . S
C172 C173 1.399 . S
C172 H178 0.929 . S
C173 C153 1.449 . S
C173 C172 1.399 . S
C173 H179 0.930 . S
H174 C154 0.931 . S
H175 C155 0.930 . S
H176 C163 0.931 . S
H177 C164 0.929 . S
H178 C172 0.929 . S
H179 C173 0.930 . S
Mn180 O185 2.095 1_545 S
Mn180 O195 2.162 . S
Mn180 O196 2.297 1_554 S
Mn180 O204 2.385 1_554 S
Mn180 O205 2.209 1_544 S
Mn180 O206 2.094 . S
Mn181 O186 2.121 . S
Mn181 N188 2.257 1_554 S
Mn181 N197 2.282 1_554 S
Mn181 O205 2.215 1_554 S
Mn181 O207 2.117 . S
C182 O204 1.288 . S
C182 O205 1.230 1_545 S
C183 O195 1.281 1_556 S
C183 O196 1.236 . S
C184 O206 1.240 . S
C184 O207 1.264 1_545 S
O185 Mn180 2.095 1_565 S
O185 C194 1.250 . S
O186 Mn181 2.121 . S
O186 C194 1.258 . S
C187 N188 1.326 . S
C187 C191 1.460 . S
C187 H193 0.929 . S
N188 Mn181 2.257 1_556 S
N188 C187 1.326 . S
N188 C192 1.362 . S
C189 C190 1.258 . S
C189 C192 1.431 . S
C189 C209 1.449 . S
C190 C189 1.258 . S
C190 C191 1.477 . S
C190 H210 0.931 . S
C191 C187 1.460 . S
C191 C190 1.477 . S
C191 H211 0.930 . S
C192 N188 1.362 . S
C192 C189 1.431 . S
C192 C202 1.476 . S
H193 C187 0.929 . S
C194 O185 1.250 . S
C194 O186 1.258 . S
O195 Mn180 2.162 . S
O195 C183 1.281 1_554 S
O196 Mn180 2.297 1_556 S
O196 C183 1.236 . S
N197 Mn181 2.282 1_556 S
N197 C198 1.328 1_556 S
N197 C202 1.318 . S
C198 N197 1.328 1_554 S
C198 C199 1.457 1_554 S
C198 H203 0.929 . S
C199 C198 1.457 1_556 S
C199 C200 1.291 . S
C199 H212 0.931 . S
C200 C199 1.291 . S
C200 C201 1.373 . S
C200 H213 0.929 . S
C201 C200 1.373 . S
C201 C202 1.396 . S
C201 C208 1.403 . S
C202 C192 1.476 . S
C202 N197 1.318 . S
C202 C201 1.396 . S
H203 C198 0.929 . S
O204 Mn180 2.385 1_556 S
O204 C182 1.288 . S
O205 Mn180 2.209 1_566 S
O205 Mn181 2.215 1_556 S
O205 C182 1.230 1_565 S
O206 Mn180 2.094 . S
O206 C184 1.240 . S
O207 Mn181 2.117 . S
O207 C184 1.264 1_565 S
C208 C201 1.403 . S
C208 C209 1.399 . S
C208 H214 0.929 . S
C209 C189 1.449 . S
C209 C208 1.399 . S
C209 H215 0.930 . S
H210 C190 0.931 . S
H211 C191 0.930 . S
H212 C199 0.931 . S
H213 C200 0.929 . S
H214 C208 0.929 . S
H215 C209 0.930 . S
Mn216 O221 2.095 . S
Mn216 O231 2.162 . S
Mn216 O232 2.297 . S
Mn216 O240 2.385 . S
Mn216 O241 2.209 . S
Mn216 O242 2.094 . S
Mn217 O222 2.121 . S
Mn217 N224 2.257 . S
Mn217 N233 2.282 . S
Mn217 O241 2.215 . S
Mn217 O243 2.117 . S
C218 O240 1.234 . S
C218 O241 1.283 . S
C219 O231 1.281 . S
C219 O232 1.236 . S
C220 O242 1.240 . S
C220 O243 1.264 . S
O221 Mn216 2.095 . S
O221 C230 1.250 . S
O222 Mn217 2.121 . S
O222 C230 1.258 . S
C223 N224 1.326 . S
C223 C227 1.460 . S
C223 H229 0.929 . S
N224 Mn217 2.257 . S
N224 C223 1.326 . S
N224 C228 1.362 . S
C225 C226 1.258 . S
C225 C228 1.431 . S
C225 C245 1.449 . S
C226 C225 1.258 . S
C226 C227 1.477 . S
C226 H246 0.931 . S
C227 C223 1.460 . S
C227 C226 1.477 . S
C227 H247 0.930 . S
C228 N224 1.362 . S
C228 C225 1.431 . S
C228 C238 1.476 . S
H229 C223 0.929 . S
C230 O221 1.250 . S
C230 O222 1.258 . S
O231 Mn216 2.162 . S
O231 C219 1.281 . S
O232 Mn216 2.297 . S
O232 C219 1.236 . S
N233 Mn217 2.282 . S
N233 C234 1.328 . S
N233 C238 1.318 . S
C234 N233 1.328 . S
C234 C235 1.457 . S
C234 H239 0.929 . S
C235 C234 1.457 . S
C235 C236 1.291 . S
C235 H248 0.931 . S
C236 C235 1.291 . S
C236 C237 1.373 . S
C236 H249 0.929 . S
C237 C236 1.373 . S
C237 C238 1.396 . S
C237 C244 1.403 . S
C238 C228 1.476 . S
C238 N233 1.318 . S
C238 C237 1.396 . S
H239 C234 0.929 . S
O240 Mn216 2.385 . S
O240 C218 1.234 . S
O241 Mn216 2.209 . S
O241 Mn217 2.215 . S
O241 C218 1.283 . S
O242 Mn216 2.094 . S
O242 C220 1.240 . S
O243 Mn217 2.117 . S
O243 C220 1.264 . S
C244 C237 1.403 . S
C244 C245 1.399 . S
C244 H250 0.929 . S
C245 C225 1.449 . S
C245 C244 1.399 . S
C245 H251 0.930 . S
H246 C226 0.931 . S
H247 C227 0.930 . S
H248 C235 0.931 . S
H249 C236 0.929 . S
H250 C244 0.929 . S
H251 C245 0.930 . S
Mn252 O257 2.095 . S
Mn252 O267 2.162 1_565 S
Mn252 O268 2.297 1_565 S
Mn252 O276 2.385 . S
Mn252 O277 2.209 . S
Mn252 O278 2.094 . S
Mn253 O258 2.121 . S
Mn253 N260 2.257 . S
Mn253 N269 2.282 . S
Mn253 O277 2.215 . S
Mn253 O279 2.117 . S
C254 O276 1.234 . S
C254 O277 1.283 . S
C255 O267 1.281 . S
C255 O268 1.236 . S
C256 O278 1.240 . S
C256 O279 1.264 . S
O257 Mn252 2.095 . S
O257 C266 1.250 . S
O258 Mn253 2.121 . S
O258 C266 1.258 . S
C259 N260 1.326 . S
C259 C263 1.460 . S
C259 H265 0.929 . S
N260 Mn253 2.257 . S
N260 C259 1.326 . S
N260 C264 1.362 . S
C261 C262 1.258 . S
C261 C264 1.431 . S
C261 C281 1.449 . S
C262 C261 1.258 . S
C262 C263 1.477 . S
C262 H282 0.931 . S
C263 C259 1.460 . S
C263 C262 1.477 . S
C263 H283 0.930 . S
C264 N260 1.362 . S
C264 C261 1.431 . S
C264 C274 1.476 . S
H265 C259 0.929 . S
C266 O257 1.250 . S
C266 O258 1.258 . S
O267 Mn252 2.162 1_545 S
O267 C255 1.281 . S
O268 Mn252 2.297 1_545 S
O268 C255 1.236 . S
N269 Mn253 2.282 . S
N269 C270 1.328 . S
N269 C274 1.318 . S
C270 N269 1.328 . S
C270 C271 1.457 . S
C270 H275 0.929 . S
C271 C270 1.457 . S
C271 C272 1.291 . S
C271 H284 0.931 . S
C272 C271 1.291 . S
C272 C273 1.373 . S
C272 H285 0.929 . S
C273 C272 1.373 . S
C273 C274 1.396 . S
C273 C280 1.403 . S
C274 C264 1.476 . S
C274 N269 1.318 . S
C274 C273 1.396 . S
H275 C270 0.929 . S
O276 Mn252 2.385 . S
O276 C254 1.234 . S
O277 Mn252 2.209 . S
O277 Mn253 2.215 . S
O277 C254 1.283 . S
O278 Mn252 2.094 . S
O278 C256 1.240 . S
O279 Mn253 2.117 . S
O279 C256 1.264 . S
C280 C273 1.403 . S
C280 C281 1.399 . S
C280 H286 0.929 . S
C281 C261 1.449 . S
C281 C280 1.399 . S
C281 H287 0.930 . S
H282 C262 0.931 . S
H283 C263 0.930 . S
H284 C271 0.931 . S
H285 C272 0.929 . S
H286 C280 0.929 . S
H287 C281 0.930 . S
Mn288 O293 2.095 . S
Mn288 O303 2.162 1_455 S
Mn288 O304 2.297 1_455 S
Mn288 O312 2.385 . S
Mn288 O313 2.209 . S
Mn288 O314 2.094 . S
Mn289 O294 2.121 . S
Mn289 N296 2.257 . S
Mn289 N305 2.282 . S
Mn289 O313 2.215 . S
Mn289 O315 2.117 . S
C290 O312 1.234 . S
C290 O313 1.283 . S
C291 O303 1.281 . S
C291 O304 1.236 . S
C292 O314 1.240 . S
C292 O315 1.264 . S
O293 Mn288 2.095 . S
O293 C302 1.250 . S
O294 Mn289 2.121 . S
O294 C302 1.258 . S
C295 N296 1.326 . S
C295 C299 1.460 . S
C295 H301 0.929 . S
N296 Mn289 2.257 . S
N296 C295 1.326 . S
N296 C300 1.362 . S
C297 C298 1.258 . S
C297 C300 1.431 . S
C297 C317 1.449 . S
C298 C297 1.258 . S
C298 C299 1.477 . S
C298 H318 0.931 . S
C299 C295 1.460 . S
C299 C298 1.477 . S
C299 H319 0.930 . S
C300 N296 1.362 . S
C300 C297 1.431 . S
C300 C310 1.476 . S
H301 C295 0.929 . S
C302 O293 1.250 . S
C302 O294 1.258 . S
O303 Mn288 2.162 1_655 S
O303 C291 1.281 . S
O304 Mn288 2.297 1_655 S
O304 C291 1.236 . S
N305 Mn289 2.282 . S
N305 C306 1.328 . S
N305 C310 1.318 . S
C306 N305 1.328 . S
C306 C307 1.457 . S
C306 H311 0.929 . S
C307 C306 1.457 . S
C307 C308 1.291 . S
C307 H320 0.931 . S
C308 C307 1.291 . S
C308 C309 1.373 . S
C308 H321 0.929 . S
C309 C308 1.373 . S
C309 C310 1.396 . S
C309 C316 1.403 . S
C310 C300 1.476 . S
C310 N305 1.318 . S
C310 C309 1.396 . S
H311 C306 0.929 . S
O312 Mn288 2.385 . S
O312 C290 1.234 . S
O313 Mn288 2.209 . S
O313 Mn289 2.215 . S
O313 C290 1.283 . S
O314 Mn288 2.094 . S
O314 C292 1.240 . S
O315 Mn289 2.117 . S
O315 C292 1.264 . S
C316 C309 1.403 . S
C316 C317 1.399 . S
C316 H322 0.929 . S
C317 C297 1.449 . S
C317 C316 1.399 . S
C317 H323 0.930 . S
H318 C298 0.931 . S
H319 C299 0.930 . S
H320 C307 0.931 . S
H321 C308 0.929 . S
H322 C316 0.929 . S
H323 C317 0.930 . S
Mn324 O329 2.095 1_565 S
Mn324 O339 2.162 . S
Mn324 O340 2.297 . S
Mn324 O348 2.385 . S
Mn324 O349 2.209 . S
Mn324 O350 2.094 . S
Mn325 O330 2.121 1_565 S
Mn325 N332 2.257 . S
Mn325 N341 2.282 . S
Mn325 O349 2.215 . S
Mn325 O351 2.117 . S
C326 O348 1.234 . S
C326 O349 1.283 . S
C327 O339 1.281 . S
C327 O340 1.236 . S
C328 O350 1.240 . S
C328 O351 1.264 . S
O329 Mn324 2.095 1_545 S
O329 C338 1.250 . S
O330 Mn325 2.121 1_545 S
O330 C338 1.258 . S
C331 N332 1.326 1_545 S
C331 C335 1.460 . S
C331 H337 0.929 . S
N332 Mn325 2.257 . S
N332 C331 1.326 1_565 S
N332 C336 1.362 . S
C333 C334 1.258 . S
C333 C336 1.431 . S
C333 C353 1.449 . S
C334 C333 1.258 . S
C334 C335 1.477 1_565 S
C334 H354 0.942 1_565 S
C335 C331 1.460 . S
C335 C334 1.477 1_545 S
C335 H355 0.930 . S
C336 N332 1.362 . S
C336 C333 1.431 . S
C336 C346 1.476 . S
H337 C331 0.929 . S
C338 O329 1.250 . S
C338 O330 1.258 . S
O339 Mn324 2.162 . S
O339 C327 1.281 . S
O340 Mn324 2.297 . S
O340 C327 1.236 . S
N341 Mn325 2.282 . S
N341 C342 1.328 . S
N341 C346 1.318 . S
C342 N341 1.328 . S
C342 C343 1.457 . S
C342 H347 0.929 . S
C343 C342 1.457 . S
C343 C344 1.291 . S
C343 H356 0.931 . S
C344 C343 1.291 . S
C344 C345 1.373 . S
C344 H357 0.929 . S
C345 C344 1.373 . S
C345 C346 1.396 . S
C345 C352 1.403 . S
C346 C336 1.476 . S
C346 N341 1.318 . S
C346 C345 1.396 . S
H347 C342 0.929 . S
O348 Mn324 2.385 . S
O348 C326 1.234 . S
O349 Mn324 2.209 . S
O349 Mn325 2.215 . S
O349 C326 1.283 . S
O350 Mn324 2.094 . S
O350 C328 1.240 . S
O351 Mn325 2.117 . S
O351 C328 1.264 . S
C352 C345 1.403 . S
C352 C353 1.399 . S
C352 H358 0.929 . S
C353 C333 1.449 . S
C353 C352 1.399 . S
C353 H359 0.930 . S
H354 C334 0.942 1_545 S
H355 C335 0.930 . S
H356 C343 0.931 . S
H357 C344 0.929 . S
H358 C352 0.929 . S
H359 C353 0.930 . S
Mn360 O365 2.095 . S
Mn360 O375 2.162 1_455 S
Mn360 O376 2.297 1_455 S
Mn360 O384 2.385 . S
Mn360 O385 2.209 . S
Mn360 O386 2.094 . S
Mn361 O366 2.121 . S
Mn361 N368 2.257 . S
Mn361 N377 2.282 . S
Mn361 O385 2.215 . S
Mn361 O387 2.117 . S
C362 O384 1.234 . S
C362 O385 1.283 . S
C363 O375 1.281 . S
C363 O376 1.236 . S
C364 O386 1.240 . S
C364 O387 1.264 . S
O365 Mn360 2.095 . S
O365 C374 1.250 . S
O366 Mn361 2.121 . S
O366 C374 1.258 . S
C367 N368 1.326 . S
C367 C371 1.460 . S
C367 H373 0.929 . S
N368 Mn361 2.257 . S
N368 C367 1.326 . S
N368 C372 1.362 . S
C369 C370 1.258 . S
C369 C372 1.431 . S
C369 C389 1.449 . S
C370 C369 1.258 . S
C370 C371 1.477 . S
C370 H390 0.931 . S
C371 C367 1.460 . S
C371 C370 1.477 . S
C371 H391 0.930 . S
C372 N368 1.362 . S
C372 C369 1.431 . S
C372 C382 1.476 . S
H373 C367 0.929 . S
C374 O365 1.250 . S
C374 O366 1.258 . S
O375 Mn360 2.162 1_655 S
O375 C363 1.281 . S
O376 Mn360 2.297 1_655 S
O376 C363 1.236 . S
N377 Mn361 2.282 . S
N377 C378 1.328 . S
N377 C382 1.318 . S
C378 N377 1.328 . S
C378 C379 1.457 . S
C378 H383 0.929 . S
C379 C378 1.457 . S
C379 C380 1.291 . S
C379 H392 0.931 . S
C380 C379 1.291 . S
C380 C381 1.373 . S
C380 H393 0.929 . S
C381 C380 1.373 . S
C381 C382 1.396 . S
C381 C388 1.403 . S
C382 C372 1.476 . S
C382 N377 1.318 . S
C382 C381 1.396 . S
H383 C378 0.929 . S
O384 Mn360 2.385 . S
O384 C362 1.234 . S
O385 Mn360 2.209 . S
O385 Mn361 2.215 . S
O385 C362 1.283 . S
O386 Mn360 2.094 . S
O386 C364 1.240 . S
O387 Mn361 2.117 . S
O387 C364 1.264 . S
C388 C381 1.403 . S
C388 C389 1.399 . S
C388 H394 0.929 . S
C389 C369 1.449 . S
C389 C388 1.399 . S
C389 H395 0.930 . S
H390 C370 0.931 . S
H391 C371 0.930 . S
H392 C379 0.931 . S
H393 C380 0.929 . S
H394 C388 0.929 . S
H395 C389 0.930 . S
Mn396 O401 2.095 . S
Mn396 O411 2.162 . S
Mn396 O412 2.297 . S
Mn396 O420 2.385 . S
Mn396 O421 2.209 . S
Mn396 O422 2.094 . S
Mn397 O402 2.121 . S
Mn397 N404 2.257 . S
Mn397 N413 2.282 . S
Mn397 O421 2.215 . S
Mn397 O423 2.117 . S
C398 O420 1.234 . S
C398 O421 1.283 . S
C399 O411 1.281 . S
C399 O412 1.236 . S
C400 O422 1.240 . S
C400 O423 1.264 . S
O401 Mn396 2.095 . S
O401 C410 1.250 . S
O402 Mn397 2.121 . S
O402 C410 1.258 . S
C403 N404 1.326 . S
C403 C407 1.460 . S
C403 H409 0.929 . S
N404 Mn397 2.257 . S
N404 C403 1.326 . S
N404 C408 1.362 . S
C405 C406 1.258 . S
C405 C408 1.431 . S
C405 C425 1.449 . S
C406 C405 1.258 . S
C406 C407 1.477 . S
C406 H426 0.931 . S
C407 C403 1.460 . S
C407 C406 1.477 . S
C407 H427 0.930 . S
C408 N404 1.362 . S
C408 C405 1.431 . S
C408 C418 1.476 . S
H409 C403 0.929 . S
C410 O401 1.250 . S
C410 O402 1.258 . S
O411 Mn396 2.162 . S
O411 C399 1.281 . S
O412 Mn396 2.297 . S
O412 C399 1.236 . S
N413 Mn397 2.282 . S
N413 C414 1.328 . S
N413 C418 1.318 . S
C414 N413 1.328 . S
C414 C415 1.457 . S
C414 H419 0.929 . S
C415 C414 1.457 . S
C415 C416 1.291 . S
C415 H428 0.931 . S
C416 C415 1.291 . S
C416 C417 1.373 . S
C416 H429 0.929 . S
C417 C416 1.373 . S
C417 C418 1.396 . S
C417 C424 1.403 . S
C418 C408 1.476 . S
C418 N413 1.318 . S
C418 C417 1.396 . S
H419 C414 0.929 . S
O420 Mn396 2.385 . S
O420 C398 1.234 . S
O421 Mn396 2.209 . S
O421 Mn397 2.215 . S
O421 C398 1.283 . S
O422 Mn396 2.094 . S
O422 C400 1.240 . S
O423 Mn397 2.117 . S
O423 C400 1.264 . S
C424 C417 1.403 . S
C424 C425 1.399 . S
C424 H430 0.929 . S
C425 C405 1.449 . S
C425 C424 1.399 . S
C425 H431 0.930 . S
H426 C406 0.931 . S
H427 C407 0.930 . S
H428 C415 0.931 . S
H429 C416 0.929 . S
H430 C424 0.929 . S
H431 C425 0.930 . S
Mn432 O437 2.095 . S
Mn432 O447 2.162 1_545 S
Mn432 O448 2.297 1_545 S
Mn432 O456 2.385 . S
Mn432 O457 2.209 . S
Mn432 O458 2.094 . S
Mn433 O438 2.121 . S
Mn433 N440 2.257 . S
Mn433 N449 2.282 . S
Mn433 O457 2.215 . S
Mn433 O459 2.117 . S
C434 O456 1.234 . S
C434 O457 1.283 . S
C435 O447 1.281 . S
C435 O448 1.236 . S
C436 O458 1.240 . S
C436 O459 1.264 . S
O437 Mn432 2.095 . S
O437 C446 1.250 . S
O438 Mn433 2.121 . S
O438 C446 1.258 . S
C439 N440 1.326 . S
C439 C443 1.460 . S
C439 H445 0.929 . S
N440 Mn433 2.257 . S
N440 C439 1.326 . S
N440 C444 1.362 . S
C441 C442 1.258 . S
C441 C444 1.431 . S
C441 C461 1.449 . S
C442 C441 1.258 . S
C442 C443 1.477 . S
C442 H462 0.931 . S
C443 C439 1.460 . S
C443 C442 1.477 . S
C443 H463 0.930 . S
C444 N440 1.362 . S
C444 C441 1.431 . S
C444 C454 1.476 . S
H445 C439 0.929 . S
C446 O437 1.250 . S
C446 O438 1.258 . S
O447 Mn432 2.162 1_565 S
O447 C435 1.281 . S
O448 Mn432 2.297 1_565 S
O448 C435 1.236 . S
N449 Mn433 2.282 . S
N449 C450 1.328 . S
N449 C454 1.318 . S
C450 N449 1.328 . S
C450 C451 1.457 . S
C450 H455 0.929 . S
C451 C450 1.457 . S
C451 C452 1.291 . S
C451 H464 0.931 . S
C452 C451 1.291 . S
C452 C453 1.373 . S
C452 H465 0.929 . S
C453 C452 1.373 . S
C453 C454 1.396 . S
C453 C460 1.403 . S
C454 C444 1.476 . S
C454 N449 1.318 . S
C454 C453 1.396 . S
H455 C450 0.929 . S
O456 Mn432 2.385 . S
O456 C434 1.234 . S
O457 Mn432 2.209 . S
O457 Mn433 2.215 . S
O457 C434 1.283 . S
O458 Mn432 2.094 . S
O458 C436 1.240 . S
O459 Mn433 2.117 . S
O459 C436 1.264 . S
C460 C453 1.403 . S
C460 C461 1.399 . S
C460 H466 0.929 . S
C461 C441 1.449 . S
C461 C460 1.399 . S
C461 H467 0.930 . S
H462 C442 0.931 . S
H463 C443 0.930 . S
H464 C451 0.931 . S
H465 C452 0.929 . S
H466 C460 0.929 . S
H467 C461 0.930 . S
Mn468 O473 2.135 . S
Mn468 O483 2.162 . S
Mn468 O484 2.297 . S
Mn468 O492 2.385 . S
Mn468 O493 2.209 . S
Mn468 O494 2.094 . S
Mn469 O474 2.121 1_655 S
Mn469 N476 2.257 . S
Mn469 N485 2.282 . S
Mn469 O493 2.215 . S
Mn469 O495 2.117 . S
C470 O492 1.234 . S
C470 O493 1.283 . S
C471 O483 1.281 . S
C471 O484 1.236 . S
C472 O494 1.240 . S
C472 O495 1.264 . S
O473 Mn468 2.135 . S
O473 C482 1.206 1_655 S
O474 Mn469 2.121 1_455 S
O474 C482 1.258 . S
C475 N476 1.326 1_455 S
C475 C479 1.460 . S
C475 H481 0.929 . S
N476 Mn469 2.257 . S
N476 C475 1.326 1_655 S
N476 C480 1.362 . S
C477 C478 1.258 . S
C477 C480 1.431 . S
C477 C497 1.449 . S
C478 C477 1.258 . S
C478 C479 1.477 1_655 S
C478 H498 0.915 1_655 S
C479 C475 1.460 . S
C479 C478 1.477 1_455 S
C479 H499 0.930 . S
C480 N476 1.362 . S
C480 C477 1.431 . S
C480 C490 1.476 . S
H481 C475 0.929 . S
C482 O473 1.206 1_455 S
C482 O474 1.258 . S
O483 Mn468 2.162 . S
O483 C471 1.281 . S
O484 Mn468 2.297 . S
O484 C471 1.236 . S
N485 Mn469 2.282 . S
N485 C486 1.328 . S
N485 C490 1.318 . S
C486 N485 1.328 . S
C486 C487 1.457 . S
C486 H491 0.929 . S
C487 C486 1.457 . S
C487 C488 1.291 . S
C487 H500 0.931 . S
C488 C487 1.291 . S
C488 C489 1.373 . S
C488 H501 0.929 . S
C489 C488 1.373 . S
C489 C490 1.396 . S
C489 C496 1.403 . S
C490 C480 1.476 . S
C490 N485 1.318 . S
C490 C489 1.396 . S
H491 C486 0.929 . S
O492 Mn468 2.385 . S
O492 C470 1.234 . S
O493 Mn468 2.209 . S
O493 Mn469 2.215 . S
O493 C470 1.283 . S
O494 Mn468 2.094 . S
O494 C472 1.240 . S
O495 Mn469 2.117 . S
O495 C472 1.264 . S
C496 C489 1.403 . S
C496 C497 1.399 . S
C496 H502 0.929 . S
C497 C477 1.449 . S
C497 C496 1.399 . S
C497 H503 0.930 . S
H498 C478 0.915 1_455 S
H499 C479 0.930 . S
H500 C487 0.931 . S
H501 C488 0.929 . S
H502 C496 0.929 . S
H503 C497 0.930 . S
Mn504 O509 2.095 . S
Mn504 O519 2.162 . S
Mn504 O520 2.297 . S
Mn504 O528 2.385 . S
Mn504 O529 2.209 . S
Mn504 O530 2.094 . S
Mn505 O510 2.121 . S
Mn505 N512 2.257 . S
Mn505 N521 2.282 . S
Mn505 O529 2.215 . S
Mn505 O531 2.117 . S
C506 O528 1.234 . S
C506 O529 1.283 . S
C507 O519 1.281 . S
C507 O520 1.236 . S
C508 O530 1.240 . S
C508 O531 1.264 . S
O509 Mn504 2.095 . S
O509 C518 1.250 . S
O510 Mn505 2.121 . S
O510 C518 1.258 . S
C511 N512 1.326 . S
C511 C515 1.460 . S
C511 H517 0.929 . S
N512 Mn505 2.257 . S
N512 C511 1.326 . S
N512 C516 1.362 . S
C513 C514 1.258 . S
C513 C516 1.431 . S
C513 C533 1.449 . S
C514 C513 1.258 . S
C514 C515 1.477 . S
C514 H534 0.931 . S
C515 C511 1.460 . S
C515 C514 1.477 . S
C515 H535 0.930 . S
C516 N512 1.362 . S
C516 C513 1.431 . S
C516 C526 1.476 . S
H517 C511 0.929 . S
C518 O509 1.250 . S
C518 O510 1.258 . S
O519 Mn504 2.162 . S
O519 C507 1.281 . S
O520 Mn504 2.297 . S
O520 C507 1.236 . S
N521 Mn505 2.282 . S
N521 C522 1.328 . S
N521 C526 1.318 . S
C522 N521 1.328 . S
C522 C523 1.457 . S
C522 H527 0.929 . S
C523 C522 1.457 . S
C523 C524 1.291 . S
C523 H536 0.931 . S
C524 C523 1.291 . S
C524 C525 1.373 . S
C524 H537 0.929 . S
C525 C524 1.373 . S
C525 C526 1.396 . S
C525 C532 1.403 . S
C526 C516 1.476 . S
C526 N521 1.318 . S
C526 C525 1.396 . S
H527 C522 0.929 . S
O528 Mn504 2.385 . S
O528 C506 1.234 . S
O529 Mn504 2.209 . S
O529 Mn505 2.215 . S
O529 C506 1.283 . S
O530 Mn504 2.094 . S
O530 C508 1.240 . S
O531 Mn505 2.117 . S
O531 C508 1.264 . S
C532 C525 1.403 . S
C532 C533 1.399 . S
C532 H538 0.929 . S
C533 C513 1.449 . S
C533 C532 1.399 . S
C533 H539 0.930 . S
H534 C514 0.931 . S
H535 C515 0.930 . S
H536 C523 0.931 . S
H537 C524 0.929 . S
H538 C532 0.929 . S
H539 C533 0.930 . S
Mn540 O545 2.095 . S
Mn540 O555 2.162 . S
Mn540 O556 2.297 . S
Mn540 O564 2.385 . S
Mn540 O565 2.209 . S
Mn540 O566 2.094 . S
Mn541 O546 2.121 . S
Mn541 N548 2.257 . S
Mn541 N557 2.282 . S
Mn541 O565 2.215 . S
Mn541 O567 2.117 . S
C542 O564 1.234 . S
C542 O565 1.283 . S
C543 O555 1.281 . S
C543 O556 1.236 . S
C544 O566 1.240 . S
C544 O567 1.264 . S
O545 Mn540 2.095 . S
O545 C554 1.250 . S
O546 Mn541 2.121 . S
O546 C554 1.258 . S
C547 N548 1.326 . S
C547 C551 1.460 . S
C547 H553 0.929 . S
N548 Mn541 2.257 . S
N548 C547 1.326 . S
N548 C552 1.362 . S
C549 C550 1.258 . S
C549 C552 1.431 . S
C549 C569 1.449 . S
C550 C549 1.258 . S
C550 C551 1.477 . S
C550 H570 0.931 . S
C551 C547 1.460 . S
C551 C550 1.477 . S
C551 H571 0.930 . S
C552 N548 1.362 . S
C552 C549 1.431 . S
C552 C562 1.476 . S
H553 C547 0.929 . S
C554 O545 1.250 . S
C554 O546 1.258 . S
O555 Mn540 2.162 . S
O555 C543 1.281 . S
O556 Mn540 2.297 . S
O556 C543 1.236 . S
N557 Mn541 2.282 . S
N557 C558 1.328 . S
N557 C562 1.318 . S
C558 N557 1.328 . S
C558 C559 1.457 . S
C558 H563 0.929 . S
C559 C558 1.457 . S
C559 C560 1.291 . S
C559 H572 0.931 . S
C560 C559 1.291 . S
C560 C561 1.373 . S
C560 H573 0.929 . S
C561 C560 1.373 . S
C561 C562 1.396 . S
C561 C568 1.403 . S
C562 C552 1.476 . S
C562 N557 1.318 . S
C562 C561 1.396 . S
H563 C558 0.929 . S
O564 Mn540 2.385 . S
O564 C542 1.234 . S
O565 Mn540 2.209 . S
O565 Mn541 2.215 . S
O565 C542 1.283 . S
O566 Mn540 2.094 . S
O566 C544 1.240 . S
O567 Mn541 2.117 . S
O567 C544 1.264 . S
C568 C561 1.403 . S
C568 C569 1.399 . S
C568 H574 0.929 . S
C569 C549 1.449 . S
C569 C568 1.399 . S
C569 H575 0.930 . S
H570 C550 0.931 . S
H571 C551 0.930 . S
H572 C559 0.931 . S
H573 C560 0.929 . S
H574 C568 0.929 . S
H575 C569 0.930 . S
Mn576 O581 2.095 1_545 S
Mn576 O591 2.162 . S
Mn576 O592 2.297 . S
Mn576 O600 2.385 . S
Mn576 O601 2.209 . S
Mn576 O602 2.094 . S
Mn577 O582 2.121 1_545 S
Mn577 N584 2.257 . S
Mn577 N593 2.282 . S
Mn577 O601 2.215 . S
Mn577 O603 2.117 . S
C578 O600 1.234 . S
C578 O601 1.283 . S
C579 O591 1.281 . S
C579 O592 1.236 . S
C580 O602 1.240 . S
C580 O603 1.264 . S
O581 Mn576 2.095 1_565 S
O581 C590 1.250 . S
O582 Mn577 2.121 1_565 S
O582 C590 1.258 . S
C583 N584 1.326 1_565 S
C583 C587 1.460 . S
C583 H589 0.929 . S
N584 Mn577 2.257 . S
N584 C583 1.326 1_545 S
N584 C588 1.362 . S
C585 C586 1.258 . S
C585 C588 1.431 . S
C585 C605 1.449 . S
C586 C585 1.258 . S
C586 C587 1.477 1_545 S
C586 H606 0.894 1_545 S
C587 C583 1.460 . S
C587 C586 1.477 1_565 S
C587 H607 0.930 . S
C588 N584 1.362 . S
C588 C585 1.431 . S
C588 C598 1.476 . S
H589 C583 0.929 . S
C590 O581 1.250 . S
C590 O582 1.258 . S
O591 Mn576 2.162 . S
O591 C579 1.281 . S
O592 Mn576 2.297 . S
O592 C579 1.236 . S
N593 Mn577 2.282 . S
N593 C594 1.328 . S
N593 C598 1.318 . S
C594 N593 1.328 . S
C594 C595 1.457 . S
C594 H599 0.929 . S
C595 C594 1.457 . S
C595 C596 1.291 . S
C595 H608 0.931 . S
C596 C595 1.291 . S
C596 C597 1.373 . S
C596 H609 0.929 . S
C597 C596 1.373 . S
C597 C598 1.396 . S
C597 C604 1.403 . S
C598 C588 1.476 . S
C598 N593 1.318 . S
C598 C597 1.396 . S
H599 C594 0.929 . S
O600 Mn576 2.385 . S
O600 C578 1.234 . S
O601 Mn576 2.209 . S
O601 Mn577 2.215 . S
O601 C578 1.283 . S
O602 Mn576 2.094 . S
O602 C580 1.240 . S
O603 Mn577 2.117 . S
O603 C580 1.264 . S
C604 C597 1.403 . S
C604 C605 1.399 . S
C604 H610 0.929 . S
C605 C585 1.449 . S
C605 C604 1.399 . S
C605 H611 0.930 . S
H606 C586 0.894 1_565 S
H607 C587 0.930 . S
H608 C595 0.931 . S
H609 C596 0.929 . S
H610 C604 0.929 . S
H611 C605 0.930 . S
Mn612 O617 2.095 . S
Mn612 O627 2.162 1_655 S
Mn612 O628 2.297 1_655 S
Mn612 O636 2.385 . S
Mn612 O637 2.209 . S
Mn612 O638 2.094 . S
Mn613 O618 2.121 . S
Mn613 N620 2.257 . S
Mn613 N629 2.282 . S
Mn613 O637 2.215 . S
Mn613 O639 2.117 . S
C614 O636 1.234 . S
C614 O637 1.283 . S
C615 O627 1.281 . S
C615 O628 1.236 . S
C616 O638 1.240 . S
C616 O639 1.264 . S
O617 Mn612 2.095 . S
O617 C626 1.250 . S
O618 Mn613 2.121 . S
O618 C626 1.258 . S
C619 N620 1.326 . S
C619 C623 1.460 . S
C619 H625 0.929 . S
N620 Mn613 2.257 . S
N620 C619 1.326 . S
N620 C624 1.362 . S
C621 C622 1.258 . S
C621 C624 1.431 . S
C621 C641 1.449 . S
C622 C621 1.258 . S
C622 C623 1.477 . S
C622 H642 0.931 . S
C623 C619 1.460 . S
C623 C622 1.477 . S
C623 H643 0.930 . S
C624 N620 1.362 . S
C624 C621 1.431 . S
C624 C634 1.476 . S
H625 C619 0.929 . S
C626 O617 1.250 . S
C626 O618 1.258 . S
O627 Mn612 2.162 1_455 S
O627 C615 1.281 . S
O628 Mn612 2.297 1_455 S
O628 C615 1.236 . S
N629 Mn613 2.282 . S
N629 C630 1.328 . S
N629 C634 1.318 . S
C630 N629 1.328 . S
C630 C631 1.457 . S
C630 H635 0.929 . S
C631 C630 1.457 . S
C631 C632 1.291 . S
C631 H644 0.931 . S
C632 C631 1.291 . S
C632 C633 1.373 . S
C632 H645 0.929 . S
C633 C632 1.373 . S
C633 C634 1.396 . S
C633 C640 1.403 . S
C634 C624 1.476 . S
C634 N629 1.318 . S
C634 C633 1.396 . S
H635 C630 0.929 . S
O636 Mn612 2.385 . S
O636 C614 1.234 . S
O637 Mn612 2.209 . S
O637 Mn613 2.215 . S
O637 C614 1.283 . S
O638 Mn612 2.094 . S
O638 C616 1.240 . S
O639 Mn613 2.117 . S
O639 C616 1.264 . S
C640 C633 1.403 . S
C640 C641 1.399 . S
C640 H646 0.929 . S
C641 C621 1.449 . S
C641 C640 1.399 . S
C641 H647 0.930 . S
H642 C622 0.931 . S
H643 C623 0.930 . S
H644 C631 0.931 . S
H645 C632 0.929 . S
H646 C640 0.929 . S
H647 C641 0.930 . S
H648 C654 0.930 . S
H649 C657 0.931 . S
H650 C659 0.931 . S
H651 C661 0.930 . S
H652 C663 0.930 . S
H653 C665 0.931 . S
C654 H648 0.930 . S
C654 C655 1.380 . S
C654 C656 1.394 . S
C655 C654 1.380 . S
C655 C659 1.382 . S
C656 C654 1.394 . S
C656 C657 1.400 . S
C657 H649 0.931 . S
C657 C656 1.400 . S
C657 C658 1.375 . S
C658 C657 1.375 . S
C658 C659 1.415 . S
C658 C660 1.501 . S
C659 H650 0.931 . S
C659 C655 1.382 . S
C659 C658 1.415 . S
C660 C658 1.501 . S
C660 C661 1.384 . S
C660 C665 1.408 . S
C661 H651 0.930 . S
C661 C660 1.384 . S
C661 C662 1.389 . S
C662 C661 1.389 . S
C662 C663 1.405 . S
C663 H652 0.930 . S
C663 C662 1.405 . S
C663 C664 1.364 . S
C664 C663 1.364 . S
C664 C665 1.400 . S
C665 H653 0.931 . S
C665 C660 1.408 . S
C665 C664 1.400 . S
H666 C672 0.930 . S
H667 C675 0.931 . S
H668 C677 0.931 . S
H669 C679 0.930 . S
H670 C681 0.930 . S
H671 C683 0.931 . S
C672 H666 0.930 . S
C672 C673 1.380 . S
C672 C674 1.394 . S
C673 C672 1.380 . S
C673 C677 1.382 . S
C674 C672 1.394 . S
C674 C675 1.400 . S
C675 H667 0.931 . S
C675 C674 1.400 . S
C675 C676 1.375 . S
C676 C675 1.375 . S
C676 C677 1.415 . S
C676 C678 1.501 . S
C677 H668 0.931 . S
C677 C673 1.382 . S
C677 C676 1.415 . S
C678 C676 1.501 . S
C678 C679 1.384 . S
C678 C683 1.408 . S
C679 H669 0.930 . S
C679 C678 1.384 . S
C679 C680 1.389 . S
C680 C679 1.389 . S
C680 C681 1.405 . S
C681 H670 0.930 . S
C681 C680 1.405 . S
C681 C682 1.364 . S
C682 C681 1.364 . S
C682 C683 1.400 . S
C683 H671 0.931 . S
C683 C678 1.408 . S
C683 C682 1.400 . S
H684 C690 0.930 . S
H685 C693 0.931 . S
H686 C695 0.931 . S
H687 C697 0.930 . S
H688 C699 0.930 . S
H689 C701 0.931 . S
C690 H684 0.930 . S
C690 C691 1.380 . S
C690 C692 1.394 . S
C691 C690 1.380 . S
C691 C695 1.382 . S
C692 C690 1.394 . S
C692 C693 1.400 . S
C693 H685 0.931 . S
C693 C692 1.400 . S
C693 C694 1.375 . S
C694 C693 1.375 . S
C694 C695 1.415 . S
C694 C696 1.501 . S
C695 H686 0.931 . S
C695 C691 1.382 . S
C695 C694 1.415 . S
C696 C694 1.501 . S
C696 C697 1.384 . S
C696 C701 1.408 . S
C697 H687 0.930 . S
C697 C696 1.384 . S
C697 C698 1.389 . S
C698 C697 1.389 . S
C698 C699 1.405 . S
C699 H688 0.930 . S
C699 C698 1.405 . S
C699 C700 1.364 . S
C700 C699 1.364 . S
C700 C701 1.400 . S
C701 H689 0.931 . S
C701 C696 1.408 . S
C701 C700 1.400 . S
H702 C708 0.930 . S
H703 C711 0.931 . S
H704 C713 0.931 . S
H705 C715 0.930 . S
H706 C717 0.930 . S
H707 C719 0.931 . S
C708 H702 0.930 . S
C708 C709 1.380 . S
C708 C710 1.394 . S
C709 C708 1.380 . S
C709 C713 1.382 . S
C710 C708 1.394 . S
C710 C711 1.400 . S
C711 H703 0.931 . S
C711 C710 1.400 . S
C711 C712 1.375 . S
C712 C711 1.375 . S
C712 C713 1.415 . S
C712 C714 1.501 . S
C713 H704 0.931 . S
C713 C709 1.382 . S
C713 C712 1.415 . S
C714 C712 1.501 . S
C714 C715 1.384 . S
C714 C719 1.408 . S
C715 H705 0.930 . S
C715 C714 1.384 . S
C715 C716 1.389 . S
C716 C715 1.389 . S
C716 C717 1.405 . S
C717 H706 0.930 . S
C717 C716 1.405 . S
C717 C718 1.364 . S
C718 C717 1.364 . S
C718 C719 1.400 . S
C719 H707 0.931 . S
C719 C714 1.408 . S
C719 C718 1.400 . S
H720 C726 0.930 . S
H721 C729 0.931 . S
H722 C731 0.931 . S
H723 C733 0.930 . S
H724 C735 0.930 . S
H725 C737 0.931 . S
C726 H720 0.930 . S
C726 C727 1.380 . S
C726 C728 1.394 . S
C727 C726 1.380 . S
C727 C731 1.382 . S
C728 C726 1.394 . S
C728 C729 1.400 . S
C729 H721 0.931 . S
C729 C728 1.400 . S
C729 C730 1.375 . S
C730 C729 1.375 . S
C730 C731 1.415 . S
C730 C732 1.501 . S
C731 H722 0.931 . S
C731 C727 1.382 . S
C731 C730 1.415 . S
C732 C730 1.501 . S
C732 C733 1.384 . S
C732 C737 1.408 . S
C733 H723 0.930 . S
C733 C732 1.384 . S
C733 C734 1.389 . S
C734 C733 1.389 . S
C734 C735 1.405 . S
C735 H724 0.930 . S
C735 C734 1.405 . S
C735 C736 1.364 . S
C736 C735 1.364 . S
C736 C737 1.400 . S
C737 H725 0.931 . S
C737 C732 1.408 . S
C737 C736 1.400 . S
H738 C744 0.930 . S
H739 C747 0.931 . S
H740 C749 0.931 . S
H741 C751 0.930 . S
H742 C753 0.930 . S
H743 C755 0.931 . S
C744 H738 0.930 . S
C744 C745 1.380 . S
C744 C746 1.394 . S
C745 C744 1.380 . S
C745 C749 1.382 . S
C746 C744 1.394 . S
C746 C747 1.400 . S
C747 H739 0.931 . S
C747 C746 1.400 . S
C747 C748 1.375 . S
C748 C747 1.375 . S
C748 C749 1.415 . S
C748 C750 1.501 . S
C749 H740 0.931 . S
C749 C745 1.382 . S
C749 C748 1.415 . S
C750 C748 1.501 . S
C750 C751 1.384 . S
C750 C755 1.408 . S
C751 H741 0.930 . S
C751 C750 1.384 . S
C751 C752 1.389 . S
C752 C751 1.389 . S
C752 C753 1.405 . S
C753 H742 0.930 . S
C753 C752 1.405 . S
C753 C754 1.364 . S
C754 C753 1.364 . S
C754 C755 1.400 . S
C755 H743 0.931 . S
C755 C750 1.408 . S
C755 C754 1.400 . S
H756 C762 0.930 . S
H757 C765 0.931 . S
H758 C767 0.931 . S
H759 C769 0.930 . S
H760 C771 0.930 . S
H761 C773 0.931 . S
C762 H756 0.930 . S
C762 C763 1.380 . S
C762 C764 1.394 . S
C763 C762 1.380 . S
C763 C767 1.382 . S
C764 C762 1.394 . S
C764 C765 1.400 . S
C765 H757 0.931 . S
C765 C764 1.400 . S
C765 C766 1.375 . S
C766 C765 1.375 . S
C766 C767 1.415 . S
C766 C768 1.501 . S
C767 H758 0.931 . S
C767 C763 1.382 . S
C767 C766 1.415 . S
C768 C766 1.501 . S
C768 C769 1.384 . S
C768 C773 1.408 . S
C769 H759 0.930 . S
C769 C768 1.384 . S
C769 C770 1.389 . S
C770 C769 1.389 . S
C770 C771 1.405 . S
C771 H760 0.930 . S
C771 C770 1.405 . S
C771 C772 1.364 . S
C772 C771 1.364 . S
C772 C773 1.400 . S
C773 H761 0.931 . S
C773 C768 1.408 . S
C773 C772 1.400 . S
H774 C780 0.930 . S
H775 C783 0.931 . S
H776 C785 0.931 . S
H777 C787 0.930 . S
H778 C789 0.930 . S
H779 C791 0.931 . S
C780 H774 0.930 . S
C780 C781 1.380 . S
C780 C782 1.394 . S
C781 C780 1.380 . S
C781 C785 1.382 . S
C782 C780 1.394 . S
C782 C783 1.400 . S
C783 H775 0.931 . S
C783 C782 1.400 . S
C783 C784 1.375 . S
C784 C783 1.375 . S
C784 C785 1.415 . S
C784 C786 1.501 . S
C785 H776 0.931 . S
C785 C781 1.382 . S
C785 C784 1.415 . S
C786 C784 1.501 . S
C786 C787 1.384 . S
C786 C791 1.408 . S
C787 H777 0.930 . S
C787 C786 1.384 . S
C787 C788 1.389 . S
C788 C787 1.389 . S
C788 C789 1.405 . S
C789 H778 0.930 . S
C789 C788 1.405 . S
C789 C790 1.364 . S
C790 C789 1.364 . S
C790 C791 1.400 . S
C791 H779 0.931 . S
C791 C786 1.408 . S
C791 C790 1.400 . S
H792 C798 0.930 . S
H793 C801 0.931 . S
H794 C803 0.931 . S
H795 C805 0.930 . S
H796 C807 0.930 . S
H797 C809 0.931 . S
C798 H792 0.930 . S
C798 C799 1.380 . S
C798 C800 1.394 . S
C799 C798 1.380 . S
C799 C803 1.382 . S
C800 C798 1.394 . S
C800 C801 1.400 . S
C801 H793 0.931 . S
C801 C800 1.400 . S
C801 C802 1.375 . S
C802 C801 1.375 . S
C802 C803 1.415 . S
C802 C804 1.501 . S
C803 H794 0.931 . S
C803 C799 1.382 . S
C803 C802 1.415 . S
C804 C802 1.501 . S
C804 C805 1.384 . S
C804 C809 1.408 . S
C805 H795 0.930 . S
C805 C804 1.384 . S
C805 C806 1.389 . S
C806 C805 1.389 . S
C806 C807 1.405 . S
C807 H796 0.930 . S
C807 C806 1.405 . S
C807 C808 1.364 . S
C808 C807 1.364 . S
C808 C809 1.400 . S
C809 H797 0.931 . S
C809 C804 1.408 . S
C809 C808 1.400 . S
H810 C816 0.916 . S
H811 C819 0.931 . S
H812 C821 0.931 . S
H813 C823 0.930 . S
H814 C825 0.930 . S
H815 C827 0.940 1_655 S
C816 H810 0.916 . S
C816 C817 1.392 . S
C816 C818 1.397 1_655 S
C817 C816 1.392 . S
C817 C821 1.382 . S
C818 C816 1.397 1_455 S
C818 C819 1.400 . S
C819 H811 0.931 . S
C819 C818 1.400 . S
C819 C820 1.375 . S
C820 C819 1.375 . S
C820 C821 1.415 1_455 S
C820 C822 1.501 . S
C821 H812 0.931 . S
C821 C817 1.382 . S
C821 C820 1.415 1_655 S
C822 C820 1.501 . S
C822 C823 1.384 . S
C822 C827 1.420 . S
C823 H813 0.930 . S
C823 C822 1.384 . S
C823 C824 1.389 . S
C824 C823 1.389 . S
C824 C825 1.405 . S
C825 H814 0.930 . S
C825 C824 1.405 . S
C825 C826 1.359 . S
C826 C825 1.359 . S
C826 C827 1.396 . S
C827 H815 0.940 1_455 S
C827 C822 1.420 . S
C827 C826 1.396 . S
H828 C834 0.930 . S
H829 C837 0.931 . S
H830 C839 0.931 . S
H831 C841 0.930 . S
H832 C843 0.930 . S
H833 C845 0.931 . S
C834 H828 0.930 . S
C834 C835 1.380 . S
C834 C836 1.394 . S
C835 C834 1.380 . S
C835 C839 1.382 . S
C836 C834 1.394 . S
C836 C837 1.400 . S
C837 H829 0.931 . S
C837 C836 1.400 . S
C837 C838 1.375 . S
C838 C837 1.375 . S
C838 C839 1.415 . S
C838 C840 1.501 . S
C839 H830 0.931 . S
C839 C835 1.382 . S
C839 C838 1.415 . S
C840 C838 1.501 . S
C840 C841 1.384 . S
C840 C845 1.408 . S
C841 H831 0.930 . S
C841 C840 1.384 . S
C841 C842 1.389 . S
C842 C841 1.389 . S
C842 C843 1.405 . S
C843 H832 0.930 . S
C843 C842 1.405 . S
C843 C844 1.364 . S
C844 C843 1.364 . S
C844 C845 1.400 . S
C845 H833 0.931 . S
C845 C840 1.408 . S
C845 C844 1.400 . S
H846 C852 0.941 . S
H847 C855 0.931 . S
H848 C857 0.931 . S
H849 C859 0.930 . S
H850 C861 0.930 . S
H851 C863 0.921 1_545 S
C852 H846 0.941 . S
C852 C853 1.377 . S
C852 C854 1.386 1_545 S
C853 C852 1.377 . S
C853 C857 1.382 . S
C854 C852 1.386 1_565 S
C854 C855 1.400 . S
C855 H847 0.931 . S
C855 C854 1.400 . S
C855 C856 1.375 . S
C856 C855 1.375 . S
C856 C857 1.415 1_565 S
C856 C858 1.501 . S
C857 H848 0.931 . S
C857 C853 1.382 . S
C857 C856 1.415 1_545 S
C858 C856 1.501 . S
C858 C859 1.384 . S
C858 C863 1.400 . S
C859 H849 0.930 . S
C859 C858 1.384 . S
C859 C860 1.389 . S
C860 C859 1.389 . S
C860 C861 1.405 . S
C861 H850 0.930 . S
C861 C860 1.405 . S
C861 C862 1.373 . S
C862 C861 1.373 . S
C862 C863 1.407 . S
C863 H851 0.921 1_565 S
C863 C858 1.400 . S
C863 C862 1.407 . S
H864 C870 0.912 . S
H865 C873 0.931 . S
H866 C875 0.928 1_545 S
H867 C877 0.930 . S
H868 C879 0.930 . S
H869 C881 0.931 . S
C870 H864 0.912 . S
C870 C871 1.383 . S
C870 C872 1.414 1_545 S
C871 C870 1.383 . S
C871 C875 1.401 1_545 S
C872 C870 1.414 1_565 S
C872 C873 1.379 . S
C873 H865 0.931 . S
C873 C872 1.379 . S
C873 C874 1.375 . S
C874 C873 1.375 . S
C874 C875 1.413 . S
C874 C876 1.501 . S
C875 H866 0.928 1_565 S
C875 C871 1.401 1_565 S
C875 C874 1.413 . S
C876 C874 1.501 . S
C876 C877 1.384 . S
C876 C881 1.408 1_565 S
C877 H867 0.930 . S
C877 C876 1.384 . S
C877 C878 1.389 . S
C878 C877 1.389 . S
C878 C879 1.405 . S
C879 H868 0.930 . S
C879 C878 1.405 . S
C879 C880 1.364 1_565 S
C880 C879 1.364 1_545 S
C880 C881 1.400 . S
C881 H869 0.931 . S
C881 C876 1.408 1_545 S
C881 C880 1.400 . S
H882 C888 0.947 . S
H883 C891 0.931 . S
H884 C893 0.936 . S
H885 C895 0.930 . S
H886 C897 0.967 . S
H887 C899 0.931 . S
C888 H882 0.947 . S
C888 C889 1.376 . S
C888 C890 1.371 1_655 S
C889 C888 1.376 . S
C889 C893 1.364 1_655 S
C890 C888 1.371 1_455 S
C890 C891 1.431 . S
C891 H883 0.931 . S
C891 C890 1.431 . S
C891 C892 1.375 . S
C892 C891 1.375 . S
C892 C893 1.422 . S
C892 C894 1.501 . S
C893 H884 0.936 . S
C893 C889 1.364 1_455 S
C893 C892 1.422 . S
C894 C892 1.501 . S
C894 C895 1.384 . S
C894 C899 1.408 1_455 S
C895 H885 0.930 . S
C895 C894 1.384 . S
C895 C896 1.389 . S
C896 C895 1.389 . S
C896 C897 1.398 . S
C897 H886 0.967 . S
C897 C896 1.398 . S
C897 C898 1.339 1_455 S
C898 C897 1.339 1_655 S
C898 C899 1.400 . S
C899 H887 0.931 . S
C899 C894 1.408 1_655 S
C899 C898 1.400 . S
H900 C906 0.930 . S
H901 C909 0.931 . S
H902 C911 0.931 . S
H903 C913 0.930 . S
H904 C915 0.930 . S
H905 C917 0.931 . S
C906 H900 0.930 . S
C906 C907 1.380 . S
C906 C908 1.394 . S
C907 C906 1.380 . S
C907 C911 1.382 . S
C908 C906 1.394 . S
C908 C909 1.400 . S
C909 H901 0.931 . S
C909 C908 1.400 . S
C909 C910 1.375 . S
C910 C909 1.375 . S
C910 C911 1.415 . S
C910 C912 1.501 . S
C911 H902 0.931 . S
C911 C907 1.382 . S
C911 C910 1.415 . S
C912 C910 1.501 . S
C912 C913 1.384 . S
C912 C917 1.408 . S
C913 H903 0.930 . S
C913 C912 1.384 . S
C913 C914 1.389 . S
C914 C913 1.389 . S
C914 C915 1.405 . S
C915 H904 0.930 . S
C915 C914 1.405 . S
C915 C916 1.364 . S
C916 C915 1.364 . S
C916 C917 1.400 . S
C917 H905 0.931 . S
C917 C912 1.408 . S
C917 C916 1.400 . S
H918 C924 0.930 . S
H919 C927 0.931 . S
H920 C929 0.931 . S
H921 C931 0.930 . S
H922 C933 0.930 . S
H923 C935 0.931 . S
C924 H918 0.930 . S
C924 C925 1.380 . S
C924 C926 1.394 . S
C925 C924 1.380 . S
C925 C929 1.382 . S
C926 C924 1.394 . S
C926 C927 1.400 . S
C927 H919 0.931 . S
C927 C926 1.400 . S
C927 C928 1.375 . S
C928 C927 1.375 . S
C928 C929 1.415 . S
C928 C930 1.501 . S
C929 H920 0.931 . S
C929 C925 1.382 . S
C929 C928 1.415 . S
C930 C928 1.501 . S
C930 C931 1.384 . S
C930 C935 1.408 . S
C931 H921 0.930 . S
C931 C930 1.384 . S
C931 C932 1.389 . S
C932 C931 1.389 . S
C932 C933 1.405 . S
C933 H922 0.930 . S
C933 C932 1.405 . S
C933 C934 1.364 . S
C934 C933 1.364 . S
C934 C935 1.400 . S
C935 H923 0.931 . S
C935 C930 1.408 . S
C935 C934 1.400 . S
H936 C942 0.930 . S
H937 C945 0.931 . S
H938 C947 0.931 . S
H939 C949 0.930 . S
H940 C951 0.930 . S
H941 C953 0.931 . S
C942 H936 0.930 . S
C942 C943 1.380 . S
C942 C944 1.394 . S
C943 C942 1.380 . S
C943 C947 1.382 . S
C944 C942 1.394 . S
C944 C945 1.400 . S
C945 H937 0.931 . S
C945 C944 1.400 . S
C945 C946 1.375 . S
C946 C945 1.375 . S
C946 C947 1.415 . S
C946 C948 1.501 . S
C947 H938 0.931 . S
C947 C943 1.382 . S
C947 C946 1.415 . S
C948 C946 1.501 . S
C948 C949 1.384 . S
C948 C953 1.408 . S
C949 H939 0.930 . S
C949 C948 1.384 . S
C949 C950 1.389 . S
C950 C949 1.389 . S
C950 C951 1.405 . S
C951 H940 0.930 . S
C951 C950 1.405 . S
C951 C952 1.364 . S
C952 C951 1.364 . S
C952 C953 1.400 . S
C953 H941 0.931 . S
C953 C948 1.408 . S
C953 C952 1.400 . S
H954 C960 0.930 . S
H955 C963 0.931 . S
H956 C965 0.931 . S
H957 C967 0.930 . S
H958 C969 0.930 . S
H959 C971 0.931 . S
C960 H954 0.930 . S
C960 C961 1.380 . S
C960 C962 1.394 . S
C961 C960 1.380 . S
C961 C965 1.382 . S
C962 C960 1.394 . S
C962 C963 1.400 . S
C963 H955 0.931 . S
C963 C962 1.400 . S
C963 C964 1.375 . S
C964 C963 1.375 . S
C964 C965 1.415 . S
C964 C966 1.501 . S
C965 H956 0.931 . S
C965 C961 1.382 . S
C965 C964 1.415 . S
C966 C964 1.501 . S
C966 C967 1.384 . S
C966 C971 1.408 . S
C967 H957 0.930 . S
C967 C966 1.384 . S
C967 C968 1.389 . S
C968 C967 1.389 . S
C968 C969 1.405 . S
C969 H958 0.930 . S
C969 C968 1.405 . S
C969 C970 1.364 . S
C970 C969 1.364 . S
C970 C971 1.400 . S
C971 H959 0.931 . S
C971 C966 1.408 . S
C971 C970 1.400 . S
H972 C980 0.950 . S
H973 C985 0.950 . S
H974 C982 0.950 . S
H975 C984 0.950 . S
H976 C986 0.950 . S
H977 C988 0.950 . S
H978 C990 0.950 . S
H979 C991 0.950 . S
C980 H972 0.950 . S
C980 C981 1.386 . S
C980 C982 1.391 . S
C981 C980 1.386 . S
C981 C985 1.393 1_655 S
C982 H974 0.950 . S
C982 C980 1.391 . S
C982 C983 1.400 . S
C983 C982 1.400 . S
C983 C984 1.398 1_655 S
C983 C989 1.491 . S
C984 H975 0.950 . S
C984 C983 1.398 1_455 S
C984 C985 1.391 . S
C985 H973 0.950 . S
C985 C981 1.393 1_455 S
C985 C984 1.391 . S
C986 H976 0.950 . S
C986 C987 1.386 1_455 S
C986 C988 1.391 . S
C987 C986 1.386 1_655 S
C987 C991 1.393 . S
C988 H977 0.950 . S
C988 C986 1.391 . S
C988 C989 1.400 1_455 S
C989 C983 1.491 . S
C989 C988 1.400 1_655 S
C989 C990 1.398 . S
C990 H978 0.950 . S
C990 C989 1.398 . S
C990 C991 1.391 . S
C991 H979 0.950 . S
C991 C987 1.393 . S
C991 C990 1.391 . S
H992 C1000 0.950 . S
H993 C1005 0.950 . S
H994 C1002 0.950 . S
H995 C1004 0.950 . S
H996 C1006 0.950 . S
H997 C1008 0.950 . S
H998 C1010 0.950 . S
H999 C1011 0.950 . S
C1000 H992 0.950 . S
C1000 C1001 1.386 . S
C1000 C1002 1.391 . S
C1001 C1000 1.386 . S
C1001 C1005 1.393 . S
C1002 H994 0.950 . S
C1002 C1000 1.391 . S
C1002 C1003 1.400 . S
C1003 C1002 1.400 . S
C1003 C1004 1.398 . S
C1003 C1009 1.491 . S
C1004 H995 0.950 . S
C1004 C1003 1.398 . S
C1004 C1005 1.391 . S
C1005 H993 0.950 . S
C1005 C1001 1.393 . S
C1005 C1004 1.391 . S
C1006 H996 0.950 . S
C1006 C1007 1.386 . S
C1006 C1008 1.391 . S
C1007 C1006 1.386 . S
C1007 C1011 1.393 . S
C1008 H997 0.950 . S
C1008 C1006 1.391 . S
C1008 C1009 1.400 . S
C1009 C1003 1.491 . S
C1009 C1008 1.400 . S
C1009 C1010 1.398 . S
C1010 H998 0.950 . S
C1010 C1009 1.398 . S
C1010 C1011 1.391 . S
C1011 H999 0.950 . S
C1011 C1007 1.393 . S
C1011 C1010 1.391 . S
H1012 C1020 0.950 . S
H1013 C1025 0.950 . S
H1014 C1022 0.950 . S
H1015 C1024 0.950 . S
H1016 C1026 0.950 . S
H1017 C1028 0.950 . S
H1018 C1030 0.950 . S
H1019 C1031 0.950 . S
C1020 H1012 0.950 . S
C1020 C1021 1.386 . S
C1020 C1022 1.391 . S
C1021 C1020 1.386 . S
C1021 C1025 1.393 1_545 S
C1022 H1014 0.950 . S
C1022 C1020 1.391 . S
C1022 C1023 1.400 . S
C1023 C1022 1.400 . S
C1023 C1024 1.398 1_545 S
C1023 C1029 1.491 . S
C1024 H1015 0.950 . S
C1024 C1023 1.398 1_565 S
C1024 C1025 1.391 . S
C1025 H1013 0.950 . S
C1025 C1021 1.393 1_565 S
C1025 C1024 1.391 . S
C1026 H1016 0.950 . S
C1026 C1027 1.386 1_565 S
C1026 C1028 1.391 . S
C1027 C1026 1.386 1_545 S
C1027 C1031 1.393 . S
C1028 H1017 0.950 . S
C1028 C1026 1.391 . S
C1028 C1029 1.400 1_565 S
C1029 C1023 1.491 . S
C1029 C1028 1.400 1_545 S
C1029 C1030 1.398 . S
C1030 H1018 0.950 . S
C1030 C1029 1.398 . S
C1030 C1031 1.391 . S
C1031 H1019 0.950 . S
C1031 C1027 1.393 . S
C1031 C1030 1.391 . S
H1032 C1040 0.954 . S
H1033 C1045 0.950 . S
H1034 C1042 0.947 1_545 S
H1035 C1044 0.950 . S
H1036 C1046 0.950 . S
H1037 C1048 0.950 . S
H1038 C1050 0.950 . S
H1039 C1051 0.963 . S
C1040 H1032 0.954 . S
C1040 C1041 1.384 1_545 S
C1040 C1042 1.381 1_545 S
C1041 C1040 1.384 1_565 S
C1041 C1045 1.393 . S
C1042 H1034 0.947 1_565 S
C1042 C1040 1.381 1_565 S
C1042 C1043 1.411 . S
C1043 C1042 1.411 . S
C1043 C1044 1.398 . S
C1043 C1049 1.491 . S
C1044 H1035 0.950 . S
C1044 C1043 1.398 . S
C1044 C1045 1.391 . S
C1045 H1033 0.950 . S
C1045 C1041 1.393 . S
C1045 C1044 1.391 . S
C1046 H1036 0.950 . S
C1046 C1047 1.386 . S
C1046 C1048 1.391 . S
C1047 C1046 1.386 . S
C1047 C1051 1.393 . S
C1048 H1037 0.950 . S
C1048 C1046 1.391 . S
C1048 C1049 1.400 . S
C1049 C1043 1.491 . S
C1049 C1048 1.400 . S
C1049 C1050 1.398 . S
C1050 H1038 0.950 . S
C1050 C1049 1.398 . S
C1050 C1051 1.391 . S
C1051 H1039 0.963 . S
C1051 C1047 1.393 . S
C1051 C1050 1.391 . S
H1052 C1060 0.950 . S
H1053 C1065 0.950 . S
H1054 C1062 0.979 . S
H1055 C1064 0.950 . S
H1056 C1066 0.950 . S
H1057 C1068 0.950 . S
H1058 C1070 0.950 1_655 S
H1059 C1071 0.950 1_655 S
C1060 H1052 0.950 . S
C1060 C1061 1.386 . S
C1060 C1062 1.391 . S
C1061 C1060 1.386 . S
C1061 C1065 1.393 . S
C1062 H1054 0.979 . S
C1062 C1060 1.391 . S
C1062 C1063 1.400 . S
C1063 C1062 1.400 . S
C1063 C1064 1.398 . S
C1063 C1069 1.491 . S
C1064 H1055 0.950 . S
C1064 C1063 1.398 . S
C1064 C1065 1.391 . S
C1065 H1053 0.950 . S
C1065 C1061 1.393 . S
C1065 C1064 1.391 . S
C1066 H1056 0.950 . S
C1066 C1067 1.386 . S
C1066 C1068 1.391 . S
C1067 C1066 1.386 . S
C1067 C1071 1.393 . S
C1068 H1057 0.950 . S
C1068 C1066 1.391 . S
C1068 C1069 1.400 . S
C1069 C1063 1.491 . S
C1069 C1068 1.400 . S
C1069 C1070 1.398 . S
C1070 H1058 0.950 1_455 S
C1070 C1069 1.398 . S
C1070 C1071 1.391 . S
C1071 H1059 0.950 1_455 S
C1071 C1067 1.393 . S
C1071 C1070 1.391 . S
H1072 C1080 0.950 . S
H1073 C1085 0.950 . S
H1074 C1082 0.950 . S
H1075 C1084 0.950 . S
H1076 C1086 0.950 . S
H1077 C1088 0.950 . S
H1078 C1090 0.950 . S
H1079 C1091 0.950 . S
C1080 H1072 0.950 . S
C1080 C1081 1.386 . S
C1080 C1082 1.391 . S
C1081 C1080 1.386 . S
C1081 C1085 1.393 . S
C1082 H1074 0.950 . S
C1082 C1080 1.391 . S
C1082 C1083 1.400 . S
C1083 C1082 1.400 . S
C1083 C1084 1.398 . S
C1083 C1089 1.491 . S
C1084 H1075 0.950 . S
C1084 C1083 1.398 . S
C1084 C1085 1.391 . S
C1085 H1073 0.950 . S
C1085 C1081 1.393 . S
C1085 C1084 1.391 . S
C1086 H1076 0.950 . S
C1086 C1087 1.386 . S
C1086 C1088 1.391 . S
C1087 C1086 1.386 . S
C1087 C1091 1.393 . S
C1088 H1077 0.950 . S
C1088 C1086 1.391 . S
C1088 C1089 1.400 . S
C1089 C1083 1.491 . S
C1089 C1088 1.400 . S
C1089 C1090 1.398 . S
C1090 H1078 0.950 . S
C1090 C1089 1.398 . S
C1090 C1091 1.391 . S
C1091 H1079 0.950 . S
C1091 C1087 1.393 . S
C1091 C1090 1.391 . S
H1092 C1100 0.950 . S
H1093 C1105 0.950 . S
H1094 C1102 0.950 . S
H1095 C1104 0.950 . S
H1096 C1106 0.950 . S
H1097 C1108 0.950 . S
H1098 C1110 0.950 . S
H1099 C1111 0.950 . S
C1100 H1092 0.950 . S
C1100 C1101 1.386 . S
C1100 C1102 1.391 . S
C1101 C1100 1.386 . S
C1101 C1105 1.393 . S
C1102 H1094 0.950 . S
C1102 C1100 1.391 . S
C1102 C1103 1.400 . S
C1103 C1102 1.400 . S
C1103 C1104 1.398 . S
C1103 C1109 1.491 . S
C1104 H1095 0.950 . S
C1104 C1103 1.398 . S
C1104 C1105 1.391 . S
C1105 H1093 0.950 . S
C1105 C1101 1.393 . S
C1105 C1104 1.391 . S
C1106 H1096 0.950 . S
C1106 C1107 1.361 . S
C1106 C1108 1.391 . S
C1107 C1106 1.361 . S
C1107 C1111 1.399 . S
C1108 H1097 0.950 . S
C1108 C1106 1.391 . S
C1108 C1109 1.400 . S
C1109 C1103 1.491 . S
C1109 C1108 1.400 . S
C1109 C1110 1.398 . S
C1110 H1098 0.950 . S
C1110 C1109 1.398 . S
C1110 C1111 1.391 . S
C1111 H1099 0.950 . S
C1111 C1107 1.399 . S
C1111 C1110 1.391 . S
H1112 C1120 0.950 . S
H1113 C1125 0.950 . S
H1114 C1122 0.950 . S
H1115 C1124 0.950 . S
H1116 C1126 0.950 . S
H1117 C1128 0.950 . S
H1118 C1130 0.950 . S
H1119 C1131 0.950 . S
C1120 H1112 0.950 . S
C1120 C1121 1.386 . S
C1120 C1122 1.391 . S
C1121 C1120 1.386 . S
C1121 C1125 1.393 . S
C1122 H1114 0.950 . S
C1122 C1120 1.391 . S
C1122 C1123 1.400 . S
C1123 C1122 1.400 . S
C1123 C1124 1.398 . S
C1123 C1129 1.491 . S
C1124 H1115 0.950 . S
C1124 C1123 1.398 . S
C1124 C1125 1.391 . S
C1125 H1113 0.950 . S
C1125 C1121 1.393 . S
C1125 C1124 1.391 . S
C1126 H1116 0.950 . S
C1126 C1127 1.386 . S
C1126 C1128 1.391 . S
C1127 C1126 1.386 . S
C1127 C1131 1.393 . S
C1128 H1117 0.950 . S
C1128 C1126 1.391 . S
C1128 C1129 1.400 . S
C1129 C1123 1.491 . S
C1129 C1128 1.400 . S
C1129 C1130 1.398 . S
C1130 H1118 0.950 . S
C1130 C1129 1.398 . S
C1130 C1131 1.391 . S
C1131 H1119 0.950 . S
C1131 C1127 1.393 . S
C1131 C1130 1.391 . S
H1132 C1140 0.950 . S
H1133 C1145 0.950 . S
H1134 C1142 0.950 . S
H1135 C1144 0.950 . S
H1136 C1146 0.950 . S
H1137 C1148 0.950 . S
H1138 C1150 0.950 . S
H1139 C1151 0.950 . S
C1140 H1132 0.950 . S
C1140 C1141 1.386 1_545 S
C1140 C1142 1.391 . S
C1141 C1140 1.386 1_565 S
C1141 C1145 1.393 . S
C1142 H1134 0.950 . S
C1142 C1140 1.391 . S
C1142 C1143 1.384 1_545 S
C1143 C1142 1.384 1_565 S
C1143 C1144 1.434 . S
C1143 C1149 1.494 . S
C1144 H1135 0.950 . S
C1144 C1143 1.434 . S
C1144 C1145 1.391 . S
C1145 H1133 0.950 . S
C1145 C1141 1.393 . S
C1145 C1144 1.391 . S
C1146 H1136 0.950 . S
C1146 C1147 1.385 . S
C1146 C1148 1.391 . S
C1147 C1146 1.385 . S
C1147 C1151 1.393 1_565 S
C1148 H1137 0.950 . S
C1148 C1146 1.391 . S
C1148 C1149 1.421 . S
C1149 C1143 1.494 . S
C1149 C1148 1.421 . S
C1149 C1150 1.357 1_565 S
C1150 H1138 0.950 . S
C1150 C1149 1.357 1_545 S
C1150 C1151 1.391 . S
C1151 H1139 0.950 . S
C1151 C1147 1.393 1_545 S
C1151 C1150 1.391 . S
H1152 C1160 0.950 . S
H1153 C1165 0.950 . S
H1154 C1162 0.950 . S
H1155 C1164 0.950 . S
H1156 C1166 0.950 . S
H1157 C1168 0.950 . S
H1158 C1170 0.950 . S
H1159 C1171 0.950 . S
C1160 H1152 0.950 . S
C1160 C1161 1.386 1_565 S
C1160 C1162 1.391 . S
C1161 C1160 1.386 1_545 S
C1161 C1165 1.393 . S
C1162 H1154 0.950 . S
C1162 C1160 1.391 . S
C1162 C1163 1.400 1_565 S
C1163 C1162 1.400 1_545 S
C1163 C1164 1.398 . S
C1163 C1169 1.491 . S
C1164 H1155 0.950 . S
C1164 C1163 1.398 . S
C1164 C1165 1.391 . S
C1165 H1153 0.950 . S
C1165 C1161 1.393 . S
C1165 C1164 1.391 . S
C1166 H1156 0.950 . S
C1166 C1167 1.392 . S
C1166 C1168 1.391 . S
C1167 C1166 1.392 . S
C1167 C1171 1.377 1_545 S
C1168 H1157 0.950 . S
C1168 C1166 1.391 . S
C1168 C1169 1.400 . S
C1169 C1163 1.491 . S
C1169 C1168 1.400 . S
C1169 C1170 1.398 1_545 S
C1170 H1158 0.950 . S
C1170 C1169 1.398 1_565 S
C1170 C1171 1.391 . S
C1171 H1159 0.950 . S
C1171 C1167 1.377 1_565 S
C1171 C1170 1.391 . S
H1172 C1180 0.950 . S
H1173 C1185 0.950 . S
H1174 C1182 0.950 . S
H1175 C1184 0.950 . S
H1176 C1186 0.950 . S
H1177 C1188 0.950 . S
H1178 C1190 0.950 . S
H1179 C1191 0.950 . S
C1180 H1172 0.950 . S
C1180 C1181 1.386 . S
C1180 C1182 1.391 . S
C1181 C1180 1.386 . S
C1181 C1185 1.393 1_655 S
C1182 H1174 0.950 . S
C1182 C1180 1.391 . S
C1182 C1183 1.429 . S
C1183 C1182 1.429 . S
C1183 C1184 1.385 1_655 S
C1183 C1189 1.487 . S
C1184 H1175 0.950 . S
C1184 C1183 1.385 1_455 S
C1184 C1185 1.391 . S
C1185 H1173 0.950 . S
C1185 C1181 1.393 1_455 S
C1185 C1184 1.391 . S
C1186 H1176 0.950 . S
C1186 C1187 1.391 . S
C1186 C1188 1.391 . S
C1187 C1186 1.391 . S
C1187 C1191 1.381 1_455 S
C1188 H1177 0.950 . S
C1188 C1186 1.391 . S
C1188 C1189 1.379 1_455 S
C1189 C1183 1.487 . S
C1189 C1188 1.379 1_655 S
C1189 C1190 1.409 . S
C1190 H1178 0.950 . S
C1190 C1189 1.409 . S
C1190 C1191 1.391 . S
C1191 H1179 0.950 . S
C1191 C1187 1.381 1_655 S
C1191 C1190 1.391 . S
H1192 C1200 0.950 . S
H1193 C1205 0.950 . S
H1194 C1202 0.950 . S
H1195 C1204 0.950 . S
H1196 C1206 0.950 . S
H1197 C1208 0.950 . S
H1198 C1210 0.950 . S
H1199 C1211 0.950 . S
C1200 H1192 0.950 . S
C1200 C1201 1.386 . S
C1200 C1202 1.391 . S
C1201 C1200 1.386 . S
C1201 C1205 1.393 . S
C1202 H1194 0.950 . S
C1202 C1200 1.391 . S
C1202 C1203 1.400 . S
C1203 C1202 1.400 . S
C1203 C1204 1.398 . S
C1203 C1209 1.491 . S
C1204 H1195 0.950 . S
C1204 C1203 1.398 . S
C1204 C1205 1.391 . S
C1205 H1193 0.950 . S
C1205 C1201 1.393 . S
C1205 C1204 1.391 . S
C1206 H1196 0.950 . S
C1206 C1207 1.386 . S
C1206 C1208 1.391 . S
C1207 C1206 1.386 . S
C1207 C1211 1.393 . S
C1208 H1197 0.950 . S
C1208 C1206 1.391 . S
C1208 C1209 1.400 . S
C1209 C1203 1.491 . S
C1209 C1208 1.400 . S
C1209 C1210 1.398 . S
C1210 H1198 0.950 . S
C1210 C1209 1.398 . S
C1210 C1211 1.391 . S
C1211 H1199 0.950 . S
C1211 C1207 1.393 . S
C1211 C1210 1.391 . S
H1212 C1220 0.950 . S
H1213 C1225 0.950 . S
H1214 C1222 0.950 . S
H1215 C1224 0.950 . S
H1216 C1226 0.950 . S
H1217 C1228 0.950 . S
H1218 C1230 0.950 . S
H1219 C1231 0.950 . S
C1220 H1212 0.950 . S
C1220 C1221 1.386 . S
C1220 C1222 1.391 . S
C1221 C1220 1.386 . S
C1221 C1225 1.393 . S
C1222 H1214 0.950 . S
C1222 C1220 1.391 . S
C1222 C1223 1.400 . S
C1223 C1222 1.400 . S
C1223 C1224 1.398 . S
C1223 C1229 1.491 . S
C1224 H1215 0.950 . S
C1224 C1223 1.398 . S
C1224 C1225 1.391 . S
C1225 H1213 0.950 . S
C1225 C1221 1.393 . S
C1225 C1224 1.391 . S
C1226 H1216 0.950 . S
C1226 C1227 1.386 . S
C1226 C1228 1.391 . S
C1227 C1226 1.386 . S
C1227 C1231 1.393 . S
C1228 H1217 0.950 . S
C1228 C1226 1.391 . S
C1228 C1229 1.400 . S
C1229 C1223 1.491 . S
C1229 C1228 1.400 . S
C1229 C1230 1.398 . S
C1230 H1218 0.950 . S
C1230 C1229 1.398 . S
C1230 C1231 1.391 . S
C1231 H1219 0.950 . S
C1231 C1227 1.393 . S
C1231 C1230 1.391 . S
H1232 C1240 0.950 . S
H1233 C1245 0.950 . S
H1234 C1242 0.950 . S
H1235 C1244 0.950 . S
H1236 C1246 0.950 . S
H1237 C1248 0.950 . S
H1238 C1250 0.950 . S
H1239 C1251 0.950 . S
C1240 H1232 0.950 . S
C1240 C1241 1.386 . S
C1240 C1242 1.391 . S
C1241 C1240 1.386 . S
C1241 C1245 1.393 . S
C1242 H1234 0.950 . S
C1242 C1240 1.391 . S
C1242 C1243 1.400 . S
C1243 C1242 1.400 . S
C1243 C1244 1.398 . S
C1243 C1249 1.491 . S
C1244 H1235 0.950 . S
C1244 C1243 1.398 . S
C1244 C1245 1.391 . S
C1245 H1233 0.950 . S
C1245 C1241 1.393 . S
C1245 C1244 1.391 . S
C1246 H1236 0.950 . S
C1246 C1247 1.386 . S
C1246 C1248 1.391 . S
C1247 C1246 1.386 . S
C1247 C1251 1.393 . S
C1248 H1237 0.950 . S
C1248 C1246 1.391 . S
C1248 C1249 1.400 . S
C1249 C1243 1.491 . S
C1249 C1248 1.400 . S
C1249 C1250 1.398 . S
C1250 H1238 0.950 . S
C1250 C1249 1.398 . S
C1250 C1251 1.391 . S
C1251 H1239 0.950 . S
C1251 C1247 1.393 . S
C1251 C1250 1.391 . S
H1252 C1260 0.950 . S
H1253 C1265 0.950 . S
H1254 C1262 0.950 . S
H1255 C1264 0.950 . S
H1256 C1266 0.950 . S
H1257 C1268 0.950 . S
H1258 C1270 0.950 . S
H1259 C1271 0.950 . S
C1260 H1252 0.950 . S
C1260 C1261 1.386 . S
C1260 C1262 1.391 . S
C1261 C1260 1.386 . S
C1261 C1265 1.393 . S
C1262 H1254 0.950 . S
C1262 C1260 1.391 . S
C1262 C1263 1.400 . S
C1263 C1262 1.400 . S
C1263 C1264 1.398 . S
C1263 C1269 1.491 . S
C1264 H1255 0.950 . S
C1264 C1263 1.398 . S
C1264 C1265 1.391 . S
C1265 H1253 0.950 . S
C1265 C1261 1.393 . S
C1265 C1264 1.391 . S
C1266 H1256 0.950 . S
C1266 C1267 1.386 . S
C1266 C1268 1.391 . S
C1267 C1266 1.386 . S
C1267 C1271 1.393 . S
C1268 H1257 0.950 . S
C1268 C1266 1.391 . S
C1268 C1269 1.400 . S
C1269 C1263 1.491 . S
C1269 C1268 1.400 . S
C1269 C1270 1.398 . S
C1270 H1258 0.950 . S
C1270 C1269 1.398 . S
C1270 C1271 1.391 . S
C1271 H1259 0.950 . S
C1271 C1267 1.393 . S
C1271 C1270 1.391 . S
H1272 C1280 0.950 . S
H1273 C1285 0.950 . S
H1274 C1282 0.950 . S
H1275 C1284 0.950 . S
H1276 C1286 0.950 . S
H1277 C1288 0.950 . S
H1278 C1290 0.950 . S
H1279 C1291 0.950 . S
C1280 H1272 0.950 . S
C1280 C1281 1.386 . S
C1280 C1282 1.391 . S
C1281 C1280 1.386 . S
C1281 C1285 1.393 . S
C1282 H1274 0.950 . S
C1282 C1280 1.391 . S
C1282 C1283 1.400 . S
C1283 C1282 1.400 . S
C1283 C1284 1.398 . S
C1283 C1289 1.491 . S
C1284 H1275 0.950 . S
C1284 C1283 1.398 . S
C1284 C1285 1.391 . S
C1285 H1273 0.950 . S
C1285 C1281 1.393 . S
C1285 C1284 1.391 . S
C1286 H1276 0.950 . S
C1286 C1287 1.386 . S
C1286 C1288 1.391 . S
C1287 C1286 1.386 . S
C1287 C1291 1.393 . S
C1288 H1277 0.950 . S
C1288 C1286 1.391 . S
C1288 C1289 1.400 . S
C1289 C1283 1.491 . S
C1289 C1288 1.400 . S
C1289 C1290 1.398 . S
C1290 H1278 0.950 . S
C1290 C1289 1.398 . S
C1290 C1291 1.391 . S
C1291 H1279 0.950 . S
C1291 C1287 1.393 . S
C1291 C1290 1.391 . S
H1292 C1300 0.950 . S
H1293 C1305 0.950 . S
H1294 C1302 0.950 . S
H1295 C1304 0.950 . S
H1296 C1306 0.950 . S
H1297 C1308 0.950 . S
H1298 C1310 0.950 . S
H1299 C1311 0.950 . S
C1300 H1292 0.950 . S
C1300 C1301 1.386 . S
C1300 C1302 1.391 . S
C1301 C1300 1.386 . S
C1301 C1305 1.393 . S
C1302 H1294 0.950 . S
C1302 C1300 1.391 . S
C1302 C1303 1.400 . S
C1303 C1302 1.400 . S
C1303 C1304 1.398 . S
C1303 C1309 1.491 . S
C1304 H1295 0.950 . S
C1304 C1303 1.398 . S
C1304 C1305 1.391 . S
C1305 H1293 0.950 . S
C1305 C1301 1.393 . S
C1305 C1304 1.391 . S
C1306 H1296 0.950 . S
C1306 C1307 1.386 . S
C1306 C1308 1.391 . S
C1307 C1306 1.386 . S
C1307 C1311 1.393 . S
C1308 H1297 0.950 . S
C1308 C1306 1.391 . S
C1308 C1309 1.400 . S
C1309 C1303 1.491 . S
C1309 C1308 1.400 . S
C1309 C1310 1.398 . S
C1310 H1298 0.950 . S
C1310 C1309 1.398 . S
C1310 C1311 1.391 . S
C1311 H1299 0.950 . S
C1311 C1307 1.393 . S
C1311 C1310 1.391 . S
H1312 C1320 0.950 . S
H1313 C1325 0.950 . S
H1314 C1322 0.950 . S
H1315 C1324 0.950 . S
H1316 C1326 0.950 . S
H1317 C1328 0.950 . S
H1318 C1330 0.950 . S
H1319 C1331 0.950 . S
C1320 H1312 0.950 . S
C1320 C1321 1.386 . S
C1320 C1322 1.391 . S
C1321 C1320 1.386 . S
C1321 C1325 1.393 . S
C1322 H1314 0.950 . S
C1322 C1320 1.391 . S
C1322 C1323 1.400 . S
C1323 C1322 1.400 . S
C1323 C1324 1.398 . S
C1323 C1329 1.491 . S
C1324 H1315 0.950 . S
C1324 C1323 1.398 . S
C1324 C1325 1.391 . S
C1325 H1313 0.950 . S
C1325 C1321 1.393 . S
C1325 C1324 1.391 . S
C1326 H1316 0.950 . S
C1326 C1327 1.386 . S
C1326 C1328 1.391 . S
C1327 C1326 1.386 . S
C1327 C1331 1.393 . S
C1328 H1317 0.950 . S
C1328 C1326 1.391 . S
C1328 C1329 1.400 . S
C1329 C1323 1.491 . S
C1329 C1328 1.400 . S
C1329 C1330 1.398 . S
C1330 H1318 0.950 . S
C1330 C1329 1.398 . S
C1330 C1331 1.391 . S
C1331 H1319 0.950 . S
C1331 C1327 1.393 . S
C1331 C1330 1.391 . S
H1332 C1340 0.950 . S
H1333 C1345 0.950 . S
H1334 C1342 0.950 . S
H1335 C1344 0.950 . S
H1336 C1346 0.950 . S
H1337 C1348 0.950 . S
H1338 C1350 0.950 . S
H1339 C1351 0.950 . S
C1340 H1332 0.950 . S
C1340 C1341 1.386 . S
C1340 C1342 1.391 . S
C1341 C1340 1.386 . S
C1341 C1345 1.393 . S
C1342 H1334 0.950 . S
C1342 C1340 1.391 . S
C1342 C1343 1.400 . S
C1343 C1342 1.400 . S
C1343 C1344 1.398 . S
C1343 C1349 1.491 . S
C1344 H1335 0.950 . S
C1344 C1343 1.398 . S
C1344 C1345 1.391 . S
C1345 H1333 0.950 . S
C1345 C1341 1.393 . S
C1345 C1344 1.391 . S
C1346 H1336 0.950 . S
C1346 C1347 1.386 . S
C1346 C1348 1.391 . S
C1347 C1346 1.386 . S
C1347 C1351 1.393 . S
C1348 H1337 0.950 . S
C1348 C1346 1.391 . S
C1348 C1349 1.400 . S
C1349 C1343 1.491 . S
C1349 C1348 1.400 . S
C1349 C1350 1.398 . S
C1350 H1338 0.950 . S
C1350 C1349 1.398 . S
C1350 C1351 1.391 . S
C1351 H1339 0.950 . S
C1351 C1347 1.393 . S
C1351 C1350 1.391 . S
H1352 C1360 0.950 . S
H1353 C1365 0.950 . S
H1354 C1362 0.950 . S
H1355 C1364 0.950 . S
H1356 C1366 0.950 . S
H1357 C1368 0.950 . S
H1358 C1370 0.950 . S
H1359 C1371 0.950 . S
C1360 H1352 0.950 . S
C1360 C1361 1.386 . S
C1360 C1362 1.391 . S
C1361 C1360 1.386 . S
C1361 C1365 1.393 . S
C1362 H1354 0.950 . S
C1362 C1360 1.391 . S
C1362 C1363 1.400 . S
C1363 C1362 1.400 . S
C1363 C1364 1.398 . S
C1363 C1369 1.491 . S
C1364 H1355 0.950 . S
C1364 C1363 1.398 . S
C1364 C1365 1.391 . S
C1365 H1353 0.950 . S
C1365 C1361 1.393 . S
C1365 C1364 1.391 . S
C1366 H1356 0.950 . S
C1366 C1367 1.386 . S
C1366 C1368 1.391 . S
C1367 C1366 1.386 . S
C1367 C1371 1.393 . S
C1368 H1357 0.950 . S
C1368 C1366 1.391 . S
C1368 C1369 1.400 . S
C1369 C1363 1.491 . S
C1369 C1368 1.400 . S
C1369 C1370 1.398 . S
C1370 H1358 0.950 . S
C1370 C1369 1.398 . S
C1370 C1371 1.391 . S
C1371 H1359 0.950 . S
C1371 C1367 1.393 . S
C1371 C1370 1.391 . S
H1372 C1380 0.950 . S
H1373 C1385 0.950 . S
H1374 C1382 0.950 . S
H1375 C1384 0.950 . S
H1376 C1386 0.950 . S
H1377 C1388 0.950 . S
H1378 C1390 0.950 . S
H1379 C1391 0.950 . S
C1380 H1372 0.950 . S
C1380 C1381 1.386 . S
C1380 C1382 1.391 . S
C1381 C1380 1.386 . S
C1381 C1385 1.393 . S
C1382 H1374 0.950 . S
C1382 C1380 1.391 . S
C1382 C1383 1.400 . S
C1383 C1382 1.400 . S
C1383 C1384 1.398 . S
C1383 C1389 1.491 . S
C1384 H1375 0.950 . S
C1384 C1383 1.398 . S
C1384 C1385 1.391 . S
C1385 H1373 0.950 . S
C1385 C1381 1.393 . S
C1385 C1384 1.391 . S
C1386 H1376 0.950 . S
C1386 C1387 1.386 . S
C1386 C1388 1.391 . S
C1387 C1386 1.386 . S
C1387 C1391 1.393 . S
C1388 H1377 0.950 . S
C1388 C1386 1.391 . S
C1388 C1389 1.400 . S
C1389 C1383 1.491 . S
C1389 C1388 1.400 . S
C1389 C1390 1.398 . S
C1390 H1378 0.950 . S
C1390 C1389 1.398 . S
C1390 C1391 1.391 . S
C1391 H1379 0.950 . S
C1391 C1387 1.393 . S
C1391 C1390 1.391 . S
H1392 C1400 0.950 . S
H1393 C1405 0.950 . S
H1394 C1402 0.950 . S
H1395 C1404 0.950 . S
H1396 C1406 0.950 . S
H1397 C1408 0.950 . S
H1398 C1410 0.950 . S
H1399 C1411 0.950 . S
C1400 H1392 0.950 . S
C1400 C1401 1.386 . S
C1400 C1402 1.391 . S
C1401 C1400 1.386 . S
C1401 C1405 1.393 . S
C1402 H1394 0.950 . S
C1402 C1400 1.391 . S
C1402 C1403 1.400 . S
C1403 C1402 1.400 . S
C1403 C1404 1.398 . S
C1403 C1409 1.491 . S
C1404 H1395 0.950 . S
C1404 C1403 1.398 . S
C1404 C1405 1.391 . S
C1405 H1393 0.950 . S
C1405 C1401 1.393 . S
C1405 C1404 1.391 . S
C1406 H1396 0.950 . S
C1406 C1407 1.386 . S
C1406 C1408 1.391 . S
C1407 C1406 1.386 . S
C1407 C1411 1.393 . S
C1408 H1397 0.950 . S
C1408 C1406 1.391 . S
C1408 C1409 1.400 . S
C1409 C1403 1.491 . S
C1409 C1408 1.400 . S
C1409 C1410 1.398 . S
C1410 H1398 0.950 . S
C1410 C1409 1.398 . S
C1410 C1411 1.391 . S
C1411 H1399 0.950 . S
C1411 C1407 1.393 . S
C1411 C1410 1.391 . S
H1412 C1420 0.950 . S
H1413 C1425 0.950 . S
H1414 C1422 0.950 . S
H1415 C1424 0.950 . S
H1416 C1426 0.950 . S
H1417 C1428 0.950 . S
H1418 C1430 0.950 . S
H1419 C1431 0.950 . S
C1420 H1412 0.950 . S
C1420 C1421 1.386 . S
C1420 C1422 1.391 . S
C1421 C1420 1.386 . S
C1421 C1425 1.393 . S
C1422 H1414 0.950 . S
C1422 C1420 1.391 . S
C1422 C1423 1.400 . S
C1423 C1422 1.400 . S
C1423 C1424 1.398 . S
C1423 C1429 1.491 . S
C1424 H1415 0.950 . S
C1424 C1423 1.398 . S
C1424 C1425 1.391 . S
C1425 H1413 0.950 . S
C1425 C1421 1.393 . S
C1425 C1424 1.391 . S
C1426 H1416 0.950 . S
C1426 C1427 1.386 . S
C1426 C1428 1.391 . S
C1427 C1426 1.386 . S
C1427 C1431 1.393 . S
C1428 H1417 0.950 . S
C1428 C1426 1.391 . S
C1428 C1429 1.400 . S
C1429 C1423 1.491 . S
C1429 C1428 1.400 . S
C1429 C1430 1.398 . S
C1430 H1418 0.950 . S
C1430 C1429 1.398 . S
C1430 C1431 1.391 . S
C1431 H1419 0.950 . S
C1431 C1427 1.393 . S
C1431 C1430 1.391 . S
H1432 C1440 0.950 . S
H1433 C1445 0.950 . S
H1434 C1442 0.950 . S
H1435 C1444 0.950 . S
H1436 C1446 0.950 . S
H1437 C1448 0.950 . S
H1438 C1450 0.950 . S
H1439 C1451 0.950 . S
C1440 H1432 0.950 . S
C1440 C1441 1.386 . S
C1440 C1442 1.391 . S
C1441 C1440 1.386 . S
C1441 C1445 1.393 . S
C1442 H1434 0.950 . S
C1442 C1440 1.391 . S
C1442 C1443 1.400 . S
C1443 C1442 1.400 . S
C1443 C1444 1.398 . S
C1443 C1449 1.491 . S
C1444 H1435 0.950 . S
C1444 C1443 1.398 . S
C1444 C1445 1.391 . S
C1445 H1433 0.950 . S
C1445 C1441 1.393 . S
C1445 C1444 1.391 . S
C1446 H1436 0.950 . S
C1446 C1447 1.386 . S
C1446 C1448 1.391 . S
C1447 C1446 1.386 . S
C1447 C1451 1.393 . S
C1448 H1437 0.950 . S
C1448 C1446 1.391 . S
C1448 C1449 1.400 . S
C1449 C1443 1.491 . S
C1449 C1448 1.400 . S
C1449 C1450 1.398 . S
C1450 H1438 0.950 . S
C1450 C1449 1.398 . S
C1450 C1451 1.391 . S
C1451 H1439 0.950 . S
C1451 C1447 1.393 . S
C1451 C1450 1.391 . S
H1452 C1460 0.950 . S
H1453 C1465 0.950 . S
H1454 C1462 0.950 . S
H1455 C1464 0.950 . S
H1456 C1466 0.950 . S
H1457 C1468 0.950 . S
H1458 C1470 0.950 . S
H1459 C1471 0.950 . S
C1460 H1452 0.950 . S
C1460 C1461 1.386 . S
C1460 C1462 1.391 . S
C1461 C1460 1.386 . S
C1461 C1465 1.393 . S
C1462 H1454 0.950 . S
C1462 C1460 1.391 . S
C1462 C1463 1.400 . S
C1463 C1462 1.400 . S
C1463 C1464 1.398 . S
C1463 C1469 1.491 . S
C1464 H1455 0.950 . S
C1464 C1463 1.398 . S
C1464 C1465 1.391 . S
C1465 H1453 0.950 . S
C1465 C1461 1.393 . S
C1465 C1464 1.391 . S
C1466 H1456 0.950 . S
C1466 C1467 1.386 . S
C1466 C1468 1.391 . S
C1467 C1466 1.386 . S
C1467 C1471 1.393 . S
C1468 H1457 0.950 . S
C1468 C1466 1.391 . S
C1468 C1469 1.400 . S
C1469 C1463 1.491 . S
C1469 C1468 1.400 . S
C1469 C1470 1.398 . S
C1470 H1458 0.950 . S
C1470 C1469 1.398 . S
C1470 C1471 1.391 . S
C1471 H1459 0.950 . S
C1471 C1467 1.393 . S
C1471 C1470 1.391 . S
H1472 C1480 0.950 . S
H1473 C1485 0.950 . S
H1474 C1482 0.950 . S
H1475 C1484 0.950 . S
H1476 C1486 0.950 . S
H1477 C1488 0.950 . S
H1478 C1490 0.950 . S
H1479 C1491 0.950 . S
C1480 H1472 0.950 . S
C1480 C1481 1.386 . S
C1480 C1482 1.391 . S
C1481 C1480 1.386 . S
C1481 C1485 1.393 . S
C1482 H1474 0.950 . S
C1482 C1480 1.391 . S
C1482 C1483 1.400 . S
C1483 C1482 1.400 . S
C1483 C1484 1.398 . S
C1483 C1489 1.491 . S
C1484 H1475 0.950 . S
C1484 C1483 1.398 . S
C1484 C1485 1.391 . S
C1485 H1473 0.950 . S
C1485 C1481 1.393 . S
C1485 C1484 1.391 . S
C1486 H1476 0.950 . S
C1486 C1487 1.386 . S
C1486 C1488 1.391 . S
C1487 C1486 1.386 . S
C1487 C1491 1.393 . S
C1488 H1477 0.950 . S
C1488 C1486 1.391 . S
C1488 C1489 1.400 . S
C1489 C1483 1.491 . S
C1489 C1488 1.400 . S
C1489 C1490 1.398 . S
C1490 H1478 0.950 . S
C1490 C1489 1.398 . S
C1490 C1491 1.391 . S
C1491 H1479 0.950 . S
C1491 C1487 1.393 . S
C1491 C1490 1.391 . S
H1492 C1500 0.950 . S
H1493 C1505 0.950 . S
H1494 C1502 0.950 . S
H1495 C1504 0.950 . S
H1496 C1506 0.950 . S
H1497 C1508 0.950 . S
H1498 C1510 0.950 . S
H1499 C1511 0.950 . S
C1500 H1492 0.950 . S
C1500 C1501 1.386 . S
C1500 C1502 1.391 . S
C1501 C1500 1.386 . S
C1501 C1505 1.393 . S
C1502 H1494 0.950 . S
C1502 C1500 1.391 . S
C1502 C1503 1.400 . S
C1503 C1502 1.400 . S
C1503 C1504 1.398 . S
C1503 C1509 1.491 . S
C1504 H1495 0.950 . S
C1504 C1503 1.398 . S
C1504 C1505 1.391 . S
C1505 H1493 0.950 . S
C1505 C1501 1.393 . S
C1505 C1504 1.391 . S
C1506 H1496 0.950 . S
C1506 C1507 1.386 . S
C1506 C1508 1.391 . S
C1507 C1506 1.386 . S
C1507 C1511 1.393 . S
C1508 H1497 0.950 . S
C1508 C1506 1.391 . S
C1508 C1509 1.400 . S
C1509 C1503 1.491 . S
C1509 C1508 1.400 . S
C1509 C1510 1.398 . S
C1510 H1498 0.950 . S
C1510 C1509 1.398 . S
C1510 C1511 1.391 . S
C1511 H1499 0.950 . S
C1511 C1507 1.393 . S
C1511 C1510 1.391 . S
H1512 C1520 0.950 . S
H1513 C1525 0.950 . S
H1514 C1522 0.950 . S
H1515 C1524 0.950 . S
H1516 C1526 0.950 . S
H1517 C1528 0.950 . S
H1518 C1530 0.950 . S
H1519 C1531 0.950 . S
C1520 H1512 0.950 . S
C1520 C1521 1.386 . S
C1520 C1522 1.391 . S
C1521 C1520 1.386 . S
C1521 C1525 1.393 . S
C1522 H1514 0.950 . S
C1522 C1520 1.391 . S
C1522 C1523 1.400 . S
C1523 C1522 1.400 . S
C1523 C1524 1.398 . S
C1523 C1529 1.491 . S
C1524 H1515 0.950 . S
C1524 C1523 1.398 . S
C1524 C1525 1.391 . S
C1525 H1513 0.950 . S
C1525 C1521 1.393 . S
C1525 C1524 1.391 . S
C1526 H1516 0.950 . S
C1526 C1527 1.386 . S
C1526 C1528 1.391 . S
C1527 C1526 1.386 . S
C1527 C1531 1.393 . S
C1528 H1517 0.950 . S
C1528 C1526 1.391 . S
C1528 C1529 1.400 . S
C1529 C1523 1.491 . S
C1529 C1528 1.400 . S
C1529 C1530 1.398 . S
C1530 H1518 0.950 . S
C1530 C1529 1.398 . S
C1530 C1531 1.391 . S
C1531 H1519 0.950 . S
C1531 C1527 1.393 . S
C1531 C1530 1.391 . S
H1532 C1540 0.950 . S
H1533 C1545 0.950 . S
H1534 C1542 0.950 . S
H1535 C1544 0.950 . S
H1536 C1546 0.950 . S
H1537 C1548 0.950 . S
H1538 C1550 0.950 . S
H1539 C1551 0.950 . S
C1540 H1532 0.950 . S
C1540 C1541 1.386 . S
C1540 C1542 1.391 . S
C1541 C1540 1.386 . S
C1541 C1545 1.393 . S
C1542 H1534 0.950 . S
C1542 C1540 1.391 . S
C1542 C1543 1.400 . S
C1543 C1542 1.400 . S
C1543 C1544 1.398 . S
C1543 C1549 1.491 . S
C1544 H1535 0.950 . S
C1544 C1543 1.398 . S
C1544 C1545 1.391 . S
C1545 H1533 0.950 . S
C1545 C1541 1.393 . S
C1545 C1544 1.391 . S
C1546 H1536 0.950 . S
C1546 C1547 1.386 . S
C1546 C1548 1.391 . S
C1547 C1546 1.386 . S
C1547 C1551 1.393 . S
C1548 H1537 0.950 . S
C1548 C1546 1.391 . S
C1548 C1549 1.400 . S
C1549 C1543 1.491 . S
C1549 C1548 1.400 . S
C1549 C1550 1.398 . S
C1550 H1538 0.950 . S
C1550 C1549 1.398 . S
C1550 C1551 1.391 . S
C1551 H1539 0.950 . S
C1551 C1547 1.393 . S
C1551 C1550 1.391 . S
H1552 C1560 0.950 . S
H1553 C1565 0.950 . S
H1554 C1562 0.950 . S
H1555 C1564 0.950 . S
H1556 C1566 0.950 . S
H1557 C1568 0.950 . S
H1558 C1570 0.950 . S
H1559 C1571 0.950 . S
C1560 H1552 0.950 . S
C1560 C1561 1.386 . S
C1560 C1562 1.391 . S
C1561 C1560 1.386 . S
C1561 C1565 1.393 . S
C1562 H1554 0.950 . S
C1562 C1560 1.391 . S
C1562 C1563 1.400 . S
C1563 C1562 1.400 . S
C1563 C1564 1.398 . S
C1563 C1569 1.491 . S
C1564 H1555 0.950 . S
C1564 C1563 1.398 . S
C1564 C1565 1.391 . S
C1565 H1553 0.950 . S
C1565 C1561 1.393 . S
C1565 C1564 1.391 . S
C1566 H1556 0.950 . S
C1566 C1567 1.386 . S
C1566 C1568 1.391 . S
C1567 C1566 1.386 . S
C1567 C1571 1.393 . S
C1568 H1557 0.950 . S
C1568 C1566 1.391 . S
C1568 C1569 1.400 . S
C1569 C1563 1.491 . S
C1569 C1568 1.400 . S
C1569 C1570 1.398 . S
C1570 H1558 0.950 . S
C1570 C1569 1.398 . S
C1570 C1571 1.391 . S
C1571 H1559 0.950 . S
C1571 C1567 1.393 . S
C1571 C1570 1.391 . S
H1572 C1580 0.950 . S
H1573 C1585 0.950 . S
H1574 C1582 0.950 . S
H1575 C1584 0.950 . S
H1576 C1586 0.950 . S
H1577 C1588 0.950 . S
H1578 C1590 0.950 . S
H1579 C1591 0.950 . S
C1580 H1572 0.950 . S
C1580 C1581 1.386 . S
C1580 C1582 1.391 . S
C1581 C1580 1.386 . S
C1581 C1585 1.393 . S
C1582 H1574 0.950 . S
C1582 C1580 1.391 . S
C1582 C1583 1.400 . S
C1583 C1582 1.400 . S
C1583 C1584 1.398 . S
C1583 C1589 1.491 . S
C1584 H1575 0.950 . S
C1584 C1583 1.398 . S
C1584 C1585 1.391 . S
C1585 H1573 0.950 . S
C1585 C1581 1.393 . S
C1585 C1584 1.391 . S
C1586 H1576 0.950 . S
C1586 C1587 1.386 . S
C1586 C1588 1.391 . S
C1587 C1586 1.386 . S
C1587 C1591 1.393 . S
C1588 H1577 0.950 . S
C1588 C1586 1.391 . S
C1588 C1589 1.400 . S
C1589 C1583 1.491 . S
C1589 C1588 1.400 . S
C1589 C1590 1.398 . S
C1590 H1578 0.950 . S
C1590 C1589 1.398 . S
C1590 C1591 1.391 . S
C1591 H1579 0.950 . S
C1591 C1587 1.393 . S
C1591 C1590 1.391 . S
H1592 C1600 0.950 . S
H1593 C1605 0.950 . S
H1594 C1602 0.950 . S
H1595 C1604 0.950 . S
H1596 C1606 0.950 . S
H1597 C1608 0.950 . S
H1598 C1610 0.950 . S
H1599 C1611 0.950 . S
C1600 H1592 0.950 . S
C1600 C1601 1.386 . S
C1600 C1602 1.391 . S
C1601 C1600 1.386 . S
C1601 C1605 1.393 . S
C1602 H1594 0.950 . S
C1602 C1600 1.391 . S
C1602 C1603 1.400 . S
C1603 C1602 1.400 . S
C1603 C1604 1.398 . S
C1603 C1609 1.491 . S
C1604 H1595 0.950 . S
C1604 C1603 1.398 . S
C1604 C1605 1.391 . S
C1605 H1593 0.950 . S
C1605 C1601 1.393 . S
C1605 C1604 1.391 . S
C1606 H1596 0.950 . S
C1606 C1607 1.386 . S
C1606 C1608 1.391 . S
C1607 C1606 1.386 . S
C1607 C1611 1.393 . S
C1608 H1597 0.950 . S
C1608 C1606 1.391 . S
C1608 C1609 1.400 . S
C1609 C1603 1.491 . S
C1609 C1608 1.400 . S
C1609 C1610 1.398 . S
C1610 H1598 0.950 . S
C1610 C1609 1.398 . S
C1610 C1611 1.391 . S
C1611 H1599 0.950 . S
C1611 C1607 1.393 . S
C1611 C1610 1.391 . S
H1612 C1620 0.950 . S
H1613 C1625 0.950 . S
H1614 C1622 0.950 . S
H1615 C1624 0.950 . S
H1616 C1626 0.950 . S
H1617 C1628 0.950 . S
H1618 C1630 0.950 . S
H1619 C1631 0.950 . S
C1620 H1612 0.950 . S
C1620 C1621 1.386 . S
C1620 C1622 1.391 . S
C1621 C1620 1.386 . S
C1621 C1625 1.393 . S
C1622 H1614 0.950 . S
C1622 C1620 1.391 . S
C1622 C1623 1.400 . S
C1623 C1622 1.400 . S
C1623 C1624 1.398 . S
C1623 C1629 1.491 . S
C1624 H1615 0.950 . S
C1624 C1623 1.398 . S
C1624 C1625 1.391 . S
C1625 H1613 0.950 . S
C1625 C1621 1.393 . S
C1625 C1624 1.391 . S
C1626 H1616 0.950 . S
C1626 C1627 1.386 . S
C1626 C1628 1.391 . S
C1627 C1626 1.386 . S
C1627 C1631 1.393 . S
C1628 H1617 0.950 . S
C1628 C1626 1.391 . S
C1628 C1629 1.400 . S
C1629 C1623 1.491 . S
C1629 C1628 1.400 . S
C1629 C1630 1.398 . S
C1630 H1618 0.950 . S
C1630 C1629 1.398 . S
C1630 C1631 1.391 . S
C1631 H1619 0.950 . S
C1631 C1627 1.393 . S
C1631 C1630 1.391 . S
H1632 C1640 0.950 . S
H1633 C1645 0.950 . S
H1634 C1642 0.950 . S
H1635 C1644 0.950 . S
H1636 C1646 0.950 . S
H1637 C1648 0.950 . S
H1638 C1650 0.950 . S
H1639 C1651 0.950 . S
C1640 H1632 0.950 . S
C1640 C1641 1.386 . S
C1640 C1642 1.391 . S
C1641 C1640 1.386 . S
C1641 C1645 1.393 . S
C1642 H1634 0.950 . S
C1642 C1640 1.391 . S
C1642 C1643 1.400 . S
C1643 C1642 1.400 . S
C1643 C1644 1.398 . S
C1643 C1649 1.491 . S
C1644 H1635 0.950 . S
C1644 C1643 1.398 . S
C1644 C1645 1.391 . S
C1645 H1633 0.950 . S
C1645 C1641 1.393 . S
C1645 C1644 1.391 . S
C1646 H1636 0.950 . S
C1646 C1647 1.386 . S
C1646 C1648 1.391 . S
C1647 C1646 1.386 . S
C1647 C1651 1.393 . S
C1648 H1637 0.950 . S
C1648 C1646 1.391 . S
C1648 C1649 1.400 . S
C1649 C1643 1.491 . S
C1649 C1648 1.400 . S
C1649 C1650 1.398 . S
C1650 H1638 0.950 . S
C1650 C1649 1.398 . S
C1650 C1651 1.391 . S
C1651 H1639 0.950 . S
C1651 C1647 1.393 . S
C1651 C1650 1.391 . S
H1652 C1660 0.950 . S
H1653 C1665 0.950 . S
H1654 C1662 0.950 . S
H1655 C1664 0.950 . S
H1656 C1666 0.950 . S
H1657 C1668 0.950 . S
H1658 C1670 0.950 . S
H1659 C1671 0.950 . S
C1660 H1652 0.950 . S
C1660 C1661 1.386 . S
C1660 C1662 1.391 . S
C1661 C1660 1.386 . S
C1661 C1665 1.393 . S
C1662 H1654 0.950 . S
C1662 C1660 1.391 . S
C1662 C1663 1.400 . S
C1663 C1662 1.400 . S
C1663 C1664 1.398 . S
C1663 C1669 1.491 . S
C1664 H1655 0.950 . S
C1664 C1663 1.398 . S
C1664 C1665 1.391 . S
C1665 H1653 0.950 . S
C1665 C1661 1.393 . S
C1665 C1664 1.391 . S
C1666 H1656 0.950 . S
C1666 C1667 1.386 . S
C1666 C1668 1.391 . S
C1667 C1666 1.386 . S
C1667 C1671 1.393 . S
C1668 H1657 0.950 . S
C1668 C1666 1.391 . S
C1668 C1669 1.400 . S
C1669 C1663 1.491 . S
C1669 C1668 1.400 . S
C1669 C1670 1.398 . S
C1670 H1658 0.950 . S
C1670 C1669 1.398 . S
C1670 C1671 1.391 . S
C1671 H1659 0.950 . S
C1671 C1667 1.393 . S
C1671 C1670 1.391 . S
H1672 C1680 0.950 . S
H1673 C1685 0.950 . S
H1674 C1682 0.950 . S
H1675 C1684 0.950 . S
H1676 C1686 0.950 . S
H1677 C1688 0.950 . S
H1678 C1690 0.950 . S
H1679 C1691 0.950 . S
C1680 H1672 0.950 . S
C1680 C1681 1.386 . S
C1680 C1682 1.391 . S
C1681 C1680 1.386 . S
C1681 C1685 1.393 . S
C1682 H1674 0.950 . S
C1682 C1680 1.391 . S
C1682 C1683 1.400 . S
C1683 C1682 1.400 . S
C1683 C1684 1.398 . S
C1683 C1689 1.491 . S
C1684 H1675 0.950 . S
C1684 C1683 1.398 . S
C1684 C1685 1.391 . S
C1685 H1673 0.950 . S
C1685 C1681 1.393 . S
C1685 C1684 1.391 . S
C1686 H1676 0.950 . S
C1686 C1687 1.386 . S
C1686 C1688 1.391 . S
C1687 C1686 1.386 . S
C1687 C1691 1.393 . S
C1688 H1677 0.950 . S
C1688 C1686 1.391 . S
C1688 C1689 1.400 . S
C1689 C1683 1.491 . S
C1689 C1688 1.400 . S
C1689 C1690 1.398 . S
C1690 H1678 0.950 . S
C1690 C1689 1.398 . S
C1690 C1691 1.391 . S
C1691 H1679 0.950 . S
C1691 C1687 1.393 . S
C1691 C1690 1.391 . S
H1692 C1700 0.950 . S
H1693 C1705 0.950 . S
H1694 C1702 0.950 . S
H1695 C1704 0.950 . S
H1696 C1706 0.950 . S
H1697 C1708 0.950 . S
H1698 C1710 0.950 . S
H1699 C1711 0.950 . S
C1700 H1692 0.950 . S
C1700 C1701 1.386 . S
C1700 C1702 1.391 . S
C1701 C1700 1.386 . S
C1701 C1705 1.393 . S
C1702 H1694 0.950 . S
C1702 C1700 1.391 . S
C1702 C1703 1.400 . S
C1703 C1702 1.400 . S
C1703 C1704 1.398 . S
C1703 C1709 1.491 . S
C1704 H1695 0.950 . S
C1704 C1703 1.398 . S
C1704 C1705 1.391 . S
C1705 H1693 0.950 . S
C1705 C1701 1.393 . S
C1705 C1704 1.391 . S
C1706 H1696 0.950 . S
C1706 C1707 1.386 . S
C1706 C1708 1.391 . S
C1707 C1706 1.386 . S
C1707 C1711 1.393 . S
C1708 H1697 0.950 . S
C1708 C1706 1.391 . S
C1708 C1709 1.400 . S
C1709 C1703 1.491 . S
C1709 C1708 1.400 . S
C1709 C1710 1.398 . S
C1710 H1698 0.950 . S
C1710 C1709 1.398 . S
C1710 C1711 1.391 . S
C1711 H1699 0.950 . S
C1711 C1707 1.393 . S
C1711 C1710 1.391 . S
H1712 C1720 0.950 . S
H1713 C1725 0.950 . S
H1714 C1722 0.950 . S
H1715 C1724 0.950 . S
H1716 C1726 0.950 . S
H1717 C1728 0.950 . S
H1718 C1730 0.950 . S
H1719 C1731 0.950 . S
C1720 H1712 0.950 . S
C1720 C1721 1.386 . S
C1720 C1722 1.391 . S
C1721 C1720 1.386 . S
C1721 C1725 1.393 . S
C1722 H1714 0.950 . S
C1722 C1720 1.391 . S
C1722 C1723 1.400 . S
C1723 C1722 1.400 . S
C1723 C1724 1.398 . S
C1723 C1729 1.491 . S
C1724 H1715 0.950 . S
C1724 C1723 1.398 . S
C1724 C1725 1.391 . S
C1725 H1713 0.950 . S
C1725 C1721 1.393 . S
C1725 C1724 1.391 . S
C1726 H1716 0.950 . S
C1726 C1727 1.386 . S
C1726 C1728 1.391 . S
C1727 C1726 1.386 . S
C1727 C1731 1.393 . S
C1728 H1717 0.950 . S
C1728 C1726 1.391 . S
C1728 C1729 1.400 . S
C1729 C1723 1.491 . S
C1729 C1728 1.400 . S
C1729 C1730 1.398 . S
C1730 H1718 0.950 . S
C1730 C1729 1.398 . S
C1730 C1731 1.391 . S
C1731 H1719 0.950 . S
C1731 C1727 1.393 . S
C1731 C1730 1.391 . S
H1732 C1740 0.950 . S
H1733 C1745 0.950 . S
H1734 C1742 0.950 . S
H1735 C1744 0.950 . S
H1736 C1746 0.950 . S
H1737 C1748 0.950 . S
H1738 C1750 0.950 . S
H1739 C1751 0.950 . S
C1740 H1732 0.950 . S
C1740 C1741 1.386 . S
C1740 C1742 1.391 . S
C1741 C1740 1.386 . S
C1741 C1745 1.393 . S
C1742 H1734 0.950 . S
C1742 C1740 1.391 . S
C1742 C1743 1.400 . S
C1743 C1742 1.400 . S
C1743 C1744 1.398 . S
C1743 C1749 1.491 . S
C1744 H1735 0.950 . S
C1744 C1743 1.398 . S
C1744 C1745 1.391 . S
C1745 H1733 0.950 . S
C1745 C1741 1.393 . S
C1745 C1744 1.391 . S
C1746 H1736 0.950 . S
C1746 C1747 1.386 . S
C1746 C1748 1.391 . S
C1747 C1746 1.386 . S
C1747 C1751 1.393 . S
C1748 H1737 0.950 . S
C1748 C1746 1.391 . S
C1748 C1749 1.400 . S
C1749 C1743 1.491 . S
C1749 C1748 1.400 . S
C1749 C1750 1.398 . S
C1750 H1738 0.950 . S
C1750 C1749 1.398 . S
C1750 C1751 1.391 . S
C1751 H1739 0.950 . S
C1751 C1747 1.393 . S
C1751 C1750 1.391 . S
H1752 C1760 0.950 . S
H1753 C1765 0.950 . S
H1754 C1762 0.950 . S
H1755 C1764 0.950 . S
H1756 C1766 0.950 . S
H1757 C1768 0.950 . S
H1758 C1770 0.950 . S
H1759 C1771 0.950 . S
C1760 H1752 0.950 . S
C1760 C1761 1.386 . S
C1760 C1762 1.391 . S
C1761 C1760 1.386 . S
C1761 C1765 1.393 . S
C1762 H1754 0.950 . S
C1762 C1760 1.391 . S
C1762 C1763 1.400 . S
C1763 C1762 1.400 . S
C1763 C1764 1.398 . S
C1763 C1769 1.491 . S
C1764 H1755 0.950 . S
C1764 C1763 1.398 . S
C1764 C1765 1.391 . S
C1765 H1753 0.950 . S
C1765 C1761 1.393 . S
C1765 C1764 1.391 . S
C1766 H1756 0.950 . S
C1766 C1767 1.386 . S
C1766 C1768 1.391 . S
C1767 C1766 1.386 . S
C1767 C1771 1.393 . S
C1768 H1757 0.950 . S
C1768 C1766 1.391 . S
C1768 C1769 1.400 . S
C1769 C1763 1.491 . S
C1769 C1768 1.400 . S
C1769 C1770 1.398 . S
C1770 H1758 0.950 . S
C1770 C1769 1.398 . S
C1770 C1771 1.391 . S
C1771 H1759 0.950 . S
C1771 C1767 1.393 . S
C1771 C1770 1.391 . S
H1772 C1780 0.950 . S
H1773 C1785 0.950 . S
H1774 C1782 0.950 . S
H1775 C1784 0.950 . S
H1776 C1786 0.950 . S
H1777 C1788 0.950 . S
H1778 C1790 0.950 . S
H1779 C1791 0.950 . S
C1780 H1772 0.950 . S
C1780 C1781 1.386 . S
C1780 C1782 1.391 . S
C1781 C1780 1.386 . S
C1781 C1785 1.393 . S
C1782 H1774 0.950 . S
C1782 C1780 1.391 . S
C1782 C1783 1.400 . S
C1783 C1782 1.400 . S
C1783 C1784 1.398 . S
C1783 C1789 1.491 . S
C1784 H1775 0.950 . S
C1784 C1783 1.398 . S
C1784 C1785 1.391 . S
C1785 H1773 0.950 . S
C1785 C1781 1.393 . S
C1785 C1784 1.391 . S
C1786 H1776 0.950 . S
C1786 C1787 1.386 . S
C1786 C1788 1.391 . S
C1787 C1786 1.386 . S
C1787 C1791 1.393 . S
C1788 H1777 0.950 . S
C1788 C1786 1.391 . S
C1788 C1789 1.400 . S
C1789 C1783 1.491 . S
C1789 C1788 1.400 . S
C1789 C1790 1.398 . S
C1790 H1778 0.950 . S
C1790 C1789 1.398 . S
C1790 C1791 1.391 . S
C1791 H1779 0.950 . S
C1791 C1787 1.393 . S
C1791 C1790 1.391 . S
H1792 C1800 0.950 . S
H1793 C1805 0.950 . S
H1794 C1802 0.950 . S
H1795 C1804 0.950 . S
H1796 C1806 0.950 . S
H1797 C1808 0.950 . S
H1798 C1810 0.950 . S
H1799 C1811 0.950 . S
C1800 H1792 0.950 . S
C1800 C1801 1.386 . S
C1800 C1802 1.391 . S
C1801 C1800 1.386 . S
C1801 C1805 1.393 . S
C1802 H1794 0.950 . S
C1802 C1800 1.391 . S
C1802 C1803 1.400 . S
C1803 C1802 1.400 . S
C1803 C1804 1.398 . S
C1803 C1809 1.491 . S
C1804 H1795 0.950 . S
C1804 C1803 1.398 . S
C1804 C1805 1.391 . S
C1805 H1793 0.950 . S
C1805 C1801 1.393 . S
C1805 C1804 1.391 . S
C1806 H1796 0.950 . S
C1806 C1807 1.386 . S
C1806 C1808 1.391 . S
C1807 C1806 1.386 . S
C1807 C1811 1.393 . S
C1808 H1797 0.950 . S
C1808 C1806 1.391 . S
C1808 C1809 1.400 . S
C1809 C1803 1.491 . S
C1809 C1808 1.400 . S
C1809 C1810 1.398 . S
C1810 H1798 0.950 . S
C1810 C1809 1.398 . S
C1810 C1811 1.391 . S
C1811 H1799 0.950 . S
C1811 C1807 1.393 . S
C1811 C1810 1.391 . S
H1812 C1820 0.950 . S
H1813 C1825 0.950 1_554 S
H1814 C1822 0.950 . S
H1815 C1824 0.950 . S
H1816 C1826 0.950 . S
H1817 C1828 0.950 . S
H1818 C1830 0.950 . S
H1819 C1831 0.950 . S
C1820 H1812 0.950 . S
C1820 C1821 1.386 . S
C1820 C1822 1.391 . S
C1821 C1820 1.386 . S
C1821 C1825 1.393 . S
C1822 H1814 0.950 . S
C1822 C1820 1.391 . S
C1822 C1823 1.400 . S
C1823 C1822 1.400 . S
C1823 C1824 1.398 . S
C1823 C1829 1.491 . S
C1824 H1815 0.950 . S
C1824 C1823 1.398 . S
C1824 C1825 1.391 . S
C1825 H1813 0.950 1_556 S
C1825 C1821 1.393 . S
C1825 C1824 1.391 . S
C1826 H1816 0.950 . S
C1826 C1827 1.386 . S
C1826 C1828 1.391 . S
C1827 C1826 1.386 . S
C1827 C1831 1.393 . S
C1828 H1817 0.950 . S
C1828 C1826 1.391 . S
C1828 C1829 1.400 . S
C1829 C1823 1.491 . S
C1829 C1828 1.400 . S
C1829 C1830 1.398 . S
C1830 H1818 0.950 . S
C1830 C1829 1.398 . S
C1830 C1831 1.391 . S
C1831 H1819 0.950 . S
C1831 C1827 1.393 . S
C1831 C1830 1.391 . S
H1832 C1840 0.950 . S
H1833 C1845 0.950 1_554 S
H1834 C1842 0.950 . S
H1835 C1844 0.950 . S
H1836 C1846 0.950 . S
H1837 C1848 0.950 . S
H1838 C1850 0.950 . S
H1839 C1851 0.950 . S
C1840 H1832 0.950 . S
C1840 C1841 1.386 . S
C1840 C1842 1.391 . S
C1841 C1840 1.386 . S
C1841 C1845 1.393 . S
C1842 H1834 0.950 . S
C1842 C1840 1.391 . S
C1842 C1843 1.400 . S
C1843 C1842 1.400 . S
C1843 C1844 1.398 . S
C1843 C1849 1.491 . S
C1844 H1835 0.950 . S
C1844 C1843 1.398 . S
C1844 C1845 1.391 . S
C1845 H1833 0.950 1_556 S
C1845 C1841 1.393 . S
C1845 C1844 1.391 . S
C1846 H1836 0.950 . S
C1846 C1847 1.386 . S
C1846 C1848 1.391 . S
C1847 C1846 1.386 . S
C1847 C1851 1.393 . S
C1848 H1837 0.950 . S
C1848 C1846 1.391 . S
C1848 C1849 1.400 . S
C1849 C1843 1.491 . S
C1849 C1848 1.400 . S
C1849 C1850 1.398 . S
C1850 H1838 0.950 . S
C1850 C1849 1.398 . S
C1850 C1851 1.391 . S
C1851 H1839 0.950 . S
C1851 C1847 1.393 . S
C1851 C1850 1.391 . S
H1852 C1860 0.950 . S
H1853 C1865 0.950 1_554 S
H1854 C1862 0.950 . S
H1855 C1864 0.950 . S
H1856 C1866 0.950 . S
H1857 C1868 0.950 . S
H1858 C1870 0.950 . S
H1859 C1871 0.950 . S
C1860 H1852 0.950 . S
C1860 C1861 1.386 . S
C1860 C1862 1.391 . S
C1861 C1860 1.386 . S
C1861 C1865 1.393 . S
C1862 H1854 0.950 . S
C1862 C1860 1.391 . S
C1862 C1863 1.400 . S
C1863 C1862 1.400 . S
C1863 C1864 1.398 . S
C1863 C1869 1.491 . S
C1864 H1855 0.950 . S
C1864 C1863 1.398 . S
C1864 C1865 1.391 . S
C1865 H1853 0.950 1_556 S
C1865 C1861 1.393 . S
C1865 C1864 1.391 . S
C1866 H1856 0.950 . S
C1866 C1867 1.386 . S
C1866 C1868 1.391 . S
C1867 C1866 1.386 . S
C1867 C1871 1.393 . S
C1868 H1857 0.950 . S
C1868 C1866 1.391 . S
C1868 C1869 1.400 . S
C1869 C1863 1.491 . S
C1869 C1868 1.400 . S
C1869 C1870 1.398 . S
C1870 H1858 0.950 . S
C1870 C1869 1.398 . S
C1870 C1871 1.391 . S
C1871 H1859 0.950 . S
C1871 C1867 1.393 . S
C1871 C1870 1.391 . S
H1872 C1880 0.950 . S
H1873 C1885 0.950 . S
H1874 C1882 0.950 . S
H1875 C1884 0.950 . S
H1876 C1886 0.950 . S
H1877 C1888 0.950 . S
H1878 C1890 0.950 . S
H1879 C1891 0.950 . S
C1880 H1872 0.950 . S
C1880 C1881 1.386 . S
C1880 C1882 1.391 . S
C1881 C1880 1.386 . S
C1881 C1885 1.393 . S
C1882 H1874 0.950 . S
C1882 C1880 1.391 . S
C1882 C1883 1.400 . S
C1883 C1882 1.400 . S
C1883 C1884 1.398 . S
C1883 C1889 1.491 . S
C1884 H1875 0.950 . S
C1884 C1883 1.398 . S
C1884 C1885 1.391 . S
C1885 H1873 0.950 . S
C1885 C1881 1.393 . S
C1885 C1884 1.391 . S
C1886 H1876 0.950 . S
C1886 C1887 1.386 . S
C1886 C1888 1.391 . S
C1887 C1886 1.386 . S
C1887 C1891 1.393 . S
C1888 H1877 0.950 . S
C1888 C1886 1.391 . S
C1888 C1889 1.400 . S
C1889 C1883 1.491 . S
C1889 C1888 1.400 . S
C1889 C1890 1.398 . S
C1890 H1878 0.950 . S
C1890 C1889 1.398 . S
C1890 C1891 1.391 . S
C1891 H1879 0.950 . S
C1891 C1887 1.393 . S
C1891 C1890 1.391 . S
H1892 C1900 0.950 . S
H1893 C1905 0.950 . S
H1894 C1902 0.950 . S
H1895 C1904 0.950 . S
H1896 C1906 0.950 . S
H1897 C1908 0.950 . S
H1898 C1910 0.950 . S
H1899 C1911 0.950 . S
C1900 H1892 0.950 . S
C1900 C1901 1.386 . S
C1900 C1902 1.391 . S
C1901 C1900 1.386 . S
C1901 C1905 1.393 . S
C1902 H1894 0.950 . S
C1902 C1900 1.391 . S
C1902 C1903 1.400 . S
C1903 C1902 1.400 . S
C1903 C1904 1.398 . S
C1903 C1909 1.491 . S
C1904 H1895 0.950 . S
C1904 C1903 1.398 . S
C1904 C1905 1.391 . S
C1905 H1893 0.950 . S
C1905 C1901 1.393 . S
C1905 C1904 1.391 . S
C1906 H1896 0.950 . S
C1906 C1907 1.386 . S
C1906 C1908 1.391 . S
C1907 C1906 1.386 . S
C1907 C1911 1.393 . S
C1908 H1897 0.950 . S
C1908 C1906 1.391 . S
C1908 C1909 1.400 . S
C1909 C1903 1.491 . S
C1909 C1908 1.400 . S
C1909 C1910 1.398 . S
C1910 H1898 0.950 . S
C1910 C1909 1.398 . S
C1910 C1911 1.391 . S
C1911 H1899 0.950 . S
C1911 C1907 1.393 . S
C1911 C1910 1.391 . S
H1912 C1920 0.950 . S
H1913 C1925 0.950 . S
H1914 C1922 0.950 . S
H1915 C1924 0.950 . S
H1916 C1926 0.950 . S
H1917 C1928 0.950 . S
H1918 C1930 0.950 . S
H1919 C1931 0.950 . S
C1920 H1912 0.950 . S
C1920 C1921 1.386 . S
C1920 C1922 1.391 . S
C1921 C1920 1.386 . S
C1921 C1925 1.393 . S
C1922 H1914 0.950 . S
C1922 C1920 1.391 . S
C1922 C1923 1.400 . S
C1923 C1922 1.400 . S
C1923 C1924 1.398 . S
C1923 C1929 1.491 . S
C1924 H1915 0.950 . S
C1924 C1923 1.398 . S
C1924 C1925 1.391 . S
C1925 H1913 0.950 . S
C1925 C1921 1.393 . S
C1925 C1924 1.391 . S
C1926 H1916 0.950 . S
C1926 C1927 1.386 . S
C1926 C1928 1.391 . S
C1927 C1926 1.386 . S
C1927 C1931 1.393 . S
C1928 H1917 0.950 . S
C1928 C1926 1.391 . S
C1928 C1929 1.400 . S
C1929 C1923 1.491 . S
C1929 C1928 1.400 . S
C1929 C1930 1.398 . S
C1930 H1918 0.950 . S
C1930 C1929 1.398 . S
C1930 C1931 1.391 . S
C1931 H1919 0.950 . S
C1931 C1927 1.393 . S
C1931 C1930 1.391 . S
H1932 C1940 0.950 . S
H1933 C1945 0.950 . S
H1934 C1942 0.950 . S
H1935 C1944 0.950 . S
H1936 C1946 0.950 . S
H1937 C1948 0.950 . S
H1938 C1950 0.950 . S
H1939 C1951 0.950 . S
C1940 H1932 0.950 . S
C1940 C1941 1.386 . S
C1940 C1942 1.391 . S
C1941 C1940 1.386 . S
C1941 C1945 1.393 . S
C1942 H1934 0.950 . S
C1942 C1940 1.391 . S
C1942 C1943 1.400 . S
C1943 C1942 1.400 . S
C1943 C1944 1.398 . S
C1943 C1949 1.491 . S
C1944 H1935 0.950 . S
C1944 C1943 1.398 . S
C1944 C1945 1.391 . S
C1945 H1933 0.950 . S
C1945 C1941 1.393 . S
C1945 C1944 1.391 . S
C1946 H1936 0.950 . S
C1946 C1947 1.386 . S
C1946 C1948 1.391 . S
C1947 C1946 1.386 . S
C1947 C1951 1.393 . S
C1948 H1937 0.950 . S
C1948 C1946 1.391 . S
C1948 C1949 1.400 . S
C1949 C1943 1.491 . S
C1949 C1948 1.400 . S
C1949 C1950 1.398 . S
C1950 H1938 0.950 . S
C1950 C1949 1.398 . S
C1950 C1951 1.391 . S
C1951 H1939 0.950 . S
C1951 C1947 1.393 . S
C1951 C1950 1.391 . S
H1952 C1960 0.950 . S
H1953 C1965 0.950 . S
H1954 C1962 0.950 . S
H1955 C1964 0.950 . S
H1956 C1966 0.950 . S
H1957 C1968 0.950 . S
H1958 C1970 0.950 . S
H1959 C1971 0.950 . S
C1960 H1952 0.950 . S
C1960 C1961 1.386 . S
C1960 C1962 1.391 . S
C1961 C1960 1.386 . S
C1961 C1965 1.393 . S
C1962 H1954 0.950 . S
C1962 C1960 1.391 . S
C1962 C1963 1.400 . S
C1963 C1962 1.400 . S
C1963 C1964 1.398 . S
C1963 C1969 1.491 . S
C1964 H1955 0.950 . S
C1964 C1963 1.398 . S
C1964 C1965 1.391 . S
C1965 H1953 0.950 . S
C1965 C1961 1.393 . S
C1965 C1964 1.391 . S
C1966 H1956 0.950 . S
C1966 C1967 1.386 . S
C1966 C1968 1.391 . S
C1967 C1966 1.386 . S
C1967 C1971 1.393 . S
C1968 H1957 0.950 . S
C1968 C1966 1.391 . S
C1968 C1969 1.400 . S
C1969 C1963 1.491 . S
C1969 C1968 1.400 . S
C1969 C1970 1.398 . S
C1970 H1958 0.950 . S
C1970 C1969 1.398 . S
C1970 C1971 1.391 . S
C1971 H1959 0.950 . S
C1971 C1967 1.393 . S
C1971 C1970 1.391 . S
H1972 C1980 0.950 . S
H1973 C1985 0.950 . S
H1974 C1982 0.950 . S
H1975 C1984 0.950 . S
H1976 C1986 0.950 . S
H1977 C1988 0.950 . S
H1978 C1990 0.950 . S
H1979 C1991 0.950 . S
C1980 H1972 0.950 . S
C1980 C1981 1.386 . S
C1980 C1982 1.391 . S
C1981 C1980 1.386 . S
C1981 C1985 1.393 . S
C1982 H1974 0.950 . S
C1982 C1980 1.391 . S
C1982 C1983 1.400 . S
C1983 C1982 1.400 . S
C1983 C1984 1.398 . S
C1983 C1989 1.491 . S
C1984 H1975 0.950 . S
C1984 C1983 1.398 . S
C1984 C1985 1.391 . S
C1985 H1973 0.950 . S
C1985 C1981 1.393 . S
C1985 C1984 1.391 . S
C1986 H1976 0.950 . S
C1986 C1987 1.386 . S
C1986 C1988 1.391 . S
C1987 C1986 1.386 . S
C1987 C1991 1.393 . S
C1988 H1977 0.950 . S
C1988 C1986 1.391 . S
C1988 C1989 1.400 . S
C1989 C1983 1.491 . S
C1989 C1988 1.400 . S
C1989 C1990 1.398 . S
C1990 H1978 0.950 . S
C1990 C1989 1.398 . S
C1990 C1991 1.391 . S
C1991 H1979 0.950 . S
C1991 C1987 1.393 . S
C1991 C1990 1.391 . S
H1992 C2000 0.950 . S
H1993 C2005 0.950 . S
H1994 C2002 0.950 . S
H1995 C2004 0.950 . S
H1996 C2006 0.950 . S
H1997 C2008 0.950 . S
H1998 C2010 0.950 . S
H1999 C2011 0.950 . S
C2000 H1992 0.950 . S
C2000 C2001 1.386 . S
C2000 C2002 1.391 . S
C2001 C2000 1.386 . S
C2001 C2005 1.393 1_455 S
C2002 H1994 0.950 . S
C2002 C2000 1.391 . S
C2002 C2003 1.400 . S
C2003 C2002 1.400 . S
C2003 C2004 1.398 1_455 S
C2003 C2009 1.491 . S
C2004 H1995 0.950 . S
C2004 C2003 1.398 1_655 S
C2004 C2005 1.391 . S
C2005 H1993 0.950 . S
C2005 C2001 1.393 1_655 S
C2005 C2004 1.391 . S
C2006 H1996 0.950 . S
C2006 C2007 1.386 1_655 S
C2006 C2008 1.391 . S
C2007 C2006 1.386 1_455 S
C2007 C2011 1.393 . S
C2008 H1997 0.950 . S
C2008 C2006 1.391 . S
C2008 C2009 1.400 1_655 S
C2009 C2003 1.491 . S
C2009 C2008 1.400 1_455 S
C2009 C2010 1.398 . S
C2010 H1998 0.950 . S
C2010 C2009 1.398 . S
C2010 C2011 1.391 . S
C2011 H1999 0.950 . S
C2011 C2007 1.393 . S
C2011 C2010 1.391 . S
H2012 C2020 0.950 . S
H2013 C2025 0.950 . S
H2014 C2022 0.950 . S
H2015 C2024 0.950 . S
H2016 C2026 0.950 . S
H2017 C2028 0.950 . S
H2018 C2030 0.950 . S
H2019 C2031 0.950 . S
C2020 H2012 0.950 . S
C2020 C2021 1.386 . S
C2020 C2022 1.391 . S
C2021 C2020 1.386 . S
C2021 C2025 1.393 . S
C2022 H2014 0.950 . S
C2022 C2020 1.391 . S
C2022 C2023 1.400 . S
C2023 C2022 1.400 . S
C2023 C2024 1.398 . S
C2023 C2029 1.491 . S
C2024 H2015 0.950 . S
C2024 C2023 1.398 . S
C2024 C2025 1.391 . S
C2025 H2013 0.950 . S
C2025 C2021 1.393 . S
C2025 C2024 1.391 . S
C2026 H2016 0.950 . S
C2026 C2027 1.386 . S
C2026 C2028 1.391 . S
C2027 C2026 1.386 . S
C2027 C2031 1.393 . S
C2028 H2017 0.950 . S
C2028 C2026 1.391 . S
C2028 C2029 1.400 . S
C2029 C2023 1.491 . S
C2029 C2028 1.400 . S
C2029 C2030 1.398 . S
C2030 H2018 0.950 . S
C2030 C2029 1.398 . S
C2030 C2031 1.391 . S
C2031 H2019 0.950 . S
C2031 C2027 1.393 . S
C2031 C2030 1.391 . S
H2032 C2040 0.950 . S
H2033 C2045 0.950 . S
H2034 C2042 0.950 . S
H2035 C2044 0.950 . S
H2036 C2046 0.942 1_545 S
H2037 C2048 0.927 1_545 S
H2038 C2050 0.950 . S
H2039 C2051 0.950 . S
C2040 H2032 0.950 . S
C2040 C2041 1.386 . S
C2040 C2042 1.391 . S
C2041 C2040 1.386 . S
C2041 C2045 1.393 . S
C2042 H2034 0.950 . S
C2042 C2040 1.391 . S
C2042 C2043 1.400 . S
C2043 C2042 1.400 . S
C2043 C2044 1.398 . S
C2043 C2049 1.491 . S
C2044 H2035 0.950 . S
C2044 C2043 1.398 . S
C2044 C2045 1.391 . S
C2045 H2033 0.950 . S
C2045 C2041 1.393 . S
C2045 C2044 1.391 . S
C2046 H2036 0.942 1_565 S
C2046 C2047 1.417 . S
C2046 C2048 1.371 . S
C2047 C2046 1.417 . S
C2047 C2051 1.393 . S
C2048 H2037 0.927 1_565 S
C2048 C2046 1.371 . S
C2048 C2049 1.400 . S
C2049 C2043 1.491 . S
C2049 C2048 1.400 . S
C2049 C2050 1.398 . S
C2050 H2038 0.950 . S
C2050 C2049 1.398 . S
C2050 C2051 1.391 . S
C2051 H2039 0.950 . S
C2051 C2047 1.393 . S
C2051 C2050 1.391 . S
H2052 C2060 0.950 . S
H2053 C2065 0.950 . S
H2054 C2062 0.950 . S
H2055 C2064 0.950 . S
H2056 C2066 0.950 . S
H2057 C2068 0.950 . S
H2058 C2070 0.950 . S
H2059 C2071 0.950 . S
C2060 H2052 0.950 . S
C2060 C2061 1.386 1_545 S
C2060 C2062 1.391 . S
C2061 C2060 1.386 1_565 S
C2061 C2065 1.393 . S
C2062 H2054 0.950 . S
C2062 C2060 1.391 . S
C2062 C2063 1.400 1_545 S
C2063 C2062 1.400 1_565 S
C2063 C2064 1.398 . S
C2063 C2069 1.491 . S
C2064 H2055 0.950 . S
C2064 C2063 1.398 . S
C2064 C2065 1.391 . S
C2065 H2053 0.950 . S
C2065 C2061 1.393 . S
C2065 C2064 1.391 . S
C2066 H2056 0.950 . S
C2066 C2067 1.427 . S
C2066 C2068 1.391 . S
C2067 C2066 1.427 . S
C2067 C2071 1.376 1_565 S
C2068 H2057 0.950 . S
C2068 C2066 1.391 . S
C2068 C2069 1.400 . S
C2069 C2063 1.491 . S
C2069 C2068 1.400 . S
C2069 C2070 1.398 1_565 S
C2070 H2058 0.950 . S
C2070 C2069 1.398 1_545 S
C2070 C2071 1.391 . S
C2071 H2059 0.950 . S
C2071 C2067 1.376 1_545 S
C2071 C2070 1.391 . S
H2072 C2080 0.950 . S
H2073 C2085 0.950 . S
H2074 C2082 0.950 . S
H2075 C2084 0.950 . S
H2076 C2086 0.950 . S
H2077 C2088 0.950 . S
H2078 C2090 0.950 . S
H2079 C2091 0.950 . S
C2080 H2072 0.950 . S
C2080 C2081 1.386 1_655 S
C2080 C2082 1.391 . S
C2081 C2080 1.386 1_455 S
C2081 C2085 1.393 . S
C2082 H2074 0.950 . S
C2082 C2080 1.391 . S
C2082 C2083 1.400 1_655 S
C2083 C2082 1.400 1_455 S
C2083 C2084 1.398 . S
C2083 C2089 1.491 . S
C2084 H2075 0.950 . S
C2084 C2083 1.398 . S
C2084 C2085 1.391 . S
C2085 H2073 0.950 . S
C2085 C2081 1.393 . S
C2085 C2084 1.391 . S
C2086 H2076 0.950 . S
C2086 C2087 1.395 . S
C2086 C2088 1.391 . S
C2087 C2086 1.395 . S
C2087 C2091 1.378 1_455 S
C2088 H2077 0.950 . S
C2088 C2086 1.391 . S
C2088 C2089 1.400 . S
C2089 C2083 1.491 . S
C2089 C2088 1.400 . S
C2089 C2090 1.398 1_455 S
C2090 H2078 0.950 . S
C2090 C2089 1.398 1_655 S
C2090 C2091 1.391 . S
C2091 H2079 0.950 . S
C2091 C2087 1.378 1_655 S
C2091 C2090 1.391 . S
H2092 C2100 0.950 . S
H2093 C2105 0.950 . S
H2094 C2102 0.950 . S
H2095 C2104 0.950 . S
H2096 C2106 0.950 . S
H2097 C2108 0.950 . S
H2098 C2110 0.950 . S
H2099 C2111 0.950 . S
C2100 H2092 0.950 . S
C2100 C2101 1.386 . S
C2100 C2102 1.391 . S
C2101 C2100 1.386 . S
C2101 C2105 1.393 . S
C2102 H2094 0.950 . S
C2102 C2100 1.391 . S
C2102 C2103 1.400 . S
C2103 C2102 1.400 . S
C2103 C2104 1.398 . S
C2103 C2109 1.491 . S
C2104 H2095 0.950 . S
C2104 C2103 1.398 . S
C2104 C2105 1.391 . S
C2105 H2093 0.950 . S
C2105 C2101 1.393 . S
C2105 C2104 1.391 . S
C2106 H2096 0.950 . S
C2106 C2107 1.386 . S
C2106 C2108 1.391 . S
C2107 C2106 1.386 . S
C2107 C2111 1.393 . S
C2108 H2097 0.950 . S
C2108 C2106 1.391 . S
C2108 C2109 1.400 . S
C2109 C2103 1.491 . S
C2109 C2108 1.400 . S
C2109 C2110 1.398 . S
C2110 H2098 0.950 . S
C2110 C2109 1.398 . S
C2110 C2111 1.391 . S
C2111 H2099 0.950 . S
C2111 C2107 1.393 . S
C2111 C2110 1.391 . S
H2112 C2120 0.950 . S
H2113 C2125 0.950 . S
H2114 C2122 0.950 . S
H2115 C2124 0.950 . S
H2116 C2126 0.950 . S
H2117 C2128 0.950 . S
H2118 C2130 0.950 . S
H2119 C2131 0.950 . S
C2120 H2112 0.950 . S
C2120 C2121 1.386 . S
C2120 C2122 1.391 . S
C2121 C2120 1.386 . S
C2121 C2125 1.393 . S
C2122 H2114 0.950 . S
C2122 C2120 1.391 . S
C2122 C2123 1.400 . S
C2123 C2122 1.400 . S
C2123 C2124 1.398 . S
C2123 C2129 1.491 . S
C2124 H2115 0.950 . S
C2124 C2123 1.398 . S
C2124 C2125 1.391 . S
C2125 H2113 0.950 . S
C2125 C2121 1.393 . S
C2125 C2124 1.391 . S
C2126 H2116 0.950 . S
C2126 C2127 1.386 . S
C2126 C2128 1.391 . S
C2127 C2126 1.386 . S
C2127 C2131 1.393 . S
C2128 H2117 0.950 . S
C2128 C2126 1.391 . S
C2128 C2129 1.400 . S
C2129 C2123 1.491 . S
C2129 C2128 1.400 . S
C2129 C2130 1.398 . S
C2130 H2118 0.950 . S
C2130 C2129 1.398 . S
C2130 C2131 1.391 . S
C2131 H2119 0.950 . S
C2131 C2127 1.393 . S
C2131 C2130 1.391 . S
H2132 C2140 0.950 . S
H2133 C2145 0.950 . S
H2134 C2142 0.950 . S
H2135 C2144 0.950 . S
H2136 C2146 0.950 . S
H2137 C2148 0.950 . S
H2138 C2150 0.950 . S
H2139 C2151 0.950 . S
C2140 H2132 0.950 . S
C2140 C2141 1.386 . S
C2140 C2142 1.391 . S
C2141 C2140 1.386 . S
C2141 C2145 1.393 . S
C2142 H2134 0.950 . S
C2142 C2140 1.391 . S
C2142 C2143 1.400 . S
C2143 C2142 1.400 . S
C2143 C2144 1.398 . S
C2143 C2149 1.491 . S
C2144 H2135 0.950 . S
C2144 C2143 1.398 . S
C2144 C2145 1.391 . S
C2145 H2133 0.950 . S
C2145 C2141 1.393 . S
C2145 C2144 1.391 . S
C2146 H2136 0.950 . S
C2146 C2147 1.386 . S
C2146 C2148 1.391 . S
C2147 C2146 1.386 . S
C2147 C2151 1.393 . S
C2148 H2137 0.950 . S
C2148 C2146 1.391 . S
C2148 C2149 1.400 . S
C2149 C2143 1.491 . S
C2149 C2148 1.400 . S
C2149 C2150 1.398 . S
C2150 H2138 0.950 . S
C2150 C2149 1.398 . S
C2150 C2151 1.391 . S
C2151 H2139 0.950 . S
C2151 C2147 1.393 . S
C2151 C2150 1.391 . S
H2152 C2160 0.950 . S
H2153 C2165 0.950 . S
H2154 C2162 0.950 . S
H2155 C2164 0.950 . S
H2156 C2166 0.950 . S
H2157 C2168 0.950 . S
H2158 C2170 0.950 . S
H2159 C2171 0.950 . S
C2160 H2152 0.950 . S
C2160 C2161 1.386 . S
C2160 C2162 1.391 . S
C2161 C2160 1.386 . S
C2161 C2165 1.393 . S
C2162 H2154 0.950 . S
C2162 C2160 1.391 . S
C2162 C2163 1.400 . S
C2163 C2162 1.400 . S
C2163 C2164 1.398 . S
C2163 C2169 1.491 . S
C2164 H2155 0.950 . S
C2164 C2163 1.398 . S
C2164 C2165 1.391 . S
C2165 H2153 0.950 . S
C2165 C2161 1.393 . S
C2165 C2164 1.391 . S
C2166 H2156 0.950 . S
C2166 C2167 1.386 . S
C2166 C2168 1.391 . S
C2167 C2166 1.386 . S
C2167 C2171 1.393 . S
C2168 H2157 0.950 . S
C2168 C2166 1.391 . S
C2168 C2169 1.400 . S
C2169 C2163 1.491 . S
C2169 C2168 1.400 . S
C2169 C2170 1.398 . S
C2170 H2158 0.950 . S
C2170 C2169 1.398 . S
C2170 C2171 1.391 . S
C2171 H2159 0.950 . S
C2171 C2167 1.393 . S
C2171 C2170 1.391 . S
H2172 C2180 0.950 . S
H2173 C2185 0.950 . S
H2174 C2182 0.950 . S
H2175 C2184 0.950 . S
H2176 C2186 0.950 . S
H2177 C2188 0.950 . S
H2178 C2190 0.950 . S
H2179 C2191 0.950 . S
C2180 H2172 0.950 . S
C2180 C2181 1.386 . S
C2180 C2182 1.391 . S
C2181 C2180 1.386 . S
C2181 C2185 1.393 1_545 S
C2182 H2174 0.950 . S
C2182 C2180 1.391 . S
C2182 C2183 1.400 . S
C2183 C2182 1.400 . S
C2183 C2184 1.398 1_545 S
C2183 C2189 1.491 . S
C2184 H2175 0.950 . S
C2184 C2183 1.398 1_565 S
C2184 C2185 1.391 . S
C2185 H2173 0.950 . S
C2185 C2181 1.393 1_565 S
C2185 C2184 1.391 . S
C2186 H2176 0.950 . S
C2186 C2187 1.386 1_565 S
C2186 C2188 1.391 . S
C2187 C2186 1.386 1_545 S
C2187 C2191 1.393 . S
C2188 H2177 0.950 . S
C2188 C2186 1.391 . S
C2188 C2189 1.400 1_565 S
C2189 C2183 1.491 . S
C2189 C2188 1.400 1_545 S
C2189 C2190 1.398 . S
C2190 H2178 0.950 . S
C2190 C2189 1.398 . S
C2190 C2191 1.391 . S
C2191 H2179 0.950 . S
C2191 C2187 1.393 . S
C2191 C2190 1.391 . S
H2192 C2200 0.950 . S
H2193 C2205 0.950 . S
H2194 C2202 0.950 . S
H2195 C2204 0.951 1_455 S
H2196 C2206 0.950 1_455 S
H2197 C2208 0.950 . S
H2198 C2210 0.950 . S
H2199 C2211 0.950 . S
C2200 H2192 0.950 . S
C2200 C2201 1.386 . S
C2200 C2202 1.391 . S
C2201 C2200 1.386 . S
C2201 C2205 1.393 . S
C2202 H2194 0.950 . S
C2202 C2200 1.391 . S
C2202 C2203 1.400 . S
C2203 C2202 1.400 . S
C2203 C2204 1.398 . S
C2203 C2209 1.491 . S
C2204 H2195 0.951 1_655 S
C2204 C2203 1.398 . S
C2204 C2205 1.391 . S
C2205 H2193 0.950 . S
C2205 C2201 1.393 . S
C2205 C2204 1.391 . S
C2206 H2196 0.950 1_655 S
C2206 C2207 1.386 . S
C2206 C2208 1.391 . S
C2207 C2206 1.386 . S
C2207 C2211 1.393 . S
C2208 H2197 0.950 . S
C2208 C2206 1.391 . S
C2208 C2209 1.400 . S
C2209 C2203 1.491 . S
C2209 C2208 1.400 . S
C2209 C2210 1.398 . S
C2210 H2198 0.950 . S
C2210 C2209 1.398 . S
C2210 C2211 1.391 . S
C2211 H2199 0.950 . S
C2211 C2207 1.393 . S
C2211 C2210 1.391 . S
H2212 C2220 0.950 . S
H2213 C2225 0.950 . S
H2214 C2222 0.950 . S
H2215 C2224 0.950 . S
H2216 C2226 0.950 . S
H2217 C2228 0.950 . S
H2218 C2230 0.950 . S
H2219 C2231 0.950 . S
C2220 H2212 0.950 . S
C2220 C2221 1.386 . S
C2220 C2222 1.391 . S
C2221 C2220 1.386 . S
C2221 C2225 1.393 . S
C2222 H2214 0.950 . S
C2222 C2220 1.391 . S
C2222 C2223 1.400 . S
C2223 C2222 1.400 . S
C2223 C2224 1.398 . S
C2223 C2229 1.491 . S
C2224 H2215 0.950 . S
C2224 C2223 1.398 . S
C2224 C2225 1.391 . S
C2225 H2213 0.950 . S
C2225 C2221 1.393 . S
C2225 C2224 1.391 . S
C2226 H2216 0.950 . S
C2226 C2227 1.386 . S
C2226 C2228 1.391 . S
C2227 C2226 1.386 . S
C2227 C2231 1.393 . S
C2228 H2217 0.950 . S
C2228 C2226 1.391 . S
C2228 C2229 1.400 . S
C2229 C2223 1.491 . S
C2229 C2228 1.400 . S
C2229 C2230 1.398 . S
C2230 H2218 0.950 . S
C2230 C2229 1.398 . S
C2230 C2231 1.391 . S
C2231 H2219 0.950 . S
C2231 C2227 1.393 . S
C2231 C2230 1.391 . S
H2232 C2240 0.950 . S
H2233 C2245 0.950 . S
H2234 C2242 0.950 . S
H2235 C2244 0.950 . S
H2236 C2246 0.950 . S
H2237 C2248 0.950 . S
H2238 C2250 0.950 . S
H2239 C2251 0.950 . S
C2240 H2232 0.950 . S
C2240 C2241 1.386 . S
C2240 C2242 1.391 . S
C2241 C2240 1.386 . S
C2241 C2245 1.393 . S
C2242 H2234 0.950 . S
C2242 C2240 1.391 . S
C2242 C2243 1.400 . S
C2243 C2242 1.400 . S
C2243 C2244 1.398 . S
C2243 C2249 1.491 . S
C2244 H2235 0.950 . S
C2244 C2243 1.398 . S
C2244 C2245 1.391 . S
C2245 H2233 0.950 . S
C2245 C2241 1.393 . S
C2245 C2244 1.391 . S
C2246 H2236 0.950 . S
C2246 C2247 1.386 . S
C2246 C2248 1.391 . S
C2247 C2246 1.386 . S
C2247 C2251 1.393 . S
C2248 H2237 0.950 . S
C2248 C2246 1.391 . S
C2248 C2249 1.400 . S
C2249 C2243 1.491 . S
C2249 C2248 1.400 . S
C2249 C2250 1.398 . S
C2250 H2238 0.950 . S
C2250 C2249 1.398 . S
C2250 C2251 1.391 . S
C2251 H2239 0.950 . S
C2251 C2247 1.393 . S
C2251 C2250 1.391 . S
H2252 C2260 0.950 . S
H2253 C2265 0.950 . S
H2254 C2262 0.950 . S
H2255 C2264 0.950 . S
H2256 C2266 0.950 . S
H2257 C2268 0.950 . S
H2258 C2270 0.950 . S
H2259 C2271 0.950 . S
C2260 H2252 0.950 . S
C2260 C2261 1.386 . S
C2260 C2262 1.391 . S
C2261 C2260 1.386 . S
C2261 C2265 1.393 . S
C2262 H2254 0.950 . S
C2262 C2260 1.391 . S
C2262 C2263 1.400 . S
C2263 C2262 1.400 . S
C2263 C2264 1.398 . S
C2263 C2269 1.491 . S
C2264 H2255 0.950 . S
C2264 C2263 1.398 . S
C2264 C2265 1.391 . S
C2265 H2253 0.950 . S
C2265 C2261 1.393 . S
C2265 C2264 1.391 . S
C2266 H2256 0.950 . S
C2266 C2267 1.386 . S
C2266 C2268 1.391 . S
C2267 C2266 1.386 . S
C2267 C2271 1.393 . S
C2268 H2257 0.950 . S
C2268 C2266 1.391 . S
C2268 C2269 1.400 . S
C2269 C2263 1.491 . S
C2269 C2268 1.400 . S
C2269 C2270 1.398 . S
C2270 H2258 0.950 . S
C2270 C2269 1.398 . S
C2270 C2271 1.391 . S
C2271 H2259 0.950 . S
C2271 C2267 1.393 . S
C2271 C2270 1.391 . S
H2272 C2280 0.950 . S
H2273 C2285 0.950 . S
H2274 C2282 0.950 . S
H2275 C2284 0.950 . S
H2276 C2286 0.950 . S
H2277 C2288 0.950 . S
H2278 C2290 0.950 . S
H2279 C2291 0.950 . S
C2280 H2272 0.950 . S
C2280 C2281 1.386 . S
C2280 C2282 1.391 . S
C2281 C2280 1.386 . S
C2281 C2285 1.393 . S
C2282 H2274 0.950 . S
C2282 C2280 1.391 . S
C2282 C2283 1.400 . S
C2283 C2282 1.400 . S
C2283 C2284 1.398 . S
C2283 C2289 1.491 . S
C2284 H2275 0.950 . S
C2284 C2283 1.398 . S
C2284 C2285 1.391 . S
C2285 H2273 0.950 . S
C2285 C2281 1.393 . S
C2285 C2284 1.391 . S
C2286 H2276 0.950 . S
C2286 C2287 1.386 . S
C2286 C2288 1.391 . S
C2287 C2286 1.386 . S
C2287 C2291 1.393 . S
C2288 H2277 0.950 . S
C2288 C2286 1.391 . S
C2288 C2289 1.400 . S
C2289 C2283 1.491 . S
C2289 C2288 1.400 . S
C2289 C2290 1.398 . S
C2290 H2278 0.950 . S
C2290 C2289 1.398 . S
C2290 C2291 1.391 . S
C2291 H2279 0.950 . S
C2291 C2287 1.393 . S
C2291 C2290 1.391 . S
H2292 C2300 0.950 . S
H2293 C2305 0.950 . S
H2294 C2302 0.950 . S
H2295 C2304 0.950 . S
H2296 C2306 0.950 . S
H2297 C2308 0.950 . S
H2298 C2310 0.950 . S
H2299 C2311 0.950 . S
C2300 H2292 0.950 . S
C2300 C2301 1.386 . S
C2300 C2302 1.391 . S
C2301 C2300 1.386 . S
C2301 C2305 1.393 . S
C2302 H2294 0.950 . S
C2302 C2300 1.391 . S
C2302 C2303 1.400 . S
C2303 C2302 1.400 . S
C2303 C2304 1.398 . S
C2303 C2309 1.491 . S
C2304 H2295 0.950 . S
C2304 C2303 1.398 . S
C2304 C2305 1.391 . S
C2305 H2293 0.950 . S
C2305 C2301 1.393 . S
C2305 C2304 1.391 . S
C2306 H2296 0.950 . S
C2306 C2307 1.386 . S
C2306 C2308 1.391 . S
C2307 C2306 1.386 . S
C2307 C2311 1.393 . S
C2308 H2297 0.950 . S
C2308 C2306 1.391 . S
C2308 C2309 1.400 . S
C2309 C2303 1.491 . S
C2309 C2308 1.400 . S
C2309 C2310 1.398 . S
C2310 H2298 0.950 . S
C2310 C2309 1.398 . S
C2310 C2311 1.391 . S
C2311 H2299 0.950 . S
C2311 C2307 1.393 . S
C2311 C2310 1.391 . S
H2312 C2320 0.950 . S
H2313 C2325 0.950 . S
H2314 C2322 0.950 . S
H2315 C2324 0.950 . S
H2316 C2326 0.950 . S
H2317 C2328 0.950 . S
H2318 C2330 0.950 . S
H2319 C2331 0.950 . S
C2320 H2312 0.950 . S
C2320 C2321 1.386 . S
C2320 C2322 1.391 . S
C2321 C2320 1.386 . S
C2321 C2325 1.393 . S
C2322 H2314 0.950 . S
C2322 C2320 1.391 . S
C2322 C2323 1.400 . S
C2323 C2322 1.400 . S
C2323 C2324 1.398 . S
C2323 C2329 1.491 . S
C2324 H2315 0.950 . S
C2324 C2323 1.398 . S
C2324 C2325 1.391 . S
C2325 H2313 0.950 . S
C2325 C2321 1.393 . S
C2325 C2324 1.391 . S
C2326 H2316 0.950 . S
C2326 C2327 1.386 . S
C2326 C2328 1.391 . S
C2327 C2326 1.386 . S
C2327 C2331 1.393 . S
C2328 H2317 0.950 . S
C2328 C2326 1.391 . S
C2328 C2329 1.400 . S
C2329 C2323 1.491 . S
C2329 C2328 1.400 . S
C2329 C2330 1.398 . S
C2330 H2318 0.950 . S
C2330 C2329 1.398 . S
C2330 C2331 1.391 . S
C2331 H2319 0.950 . S
C2331 C2327 1.393 . S
C2331 C2330 1.391 . S
H2332 C2340 0.950 . S
H2333 C2345 0.950 . S
H2334 C2342 0.950 . S
H2335 C2344 0.950 . S
H2336 C2346 0.950 . S
H2337 C2348 0.950 . S
H2338 C2350 0.950 . S
H2339 C2351 0.950 . S
C2340 H2332 0.950 . S
C2340 C2341 1.386 . S
C2340 C2342 1.391 . S
C2341 C2340 1.386 . S
C2341 C2345 1.393 . S
C2342 H2334 0.950 . S
C2342 C2340 1.391 . S
C2342 C2343 1.400 . S
C2343 C2342 1.400 . S
C2343 C2344 1.398 . S
C2343 C2349 1.491 . S
C2344 H2335 0.950 . S
C2344 C2343 1.398 . S
C2344 C2345 1.391 . S
C2345 H2333 0.950 . S
C2345 C2341 1.393 . S
C2345 C2344 1.391 . S
C2346 H2336 0.950 . S
C2346 C2347 1.386 . S
C2346 C2348 1.391 . S
C2347 C2346 1.386 . S
C2347 C2351 1.393 . S
C2348 H2337 0.950 . S
C2348 C2346 1.391 . S
C2348 C2349 1.400 . S
C2349 C2343 1.491 . S
C2349 C2348 1.400 . S
C2349 C2350 1.398 . S
C2350 H2338 0.950 . S
C2350 C2349 1.398 . S
C2350 C2351 1.391 . S
C2351 H2339 0.950 . S
C2351 C2347 1.393 . S
C2351 C2350 1.391 . S
H2352 C2360 0.950 . S
H2353 C2365 0.950 . S
H2354 C2362 0.950 . S
H2355 C2364 0.950 . S
H2356 C2366 0.950 . S
H2357 C2368 0.950 . S
H2358 C2370 0.950 . S
H2359 C2371 0.950 . S
C2360 H2352 0.950 . S
C2360 C2361 1.386 . S
C2360 C2362 1.391 . S
C2361 C2360 1.386 . S
C2361 C2365 1.393 . S
C2362 H2354 0.950 . S
C2362 C2360 1.391 . S
C2362 C2363 1.400 . S
C2363 C2362 1.400 . S
C2363 C2364 1.398 . S
C2363 C2369 1.491 . S
C2364 H2355 0.950 . S
C2364 C2363 1.398 . S
C2364 C2365 1.391 . S
C2365 H2353 0.950 . S
C2365 C2361 1.393 . S
C2365 C2364 1.391 . S
C2366 H2356 0.950 . S
C2366 C2367 1.385 1_655 S
C2366 C2368 1.391 . S
C2367 C2366 1.385 1_455 S
C2367 C2371 1.390 . S
C2368 H2357 0.950 . S
C2368 C2366 1.391 . S
C2368 C2369 1.400 . S
C2369 C2363 1.491 . S
C2369 C2368 1.400 . S
C2369 C2370 1.399 1_655 S
C2370 H2358 0.950 . S
C2370 C2369 1.399 1_455 S
C2370 C2371 1.390 . S
C2371 H2359 0.950 . S
C2371 C2367 1.390 . S
C2371 C2370 1.390 . S
H2372 C2380 0.950 . S
H2373 C2385 0.950 . S
H2374 C2382 0.950 . S
H2375 C2384 0.950 . S
H2376 C2386 0.950 . S
H2377 C2388 0.950 . S
H2378 C2390 0.950 . S
H2379 C2391 0.950 . S
C2380 H2372 0.950 . S
C2380 C2381 1.386 . S
C2380 C2382 1.391 . S
C2381 C2380 1.386 . S
C2381 C2385 1.393 . S
C2382 H2374 0.950 . S
C2382 C2380 1.391 . S
C2382 C2383 1.400 . S
C2383 C2382 1.400 . S
C2383 C2384 1.398 . S
C2383 C2389 1.491 . S
C2384 H2375 0.950 . S
C2384 C2383 1.398 . S
C2384 C2385 1.391 . S
C2385 H2373 0.950 . S
C2385 C2381 1.393 . S
C2385 C2384 1.391 . S
C2386 H2376 0.950 . S
C2386 C2387 1.386 . S
C2386 C2388 1.391 . S
C2387 C2386 1.386 . S
C2387 C2391 1.393 . S
C2388 H2377 0.950 . S
C2388 C2386 1.391 . S
C2388 C2389 1.400 . S
C2389 C2383 1.491 . S
C2389 C2388 1.400 . S
C2389 C2390 1.398 . S
C2390 H2378 0.950 . S
C2390 C2389 1.398 . S
C2390 C2391 1.391 . S
C2391 H2379 0.950 . S
C2391 C2387 1.393 . S
C2391 C2390 1.391 . S
H2392 C2400 0.950 . S
H2393 C2405 0.950 . S
H2394 C2402 0.950 . S
H2395 C2404 0.950 . S
H2396 C2406 0.951 1_565 S
H2397 C2408 0.950 . S
H2398 C2410 0.950 . S
H2399 C2411 0.950 . S
C2400 H2392 0.950 . S
C2400 C2401 1.386 . S
C2400 C2402 1.391 . S
C2401 C2400 1.386 . S
C2401 C2405 1.393 . S
C2402 H2394 0.950 . S
C2402 C2400 1.391 . S
C2402 C2403 1.400 . S
C2403 C2402 1.400 . S
C2403 C2404 1.398 . S
C2403 C2409 1.491 . S
C2404 H2395 0.950 . S
C2404 C2403 1.398 . S
C2404 C2405 1.391 . S
C2405 H2393 0.950 . S
C2405 C2401 1.393 . S
C2405 C2404 1.391 . S
C2406 H2396 0.951 1_545 S
C2406 C2407 1.381 . S
C2406 C2408 1.371 . S
C2407 C2406 1.381 . S
C2407 C2411 1.397 . S
C2408 H2397 0.950 . S
C2408 C2406 1.371 . S
C2408 C2409 1.400 . S
C2409 C2403 1.491 . S
C2409 C2408 1.400 . S
C2409 C2410 1.398 . S
C2410 H2398 0.950 . S
C2410 C2409 1.398 . S
C2410 C2411 1.391 . S
C2411 H2399 0.950 . S
C2411 C2407 1.397 . S
C2411 C2410 1.391 . S
C981 C4 1.490 1_655 S
C987 C817 1.493 . S
C1001 C38 1.679 . S
C1007 C842 1.657 . S
C1027 C853 1.514 . S
C1021 C74 1.512 . S
C1041 C76 1.499 . S
C1047 C878 1.485 . S
C1061 C2 1.605 . S
C1067 C896 1.608 . S
C1081 C40 1.518 . S
C1087 C907 1.493 . S
C1101 C110 1.553 . S
C1107 C889 1.587 1_455 S
C1127 C914 1.485 . S
C1121 C148 1.491 . S
C1147 C871 1.557 1_565 S
C1141 C182 1.566 1_565 S
C1161 C184 1.528 . S
C1167 C860 1.545 1_545 S
C1187 C824 1.469 . S
C1181 C112 1.456 1_655 S
C1201 C146 1.596 . S
C1207 C835 1.595 . S
C1221 C220 1.579 . S
C1227 C925 1.566 . S
C1241 C254 1.712 . S
C1247 C950 1.693 . S
C1267 C961 1.577 . S
C1261 C290 1.610 . S
C1281 C292 1.544 . S
C1287 C662 1.530 . S
C1301 C218 1.659 . S
C1307 C680 1.646 . S
C1321 C256 1.542 . S
C1327 C691 1.514 . S
C1341 C326 1.621 . S
C1347 C673 1.612 . S
C1361 C364 1.522 . S
C1367 C698 1.517 . S
C1387 C655 1.620 . S
C1381 C398 1.614 . S
C1407 C968 1.590 . S
C1401 C400 1.591 . S
C1427 C932 1.480 . S
C1421 C328 1.484 . S
C1447 C943 1.620 . S
C1441 C362 1.632 . S
C1461 C436 1.542 . S
C1467 C709 1.523 . S
C1481 C470 1.704 . S
C1487 C734 1.680 . S
C1501 C506 1.610 . S
C1507 C745 1.579 . S
C1521 C508 1.564 . S
C1527 C770 1.555 . S
C1547 C788 1.645 . S
C1541 C434 1.663 . S
C1567 C799 1.539 . S
C1561 C472 1.559 . S
C1587 C781 1.648 . S
C1581 C542 1.659 . S
C1607 C806 1.504 . S
C1601 C580 1.521 . S
C1621 C614 1.602 . S
C1627 C763 1.593 . S
C1647 C752 1.549 . S
C1641 C616 1.549 . S
C1661 C544 1.480 . S
C1667 C716 1.483 . S
C1687 C727 1.600 . S
C1681 C578 1.609 . S
C1707 C664 1.447 . S
C1701 C14 1.489 . S
C1721 C39 1.473 . S
C1727 C682 1.415 . S
C1747 C692 1.385 . S
C1741 C75 1.460 . S
C1767 C710 1.313 . S
C1761 C86 1.349 . S
C1787 C736 1.425 . S
C1781 C3 1.499 . S
C1807 C746 1.397 . S
C1801 C50 1.431 . S
C1821 C111 1.527 . S
C1827 C754 1.443 . S
C1841 C158 1.413 . S
C1847 C718 1.366 . S
C1861 C183 1.595 . S
C1867 C728 1.518 . S
C1881 C194 1.502 . S
C1887 C674 1.485 . S
C1907 C700 1.354 . S
C1901 C122 1.433 . S
C1921 C147 1.443 . S
C1927 C656 1.369 . S
C1947 C772 1.419 . S
C1941 C230 1.463 . S
C1961 C255 1.540 . S
C1967 C790 1.463 . S
C1981 C291 1.486 . S
C1987 C800 1.415 . S
C2007 C818 1.318 . S
C2001 C302 1.320 . S
C2021 C219 1.499 . S
C2027 C844 1.444 . S
C2041 C266 1.374 . S
C2047 C854 1.400 . S
C2061 C327 1.410 . S
C2067 C862 1.330 . S
C2081 C374 1.367 . S
C2087 C826 1.359 . S
C2107 C836 1.503 . S
C2101 C399 1.580 . S
C2121 C410 1.490 . S
C2127 C782 1.478 . S
C2141 C338 1.488 . S
C2147 C808 1.406 . S
C2167 C764 1.424 . S
C2161 C363 1.505 . S
C2187 C880 1.403 . S
C2181 C446 1.392 . S
C2201 C471 1.450 . S
C2207 C898 1.388 . S
C2221 C507 1.443 . S
C2227 C908 1.372 . S
C2247 C926 1.323 . S
C2241 C518 1.346 . S
C2267 C952 1.482 . S
C2261 C435 1.548 . S
C2281 C482 1.488 . S
C2287 C962 1.482 . S
C2301 C543 1.495 . S
C2307 C970 1.409 . S
C2321 C590 1.473 . S
C2327 C934 1.440 . S
C2347 C944 1.525 . S
C2341 C615 1.617 . S
C2367 C890 1.384 . S
C2361 C626 1.388 . S
C2387 C916 1.403 . S
C2381 C554 1.439 . S
C2401 C579 1.408 . S
C2407 C872 1.382 1_545 S
