# Generated by pormake.
# Topology csq, (4,8)-cn, num edge types: 1
# Building blocks:
#     Node 0, Type 0, BuildingBlock: GIZVER_clean_linker_0, # of connection points: 4
#     Node 1, Type 0, BuildingBlock: GIZVER_clean_linker_0, # of connection points: 4
#     Node 2, Type 0, BuildingBlock: GIZVER_clean_linker_0, # of connection points: 4
#     Node 3, Type 0, BuildingBlock: GIZVER_clean_linker_0, # of connection points: 4
#     Node 4, Type 0, BuildingBlock: GIZVER_clean_linker_0, # of connection points: 4
#     Node 5, Type 0, BuildingBlock: GIZVER_clean_linker_0, # of connection points: 4
#     Node 6, Type 1, BuildingBlock: TAGTUT_clean_sbu_3, # of connection points: 8
#     Node 7, Type 1, BuildingBlock: TAGTUT_clean_sbu_3, # of connection points: 8
#     Node 8, Type 1, BuildingBlock: TAGTUT_clean_sbu_3, # of connection points: 8
#     Edge 9, Type (0, 1), BuildingBlock: EZIPEK_clean_linker_0, # of connection points: 2
#     Edge 10, Type (0, 1), BuildingBlock: EZIPEK_clean_linker_0, # of connection points: 2
#     Edge 11, Type (0, 1), BuildingBlock: EZIPEK_clean_linker_0, # of connection points: 2
#     Edge 12, Type (0, 1), BuildingBlock: EZIPEK_clean_linker_0, # of connection points: 2
#     Edge 13, Type (0, 1), BuildingBlock: EZIPEK_clean_linker_0, # of connection points: 2
#     Edge 14, Type (0, 1), BuildingBlock: EZIPEK_clean_linker_0, # of connection points: 2
#     Edge 15, Type (0, 1), BuildingBlock: EZIPEK_clean_linker_0, # of connection points: 2
#     Edge 16, Type (0, 1), BuildingBlock: EZIPEK_clean_linker_0, # of connection points: 2
#     Edge 17, Type (0, 1), BuildingBlock: EZIPEK_clean_linker_0, # of connection points: 2
#     Edge 18, Type (0, 1), BuildingBlock: EZIPEK_clean_linker_0, # of connection points: 2
#     Edge 19, Type (0, 1), BuildingBlock: EZIPEK_clean_linker_0, # of connection points: 2
#     Edge 20, Type (0, 1), BuildingBlock: EZIPEK_clean_linker_0, # of connection points: 2
#     Edge 21, Type (0, 1), BuildingBlock: EZIPEK_clean_linker_0, # of connection points: 2
#     Edge 22, Type (0, 1), BuildingBlock: EZIPEK_clean_linker_0, # of connection points: 2
#     Edge 23, Type (0, 1), BuildingBlock: EZIPEK_clean_linker_0, # of connection points: 2
#     Edge 24, Type (0, 1), BuildingBlock: EZIPEK_clean_linker_0, # of connection points: 2
#     Edge 25, Type (0, 1), BuildingBlock: EZIPEK_clean_linker_0, # of connection points: 2
#     Edge 26, Type (0, 1), BuildingBlock: EZIPEK_clean_linker_0, # of connection points: 2
#     Edge 27, Type (0, 1), BuildingBlock: EZIPEK_clean_linker_0, # of connection points: 2
#     Edge 28, Type (0, 1), BuildingBlock: EZIPEK_clean_linker_0, # of connection points: 2
#     Edge 29, Type (0, 1), BuildingBlock: EZIPEK_clean_linker_0, # of connection points: 2
#     Edge 30, Type (0, 1), BuildingBlock: EZIPEK_clean_linker_0, # of connection points: 2
#     Edge 31, Type (0, 1), BuildingBlock: EZIPEK_clean_linker_0, # of connection points: 2
#     Edge 32, Type (0, 1), BuildingBlock: EZIPEK_clean_linker_0, # of connection points: 2
# Relax obj value: 0.040
# Max RMSD: 0.110
# Mean RMSD: 0.081
data_MOF--net-csq--node1-TAGTUT_clean_sbu_3--node2-GIZVER_clean_linker_0--edge1-EZIPEK_clean_linker_0
_symmetry_space_group_name_H-M    P1
_symmetry_Int_Tables_number       1
_symmetry_cell_setting            triclinic
loop_
_symmetry_equiv_pos_as_xyz
'x, y, z'
_cell_length_a     41.54212
_cell_length_b     40.948744
_cell_length_c     13.835669
_cell_angle_alpha  93.696445
_cell_angle_beta   93.494152
_cell_angle_gamma 119.79182
loop_
_atom_site_label
_atom_site_type_symbol
_atom_site_fract_x
_atom_site_fract_y
_atom_site_fract_z
_atom_type_partial_charge
H0 H 0.21588 0.48652 0.0038 0.0
H1 H 0.24659 0.52352 0.31004 0.0
H2 H 0.1393 0.4281 0.20999 0.0
H3 H 0.2758 0.54077 0.05996 0.0
H4 H 0.28538 0.56043 0.1843 0.0
H5 H 0.31544 0.51883 0.00389 0.0
H6 H 0.38694 0.50291 0.20832 0.0
H7 H 0.30058 0.51936 0.31127 0.0
C8 C 0.20985 0.48164 0.07829 0.0
C9 C 0.17359 0.45476 0.09761 0.0
C10 C 0.23773 0.50403 0.15604 0.0
C11 C 0.22745 0.50267 0.25159 0.0
C12 C 0.19093 0.4771 0.26933 0.0
C13 C 0.16689 0.44933 0.19469 0.0
C14 C 0.27635 0.53385 0.13629 0.0
C15 C 0.30518 0.52198 0.15553 0.0
C16 C 0.32383 0.51725 0.07834 0.0
C17 C 0.35372 0.51087 0.09808 0.0
C18 C 0.36434 0.50867 0.19348 0.0
C19 C 0.3442 0.5096 0.26878 0.0
C20 C 0.31514 0.51727 0.25118 0.0
H21 H 0.78986 0.246 0.93076 0.0
H22 H 0.82693 0.26198 0.23717 0.0
H23 H 0.87954 0.35348 0.06263 0.0
H24 H 0.77705 0.19241 0.01578 0.0
H25 H 0.79732 0.19853 0.13721 0.0
H26 H 0.71212 0.16909 0.9875 0.0
H27 H 0.64858 0.14346 0.23115 0.0
H28 H 0.76793 0.2132 0.27814 0.0
C29 C 0.80661 0.26447 -0.00436 0.0
C30 C 0.8348 0.3015 0.98658 0.0
C31 C 0.80378 0.24971 0.08587 0.0
C32 C 0.82745 0.27339 0.16843 0.0
C33 C 0.85396 0.31117 0.16036 0.0
C34 C 0.85715 0.32507 0.06982 0.0
C35 C 0.78133 0.20757 0.08934 0.0
C36 C 0.74428 0.19531 0.12771 0.0
C37 C 0.71104 0.17408 0.06483 0.0
C38 C 0.67662 0.15589 0.10303 0.0
C39 C 0.67521 0.16001 0.20272 0.0
C40 C 0.70806 0.1794 0.26653 0.0
C41 C 0.74249 0.19872 0.22884 0.0
H42 H 0.56186 0.8153 0.91134 0.0
H43 H 0.57396 0.81795 0.22402 0.0
H44 H 0.52877 0.88052 0.09152 0.0
H45 H 0.61137 0.80728 0.00038 0.0
H46 H 0.61208 0.80307 0.12735 0.0
H47 H 0.58496 0.75169 0.89178 0.0
H48 H 0.53715 0.64489 0.0088 0.0
H49 H 0.55568 0.74393 0.18675 0.0
C50 C 0.55698 0.82342 0.98268 0.0
C51 C 0.54185 0.84733 -0.00843 0.0
C52 C 0.5686 0.8126 0.06653 0.0
C53 C 0.56373 0.82484 0.15896 0.0
C54 C 0.55012 0.84997 0.1681 0.0
C55 C 0.53845 0.86036 0.08435 0.0
C56 C 0.59301 0.79516 0.05909 0.0
C57 C 0.57121 0.75256 0.04007 0.0
C58 C 0.57219 0.73495 0.95053 0.0
C59 C 0.55974 0.69617 0.93953 0.0
C60 C 0.54531 0.67464 0.01676 0.0
C61 C 0.54374 0.69149 0.10615 0.0
C62 C 0.55558 0.73041 0.11667 0.0
H63 H 0.76378 0.54464 0.8524 0.0
H64 H 0.78618 0.59378 0.15159 0.0
H65 H 0.67394 0.53109 0.01439 0.0
H66 H 0.82079 0.60779 0.91372 0.0
H67 H 0.83332 0.62131 0.04064 0.0
H68 H 0.82442 0.55097 0.83398 0.0
H69 H 0.92213 0.55298 0.96499 0.0
H70 H 0.86766 0.59821 0.1332 0.0
C71 C 0.754 0.54783 0.92129 0.0
C72 C 0.71592 0.53523 0.92442 0.0
C73 C 0.77993 0.57034 0.00165 0.0
C74 C 0.7667 0.5757 0.08971 0.0
C75 C 0.72819 0.56028 0.09464 0.0
C76 C 0.70332 0.54043 0.01199 0.0
C77 C 0.82011 0.59625 0.98472 0.0
C78 C 0.8437 0.57765 0.98291 0.0
C79 C 0.84466 0.55787 0.89612 0.0
C80 C 0.87325 0.54898 0.88899 0.0
C81 C 0.89953 0.559 0.96941 0.0
C82 C 0.89651 0.57472 0.05755 0.0
C83 C 0.86888 0.5845 0.06498 0.0
H84 H 0.25577 0.77981 0.96015 0.0
H85 H 0.33279 0.80422 0.21099 0.0
H86 H 0.32914 0.89535 0.08751 0.0
H87 H 0.28389 0.73637 0.01116 0.0
H88 H 0.29877 0.742 0.13752 0.0
H89 H 0.21961 0.70425 0.95404 0.0
H90 H 0.14055 0.64915 0.15732 0.0
H91 H 0.25265 0.73638 0.26265 0.0
C92 C 0.27738 0.80061 0.01356 0.0
C93 C 0.29076 0.83967 0.01077 0.0
C94 C 0.29237 0.78774 0.08586 0.0
C95 C 0.32065 0.81389 0.1562 0.0
C96 C 0.33288 0.85247 0.15822 0.0
C97 C 0.31799 0.86512 0.08613 0.0
C98 C 0.2805 0.74648 0.08436 0.0
C99 C 0.24063 0.72302 0.10585 0.0
C100 C 0.21277 0.7018 0.02861 0.0
C101 C 0.17687 0.67486 0.04718 0.0
C102 C 0.16825 0.67057 0.14328 0.0
C103 C 0.19516 0.69289 0.22153 0.0
C104 C 0.23144 0.71955 0.20263 0.0
H105 H 0.53212 0.29702 0.07118 0.0
H106 H 0.48482 0.27263 0.34105 0.0
H107 H 0.44137 0.31469 0.1203 0.0
H108 H 0.56372 0.28559 0.20577 0.0
H109 H 0.55161 0.29167 0.32452 0.0
H110 H 0.53356 0.22211 0.11383 0.0
H111 H 0.48594 0.12647 0.27797 0.0
H112 H 0.51715 0.2367 0.41515 0.0
C113 C 0.51023 0.29354 0.11553 0.0
C114 C 0.48483 0.3048 0.08382 0.0
C115 C 0.50947 0.2813 0.20867 0.0
C116 C 0.48331 0.28063 0.26915 0.0
C117 C 0.45909 0.29406 0.24144 0.0
C118 C 0.45849 0.30318 0.14498 0.0
C119 C 0.54015 0.27508 0.25159 0.0
C120 C 0.52561 0.23378 0.26202 0.0
C121 C 0.52362 0.21023 0.18099 0.0
C122 C 0.50849 0.17141 0.18581 0.0
C123 C 0.4969 0.15649 0.27371 0.0
C124 C 0.50152 0.17979 0.35789 0.0
C125 C 0.51447 0.21849 0.35113 0.0
C126 C 0.07877 0.46973 0.50143 0.0
C127 C 0.05061 0.41599 0.82492 0.0
C128 C 0.93882 0.39593 0.7551 0.0
Mg129 Mg 0.04507 0.51815 0.38623 0.0
Mg130 Mg 0.02708 0.57179 0.53223 0.0
O131 O 0.01395 0.52212 0.48497 0.0
Mg132 Mg 0.02079 0.4942 0.58679 0.0
O133 O 0.02838 0.46495 0.68483 0.0
Mg134 Mg 0.00711 0.41397 0.6112 0.0
Mg135 Mg 0.01509 0.46734 0.80923 0.0
C136 C 0.96681 0.52549 0.66835 0.0
O137 O 0.05969 0.54757 0.69022 0.0
O138 O 0.01468 0.54239 0.29179 0.0
O139 O 0.04373 0.52859 0.8386 0.0
O140 O 0.09378 0.58037 0.42546 0.0
O141 O 0.00691 0.5813 0.39964 0.0
O142 O 0.08605 0.61092 0.55268 0.0
O143 O 0.98248 0.43808 0.49621 0.0
O144 O 0.99586 0.45678 0.34848 0.0
C145 C 0.97717 0.43123 0.40347 0.0
C146 C 1.00319 0.56576 0.3135 0.0
O147 O 0.97164 0.49687 0.65319 0.0
O148 O 0.03687 0.39948 0.73801 0.0
O149 O 0.98939 0.55818 0.64301 0.0
O150 O 0.95281 0.38815 0.68374 0.0
O151 O 0.04527 0.44213 0.86214 0.0
O152 O 0.95693 0.42683 0.81113 0.0
O153 O 0.06842 0.49461 0.50543 0.0
O154 O 0.06113 0.43989 0.54322 0.0
C155 C 0.10556 0.60984 0.48639 0.0
C156 C 0.06231 0.55414 0.78326 0.0
C157 C 0.49147 0.06555 0.54563 0.0
C158 C 0.61624 0.07313 0.47214 0.0
C159 C 0.55322 0.95075 0.47368 0.0
Mg160 Mg 0.4277 0.0063 0.67248 0.0
Mg161 Mg 0.45178 0.96759 0.8394 0.0
O162 O 0.448 0.97217 0.70693 0.0
Mg163 Mg 0.49687 0.99918 0.65187 0.0
O164 O 0.54351 0.02655 0.59013 0.0
Mg165 Mg 0.52293 0.01341 0.45052 0.0
Mg166 Mg 0.58281 0.01821 0.6265 0.0
C167 C 0.50077 0.93299 0.77151 0.0
O168 O 0.5321 0.03172 0.79565 0.0
O169 O 0.37291 0.96188 0.73274 0.0
O170 O 0.58762 0.03586 0.77922 0.0
O171 O 0.447 0.04249 0.82253 0.0
O172 O 0.39308 0.93924 0.8523 0.0
O173 O 0.48032 0.02372 0.90865 0.0
O174 O 0.46571 0.96987 0.50262 0.0
O175 O 0.4133 0.97146 0.5239 0.0
C176 C 0.43272 0.96228 0.47164 0.0
C177 C 0.36695 0.9405 0.80163 0.0
O178 O 0.50741 0.95022 0.69395 0.0
O179 O 0.58365 0.05955 0.42513 0.0
O180 O 0.48212 0.93749 0.83633 0.0
O181 O 0.53783 0.96646 0.4282 0.0
O182 O 0.62223 0.06075 0.54953 0.0
O183 O 0.56983 0.96345 0.55968 0.0
O184 O 0.48469 0.04683 0.61993 0.0
O185 O 0.50716 0.05904 0.47625 0.0
C186 C 0.47013 0.04772 0.89536 0.0
C187 C 0.56582 0.04245 0.82803 0.0
C188 C 0.55129 0.57764 0.71692 0.0
C189 C 0.44923 0.47877 0.88562 0.0
C190 C 0.4856 0.40193 0.79792 0.0
Mg191 Mg 0.584 0.57144 0.52092 0.0
Mg192 Mg 0.53164 0.50798 0.33427 0.0
O193 O 0.54932 0.51699 0.46668 0.0
Mg194 Mg 0.51724 0.49858 0.57685 0.0
O195 O 0.48968 0.48374 0.69228 0.0
Mg196 Mg 0.53006 0.49783 0.79887 0.0
Mg197 Mg 0.44594 0.43665 0.68942 0.0
C198 C 0.48608 0.42526 0.41287 0.0
O199 O 0.46363 0.49456 0.50353 0.0
O200 O 0.62234 0.57479 0.4039 0.0
O201 O 0.41747 0.44277 0.56074 0.0
O202 O 0.55458 0.59272 0.42381 0.0
O203 O 0.58652 0.52824 0.2838 0.0
O204 O 0.51332 0.5493 0.30908 0.0
O205 O 0.56564 0.49806 0.66915 0.0
O206 O 0.61187 0.54852 0.61671 0.0
C207 C 0.6005 0.51927 0.66225 0.0
C208 C 0.61833 0.55531 0.32313 0.0
O209 O 0.49287 0.43873 0.50301 0.0
O210 O 0.48521 0.49571 0.89906 0.0
O211 O 0.49564 0.44622 0.34203 0.0
O212 O 0.51128 0.43637 0.81791 0.0
O213 O 0.42975 0.45486 0.81244 0.0
O214 O 0.45667 0.39289 0.73938 0.0
O215 O 0.54241 0.56066 0.63153 0.0
O216 O 0.54876 0.55973 0.79028 0.0
C217 C 0.52899 0.58276 0.35434 0.0
C218 C 0.4288 0.47028 0.50734 0.0
C219 C 0.16736 0.51327 0.37048 0.0
C220 C 0.17361 0.48218 0.35606 0.0
C221 C 0.11743 0.44308 0.43061 0.0
C222 C 0.11226 0.47476 0.4532 0.0
N223 N 0.14475 0.54338 0.47995 0.0
N224 N 0.16292 0.42339 0.40951 0.0
C225 C 0.14099 0.51101 0.43442 0.0
C226 C 0.1521 0.44967 0.4023 0.0
N227 N 0.18449 0.54408 0.32016 0.0
N228 N 0.08876 0.40654 0.4252 0.0
H229 H 0.18804 0.42767 0.38606 0.0
H230 H 0.14884 0.39983 0.44736 0.0
H231 H 0.06098 0.39908 0.42595 0.0
H232 H 0.09183 0.38346 0.40341 0.0
H233 H 0.17708 0.56501 0.32189 0.0
H234 H 0.20377 0.54762 0.27149 0.0
H235 H 0.16742 0.56967 0.47167 0.0
H236 H 0.12935 0.54381 0.53612 0.0
C237 C 0.67889 0.17389 0.41739 0.0
C238 C 0.70485 0.16876 0.36703 0.0
C239 C 0.67814 0.10406 0.40688 0.0
C240 C 0.64821 0.10684 0.44236 0.0
N241 N 0.62601 0.14664 0.51228 0.0
N242 N 0.74128 0.13815 0.36229 0.0
C243 C 0.65063 0.14269 0.45855 0.0
C244 C 0.70887 0.13705 0.38012 0.0
N245 N 0.67924 0.2073 0.41502 0.0
N246 N 0.67628 0.06978 0.39361 0.0
H247 H 0.76424 0.1627 0.34485 0.0
H248 H 0.74674 0.11654 0.37579 0.0
H249 H 0.65384 0.04486 0.41142 0.0
H250 H 0.69559 0.06561 0.35832 0.0
H251 H 0.65873 0.21223 0.43995 0.0
H252 H 0.70039 0.2299 0.3846 0.0
H253 H 0.6281 0.17259 0.53258 0.0
H254 H 0.60486 0.12411 0.5426 0.0
C255 C 0.4987 0.63457 0.18419 0.0
C256 C 0.5339 0.66831 0.18986 0.0
C257 C 0.55135 0.65174 0.3423 0.0
C258 C 0.52307 0.61334 0.31691 0.0
N259 N 0.46311 0.57051 0.22816 0.0
N260 N 0.59587 0.7076 0.27593 0.0
C261 C 0.49434 0.60543 0.24264 0.0
C262 C 0.56073 0.67697 0.27024 0.0
N263 N 0.46938 0.63106 0.1254 0.0
N264 N 0.56836 0.66455 0.43521 0.0
H265 H 0.60522 0.72606 0.22255 0.0
H266 H 0.61684 0.71235 0.32995 0.0
H267 H 0.55873 0.64814 0.49279 0.0
H268 H 0.5878 0.69298 0.4568 0.0
H269 H 0.44203 0.60979 0.12938 0.0
H270 H 0.47203 0.65205 0.08209 0.0
H271 H 0.44377 0.56157 0.16685 0.0
H272 H 0.45674 0.55076 0.27836 0.0
C273 C 0.95982 0.60599 0.14668 0.0
C274 C 0.92177 0.57741 0.14108 0.0
C275 C 0.93765 0.5413 0.24862 0.0
C276 C 0.97605 0.56778 0.24519 0.0
N277 N 0.02465 0.62394 0.18892 0.0
N278 N 0.87386 0.51681 0.18022 0.0
C279 C 0.98747 0.59994 0.19397 0.0
C280 C 0.91044 0.54503 0.19155 0.0
N281 N 0.9691 0.63863 0.10581 0.0
N282 N 0.92718 0.51309 0.30843 0.0
H283 H 0.85273 0.51941 0.14331 0.0
H284 H 0.86459 0.49012 0.20311 0.0
H285 H 0.9461 0.50788 0.34769 0.0
H286 H 0.89984 0.49615 0.32402 0.0
H287 H 0.99596 0.66192 0.11205 0.0
H288 H 0.94896 0.64346 0.0717 0.0
H289 H 0.03511 0.64634 0.14634 0.0
H290 H 0.0453 0.61974 0.22253 0.0
C291 C 0.39521 0.91071 0.21609 0.0
C292 C 0.361 0.87967 0.23765 0.0
C293 C 0.38184 0.89786 0.41092 0.0
C294 C 0.41189 0.93256 0.38989 0.0
N295 N 0.44672 0.97373 0.27235 0.0
N296 N 0.31883 0.84873 0.35818 0.0
C297 C 0.41872 0.93949 0.2923 0.0
C298 C 0.35353 0.87442 0.33585 0.0
N299 N 0.40572 0.91209 0.12408 0.0
N300 N 0.38062 0.88698 0.50248 0.0
H301 H 0.29615 0.83259 0.30575 0.0
H302 H 0.31162 0.84662 0.42933 0.0
H303 H 0.40155 0.90322 0.55927 0.0
H304 H 0.36117 0.85999 0.51827 0.0
H305 H 0.43175 0.9324 0.10646 0.0
H306 H 0.3899 0.89074 0.06746 0.0
H307 H 0.4504 0.98177 0.20214 0.0
H308 H 0.46468 0.99505 0.32691 0.0
C309 C 0.46335 0.32296 0.40979 0.0
C310 C 0.44317 0.30879 0.31713 0.0
C311 C 0.43554 0.36421 0.3184 0.0
C312 C 0.46724 0.38352 0.38973 0.0
N313 N 0.51115 0.37915 0.50632 0.0
N314 N 0.39021 0.30379 0.22529 0.0
C315 C 0.48061 0.36221 0.43857 0.0
C316 C 0.42221 0.32542 0.28603 0.0
N317 N 0.46426 0.29868 0.47102 0.0
N318 N 0.41935 0.3831 0.2796 0.0
H319 H 0.38141 0.27546 0.20297 0.0
H320 H 0.37183 0.31282 0.20284 0.0
H321 H 0.42724 0.41083 0.30525 0.0
H322 H 0.39862 0.37163 0.22105 0.0
H323 H 0.47779 0.30754 0.54149 0.0
H324 H 0.44806 0.2694 0.45287 0.0
H325 H 0.52285 0.36421 0.53646 0.0
H326 H 0.52707 0.40826 0.52545 0.0
C327 C 0.49813 0.84624 0.85638 0.0
C328 C 0.53451 0.8639 0.90624 0.0
C329 C 0.55227 0.9207 0.82326 0.0
C330 C 0.51421 0.90617 0.79028 0.0
N331 N 0.45149 0.85374 0.76059 0.0
N332 N 0.59745 0.91657 0.9339 0.0
C333 C 0.48743 0.8681 0.80077 0.0
C334 C 0.56221 0.90045 0.88685 0.0
N335 N 0.47389 0.80891 0.86428 0.0
N336 N 0.57868 0.95402 0.79462 0.0
H337 H 0.60608 0.90183 0.97731 0.0
H338 H 0.6177 0.94486 0.93358 0.0
H339 H 0.57177 0.96871 0.74701 0.0
H340 H 0.60728 0.96516 0.80975 0.0
H341 H 0.44752 0.79327 0.82583 0.0
H342 H 0.48135 0.79268 0.90512 0.0
H343 H 0.42928 0.82771 0.77283 0.0
H344 H 0.44384 0.86866 0.71493 0.0
C345 C 0.69556 0.54579 0.75944 0.0
C346 C 0.68909 0.52214 0.83523 0.0
C347 C 0.62293 0.48389 0.77039 0.0
C348 C 0.62956 0.51087 0.70343 0.0
N349 N 0.67469 0.54656 0.59416 0.0
N350 N 0.65039 0.46132 0.89091 0.0
C351 C 0.6668 0.53472 0.68411 0.0
C352 C 0.65384 0.48847 0.83315 0.0
N353 N 0.72708 0.58041 0.76248 0.0
N354 N 0.58798 0.45382 0.77223 0.0
H355 H 0.67314 0.46404 0.93476 0.0
H356 H 0.62625 0.43515 0.88984 0.0
H357 H 0.56709 0.44545 0.71494 0.0
H358 H 0.58024 0.43622 0.82772 0.0
H359 H 0.73035 0.59901 0.71079 0.0
H360 H 0.74786 0.59263 0.82077 0.0
H361 H 0.70197 0.56246 0.57651 0.0
H362 H 0.65414 0.53598 0.53493 0.0
C363 C 0.15613 0.62109 0.91639 0.0
C364 C 0.14921 0.64789 0.96696 0.0
C365 C 0.08547 0.61595 0.88508 0.0
C366 C 0.09313 0.59029 0.83197 0.0
N367 N 0.13836 0.57412 0.77854 0.0
N368 N 0.11061 0.67605 0.98507 0.0
C369 C 0.12948 0.59511 0.84061 0.0
C370 C 0.11486 0.64702 0.94651 0.0
N371 N 0.18659 0.61821 0.94585 0.0
N372 N 0.04995 0.60995 0.87882 0.0
H373 H 0.13185 0.69938 0.02948 0.0
H374 H 0.0874 0.67868 0.96642 0.0
H375 H 0.0283 0.58846 0.83087 0.0
H376 H 0.04154 0.62491 0.92444 0.0
H377 H 0.19051 0.59623 0.91889 0.0
H378 H 0.20615 0.63529 0.00429 0.0
H379 H 0.16561 0.57975 0.77497 0.0
H380 H 0.11939 0.55337 0.72445 0.0
C381 C 0.48756 0.14227 0.00965 0.0
C382 C 0.50636 0.14564 0.10202 0.0
C383 C 0.50204 0.08507 0.0608 0.0
C384 C 0.48576 0.08273 0.96483 0.0
N385 N 0.48205 0.12054 0.8405 0.0
N386 N 0.54641 0.12865 0.19274 0.0
C387 C 0.48449 0.11492 0.93622 0.0
C388 C 0.5192 0.12014 0.11901 0.0
N389 N 0.47088 0.16313 -0.00771 0.0
N390 N 0.49848 0.05404 0.10136 0.0
H391 H 0.56005 0.15481 0.23534 0.0
H392 H 0.55792 0.11139 0.2032 0.0
H393 H 0.48054 0.02629 0.07123 0.0
H394 H 0.50884 0.0557 0.17325 0.0
H395 H 0.45468 0.15879 0.92693 0.0
H396 H 0.46983 0.18164 0.04555 0.0
H397 H 0.48303 0.14494 0.81892 0.0
H398 H 0.4849 0.10411 0.78462 0.0
C399 C 0.36987 0.46564 0.02224 0.0
C400 C 0.37251 0.50148 0.02248 0.0
C401 C 0.42747 0.52385 0.93282 0.0
C402 C 0.42797 0.48995 0.94723 0.0
N403 N 0.4025 0.43052 0.01542 0.0
N404 N 0.40204 0.56449 0.97432 0.0
C405 C 0.3999 0.46139 -0.00518 0.0
C406 C 0.40064 0.5305 0.97575 0.0
N407 N 0.3385 0.43586 0.04952 0.0
N408 N 0.45173 0.54889 0.87541 0.0
H409 H 0.382 0.56956 0.00218 0.0
H410 H 0.42364 0.58815 0.94921 0.0
H411 H 0.47256 0.54568 0.84549 0.0
H412 H 0.45021 0.57187 0.85279 0.0
H413 H 0.33342 0.40818 0.04397 0.0
H414 H 0.31585 0.43843 0.06864 0.0
H415 H 0.38481 0.41042 0.05832 0.0
H416 H 0.42466 0.42698 -0.0028 0.0
C417 C 0.84631 0.34556 0.85926 0.0
C418 C 0.8479 0.31417 0.89128 0.0
C419 C 0.90502 0.33241 0.81592 0.0
C420 C 0.90467 0.36498 0.78724 0.0
N421 N 0.87009 0.39666 0.7556 0.0
N422 N 0.86942 0.26969 0.86536 0.0
C423 C 0.87347 0.36952 0.7999 0.0
C424 C 0.87371 0.30459 0.85603 0.0
N425 N 0.82007 0.35335 0.89039 0.0
N426 N 0.93645 0.32954 0.81435 0.0
H427 H 0.84686 0.24854 0.89498 0.0
H428 H 0.88586 0.26033 0.83327 0.0
H429 H 0.96125 0.34995 0.79108 0.0
H430 H 0.93927 0.30854 0.84584 0.0
H431 H 0.81975 0.37809 0.87916 0.0
H432 H 0.79915 0.33503 0.93056 0.0
H433 H 0.84651 0.39946 0.75562 0.0
H434 H 0.88969 0.4142 0.71132 0.0
C435 C 0.88509 0.49948 0.82023 0.0
C436 C 0.87826 0.52927 0.80154 0.0
C437 C 0.91459 0.53968 0.66302 0.0
C438 C 0.93196 0.52078 0.70558 0.0
N439 N 0.93503 0.48558 0.83601 0.0
N440 N 0.88553 0.57705 0.69689 0.0
C441 C 0.91687 0.50025 0.7856 0.0
C442 C 0.89179 0.54854 0.71869 0.0
N443 N 0.8645 0.47428 0.88217 0.0
N444 N 0.91978 0.54904 0.57001 0.0
H445 H 0.86842 0.58401 0.73426 0.0
H446 H 0.89888 0.59485 0.64416 0.0
H447 H 0.93465 0.54102 0.52555 0.0
H448 H 0.90562 0.56055 0.53393 0.0
H449 H 0.86778 0.45143 0.89733 0.0
H450 H 0.84213 0.47496 0.91096 0.0
H451 H 0.92636 0.47298 0.89977 0.0
H452 H 0.96106 0.49008 0.82079 0.0
C453 C 0.28773 0.84541 0.83188 0.0
C454 C 0.28138 0.85558 0.92518 0.0
C455 C 0.31101 0.9216 0.89171 0.0
C456 C 0.32854 0.91255 0.81848 0.0
N457 N 0.3283 0.86586 0.70324 0.0
N458 N 0.26711 0.8978 0.01434 0.0
C459 C 0.31452 0.87429 0.78199 0.0
C460 C 0.2853 0.89187 0.94271 0.0
N461 N 0.26666 0.80913 0.78929 0.0
N462 N 0.32137 0.95852 0.91698 0.0
H463 H 0.24947 0.87557 0.05266 0.0
H464 H 0.26775 0.92325 0.03139 0.0
H465 H 0.33985 0.98013 0.87851 0.0
H466 H 0.31198 0.96767 0.97504 0.0
H467 H 0.26901 0.80048 0.7189 0.0
H468 H 0.24304 0.78948 0.81891 0.0
H469 H 0.3224 0.83855 0.68005 0.0
H470 H 0.34664 0.88694 0.66343 0.0
C471 C 0.47729 0.3135 0.90484 0.0
C472 C 0.49179 0.32909 0.00285 0.0
C473 C 0.49658 0.38857 0.96684 0.0
C474 C 0.48603 0.37512 0.86594 0.0
N475 N 0.47124 0.32584 0.73687 0.0
N476 N 0.52584 0.38486 0.11829 0.0
C477 C 0.4778 0.33779 0.834 0.0
C478 C 0.50551 0.36794 0.03003 0.0
N479 N 0.46225 0.27555 0.88035 0.0
N480 N 0.49491 0.41931 0.00481 0.0
H481 H 0.53289 0.37042 0.16706 0.0
H482 H 0.53885 0.41398 0.13799 0.0
H483 H 0.48412 0.43293 0.9643 0.0
H484 H 0.49921 0.42787 0.07936 0.0
H485 H 0.44757 0.26163 0.81289 0.0
H486 H 0.46292 0.25772 0.93009 0.0
H487 H 0.46817 0.30009 0.70911 0.0
H488 H 0.47171 0.34302 0.6839 0.0
C489 C 0.10719 0.43717 0.04711 0.0
C490 C 0.14024 0.43776 0.02226 0.0
C491 C 0.10858 0.41 0.85716 0.0
C492 C 0.07545 0.40769 0.88795 0.0
N493 N 0.04009 0.40138 0.02371 0.0
N494 N 0.16724 0.41328 0.90888 0.0
C495 C 0.07366 0.41364 -0.01182 0.0
C496 C 0.13947 0.42049 0.92874 0.0
N497 N 0.10814 0.46193 0.11991 0.0
N498 N 0.11135 0.40376 0.76086 0.0
H499 H 0.18899 0.41881 0.96119 0.0
H500 H 0.16638 0.39825 0.84413 0.0
H501 H 0.08882 0.3935 0.7075 0.0
H502 H 0.13647 0.40977 0.73433 0.0
H503 H 0.08443 0.46307 0.13547 0.0
H504 H 0.13304 0.48457 0.15441 0.0
H505 H 0.03788 0.40489 0.09797 0.0
H506 H 0.01499 0.38483 0.97911 0.0
C507 C 0.61718 0.13321 -0.00449 0.0
C508 C 0.64308 0.12525 0.04378 0.0
C509 C 0.60353 0.05804 0.98573 0.0
C510 C 0.58295 0.06752 0.91999 0.0
N511 N 0.56786 0.11379 0.86504 0.0
N512 N 0.66064 0.07988 0.09108 0.0
C513 C 0.58835 0.10479 0.92731 0.0
C514 C 0.63589 0.08743 0.04199 0.0
N515 N 0.62007 0.16776 0.01533 0.0
N516 N 0.59197 0.02075 -0.00732 0.0
H517 H 0.68447 0.1005 0.13462 0.0
H518 H 0.65886 0.05355 0.08418 0.0
H519 H 0.56777 0.99908 0.95228 0.0
H520 H 0.60388 0.01137 0.0443 0.0
H521 H 0.59956 0.1738 -0.00897 0.0
H522 H 0.64154 0.18947 0.06323 0.0
H523 H 0.57419 0.14145 0.8577 0.0
H524 H 0.54494 0.09375 0.81821 0.0
C525 C 0.59725 0.67335 0.85556 0.0
C526 C 0.56548 0.67777 0.85207 0.0
C527 C 0.53574 0.62906 0.71336 0.0
C528 C 0.56257 0.61807 0.73479 0.0
N529 N 0.62278 0.63321 0.8085 0.0
N530 N 0.50613 0.66355 0.77304 0.0
C531 C 0.59512 0.64202 0.79892 0.0
C532 C 0.53564 0.65745 0.7776 0.0
N533 N 0.62856 0.6983 0.91578 0.0
N534 N 0.51022 0.61203 0.63325 0.0
H535 H 0.50621 0.68529 0.81702 0.0
H536 H 0.4812 0.64631 0.72893 0.0
H537 H 0.51008 0.59161 0.58404 0.0
H538 H 0.49211 0.62122 0.60938 0.0
H539 H 0.6535 0.69803 0.9191 0.0
H540 H 0.63032 0.72127 0.95811 0.0
H541 H 0.64583 0.64681 0.86063 0.0
H542 H 0.62214 0.61141 0.76327 0.0
C543 C 0.45936 0.13062 0.45777 0.0
C544 C 0.49527 0.16196 0.45113 0.0
C545 C 0.52229 0.13555 0.56238 0.0
C546 C 0.48866 0.10032 0.54493 0.0
N547 N 0.42329 0.06484 0.49032 0.0
N548 N 0.5607 0.19752 0.50926 0.0
C549 C 0.45623 0.09832 0.49935 0.0
C550 C 0.52649 0.16607 0.51024 0.0
N551 N 0.42883 0.13141 0.4188 0.0
N552 N 0.55051 0.13896 0.62589 0.0
H553 H 0.56445 0.22088 0.475 0.0
H554 H 0.58547 0.20024 0.54037 0.0
H555 H 0.54787 0.1163 0.662 0.0
H556 H 0.57484 0.1645 0.64875 0.0
H557 H 0.40146 0.11052 0.42441 0.0
H558 H 0.43146 0.15505 0.38746 0.0
H559 H 0.39919 0.05989 0.44909 0.0
H560 H 0.42062 0.04157 0.5235 0.0
C561 C 0.34264 0.45963 0.36 0.0
C562 C 0.35311 0.49822 0.36126 0.0
C563 C 0.40468 0.5148 0.48501 0.0
C564 C 0.40041 0.47834 0.46281 0.0
N565 N 0.3636 0.41469 0.38127 0.0
N566 N 0.39286 0.56296 0.42796 0.0
C567 C 0.36835 0.44995 0.40268 0.0
C568 C 0.38329 0.52586 0.42654 0.0
N569 N 0.30892 0.43274 0.31289 0.0
N570 N 0.42808 0.53826 0.56387 0.0
H571 H 0.37652 0.57135 0.38833 0.0
H572 H 0.41758 0.5851 0.46471 0.0
H573 H 0.443 0.53051 0.61133 0.0
H574 H 0.42918 0.56342 0.58841 0.0
H575 H 0.29813 0.40377 0.31426 0.0
H576 H 0.29032 0.43998 0.28022 0.0
H577 H 0.34301 0.39434 0.32922 0.0
H578 H 0.3818 0.40644 0.41047 0.0
C579 C 0.87693 0.35994 0.30448 0.0
C580 C 0.88295 0.33533 0.24149 0.0
C581 C 0.94899 0.36793 0.3062 0.0
C582 C 0.94408 0.39584 0.35792 0.0
N583 N 0.90423 0.42017 0.40469 0.0
N584 N 0.9237 0.31444 0.18131 0.0
C585 C 0.90813 0.39201 0.3582 0.0
C586 C 0.91864 0.33853 0.24325 0.0
N587 N 0.84136 0.35268 0.31186 0.0
N588 N 0.98271 0.36967 0.31793 0.0
H589 H 0.90169 0.29141 0.13796 0.0
H590 H 0.9497 0.31799 0.16958 0.0
H591 H 0.00536 0.39133 0.36275 0.0
H592 H 0.98757 0.34851 0.28976 0.0
H593 H 0.8345 0.36739 0.3629 0.0
H594 H 0.81814 0.32957 0.27217 0.0
H595 H 0.87978 0.42139 0.39776 0.0
H596 H 0.92623 0.44394 0.44579 0.0
C597 C 0.51993 0.86078 0.30909 0.0
C598 C 0.55283 0.87013 0.26415 0.0
C599 C 0.58849 0.92783 0.37809 0.0
C600 C 0.55507 0.9197 0.4186 0.0
N601 N 0.49158 0.8756 0.44141 0.0
N602 N 0.61982 0.9079 0.26662 0.0
C603 C 0.52158 0.88502 0.39019 0.0
C604 C 0.58765 0.90194 0.30305 0.0
N605 N 0.487 0.82947 0.27158 0.0
N606 N 0.6204 0.96168 0.40635 0.0
H607 H 0.62038 0.89142 0.20694 0.0
H608 H 0.6464 0.92772 0.29909 0.0
H609 H 0.62265 0.9806 0.46404 0.0
H610 H 0.64433 0.97208 0.37048 0.0
H611 H 0.46113 0.82299 0.29326 0.0
H612 H 0.48544 0.81025 0.21552 0.0
H613 H 0.46684 0.8497 0.42973 0.0
H614 H 0.49264 0.89295 0.5017 0.0
C615 C 0.69527 0.53859 0.24104 0.0
C616 C 0.71201 0.56775 0.1802 0.0
C617 C 0.6737 0.59436 0.23374 0.0
C618 C 0.65243 0.56136 0.28016 0.0
N619 N 0.64351 0.50279 0.3344 0.0
N620 N 0.71997 0.62495 0.12117 0.0
C621 C 0.6637 0.53388 0.28681 0.0
C622 C 0.70267 0.59669 0.17938 0.0
N623 N 0.70953 0.51522 0.25314 0.0
N624 N 0.6657 0.62299 0.2402 0.0
H625 H 0.74243 0.62816 0.08451 0.0
H626 H 0.71159 0.64437 0.10651 0.0
H627 H 0.64351 0.62135 0.2753 0.0
H628 H 0.68225 0.6493 0.21611 0.0
H629 H 0.70073 0.49481 0.30171 0.0
H630 H 0.73277 0.51868 0.2199 0.0
H631 H 0.64759 0.47968 0.33309 0.0
H632 H 0.62131 0.49919 0.37269 0.0
C633 C 0.15413 0.69306 0.34433 0.0
C634 C 0.18353 0.68681 0.32164 0.0
C635 C 0.17219 0.6491 0.4591 0.0
C636 C 0.13674 0.64563 0.45979 0.0
N637 N 0.09487 0.66802 0.4111 0.0
N638 N 0.22268 0.66044 0.36262 0.0
C639 C 0.12842 0.66969 0.4072 0.0
C640 C 0.19402 0.66624 0.38241 0.0
N641 N 0.15019 0.7203 0.30222 0.0
N642 N 0.18459 0.63588 0.53177 0.0
H643 H 0.2394 0.67259 0.30735 0.0
H644 H 0.2285 0.64196 0.39806 0.0
H645 H 0.1684 0.62345 0.58807 0.0
H646 H 0.21159 0.64022 0.54016 0.0
H647 H 0.13095 0.72828 0.32069 0.0
H648 H 0.16892 0.73742 0.25553 0.0
H649 H 0.08519 0.68092 0.36425 0.0
H650 H 0.07595 0.65256 0.45915 0.0
loop_
_geom_bond_atom_site_label_1
_geom_bond_atom_site_label_2
_geom_bond_distance
_geom_bond_site_symmetry_2
_ccdc_geom_bond_type
H0 C8 0.930 . S
H1 C11 0.930 . S
H2 C13 0.930 . S
H3 C14 0.970 . S
H4 C14 0.970 . S
H5 C16 0.930 . S
H6 C18 0.930 . S
H7 C20 0.930 . S
C8 H0 0.930 . S
C8 C9 1.382 . S
C8 C10 1.426 . S
C9 C8 1.382 . S
C9 C13 1.389 . S
C10 C8 1.426 . S
C10 C11 1.375 . S
C10 C14 1.532 . S
C11 H1 0.930 . S
C11 C10 1.375 . S
C11 C12 1.416 . S
C12 C11 1.416 . S
C12 C13 1.371 . S
C13 H2 0.930 . S
C13 C9 1.389 . S
C13 C12 1.371 . S
C14 H3 0.970 . S
C14 H4 0.970 . S
C14 C10 1.532 . S
C14 C15 1.499 . S
C15 C14 1.499 . S
C15 C16 1.370 . S
C15 C20 1.415 . S
C16 H5 0.930 . S
C16 C15 1.370 . S
C16 C17 1.407 . S
C17 C16 1.407 . S
C17 C18 1.365 . S
C18 H6 0.930 . S
C18 C17 1.365 . S
C18 C19 1.393 . S
C19 C18 1.393 . S
C19 C20 1.387 . S
C20 H7 0.930 . S
C20 C15 1.415 . S
C20 C19 1.387 . S
H21 C29 0.930 1_556 S
H22 C32 0.930 . S
H23 C34 0.930 . S
H24 C35 0.970 . S
H25 C35 0.970 . S
H26 C37 0.930 1_556 S
H27 C39 0.930 . S
H28 C41 0.930 . S
C29 H21 0.930 1_554 S
C29 C30 1.382 . S
C29 C31 1.426 . S
C30 C29 1.382 . S
C30 C34 1.389 . S
C31 C29 1.426 . S
C31 C32 1.375 . S
C31 C35 1.532 . S
C32 H22 0.930 . S
C32 C31 1.375 . S
C32 C33 1.416 . S
C33 C32 1.416 . S
C33 C34 1.371 . S
C34 H23 0.930 . S
C34 C30 1.389 . S
C34 C33 1.371 . S
C35 H24 0.970 . S
C35 H25 0.970 . S
C35 C31 1.532 . S
C35 C36 1.499 . S
C36 C35 1.499 . S
C36 C37 1.370 . S
C36 C41 1.415 . S
C37 H26 0.930 1_554 S
C37 C36 1.370 . S
C37 C38 1.407 . S
C38 C37 1.407 . S
C38 C39 1.365 . S
C39 H27 0.930 . S
C39 C38 1.365 . S
C39 C40 1.393 . S
C40 C39 1.393 . S
C40 C41 1.387 . S
C41 H28 0.930 . S
C41 C36 1.415 . S
C41 C40 1.387 . S
H42 C50 0.930 . S
H43 C53 0.930 . S
H44 C55 0.930 . S
H45 C56 0.970 . S
H46 C56 0.970 . S
H47 C58 0.930 . S
H48 C60 0.930 . S
H49 C62 0.930 . S
C50 H42 0.930 . S
C50 C51 1.382 . S
C50 C52 1.426 1_556 S
C51 C50 1.382 . S
C51 C55 1.389 1_556 S
C52 C50 1.426 1_554 S
C52 C53 1.375 . S
C52 C56 1.532 . S
C53 H43 0.930 . S
C53 C52 1.375 . S
C53 C54 1.416 . S
C54 C53 1.416 . S
C54 C55 1.371 . S
C55 H44 0.930 . S
C55 C51 1.389 1_554 S
C55 C54 1.371 . S
C56 H45 0.970 . S
C56 H46 0.970 . S
C56 C52 1.532 . S
C56 C57 1.499 . S
C57 C56 1.499 . S
C57 C58 1.370 1_554 S
C57 C62 1.415 . S
C58 H47 0.930 . S
C58 C57 1.370 1_556 S
C58 C59 1.407 . S
C59 C58 1.407 . S
C59 C60 1.365 1_556 S
C60 H48 0.930 . S
C60 C59 1.365 1_554 S
C60 C61 1.393 . S
C61 C60 1.393 . S
C61 C62 1.387 . S
C62 H49 0.930 . S
C62 C57 1.415 . S
C62 C61 1.387 . S
H63 C71 0.930 . S
H64 C74 0.930 . S
H65 C76 0.930 . S
H66 C77 0.970 1_556 S
H67 C77 0.970 . S
H68 C79 0.930 . S
H69 C81 0.930 . S
H70 C83 0.930 . S
C71 H63 0.930 . S
C71 C72 1.382 . S
C71 C73 1.426 1_556 S
C72 C71 1.382 . S
C72 C76 1.389 1_556 S
C73 C71 1.426 1_554 S
C73 C74 1.375 . S
C73 C77 1.532 . S
C74 H64 0.930 . S
C74 C73 1.375 . S
C74 C75 1.416 . S
C75 C74 1.416 . S
C75 C76 1.371 . S
C76 H65 0.930 . S
C76 C72 1.389 1_554 S
C76 C75 1.371 . S
C77 H66 0.970 1_554 S
C77 H67 0.970 . S
C77 C73 1.532 . S
C77 C78 1.499 . S
C78 C77 1.499 . S
C78 C79 1.370 1_554 S
C78 C83 1.415 . S
C79 H68 0.930 . S
C79 C78 1.370 1_556 S
C79 C80 1.407 . S
C80 C79 1.407 . S
C80 C81 1.365 1_556 S
C81 H69 0.930 . S
C81 C80 1.365 1_554 S
C81 C82 1.393 . S
C82 C81 1.393 . S
C82 C83 1.387 . S
C83 H70 0.930 . S
C83 C78 1.415 . S
C83 C82 1.387 . S
H84 C92 0.930 1_556 S
H85 C95 0.930 . S
H86 C97 0.930 . S
H87 C98 0.970 . S
H88 C98 0.970 . S
H89 C100 0.930 1_556 S
H90 C102 0.930 . S
H91 C104 0.930 . S
C92 H84 0.930 1_554 S
C92 C93 1.382 . S
C92 C94 1.426 . S
C93 C92 1.382 . S
C93 C97 1.389 . S
C94 C92 1.426 . S
C94 C95 1.375 . S
C94 C98 1.532 . S
C95 H85 0.930 . S
C95 C94 1.375 . S
C95 C96 1.416 . S
C96 C95 1.416 . S
C96 C97 1.371 . S
C97 H86 0.930 . S
C97 C93 1.389 . S
C97 C96 1.371 . S
C98 H87 0.970 . S
C98 H88 0.970 . S
C98 C94 1.532 . S
C98 C99 1.499 . S
C99 C98 1.499 . S
C99 C100 1.370 . S
C99 C104 1.415 . S
C100 H89 0.930 1_554 S
C100 C99 1.370 . S
C100 C101 1.407 . S
C101 C100 1.407 . S
C101 C102 1.365 . S
C102 H90 0.930 . S
C102 C101 1.365 . S
C102 C103 1.393 . S
C103 C102 1.393 . S
C103 C104 1.387 . S
C104 H91 0.930 . S
C104 C99 1.415 . S
C104 C103 1.387 . S
H105 C113 0.930 . S
H106 C116 0.930 . S
H107 C118 0.930 . S
H108 C119 0.970 . S
H109 C119 0.970 . S
H110 C121 0.930 . S
H111 C123 0.930 . S
H112 C125 0.930 . S
C113 H105 0.930 . S
C113 C114 1.382 . S
C113 C115 1.426 . S
C114 C113 1.382 . S
C114 C118 1.389 . S
C115 C113 1.426 . S
C115 C116 1.375 . S
C115 C119 1.532 . S
C116 H106 0.930 . S
C116 C115 1.375 . S
C116 C117 1.416 . S
C117 C116 1.416 . S
C117 C118 1.371 . S
C118 H107 0.930 . S
C118 C114 1.389 . S
C118 C117 1.371 . S
C119 H108 0.970 . S
C119 H109 0.970 . S
C119 C115 1.532 . S
C119 C120 1.499 . S
C120 C119 1.499 . S
C120 C121 1.370 . S
C120 C125 1.415 . S
C121 H110 0.930 . S
C121 C120 1.370 . S
C121 C122 1.407 . S
C122 C121 1.407 . S
C122 C123 1.365 . S
C123 H111 0.930 . S
C123 C122 1.365 . S
C123 C124 1.393 . S
C124 C123 1.393 . S
C124 C125 1.387 . S
C125 H112 0.930 . S
C125 C120 1.415 . S
C125 C124 1.387 . S
C126 O153 1.312 . S
C126 O154 1.208 . S
C127 O148 1.331 . S
C127 O151 1.244 . S
C128 O150 1.264 . S
C128 O152 1.273 . S
Mg129 O131 1.936 1_455 S
Mg129 O138 2.081 1_455 S
Mg129 O140 2.023 . S
Mg129 O144 2.031 1_455 S
Mg129 O153 2.291 . S
Mg130 O131 1.963 . S
Mg130 O141 1.942 . S
Mg130 O142 1.955 1_655 S
Mg130 O149 1.986 . S
O131 Mg129 1.936 1_655 S
O131 Mg130 1.963 . S
O131 Mg132 1.915 1_655 S
Mg132 O131 1.915 1_455 S
Mg132 O133 1.915 . S
Mg132 O137 2.013 . S
Mg132 O143 2.114 1_455 S
Mg132 O147 2.013 1_455 S
Mg132 O153 2.114 . S
O133 Mg132 1.915 . S
O133 Mg134 1.936 . S
O133 Mg135 1.963 . S
Mg134 O133 1.936 . S
Mg134 O143 2.291 1_455 S
Mg134 O148 2.081 . S
Mg134 O150 2.023 1_455 S
Mg134 O154 2.031 . S
Mg135 O133 1.963 . S
Mg135 O139 1.986 . S
Mg135 O151 1.942 . S
Mg135 O152 1.955 1_455 S
C136 O147 1.191 . S
C136 O149 1.307 . S
O137 Mg132 2.013 . S
O137 C156 1.191 . S
O138 Mg129 2.081 1_655 S
O138 C146 1.331 . S
O139 Mg135 1.986 . S
O139 C156 1.307 . S
O140 Mg129 2.023 . S
O140 C155 1.264 . S
O141 Mg130 1.942 . S
O141 C146 1.244 . S
O142 Mg130 1.955 1_455 S
O142 C155 1.273 . S
O143 Mg132 2.114 1_655 S
O143 Mg134 2.291 1_655 S
O143 C145 1.312 . S
O144 Mg129 2.031 1_655 S
O144 C145 1.208 . S
C145 O143 1.312 . S
C145 O144 1.208 . S
C146 O138 1.331 . S
C146 O141 1.244 . S
O147 Mg132 2.013 1_655 S
O147 C136 1.191 . S
O148 C127 1.331 . S
O148 Mg134 2.081 . S
O149 Mg130 1.986 . S
O149 C136 1.307 . S
O150 C128 1.264 . S
O150 Mg134 2.023 1_655 S
O151 C127 1.244 . S
O151 Mg135 1.942 . S
O152 C128 1.273 . S
O152 Mg135 1.955 1_655 S
O153 C126 1.312 . S
O153 Mg129 2.291 . S
O153 Mg132 2.114 . S
O154 C126 1.208 . S
O154 Mg134 2.031 . S
C155 O140 1.264 . S
C155 O142 1.273 . S
C156 O137 1.191 . S
C156 O139 1.307 . S
C157 O184 1.312 . S
C157 O185 1.208 . S
C158 O179 1.331 . S
C158 O182 1.244 . S
C159 O181 1.264 . S
C159 O183 1.273 . S
Mg160 O162 1.936 1_545 S
Mg160 O169 2.081 1_545 S
Mg160 O171 2.023 . S
Mg160 O175 2.031 1_545 S
Mg160 O184 2.291 . S
Mg161 O162 1.963 . S
Mg161 O172 1.942 . S
Mg161 O173 1.955 1_565 S
Mg161 O180 1.986 . S
O162 Mg160 1.936 1_565 S
O162 Mg161 1.963 . S
O162 Mg163 1.915 1_565 S
Mg163 O162 1.915 1_545 S
Mg163 O164 1.915 . S
Mg163 O168 2.013 . S
Mg163 O174 2.114 1_545 S
Mg163 O178 2.013 1_545 S
Mg163 O184 2.114 . S
O164 Mg163 1.915 . S
O164 Mg165 1.933 . S
O164 Mg166 1.963 . S
Mg165 O164 1.933 . S
Mg165 O174 2.281 1_545 S
Mg165 O179 2.093 . S
Mg165 O181 1.988 1_545 S
Mg165 O185 2.065 . S
Mg166 O164 1.963 . S
Mg166 O170 1.986 . S
Mg166 O182 1.942 . S
Mg166 O183 1.955 1_545 S
C167 O178 1.191 . S
C167 O180 1.307 . S
O168 Mg163 2.013 . S
O168 C187 1.191 . S
O169 Mg160 2.081 1_565 S
O169 C177 1.331 . S
O170 Mg166 1.986 . S
O170 C187 1.307 . S
O171 Mg160 2.023 . S
O171 C186 1.264 . S
O172 Mg161 1.942 . S
O172 C177 1.244 . S
O173 Mg161 1.955 1_545 S
O173 C186 1.273 . S
O174 Mg163 2.114 1_565 S
O174 Mg165 2.281 1_565 S
O174 C176 1.312 . S
O175 Mg160 2.031 1_565 S
O175 C176 1.208 . S
C176 O174 1.312 . S
C176 O175 1.208 . S
C177 O169 1.331 . S
C177 O172 1.244 . S
O178 Mg163 2.013 1_565 S
O178 C167 1.191 . S
O179 C158 1.331 . S
O179 Mg165 2.093 . S
O180 Mg161 1.986 . S
O180 C167 1.307 . S
O181 C159 1.264 . S
O181 Mg165 1.988 1_565 S
O182 C158 1.244 . S
O182 Mg166 1.942 . S
O183 C159 1.273 . S
O183 Mg166 1.955 1_565 S
O184 C157 1.312 . S
O184 Mg160 2.291 . S
O184 Mg163 2.114 . S
O185 C157 1.208 . S
O185 Mg165 2.065 . S
C186 O171 1.264 . S
C186 O173 1.273 . S
C187 O168 1.191 . S
C187 O170 1.307 . S
C188 O215 1.312 . S
C188 O216 1.208 . S
C189 O210 1.331 . S
C189 O213 1.244 . S
C190 O212 1.264 . S
C190 O214 1.273 . S
Mg191 O193 1.936 . S
Mg191 O200 2.081 . S
Mg191 O202 2.023 . S
Mg191 O206 2.031 . S
Mg191 O215 2.291 . S
Mg192 O193 1.963 . S
Mg192 O203 1.942 . S
Mg192 O204 1.955 . S
Mg192 O211 1.986 . S
O193 Mg191 1.936 . S
O193 Mg192 1.963 . S
O193 Mg194 1.915 . S
Mg194 O193 1.915 . S
Mg194 O195 1.915 . S
Mg194 O199 2.013 . S
Mg194 O205 2.114 . S
Mg194 O209 2.013 . S
Mg194 O215 2.114 . S
O195 Mg194 1.915 . S
O195 Mg196 1.936 . S
O195 Mg197 1.963 . S
Mg196 O195 1.936 . S
Mg196 O205 2.291 . S
Mg196 O210 2.081 . S
Mg196 O212 2.023 . S
Mg196 O216 2.031 . S
Mg197 O195 1.963 . S
Mg197 O201 1.986 . S
Mg197 O213 1.942 . S
Mg197 O214 1.955 . S
C198 O209 1.191 . S
C198 O211 1.307 . S
O199 Mg194 2.013 . S
O199 C218 1.191 . S
O200 Mg191 2.081 . S
O200 C208 1.331 . S
O201 Mg197 1.986 . S
O201 C218 1.307 . S
O202 Mg191 2.023 . S
O202 C217 1.264 . S
O203 Mg192 1.942 . S
O203 C208 1.244 . S
O204 Mg192 1.955 . S
O204 C217 1.273 . S
O205 Mg194 2.114 . S
O205 Mg196 2.291 . S
O205 C207 1.312 . S
O206 Mg191 2.031 . S
O206 C207 1.208 . S
C207 O205 1.312 . S
C207 O206 1.208 . S
C208 O200 1.331 . S
C208 O203 1.244 . S
O209 Mg194 2.013 . S
O209 C198 1.191 . S
O210 C189 1.331 . S
O210 Mg196 2.081 . S
O211 Mg192 1.986 . S
O211 C198 1.307 . S
O212 C190 1.264 . S
O212 Mg196 2.023 . S
O213 C189 1.244 . S
O213 Mg197 1.942 . S
O214 C190 1.273 . S
O214 Mg197 1.955 . S
O215 C188 1.312 . S
O215 Mg191 2.291 . S
O215 Mg194 2.114 . S
O216 C188 1.208 . S
O216 Mg196 2.031 . S
C217 O202 1.264 . S
C217 O204 1.273 . S
C218 O199 1.191 . S
C218 O201 1.307 . S
C219 C220 1.363 . S
C219 C225 1.379 . S
C219 N227 1.356 . S
C220 C219 1.363 . S
C220 C226 1.363 . S
C221 C222 1.363 . S
C221 C226 1.379 . S
C221 N228 1.356 . S
C222 C221 1.363 . S
C222 C225 1.363 . S
N223 C225 1.356 . S
N223 H235 0.984 . S
N223 H236 0.985 . S
N224 C226 1.356 . S
N224 H229 0.984 . S
N224 H230 0.985 . S
C225 C219 1.379 . S
C225 C222 1.363 . S
C225 N223 1.356 . S
C226 C220 1.363 . S
C226 C221 1.379 . S
C226 N224 1.356 . S
N227 C219 1.356 . S
N227 H233 0.984 . S
N227 H234 0.984 . S
N228 C221 1.356 . S
N228 H231 0.984 . S
N228 H232 0.985 . S
H229 N224 0.984 . S
H230 N224 0.985 . S
H231 N228 0.984 . S
H232 N228 0.985 . S
H233 N227 0.984 . S
H234 N227 0.984 . S
H235 N223 0.984 . S
H236 N223 0.985 . S
C237 C238 1.363 . S
C237 C243 1.379 . S
C237 N245 1.356 . S
C238 C237 1.363 . S
C238 C244 1.363 . S
C239 C240 1.363 . S
C239 C244 1.379 . S
C239 N246 1.356 . S
C240 C239 1.363 . S
C240 C243 1.363 . S
N241 C243 1.356 . S
N241 H253 0.984 . S
N241 H254 0.985 . S
N242 C244 1.356 . S
N242 H247 0.984 . S
N242 H248 0.985 . S
C243 C237 1.379 . S
C243 C240 1.363 . S
C243 N241 1.356 . S
C244 C238 1.363 . S
C244 C239 1.379 . S
C244 N242 1.356 . S
N245 C237 1.356 . S
N245 H251 0.984 . S
N245 H252 0.984 . S
N246 C239 1.356 . S
N246 H249 0.984 . S
N246 H250 0.985 . S
H247 N242 0.984 . S
H248 N242 0.985 . S
H249 N246 0.984 . S
H250 N246 0.985 . S
H251 N245 0.984 . S
H252 N245 0.984 . S
H253 N241 0.984 . S
H254 N241 0.985 . S
C255 C256 1.363 . S
C255 C261 1.379 . S
C255 N263 1.356 . S
C256 C255 1.363 . S
C256 C262 1.363 . S
C257 C258 1.363 . S
C257 C262 1.379 . S
C257 N264 1.356 . S
C258 C257 1.363 . S
C258 C261 1.363 . S
N259 C261 1.356 . S
N259 H271 0.984 . S
N259 H272 0.985 . S
N260 C262 1.356 . S
N260 H265 0.984 . S
N260 H266 0.985 . S
C261 C255 1.379 . S
C261 C258 1.363 . S
C261 N259 1.356 . S
C262 C256 1.363 . S
C262 C257 1.379 . S
C262 N260 1.356 . S
N263 C255 1.356 . S
N263 H269 0.984 . S
N263 H270 0.984 . S
N264 C257 1.356 . S
N264 H267 0.984 . S
N264 H268 0.985 . S
H265 N260 0.984 . S
H266 N260 0.985 . S
H267 N264 0.984 . S
H268 N264 0.985 . S
H269 N263 0.984 . S
H270 N263 0.984 . S
H271 N259 0.984 . S
H272 N259 0.985 . S
C273 C274 1.363 . S
C273 C279 1.379 . S
C273 N281 1.356 . S
C274 C273 1.363 . S
C274 C280 1.363 . S
C275 C276 1.363 . S
C275 C280 1.379 . S
C275 N282 1.356 . S
C276 C275 1.363 . S
C276 C279 1.363 . S
N277 C279 1.356 . S
N277 H289 0.984 . S
N277 H290 0.985 . S
N278 C280 1.356 . S
N278 H283 0.984 . S
N278 H284 0.985 . S
C279 C273 1.379 . S
C279 C276 1.363 . S
C279 N277 1.356 . S
C280 C274 1.363 . S
C280 C275 1.379 . S
C280 N278 1.356 . S
N281 C273 1.356 . S
N281 H287 0.984 . S
N281 H288 0.984 . S
N282 C275 1.356 . S
N282 H285 0.984 . S
N282 H286 0.985 . S
H283 N278 0.984 . S
H284 N278 0.985 . S
H285 N282 0.984 . S
H286 N282 0.985 . S
H287 N281 0.984 . S
H288 N281 0.984 . S
H289 N277 0.984 . S
H290 N277 0.985 . S
C291 C292 1.363 . S
C291 C297 1.379 . S
C291 N299 1.356 . S
C292 C291 1.363 . S
C292 C298 1.363 . S
C293 C294 1.363 . S
C293 C298 1.379 . S
C293 N300 1.356 . S
C294 C293 1.363 . S
C294 C297 1.363 . S
N295 C297 1.356 . S
N295 H307 0.984 . S
N295 H308 0.985 . S
N296 C298 1.356 . S
N296 H301 0.984 . S
N296 H302 0.985 . S
C297 C291 1.379 . S
C297 C294 1.363 . S
C297 N295 1.356 . S
C298 C292 1.363 . S
C298 C293 1.379 . S
C298 N296 1.356 . S
N299 C291 1.356 . S
N299 H305 0.984 . S
N299 H306 0.984 . S
N300 C293 1.356 . S
N300 H303 0.984 . S
N300 H304 0.985 . S
H301 N296 0.984 . S
H302 N296 0.985 . S
H303 N300 0.984 . S
H304 N300 0.985 . S
H305 N299 0.984 . S
H306 N299 0.984 . S
H307 N295 0.984 . S
H308 N295 0.985 . S
C309 C310 1.363 . S
C309 C315 1.379 . S
C309 N317 1.356 . S
C310 C309 1.363 . S
C310 C316 1.363 . S
C311 C312 1.363 . S
C311 C316 1.379 . S
C311 N318 1.356 . S
C312 C311 1.363 . S
C312 C315 1.363 . S
N313 C315 1.356 . S
N313 H325 0.984 . S
N313 H326 0.985 . S
N314 C316 1.356 . S
N314 H319 0.984 . S
N314 H320 0.985 . S
C315 C309 1.379 . S
C315 C312 1.363 . S
C315 N313 1.356 . S
C316 C310 1.363 . S
C316 C311 1.379 . S
C316 N314 1.356 . S
N317 C309 1.356 . S
N317 H323 0.984 . S
N317 H324 0.984 . S
N318 C311 1.356 . S
N318 H321 0.984 . S
N318 H322 0.985 . S
H319 N314 0.984 . S
H320 N314 0.985 . S
H321 N318 0.984 . S
H322 N318 0.985 . S
H323 N317 0.984 . S
H324 N317 0.984 . S
H325 N313 0.984 . S
H326 N313 0.985 . S
C327 C328 1.363 . S
C327 C333 1.379 . S
C327 N335 1.356 . S
C328 C327 1.363 . S
C328 C334 1.363 . S
C329 C330 1.363 . S
C329 C334 1.379 . S
C329 N336 1.356 . S
C330 C329 1.363 . S
C330 C333 1.363 . S
N331 C333 1.356 . S
N331 H343 0.984 . S
N331 H344 0.985 . S
N332 C334 1.356 . S
N332 H337 0.984 . S
N332 H338 0.985 . S
C333 C327 1.379 . S
C333 C330 1.363 . S
C333 N331 1.356 . S
C334 C328 1.363 . S
C334 C329 1.379 . S
C334 N332 1.356 . S
N335 C327 1.356 . S
N335 H341 0.984 . S
N335 H342 0.984 . S
N336 C329 1.356 . S
N336 H339 0.984 . S
N336 H340 0.985 . S
H337 N332 0.984 . S
H338 N332 0.985 . S
H339 N336 0.984 . S
H340 N336 0.985 . S
H341 N335 0.984 . S
H342 N335 0.984 . S
H343 N331 0.984 . S
H344 N331 0.985 . S
C345 C346 1.363 . S
C345 C351 1.379 . S
C345 N353 1.356 . S
C346 C345 1.363 . S
C346 C352 1.363 . S
C347 C348 1.363 . S
C347 C352 1.379 . S
C347 N354 1.356 . S
C348 C347 1.363 . S
C348 C351 1.363 . S
N349 C351 1.356 . S
N349 H361 0.984 . S
N349 H362 0.985 . S
N350 C352 1.356 . S
N350 H355 0.984 . S
N350 H356 0.985 1_556 S
C351 C345 1.379 . S
C351 C348 1.363 . S
C351 N349 1.356 . S
C352 C346 1.363 . S
C352 C347 1.379 . S
C352 N350 1.356 . S
N353 C345 1.356 . S
N353 H359 0.984 . S
N353 H360 0.984 . S
N354 C347 1.356 . S
N354 H357 0.984 . S
N354 H358 0.985 . S
H355 N350 0.984 . S
H356 N350 0.985 1_554 S
H357 N354 0.984 . S
H358 N354 0.985 . S
H359 N353 0.984 . S
H360 N353 0.984 . S
H361 N349 0.984 . S
H362 N349 0.985 . S
C363 C364 1.363 . S
C363 C369 1.379 . S
C363 N371 1.356 1_556 S
C364 C363 1.363 . S
C364 C370 1.363 . S
C365 C366 1.363 . S
C365 C370 1.379 . S
C365 N372 1.356 . S
C366 C365 1.363 . S
C366 C369 1.363 . S
N367 C369 1.356 . S
N367 H379 0.984 . S
N367 H380 0.985 . S
N368 C370 1.356 . S
N368 H373 0.984 . S
N368 H374 0.985 . S
C369 C363 1.379 . S
C369 C366 1.363 . S
C369 N367 1.356 . S
C370 C364 1.363 . S
C370 C365 1.379 . S
C370 N368 1.356 . S
N371 C363 1.356 1_554 S
N371 H377 0.984 . S
N371 H378 0.984 . S
N372 C365 1.356 . S
N372 H375 0.984 . S
N372 H376 0.985 . S
H373 N368 0.984 . S
H374 N368 0.985 . S
H375 N372 0.984 . S
H376 N372 0.985 . S
H377 N371 0.984 . S
H378 N371 0.984 . S
H379 N367 0.984 . S
H380 N367 0.985 . S
C381 C382 1.363 1_556 S
C381 C387 1.379 . S
C381 N389 1.356 . S
C382 C381 1.363 1_554 S
C382 C388 1.363 . S
C383 C384 1.363 1_554 S
C383 C388 1.379 . S
C383 N390 1.356 . S
C384 C383 1.363 1_556 S
C384 C387 1.363 . S
N385 C387 1.356 . S
N385 H397 0.984 . S
N385 H398 0.985 . S
N386 C388 1.356 . S
N386 H391 0.984 . S
N386 H392 0.985 . S
C387 C381 1.379 . S
C387 C384 1.363 . S
C387 N385 1.356 . S
C388 C382 1.363 . S
C388 C383 1.379 . S
C388 N386 1.356 . S
N389 C381 1.356 . S
N389 H395 0.984 . S
N389 H396 0.984 . S
N390 C383 1.356 . S
N390 H393 0.984 1_554 S
N390 H394 0.985 . S
H391 N386 0.984 . S
H392 N386 0.985 . S
H393 N390 0.984 1_556 S
H394 N390 0.985 . S
H395 N389 0.984 . S
H396 N389 0.984 . S
H397 N385 0.984 . S
H398 N385 0.985 . S
C399 C400 1.363 . S
C399 C405 1.379 1_554 S
C399 N407 1.356 . S
C400 C399 1.363 . S
C400 C406 1.363 . S
C401 C402 1.363 . S
C401 C406 1.379 1_556 S
C401 N408 1.356 . S
C402 C401 1.363 . S
C402 C405 1.363 . S
N403 C405 1.356 . S
N403 H415 0.984 . S
N403 H416 0.985 . S
N404 C406 1.356 . S
N404 H409 0.984 . S
N404 H410 0.985 . S
C405 C399 1.379 1_556 S
C405 C402 1.363 . S
C405 N403 1.356 . S
C406 C400 1.363 . S
C406 C401 1.379 1_554 S
C406 N404 1.356 . S
N407 C399 1.356 . S
N407 H413 0.984 . S
N407 H414 0.984 . S
N408 C401 1.356 . S
N408 H411 0.984 . S
N408 H412 0.985 . S
H409 N404 0.984 . S
H410 N404 0.985 . S
H411 N408 0.984 . S
H412 N408 0.985 . S
H413 N407 0.984 . S
H414 N407 0.984 . S
H415 N403 0.984 . S
H416 N403 0.985 . S
C417 C418 1.363 . S
C417 C423 1.379 . S
C417 N425 1.356 1_556 S
C418 C417 1.363 . S
C418 C424 1.363 . S
C419 C420 1.363 . S
C419 C424 1.379 . S
C419 N426 1.356 . S
C420 C419 1.363 . S
C420 C423 1.363 . S
N421 C423 1.356 . S
N421 H433 0.984 . S
N421 H434 0.985 . S
N422 C424 1.356 . S
N422 H427 0.984 . S
N422 H428 0.985 . S
C423 C417 1.379 . S
C423 C420 1.363 . S
C423 N421 1.356 . S
C424 C418 1.363 . S
C424 C419 1.379 . S
C424 N422 1.356 . S
N425 C417 1.356 1_554 S
N425 H431 0.984 . S
N425 H432 0.984 . S
N426 C419 1.356 . S
N426 H429 0.984 . S
N426 H430 0.985 . S
H427 N422 0.984 . S
H428 N422 0.985 . S
H429 N426 0.984 . S
H430 N426 0.985 . S
H431 N425 0.984 . S
H432 N425 0.984 . S
H433 N421 0.984 . S
H434 N421 0.985 . S
C435 C436 1.363 . S
C435 C441 1.379 . S
C435 N443 1.356 . S
C436 C435 1.363 . S
C436 C442 1.363 . S
C437 C438 1.363 . S
C437 C442 1.379 . S
C437 N444 1.356 . S
C438 C437 1.363 . S
C438 C441 1.363 . S
N439 C441 1.356 . S
N439 H451 0.984 . S
N439 H452 0.985 . S
N440 C442 1.356 . S
N440 H445 0.984 . S
N440 H446 0.985 . S
C441 C435 1.379 . S
C441 C438 1.363 . S
C441 N439 1.356 . S
C442 C436 1.363 . S
C442 C437 1.379 . S
C442 N440 1.356 . S
N443 C435 1.356 . S
N443 H449 0.984 1_556 S
N443 H450 0.984 . S
N444 C437 1.356 . S
N444 H447 0.984 . S
N444 H448 0.985 . S
H445 N440 0.984 . S
H446 N440 0.985 . S
H447 N444 0.984 . S
H448 N444 0.985 . S
H449 N443 0.984 1_554 S
H450 N443 0.984 . S
H451 N439 0.984 . S
H452 N439 0.985 . S
C453 C454 1.363 . S
C453 C459 1.379 . S
C453 N461 1.356 . S
C454 C453 1.363 . S
C454 C460 1.363 . S
C455 C456 1.363 . S
C455 C460 1.379 . S
C455 N462 1.356 . S
C456 C455 1.363 . S
C456 C459 1.363 . S
N457 C459 1.356 . S
N457 H469 0.984 . S
N457 H470 0.985 . S
N458 C460 1.356 1_554 S
N458 H463 0.984 . S
N458 H464 0.985 . S
C459 C453 1.379 . S
C459 C456 1.363 . S
C459 N457 1.356 . S
C460 C454 1.363 . S
C460 C455 1.379 . S
C460 N458 1.356 1_556 S
N461 C453 1.356 . S
N461 H467 0.984 . S
N461 H468 0.984 . S
N462 C455 1.356 . S
N462 H465 0.984 . S
N462 H466 0.985 . S
H463 N458 0.984 . S
H464 N458 0.985 . S
H465 N462 0.984 . S
H466 N462 0.985 . S
H467 N461 0.984 . S
H468 N461 0.984 . S
H469 N457 0.984 . S
H470 N457 0.985 . S
C471 C472 1.363 1_556 S
C471 C477 1.379 . S
C471 N479 1.356 . S
C472 C471 1.363 1_554 S
C472 C478 1.363 . S
C473 C474 1.363 . S
C473 C478 1.379 1_556 S
C473 N480 1.356 . S
C474 C473 1.363 . S
C474 C477 1.363 . S
N475 C477 1.356 . S
N475 H487 0.984 . S
N475 H488 0.985 . S
N476 C478 1.356 . S
N476 H481 0.984 . S
N476 H482 0.985 . S
C477 C471 1.379 . S
C477 C474 1.363 . S
C477 N475 1.356 . S
C478 C472 1.363 . S
C478 C473 1.379 1_554 S
C478 N476 1.356 . S
N479 C471 1.356 . S
N479 H485 0.984 . S
N479 H486 0.984 . S
N480 C473 1.356 . S
N480 H483 0.984 . S
N480 H484 0.985 1_556 S
H481 N476 0.984 . S
H482 N476 0.985 . S
H483 N480 0.984 . S
H484 N480 0.985 1_554 S
H485 N479 0.984 . S
H486 N479 0.984 . S
H487 N475 0.984 . S
H488 N475 0.985 . S
C489 C490 1.363 . S
C489 C495 1.379 . S
C489 N497 1.356 . S
C490 C489 1.363 . S
C490 C496 1.363 1_554 S
C491 C492 1.363 . S
C491 C496 1.379 . S
C491 N498 1.356 . S
C492 C491 1.363 . S
C492 C495 1.363 1_556 S
N493 C495 1.356 . S
N493 H505 0.984 . S
N493 H506 0.985 1_554 S
N494 C496 1.356 . S
N494 H499 0.984 1_556 S
N494 H500 0.985 . S
C495 C489 1.379 . S
C495 C492 1.363 1_554 S
C495 N493 1.356 . S
C496 C490 1.363 1_556 S
C496 C491 1.379 . S
C496 N494 1.356 . S
N497 C489 1.356 . S
N497 H503 0.984 . S
N497 H504 0.984 . S
N498 C491 1.356 . S
N498 H501 0.984 . S
N498 H502 0.985 . S
H499 N494 0.984 1_554 S
H500 N494 0.985 . S
H501 N498 0.984 . S
H502 N498 0.985 . S
H503 N497 0.984 . S
H504 N497 0.984 . S
H505 N493 0.984 . S
H506 N493 0.985 1_556 S
C507 C508 1.363 . S
C507 C513 1.379 . S
C507 N515 1.356 . S
C508 C507 1.363 . S
C508 C514 1.363 . S
C509 C510 1.363 . S
C509 C514 1.379 . S
C509 N516 1.356 . S
C510 C509 1.363 . S
C510 C513 1.363 . S
N511 C513 1.356 . S
N511 H523 0.984 . S
N511 H524 0.985 . S
N512 C514 1.356 . S
N512 H517 0.983 1_556 S
N512 H518 0.985 . S
C513 C507 1.379 . S
C513 C510 1.363 . S
C513 N511 1.356 . S
C514 C508 1.363 . S
C514 C509 1.379 . S
C514 N512 1.356 . S
N515 C507 1.356 . S
N515 H521 0.984 . S
N515 H522 0.984 . S
N516 C509 1.356 . S
N516 H519 0.984 . S
N516 H520 0.985 . S
H517 N512 0.983 1_554 S
H518 N512 0.985 . S
H519 N516 0.984 . S
H520 N516 0.985 . S
H521 N515 0.984 . S
H522 N515 0.984 . S
H523 N511 0.984 . S
H524 N511 0.985 . S
C525 C526 1.363 . S
C525 C531 1.379 . S
C525 N533 1.356 1_556 S
C526 C525 1.363 . S
C526 C532 1.363 . S
C527 C528 1.363 . S
C527 C532 1.379 . S
C527 N534 1.356 . S
C528 C527 1.363 . S
C528 C531 1.363 . S
N529 C531 1.356 . S
N529 H541 0.984 . S
N529 H542 0.985 . S
N530 C532 1.356 . S
N530 H535 0.984 . S
N530 H536 0.985 . S
C531 C525 1.379 . S
C531 C528 1.363 . S
C531 N529 1.356 . S
C532 C526 1.363 . S
C532 C527 1.379 . S
C532 N530 1.356 . S
N533 C525 1.356 1_554 S
N533 H539 0.984 . S
N533 H540 0.984 . S
N534 C527 1.356 . S
N534 H537 0.984 . S
N534 H538 0.985 . S
H535 N530 0.984 . S
H536 N530 0.985 . S
H537 N534 0.984 . S
H538 N534 0.985 . S
H539 N533 0.984 . S
H540 N533 0.984 . S
H541 N529 0.984 . S
H542 N529 0.985 . S
C543 C544 1.363 . S
C543 C549 1.379 . S
C543 N551 1.356 . S
C544 C543 1.363 . S
C544 C550 1.363 . S
C545 C546 1.363 . S
C545 C550 1.379 . S
C545 N552 1.356 . S
C546 C545 1.363 . S
C546 C549 1.363 . S
N547 C549 1.356 . S
N547 H559 0.984 . S
N547 H560 0.985 . S
N548 C550 1.356 . S
N548 H553 0.984 . S
N548 H554 0.985 . S
C549 C543 1.379 . S
C549 C546 1.363 . S
C549 N547 1.356 . S
C550 C544 1.363 . S
C550 C545 1.379 . S
C550 N548 1.356 . S
N551 C543 1.356 . S
N551 H557 0.984 . S
N551 H558 0.984 . S
N552 C545 1.356 . S
N552 H555 0.984 . S
N552 H556 0.985 . S
H553 N548 0.984 . S
H554 N548 0.985 . S
H555 N552 0.984 . S
H556 N552 0.985 . S
H557 N551 0.984 . S
H558 N551 0.984 . S
H559 N547 0.984 . S
H560 N547 0.985 . S
C561 C562 1.363 . S
C561 C567 1.379 . S
C561 N569 1.356 . S
C562 C561 1.363 . S
C562 C568 1.363 . S
C563 C564 1.363 . S
C563 C568 1.379 . S
C563 N570 1.356 . S
C564 C563 1.363 . S
C564 C567 1.363 . S
N565 C567 1.356 . S
N565 H577 0.984 . S
N565 H578 0.985 . S
N566 C568 1.356 . S
N566 H571 0.984 . S
N566 H572 0.985 . S
C567 C561 1.379 . S
C567 C564 1.363 . S
C567 N565 1.356 . S
C568 C562 1.363 . S
C568 C563 1.379 . S
C568 N566 1.356 . S
N569 C561 1.356 . S
N569 H575 0.984 . S
N569 H576 0.984 . S
N570 C563 1.356 . S
N570 H573 0.984 . S
N570 H574 0.985 . S
H571 N566 0.984 . S
H572 N566 0.985 . S
H573 N570 0.984 . S
H574 N570 0.985 . S
H575 N569 0.984 . S
H576 N569 0.984 . S
H577 N565 0.984 . S
H578 N565 0.985 . S
C579 C580 1.363 . S
C579 C585 1.379 . S
C579 N587 1.356 . S
C580 C579 1.363 . S
C580 C586 1.363 . S
C581 C582 1.363 . S
C581 C586 1.379 . S
C581 N588 1.356 . S
C582 C581 1.363 . S
C582 C585 1.363 . S
N583 C585 1.356 . S
N583 H595 0.984 . S
N583 H596 0.985 . S
N584 C586 1.356 . S
N584 H589 0.984 . S
N584 H590 0.985 . S
C585 C579 1.379 . S
C585 C582 1.363 . S
C585 N583 1.356 . S
C586 C580 1.363 . S
C586 C581 1.379 . S
C586 N584 1.356 . S
N587 C579 1.356 . S
N587 H593 0.984 . S
N587 H594 0.984 . S
N588 C581 1.356 . S
N588 H591 0.984 . S
N588 H592 0.985 . S
H589 N584 0.984 . S
H590 N584 0.985 . S
H591 N588 0.984 . S
H592 N588 0.985 . S
H593 N587 0.984 . S
H594 N587 0.984 . S
H595 N583 0.984 . S
H596 N583 0.985 . S
C597 C598 1.363 . S
C597 C603 1.379 . S
C597 N605 1.356 . S
C598 C597 1.363 . S
C598 C604 1.363 . S
C599 C600 1.363 . S
C599 C604 1.379 . S
C599 N606 1.356 . S
C600 C599 1.363 . S
C600 C603 1.363 . S
N601 C603 1.356 . S
N601 H613 0.984 . S
N601 H614 0.985 . S
N602 C604 1.356 . S
N602 H607 0.984 . S
N602 H608 0.985 . S
C603 C597 1.379 . S
C603 C600 1.363 . S
C603 N601 1.356 . S
C604 C598 1.363 . S
C604 C599 1.379 . S
C604 N602 1.356 . S
N605 C597 1.356 . S
N605 H611 0.984 . S
N605 H612 0.984 . S
N606 C599 1.356 . S
N606 H609 0.984 . S
N606 H610 0.985 . S
H607 N602 0.984 . S
H608 N602 0.985 . S
H609 N606 0.984 . S
H610 N606 0.985 . S
H611 N605 0.984 . S
H612 N605 0.984 . S
H613 N601 0.984 . S
H614 N601 0.985 . S
C615 C616 1.363 . S
C615 C621 1.379 . S
C615 N623 1.356 . S
C616 C615 1.363 . S
C616 C622 1.363 . S
C617 C618 1.363 . S
C617 C622 1.379 . S
C617 N624 1.356 . S
C618 C617 1.363 . S
C618 C621 1.363 . S
N619 C621 1.356 . S
N619 H631 0.984 . S
N619 H632 0.985 . S
N620 C622 1.356 . S
N620 H625 0.984 . S
N620 H626 0.985 . S
C621 C615 1.379 . S
C621 C618 1.363 . S
C621 N619 1.356 . S
C622 C616 1.363 . S
C622 C617 1.379 . S
C622 N620 1.356 . S
N623 C615 1.356 . S
N623 H629 0.984 . S
N623 H630 0.984 . S
N624 C617 1.356 . S
N624 H627 0.984 . S
N624 H628 0.985 . S
H625 N620 0.984 . S
H626 N620 0.985 . S
H627 N624 0.984 . S
H628 N624 0.985 . S
H629 N623 0.984 . S
H630 N623 0.984 . S
H631 N619 0.984 . S
H632 N619 0.985 . S
C633 C634 1.363 . S
C633 C639 1.379 . S
C633 N641 1.356 . S
C634 C633 1.363 . S
C634 C640 1.363 . S
C635 C636 1.363 . S
C635 C640 1.379 . S
C635 N642 1.356 . S
C636 C635 1.363 . S
C636 C639 1.363 . S
N637 C639 1.356 . S
N637 H649 0.984 . S
N637 H650 0.985 . S
N638 C640 1.356 . S
N638 H643 0.984 . S
N638 H644 0.985 . S
C639 C633 1.379 . S
C639 C636 1.363 . S
C639 N637 1.356 . S
C640 C634 1.363 . S
C640 C635 1.379 . S
C640 N638 1.356 . S
N641 C633 1.356 . S
N641 H647 0.984 . S
N641 H648 0.984 . S
N642 C635 1.356 . S
N642 H645 0.984 . S
N642 H646 0.985 . S
H643 N638 0.984 . S
H644 N638 0.985 . S
H645 N642 0.984 . S
H646 N642 0.985 . S
H647 N641 0.984 . S
H648 N641 0.984 . S
H649 N637 0.984 . S
H650 N637 0.985 . S
C220 C12 1.650 . S
C222 C126 1.772 . S
C238 C40 1.469 . S
C240 C158 1.499 . S
C258 C217 1.790 . S
C256 C61 1.825 . S
C276 C146 1.384 . S
C274 C82 1.402 . S
C292 C96 1.591 . S
C294 C176 1.659 . S
C312 C198 1.391 . S
C310 C117 1.221 . S
C330 C167 1.783 . S
C328 C51 1.746 . S
C346 C72 1.412 . S
C348 C207 1.396 . S
C366 C156 1.683 . S
C364 C101 1.568 1_556 S
C382 C122 1.404 . S
C384 C186 1.468 . S
C400 C17 1.665 . S
C402 C189 1.738 . S
C420 C128 1.574 . S
C418 C30 1.544 1_556 S
C438 C136 1.723 . S
C436 C80 1.696 . S
C456 C177 1.462 . S
C454 C93 1.394 1_556 S
C474 C190 1.796 . S
C472 C114 1.774 . S
C492 C127 1.385 . S
C490 C9 1.365 . S
C510 C187 1.614 . S
C508 C38 1.643 1_556 S
C526 C59 1.326 . S
C528 C188 1.353 . S
C546 C157 1.696 . S
C544 C124 1.637 . S
C564 C218 1.345 . S
C562 C19 1.262 . S
C582 C145 1.605 . S
C580 C33 1.665 . S
C600 C159 1.472 . S
C598 C54 1.470 . S
C616 C75 1.720 . S
C618 C208 1.708 . S
C634 C103 1.484 . S
C636 C155 1.546 . S
