# Generated by pormake.
# Topology eea, (3,6)-cn, num edge types: 1
# Building blocks:
#     Node 0, Type 0, BuildingBlock: MIDCAF_clean_linker_0, # of connection points: 3
#     Node 1, Type 0, BuildingBlock: MIDCAF_clean_linker_0, # of connection points: 3
#     Node 2, Type 0, BuildingBlock: MIDCAF_clean_linker_0, # of connection points: 3
#     Node 3, Type 0, BuildingBlock: MIDCAF_clean_linker_0, # of connection points: 3
#     Node 4, Type 0, BuildingBlock: MIDCAF_clean_linker_0, # of connection points: 3
#     Node 5, Type 0, BuildingBlock: MIDCAF_clean_linker_0, # of connection points: 3
#     Node 6, Type 0, BuildingBlock: MIDCAF_clean_linker_0, # of connection points: 3
#     Node 7, Type 0, BuildingBlock: MIDCAF_clean_linker_0, # of connection points: 3
#     Node 8, Type 0, BuildingBlock: MIDCAF_clean_linker_0, # of connection points: 3
#     Node 9, Type 0, BuildingBlock: MIDCAF_clean_linker_0, # of connection points: 3
#     Node 10, Type 0, BuildingBlock: MIDCAF_clean_linker_0, # of connection points: 3
#     Node 11, Type 0, BuildingBlock: MIDCAF_clean_linker_0, # of connection points: 3
#     Node 12, Type 0, BuildingBlock: MIDCAF_clean_linker_0, # of connection points: 3
#     Node 13, Type 0, BuildingBlock: MIDCAF_clean_linker_0, # of connection points: 3
#     Node 14, Type 0, BuildingBlock: MIDCAF_clean_linker_0, # of connection points: 3
#     Node 15, Type 0, BuildingBlock: MIDCAF_clean_linker_0, # of connection points: 3
#     Node 16, Type 0, BuildingBlock: MIDCAF_clean_linker_0, # of connection points: 3
#     Node 17, Type 0, BuildingBlock: MIDCAF_clean_linker_0, # of connection points: 3
#     Node 18, Type 1, BuildingBlock: CUKXOW_clean_sbu_0, # of connection points: 6
#     Node 19, Type 1, BuildingBlock: CUKXOW_clean_sbu_0, # of connection points: 6
#     Node 20, Type 1, BuildingBlock: CUKXOW_clean_sbu_0, # of connection points: 6
#     Node 21, Type 1, BuildingBlock: CUKXOW_clean_sbu_0, # of connection points: 6
#     Node 22, Type 1, BuildingBlock: CUKXOW_clean_sbu_0, # of connection points: 6
#     Node 23, Type 1, BuildingBlock: CUKXOW_clean_sbu_0, # of connection points: 6
#     Node 24, Type 1, BuildingBlock: CUKXOW_clean_sbu_0, # of connection points: 6
#     Node 25, Type 1, BuildingBlock: CUKXOW_clean_sbu_0, # of connection points: 6
#     Node 26, Type 1, BuildingBlock: CUKXOW_clean_sbu_0, # of connection points: 6
#     Edge 27, Type (0, 1), None
#     Edge 28, Type (0, 1), None
#     Edge 29, Type (0, 1), None
#     Edge 30, Type (0, 1), None
#     Edge 31, Type (0, 1), None
#     Edge 32, Type (0, 1), None
#     Edge 33, Type (0, 1), None
#     Edge 34, Type (0, 1), None
#     Edge 35, Type (0, 1), None
#     Edge 36, Type (0, 1), None
#     Edge 37, Type (0, 1), None
#     Edge 38, Type (0, 1), None
#     Edge 39, Type (0, 1), None
#     Edge 40, Type (0, 1), None
#     Edge 41, Type (0, 1), None
#     Edge 42, Type (0, 1), None
#     Edge 43, Type (0, 1), None
#     Edge 44, Type (0, 1), None
#     Edge 45, Type (0, 1), None
#     Edge 46, Type (0, 1), None
#     Edge 47, Type (0, 1), None
#     Edge 48, Type (0, 1), None
#     Edge 49, Type (0, 1), None
#     Edge 50, Type (0, 1), None
#     Edge 51, Type (0, 1), None
#     Edge 52, Type (0, 1), None
#     Edge 53, Type (0, 1), None
#     Edge 54, Type (0, 1), None
#     Edge 55, Type (0, 1), None
#     Edge 56, Type (0, 1), None
#     Edge 57, Type (0, 1), None
#     Edge 58, Type (0, 1), None
#     Edge 59, Type (0, 1), None
#     Edge 60, Type (0, 1), None
#     Edge 61, Type (0, 1), None
#     Edge 62, Type (0, 1), None
#     Edge 63, Type (0, 1), None
#     Edge 64, Type (0, 1), None
#     Edge 65, Type (0, 1), None
#     Edge 66, Type (0, 1), None
#     Edge 67, Type (0, 1), None
#     Edge 68, Type (0, 1), None
#     Edge 69, Type (0, 1), None
#     Edge 70, Type (0, 1), None
#     Edge 71, Type (0, 1), None
#     Edge 72, Type (0, 1), None
#     Edge 73, Type (0, 1), None
#     Edge 74, Type (0, 1), None
#     Edge 75, Type (0, 1), None
#     Edge 76, Type (0, 1), None
#     Edge 77, Type (0, 1), None
#     Edge 78, Type (0, 1), None
#     Edge 79, Type (0, 1), None
#     Edge 80, Type (0, 1), None
# Relax obj value: 0.018
# Max RMSD: 0.122
# Mean RMSD: 0.067
data_MOF--net-eea--node1-CUKXOW_clean_sbu_0--node2-MIDCAF_clean_linker_0--edge1-none
_symmetry_space_group_name_H-M    P1
_symmetry_Int_Tables_number       1
_symmetry_cell_setting            triclinic
loop_
_symmetry_equiv_pos_as_xyz
'x, y, z'
_cell_length_a     38.580482
_cell_length_b     34.799081
_cell_length_c     38.116418
_cell_angle_alpha  92.72162
_cell_angle_beta   92.698075
_cell_angle_gamma 120.23146
loop_
_atom_site_label
_atom_site_type_symbol
_atom_site_fract_x
_atom_site_fract_y
_atom_site_fract_z
_atom_type_partial_charge
C0 C 0.2409 0.99527 0.40018 0.0
C1 C 0.20204 0.9699 0.38304 0.0
C2 C 0.17684 0.98813 0.38157 0.0
C3 C 0.19027 0.03104 0.3971 0.0
H4 H 0.16953 0.14087 0.4012 0.0
H5 H 0.14714 0.18746 0.37358 0.0
H6 H 0.26035 0.30514 0.40982 0.0
H7 H 0.28237 0.25851 0.43848 0.0
H8 H 0.29611 0.22293 0.53082 0.0
H9 H 0.32751 0.2354 0.59084 0.0
H10 H 0.34379 0.12274 0.57147 0.0
H11 H 0.31355 0.11052 0.51144 0.0
H12 H 0.28369 0.05608 0.43018 0.0
H13 H 0.2608 0.98182 0.402 0.0
H14 H 0.14674 0.96917 0.36854 0.0
H15 H 0.17018 0.04427 0.39584 0.0
N16 N 0.22925 0.12672 0.42067 0.0
N17 N 0.26585 0.18072 0.46788 0.0
N18 N 0.26645 0.11353 0.46374 0.0
C19 C 0.24141 0.16734 0.43739 0.0
C20 C 0.27826 0.15361 0.48138 0.0
C21 C 0.24202 0.09991 0.43349 0.0
C22 C 0.22766 0.19613 0.42208 0.0
C23 C 0.1896 0.17671 0.40336 0.0
C24 C 0.17678 0.20331 0.38752 0.0
C25 C 0.20219 0.24977 0.38919 0.0
C26 C 0.24037 0.26928 0.40771 0.0
C27 C 0.2528 0.24272 0.42442 0.0
C28 C 0.30176 0.16536 0.51625 0.0
C29 C 0.30696 0.20123 0.53907 0.0
C30 C 0.32462 0.20821 0.57355 0.0
C31 C 0.33746 0.17962 0.58571 0.0
C32 C 0.33422 0.14531 0.56254 0.0
C33 C 0.31663 0.13826 0.5282 0.0
C34 C 0.22866 0.0558 0.41523 0.0
C35 C 0.25389 0.03759 0.41652 0.0
C36 C 0.00111 0.25421 0.42404 0.0
C37 C 0.00891 0.23398 0.39499 0.0
C38 C 0.97966 0.19086 0.38164 0.0
C39 C 0.94312 0.16834 0.3967 0.0
H40 H 0.8476 0.04446 0.39644 0.0
H41 H 0.80064 0.96986 0.3689 0.0
H42 H 0.70093 0.98095 0.40392 0.0
H43 H 0.74801 0.05528 0.43237 0.0
H44 H 0.77698 0.11007 0.51258 0.0
H45 H 0.76271 0.12244 0.57211 0.0
H46 H 0.88186 0.23734 0.59132 0.0
H47 H 0.8975 0.22417 0.53185 0.0
H48 H 0.95894 0.24786 0.46155 0.0
H49 H 0.02346 0.28751 0.43496 0.0
H50 H 0.98495 0.17441 0.35943 0.0
H51 H 0.92143 0.13501 0.38538 0.0
N52 N 0.86679 0.12403 0.42305 0.0
N53 N 0.82123 0.11403 0.46474 0.0
N54 N 0.886 0.1779 0.47067 0.0
C55 C 0.83008 0.09935 0.43488 0.0
C56 C 0.84887 0.15311 0.48299 0.0
C57 C 0.8949 0.16334 0.44031 0.0
C58 C 0.80134 0.05551 0.41661 0.0
C59 C 0.81563 0.03113 0.39801 0.0
C60 C 0.78886 0.98845 0.38233 0.0
C61 C 0.74733 0.96992 0.38422 0.0
C62 C 0.73289 0.99478 0.40183 0.0
C63 C 0.75975 0.03708 0.4183 0.0
C64 C 0.83885 0.16557 0.51742 0.0
C65 C 0.80034 0.1383 0.52916 0.0
C66 C 0.79185 0.14547 0.56324 0.0
C67 C 0.82142 0.18025 0.58634 0.0
C68 C 0.85897 0.20949 0.57418 0.0
C69 C 0.86774 0.20215 0.54002 0.0
C70 C 0.93474 0.1883 0.42566 0.0
C71 C 0.9643 0.23151 0.43933 0.0
C72 C 0.75119 0.74679 0.42074 0.0
C73 C 0.763 0.77059 0.3906 0.0
C74 C 0.79754 0.77676 0.37532 0.0
C75 C 0.82038 0.75998 0.39028 0.0
H76 H 0.91382 0.7469 0.37389 0.0
H77 H 0.97789 0.77618 0.34847 0.0
H78 H 0.02919 0.75384 0.44292 0.0
H79 H 0.96457 0.72467 0.46911 0.0
H80 H 0.89852 0.67511 0.53249 0.0
H81 H 0.88216 0.64842 0.59124 0.0
H82 H 0.764 0.63136 0.57295 0.0
H83 H 0.77931 0.65658 0.51422 0.0
H84 H 0.76455 0.71247 0.45937 0.0
H85 H 0.72455 0.74161 0.433 0.0
H86 H 0.80713 0.79491 0.35201 0.0
H87 H 0.84718 0.76582 0.378 0.0
N88 N 0.86983 0.73114 0.42412 0.0
N89 N 0.88645 0.69996 0.47059 0.0
N90 N 0.82586 0.70104 0.46812 0.0
C91 C 0.89566 0.72044 0.43991 0.0
C92 C 0.85111 0.68971 0.48465 0.0
C93 C 0.83509 0.72181 0.43787 0.0
C94 C 0.93401 0.7337 0.42383 0.0
C95 C 0.93856 0.74798 0.38946 0.0
C96 C 0.97532 0.76485 0.37472 0.0
C97 C 0.00845 0.76764 0.39381 0.0
C98 C 0.00394 0.75212 0.4277 0.0
C99 C 0.96697 0.73525 0.44263 0.0
C100 C 0.84052 0.66874 0.51865 0.0
C101 C 0.8688 0.66492 0.54068 0.0
C102 C 0.85957 0.64986 0.57438 0.0
C103 C 0.82198 0.63825 0.58653 0.0
C104 C 0.79304 0.63969 0.56396 0.0
C105 C 0.80213 0.65466 0.53042 0.0
C106 C 0.80916 0.73684 0.42093 0.0
C107 C 0.77408 0.73007 0.43581 0.0
C108 C 0.98912 0.25157 0.60401 0.0
C109 C 0.9847 0.23636 0.638 0.0
C110 C 0.01794 0.2396 0.65724 0.0
C111 C 0.05473 0.25657 0.64253 0.0
H112 H 0.14594 0.23833 0.65392 0.0
H113 H 0.18586 0.20908 0.67987 0.0
H114 H 0.26843 0.26218 0.59885 0.0
H115 H 0.22856 0.29149 0.57251 0.0
H116 H 0.21395 0.34779 0.51776 0.0
H117 H 0.22924 0.37293 0.459 0.0
H118 H 0.11092 0.35542 0.44056 0.0
H119 H 0.09461 0.32883 0.49935 0.0
H120 H 0.02845 0.27886 0.56255 0.0
H121 H 0.96378 0.24951 0.58868 0.0
H122 H 0.01544 0.22852 0.68358 0.0
H123 H 0.07957 0.25799 0.6582 0.0
N124 N 0.12335 0.27305 0.6078 0.0
N125 N 0.16733 0.30311 0.56378 0.0
N126 N 0.10676 0.30424 0.56132 0.0
C127 C 0.15808 0.28234 0.59404 0.0
C128 C 0.1421 0.31447 0.54726 0.0
C129 C 0.09755 0.28378 0.592 0.0
C130 C 0.18396 0.26723 0.61097 0.0
C131 C 0.17271 0.2441 0.64162 0.0
C132 C 0.19548 0.22722 0.65656 0.0
C133 C 0.22998 0.23329 0.64126 0.0
C134 C 0.24182 0.25708 0.61112 0.0
C135 C 0.21901 0.2739 0.59607 0.0
C136 C 0.15268 0.33543 0.51325 0.0
C137 C 0.1911 0.34961 0.50152 0.0
C138 C 0.20017 0.36453 0.46796 0.0
C139 C 0.17118 0.36582 0.44535 0.0
C140 C 0.13356 0.35411 0.45746 0.0
C141 C 0.12436 0.33911 0.49119 0.0
C142 C 0.05919 0.27052 0.60806 0.0
C143 C 0.02612 0.26855 0.58912 0.0
C144 C 0.75248 0.73447 0.62419 0.0
C145 C 0.79071 0.75398 0.64263 0.0
C146 C 0.81614 0.80044 0.64423 0.0
C147 C 0.8033 0.82702 0.62839 0.0
H148 H 0.82279 0.9595 0.63587 0.0
H149 H 0.84631 0.03466 0.66311 0.0
H150 H 0.73225 0.02207 0.62973 0.0
H151 H 0.70928 0.94776 0.60162 0.0
H152 H 0.6786 0.89271 0.52075 0.0
H153 H 0.64833 0.88055 0.46073 0.0
H154 H 0.66545 0.76854 0.44096 0.0
H155 H 0.69689 0.78096 0.50096 0.0
H156 H 0.71044 0.74522 0.59349 0.0
H157 H 0.73248 0.69862 0.62214 0.0
H158 H 0.84581 0.81629 0.65811 0.0
H159 H 0.82339 0.86287 0.6305 0.0
N160 N 0.76367 0.87705 0.61112 0.0
N161 N 0.72633 0.89016 0.56814 0.0
N162 N 0.72688 0.82294 0.56402 0.0
C163 C 0.75087 0.90384 0.59832 0.0
C164 C 0.71444 0.85003 0.55055 0.0
C165 C 0.75143 0.83638 0.59446 0.0
C166 C 0.7643 0.94801 0.61653 0.0
C167 C 0.80272 0.97277 0.63461 0.0
C168 C 0.8162 0.0157 0.65011 0.0
C169 C 0.79102 0.03397 0.64865 0.0
C170 C 0.75215 0.0086 0.63155 0.0
C171 C 0.73911 0.96625 0.61524 0.0
C172 C 0.69083 0.83821 0.51572 0.0
C173 C 0.67569 0.86512 0.5039 0.0
C174 C 0.65807 0.85809 0.46957 0.0
C175 C 0.65509 0.82401 0.44629 0.0
C176 C 0.66816 0.79557 0.45834 0.0
C177 C 0.68584 0.80251 0.4928 0.0
C178 C 0.7652 0.8076 0.60975 0.0
C179 C 0.74004 0.76102 0.60748 0.0
C180 C 0.25992 0.00898 0.63008 0.0
C181 C 0.24548 0.03382 0.64772 0.0
C182 C 0.20395 0.0153 0.64959 0.0
C183 C 0.17718 0.97266 0.63384 0.0
H184 H 0.07095 0.86929 0.64567 0.0
H185 H 0.0075 0.82982 0.67172 0.0
H186 H 0.9697 0.71596 0.59718 0.0
H187 H 0.03417 0.75568 0.57052 0.0
H188 H 0.09551 0.77954 0.49995 0.0
H189 H 0.11118 0.76632 0.44049 0.0
H190 H 0.23 0.88186 0.45941 0.0
H191 H 0.21571 0.8943 0.51891 0.0
H192 H 0.2448 0.94854 0.59945 0.0
H193 H 0.29189 0.02281 0.62801 0.0
H194 H 0.19217 0.03388 0.66304 0.0
H195 H 0.1452 0.95935 0.63538 0.0
N196 N 0.12598 0.87984 0.60863 0.0
N197 N 0.1068 0.82606 0.56095 0.0
N198 N 0.17159 0.88989 0.56698 0.0
C199 C 0.09787 0.84057 0.59131 0.0
C200 C 0.14396 0.85086 0.54867 0.0
C201 C 0.16272 0.90452 0.59686 0.0
C202 C 0.05801 0.81562 0.60591 0.0
C203 C 0.04944 0.83578 0.6346 0.0
C204 C 0.01294 0.81322 0.64971 0.0
C205 C 0.98391 0.76985 0.63668 0.0
C206 C 0.99188 0.74944 0.60786 0.0
C207 C 0.02866 0.77218 0.59252 0.0
C208 C 0.154 0.83845 0.51423 0.0
C209 C 0.12521 0.8017 0.49172 0.0
C210 C 0.134 0.79432 0.45757 0.0
C211 C 0.17146 0.82371 0.44533 0.0
C212 C 0.20093 0.85872 0.46834 0.0
C213 C 0.19242 0.86591 0.5024 0.0
C214 C 0.19146 0.94831 0.6152 0.0
C215 C 0.23306 0.96672 0.61355 0.0
C216 C 0.90756 0.3286 0.73351 0.0
C217 C 0.86871 0.30323 0.71637 0.0
C218 C 0.84351 0.32146 0.7149 0.0
C219 C 0.85694 0.36437 0.73043 0.0
H220 H 0.8362 0.4742 0.73453 0.0
H221 H 0.81381 0.52079 0.70691 0.0
H222 H 0.92702 0.63847 0.74315 0.0
H223 H 0.94903 0.59184 0.77181 0.0
H224 H 0.96277 0.55626 0.86415 0.0
H225 H 0.99418 0.56874 0.92418 0.0
H226 H 0.01046 0.45607 0.9048 0.0
H227 H 0.98022 0.44386 0.84477 0.0
H228 H 0.95036 0.38941 0.76351 0.0
H229 H 0.92747 0.31515 0.73534 0.0
H230 H 0.81341 0.3025 0.70188 0.0
H231 H 0.83685 0.3776 0.72917 0.0
N232 N 0.89592 0.46005 0.75401 0.0
N233 N 0.93252 0.51406 0.80122 0.0
N234 N 0.93312 0.44686 0.79707 0.0
C235 C 0.90807 0.50068 0.77072 0.0
C236 C 0.94493 0.48694 0.81471 0.0
C237 C 0.90869 0.43325 0.76682 0.0
C238 C 0.89432 0.52947 0.75542 0.0
C239 C 0.85627 0.51005 0.7367 0.0
C240 C 0.84344 0.53664 0.72085 0.0
C241 C 0.86885 0.58311 0.72252 0.0
C242 C 0.90704 0.60261 0.74104 0.0
C243 C 0.91947 0.57606 0.75776 0.0
C244 C 0.96843 0.49869 0.84958 0.0
C245 C 0.97362 0.53456 0.87241 0.0
C246 C 0.99129 0.54155 0.90688 0.0
C247 C 0.00412 0.51295 0.91905 0.0
C248 C 0.00089 0.47865 0.89587 0.0
C249 C 0.9833 0.47159 0.86153 0.0
C250 C 0.89533 0.38913 0.74856 0.0
C251 C 0.92055 0.37093 0.74986 0.0
C252 C 0.66778 0.58755 0.75738 0.0
C253 C 0.67558 0.56732 0.72832 0.0
C254 C 0.64633 0.52419 0.71497 0.0
C255 C 0.60978 0.50167 0.73003 0.0
H256 H 0.51427 0.37779 0.72978 0.0
H257 H 0.46731 0.30319 0.70223 0.0
H258 H 0.36759 0.31428 0.73725 0.0
H259 H 0.41467 0.38861 0.7657 0.0
H260 H 0.44365 0.4434 0.84591 0.0
H261 H 0.42937 0.45577 0.90544 0.0
H262 H 0.54852 0.57068 0.92466 0.0
H263 H 0.56417 0.5575 0.86518 0.0
H264 H 0.62561 0.58119 0.79488 0.0
H265 H 0.69012 0.62085 0.7683 0.0
H266 H 0.65162 0.50774 0.69276 0.0
H267 H 0.5881 0.46834 0.71872 0.0
N268 N 0.53346 0.45736 0.75639 0.0
N269 N 0.4879 0.44736 0.79808 0.0
N270 N 0.55267 0.51123 0.804 0.0
C271 C 0.49675 0.43268 0.76821 0.0
C272 C 0.51553 0.48644 0.81632 0.0
C273 C 0.56157 0.49667 0.77365 0.0
C274 C 0.46801 0.38884 0.74994 0.0
C275 C 0.4823 0.36446 0.73134 0.0
C276 C 0.45552 0.32179 0.71566 0.0
C277 C 0.414 0.30325 0.71756 0.0
C278 C 0.39956 0.32811 0.73516 0.0
C279 C 0.42642 0.37041 0.75163 0.0
C280 C 0.50552 0.49891 0.85075 0.0
C281 C 0.46701 0.47163 0.86249 0.0
C282 C 0.45851 0.4788 0.89657 0.0
C283 C 0.48808 0.51359 0.91968 0.0
C284 C 0.52563 0.54282 0.90751 0.0
C285 C 0.53441 0.53548 0.87335 0.0
C286 C 0.6014 0.52163 0.759 0.0
C287 C 0.63096 0.56484 0.77266 0.0
C288 C 0.41786 0.08012 0.75407 0.0
C289 C 0.42967 0.10392 0.72393 0.0
C290 C 0.4642 0.11009 0.70865 0.0
C291 C 0.48705 0.09331 0.72361 0.0
H292 H 0.58048 0.08023 0.70722 0.0
H293 H 0.64456 0.10952 0.6818 0.0
H294 H 0.69586 0.08717 0.77625 0.0
H295 H 0.63124 0.058 0.80245 0.0
H296 H 0.56519 0.00845 0.86582 0.0
H297 H 0.54883 0.98175 0.92458 0.0
H298 H 0.43067 0.96469 0.90628 0.0
H299 H 0.44597 0.98991 0.84755 0.0
H300 H 0.43121 0.0458 0.7927 0.0
H301 H 0.39121 0.07495 0.76633 0.0
H302 H 0.4738 0.12824 0.68535 0.0
H303 H 0.51385 0.09916 0.71133 0.0
N304 N 0.5365 0.06447 0.75745 0.0
N305 N 0.55312 0.03329 0.80392 0.0
N306 N 0.49253 0.03437 0.80146 0.0
C307 C 0.56232 0.05377 0.77324 0.0
C308 C 0.51778 0.02304 0.81798 0.0
C309 C 0.50176 0.05514 0.77121 0.0
C310 C 0.60068 0.06703 0.75717 0.0
C311 C 0.60523 0.08132 0.72279 0.0
C312 C 0.64199 0.09818 0.70805 0.0
C313 C 0.67511 0.10097 0.72715 0.0
C314 C 0.67061 0.08545 0.76103 0.0
C315 C 0.63364 0.06859 0.77596 0.0
C316 C 0.50719 0.00207 0.85199 0.0
C317 C 0.53546 0.99825 0.87401 0.0
C318 C 0.52623 0.98319 0.90772 0.0
C319 C 0.48865 0.97158 0.91986 0.0
C320 C 0.4597 0.97302 0.8973 0.0
C321 C 0.46879 0.98799 0.86375 0.0
C322 C 0.47583 0.07017 0.75427 0.0
C323 C 0.44074 0.0634 0.76914 0.0
C324 C 0.65578 0.5849 0.93735 0.0
C325 C 0.65136 0.56969 0.97134 0.0
C326 C 0.68461 0.57293 0.99057 0.0
C327 C 0.7214 0.5899 0.97587 0.0
H328 H 0.81259 0.57165 0.98724 0.0
H329 H 0.85252 0.5424 1.01319 0.0
H330 H 0.9351 0.59551 0.93219 0.0
H331 H 0.89522 0.62483 0.90585 0.0
H332 H 0.88062 0.68111 0.85109 0.0
H333 H 0.8959 0.70626 0.79233 0.0
H334 H 0.77759 0.68876 0.7739 0.0
H335 H 0.76127 0.66216 0.83268 0.0
H336 H 0.69511 0.61219 0.89588 0.0
H337 H 0.63045 0.58284 0.92201 0.0
H338 H 0.68211 0.56185 0.01691 0.0
H339 H 0.74624 0.59133 0.99154 0.0
N340 N 0.79001 0.60638 0.94113 0.0
N341 N 0.83399 0.63644 0.89712 0.0
N342 N 0.77343 0.63757 0.89465 0.0
C343 C 0.82475 0.61567 0.92737 0.0
C344 C 0.80876 0.6478 0.88059 0.0
C345 C 0.76421 0.61711 0.92533 0.0
C346 C 0.85062 0.60056 0.9443 0.0
C347 C 0.83937 0.57742 0.97495 0.0
C348 C 0.86214 0.56054 0.98989 0.0
C349 C 0.89664 0.56662 0.97459 0.0
C350 C 0.90849 0.59041 0.94446 0.0
C351 C 0.88567 0.60723 0.9294 0.0
C352 C 0.81934 0.66876 0.84658 0.0
C353 C 0.85777 0.68293 0.83485 0.0
C354 C 0.86684 0.69786 0.80129 0.0
C355 C 0.83785 0.69915 0.77868 0.0
C356 C 0.80023 0.68744 0.7908 0.0
C357 C 0.79102 0.67244 0.82452 0.0
C358 C 0.72585 0.60385 0.94139 0.0
C359 C 0.69278 0.60188 0.92245 0.0
C360 C 0.41915 0.0678 0.95752 0.0
C361 C 0.45738 0.08732 0.97596 0.0
C362 C 0.48281 0.13377 0.97756 0.0
C363 C 0.46997 0.16036 0.96172 0.0
H364 H 0.48946 0.29284 0.9692 0.0
H365 H 0.51298 0.36799 0.99644 0.0
H366 H 0.39892 0.3554 0.96306 0.0
H367 H 0.37595 0.2811 0.93495 0.0
H368 H 0.34527 0.22604 0.85408 0.0
H369 H 0.315 0.21388 0.79406 0.0
H370 H 0.33212 0.10187 0.77429 0.0
H371 H 0.36356 0.1143 0.8343 0.0
H372 H 0.3771 0.07856 0.92682 0.0
H373 H 0.39915 0.03195 0.95547 0.0
H374 H 0.51248 0.14962 0.99144 0.0
H375 H 0.49006 0.1962 0.96384 0.0
N376 N 0.43034 0.21039 0.94445 0.0
N377 N 0.393 0.22349 0.90147 0.0
N378 N 0.39355 0.15627 0.89735 0.0
C379 C 0.41754 0.23717 0.93165 0.0
C380 C 0.3811 0.18336 0.88388 0.0
C381 C 0.4181 0.16971 0.92779 0.0
C382 C 0.43097 0.28134 0.94986 0.0
C383 C 0.46938 0.3061 0.96795 0.0
C384 C 0.48286 0.34903 0.98344 0.0
C385 C 0.45769 0.3673 0.98198 0.0
C386 C 0.41881 0.34193 0.96488 0.0
C387 C 0.40577 0.29958 0.94857 0.0
C388 C 0.3575 0.17154 0.84906 0.0
C389 C 0.34236 0.19845 0.83723 0.0
C390 C 0.32474 0.19142 0.8029 0.0
C391 C 0.32176 0.15734 0.77962 0.0
C392 C 0.33483 0.1289 0.79167 0.0
C393 C 0.3525 0.13585 0.82614 0.0
C394 C 0.43187 0.14093 0.94308 0.0
C395 C 0.4067 0.09435 0.94082 0.0
C396 C 0.92659 0.34231 0.96342 0.0
C397 C 0.91215 0.36715 0.98106 0.0
C398 C 0.87062 0.34863 0.98292 0.0
C399 C 0.84384 0.30599 0.96718 0.0
H400 H 0.73762 0.20262 0.979 0.0
H401 H 0.67417 0.16315 1.00505 0.0
H402 H 0.63637 0.04929 0.93051 0.0
H403 H 0.70084 0.08901 0.90385 0.0
H404 H 0.76218 0.11287 0.83329 0.0
H405 H 0.77785 0.09965 0.77383 0.0
H406 H 0.89667 0.21519 0.79274 0.0
H407 H 0.88237 0.22763 0.85224 0.0
H408 H 0.91147 0.28187 0.93278 0.0
H409 H 0.95855 0.35614 0.96135 0.0
H410 H 0.85884 0.36721 0.99638 0.0
H411 H 0.81187 0.29268 0.96872 0.0
N412 N 0.79265 0.21317 0.94196 0.0
N413 N 0.77347 0.15939 0.89428 0.0
N414 N 0.83826 0.22322 0.90031 0.0
C415 C 0.76454 0.1739 0.92464 0.0
C416 C 0.81063 0.18419 0.882 0.0
C417 C 0.82939 0.23785 0.93019 0.0
C418 C 0.72468 0.14895 0.93924 0.0
C419 C 0.71611 0.16911 0.96793 0.0
C420 C 0.6796 0.14655 0.98305 0.0
C421 C 0.65058 0.10318 0.97001 0.0
C422 C 0.65854 0.08277 0.94119 0.0
C423 C 0.69532 0.10551 0.92586 0.0
C424 C 0.82066 0.17178 0.84756 0.0
C425 C 0.79187 0.13503 0.82505 0.0
C426 C 0.80067 0.12765 0.7909 0.0
C427 C 0.83813 0.15704 0.77867 0.0
C428 C 0.8676 0.19205 0.80167 0.0
C429 C 0.85909 0.19924 0.83574 0.0
C430 C 0.85813 0.28164 0.94853 0.0
C431 C 0.89973 0.30005 0.94688 0.0
C432 C 0.57423 0.66194 0.06684 0.0
C433 C 0.53538 0.63656 0.04971 0.0
C434 C 0.51017 0.6548 0.04824 0.0
C435 C 0.52361 0.6977 0.06377 0.0
H436 H 0.50287 0.80753 0.06786 0.0
H437 H 0.48047 0.85413 0.04024 0.0
H438 H 0.59368 0.9718 0.07648 0.0
H439 H 0.6157 0.92518 0.10514 0.0
H440 H 0.62944 0.88959 0.19749 0.0
H441 H 0.66085 0.90207 0.25751 0.0
H442 H 0.67712 0.7894 0.23814 0.0
H443 H 0.64688 0.77719 0.1781 0.0
H444 H 0.61702 0.72275 0.09685 0.0
H445 H 0.59413 0.64848 0.06867 0.0
H446 H 0.48007 0.63583 0.03521 0.0
H447 H 0.50351 0.71094 0.06251 0.0
N448 N 0.56258 0.79338 0.08734 0.0
N449 N 0.59919 0.84739 0.13455 0.0
N450 N 0.59978 0.78019 0.1304 0.0
C451 C 0.57474 0.83401 0.10405 0.0
C452 C 0.61159 0.82028 0.14804 0.0
C453 C 0.57535 0.76658 0.10015 0.0
C454 C 0.56099 0.8628 0.08875 0.0
C455 C 0.52293 0.84338 0.07003 0.0
C456 C 0.51011 0.86998 0.05418 0.0
C457 C 0.53552 0.91644 0.05586 0.0
C458 C 0.57371 0.93595 0.07437 0.0
C459 C 0.58613 0.90939 0.09109 0.0
C460 C 0.63509 0.83203 0.18292 0.0
C461 C 0.64029 0.8679 0.20574 0.0
C462 C 0.65795 0.87488 0.24021 0.0
C463 C 0.67079 0.84628 0.25238 0.0
C464 C 0.66755 0.81198 0.22921 0.0
C465 C 0.64996 0.80492 0.19487 0.0
C466 C 0.562 0.72246 0.0819 0.0
C467 C 0.58722 0.70426 0.08319 0.0
C468 C 0.33444 0.92088 0.09071 0.0
C469 C 0.34225 0.90065 0.06165 0.0
C470 C 0.31299 0.85752 0.0483 0.0
C471 C 0.27645 0.835 0.06337 0.0
H472 H 0.18094 0.71113 0.06311 0.0
H473 H 0.13397 0.63652 0.03556 0.0
H474 H 0.03426 0.64761 0.07058 0.0
H475 H 0.08134 0.72195 0.09904 0.0
H476 H 0.11031 0.77673 0.17925 0.0
H477 H 0.09604 0.7891 0.23877 0.0
H478 H 0.21519 0.90401 0.25799 0.0
H479 H 0.23083 0.89083 0.19851 0.0
H480 H 0.29227 0.91453 0.12821 0.0
H481 H 0.35679 0.95418 0.10163 0.0
H482 H 0.31829 0.84107 0.0261 0.0
H483 H 0.25476 0.80167 0.05205 0.0
N484 N 0.20012 0.79069 0.08972 0.0
N485 N 0.15457 0.7807 0.13141 0.0
N486 N 0.21934 0.84456 0.13733 0.0
C487 C 0.16341 0.76602 0.10154 0.0
C488 C 0.1822 0.81978 0.14965 0.0
C489 C 0.22823 0.83 0.10698 0.0
C490 C 0.13468 0.72217 0.08327 0.0
C491 C 0.14896 0.69779 0.06467 0.0
C492 C 0.12219 0.65512 0.04899 0.0
C493 C 0.08066 0.63658 0.05089 0.0
C494 C 0.06622 0.66145 0.06849 0.0
C495 C 0.09308 0.70374 0.08496 0.0
C496 C 0.17219 0.83224 0.18408 0.0
C497 C 0.13367 0.80497 0.19583 0.0
C498 C 0.12518 0.81213 0.2299 0.0
C499 C 0.15475 0.84692 0.25301 0.0
C500 C 0.1923 0.87616 0.24085 0.0
C501 C 0.20107 0.86882 0.20668 0.0
C502 C 0.26807 0.85496 0.09233 0.0
C503 C 0.29763 0.89818 0.10599 0.0
C504 C 0.08452 0.41346 0.08741 0.0
C505 C 0.09633 0.43725 0.05727 0.0
C506 C 0.13087 0.44343 0.04199 0.0
C507 C 0.15371 0.42665 0.05695 0.0
H508 H 0.24715 0.41356 0.04056 0.0
H509 H 0.31122 0.44285 0.01514 0.0
H510 H 0.36252 0.4205 0.10959 0.0
H511 H 0.2979 0.39133 0.13578 0.0
H512 H 0.23185 0.34178 0.19916 0.0
H513 H 0.2155 0.31509 0.25791 0.0
H514 H 0.09733 0.29803 0.23961 0.0
H515 H 0.11264 0.32325 0.18089 0.0
H516 H 0.09788 0.37913 0.12603 0.0
H517 H 0.05788 0.40828 0.09967 0.0
H518 H 0.14046 0.46158 0.01868 0.0
H519 H 0.18052 0.43249 0.04466 0.0
N520 N 0.20317 0.3978 0.09079 0.0
N521 N 0.21978 0.36663 0.13726 0.0
N522 N 0.15919 0.3677 0.13479 0.0
C523 C 0.22899 0.38711 0.10658 0.0
C524 C 0.18444 0.35638 0.15132 0.0
C525 C 0.16842 0.38848 0.10454 0.0
C526 C 0.26734 0.40036 0.0905 0.0
C527 C 0.27189 0.41465 0.05613 0.0
C528 C 0.30865 0.43151 0.04139 0.0
C529 C 0.34178 0.4343 0.06048 0.0
C530 C 0.33728 0.41878 0.09436 0.0
C531 C 0.3003 0.40192 0.1093 0.0
C532 C 0.17386 0.3354 0.18532 0.0
C533 C 0.20213 0.33159 0.20734 0.0
C534 C 0.1929 0.31653 0.24105 0.0
C535 C 0.15532 0.30492 0.2532 0.0
C536 C 0.12637 0.30636 0.23063 0.0
C537 C 0.13546 0.32133 0.19709 0.0
C538 C 0.1425 0.40351 0.0876 0.0
C539 C 0.10741 0.39674 0.10248 0.0
C540 C 0.32245 0.91823 0.27068 0.0
C541 C 0.31803 0.90303 0.30467 0.0
C542 C 0.35127 0.90626 0.32391 0.0
C543 C 0.38807 0.92323 0.3092 0.0
H544 H 0.47927 0.905 0.32058 0.0
H545 H 0.5192 0.87575 0.34653 0.0
H546 H 0.60177 0.92884 0.26552 0.0
H547 H 0.56189 0.95816 0.23918 0.0
H548 H 0.54729 0.01445 0.18442 0.0
H549 H 0.56257 0.03959 0.12566 0.0
H550 H 0.44426 0.02209 0.10723 0.0
H551 H 0.42794 0.9955 0.16601 0.0
H552 H 0.36178 0.94552 0.22921 0.0
H553 H 0.29712 0.91618 0.25534 0.0
H554 H 0.34877 0.89518 0.35024 0.0
H555 H 0.41291 0.92466 0.32487 0.0
N556 N 0.45668 0.93972 0.27446 0.0
N557 N 0.50066 0.96978 0.23045 0.0
N558 N 0.44009 0.9709 0.22798 0.0
C559 C 0.49142 0.94901 0.2607 0.0
C560 C 0.47543 0.98113 0.21393 0.0
C561 C 0.43088 0.95044 0.25867 0.0
C562 C 0.51729 0.9339 0.27763 0.0
C563 C 0.50604 0.91076 0.30828 0.0
C564 C 0.52881 0.89389 0.32323 0.0
C565 C 0.56331 0.89995 0.30793 0.0
C566 C 0.57515 0.92374 0.27779 0.0
C567 C 0.55234 0.94056 0.26273 0.0
C568 C 0.48601 0.00209 0.17992 0.0
C569 C 0.52444 0.01627 0.16818 0.0
C570 C 0.53351 0.0312 0.13462 0.0
C571 C 0.50451 0.03248 0.11201 0.0
C572 C 0.4669 0.02078 0.12413 0.0
C573 C 0.45769 0.00577 0.15785 0.0
C574 C 0.39252 0.93719 0.27472 0.0
C575 C 0.35945 0.93521 0.25578 0.0
C576 C 0.08581 0.40114 0.29086 0.0
C577 C 0.12404 0.42065 0.3093 0.0
C578 C 0.14948 0.46711 0.3109 0.0
C579 C 0.13664 0.49369 0.29506 0.0
H580 H 0.15612 0.62617 0.30253 0.0
H581 H 0.17965 0.70132 0.32978 0.0
H582 H 0.06559 0.68873 0.2964 0.0
H583 H 0.04261 0.61443 0.26829 0.0
H584 H 0.01194 0.55938 0.18741 0.0
H585 H 0.98166 0.54721 0.1274 0.0
H586 H -0.00121 0.4352 0.10763 0.0
H587 H 0.03022 0.44763 0.16763 0.0
H588 H 0.04377 0.41189 0.26016 0.0
H589 H 0.06582 0.36529 0.28881 0.0
H590 H 0.17915 0.48296 0.32478 0.0
H591 H 0.15672 0.52953 0.29717 0.0
N592 N 0.097 0.54372 0.27779 0.0
N593 N 0.05966 0.55682 0.2348 0.0
N594 N 0.06021 0.4896 0.23069 0.0
C595 C 0.0842 0.57051 0.26499 0.0
C596 C 0.04777 0.51669 0.21721 0.0
C597 C 0.08477 0.50305 0.26112 0.0
C598 C 0.09763 0.61467 0.2832 0.0
C599 C 0.13605 0.63943 0.30128 0.0
C600 C 0.14953 0.68237 0.31677 0.0
C601 C 0.12435 0.70063 0.31532 0.0
C602 C 0.08548 0.67526 0.29822 0.0
C603 C 0.07244 0.63291 0.28191 0.0
C604 C 0.02416 0.50487 0.18239 0.0
C605 C 0.00903 0.53179 0.17056 0.0
C606 C 0.9914 0.52475 0.13624 0.0
C607 C 0.98842 0.49067 0.11295 0.0
C608 C 0.00149 0.46223 0.12501 0.0
C609 C 0.01917 0.46918 0.15947 0.0
C610 C 0.09854 0.47427 0.27642 0.0
C611 C 0.07337 0.42769 0.27415 0.0
C612 C 0.59325 0.67565 0.29675 0.0
C613 C 0.57881 0.70049 0.31439 0.0
C614 C 0.53728 0.68196 0.31626 0.0
C615 C 0.51051 0.63933 0.30051 0.0
H616 H 0.40429 0.53596 0.31233 0.0
H617 H 0.34083 0.49649 0.33839 0.0
H618 H 0.30303 0.38263 0.26385 0.0
H619 H 0.3675 0.42234 0.23718 0.0
H620 H 0.42885 0.44621 0.16662 0.0
H621 H 0.44452 0.43299 0.10716 0.0
H622 H 0.56333 0.54853 0.12607 0.0
H623 H 0.54904 0.56097 0.18558 0.0
H624 H 0.57814 0.61521 0.26611 0.0
H625 H 0.62522 0.68947 0.29468 0.0
H626 H 0.5255 0.70054 0.32971 0.0
H627 H 0.47853 0.62601 0.30205 0.0
N628 N 0.45932 0.5465 0.27529 0.0
N629 N 0.44013 0.49272 0.22762 0.0
N630 N 0.50492 0.55656 0.23364 0.0
C631 C 0.43121 0.50724 0.25797 0.0
C632 C 0.47729 0.51752 0.21534 0.0
C633 C 0.49605 0.57118 0.26352 0.0
C634 C 0.39134 0.48228 0.27258 0.0
C635 C 0.38277 0.50244 0.30127 0.0
C636 C 0.34627 0.47988 0.31638 0.0
C637 C 0.31724 0.43652 0.30335 0.0
C638 C 0.32521 0.41611 0.27453 0.0
C639 C 0.36199 0.43885 0.25919 0.0
C640 C 0.48733 0.50512 0.1809 0.0
C641 C 0.45854 0.46836 0.15838 0.0
C642 C 0.46733 0.46099 0.12424 0.0
C643 C 0.50479 0.49037 0.112 0.0
C644 C 0.53426 0.52538 0.13501 0.0
C645 C 0.52576 0.53258 0.16907 0.0
C646 C 0.52479 0.61498 0.28187 0.0
C647 C 0.56639 0.63339 0.28021 0.0
Tb648 Tb 0.54073 0.03877 1.01329 0.0
C649 C 0.52143 0.94453 0.03988 0.0
Tb650 Tb 0.45219 0.965 0.01854 0.0
O651 O 0.54283 0.07339 0.06391 0.0
O652 O 0.5033 0.00601 0.05324 0.0
O653 O 0.54858 0.98334 0.02868 0.0
C654 C 0.38086 0.92383 0.04548 0.0
O655 O 0.48272 0.93206 0.04084 0.0
C656 C 0.48154 0.96521 0.95732 0.0
C657 C 0.47147 0.05923 0.99194 0.0
O658 O 0.39179 0.90686 0.02013 0.0
O659 O 0.40982 0.96399 0.05512 0.0
O660 O 0.45029 0.93046 0.96788 0.0
O661 O 0.48961 0.99776 0.97868 0.0
O662 O 0.44434 0.02044 1.00317 0.0
O663 O 0.51017 0.07167 0.99095 0.0
C664 C 0.61201 0.07996 0.98626 0.0
O665 O 0.60102 0.09703 1.01149 0.0
O666 O 0.58316 0.03968 0.97681 0.0
C667 C 0.51158 0.03871 0.07453 0.0
Tb668 Tb 0.96251 0.51248 1.01419 0.0
C669 C 0.05266 0.59044 0.03664 0.0
Tb670 Tb 0.03031 0.49126 0.01777 0.0
O671 O 0.942 0.48525 0.06483 0.0
O672 O 0.00135 0.51074 0.05408 0.0
O673 O 0.0151 0.57919 0.0265 0.0
C674 C 0.07293 0.45616 0.04242 0.0
O675 O 0.06469 0.56086 0.03845 0.0
C676 C 0.0166 0.5152 0.95655 0.0
C677 C 0.94014 0.41328 0.99533 0.0
O678 O 0.08192 0.48111 0.01611 0.0
O679 O 0.04028 0.45119 0.05452 0.0
O680 O 0.05073 0.51863 0.9671 0.0
O681 O 0.99149 0.49298 0.97798 0.0
O682 O 0.97772 0.42453 1.00546 0.0
O683 O 0.92812 0.44287 0.99354 0.0
C684 C 0.91997 0.54762 0.98944 0.0
O685 O 0.91093 0.52269 0.01577 0.0
O686 O 0.95262 0.55254 0.97738 0.0
C687 C 0.97607 0.4886 0.07543 0.0
Tb688 Tb 0.45257 0.48998 0.01867 0.0
C689 C 0.47247 0.41356 0.99611 0.0
Tb690 Tb 0.54052 0.51389 1.01304 0.0
O691 O 0.4509 0.51756 0.96841 0.0
O692 O 0.4891 0.49305 0.97827 0.0
O693 O 0.4456 0.42404 1.00661 0.0
C694 C 0.61216 0.54991 0.98655 0.0
O695 O 0.51099 0.44376 0.99386 0.0
C696 C 0.51174 0.48887 0.07442 0.0
C697 C 0.52061 0.5903 0.03558 0.0
O698 O 0.60389 0.53158 0.01632 0.0
O699 O 0.58019 0.54762 0.97194 0.0
O700 O 0.54195 0.48615 0.06334 0.0
O701 O 0.504 0.51084 0.05335 0.0
O702 O 0.54746 0.57985 0.02503 0.0
O703 O 0.48211 0.56009 0.0379 0.0
C704 C 0.38095 0.45398 0.04522 0.0
O705 O 0.38929 0.47265 0.0156 0.0
O706 O 0.41284 0.45589 0.05966 0.0
C707 C 0.48114 0.51493 0.95727 0.0
Tb708 Tb 0.2074 0.37211 0.34662 0.0
C709 C 0.1881 0.27786 0.37322 0.0
Tb710 Tb 0.11885 0.29834 0.35187 0.0
O711 O 0.2095 0.40673 0.39724 0.0
O712 O 0.16996 0.33935 0.38658 0.0
O713 O 0.21525 0.31667 0.36202 0.0
C714 C 0.04753 0.25716 0.37882 0.0
O715 O 0.14939 0.2654 0.37418 0.0
C716 C 0.14821 0.29854 0.29066 0.0
C717 C 0.13814 0.39257 0.32527 0.0
O718 O 0.05846 0.24019 0.35347 0.0
O719 O 0.07648 0.29733 0.38845 0.0
O720 O 0.11696 0.26379 0.30122 0.0
O721 O 0.15628 0.33109 0.31201 0.0
O722 O 0.111 0.35378 0.3365 0.0
O723 O 0.17684 0.40501 0.32429 0.0
C724 C 0.27868 0.4133 0.3196 0.0
O725 O 0.26768 0.43036 0.34482 0.0
O726 O 0.24983 0.37302 0.31014 0.0
C727 C 0.17825 0.37205 0.40786 0.0
Tb728 Tb 0.62918 0.84581 0.34752 0.0
C729 C 0.71933 0.92378 0.36998 0.0
Tb730 Tb 0.69698 0.82459 0.35111 0.0
O731 O 0.60866 0.81858 0.39816 0.0
O732 O 0.66802 0.84407 0.38741 0.0
O733 O 0.68177 0.91253 0.35983 0.0
C734 C 0.7396 0.7895 0.37575 0.0
O735 O 0.73136 0.89419 0.37179 0.0
C736 C 0.68327 0.84854 0.28989 0.0
C737 C 0.60681 0.74661 0.32867 0.0
O738 O 0.74859 0.81445 0.34945 0.0
O739 O 0.70695 0.78453 0.38785 0.0
O740 O 0.7174 0.85196 0.30044 0.0
O741 O 0.65816 0.82632 0.31131 0.0
O742 O 0.64438 0.75787 0.3388 0.0
O743 O 0.59478 0.7762 0.32687 0.0
C744 C 0.58664 0.88096 0.32278 0.0
O745 O 0.5776 0.85603 0.3491 0.0
O746 O 0.61928 0.88587 0.31071 0.0
C747 C 0.64274 0.82194 0.40877 0.0
Tb748 Tb 0.11923 0.82331 0.352 0.0
C749 C 0.13914 0.7469 0.32944 0.0
Tb750 Tb 0.20718 0.84723 0.34638 0.0
O751 O 0.11757 0.85089 0.30174 0.0
O752 O 0.15577 0.82638 0.3116 0.0
O753 O 0.11227 0.75737 0.33995 0.0
C754 C 0.27883 0.88324 0.31989 0.0
O755 O 0.17766 0.77709 0.3272 0.0
C756 C 0.1784 0.8222 0.40775 0.0
C757 C 0.18728 0.92364 0.36892 0.0
O758 O 0.27056 0.86491 0.34965 0.0
O759 O 0.24685 0.88095 0.30527 0.0
O760 O 0.20862 0.81948 0.39667 0.0
O761 O 0.17067 0.84418 0.38669 0.0
O762 O 0.21413 0.91318 0.35836 0.0
O763 O 0.14878 0.89343 0.37123 0.0
C764 C 0.04762 0.78732 0.37855 0.0
O765 O 0.05596 0.80598 0.34893 0.0
O766 O 0.07951 0.78923 0.393 0.0
C767 C 0.14781 0.84827 0.29061 0.0
Tb768 Tb 0.87407 0.70544 0.67995 0.0
C769 C 0.85476 0.61119 0.70655 0.0
Tb770 Tb 0.78552 0.63167 0.68521 0.0
O771 O 0.87616 0.74006 0.73058 0.0
O772 O 0.83663 0.67268 0.71991 0.0
O773 O 0.88191 0.65 0.69535 0.0
C774 C 0.7142 0.5905 0.71215 0.0
O775 O 0.81606 0.59873 0.70751 0.0
C776 C 0.81488 0.63187 0.62399 0.0
C777 C 0.80481 0.7259 0.65861 0.0
O778 O 0.72513 0.57352 0.6868 0.0
O779 O 0.74315 0.63066 0.72178 0.0
O780 O 0.78363 0.59713 0.63455 0.0
O781 O 0.82295 0.66442 0.64534 0.0
O782 O 0.77767 0.68711 0.66983 0.0
O783 O 0.8435 0.73834 0.65762 0.0
C784 C 0.94534 0.74663 0.65293 0.0
O785 O 0.93435 0.76369 0.67816 0.0
O786 O 0.91649 0.70635 0.64348 0.0
C787 C 0.84491 0.70538 0.7412 0.0
Tb788 Tb 0.29584 0.17915 0.68086 0.0
C789 C 0.386 0.25711 0.70331 0.0
Tb790 Tb 0.36364 0.15793 0.68444 0.0
O791 O 0.27533 0.15191 0.73149 0.0
O792 O 0.33468 0.17741 0.72074 0.0
O793 O 0.34843 0.24586 0.69317 0.0
C794 C 0.40626 0.12283 0.70909 0.0
O795 O 0.39803 0.22752 0.70512 0.0
C796 C 0.34994 0.18187 0.62322 0.0
C797 C 0.27348 0.07995 0.662 0.0
O798 O 0.41526 0.14778 0.68278 0.0
O799 O 0.37361 0.11786 0.72118 0.0
O800 O 0.38406 0.1853 0.63377 0.0
O801 O 0.32483 0.15965 0.64464 0.0
O802 O 0.31105 0.0912 0.67213 0.0
O803 O 0.26145 0.10954 0.6602 0.0
C804 C 0.25331 0.21429 0.65611 0.0
O805 O 0.24427 0.18936 0.68243 0.0
O806 O 0.28595 0.21921 0.64404 0.0
C807 C 0.30941 0.15527 0.7421 0.0
Tb808 Tb 0.7859 0.15664 0.68534 0.0
C809 C 0.8058 0.08023 0.66278 0.0
Tb810 Tb 0.87385 0.18056 0.67971 0.0
O811 O 0.78424 0.18423 0.63507 0.0
O812 O 0.82243 0.15972 0.64494 0.0
O813 O 0.77894 0.0907 0.67328 0.0
C814 C 0.9455 0.21657 0.65322 0.0
O815 O 0.84432 0.11042 0.66053 0.0
C816 C 0.84507 0.15554 0.74108 0.0
C817 C 0.85394 0.25697 0.70225 0.0
O818 O 0.93723 0.19824 0.68298 0.0
O819 O 0.91352 0.21429 0.6386 0.0
O820 O 0.87529 0.15281 0.73 0.0
O821 O 0.83734 0.17751 0.72002 0.0
O822 O 0.8808 0.24651 0.69169 0.0
O823 O 0.81545 0.22676 0.70457 0.0
C824 C 0.71429 0.12065 0.71189 0.0
O825 O 0.72263 0.13931 0.68227 0.0
O826 O 0.74617 0.12256 0.72633 0.0
C827 C 0.81447 0.1816 0.62394 0.0
loop_
_geom_bond_atom_site_label_1
_geom_bond_atom_site_label_2
_geom_bond_distance
_geom_bond_site_symmetry_2
_ccdc_geom_bond_type
C0 C1 1.384 . S
C0 H13 0.947 . S
C0 C35 1.382 1_565 S
C1 C0 1.384 . S
C1 C2 1.378 1_565 S
C2 C1 1.378 1_545 S
C2 C3 1.378 . S
C2 H14 0.952 . S
C3 C2 1.378 . S
C3 H15 0.950 . S
C3 C34 1.383 . S
H4 C23 0.947 . S
H5 C24 0.946 . S
H6 C26 0.953 . S
H7 C27 0.945 . S
H8 C29 0.952 . S
H9 C30 0.949 . S
H10 C32 0.950 . S
H11 C33 0.948 . S
H12 C35 0.951 . S
H13 C0 0.947 . S
H14 C2 0.952 . S
H15 C3 0.950 . S
N16 C19 1.382 . S
N16 C21 1.363 . S
N17 C19 1.371 . S
N17 C20 1.372 . S
N18 C20 1.361 . S
N18 C21 1.377 . S
C19 N16 1.382 . S
C19 N17 1.371 . S
C19 C22 1.480 . S
C20 N17 1.372 . S
C20 N18 1.361 . S
C20 C28 1.457 . S
C21 N16 1.363 . S
C21 N18 1.377 . S
C21 C34 1.479 . S
C22 C19 1.480 . S
C22 C23 1.383 . S
C22 C27 1.385 . S
C23 H4 0.947 . S
C23 C22 1.383 . S
C23 C24 1.388 . S
C24 H5 0.946 . S
C24 C23 1.388 . S
C24 C25 1.384 . S
C25 C24 1.384 . S
C25 C26 1.377 . S
C26 H6 0.953 . S
C26 C25 1.377 . S
C26 C27 1.369 . S
C27 H7 0.945 . S
C27 C22 1.385 . S
C27 C26 1.369 . S
C28 C20 1.457 . S
C28 C29 1.372 . S
C28 C33 1.364 . S
C29 H8 0.952 . S
C29 C28 1.372 . S
C29 C30 1.389 . S
C30 H9 0.949 . S
C30 C29 1.389 . S
C30 C31 1.387 . S
C31 C30 1.387 . S
C31 C32 1.372 . S
C32 H10 0.950 . S
C32 C31 1.372 . S
C32 C33 1.379 . S
C33 H11 0.948 . S
C33 C28 1.364 . S
C33 C32 1.379 . S
C34 C3 1.383 . S
C34 C21 1.479 . S
C34 C35 1.398 . S
C35 C0 1.382 1_545 S
C35 H12 0.951 . S
C35 C34 1.398 . S
C36 C37 1.384 . S
C36 H49 0.947 . S
C36 C71 1.382 1_455 S
C37 C36 1.384 . S
C37 C38 1.378 1_455 S
C38 C37 1.378 1_655 S
C38 C39 1.378 . S
C38 H50 0.952 . S
C39 C38 1.378 . S
C39 H51 0.950 . S
C39 C70 1.383 . S
H40 C59 0.947 . S
H41 C60 0.946 1_565 S
H42 C62 0.953 . S
H43 C63 0.945 . S
H44 C65 0.952 . S
H45 C66 0.949 . S
H46 C68 0.950 . S
H47 C69 0.948 . S
H48 C71 0.951 . S
H49 C36 0.947 . S
H50 C38 0.952 . S
H51 C39 0.950 . S
N52 C55 1.382 . S
N52 C57 1.363 . S
N53 C55 1.371 . S
N53 C56 1.372 . S
N54 C56 1.361 . S
N54 C57 1.377 . S
C55 N52 1.382 . S
C55 N53 1.371 . S
C55 C58 1.480 . S
C56 N53 1.372 . S
C56 N54 1.361 . S
C56 C64 1.457 . S
C57 N52 1.363 . S
C57 N54 1.377 . S
C57 C70 1.479 . S
C58 C55 1.480 . S
C58 C59 1.383 . S
C58 C63 1.385 . S
C59 H40 0.947 . S
C59 C58 1.383 . S
C59 C60 1.388 . S
C60 H41 0.946 1_545 S
C60 C59 1.388 . S
C60 C61 1.384 1_545 S
C61 C60 1.384 1_565 S
C61 C62 1.377 . S
C62 H42 0.953 . S
C62 C61 1.377 . S
C62 C63 1.369 1_565 S
C63 H43 0.945 . S
C63 C58 1.385 . S
C63 C62 1.369 1_545 S
C64 C56 1.457 . S
C64 C65 1.372 . S
C64 C69 1.364 . S
C65 H44 0.952 . S
C65 C64 1.372 . S
C65 C66 1.389 . S
C66 H45 0.949 . S
C66 C65 1.389 . S
C66 C67 1.387 . S
C67 C66 1.387 . S
C67 C68 1.372 . S
C68 H46 0.950 . S
C68 C67 1.372 . S
C68 C69 1.379 . S
C69 H47 0.948 . S
C69 C64 1.364 . S
C69 C68 1.379 . S
C70 C39 1.383 . S
C70 C57 1.479 . S
C70 C71 1.398 . S
C71 C36 1.382 1_655 S
C71 H48 0.951 . S
C71 C70 1.398 . S
C72 C73 1.384 . S
C72 H85 0.947 . S
C72 C107 1.382 . S
C73 C72 1.384 . S
C73 C74 1.378 . S
C74 C73 1.378 . S
C74 C75 1.378 . S
C74 H86 0.952 . S
C75 C74 1.378 . S
C75 H87 0.950 . S
C75 C106 1.383 . S
H76 C95 0.947 . S
H77 C96 0.946 . S
H78 C98 0.953 . S
H79 C99 0.945 . S
H80 C101 0.952 . S
H81 C102 0.949 . S
H82 C104 0.950 . S
H83 C105 0.948 . S
H84 C107 0.951 . S
H85 C72 0.947 . S
H86 C74 0.952 . S
H87 C75 0.950 . S
N88 C91 1.382 . S
N88 C93 1.363 . S
N89 C91 1.371 . S
N89 C92 1.372 . S
N90 C92 1.361 . S
N90 C93 1.377 . S
C91 N88 1.382 . S
C91 N89 1.371 . S
C91 C94 1.480 . S
C92 N89 1.372 . S
C92 N90 1.361 . S
C92 C100 1.457 . S
C93 N88 1.363 . S
C93 N90 1.377 . S
C93 C106 1.479 . S
C94 C91 1.480 . S
C94 C95 1.383 . S
C94 C99 1.385 . S
C95 H76 0.947 . S
C95 C94 1.383 . S
C95 C96 1.388 . S
C96 H77 0.946 . S
C96 C95 1.388 . S
C96 C97 1.384 1_655 S
C97 C96 1.384 1_455 S
C97 C98 1.377 . S
C98 H78 0.953 . S
C98 C97 1.377 . S
C98 C99 1.369 1_455 S
C99 H79 0.945 . S
C99 C94 1.385 . S
C99 C98 1.369 1_655 S
C100 C92 1.457 . S
C100 C101 1.372 . S
C100 C105 1.364 . S
C101 H80 0.952 . S
C101 C100 1.372 . S
C101 C102 1.389 . S
C102 H81 0.949 . S
C102 C101 1.389 . S
C102 C103 1.387 . S
C103 C102 1.387 . S
C103 C104 1.372 . S
C104 H82 0.950 . S
C104 C103 1.372 . S
C104 C105 1.379 . S
C105 H83 0.948 . S
C105 C100 1.364 . S
C105 C104 1.379 . S
C106 C75 1.383 . S
C106 C93 1.479 . S
C106 C107 1.398 . S
C107 C72 1.382 . S
C107 H84 0.951 . S
C107 C106 1.398 . S
C108 C109 1.384 . S
C108 H121 0.947 . S
C108 C143 1.382 1_655 S
C109 C108 1.384 . S
C109 C110 1.378 1_655 S
C110 C109 1.378 1_455 S
C110 C111 1.378 . S
C110 H122 0.952 . S
C111 C110 1.378 . S
C111 H123 0.950 . S
C111 C142 1.383 . S
H112 C131 0.947 . S
H113 C132 0.946 . S
H114 C134 0.953 . S
H115 C135 0.945 . S
H116 C137 0.952 . S
H117 C138 0.949 . S
H118 C140 0.950 . S
H119 C141 0.948 . S
H120 C143 0.951 . S
H121 C108 0.947 . S
H122 C110 0.952 . S
H123 C111 0.950 . S
N124 C127 1.382 . S
N124 C129 1.363 . S
N125 C127 1.371 . S
N125 C128 1.372 . S
N126 C128 1.361 . S
N126 C129 1.377 . S
C127 N124 1.382 . S
C127 N125 1.371 . S
C127 C130 1.480 . S
C128 N125 1.372 . S
C128 N126 1.361 . S
C128 C136 1.457 . S
C129 N124 1.363 . S
C129 N126 1.377 . S
C129 C142 1.479 . S
C130 C127 1.480 . S
C130 C131 1.383 . S
C130 C135 1.385 . S
C131 H112 0.947 . S
C131 C130 1.383 . S
C131 C132 1.388 . S
C132 H113 0.946 . S
C132 C131 1.388 . S
C132 C133 1.384 . S
C133 C132 1.384 . S
C133 C134 1.377 . S
C134 H114 0.953 . S
C134 C133 1.377 . S
C134 C135 1.369 . S
C135 H115 0.945 . S
C135 C130 1.385 . S
C135 C134 1.369 . S
C136 C128 1.457 . S
C136 C137 1.372 . S
C136 C141 1.364 . S
C137 H116 0.952 . S
C137 C136 1.372 . S
C137 C138 1.389 . S
C138 H117 0.949 . S
C138 C137 1.389 . S
C138 C139 1.387 . S
C139 C138 1.387 . S
C139 C140 1.372 . S
C140 H118 0.950 . S
C140 C139 1.372 . S
C140 C141 1.379 . S
C141 H119 0.948 . S
C141 C136 1.364 . S
C141 C140 1.379 . S
C142 C111 1.383 . S
C142 C129 1.479 . S
C142 C143 1.398 . S
C143 C108 1.382 1_455 S
C143 H120 0.951 . S
C143 C142 1.398 . S
C144 C145 1.384 . S
C144 H157 0.947 . S
C144 C179 1.382 . S
C145 C144 1.384 . S
C145 C146 1.378 . S
C146 C145 1.378 . S
C146 C147 1.378 . S
C146 H158 0.952 . S
C147 C146 1.378 . S
C147 H159 0.950 . S
C147 C178 1.383 . S
H148 C167 0.947 . S
H149 C168 0.946 1_545 S
H150 C170 0.953 . S
H151 C171 0.945 . S
H152 C173 0.952 . S
H153 C174 0.949 . S
H154 C176 0.950 . S
H155 C177 0.948 . S
H156 C179 0.951 . S
H157 C144 0.947 . S
H158 C146 0.952 . S
H159 C147 0.950 . S
N160 C163 1.382 . S
N160 C165 1.363 . S
N161 C163 1.371 . S
N161 C164 1.372 . S
N162 C164 1.361 . S
N162 C165 1.377 . S
C163 N160 1.382 . S
C163 N161 1.371 . S
C163 C166 1.480 . S
C164 N161 1.372 . S
C164 N162 1.361 . S
C164 C172 1.457 . S
C165 N160 1.363 . S
C165 N162 1.377 . S
C165 C178 1.479 . S
C166 C163 1.480 . S
C166 C167 1.383 . S
C166 C171 1.385 . S
C167 H148 0.947 . S
C167 C166 1.383 . S
C167 C168 1.388 . S
C168 H149 0.946 1_565 S
C168 C167 1.388 . S
C168 C169 1.384 1_565 S
C169 C168 1.384 1_545 S
C169 C170 1.377 . S
C170 H150 0.953 . S
C170 C169 1.377 . S
C170 C171 1.369 1_545 S
C171 H151 0.945 . S
C171 C166 1.385 . S
C171 C170 1.369 1_565 S
C172 C164 1.457 . S
C172 C173 1.372 . S
C172 C177 1.364 . S
C173 H152 0.952 . S
C173 C172 1.372 . S
C173 C174 1.389 . S
C174 H153 0.949 . S
C174 C173 1.389 . S
C174 C175 1.387 . S
C175 C174 1.387 . S
C175 C176 1.372 . S
C176 H154 0.950 . S
C176 C175 1.372 . S
C176 C177 1.379 . S
C177 H155 0.948 . S
C177 C172 1.364 . S
C177 C176 1.379 . S
C178 C147 1.383 . S
C178 C165 1.479 . S
C178 C179 1.398 . S
C179 C144 1.382 . S
C179 H156 0.951 . S
C179 C178 1.398 . S
C180 C181 1.384 . S
C180 H193 0.947 . S
C180 C215 1.382 1_545 S
C181 C180 1.384 . S
C181 C182 1.378 1_545 S
C182 C181 1.378 1_565 S
C182 C183 1.378 . S
C182 H194 0.952 1_565 S
C183 C182 1.378 . S
C183 H195 0.950 . S
C183 C214 1.383 . S
H184 C203 0.947 . S
H185 C204 0.946 . S
H186 C206 0.945 1_655 S
H187 C207 0.945 . S
H188 C209 0.952 . S
H189 C210 0.949 . S
H190 C212 0.950 . S
H191 C213 0.948 . S
H192 C215 0.951 . S
H193 C180 0.947 . S
H194 C182 0.952 1_545 S
H195 C183 0.950 . S
N196 C199 1.382 . S
N196 C201 1.363 . S
N197 C199 1.371 . S
N197 C200 1.372 . S
N198 C200 1.361 . S
N198 C201 1.377 . S
C199 N196 1.382 . S
C199 N197 1.371 . S
C199 C202 1.480 . S
C200 N197 1.372 . S
C200 N198 1.361 . S
C200 C208 1.457 . S
C201 N196 1.363 . S
C201 N198 1.377 . S
C201 C214 1.479 . S
C202 C199 1.480 . S
C202 C203 1.383 . S
C202 C207 1.385 . S
C203 H184 0.947 . S
C203 C202 1.383 . S
C203 C204 1.388 . S
C204 H185 0.946 . S
C204 C203 1.388 . S
C204 C205 1.384 1_455 S
C205 C204 1.384 1_655 S
C205 C206 1.364 1_655 S
C206 H186 0.945 1_455 S
C206 C205 1.364 1_455 S
C206 C207 1.391 . S
C207 H187 0.945 . S
C207 C202 1.385 . S
C207 C206 1.391 . S
C208 C200 1.457 . S
C208 C209 1.372 . S
C208 C213 1.364 . S
C209 H188 0.952 . S
C209 C208 1.372 . S
C209 C210 1.389 . S
C210 H189 0.949 . S
C210 C209 1.389 . S
C210 C211 1.387 . S
C211 C210 1.387 . S
C211 C212 1.372 . S
C212 H190 0.950 . S
C212 C211 1.372 . S
C212 C213 1.379 . S
C213 H191 0.948 . S
C213 C208 1.364 . S
C213 C212 1.379 . S
C214 C183 1.383 . S
C214 C201 1.479 . S
C214 C215 1.398 . S
C215 C180 1.382 1_565 S
C215 H192 0.951 . S
C215 C214 1.398 . S
C216 C217 1.384 . S
C216 H229 0.947 . S
C216 C251 1.382 . S
C217 C216 1.384 . S
C217 C218 1.378 . S
C218 C217 1.378 . S
C218 C219 1.378 . S
C218 H230 0.952 . S
C219 C218 1.378 . S
C219 H231 0.950 . S
C219 C250 1.383 . S
H220 C239 0.947 . S
H221 C240 0.946 . S
H222 C242 0.953 . S
H223 C243 0.945 . S
H224 C245 0.952 . S
H225 C246 0.949 . S
H226 C248 0.940 1_455 S
H227 C249 0.948 . S
H228 C251 0.951 . S
H229 C216 0.947 . S
H230 C218 0.952 . S
H231 C219 0.950 . S
N232 C235 1.382 . S
N232 C237 1.363 . S
N233 C235 1.371 . S
N233 C236 1.372 . S
N234 C236 1.361 . S
N234 C237 1.377 . S
C235 N232 1.382 . S
C235 N233 1.371 . S
C235 C238 1.480 . S
C236 N233 1.372 . S
C236 N234 1.361 . S
C236 C244 1.457 . S
C237 N232 1.363 . S
C237 N234 1.377 . S
C237 C250 1.479 . S
C238 C235 1.480 . S
C238 C239 1.383 . S
C238 C243 1.385 . S
C239 H220 0.947 . S
C239 C238 1.383 . S
C239 C240 1.388 . S
C240 H221 0.946 . S
C240 C239 1.388 . S
C240 C241 1.384 . S
C241 C240 1.384 . S
C241 C242 1.377 . S
C242 H222 0.953 . S
C242 C241 1.377 . S
C242 C243 1.369 . S
C243 H223 0.945 . S
C243 C238 1.385 . S
C243 C242 1.369 . S
C244 C236 1.457 . S
C244 C245 1.372 . S
C244 C249 1.364 . S
C245 H224 0.952 . S
C245 C244 1.372 . S
C245 C246 1.389 . S
C246 H225 0.949 . S
C246 C245 1.389 . S
C246 C247 1.387 . S
C247 C246 1.387 . S
C247 C248 1.372 . S
C248 H226 0.940 1_655 S
C248 C247 1.372 . S
C248 C249 1.379 . S
C249 H227 0.948 . S
C249 C244 1.364 . S
C249 C248 1.379 . S
C250 C219 1.383 . S
C250 C237 1.479 . S
C250 C251 1.398 . S
C251 C216 1.382 . S
C251 H228 0.951 . S
C251 C250 1.398 . S
C252 C253 1.384 . S
C252 H265 0.947 . S
C252 C287 1.382 . S
C253 C252 1.384 . S
C253 C254 1.378 . S
C254 C253 1.378 . S
C254 C255 1.378 . S
C254 H266 0.952 . S
C255 C254 1.378 . S
C255 H267 0.950 . S
C255 C286 1.383 . S
H256 C275 0.947 . S
H257 C276 0.946 . S
H258 C278 0.953 . S
H259 C279 0.945 . S
H260 C281 0.952 . S
H261 C282 0.949 . S
H262 C284 0.950 . S
H263 C285 0.948 . S
H264 C287 0.951 . S
H265 C252 0.947 . S
H266 C254 0.952 . S
H267 C255 0.950 . S
N268 C271 1.382 . S
N268 C273 1.363 . S
N269 C271 1.371 . S
N269 C272 1.372 . S
N270 C272 1.361 . S
N270 C273 1.377 . S
C271 N268 1.382 . S
C271 N269 1.371 . S
C271 C274 1.480 . S
C272 N269 1.372 . S
C272 N270 1.361 . S
C272 C280 1.457 . S
C273 N268 1.363 . S
C273 N270 1.377 . S
C273 C286 1.479 . S
C274 C271 1.480 . S
C274 C275 1.383 . S
C274 C279 1.385 . S
C275 H256 0.947 . S
C275 C274 1.383 . S
C275 C276 1.388 . S
C276 H257 0.946 . S
C276 C275 1.388 . S
C276 C277 1.384 . S
C277 C276 1.384 . S
C277 C278 1.377 . S
C278 H258 0.953 . S
C278 C277 1.377 . S
C278 C279 1.369 . S
C279 H259 0.945 . S
C279 C274 1.385 . S
C279 C278 1.369 . S
C280 C272 1.457 . S
C280 C281 1.372 . S
C280 C285 1.364 . S
C281 H260 0.952 . S
C281 C280 1.372 . S
C281 C282 1.389 . S
C282 H261 0.949 . S
C282 C281 1.389 . S
C282 C283 1.387 . S
C283 C282 1.387 . S
C283 C284 1.372 . S
C284 H262 0.950 . S
C284 C283 1.372 . S
C284 C285 1.379 . S
C285 H263 0.948 . S
C285 C280 1.364 . S
C285 C284 1.379 . S
C286 C255 1.383 . S
C286 C273 1.479 . S
C286 C287 1.398 . S
C287 C252 1.382 . S
C287 H264 0.951 . S
C287 C286 1.398 . S
C288 C289 1.384 . S
C288 H301 0.947 . S
C288 C323 1.382 . S
C289 C288 1.384 . S
C289 C290 1.378 . S
C290 C289 1.378 . S
C290 C291 1.378 . S
C290 H302 0.952 . S
C291 C290 1.378 . S
C291 H303 0.950 . S
C291 C322 1.383 . S
H292 C311 0.947 . S
H293 C312 0.946 . S
H294 C314 0.953 . S
H295 C315 0.945 . S
H296 C317 0.952 . S
H297 C318 0.949 . S
H298 C320 0.950 1_565 S
H299 C321 0.948 . S
H300 C323 0.951 . S
H301 C288 0.947 . S
H302 C290 0.952 . S
H303 C291 0.950 . S
N304 C307 1.382 . S
N304 C309 1.363 . S
N305 C307 1.371 . S
N305 C308 1.372 . S
N306 C308 1.361 . S
N306 C309 1.377 . S
C307 N304 1.382 . S
C307 N305 1.371 . S
C307 C310 1.480 . S
C308 N305 1.372 . S
C308 N306 1.361 . S
C308 C316 1.457 . S
C309 N304 1.363 . S
C309 N306 1.377 . S
C309 C322 1.479 . S
C310 C307 1.480 . S
C310 C311 1.383 . S
C310 C315 1.385 . S
C311 H292 0.947 . S
C311 C310 1.383 . S
C311 C312 1.388 . S
C312 H293 0.946 . S
C312 C311 1.388 . S
C312 C313 1.384 . S
C313 C312 1.384 . S
C313 C314 1.377 . S
C314 H294 0.953 . S
C314 C313 1.377 . S
C314 C315 1.369 . S
C315 H295 0.945 . S
C315 C310 1.385 . S
C315 C314 1.369 . S
C316 C308 1.457 . S
C316 C317 1.372 . S
C316 C321 1.364 . S
C317 H296 0.952 . S
C317 C316 1.372 . S
C317 C318 1.389 . S
C318 H297 0.949 . S
C318 C317 1.389 . S
C318 C319 1.392 1_545 S
C319 C318 1.392 1_565 S
C319 C320 1.356 1_565 S
C320 H298 0.950 1_545 S
C320 C319 1.356 1_545 S
C320 C321 1.380 . S
C321 H299 0.948 . S
C321 C316 1.364 . S
C321 C320 1.380 . S
C322 C291 1.383 . S
C322 C309 1.479 . S
C322 C323 1.398 . S
C323 C288 1.382 . S
C323 H300 0.951 . S
C323 C322 1.398 . S
C324 C325 1.384 . S
C324 H337 0.947 . S
C324 C359 1.382 . S
C325 C324 1.384 . S
C325 C326 1.378 . S
C326 C325 1.378 . S
C326 C327 1.378 . S
C326 H338 0.952 . S
C327 C326 1.378 . S
C327 H339 0.950 . S
C327 C358 1.383 . S
H328 C347 0.947 . S
H329 C348 0.946 . S
H330 C350 0.953 . S
H331 C351 0.945 . S
H332 C353 0.952 . S
H333 C354 0.949 . S
H334 C356 0.950 . S
H335 C357 0.948 . S
H336 C359 0.951 . S
H337 C324 0.947 . S
H338 C326 0.952 . S
H339 C327 0.950 . S
N340 C343 1.382 . S
N340 C345 1.363 . S
N341 C343 1.371 . S
N341 C344 1.372 . S
N342 C344 1.361 . S
N342 C345 1.377 . S
C343 N340 1.382 . S
C343 N341 1.371 . S
C343 C346 1.480 . S
C344 N341 1.372 . S
C344 N342 1.361 . S
C344 C352 1.457 . S
C345 N340 1.363 . S
C345 N342 1.377 . S
C345 C358 1.479 . S
C346 C343 1.480 . S
C346 C347 1.383 . S
C346 C351 1.385 . S
C347 H328 0.947 . S
C347 C346 1.383 . S
C347 C348 1.388 . S
C348 H329 0.946 . S
C348 C347 1.388 . S
C348 C349 1.384 . S
C349 C348 1.384 . S
C349 C350 1.377 . S
C350 H330 0.953 . S
C350 C349 1.377 . S
C350 C351 1.369 . S
C351 H331 0.945 . S
C351 C346 1.385 . S
C351 C350 1.369 . S
C352 C344 1.457 . S
C352 C353 1.372 . S
C352 C357 1.364 . S
C353 H332 0.952 . S
C353 C352 1.372 . S
C353 C354 1.389 . S
C354 H333 0.949 . S
C354 C353 1.389 . S
C354 C355 1.387 . S
C355 C354 1.387 . S
C355 C356 1.372 . S
C356 H334 0.950 . S
C356 C355 1.372 . S
C356 C357 1.379 . S
C357 H335 0.948 . S
C357 C352 1.364 . S
C357 C356 1.379 . S
C358 C327 1.383 . S
C358 C345 1.479 . S
C358 C359 1.398 . S
C359 C324 1.382 . S
C359 H336 0.951 . S
C359 C358 1.398 . S
C360 C361 1.384 . S
C360 H373 0.947 . S
C360 C395 1.382 . S
C361 C360 1.384 . S
C361 C362 1.378 . S
C362 C361 1.378 . S
C362 C363 1.378 . S
C362 H374 0.952 1_556 S
C363 C362 1.378 . S
C363 H375 0.950 . S
C363 C394 1.383 . S
H364 C383 0.947 . S
H365 C384 0.946 1_554 S
H366 C386 0.953 . S
H367 C387 0.945 . S
H368 C389 0.952 . S
H369 C390 0.949 . S
H370 C392 0.950 . S
H371 C393 0.948 . S
H372 C395 0.951 . S
H373 C360 0.947 . S
H374 C362 0.952 1_554 S
H375 C363 0.950 . S
N376 C379 1.382 . S
N376 C381 1.363 . S
N377 C379 1.371 . S
N377 C380 1.372 . S
N378 C380 1.361 . S
N378 C381 1.377 . S
C379 N376 1.382 . S
C379 N377 1.371 . S
C379 C382 1.480 . S
C380 N377 1.372 . S
C380 N378 1.361 . S
C380 C388 1.457 . S
C381 N376 1.363 . S
C381 N378 1.377 . S
C381 C394 1.479 . S
C382 C379 1.480 . S
C382 C383 1.383 . S
C382 C387 1.385 . S
C383 H364 0.947 . S
C383 C382 1.383 . S
C383 C384 1.388 . S
C384 H365 0.946 1_556 S
C384 C383 1.388 . S
C384 C385 1.384 . S
C385 C384 1.384 . S
C385 C386 1.377 . S
C386 H366 0.953 . S
C386 C385 1.377 . S
C386 C387 1.369 . S
C387 H367 0.945 . S
C387 C382 1.385 . S
C387 C386 1.369 . S
C388 C380 1.457 . S
C388 C389 1.372 . S
C388 C393 1.364 . S
C389 H368 0.952 . S
C389 C388 1.372 . S
C389 C390 1.389 . S
C390 H369 0.949 . S
C390 C389 1.389 . S
C390 C391 1.387 . S
C391 C390 1.387 . S
C391 C392 1.372 . S
C392 H370 0.950 . S
C392 C391 1.372 . S
C392 C393 1.379 . S
C393 H371 0.948 . S
C393 C388 1.364 . S
C393 C392 1.379 . S
C394 C363 1.383 . S
C394 C381 1.479 . S
C394 C395 1.398 . S
C395 C360 1.382 . S
C395 H372 0.951 . S
C395 C394 1.398 . S
C396 C397 1.384 . S
C396 H409 0.947 . S
C396 C431 1.382 . S
C397 C396 1.384 . S
C397 C398 1.378 . S
C398 C397 1.378 . S
C398 C399 1.378 . S
C398 H410 0.952 1_556 S
C399 C398 1.378 . S
C399 H411 0.950 . S
C399 C430 1.383 . S
H400 C419 0.947 . S
H401 C420 0.946 . S
H402 C422 0.953 . S
H403 C423 0.945 . S
H404 C425 0.952 . S
H405 C426 0.949 . S
H406 C428 0.950 . S
H407 C429 0.948 . S
H408 C431 0.951 . S
H409 C396 0.947 . S
H410 C398 0.952 1_554 S
H411 C399 0.950 . S
N412 C415 1.382 . S
N412 C417 1.363 . S
N413 C415 1.371 . S
N413 C416 1.372 . S
N414 C416 1.361 . S
N414 C417 1.377 . S
C415 N412 1.382 . S
C415 N413 1.371 . S
C415 C418 1.480 . S
C416 N413 1.372 . S
C416 N414 1.361 . S
C416 C424 1.457 . S
C417 N412 1.363 . S
C417 N414 1.377 . S
C417 C430 1.479 . S
C418 C415 1.480 . S
C418 C419 1.383 . S
C418 C423 1.385 . S
C419 H400 0.947 . S
C419 C418 1.383 . S
C419 C420 1.388 . S
C420 H401 0.946 . S
C420 C419 1.388 . S
C420 C421 1.384 . S
C421 C420 1.384 . S
C421 C422 1.377 . S
C422 H402 0.953 . S
C422 C421 1.377 . S
C422 C423 1.369 . S
C423 H403 0.945 . S
C423 C418 1.385 . S
C423 C422 1.369 . S
C424 C416 1.457 . S
C424 C425 1.372 . S
C424 C429 1.364 . S
C425 H404 0.952 . S
C425 C424 1.372 . S
C425 C426 1.389 . S
C426 H405 0.949 . S
C426 C425 1.389 . S
C426 C427 1.387 . S
C427 C426 1.387 . S
C427 C428 1.372 . S
C428 H406 0.950 . S
C428 C427 1.372 . S
C428 C429 1.379 . S
C429 H407 0.948 . S
C429 C424 1.364 . S
C429 C428 1.379 . S
C430 C399 1.383 . S
C430 C417 1.479 . S
C430 C431 1.398 . S
C431 C396 1.382 . S
C431 H408 0.951 . S
C431 C430 1.398 . S
C432 C433 1.384 . S
C432 H445 0.947 . S
C432 C467 1.382 . S
C433 C432 1.384 . S
C433 C434 1.378 . S
C434 C433 1.378 . S
C434 C435 1.378 . S
C434 H446 0.952 1_554 S
C435 C434 1.378 . S
C435 H447 0.950 . S
C435 C466 1.383 . S
H436 C455 0.947 . S
H437 C456 0.946 1_556 S
H438 C458 0.953 . S
H439 C459 0.945 . S
H440 C461 0.952 . S
H441 C462 0.949 . S
H442 C464 0.950 . S
H443 C465 0.948 . S
H444 C467 0.951 . S
H445 C432 0.947 . S
H446 C434 0.952 1_556 S
H447 C435 0.950 . S
N448 C451 1.382 . S
N448 C453 1.363 . S
N449 C451 1.371 . S
N449 C452 1.372 . S
N450 C452 1.361 . S
N450 C453 1.377 . S
C451 N448 1.382 . S
C451 N449 1.371 . S
C451 C454 1.480 . S
C452 N449 1.372 . S
C452 N450 1.361 . S
C452 C460 1.457 . S
C453 N448 1.363 . S
C453 N450 1.377 . S
C453 C466 1.479 . S
C454 C451 1.480 . S
C454 C455 1.383 . S
C454 C459 1.385 . S
C455 H436 0.947 . S
C455 C454 1.383 . S
C455 C456 1.388 . S
C456 H437 0.946 1_554 S
C456 C455 1.388 . S
C456 C457 1.384 . S
C457 C456 1.384 . S
C457 C458 1.377 . S
C458 H438 0.953 . S
C458 C457 1.377 . S
C458 C459 1.369 . S
C459 H439 0.945 . S
C459 C454 1.385 . S
C459 C458 1.369 . S
C460 C452 1.457 . S
C460 C461 1.372 . S
C460 C465 1.364 . S
C461 H440 0.952 . S
C461 C460 1.372 . S
C461 C462 1.389 . S
C462 H441 0.949 . S
C462 C461 1.389 . S
C462 C463 1.387 . S
C463 C462 1.387 . S
C463 C464 1.372 . S
C464 H442 0.950 . S
C464 C463 1.372 . S
C464 C465 1.379 . S
C465 H443 0.948 . S
C465 C460 1.364 . S
C465 C464 1.379 . S
C466 C435 1.383 . S
C466 C453 1.479 . S
C466 C467 1.398 . S
C467 C432 1.382 . S
C467 H444 0.951 . S
C467 C466 1.398 . S
C468 C469 1.384 . S
C468 H481 0.947 . S
C468 C503 1.382 . S
C469 C468 1.384 . S
C469 C470 1.378 . S
C470 C469 1.378 . S
C470 C471 1.378 . S
C470 H482 0.952 . S
C471 C470 1.378 . S
C471 H483 0.950 . S
C471 C502 1.383 . S
H472 C491 0.947 . S
H473 C492 0.946 1_556 S
H474 C494 0.953 . S
H475 C495 0.945 . S
H476 C497 0.952 . S
H477 C498 0.949 . S
H478 C500 0.950 . S
H479 C501 0.948 . S
H480 C503 0.951 . S
H481 C468 0.947 . S
H482 C470 0.952 . S
H483 C471 0.950 . S
N484 C487 1.382 . S
N484 C489 1.363 . S
N485 C487 1.371 . S
N485 C488 1.372 . S
N486 C488 1.361 . S
N486 C489 1.377 . S
C487 N484 1.382 . S
C487 N485 1.371 . S
C487 C490 1.480 . S
C488 N485 1.372 . S
C488 N486 1.361 . S
C488 C496 1.457 . S
C489 N484 1.363 . S
C489 N486 1.377 . S
C489 C502 1.479 . S
C490 C487 1.480 . S
C490 C491 1.383 . S
C490 C495 1.385 . S
C491 H472 0.947 . S
C491 C490 1.383 . S
C491 C492 1.388 . S
C492 H473 0.946 1_554 S
C492 C491 1.388 . S
C492 C493 1.384 . S
C493 C492 1.384 . S
C493 C494 1.377 . S
C494 H474 0.953 . S
C494 C493 1.377 . S
C494 C495 1.369 . S
C495 H475 0.945 . S
C495 C490 1.385 . S
C495 C494 1.369 . S
C496 C488 1.457 . S
C496 C497 1.372 . S
C496 C501 1.364 . S
C497 H476 0.952 . S
C497 C496 1.372 . S
C497 C498 1.389 . S
C498 H477 0.949 . S
C498 C497 1.389 . S
C498 C499 1.387 . S
C499 C498 1.387 . S
C499 C500 1.372 . S
C500 H478 0.950 . S
C500 C499 1.372 . S
C500 C501 1.379 . S
C501 H479 0.948 . S
C501 C496 1.364 . S
C501 C500 1.379 . S
C502 C471 1.383 . S
C502 C489 1.479 . S
C502 C503 1.398 . S
C503 C468 1.382 . S
C503 H480 0.951 . S
C503 C502 1.398 . S
C504 C505 1.384 . S
C504 H517 0.947 . S
C504 C539 1.382 . S
C505 C504 1.384 . S
C505 C506 1.378 . S
C506 C505 1.378 . S
C506 C507 1.378 . S
C506 H518 0.952 . S
C507 C506 1.378 . S
C507 H519 0.950 . S
C507 C538 1.383 . S
H508 C527 0.947 . S
H509 C528 0.946 . S
H510 C530 0.953 . S
H511 C531 0.945 . S
H512 C533 0.952 . S
H513 C534 0.949 . S
H514 C536 0.950 . S
H515 C537 0.948 . S
H516 C539 0.951 . S
H517 C504 0.947 . S
H518 C506 0.952 . S
H519 C507 0.950 . S
N520 C523 1.382 . S
N520 C525 1.363 . S
N521 C523 1.371 . S
N521 C524 1.372 . S
N522 C524 1.361 . S
N522 C525 1.377 . S
C523 N520 1.382 . S
C523 N521 1.371 . S
C523 C526 1.480 . S
C524 N521 1.372 . S
C524 N522 1.361 . S
C524 C532 1.457 . S
C525 N520 1.363 . S
C525 N522 1.377 . S
C525 C538 1.479 . S
C526 C523 1.480 . S
C526 C527 1.383 . S
C526 C531 1.385 . S
C527 H508 0.947 . S
C527 C526 1.383 . S
C527 C528 1.388 . S
C528 H509 0.946 . S
C528 C527 1.388 . S
C528 C529 1.384 . S
C529 C528 1.384 . S
C529 C530 1.377 . S
C530 H510 0.953 . S
C530 C529 1.377 . S
C530 C531 1.369 . S
C531 H511 0.945 . S
C531 C526 1.385 . S
C531 C530 1.369 . S
C532 C524 1.457 . S
C532 C533 1.372 . S
C532 C537 1.364 . S
C533 H512 0.952 . S
C533 C532 1.372 . S
C533 C534 1.389 . S
C534 H513 0.949 . S
C534 C533 1.389 . S
C534 C535 1.387 . S
C535 C534 1.387 . S
C535 C536 1.372 . S
C536 H514 0.950 . S
C536 C535 1.372 . S
C536 C537 1.379 . S
C537 H515 0.948 . S
C537 C532 1.364 . S
C537 C536 1.379 . S
C538 C507 1.383 . S
C538 C525 1.479 . S
C538 C539 1.398 . S
C539 C504 1.382 . S
C539 H516 0.951 . S
C539 C538 1.398 . S
C540 C541 1.384 . S
C540 H553 0.947 . S
C540 C575 1.382 . S
C541 C540 1.384 . S
C541 C542 1.378 . S
C542 C541 1.378 . S
C542 C543 1.378 . S
C542 H554 0.952 . S
C543 C542 1.378 . S
C543 H555 0.950 . S
C543 C574 1.383 . S
H544 C563 0.947 . S
H545 C564 0.946 . S
H546 C566 0.953 . S
H547 C567 0.945 . S
H548 C569 0.952 . S
H549 C570 0.949 . S
H550 C572 0.950 . S
H551 C573 0.948 . S
H552 C575 0.951 . S
H553 C540 0.947 . S
H554 C542 0.952 . S
H555 C543 0.950 . S
N556 C559 1.382 . S
N556 C561 1.363 . S
N557 C559 1.371 . S
N557 C560 1.372 . S
N558 C560 1.361 . S
N558 C561 1.377 . S
C559 N556 1.382 . S
C559 N557 1.371 . S
C559 C562 1.480 . S
C560 N557 1.372 . S
C560 N558 1.361 . S
C560 C568 1.457 . S
C561 N556 1.363 . S
C561 N558 1.377 . S
C561 C574 1.479 . S
C562 C559 1.480 . S
C562 C563 1.383 . S
C562 C567 1.385 . S
C563 H544 0.947 . S
C563 C562 1.383 . S
C563 C564 1.388 . S
C564 H545 0.946 . S
C564 C563 1.388 . S
C564 C565 1.384 . S
C565 C564 1.384 . S
C565 C566 1.377 . S
C566 H546 0.953 . S
C566 C565 1.377 . S
C566 C567 1.369 . S
C567 H547 0.945 . S
C567 C562 1.385 . S
C567 C566 1.369 . S
C568 C560 1.457 . S
C568 C569 1.372 . S
C568 C573 1.364 . S
C569 H548 0.952 . S
C569 C568 1.372 . S
C569 C570 1.389 . S
C570 H549 0.949 . S
C570 C569 1.389 . S
C570 C571 1.387 1_565 S
C571 C570 1.387 1_545 S
C571 C572 1.372 . S
C572 H550 0.950 . S
C572 C571 1.372 . S
C572 C573 1.379 1_545 S
C573 H551 0.948 . S
C573 C568 1.364 . S
C573 C572 1.379 1_565 S
C574 C543 1.383 . S
C574 C561 1.479 . S
C574 C575 1.398 . S
C575 C540 1.382 . S
C575 H552 0.951 . S
C575 C574 1.398 . S
C576 C577 1.384 . S
C576 H589 0.947 . S
C576 C611 1.382 . S
C577 C576 1.384 . S
C577 C578 1.378 . S
C578 C577 1.378 . S
C578 C579 1.378 . S
C578 H590 0.952 . S
C579 C578 1.378 . S
C579 H591 0.950 . S
C579 C610 1.383 . S
H580 C599 0.947 . S
H581 C600 0.946 . S
H582 C602 0.953 . S
H583 C603 0.945 . S
H584 C605 0.952 . S
H585 C606 0.949 . S
H586 C608 0.953 1_655 S
H587 C609 0.948 . S
H588 C611 0.951 . S
H589 C576 0.947 . S
H590 C578 0.952 . S
H591 C579 0.950 . S
N592 C595 1.382 . S
N592 C597 1.363 . S
N593 C595 1.371 . S
N593 C596 1.372 . S
N594 C596 1.361 . S
N594 C597 1.377 . S
C595 N592 1.382 . S
C595 N593 1.371 . S
C595 C598 1.480 . S
C596 N593 1.372 . S
C596 N594 1.361 . S
C596 C604 1.457 . S
C597 N592 1.363 . S
C597 N594 1.377 . S
C597 C610 1.479 . S
C598 C595 1.480 . S
C598 C599 1.383 . S
C598 C603 1.385 . S
C599 H580 0.947 . S
C599 C598 1.383 . S
C599 C600 1.388 . S
C600 H581 0.946 . S
C600 C599 1.388 . S
C600 C601 1.384 . S
C601 C600 1.384 . S
C601 C602 1.377 . S
C602 H582 0.953 . S
C602 C601 1.377 . S
C602 C603 1.369 . S
C603 H583 0.945 . S
C603 C598 1.385 . S
C603 C602 1.369 . S
C604 C596 1.457 . S
C604 C605 1.372 . S
C604 C609 1.364 . S
C605 H584 0.952 . S
C605 C604 1.372 . S
C605 C606 1.389 . S
C606 H585 0.949 . S
C606 C605 1.389 . S
C606 C607 1.387 . S
C607 C606 1.387 . S
C607 C608 1.372 . S
C608 H586 0.953 1_455 S
C608 C607 1.372 . S
C608 C609 1.379 . S
C609 H587 0.948 . S
C609 C604 1.364 . S
C609 C608 1.379 . S
C610 C579 1.383 . S
C610 C597 1.479 . S
C610 C611 1.398 . S
C611 C576 1.382 . S
C611 H588 0.951 . S
C611 C610 1.398 . S
C612 C613 1.384 . S
C612 H625 0.947 . S
C612 C647 1.382 . S
C613 C612 1.384 . S
C613 C614 1.378 . S
C614 C613 1.378 . S
C614 C615 1.378 . S
C614 H626 0.952 . S
C615 C614 1.378 . S
C615 H627 0.950 . S
C615 C646 1.383 . S
H616 C635 0.947 . S
H617 C636 0.946 . S
H618 C638 0.953 . S
H619 C639 0.945 . S
H620 C641 0.952 . S
H621 C642 0.949 . S
H622 C644 0.950 . S
H623 C645 0.948 . S
H624 C647 0.951 . S
H625 C612 0.947 . S
H626 C614 0.952 . S
H627 C615 0.950 . S
N628 C631 1.382 . S
N628 C633 1.363 . S
N629 C631 1.371 . S
N629 C632 1.372 . S
N630 C632 1.361 . S
N630 C633 1.377 . S
C631 N628 1.382 . S
C631 N629 1.371 . S
C631 C634 1.480 . S
C632 N629 1.372 . S
C632 N630 1.361 . S
C632 C640 1.457 . S
C633 N628 1.363 . S
C633 N630 1.377 . S
C633 C646 1.479 . S
C634 C631 1.480 . S
C634 C635 1.383 . S
C634 C639 1.385 . S
C635 H616 0.947 . S
C635 C634 1.383 . S
C635 C636 1.388 . S
C636 H617 0.946 . S
C636 C635 1.388 . S
C636 C637 1.384 . S
C637 C636 1.384 . S
C637 C638 1.377 . S
C638 H618 0.953 . S
C638 C637 1.377 . S
C638 C639 1.369 . S
C639 H619 0.945 . S
C639 C634 1.385 . S
C639 C638 1.369 . S
C640 C632 1.457 . S
C640 C641 1.372 . S
C640 C645 1.364 . S
C641 H620 0.952 . S
C641 C640 1.372 . S
C641 C642 1.389 . S
C642 H621 0.949 . S
C642 C641 1.389 . S
C642 C643 1.387 . S
C643 C642 1.387 . S
C643 C644 1.372 . S
C644 H622 0.950 . S
C644 C643 1.372 . S
C644 C645 1.379 . S
C645 H623 0.948 . S
C645 C640 1.364 . S
C645 C644 1.379 . S
C646 C615 1.383 . S
C646 C633 1.479 . S
C646 C647 1.398 . S
C647 C612 1.382 . S
C647 H624 0.951 . S
C647 C646 1.398 . S
Tb648 O651 2.453 . S
Tb648 O652 2.596 1_545 S
Tb648 O653 2.374 1_545 S
Tb648 O661 2.343 1_554 S
Tb648 O663 2.353 . S
Tb648 O665 2.427 1_554 S
Tb648 O666 2.513 1_554 S
C649 O653 1.251 . S
C649 O655 1.263 1_554 S
Tb650 O652 2.343 1_556 S
Tb650 O655 2.353 . S
Tb650 O658 2.427 1_556 S
Tb650 O659 2.513 1_556 S
Tb650 O660 2.453 . S
Tb650 O661 2.596 1_565 S
Tb650 O662 2.374 1_565 S
O651 Tb648 2.453 . S
O651 C667 1.245 . S
O652 Tb648 2.596 1_565 S
O652 Tb650 2.343 1_554 S
O652 C667 1.259 1_565 S
O653 Tb648 2.374 1_565 S
O653 C649 1.251 . S
C654 O658 1.275 . S
C654 O659 1.246 . S
O655 C649 1.263 1_556 S
O655 Tb650 2.353 . S
C656 O660 1.245 . S
C656 O661 1.259 1_565 S
C657 O662 1.250 . S
C657 O663 1.263 1_556 S
O658 Tb650 2.427 1_554 S
O658 C654 1.275 . S
O659 Tb650 2.513 1_554 S
O659 C654 1.246 . S
O660 Tb650 2.453 . S
O660 C656 1.245 . S
O661 Tb648 2.343 1_556 S
O661 Tb650 2.596 1_545 S
O661 C656 1.259 1_545 S
O662 Tb650 2.374 1_545 S
O662 C657 1.250 . S
O663 Tb648 2.353 . S
O663 C657 1.263 1_554 S
C664 O665 1.275 . S
C664 O666 1.246 . S
O665 Tb648 2.427 1_556 S
O665 C664 1.275 . S
O666 Tb648 2.513 1_556 S
O666 C664 1.246 . S
C667 O651 1.245 . S
C667 O652 1.259 1_545 S
Tb668 O671 2.453 . S
Tb668 O672 2.596 1_655 S
Tb668 O673 2.374 1_655 S
Tb668 O681 2.343 1_554 S
Tb668 O683 2.349 1_554 S
Tb668 O685 2.427 1_554 S
Tb668 O686 2.513 1_554 S
C669 O673 1.251 . S
C669 O675 1.263 . S
Tb670 O672 2.343 1_556 S
Tb670 O675 2.353 1_556 S
Tb670 O678 2.427 1_556 S
Tb670 O679 2.513 1_556 S
Tb670 O680 2.453 . S
Tb670 O681 2.596 1_455 S
Tb670 O682 2.374 1_455 S
O671 Tb668 2.453 . S
O671 C687 1.245 1_655 S
O672 Tb668 2.596 1_455 S
O672 Tb670 2.343 1_554 S
O672 C687 1.259 . S
O673 Tb668 2.374 1_455 S
O673 C669 1.251 . S
C674 O678 1.275 . S
C674 O679 1.246 . S
O675 C669 1.263 . S
O675 Tb670 2.353 1_554 S
C676 O680 1.245 1_655 S
C676 O681 1.259 . S
C677 O682 1.250 . S
C677 O683 1.276 . S
O678 Tb670 2.427 1_554 S
O678 C674 1.275 . S
O679 Tb670 2.513 1_554 S
O679 C674 1.246 . S
O680 Tb670 2.453 . S
O680 C676 1.245 1_455 S
O681 Tb668 2.343 1_556 S
O681 Tb670 2.596 1_655 S
O681 C676 1.259 . S
O682 Tb670 2.374 1_655 S
O682 C677 1.250 . S
O683 Tb668 2.349 1_556 S
O683 C677 1.276 . S
C684 O685 1.275 . S
C684 O686 1.246 . S
O685 Tb668 2.427 1_556 S
O685 C684 1.275 . S
O686 Tb668 2.513 1_556 S
O686 C684 1.246 . S
C687 O671 1.245 1_455 S
C687 O672 1.259 . S
Tb688 O691 2.453 . S
Tb688 O692 2.596 . S
Tb688 O693 2.374 . S
Tb688 O701 2.343 1_556 S
Tb688 O703 2.353 1_556 S
Tb688 O705 2.427 1_556 S
Tb688 O706 2.513 1_556 S
C689 O693 1.251 . S
C689 O695 1.263 1_556 S
Tb690 O692 2.343 1_554 S
Tb690 O695 2.353 . S
Tb690 O698 2.427 1_554 S
Tb690 O699 2.513 1_554 S
Tb690 O700 2.453 . S
Tb690 O701 2.596 . S
Tb690 O702 2.374 . S
O691 Tb688 2.453 . S
O691 C707 1.245 . S
O692 Tb688 2.596 . S
O692 Tb690 2.343 1_556 S
O692 C707 1.259 . S
O693 Tb688 2.374 . S
O693 C689 1.251 . S
C694 O698 1.275 . S
C694 O699 1.246 . S
O695 C689 1.263 1_554 S
O695 Tb690 2.353 . S
C696 O700 1.245 . S
C696 O701 1.259 . S
C697 O702 1.250 . S
C697 O703 1.263 . S
O698 Tb690 2.427 1_556 S
O698 C694 1.275 . S
O699 Tb690 2.513 1_556 S
O699 C694 1.246 . S
O700 Tb690 2.453 . S
O700 C696 1.245 . S
O701 Tb688 2.343 1_554 S
O701 Tb690 2.596 . S
O701 C696 1.259 . S
O702 Tb690 2.374 . S
O702 C697 1.250 . S
O703 Tb688 2.353 1_554 S
O703 C697 1.263 . S
C704 O705 1.275 . S
C704 O706 1.246 . S
O705 Tb688 2.427 1_554 S
O705 C704 1.275 . S
O706 Tb688 2.513 1_554 S
O706 C704 1.246 . S
C707 O691 1.245 . S
C707 O692 1.259 . S
Tb708 O711 2.453 . S
Tb708 O712 2.596 . S
Tb708 O713 2.374 . S
Tb708 O721 2.343 . S
Tb708 O723 2.353 . S
Tb708 O725 2.427 . S
Tb708 O726 2.513 . S
C709 O713 1.251 . S
C709 O715 1.263 . S
Tb710 O712 2.343 . S
Tb710 O715 2.353 . S
Tb710 O718 2.427 . S
Tb710 O719 2.513 . S
Tb710 O720 2.453 . S
Tb710 O721 2.596 . S
Tb710 O722 2.374 . S
O711 Tb708 2.453 . S
O711 C727 1.245 . S
O712 Tb708 2.596 . S
O712 Tb710 2.343 . S
O712 C727 1.259 . S
O713 Tb708 2.374 . S
O713 C709 1.251 . S
C714 O718 1.275 . S
C714 O719 1.246 . S
O715 C709 1.263 . S
O715 Tb710 2.353 . S
C716 O720 1.245 . S
C716 O721 1.259 . S
C717 O722 1.250 . S
C717 O723 1.263 . S
O718 Tb710 2.427 . S
O718 C714 1.275 . S
O719 Tb710 2.513 . S
O719 C714 1.246 . S
O720 Tb710 2.453 . S
O720 C716 1.245 . S
O721 Tb708 2.343 . S
O721 Tb710 2.596 . S
O721 C716 1.259 . S
O722 Tb710 2.374 . S
O722 C717 1.250 . S
O723 Tb708 2.353 . S
O723 C717 1.263 . S
C724 O725 1.275 . S
C724 O726 1.246 . S
O725 Tb708 2.427 . S
O725 C724 1.275 . S
O726 Tb708 2.513 . S
O726 C724 1.246 . S
C727 O711 1.245 . S
C727 O712 1.259 . S
Tb728 O731 2.453 . S
Tb728 O732 2.596 . S
Tb728 O733 2.374 . S
Tb728 O741 2.343 . S
Tb728 O743 2.353 . S
Tb728 O745 2.427 . S
Tb728 O746 2.513 . S
C729 O733 1.251 . S
C729 O735 1.263 . S
Tb730 O732 2.343 . S
Tb730 O735 2.353 . S
Tb730 O738 2.427 . S
Tb730 O739 2.513 . S
Tb730 O740 2.453 . S
Tb730 O741 2.596 . S
Tb730 O742 2.374 . S
O731 Tb728 2.453 . S
O731 C747 1.245 . S
O732 Tb728 2.596 . S
O732 Tb730 2.343 . S
O732 C747 1.259 . S
O733 Tb728 2.374 . S
O733 C729 1.251 . S
C734 O738 1.275 . S
C734 O739 1.246 . S
O735 C729 1.263 . S
O735 Tb730 2.353 . S
C736 O740 1.245 . S
C736 O741 1.259 . S
C737 O742 1.250 . S
C737 O743 1.263 . S
O738 Tb730 2.427 . S
O738 C734 1.275 . S
O739 Tb730 2.513 . S
O739 C734 1.246 . S
O740 Tb730 2.453 . S
O740 C736 1.245 . S
O741 Tb728 2.343 . S
O741 Tb730 2.596 . S
O741 C736 1.259 . S
O742 Tb730 2.374 . S
O742 C737 1.250 . S
O743 Tb728 2.353 . S
O743 C737 1.263 . S
C744 O745 1.275 . S
C744 O746 1.246 . S
O745 Tb728 2.427 . S
O745 C744 1.275 . S
O746 Tb728 2.513 . S
O746 C744 1.246 . S
C747 O731 1.245 . S
C747 O732 1.259 . S
Tb748 O751 2.453 . S
Tb748 O752 2.596 . S
Tb748 O753 2.374 . S
Tb748 O761 2.343 . S
Tb748 O763 2.353 . S
Tb748 O765 2.427 . S
Tb748 O766 2.513 . S
C749 O753 1.251 . S
C749 O755 1.263 . S
Tb750 O752 2.343 . S
Tb750 O755 2.353 . S
Tb750 O758 2.427 . S
Tb750 O759 2.513 . S
Tb750 O760 2.453 . S
Tb750 O761 2.596 . S
Tb750 O762 2.374 . S
O751 Tb748 2.453 . S
O751 C767 1.245 . S
O752 Tb748 2.596 . S
O752 Tb750 2.343 . S
O752 C767 1.259 . S
O753 Tb748 2.374 . S
O753 C749 1.251 . S
C754 O758 1.275 . S
C754 O759 1.246 . S
O755 C749 1.263 . S
O755 Tb750 2.353 . S
C756 O760 1.245 . S
C756 O761 1.259 . S
C757 O762 1.250 . S
C757 O763 1.263 . S
O758 Tb750 2.427 . S
O758 C754 1.275 . S
O759 Tb750 2.513 . S
O759 C754 1.246 . S
O760 Tb750 2.453 . S
O760 C756 1.245 . S
O761 Tb748 2.343 . S
O761 Tb750 2.596 . S
O761 C756 1.259 . S
O762 Tb750 2.374 . S
O762 C757 1.250 . S
O763 Tb748 2.353 . S
O763 C757 1.263 . S
C764 O765 1.275 . S
C764 O766 1.246 . S
O765 Tb748 2.427 . S
O765 C764 1.275 . S
O766 Tb748 2.513 . S
O766 C764 1.246 . S
C767 O751 1.245 . S
C767 O752 1.259 . S
Tb768 O771 2.453 . S
Tb768 O772 2.596 . S
Tb768 O773 2.374 . S
Tb768 O781 2.343 . S
Tb768 O783 2.353 . S
Tb768 O785 2.427 . S
Tb768 O786 2.513 . S
C769 O773 1.251 . S
C769 O775 1.263 . S
Tb770 O772 2.343 . S
Tb770 O775 2.353 . S
Tb770 O778 2.427 . S
Tb770 O779 2.513 . S
Tb770 O780 2.453 . S
Tb770 O781 2.596 . S
Tb770 O782 2.374 . S
O771 Tb768 2.453 . S
O771 C787 1.245 . S
O772 Tb768 2.596 . S
O772 Tb770 2.343 . S
O772 C787 1.259 . S
O773 Tb768 2.374 . S
O773 C769 1.251 . S
C774 O778 1.275 . S
C774 O779 1.246 . S
O775 C769 1.263 . S
O775 Tb770 2.353 . S
C776 O780 1.245 . S
C776 O781 1.259 . S
C777 O782 1.250 . S
C777 O783 1.263 . S
O778 Tb770 2.427 . S
O778 C774 1.275 . S
O779 Tb770 2.513 . S
O779 C774 1.246 . S
O780 Tb770 2.453 . S
O780 C776 1.245 . S
O781 Tb768 2.343 . S
O781 Tb770 2.596 . S
O781 C776 1.259 . S
O782 Tb770 2.374 . S
O782 C777 1.250 . S
O783 Tb768 2.353 . S
O783 C777 1.263 . S
C784 O785 1.275 . S
C784 O786 1.246 . S
O785 Tb768 2.427 . S
O785 C784 1.275 . S
O786 Tb768 2.513 . S
O786 C784 1.246 . S
C787 O771 1.245 . S
C787 O772 1.259 . S
Tb788 O791 2.453 . S
Tb788 O792 2.596 . S
Tb788 O793 2.374 . S
Tb788 O801 2.343 . S
Tb788 O803 2.353 . S
Tb788 O805 2.427 . S
Tb788 O806 2.513 . S
C789 O793 1.251 . S
C789 O795 1.263 . S
Tb790 O792 2.343 . S
Tb790 O795 2.353 . S
Tb790 O798 2.427 . S
Tb790 O799 2.513 . S
Tb790 O800 2.453 . S
Tb790 O801 2.596 . S
Tb790 O802 2.374 . S
O791 Tb788 2.453 . S
O791 C807 1.245 . S
O792 Tb788 2.596 . S
O792 Tb790 2.343 . S
O792 C807 1.259 . S
O793 Tb788 2.374 . S
O793 C789 1.251 . S
C794 O798 1.275 . S
C794 O799 1.246 . S
O795 C789 1.263 . S
O795 Tb790 2.353 . S
C796 O800 1.245 . S
C796 O801 1.259 . S
C797 O802 1.250 . S
C797 O803 1.263 . S
O798 Tb790 2.427 . S
O798 C794 1.275 . S
O799 Tb790 2.513 . S
O799 C794 1.246 . S
O800 Tb790 2.453 . S
O800 C796 1.245 . S
O801 Tb788 2.343 . S
O801 Tb790 2.596 . S
O801 C796 1.259 . S
O802 Tb790 2.374 . S
O802 C797 1.250 . S
O803 Tb788 2.353 . S
O803 C797 1.263 . S
C804 O805 1.275 . S
C804 O806 1.246 . S
O805 Tb788 2.427 . S
O805 C804 1.275 . S
O806 Tb788 2.513 . S
O806 C804 1.246 . S
C807 O791 1.245 . S
C807 O792 1.259 . S
Tb808 O811 2.453 . S
Tb808 O812 2.596 . S
Tb808 O813 2.374 . S
Tb808 O821 2.343 . S
Tb808 O823 2.353 . S
Tb808 O825 2.427 . S
Tb808 O826 2.513 . S
C809 O813 1.251 . S
C809 O815 1.263 . S
Tb810 O812 2.343 . S
Tb810 O815 2.353 . S
Tb810 O818 2.427 . S
Tb810 O819 2.513 . S
Tb810 O820 2.453 . S
Tb810 O821 2.596 . S
Tb810 O822 2.374 . S
O811 Tb808 2.453 . S
O811 C827 1.245 . S
O812 Tb808 2.596 . S
O812 Tb810 2.343 . S
O812 C827 1.259 . S
O813 Tb808 2.374 . S
O813 C809 1.251 . S
C814 O818 1.275 . S
C814 O819 1.246 . S
O815 C809 1.263 . S
O815 Tb810 2.353 . S
C816 O820 1.245 . S
C816 O821 1.259 . S
C817 O822 1.250 . S
C817 O823 1.263 . S
O818 Tb810 2.427 . S
O818 C814 1.275 . S
O819 Tb810 2.513 . S
O819 C814 1.246 . S
O820 Tb810 2.453 . S
O820 C816 1.245 . S
O821 Tb808 2.343 . S
O821 Tb810 2.596 . S
O821 C816 1.259 . S
O822 Tb810 2.374 . S
O822 C817 1.250 . S
O823 Tb808 2.353 . S
O823 C817 1.263 . S
C824 O825 1.275 . S
C824 O826 1.246 . S
O825 Tb808 2.427 . S
O825 C824 1.275 . S
O826 Tb808 2.513 . S
O826 C824 1.246 . S
C827 O811 1.245 . S
C827 O812 1.259 . S
C469 C654 1.902 . S
C505 C674 1.599 . S
C433 C697 1.751 . S
C397 C677 1.653 . S
C694 C325 1.712 . S
C361 C657 1.731 . S
C664 C421 1.948 . S
C684 C349 1.620 . S
C385 C689 1.744 . S
C493 C669 1.659 . S
C529 C704 1.768 . S
C649 C457 1.762 . S
C714 C37 1.902 . S
C73 C734 1.600 . S
C1 C757 1.751 . S
C613 C737 1.653 . S
C541 C754 1.712 . S
C577 C717 1.731 . S
C637 C724 1.949 . S
C565 C744 1.619 . S
C749 C601 1.743 . S
C61 C729 1.659 . S
C764 C97 1.768 . S
C25 C709 1.762 . S
C774 C253 1.903 . S
C289 C794 1.600 . S
C817 C217 1.752 . S
C797 C181 1.653 . S
C814 C109 1.711 . S
C145 C777 1.731 . S
C205 C784 1.948 . S
C133 C804 1.618 . S
C809 C169 1.743 . S
C277 C789 1.659 . S
C313 C824 1.769 . S
C241 C769 1.763 . S
C571 C667 1.320 . S
C687 C607 1.725 . S
C643 C696 1.558 . S
C247 C676 1.702 . S
C283 C707 1.586 . S
C656 C319 1.288 . S
C139 C727 1.320 . S
C175 C747 1.726 . S
C211 C756 1.557 . S
C463 C736 1.701 . S
C767 C499 1.586 . S
C535 C716 1.290 . S
C355 C787 1.321 . S
C391 C807 1.726 . S
C816 C427 1.558 . S
C31 C796 1.700 . S
C67 C827 1.585 . S
C103 C776 1.290 . S
