# Generated by pormake.
# Topology apo, (3,6)-cn, num edge types: 1
# Building blocks:
#     Node 0, Type 0, BuildingBlock: KAKCAD_clean_linker_0, # of connection points: 3
#     Node 1, Type 0, BuildingBlock: KAKCAD_clean_linker_0, # of connection points: 3
#     Node 2, Type 0, BuildingBlock: KAKCAD_clean_linker_0, # of connection points: 3
#     Node 3, Type 0, BuildingBlock: KAKCAD_clean_linker_0, # of connection points: 3
#     Node 4, Type 0, BuildingBlock: KAKCAD_clean_linker_0, # of connection points: 3
#     Node 5, Type 0, BuildingBlock: KAKCAD_clean_linker_0, # of connection points: 3
#     Node 6, Type 0, BuildingBlock: KAKCAD_clean_linker_0, # of connection points: 3
#     Node 7, Type 0, BuildingBlock: KAKCAD_clean_linker_0, # of connection points: 3
#     Node 8, Type 1, BuildingBlock: KUMBUR_clean_sbu_1, # of connection points: 6
#     Node 9, Type 1, BuildingBlock: KUMBUR_clean_sbu_1, # of connection points: 6
#     Node 10, Type 1, BuildingBlock: KUMBUR_clean_sbu_1, # of connection points: 6
#     Node 11, Type 1, BuildingBlock: KUMBUR_clean_sbu_1, # of connection points: 6
#     Edge 12, Type (0, 1), BuildingBlock: EZIPEK_clean_linker_0, # of connection points: 2
#     Edge 13, Type (0, 1), BuildingBlock: EZIPEK_clean_linker_0, # of connection points: 2
#     Edge 14, Type (0, 1), BuildingBlock: EZIPEK_clean_linker_0, # of connection points: 2
#     Edge 15, Type (0, 1), BuildingBlock: EZIPEK_clean_linker_0, # of connection points: 2
#     Edge 16, Type (0, 1), BuildingBlock: EZIPEK_clean_linker_0, # of connection points: 2
#     Edge 17, Type (0, 1), BuildingBlock: EZIPEK_clean_linker_0, # of connection points: 2
#     Edge 18, Type (0, 1), BuildingBlock: EZIPEK_clean_linker_0, # of connection points: 2
#     Edge 19, Type (0, 1), BuildingBlock: EZIPEK_clean_linker_0, # of connection points: 2
#     Edge 20, Type (0, 1), BuildingBlock: EZIPEK_clean_linker_0, # of connection points: 2
#     Edge 21, Type (0, 1), BuildingBlock: EZIPEK_clean_linker_0, # of connection points: 2
#     Edge 22, Type (0, 1), BuildingBlock: EZIPEK_clean_linker_0, # of connection points: 2
#     Edge 23, Type (0, 1), BuildingBlock: EZIPEK_clean_linker_0, # of connection points: 2
#     Edge 24, Type (0, 1), BuildingBlock: EZIPEK_clean_linker_0, # of connection points: 2
#     Edge 25, Type (0, 1), BuildingBlock: EZIPEK_clean_linker_0, # of connection points: 2
#     Edge 26, Type (0, 1), BuildingBlock: EZIPEK_clean_linker_0, # of connection points: 2
#     Edge 27, Type (0, 1), BuildingBlock: EZIPEK_clean_linker_0, # of connection points: 2
#     Edge 28, Type (0, 1), BuildingBlock: EZIPEK_clean_linker_0, # of connection points: 2
#     Edge 29, Type (0, 1), BuildingBlock: EZIPEK_clean_linker_0, # of connection points: 2
#     Edge 30, Type (0, 1), BuildingBlock: EZIPEK_clean_linker_0, # of connection points: 2
#     Edge 31, Type (0, 1), BuildingBlock: EZIPEK_clean_linker_0, # of connection points: 2
#     Edge 32, Type (0, 1), BuildingBlock: EZIPEK_clean_linker_0, # of connection points: 2
#     Edge 33, Type (0, 1), BuildingBlock: EZIPEK_clean_linker_0, # of connection points: 2
#     Edge 34, Type (0, 1), BuildingBlock: EZIPEK_clean_linker_0, # of connection points: 2
#     Edge 35, Type (0, 1), BuildingBlock: EZIPEK_clean_linker_0, # of connection points: 2
# Relax obj value: 0.008
# Max RMSD: 0.113
# Mean RMSD: 0.086
data_MOF--net-apo--node1-KUMBUR_clean_sbu_1--node2-KAKCAD_clean_linker_0--edge1-EZIPEK_clean_linker_0
_symmetry_space_group_name_H-M    P1
_symmetry_Int_Tables_number       1
_symmetry_cell_setting            triclinic
loop_
_symmetry_equiv_pos_as_xyz
'x, y, z'
_cell_length_a     23.212208
_cell_length_b     40.566786
_cell_length_c     51.483449
_cell_angle_alpha  90.006137
_cell_angle_beta   89.893111
_cell_angle_gamma 90.203158
loop_
_atom_site_label
_atom_site_type_symbol
_atom_site_fract_x
_atom_site_fract_y
_atom_site_fract_z
_atom_type_partial_charge
C0 C 0.32752 0.47663 0.34862 0.0
C1 C 0.38603 0.48532 0.34924 0.0
C2 C 0.30767 0.44926 0.36253 0.0
C3 C 0.34584 0.43047 0.37766 0.0
C4 C 0.40416 0.43976 0.37877 0.0
C5 C 0.42416 0.46686 0.36452 0.0
C6 C 0.32443 0.40131 0.39222 0.0
C7 C 0.28918 0.37799 0.37982 0.0
C8 C 0.26457 0.35152 0.39369 0.0
C9 C 0.27657 0.34857 0.42043 0.0
C10 C 0.31299 0.37133 0.433 0.0
C11 C 0.33709 0.39745 0.41868 0.0
C12 C 0.32295 0.36943 0.46146 0.0
C13 C 0.27608 0.36711 0.47868 0.0
C14 C 0.37895 0.37219 0.47166 0.0
C15 C 0.38773 0.37348 0.49855 0.0
C16 C 0.34053 0.37279 0.51565 0.0
C17 C 0.22493 0.32783 0.38037 0.0
C18 C 0.18817 0.33854 0.3605 0.0
C19 C 0.22453 0.29419 0.38673 0.0
C20 C 0.18621 0.27237 0.37455 0.0
C21 C 0.14482 0.2835 0.35637 0.0
C22 C 0.15065 0.31665 0.34813 0.0
C23 C 0.28477 0.36898 0.50552 0.0
H24 H 0.29749 0.49076 0.33704 0.0
H25 H 0.26236 0.44289 0.36163 0.0
H26 H 0.43442 0.42568 0.39025 0.0
H27 H 0.46944 0.47335 0.36526 0.0
H28 H 0.28139 0.38051 0.35918 0.0
H29 H 0.36353 0.41573 0.42843 0.0
H30 H 0.25696 0.32887 0.43162 0.0
H31 H 0.23247 0.36522 0.47136 0.0
H32 H 0.41584 0.37382 0.4588 0.0
H33 H 0.4311 0.37619 0.506 0.0
H34 H 0.188 0.36406 0.35434 0.0
H35 H 0.25468 0.28449 0.40079 0.0
H36 H 0.24782 0.36833 0.5184 0.0
H37 H 0.12776 0.32647 0.33174 0.0
H38 H 0.19047 0.24656 0.3793 0.0
C39 C 0.19318 0.02913 0.84899 0.0
C40 C 0.14269 0.01292 0.85687 0.0
C41 C 0.21486 0.05553 0.86344 0.0
C42 C 0.18569 0.06689 0.88576 0.0
C43 C 0.13535 0.05022 0.89371 0.0
C44 C 0.11445 0.02331 0.87956 0.0
C45 C 0.20747 0.09626 0.90029 0.0
C46 C 0.2344 0.12225 0.88689 0.0
C47 C 0.25902 0.14917 0.90011 0.0
C48 C 0.25328 0.15073 0.92736 0.0
C49 C 0.22355 0.12588 0.94106 0.0
C50 C 0.20182 0.09852 0.92742 0.0
C51 C 0.21525 0.12806 0.96968 0.0
C52 C 0.26165 0.13563 0.98618 0.0
C53 C 0.16087 0.12157 0.98073 0.0
C54 C 0.1533 0.12197 1.00769 0.0
C55 C 0.20014 0.12841 0.02414 0.0
C56 C 0.29031 0.17532 0.88511 0.0
C57 C 0.32063 0.16718 0.86223 0.0
C58 C 0.28923 0.20859 0.89297 0.0
C59 C 0.31704 0.23292 0.87821 0.0
C60 C 0.34536 0.22466 0.85496 0.0
C61 C 0.34693 0.19158 0.84716 0.0
C62 C 0.2542 0.13562 0.01318 0.0
H63 H 0.2157 0.02138 0.83159 0.0
H64 H 0.25456 0.06702 0.85703 0.0
H65 H 0.11117 0.05836 0.91051 0.0
H66 H 0.0753 0.0111 0.88592 0.0
H67 H 0.23537 0.12172 0.86587 0.0
H68 H 0.18166 0.07862 0.93817 0.0
H69 H 0.27162 0.17126 0.938 0.0
H70 H 0.30405 0.14056 0.97824 0.0
H71 H 0.1242 0.11605 0.96847 0.0
H72 H 0.11121 0.11652 0.01578 0.0
H73 H 0.32426 0.14186 0.85583 0.0
H74 H 0.26594 0.21606 0.91021 0.0
H75 H 0.29086 0.14066 0.02558 0.0
H76 H 0.36897 0.18462 0.82943 0.0
H77 H 0.31556 0.25833 0.88464 0.0
C78 C 0.80544 0.03253 0.68015 0.0
C79 C 0.86136 0.01987 0.67837 0.0
C80 C 0.7892 0.05922 0.66472 0.0
C81 C 0.82856 0.07351 0.64716 0.0
C82 C 0.88407 0.06009 0.64491 0.0
C83 C 0.90045 0.03354 0.66053 0.0
C84 C 0.81238 0.10333 0.63226 0.0
C85 C 0.78531 0.12959 0.64504 0.0
C86 C 0.76848 0.15792 0.63146 0.0
C87 C 0.77848 0.15963 0.60453 0.0
C88 C 0.80575 0.13356 0.59134 0.0
C89 C 0.82318 0.10562 0.60546 0.0
C90 C 0.81407 0.13494 0.56271 0.0
C91 C 0.76892 0.14532 0.5465 0.0
C92 C 0.86645 0.12515 0.55131 0.0
C93 C 0.87331 0.1255 0.52427 0.0
C94 C 0.82764 0.13522 0.50819 0.0
C95 C 0.73899 0.18507 0.64553 0.0
C96 C 0.75779 0.19479 0.6704 0.0
C97 C 0.69008 0.20026 0.63487 0.0
C98 C 0.65978 0.22395 0.64905 0.0
C99 C 0.6779 0.23284 0.67407 0.0
C100 C 0.72742 0.21845 0.68456 0.0
C101 C 0.7756 0.14535 0.51952 0.0
H102 H 0.77479 0.02209 0.69378 0.0
H103 H 0.74593 0.06885 0.66662 0.0
H104 H 0.91529 0.07077 0.63167 0.0
H105 H 0.94379 0.02391 0.65897 0.0
H106 H 0.77689 0.12779 0.66571 0.0
H107 H 0.84313 0.0851 0.59545 0.0
H108 H 0.76583 0.18147 0.59388 0.0
H109 H 0.7279 0.15268 0.55467 0.0
H110 H 0.90216 0.11732 0.5633 0.0
H111 H 0.91388 0.11778 0.51586 0.0
H112 H 0.7958 0.18391 0.67899 0.0
H113 H 0.67415 0.1931 0.61593 0.0
H114 H 0.73991 0.15294 0.50741 0.0
H115 H 0.74208 0.22527 0.7038 0.0
H116 H 0.62155 0.23493 0.64072 0.0
C117 C 0.71587 0.48113 0.17366 0.0
C118 C 0.65957 0.49342 0.17213 0.0
C119 C 0.73268 0.45445 0.15826 0.0
C120 C 0.69376 0.43987 0.14075 0.0
C121 C 0.63803 0.45306 0.13851 0.0
C122 C 0.62091 0.47949 0.15425 0.0
C123 C 0.71048 0.40982 0.12608 0.0
C124 C 0.73484 0.38306 0.13937 0.0
C125 C 0.75121 0.35429 0.12611 0.0
C126 C 0.7438 0.35276 0.09905 0.0
C127 C 0.71982 0.37938 0.08525 0.0
C128 C 0.70259 0.40772 0.09906 0.0
C129 C 0.71376 0.37761 0.05643 0.0
C130 C 0.75746 0.3633 0.04117 0.0
C131 C 0.66447 0.39002 0.04391 0.0
C132 C 0.65897 0.38797 0.01686 0.0
C133 C 0.70265 0.37353 1.00186 0.0
C134 C 0.77613 0.32602 0.14069 0.0
C135 C 0.75253 0.31649 0.16475 0.0
C136 C 0.82462 0.30904 0.13118 0.0
C137 C 0.84991 0.28382 0.14581 0.0
C138 C 0.82691 0.27507 0.17007 0.0
C139 C 0.7777 0.2913 0.17928 0.0
C140 C 0.75188 0.36124 0.01419 0.0
H141 H 0.74624 0.49161 0.18735 0.0
H142 H 0.776 0.44494 0.16023 0.0
H143 H 0.60714 0.44217 0.12527 0.0
H144 H 0.57726 0.48868 0.15286 0.0
H145 H 0.74106 0.3847 0.16019 0.0
H146 H 0.68481 0.42861 0.08873 0.0
H147 H 0.75554 0.33044 0.0888 0.0
H148 H 0.79639 0.35398 0.05006 0.0
H149 H 0.62975 0.40086 0.05505 0.0
H150 H 0.6206 0.39751 1.00762 0.0
H151 H 0.71473 0.32867 0.17245 0.0
H152 H 0.84409 0.31595 0.11283 0.0
H153 H 0.78609 0.35013 1.00287 0.0
H154 H 0.75944 0.28486 0.198 0.0
H155 H 0.88814 0.27167 0.13851 0.0
C156 C 0.62199 0.55551 0.68591 0.0
C157 C 0.61661 0.52406 0.67486 0.0
C158 C 0.6435 0.58182 0.67127 0.0
C159 C 0.66185 0.57713 0.64542 0.0
C160 C 0.6553 0.54561 0.63427 0.0
C161 C 0.63241 0.51945 0.64877 0.0
C162 C 0.69003 0.60461 0.6307 0.0
C163 C 0.72492 0.62757 0.64383 0.0
C164 C 0.75193 0.65364 0.63061 0.0
C165 C 0.74583 0.6559 0.60349 0.0
C166 C 0.71173 0.63302 0.58969 0.0
C167 C 0.68333 0.60779 0.60362 0.0
C168 C 0.70633 0.6352 0.56076 0.0
C169 C 0.70487 0.666 0.54812 0.0
C170 C 0.70375 0.60642 0.54544 0.0
C171 C 0.70045 0.6084 0.51834 0.0
C172 C 0.70047 0.63916 0.50587 0.0
C173 C 0.7861 0.67845 0.64546 0.0
C174 C 0.76552 0.69042 0.66942 0.0
C175 C 0.83948 0.69006 0.63614 0.0
C176 C 0.87157 0.71294 0.65053 0.0
C177 C 0.85075 0.72463 0.67442 0.0
C178 C 0.79756 0.71325 0.68375 0.0
C179 C 0.70231 0.66793 0.52099 0.0
H180 H 0.60998 0.55964 0.70599 0.0
H181 H 0.64621 0.60581 0.68042 0.0
H182 H 0.66949 0.54077 0.6146 0.0
H183 H 0.62871 0.49532 0.6399 0.0
H184 H 0.73236 0.62483 0.66447 0.0
H185 H 0.65516 0.59091 0.5934 0.0
H186 H 0.76776 0.67554 0.59317 0.0
H187 H 0.70557 0.68872 0.55914 0.0
H188 H 0.70562 0.58225 0.55432 0.0
H189 H 0.69913 0.5859 0.50701 0.0
H190 H 0.72424 0.68238 0.67699 0.0
H191 H 0.85684 0.68111 0.61792 0.0
H192 H 0.70211 0.69192 0.51175 0.0
H193 H 0.78072 0.72223 0.70207 0.0
H194 H 0.91259 0.72157 0.64306 0.0
C195 C 0.72783 0.87088 1.01056 0.0
C196 C 0.77575 0.88321 0.99702 0.0
C197 C 0.72622 0.87184 0.03774 0.0
C198 C 0.77264 0.88508 0.05198 0.0
C199 C 0.82076 0.89727 0.03823 0.0
C200 C 0.82223 0.89638 1.01103 0.0
C201 C 0.77059 0.88638 0.081 0.0
C202 C 0.74627 0.86016 0.09536 0.0
C203 C 0.74347 0.86135 0.12266 0.0
C204 C 0.76478 0.88932 0.13558 0.0
C205 C 0.78924 0.91571 0.12174 0.0
C206 C 0.79238 0.91398 0.09449 0.0
C207 C 0.81159 0.94491 0.13604 0.0
C208 C 0.77835 0.95965 0.15572 0.0
C209 C 0.86726 0.95718 0.13109 0.0
C210 C 0.88999 0.98284 0.14617 0.0
C211 C 0.85714 0.99696 0.16621 0.0
C212 C 0.71787 0.83367 0.13787 0.0
C213 C 0.66571 0.81891 0.13013 0.0
C214 C 0.74435 0.82268 0.16087 0.0
C215 C 0.71872 0.79803 0.17604 0.0
C216 C 0.66602 0.78398 0.16856 0.0
C217 C 0.63993 0.79436 0.14539 0.0
C218 C 0.80077 0.98556 0.17055 0.0
H219 H 0.69148 0.86073 1.00005 0.0
H220 H 0.68812 0.86267 0.04757 0.0
H221 H 0.85761 0.90722 0.04848 0.0
H222 H 0.85967 0.90591 1.00088 0.0
H223 H 0.7307 0.8384 0.08534 0.0
H224 H 0.81025 0.93464 0.0838 0.0
H225 H 0.76231 0.89062 0.15658 0.0
H226 H 0.73512 0.9509 0.1598 0.0
H227 H 0.89393 0.94616 0.11617 0.0
H228 H 0.93362 0.99126 0.14258 0.0
H229 H 0.64399 0.827 0.11267 0.0
H230 H 0.78489 0.83323 0.1672 0.0
H231 H 0.77472 0.9962 0.18587 0.0
H232 H 0.59915 0.78381 0.13936 0.0
H233 H 0.73954 0.79024 0.19381 0.0
C234 C 0.14593 0.95467 0.33412 0.0
C235 C 0.12684 0.98363 0.3462 0.0
C236 C 0.16218 0.92735 0.34883 0.0
C237 C 0.16338 0.92864 0.37626 0.0
C238 C 0.1448 0.95808 0.38829 0.0
C239 C 0.1255 0.98484 0.37347 0.0
C240 C 0.18408 0.89956 0.39191 0.0
C241 C 0.22032 0.87572 0.38051 0.0
C242 C 0.23727 0.84737 0.39406 0.0
C243 C 0.22119 0.84369 0.42016 0.0
C244 C 0.18669 0.8675 0.43247 0.0
C245 C 0.16751 0.89493 0.4181 0.0
C246 C 0.17035 0.86354 0.4603 0.0
C247 C 0.15218 0.83274 0.46996 0.0
C248 C 0.17402 0.89038 0.47757 0.0
C249 C 0.16074 0.88636 0.50394 0.0
C250 C 0.14302 0.85554 0.51344 0.0
C251 C 0.26982 0.82114 0.38026 0.0
C252 C 0.25092 0.81024 0.35578 0.0
C253 C 0.31996 0.80729 0.39095 0.0
C254 C 0.35136 0.78364 0.37703 0.0
C255 C 0.33241 0.77312 0.35247 0.0
C256 C 0.2818 0.78642 0.34208 0.0
C257 C 0.13848 0.82882 0.49626 0.0
H258 H 0.14729 0.95296 0.31313 0.0
H259 H 0.17329 0.90522 0.33831 0.0
H260 H 0.14568 0.96097 0.40915 0.0
H261 H 0.11085 0.0069 0.3833 0.0
H262 H 0.23638 0.87895 0.36095 0.0
H263 H 0.13843 0.91204 0.4274 0.0
H264 H 0.23519 0.82213 0.43082 0.0
H265 H 0.14831 0.81169 0.45713 0.0
H266 H 0.18836 0.91432 0.47079 0.0
H267 H 0.16464 0.90721 0.51697 0.0
H268 H 0.21212 0.8202 0.3472 0.0
H269 H 0.33561 0.81537 0.40971 0.0
H270 H 0.12483 0.80486 0.50329 0.0
H271 H 0.26668 0.77869 0.32313 0.0
H272 H 0.39064 0.77379 0.38523 0.0
C273 C 0.28301 0.656 1.00834 0.0
C274 C 0.33534 0.64559 0.01909 0.0
C275 C 0.27232 0.652 0.98182 0.0
C276 C 0.31379 0.63744 0.96553 0.0
C277 C 0.36623 0.62695 0.97646 0.0
C278 C 0.37687 0.63097 1.00303 0.0
C279 C 0.30212 0.63296 0.93732 0.0
C280 C 0.27455 0.65788 0.92291 0.0
C281 C 0.26361 0.65372 0.89626 0.0
C282 C 0.27928 0.62412 0.88418 0.0
C283 C 0.3065 0.59903 0.89818 0.0
C284 C 0.31831 0.60365 0.92466 0.0
C285 C 0.32315 0.56831 0.88473 0.0
C286 C 0.2828 0.55132 0.86937 0.0
C287 C 0.38021 0.557 0.88577 0.0
C288 C 0.39714 0.52989 0.87088 0.0
C289 C 0.35705 0.51349 0.85505 0.0
C290 C 0.23641 0.68017 0.88069 0.0
C291 C 0.1862 0.69593 0.88947 0.0
C292 C 0.25957 0.68895 0.85637 0.0
C293 C 0.23279 0.71275 0.84102 0.0
C294 C 0.18209 0.72798 0.8496 0.0
C295 C 0.15906 0.71954 0.87396 0.0
C296 C 0.29953 0.52394 0.85481 0.0
H297 H 0.25041 0.66721 0.02053 0.0
H298 H 0.23122 0.6599 0.97414 0.0
H299 H 0.39934 0.61599 0.96443 0.0
H300 H 0.41752 0.62284 1.01105 0.0
H301 H 0.2631 0.68091 0.93222 0.0
H302 H 0.33874 0.58401 0.93549 0.0
H303 H 0.27054 0.62062 0.86367 0.0
H304 H 0.23847 0.5595 0.86842 0.0
H305 H 0.41208 0.56985 0.89736 0.0
H306 H 0.44169 0.52203 0.87131 0.0
H307 H 0.16725 0.68944 0.90803 0.0
H308 H 0.29857 0.67744 0.84925 0.0
H309 H 0.26801 0.5114 0.84283 0.0
H310 H 0.12001 0.73117 0.8809 0.0
H311 H 0.2514 0.7192 0.82238 0.0
Tb312 Tb 0.06792 0.14757 0.23928 0.0
C313 C 0.82411 0.09285 0.28111 0.0
N314 N 0.84465 0.12266 0.27324 0.0
C315 C 0.75832 0.13202 0.24884 0.0
C316 C 0.77008 0.08116 0.27266 0.0
C317 C 0.81194 0.14272 0.25794 0.0
C318 C 0.73744 0.10103 0.25608 0.0
C319 C 0.837 0.04347 0.30697 0.0
C320 C 0.85741 0.07418 0.29792 0.0
C321 C 0.78344 0.03154 0.29838 0.0
C322 C 0.75013 0.05029 0.28122 0.0
Tb323 Tb 0.93207 0.13731 0.2898 0.0
N324 N 0.90964 0.08614 0.30541 0.0
C325 C 0.87098 0.0257 0.32444 0.0
C326 C 0.94119 0.06978 0.32371 0.0
C327 C 0.923 0.0391 0.33304 0.0
H328 H 0.82649 0.16713 0.25293 0.0
H329 H 0.94875 0.02602 0.34717 0.0
H330 H 0.17665 0.12048 0.27455 0.0
H331 H 0.03175 0.26511 0.19155 0.0
H332 H 0.97985 0.08049 0.33175 0.0
H333 H 0.8569 1.00198 0.3318 0.0
H334 H 0.01599 0.20611 0.19888 0.0
H335 H 0.73286 0.14786 0.23647 0.0
H336 H 0.76723 0.0079 0.30501 0.0
H337 H 0.70875 0.04085 0.2749 0.0
H338 H 0.26234 0.14429 0.29632 0.0
H339 H 0.69571 0.09291 0.24912 0.0
H340 H 0.10933 0.2945 0.21497 0.0
N341 N 0.14797 0.16664 0.26003 0.0
C342 C 0.16036 0.19909 0.25642 0.0
C343 C 0.23371 0.16001 0.28536 0.0
C344 C 0.20875 0.21368 0.26831 0.0
C345 C 0.18519 0.14664 0.27316 0.0
C346 C 0.24514 0.19376 0.28322 0.0
N347 N 0.07827 0.20241 0.22928 0.0
C348 C 0.04743 0.21875 0.21067 0.0
C349 C 0.13645 0.25117 0.23616 0.0
C350 C 0.1242 0.21756 0.24071 0.0
C351 C 0.10147 0.26864 0.21893 0.0
C352 C 0.0574 0.2522 0.20581 0.0
H353 H 0.28279 0.20406 0.29267 0.0
H354 H 0.25637 0.25918 0.2738 0.0
H355 H 0.19323 0.29199 0.24556 0.0
O356 O 0.09233 0.15247 0.1994 0.0
O357 O 0.0737 0.16594 0.2798 0.0
O358 O 0.98185 0.18278 0.28712 0.0
O359 O 0.13655 0.11903 0.22548 0.0
O360 O 0.98131 0.16424 0.2268 0.0
O361 O 0.9274 0.179 0.26317 0.0
O362 O 0.93668 0.14245 0.33058 0.0
O363 O 0.92387 0.10734 0.25417 0.0
O364 O 0.00895 0.10731 0.22935 0.0
O365 O 0.86632 0.16305 0.30898 0.0
O366 O 0.01706 0.1156 0.29815 0.0
O367 O 0.06655 0.10126 0.26084 0.0
C368 C 0.03675 0.18475 0.29211 0.0
C369 C 0.17411 0.12109 0.18161 0.0
C370 C 0.20229 0.11689 0.13596 0.0
C371 C 0.25335 0.10115 0.14346 0.0
C372 C 0.22559 0.10523 0.18858 0.0
C373 C 0.26487 0.09541 0.16961 0.0
C374 C 0.16254 0.12695 0.15512 0.0
C375 C 0.94047 0.18169 0.23835 0.0
C376 C 0.13358 0.13125 0.20229 0.0
C377 C 0.21965 0.24742 0.26466 0.0
C378 C 0.18364 0.26611 0.2486 0.0
C379 C 0.95624 0.09694 0.23464 0.0
C380 C 0.84517 0.14262 0.35105 0.0
C381 C 0.8182 0.13168 0.39611 0.0
C382 C 0.76587 0.11809 0.3876 0.0
C383 C 0.79212 0.12922 0.34299 0.0
C384 C 0.85814 0.14362 0.37774 0.0
C385 C 0.75307 0.11681 0.36117 0.0
C386 C 0.04819 0.09467 0.28446 0.0
C387 C 0.88638 0.15641 0.33196 0.0
H388 H 0.28424 0.0932 0.12896 0.0
H389 H 0.23574 0.10054 0.20877 0.0
H390 H 0.30438 0.08324 0.1752 0.0
H391 H 0.12291 0.13895 0.14938 0.0
H392 H 0.73476 0.10869 0.40148 0.0
H393 H 0.78035 0.12858 0.32269 0.0
H394 H 0.89865 0.15408 0.38426 0.0
H395 H 0.71246 0.10648 0.35476 0.0
Tb396 Tb 0.42438 0.36361 0.73664 0.0
C397 C 0.69115 0.36813 0.76435 0.0
N398 N 0.65003 0.34531 0.77012 0.0
C399 C 0.71428 0.30195 0.7572 0.0
C400 C 0.74464 0.35878 0.75369 0.0
C401 C 0.66212 0.31241 0.76798 0.0
C402 C 0.75542 0.32525 0.74966 0.0
C403 C 0.72203 0.42535 0.76471 0.0
C404 C 0.6804 0.40092 0.77009 0.0
C405 C 0.77468 0.41628 0.75333 0.0
C406 C 0.786 0.38307 0.74788 0.0
Tb407 Tb 0.56509 0.36625 0.78578 0.0
N408 N 0.62849 0.40891 0.78056 0.0
C409 C 0.70941 0.45814 0.77089 0.0
C410 C 0.61666 0.44072 0.78747 0.0
C411 C 0.65669 0.4658 0.78252 0.0
H412 H 0.63138 0.29403 0.77434 0.0
H413 H 0.6468 0.49104 0.7876 0.0
H414 H 0.31383 0.40358 0.76554 0.0
H415 H 0.43187 0.2438 0.6911 0.0
H416 H 0.5761 0.44699 0.79644 0.0
H417 H 0.74019 0.47767 0.76698 0.0
H418 H 0.46428 0.30059 0.69951 0.0
H419 H 0.72283 0.27591 0.75486 0.0
H420 H 0.80712 0.43472 0.7489 0.0
H421 H 0.82716 0.37639 0.73947 0.0
H422 H 0.21884 0.38923 0.78318 0.0
H423 H 0.7959 0.31706 0.74143 0.0
H424 H 0.34125 0.22331 0.71081 0.0
N425 N 0.33343 0.35456 0.75316 0.0
C426 C 0.31203 0.32364 0.74955 0.0
C427 C 0.2449 0.37042 0.77405 0.0
C428 C 0.25727 0.31451 0.75914 0.0
C429 C 0.29949 0.37831 0.76428 0.0
C430 C 0.22406 0.33826 0.77185 0.0
N431 N 0.39617 0.31134 0.72585 0.0
C432 C 0.42617 0.29163 0.70916 0.0
C433 C 0.32317 0.2693 0.73052 0.0
C434 C 0.34426 0.30135 0.7353 0.0
C435 C 0.35594 0.24813 0.71498 0.0
C436 C 0.40721 0.25956 0.70391 0.0
H437 H 0.18175 0.33224 0.77946 0.0
H438 H 0.1952 0.2747 0.7627 0.0
H439 H 0.25303 0.23506 0.73767 0.0
O440 O 0.42184 0.36463 0.69516 0.0
O441 O 0.43607 0.32185 0.76346 0.0
O442 O 0.48074 0.3474 0.79763 0.0
O443 O 0.36241 0.39321 0.71875 0.0
O444 O 0.50843 0.34803 0.72244 0.0
O445 O 0.54884 0.32534 0.7589 0.0
O446 O 0.58261 0.38376 0.82343 0.0
O447 O 0.57228 0.39488 0.75017 0.0
O448 O 0.4793 0.40827 0.73772 0.0
O449 O 0.59615 0.33289 0.8138 0.0
O450 O 0.50148 0.40508 0.79311 0.0
O451 O 0.41421 0.39404 0.77164 0.0
C452 C 0.45183 0.32261 0.78797 0.0
C453 C 0.34946 0.39818 0.67226 0.0
C454 C 0.33396 0.40006 0.62533 0.0
C455 C 0.29003 0.42325 0.62913 0.0
C456 C 0.30528 0.42149 0.67547 0.0
C457 C 0.27596 0.43393 0.65403 0.0
C458 C 0.36409 0.38764 0.64698 0.0
C459 C 0.54482 0.32768 0.73344 0.0
C460 C 0.37833 0.38475 0.69556 0.0
C461 C 0.23687 0.28224 0.75522 0.0
C462 C 0.26977 0.25968 0.74095 0.0
C463 C 0.53585 0.41249 0.7366 0.0
C464 C 0.65399 0.35591 0.84725 0.0
C465 C 0.69972 0.36069 0.88974 0.0
C466 C 0.75392 0.35781 0.87787 0.0
C467 C 0.70852 0.35289 0.8357 0.0
C468 C 0.64981 0.3598 0.87434 0.0
C469 C 0.75819 0.3539 0.85097 0.0
C470 C 0.44595 0.40993 0.78889 0.0
C471 C 0.60088 0.35542 0.83166 0.0
H472 H 0.2666 0.43312 0.6127 0.0
H473 H 0.29307 0.43011 0.69462 0.0
H474 H 0.24201 0.45184 0.65675 0.0
H475 H 0.39805 0.36974 0.64411 0.0
H476 H 0.79281 0.35848 0.88947 0.0
H477 H 0.71286 0.34971 0.81498 0.0
H478 H 0.60786 0.36214 0.88345 0.0
H479 H 0.80012 0.35159 0.84193 0.0
Tb480 Tb 0.06952 0.87475 0.73664 0.0
C481 C 0.83379 0.81773 0.77079 0.0
N482 N 0.85172 0.84948 0.76872 0.0
C483 C 0.76727 0.86283 0.74421 0.0
C484 C 0.78295 0.80683 0.75857 0.0
C485 C 0.81817 0.87239 0.75668 0.0
C486 C 0.74997 0.8298 0.74484 0.0
C487 C 0.84879 0.76337 0.78874 0.0
C488 C 0.8666 0.79638 0.78543 0.0
C489 C 0.79919 0.75193 0.77591 0.0
C490 C 0.76637 0.77362 0.76081 0.0
Tb491 Tb 0.93608 0.86272 0.78877 0.0
N492 N 0.91471 0.80833 0.79722 0.0
C493 C 0.88075 0.74305 0.8052 0.0
C494 C 0.9438 0.78905 0.81463 0.0
C495 C 0.92797 0.7561 0.81848 0.0
H496 H 0.83098 0.898 0.75643 0.0
H497 H 0.95187 0.74089 0.83192 0.0
H498 H 0.17132 0.81832 0.7503 0.0
H499 H 0.08887 0.00503 0.71882 0.0
H500 H 0.97864 0.79889 0.82613 0.0
H501 H 0.86851 0.71754 0.80829 0.0
H502 H 0.04311 0.94987 0.71618 0.0
H503 H 0.74141 0.88094 0.73418 0.0
H504 H 0.78528 0.72654 0.77793 0.0
H505 H 0.72773 0.76462 0.75135 0.0
H506 H 0.26965 0.8184 0.76785 0.0
H507 H 0.71056 0.82244 0.73517 0.0
H508 H 0.18439 0.01124 0.73971 0.0
N509 N 0.16299 0.87075 0.751 0.0
C510 C 0.19151 0.89984 0.7539 0.0
C511 C 0.24789 0.84152 0.76434 0.0
C512 C 0.24866 0.901 0.76312 0.0
C513 C 0.19147 0.84165 0.75485 0.0
C514 C 0.27635 0.87134 0.76886 0.0
N515 N 0.10958 0.92612 0.73725 0.0
C516 C 0.08402 0.95269 0.72585 0.0
C517 C 0.1923 0.95918 0.74831 0.0
C518 C 0.16391 0.92851 0.74671 0.0
C519 C 0.16408 0.98717 0.73885 0.0
C520 C 0.11014 0.98379 0.72709 0.0
H521 H 0.32018 0.87115 0.77606 0.0
H522 H 0.3201 0.93307 0.77327 0.0
H523 H 0.27071 0.98407 0.7602 0.0
O524 O 0.04888 0.88294 0.69736 0.0
O525 O 0.05713 0.91259 0.7669 0.0
O526 O 0.01671 0.88517 0.8018 0.0
O527 O 0.12838 0.86013 0.70767 0.0
O528 O 0.98353 0.89382 0.72791 0.0
O529 O 0.93772 0.90886 0.76617 0.0
O530 O 0.91219 0.85702 0.8279 0.0
O531 O 0.93064 0.84414 0.74858 0.0
O532 O 0.02232 0.8278 0.73756 0.0
O533 O 0.88243 0.89852 0.80614 0.0
O534 O 0.01862 0.84011 0.79942 0.0
O535 O 0.07593 0.83196 0.76271 0.0
C536 C 0.04576 0.90989 0.79185 0.0
C537 C 0.08663 0.84428 0.66787 0.0
C538 C 0.09125 0.82994 0.6219 0.0
C539 C 0.07159 0.79806 0.62785 0.0
C540 C 0.06742 0.81221 0.67353 0.0
C541 C 0.05953 0.78934 0.65355 0.0
C542 C 0.09826 0.85311 0.64198 0.0
C543 C 0.9507 0.91383 0.74148 0.0
C544 C 0.09499 0.86869 0.68869 0.0
C545 C 0.27645 0.93164 0.76593 0.0
C546 C 0.24831 0.96069 0.75853 0.0
C547 C 0.96611 0.82385 0.73677 0.0
C548 C 0.82613 0.8809 0.8425 0.0
C549 C 0.77558 0.87951 0.88414 0.0
C550 C 0.72315 0.87565 0.87095 0.0
C551 C 0.77345 0.8768 0.82956 0.0
C552 C 0.82692 0.88215 0.86981 0.0
C553 C 0.72222 0.87426 0.84379 0.0
C554 C 0.06222 0.82606 0.78721 0.0
C555 C 0.88122 0.88345 0.82842 0.0
H556 H 0.06579 0.77997 0.61259 0.0
H557 H 0.0587 0.80483 0.69333 0.0
H558 H 0.04439 0.76471 0.65804 0.0
H559 H 0.11336 0.87777 0.63745 0.0
H560 H 0.68313 0.87357 0.88168 0.0
H561 H 0.77186 0.87554 0.80859 0.0
H562 H 0.86751 0.88513 0.87997 0.0
H563 H 0.68166 0.87114 0.83374 0.0
Tb564 Tb 0.45272 0.63691 0.23565 0.0
C565 C 0.68433 0.69336 0.27446 0.0
N566 N 0.66874 0.66149 0.27016 0.0
C567 C 0.75575 0.65236 0.24611 0.0
C568 C 0.73601 0.70621 0.26419 0.0
C569 C 0.70424 0.64062 0.25687 0.0
C570 C 0.77152 0.68534 0.24962 0.0
C571 C 0.6642 0.74567 0.29521 0.0
C572 C 0.64821 0.71292 0.28938 0.0
C573 C 0.71515 0.75886 0.28463 0.0
C574 C 0.75083 0.73922 0.26906 0.0
Tb575 Tb 0.58368 0.64535 0.28837 0.0
N576 N 0.59853 0.69955 0.29888 0.0
C577 C 0.62892 0.76404 0.3118 0.0
C578 C 0.56664 0.7166 0.31673 0.0
C579 C 0.58039 0.74926 0.32288 0.0
H580 H 0.69262 0.61502 0.2544 0.0
H581 H 0.55413 0.76281 0.33658 0.0
H582 H 0.34313 0.66007 0.27286 0.0
H583 H 0.48539 0.52925 0.17513 0.0
H584 H 0.53145 0.70505 0.32699 0.0
H585 H 0.63966 0.78928 0.31674 0.0
H586 H 0.50672 0.58507 0.19094 0.0
H587 H 0.78338 0.63592 0.23523 0.0
H588 H 0.72772 0.7841 0.28864 0.0
H589 H 0.79025 0.74964 0.26124 0.0
H590 H 0.25277 0.63535 0.28936 0.0
H591 H 0.81156 0.69431 0.24135 0.0
H592 H 0.39969 0.49925 0.19142 0.0
N593 N 0.36797 0.61718 0.25193 0.0
C594 C 0.35239 0.58665 0.24358 0.0
C595 C 0.28063 0.6213 0.27666 0.0
C596 C 0.30101 0.57169 0.2523 0.0
C597 C 0.33199 0.63516 0.26745 0.0
C598 C 0.26533 0.5893 0.26927 0.0
N599 N 0.43794 0.58554 0.21852 0.0
C600 C 0.47098 0.57176 0.19938 0.0
C601 C 0.37339 0.53878 0.21704 0.0
C602 C 0.38842 0.57039 0.22631 0.0
C603 C 0.4096 0.52355 0.19894 0.0
C604 C 0.45819 0.54032 0.18982 0.0
H605 H 0.22548 0.57865 0.27642 0.0
H606 H 0.24757 0.52785 0.25025 0.0
H607 H 0.31084 0.49908 0.21934 0.0
O608 O 0.44997 0.64321 0.19448 0.0
O609 O 0.44229 0.61028 0.27278 0.0
O610 O 0.53301 0.59988 0.29014 0.0
O611 O 0.38255 0.66207 0.21984 0.0
O612 O 0.53959 0.61708 0.22714 0.0
O613 O 0.58792 0.60096 0.26438 0.0
O614 O 0.58436 0.64455 0.32927 0.0
O615 O 0.59371 0.66747 0.24924 0.0
O616 O 0.50261 0.68266 0.2368 0.0
O617 O 0.65311 0.62265 0.3077 0.0
O618 O 0.49661 0.66298 0.29866 0.0
O619 O 0.44606 0.67885 0.2619 0.0
C620 C 0.47734 0.59428 0.28841 0.0
C621 C 0.36991 0.6734 0.17418 0.0
C622 C 0.34688 0.67596 0.12802 0.0
C623 C 0.3083 0.70174 0.133 0.0
C624 C 0.33079 0.69916 0.17875 0.0
C625 C 0.30038 0.71326 0.15825 0.0
C626 C 0.3781 0.66189 0.14863 0.0
C627 C 0.5725 0.5961 0.24002 0.0
C628 C 0.40149 0.65903 0.19627 0.0
C629 C 0.28671 0.53986 0.24365 0.0
C630 C 0.32276 0.52348 0.22605 0.0
C631 C 0.55859 0.68585 0.23549 0.0
C632 C 0.67568 0.64562 0.34897 0.0
C633 C 0.70722 0.65486 0.39368 0.0
C634 C 0.75107 0.67574 0.38446 0.0
C635 C 0.72051 0.66611 0.34017 0.0
C636 C 0.66947 0.63986 0.37581 0.0
C637 C 0.75772 0.6812 0.35785 0.0
C638 C 0.45899 0.68195 0.28664 0.0
C639 C 0.63439 0.63054 0.33065 0.0
H640 H 0.28409 0.7128 0.1173 0.0
H641 H 0.3239 0.70859 0.19819 0.0
H642 H 0.27047 0.73313 0.16196 0.0
H643 H 0.4079 0.64196 0.14479 0.0
H644 H 0.78051 0.68754 0.3979 0.0
H645 H 0.72706 0.67041 0.3197 0.0
H646 H 0.63535 0.62382 0.38281 0.0
H647 H 0.79197 0.69709 0.35089 0.0
C648 C 0.13533 0.04392 0.33338 0.0
C649 C 0.10877 0.01253 0.33008 0.0
C650 C 0.05945 0.03377 0.29164 0.0
C651 C 0.0754 0.06636 0.29828 0.0
N652 N 0.13067 0.10272 0.32575 0.0
N653 N 0.03435 0.98045 0.30888 0.0
C654 C 0.11363 0.07156 0.31943 0.0
C655 C 0.06766 0.00822 0.30997 0.0
N656 N 0.1834 0.04703 0.34849 0.0
N657 N 0.03847 0.02672 0.26758 0.0
H658 H 0.03604 0.96197 0.32293 0.0
H659 H 0.00056 0.97781 0.2957 0.0
H660 H 0.03505 0.04446 0.25305 0.0
H661 H 0.03061 1.00265 0.26135 0.0
H662 H 0.20766 0.06863 0.3496 0.0
H663 H 0.20286 0.02709 0.3577 0.0
H664 H 0.15248 0.10845 0.34285 0.0
H665 H 0.12095 0.12301 0.31424 0.0
C666 C 0.39335 0.45573 0.84933 0.0
C667 C 0.37575 0.4859 0.8381 0.0
C668 C 0.3897 0.46274 0.79461 0.0
C669 C 0.41664 0.43463 0.80574 0.0
N670 N 0.44383 0.40417 0.84424 0.0
N671 N 0.36581 0.52026 0.80013 0.0
C672 C 0.41848 0.43112 0.83328 0.0
C673 C 0.37583 0.48993 0.81076 0.0
N674 N 0.38386 0.45008 0.87518 0.0
N675 N 0.37681 0.46378 0.76874 0.0
H676 H 0.35673 0.54113 0.81121 0.0
H677 H 0.37211 0.52545 0.7805 0.0
H678 H 0.38818 0.44554 0.75554 0.0
H679 H 0.35082 0.48194 0.7606 0.0
H680 H 0.38984 0.42727 0.88403 0.0
H681 H 0.36484 0.4674 0.88744 0.0
H682 H 0.45419 0.40262 0.86388 0.0
H683 H 0.45656 0.38369 0.83362 0.0
C684 C 0.54248 0.49612 0.70329 0.0
C685 C 0.59718 0.49565 0.69109 0.0
C686 C 0.61367 0.44013 0.70842 0.0
C687 C 0.56003 0.44161 0.72211 0.0
N688 N 0.49092 0.47846 0.74137 0.0
N689 N 0.69197 0.47146 0.68933 0.0
C690 C 0.52911 0.4717 0.72201 0.0
C691 C 0.63497 0.4689 0.69579 0.0
N692 N 0.50289 0.5196 0.69702 0.0
N693 N 0.64423 0.41151 0.70669 0.0
H694 H 0.70979 0.49247 0.68081 0.0
H695 H 0.72266 0.45425 0.69509 0.0
H696 H 0.63295 0.38974 0.71593 0.0
H697 H 0.67933 0.40868 0.69424 0.0
H698 H 0.46081 0.51906 0.70416 0.0
H699 H 0.51032 0.53749 0.68284 0.0
H700 H 0.47028 0.50114 0.74315 0.0
H701 H 0.48758 0.46342 0.7577 0.0
C702 C 0.89425 0.01482 0.2099 0.0
C703 C 0.88275 0.02253 0.18358 0.0
C704 C 0.92676 0.0771 0.18965 0.0
C705 C 0.93157 0.07112 0.2169 0.0
N706 N 0.91579 0.03417 0.25306 0.0
N707 N 0.87842 0.06299 0.14944 0.0
C708 C 0.91349 0.04006 0.22704 0.0
C709 C 0.89649 0.05419 0.17372 0.0
N710 N 0.88991 0.98288 0.21825 0.0
N711 N 0.95158 0.10431 0.17861 0.0
H712 H 0.85567 0.04706 0.13727 0.0
H713 H 0.88109 0.08701 0.14236 0.0
H714 H 0.9714 0.12304 0.18908 0.0
H715 H 0.95579 0.10731 0.1586 0.0
H716 H 0.9042 0.97491 0.23634 0.0
H717 H 0.8772 0.96351 0.20621 0.0
H718 H 0.89588 0.01409 0.26197 0.0
H719 H 0.93635 0.04997 0.26592 0.0
C720 C 0.87129 0.95957 0.68797 0.0
C721 C 0.87961 0.99272 0.69572 0.0
C722 C 0.93245 0.97453 0.73422 0.0
C723 C 0.92199 0.94115 0.72718 0.0
N724 N 0.86946 0.90225 0.70075 0.0
N725 N 0.90725 0.03202 0.72855 0.0
C726 C 0.88789 0.93378 0.705 0.0
C727 C 0.90648 1.00025 0.71969 0.0
N728 N 0.84877 0.9527 0.66404 0.0
N729 N 0.97052 0.98182 0.75356 0.0
H730 H 0.89021 0.05169 0.71805 0.0
H731 H 0.9204 0.0385 0.7472 0.0
H732 H 0.99278 0.96374 0.76359 0.0
H733 H 0.98479 0.00559 0.75776 0.0
H734 H 0.84815 0.92914 0.656 0.0
H735 H 0.83436 0.97094 0.65135 0.0
H736 H 0.83962 0.89581 0.68653 0.0
H737 H 0.87961 0.88292 0.71317 0.0
C738 C 0.64204 0.55313 0.18248 0.0
C739 C 0.64047 0.51971 0.19037 0.0
C740 C 0.60362 0.53627 0.2333 0.0
C741 C 0.60339 0.56982 0.22493 0.0
N742 N 0.64537 0.61006 0.19624 0.0
N743 N 0.62937 0.47926 0.22427 0.0
C744 C 0.62917 0.57822 0.20081 0.0
C745 C 0.62431 0.51126 0.21615 0.0
N746 N 0.65538 0.56099 0.15736 0.0
N747 N 0.58322 0.52804 0.25734 0.0
H748 H 0.64079 0.46 0.2119 0.0
H749 H 0.62554 0.47171 0.2435 0.0
H750 H 0.57265 0.54519 0.27149 0.0
H751 H 0.57443 0.50404 0.26328 0.0
H752 H 0.65061 0.58464 0.14978 0.0
H753 H 0.6672 0.54343 0.14356 0.0
H754 H 0.66932 0.61739 0.18011 0.0
H755 H 0.64106 0.62841 0.21027 0.0
C756 C 0.41527 0.50988 0.30638 0.0
C757 C 0.40785 0.51356 0.33358 0.0
C758 C 0.44625 0.57001 0.33135 0.0
C759 C 0.45316 0.56654 0.30404 0.0
N760 N 0.45635 0.53116 0.26657 0.0
N761 N 0.40655 0.5482 0.37155 0.0
C762 C 0.44022 0.53604 0.29177 0.0
C763 C 0.42095 0.5439 0.34598 0.0
N764 N 0.39769 0.48145 0.29444 0.0
N765 N 0.46614 0.59777 0.34347 0.0
H766 H 0.3881 0.52962 0.38287 0.0
H767 H 0.40846 0.57076 0.38112 0.0
H768 H 0.48362 0.61767 0.33344 0.0
H769 H 0.46913 0.60038 0.36353 0.0
H770 H 0.39392 0.47887 0.2744 0.0
H771 H 0.38328 0.46074 0.30457 0.0
H772 H 0.45481 0.50853 0.2571 0.0
H773 H 0.47679 0.54933 0.25566 0.0
C774 C 0.06314 0.98998 0.82924 0.0
C775 C 0.11802 0.98589 0.84076 0.0
C776 C 0.12667 0.93174 0.81981 0.0
C777 C 0.06991 0.93505 0.8099 0.0
N778 N 0.97826 0.96265 0.81319 0.0
N779 N 0.197 0.94997 0.85161 0.0
C780 C 0.03633 0.96274 0.81703 0.0
C781 C 0.14855 0.95591 0.83733 0.0
N782 N 0.03734 0.02022 0.82897 0.0
N783 N 0.15957 0.90546 0.81265 0.0
H784 H 0.21344 0.96676 0.86505 0.0
H785 H 0.21788 0.9273 0.85199 0.0
H786 H 0.14379 0.88645 0.80105 0.0
H787 H 0.20319 0.90336 0.81697 0.0
H788 H -5e-05 0.02501 0.81846 0.0
H789 H 0.05631 0.04127 0.8369 0.0
H790 H 0.95109 0.98089 0.82043 0.0
H791 H 0.95685 0.94272 0.80501 0.0
C792 C 0.19752 0.15533 0.06826 0.0
C793 C 0.19335 0.12633 0.05291 0.0
C794 C 0.17793 0.09351 0.09237 0.0
C795 C 0.19109 0.12154 0.10773 0.0
N796 N 0.2176 0.17893 0.11061 0.0
N797 N 0.18629 0.06698 0.05043 0.0
C798 C 0.20148 0.15253 0.09578 0.0
C799 C 0.18475 0.09518 0.06496 0.0
N800 N 0.19661 0.18554 0.05652 0.0
N801 N 0.15856 0.06533 0.10408 0.0
H802 H 0.19218 0.06693 0.03035 0.0
H803 H 0.18675 0.04343 0.0585 0.0
H804 H 0.15295 0.06343 0.12415 0.0
H805 H 0.14281 0.0451 0.09384 0.0
H806 H 0.19377 0.20763 0.06672 0.0
H807 H 0.19345 0.18843 0.03644 0.0
H808 H 0.23247 0.20108 0.10283 0.0
H809 H 0.21972 0.17802 0.13083 0.0
C810 C 0.36639 0.4089 0.55386 0.0
C811 C 0.34858 0.3777 0.54414 0.0
C812 C 0.32872 0.35885 0.5886 0.0
C813 C 0.34774 0.3898 0.59825 0.0
N814 N 0.39962 0.44043 0.59097 0.0
N815 N 0.32719 0.32049 0.55242 0.0
C816 C 0.37175 0.41349 0.5811 0.0
C817 C 0.33445 0.35182 0.56162 0.0
N818 N 0.37459 0.43482 0.53726 0.0
N819 N 0.30245 0.33685 0.60491 0.0
H820 H 0.33165 0.31455 0.5328 0.0
H821 H 0.32223 0.30001 0.56442 0.0
H822 H 0.29809 0.34087 0.62482 0.0
H823 H 0.28154 0.31562 0.59845 0.0
H824 H 0.38124 0.45893 0.54356 0.0
H825 H 0.36972 0.43297 0.5172 0.0
H826 H 0.42279 0.45701 0.57954 0.0
H827 H 0.40445 0.44427 0.6109 0.0
C828 C 0.71097 0.39861 0.95727 0.0
C829 C 0.69718 0.37104 0.97311 0.0
C830 C 0.68422 0.33666 0.93429 0.0
C831 C 0.69566 0.36457 0.91844 0.0
N832 N 0.70947 0.42321 0.91428 0.0
N833 N 0.66051 0.31564 0.97716 0.0
C834 C 0.70584 0.39592 0.92979 0.0
C835 C 0.68067 0.34058 0.96172 0.0
N836 N 0.731 0.42699 0.96846 0.0
N837 N 0.67878 0.3062 0.92315 0.0
H838 H 0.65782 0.31759 0.99734 0.0
H839 H 0.64205 0.29409 0.96996 0.0
H840 H 0.67995 0.30244 0.90311 0.0
H841 H 0.67713 0.28435 0.93373 0.0
H842 H 0.74813 0.44663 0.95794 0.0
H843 H 0.73434 0.4301 0.98851 0.0
H844 H 0.71073 0.44722 0.92141 0.0
H845 H 0.70644 0.42207 0.89408 0.0
C846 C 0.83449 0.10384 0.46602 0.0
C847 C 0.83341 0.13447 0.47938 0.0
C848 C 0.82673 0.16389 0.43786 0.0
C849 C 0.83001 0.13333 0.42449 0.0
N850 N 0.85138 0.07528 0.42533 0.0
N851 N 0.84269 0.19363 0.4781 0.0
C852 C 0.83861 0.10363 0.43846 0.0
C853 C 0.8341 0.16452 0.46528 0.0
N854 N 0.82851 0.07499 0.47949 0.0
N855 N 0.81369 0.19207 0.4246 0.0
H856 H 0.84863 0.19491 0.49816 0.0
H857 H 0.84938 0.21603 0.46865 0.0
H858 H 0.80802 0.19275 0.40452 0.0
H859 H 0.80411 0.21432 0.43369 0.0
H860 H 0.82241 0.05222 0.47055 0.0
H861 H 0.82483 0.07398 0.49965 0.0
H862 H 0.86367 0.05354 0.4345 0.0
H863 H 0.85516 0.07441 0.40513 0.0
C864 C 0.79273 0.85305 0.95496 0.0
C865 C 0.777 0.88248 0.96807 0.0
C866 C 0.76578 0.91076 0.92617 0.0
C867 C 0.77675 0.88062 0.91308 0.0
N868 N 0.79414 0.82212 0.91457 0.0
N869 N 0.74177 0.93826 0.96664 0.0
C870 C 0.78852 0.85148 0.92737 0.0
C871 C 0.76175 0.91109 0.95379 0.0
N872 N 0.81313 0.82688 0.96889 0.0
N873 N 0.76062 0.93924 0.91216 0.0
H874 H 0.73922 0.93963 0.98684 0.0
H875 H 0.72377 0.95856 0.95736 0.0
H876 H 0.76227 0.93984 0.89191 0.0
H877 H 0.75905 0.96257 0.92053 0.0
H878 H 0.83131 0.80606 0.96046 0.0
H879 H 0.81599 0.82699 0.98912 0.0
H880 H 0.79623 0.79939 0.9239 0.0
H881 H 0.79259 0.82013 0.89438 0.0
C882 C 0.65187 0.65471 0.46381 0.0
C883 C 0.70025 0.64133 0.47691 0.0
C884 C 0.74701 0.63095 0.43492 0.0
C885 C 0.70236 0.64837 0.42214 0.0
N886 N 0.61572 0.68093 0.42481 0.0
N887 N 0.79826 0.62165 0.47514 0.0
C888 C 0.65549 0.66126 0.43667 0.0
C889 C 0.74899 0.63066 0.46252 0.0
N890 N 0.60193 0.66035 0.47716 0.0
N891 N 0.78687 0.61402 0.42066 0.0
H892 H 0.8021 0.6217 0.49531 0.0
H893 H 0.83704 0.61711 0.46559 0.0
H894 H 0.78627 0.61325 0.40041 0.0
H895 H 0.81689 0.59814 0.42891 0.0
H896 H 0.56345 0.66687 0.46819 0.0
H897 H 0.59751 0.65552 0.49697 0.0
H898 H 0.58434 0.69398 0.43495 0.0
H899 H 0.61694 0.68646 0.40504 0.0
C900 C 0.31929 0.62859 0.06538 0.0
C901 C 0.34613 0.65015 0.04731 0.0
C902 C 0.38695 0.68243 0.08316 0.0
C903 C 0.3531 0.66393 0.10092 0.0
N904 N 0.28502 0.62025 0.10945 0.0
N905 N 0.40317 0.69867 0.03839 0.0
C906 C 0.31922 0.63694 0.09222 0.0
C907 C 0.37999 0.67717 0.05603 0.0
N908 N 0.29448 0.59997 0.05683 0.0
N909 N 0.42591 0.7049 0.09237 0.0
H910 H 0.39972 0.69538 0.01836 0.0
H911 H 0.42255 0.72092 0.04349 0.0
H912 H 0.4317 0.70929 0.11217 0.0
H913 H 0.4559 0.71699 0.08069 0.0
H914 H 0.27918 0.58159 0.06917 0.0
H915 H 0.29362 0.59327 0.03726 0.0
H916 H 0.254 0.60304 0.10393 0.0
H917 H 0.28526 0.62496 0.12937 0.0
C918 C 0.17457 0.83947 0.55838 0.0
C919 C 0.13045 0.85088 0.54159 0.0
C920 C 0.06069 0.84915 0.57755 0.0
C921 C 0.10522 0.8387 0.59451 0.0
N922 N 0.20573 0.82816 0.60251 0.0
N923 N 0.03397 0.87101 0.53531 0.0
C924 C 0.16259 0.83518 0.58533 0.0
C925 C 0.07418 0.85707 0.55125 0.0
N926 N 0.22753 0.8319 0.54836 0.0
N927 N 0.00524 0.85069 0.58651 0.0
H928 H 0.04182 0.87617 0.51577 0.0
H929 H 0.99415 0.87953 0.54167 0.0
H930 H 0.99417 0.84648 0.60588 0.0
H931 H 0.96961 0.85431 0.57463 0.0
H932 H 0.25957 0.81981 0.55871 0.0
H933 H 0.23863 0.83598 0.52898 0.0
H934 H 0.24932 0.82885 0.5978 0.0
H935 H 0.19833 0.82373 0.6222 0.0
C936 C 0.0924 0.22736 0.35379 0.0
C937 C 0.1011 0.25983 0.3442 0.0
C938 C 0.05362 0.24435 0.30376 0.0
C939 C 0.05728 0.21055 0.31064 0.0
N940 N 0.06996 0.17021 0.34458 0.0
N941 N 0.03932 0.29808 0.32203 0.0
C942 C 0.07361 0.20209 0.33642 0.0
C943 C 0.06759 0.26869 0.32238 0.0
N944 N 0.09261 0.22215 0.37998 0.0
N945 N 0.03677 0.25359 0.27955 0.0
H946 H 0.03812 0.31326 0.3384 0.0
H947 H 0.01019 0.30448 0.30749 0.0
H948 H 0.02551 0.23658 0.26534 0.0
H949 H 0.03831 0.27805 0.27329 0.0
H950 H 0.08162 0.19984 0.38869 0.0
H951 H 0.09631 0.24168 0.39309 0.0
H952 H 0.08848 0.16173 0.36172 0.0
H953 H 0.0494 0.1521 0.33374 0.0
C954 C 0.43389 0.24936 0.83398 0.0
C955 C 0.37357 0.25053 0.83869 0.0
C956 C 0.36881 0.30272 0.81505 0.0
C957 C 0.42613 0.29842 0.80633 0.0
N958 N 0.51382 0.26674 0.80689 0.0
N959 N 0.2816 0.27565 0.82923 0.0
C960 C 0.45891 0.27142 0.8156 0.0
C961 C 0.34037 0.27647 0.82797 0.0
N962 N 0.46769 0.22828 0.84792 0.0
N963 N 0.34258 0.33254 0.81247 0.0
H964 H 0.25869 0.25624 0.83767 0.0
H965 H 0.25576 0.29263 0.81955 0.0
H966 H 0.36399 0.35301 0.80491 0.0
H967 H 0.30266 0.3378 0.82078 0.0
H968 H 0.51253 0.22862 0.84719 0.0
H969 H 0.45129 0.21264 0.86223 0.0
H970 H 0.53731 0.24539 0.81046 0.0
H971 H 0.53462 0.28339 0.7947 0.0
C972 C 0.60427 0.24541 0.70845 0.0
C973 C 0.6439 0.25682 0.68947 0.0
C974 C 0.60869 0.31312 0.69498 0.0
C975 C 0.57499 0.30286 0.71673 0.0
N976 N 0.53664 0.25822 0.74276 0.0
N977 N 0.69138 0.30189 0.66775 0.0
C978 C 0.572 0.26868 0.72317 0.0
C979 C 0.64831 0.29076 0.68368 0.0
N980 N 0.59562 0.21225 0.71151 0.0
N981 N 0.6014 0.34346 0.684 0.0
H982 H 0.72106 0.28622 0.65888 0.0
H983 H 0.70099 0.32682 0.66536 0.0
H984 H 0.57158 0.36068 0.69031 0.0
H985 H 0.62073 0.35034 0.66653 0.0
H986 H 0.56283 0.20207 0.72277 0.0
H987 H 0.61898 0.19453 0.70132 0.0
H988 H 0.53926 0.23502 0.75131 0.0
H989 H 0.50445 0.2729 0.75069 0.0
C990 C 0.84787 0.21627 0.18301 0.0
C991 C 0.85622 0.25057 0.18696 0.0
C992 C 0.9056 0.23939 0.22791 0.0
C993 C 0.90565 0.20507 0.22221 0.0
N994 N 0.87054 0.16021 0.19597 0.0
N995 N 0.90244 0.29465 0.21048 0.0
C996 C 0.87523 0.19335 0.20005 0.0
C997 C 0.88798 0.26203 0.20858 0.0
N998 N 0.81216 0.20578 0.16356 0.0
N999 N 0.91899 0.25065 0.25214 0.0
H1000 H 0.89032 0.31217 0.19672 0.0
H1001 H 0.9313 0.30362 0.2243 0.0
H1002 H 0.92725 0.2353 0.26779 0.0
H1003 H 0.91443 0.27522 0.25764 0.0
H1004 H 0.79943 0.18142 0.16091 0.0
H1005 H 0.7923 0.22195 0.15065 0.0
H1006 H 0.85523 0.14963 0.17891 0.0
H1007 H 0.88258 0.14303 0.20996 0.0
C1008 C 0.88336 0.78292 0.68168 0.0
C1009 C 0.88392 0.74948 0.68953 0.0
C1010 C 0.9406 0.76428 0.72808 0.0
C1011 C 0.94156 0.79764 0.71971 0.0
N1012 N 0.92947 0.83612 0.68453 0.0
N1013 N 0.92141 0.70691 0.7173 0.0
C1014 C 0.91738 0.80623 0.69536 0.0
C1015 C 0.91521 0.73971 0.71189 0.0
N1016 N 0.84889 0.79272 0.66163 0.0
N1017 N 0.96271 0.75623 0.75178 0.0
H1018 H 0.90294 0.6884 0.70594 0.0
H1019 H 0.9484 0.69782 0.73172 0.0
H1020 H 0.98171 0.77361 0.76394 0.0
H1021 H 0.95898 0.73302 0.76021 0.0
H1022 H 0.84169 0.81739 0.65709 0.0
H1023 H 0.82361 0.77639 0.65088 0.0
H1024 H 0.9185 0.84243 0.66557 0.0
H1025 H 0.95598 0.85323 0.69358 0.0
C1026 C 0.61097 0.76916 0.20914 0.0
C1027 C 0.63712 0.75911 0.18549 0.0
C1028 C 0.60146 0.70291 0.19248 0.0
C1029 C 0.58317 0.71159 0.21787 0.0
N1030 N 0.57031 0.75324 0.25067 0.0
N1031 N 0.66434 0.71541 0.15623 0.0
C1032 C 0.58785 0.74486 0.22627 0.0
C1033 C 0.63434 0.72569 0.1776 0.0
N1034 N 0.60648 0.80201 0.21476 0.0
N1035 N 0.5845 0.67367 0.18186 0.0
H1036 H 0.68901 0.73133 0.14479 0.0
H1037 H 0.66883 0.69064 0.15128 0.0
H1038 H 0.55815 0.65711 0.19172 0.0
H1039 H 0.59146 0.66749 0.16246 0.0
H1040 H 0.58261 0.8113 0.23022 0.0
H1041 H 0.6227 0.82046 0.20264 0.0
H1042 H 0.57749 0.7762 0.25908 0.0
H1043 H 0.55154 0.7363 0.26326 0.0
C1044 C 0.39809 0.76171 0.31499 0.0
C1045 C 0.36666 0.74956 0.33657 0.0
C1046 C 0.39217 0.69276 0.32454 0.0
C1047 C 0.42334 0.70502 0.30268 0.0
N1048 N 0.43998 0.75057 0.27308 0.0
N1049 N 0.33651 0.70435 0.36366 0.0
C1050 C 0.42177 0.73929 0.29672 0.0
C1051 C 0.36456 0.71525 0.34188 0.0
N1052 N 0.40736 0.79489 0.31251 0.0
N1053 N 0.38495 0.65949 0.32737 0.0
H1054 H 0.3136 0.71996 0.37598 0.0
H1055 H 0.33801 0.68027 0.37052 0.0
H1056 H 0.40033 0.64257 0.31388 0.0
H1057 H 0.35963 0.64836 0.34156 0.0
H1058 H 0.43609 0.80507 0.29916 0.0
H1059 H 0.3909 0.81218 0.32554 0.0
H1060 H 0.43379 0.77467 0.26673 0.0
H1061 H 0.45538 0.73543 0.25842 0.0
C1062 C 0.15303 0.78647 0.8412 0.0
C1063 C 0.15354 0.75321 0.83315 0.0
C1064 C 0.1062 0.76882 0.79247 0.0
C1065 C 0.09709 0.80142 0.80225 0.0
N1066 N 0.10708 0.83924 0.83881 0.0
N1067 N 0.12074 0.71139 0.80341 0.0
C1068 C 0.1189 0.80961 0.82747 0.0
C1069 C 0.12747 0.74401 0.80941 0.0
N1070 N 0.18691 0.79638 0.86148 0.0
N1071 N 0.09555 0.76103 0.76711 0.0
H1072 H 0.13514 0.69242 0.8154 0.0
H1073 H 0.0958 0.70317 0.78787 0.0
H1074 H 0.07897 0.77718 0.75348 0.0
H1075 H 0.10825 0.73878 0.75881 0.0
H1076 H 0.19363 0.82106 0.86625 0.0
H1077 H 0.21306 0.78025 0.87191 0.0
H1078 H 0.11495 0.84411 0.85836 0.0
H1079 H 0.0864 0.85843 0.82955 0.0
loop_
_geom_bond_atom_site_label_1
_geom_bond_atom_site_label_2
_geom_bond_distance
_geom_bond_site_symmetry_2
_ccdc_geom_bond_type
C0 C1 1.386 . S
C0 C2 1.397 . S
C0 H24 0.931 . S
C1 C0 1.386 . S
C1 C5 1.397 . S
C2 C0 1.397 . S
C2 C3 1.384 . S
C2 H25 0.930 . S
C3 C2 1.384 . S
C3 C4 1.377 . S
C3 C6 1.481 . S
C4 C3 1.377 . S
C4 C5 1.389 . S
C4 H26 0.929 . S
C5 C1 1.397 . S
C5 C4 1.389 . S
C5 H27 0.931 . S
C6 C3 1.481 . S
C6 C7 1.387 . S
C6 C11 1.390 . S
C7 C6 1.387 . S
C7 C8 1.401 . S
C7 H28 0.930 . S
C8 C7 1.401 . S
C8 C9 1.376 . S
C8 C17 1.511 . S
C9 C8 1.376 . S
C9 C10 1.392 . S
C9 H30 0.931 . S
C10 C9 1.392 . S
C10 C11 1.361 . S
C10 C12 1.500 . S
C11 C6 1.390 . S
C11 C10 1.361 . S
C11 H29 0.931 . S
C12 C10 1.500 . S
C12 C13 1.371 . S
C12 C14 1.365 . S
C13 C12 1.371 . S
C13 C23 1.386 . S
C13 H31 0.931 . S
C14 C12 1.365 . S
C14 C15 1.409 . S
C14 H32 0.929 . S
C15 C14 1.409 . S
C15 C16 1.380 . S
C15 H33 0.930 . S
C16 C15 1.380 . S
C16 C23 1.357 . S
C17 C8 1.511 . S
C17 C18 1.341 . S
C17 C19 1.371 . S
C18 C17 1.341 . S
C18 C22 1.394 . S
C18 H34 0.930 . S
C19 C17 1.371 . S
C19 C20 1.392 . S
C19 H35 0.931 . S
C20 C19 1.392 . S
C20 C21 1.331 . S
C20 H38 0.932 . S
C21 C20 1.331 . S
C21 C22 1.336 . S
C22 C18 1.394 . S
C22 C21 1.336 . S
C22 H37 0.929 . S
C23 C13 1.386 . S
C23 C16 1.357 . S
C23 H36 0.928 . S
H24 C0 0.931 . S
H25 C2 0.930 . S
H26 C4 0.929 . S
H27 C5 0.931 . S
H28 C7 0.930 . S
H29 C11 0.931 . S
H30 C9 0.931 . S
H31 C13 0.931 . S
H32 C14 0.929 . S
H33 C15 0.930 . S
H34 C18 0.930 . S
H35 C19 0.931 . S
H36 C23 0.928 . S
H37 C22 0.929 . S
H38 C20 0.932 . S
C39 C40 1.386 . S
C39 C41 1.397 . S
C39 H63 0.931 . S
C40 C39 1.386 . S
C40 C44 1.397 . S
C41 C39 1.397 . S
C41 C42 1.384 . S
C41 H64 0.930 . S
C42 C41 1.384 . S
C42 C43 1.377 . S
C42 C45 1.481 . S
C43 C42 1.377 . S
C43 C44 1.389 . S
C43 H65 0.929 . S
C44 C40 1.397 . S
C44 C43 1.389 . S
C44 H66 0.931 . S
C45 C42 1.481 . S
C45 C46 1.387 . S
C45 C50 1.390 . S
C46 C45 1.387 . S
C46 C47 1.401 . S
C46 H67 0.930 . S
C47 C46 1.401 . S
C47 C48 1.376 . S
C47 C56 1.511 . S
C48 C47 1.376 . S
C48 C49 1.392 . S
C48 H69 0.931 . S
C49 C48 1.392 . S
C49 C50 1.361 . S
C49 C51 1.500 . S
C50 C45 1.390 . S
C50 C49 1.361 . S
C50 H68 0.931 . S
C51 C49 1.500 . S
C51 C52 1.371 . S
C51 C53 1.365 . S
C52 C51 1.371 . S
C52 C62 1.386 . S
C52 H70 0.931 . S
C53 C51 1.365 . S
C53 C54 1.409 . S
C53 H71 0.929 . S
C54 C53 1.409 . S
C54 C55 1.380 1_556 S
C54 H72 0.930 . S
C55 C54 1.380 1_554 S
C55 C62 1.357 1_554 S
C56 C47 1.511 . S
C56 C57 1.341 . S
C56 C58 1.371 . S
C57 C56 1.341 . S
C57 C61 1.394 . S
C57 H73 0.930 . S
C58 C56 1.371 . S
C58 C59 1.392 . S
C58 H74 0.931 . S
C59 C58 1.392 . S
C59 C60 1.331 . S
C59 H77 0.932 . S
C60 C59 1.331 . S
C60 C61 1.336 . S
C61 C57 1.394 . S
C61 C60 1.336 . S
C61 H76 0.929 . S
C62 C52 1.386 . S
C62 C55 1.357 1_556 S
C62 H75 0.928 1_556 S
H63 C39 0.931 . S
H64 C41 0.930 . S
H65 C43 0.929 . S
H66 C44 0.931 . S
H67 C46 0.930 . S
H68 C50 0.931 . S
H69 C48 0.931 . S
H70 C52 0.931 . S
H71 C53 0.929 . S
H72 C54 0.930 . S
H73 C57 0.930 . S
H74 C58 0.931 . S
H75 C62 0.928 1_554 S
H76 C61 0.929 . S
H77 C59 0.932 . S
C78 C79 1.386 . S
C78 C80 1.397 . S
C78 H102 0.931 . S
C79 C78 1.386 . S
C79 C83 1.397 . S
C80 C78 1.397 . S
C80 C81 1.384 . S
C80 H103 0.930 . S
C81 C80 1.384 . S
C81 C82 1.377 . S
C81 C84 1.481 . S
C82 C81 1.377 . S
C82 C83 1.389 . S
C82 H104 0.929 . S
C83 C79 1.397 . S
C83 C82 1.389 . S
C83 H105 0.931 . S
C84 C81 1.481 . S
C84 C85 1.387 . S
C84 C89 1.390 . S
C85 C84 1.387 . S
C85 C86 1.401 . S
C85 H106 0.930 . S
C86 C85 1.401 . S
C86 C87 1.376 . S
C86 C95 1.511 . S
C87 C86 1.376 . S
C87 C88 1.392 . S
C87 H108 0.931 . S
C88 C87 1.392 . S
C88 C89 1.361 . S
C88 C90 1.500 . S
C89 C84 1.390 . S
C89 C88 1.361 . S
C89 H107 0.931 . S
C90 C88 1.500 . S
C90 C91 1.371 . S
C90 C92 1.365 . S
C91 C90 1.371 . S
C91 C101 1.386 . S
C91 H109 0.931 . S
C92 C90 1.365 . S
C92 C93 1.409 . S
C92 H110 0.929 . S
C93 C92 1.409 . S
C93 C94 1.380 . S
C93 H111 0.930 . S
C94 C93 1.380 . S
C94 C101 1.357 . S
C95 C86 1.511 . S
C95 C96 1.341 . S
C95 C97 1.371 . S
C96 C95 1.341 . S
C96 C100 1.394 . S
C96 H112 0.930 . S
C97 C95 1.371 . S
C97 C98 1.392 . S
C97 H113 0.931 . S
C98 C97 1.392 . S
C98 C99 1.331 . S
C98 H116 0.932 . S
C99 C98 1.331 . S
C99 C100 1.336 . S
C100 C96 1.394 . S
C100 C99 1.336 . S
C100 H115 0.929 . S
C101 C91 1.386 . S
C101 C94 1.357 . S
C101 H114 0.928 . S
H102 C78 0.931 . S
H103 C80 0.930 . S
H104 C82 0.929 . S
H105 C83 0.931 . S
H106 C85 0.930 . S
H107 C89 0.931 . S
H108 C87 0.931 . S
H109 C91 0.931 . S
H110 C92 0.929 . S
H111 C93 0.930 . S
H112 C96 0.930 . S
H113 C97 0.931 . S
H114 C101 0.928 . S
H115 C100 0.929 . S
H116 C98 0.932 . S
C117 C118 1.386 . S
C117 C119 1.397 . S
C117 H141 0.931 . S
C118 C117 1.386 . S
C118 C122 1.397 . S
C119 C117 1.397 . S
C119 C120 1.384 . S
C119 H142 0.930 . S
C120 C119 1.384 . S
C120 C121 1.377 . S
C120 C123 1.481 . S
C121 C120 1.377 . S
C121 C122 1.389 . S
C121 H143 0.929 . S
C122 C118 1.397 . S
C122 C121 1.389 . S
C122 H144 0.931 . S
C123 C120 1.481 . S
C123 C124 1.387 . S
C123 C128 1.390 . S
C124 C123 1.387 . S
C124 C125 1.401 . S
C124 H145 0.930 . S
C125 C124 1.401 . S
C125 C126 1.376 . S
C125 C134 1.511 . S
C126 C125 1.376 . S
C126 C127 1.392 . S
C126 H147 0.931 . S
C127 C126 1.392 . S
C127 C128 1.361 . S
C127 C129 1.500 . S
C128 C123 1.390 . S
C128 C127 1.361 . S
C128 H146 0.931 . S
C129 C127 1.500 . S
C129 C130 1.371 . S
C129 C131 1.365 . S
C130 C129 1.371 . S
C130 C140 1.386 . S
C130 H148 0.931 . S
C131 C129 1.365 . S
C131 C132 1.409 . S
C131 H149 0.929 . S
C132 C131 1.409 . S
C132 C133 1.380 1_554 S
C132 H150 0.930 . S
C133 C132 1.380 1_556 S
C133 C140 1.357 1_556 S
C134 C125 1.511 . S
C134 C135 1.341 . S
C134 C136 1.371 . S
C135 C134 1.341 . S
C135 C139 1.394 . S
C135 H151 0.930 . S
C136 C134 1.371 . S
C136 C137 1.392 . S
C136 H152 0.931 . S
C137 C136 1.392 . S
C137 C138 1.331 . S
C137 H155 0.932 . S
C138 C137 1.331 . S
C138 C139 1.336 . S
C139 C135 1.394 . S
C139 C138 1.336 . S
C139 H154 0.929 . S
C140 C130 1.386 . S
C140 C133 1.357 1_554 S
C140 H153 0.928 1_554 S
H141 C117 0.931 . S
H142 C119 0.930 . S
H143 C121 0.929 . S
H144 C122 0.931 . S
H145 C124 0.930 . S
H146 C128 0.931 . S
H147 C126 0.931 . S
H148 C130 0.931 . S
H149 C131 0.929 . S
H150 C132 0.930 . S
H151 C135 0.930 . S
H152 C136 0.931 . S
H153 C140 0.928 1_556 S
H154 C139 0.929 . S
H155 C137 0.932 . S
C156 C157 1.386 . S
C156 C158 1.397 . S
C156 H180 0.931 . S
C157 C156 1.386 . S
C157 C161 1.397 . S
C158 C156 1.397 . S
C158 C159 1.384 . S
C158 H181 0.930 . S
C159 C158 1.384 . S
C159 C160 1.377 . S
C159 C162 1.481 . S
C160 C159 1.377 . S
C160 C161 1.389 . S
C160 H182 0.929 . S
C161 C157 1.397 . S
C161 C160 1.389 . S
C161 H183 0.931 . S
C162 C159 1.481 . S
C162 C163 1.387 . S
C162 C167 1.390 . S
C163 C162 1.387 . S
C163 C164 1.401 . S
C163 H184 0.930 . S
C164 C163 1.401 . S
C164 C165 1.376 . S
C164 C173 1.511 . S
C165 C164 1.376 . S
C165 C166 1.392 . S
C165 H186 0.931 . S
C166 C165 1.392 . S
C166 C167 1.361 . S
C166 C168 1.500 . S
C167 C162 1.390 . S
C167 C166 1.361 . S
C167 H185 0.931 . S
C168 C166 1.500 . S
C168 C169 1.371 . S
C168 C170 1.365 . S
C169 C168 1.371 . S
C169 C179 1.386 . S
C169 H187 0.931 . S
C170 C168 1.365 . S
C170 C171 1.409 . S
C170 H188 0.929 . S
C171 C170 1.409 . S
C171 C172 1.380 . S
C171 H189 0.930 . S
C172 C171 1.380 . S
C172 C179 1.357 . S
C173 C164 1.511 . S
C173 C174 1.341 . S
C173 C175 1.371 . S
C174 C173 1.341 . S
C174 C178 1.394 . S
C174 H190 0.930 . S
C175 C173 1.371 . S
C175 C176 1.392 . S
C175 H191 0.931 . S
C176 C175 1.392 . S
C176 C177 1.331 . S
C176 H194 0.932 . S
C177 C176 1.331 . S
C177 C178 1.336 . S
C178 C174 1.394 . S
C178 C177 1.336 . S
C178 H193 0.929 . S
C179 C169 1.386 . S
C179 C172 1.357 . S
C179 H192 0.928 . S
H180 C156 0.931 . S
H181 C158 0.930 . S
H182 C160 0.929 . S
H183 C161 0.931 . S
H184 C163 0.930 . S
H185 C167 0.931 . S
H186 C165 0.931 . S
H187 C169 0.931 . S
H188 C170 0.929 . S
H189 C171 0.930 . S
H190 C174 0.930 . S
H191 C175 0.931 . S
H192 C179 0.928 . S
H193 C178 0.929 . S
H194 C176 0.932 . S
C195 C196 1.386 1_554 S
C195 C197 1.397 . S
C195 H219 0.931 1_554 S
C196 C195 1.386 1_556 S
C196 C200 1.397 1_556 S
C197 C195 1.397 . S
C197 C198 1.384 . S
C197 H220 0.930 . S
C198 C197 1.384 . S
C198 C199 1.377 . S
C198 C201 1.481 . S
C199 C198 1.377 . S
C199 C200 1.389 . S
C199 H221 0.929 . S
C200 C196 1.397 1_554 S
C200 C199 1.389 . S
C200 H222 0.931 . S
C201 C198 1.481 . S
C201 C202 1.387 . S
C201 C206 1.390 . S
C202 C201 1.387 . S
C202 C203 1.401 . S
C202 H223 0.930 . S
C203 C202 1.401 . S
C203 C204 1.376 . S
C203 C212 1.511 . S
C204 C203 1.376 . S
C204 C205 1.392 . S
C204 H225 0.931 . S
C205 C204 1.392 . S
C205 C206 1.361 . S
C205 C207 1.500 . S
C206 C201 1.390 . S
C206 C205 1.361 . S
C206 H224 0.931 . S
C207 C205 1.500 . S
C207 C208 1.371 . S
C207 C209 1.365 . S
C208 C207 1.371 . S
C208 C218 1.386 . S
C208 H226 0.931 . S
C209 C207 1.365 . S
C209 C210 1.409 . S
C209 H227 0.929 . S
C210 C209 1.409 . S
C210 C211 1.380 . S
C210 H228 0.930 . S
C211 C210 1.380 . S
C211 C218 1.357 . S
C212 C203 1.511 . S
C212 C213 1.341 . S
C212 C214 1.371 . S
C213 C212 1.341 . S
C213 C217 1.394 . S
C213 H229 0.930 . S
C214 C212 1.371 . S
C214 C215 1.392 . S
C214 H230 0.931 . S
C215 C214 1.392 . S
C215 C216 1.331 . S
C215 H233 0.932 . S
C216 C215 1.331 . S
C216 C217 1.336 . S
C217 C213 1.394 . S
C217 C216 1.336 . S
C217 H232 0.929 . S
C218 C208 1.386 . S
C218 C211 1.357 . S
C218 H231 0.928 . S
H219 C195 0.931 1_556 S
H220 C197 0.930 . S
H221 C199 0.929 . S
H222 C200 0.931 . S
H223 C202 0.930 . S
H224 C206 0.931 . S
H225 C204 0.931 . S
H226 C208 0.931 . S
H227 C209 0.929 . S
H228 C210 0.930 . S
H229 C213 0.930 . S
H230 C214 0.931 . S
H231 C218 0.928 . S
H232 C217 0.929 . S
H233 C215 0.932 . S
C234 C235 1.386 . S
C234 C236 1.397 . S
C234 H258 0.931 . S
C235 C234 1.386 . S
C235 C239 1.397 . S
C236 C234 1.397 . S
C236 C237 1.384 . S
C236 H259 0.930 . S
C237 C236 1.384 . S
C237 C238 1.377 . S
C237 C240 1.481 . S
C238 C237 1.377 . S
C238 C239 1.389 . S
C238 H260 0.929 . S
C239 C235 1.397 . S
C239 C238 1.389 . S
C239 H261 0.931 1_565 S
C240 C237 1.481 . S
C240 C241 1.387 . S
C240 C245 1.390 . S
C241 C240 1.387 . S
C241 C242 1.401 . S
C241 H262 0.930 . S
C242 C241 1.401 . S
C242 C243 1.376 . S
C242 C251 1.511 . S
C243 C242 1.376 . S
C243 C244 1.392 . S
C243 H264 0.931 . S
C244 C243 1.392 . S
C244 C245 1.361 . S
C244 C246 1.500 . S
C245 C240 1.390 . S
C245 C244 1.361 . S
C245 H263 0.931 . S
C246 C244 1.500 . S
C246 C247 1.371 . S
C246 C248 1.365 . S
C247 C246 1.371 . S
C247 C257 1.386 . S
C247 H265 0.931 . S
C248 C246 1.365 . S
C248 C249 1.409 . S
C248 H266 0.929 . S
C249 C248 1.409 . S
C249 C250 1.380 . S
C249 H267 0.930 . S
C250 C249 1.380 . S
C250 C257 1.357 . S
C251 C242 1.511 . S
C251 C252 1.341 . S
C251 C253 1.371 . S
C252 C251 1.341 . S
C252 C256 1.394 . S
C252 H268 0.930 . S
C253 C251 1.371 . S
C253 C254 1.392 . S
C253 H269 0.931 . S
C254 C253 1.392 . S
C254 C255 1.331 . S
C254 H272 0.932 . S
C255 C254 1.331 . S
C255 C256 1.336 . S
C256 C252 1.394 . S
C256 C255 1.336 . S
C256 H271 0.929 . S
C257 C247 1.386 . S
C257 C250 1.357 . S
C257 H270 0.928 . S
H258 C234 0.931 . S
H259 C236 0.930 . S
H260 C238 0.929 . S
H261 C239 0.931 1_545 S
H262 C241 0.930 . S
H263 C245 0.931 . S
H264 C243 0.931 . S
H265 C247 0.931 . S
H266 C248 0.929 . S
H267 C249 0.930 . S
H268 C252 0.930 . S
H269 C253 0.931 . S
H270 C257 0.928 . S
H271 C256 0.929 . S
H272 C254 0.932 . S
C273 C274 1.386 1_556 S
C273 C275 1.397 . S
C273 H297 0.931 1_556 S
C274 C273 1.386 1_554 S
C274 C278 1.397 1_554 S
C275 C273 1.397 . S
C275 C276 1.384 . S
C275 H298 0.930 . S
C276 C275 1.384 . S
C276 C277 1.377 . S
C276 C279 1.481 . S
C277 C276 1.377 . S
C277 C278 1.389 . S
C277 H299 0.929 . S
C278 C274 1.397 1_556 S
C278 C277 1.389 . S
C278 H300 0.931 . S
C279 C276 1.481 . S
C279 C280 1.387 . S
C279 C284 1.390 . S
C280 C279 1.387 . S
C280 C281 1.401 . S
C280 H301 0.930 . S
C281 C280 1.401 . S
C281 C282 1.376 . S
C281 C290 1.511 . S
C282 C281 1.376 . S
C282 C283 1.392 . S
C282 H303 0.931 . S
C283 C282 1.392 . S
C283 C284 1.361 . S
C283 C285 1.500 . S
C284 C279 1.390 . S
C284 C283 1.361 . S
C284 H302 0.931 . S
C285 C283 1.500 . S
C285 C286 1.371 . S
C285 C287 1.365 . S
C286 C285 1.371 . S
C286 C296 1.386 . S
C286 H304 0.931 . S
C287 C285 1.365 . S
C287 C288 1.409 . S
C287 H305 0.929 . S
C288 C287 1.409 . S
C288 C289 1.380 . S
C288 H306 0.930 . S
C289 C288 1.380 . S
C289 C296 1.357 . S
C290 C281 1.511 . S
C290 C291 1.341 . S
C290 C292 1.371 . S
C291 C290 1.341 . S
C291 C295 1.394 . S
C291 H307 0.930 . S
C292 C290 1.371 . S
C292 C293 1.392 . S
C292 H308 0.931 . S
C293 C292 1.392 . S
C293 C294 1.331 . S
C293 H311 0.932 . S
C294 C293 1.331 . S
C294 C295 1.336 . S
C295 C291 1.394 . S
C295 C294 1.336 . S
C295 H310 0.929 . S
C296 C286 1.386 . S
C296 C289 1.357 . S
C296 H309 0.928 . S
H297 C273 0.931 1_554 S
H298 C275 0.930 . S
H299 C277 0.929 . S
H300 C278 0.931 . S
H301 C280 0.930 . S
H302 C284 0.931 . S
H303 C282 0.931 . S
H304 C286 0.931 . S
H305 C287 0.929 . S
H306 C288 0.930 . S
H307 C291 0.930 . S
H308 C292 0.931 . S
H309 C296 0.928 . S
H310 C295 0.929 . S
H311 C293 0.932 . S
Tb312 N341 2.617 . S
Tb312 N347 2.572 . S
Tb312 O356 2.465 . S
Tb312 O357 2.387 . S
Tb312 O359 2.428 . S
Tb312 O360 2.308 . S
Tb312 O364 2.349 . S
Tb312 O367 2.393 . S
Tb312 C376 2.802 . S
C313 N314 1.379 . S
C313 C316 1.416 . S
C313 C320 1.424 . S
N314 C313 1.379 . S
N314 C317 1.334 . S
N314 Tb323 2.617 . S
C315 C317 1.390 . S
C315 C318 1.339 . S
C315 H335 0.930 . S
C316 C313 1.416 . S
C316 C318 1.416 . S
C316 C322 1.448 . S
C317 N314 1.334 . S
C317 C315 1.390 . S
C317 H328 0.930 . S
C318 C315 1.339 . S
C318 C316 1.416 . S
C318 H339 0.930 . S
C319 C320 1.413 . S
C319 C321 1.427 . S
C319 C325 1.416 . S
C320 C313 1.424 . S
C320 C319 1.413 . S
C320 N324 1.361 . S
C321 C319 1.427 . S
C321 C322 1.328 . S
C321 H336 0.929 . S
C322 C316 1.448 . S
C322 C321 1.328 . S
C322 H337 0.930 . S
Tb323 N314 2.617 . S
Tb323 N324 2.572 . S
Tb323 O358 2.349 1_655 S
Tb323 O361 2.393 . S
Tb323 O362 2.465 . S
Tb323 O363 2.387 . S
Tb323 O365 2.428 . S
Tb323 O366 2.308 1_655 S
Tb323 C387 2.802 . S
N324 C320 1.361 . S
N324 Tb323 2.572 . S
N324 C326 1.340 . S
C325 C319 1.416 . S
C325 C327 1.332 . S
C325 H333 0.931 . S
C326 N324 1.340 . S
C326 C327 1.407 . S
C326 H332 0.930 . S
C327 C325 1.332 . S
C327 C326 1.407 . S
C327 H329 0.929 . S
H328 C317 0.930 . S
H329 C327 0.929 . S
H330 C345 0.930 . S
H331 C352 0.929 . S
H332 C326 0.930 . S
H333 C325 0.931 . S
H334 C348 0.930 . S
H335 C315 0.930 . S
H336 C321 0.929 . S
H337 C322 0.930 . S
H338 C343 0.930 . S
H339 C318 0.930 . S
H340 C351 0.931 . S
N341 Tb312 2.617 . S
N341 C342 1.379 . S
N341 C345 1.334 . S
C342 N341 1.379 . S
C342 C344 1.416 . S
C342 C350 1.424 . S
C343 H338 0.930 . S
C343 C345 1.390 . S
C343 C346 1.339 . S
C344 C342 1.416 . S
C344 C346 1.416 . S
C344 C377 1.448 . S
C345 H330 0.930 . S
C345 N341 1.334 . S
C345 C343 1.390 . S
C346 C343 1.339 . S
C346 C344 1.416 . S
C346 H353 0.930 . S
N347 Tb312 2.572 . S
N347 C348 1.340 . S
N347 C350 1.361 . S
C348 H334 0.930 . S
C348 N347 1.340 . S
C348 C352 1.407 . S
C349 C350 1.413 . S
C349 C351 1.416 . S
C349 C378 1.427 . S
C350 C342 1.424 . S
C350 N347 1.361 . S
C350 C349 1.413 . S
C351 H340 0.931 . S
C351 C349 1.416 . S
C351 C352 1.332 . S
C352 H331 0.929 . S
C352 C348 1.407 . S
C352 C351 1.332 . S
H353 C346 0.930 . S
H354 C377 0.930 . S
H355 C378 0.929 . S
O356 Tb312 2.465 . S
O356 C376 1.264 . S
O357 Tb312 2.387 . S
O357 C368 1.264 . S
O358 Tb323 2.349 1_455 S
O358 C368 1.243 . S
O359 Tb312 2.428 . S
O359 C376 1.256 . S
O360 Tb312 2.308 . S
O360 C375 1.266 1_455 S
O361 Tb323 2.393 . S
O361 C375 1.248 . S
O362 Tb323 2.465 . S
O362 C387 1.264 . S
O363 Tb323 2.387 . S
O363 C379 1.264 . S
O364 Tb312 2.349 . S
O364 C379 1.243 1_455 S
O365 Tb323 2.428 . S
O365 C387 1.256 . S
O366 Tb323 2.308 1_455 S
O366 C386 1.266 . S
O367 Tb312 2.393 . S
O367 C386 1.248 . S
C368 O357 1.264 . S
C368 O358 1.243 . S
C369 C372 1.399 . S
C369 C374 1.383 . S
C369 C376 1.496 . S
C370 C371 1.399 . S
C370 C374 1.389 . S
C371 C370 1.399 . S
C371 C373 1.380 . S
C371 H388 0.929 . S
C372 C369 1.399 . S
C372 C373 1.392 . S
C372 H389 0.929 . S
C373 C371 1.380 . S
C373 C372 1.392 . S
C373 H390 0.929 . S
C374 C369 1.383 . S
C374 C370 1.389 . S
C374 H391 0.931 . S
C375 O360 1.266 1_655 S
C375 O361 1.248 . S
C376 Tb312 2.802 . S
C376 O356 1.264 . S
C376 O359 1.256 . S
C376 C369 1.496 . S
C377 C344 1.448 . S
C377 H354 0.930 . S
C377 C378 1.328 . S
C378 C349 1.427 . S
C378 H355 0.929 . S
C378 C377 1.328 . S
C379 O363 1.264 . S
C379 O364 1.243 1_655 S
C380 C383 1.399 . S
C380 C384 1.383 . S
C380 C387 1.496 . S
C381 C382 1.399 . S
C381 C384 1.389 . S
C382 C381 1.399 . S
C382 C385 1.380 . S
C382 H392 0.929 . S
C383 C380 1.399 . S
C383 C385 1.392 . S
C383 H393 0.929 . S
C384 C380 1.383 . S
C384 C381 1.389 . S
C384 H394 0.931 . S
C385 C382 1.380 . S
C385 C383 1.392 . S
C385 H395 0.929 . S
C386 O366 1.266 . S
C386 O367 1.248 . S
C387 Tb323 2.802 . S
C387 O362 1.264 . S
C387 O365 1.256 . S
C387 C380 1.496 . S
H388 C371 0.929 . S
H389 C372 0.929 . S
H390 C373 0.929 . S
H391 C374 0.931 . S
H392 C382 0.929 . S
H393 C383 0.929 . S
H394 C384 0.931 . S
H395 C385 0.929 . S
Tb396 N425 2.617 . S
Tb396 N431 2.572 . S
Tb396 O440 2.465 . S
Tb396 O441 2.387 . S
Tb396 O443 2.428 . S
Tb396 O444 2.308 . S
Tb396 O448 2.349 . S
Tb396 O451 2.393 . S
Tb396 C460 2.802 . S
C397 N398 1.379 . S
C397 C400 1.416 . S
C397 C404 1.424 . S
N398 C397 1.379 . S
N398 C401 1.334 . S
N398 Tb407 2.617 . S
C399 C401 1.390 . S
C399 C402 1.339 . S
C399 H419 0.930 . S
C400 C397 1.416 . S
C400 C402 1.416 . S
C400 C406 1.448 . S
C401 N398 1.334 . S
C401 C399 1.390 . S
C401 H412 0.930 . S
C402 C399 1.339 . S
C402 C400 1.416 . S
C402 H423 0.930 . S
C403 C404 1.413 . S
C403 C405 1.427 . S
C403 C409 1.416 . S
C404 C397 1.424 . S
C404 C403 1.413 . S
C404 N408 1.361 . S
C405 C403 1.427 . S
C405 C406 1.328 . S
C405 H420 0.929 . S
C406 C400 1.448 . S
C406 C405 1.328 . S
C406 H421 0.930 . S
Tb407 N398 2.617 . S
Tb407 N408 2.572 . S
Tb407 O442 2.349 . S
Tb407 O445 2.393 . S
Tb407 O446 2.465 . S
Tb407 O447 2.387 . S
Tb407 O449 2.428 . S
Tb407 O450 2.308 . S
Tb407 C471 2.802 . S
N408 C404 1.361 . S
N408 Tb407 2.572 . S
N408 C410 1.340 . S
C409 C403 1.416 . S
C409 C411 1.332 . S
C409 H417 0.931 . S
C410 N408 1.340 . S
C410 C411 1.407 . S
C410 H416 0.930 . S
C411 C409 1.332 . S
C411 C410 1.407 . S
C411 H413 0.929 . S
H412 C401 0.930 . S
H413 C411 0.929 . S
H414 C429 0.930 . S
H415 C436 0.929 . S
H416 C410 0.930 . S
H417 C409 0.931 . S
H418 C432 0.930 . S
H419 C399 0.930 . S
H420 C405 0.929 . S
H421 C406 0.930 . S
H422 C427 0.930 . S
H423 C402 0.930 . S
H424 C435 0.931 . S
N425 Tb396 2.617 . S
N425 C426 1.379 . S
N425 C429 1.334 . S
C426 N425 1.379 . S
C426 C428 1.416 . S
C426 C434 1.424 . S
C427 H422 0.930 . S
C427 C429 1.390 . S
C427 C430 1.339 . S
C428 C426 1.416 . S
C428 C430 1.416 . S
C428 C461 1.448 . S
C429 H414 0.930 . S
C429 N425 1.334 . S
C429 C427 1.390 . S
C430 C427 1.339 . S
C430 C428 1.416 . S
C430 H437 0.930 . S
N431 Tb396 2.572 . S
N431 C432 1.340 . S
N431 C434 1.361 . S
C432 H418 0.930 . S
C432 N431 1.340 . S
C432 C436 1.407 . S
C433 C434 1.413 . S
C433 C435 1.416 . S
C433 C462 1.427 . S
C434 C426 1.424 . S
C434 N431 1.361 . S
C434 C433 1.413 . S
C435 H424 0.931 . S
C435 C433 1.416 . S
C435 C436 1.332 . S
C436 H415 0.929 . S
C436 C432 1.407 . S
C436 C435 1.332 . S
H437 C430 0.930 . S
H438 C461 0.930 . S
H439 C462 0.929 . S
O440 Tb396 2.465 . S
O440 C460 1.264 . S
O441 Tb396 2.387 . S
O441 C452 1.264 . S
O442 Tb407 2.349 . S
O442 C452 1.243 . S
O443 Tb396 2.428 . S
O443 C460 1.256 . S
O444 Tb396 2.308 . S
O444 C459 1.266 . S
O445 Tb407 2.393 . S
O445 C459 1.248 . S
O446 Tb407 2.465 . S
O446 C471 1.264 . S
O447 Tb407 2.387 . S
O447 C463 1.264 . S
O448 Tb396 2.349 . S
O448 C463 1.243 . S
O449 Tb407 2.428 . S
O449 C471 1.256 . S
O450 Tb407 2.308 . S
O450 C470 1.266 . S
O451 Tb396 2.393 . S
O451 C470 1.248 . S
C452 O441 1.264 . S
C452 O442 1.243 . S
C453 C456 1.399 . S
C453 C458 1.383 . S
C453 C460 1.496 . S
C454 C455 1.399 . S
C454 C458 1.389 . S
C455 C454 1.399 . S
C455 C457 1.380 . S
C455 H472 0.929 . S
C456 C453 1.399 . S
C456 C457 1.392 . S
C456 H473 0.929 . S
C457 C455 1.380 . S
C457 C456 1.392 . S
C457 H474 0.929 . S
C458 C453 1.383 . S
C458 C454 1.389 . S
C458 H475 0.931 . S
C459 O444 1.266 . S
C459 O445 1.248 . S
C460 Tb396 2.802 . S
C460 O440 1.264 . S
C460 O443 1.256 . S
C460 C453 1.496 . S
C461 C428 1.448 . S
C461 H438 0.930 . S
C461 C462 1.328 . S
C462 C433 1.427 . S
C462 H439 0.929 . S
C462 C461 1.328 . S
C463 O447 1.264 . S
C463 O448 1.243 . S
C464 C467 1.399 . S
C464 C468 1.383 . S
C464 C471 1.496 . S
C465 C466 1.399 . S
C465 C468 1.389 . S
C466 C465 1.399 . S
C466 C469 1.380 . S
C466 H476 0.929 . S
C467 C464 1.399 . S
C467 C469 1.392 . S
C467 H477 0.929 . S
C468 C464 1.383 . S
C468 C465 1.389 . S
C468 H478 0.931 . S
C469 C466 1.380 . S
C469 C467 1.392 . S
C469 H479 0.929 . S
C470 O450 1.266 . S
C470 O451 1.248 . S
C471 Tb407 2.802 . S
C471 O446 1.264 . S
C471 O449 1.256 . S
C471 C464 1.496 . S
H472 C455 0.929 . S
H473 C456 0.929 . S
H474 C457 0.929 . S
H475 C458 0.931 . S
H476 C466 0.929 . S
H477 C467 0.929 . S
H478 C468 0.931 . S
H479 C469 0.929 . S
Tb480 N509 2.617 . S
Tb480 N515 2.572 . S
Tb480 O524 2.465 . S
Tb480 O525 2.387 . S
Tb480 O527 2.428 . S
Tb480 O528 2.308 . S
Tb480 O532 2.349 . S
Tb480 O535 2.393 . S
Tb480 C544 2.802 . S
C481 N482 1.379 . S
C481 C484 1.416 . S
C481 C488 1.424 . S
N482 C481 1.379 . S
N482 C485 1.334 . S
N482 Tb491 2.617 . S
C483 C485 1.390 . S
C483 C486 1.339 . S
C483 H503 0.930 . S
C484 C481 1.416 . S
C484 C486 1.416 . S
C484 C490 1.448 . S
C485 N482 1.334 . S
C485 C483 1.390 . S
C485 H496 0.930 . S
C486 C483 1.339 . S
C486 C484 1.416 . S
C486 H507 0.930 . S
C487 C488 1.413 . S
C487 C489 1.427 . S
C487 C493 1.416 . S
C488 C481 1.424 . S
C488 C487 1.413 . S
C488 N492 1.361 . S
C489 C487 1.427 . S
C489 C490 1.328 . S
C489 H504 0.929 . S
C490 C484 1.448 . S
C490 C489 1.328 . S
C490 H505 0.930 . S
Tb491 N482 2.617 . S
Tb491 N492 2.572 . S
Tb491 O526 2.349 1_655 S
Tb491 O529 2.393 . S
Tb491 O530 2.465 . S
Tb491 O531 2.387 . S
Tb491 O533 2.428 . S
Tb491 O534 2.308 1_655 S
Tb491 C555 2.802 . S
N492 C488 1.361 . S
N492 Tb491 2.572 . S
N492 C494 1.340 . S
C493 C487 1.416 . S
C493 C495 1.332 . S
C493 H501 0.931 . S
C494 N492 1.340 . S
C494 C495 1.407 . S
C494 H500 0.930 . S
C495 C493 1.332 . S
C495 C494 1.407 . S
C495 H497 0.929 . S
H496 C485 0.930 . S
H497 C495 0.929 . S
H498 C513 0.930 . S
H499 C520 0.929 . S
H500 C494 0.930 . S
H501 C493 0.931 . S
H502 C516 0.930 . S
H503 C483 0.930 . S
H504 C489 0.929 . S
H505 C490 0.930 . S
H506 C511 0.930 . S
H507 C486 0.930 . S
H508 C519 0.931 . S
N509 Tb480 2.617 . S
N509 C510 1.379 . S
N509 C513 1.334 . S
C510 N509 1.379 . S
C510 C512 1.416 . S
C510 C518 1.424 . S
C511 H506 0.930 . S
C511 C513 1.390 . S
C511 C514 1.339 . S
C512 C510 1.416 . S
C512 C514 1.416 . S
C512 C545 1.448 . S
C513 H498 0.930 . S
C513 N509 1.334 . S
C513 C511 1.390 . S
C514 C511 1.339 . S
C514 C512 1.416 . S
C514 H521 0.930 . S
N515 Tb480 2.572 . S
N515 C516 1.340 . S
N515 C518 1.361 . S
C516 H502 0.930 . S
C516 N515 1.340 . S
C516 C520 1.407 . S
C517 C518 1.413 . S
C517 C519 1.416 . S
C517 C546 1.427 . S
C518 C510 1.424 . S
C518 N515 1.361 . S
C518 C517 1.413 . S
C519 H508 0.931 . S
C519 C517 1.416 . S
C519 C520 1.332 . S
C520 H499 0.929 . S
C520 C516 1.407 . S
C520 C519 1.332 . S
H521 C514 0.930 . S
H522 C545 0.930 . S
H523 C546 0.929 . S
O524 Tb480 2.465 . S
O524 C544 1.264 . S
O525 Tb480 2.387 . S
O525 C536 1.264 . S
O526 Tb491 2.349 1_455 S
O526 C536 1.243 . S
O527 Tb480 2.428 . S
O527 C544 1.256 . S
O528 Tb480 2.308 . S
O528 C543 1.266 1_455 S
O529 Tb491 2.393 . S
O529 C543 1.248 . S
O530 Tb491 2.465 . S
O530 C555 1.264 . S
O531 Tb491 2.387 . S
O531 C547 1.264 . S
O532 Tb480 2.349 . S
O532 C547 1.243 1_455 S
O533 Tb491 2.428 . S
O533 C555 1.256 . S
O534 Tb491 2.308 1_455 S
O534 C554 1.266 . S
O535 Tb480 2.393 . S
O535 C554 1.248 . S
C536 O525 1.264 . S
C536 O526 1.243 . S
C537 C540 1.399 . S
C537 C542 1.383 . S
C537 C544 1.496 . S
C538 C539 1.399 . S
C538 C542 1.389 . S
C539 C538 1.399 . S
C539 C541 1.380 . S
C539 H556 0.929 . S
C540 C537 1.399 . S
C540 C541 1.392 . S
C540 H557 0.929 . S
C541 C539 1.380 . S
C541 C540 1.392 . S
C541 H558 0.929 . S
C542 C537 1.383 . S
C542 C538 1.389 . S
C542 H559 0.931 . S
C543 O528 1.266 1_655 S
C543 O529 1.248 . S
C544 Tb480 2.802 . S
C544 O524 1.264 . S
C544 O527 1.256 . S
C544 C537 1.496 . S
C545 C512 1.448 . S
C545 H522 0.930 . S
C545 C546 1.328 . S
C546 C517 1.427 . S
C546 H523 0.929 . S
C546 C545 1.328 . S
C547 O531 1.264 . S
C547 O532 1.243 1_655 S
C548 C551 1.399 . S
C548 C552 1.383 . S
C548 C555 1.496 . S
C549 C550 1.399 . S
C549 C552 1.389 . S
C550 C549 1.399 . S
C550 C553 1.380 . S
C550 H560 0.929 . S
C551 C548 1.399 . S
C551 C553 1.392 . S
C551 H561 0.929 . S
C552 C548 1.383 . S
C552 C549 1.389 . S
C552 H562 0.931 . S
C553 C550 1.380 . S
C553 C551 1.392 . S
C553 H563 0.929 . S
C554 O534 1.266 . S
C554 O535 1.248 . S
C555 Tb491 2.802 . S
C555 O530 1.264 . S
C555 O533 1.256 . S
C555 C548 1.496 . S
H556 C539 0.929 . S
H557 C540 0.929 . S
H558 C541 0.929 . S
H559 C542 0.931 . S
H560 C550 0.929 . S
H561 C551 0.929 . S
H562 C552 0.931 . S
H563 C553 0.929 . S
Tb564 N593 2.617 . S
Tb564 N599 2.572 . S
Tb564 O608 2.465 . S
Tb564 O609 2.387 . S
Tb564 O611 2.428 . S
Tb564 O612 2.308 . S
Tb564 O616 2.349 . S
Tb564 O619 2.393 . S
Tb564 C628 2.802 . S
C565 N566 1.379 . S
C565 C568 1.416 . S
C565 C572 1.424 . S
N566 C565 1.379 . S
N566 C569 1.334 . S
N566 Tb575 2.617 . S
C567 C569 1.390 . S
C567 C570 1.339 . S
C567 H587 0.930 . S
C568 C565 1.416 . S
C568 C570 1.416 . S
C568 C574 1.448 . S
C569 N566 1.334 . S
C569 C567 1.390 . S
C569 H580 0.930 . S
C570 C567 1.339 . S
C570 C568 1.416 . S
C570 H591 0.930 . S
C571 C572 1.413 . S
C571 C573 1.427 . S
C571 C577 1.416 . S
C572 C565 1.424 . S
C572 C571 1.413 . S
C572 N576 1.361 . S
C573 C571 1.427 . S
C573 C574 1.328 . S
C573 H588 0.929 . S
C574 C568 1.448 . S
C574 C573 1.328 . S
C574 H589 0.930 . S
Tb575 N566 2.617 . S
Tb575 N576 2.572 . S
Tb575 O610 2.349 . S
Tb575 O613 2.393 . S
Tb575 O614 2.465 . S
Tb575 O615 2.387 . S
Tb575 O617 2.428 . S
Tb575 O618 2.308 . S
Tb575 C639 2.802 . S
N576 C572 1.361 . S
N576 Tb575 2.572 . S
N576 C578 1.340 . S
C577 C571 1.416 . S
C577 C579 1.332 . S
C577 H585 0.931 . S
C578 N576 1.340 . S
C578 C579 1.407 . S
C578 H584 0.930 . S
C579 C577 1.332 . S
C579 C578 1.407 . S
C579 H581 0.929 . S
H580 C569 0.930 . S
H581 C579 0.929 . S
H582 C597 0.930 . S
H583 C604 0.929 . S
H584 C578 0.930 . S
H585 C577 0.931 . S
H586 C600 0.930 . S
H587 C567 0.930 . S
H588 C573 0.929 . S
H589 C574 0.930 . S
H590 C595 0.930 . S
H591 C570 0.930 . S
H592 C603 0.931 . S
N593 Tb564 2.617 . S
N593 C594 1.379 . S
N593 C597 1.334 . S
C594 N593 1.379 . S
C594 C596 1.416 . S
C594 C602 1.424 . S
C595 H590 0.930 . S
C595 C597 1.390 . S
C595 C598 1.339 . S
C596 C594 1.416 . S
C596 C598 1.416 . S
C596 C629 1.448 . S
C597 H582 0.930 . S
C597 N593 1.334 . S
C597 C595 1.390 . S
C598 C595 1.339 . S
C598 C596 1.416 . S
C598 H605 0.930 . S
N599 Tb564 2.572 . S
N599 C600 1.340 . S
N599 C602 1.361 . S
C600 H586 0.930 . S
C600 N599 1.340 . S
C600 C604 1.407 . S
C601 C602 1.413 . S
C601 C603 1.416 . S
C601 C630 1.427 . S
C602 C594 1.424 . S
C602 N599 1.361 . S
C602 C601 1.413 . S
C603 H592 0.931 . S
C603 C601 1.416 . S
C603 C604 1.332 . S
C604 H583 0.929 . S
C604 C600 1.407 . S
C604 C603 1.332 . S
H605 C598 0.930 . S
H606 C629 0.930 . S
H607 C630 0.929 . S
O608 Tb564 2.465 . S
O608 C628 1.264 . S
O609 Tb564 2.387 . S
O609 C620 1.264 . S
O610 Tb575 2.349 . S
O610 C620 1.243 . S
O611 Tb564 2.428 . S
O611 C628 1.256 . S
O612 Tb564 2.308 . S
O612 C627 1.266 . S
O613 Tb575 2.393 . S
O613 C627 1.248 . S
O614 Tb575 2.465 . S
O614 C639 1.264 . S
O615 Tb575 2.387 . S
O615 C631 1.264 . S
O616 Tb564 2.349 . S
O616 C631 1.243 . S
O617 Tb575 2.428 . S
O617 C639 1.256 . S
O618 Tb575 2.308 . S
O618 C638 1.266 . S
O619 Tb564 2.393 . S
O619 C638 1.248 . S
C620 O609 1.264 . S
C620 O610 1.243 . S
C621 C624 1.399 . S
C621 C626 1.383 . S
C621 C628 1.496 . S
C622 C623 1.399 . S
C622 C626 1.389 . S
C623 C622 1.399 . S
C623 C625 1.380 . S
C623 H640 0.929 . S
C624 C621 1.399 . S
C624 C625 1.392 . S
C624 H641 0.929 . S
C625 C623 1.380 . S
C625 C624 1.392 . S
C625 H642 0.929 . S
C626 C621 1.383 . S
C626 C622 1.389 . S
C626 H643 0.931 . S
C627 O612 1.266 . S
C627 O613 1.248 . S
C628 Tb564 2.802 . S
C628 O608 1.264 . S
C628 O611 1.256 . S
C628 C621 1.496 . S
C629 C596 1.448 . S
C629 H606 0.930 . S
C629 C630 1.328 . S
C630 C601 1.427 . S
C630 H607 0.929 . S
C630 C629 1.328 . S
C631 O615 1.264 . S
C631 O616 1.243 . S
C632 C635 1.399 . S
C632 C636 1.383 . S
C632 C639 1.496 . S
C633 C634 1.399 . S
C633 C636 1.389 . S
C634 C633 1.399 . S
C634 C637 1.380 . S
C634 H644 0.929 . S
C635 C632 1.399 . S
C635 C637 1.392 . S
C635 H645 0.929 . S
C636 C632 1.383 . S
C636 C633 1.389 . S
C636 H646 0.931 . S
C637 C634 1.380 . S
C637 C635 1.392 . S
C637 H647 0.929 . S
C638 O618 1.266 . S
C638 O619 1.248 . S
C639 Tb575 2.802 . S
C639 O614 1.264 . S
C639 O617 1.256 . S
C639 C632 1.496 . S
H640 C623 0.929 . S
H641 C624 0.929 . S
H642 C625 0.929 . S
H643 C626 0.931 . S
H644 C634 0.929 . S
H645 C635 0.929 . S
H646 C636 0.931 . S
H647 C637 0.929 . S
C648 C649 1.363 . S
C648 C654 1.379 . S
C648 N656 1.356 . S
C649 C648 1.363 . S
C649 C655 1.363 . S
C650 C651 1.363 . S
C650 C655 1.379 . S
C650 N657 1.356 1_455 S
C651 C650 1.363 . S
C651 C654 1.363 . S
N652 C654 1.356 . S
N652 H664 0.984 . S
N652 H665 0.985 . S
N653 C655 1.356 1_565 S
N653 H658 0.984 . S
N653 H659 0.985 . S
C654 C648 1.379 . S
C654 C651 1.363 . S
C654 N652 1.356 . S
C655 C649 1.363 . S
C655 C650 1.379 . S
C655 N653 1.356 1_545 S
N656 C648 1.356 . S
N656 H662 0.984 . S
N656 H663 0.984 . S
N657 C650 1.356 1_655 S
N657 H660 0.984 . S
N657 H661 0.985 . S
H658 N653 0.984 . S
H659 N653 0.985 . S
H660 N657 0.984 . S
H661 N657 0.985 . S
H662 N656 0.984 . S
H663 N656 0.984 . S
H664 N652 0.984 . S
H665 N652 0.985 . S
C666 C667 1.363 . S
C666 C672 1.379 . S
C666 N674 1.356 . S
C667 C666 1.363 . S
C667 C673 1.363 . S
C668 C669 1.363 . S
C668 C673 1.379 . S
C668 N675 1.356 . S
C669 C668 1.363 . S
C669 C672 1.363 . S
N670 C672 1.356 . S
N670 H682 0.984 . S
N670 H683 0.985 . S
N671 C673 1.356 . S
N671 H676 0.984 . S
N671 H677 0.985 . S
C672 C666 1.379 . S
C672 C669 1.363 . S
C672 N670 1.356 . S
C673 C667 1.363 . S
C673 C668 1.379 . S
C673 N671 1.356 . S
N674 C666 1.356 . S
N674 H680 0.984 . S
N674 H681 0.984 . S
N675 C668 1.356 . S
N675 H678 0.984 . S
N675 H679 0.985 . S
H676 N671 0.984 . S
H677 N671 0.985 . S
H678 N675 0.984 . S
H679 N675 0.985 . S
H680 N674 0.984 . S
H681 N674 0.984 . S
H682 N670 0.984 . S
H683 N670 0.985 . S
C684 C685 1.363 . S
C684 C690 1.379 . S
C684 N692 1.356 . S
C685 C684 1.363 . S
C685 C691 1.363 . S
C686 C687 1.363 . S
C686 C691 1.379 . S
C686 N693 1.356 . S
C687 C686 1.363 . S
C687 C690 1.363 . S
N688 C690 1.356 . S
N688 H700 0.984 . S
N688 H701 0.985 . S
N689 C691 1.356 . S
N689 H694 0.984 . S
N689 H695 0.985 . S
C690 C684 1.379 . S
C690 C687 1.363 . S
C690 N688 1.356 . S
C691 C685 1.363 . S
C691 C686 1.379 . S
C691 N689 1.356 . S
N692 C684 1.356 . S
N692 H698 0.984 . S
N692 H699 0.984 . S
N693 C686 1.356 . S
N693 H696 0.984 . S
N693 H697 0.985 . S
H694 N689 0.984 . S
H695 N689 0.985 . S
H696 N693 0.984 . S
H697 N693 0.985 . S
H698 N692 0.984 . S
H699 N692 0.984 . S
H700 N688 0.984 . S
H701 N688 0.985 . S
C702 C703 1.363 . S
C702 C708 1.379 . S
C702 N710 1.356 1_545 S
C703 C702 1.363 . S
C703 C709 1.363 . S
C704 C705 1.363 . S
C704 C709 1.379 . S
C704 N711 1.356 . S
C705 C704 1.363 . S
C705 C708 1.363 . S
N706 C708 1.356 . S
N706 H718 0.984 . S
N706 H719 0.985 . S
N707 C709 1.356 . S
N707 H712 0.984 . S
N707 H713 0.985 . S
C708 C702 1.379 . S
C708 C705 1.363 . S
C708 N706 1.356 . S
C709 C703 1.363 . S
C709 C704 1.379 . S
C709 N707 1.356 . S
N710 C702 1.356 1_565 S
N710 H716 0.984 . S
N710 H717 0.984 . S
N711 C704 1.356 . S
N711 H714 0.984 . S
N711 H715 0.985 . S
H712 N707 0.984 . S
H713 N707 0.985 . S
H714 N711 0.984 . S
H715 N711 0.985 . S
H716 N710 0.984 . S
H717 N710 0.984 . S
H718 N706 0.984 . S
H719 N706 0.985 . S
C720 C721 1.363 . S
C720 C726 1.379 . S
C720 N728 1.356 . S
C721 C720 1.363 . S
C721 C727 1.363 . S
C722 C723 1.363 . S
C722 C727 1.379 . S
C722 N729 1.356 . S
C723 C722 1.363 . S
C723 C726 1.363 . S
N724 C726 1.356 . S
N724 H736 0.984 . S
N724 H737 0.985 . S
N725 C727 1.356 1_545 S
N725 H730 0.984 . S
N725 H731 0.985 . S
C726 C720 1.379 . S
C726 C723 1.363 . S
C726 N724 1.356 . S
C727 C721 1.363 . S
C727 C722 1.379 . S
C727 N725 1.356 1_565 S
N728 C720 1.356 . S
N728 H734 0.984 . S
N728 H735 0.984 . S
N729 C722 1.356 . S
N729 H732 0.984 1_655 S
N729 H733 0.985 1_655 S
H730 N725 0.984 . S
H731 N725 0.985 . S
H732 N729 0.984 1_455 S
H733 N729 0.985 1_455 S
H734 N728 0.984 . S
H735 N728 0.984 . S
H736 N724 0.984 . S
H737 N724 0.985 . S
C738 C739 1.363 . S
C738 C744 1.379 . S
C738 N746 1.356 . S
C739 C738 1.363 . S
C739 C745 1.363 . S
C740 C741 1.363 . S
C740 C745 1.379 . S
C740 N747 1.356 . S
C741 C740 1.363 . S
C741 C744 1.363 . S
N742 C744 1.356 . S
N742 H754 0.984 . S
N742 H755 0.985 . S
N743 C745 1.356 . S
N743 H748 0.984 . S
N743 H749 0.985 . S
C744 C738 1.379 . S
C744 C741 1.363 . S
C744 N742 1.356 . S
C745 C739 1.363 . S
C745 C740 1.379 . S
C745 N743 1.356 . S
N746 C738 1.356 . S
N746 H752 0.984 . S
N746 H753 0.984 . S
N747 C740 1.356 . S
N747 H750 0.984 . S
N747 H751 0.985 . S
H748 N743 0.984 . S
H749 N743 0.985 . S
H750 N747 0.984 . S
H751 N747 0.985 . S
H752 N746 0.984 . S
H753 N746 0.984 . S
H754 N742 0.984 . S
H755 N742 0.985 . S
C756 C757 1.363 . S
C756 C762 1.379 . S
C756 N764 1.356 . S
C757 C756 1.363 . S
C757 C763 1.363 . S
C758 C759 1.363 . S
C758 C763 1.379 . S
C758 N765 1.356 . S
C759 C758 1.363 . S
C759 C762 1.363 . S
N760 C762 1.356 . S
N760 H772 0.984 . S
N760 H773 0.985 . S
N761 C763 1.356 . S
N761 H766 0.984 . S
N761 H767 0.985 . S
C762 C756 1.379 . S
C762 C759 1.363 . S
C762 N760 1.356 . S
C763 C757 1.363 . S
C763 C758 1.379 . S
C763 N761 1.356 . S
N764 C756 1.356 . S
N764 H770 0.984 . S
N764 H771 0.984 . S
N765 C758 1.356 . S
N765 H768 0.984 . S
N765 H769 0.985 . S
H766 N761 0.984 . S
H767 N761 0.985 . S
H768 N765 0.984 . S
H769 N765 0.985 . S
H770 N764 0.984 . S
H771 N764 0.984 . S
H772 N760 0.984 . S
H773 N760 0.985 . S
C774 C775 1.363 . S
C774 C780 1.379 . S
C774 N782 1.356 1_565 S
C775 C774 1.363 . S
C775 C781 1.363 . S
C776 C777 1.363 . S
C776 C781 1.379 . S
C776 N783 1.356 . S
C777 C776 1.363 . S
C777 C780 1.363 . S
N778 C780 1.356 . S
N778 H790 0.984 1_455 S
N778 H791 0.985 1_455 S
N779 C781 1.356 . S
N779 H784 0.984 . S
N779 H785 0.985 . S
C780 C774 1.379 . S
C780 C777 1.363 . S
C780 N778 1.356 . S
C781 C775 1.363 . S
C781 C776 1.379 . S
C781 N779 1.356 . S
N782 C774 1.356 1_545 S
N782 H788 0.984 . S
N782 H789 0.984 . S
N783 C776 1.356 . S
N783 H786 0.984 . S
N783 H787 0.985 . S
H784 N779 0.984 . S
H785 N779 0.985 . S
H786 N783 0.984 . S
H787 N783 0.985 . S
H788 N782 0.984 . S
H789 N782 0.984 . S
H790 N778 0.984 1_655 S
H791 N778 0.985 1_655 S
C792 C793 1.363 . S
C792 C798 1.379 . S
C792 N800 1.356 . S
C793 C792 1.363 . S
C793 C799 1.363 . S
C794 C795 1.363 . S
C794 C799 1.379 . S
C794 N801 1.356 . S
C795 C794 1.363 . S
C795 C798 1.363 . S
N796 C798 1.356 . S
N796 H808 0.984 . S
N796 H809 0.985 . S
N797 C799 1.356 . S
N797 H802 0.984 . S
N797 H803 0.985 . S
C798 C792 1.379 . S
C798 C795 1.363 . S
C798 N796 1.356 . S
C799 C793 1.363 . S
C799 C794 1.379 . S
C799 N797 1.356 . S
N800 C792 1.356 . S
N800 H806 0.984 . S
N800 H807 0.984 . S
N801 C794 1.356 . S
N801 H804 0.984 . S
N801 H805 0.985 . S
H802 N797 0.984 . S
H803 N797 0.985 . S
H804 N801 0.984 . S
H805 N801 0.985 . S
H806 N800 0.984 . S
H807 N800 0.984 . S
H808 N796 0.984 . S
H809 N796 0.985 . S
C810 C811 1.363 . S
C810 C816 1.379 . S
C810 N818 1.356 . S
C811 C810 1.363 . S
C811 C817 1.363 . S
C812 C813 1.363 . S
C812 C817 1.379 . S
C812 N819 1.356 . S
C813 C812 1.363 . S
C813 C816 1.363 . S
N814 C816 1.356 . S
N814 H826 0.984 . S
N814 H827 0.985 . S
N815 C817 1.356 . S
N815 H820 0.984 . S
N815 H821 0.985 . S
C816 C810 1.379 . S
C816 C813 1.363 . S
C816 N814 1.356 . S
C817 C811 1.363 . S
C817 C812 1.379 . S
C817 N815 1.356 . S
N818 C810 1.356 . S
N818 H824 0.984 . S
N818 H825 0.984 . S
N819 C812 1.356 . S
N819 H822 0.984 . S
N819 H823 0.985 . S
H820 N815 0.984 . S
H821 N815 0.985 . S
H822 N819 0.984 . S
H823 N819 0.985 . S
H824 N818 0.984 . S
H825 N818 0.984 . S
H826 N814 0.984 . S
H827 N814 0.985 . S
C828 C829 1.363 . S
C828 C834 1.379 . S
C828 N836 1.356 . S
C829 C828 1.363 . S
C829 C835 1.363 . S
C830 C831 1.363 . S
C830 C835 1.379 . S
C830 N837 1.356 . S
C831 C830 1.363 . S
C831 C834 1.363 . S
N832 C834 1.356 . S
N832 H844 0.984 . S
N832 H845 0.985 . S
N833 C835 1.356 . S
N833 H838 0.984 . S
N833 H839 0.985 . S
C834 C828 1.379 . S
C834 C831 1.363 . S
C834 N832 1.356 . S
C835 C829 1.363 . S
C835 C830 1.379 . S
C835 N833 1.356 . S
N836 C828 1.356 . S
N836 H842 0.984 . S
N836 H843 0.984 . S
N837 C830 1.356 . S
N837 H840 0.984 . S
N837 H841 0.985 . S
H838 N833 0.984 . S
H839 N833 0.985 . S
H840 N837 0.984 . S
H841 N837 0.985 . S
H842 N836 0.984 . S
H843 N836 0.984 . S
H844 N832 0.984 . S
H845 N832 0.985 . S
C846 C847 1.363 . S
C846 C852 1.379 . S
C846 N854 1.356 . S
C847 C846 1.363 . S
C847 C853 1.363 . S
C848 C849 1.363 . S
C848 C853 1.379 . S
C848 N855 1.356 . S
C849 C848 1.363 . S
C849 C852 1.363 . S
N850 C852 1.356 . S
N850 H862 0.984 . S
N850 H863 0.985 . S
N851 C853 1.356 . S
N851 H856 0.984 . S
N851 H857 0.985 . S
C852 C846 1.379 . S
C852 C849 1.363 . S
C852 N850 1.356 . S
C853 C847 1.363 . S
C853 C848 1.379 . S
C853 N851 1.356 . S
N854 C846 1.356 . S
N854 H860 0.984 . S
N854 H861 0.984 . S
N855 C848 1.356 . S
N855 H858 0.984 . S
N855 H859 0.985 . S
H856 N851 0.984 . S
H857 N851 0.985 . S
H858 N855 0.984 . S
H859 N855 0.985 . S
H860 N854 0.984 . S
H861 N854 0.984 . S
H862 N850 0.984 . S
H863 N850 0.985 . S
C864 C865 1.363 . S
C864 C870 1.379 . S
C864 N872 1.356 . S
C865 C864 1.363 . S
C865 C871 1.363 . S
C866 C867 1.363 . S
C866 C871 1.379 . S
C866 N873 1.356 . S
C867 C866 1.363 . S
C867 C870 1.363 . S
N868 C870 1.356 . S
N868 H880 0.984 . S
N868 H881 0.985 . S
N869 C871 1.356 . S
N869 H874 0.984 . S
N869 H875 0.985 . S
C870 C864 1.379 . S
C870 C867 1.363 . S
C870 N868 1.356 . S
C871 C865 1.363 . S
C871 C866 1.379 . S
C871 N869 1.356 . S
N872 C864 1.356 . S
N872 H878 0.984 . S
N872 H879 0.984 . S
N873 C866 1.356 . S
N873 H876 0.984 . S
N873 H877 0.985 . S
H874 N869 0.984 . S
H875 N869 0.985 . S
H876 N873 0.984 . S
H877 N873 0.985 . S
H878 N872 0.984 . S
H879 N872 0.984 . S
H880 N868 0.984 . S
H881 N868 0.985 . S
C882 C883 1.363 . S
C882 C888 1.379 . S
C882 N890 1.356 . S
C883 C882 1.363 . S
C883 C889 1.363 . S
C884 C885 1.363 . S
C884 C889 1.379 . S
C884 N891 1.356 . S
C885 C884 1.363 . S
C885 C888 1.363 . S
N886 C888 1.356 . S
N886 H898 0.984 . S
N886 H899 0.985 . S
N887 C889 1.356 . S
N887 H892 0.984 . S
N887 H893 0.985 . S
C888 C882 1.379 . S
C888 C885 1.363 . S
C888 N886 1.356 . S
C889 C883 1.363 . S
C889 C884 1.379 . S
C889 N887 1.356 . S
N890 C882 1.356 . S
N890 H896 0.984 . S
N890 H897 0.984 . S
N891 C884 1.356 . S
N891 H894 0.984 . S
N891 H895 0.985 . S
H892 N887 0.984 . S
H893 N887 0.985 . S
H894 N891 0.984 . S
H895 N891 0.985 . S
H896 N890 0.984 . S
H897 N890 0.984 . S
H898 N886 0.984 . S
H899 N886 0.985 . S
C900 C901 1.363 . S
C900 C906 1.379 . S
C900 N908 1.356 . S
C901 C900 1.363 . S
C901 C907 1.363 . S
C902 C903 1.363 . S
C902 C907 1.379 . S
C902 N909 1.356 . S
C903 C902 1.363 . S
C903 C906 1.363 . S
N904 C906 1.356 . S
N904 H916 0.984 . S
N904 H917 0.985 . S
N905 C907 1.356 . S
N905 H910 0.984 1_554 S
N905 H911 0.985 . S
C906 C900 1.379 . S
C906 C903 1.363 . S
C906 N904 1.356 . S
C907 C901 1.363 . S
C907 C902 1.379 . S
C907 N905 1.356 . S
N908 C900 1.356 . S
N908 H914 0.984 . S
N908 H915 0.984 . S
N909 C902 1.356 . S
N909 H912 0.984 . S
N909 H913 0.985 . S
H910 N905 0.984 1_556 S
H911 N905 0.985 . S
H912 N909 0.984 . S
H913 N909 0.985 . S
H914 N908 0.984 . S
H915 N908 0.984 . S
H916 N904 0.984 . S
H917 N904 0.985 . S
C918 C919 1.363 . S
C918 C924 1.379 . S
C918 N926 1.356 . S
C919 C918 1.363 . S
C919 C925 1.363 . S
C920 C921 1.363 . S
C920 C925 1.379 . S
C920 N927 1.356 . S
C921 C920 1.363 . S
C921 C924 1.363 . S
N922 C924 1.356 . S
N922 H934 0.984 . S
N922 H935 0.985 . S
N923 C925 1.356 . S
N923 H928 0.984 . S
N923 H929 0.985 . S
C924 C918 1.379 . S
C924 C921 1.363 . S
C924 N922 1.356 . S
C925 C919 1.363 . S
C925 C920 1.379 . S
C925 N923 1.356 . S
N926 C918 1.356 . S
N926 H932 0.984 . S
N926 H933 0.984 . S
N927 C920 1.356 . S
N927 H930 0.984 . S
N927 H931 0.985 . S
H928 N923 0.984 . S
H929 N923 0.985 . S
H930 N927 0.984 . S
H931 N927 0.985 . S
H932 N926 0.984 . S
H933 N926 0.984 . S
H934 N922 0.984 . S
H935 N922 0.985 . S
C936 C937 1.363 . S
C936 C942 1.379 . S
C936 N944 1.356 . S
C937 C936 1.363 . S
C937 C943 1.363 . S
C938 C939 1.363 . S
C938 C943 1.379 . S
C938 N945 1.356 . S
C939 C938 1.363 . S
C939 C942 1.363 . S
N940 C942 1.356 . S
N940 H952 0.984 . S
N940 H953 0.985 . S
N941 C943 1.356 . S
N941 H946 0.984 . S
N941 H947 0.985 . S
C942 C936 1.379 . S
C942 C939 1.363 . S
C942 N940 1.356 . S
C943 C937 1.363 . S
C943 C938 1.379 . S
C943 N941 1.356 . S
N944 C936 1.356 . S
N944 H950 0.984 . S
N944 H951 0.984 . S
N945 C938 1.356 . S
N945 H948 0.984 . S
N945 H949 0.985 . S
H946 N941 0.984 . S
H947 N941 0.985 . S
H948 N945 0.984 . S
H949 N945 0.985 . S
H950 N944 0.984 . S
H951 N944 0.984 . S
H952 N940 0.984 . S
H953 N940 0.985 . S
C954 C955 1.363 . S
C954 C960 1.379 . S
C954 N962 1.356 . S
C955 C954 1.363 . S
C955 C961 1.363 . S
C956 C957 1.363 . S
C956 C961 1.379 . S
C956 N963 1.356 . S
C957 C956 1.363 . S
C957 C960 1.363 . S
N958 C960 1.356 . S
N958 H970 0.984 . S
N958 H971 0.985 . S
N959 C961 1.356 . S
N959 H964 0.984 . S
N959 H965 0.985 . S
C960 C954 1.379 . S
C960 C957 1.363 . S
C960 N958 1.356 . S
C961 C955 1.363 . S
C961 C956 1.379 . S
C961 N959 1.356 . S
N962 C954 1.356 . S
N962 H968 0.984 . S
N962 H969 0.984 . S
N963 C956 1.356 . S
N963 H966 0.984 . S
N963 H967 0.985 . S
H964 N959 0.984 . S
H965 N959 0.985 . S
H966 N963 0.984 . S
H967 N963 0.985 . S
H968 N962 0.984 . S
H969 N962 0.984 . S
H970 N958 0.984 . S
H971 N958 0.985 . S
C972 C973 1.363 . S
C972 C978 1.379 . S
C972 N980 1.356 . S
C973 C972 1.363 . S
C973 C979 1.363 . S
C974 C975 1.363 . S
C974 C979 1.379 . S
C974 N981 1.356 . S
C975 C974 1.363 . S
C975 C978 1.363 . S
N976 C978 1.356 . S
N976 H988 0.984 . S
N976 H989 0.985 . S
N977 C979 1.356 . S
N977 H982 0.984 . S
N977 H983 0.985 . S
C978 C972 1.379 . S
C978 C975 1.363 . S
C978 N976 1.356 . S
C979 C973 1.363 . S
C979 C974 1.379 . S
C979 N977 1.356 . S
N980 C972 1.356 . S
N980 H986 0.984 . S
N980 H987 0.984 . S
N981 C974 1.356 . S
N981 H984 0.984 . S
N981 H985 0.985 . S
H982 N977 0.984 . S
H983 N977 0.985 . S
H984 N981 0.984 . S
H985 N981 0.985 . S
H986 N980 0.984 . S
H987 N980 0.984 . S
H988 N976 0.984 . S
H989 N976 0.985 . S
C990 C991 1.363 . S
C990 C996 1.379 . S
C990 N998 1.356 . S
C991 C990 1.363 . S
C991 C997 1.363 . S
C992 C993 1.363 . S
C992 C997 1.379 . S
C992 N999 1.356 . S
C993 C992 1.363 . S
C993 C996 1.363 . S
N994 C996 1.356 . S
N994 H1006 0.984 . S
N994 H1007 0.985 . S
N995 C997 1.356 . S
N995 H1000 0.984 . S
N995 H1001 0.985 . S
C996 C990 1.379 . S
C996 C993 1.363 . S
C996 N994 1.356 . S
C997 C991 1.363 . S
C997 C992 1.379 . S
C997 N995 1.356 . S
N998 C990 1.356 . S
N998 H1004 0.984 . S
N998 H1005 0.984 . S
N999 C992 1.356 . S
N999 H1002 0.984 . S
N999 H1003 0.985 . S
H1000 N995 0.984 . S
H1001 N995 0.985 . S
H1002 N999 0.984 . S
H1003 N999 0.985 . S
H1004 N998 0.984 . S
H1005 N998 0.984 . S
H1006 N994 0.984 . S
H1007 N994 0.985 . S
C1008 C1009 1.363 . S
C1008 C1014 1.379 . S
C1008 N1016 1.356 . S
C1009 C1008 1.363 . S
C1009 C1015 1.363 . S
C1010 C1011 1.363 . S
C1010 C1015 1.379 . S
C1010 N1017 1.356 . S
C1011 C1010 1.363 . S
C1011 C1014 1.363 . S
N1012 C1014 1.356 . S
N1012 H1024 0.984 . S
N1012 H1025 0.985 . S
N1013 C1015 1.356 . S
N1013 H1018 0.984 . S
N1013 H1019 0.985 . S
C1014 C1008 1.379 . S
C1014 C1011 1.363 . S
C1014 N1012 1.356 . S
C1015 C1009 1.363 . S
C1015 C1010 1.379 . S
C1015 N1013 1.356 . S
N1016 C1008 1.356 . S
N1016 H1022 0.984 . S
N1016 H1023 0.984 . S
N1017 C1010 1.356 . S
N1017 H1020 0.984 . S
N1017 H1021 0.985 . S
H1018 N1013 0.984 . S
H1019 N1013 0.985 . S
H1020 N1017 0.984 . S
H1021 N1017 0.985 . S
H1022 N1016 0.984 . S
H1023 N1016 0.984 . S
H1024 N1012 0.984 . S
H1025 N1012 0.985 . S
C1026 C1027 1.363 . S
C1026 C1032 1.379 . S
C1026 N1034 1.356 . S
C1027 C1026 1.363 . S
C1027 C1033 1.363 . S
C1028 C1029 1.363 . S
C1028 C1033 1.379 . S
C1028 N1035 1.356 . S
C1029 C1028 1.363 . S
C1029 C1032 1.363 . S
N1030 C1032 1.356 . S
N1030 H1042 0.984 . S
N1030 H1043 0.985 . S
N1031 C1033 1.356 . S
N1031 H1036 0.984 . S
N1031 H1037 0.985 . S
C1032 C1026 1.379 . S
C1032 C1029 1.363 . S
C1032 N1030 1.356 . S
C1033 C1027 1.363 . S
C1033 C1028 1.379 . S
C1033 N1031 1.356 . S
N1034 C1026 1.356 . S
N1034 H1040 0.984 . S
N1034 H1041 0.984 . S
N1035 C1028 1.356 . S
N1035 H1038 0.984 . S
N1035 H1039 0.985 . S
H1036 N1031 0.984 . S
H1037 N1031 0.985 . S
H1038 N1035 0.984 . S
H1039 N1035 0.985 . S
H1040 N1034 0.984 . S
H1041 N1034 0.984 . S
H1042 N1030 0.984 . S
H1043 N1030 0.985 . S
C1044 C1045 1.363 . S
C1044 C1050 1.379 . S
C1044 N1052 1.356 . S
C1045 C1044 1.363 . S
C1045 C1051 1.363 . S
C1046 C1047 1.363 . S
C1046 C1051 1.379 . S
C1046 N1053 1.356 . S
C1047 C1046 1.363 . S
C1047 C1050 1.363 . S
N1048 C1050 1.356 . S
N1048 H1060 0.984 . S
N1048 H1061 0.985 . S
N1049 C1051 1.356 . S
N1049 H1054 0.984 . S
N1049 H1055 0.985 . S
C1050 C1044 1.379 . S
C1050 C1047 1.363 . S
C1050 N1048 1.356 . S
C1051 C1045 1.363 . S
C1051 C1046 1.379 . S
C1051 N1049 1.356 . S
N1052 C1044 1.356 . S
N1052 H1058 0.984 . S
N1052 H1059 0.984 . S
N1053 C1046 1.356 . S
N1053 H1056 0.984 . S
N1053 H1057 0.985 . S
H1054 N1049 0.984 . S
H1055 N1049 0.985 . S
H1056 N1053 0.984 . S
H1057 N1053 0.985 . S
H1058 N1052 0.984 . S
H1059 N1052 0.984 . S
H1060 N1048 0.984 . S
H1061 N1048 0.985 . S
C1062 C1063 1.363 . S
C1062 C1068 1.379 . S
C1062 N1070 1.356 . S
C1063 C1062 1.363 . S
C1063 C1069 1.363 . S
C1064 C1065 1.363 . S
C1064 C1069 1.379 . S
C1064 N1071 1.356 . S
C1065 C1064 1.363 . S
C1065 C1068 1.363 . S
N1066 C1068 1.356 . S
N1066 H1078 0.984 . S
N1066 H1079 0.985 . S
N1067 C1069 1.356 . S
N1067 H1072 0.984 . S
N1067 H1073 0.985 . S
C1068 C1062 1.379 . S
C1068 C1065 1.363 . S
C1068 N1066 1.356 . S
C1069 C1063 1.363 . S
C1069 C1064 1.379 . S
C1069 N1067 1.356 . S
N1070 C1062 1.356 . S
N1070 H1076 0.984 . S
N1070 H1077 0.984 . S
N1071 C1064 1.356 . S
N1071 H1074 0.984 . S
N1071 H1075 0.983 1_455 S
H1072 N1067 0.984 . S
H1073 N1067 0.985 . S
H1074 N1071 0.984 . S
H1075 N1071 0.983 1_655 S
H1076 N1070 0.984 . S
H1077 N1070 0.984 . S
H1078 N1066 0.984 . S
H1079 N1066 0.985 . S
C649 C235 1.486 1_545 S
C651 C386 1.476 . S
C669 C470 1.474 . S
C667 C289 1.484 . S
C687 C463 1.483 . S
C685 C157 1.482 . S
C703 C211 1.480 1_545 S
C705 C379 1.481 . S
C723 C543 1.475 . S
C721 C79 1.488 1_565 S
C741 C627 1.477 . S
C739 C118 1.490 . S
C757 C1 1.484 . S
C759 C620 1.482 . S
C775 C40 1.487 1_565 S
C777 C536 1.485 . S
C795 C370 1.318 . S
C793 C55 1.518 . S
C813 C454 1.319 . S
C811 C16 1.519 . S
C831 C465 1.399 . S
C829 C133 1.534 . S
C849 C381 1.399 . S
C847 C94 1.534 . S
C867 C549 1.323 . S
C865 C196 1.526 . S
C883 C172 1.524 . S
C885 C633 1.322 . S
C903 C622 1.401 . S
C901 C274 1.540 . S
C919 C250 1.539 . S
C921 C538 1.401 . S
C939 C368 1.576 . S
C937 C21 1.571 . S
C957 C452 1.579 . S
C955 C60 1.574 . S
C973 C99 1.559 . S
C975 C459 1.560 . S
C993 C375 1.563 . S
C991 C138 1.562 . S
C1011 C547 1.583 . S
C1009 C177 1.571 . S
C1027 C216 1.572 . S
C1029 C631 1.582 . S
C1045 C255 1.560 . S
C1047 C638 1.567 . S
C1063 C294 1.560 . S
C1065 C554 1.567 . S
