# Generated by pormake.
# Topology pto, (3,4)-cn, num edge types: 1
# Building blocks:
#     Node 0, Type 0, BuildingBlock: VETTIZ_charged_linker_0, # of connection points: 3
#     Node 1, Type 0, BuildingBlock: VETTIZ_charged_linker_0, # of connection points: 3
#     Node 2, Type 0, BuildingBlock: VETTIZ_charged_linker_0, # of connection points: 3
#     Node 3, Type 0, BuildingBlock: VETTIZ_charged_linker_0, # of connection points: 3
#     Node 4, Type 0, BuildingBlock: VETTIZ_charged_linker_0, # of connection points: 3
#     Node 5, Type 0, BuildingBlock: VETTIZ_charged_linker_0, # of connection points: 3
#     Node 6, Type 0, BuildingBlock: VETTIZ_charged_linker_0, # of connection points: 3
#     Node 7, Type 0, BuildingBlock: VETTIZ_charged_linker_0, # of connection points: 3
#     Node 8, Type 1, BuildingBlock: KOZSID_clean_sbu_0, # of connection points: 4
#     Node 9, Type 1, BuildingBlock: KOZSID_clean_sbu_0, # of connection points: 4
#     Node 10, Type 1, BuildingBlock: KOZSID_clean_sbu_0, # of connection points: 4
#     Node 11, Type 1, BuildingBlock: KOZSID_clean_sbu_0, # of connection points: 4
#     Node 12, Type 1, BuildingBlock: KOZSID_clean_sbu_0, # of connection points: 4
#     Node 13, Type 1, BuildingBlock: KOZSID_clean_sbu_0, # of connection points: 4
#     Edge 14, Type (0, 1), BuildingBlock: MIFKUJ_clean_linker_0, # of connection points: 2
#     Edge 15, Type (0, 1), BuildingBlock: MIFKUJ_clean_linker_0, # of connection points: 2
#     Edge 16, Type (0, 1), BuildingBlock: MIFKUJ_clean_linker_0, # of connection points: 2
#     Edge 17, Type (0, 1), BuildingBlock: MIFKUJ_clean_linker_0, # of connection points: 2
#     Edge 18, Type (0, 1), BuildingBlock: MIFKUJ_clean_linker_0, # of connection points: 2
#     Edge 19, Type (0, 1), BuildingBlock: MIFKUJ_clean_linker_0, # of connection points: 2
#     Edge 20, Type (0, 1), BuildingBlock: MIFKUJ_clean_linker_0, # of connection points: 2
#     Edge 21, Type (0, 1), BuildingBlock: MIFKUJ_clean_linker_0, # of connection points: 2
#     Edge 22, Type (0, 1), BuildingBlock: MIFKUJ_clean_linker_0, # of connection points: 2
#     Edge 23, Type (0, 1), BuildingBlock: MIFKUJ_clean_linker_0, # of connection points: 2
#     Edge 24, Type (0, 1), BuildingBlock: MIFKUJ_clean_linker_0, # of connection points: 2
#     Edge 25, Type (0, 1), BuildingBlock: MIFKUJ_clean_linker_0, # of connection points: 2
#     Edge 26, Type (0, 1), BuildingBlock: MIFKUJ_clean_linker_0, # of connection points: 2
#     Edge 27, Type (0, 1), BuildingBlock: MIFKUJ_clean_linker_0, # of connection points: 2
#     Edge 28, Type (0, 1), BuildingBlock: MIFKUJ_clean_linker_0, # of connection points: 2
#     Edge 29, Type (0, 1), BuildingBlock: MIFKUJ_clean_linker_0, # of connection points: 2
#     Edge 30, Type (0, 1), BuildingBlock: MIFKUJ_clean_linker_0, # of connection points: 2
#     Edge 31, Type (0, 1), BuildingBlock: MIFKUJ_clean_linker_0, # of connection points: 2
#     Edge 32, Type (0, 1), BuildingBlock: MIFKUJ_clean_linker_0, # of connection points: 2
#     Edge 33, Type (0, 1), BuildingBlock: MIFKUJ_clean_linker_0, # of connection points: 2
#     Edge 34, Type (0, 1), BuildingBlock: MIFKUJ_clean_linker_0, # of connection points: 2
#     Edge 35, Type (0, 1), BuildingBlock: MIFKUJ_clean_linker_0, # of connection points: 2
#     Edge 36, Type (0, 1), BuildingBlock: MIFKUJ_clean_linker_0, # of connection points: 2
#     Edge 37, Type (0, 1), BuildingBlock: MIFKUJ_clean_linker_0, # of connection points: 2
# Relax obj value: 0.000
# Max RMSD: 0.018
# Mean RMSD: 0.008
data_MOF--net-pto--node1-KOZSID_clean_sbu_0--node2-VETTIZ_charged_linker_0--edge1-MIFKUJ_clean_linker_0
_symmetry_space_group_name_H-M    P1
_symmetry_Int_Tables_number       1
_symmetry_cell_setting            triclinic
loop_
_symmetry_equiv_pos_as_xyz
'x, y, z'
_cell_length_a     57.205101
_cell_length_b     77.215598
_cell_length_c     67.362062
_cell_angle_alpha  88.133048
_cell_angle_beta   87.829153
_cell_angle_gamma 92.074785
loop_
_atom_site_label
_atom_site_type_symbol
_atom_site_fract_x
_atom_site_fract_y
_atom_site_fract_z
_atom_type_partial_charge
C0 C 0.24643 0.20419 0.35122 0.0
C1 C 0.25972 0.18933 0.34903 0.0
C2 C 0.27771 0.18951 0.33412 0.0
C3 C 0.2689 0.21886 0.32388 0.0
C4 C 0.2514 0.21878 0.33861 0.0
C5 C 0.23932 0.23578 0.33916 0.0
H6 H 0.23067 0.31819 0.30276 0.0
C7 C 0.26955 0.23596 0.3133 0.0
C8 C 0.25236 0.246 0.32226 0.0
H9 H 0.18866 0.29202 0.35005 0.0
H10 H 0.21029 0.26595 0.34579 0.0
H11 H 0.22781 0.28784 0.27413 0.0
H12 H 0.28164 0.30213 0.31403 0.0
H13 H 0.29499 0.29767 0.29083 0.0
H14 H 0.27475 0.31493 0.29244 0.0
H15 H 0.24942 0.30466 0.26758 0.0
H16 H 0.2543 0.28221 0.26257 0.0
C17 C 0.21319 0.23236 0.33479 0.0
C18 C 0.24353 0.2438 0.35956 0.0
C19 C 0.32603 0.2477 0.25386 0.0
C20 C 0.32982 0.26192 0.24033 0.0
C21 C 0.31696 0.27696 0.24331 0.0
C22 C 0.30063 0.27777 0.25928 0.0
C23 C 0.29682 0.26336 0.27242 0.0
C24 C 0.30942 0.24866 0.26958 0.0
C25 C 0.30256 0.2344 0.28467 0.0
C26 C 0.28357 0.24291 0.29687 0.0
C27 C 0.28041 0.25991 0.28971 0.0
C28 C 0.29275 0.21869 0.27342 0.0
C29 C 0.32418 0.23056 0.29706 0.0
C30 C 0.2264 0.30689 0.31235 0.0
C31 C 0.20818 0.30714 0.32691 0.0
C32 C 0.20266 0.29207 0.33876 0.0
C33 C 0.21527 0.27699 0.33627 0.0
C34 C 0.23345 0.2769 0.32162 0.0
C35 C 0.2386 0.29165 0.30984 0.0
C36 C 0.25752 0.28889 0.29428 0.0
C37 C 0.26336 0.27022 0.299 0.0
C38 C 0.24931 0.26327 0.31511 0.0
C39 C 0.24694 0.2911 0.27351 0.0
C40 C 0.27837 0.3016 0.29788 0.0
H41 H 0.29621 0.20339 0.31049 0.0
H42 H 0.23267 0.20455 0.36269 0.0
H43 H 0.26165 0.24155 0.36425 0.0
H44 H 0.24201 0.258 0.35932 0.0
H45 H 0.23124 0.23791 0.37126 0.0
H46 H 0.21114 0.22188 0.32396 0.0
H47 H 0.20285 0.22828 0.34854 0.0
H48 H 0.20515 0.24369 0.32777 0.0
H49 H 0.33572 0.23601 0.25228 0.0
H50 H 0.31909 0.28802 0.23303 0.0
H51 H 0.2914 0.28954 0.26062 0.0
H52 H 0.28232 0.22309 0.26071 0.0
H53 H 0.30713 0.21087 0.26736 0.0
H54 H 0.28056 0.21014 0.28267 0.0
H55 H 0.33518 0.24255 0.29884 0.0
H56 H 0.31941 0.22589 0.31241 0.0
H57 H 0.33535 0.22096 0.28977 0.0
H58 H 0.28805 0.17819 0.33199 0.0
C59 C 0.28235 0.20414 0.32157 0.0
C60 C 0.21476 0.7096 0.72597 0.0
C61 C 0.19912 0.70763 0.71051 0.0
C62 C 0.19709 0.72148 0.69657 0.0
C63 C 0.22568 0.73882 0.7137 0.0
C64 C 0.22776 0.72522 0.72728 0.0
C65 C 0.24482 0.72947 0.74301 0.0
H66 H 0.31784 0.78787 0.78411 0.0
C67 C 0.24133 0.75332 0.71951 0.0
C68 C 0.25259 0.7479 0.73668 0.0
H69 H 0.3018 0.73456 0.80327 0.0
H70 H 0.27649 0.73107 0.7759 0.0
H71 H 0.26561 0.79739 0.77208 0.0
H72 H 0.3248 0.77958 0.73815 0.0
H73 H 0.3111 0.79467 0.72288 0.0
H74 H 0.3233 0.80157 0.74578 0.0
H75 H 0.29165 0.81062 0.76656 0.0
H76 H 0.2681 0.80963 0.74957 0.0
C77 C 0.23127 0.72865 0.76341 0.0
C78 C 0.26521 0.71684 0.74138 0.0
C79 C 0.24544 0.8101 0.67883 0.0
C80 C 0.25813 0.82589 0.68067 0.0
C81 C 0.27337 0.82756 0.69655 0.0
C82 C 0.27583 0.81384 0.71037 0.0
C83 C 0.26296 0.79819 0.70837 0.0
C84 C 0.24813 0.7965 0.69276 0.0
C85 C 0.23589 0.77891 0.69297 0.0
C86 C 0.24593 0.7703 0.7112 0.0
C87 C 0.26171 0.78169 0.7202 0.0
C88 C 0.20922 0.78139 0.69572 0.0
C89 C 0.24328 0.76988 0.67363 0.0
C90 C 0.30905 0.77539 0.78235 0.0
C91 C 0.31173 0.76155 0.79614 0.0
C92 C 0.29973 0.74559 0.79323 0.0
C93 C 0.28512 0.74352 0.77719 0.0
C94 C 0.28244 0.75752 0.76372 0.0
C95 C 0.29448 0.77306 0.7663 0.0
C96 C 0.28995 0.78634 0.75017 0.0
C97 C 0.27298 0.77626 0.73767 0.0
C98 C 0.26855 0.75942 0.74576 0.0
C99 C 0.27835 0.80193 0.75996 0.0
C100 C 0.31343 0.79097 0.73864 0.0
H101 H 0.2079 0.74705 0.687 0.0
H102 H 0.21655 0.69933 0.73708 0.0
H103 H 0.2686 0.71321 0.7257 0.0
H104 H 0.28204 0.72264 0.74592 0.0
H105 H 0.26117 0.70468 0.75032 0.0
H106 H 0.21354 0.73393 0.76204 0.0
H107 H 0.229 0.71507 0.76933 0.0
H108 H 0.2397 0.7366 0.77464 0.0
H109 H 0.23338 0.8084 0.66698 0.0
H110 H 0.28365 0.83945 0.69818 0.0
H111 H 0.28769 0.81596 0.72208 0.0
H112 H 0.20563 0.79229 0.70567 0.0
H113 H 0.20129 0.78439 0.68127 0.0
H114 H 0.19975 0.77004 0.70299 0.0
H115 H 0.26196 0.77308 0.66939 0.0
H116 H 0.2421 0.7556 0.67517 0.0
H117 H 0.2326 0.77413 0.66105 0.0
H118 H 0.18539 0.72025 0.68438 0.0
C119 C 0.21027 0.73702 0.69807 0.0
C120 C 0.8213 0.71563 0.32168 0.0
C121 C 0.82279 0.70191 0.30843 0.0
C122 C 0.81034 0.70293 0.29074 0.0
C123 C 0.79502 0.73052 0.29997 0.0
C124 C 0.80755 0.72977 0.31709 0.0
C125 C 0.80471 0.74565 0.32923 0.0
H126 H 0.75922 0.82483 0.33913 0.0
C127 C 0.78227 0.74684 0.29973 0.0
C128 C 0.788 0.75584 0.31678 0.0
H129 H 0.80569 0.79862 0.37841 0.0
H130 H 0.80526 0.77387 0.35754 0.0
H131 H 0.72531 0.79266 0.33506 0.0
H132 H 0.78273 0.81303 0.29727 0.0
H133 H 0.7587 0.80838 0.28242 0.0
H134 H 0.75589 0.82395 0.30155 0.0
H135 H 0.72165 0.81011 0.31738 0.0
H136 H 0.71802 0.78769 0.31078 0.0
C137 C 0.79346 0.7399 0.34978 0.0
C138 C 0.829 0.75509 0.33011 0.0
C139 C 0.72732 0.75999 0.24396 0.0
C140 C 0.71178 0.77339 0.2407 0.0
C141 C 0.71057 0.78688 0.25421 0.0
C142 C 0.72475 0.78712 0.27072 0.0
C143 C 0.74013 0.7736 0.27391 0.0
C144 C 0.74106 0.76025 0.26075 0.0
C145 C 0.75751 0.74652 0.26712 0.0
C146 C 0.76631 0.75387 0.28624 0.0
C147 C 0.75629 0.76982 0.28998 0.0
C148 C 0.74303 0.72931 0.27098 0.0
C149 C 0.77737 0.74571 0.25093 0.0
C150 C 0.76916 0.81373 0.34341 0.0
C151 C 0.78272 0.81389 0.36043 0.0
C152 C 0.7955 0.79911 0.3652 0.0
C153 C 0.79513 0.78466 0.35309 0.0
C154 C 0.78179 0.78487 0.336 0.0
C155 C 0.76886 0.79916 0.33157 0.0
C156 C 0.75508 0.7969 0.31319 0.0
C157 C 0.76254 0.77916 0.30692 0.0
C158 C 0.77822 0.77217 0.3203 0.0
C159 C 0.72863 0.79694 0.31924 0.0
C160 C 0.76331 0.81134 0.29772 0.0
H161 H 0.78747 0.717 0.27281 0.0
H162 H 0.83045 0.71535 0.33545 0.0
H163 H 0.83938 0.75386 0.31595 0.0
H164 H 0.82789 0.76919 0.33194 0.0
H165 H 0.83927 0.74951 0.34229 0.0
H166 H 0.78009 0.72925 0.34826 0.0
H167 H 0.80683 0.73507 0.35992 0.0
H168 H 0.78398 0.75033 0.35704 0.0
H169 H 0.72832 0.74934 0.23392 0.0
H170 H 0.69873 0.79734 0.25189 0.0
H171 H 0.72314 0.79781 0.28039 0.0
H172 H 0.72557 0.73176 0.27796 0.0
H173 H 0.7401 0.72263 0.25688 0.0
H174 H 0.75113 0.72028 0.28149 0.0
H175 H 0.78168 0.75878 0.24403 0.0
H176 H 0.79401 0.74144 0.25692 0.0
H177 H 0.7722 0.73704 0.23888 0.0
H178 H 0.81153 0.69288 0.27995 0.0
C179 C 0.79647 0.71707 0.2865 0.0
C180 C 0.7276 0.2676 0.80408 0.0
C181 C 0.71318 0.25296 0.80962 0.0
C182 C 0.71359 0.23838 0.79756 0.0
C183 C 0.74244 0.25308 0.77499 0.0
C184 C 0.74196 0.26739 0.78678 0.0
C185 C 0.75816 0.28194 0.77872 0.0
H186 H 0.83839 0.31281 0.70866 0.0
C187 C 0.75919 0.25711 0.75805 0.0
C188 C 0.7684 0.27403 0.76013 0.0
H189 H 0.81158 0.33852 0.7604 0.0
H190 H 0.7866 0.31352 0.76945 0.0
H191 H 0.78881 0.29716 0.69594 0.0
H192 H 0.843 0.2753 0.73046 0.0
H193 H 0.83339 0.25951 0.7141 0.0
H194 H 0.84636 0.27972 0.70416 0.0
H195 H 0.81554 0.29008 0.68462 0.0
H196 H 0.79057 0.27538 0.68955 0.0
C197 C 0.74322 0.29774 0.77371 0.0
C198 C 0.77698 0.28537 0.79423 0.0
C199 C 0.77461 0.21174 0.70657 0.0
C200 C 0.78872 0.21179 0.68897 0.0
C201 C 0.80197 0.22703 0.68318 0.0
C202 C 0.80138 0.24179 0.69474 0.0
C203 C 0.78731 0.24145 0.71232 0.0
C204 C 0.77407 0.22664 0.71787 0.0
C205 C 0.75963 0.22881 0.7367 0.0
C206 C 0.76661 0.24728 0.74165 0.0
C207 C 0.78294 0.25458 0.72738 0.0
C208 C 0.73342 0.2269 0.73178 0.0
C209 C 0.76754 0.2155 0.75255 0.0
C210 C 0.82699 0.3131 0.72184 0.0
C211 C 0.82711 0.32766 0.73388 0.0
C212 C 0.81215 0.3274 0.75104 0.0
C213 C 0.79753 0.31288 0.75622 0.0
C214 C 0.7978 0.29837 0.74417 0.0
C215 C 0.8123 0.29866 0.72727 0.0
C216 C 0.81027 0.28203 0.7163 0.0
C217 C 0.79228 0.2717 0.72947 0.0
C218 C 0.78504 0.28135 0.74576 0.0
C219 C 0.80098 0.28625 0.69544 0.0
C220 C 0.83448 0.27364 0.71603 0.0
H221 H 0.72771 0.22682 0.77186 0.0
H222 H 0.7275 0.2791 0.81286 0.0
H223 H 0.78166 0.27308 0.80192 0.0
H224 H 0.79368 0.29079 0.7875 0.0
H225 H 0.77056 0.2942 0.80576 0.0
H226 H 0.72604 0.29347 0.76796 0.0
H227 H 0.73968 0.3054 0.7871 0.0
H228 H 0.75133 0.30639 0.7618 0.0
H229 H 0.76433 0.20028 0.71164 0.0
H230 H 0.81263 0.22765 0.66953 0.0
H231 H 0.81187 0.25292 0.6895 0.0
H232 H 0.73047 0.23183 0.71641 0.0
H233 H 0.72714 0.2131 0.73288 0.0
H234 H 0.72201 0.23463 0.74137 0.0
H235 H 0.78687 0.21431 0.75156 0.0
H236 H 0.76358 0.21933 0.76792 0.0
H237 H 0.7594 0.20245 0.7504 0.0
H238 H 0.70285 0.22687 0.80159 0.0
C239 C 0.72814 0.23835 0.78033 0.0
C240 C 0.77938 0.81639 0.69001 0.0
C241 C 0.76914 0.83224 0.69411 0.0
C242 C 0.75503 0.83343 0.7116 0.0
C243 C 0.76127 0.8033 0.72036 0.0
C244 C 0.77533 0.80218 0.70333 0.0
C245 C 0.78531 0.7845 0.70148 0.0
H246 H 0.79738 0.70356 0.7406 0.0
C247 C 0.7604 0.78619 0.73092 0.0
C248 C 0.77452 0.77512 0.71997 0.0
H249 H 0.82951 0.72637 0.68622 0.0
H250 H 0.80918 0.75272 0.69147 0.0
H251 H 0.80179 0.73762 0.7673 0.0
H252 H 0.74692 0.7163 0.73249 0.0
H253 H 0.73287 0.72621 0.7525 0.0
H254 H 0.75149 0.70824 0.75725 0.0
H255 H 0.78619 0.71741 0.77335 0.0
H256 H 0.77521 0.73764 0.78143 0.0
C257 C 0.81231 0.78655 0.70224 0.0
C258 C 0.77645 0.77657 0.6822 0.0
C259 C 0.7108 0.77676 0.7949 0.0
C260 C 0.70535 0.76203 0.80723 0.0
C261 C 0.71519 0.74614 0.80255 0.0
C262 C 0.73046 0.74496 0.78593 0.0
C263 C 0.7358 0.75979 0.77371 0.0
C264 C 0.72578 0.7753 0.77814 0.0
C265 C 0.73249 0.78946 0.7629 0.0
C266 C 0.74833 0.77993 0.74869 0.0
C267 C 0.75042 0.76263 0.75524 0.0
C268 C 0.74601 0.80407 0.77338 0.0
C269 C 0.7099 0.79524 0.75297 0.0
C270 C 0.79988 0.71413 0.72967 0.0
C271 C 0.81533 0.71283 0.71306 0.0
C272 C 0.81813 0.72706 0.69937 0.0
C273 C 0.8062 0.74236 0.70239 0.0
C274 C 0.7912 0.74354 0.71926 0.0
C275 C 0.78802 0.72947 0.73242 0.0
C276 C 0.77102 0.73289 0.7493 0.0
C277 C 0.76508 0.75152 0.74442 0.0
C278 C 0.77698 0.75771 0.72684 0.0
C279 C 0.78404 0.73124 0.76898 0.0
C280 C 0.74947 0.72024 0.74803 0.0
H281 H 0.74003 0.82082 0.73768 0.0
H282 H 0.79056 0.81513 0.67683 0.0
H283 H 0.75804 0.78004 0.67975 0.0
H284 H 0.77608 0.76225 0.68272 0.0
H285 H 0.78728 0.78142 0.669 0.0
H286 H 0.81746 0.79692 0.71249 0.0
H287 H 0.82033 0.79011 0.68732 0.0
H288 H 0.82047 0.77482 0.70813 0.0
H289 H 0.70318 0.78908 0.79801 0.0
H290 H 0.71124 0.73466 0.81194 0.0
H291 H 0.73754 0.73254 0.78324 0.0
H292 H 0.7572 0.79858 0.78501 0.0
H293 H 0.73378 0.81293 0.78075 0.0
H294 H 0.75826 0.81175 0.76321 0.0
H295 H 0.69732 0.78404 0.75161 0.0
H296 H 0.71312 0.8004 0.7376 0.0
H297 H 0.70095 0.8051 0.76184 0.0
H298 H 0.74678 0.84545 0.715 0.0
C299 C 0.75102 0.81907 0.72469 0.0
C300 C 0.79033 0.21336 0.35816 0.0
C301 C 0.7773 0.19772 0.35621 0.0
C302 C 0.7606 0.19681 0.34136 0.0
C303 C 0.77027 0.22657 0.33069 0.0
C304 C 0.78651 0.22756 0.34532 0.0
C305 C 0.79876 0.24515 0.3454 0.0
H306 H 0.8133 0.32681 0.30569 0.0
C307 C 0.77053 0.24354 0.31986 0.0
C308 C 0.78711 0.25454 0.32847 0.0
H309 H 0.85014 0.30345 0.35404 0.0
H310 H 0.82731 0.27683 0.35138 0.0
H311 H 0.76238 0.31143 0.31907 0.0
H312 H 0.81513 0.29357 0.27813 0.0
H313 H 0.78798 0.2908 0.2671 0.0
H314 H 0.79841 0.31229 0.27287 0.0
H315 H 0.76844 0.32174 0.29507 0.0
H316 H 0.74785 0.30352 0.29853 0.0
C317 C 0.79311 0.25325 0.36569 0.0
C318 C 0.82519 0.24288 0.34077 0.0
C319 C 0.71809 0.25201 0.26131 0.0
C320 C 0.71437 0.26626 0.24841 0.0
C321 C 0.72648 0.28215 0.25135 0.0
C322 C 0.74228 0.28375 0.26665 0.0
C323 C 0.74606 0.26933 0.27924 0.0
C324 C 0.73387 0.25385 0.27657 0.0
C325 C 0.73975 0.24001 0.2916 0.0
C326 C 0.75776 0.24965 0.30353 0.0
C327 C 0.76146 0.26678 0.29617 0.0
C328 C 0.71723 0.23487 0.30429 0.0
C329 C 0.75057 0.2249 0.28027 0.0
C330 C 0.8166 0.31594 0.31563 0.0
C331 C 0.8336 0.31733 0.33012 0.0
C332 C 0.83697 0.30288 0.34293 0.0
C333 C 0.82379 0.28735 0.34127 0.0
C334 C 0.80702 0.28615 0.3266 0.0
C335 C 0.80365 0.30032 0.31411 0.0
C336 C 0.78528 0.29665 0.29926 0.0
C337 C 0.77818 0.27795 0.30488 0.0
C338 C 0.79096 0.27186 0.32092 0.0
C339 C 0.76491 0.309 0.30295 0.0
C340 C 0.79709 0.2985 0.27817 0.0
H341 H 0.74407 0.20952 0.31768 0.0
H342 H 0.80345 0.21451 0.36927 0.0
H343 H 0.82787 0.23253 0.32988 0.0
H344 H 0.83404 0.25459 0.33374 0.0
H345 H 0.83437 0.23917 0.35442 0.0
H346 H 0.77476 0.24989 0.37088 0.0
H347 H 0.80482 0.2484 0.37725 0.0
H348 H 0.7943 0.26755 0.36501 0.0
H349 H 0.7088 0.2397 0.25964 0.0
H350 H 0.72408 0.29328 0.24152 0.0
H351 H 0.75107 0.29615 0.26798 0.0
H352 H 0.70563 0.24605 0.30575 0.0
H353 H 0.70702 0.22426 0.29746 0.0
H354 H 0.72087 0.23094 0.31976 0.0
H355 H 0.76227 0.22995 0.26767 0.0
H356 H 0.76174 0.21685 0.28953 0.0
H357 H 0.73673 0.21644 0.27406 0.0
H358 H 0.74999 0.18508 0.33972 0.0
C359 C 0.75704 0.2111 0.32863 0.0
C360 C 0.25448 0.20751 0.70372 0.0
C361 C 0.24018 0.20666 0.6872 0.0
C362 C 0.22745 0.22133 0.68188 0.0
C363 C 0.24325 0.23706 0.70923 0.0
C364 C 0.25586 0.22277 0.71437 0.0
C365 C 0.27065 0.22588 0.73199 0.0
H366 H 0.30813 0.2798 0.80237 0.0
C367 C 0.2487 0.25085 0.72327 0.0
C368 C 0.26488 0.2444 0.73655 0.0
H369 H 0.32669 0.22672 0.79336 0.0
H370 H 0.30189 0.22539 0.76533 0.0
H371 H 0.25324 0.27294 0.79608 0.0
H372 H 0.30986 0.2921 0.75651 0.0
H373 H 0.28549 0.30451 0.75148 0.0
H374 H 0.29764 0.30492 0.7758 0.0
H375 H 0.26651 0.29423 0.79782 0.0
H376 H 0.24262 0.29009 0.78169 0.0
C377 C 0.2621 0.21293 0.74902 0.0
C378 C 0.29668 0.22434 0.72522 0.0
C379 C 0.20786 0.3082 0.71856 0.0
C380 C 0.20949 0.32329 0.72954 0.0
C381 C 0.22539 0.32436 0.74489 0.0
C382 C 0.23941 0.31038 0.7495 0.0
C383 C 0.23744 0.29519 0.73863 0.0
C384 C 0.22203 0.29434 0.72332 0.0
C385 C 0.22265 0.27728 0.71316 0.0
C386 C 0.2406 0.26792 0.72514 0.0
C387 C 0.24913 0.27845 0.74008 0.0
C388 C 0.19802 0.26829 0.71572 0.0
C389 C 0.23123 0.28082 0.69124 0.0
C390 C 0.30674 0.26784 0.79446 0.0
C391 C 0.31954 0.25337 0.80013 0.0
C392 C 0.31738 0.23816 0.78918 0.0
C393 C 0.30281 0.23736 0.77295 0.0
C394 C 0.29011 0.25191 0.76754 0.0
C395 C 0.29217 0.2668 0.77826 0.0
C396 C 0.27703 0.28087 0.77058 0.0
C397 C 0.26563 0.27199 0.75343 0.0
C398 C 0.2734 0.25504 0.75171 0.0
C399 C 0.25894 0.28494 0.78734 0.0
C400 C 0.29317 0.29654 0.7633 0.0
H401 H 0.21879 0.24713 0.68795 0.0
H402 H 0.26431 0.19649 0.70844 0.0
H403 H 0.29988 0.2296 0.70974 0.0
H404 H 0.30882 0.23196 0.73419 0.0
H405 H 0.30178 0.21059 0.72557 0.0
H406 H 0.2428 0.21054 0.74888 0.0
H407 H 0.27041 0.20024 0.74753 0.0
H408 H 0.26528 0.21783 0.76393 0.0
H409 H 0.19576 0.30721 0.70662 0.0
H410 H 0.2268 0.33599 0.75341 0.0
H411 H 0.25115 0.31193 0.76141 0.0
H412 H 0.19055 0.26993 0.73101 0.0
H413 H 0.18578 0.27396 0.70509 0.0
H414 H 0.19816 0.25416 0.71386 0.0
H415 H 0.24339 0.29241 0.68978 0.0
H416 H 0.24146 0.27017 0.68525 0.0
H417 H 0.21633 0.28323 0.68154 0.0
H418 H 0.21661 0.22123 0.66905 0.0
C419 C 0.22888 0.23646 0.69279 0.0
C420 C 0.20409 0.71345 0.32126 0.0
C421 C 0.20212 0.70011 0.30764 0.0
C422 C 0.21552 0.70138 0.28966 0.0
C423 C 0.23297 0.7288 0.29916 0.0
C424 C 0.21939 0.72774 0.31661 0.0
C425 C 0.22275 0.74358 0.32883 0.0
H426 H 0.27808 0.82148 0.34098 0.0
C427 C 0.24727 0.74514 0.29893 0.0
C428 C 0.24126 0.75394 0.3162 0.0
H429 H 0.22157 0.79707 0.37737 0.0
H430 H 0.22113 0.77234 0.35625 0.0
H431 H 0.256 0.81261 0.29962 0.0
H432 H 0.3072 0.78674 0.33394 0.0
H433 H 0.31632 0.78583 0.30882 0.0
H434 H 0.31403 0.80664 0.32007 0.0
H435 H 0.28515 0.82145 0.30218 0.0
H436 H 0.27844 0.80647 0.28307 0.0
C437 C 0.19921 0.75292 0.33021 0.0
C438 C 0.23207 0.73777 0.34916 0.0
C439 C 0.30662 0.75897 0.24204 0.0
C440 C 0.32325 0.77265 0.23806 0.0
C441 C 0.32514 0.78594 0.25188 0.0
C442 C 0.31065 0.78569 0.26916 0.0
C443 C 0.29403 0.77199 0.27281 0.0
C444 C 0.2924 0.75886 0.25943 0.0
C445 C 0.27415 0.74512 0.26594 0.0
C446 C 0.26495 0.75224 0.28534 0.0
C447 C 0.27656 0.76803 0.28924 0.0
C448 C 0.25516 0.74452 0.25012 0.0
C449 C 0.28667 0.72785 0.26924 0.0
C450 C 0.26582 0.81069 0.3445 0.0
C451 C 0.2499 0.81114 0.36087 0.0
C452 C 0.2339 0.79702 0.36477 0.0
C453 C 0.23368 0.78269 0.35249 0.0
C454 C 0.24943 0.78255 0.33596 0.0
C455 C 0.26512 0.79642 0.33218 0.0
C456 C 0.27984 0.79438 0.31348 0.0
C457 C 0.27025 0.7771 0.30655 0.0
C458 C 0.2526 0.77014 0.31988 0.0
C459 C 0.27486 0.80952 0.29875 0.0
C460 C 0.30576 0.79346 0.31919 0.0
H461 H 0.24081 0.71573 0.27149 0.0
H462 H 0.19364 0.71289 0.33503 0.0
H463 H 0.24605 0.72826 0.34713 0.0
H464 H 0.24011 0.74855 0.35719 0.0
H465 H 0.21786 0.73145 0.35883 0.0
H466 H 0.18833 0.7502 0.31724 0.0
H467 H 0.18874 0.74866 0.34384 0.0
H468 H 0.20165 0.7672 0.32985 0.0
H469 H 0.30441 0.74863 0.23171 0.0
H470 H 0.33803 0.79649 0.24945 0.0
H471 H 0.31297 0.79619 0.27903 0.0
H472 H 0.25295 0.7576 0.24315 0.0
H473 H 0.25989 0.73566 0.23807 0.0
H474 H 0.2376 0.74061 0.25651 0.0
H475 H 0.30389 0.73019 0.27603 0.0
H476 H 0.27696 0.71866 0.27969 0.0
H477 H 0.28995 0.72141 0.25495 0.0
H478 H 0.21422 0.6912 0.27901 0.0
C479 C 0.23099 0.71559 0.28538 0.0
C480 C 0.05423 0.5341 0.35161 0.0
C481 C 0.06065 0.5407 0.36965 0.0
C482 C 0.04859 0.53104 0.3842 0.0
C483 C 0.0353 0.51929 0.37432 0.0
N484 N 0.03836 0.52064 0.3543 0.0
Co485 Co 0.02015 0.50757 0.33427 0.0
N486 N 0.00069 0.49465 0.35571 0.0
C487 C 0.00259 0.49592 0.37556 0.0
C488 C 0.98749 0.48494 0.38661 0.0
C489 C 0.97544 0.47586 0.37302 0.0
C490 C 0.984 0.48185 0.35439 0.0
N491 N 0.00143 0.49497 0.31419 0.0
C492 C 0.98418 0.4825 0.31682 0.0
C493 C 0.97612 0.47703 0.29878 0.0
C494 C 0.98881 0.48627 0.28424 0.0
C495 C 0.00385 0.49681 0.29415 0.0
N496 N 0.04 0.5201 0.31284 0.0
C497 C 0.03944 0.51772 0.29305 0.0
C498 C 0.05556 0.5279 0.28204 0.0
C499 C 0.06689 0.53756 0.29556 0.0
C500 C 0.05679 0.53283 0.31411 0.0
N501 N 0.04278 0.48856 0.33484 0.0
C502 C 0.07199 0.45993 0.33601 0.0
C503 C 0.06242 0.46549 0.31829 0.0
C504 C 0.04826 0.47983 0.31798 0.0
C505 C 0.06735 0.4692 0.35305 0.0
C506 C 0.05264 0.48329 0.35219 0.0
N507 N 0.99754 0.52649 0.33369 0.0
C508 C 0.97595 0.54756 0.31519 0.0
C509 C 0.96707 0.55435 0.33276 0.0
C510 C 0.97344 0.54686 0.3508 0.0
C511 C 0.98838 0.53293 0.35093 0.0
C512 C 0.99117 0.53383 0.31599 0.0
H513 H 0.99238 0.52765 0.36514 0.0
H514 H 0.99777 0.52951 0.30209 0.0
H515 H 0.04177 0.48342 0.30393 0.0
H516 H 0.04925 0.48951 0.36581 0.0
C517 C 0.01878 0.50753 0.38336 0.0
C518 C 0.06287 0.54146 0.3323 0.0
C519 C 0.97608 0.47465 0.33595 0.0
C520 C 0.02206 0.50715 0.28514 0.0
H521 H 0.07231 0.55166 0.3722 0.0
H522 H 0.04885 0.53279 0.40007 0.0
H523 H 0.98564 0.48356 0.40264 0.0
H524 H 0.96206 0.46582 0.37641 0.0
H525 H 0.96297 0.46699 0.29631 0.0
H526 H 0.98784 0.48496 0.26834 0.0
H527 H 0.0582 0.52865 0.26603 0.0
H528 H 0.08061 0.54734 0.2921 0.0
H529 H 0.06591 0.45881 0.30465 0.0
H530 H 0.07446 0.4653 0.36712 0.0
H531 H 0.97161 0.55308 0.30086 0.0
H532 H 0.96674 0.55163 0.36478 0.0
C533 C 0.04543 0.5432 0.7247 0.0
C534 C 0.05115 0.54902 0.74325 0.0
C535 C 0.03765 0.53938 0.75692 0.0
C536 C 0.02445 0.52833 0.74599 0.0
N537 N 0.0289 0.53013 0.72615 0.0
Co538 Co 0.01257 0.51746 0.70477 0.0
N539 N 0.99229 0.50353 0.72492 0.0
C540 C 0.99296 0.50423 0.74495 0.0
C541 C 0.97849 0.49215 0.75497 0.0
C542 C 0.96809 0.48301 0.74054 0.0
C543 C 0.97665 0.49023 0.72239 0.0
N544 N 0.99581 0.50517 0.68338 0.0
C545 C 0.97896 0.49233 0.68476 0.0
C546 C 0.97164 0.48775 0.66616 0.0
C547 C 0.98471 0.49776 0.65253 0.0
C548 C 0.99906 0.50794 0.66352 0.0
N549 N 0.03335 0.53096 0.68465 0.0
C550 C 0.0337 0.52955 0.66467 0.0
C551 C 0.04991 0.54048 0.65474 0.0
C552 C 0.06045 0.54953 0.66922 0.0
C553 C 0.04991 0.54361 0.6872 0.0
N554 N 0.03578 0.49896 0.70565 0.0
C555 C 0.06581 0.47086 0.70721 0.0
C556 C 0.05908 0.47784 0.68901 0.0
C557 C 0.04411 0.49175 0.68857 0.0
C558 C 0.05786 0.47851 0.72456 0.0
C559 C 0.04316 0.49252 0.72345 0.0
N560 N 0.98927 0.53595 0.70392 0.0
C561 C 0.96993 0.55856 0.68584 0.0
C562 C 0.95791 0.56328 0.70313 0.0
C563 C 0.9615 0.55392 0.72075 0.0
C564 C 0.97722 0.5405 0.72084 0.0
C565 C 0.98522 0.54487 0.68652 0.0
H566 H 0.9795 0.53414 0.73484 0.0
H567 H 0.99367 0.54184 0.67279 0.0
H568 H 0.03922 0.49626 0.67426 0.0
H569 H 0.0378 0.49777 0.73722 0.0
C570 C 0.00784 0.51609 0.75392 0.0
C571 C 0.05554 0.55093 0.70616 0.0
C572 C 0.96996 0.48367 0.70322 0.0
C573 C 0.01712 0.51905 0.65563 0.0
H574 H 0.06359 0.55933 0.74654 0.0
H575 H 0.0373 0.54044 0.77292 0.0
H576 H 0.97619 0.48997 0.7709 0.0
H577 H 0.95596 0.47205 0.7432 0.0
H578 H 0.95853 0.47794 0.66278 0.0
H579 H 0.98428 0.49732 0.6365 0.0
H580 H 0.05316 0.54207 0.63884 0.0
H581 H 0.07399 0.55962 0.66681 0.0
H582 H 0.06481 0.47229 0.67516 0.0
H583 H 0.063 0.47374 0.739 0.0
H584 H 0.96744 0.56534 0.67178 0.0
H585 H 0.95265 0.55722 0.73454 0.0
C586 C 0.25985 0.98704 0.54529 0.0
C587 C 0.28197 0.98494 0.55259 0.0
C588 C 0.29544 0.99919 0.54597 0.0
C589 C 0.28085 0.00911 0.535 0.0
N590 N 0.25912 0.00197 0.53428 0.0
Co591 Co 0.23267 0.0117 0.51997 0.0
N592 N 0.25415 0.02709 0.50294 0.0
C593 C 0.27639 0.03167 0.50701 0.0
C594 C 0.28673 0.04326 0.49324 0.0
C595 C 0.2699 0.04635 0.47979 0.0
C596 C 0.25008 0.03639 0.48611 0.0
N597 N 0.20609 0.02132 0.50563 0.0
C598 C 0.20603 0.03072 0.48829 0.0
C599 C 0.18335 0.03467 0.48358 0.0
C600 C 0.16888 0.02797 0.49883 0.0
C601 C 0.18341 0.02017 0.51187 0.0
N602 N 0.21134 0.99649 0.53728 0.0
C603 C 0.18828 0.99842 0.54067 0.0
C604 C 0.17821 0.98575 0.55337 0.0
C605 C 0.1961 0.97523 0.55824 0.0
C606 C 0.21611 0.98212 0.54817 0.0
N607 N 0.23033 0.03003 0.53927 0.0
C608 C 0.22842 0.0565 0.56659 0.0
C609 C 0.22539 0.06004 0.54639 0.0
C610 C 0.22659 0.04669 0.53298 0.0
C611 C 0.23217 0.03942 0.57293 0.0
C612 C 0.2328 0.02634 0.55907 0.0
N613 N 0.23503 0.99337 0.50076 0.0
C614 C 0.21708 0.96965 0.48391 0.0
C615 C 0.23887 0.96525 0.47563 0.0
C616 C 0.25859 0.97563 0.47987 0.0
C617 C 0.25632 0.98952 0.49251 0.0
C618 C 0.21553 0.9838 0.49622 0.0
H619 H 0.27189 0.99697 0.49587 0.0
H620 H 0.19856 0.98672 0.50245 0.0
H621 H 0.22473 0.04997 0.51749 0.0
H622 H 0.23548 0.01326 0.56437 0.0
C623 C 0.28777 0.02329 0.52243 0.0
C624 C 0.23954 0.97533 0.55002 0.0
C625 C 0.22708 0.03789 0.47726 0.0
C626 C 0.17619 0.00991 0.52868 0.0
H627 H 0.28776 0.97426 0.56174 0.0
H628 H 0.3139 0.00161 0.54817 0.0
H629 H 0.30448 0.04866 0.49284 0.0
H630 H 0.27189 0.05534 0.46714 0.0
H631 H 0.17788 0.04202 0.47073 0.0
H632 H 0.15 0.02844 0.50003 0.0
H633 H 0.15987 0.98385 0.55776 0.0
H634 H 0.19457 0.96379 0.56799 0.0
H635 H 0.22269 0.07314 0.5409 0.0
H636 H 0.23445 0.03618 0.58849 0.0
H637 H 0.20132 0.96199 0.4814 0.0
H638 H 0.27575 0.97307 0.47355 0.0
C639 C 0.47572 0.79106 0.04719 0.0
C640 C 0.46903 0.80741 0.05261 0.0
C641 C 0.48267 0.81911 0.04137 0.0
C642 C 0.49679 0.80929 0.02973 0.0
N643 N 0.49275 0.792 0.03259 0.0
Co644 Co 0.51011 0.77308 0.01947 0.0
N645 N 0.53062 0.79034 0.00324 0.0
C646 C 0.52945 0.80782 0.00313 0.0
C647 C 0.54432 0.81627 0.98934 0.0
C648 C 0.55553 0.80344 0.97985 0.0
C649 C 0.54701 0.78781 0.98862 0.0
N650 N 0.52799 0.75417 0.00688 0.0
C651 C 0.54554 0.75508 0.99274 0.0
C652 C 0.55373 0.73879 0.98877 0.0
C653 C 0.54048 0.72714 1.00043 0.0
C654 C 0.52519 0.73694 0.01096 0.0
N655 N 0.48902 0.7558 0.0351 0.0
C656 C 0.48929 0.73831 0.03436 0.0
C657 C 0.47319 0.72983 0.0471 0.0
C658 C 0.46201 0.74262 0.05667 0.0
C659 C 0.47194 0.75829 0.04913 0.0
N660 N 0.48783 0.77273 0.99755 0.0
C661 C 0.45819 0.77225 0.96507 0.0
C662 C 0.4654 0.75684 0.97392 0.0
C663 C 0.48019 0.75737 0.98994 0.0
C664 C 0.46571 0.78789 0.97297 0.0
C665 C 0.48023 0.78784 0.98918 0.0
N666 N 0.53246 0.77343 0.0414 0.0
C667 C 0.55037 0.75894 0.06904 0.0
C668 C 0.56264 0.77416 0.07347 0.0
C669 C 0.5599 0.78896 0.06151 0.0
C670 C 0.54462 0.78838 0.0458 0.0
C671 C 0.53576 0.7588 0.05292 0.0
H672 H 0.54281 0.80023 0.03758 0.0
H673 H 0.52726 0.74669 0.05018 0.0
H674 H 0.48544 0.7452 0.99577 0.0
H675 H 0.48518 0.80018 0.99459 0.0
C676 C 0.51382 0.81591 0.01589 0.0
C677 C 0.46569 0.77509 0.05667 0.0
C678 C 0.55443 0.77091 0.98216 0.0
C679 C 0.50675 0.73027 0.02339 0.0
H680 H 0.45579 0.81055 0.06369 0.0
H681 H 0.48245 0.83311 0.04173 0.0
H682 H 0.5464 0.8301 0.98624 0.0
H683 H 0.5682 0.80547 0.9676 0.0
H684 H 0.56754 0.73561 0.97824 0.0
H685 H 0.54144 0.71316 0.00077 0.0
H686 H 0.47061 0.71598 0.04976 0.0
H687 H 0.44865 0.74055 0.06838 0.0
H688 H 0.4601 0.7444 0.96821 0.0
H689 H 0.46026 0.80015 0.96675 0.0
H690 H 0.55226 0.74713 0.07787 0.0
H691 H 0.56909 0.80105 0.06455 0.0
C692 C 0.81178 0.98857 0.55268 0.0
C693 C 0.83284 0.98223 0.5588 0.0
C694 C 0.85015 0.99119 0.54791 0.0
C695 C 0.83873 0.00236 0.53575 0.0
N696 N 0.81515 0.00127 0.53837 0.0
Co697 Co 0.79179 0.01417 0.52266 0.0
N698 N 0.8173 0.02726 0.50656 0.0
C699 C 0.84065 0.02614 0.50853 0.0
C700 C 0.85383 0.0374 0.49615 0.0
C701 C 0.83795 0.04649 0.48585 0.0
C702 C 0.81594 0.04017 0.49257 0.0
N703 N 0.76842 0.02648 0.50639 0.0
C704 C 0.77175 0.0389 0.49176 0.0
C705 C 0.75067 0.04396 0.48426 0.0
C706 C 0.7334 0.03449 0.49464 0.0
C707 C 0.74485 0.02423 0.5078 0.0
N708 N 0.76628 0.00169 0.53936 0.0
C709 C 0.74297 0.00377 0.53834 0.0
C710 C 0.72977 0.99361 0.5519 0.0
C711 C 0.74558 0.9844 0.56215 0.0
C712 C 0.76758 0.98944 0.55411 0.0
N713 N 0.79199 0.03316 0.54187 0.0
C714 C 0.7926 0.06107 0.56795 0.0
C715 C 0.77195 0.0556 0.55918 0.0
C716 C 0.77201 0.0417 0.54643 0.0
C717 C 0.81288 0.05211 0.56359 0.0
C718 C 0.81221 0.03838 0.55059 0.0
N719 N 0.79158 0.99513 0.50347 0.0
C720 C 0.77069 0.97222 0.48706 0.0
C721 C 0.79143 0.96677 0.47799 0.0
C722 C 0.81219 0.97606 0.48162 0.0
C723 C 0.81188 0.99002 0.49432 0.0
C724 C 0.77114 0.98635 0.49946 0.0
H725 H 0.82834 0.99637 0.4966 0.0
H726 H 0.7547 0.98976 0.50583 0.0
H727 H 0.75568 0.03824 0.5403 0.0
H728 H 0.82833 0.03225 0.54774 0.0
C729 C 0.84963 0.01424 0.522 0.0
C730 C 0.78905 0.98176 0.5605 0.0
C731 C 0.79431 0.04701 0.48537 0.0
C732 C 0.73394 0.01396 0.52315 0.0
H733 H 0.83542 0.97205 0.56984 0.0
H734 H 0.86884 0.98965 0.54866 0.0
H735 H 0.87271 0.03892 0.49488 0.0
H736 H 0.84207 0.0567 0.47473 0.0
H737 H 0.74799 0.05383 0.47289 0.0
H738 H 0.7147 0.03549 0.4933 0.0
H739 H 0.71088 0.99259 0.55369 0.0
H740 H 0.74138 0.97478 0.57391 0.0
H741 H 0.75579 0.0622 0.56177 0.0
H742 H 0.82927 0.05558 0.57023 0.0
H743 H 0.75412 0.96541 0.48499 0.0
H744 H 0.82869 0.97265 0.47467 0.0
C745 C 0.48449 0.27284 0.05245 0.0
C746 C 0.47724 0.28889 0.05842 0.0
C747 C 0.48981 0.30107 0.04696 0.0
C748 C 0.50392 0.29179 0.03469 0.0
N749 N 0.50085 0.2744 0.03734 0.0
Co750 Co 0.5187 0.2561 0.02348 0.0
N751 N 0.53839 0.27404 0.00758 0.0
C752 C 0.5366 0.29146 0.00794 0.0
C753 C 0.55148 0.30044 0.99458 0.0
C754 C 0.56332 0.28804 0.98487 0.0
C755 C 0.55503 0.27212 0.99301 0.0
N756 N 0.53703 0.2378 0.01008 0.0
C757 C 0.5543 0.23934 0.99572 0.0
C758 C 0.56261 0.2233 0.99077 0.0
C759 C 0.5498 0.21116 0.0021 0.0
C760 C 0.53459 0.22043 0.01338 0.0
N761 N 0.49858 0.23815 0.03896 0.0
C762 C 0.49927 0.22073 0.03762 0.0
C763 C 0.48374 0.21175 0.05046 0.0
C764 C 0.4726 0.22414 0.06079 0.0
C765 C 0.48201 0.24005 0.05358 0.0
N766 N 0.49601 0.25575 0.00182 0.0
C767 C 0.46575 0.2554 0.96973 0.0
C768 C 0.47469 0.24007 0.97731 0.0
C769 C 0.4895 0.24052 0.99331 0.0
C770 C 0.47183 0.27087 0.97871 0.0
C771 C 0.48691 0.27077 0.99455 0.0
N772 N 0.54132 0.25644 0.04512 0.0
C773 C 0.56119 0.24153 0.07134 0.0
C774 C 0.57077 0.25718 0.07776 0.0
C775 C 0.56582 0.27241 0.0672 0.0
C776 C 0.55123 0.27175 0.05106 0.0
C777 C 0.54672 0.24145 0.0551 0.0
H778 H 0.54801 0.28381 0.04376 0.0
H779 H 0.53982 0.22912 0.05113 0.0
H780 H 0.49558 0.22836 0.9984 0.0
H781 H 0.49114 0.28303 1.00047 0.0
C782 C 0.52054 0.29901 0.02083 0.0
C783 C 0.47576 0.25652 0.06195 0.0
C784 C 0.56278 0.25557 0.98583 0.0
C785 C 0.51654 0.21319 0.0259 0.0
H786 H 0.46442 0.29151 0.07006 0.0
H787 H 0.48905 0.31502 0.04771 0.0
H788 H 0.55322 0.31434 0.99196 0.0
H789 H 0.57628 0.29047 0.97289 0.0
H790 H 0.57622 0.22064 0.9798 0.0
H791 H 0.55099 0.19722 0.00175 0.0
H792 H 0.48152 0.19783 0.05268 0.0
H793 H 0.4596 0.22169 0.07273 0.0
H794 H 0.47015 0.22771 0.971 0.0
H795 H 0.46542 0.2831 0.97326 0.0
H796 H 0.56433 0.22937 0.07908 0.0
H797 H 0.57318 0.28484 0.07133 0.0
H798 H 0.22489 0.3402 0.33194 0.0
H799 H 0.2022 0.36647 0.33506 0.0
H800 H 0.13824 0.33598 0.32975 0.0
H801 H 0.16079 0.30965 0.32708 0.0
H802 H 0.14592 0.36779 0.30318 0.0
H803 H 0.14669 0.34766 0.37216 0.0
H804 H 0.1661 0.33842 0.40259 0.0
H805 H 0.20389 0.38748 0.40282 0.0
H806 H 0.18495 0.39691 0.37219 0.0
H807 H 0.06006 0.42788 0.3234 0.0
H808 H 0.08376 0.40219 0.32329 0.0
H809 H 0.14018 0.43126 0.34914 0.0
H810 H 0.11589 0.45681 0.35013 0.0
H811 H 0.13846 0.40067 0.36505 0.0
H812 H 0.13963 0.42191 0.29797 0.0
H813 H 0.12354 0.43239 0.26652 0.0
H814 H 0.08696 0.38337 0.26075 0.0
H815 H 0.10257 0.37268 0.29232 0.0
C816 C 0.20598 0.33914 0.33154 0.0
C817 C 0.19454 0.32294 0.32932 0.0
C818 C 0.19308 0.3541 0.33336 0.0
C819 C 0.16859 0.35311 0.33266 0.0
C820 C 0.15714 0.33696 0.33036 0.0
C821 C 0.16999 0.32196 0.32893 0.0
C822 C 0.1549 0.36898 0.33382 0.0
C823 C 0.14399 0.3749 0.31675 0.0
C824 C 0.15329 0.37855 0.35131 0.0
C825 C 0.16461 0.37291 0.36976 0.0
C826 C 0.15931 0.35641 0.37858 0.0
C827 C 0.17019 0.35115 0.39589 0.0
C828 C 0.18627 0.36233 0.4046 0.0
C829 C 0.19146 0.37882 0.39604 0.0
C830 C 0.18065 0.38413 0.37871 0.0
C831 C 0.07751 0.42874 0.32908 0.0
C832 C 0.08627 0.44432 0.33661 0.0
C833 C 0.09112 0.41409 0.32892 0.0
C834 C 0.11405 0.41485 0.33573 0.0
C835 C 0.12261 0.43034 0.34371 0.0
C836 C 0.10878 0.44493 0.34425 0.0
C837 C 0.12901 0.39949 0.3344 0.0
C838 C 0.14031 0.39366 0.35141 0.0
C839 C 0.13148 0.3902 0.31666 0.0
C840 C 0.12211 0.39655 0.29761 0.0
C841 C 0.12802 0.41341 0.29007 0.0
C842 C 0.119 0.41938 0.27221 0.0
C843 C 0.10419 0.40857 0.26167 0.0
C844 C 0.09842 0.39174 0.26894 0.0
C845 C 0.10736 0.38571 0.28681 0.0
H846 H 0.09723 0.41321 0.24784 0.0
H847 H 0.19467 0.35824 0.41801 0.0
H848 H 0.15287 0.70417 0.70178 0.0
H849 H 0.12891 0.6774 0.70041 0.0
H850 H 0.18842 0.64753 0.71538 0.0
H851 H 0.2127 0.67423 0.71621 0.0
H852 H 0.1642 0.63281 0.68609 0.0
H853 H 0.14654 0.65514 0.75035 0.0
H854 H 0.13459 0.67715 0.77403 0.0
H855 H 0.068 0.6801 0.747 0.0
H856 H 0.0797 0.65827 0.72295 0.0
H857 H 0.10169 0.5538 0.71438 0.0
H858 H 0.12644 0.58049 0.71469 0.0
H859 H 0.0674 0.61058 0.69876 0.0
H860 H 0.04271 0.58387 0.69861 0.0
H861 H 0.0915 0.6251 0.72853 0.0
H862 H 0.10907 0.60241 0.6645 0.0
H863 H 0.12093 0.58009 0.64119 0.0
H864 H 0.18771 0.57764 0.66797 0.0
H865 H 0.17609 0.59974 0.6917 0.0
C866 C 0.16095 0.69189 0.70454 0.0
C867 C 0.18469 0.69134 0.70916 0.0
C868 C 0.14717 0.67661 0.70393 0.0
C869 C 0.15681 0.66048 0.70804 0.0
C870 C 0.18061 0.65984 0.71224 0.0
C871 C 0.1944 0.67512 0.71287 0.0
C872 C 0.14198 0.64429 0.70818 0.0
C873 C 0.14847 0.63102 0.69555 0.0
C874 C 0.1212 0.64211 0.72024 0.0
C875 C 0.11409 0.6552 0.73472 0.0
C876 C 0.12942 0.66058 0.74935 0.0
C877 C 0.12268 0.67301 0.76286 0.0
C878 C 0.10057 0.68005 0.76199 0.0
C879 C 0.08513 0.67465 0.74763 0.0
C880 C 0.0918 0.66224 0.73407 0.0
C881 C 0.09415 0.56617 0.71097 0.0
C882 C 0.07049 0.56698 0.70647 0.0
C883 C 0.10821 0.58135 0.71108 0.0
C884 C 0.09879 0.59751 0.70658 0.0
C885 C 0.07501 0.59826 0.70227 0.0
C886 C 0.06098 0.58308 0.70212 0.0
C887 C 0.11369 0.61364 0.70642 0.0
C888 C 0.10723 0.62689 0.71905 0.0
C889 C 0.13449 0.61579 0.69438 0.0
C890 C 0.14161 0.60261 0.68001 0.0
C891 C 0.12621 0.59701 0.66553 0.0
C892 C 0.1329 0.58442 0.65222 0.0
C893 C 0.15504 0.57743 0.65312 0.0
C894 C 0.17056 0.58305 0.66731 0.0
C895 C 0.16393 0.59562 0.68068 0.0
H896 H 0.16019 0.56768 0.6428 0.0
H897 H 0.09538 0.68967 0.77246 0.0
H898 H 0.81377 0.66781 0.2999 0.0
H899 H 0.83819 0.64318 0.30581 0.0
H900 H 0.88834 0.67628 0.33417 0.0
H901 H 0.86485 0.70131 0.32695 0.0
H902 H 0.91083 0.65606 0.31181 0.0
H903 H 0.8492 0.64639 0.36081 0.0
H904 H 0.80852 0.64319 0.37423 0.0
H905 H 0.79641 0.59933 0.33791 0.0
H906 H 0.83694 0.6024 0.32406 0.0
H907 H 0.97094 0.58421 0.35318 0.0
H908 H 0.94607 0.60941 0.35112 0.0
H909 H 0.9033 0.58327 0.30913 0.0
H910 H 0.92825 0.55814 0.31096 0.0
H911 H 0.87775 0.6001 0.34072 0.0
H912 H 0.94091 0.6115 0.29154 0.0
H913 H 0.98239 0.61501 0.28034 0.0
H914 H 0.99222 0.65648 0.32051 0.0
H915 H 0.95092 0.65295 0.33227 0.0
C916 C 0.83012 0.66997 0.30717 0.0
C917 C 0.83727 0.68667 0.31288 0.0
C918 C 0.84393 0.65575 0.31085 0.0
C919 C 0.86496 0.65774 0.32078 0.0
C920 C 0.87213 0.67435 0.32658 0.0
C921 C 0.8585 0.68865 0.32263 0.0
C922 C 0.87981 0.6426 0.32449 0.0
C923 C 0.90361 0.64395 0.31846 0.0
C924 C 0.87046 0.62665 0.33295 0.0
C925 C 0.84606 0.62473 0.34126 0.0
C926 C 0.83782 0.63614 0.35557 0.0
C927 C 0.81479 0.63434 0.36327 0.0
C928 C 0.79987 0.62109 0.35689 0.0
C929 C 0.80797 0.60959 0.34282 0.0
C930 C 0.83098 0.61135 0.33506 0.0
C931 C 0.95611 0.58382 0.34365 0.0
C932 C 0.95151 0.56928 0.33219 0.0
C933 C 0.942 0.59821 0.34243 0.0
C934 C 0.92292 0.59819 0.32993 0.0
C935 C 0.91794 0.58351 0.31887 0.0
C936 C 0.93225 0.56924 0.31984 0.0
C937 C 0.9085 0.61366 0.32791 0.0
C938 C 0.88485 0.61232 0.33423 0.0
C939 C 0.91806 0.6297 0.32007 0.0
C940 C 0.94289 0.63183 0.31296 0.0
C941 C 0.95198 0.62124 0.29815 0.0
C942 C 0.97546 0.62324 0.29168 0.0
C943 C 0.98997 0.63591 0.29976 0.0
C944 C 0.98101 0.64662 0.31431 0.0
C945 C 0.95756 0.64462 0.32089 0.0
H946 H 0.00813 0.63746 0.29469 0.0
H947 H 0.78205 0.61972 0.36288 0.0
H948 H 0.85298 0.34695 0.75904 0.0
H949 H 0.87752 0.37295 0.75093 0.0
H950 H 0.8621 0.36892 0.68903 0.0
H951 H 0.83689 0.34315 0.69712 0.0
H952 H 0.91628 0.37889 0.728 0.0
H953 H 0.85926 0.4102 0.66875 0.0
H954 H 0.81784 0.41058 0.65979 0.0
H955 H 0.7961 0.39861 0.72055 0.0
H956 H 0.83736 0.3984 0.72991 0.0
H957 H 0.98144 0.4525 0.68862 0.0
H958 H 0.95733 0.42553 0.68972 0.0
H959 H 0.90065 0.45201 0.71825 0.0
H960 H 0.9243 0.47915 0.71597 0.0
H961 H 0.88311 0.43012 0.69452 0.0
H962 H 0.94179 0.4271 0.7443 0.0
H963 H 0.98227 0.42803 0.75572 0.0
H964 H 0.99865 0.38505 0.71945 0.0
H965 H 0.95838 0.38408 0.70754 0.0
C966 C 0.85465 0.35166 0.74371 0.0
C967 C 0.8428 0.34306 0.72875 0.0
C968 C 0.86888 0.36642 0.73907 0.0
C969 C 0.87151 0.37296 0.7194 0.0
C970 C 0.86013 0.36421 0.70434 0.0
C971 C 0.84588 0.34941 0.70897 0.0
C972 C 0.88573 0.38917 0.71485 0.0
C973 C 0.90907 0.39007 0.72059 0.0
C974 C 0.87627 0.40383 0.70538 0.0
C975 C 0.8514 0.40407 0.69996 0.0
C976 C 0.84563 0.40769 0.68019 0.0
C977 C 0.82219 0.40788 0.67505 0.0
C978 C 0.80436 0.40456 0.68957 0.0
C979 C 0.80993 0.40111 0.7093 0.0
C980 C 0.83334 0.40093 0.71452 0.0
C981 C 0.96368 0.45252 0.69482 0.0
C982 C 0.95473 0.4677 0.70252 0.0
C983 C 0.94999 0.43713 0.69559 0.0
C984 C 0.92735 0.43659 0.70455 0.0
C985 C 0.91808 0.45202 0.71138 0.0
C986 C 0.93159 0.46748 0.71021 0.0
C987 C 0.91368 0.41991 0.70775 0.0
C988 C 0.89044 0.4189 0.70173 0.0
C989 C 0.92308 0.40528 0.71739 0.0
C990 C 0.94714 0.40562 0.7249 0.0
C991 C 0.95406 0.4179 0.7387 0.0
C992 C 0.97698 0.41845 0.74524 0.0
C993 C 0.99306 0.40665 0.73826 0.0
C994 C 0.98621 0.39422 0.72479 0.0
C995 C 0.96334 0.39366 0.71815 0.0
H996 H 0.0108 0.4071 0.74331 0.0
H997 H 0.78622 0.4047 0.68556 0.0
H998 H 0.29151 0.16941 0.36746 0.0
H999 H 0.28387 0.14301 0.38811 0.0
H1000 H 0.20967 0.14754 0.3812 0.0
H1001 H 0.21723 0.17387 0.36028 0.0
H1002 H 0.25947 0.13734 0.42321 0.0
H1003 H 0.1856 0.10593 0.37839 0.0
H1004 H 0.17291 0.10541 0.3438 0.0
H1005 H 0.24346 0.11734 0.32228 0.0
H1006 H 0.25662 0.11768 0.3567 0.0
H1007 H 0.20848 0.06932 0.48248 0.0
H1008 H 0.21064 0.09437 0.4592 0.0
H1009 H 0.24464 0.06366 0.415 0.0
H1010 H 0.2416 0.03832 0.43815 0.0
H1011 H 0.21606 0.08637 0.39776 0.0
H1012 H 0.27648 0.08834 0.44537 0.0
H1013 H 0.29145 0.08743 0.47923 0.0
H1014 H 0.25354 0.1327 0.49336 0.0
H1015 H 0.23801 0.13371 0.45967 0.0
C1016 C 0.27357 0.16473 0.37026 0.0
C1017 C 0.25497 0.17366 0.36216 0.0
C1018 C 0.26923 0.14972 0.38217 0.0
C1019 C 0.24623 0.14323 0.38606 0.0
C1020 C 0.22758 0.15223 0.37822 0.0
C1021 C 0.2319 0.16733 0.36641 0.0
C1022 C 0.24182 0.127 0.39826 0.0
C1023 C 0.24992 0.12623 0.41766 0.0
C1024 C 0.22972 0.11238 0.39091 0.0
C1025 C 0.22202 0.11203 0.37014 0.0
C1026 C 0.19841 0.10839 0.36627 0.0
C1027 C 0.19113 0.10813 0.34669 0.0
C1028 C 0.20735 0.1114 0.33086 0.0
C1029 C 0.23089 0.11488 0.33456 0.0
C1030 C 0.23826 0.11514 0.3541 0.0
C1031 C 0.21568 0.06781 0.46755 0.0
C1032 C 0.22468 0.05193 0.46194 0.0
C1033 C 0.21713 0.08214 0.45434 0.0
C1034 C 0.22819 0.08097 0.43549 0.0
C1035 C 0.23605 0.06485 0.42947 0.0
C1036 C 0.23432 0.05042 0.44264 0.0
C1037 C 0.23332 0.09686 0.42282 0.0
C1038 C 0.22545 0.09754 0.40334 0.0
C1039 C 0.24606 0.1113 0.42996 0.0
C1040 C 0.25595 0.11103 0.45003 0.0
C1041 C 0.27127 0.09806 0.45572 0.0
C1042 C 0.27984 0.09752 0.47488 0.0
C1043 C 0.27341 0.10998 0.48845 0.0
C1044 C 0.25848 0.12305 0.48284 0.0
C1045 C 0.2498 0.12362 0.4637 0.0
H1046 H 0.28003 0.10952 0.50329 0.0
H1047 H 0.20168 0.1112 0.31571 0.0
H1048 H 0.35372 0.77987 0.79765 0.0
H1049 H 0.37843 0.7831 0.82616 0.0
H1050 H 0.32951 0.75054 0.86217 0.0
H1051 H 0.30404 0.74811 0.83411 0.0
H1052 H 0.34359 0.7764 0.88286 0.0
H1053 H 0.38224 0.73555 0.842 0.0
H1054 H 0.4005 0.72479 0.81127 0.0
H1055 H 0.45206 0.76666 0.81021 0.0
H1056 H 0.4339 0.77782 0.84082 0.0
H1057 H 0.41869 0.75213 0.9602 0.0
H1058 H 0.39402 0.75162 0.93125 0.0
H1059 H 0.43909 0.79117 0.90161 0.0
H1060 H 0.46384 0.79174 0.93054 0.0
H1061 H 0.42772 0.76297 0.87759 0.0
H1062 H 0.38896 0.80275 0.91996 0.0
H1063 H 0.37069 0.8122 0.95133 0.0
H1064 H 0.31913 0.77047 0.95012 0.0
H1065 H 0.33731 0.7606 0.91888 0.0
C1066 C 0.34802 0.77359 0.81169 0.0
C1067 C 0.32689 0.76364 0.81349 0.0
C1068 C 0.36235 0.77527 0.82794 0.0
C1069 C 0.35607 0.76682 0.84626 0.0
C1070 C 0.33483 0.75711 0.84818 0.0
C1071 C 0.32039 0.75557 0.83202 0.0
C1072 C 0.37153 0.76806 0.86347 0.0
C1073 C 0.36191 0.77326 0.88173 0.0
C1074 C 0.39559 0.76431 0.86197 0.0
C1075 C 0.40656 0.75763 0.84358 0.0
C1076 C 0.39736 0.74254 0.83513 0.0
C1077 C 0.40771 0.73636 0.81775 0.0
C1078 C 0.42739 0.74506 0.80876 0.0
C1079 C 0.43679 0.75995 0.81717 0.0
C1080 C 0.42649 0.76621 0.83454 0.0
C1081 C 0.42335 0.76068 0.94748 0.0
C1082 C 0.44313 0.77201 0.94763 0.0
C1083 C 0.4092 0.76044 0.93102 0.0
C1084 C 0.41467 0.77144 0.91436 0.0
C1085 C 0.43455 0.78262 0.91436 0.0
C1086 C 0.44856 0.78301 0.93091 0.0
C1087 C 0.39967 0.77115 0.89689 0.0
C1088 C 0.4094 0.76615 0.87863 0.0
C1089 C 0.37567 0.77488 0.89843 0.0
C1090 C 0.36464 0.78084 0.91718 0.0
C1091 C 0.37385 0.79549 0.92647 0.0
C1092 C 0.36348 0.80095 0.94421 0.0
C1093 C 0.3438 0.79192 0.95274 0.0
C1094 C 0.3344 0.77744 0.94351 0.0
C1095 C 0.34471 0.77192 0.92578 0.0
H1096 H 0.3358 0.79616 0.96648 0.0
H1097 H 0.43538 0.74025 0.7953 0.0
H1098 H 0.82047 0.8275 0.3795 0.0
H1099 H 0.82214 0.85322 0.39967 0.0
H1100 H 0.74952 0.86181 0.3893 0.0
H1101 H 0.74732 0.83573 0.36978 0.0
H1102 H 0.77976 0.89176 0.38282 0.0
H1103 H 0.76222 0.84627 0.4325 0.0
H1104 H 0.76863 0.81851 0.45024 0.0
H1105 H 0.83652 0.83745 0.46652 0.0
H1106 H 0.83064 0.86525 0.44862 0.0
H1107 H 0.75788 0.95628 0.45231 0.0
H1108 H 0.75697 0.93038 0.43264 0.0
H1109 H 0.82442 0.91688 0.45381 0.0
H1110 H 0.82474 0.94215 0.47462 0.0
H1111 H 0.79773 0.88925 0.45432 0.0
H1112 H 0.81662 0.93435 0.40556 0.0
H1113 H 0.8122 0.9621 0.38715 0.0
H1114 H 0.74498 0.94426 0.36811 0.0
H1115 H 0.74885 0.91648 0.38663 0.0
C1116 C 0.80471 0.83465 0.38175 0.0
C1117 C 0.78374 0.82945 0.37297 0.0
C1118 C 0.80577 0.84942 0.39318 0.0
C1119 C 0.78595 0.85938 0.39597 0.0
C1120 C 0.76504 0.85433 0.38722 0.0
C1121 C 0.76387 0.83945 0.37597 0.0
C1122 C 0.78708 0.87515 0.40792 0.0
C1123 C 0.7834 0.89124 0.39852 0.0
C1124 C 0.79257 0.87445 0.42821 0.0
C1125 C 0.79608 0.85777 0.43904 0.0
C1126 C 0.7786 0.84446 0.43971 0.0
C1127 C 0.78212 0.82873 0.44983 0.0
C1128 C 0.803 0.8262 0.45946 0.0
C1129 C 0.82037 0.83942 0.45903 0.0
C1130 C 0.81695 0.85517 0.44891 0.0
C1131 C 0.77244 0.94774 0.453 0.0
C1132 C 0.79139 0.95139 0.46513 0.0
C1133 C 0.77205 0.93302 0.44147 0.0
C1134 C 0.7908 0.92177 0.44145 0.0
C1135 C 0.80977 0.92539 0.45348 0.0
C1136 C 0.81005 0.93999 0.46522 0.0
C1137 C 0.79035 0.90602 0.42928 0.0
C1138 C 0.79416 0.88989 0.43861 0.0
C1139 C 0.78531 0.90672 0.40883 0.0
C1140 C 0.78293 0.9234 0.39764 0.0
C1141 C 0.80082 0.93639 0.39757 0.0
C1142 C 0.79842 0.95212 0.38709 0.0
C1143 C 0.7783 0.95496 0.37651 0.0
C1144 C 0.76055 0.94205 0.37634 0.0
C1145 C 0.76284 0.92631 0.3868 0.0
H1146 H 0.77648 0.96714 0.36841 0.0
H1147 H 0.80569 0.81402 0.46728 0.0
H1148 H 0.66765 0.2409 0.81439 0.0
H1149 H 0.64223 0.24101 0.84442 0.0
H1150 H 0.69812 0.26527 0.87601 0.0
H1151 H 0.72382 0.26487 0.84614 0.0
H1152 H 0.67575 0.23873 0.89797 0.0
H1153 H 0.65425 0.289 0.85974 0.0
H1154 H 0.64142 0.30482 0.82994 0.0
H1155 H 0.57769 0.27359 0.83146 0.0
H1156 H 0.59029 0.2574 0.86113 0.0
H1157 H 0.60898 0.26545 0.98177 0.0
H1158 H 0.63456 0.26479 0.95173 0.0
H1159 H 0.57702 0.24351 0.91946 0.0
H1160 H 0.55136 0.24462 0.94943 0.0
H1161 H 0.60015 0.26827 0.89767 0.0
H1162 H 0.62085 0.21812 0.93573 0.0
H1163 H 0.63322 0.2019 0.96541 0.0
H1164 H 0.69789 0.23201 0.964 0.0
H1165 H 0.68574 0.24862 0.93447 0.0
C1166 C 0.67459 0.24613 0.82777 0.0
C1167 C 0.69774 0.25292 0.82787 0.0
C1168 C 0.65999 0.24631 0.84487 0.0
C1169 C 0.66822 0.25331 0.86239 0.0
C1170 C 0.6914 0.25986 0.86263 0.0
C1171 C 0.70599 0.25975 0.84552 0.0
C1172 C 0.65264 0.25382 0.88047 0.0
C1173 C 0.65936 0.24538 0.898 0.0
C1174 C 0.63097 0.26211 0.88034 0.0
C1175 C 0.62333 0.27187 0.86254 0.0
C1176 C 0.63758 0.28541 0.85363 0.0
C1177 C 0.63034 0.29446 0.83677 0.0
C1178 C 0.60878 0.29018 0.82878 0.0
C1179 C 0.5944 0.27687 0.83765 0.0
C1180 C 0.60158 0.26776 0.8545 0.0
C1181 C 0.60192 0.26069 0.9682 0.0
C1182 C 0.57834 0.25512 0.96773 0.0
C1183 C 0.61649 0.26022 0.95111 0.0
C1184 C 0.60778 0.25392 0.93338 0.0
C1185 C 0.58413 0.24842 0.93295 0.0
C1186 C 0.56953 0.24898 0.95002 0.0
C1187 C 0.62326 0.25319 0.91523 0.0
C1188 C 0.61652 0.2616 0.89768 0.0
C1189 C 0.64485 0.24477 0.91532 0.0
C1190 C 0.65228 0.23473 0.93299 0.0
C1191 C 0.63763 0.22137 0.94183 0.0
C1192 C 0.64462 0.2121 0.95862 0.0
C1193 C 0.6663 0.21595 0.96662 0.0
C1194 C 0.68108 0.22906 0.95781 0.0
C1195 C 0.67416 0.2384 0.94103 0.0
H1196 H 0.67168 0.20875 0.97961 0.0
H1197 H 0.6032 0.29721 0.81573 0.0
H1198 H 0.25433 0.82472 0.64022 0.0
H1199 H 0.25007 0.84902 0.61658 0.0
H1200 H 0.25239 0.88464 0.66455 0.0
H1201 H 0.25573 0.86039 0.68834 0.0
H1202 H 0.21884 0.89274 0.6399 0.0
H1203 H 0.30025 0.87891 0.63304 0.0
H1204 H 0.33329 0.85992 0.62679 0.0
H1205 H 0.30917 0.85029 0.56843 0.0
H1206 H 0.27579 0.86906 0.57444 0.0
H1207 H 0.24591 0.97259 0.58962 0.0
H1208 H 0.24846 0.94597 0.61019 0.0
H1209 H 0.24125 0.91538 0.55811 0.0
H1210 H 0.23887 0.94217 0.53749 0.0
H1211 H 0.27534 0.9034 0.58269 0.0
H1212 H 0.19552 0.919 0.58868 0.0
H1213 H 0.16325 0.93872 0.59465 0.0
H1214 H 0.18444 0.94521 0.65451 0.0
H1215 H 0.21715 0.92578 0.64878 0.0
C1216 C 0.25369 0.83771 0.64577 0.0
C1217 C 0.25549 0.8406 0.66619 0.0
C1218 C 0.25148 0.8516 0.6322 0.0
C1219 C 0.2512 0.86868 0.63875 0.0
C1220 C 0.25265 0.87158 0.65914 0.0
C1221 C 0.2548 0.85771 0.6727 0.0
C1222 C 0.24942 0.8836 0.62445 0.0
C1223 C 0.23133 0.89515 0.62751 0.0
C1224 C 0.26531 0.88649 0.60792 0.0
C1225 C 0.28538 0.87523 0.60428 0.0
C1226 C 0.30188 0.87263 0.61894 0.0
C1227 C 0.32069 0.86192 0.61543 0.0
C1228 C 0.32328 0.85386 0.59725 0.0
C1229 C 0.30711 0.85652 0.58252 0.0
C1230 C 0.28825 0.8672 0.58596 0.0
C1231 C 0.24508 0.96015 0.58264 0.0
C1232 C 0.24232 0.95924 0.56211 0.0
C1233 C 0.24642 0.945 0.59434 0.0
C1234 C 0.2448 0.9287 0.5857 0.0
C1235 C 0.24252 0.92782 0.56505 0.0
C1236 C 0.24113 0.94303 0.55333 0.0
C1237 C 0.24505 0.91266 0.5984 0.0
C1238 C 0.26276 0.90089 0.595 0.0
C1239 C 0.22882 0.90956 0.61463 0.0
C1240 C 0.20891 0.92102 0.61825 0.0
C1241 C 0.1934 0.92472 0.60308 0.0
C1242 C 0.17503 0.93584 0.60642 0.0
C1243 C 0.17182 0.94323 0.62494 0.0
C1244 C 0.18696 0.93948 0.64017 0.0
C1245 C 0.20542 0.9284 0.63689 0.0
H1246 H 0.15758 0.95184 0.6275 0.0
H1247 H 0.33786 0.84558 0.59455 0.0
H1248 H 0.72497 0.77084 0.20161 0.0
H1249 H 0.69964 0.77117 0.17293 0.0
H1250 H 0.63908 0.77535 0.21234 0.0
H1251 H 0.66438 0.77548 0.24099 0.0
H1252 H 0.63768 0.74815 0.18045 0.0
H1253 H 0.65308 0.80932 0.19139 0.0
H1254 H 0.67903 0.835 0.19576 0.0
H1255 H 0.71219 0.82801 0.13846 0.0
H1256 H 0.68665 0.80211 0.1339 0.0
H1257 H 0.55074 0.76583 0.11212 0.0
H1258 H 0.5762 0.76602 0.14049 0.0
H1259 H 0.63494 0.78264 0.10144 0.0
H1260 H 0.60906 0.78341 0.07326 0.0
H1261 H 0.63847 0.79887 0.13323 0.0
H1262 H 0.62484 0.73894 0.12066 0.0
H1263 H 0.60155 0.71215 0.11512 0.0
H1264 H 0.56876 0.71474 0.1733 0.0
H1265 H 0.59164 0.74168 0.17909 0.0
C1266 C 0.70624 0.7718 0.20409 0.0
C1267 C 0.69656 0.77319 0.22343 0.0
C1268 C 0.69185 0.77202 0.18777 0.0
C1269 C 0.66756 0.7733 0.1906 0.0
C1270 C 0.6578 0.77435 0.20992 0.0
C1271 C 0.67223 0.7745 0.2262 0.0
C1272 C 0.65231 0.77374 0.17335 0.0
C1273 C 0.63758 0.75928 0.17021 0.0
C1274 C 0.65289 0.78805 0.15972 0.0
C1275 C 0.66815 0.80367 0.16241 0.0
C1276 C 0.66606 0.81315 0.17981 0.0
C1277 C 0.68066 0.82777 0.18231 0.0
C1278 C 0.6973 0.8331 0.16742 0.0
C1279 C 0.69932 0.82385 0.14999 0.0
C1280 C 0.68478 0.80921 0.14744 0.0
C1281 C 0.56909 0.76955 0.10968 0.0
C1282 C 0.57805 0.77452 0.09058 0.0
C1283 C 0.58369 0.76954 0.12585 0.0
C1284 C 0.6077 0.77394 0.12311 0.0
C1285 C 0.61654 0.77915 0.10399 0.0
C1286 C 0.6018 0.77955 0.08789 0.0
C1287 C 0.6235 0.77323 0.14017 0.0
C1288 C 0.63846 0.78765 0.14334 0.0
C1289 C 0.62348 0.75869 0.1536 0.0
C1290 C 0.60981 0.74241 0.15024 0.0
C1291 C 0.61256 0.73385 0.13223 0.0
C1292 C 0.59944 0.71864 0.12905 0.0
C1293 C 0.58364 0.71177 0.14383 0.0
C1294 C 0.58098 0.72008 0.16185 0.0
C1295 C 0.59404 0.73532 0.1651 0.0
H1296 H 0.5735 0.69999 0.14134 0.0
H1297 H 0.70858 0.84443 0.16938 0.0
H1298 H 0.7528 0.18862 0.68145 0.0
H1299 H 0.75456 0.16268 0.66172 0.0
H1300 H 0.82797 0.17366 0.64826 0.0
H1301 H 0.82668 0.1993 0.66855 0.0
H1302 H 0.80197 0.16535 0.61477 0.0
H1303 H 0.81377 0.14286 0.68097 0.0
H1304 H 0.80409 0.13829 0.71678 0.0
H1305 H 0.73858 0.11319 0.70353 0.0
H1306 H 0.74772 0.11785 0.66762 0.0
H1307 H 0.82767 0.08598 0.57121 0.0
H1308 H 0.82794 0.1109 0.5925 0.0
H1309 H 0.7583 0.09605 0.61518 0.0
H1310 H 0.75847 0.07045 0.59491 0.0
H1311 H 0.783 0.10656 0.64428 0.0
H1312 H 0.76948 0.12925 0.57884 0.0
H1313 H 0.77737 0.13423 0.54283 0.0
H1314 H 0.84346 0.15945 0.55408 0.0
H1315 H 0.8361 0.1544 0.59017 0.0
C1316 C 0.76943 0.18543 0.67455 0.0
C1317 C 0.78962 0.19609 0.67669 0.0
C1318 C 0.77035 0.17064 0.66318 0.0
C1319 C 0.79142 0.16623 0.65362 0.0
C1320 C 0.81152 0.17689 0.65548 0.0
C1321 C 0.81069 0.1916 0.66701 0.0
C1322 C 0.79243 0.1505 0.64163 0.0
C1323 C 0.79815 0.15245 0.62124 0.0
C1324 C 0.78681 0.13377 0.65002 0.0
C1325 C 0.78134 0.13086 0.67161 0.0
C1326 C 0.79721 0.1365 0.68569 0.0
C1327 C 0.79184 0.13387 0.70601 0.0
C1328 C 0.7707 0.12549 0.71243 0.0
C1329 C 0.75493 0.11969 0.69853 0.0
C1330 C 0.76021 0.12231 0.6782 0.0
C1331 C 0.81254 0.0878 0.58096 0.0
C1332 C 0.79299 0.07617 0.58121 0.0
C1333 C 0.8126 0.10224 0.59294 0.0
C1334 C 0.79295 0.10558 0.60518 0.0
C1335 C 0.77361 0.09383 0.60577 0.0
C1336 C 0.77364 0.07927 0.59397 0.0
C1337 C 0.79249 0.12134 0.61729 0.0
C1338 C 0.78687 0.11942 0.63774 0.0
C1339 C 0.79792 0.13815 0.60889 0.0
C1340 C 0.80234 0.14129 0.5872 0.0
C1341 C 0.78577 0.13575 0.57363 0.0
C1342 C 0.79013 0.1386 0.5532 0.0
C1343 C 0.81093 0.14711 0.54617 0.0
C1344 C 0.82737 0.15283 0.55955 0.0
C1345 C 0.82311 0.14999 0.57999 0.0
H1346 H 0.81428 0.14931 0.53035 0.0
H1347 H 0.76657 0.12346 0.72816 0.0
H1348 H 0.35891 0.28783 0.2232 0.0
H1349 H 0.38427 0.28652 0.1933 0.0
H1350 H 0.36473 0.23246 0.1883 0.0
H1351 H 0.33855 0.23374 0.21765 0.0
H1352 H 0.41394 0.24044 0.18224 0.0
H1353 H 0.33931 0.25905 0.15995 0.0
H1354 H 0.30534 0.27783 0.1599 0.0
H1355 H 0.35068 0.32211 0.14434 0.0
H1356 H 0.38498 0.30362 0.14459 0.0
H1357 H 0.42889 0.24948 0.06686 0.0
H1358 H 0.40482 0.24995 0.09783 0.0
H1359 H 0.46597 0.26525 0.12957 0.0
H1360 H 0.49002 0.26446 0.09864 0.0
H1361 H 0.39558 0.27586 0.1224 0.0
H1362 H 0.46064 0.24753 0.17674 0.0
H1363 H 0.4943 0.22842 0.17628 0.0
H1364 H 0.46672 0.20201 0.12665 0.0
H1365 H 0.43273 0.22077 0.127 0.0
C1366 C 0.3598 0.27568 0.21569 0.0
C1367 C 0.34648 0.26092 0.22286 0.0
C1368 C 0.37447 0.27493 0.19869 0.0
C1369 C 0.37629 0.25941 0.18859 0.0
C1370 C 0.36364 0.24454 0.19597 0.0
C1371 C 0.34875 0.2453 0.21283 0.0
C1372 C 0.39064 0.25886 0.16986 0.0
C1373 C 0.40999 0.24821 0.16916 0.0
C1374 C 0.38532 0.26887 0.15278 0.0
C1375 C 0.36472 0.27998 0.15249 0.0
C1376 C 0.34205 0.27282 0.15669 0.0
C1377 C 0.32274 0.2834 0.15659 0.0
C1378 C 0.32586 0.30116 0.15218 0.0
C1379 C 0.3483 0.30836 0.14779 0.0
C1380 C 0.36767 0.29783 0.14789 0.0
C1381 C 0.43707 0.25284 0.08053 0.0
C1382 C 0.46118 0.25676 0.08061 0.0
C1383 C 0.42338 0.2532 0.09814 0.0
C1384 C 0.43364 0.25746 0.11605 0.0
C1385 C 0.45775 0.26166 0.116 0.0
C1386 C 0.47143 0.26126 0.0984 0.0
C1387 C 0.41905 0.25753 0.13475 0.0
C1388 C 0.39963 0.26813 0.13547 0.0
C1389 C 0.42426 0.24738 0.1518 0.0
C1390 C 0.44425 0.23566 0.15181 0.0
C1391 C 0.46169 0.23757 0.16581 0.0
C1392 C 0.48085 0.22682 0.16555 0.0
C1393 C 0.48269 0.21406 0.1514 0.0
C1394 C 0.46531 0.21194 0.13756 0.0
C1395 C 0.4461 0.22263 0.13778 0.0
H1396 H 0.49756 0.20578 0.15119 0.0
H1397 H 0.31088 0.30933 0.15211 0.0
H1398 H 0.80072 0.67892 0.7209 0.0
H1399 H 0.82383 0.65302 0.71821 0.0
H1400 H 0.88341 0.68453 0.6958 0.0
H1401 H 0.86075 0.71057 0.69903 0.0
H1402 H 0.87553 0.65407 0.67446 0.0
H1403 H 0.88195 0.67145 0.74236 0.0
H1404 H 0.86632 0.67928 0.77535 0.0
H1405 H 0.83069 0.62944 0.78267 0.0
H1406 H 0.84583 0.62141 0.74957 0.0
H1407 H 0.96671 0.5956 0.6864 0.0
H1408 H 0.94121 0.62032 0.68693 0.0
H1409 H 0.88777 0.58897 0.71954 0.0
H1410 H 0.91361 0.56437 0.71957 0.0
H1411 H 0.89086 0.61888 0.73521 0.0
H1412 H 0.88442 0.60056 0.66855 0.0
H1413 H 0.89844 0.5922 0.63527 0.0
H1414 H 0.93175 0.64258 0.62494 0.0
H1415 H 0.91819 0.65118 0.65827 0.0
C1416 C 0.81879 0.6804 0.71554 0.0
C1417 C 0.82888 0.6969 0.7103 0.0
C1418 C 0.83192 0.66556 0.71391 0.0
C1419 C 0.85535 0.66689 0.70693 0.0
C1420 C 0.86531 0.68323 0.70115 0.0
C1421 C 0.85227 0.6981 0.70293 0.0
C1422 C 0.86972 0.65132 0.70616 0.0
C1423 C 0.87912 0.64645 0.68773 0.0
C1424 C 0.87378 0.64114 0.72344 0.0
C1425 C 0.86482 0.6459 0.7434 0.0
C1426 C 0.87062 0.66221 0.75093 0.0
C1427 C 0.86188 0.66668 0.76967 0.0
C1428 C 0.84747 0.65488 0.78108 0.0
C1429 C 0.84182 0.63858 0.7738 0.0
C1430 C 0.85049 0.63406 0.75506 0.0
C1431 C 0.94943 0.59397 0.69352 0.0
C1432 C 0.94208 0.57807 0.70288 0.0
C1433 C 0.93483 0.60808 0.69377 0.0
C1434 C 0.91236 0.60647 0.70299 0.0
C1435 C 0.905 0.59056 0.71232 0.0
C1436 C 0.91975 0.57651 0.71233 0.0
C1437 C 0.89685 0.62153 0.70344 0.0
C1438 C 0.88722 0.62637 0.72184 0.0
C1439 C 0.89235 0.63155 0.68608 0.0
C1440 C 0.90046 0.62646 0.66598 0.0
C1441 C 0.89487 0.60982 0.65924 0.0
C1442 C 0.90272 0.60504 0.64036 0.0
C1443 C 0.91603 0.61684 0.62802 0.0
C1444 C 0.92146 0.63345 0.63452 0.0
C1445 C 0.91368 0.63829 0.6534 0.0
H1446 H 0.92209 0.61311 0.61341 0.0
H1447 H 0.84072 0.65836 0.79558 0.0
H1448 H 0.85233 0.33863 0.2998 0.0
H1449 H 0.8762 0.36526 0.3023 0.0
H1450 H 0.87231 0.35933 0.36625 0.0
H1451 H 0.84755 0.33304 0.3639 0.0
H1452 H 0.86716 0.39218 0.35546 0.0
H1453 H 0.92148 0.34874 0.33937 0.0
H1454 H 0.93772 0.32491 0.32032 0.0
H1455 H 0.94571 0.35849 0.26824 0.0
H1456 H 0.92921 0.38247 0.28692 0.0
H1457 H 0.98913 0.44218 0.34597 0.0
H1458 H 0.96499 0.41519 0.3469 0.0
H1459 H 0.90588 0.44385 0.32795 0.0
H1460 H 0.92997 0.47086 0.32752 0.0
H1461 H 0.94393 0.39873 0.31865 0.0
H1462 H 0.85542 0.42461 0.34777 0.0
H1463 H 0.84117 0.4474 0.3695 0.0
H1464 H 0.90523 0.44698 0.40071 0.0
H1465 H 0.91971 0.42401 0.37939 0.0
C1466 C 0.85627 0.34309 0.31442 0.0
C1467 C 0.84804 0.33364 0.33166 0.0
C1468 C 0.87015 0.35823 0.31582 0.0
C1469 C 0.87633 0.36418 0.33446 0.0
C1470 C 0.86785 0.35496 0.3517 0.0
C1471 C 0.85388 0.33983 0.35032 0.0
C1472 C 0.89177 0.37996 0.33592 0.0
C1473 C 0.88394 0.39361 0.34741 0.0
C1474 C 0.9139 0.38172 0.32576 0.0
C1475 C 0.92392 0.36735 0.3145 0.0
C1476 C 0.92654 0.35101 0.32381 0.0
C1477 C 0.93582 0.33748 0.31309 0.0
C1478 C 0.94269 0.34018 0.29307 0.0
C1479 C 0.94036 0.35642 0.28375 0.0
C1480 C 0.93106 0.36999 0.2944 0.0
C1481 C 0.97093 0.44262 0.34214 0.0
C1482 C 0.96127 0.45843 0.33667 0.0
C1483 C 0.9572 0.42726 0.34258 0.0
C1484 C 0.93357 0.42749 0.33763 0.0
C1485 C 0.92396 0.44337 0.33212 0.0
C1486 C 0.93767 0.45874 0.33177 0.0
C1487 C 0.91913 0.41109 0.33789 0.0
C1488 C 0.92714 0.39731 0.3267 0.0
C1489 C 0.89743 0.40908 0.3487 0.0
C1490 C 0.88872 0.4227 0.36183 0.0
C1491 C 0.86642 0.42932 0.35933 0.0
C1492 C 0.85831 0.44228 0.37157 0.0
C1493 C 0.87231 0.44867 0.38644 0.0
C1494 C 0.89443 0.44206 0.38915 0.0
C1495 C 0.9026 0.42908 0.37697 0.0
H1496 H 0.86601 0.45872 0.39588 0.0
H1497 H 0.94987 0.32969 0.28479 0.0
H1498 H 0.21947 0.35149 0.70519 0.0
H1499 H 0.19478 0.3764 0.69941 0.0
H1500 H 0.14114 0.35272 0.73936 0.0
H1501 H 0.16568 0.32767 0.74468 0.0
H1502 H 0.12169 0.36686 0.70821 0.0
H1503 H 0.17855 0.38533 0.75406 0.0
H1504 H 0.21804 0.3906 0.76657 0.0
H1505 H 0.23544 0.42541 0.71676 0.0
H1506 H 0.19612 0.42015 0.7038 0.0
H1507 H 0.05925 0.44201 0.73148 0.0
H1508 H 0.08375 0.41672 0.73335 0.0
H1509 H 0.13016 0.43964 0.687 0.0
H1510 H 0.10574 0.46508 0.68513 0.0
H1511 H 0.1534 0.42617 0.71994 0.0
H1512 H 0.09397 0.40795 0.67554 0.0
H1513 H 0.05327 0.4032 0.66558 0.0
H1514 H 0.03951 0.36818 0.71583 0.0
H1515 H 0.08007 0.37291 0.72625 0.0
C1516 C 0.20232 0.35165 0.71255 0.0
C1517 C 0.19432 0.33785 0.72536 0.0
C1518 C 0.18829 0.36586 0.70936 0.0
C1519 C 0.16621 0.36655 0.71917 0.0
C1520 C 0.15808 0.35249 0.73164 0.0
C1521 C 0.17206 0.33825 0.73473 0.0
C1522 C 0.15179 0.38206 0.71678 0.0
C1523 C 0.12858 0.3798 0.71096 0.0
C1524 C 0.16082 0.399 0.7201 0.0
C1525 C 0.18448 0.40219 0.72784 0.0
C1526 C 0.19086 0.39399 0.74568 0.0
C1527 C 0.2132 0.397 0.75287 0.0
C1528 C 0.22926 0.40829 0.74243 0.0
C1529 C 0.22299 0.41664 0.72481 0.0
C1530 C 0.20068 0.41366 0.71754 0.0
C1531 C 0.07474 0.44169 0.72176 0.0
C1532 C 0.08063 0.45552 0.70818 0.0
C1533 C 0.08861 0.4272 0.72275 0.0
C1534 C 0.10866 0.42628 0.71022 0.0
C1535 C 0.11472 0.44011 0.69675 0.0
C1536 C 0.10071 0.45456 0.69562 0.0
C1537 C 0.12342 0.41093 0.71139 0.0
C1538 C 0.14664 0.41323 0.71704 0.0
C1539 C 0.11429 0.39402 0.7082 0.0
C1540 C 0.09001 0.3909 0.70176 0.0
C1541 C 0.08223 0.39932 0.68453 0.0
C1542 C 0.05919 0.39662 0.67879 0.0
C1543 C 0.0438 0.38542 0.69008 0.0
C1544 C 0.05145 0.37686 0.7071 0.0
C1545 C 0.07447 0.37953 0.71292 0.0
H1546 H 0.02595 0.38336 0.68563 0.0
H1547 H 0.24655 0.41061 0.74803 0.0
H1548 H 0.20186 0.67775 0.3398 0.0
H1549 H 0.17745 0.65105 0.34568 0.0
H1550 H 0.14215 0.66157 0.2914 0.0
H1551 H 0.16696 0.68796 0.28518 0.0
H1552 H 0.11276 0.65058 0.32963 0.0
H1553 H 0.17823 0.63516 0.28571 0.0
H1554 H 0.22036 0.63362 0.27705 0.0
H1555 H 0.23013 0.60392 0.33091 0.0
H1556 H 0.18808 0.60554 0.34004 0.0
H1557 H 0.05182 0.57162 0.31354 0.0
H1558 H 0.0751 0.59883 0.31035 0.0
H1559 H 0.12828 0.57615 0.34574 0.0
H1560 H 0.1059 0.54846 0.34724 0.0
H1561 H 0.14921 0.59408 0.31922 0.0
H1562 H 0.08512 0.60654 0.36311 0.0
H1563 H 0.04387 0.60848 0.37456 0.0
H1564 H 0.03211 0.64423 0.32613 0.0
H1565 H 0.07305 0.64215 0.31407 0.0
C1566 C 0.18872 0.6744 0.32926 0.0
C1567 C 0.18624 0.68481 0.31203 0.0
C1568 C 0.17487 0.6592 0.33261 0.0
C1569 C 0.15807 0.65441 0.31896 0.0
C1570 C 0.15501 0.66511 0.3021 0.0
C1571 C 0.1692 0.68009 0.29854 0.0
C1572 C 0.14438 0.63783 0.32174 0.0
C1573 C 0.12055 0.63818 0.32723 0.0
C1574 C 0.15489 0.62174 0.31925 0.0
C1575 C 0.18009 0.62065 0.31366 0.0
C1576 C 0.18941 0.62845 0.2958 0.0
C1577 C 0.21326 0.62754 0.29078 0.0
C1578 C 0.22793 0.61873 0.30345 0.0
C1579 C 0.21875 0.61077 0.32113 0.0
C1580 C 0.19492 0.61168 0.32623 0.0
C1581 C 0.06854 0.5725 0.32054 0.0
C1582 C 0.07693 0.5581 0.33093 0.0
C1583 C 0.08174 0.58811 0.31894 0.0
C1584 C 0.10323 0.58983 0.32831 0.0
C1585 C 0.11172 0.57529 0.33849 0.0
C1586 C 0.09885 0.55952 0.33953 0.0
C1587 C 0.11713 0.60658 0.32706 0.0
C1588 C 0.14116 0.60635 0.32185 0.0
C1589 C 0.10684 0.62277 0.33031 0.0
C1590 C 0.08214 0.62405 0.33757 0.0
C1591 C 0.07367 0.61469 0.35479 0.0
C1592 C 0.05032 0.6158 0.36138 0.0
C1593 C 0.03531 0.62639 0.35101 0.0
C1594 C 0.04366 0.63594 0.33407 0.0
C1595 C 0.06695 0.63479 0.32735 0.0
H1596 H 0.01724 0.62726 0.35613 0.0
H1597 H 0.24639 0.61803 0.29954 0.0
H1598 H 0.77991 0.86573 0.70322 0.0
H1599 H 0.78453 0.89105 0.68047 0.0
H1600 H 0.77117 0.85856 0.63091 0.0
H1601 H 0.76695 0.83313 0.65362 0.0
H1602 H 0.80547 0.88138 0.62115 0.0
H1603 H 0.72851 0.88415 0.6514 0.0
H1604 H 0.69917 0.8845 0.67916 0.0
H1605 H 0.73248 0.93067 0.70043 0.0
H1606 H 0.76222 0.93045 0.67295 0.0
H1607 H 0.77789 0.94849 0.55182 0.0
H1608 H 0.77554 0.92295 0.57463 0.0
H1609 H 0.79475 0.95526 0.62297 0.0
H1610 H 0.79693 0.9808 0.60009 0.0
H1611 H 0.75786 0.93272 0.6333 0.0
H1612 H 0.83433 0.93003 0.60181 0.0
H1613 H 0.86253 0.92966 0.57324 0.0
H1614 H 0.82882 0.88308 0.55342 0.0
H1615 H 0.80016 0.88333 0.5817 0.0
C1616 C 0.77792 0.864 0.68748 0.0
C1617 C 0.77289 0.84748 0.68021 0.0
C1618 C 0.78054 0.87848 0.67448 0.0
C1619 C 0.77778 0.87677 0.654 0.0
C1620 C 0.77333 0.86021 0.64665 0.0
C1621 C 0.77095 0.84569 0.65963 0.0
C1622 C 0.77921 0.89229 0.64028 0.0
C1623 C 0.79484 0.89251 0.62368 0.0
C1624 C 0.76566 0.90697 0.64375 0.0
C1625 C 0.74772 0.90719 0.66023 0.0
C1626 C 0.72967 0.89431 0.66208 0.0
C1627 C 0.71296 0.89449 0.67775 0.0
C1628 C 0.71399 0.90757 0.69158 0.0
C1629 C 0.73171 0.92053 0.68973 0.0
C1630 C 0.74849 0.92039 0.6741 0.0
C1631 C 0.78161 0.95002 0.56733 0.0
C1632 C 0.78768 0.96641 0.57434 0.0
C1633 C 0.78036 0.9355 0.5803 0.0
C1634 C 0.78521 0.93719 0.60046 0.0
C1635 C 0.79099 0.95368 0.60748 0.0
C1636 C 0.7923 0.96819 0.59448 0.0
C1637 C 0.7841 0.92177 0.61423 0.0
C1638 C 0.76851 0.92158 0.63082 0.0
C1639 C 0.79755 0.90709 0.61067 0.0
C1640 C 0.81496 0.90679 0.59379 0.0
C1641 C 0.83282 0.91977 0.59128 0.0
C1642 C 0.8489 0.91958 0.57515 0.0
C1643 C 0.84744 0.90637 0.5615 0.0
C1644 C 0.82992 0.89331 0.56399 0.0
C1645 C 0.81376 0.89347 0.58008 0.0
H1646 H 0.8599 0.90625 0.54901 0.0
H1647 H 0.70104 0.90769 0.7037 0.0
H1648 H 0.71093 0.23966 0.22277 0.0
H1649 H 0.68551 0.23724 0.19451 0.0
H1650 H 0.65642 0.28649 0.2078 0.0
H1651 H 0.68158 0.28888 0.2363 0.0
H1652 H 0.6225 0.2615 0.19837 0.0
H1653 H 0.69685 0.28492 0.17168 0.0
H1654 H 0.73971 0.28544 0.16597 0.0
H1655 H 0.73447 0.23644 0.13778 0.0
H1656 H 0.69158 0.23552 0.14359 0.0
H1657 H 0.57061 0.28097 0.10704 0.0
H1658 H 0.59442 0.28161 0.13634 0.0
H1659 H 0.62712 0.23478 0.11859 0.0
H1660 H 0.60403 0.23443 0.08878 0.0
H1661 H 0.65891 0.25757 0.13069 0.0
H1662 H 0.5849 0.2341 0.15606 0.0
H1663 H 0.542 0.23303 0.16159 0.0
H1664 H 0.5462 0.28083 0.19231 0.0
H1665 H 0.58911 0.28233 0.1867 0.0
C1666 C 0.69893 0.24988 0.21982 0.0
C1667 C 0.69832 0.2645 0.23171 0.0
C1668 C 0.68453 0.24853 0.2036 0.0
C1669 C 0.66924 0.26176 0.19897 0.0
C1670 C 0.66814 0.27615 0.21111 0.0
C1671 C 0.68264 0.27757 0.22727 0.0
C1672 C 0.6549 0.26081 0.18112 0.0
C1673 C 0.63042 0.26083 0.18354 0.0
C1674 C 0.66527 0.25949 0.16185 0.0
C1675 C 0.69104 0.26007 0.15825 0.0
C1676 C 0.70486 0.27419 0.16441 0.0
C1677 C 0.72915 0.27457 0.16113 0.0
C1678 C 0.73981 0.26096 0.15156 0.0
C1679 C 0.72619 0.24696 0.14521 0.0
C1680 C 0.70189 0.24651 0.14848 0.0
C1681 C 0.58306 0.27091 0.10922 0.0
C1682 C 0.58539 0.25764 0.09554 0.0
C1683 C 0.59646 0.27118 0.12613 0.0
C1684 C 0.61231 0.2581 0.12983 0.0
C1685 C 0.6149 0.24495 0.1161 0.0
C1686 C 0.60155 0.2447 0.09914 0.0
C1687 C 0.62644 0.2583 0.14787 0.0
C1688 C 0.65091 0.25815 0.14551 0.0
C1689 C 0.61602 0.25937 0.16719 0.0
C1690 C 0.59022 0.25841 0.17079 0.0
C1691 C 0.57667 0.24445 0.16387 0.0
C1692 C 0.55234 0.24376 0.16704 0.0
C1693 C 0.54138 0.25688 0.17725 0.0
C1694 C 0.55472 0.27069 0.18438 0.0
C1695 C 0.57905 0.27146 0.18123 0.0
H1696 H 0.52255 0.25633 0.17967 0.0
H1697 H 0.75862 0.26128 0.14903 0.0
H1698 H 0.20156 0.19219 0.67017 0.0
H1699 H 0.19931 0.16624 0.65054 0.0
H1700 H 0.2726 0.15829 0.6589 0.0
H1701 H 0.27534 0.18481 0.67755 0.0
H1702 H 0.2633 0.15267 0.62219 0.0
H1703 H 0.22815 0.13377 0.68504 0.0
H1704 H 0.20096 0.1345 0.71426 0.0
H1705 H 0.14238 0.12864 0.67672 0.0
H1706 H 0.16922 0.12811 0.64722 0.0
H1707 H 0.2614 0.06443 0.59331 0.0
H1708 H 0.26273 0.08939 0.61495 0.0
H1709 H 0.19656 0.10547 0.5935 0.0
H1710 H 0.19537 0.08071 0.57156 0.0
H1711 H 0.20237 0.1062 0.63721 0.0
H1712 H 0.23908 0.12583 0.57426 0.0
H1713 H 0.26727 0.1239 0.54588 0.0
H1714 H 0.32438 0.12711 0.58533 0.0
H1715 H 0.29648 0.12877 0.61401 0.0
C1716 C 0.21729 0.18507 0.66766 0.0
C1717 C 0.23863 0.19063 0.67552 0.0
C1718 C 0.21589 0.17006 0.65664 0.0
C1719 C 0.23569 0.16012 0.6535 0.0
C1720 C 0.25704 0.16568 0.6612 0.0
C1721 C 0.25852 0.18077 0.67206 0.0
C1722 C 0.23425 0.14409 0.64187 0.0
C1723 C 0.25017 0.14243 0.6257 0.0
C1724 C 0.2169 0.13078 0.64619 0.0
C1725 C 0.2007 0.13107 0.6639 0.0
C1726 C 0.20946 0.13277 0.683 0.0
C1727 C 0.19411 0.13313 0.69961 0.0
C1728 C 0.16995 0.13167 0.69735 0.0
C1729 C 0.16109 0.1298 0.67845 0.0
C1730 C 0.17637 0.12945 0.66178 0.0
C1731 C 0.24704 0.07319 0.59341 0.0
C1732 C 0.22831 0.07072 0.58078 0.0
C1733 C 0.24785 0.08743 0.60569 0.0
C1734 C 0.22977 0.09924 0.60573 0.0
C1735 C 0.21064 0.09646 0.59366 0.0
C1736 C 0.21003 0.0824 0.58111 0.0
C1737 C 0.23135 0.11493 0.61771 0.0
C1738 C 0.21549 0.11649 0.63386 0.0
C1739 C 0.24888 0.12805 0.61354 0.0
C1740 C 0.26569 0.12723 0.5963 0.0
C1741 C 0.25764 0.12596 0.57691 0.0
C1742 C 0.27357 0.12494 0.56076 0.0
C1743 C 0.2976 0.12533 0.56381 0.0
C1744 C 0.30576 0.12678 0.583 0.0
C1745 C 0.2899 0.12777 0.5992 0.0
H1746 H 0.30991 0.12454 0.55129 0.0
H1747 H 0.1581 0.13194 0.71023 0.0
H1748 H 0.33761 0.80098 0.21441 0.0
H1749 H 0.36205 0.80159 0.18389 0.0
H1750 H 0.36672 0.74598 0.18859 0.0
H1751 H 0.34341 0.74535 0.21972 0.0
H1752 H 0.40737 0.7595 0.17727 0.0
H1753 H 0.32934 0.766 0.15618 0.0
H1754 H 0.29053 0.77882 0.15512 0.0
H1755 H 0.32257 0.82762 0.13459 0.0
H1756 H 0.36162 0.81514 0.13579 0.0
H1757 H 0.4191 0.76641 0.06128 0.0
H1758 H 0.3947 0.76601 0.09208 0.0
H1759 H 0.4536 0.78622 0.12351 0.0
H1760 H 0.47816 0.78584 0.0929 0.0
H1761 H 0.3802 0.78903 0.11629 0.0
H1762 H 0.45209 0.77021 0.17065 0.0
H1763 H 0.48879 0.75437 0.17022 0.0
H1764 H 0.46491 0.72432 0.12191 0.0
H1765 H 0.42794 0.73979 0.12225 0.0
C1766 C 0.3441 0.78889 0.20915 0.0
C1767 C 0.3384 0.7731 0.21954 0.0
C1768 C 0.35786 0.78924 0.19153 0.0
C1769 C 0.36593 0.7738 0.18373 0.0
C1770 C 0.36062 0.75806 0.19423 0.0
C1771 C 0.34704 0.75771 0.21195 0.0
C1772 C 0.37979 0.77402 0.16459 0.0
C1773 C 0.40143 0.76598 0.16395 0.0
C1774 C 0.37187 0.78214 0.14705 0.0
C1775 C 0.34841 0.78968 0.14626 0.0
C1776 C 0.32812 0.7795 0.15158 0.0
C1777 C 0.30608 0.7867 0.15093 0.0
C1778 C 0.30409 0.80404 0.14484 0.0
C1779 C 0.32414 0.8142 0.13933 0.0
C1780 C 0.34623 0.80707 0.13998 0.0
C1781 C 0.42672 0.77071 0.07484 0.0
C1782 C 0.45046 0.7759 0.07495 0.0
C1783 C 0.41281 0.77058 0.09237 0.0
C1784 C 0.4224 0.77581 0.11022 0.0
C1785 C 0.44594 0.78174 0.11006 0.0
C1786 C 0.45991 0.78164 0.0926 0.0
C1787 C 0.40791 0.77472 0.12905 0.0
C1788 C 0.38617 0.7826 0.12962 0.0
C1789 C 0.41541 0.76598 0.14637 0.0
C1790 C 0.43734 0.75629 0.14637 0.0
C1791 C 0.45462 0.76015 0.16002 0.0
C1792 C 0.47548 0.75125 0.15977 0.0
C1793 C 0.47921 0.73838 0.14601 0.0
C1794 C 0.46203 0.73432 0.13252 0.0
C1795 C 0.44113 0.74316 0.13273 0.0
H1796 H 0.49539 0.73154 0.14581 0.0
H1797 H 0.28701 0.80959 0.14435 0.0
H1798 H 0.78475 0.19712 0.39625 0.0
H1799 H 0.78966 0.17177 0.41823 0.0
H1800 H 0.78248 0.13831 0.36862 0.0
H1801 H 0.77796 0.16356 0.34649 0.0
H1802 H 0.7554 0.12675 0.40084 0.0
H1803 H 0.83539 0.14634 0.38728 0.0
H1804 H 0.86865 0.16763 0.38559 0.0
H1805 H 0.86122 0.17413 0.44855 0.0
H1806 H 0.82767 0.15305 0.45058 0.0
H1807 H 0.7905 0.04837 0.44527 0.0
H1808 H 0.78965 0.07438 0.42335 0.0
H1809 H 0.79873 0.10665 0.47384 0.0
H1810 H 0.79992 0.08055 0.49565 0.0
H1811 H 0.82484 0.11918 0.44179 0.0
H1812 H 0.74545 0.09979 0.45582 0.0
H1813 H 0.71223 0.07849 0.45814 0.0
H1814 H 0.71784 0.0721 0.39507 0.0
H1815 H 0.75142 0.09313 0.39242 0.0
C1816 C 0.78454 0.18439 0.38995 0.0
C1817 C 0.78091 0.18239 0.36959 0.0
C1818 C 0.78728 0.16991 0.40255 0.0
C1819 C 0.78654 0.15315 0.39504 0.0
C1820 C 0.783 0.15112 0.37475 0.0
C1821 C 0.78033 0.16557 0.36214 0.0
C1822 C 0.78895 0.13768 0.40838 0.0
C1823 C 0.77072 0.12498 0.40959 0.0
C1824 C 0.80865 0.13563 0.42022 0.0
C1825 C 0.82886 0.14825 0.41905 0.0
C1826 C 0.84072 0.15242 0.40074 0.0
C1827 C 0.85965 0.16442 0.39973 0.0
C1828 C 0.867 0.17226 0.41694 0.0
C1829 C 0.85548 0.16807 0.43522 0.0
C1830 C 0.83652 0.15608 0.43632 0.0
C1831 C 0.79248 0.06106 0.45154 0.0
C1832 C 0.79513 0.06265 0.472 0.0
C1833 C 0.79193 0.07586 0.43911 0.0
C1834 C 0.79381 0.09246 0.44702 0.0
C1835 C 0.79721 0.09399 0.46744 0.0
C1836 C 0.79782 0.07916 0.47986 0.0
C1837 C 0.79139 0.10819 0.43409 0.0
C1838 C 0.80954 0.12095 0.43302 0.0
C1839 C 0.77154 0.11038 0.42246 0.0
C1840 C 0.7511 0.09793 0.42395 0.0
C1841 C 0.73971 0.09376 0.44246 0.0
C1842 C 0.72081 0.08174 0.44384 0.0
C1843 C 0.71296 0.07392 0.42677 0.0
C1844 C 0.72396 0.07815 0.40828 0.0
C1845 C 0.74293 0.09013 0.40683 0.0
H1846 H 0.69832 0.06462 0.42787 0.0
H1847 H 0.88167 0.18155 0.41613 0.0
H1848 H 0.31106 0.26861 0.83577 0.0
H1849 H 0.33613 0.26943 0.86433 0.0
H1850 H 0.38741 0.24011 0.83269 0.0
H1851 H 0.36269 0.23952 0.80389 0.0
H1852 H 0.37826 0.22738 0.87088 0.0
H1853 H 0.39701 0.28263 0.83796 0.0
H1854 H 0.38818 0.31103 0.82281 0.0
H1855 H 0.35728 0.32635 0.87831 0.0
H1856 H 0.36563 0.29792 0.89373 0.0
H1857 H 0.47217 0.23829 0.93524 0.0
H1858 H 0.44728 0.23821 0.90654 0.0
H1859 H 0.39993 0.27199 0.93639 0.0
H1860 H 0.42508 0.27238 0.965 0.0
H1861 H 0.40659 0.28248 0.89916 0.0
H1862 H 0.38728 0.22773 0.93232 0.0
H1863 H 0.39509 0.19928 0.94788 0.0
H1864 H 0.42554 0.18286 0.89269 0.0
H1865 H 0.41819 0.21131 0.87686 0.0
C1866 C 0.32781 0.26253 0.83475 0.0
C1867 C 0.33486 0.25402 0.81748 0.0
C1868 C 0.34208 0.26296 0.85113 0.0
C1869 C 0.3637 0.25492 0.85058 0.0
C1870 C 0.37076 0.24635 0.83344 0.0
C1871 C 0.35655 0.24597 0.81702 0.0
C1872 C 0.37882 0.25524 0.86798 0.0
C1873 C 0.38473 0.23942 0.87692 0.0
C1874 C 0.38668 0.27096 0.87617 0.0
C1875 C 0.38174 0.28808 0.86695 0.0
C1876 C 0.38816 0.292 0.8469 0.0
C1877 C 0.38327 0.30811 0.83826 0.0
C1878 C 0.37212 0.32047 0.84958 0.0
C1879 C 0.36589 0.31675 0.86956 0.0
C1880 C 0.37071 0.30065 0.87826 0.0
C1881 C 0.45635 0.24559 0.93573 0.0
C1882 C 0.45049 0.25526 0.9524 0.0
C1883 C 0.44212 0.24553 0.91933 0.0
C1884 C 0.4215 0.25488 0.9194 0.0
C1885 C 0.41573 0.26467 0.93598 0.0
C1886 C 0.4301 0.26489 0.95231 0.0
C1887 C 0.40611 0.25459 0.90211 0.0
C1888 C 0.40012 0.27042 0.89317 0.0
C1889 C 0.39802 0.23887 0.89401 0.0
C1890 C 0.40238 0.22171 0.90346 0.0
C1891 C 0.39579 0.2181 0.92354 0.0
C1892 C 0.40011 0.20196 0.9324 0.0
C1893 C 0.41086 0.18929 0.92129 0.0
C1894 C 0.41724 0.1927 0.90128 0.0
C1895 C 0.41298 0.20882 0.89235 0.0
H1896 H 0.41419 0.1768 0.92818 0.0
H1897 H 0.36835 0.33294 0.84287 0.0
H1898 H 0.21197 0.82945 0.37191 0.0
H1899 H 0.2113 0.85568 0.39146 0.0
H1900 H 0.28591 0.85383 0.39769 0.0
H1901 H 0.28674 0.82768 0.37787 0.0
H1902 H 0.25744 0.85999 0.43429 0.0
H1903 H 0.27053 0.88111 0.36632 0.0
H1904 H 0.26161 0.88317 0.33081 0.0
H1905 H 0.1938 0.90215 0.34588 0.0
H1906 H 0.20218 0.89995 0.38152 0.0
H1907 H 0.27522 0.94293 0.47333 0.0
H1908 H 0.27832 0.91728 0.45346 0.0
H1909 H 0.20991 0.9257 0.43091 0.0
H1910 H 0.20745 0.95217 0.44947 0.0
H1911 H 0.23616 0.91576 0.40236 0.0
H1912 H 0.22081 0.8946 0.46931 0.0
H1913 H 0.22706 0.89179 0.50528 0.0
H1914 H 0.2951 0.87188 0.49332 0.0
H1915 H 0.28939 0.87481 0.45725 0.0
C1916 C 0.22819 0.83457 0.37759 0.0
C1917 C 0.24941 0.82657 0.3734 0.0
C1918 C 0.22779 0.84956 0.38866 0.0
C1919 C 0.24857 0.85668 0.39594 0.0
C1920 C 0.26971 0.8485 0.39219 0.0
C1921 C 0.27018 0.83366 0.38082 0.0
C1922 C 0.24821 0.8729 0.40707 0.0
C1923 C 0.25311 0.87226 0.42731 0.0
C1924 C 0.24188 0.88874 0.39802 0.0
C1925 C 0.23689 0.89019 0.3766 0.0
C1926 C 0.25363 0.88558 0.36207 0.0
C1927 C 0.24869 0.8868 0.34192 0.0
C1928 C 0.22713 0.89274 0.33609 0.0
C1929 C 0.21049 0.89753 0.35042 0.0
C1930 C 0.21533 0.8963 0.37059 0.0
C1931 C 0.26098 0.93958 0.46387 0.0
C1932 C 0.24101 0.9497 0.46317 0.0
C1933 C 0.26263 0.92468 0.45273 0.0
C1934 C 0.24413 0.91927 0.44099 0.0
C1935 C 0.22438 0.92949 0.43995 0.0
C1936 C 0.22288 0.94456 0.45081 0.0
C1937 C 0.2453 0.90298 0.42979 0.0
C1938 C 0.24054 0.90356 0.40947 0.0
C1939 C 0.25135 0.88701 0.43889 0.0
C1940 C 0.25476 0.88509 0.46057 0.0
C1941 C 0.23717 0.88973 0.47435 0.0
C1942 C 0.24061 0.88811 0.49475 0.0
C1943 C 0.26149 0.8817 0.50158 0.0
C1944 C 0.27894 0.87686 0.48801 0.0
C1945 C 0.27561 0.87849 0.46758 0.0
H1946 H 0.26412 0.88046 0.51738 0.0
H1947 H 0.22334 0.89368 0.32048 0.0
H1948 H 0.70852 0.78483 0.83713 0.0
H1949 H 0.68263 0.78619 0.86694 0.0
H1950 H 0.64022 0.74346 0.84669 0.0
H1951 H 0.66636 0.7418 0.81708 0.0
H1952 H 0.61554 0.77506 0.86102 0.0
H1953 H 0.67233 0.73278 0.87946 0.0
H1954 H 0.71246 0.72291 0.88337 0.0
H1955 H 0.72659 0.76452 0.92247 0.0
H1956 H 0.68662 0.7748 0.91854 0.0
H1957 H 0.54456 0.75587 0.94737 0.0
H1958 H 0.57029 0.75389 0.91771 0.0
H1959 H 0.62516 0.78195 0.94686 0.0
H1960 H 0.59985 0.78284 0.97698 0.0
H1961 H 0.64394 0.75822 0.92737 0.0
H1962 H 0.58927 0.80104 0.91049 0.0
H1963 H 0.55035 0.81316 0.9066 0.0
H1964 H 0.53352 0.77434 0.86468 0.0
H1965 H 0.57223 0.76182 0.86853 0.0
C1966 C 0.69361 0.77579 0.83905 0.0
C1967 C 0.68941 0.76318 0.82492 0.0
C1968 C 0.67892 0.77655 0.85603 0.0
C1969 C 0.6596 0.76491 0.85894 0.0
C1970 C 0.65506 0.75255 0.84464 0.0
C1971 C 0.67002 0.75156 0.82785 0.0
C1972 C 0.64437 0.76542 0.87714 0.0
C1973 C 0.62156 0.77119 0.87554 0.0
C1974 C 0.65262 0.76091 0.89605 0.0
C1975 C 0.67658 0.75466 0.89853 0.0
C1976 C 0.68407 0.73992 0.88874 0.0
C1977 C 0.70677 0.73423 0.89099 0.0
C1978 C 0.72209 0.74311 0.90311 0.0
C1979 C 0.71471 0.75767 0.91306 0.0
C1980 C 0.69203 0.76342 0.91084 0.0
C1981 C 0.56218 0.7615 0.94739 0.0
C1982 C 0.57022 0.7697 0.96424 0.0
C1983 C 0.57681 0.76052 0.93041 0.0
C1984 C 0.59953 0.76816 0.9298 0.0
C1985 C 0.60769 0.77605 0.94686 0.0
C1986 C 0.59322 0.77667 0.964 0.0
C1987 C 0.61481 0.76786 0.91143 0.0
C1988 C 0.63774 0.76214 0.91294 0.0
C1989 C 0.60679 0.77279 0.89246 0.0
C1990 C 0.58358 0.7804 0.88994 0.0
C1991 C 0.57722 0.79502 0.90053 0.0
C1992 C 0.5552 0.80197 0.89833 0.0
C1993 C 0.53945 0.7945 0.88544 0.0
C1994 C 0.54573 0.7801 0.87468 0.0
C1995 C 0.56771 0.77308 0.87685 0.0
H1996 H 0.5224 0.79989 0.88377 0.0
H1997 H 0.73965 0.73868 0.90484 0.0
loop_
_geom_bond_atom_site_label_1
_geom_bond_atom_site_label_2
_geom_bond_distance
_geom_bond_site_symmetry_2
_ccdc_geom_bond_type
C0 C1 1.391 . S
C0 C4 1.391 . S
C0 H42 0.948 . S
C1 C0 1.391 . S
C1 C2 1.391 . S
C2 C1 1.391 . S
C2 H58 0.947 . S
C2 C59 1.392 . S
C3 C4 1.391 . S
C3 C7 1.397 . S
C3 C59 1.419 . S
C4 C0 1.391 . S
C4 C3 1.391 . S
C4 C5 1.399 . S
C5 C4 1.399 . S
C5 C8 1.396 . S
C5 C17 1.453 . S
C5 C18 1.684 . S
H6 C30 0.948 . S
C7 C3 1.397 . S
C7 C8 1.394 . S
C7 C26 1.723 . S
C8 C5 1.396 . S
C8 C7 1.394 . S
C8 C38 1.723 . S
H9 C32 0.947 . S
H10 C33 0.948 . S
H11 C39 0.982 . S
H12 C40 0.979 . S
H13 C40 0.980 . S
H14 C40 0.983 . S
H15 C39 0.979 . S
H16 C39 0.977 . S
C17 C5 1.453 . S
C17 H46 0.982 . S
C17 H47 0.979 . S
C17 H48 0.977 . S
C18 C5 1.684 . S
C18 H43 0.979 . S
C18 H44 0.980 . S
C18 H45 0.983 . S
C19 C20 1.391 . S
C19 C24 1.391 . S
C19 H49 0.948 . S
C20 C19 1.391 . S
C20 C21 1.391 . S
C21 C20 1.391 . S
C21 C22 1.392 . S
C21 H50 0.947 . S
C22 C21 1.392 . S
C22 C23 1.419 . S
C22 H51 0.948 . S
C23 C22 1.419 . S
C23 C24 1.391 . S
C23 C27 1.397 . S
C24 C19 1.391 . S
C24 C23 1.391 . S
C24 C25 1.399 . S
C25 C24 1.399 . S
C25 C26 1.396 . S
C25 C28 1.453 . S
C25 C29 1.684 . S
C26 C7 1.723 . S
C26 C25 1.396 . S
C26 C27 1.394 . S
C27 C23 1.397 . S
C27 C26 1.394 . S
C27 C37 1.723 . S
C28 C25 1.453 . S
C28 H52 0.982 . S
C28 H53 0.979 . S
C28 H54 0.977 . S
C29 C25 1.684 . S
C29 H55 0.979 . S
C29 H56 0.980 . S
C29 H57 0.983 . S
C30 H6 0.948 . S
C30 C31 1.391 . S
C30 C35 1.391 . S
C31 C30 1.391 . S
C31 C32 1.391 . S
C32 H9 0.947 . S
C32 C31 1.391 . S
C32 C33 1.392 . S
C33 H10 0.948 . S
C33 C32 1.392 . S
C33 C34 1.419 . S
C34 C33 1.419 . S
C34 C35 1.391 . S
C34 C38 1.397 . S
C35 C30 1.391 . S
C35 C34 1.391 . S
C35 C36 1.399 . S
C36 C35 1.399 . S
C36 C37 1.396 . S
C36 C39 1.453 . S
C36 C40 1.684 . S
C37 C27 1.723 . S
C37 C36 1.396 . S
C37 C38 1.394 . S
C38 C8 1.723 . S
C38 C34 1.397 . S
C38 C37 1.394 . S
C39 H11 0.982 . S
C39 H15 0.979 . S
C39 H16 0.977 . S
C39 C36 1.453 . S
C40 H12 0.979 . S
C40 H13 0.980 . S
C40 H14 0.983 . S
C40 C36 1.684 . S
H41 C59 0.948 . S
H42 C0 0.948 . S
H43 C18 0.979 . S
H44 C18 0.980 . S
H45 C18 0.983 . S
H46 C17 0.982 . S
H47 C17 0.979 . S
H48 C17 0.977 . S
H49 C19 0.948 . S
H50 C21 0.947 . S
H51 C22 0.948 . S
H52 C28 0.982 . S
H53 C28 0.979 . S
H54 C28 0.977 . S
H55 C29 0.979 . S
H56 C29 0.980 . S
H57 C29 0.983 . S
H58 C2 0.947 . S
C59 C2 1.392 . S
C59 C3 1.419 . S
C59 H41 0.948 . S
C60 C61 1.391 . S
C60 C64 1.391 . S
C60 H102 0.948 . S
C61 C60 1.391 . S
C61 C62 1.391 . S
C62 C61 1.391 . S
C62 H118 0.947 . S
C62 C119 1.392 . S
C63 C64 1.391 . S
C63 C67 1.397 . S
C63 C119 1.419 . S
C64 C60 1.391 . S
C64 C63 1.391 . S
C64 C65 1.399 . S
C65 C64 1.399 . S
C65 C68 1.396 . S
C65 C77 1.453 . S
C65 C78 1.684 . S
H66 C90 0.948 . S
C67 C63 1.397 . S
C67 C68 1.394 . S
C67 C86 1.723 . S
C68 C65 1.396 . S
C68 C67 1.394 . S
C68 C98 1.723 . S
H69 C92 0.947 . S
H70 C93 0.948 . S
H71 C99 0.982 . S
H72 C100 0.979 . S
H73 C100 0.980 . S
H74 C100 0.983 . S
H75 C99 0.979 . S
H76 C99 0.977 . S
C77 C65 1.453 . S
C77 H106 0.982 . S
C77 H107 0.979 . S
C77 H108 0.977 . S
C78 C65 1.684 . S
C78 H103 0.979 . S
C78 H104 0.980 . S
C78 H105 0.983 . S
C79 C80 1.391 . S
C79 C84 1.391 . S
C79 H109 0.948 . S
C80 C79 1.391 . S
C80 C81 1.391 . S
C81 C80 1.391 . S
C81 C82 1.392 . S
C81 H110 0.947 . S
C82 C81 1.392 . S
C82 C83 1.419 . S
C82 H111 0.948 . S
C83 C82 1.419 . S
C83 C84 1.391 . S
C83 C87 1.397 . S
C84 C79 1.391 . S
C84 C83 1.391 . S
C84 C85 1.399 . S
C85 C84 1.399 . S
C85 C86 1.396 . S
C85 C88 1.453 . S
C85 C89 1.684 . S
C86 C67 1.723 . S
C86 C85 1.396 . S
C86 C87 1.394 . S
C87 C83 1.397 . S
C87 C86 1.394 . S
C87 C97 1.723 . S
C88 C85 1.453 . S
C88 H112 0.982 . S
C88 H113 0.979 . S
C88 H114 0.977 . S
C89 C85 1.684 . S
C89 H115 0.979 . S
C89 H116 0.980 . S
C89 H117 0.983 . S
C90 H66 0.948 . S
C90 C91 1.391 . S
C90 C95 1.391 . S
C91 C90 1.391 . S
C91 C92 1.391 . S
C92 H69 0.947 . S
C92 C91 1.391 . S
C92 C93 1.392 . S
C93 H70 0.948 . S
C93 C92 1.392 . S
C93 C94 1.419 . S
C94 C93 1.419 . S
C94 C95 1.391 . S
C94 C98 1.397 . S
C95 C90 1.391 . S
C95 C94 1.391 . S
C95 C96 1.399 . S
C96 C95 1.399 . S
C96 C97 1.396 . S
C96 C99 1.453 . S
C96 C100 1.684 . S
C97 C87 1.723 . S
C97 C96 1.396 . S
C97 C98 1.394 . S
C98 C68 1.723 . S
C98 C94 1.397 . S
C98 C97 1.394 . S
C99 H71 0.982 . S
C99 H75 0.979 . S
C99 H76 0.977 . S
C99 C96 1.453 . S
C100 H72 0.979 . S
C100 H73 0.980 . S
C100 H74 0.983 . S
C100 C96 1.684 . S
H101 C119 0.948 . S
H102 C60 0.948 . S
H103 C78 0.979 . S
H104 C78 0.980 . S
H105 C78 0.983 . S
H106 C77 0.982 . S
H107 C77 0.979 . S
H108 C77 0.977 . S
H109 C79 0.948 . S
H110 C81 0.947 . S
H111 C82 0.948 . S
H112 C88 0.982 . S
H113 C88 0.979 . S
H114 C88 0.977 . S
H115 C89 0.979 . S
H116 C89 0.980 . S
H117 C89 0.983 . S
H118 C62 0.947 . S
C119 C62 1.392 . S
C119 C63 1.419 . S
C119 H101 0.948 . S
C120 C121 1.391 . S
C120 C124 1.391 . S
C120 H162 0.948 . S
C121 C120 1.391 . S
C121 C122 1.391 . S
C122 C121 1.391 . S
C122 H178 0.947 . S
C122 C179 1.392 . S
C123 C124 1.391 . S
C123 C127 1.397 . S
C123 C179 1.419 . S
C124 C120 1.391 . S
C124 C123 1.391 . S
C124 C125 1.399 . S
C125 C124 1.399 . S
C125 C128 1.396 . S
C125 C137 1.453 . S
C125 C138 1.684 . S
H126 C150 0.948 . S
C127 C123 1.397 . S
C127 C128 1.394 . S
C127 C146 1.723 . S
C128 C125 1.396 . S
C128 C127 1.394 . S
C128 C158 1.723 . S
H129 C152 0.947 . S
H130 C153 0.948 . S
H131 C159 0.982 . S
H132 C160 0.979 . S
H133 C160 0.980 . S
H134 C160 0.983 . S
H135 C159 0.979 . S
H136 C159 0.977 . S
C137 C125 1.453 . S
C137 H166 0.982 . S
C137 H167 0.979 . S
C137 H168 0.977 . S
C138 C125 1.684 . S
C138 H163 0.979 . S
C138 H164 0.980 . S
C138 H165 0.983 . S
C139 C140 1.391 . S
C139 C144 1.391 . S
C139 H169 0.948 . S
C140 C139 1.391 . S
C140 C141 1.391 . S
C141 C140 1.391 . S
C141 C142 1.392 . S
C141 H170 0.947 . S
C142 C141 1.392 . S
C142 C143 1.419 . S
C142 H171 0.948 . S
C143 C142 1.419 . S
C143 C144 1.391 . S
C143 C147 1.397 . S
C144 C139 1.391 . S
C144 C143 1.391 . S
C144 C145 1.399 . S
C145 C144 1.399 . S
C145 C146 1.396 . S
C145 C148 1.453 . S
C145 C149 1.684 . S
C146 C127 1.723 . S
C146 C145 1.396 . S
C146 C147 1.394 . S
C147 C143 1.397 . S
C147 C146 1.394 . S
C147 C157 1.723 . S
C148 C145 1.453 . S
C148 H172 0.982 . S
C148 H173 0.979 . S
C148 H174 0.977 . S
C149 C145 1.684 . S
C149 H175 0.979 . S
C149 H176 0.980 . S
C149 H177 0.983 . S
C150 H126 0.948 . S
C150 C151 1.391 . S
C150 C155 1.391 . S
C151 C150 1.391 . S
C151 C152 1.391 . S
C152 H129 0.947 . S
C152 C151 1.391 . S
C152 C153 1.392 . S
C153 H130 0.948 . S
C153 C152 1.392 . S
C153 C154 1.419 . S
C154 C153 1.419 . S
C154 C155 1.391 . S
C154 C158 1.397 . S
C155 C150 1.391 . S
C155 C154 1.391 . S
C155 C156 1.399 . S
C156 C155 1.399 . S
C156 C157 1.396 . S
C156 C159 1.453 . S
C156 C160 1.684 . S
C157 C147 1.723 . S
C157 C156 1.396 . S
C157 C158 1.394 . S
C158 C128 1.723 . S
C158 C154 1.397 . S
C158 C157 1.394 . S
C159 H131 0.982 . S
C159 H135 0.979 . S
C159 H136 0.977 . S
C159 C156 1.453 . S
C160 H132 0.979 . S
C160 H133 0.980 . S
C160 H134 0.983 . S
C160 C156 1.684 . S
H161 C179 0.948 . S
H162 C120 0.948 . S
H163 C138 0.979 . S
H164 C138 0.980 . S
H165 C138 0.983 . S
H166 C137 0.982 . S
H167 C137 0.979 . S
H168 C137 0.977 . S
H169 C139 0.948 . S
H170 C141 0.947 . S
H171 C142 0.948 . S
H172 C148 0.982 . S
H173 C148 0.979 . S
H174 C148 0.977 . S
H175 C149 0.979 . S
H176 C149 0.980 . S
H177 C149 0.983 . S
H178 C122 0.947 . S
C179 C122 1.392 . S
C179 C123 1.419 . S
C179 H161 0.948 . S
C180 C181 1.391 . S
C180 C184 1.391 . S
C180 H222 0.948 . S
C181 C180 1.391 . S
C181 C182 1.391 . S
C182 C181 1.391 . S
C182 H238 0.947 . S
C182 C239 1.392 . S
C183 C184 1.391 . S
C183 C187 1.397 . S
C183 C239 1.419 . S
C184 C180 1.391 . S
C184 C183 1.391 . S
C184 C185 1.399 . S
C185 C184 1.399 . S
C185 C188 1.396 . S
C185 C197 1.453 . S
C185 C198 1.684 . S
H186 C210 0.948 . S
C187 C183 1.397 . S
C187 C188 1.394 . S
C187 C206 1.723 . S
C188 C185 1.396 . S
C188 C187 1.394 . S
C188 C218 1.723 . S
H189 C212 0.947 . S
H190 C213 0.948 . S
H191 C219 0.982 . S
H192 C220 0.979 . S
H193 C220 0.980 . S
H194 C220 0.983 . S
H195 C219 0.979 . S
H196 C219 0.977 . S
C197 C185 1.453 . S
C197 H226 0.982 . S
C197 H227 0.979 . S
C197 H228 0.977 . S
C198 C185 1.684 . S
C198 H223 0.979 . S
C198 H224 0.980 . S
C198 H225 0.983 . S
C199 C200 1.391 . S
C199 C204 1.391 . S
C199 H229 0.948 . S
C200 C199 1.391 . S
C200 C201 1.391 . S
C201 C200 1.391 . S
C201 C202 1.392 . S
C201 H230 0.947 . S
C202 C201 1.392 . S
C202 C203 1.419 . S
C202 H231 0.948 . S
C203 C202 1.419 . S
C203 C204 1.391 . S
C203 C207 1.397 . S
C204 C199 1.391 . S
C204 C203 1.391 . S
C204 C205 1.399 . S
C205 C204 1.399 . S
C205 C206 1.396 . S
C205 C208 1.453 . S
C205 C209 1.684 . S
C206 C187 1.723 . S
C206 C205 1.396 . S
C206 C207 1.394 . S
C207 C203 1.397 . S
C207 C206 1.394 . S
C207 C217 1.723 . S
C208 C205 1.453 . S
C208 H232 0.982 . S
C208 H233 0.979 . S
C208 H234 0.977 . S
C209 C205 1.684 . S
C209 H235 0.979 . S
C209 H236 0.980 . S
C209 H237 0.983 . S
C210 H186 0.948 . S
C210 C211 1.391 . S
C210 C215 1.391 . S
C211 C210 1.391 . S
C211 C212 1.391 . S
C212 H189 0.947 . S
C212 C211 1.391 . S
C212 C213 1.392 . S
C213 H190 0.948 . S
C213 C212 1.392 . S
C213 C214 1.419 . S
C214 C213 1.419 . S
C214 C215 1.391 . S
C214 C218 1.397 . S
C215 C210 1.391 . S
C215 C214 1.391 . S
C215 C216 1.399 . S
C216 C215 1.399 . S
C216 C217 1.396 . S
C216 C219 1.453 . S
C216 C220 1.684 . S
C217 C207 1.723 . S
C217 C216 1.396 . S
C217 C218 1.394 . S
C218 C188 1.723 . S
C218 C214 1.397 . S
C218 C217 1.394 . S
C219 H191 0.982 . S
C219 H195 0.979 . S
C219 H196 0.977 . S
C219 C216 1.453 . S
C220 H192 0.979 . S
C220 H193 0.980 . S
C220 H194 0.983 . S
C220 C216 1.684 . S
H221 C239 0.948 . S
H222 C180 0.948 . S
H223 C198 0.979 . S
H224 C198 0.980 . S
H225 C198 0.983 . S
H226 C197 0.982 . S
H227 C197 0.979 . S
H228 C197 0.977 . S
H229 C199 0.948 . S
H230 C201 0.947 . S
H231 C202 0.948 . S
H232 C208 0.982 . S
H233 C208 0.979 . S
H234 C208 0.977 . S
H235 C209 0.979 . S
H236 C209 0.980 . S
H237 C209 0.983 . S
H238 C182 0.947 . S
C239 C182 1.392 . S
C239 C183 1.419 . S
C239 H221 0.948 . S
C240 C241 1.391 . S
C240 C244 1.391 . S
C240 H282 0.948 . S
C241 C240 1.391 . S
C241 C242 1.391 . S
C242 C241 1.391 . S
C242 H298 0.947 . S
C242 C299 1.392 . S
C243 C244 1.391 . S
C243 C247 1.397 . S
C243 C299 1.419 . S
C244 C240 1.391 . S
C244 C243 1.391 . S
C244 C245 1.399 . S
C245 C244 1.399 . S
C245 C248 1.396 . S
C245 C257 1.453 . S
C245 C258 1.684 . S
H246 C270 0.948 . S
C247 C243 1.397 . S
C247 C248 1.394 . S
C247 C266 1.723 . S
C248 C245 1.396 . S
C248 C247 1.394 . S
C248 C278 1.723 . S
H249 C272 0.947 . S
H250 C273 0.948 . S
H251 C279 0.982 . S
H252 C280 0.979 . S
H253 C280 0.980 . S
H254 C280 0.983 . S
H255 C279 0.979 . S
H256 C279 0.977 . S
C257 C245 1.453 . S
C257 H286 0.982 . S
C257 H287 0.979 . S
C257 H288 0.977 . S
C258 C245 1.684 . S
C258 H283 0.979 . S
C258 H284 0.980 . S
C258 H285 0.983 . S
C259 C260 1.391 . S
C259 C264 1.391 . S
C259 H289 0.948 . S
C260 C259 1.391 . S
C260 C261 1.391 . S
C261 C260 1.391 . S
C261 C262 1.392 . S
C261 H290 0.947 . S
C262 C261 1.392 . S
C262 C263 1.419 . S
C262 H291 0.948 . S
C263 C262 1.419 . S
C263 C264 1.391 . S
C263 C267 1.397 . S
C264 C259 1.391 . S
C264 C263 1.391 . S
C264 C265 1.399 . S
C265 C264 1.399 . S
C265 C266 1.396 . S
C265 C268 1.453 . S
C265 C269 1.684 . S
C266 C247 1.723 . S
C266 C265 1.396 . S
C266 C267 1.394 . S
C267 C263 1.397 . S
C267 C266 1.394 . S
C267 C277 1.723 . S
C268 C265 1.453 . S
C268 H292 0.982 . S
C268 H293 0.979 . S
C268 H294 0.977 . S
C269 C265 1.684 . S
C269 H295 0.979 . S
C269 H296 0.980 . S
C269 H297 0.983 . S
C270 H246 0.948 . S
C270 C271 1.391 . S
C270 C275 1.391 . S
C271 C270 1.391 . S
C271 C272 1.391 . S
C272 H249 0.947 . S
C272 C271 1.391 . S
C272 C273 1.392 . S
C273 H250 0.948 . S
C273 C272 1.392 . S
C273 C274 1.419 . S
C274 C273 1.419 . S
C274 C275 1.391 . S
C274 C278 1.397 . S
C275 C270 1.391 . S
C275 C274 1.391 . S
C275 C276 1.399 . S
C276 C275 1.399 . S
C276 C277 1.396 . S
C276 C279 1.453 . S
C276 C280 1.684 . S
C277 C267 1.723 . S
C277 C276 1.396 . S
C277 C278 1.394 . S
C278 C248 1.723 . S
C278 C274 1.397 . S
C278 C277 1.394 . S
C279 H251 0.982 . S
C279 H255 0.979 . S
C279 H256 0.977 . S
C279 C276 1.453 . S
C280 H252 0.979 . S
C280 H253 0.980 . S
C280 H254 0.983 . S
C280 C276 1.684 . S
H281 C299 0.948 . S
H282 C240 0.948 . S
H283 C258 0.979 . S
H284 C258 0.980 . S
H285 C258 0.983 . S
H286 C257 0.982 . S
H287 C257 0.979 . S
H288 C257 0.977 . S
H289 C259 0.948 . S
H290 C261 0.947 . S
H291 C262 0.948 . S
H292 C268 0.982 . S
H293 C268 0.979 . S
H294 C268 0.977 . S
H295 C269 0.979 . S
H296 C269 0.980 . S
H297 C269 0.983 . S
H298 C242 0.947 . S
C299 C242 1.392 . S
C299 C243 1.419 . S
C299 H281 0.948 . S
C300 C301 1.391 . S
C300 C304 1.391 . S
C300 H342 0.948 . S
C301 C300 1.391 . S
C301 C302 1.391 . S
C302 C301 1.391 . S
C302 H358 0.947 . S
C302 C359 1.392 . S
C303 C304 1.391 . S
C303 C307 1.397 . S
C303 C359 1.419 . S
C304 C300 1.391 . S
C304 C303 1.391 . S
C304 C305 1.399 . S
C305 C304 1.399 . S
C305 C308 1.396 . S
C305 C317 1.453 . S
C305 C318 1.684 . S
H306 C330 0.948 . S
C307 C303 1.397 . S
C307 C308 1.394 . S
C307 C326 1.723 . S
C308 C305 1.396 . S
C308 C307 1.394 . S
C308 C338 1.723 . S
H309 C332 0.947 . S
H310 C333 0.948 . S
H311 C339 0.982 . S
H312 C340 0.979 . S
H313 C340 0.980 . S
H314 C340 0.983 . S
H315 C339 0.979 . S
H316 C339 0.977 . S
C317 C305 1.453 . S
C317 H346 0.982 . S
C317 H347 0.979 . S
C317 H348 0.977 . S
C318 C305 1.684 . S
C318 H343 0.979 . S
C318 H344 0.980 . S
C318 H345 0.983 . S
C319 C320 1.391 . S
C319 C324 1.391 . S
C319 H349 0.948 . S
C320 C319 1.391 . S
C320 C321 1.391 . S
C321 C320 1.391 . S
C321 C322 1.392 . S
C321 H350 0.947 . S
C322 C321 1.392 . S
C322 C323 1.419 . S
C322 H351 0.948 . S
C323 C322 1.419 . S
C323 C324 1.391 . S
C323 C327 1.397 . S
C324 C319 1.391 . S
C324 C323 1.391 . S
C324 C325 1.399 . S
C325 C324 1.399 . S
C325 C326 1.396 . S
C325 C328 1.453 . S
C325 C329 1.684 . S
C326 C307 1.723 . S
C326 C325 1.396 . S
C326 C327 1.394 . S
C327 C323 1.397 . S
C327 C326 1.394 . S
C327 C337 1.723 . S
C328 C325 1.453 . S
C328 H352 0.982 . S
C328 H353 0.979 . S
C328 H354 0.977 . S
C329 C325 1.684 . S
C329 H355 0.979 . S
C329 H356 0.980 . S
C329 H357 0.983 . S
C330 H306 0.948 . S
C330 C331 1.391 . S
C330 C335 1.391 . S
C331 C330 1.391 . S
C331 C332 1.391 . S
C332 H309 0.947 . S
C332 C331 1.391 . S
C332 C333 1.392 . S
C333 H310 0.948 . S
C333 C332 1.392 . S
C333 C334 1.419 . S
C334 C333 1.419 . S
C334 C335 1.391 . S
C334 C338 1.397 . S
C335 C330 1.391 . S
C335 C334 1.391 . S
C335 C336 1.399 . S
C336 C335 1.399 . S
C336 C337 1.396 . S
C336 C339 1.453 . S
C336 C340 1.684 . S
C337 C327 1.723 . S
C337 C336 1.396 . S
C337 C338 1.394 . S
C338 C308 1.723 . S
C338 C334 1.397 . S
C338 C337 1.394 . S
C339 H311 0.982 . S
C339 H315 0.979 . S
C339 H316 0.977 . S
C339 C336 1.453 . S
C340 H312 0.979 . S
C340 H313 0.980 . S
C340 H314 0.983 . S
C340 C336 1.684 . S
H341 C359 0.948 . S
H342 C300 0.948 . S
H343 C318 0.979 . S
H344 C318 0.980 . S
H345 C318 0.983 . S
H346 C317 0.982 . S
H347 C317 0.979 . S
H348 C317 0.977 . S
H349 C319 0.948 . S
H350 C321 0.947 . S
H351 C322 0.948 . S
H352 C328 0.982 . S
H353 C328 0.979 . S
H354 C328 0.977 . S
H355 C329 0.979 . S
H356 C329 0.980 . S
H357 C329 0.983 . S
H358 C302 0.947 . S
C359 C302 1.392 . S
C359 C303 1.419 . S
C359 H341 0.948 . S
C360 C361 1.391 . S
C360 C364 1.391 . S
C360 H402 0.948 . S
C361 C360 1.391 . S
C361 C362 1.391 . S
C362 C361 1.391 . S
C362 H418 0.947 . S
C362 C419 1.392 . S
C363 C364 1.391 . S
C363 C367 1.397 . S
C363 C419 1.419 . S
C364 C360 1.391 . S
C364 C363 1.391 . S
C364 C365 1.399 . S
C365 C364 1.399 . S
C365 C368 1.396 . S
C365 C377 1.453 . S
C365 C378 1.684 . S
H366 C390 0.948 . S
C367 C363 1.397 . S
C367 C368 1.394 . S
C367 C386 1.723 . S
C368 C365 1.396 . S
C368 C367 1.394 . S
C368 C398 1.723 . S
H369 C392 0.947 . S
H370 C393 0.948 . S
H371 C399 0.982 . S
H372 C400 0.979 . S
H373 C400 0.980 . S
H374 C400 0.983 . S
H375 C399 0.979 . S
H376 C399 0.977 . S
C377 C365 1.453 . S
C377 H406 0.982 . S
C377 H407 0.979 . S
C377 H408 0.977 . S
C378 C365 1.684 . S
C378 H403 0.979 . S
C378 H404 0.980 . S
C378 H405 0.983 . S
C379 C380 1.391 . S
C379 C384 1.391 . S
C379 H409 0.948 . S
C380 C379 1.391 . S
C380 C381 1.391 . S
C381 C380 1.391 . S
C381 C382 1.392 . S
C381 H410 0.947 . S
C382 C381 1.392 . S
C382 C383 1.419 . S
C382 H411 0.948 . S
C383 C382 1.419 . S
C383 C384 1.391 . S
C383 C387 1.397 . S
C384 C379 1.391 . S
C384 C383 1.391 . S
C384 C385 1.399 . S
C385 C384 1.399 . S
C385 C386 1.396 . S
C385 C388 1.453 . S
C385 C389 1.684 . S
C386 C367 1.723 . S
C386 C385 1.396 . S
C386 C387 1.394 . S
C387 C383 1.397 . S
C387 C386 1.394 . S
C387 C397 1.723 . S
C388 C385 1.453 . S
C388 H412 0.982 . S
C388 H413 0.979 . S
C388 H414 0.977 . S
C389 C385 1.684 . S
C389 H415 0.979 . S
C389 H416 0.980 . S
C389 H417 0.983 . S
C390 H366 0.948 . S
C390 C391 1.391 . S
C390 C395 1.391 . S
C391 C390 1.391 . S
C391 C392 1.391 . S
C392 H369 0.947 . S
C392 C391 1.391 . S
C392 C393 1.392 . S
C393 H370 0.948 . S
C393 C392 1.392 . S
C393 C394 1.419 . S
C394 C393 1.419 . S
C394 C395 1.391 . S
C394 C398 1.397 . S
C395 C390 1.391 . S
C395 C394 1.391 . S
C395 C396 1.399 . S
C396 C395 1.399 . S
C396 C397 1.396 . S
C396 C399 1.453 . S
C396 C400 1.684 . S
C397 C387 1.723 . S
C397 C396 1.396 . S
C397 C398 1.394 . S
C398 C368 1.723 . S
C398 C394 1.397 . S
C398 C397 1.394 . S
C399 H371 0.982 . S
C399 H375 0.979 . S
C399 H376 0.977 . S
C399 C396 1.453 . S
C400 H372 0.979 . S
C400 H373 0.980 . S
C400 H374 0.983 . S
C400 C396 1.684 . S
H401 C419 0.948 . S
H402 C360 0.948 . S
H403 C378 0.979 . S
H404 C378 0.980 . S
H405 C378 0.983 . S
H406 C377 0.982 . S
H407 C377 0.979 . S
H408 C377 0.977 . S
H409 C379 0.948 . S
H410 C381 0.947 . S
H411 C382 0.948 . S
H412 C388 0.982 . S
H413 C388 0.979 . S
H414 C388 0.977 . S
H415 C389 0.979 . S
H416 C389 0.980 . S
H417 C389 0.983 . S
H418 C362 0.947 . S
C419 C362 1.392 . S
C419 C363 1.419 . S
C419 H401 0.948 . S
C420 C421 1.391 . S
C420 C424 1.391 . S
C420 H462 0.948 . S
C421 C420 1.391 . S
C421 C422 1.391 . S
C422 C421 1.391 . S
C422 H478 0.947 . S
C422 C479 1.392 . S
C423 C424 1.391 . S
C423 C427 1.397 . S
C423 C479 1.419 . S
C424 C420 1.391 . S
C424 C423 1.391 . S
C424 C425 1.399 . S
C425 C424 1.399 . S
C425 C428 1.396 . S
C425 C437 1.453 . S
C425 C438 1.684 . S
H426 C450 0.948 . S
C427 C423 1.397 . S
C427 C428 1.394 . S
C427 C446 1.723 . S
C428 C425 1.396 . S
C428 C427 1.394 . S
C428 C458 1.723 . S
H429 C452 0.947 . S
H430 C453 0.948 . S
H431 C459 0.982 . S
H432 C460 0.979 . S
H433 C460 0.980 . S
H434 C460 0.983 . S
H435 C459 0.979 . S
H436 C459 0.977 . S
C437 C425 1.453 . S
C437 H466 0.982 . S
C437 H467 0.979 . S
C437 H468 0.977 . S
C438 C425 1.684 . S
C438 H463 0.979 . S
C438 H464 0.980 . S
C438 H465 0.983 . S
C439 C440 1.391 . S
C439 C444 1.391 . S
C439 H469 0.948 . S
C440 C439 1.391 . S
C440 C441 1.391 . S
C441 C440 1.391 . S
C441 C442 1.392 . S
C441 H470 0.947 . S
C442 C441 1.392 . S
C442 C443 1.419 . S
C442 H471 0.948 . S
C443 C442 1.419 . S
C443 C444 1.391 . S
C443 C447 1.397 . S
C444 C439 1.391 . S
C444 C443 1.391 . S
C444 C445 1.399 . S
C445 C444 1.399 . S
C445 C446 1.396 . S
C445 C448 1.453 . S
C445 C449 1.684 . S
C446 C427 1.723 . S
C446 C445 1.396 . S
C446 C447 1.394 . S
C447 C443 1.397 . S
C447 C446 1.394 . S
C447 C457 1.723 . S
C448 C445 1.453 . S
C448 H472 0.982 . S
C448 H473 0.979 . S
C448 H474 0.977 . S
C449 C445 1.684 . S
C449 H475 0.979 . S
C449 H476 0.980 . S
C449 H477 0.983 . S
C450 H426 0.948 . S
C450 C451 1.391 . S
C450 C455 1.391 . S
C451 C450 1.391 . S
C451 C452 1.391 . S
C452 H429 0.947 . S
C452 C451 1.391 . S
C452 C453 1.392 . S
C453 H430 0.948 . S
C453 C452 1.392 . S
C453 C454 1.419 . S
C454 C453 1.419 . S
C454 C455 1.391 . S
C454 C458 1.397 . S
C455 C450 1.391 . S
C455 C454 1.391 . S
C455 C456 1.399 . S
C456 C455 1.399 . S
C456 C457 1.396 . S
C456 C459 1.453 . S
C456 C460 1.684 . S
C457 C447 1.723 . S
C457 C456 1.396 . S
C457 C458 1.394 . S
C458 C428 1.723 . S
C458 C454 1.397 . S
C458 C457 1.394 . S
C459 H431 0.982 . S
C459 H435 0.979 . S
C459 H436 0.977 . S
C459 C456 1.453 . S
C460 H432 0.979 . S
C460 H433 0.980 . S
C460 H434 0.983 . S
C460 C456 1.684 . S
H461 C479 0.948 . S
H462 C420 0.948 . S
H463 C438 0.979 . S
H464 C438 0.980 . S
H465 C438 0.983 . S
H466 C437 0.982 . S
H467 C437 0.979 . S
H468 C437 0.977 . S
H469 C439 0.948 . S
H470 C441 0.947 . S
H471 C442 0.948 . S
H472 C448 0.982 . S
H473 C448 0.979 . S
H474 C448 0.977 . S
H475 C449 0.979 . S
H476 C449 0.980 . S
H477 C449 0.983 . S
H478 C422 0.947 . S
C479 C422 1.392 . S
C479 C423 1.419 . S
C479 H461 0.948 . S
C480 C481 1.443 . S
C480 N484 1.376 . S
C480 C518 1.389 . S
C481 C480 1.443 . S
C481 C482 1.340 . S
C481 H521 0.951 . S
C482 C481 1.340 . S
C482 C483 1.439 . S
C482 H522 0.950 . S
C483 C482 1.439 . S
C483 N484 1.374 . S
C483 C517 1.395 . S
N484 C480 1.376 . S
N484 C483 1.374 . S
N484 Co485 2.008 . S
Co485 N484 2.008 . S
Co485 N486 1.982 1_455 S
Co485 N491 2.008 . S
Co485 N496 1.995 . S
Co485 N501 2.282 . S
Co485 N507 2.282 1_455 S
N486 Co485 1.982 1_655 S
N486 C487 1.376 . S
N486 C490 1.398 . S
C487 N486 1.376 . S
C487 C488 1.463 . S
C487 C517 1.375 1_655 S
C488 C487 1.463 . S
C488 C489 1.339 . S
C488 H523 0.949 . S
C489 C488 1.339 . S
C489 C490 1.439 . S
C489 H524 0.950 . S
C490 N486 1.398 . S
C490 C489 1.439 . S
C490 C519 1.392 . S
N491 Co485 2.008 . S
N491 C492 1.376 1_455 S
N491 C495 1.374 . S
C492 N491 1.376 1_655 S
C492 C493 1.443 . S
C492 C519 1.389 . S
C493 C492 1.443 . S
C493 C494 1.340 . S
C493 H525 0.951 . S
C494 C493 1.340 . S
C494 C495 1.439 1_655 S
C494 H526 0.950 . S
C495 N491 1.374 . S
C495 C494 1.439 1_455 S
C495 C520 1.395 . S
N496 Co485 1.995 . S
N496 C497 1.376 . S
N496 C500 1.383 . S
C497 N496 1.376 . S
C497 C498 1.446 . S
C497 C520 1.391 . S
C498 C497 1.446 . S
C498 C499 1.339 . S
C498 H527 0.949 . S
C499 C498 1.339 . S
C499 C500 1.439 . S
C499 H528 0.950 . S
C500 N496 1.383 . S
C500 C499 1.439 . S
C500 C518 1.392 . S
N501 Co485 2.282 . S
N501 C504 1.332 . S
N501 C506 1.332 . S
C502 C503 1.386 . S
C502 C505 1.388 . S
C503 C502 1.386 . S
C503 C504 1.382 . S
C503 H529 0.950 . S
C504 N501 1.332 . S
C504 C503 1.382 . S
C504 H515 0.952 . S
C505 C502 1.388 . S
C505 C506 1.382 . S
C505 H530 0.950 . S
C506 N501 1.332 . S
C506 C505 1.382 . S
C506 H516 0.948 . S
N507 Co485 2.282 1_655 S
N507 C511 1.332 . S
N507 C512 1.332 . S
C508 C509 1.388 . S
C508 C512 1.382 . S
C508 H531 0.950 . S
C509 C508 1.388 . S
C509 C510 1.386 . S
C510 C509 1.386 . S
C510 C511 1.382 . S
C510 H532 0.950 . S
C511 N507 1.332 . S
C511 C510 1.382 . S
C511 H513 0.952 . S
C512 N507 1.332 . S
C512 C508 1.382 . S
C512 H514 0.948 . S
H513 C511 0.952 . S
H514 C512 0.948 . S
H515 C504 0.952 . S
H516 C506 0.948 . S
C517 C483 1.395 . S
C517 C487 1.375 1_455 S
C518 C480 1.389 . S
C518 C500 1.392 . S
C519 C490 1.392 . S
C519 C492 1.389 . S
C520 C495 1.395 . S
C520 C497 1.391 . S
H521 C481 0.951 . S
H522 C482 0.950 . S
H523 C488 0.949 . S
H524 C489 0.950 . S
H525 C493 0.951 . S
H526 C494 0.950 . S
H527 C498 0.949 . S
H528 C499 0.950 . S
H529 C503 0.950 . S
H530 C505 0.950 . S
H531 C508 0.950 . S
H532 C510 0.950 . S
C533 C534 1.443 . S
C533 N537 1.376 . S
C533 C571 1.389 . S
C534 C533 1.443 . S
C534 C535 1.340 . S
C534 H574 0.951 . S
C535 C534 1.340 . S
C535 C536 1.439 . S
C535 H575 0.950 . S
C536 C535 1.439 . S
C536 N537 1.374 . S
C536 C570 1.395 . S
N537 C533 1.376 . S
N537 C536 1.374 . S
N537 Co538 2.008 . S
Co538 N537 2.008 . S
Co538 N539 1.995 1_455 S
Co538 N544 2.008 1_455 S
Co538 N549 1.995 . S
Co538 N554 2.282 . S
Co538 N560 2.282 1_455 S
N539 Co538 1.995 1_655 S
N539 C540 1.376 . S
N539 C543 1.383 . S
C540 N539 1.376 . S
C540 C541 1.446 . S
C540 C570 1.391 1_655 S
C541 C540 1.446 . S
C541 C542 1.339 . S
C541 H576 0.949 . S
C542 C541 1.339 . S
C542 C543 1.439 . S
C542 H577 0.950 . S
C543 N539 1.383 . S
C543 C542 1.439 . S
C543 C572 1.392 . S
N544 Co538 2.008 1_655 S
N544 C545 1.376 . S
N544 C548 1.374 1_655 S
C545 N544 1.376 . S
C545 C546 1.443 . S
C545 C572 1.389 . S
C546 C545 1.443 . S
C546 C547 1.340 . S
C546 H578 0.951 . S
C547 C546 1.340 . S
C547 C548 1.439 1_655 S
C547 H579 0.950 . S
C548 N544 1.374 1_455 S
C548 C547 1.439 1_455 S
C548 C573 1.395 . S
N549 Co538 1.995 . S
N549 C550 1.376 . S
N549 C553 1.383 . S
C550 N549 1.376 . S
C550 C551 1.446 . S
C550 C573 1.391 . S
C551 C550 1.446 . S
C551 C552 1.339 . S
C551 H580 0.949 . S
C552 C551 1.339 . S
C552 C553 1.439 . S
C552 H581 0.950 . S
C553 N549 1.383 . S
C553 C552 1.439 . S
C553 C571 1.392 . S
N554 Co538 2.282 . S
N554 C557 1.332 . S
N554 C559 1.332 . S
C555 C556 1.386 . S
C555 C558 1.388 . S
C556 C555 1.386 . S
C556 C557 1.382 . S
C556 H582 0.950 . S
C557 N554 1.332 . S
C557 C556 1.382 . S
C557 H568 0.952 . S
C558 C555 1.388 . S
C558 C559 1.382 . S
C558 H583 0.950 . S
C559 N554 1.332 . S
C559 C558 1.382 . S
C559 H569 0.948 . S
N560 Co538 2.282 1_655 S
N560 C564 1.332 . S
N560 C565 1.332 . S
C561 C562 1.388 . S
C561 C565 1.382 . S
C561 H584 0.950 . S
C562 C561 1.388 . S
C562 C563 1.386 . S
C563 C562 1.386 . S
C563 C564 1.382 . S
C563 H585 0.950 . S
C564 N560 1.332 . S
C564 C563 1.382 . S
C564 H566 0.952 . S
C565 N560 1.332 . S
C565 C561 1.382 . S
C565 H567 0.948 . S
H566 C564 0.952 . S
H567 C565 0.948 . S
H568 C557 0.952 . S
H569 C559 0.948 . S
C570 C536 1.395 . S
C570 C540 1.391 1_455 S
C571 C533 1.389 . S
C571 C553 1.392 . S
C572 C543 1.392 . S
C572 C545 1.389 . S
C573 C548 1.395 . S
C573 C550 1.391 . S
H574 C534 0.951 . S
H575 C535 0.950 . S
H576 C541 0.949 . S
H577 C542 0.950 . S
H578 C546 0.951 . S
H579 C547 0.950 . S
H580 C551 0.949 . S
H581 C552 0.950 . S
H582 C556 0.950 . S
H583 C558 0.950 . S
H584 C561 0.950 . S
H585 C563 0.950 . S
C586 C587 1.443 . S
C586 N590 1.376 . S
C586 C624 1.389 . S
C587 C586 1.443 . S
C587 C588 1.340 . S
C587 H627 0.951 . S
C588 C587 1.340 . S
C588 C589 1.439 . S
C588 H628 0.950 . S
C589 C588 1.439 . S
C589 N590 1.374 . S
C589 C623 1.395 1_565 S
N590 C586 1.376 . S
N590 C589 1.374 . S
N590 Co591 2.008 1_565 S
Co591 N590 2.008 1_545 S
Co591 N592 1.995 . S
Co591 N597 2.008 . S
Co591 N602 1.995 1_545 S
Co591 N607 2.282 . S
Co591 N613 2.282 1_545 S
N592 Co591 1.995 . S
N592 C593 1.376 . S
N592 C596 1.383 . S
C593 N592 1.376 . S
C593 C594 1.446 . S
C593 C623 1.391 . S
C594 C593 1.446 . S
C594 C595 1.339 . S
C594 H629 0.949 . S
C595 C594 1.339 . S
C595 C596 1.439 . S
C595 H630 0.950 . S
C596 N592 1.383 . S
C596 C595 1.439 . S
C596 C625 1.392 . S
N597 Co591 2.008 . S
N597 C598 1.376 . S
N597 C601 1.374 . S
C598 N597 1.376 . S
C598 C599 1.443 . S
C598 C625 1.389 . S
C599 C598 1.443 . S
C599 C600 1.340 . S
C599 H631 0.951 . S
C600 C599 1.340 . S
C600 C601 1.439 . S
C600 H632 0.950 . S
C601 N597 1.374 . S
C601 C600 1.439 . S
C601 C626 1.395 . S
N602 Co591 1.995 1_565 S
N602 C603 1.376 . S
N602 C606 1.383 . S
C603 N602 1.376 . S
C603 C604 1.446 . S
C603 C626 1.391 1_565 S
C604 C603 1.446 . S
C604 C605 1.339 . S
C604 H633 0.949 . S
C605 C604 1.339 . S
C605 C606 1.439 . S
C605 H634 0.950 . S
C606 N602 1.383 . S
C606 C605 1.439 . S
C606 C624 1.392 . S
N607 Co591 2.282 . S
N607 C610 1.332 . S
N607 C612 1.332 . S
C608 C609 1.386 . S
C608 C611 1.388 . S
C609 C608 1.386 . S
C609 C610 1.382 . S
C609 H635 0.950 . S
C610 N607 1.332 . S
C610 C609 1.382 . S
C610 H621 0.952 . S
C611 C608 1.388 . S
C611 C612 1.382 . S
C611 H636 0.950 . S
C612 N607 1.332 . S
C612 C611 1.382 . S
C612 H622 0.948 . S
N613 Co591 2.282 1_565 S
N613 C617 1.332 . S
N613 C618 1.332 . S
C614 C615 1.388 . S
C614 C618 1.382 . S
C614 H637 0.950 . S
C615 C614 1.388 . S
C615 C616 1.386 . S
C616 C615 1.386 . S
C616 C617 1.382 . S
C616 H638 0.950 . S
C617 N613 1.332 . S
C617 C616 1.382 . S
C617 H619 0.952 . S
C618 N613 1.332 . S
C618 C614 1.382 . S
C618 H620 0.948 . S
H619 C617 0.952 . S
H620 C618 0.948 . S
H621 C610 0.952 . S
H622 C612 0.948 . S
C623 C589 1.395 1_545 S
C623 C593 1.391 . S
C624 C586 1.389 . S
C624 C606 1.392 . S
C625 C596 1.392 . S
C625 C598 1.389 . S
C626 C601 1.395 . S
C626 C603 1.391 1_545 S
H627 C587 0.951 . S
H628 C588 0.950 . S
H629 C594 0.949 . S
H630 C595 0.950 . S
H631 C599 0.951 . S
H632 C600 0.950 . S
H633 C604 0.949 . S
H634 C605 0.950 . S
H635 C609 0.950 . S
H636 C611 0.950 . S
H637 C614 0.950 . S
H638 C616 0.950 . S
C639 C640 1.443 . S
C639 N643 1.376 . S
C639 C677 1.389 . S
C640 C639 1.443 . S
C640 C641 1.340 . S
C640 H680 0.951 . S
C641 C640 1.340 . S
C641 C642 1.439 . S
C641 H681 0.950 . S
C642 C641 1.439 . S
C642 N643 1.374 . S
C642 C676 1.395 . S
N643 C639 1.376 . S
N643 C642 1.374 . S
N643 Co644 2.008 . S
Co644 N643 2.008 . S
Co644 N645 2.016 . S
Co644 N650 1.985 1_554 S
Co644 N655 1.995 . S
Co644 N660 2.282 1_554 S
Co644 N666 2.282 . S
N645 Co644 2.016 . S
N645 C646 1.384 . S
N645 C649 1.347 1_554 S
C646 N645 1.384 . S
C646 C647 1.446 1_554 S
C646 C676 1.391 . S
C647 C646 1.446 1_556 S
C647 C648 1.339 . S
C647 H682 0.949 . S
C648 C647 1.339 . S
C648 C649 1.439 . S
C648 H683 0.950 . S
C649 N645 1.347 1_556 S
C649 C648 1.439 . S
C649 C678 1.392 . S
N650 Co644 1.985 1_556 S
N650 C651 1.410 . S
N650 C654 1.374 1_556 S
C651 N650 1.410 . S
C651 C652 1.443 . S
C651 C678 1.389 . S
C652 C651 1.443 . S
C652 C653 1.340 . S
C652 H684 0.951 . S
C653 C652 1.340 . S
C653 C654 1.436 1_556 S
C653 H685 0.950 . S
C654 N650 1.374 1_554 S
C654 C653 1.436 1_554 S
C654 C679 1.397 . S
N655 Co644 1.995 . S
N655 C656 1.376 . S
N655 C659 1.383 . S
C656 N655 1.376 . S
C656 C657 1.446 . S
C656 C679 1.391 . S
C657 C656 1.446 . S
C657 C658 1.339 . S
C657 H686 0.949 . S
C658 C657 1.339 . S
C658 C659 1.439 . S
C658 H687 0.950 . S
C659 N655 1.383 . S
C659 C658 1.439 . S
C659 C677 1.392 . S
N660 Co644 2.282 1_556 S
N660 C663 1.332 . S
N660 C665 1.332 . S
C661 C662 1.386 . S
C661 C664 1.388 . S
C662 C661 1.386 . S
C662 C663 1.382 . S
C662 H688 0.950 . S
C663 N660 1.332 . S
C663 C662 1.382 . S
C663 H674 0.952 . S
C664 C661 1.388 . S
C664 C665 1.382 . S
C664 H689 0.950 . S
C665 N660 1.332 . S
C665 C664 1.382 . S
C665 H675 0.948 . S
N666 Co644 2.282 . S
N666 C670 1.332 . S
N666 C671 1.332 . S
C667 C668 1.388 . S
C667 C671 1.382 . S
C667 H690 0.950 . S
C668 C667 1.388 . S
C668 C669 1.386 . S
C669 C668 1.386 . S
C669 C670 1.382 . S
C669 H691 0.950 . S
C670 N666 1.332 . S
C670 C669 1.382 . S
C670 H672 0.952 . S
C671 N666 1.332 . S
C671 C667 1.382 . S
C671 H673 0.948 . S
H672 C670 0.952 . S
H673 C671 0.948 . S
H674 C663 0.952 . S
H675 C665 0.948 . S
C676 C642 1.395 . S
C676 C646 1.391 . S
C677 C639 1.389 . S
C677 C659 1.392 . S
C678 C649 1.392 . S
C678 C651 1.389 . S
C679 C654 1.397 . S
C679 C656 1.391 . S
H680 C640 0.951 . S
H681 C641 0.950 . S
H682 C647 0.949 . S
H683 C648 0.950 . S
H684 C652 0.951 . S
H685 C653 0.950 . S
H686 C657 0.949 . S
H687 C658 0.950 . S
H688 C662 0.950 . S
H689 C664 0.950 . S
H690 C667 0.950 . S
H691 C669 0.950 . S
C692 C693 1.443 . S
C692 N696 1.376 1_565 S
C692 C730 1.389 . S
C693 C692 1.443 . S
C693 C694 1.340 . S
C693 H733 0.951 . S
C694 C693 1.340 . S
C694 C695 1.439 1_565 S
C694 H734 0.950 . S
C695 C694 1.439 1_545 S
C695 N696 1.374 . S
C695 C729 1.395 . S
N696 C692 1.376 1_545 S
N696 C695 1.374 . S
N696 Co697 2.008 . S
Co697 N696 2.008 . S
Co697 N698 1.995 . S
Co697 N703 2.008 . S
Co697 N708 1.995 . S
Co697 N713 2.282 . S
Co697 N719 2.282 1_545 S
N698 Co697 1.995 . S
N698 C699 1.376 . S
N698 C702 1.383 . S
C699 N698 1.376 . S
C699 C700 1.446 . S
C699 C729 1.391 . S
C700 C699 1.446 . S
C700 C701 1.339 . S
C700 H735 0.949 . S
C701 C700 1.339 . S
C701 C702 1.439 . S
C701 H736 0.950 . S
C702 N698 1.383 . S
C702 C701 1.439 . S
C702 C731 1.392 . S
N703 Co697 2.008 . S
N703 C704 1.376 . S
N703 C707 1.374 . S
C704 N703 1.376 . S
C704 C705 1.443 . S
C704 C731 1.389 . S
C705 C704 1.443 . S
C705 C706 1.340 . S
C705 H737 0.951 . S
C706 C705 1.340 . S
C706 C707 1.439 . S
C706 H738 0.950 . S
C707 N703 1.374 . S
C707 C706 1.439 . S
C707 C732 1.395 . S
N708 Co697 1.995 . S
N708 C709 1.376 . S
N708 C712 1.383 1_545 S
C709 N708 1.376 . S
C709 C710 1.446 1_545 S
C709 C732 1.391 . S
C710 C709 1.446 1_565 S
C710 C711 1.339 . S
C710 H739 0.949 . S
C711 C710 1.339 . S
C711 C712 1.439 . S
C711 H740 0.950 . S
C712 N708 1.383 1_565 S
C712 C711 1.439 . S
C712 C730 1.392 . S
N713 Co697 2.282 . S
N713 C716 1.332 . S
N713 C718 1.332 . S
C714 C715 1.386 . S
C714 C717 1.388 . S
C715 C714 1.386 . S
C715 C716 1.382 . S
C715 H741 0.950 . S
C716 N713 1.332 . S
C716 C715 1.382 . S
C716 H727 0.952 . S
C717 C714 1.388 . S
C717 C718 1.382 . S
C717 H742 0.950 . S
C718 N713 1.332 . S
C718 C717 1.382 . S
C718 H728 0.948 . S
N719 Co697 2.282 1_565 S
N719 C723 1.332 . S
N719 C724 1.332 . S
C720 C721 1.388 . S
C720 C724 1.382 . S
C720 H743 0.950 . S
C721 C720 1.388 . S
C721 C722 1.386 . S
C722 C721 1.386 . S
C722 C723 1.382 . S
C722 H744 0.950 . S
C723 N719 1.332 . S
C723 C722 1.382 . S
C723 H725 0.952 . S
C724 N719 1.332 . S
C724 C720 1.382 . S
C724 H726 0.948 . S
H725 C723 0.952 . S
H726 C724 0.948 . S
H727 C716 0.952 . S
H728 C718 0.948 . S
C729 C695 1.395 . S
C729 C699 1.391 . S
C730 C692 1.389 . S
C730 C712 1.392 . S
C731 C702 1.392 . S
C731 C704 1.389 . S
C732 C707 1.395 . S
C732 C709 1.391 . S
H733 C693 0.951 . S
H734 C694 0.950 . S
H735 C700 0.949 . S
H736 C701 0.950 . S
H737 C705 0.951 . S
H738 C706 0.950 . S
H739 C710 0.949 . S
H740 C711 0.950 . S
H741 C715 0.950 . S
H742 C717 0.950 . S
H743 C720 0.950 . S
H744 C722 0.950 . S
C745 C746 1.443 . S
C745 N749 1.376 . S
C745 C783 1.389 . S
C746 C745 1.443 . S
C746 C747 1.340 . S
C746 H786 0.951 . S
C747 C746 1.340 . S
C747 C748 1.439 . S
C747 H787 0.950 . S
C748 C747 1.439 . S
C748 N749 1.374 . S
C748 C782 1.395 . S
N749 C745 1.376 . S
N749 C748 1.374 . S
N749 Co750 2.008 . S
Co750 N749 2.008 . S
Co750 N751 1.995 . S
Co750 N756 2.008 . S
Co750 N761 1.995 . S
Co750 N766 2.310 . S
Co750 N772 2.282 . S
N751 Co750 1.995 . S
N751 C752 1.376 . S
N751 C755 1.383 1_554 S
C752 N751 1.376 . S
C752 C753 1.446 1_554 S
C752 C782 1.391 . S
C753 C752 1.446 1_556 S
C753 C754 1.339 . S
C753 H788 0.949 . S
C754 C753 1.339 . S
C754 C755 1.439 . S
C754 H789 0.950 . S
C755 N751 1.383 1_556 S
C755 C754 1.439 . S
C755 C784 1.392 . S
N756 Co750 2.008 . S
N756 C757 1.376 1_554 S
N756 C760 1.374 . S
C757 N756 1.376 1_556 S
C757 C758 1.443 . S
C757 C784 1.389 . S
C758 C757 1.443 . S
C758 C759 1.340 . S
C758 H790 0.951 . S
C759 C758 1.340 . S
C759 C760 1.439 1_556 S
C759 H791 0.950 . S
C760 N756 1.374 . S
C760 C759 1.439 1_554 S
C760 C785 1.395 . S
N761 Co750 1.995 . S
N761 C762 1.376 . S
N761 C765 1.383 . S
C762 N761 1.376 . S
C762 C763 1.446 . S
C762 C785 1.391 . S
C763 C762 1.446 . S
C763 C764 1.339 . S
C763 H792 0.949 . S
C764 C763 1.339 . S
C764 C765 1.439 . S
C764 H793 0.950 . S
C765 N761 1.383 . S
C765 C764 1.439 . S
C765 C783 1.392 . S
N766 Co750 2.310 . S
N766 C769 1.321 1_554 S
N766 C771 1.312 1_554 S
C767 C768 1.386 . S
C767 C770 1.388 . S
C768 C767 1.386 . S
C768 C769 1.382 . S
C768 H794 0.950 . S
C769 N766 1.321 1_556 S
C769 C768 1.382 . S
C769 H780 0.952 1_556 S
C770 C767 1.388 . S
C770 C771 1.382 . S
C770 H795 0.950 . S
C771 N766 1.312 1_556 S
C771 C770 1.382 . S
C771 H781 0.948 . S
N772 Co750 2.282 . S
N772 C776 1.332 . S
N772 C777 1.332 . S
C773 C774 1.388 . S
C773 C777 1.382 . S
C773 H796 0.950 . S
C774 C773 1.388 . S
C774 C775 1.386 . S
C775 C774 1.386 . S
C775 C776 1.382 . S
C775 H797 0.950 . S
C776 N772 1.332 . S
C776 C775 1.382 . S
C776 H778 0.952 . S
C777 N772 1.332 . S
C777 C773 1.382 . S
C777 H779 0.948 . S
H778 C776 0.952 . S
H779 C777 0.948 . S
H780 C769 0.952 1_554 S
H781 C771 0.948 . S
C782 C748 1.395 . S
C782 C752 1.391 . S
C783 C745 1.389 . S
C783 C765 1.392 . S
C784 C755 1.392 . S
C784 C757 1.389 . S
C785 C760 1.395 . S
C785 C762 1.391 . S
H786 C746 0.951 . S
H787 C747 0.950 . S
H788 C753 0.949 . S
H789 C754 0.950 . S
H790 C758 0.951 . S
H791 C759 0.950 . S
H792 C763 0.949 . S
H793 C764 0.950 . S
H794 C768 0.950 . S
H795 C770 0.950 . S
H796 C773 0.950 . S
H797 C775 0.950 . S
H798 C816 0.951 . S
H799 C818 0.951 . S
H800 C820 0.950 . S
H801 C821 0.950 . S
H802 C823 0.950 . S
H803 C826 0.950 . S
H804 C827 0.950 . S
H805 C829 0.950 . S
H806 C830 0.950 . S
H807 C831 0.951 . S
H808 C833 0.951 . S
H809 C835 0.950 . S
H810 C836 0.950 . S
H811 C838 0.950 . S
H812 C841 0.950 . S
H813 C842 0.950 . S
H814 C844 0.950 . S
H815 C845 0.950 . S
C816 H798 0.951 . S
C816 C817 1.366 . S
C816 C818 1.388 . S
C817 C816 1.366 . S
C817 C821 1.385 . S
C818 H799 0.951 . S
C818 C816 1.388 . S
C818 C819 1.366 . S
C819 C818 1.366 . S
C819 C820 1.414 . S
C819 C822 1.499 . S
C820 H800 0.950 . S
C820 C819 1.414 . S
C820 C821 1.374 . S
C821 H801 0.950 . S
C821 C817 1.385 . S
C821 C820 1.374 . S
C822 C819 1.499 . S
C822 C823 1.373 . S
C822 C824 1.389 . S
C823 H802 0.950 . S
C823 C822 1.373 . S
C823 C839 1.377 . S
C824 C822 1.389 . S
C824 C825 1.524 . S
C824 C838 1.377 . S
C825 C824 1.524 . S
C825 C826 1.397 . S
C825 C830 1.363 . S
C826 H803 0.950 . S
C826 C825 1.397 . S
C826 C827 1.334 . S
C827 H804 0.950 . S
C827 C826 1.334 . S
C827 C828 1.287 . S
C828 C827 1.287 . S
C828 C829 1.524 . S
C828 H847 0.913 . S
C829 H805 0.950 . S
C829 C828 1.524 . S
C829 C830 1.415 . S
C830 H806 0.950 . S
C830 C825 1.363 . S
C830 C829 1.415 . S
C831 H807 0.951 . S
C831 C832 1.366 . S
C831 C833 1.388 . S
C832 C831 1.366 . S
C832 C836 1.385 . S
C833 H808 0.951 . S
C833 C831 1.388 . S
C833 C834 1.366 . S
C834 C833 1.366 . S
C834 C835 1.414 . S
C834 C837 1.499 . S
C835 H809 0.950 . S
C835 C834 1.414 . S
C835 C836 1.374 . S
C836 H810 0.950 . S
C836 C832 1.385 . S
C836 C835 1.374 . S
C837 C834 1.499 . S
C837 C838 1.373 . S
C837 C839 1.389 . S
C838 H811 0.950 . S
C838 C824 1.377 . S
C838 C837 1.373 . S
C839 C823 1.377 . S
C839 C837 1.389 . S
C839 C840 1.524 . S
C840 C839 1.524 . S
C840 C841 1.397 . S
C840 C845 1.363 . S
C841 H812 0.950 . S
C841 C840 1.397 . S
C841 C842 1.334 . S
C842 H813 0.950 . S
C842 C841 1.334 . S
C842 C843 1.287 . S
C843 C842 1.287 . S
C843 C844 1.524 . S
C843 H846 0.999 . S
C844 H814 0.950 . S
C844 C843 1.524 . S
C844 C845 1.415 . S
C845 H815 0.950 . S
C845 C840 1.363 . S
C845 C844 1.415 . S
H846 C843 0.999 . S
H847 C828 0.913 . S
H848 C866 0.951 . S
H849 C868 0.951 . S
H850 C870 0.950 . S
H851 C871 0.950 . S
H852 C873 0.950 . S
H853 C876 0.950 . S
H854 C877 0.950 . S
H855 C879 0.950 . S
H856 C880 0.950 . S
H857 C881 0.951 . S
H858 C883 0.951 . S
H859 C885 0.950 . S
H860 C886 0.950 . S
H861 C888 0.950 . S
H862 C891 0.950 . S
H863 C892 0.950 . S
H864 C894 0.950 . S
H865 C895 0.950 . S
C866 H848 0.951 . S
C866 C867 1.366 . S
C866 C868 1.388 . S
C867 C866 1.366 . S
C867 C871 1.385 . S
C868 H849 0.951 . S
C868 C866 1.388 . S
C868 C869 1.366 . S
C869 C868 1.366 . S
C869 C870 1.414 . S
C869 C872 1.499 . S
C870 H850 0.950 . S
C870 C869 1.414 . S
C870 C871 1.374 . S
C871 H851 0.950 . S
C871 C867 1.385 . S
C871 C870 1.374 . S
C872 C869 1.499 . S
C872 C873 1.373 . S
C872 C874 1.389 . S
C873 H852 0.950 . S
C873 C872 1.373 . S
C873 C889 1.377 . S
C874 C872 1.389 . S
C874 C875 1.524 . S
C874 C888 1.377 . S
C875 C874 1.524 . S
C875 C876 1.397 . S
C875 C880 1.363 . S
C876 H853 0.950 . S
C876 C875 1.397 . S
C876 C877 1.334 . S
C877 H854 0.950 . S
C877 C876 1.334 . S
C877 C878 1.287 . S
C878 C877 1.287 . S
C878 C879 1.524 . S
C878 H897 0.913 . S
C879 H855 0.950 . S
C879 C878 1.524 . S
C879 C880 1.415 . S
C880 H856 0.950 . S
C880 C875 1.363 . S
C880 C879 1.415 . S
C881 H857 0.951 . S
C881 C882 1.366 . S
C881 C883 1.388 . S
C882 C881 1.366 . S
C882 C886 1.385 . S
C883 H858 0.951 . S
C883 C881 1.388 . S
C883 C884 1.366 . S
C884 C883 1.366 . S
C884 C885 1.414 . S
C884 C887 1.499 . S
C885 H859 0.950 . S
C885 C884 1.414 . S
C885 C886 1.374 . S
C886 H860 0.950 . S
C886 C882 1.385 . S
C886 C885 1.374 . S
C887 C884 1.499 . S
C887 C888 1.373 . S
C887 C889 1.389 . S
C888 H861 0.950 . S
C888 C874 1.377 . S
C888 C887 1.373 . S
C889 C873 1.377 . S
C889 C887 1.389 . S
C889 C890 1.524 . S
C890 C889 1.524 . S
C890 C891 1.397 . S
C890 C895 1.363 . S
C891 H862 0.950 . S
C891 C890 1.397 . S
C891 C892 1.334 . S
C892 H863 0.950 . S
C892 C891 1.334 . S
C892 C893 1.287 . S
C893 C892 1.287 . S
C893 C894 1.524 . S
C893 H896 0.999 . S
C894 H864 0.950 . S
C894 C893 1.524 . S
C894 C895 1.415 . S
C895 H865 0.950 . S
C895 C890 1.363 . S
C895 C894 1.415 . S
H896 C893 0.999 . S
H897 C878 0.913 . S
H898 C916 0.951 . S
H899 C918 0.951 . S
H900 C920 0.950 . S
H901 C921 0.950 . S
H902 C923 0.950 . S
H903 C926 0.950 . S
H904 C927 0.950 . S
H905 C929 0.950 . S
H906 C930 0.950 . S
H907 C931 0.951 . S
H908 C933 0.951 . S
H909 C935 0.950 . S
H910 C936 0.950 . S
H911 C938 0.950 . S
H912 C941 0.950 . S
H913 C942 0.950 . S
H914 C944 0.950 . S
H915 C945 0.950 . S
C916 H898 0.951 . S
C916 C917 1.366 . S
C916 C918 1.388 . S
C917 C916 1.366 . S
C917 C921 1.385 . S
C918 H899 0.951 . S
C918 C916 1.388 . S
C918 C919 1.366 . S
C919 C918 1.366 . S
C919 C920 1.414 . S
C919 C922 1.499 . S
C920 H900 0.950 . S
C920 C919 1.414 . S
C920 C921 1.374 . S
C921 H901 0.950 . S
C921 C917 1.385 . S
C921 C920 1.374 . S
C922 C919 1.499 . S
C922 C923 1.373 . S
C922 C924 1.389 . S
C923 H902 0.950 . S
C923 C922 1.373 . S
C923 C939 1.377 . S
C924 C922 1.389 . S
C924 C925 1.524 . S
C924 C938 1.377 . S
C925 C924 1.524 . S
C925 C926 1.397 . S
C925 C930 1.363 . S
C926 H903 0.950 . S
C926 C925 1.397 . S
C926 C927 1.334 . S
C927 H904 0.950 . S
C927 C926 1.334 . S
C927 C928 1.287 . S
C928 C927 1.287 . S
C928 C929 1.524 . S
C928 H947 0.913 . S
C929 H905 0.950 . S
C929 C928 1.524 . S
C929 C930 1.415 . S
C930 H906 0.950 . S
C930 C925 1.363 . S
C930 C929 1.415 . S
C931 H907 0.951 . S
C931 C932 1.366 . S
C931 C933 1.388 . S
C932 C931 1.366 . S
C932 C936 1.385 . S
C933 H908 0.951 . S
C933 C931 1.388 . S
C933 C934 1.366 . S
C934 C933 1.366 . S
C934 C935 1.414 . S
C934 C937 1.499 . S
C935 H909 0.950 . S
C935 C934 1.414 . S
C935 C936 1.374 . S
C936 H910 0.950 . S
C936 C932 1.385 . S
C936 C935 1.374 . S
C937 C934 1.499 . S
C937 C938 1.373 . S
C937 C939 1.389 . S
C938 H911 0.950 . S
C938 C924 1.377 . S
C938 C937 1.373 . S
C939 C923 1.377 . S
C939 C937 1.389 . S
C939 C940 1.524 . S
C940 C939 1.524 . S
C940 C941 1.397 . S
C940 C945 1.363 . S
C941 H912 0.950 . S
C941 C940 1.397 . S
C941 C942 1.334 . S
C942 H913 0.950 . S
C942 C941 1.334 . S
C942 C943 1.287 . S
C943 C942 1.287 . S
C943 C944 1.524 . S
C943 H946 0.999 1_655 S
C944 H914 0.950 . S
C944 C943 1.524 . S
C944 C945 1.415 . S
C945 H915 0.950 . S
C945 C940 1.363 . S
C945 C944 1.415 . S
H946 C943 0.999 1_455 S
H947 C928 0.913 . S
H948 C966 0.951 . S
H949 C968 0.951 . S
H950 C970 0.950 . S
H951 C971 0.950 . S
H952 C973 0.950 . S
H953 C976 0.950 . S
H954 C977 0.950 . S
H955 C979 0.950 . S
H956 C980 0.950 . S
H957 C981 0.951 . S
H958 C983 0.951 . S
H959 C985 0.950 . S
H960 C986 0.950 . S
H961 C988 0.950 . S
H962 C991 0.950 . S
H963 C992 0.950 . S
H964 C994 0.950 . S
H965 C995 0.950 . S
C966 H948 0.951 . S
C966 C967 1.366 . S
C966 C968 1.388 . S
C967 C966 1.366 . S
C967 C971 1.385 . S
C968 H949 0.951 . S
C968 C966 1.388 . S
C968 C969 1.366 . S
C969 C968 1.366 . S
C969 C970 1.414 . S
C969 C972 1.499 . S
C970 H950 0.950 . S
C970 C969 1.414 . S
C970 C971 1.374 . S
C971 H951 0.950 . S
C971 C967 1.385 . S
C971 C970 1.374 . S
C972 C969 1.499 . S
C972 C973 1.373 . S
C972 C974 1.389 . S
C973 H952 0.950 . S
C973 C972 1.373 . S
C973 C989 1.377 . S
C974 C972 1.389 . S
C974 C975 1.524 . S
C974 C988 1.377 . S
C975 C974 1.524 . S
C975 C976 1.397 . S
C975 C980 1.363 . S
C976 H953 0.950 . S
C976 C975 1.397 . S
C976 C977 1.334 . S
C977 H954 0.950 . S
C977 C976 1.334 . S
C977 C978 1.287 . S
C978 C977 1.287 . S
C978 C979 1.524 . S
C978 H997 0.913 . S
C979 H955 0.950 . S
C979 C978 1.524 . S
C979 C980 1.415 . S
C980 H956 0.950 . S
C980 C975 1.363 . S
C980 C979 1.415 . S
C981 H957 0.951 . S
C981 C982 1.366 . S
C981 C983 1.388 . S
C982 C981 1.366 . S
C982 C986 1.385 . S
C983 H958 0.951 . S
C983 C981 1.388 . S
C983 C984 1.366 . S
C984 C983 1.366 . S
C984 C985 1.414 . S
C984 C987 1.499 . S
C985 H959 0.950 . S
C985 C984 1.414 . S
C985 C986 1.374 . S
C986 H960 0.950 . S
C986 C982 1.385 . S
C986 C985 1.374 . S
C987 C984 1.499 . S
C987 C988 1.373 . S
C987 C989 1.389 . S
C988 H961 0.950 . S
C988 C974 1.377 . S
C988 C987 1.373 . S
C989 C973 1.377 . S
C989 C987 1.389 . S
C989 C990 1.524 . S
C990 C989 1.524 . S
C990 C991 1.397 . S
C990 C995 1.363 . S
C991 H962 0.950 . S
C991 C990 1.397 . S
C991 C992 1.334 . S
C992 H963 0.950 . S
C992 C991 1.334 . S
C992 C993 1.287 . S
C993 C992 1.287 . S
C993 C994 1.524 . S
C993 H996 0.999 . S
C994 H964 0.950 . S
C994 C993 1.524 . S
C994 C995 1.415 . S
C995 H965 0.950 . S
C995 C990 1.363 . S
C995 C994 1.415 . S
H996 C993 0.999 . S
H997 C978 0.913 . S
H998 C1016 0.951 . S
H999 C1018 0.951 . S
H1000 C1020 0.950 . S
H1001 C1021 0.950 . S
H1002 C1023 0.950 . S
H1003 C1026 0.950 . S
H1004 C1027 0.950 . S
H1005 C1029 0.950 . S
H1006 C1030 0.950 . S
H1007 C1031 0.951 . S
H1008 C1033 0.951 . S
H1009 C1035 0.950 . S
H1010 C1036 0.950 . S
H1011 C1038 0.950 . S
H1012 C1041 0.950 . S
H1013 C1042 0.950 . S
H1014 C1044 0.950 . S
H1015 C1045 0.950 . S
C1016 H998 0.951 . S
C1016 C1017 1.366 . S
C1016 C1018 1.388 . S
C1017 C1016 1.366 . S
C1017 C1021 1.385 . S
C1018 H999 0.951 . S
C1018 C1016 1.388 . S
C1018 C1019 1.366 . S
C1019 C1018 1.366 . S
C1019 C1020 1.414 . S
C1019 C1022 1.499 . S
C1020 H1000 0.950 . S
C1020 C1019 1.414 . S
C1020 C1021 1.374 . S
C1021 H1001 0.950 . S
C1021 C1017 1.385 . S
C1021 C1020 1.374 . S
C1022 C1019 1.499 . S
C1022 C1023 1.373 . S
C1022 C1024 1.389 . S
C1023 H1002 0.950 . S
C1023 C1022 1.373 . S
C1023 C1039 1.377 . S
C1024 C1022 1.389 . S
C1024 C1025 1.524 . S
C1024 C1038 1.377 . S
C1025 C1024 1.524 . S
C1025 C1026 1.397 . S
C1025 C1030 1.363 . S
C1026 H1003 0.950 . S
C1026 C1025 1.397 . S
C1026 C1027 1.334 . S
C1027 H1004 0.950 . S
C1027 C1026 1.334 . S
C1027 C1028 1.287 . S
C1028 C1027 1.287 . S
C1028 C1029 1.524 . S
C1028 H1047 0.913 . S
C1029 H1005 0.950 . S
C1029 C1028 1.524 . S
C1029 C1030 1.415 . S
C1030 H1006 0.950 . S
C1030 C1025 1.363 . S
C1030 C1029 1.415 . S
C1031 H1007 0.951 . S
C1031 C1032 1.366 . S
C1031 C1033 1.388 . S
C1032 C1031 1.366 . S
C1032 C1036 1.385 . S
C1033 H1008 0.951 . S
C1033 C1031 1.388 . S
C1033 C1034 1.366 . S
C1034 C1033 1.366 . S
C1034 C1035 1.414 . S
C1034 C1037 1.499 . S
C1035 H1009 0.950 . S
C1035 C1034 1.414 . S
C1035 C1036 1.374 . S
C1036 H1010 0.950 . S
C1036 C1032 1.385 . S
C1036 C1035 1.374 . S
C1037 C1034 1.499 . S
C1037 C1038 1.373 . S
C1037 C1039 1.389 . S
C1038 H1011 0.950 . S
C1038 C1024 1.377 . S
C1038 C1037 1.373 . S
C1039 C1023 1.377 . S
C1039 C1037 1.389 . S
C1039 C1040 1.524 . S
C1040 C1039 1.524 . S
C1040 C1041 1.397 . S
C1040 C1045 1.363 . S
C1041 H1012 0.950 . S
C1041 C1040 1.397 . S
C1041 C1042 1.334 . S
C1042 H1013 0.950 . S
C1042 C1041 1.334 . S
C1042 C1043 1.287 . S
C1043 C1042 1.287 . S
C1043 C1044 1.524 . S
C1043 H1046 0.999 . S
C1044 H1014 0.950 . S
C1044 C1043 1.524 . S
C1044 C1045 1.415 . S
C1045 H1015 0.950 . S
C1045 C1040 1.363 . S
C1045 C1044 1.415 . S
H1046 C1043 0.999 . S
H1047 C1028 0.913 . S
H1048 C1066 0.951 . S
H1049 C1068 0.951 . S
H1050 C1070 0.950 . S
H1051 C1071 0.950 . S
H1052 C1073 0.950 . S
H1053 C1076 0.950 . S
H1054 C1077 0.950 . S
H1055 C1079 0.950 . S
H1056 C1080 0.950 . S
H1057 C1081 0.951 . S
H1058 C1083 0.951 . S
H1059 C1085 0.950 . S
H1060 C1086 0.950 . S
H1061 C1088 0.950 . S
H1062 C1091 0.950 . S
H1063 C1092 0.950 . S
H1064 C1094 0.950 . S
H1065 C1095 0.950 . S
C1066 H1048 0.951 . S
C1066 C1067 1.366 . S
C1066 C1068 1.388 . S
C1067 C1066 1.366 . S
C1067 C1071 1.385 . S
C1068 H1049 0.951 . S
C1068 C1066 1.388 . S
C1068 C1069 1.366 . S
C1069 C1068 1.366 . S
C1069 C1070 1.414 . S
C1069 C1072 1.499 . S
C1070 H1050 0.950 . S
C1070 C1069 1.414 . S
C1070 C1071 1.374 . S
C1071 H1051 0.950 . S
C1071 C1067 1.385 . S
C1071 C1070 1.374 . S
C1072 C1069 1.499 . S
C1072 C1073 1.373 . S
C1072 C1074 1.389 . S
C1073 H1052 0.950 . S
C1073 C1072 1.373 . S
C1073 C1089 1.377 . S
C1074 C1072 1.389 . S
C1074 C1075 1.524 . S
C1074 C1088 1.377 . S
C1075 C1074 1.524 . S
C1075 C1076 1.397 . S
C1075 C1080 1.363 . S
C1076 H1053 0.950 . S
C1076 C1075 1.397 . S
C1076 C1077 1.334 . S
C1077 H1054 0.950 . S
C1077 C1076 1.334 . S
C1077 C1078 1.287 . S
C1078 C1077 1.287 . S
C1078 C1079 1.524 . S
C1078 H1097 0.913 . S
C1079 H1055 0.950 . S
C1079 C1078 1.524 . S
C1079 C1080 1.415 . S
C1080 H1056 0.950 . S
C1080 C1075 1.363 . S
C1080 C1079 1.415 . S
C1081 H1057 0.951 . S
C1081 C1082 1.366 . S
C1081 C1083 1.388 . S
C1082 C1081 1.366 . S
C1082 C1086 1.385 . S
C1083 H1058 0.951 . S
C1083 C1081 1.388 . S
C1083 C1084 1.366 . S
C1084 C1083 1.366 . S
C1084 C1085 1.414 . S
C1084 C1087 1.499 . S
C1085 H1059 0.950 . S
C1085 C1084 1.414 . S
C1085 C1086 1.374 . S
C1086 H1060 0.950 . S
C1086 C1082 1.385 . S
C1086 C1085 1.374 . S
C1087 C1084 1.499 . S
C1087 C1088 1.373 . S
C1087 C1089 1.389 . S
C1088 H1061 0.950 . S
C1088 C1074 1.377 . S
C1088 C1087 1.373 . S
C1089 C1073 1.377 . S
C1089 C1087 1.389 . S
C1089 C1090 1.524 . S
C1090 C1089 1.524 . S
C1090 C1091 1.397 . S
C1090 C1095 1.363 . S
C1091 H1062 0.950 . S
C1091 C1090 1.397 . S
C1091 C1092 1.334 . S
C1092 H1063 0.950 . S
C1092 C1091 1.334 . S
C1092 C1093 1.287 . S
C1093 C1092 1.287 . S
C1093 C1094 1.524 . S
C1093 H1096 0.999 . S
C1094 H1064 0.950 . S
C1094 C1093 1.524 . S
C1094 C1095 1.415 . S
C1095 H1065 0.950 . S
C1095 C1090 1.363 . S
C1095 C1094 1.415 . S
H1096 C1093 0.999 . S
H1097 C1078 0.913 . S
H1098 C1116 0.951 . S
H1099 C1118 0.951 . S
H1100 C1120 0.950 . S
H1101 C1121 0.950 . S
H1102 C1123 0.950 . S
H1103 C1126 0.950 . S
H1104 C1127 0.950 . S
H1105 C1129 0.950 . S
H1106 C1130 0.950 . S
H1107 C1131 0.951 . S
H1108 C1133 0.951 . S
H1109 C1135 0.950 . S
H1110 C1136 0.950 . S
H1111 C1138 0.950 . S
H1112 C1141 0.950 . S
H1113 C1142 0.950 . S
H1114 C1144 0.950 . S
H1115 C1145 0.950 . S
C1116 H1098 0.951 . S
C1116 C1117 1.366 . S
C1116 C1118 1.388 . S
C1117 C1116 1.366 . S
C1117 C1121 1.385 . S
C1118 H1099 0.951 . S
C1118 C1116 1.388 . S
C1118 C1119 1.366 . S
C1119 C1118 1.366 . S
C1119 C1120 1.414 . S
C1119 C1122 1.499 . S
C1120 H1100 0.950 . S
C1120 C1119 1.414 . S
C1120 C1121 1.374 . S
C1121 H1101 0.950 . S
C1121 C1117 1.385 . S
C1121 C1120 1.374 . S
C1122 C1119 1.499 . S
C1122 C1123 1.373 . S
C1122 C1124 1.389 . S
C1123 H1102 0.950 . S
C1123 C1122 1.373 . S
C1123 C1139 1.377 . S
C1124 C1122 1.389 . S
C1124 C1125 1.524 . S
C1124 C1138 1.377 . S
C1125 C1124 1.524 . S
C1125 C1126 1.397 . S
C1125 C1130 1.363 . S
C1126 H1103 0.950 . S
C1126 C1125 1.397 . S
C1126 C1127 1.334 . S
C1127 H1104 0.950 . S
C1127 C1126 1.334 . S
C1127 C1128 1.287 . S
C1128 C1127 1.287 . S
C1128 C1129 1.524 . S
C1128 H1147 0.913 . S
C1129 H1105 0.950 . S
C1129 C1128 1.524 . S
C1129 C1130 1.415 . S
C1130 H1106 0.950 . S
C1130 C1125 1.363 . S
C1130 C1129 1.415 . S
C1131 H1107 0.951 . S
C1131 C1132 1.366 . S
C1131 C1133 1.388 . S
C1132 C1131 1.366 . S
C1132 C1136 1.385 . S
C1133 H1108 0.951 . S
C1133 C1131 1.388 . S
C1133 C1134 1.366 . S
C1134 C1133 1.366 . S
C1134 C1135 1.414 . S
C1134 C1137 1.499 . S
C1135 H1109 0.950 . S
C1135 C1134 1.414 . S
C1135 C1136 1.374 . S
C1136 H1110 0.950 . S
C1136 C1132 1.385 . S
C1136 C1135 1.374 . S
C1137 C1134 1.499 . S
C1137 C1138 1.373 . S
C1137 C1139 1.389 . S
C1138 H1111 0.950 . S
C1138 C1124 1.377 . S
C1138 C1137 1.373 . S
C1139 C1123 1.377 . S
C1139 C1137 1.389 . S
C1139 C1140 1.524 . S
C1140 C1139 1.524 . S
C1140 C1141 1.397 . S
C1140 C1145 1.363 . S
C1141 H1112 0.950 . S
C1141 C1140 1.397 . S
C1141 C1142 1.334 . S
C1142 H1113 0.950 . S
C1142 C1141 1.334 . S
C1142 C1143 1.287 . S
C1143 C1142 1.287 . S
C1143 C1144 1.524 . S
C1143 H1146 0.999 . S
C1144 H1114 0.950 . S
C1144 C1143 1.524 . S
C1144 C1145 1.415 . S
C1145 H1115 0.950 . S
C1145 C1140 1.363 . S
C1145 C1144 1.415 . S
H1146 C1143 0.999 . S
H1147 C1128 0.913 . S
H1148 C1166 0.951 . S
H1149 C1168 0.951 . S
H1150 C1170 0.950 . S
H1151 C1171 0.950 . S
H1152 C1173 0.950 . S
H1153 C1176 0.950 . S
H1154 C1177 0.950 . S
H1155 C1179 0.950 . S
H1156 C1180 0.950 . S
H1157 C1181 0.951 . S
H1158 C1183 0.951 . S
H1159 C1185 0.950 . S
H1160 C1186 0.950 . S
H1161 C1188 0.950 . S
H1162 C1191 0.950 . S
H1163 C1192 0.950 . S
H1164 C1194 0.950 . S
H1165 C1195 0.950 . S
C1166 H1148 0.951 . S
C1166 C1167 1.366 . S
C1166 C1168 1.388 . S
C1167 C1166 1.366 . S
C1167 C1171 1.385 . S
C1168 H1149 0.951 . S
C1168 C1166 1.388 . S
C1168 C1169 1.366 . S
C1169 C1168 1.366 . S
C1169 C1170 1.414 . S
C1169 C1172 1.499 . S
C1170 H1150 0.950 . S
C1170 C1169 1.414 . S
C1170 C1171 1.374 . S
C1171 H1151 0.950 . S
C1171 C1167 1.385 . S
C1171 C1170 1.374 . S
C1172 C1169 1.499 . S
C1172 C1173 1.373 . S
C1172 C1174 1.389 . S
C1173 H1152 0.950 . S
C1173 C1172 1.373 . S
C1173 C1189 1.377 . S
C1174 C1172 1.389 . S
C1174 C1175 1.524 . S
C1174 C1188 1.377 . S
C1175 C1174 1.524 . S
C1175 C1176 1.397 . S
C1175 C1180 1.363 . S
C1176 H1153 0.950 . S
C1176 C1175 1.397 . S
C1176 C1177 1.334 . S
C1177 H1154 0.950 . S
C1177 C1176 1.334 . S
C1177 C1178 1.287 . S
C1178 C1177 1.287 . S
C1178 C1179 1.524 . S
C1178 H1197 0.913 . S
C1179 H1155 0.950 . S
C1179 C1178 1.524 . S
C1179 C1180 1.415 . S
C1180 H1156 0.950 . S
C1180 C1175 1.363 . S
C1180 C1179 1.415 . S
C1181 H1157 0.951 . S
C1181 C1182 1.366 . S
C1181 C1183 1.388 . S
C1182 C1181 1.366 . S
C1182 C1186 1.385 . S
C1183 H1158 0.951 . S
C1183 C1181 1.388 . S
C1183 C1184 1.366 . S
C1184 C1183 1.366 . S
C1184 C1185 1.414 . S
C1184 C1187 1.499 . S
C1185 H1159 0.950 . S
C1185 C1184 1.414 . S
C1185 C1186 1.374 . S
C1186 H1160 0.950 . S
C1186 C1182 1.385 . S
C1186 C1185 1.374 . S
C1187 C1184 1.499 . S
C1187 C1188 1.373 . S
C1187 C1189 1.389 . S
C1188 H1161 0.950 . S
C1188 C1174 1.377 . S
C1188 C1187 1.373 . S
C1189 C1173 1.377 . S
C1189 C1187 1.389 . S
C1189 C1190 1.524 . S
C1190 C1189 1.524 . S
C1190 C1191 1.397 . S
C1190 C1195 1.363 . S
C1191 H1162 0.950 . S
C1191 C1190 1.397 . S
C1191 C1192 1.334 . S
C1192 H1163 0.950 . S
C1192 C1191 1.334 . S
C1192 C1193 1.287 . S
C1193 C1192 1.287 . S
C1193 C1194 1.524 . S
C1193 H1196 0.999 . S
C1194 H1164 0.950 . S
C1194 C1193 1.524 . S
C1194 C1195 1.415 . S
C1195 H1165 0.950 . S
C1195 C1190 1.363 . S
C1195 C1194 1.415 . S
H1196 C1193 0.999 . S
H1197 C1178 0.913 . S
H1198 C1216 0.951 . S
H1199 C1218 0.951 . S
H1200 C1220 0.950 . S
H1201 C1221 0.950 . S
H1202 C1223 0.950 . S
H1203 C1226 0.950 . S
H1204 C1227 0.950 . S
H1205 C1229 0.950 . S
H1206 C1230 0.950 . S
H1207 C1231 0.951 . S
H1208 C1233 0.951 . S
H1209 C1235 0.950 . S
H1210 C1236 0.950 . S
H1211 C1238 0.950 . S
H1212 C1241 0.950 . S
H1213 C1242 0.950 . S
H1214 C1244 0.950 . S
H1215 C1245 0.950 . S
C1216 H1198 0.951 . S
C1216 C1217 1.366 . S
C1216 C1218 1.388 . S
C1217 C1216 1.366 . S
C1217 C1221 1.385 . S
C1218 H1199 0.951 . S
C1218 C1216 1.388 . S
C1218 C1219 1.366 . S
C1219 C1218 1.366 . S
C1219 C1220 1.414 . S
C1219 C1222 1.499 . S
C1220 H1200 0.950 . S
C1220 C1219 1.414 . S
C1220 C1221 1.374 . S
C1221 H1201 0.950 . S
C1221 C1217 1.385 . S
C1221 C1220 1.374 . S
C1222 C1219 1.499 . S
C1222 C1223 1.373 . S
C1222 C1224 1.389 . S
C1223 H1202 0.950 . S
C1223 C1222 1.373 . S
C1223 C1239 1.377 . S
C1224 C1222 1.389 . S
C1224 C1225 1.524 . S
C1224 C1238 1.377 . S
C1225 C1224 1.524 . S
C1225 C1226 1.397 . S
C1225 C1230 1.363 . S
C1226 H1203 0.950 . S
C1226 C1225 1.397 . S
C1226 C1227 1.334 . S
C1227 H1204 0.950 . S
C1227 C1226 1.334 . S
C1227 C1228 1.287 . S
C1228 C1227 1.287 . S
C1228 C1229 1.524 . S
C1228 H1247 0.913 . S
C1229 H1205 0.950 . S
C1229 C1228 1.524 . S
C1229 C1230 1.415 . S
C1230 H1206 0.950 . S
C1230 C1225 1.363 . S
C1230 C1229 1.415 . S
C1231 H1207 0.951 . S
C1231 C1232 1.366 . S
C1231 C1233 1.388 . S
C1232 C1231 1.366 . S
C1232 C1236 1.385 . S
C1233 H1208 0.951 . S
C1233 C1231 1.388 . S
C1233 C1234 1.366 . S
C1234 C1233 1.366 . S
C1234 C1235 1.414 . S
C1234 C1237 1.499 . S
C1235 H1209 0.950 . S
C1235 C1234 1.414 . S
C1235 C1236 1.374 . S
C1236 H1210 0.950 . S
C1236 C1232 1.385 . S
C1236 C1235 1.374 . S
C1237 C1234 1.499 . S
C1237 C1238 1.373 . S
C1237 C1239 1.389 . S
C1238 H1211 0.950 . S
C1238 C1224 1.377 . S
C1238 C1237 1.373 . S
C1239 C1223 1.377 . S
C1239 C1237 1.389 . S
C1239 C1240 1.524 . S
C1240 C1239 1.524 . S
C1240 C1241 1.397 . S
C1240 C1245 1.363 . S
C1241 H1212 0.950 . S
C1241 C1240 1.397 . S
C1241 C1242 1.334 . S
C1242 H1213 0.950 . S
C1242 C1241 1.334 . S
C1242 C1243 1.287 . S
C1243 C1242 1.287 . S
C1243 C1244 1.524 . S
C1243 H1246 0.999 . S
C1244 H1214 0.950 . S
C1244 C1243 1.524 . S
C1244 C1245 1.415 . S
C1245 H1215 0.950 . S
C1245 C1240 1.363 . S
C1245 C1244 1.415 . S
H1246 C1243 0.999 . S
H1247 C1228 0.913 . S
H1248 C1266 0.951 . S
H1249 C1268 0.951 . S
H1250 C1270 0.950 . S
H1251 C1271 0.950 . S
H1252 C1273 0.950 . S
H1253 C1276 0.950 . S
H1254 C1277 0.950 . S
H1255 C1279 0.950 . S
H1256 C1280 0.950 . S
H1257 C1281 0.951 . S
H1258 C1283 0.951 . S
H1259 C1285 0.950 . S
H1260 C1286 0.950 . S
H1261 C1288 0.950 . S
H1262 C1291 0.950 . S
H1263 C1292 0.950 . S
H1264 C1294 0.950 . S
H1265 C1295 0.950 . S
C1266 H1248 0.951 . S
C1266 C1267 1.366 . S
C1266 C1268 1.388 . S
C1267 C1266 1.366 . S
C1267 C1271 1.385 . S
C1268 H1249 0.951 . S
C1268 C1266 1.388 . S
C1268 C1269 1.366 . S
C1269 C1268 1.366 . S
C1269 C1270 1.414 . S
C1269 C1272 1.499 . S
C1270 H1250 0.950 . S
C1270 C1269 1.414 . S
C1270 C1271 1.374 . S
C1271 H1251 0.950 . S
C1271 C1267 1.385 . S
C1271 C1270 1.374 . S
C1272 C1269 1.499 . S
C1272 C1273 1.373 . S
C1272 C1274 1.389 . S
C1273 H1252 0.950 . S
C1273 C1272 1.373 . S
C1273 C1289 1.377 . S
C1274 C1272 1.389 . S
C1274 C1275 1.524 . S
C1274 C1288 1.377 . S
C1275 C1274 1.524 . S
C1275 C1276 1.397 . S
C1275 C1280 1.363 . S
C1276 H1253 0.950 . S
C1276 C1275 1.397 . S
C1276 C1277 1.334 . S
C1277 H1254 0.950 . S
C1277 C1276 1.334 . S
C1277 C1278 1.287 . S
C1278 C1277 1.287 . S
C1278 C1279 1.524 . S
C1278 H1297 0.913 . S
C1279 H1255 0.950 . S
C1279 C1278 1.524 . S
C1279 C1280 1.415 . S
C1280 H1256 0.950 . S
C1280 C1275 1.363 . S
C1280 C1279 1.415 . S
C1281 H1257 0.951 . S
C1281 C1282 1.366 . S
C1281 C1283 1.388 . S
C1282 C1281 1.366 . S
C1282 C1286 1.385 . S
C1283 H1258 0.951 . S
C1283 C1281 1.388 . S
C1283 C1284 1.366 . S
C1284 C1283 1.366 . S
C1284 C1285 1.414 . S
C1284 C1287 1.499 . S
C1285 H1259 0.950 . S
C1285 C1284 1.414 . S
C1285 C1286 1.374 . S
C1286 H1260 0.950 . S
C1286 C1282 1.385 . S
C1286 C1285 1.374 . S
C1287 C1284 1.499 . S
C1287 C1288 1.373 . S
C1287 C1289 1.389 . S
C1288 H1261 0.950 . S
C1288 C1274 1.377 . S
C1288 C1287 1.373 . S
C1289 C1273 1.377 . S
C1289 C1287 1.389 . S
C1289 C1290 1.524 . S
C1290 C1289 1.524 . S
C1290 C1291 1.397 . S
C1290 C1295 1.363 . S
C1291 H1262 0.950 . S
C1291 C1290 1.397 . S
C1291 C1292 1.334 . S
C1292 H1263 0.950 . S
C1292 C1291 1.334 . S
C1292 C1293 1.287 . S
C1293 C1292 1.287 . S
C1293 C1294 1.524 . S
C1293 H1296 0.999 . S
C1294 H1264 0.950 . S
C1294 C1293 1.524 . S
C1294 C1295 1.415 . S
C1295 H1265 0.950 . S
C1295 C1290 1.363 . S
C1295 C1294 1.415 . S
H1296 C1293 0.999 . S
H1297 C1278 0.913 . S
H1298 C1316 0.951 . S
H1299 C1318 0.951 . S
H1300 C1320 0.950 . S
H1301 C1321 0.950 . S
H1302 C1323 0.950 . S
H1303 C1326 0.950 . S
H1304 C1327 0.950 . S
H1305 C1329 0.950 . S
H1306 C1330 0.950 . S
H1307 C1331 0.951 . S
H1308 C1333 0.951 . S
H1309 C1335 0.950 . S
H1310 C1336 0.950 . S
H1311 C1338 0.950 . S
H1312 C1341 0.950 . S
H1313 C1342 0.950 . S
H1314 C1344 0.950 . S
H1315 C1345 0.950 . S
C1316 H1298 0.951 . S
C1316 C1317 1.366 . S
C1316 C1318 1.388 . S
C1317 C1316 1.366 . S
C1317 C1321 1.385 . S
C1318 H1299 0.951 . S
C1318 C1316 1.388 . S
C1318 C1319 1.366 . S
C1319 C1318 1.366 . S
C1319 C1320 1.414 . S
C1319 C1322 1.499 . S
C1320 H1300 0.950 . S
C1320 C1319 1.414 . S
C1320 C1321 1.374 . S
C1321 H1301 0.950 . S
C1321 C1317 1.385 . S
C1321 C1320 1.374 . S
C1322 C1319 1.499 . S
C1322 C1323 1.373 . S
C1322 C1324 1.389 . S
C1323 H1302 0.950 . S
C1323 C1322 1.373 . S
C1323 C1339 1.377 . S
C1324 C1322 1.389 . S
C1324 C1325 1.524 . S
C1324 C1338 1.377 . S
C1325 C1324 1.524 . S
C1325 C1326 1.397 . S
C1325 C1330 1.363 . S
C1326 H1303 0.950 . S
C1326 C1325 1.397 . S
C1326 C1327 1.334 . S
C1327 H1304 0.950 . S
C1327 C1326 1.334 . S
C1327 C1328 1.287 . S
C1328 C1327 1.287 . S
C1328 C1329 1.524 . S
C1328 H1347 0.913 . S
C1329 H1305 0.950 . S
C1329 C1328 1.524 . S
C1329 C1330 1.415 . S
C1330 H1306 0.950 . S
C1330 C1325 1.363 . S
C1330 C1329 1.415 . S
C1331 H1307 0.951 . S
C1331 C1332 1.366 . S
C1331 C1333 1.388 . S
C1332 C1331 1.366 . S
C1332 C1336 1.385 . S
C1333 H1308 0.951 . S
C1333 C1331 1.388 . S
C1333 C1334 1.366 . S
C1334 C1333 1.366 . S
C1334 C1335 1.414 . S
C1334 C1337 1.499 . S
C1335 H1309 0.950 . S
C1335 C1334 1.414 . S
C1335 C1336 1.374 . S
C1336 H1310 0.950 . S
C1336 C1332 1.385 . S
C1336 C1335 1.374 . S
C1337 C1334 1.499 . S
C1337 C1338 1.373 . S
C1337 C1339 1.389 . S
C1338 H1311 0.950 . S
C1338 C1324 1.377 . S
C1338 C1337 1.373 . S
C1339 C1323 1.377 . S
C1339 C1337 1.389 . S
C1339 C1340 1.524 . S
C1340 C1339 1.524 . S
C1340 C1341 1.397 . S
C1340 C1345 1.363 . S
C1341 H1312 0.950 . S
C1341 C1340 1.397 . S
C1341 C1342 1.334 . S
C1342 H1313 0.950 . S
C1342 C1341 1.334 . S
C1342 C1343 1.287 . S
C1343 C1342 1.287 . S
C1343 C1344 1.524 . S
C1343 H1346 0.999 . S
C1344 H1314 0.950 . S
C1344 C1343 1.524 . S
C1344 C1345 1.415 . S
C1345 H1315 0.950 . S
C1345 C1340 1.363 . S
C1345 C1344 1.415 . S
H1346 C1343 0.999 . S
H1347 C1328 0.913 . S
H1348 C1366 0.951 . S
H1349 C1368 0.951 . S
H1350 C1370 0.950 . S
H1351 C1371 0.950 . S
H1352 C1373 0.950 . S
H1353 C1376 0.950 . S
H1354 C1377 0.950 . S
H1355 C1379 0.950 . S
H1356 C1380 0.950 . S
H1357 C1381 0.951 . S
H1358 C1383 0.951 . S
H1359 C1385 0.950 . S
H1360 C1386 0.950 . S
H1361 C1388 0.950 . S
H1362 C1391 0.950 . S
H1363 C1392 0.950 . S
H1364 C1394 0.950 . S
H1365 C1395 0.950 . S
C1366 H1348 0.951 . S
C1366 C1367 1.366 . S
C1366 C1368 1.388 . S
C1367 C1366 1.366 . S
C1367 C1371 1.385 . S
C1368 H1349 0.951 . S
C1368 C1366 1.388 . S
C1368 C1369 1.366 . S
C1369 C1368 1.366 . S
C1369 C1370 1.414 . S
C1369 C1372 1.499 . S
C1370 H1350 0.950 . S
C1370 C1369 1.414 . S
C1370 C1371 1.374 . S
C1371 H1351 0.950 . S
C1371 C1367 1.385 . S
C1371 C1370 1.374 . S
C1372 C1369 1.499 . S
C1372 C1373 1.373 . S
C1372 C1374 1.389 . S
C1373 H1352 0.950 . S
C1373 C1372 1.373 . S
C1373 C1389 1.377 . S
C1374 C1372 1.389 . S
C1374 C1375 1.524 . S
C1374 C1388 1.377 . S
C1375 C1374 1.524 . S
C1375 C1376 1.397 . S
C1375 C1380 1.363 . S
C1376 H1353 0.950 . S
C1376 C1375 1.397 . S
C1376 C1377 1.334 . S
C1377 H1354 0.950 . S
C1377 C1376 1.334 . S
C1377 C1378 1.287 . S
C1378 C1377 1.287 . S
C1378 C1379 1.524 . S
C1378 H1397 0.913 . S
C1379 H1355 0.950 . S
C1379 C1378 1.524 . S
C1379 C1380 1.415 . S
C1380 H1356 0.950 . S
C1380 C1375 1.363 . S
C1380 C1379 1.415 . S
C1381 H1357 0.951 . S
C1381 C1382 1.366 . S
C1381 C1383 1.388 . S
C1382 C1381 1.366 . S
C1382 C1386 1.385 . S
C1383 H1358 0.951 . S
C1383 C1381 1.388 . S
C1383 C1384 1.366 . S
C1384 C1383 1.366 . S
C1384 C1385 1.414 . S
C1384 C1387 1.499 . S
C1385 H1359 0.950 . S
C1385 C1384 1.414 . S
C1385 C1386 1.374 . S
C1386 H1360 0.950 . S
C1386 C1382 1.385 . S
C1386 C1385 1.374 . S
C1387 C1384 1.499 . S
C1387 C1388 1.373 . S
C1387 C1389 1.389 . S
C1388 H1361 0.950 . S
C1388 C1374 1.377 . S
C1388 C1387 1.373 . S
C1389 C1373 1.377 . S
C1389 C1387 1.389 . S
C1389 C1390 1.524 . S
C1390 C1389 1.524 . S
C1390 C1391 1.397 . S
C1390 C1395 1.363 . S
C1391 H1362 0.950 . S
C1391 C1390 1.397 . S
C1391 C1392 1.334 . S
C1392 H1363 0.950 . S
C1392 C1391 1.334 . S
C1392 C1393 1.287 . S
C1393 C1392 1.287 . S
C1393 C1394 1.524 . S
C1393 H1396 0.999 . S
C1394 H1364 0.950 . S
C1394 C1393 1.524 . S
C1394 C1395 1.415 . S
C1395 H1365 0.950 . S
C1395 C1390 1.363 . S
C1395 C1394 1.415 . S
H1396 C1393 0.999 . S
H1397 C1378 0.913 . S
H1398 C1416 0.951 . S
H1399 C1418 0.951 . S
H1400 C1420 0.950 . S
H1401 C1421 0.950 . S
H1402 C1423 0.950 . S
H1403 C1426 0.950 . S
H1404 C1427 0.950 . S
H1405 C1429 0.950 . S
H1406 C1430 0.950 . S
H1407 C1431 0.951 . S
H1408 C1433 0.951 . S
H1409 C1435 0.950 . S
H1410 C1436 0.950 . S
H1411 C1438 0.950 . S
H1412 C1441 0.950 . S
H1413 C1442 0.950 . S
H1414 C1444 0.950 . S
H1415 C1445 0.950 . S
C1416 H1398 0.951 . S
C1416 C1417 1.366 . S
C1416 C1418 1.388 . S
C1417 C1416 1.366 . S
C1417 C1421 1.385 . S
C1418 H1399 0.951 . S
C1418 C1416 1.388 . S
C1418 C1419 1.366 . S
C1419 C1418 1.366 . S
C1419 C1420 1.414 . S
C1419 C1422 1.499 . S
C1420 H1400 0.950 . S
C1420 C1419 1.414 . S
C1420 C1421 1.374 . S
C1421 H1401 0.950 . S
C1421 C1417 1.385 . S
C1421 C1420 1.374 . S
C1422 C1419 1.499 . S
C1422 C1423 1.373 . S
C1422 C1424 1.389 . S
C1423 H1402 0.950 . S
C1423 C1422 1.373 . S
C1423 C1439 1.377 . S
C1424 C1422 1.389 . S
C1424 C1425 1.524 . S
C1424 C1438 1.377 . S
C1425 C1424 1.524 . S
C1425 C1426 1.397 . S
C1425 C1430 1.363 . S
C1426 H1403 0.950 . S
C1426 C1425 1.397 . S
C1426 C1427 1.334 . S
C1427 H1404 0.950 . S
C1427 C1426 1.334 . S
C1427 C1428 1.287 . S
C1428 C1427 1.287 . S
C1428 C1429 1.524 . S
C1428 H1447 0.913 . S
C1429 H1405 0.950 . S
C1429 C1428 1.524 . S
C1429 C1430 1.415 . S
C1430 H1406 0.950 . S
C1430 C1425 1.363 . S
C1430 C1429 1.415 . S
C1431 H1407 0.951 . S
C1431 C1432 1.366 . S
C1431 C1433 1.388 . S
C1432 C1431 1.366 . S
C1432 C1436 1.385 . S
C1433 H1408 0.951 . S
C1433 C1431 1.388 . S
C1433 C1434 1.366 . S
C1434 C1433 1.366 . S
C1434 C1435 1.414 . S
C1434 C1437 1.499 . S
C1435 H1409 0.950 . S
C1435 C1434 1.414 . S
C1435 C1436 1.374 . S
C1436 H1410 0.950 . S
C1436 C1432 1.385 . S
C1436 C1435 1.374 . S
C1437 C1434 1.499 . S
C1437 C1438 1.373 . S
C1437 C1439 1.389 . S
C1438 H1411 0.950 . S
C1438 C1424 1.377 . S
C1438 C1437 1.373 . S
C1439 C1423 1.377 . S
C1439 C1437 1.389 . S
C1439 C1440 1.524 . S
C1440 C1439 1.524 . S
C1440 C1441 1.397 . S
C1440 C1445 1.363 . S
C1441 H1412 0.950 . S
C1441 C1440 1.397 . S
C1441 C1442 1.334 . S
C1442 H1413 0.950 . S
C1442 C1441 1.334 . S
C1442 C1443 1.287 . S
C1443 C1442 1.287 . S
C1443 C1444 1.524 . S
C1443 H1446 0.999 . S
C1444 H1414 0.950 . S
C1444 C1443 1.524 . S
C1444 C1445 1.415 . S
C1445 H1415 0.950 . S
C1445 C1440 1.363 . S
C1445 C1444 1.415 . S
H1446 C1443 0.999 . S
H1447 C1428 0.913 . S
H1448 C1466 0.951 . S
H1449 C1468 0.951 . S
H1450 C1470 0.950 . S
H1451 C1471 0.950 . S
H1452 C1473 0.950 . S
H1453 C1476 0.950 . S
H1454 C1477 0.950 . S
H1455 C1479 0.950 . S
H1456 C1480 0.950 . S
H1457 C1481 0.951 . S
H1458 C1483 0.951 . S
H1459 C1485 0.950 . S
H1460 C1486 0.950 . S
H1461 C1488 0.950 . S
H1462 C1491 0.950 . S
H1463 C1492 0.950 . S
H1464 C1494 0.950 . S
H1465 C1495 0.950 . S
C1466 H1448 0.951 . S
C1466 C1467 1.366 . S
C1466 C1468 1.388 . S
C1467 C1466 1.366 . S
C1467 C1471 1.385 . S
C1468 H1449 0.951 . S
C1468 C1466 1.388 . S
C1468 C1469 1.366 . S
C1469 C1468 1.366 . S
C1469 C1470 1.414 . S
C1469 C1472 1.499 . S
C1470 H1450 0.950 . S
C1470 C1469 1.414 . S
C1470 C1471 1.374 . S
C1471 H1451 0.950 . S
C1471 C1467 1.385 . S
C1471 C1470 1.374 . S
C1472 C1469 1.499 . S
C1472 C1473 1.373 . S
C1472 C1474 1.389 . S
C1473 H1452 0.950 . S
C1473 C1472 1.373 . S
C1473 C1489 1.377 . S
C1474 C1472 1.389 . S
C1474 C1475 1.524 . S
C1474 C1488 1.377 . S
C1475 C1474 1.524 . S
C1475 C1476 1.397 . S
C1475 C1480 1.363 . S
C1476 H1453 0.950 . S
C1476 C1475 1.397 . S
C1476 C1477 1.334 . S
C1477 H1454 0.950 . S
C1477 C1476 1.334 . S
C1477 C1478 1.287 . S
C1478 C1477 1.287 . S
C1478 C1479 1.524 . S
C1478 H1497 0.913 . S
C1479 H1455 0.950 . S
C1479 C1478 1.524 . S
C1479 C1480 1.415 . S
C1480 H1456 0.950 . S
C1480 C1475 1.363 . S
C1480 C1479 1.415 . S
C1481 H1457 0.951 . S
C1481 C1482 1.366 . S
C1481 C1483 1.388 . S
C1482 C1481 1.366 . S
C1482 C1486 1.385 . S
C1483 H1458 0.951 . S
C1483 C1481 1.388 . S
C1483 C1484 1.366 . S
C1484 C1483 1.366 . S
C1484 C1485 1.414 . S
C1484 C1487 1.499 . S
C1485 H1459 0.950 . S
C1485 C1484 1.414 . S
C1485 C1486 1.374 . S
C1486 H1460 0.950 . S
C1486 C1482 1.385 . S
C1486 C1485 1.374 . S
C1487 C1484 1.499 . S
C1487 C1488 1.373 . S
C1487 C1489 1.389 . S
C1488 H1461 0.950 . S
C1488 C1474 1.377 . S
C1488 C1487 1.373 . S
C1489 C1473 1.377 . S
C1489 C1487 1.389 . S
C1489 C1490 1.524 . S
C1490 C1489 1.524 . S
C1490 C1491 1.397 . S
C1490 C1495 1.363 . S
C1491 H1462 0.950 . S
C1491 C1490 1.397 . S
C1491 C1492 1.334 . S
C1492 H1463 0.950 . S
C1492 C1491 1.334 . S
C1492 C1493 1.287 . S
C1493 C1492 1.287 . S
C1493 C1494 1.524 . S
C1493 H1496 0.999 . S
C1494 H1464 0.950 . S
C1494 C1493 1.524 . S
C1494 C1495 1.415 . S
C1495 H1465 0.950 . S
C1495 C1490 1.363 . S
C1495 C1494 1.415 . S
H1496 C1493 0.999 . S
H1497 C1478 0.913 . S
H1498 C1516 0.951 . S
H1499 C1518 0.951 . S
H1500 C1520 0.950 . S
H1501 C1521 0.950 . S
H1502 C1523 0.950 . S
H1503 C1526 0.950 . S
H1504 C1527 0.950 . S
H1505 C1529 0.950 . S
H1506 C1530 0.950 . S
H1507 C1531 0.951 . S
H1508 C1533 0.951 . S
H1509 C1535 0.950 . S
H1510 C1536 0.950 . S
H1511 C1538 0.950 . S
H1512 C1541 0.950 . S
H1513 C1542 0.950 . S
H1514 C1544 0.950 . S
H1515 C1545 0.950 . S
C1516 H1498 0.951 . S
C1516 C1517 1.366 . S
C1516 C1518 1.388 . S
C1517 C1516 1.366 . S
C1517 C1521 1.385 . S
C1518 H1499 0.951 . S
C1518 C1516 1.388 . S
C1518 C1519 1.366 . S
C1519 C1518 1.366 . S
C1519 C1520 1.414 . S
C1519 C1522 1.499 . S
C1520 H1500 0.950 . S
C1520 C1519 1.414 . S
C1520 C1521 1.374 . S
C1521 H1501 0.950 . S
C1521 C1517 1.385 . S
C1521 C1520 1.374 . S
C1522 C1519 1.499 . S
C1522 C1523 1.373 . S
C1522 C1524 1.389 . S
C1523 H1502 0.950 . S
C1523 C1522 1.373 . S
C1523 C1539 1.377 . S
C1524 C1522 1.389 . S
C1524 C1525 1.524 . S
C1524 C1538 1.377 . S
C1525 C1524 1.524 . S
C1525 C1526 1.397 . S
C1525 C1530 1.363 . S
C1526 H1503 0.950 . S
C1526 C1525 1.397 . S
C1526 C1527 1.334 . S
C1527 H1504 0.950 . S
C1527 C1526 1.334 . S
C1527 C1528 1.287 . S
C1528 C1527 1.287 . S
C1528 C1529 1.524 . S
C1528 H1547 0.913 . S
C1529 H1505 0.950 . S
C1529 C1528 1.524 . S
C1529 C1530 1.415 . S
C1530 H1506 0.950 . S
C1530 C1525 1.363 . S
C1530 C1529 1.415 . S
C1531 H1507 0.951 . S
C1531 C1532 1.366 . S
C1531 C1533 1.388 . S
C1532 C1531 1.366 . S
C1532 C1536 1.385 . S
C1533 H1508 0.951 . S
C1533 C1531 1.388 . S
C1533 C1534 1.366 . S
C1534 C1533 1.366 . S
C1534 C1535 1.414 . S
C1534 C1537 1.499 . S
C1535 H1509 0.950 . S
C1535 C1534 1.414 . S
C1535 C1536 1.374 . S
C1536 H1510 0.950 . S
C1536 C1532 1.385 . S
C1536 C1535 1.374 . S
C1537 C1534 1.499 . S
C1537 C1538 1.373 . S
C1537 C1539 1.389 . S
C1538 H1511 0.950 . S
C1538 C1524 1.377 . S
C1538 C1537 1.373 . S
C1539 C1523 1.377 . S
C1539 C1537 1.389 . S
C1539 C1540 1.524 . S
C1540 C1539 1.524 . S
C1540 C1541 1.397 . S
C1540 C1545 1.363 . S
C1541 H1512 0.950 . S
C1541 C1540 1.397 . S
C1541 C1542 1.334 . S
C1542 H1513 0.950 . S
C1542 C1541 1.334 . S
C1542 C1543 1.287 . S
C1543 C1542 1.287 . S
C1543 C1544 1.524 . S
C1543 H1546 0.999 . S
C1544 H1514 0.950 . S
C1544 C1543 1.524 . S
C1544 C1545 1.415 . S
C1545 H1515 0.950 . S
C1545 C1540 1.363 . S
C1545 C1544 1.415 . S
H1546 C1543 0.999 . S
H1547 C1528 0.913 . S
H1548 C1566 0.951 . S
H1549 C1568 0.951 . S
H1550 C1570 0.950 . S
H1551 C1571 0.950 . S
H1552 C1573 0.950 . S
H1553 C1576 0.950 . S
H1554 C1577 0.950 . S
H1555 C1579 0.950 . S
H1556 C1580 0.950 . S
H1557 C1581 0.951 . S
H1558 C1583 0.951 . S
H1559 C1585 0.950 . S
H1560 C1586 0.950 . S
H1561 C1588 0.950 . S
H1562 C1591 0.950 . S
H1563 C1592 0.950 . S
H1564 C1594 0.950 . S
H1565 C1595 0.950 . S
C1566 H1548 0.951 . S
C1566 C1567 1.366 . S
C1566 C1568 1.388 . S
C1567 C1566 1.366 . S
C1567 C1571 1.385 . S
C1568 H1549 0.951 . S
C1568 C1566 1.388 . S
C1568 C1569 1.366 . S
C1569 C1568 1.366 . S
C1569 C1570 1.414 . S
C1569 C1572 1.499 . S
C1570 H1550 0.950 . S
C1570 C1569 1.414 . S
C1570 C1571 1.374 . S
C1571 H1551 0.950 . S
C1571 C1567 1.385 . S
C1571 C1570 1.374 . S
C1572 C1569 1.499 . S
C1572 C1573 1.373 . S
C1572 C1574 1.389 . S
C1573 H1552 0.950 . S
C1573 C1572 1.373 . S
C1573 C1589 1.377 . S
C1574 C1572 1.389 . S
C1574 C1575 1.524 . S
C1574 C1588 1.377 . S
C1575 C1574 1.524 . S
C1575 C1576 1.397 . S
C1575 C1580 1.363 . S
C1576 H1553 0.950 . S
C1576 C1575 1.397 . S
C1576 C1577 1.334 . S
C1577 H1554 0.950 . S
C1577 C1576 1.334 . S
C1577 C1578 1.287 . S
C1578 C1577 1.287 . S
C1578 C1579 1.524 . S
C1578 H1597 0.913 . S
C1579 H1555 0.950 . S
C1579 C1578 1.524 . S
C1579 C1580 1.415 . S
C1580 H1556 0.950 . S
C1580 C1575 1.363 . S
C1580 C1579 1.415 . S
C1581 H1557 0.951 . S
C1581 C1582 1.366 . S
C1581 C1583 1.388 . S
C1582 C1581 1.366 . S
C1582 C1586 1.385 . S
C1583 H1558 0.951 . S
C1583 C1581 1.388 . S
C1583 C1584 1.366 . S
C1584 C1583 1.366 . S
C1584 C1585 1.414 . S
C1584 C1587 1.499 . S
C1585 H1559 0.950 . S
C1585 C1584 1.414 . S
C1585 C1586 1.374 . S
C1586 H1560 0.950 . S
C1586 C1582 1.385 . S
C1586 C1585 1.374 . S
C1587 C1584 1.499 . S
C1587 C1588 1.373 . S
C1587 C1589 1.389 . S
C1588 H1561 0.950 . S
C1588 C1574 1.377 . S
C1588 C1587 1.373 . S
C1589 C1573 1.377 . S
C1589 C1587 1.389 . S
C1589 C1590 1.524 . S
C1590 C1589 1.524 . S
C1590 C1591 1.397 . S
C1590 C1595 1.363 . S
C1591 H1562 0.950 . S
C1591 C1590 1.397 . S
C1591 C1592 1.334 . S
C1592 H1563 0.950 . S
C1592 C1591 1.334 . S
C1592 C1593 1.287 . S
C1593 C1592 1.287 . S
C1593 C1594 1.524 . S
C1593 H1596 0.999 . S
C1594 H1564 0.950 . S
C1594 C1593 1.524 . S
C1594 C1595 1.415 . S
C1595 H1565 0.950 . S
C1595 C1590 1.363 . S
C1595 C1594 1.415 . S
H1596 C1593 0.999 . S
H1597 C1578 0.913 . S
H1598 C1616 0.951 . S
H1599 C1618 0.951 . S
H1600 C1620 0.950 . S
H1601 C1621 0.950 . S
H1602 C1623 0.950 . S
H1603 C1626 0.950 . S
H1604 C1627 0.950 . S
H1605 C1629 0.950 . S
H1606 C1630 0.950 . S
H1607 C1631 0.951 . S
H1608 C1633 0.951 . S
H1609 C1635 0.950 . S
H1610 C1636 0.950 . S
H1611 C1638 0.950 . S
H1612 C1641 0.950 . S
H1613 C1642 0.950 . S
H1614 C1644 0.950 . S
H1615 C1645 0.950 . S
C1616 H1598 0.951 . S
C1616 C1617 1.366 . S
C1616 C1618 1.388 . S
C1617 C1616 1.366 . S
C1617 C1621 1.385 . S
C1618 H1599 0.951 . S
C1618 C1616 1.388 . S
C1618 C1619 1.366 . S
C1619 C1618 1.366 . S
C1619 C1620 1.414 . S
C1619 C1622 1.499 . S
C1620 H1600 0.950 . S
C1620 C1619 1.414 . S
C1620 C1621 1.374 . S
C1621 H1601 0.950 . S
C1621 C1617 1.385 . S
C1621 C1620 1.374 . S
C1622 C1619 1.499 . S
C1622 C1623 1.373 . S
C1622 C1624 1.389 . S
C1623 H1602 0.950 . S
C1623 C1622 1.373 . S
C1623 C1639 1.377 . S
C1624 C1622 1.389 . S
C1624 C1625 1.524 . S
C1624 C1638 1.377 . S
C1625 C1624 1.524 . S
C1625 C1626 1.397 . S
C1625 C1630 1.363 . S
C1626 H1603 0.950 . S
C1626 C1625 1.397 . S
C1626 C1627 1.334 . S
C1627 H1604 0.950 . S
C1627 C1626 1.334 . S
C1627 C1628 1.287 . S
C1628 C1627 1.287 . S
C1628 C1629 1.524 . S
C1628 H1647 0.913 . S
C1629 H1605 0.950 . S
C1629 C1628 1.524 . S
C1629 C1630 1.415 . S
C1630 H1606 0.950 . S
C1630 C1625 1.363 . S
C1630 C1629 1.415 . S
C1631 H1607 0.951 . S
C1631 C1632 1.366 . S
C1631 C1633 1.388 . S
C1632 C1631 1.366 . S
C1632 C1636 1.385 . S
C1633 H1608 0.951 . S
C1633 C1631 1.388 . S
C1633 C1634 1.366 . S
C1634 C1633 1.366 . S
C1634 C1635 1.414 . S
C1634 C1637 1.499 . S
C1635 H1609 0.950 . S
C1635 C1634 1.414 . S
C1635 C1636 1.374 . S
C1636 H1610 0.950 . S
C1636 C1632 1.385 . S
C1636 C1635 1.374 . S
C1637 C1634 1.499 . S
C1637 C1638 1.373 . S
C1637 C1639 1.389 . S
C1638 H1611 0.950 . S
C1638 C1624 1.377 . S
C1638 C1637 1.373 . S
C1639 C1623 1.377 . S
C1639 C1637 1.389 . S
C1639 C1640 1.524 . S
C1640 C1639 1.524 . S
C1640 C1641 1.397 . S
C1640 C1645 1.363 . S
C1641 H1612 0.950 . S
C1641 C1640 1.397 . S
C1641 C1642 1.334 . S
C1642 H1613 0.950 . S
C1642 C1641 1.334 . S
C1642 C1643 1.287 . S
C1643 C1642 1.287 . S
C1643 C1644 1.524 . S
C1643 H1646 0.999 . S
C1644 H1614 0.950 . S
C1644 C1643 1.524 . S
C1644 C1645 1.415 . S
C1645 H1615 0.950 . S
C1645 C1640 1.363 . S
C1645 C1644 1.415 . S
H1646 C1643 0.999 . S
H1647 C1628 0.913 . S
H1648 C1666 0.951 . S
H1649 C1668 0.951 . S
H1650 C1670 0.950 . S
H1651 C1671 0.950 . S
H1652 C1673 0.950 . S
H1653 C1676 0.950 . S
H1654 C1677 0.950 . S
H1655 C1679 0.950 . S
H1656 C1680 0.950 . S
H1657 C1681 0.951 . S
H1658 C1683 0.951 . S
H1659 C1685 0.950 . S
H1660 C1686 0.950 . S
H1661 C1688 0.950 . S
H1662 C1691 0.950 . S
H1663 C1692 0.950 . S
H1664 C1694 0.950 . S
H1665 C1695 0.950 . S
C1666 H1648 0.951 . S
C1666 C1667 1.366 . S
C1666 C1668 1.388 . S
C1667 C1666 1.366 . S
C1667 C1671 1.385 . S
C1668 H1649 0.951 . S
C1668 C1666 1.388 . S
C1668 C1669 1.366 . S
C1669 C1668 1.366 . S
C1669 C1670 1.414 . S
C1669 C1672 1.499 . S
C1670 H1650 0.950 . S
C1670 C1669 1.414 . S
C1670 C1671 1.374 . S
C1671 H1651 0.950 . S
C1671 C1667 1.385 . S
C1671 C1670 1.374 . S
C1672 C1669 1.499 . S
C1672 C1673 1.373 . S
C1672 C1674 1.389 . S
C1673 H1652 0.950 . S
C1673 C1672 1.373 . S
C1673 C1689 1.377 . S
C1674 C1672 1.389 . S
C1674 C1675 1.524 . S
C1674 C1688 1.377 . S
C1675 C1674 1.524 . S
C1675 C1676 1.397 . S
C1675 C1680 1.363 . S
C1676 H1653 0.950 . S
C1676 C1675 1.397 . S
C1676 C1677 1.334 . S
C1677 H1654 0.950 . S
C1677 C1676 1.334 . S
C1677 C1678 1.287 . S
C1678 C1677 1.287 . S
C1678 C1679 1.524 . S
C1678 H1697 0.913 . S
C1679 H1655 0.950 . S
C1679 C1678 1.524 . S
C1679 C1680 1.415 . S
C1680 H1656 0.950 . S
C1680 C1675 1.363 . S
C1680 C1679 1.415 . S
C1681 H1657 0.951 . S
C1681 C1682 1.366 . S
C1681 C1683 1.388 . S
C1682 C1681 1.366 . S
C1682 C1686 1.385 . S
C1683 H1658 0.951 . S
C1683 C1681 1.388 . S
C1683 C1684 1.366 . S
C1684 C1683 1.366 . S
C1684 C1685 1.414 . S
C1684 C1687 1.499 . S
C1685 H1659 0.950 . S
C1685 C1684 1.414 . S
C1685 C1686 1.374 . S
C1686 H1660 0.950 . S
C1686 C1682 1.385 . S
C1686 C1685 1.374 . S
C1687 C1684 1.499 . S
C1687 C1688 1.373 . S
C1687 C1689 1.389 . S
C1688 H1661 0.950 . S
C1688 C1674 1.377 . S
C1688 C1687 1.373 . S
C1689 C1673 1.377 . S
C1689 C1687 1.389 . S
C1689 C1690 1.524 . S
C1690 C1689 1.524 . S
C1690 C1691 1.397 . S
C1690 C1695 1.363 . S
C1691 H1662 0.950 . S
C1691 C1690 1.397 . S
C1691 C1692 1.334 . S
C1692 H1663 0.950 . S
C1692 C1691 1.334 . S
C1692 C1693 1.287 . S
C1693 C1692 1.287 . S
C1693 C1694 1.524 . S
C1693 H1696 0.999 . S
C1694 H1664 0.950 . S
C1694 C1693 1.524 . S
C1694 C1695 1.415 . S
C1695 H1665 0.950 . S
C1695 C1690 1.363 . S
C1695 C1694 1.415 . S
H1696 C1693 0.999 . S
H1697 C1678 0.913 . S
H1698 C1716 0.951 . S
H1699 C1718 0.951 . S
H1700 C1720 0.950 . S
H1701 C1721 0.950 . S
H1702 C1723 0.950 . S
H1703 C1726 0.950 . S
H1704 C1727 0.950 . S
H1705 C1729 0.950 . S
H1706 C1730 0.950 . S
H1707 C1731 0.951 . S
H1708 C1733 0.951 . S
H1709 C1735 0.950 . S
H1710 C1736 0.950 . S
H1711 C1738 0.950 . S
H1712 C1741 0.950 . S
H1713 C1742 0.950 . S
H1714 C1744 0.950 . S
H1715 C1745 0.950 . S
C1716 H1698 0.951 . S
C1716 C1717 1.366 . S
C1716 C1718 1.388 . S
C1717 C1716 1.366 . S
C1717 C1721 1.385 . S
C1718 H1699 0.951 . S
C1718 C1716 1.388 . S
C1718 C1719 1.366 . S
C1719 C1718 1.366 . S
C1719 C1720 1.414 . S
C1719 C1722 1.499 . S
C1720 H1700 0.950 . S
C1720 C1719 1.414 . S
C1720 C1721 1.374 . S
C1721 H1701 0.950 . S
C1721 C1717 1.385 . S
C1721 C1720 1.374 . S
C1722 C1719 1.499 . S
C1722 C1723 1.373 . S
C1722 C1724 1.389 . S
C1723 H1702 0.950 . S
C1723 C1722 1.373 . S
C1723 C1739 1.377 . S
C1724 C1722 1.389 . S
C1724 C1725 1.524 . S
C1724 C1738 1.377 . S
C1725 C1724 1.524 . S
C1725 C1726 1.397 . S
C1725 C1730 1.363 . S
C1726 H1703 0.950 . S
C1726 C1725 1.397 . S
C1726 C1727 1.334 . S
C1727 H1704 0.950 . S
C1727 C1726 1.334 . S
C1727 C1728 1.287 . S
C1728 C1727 1.287 . S
C1728 C1729 1.524 . S
C1728 H1747 0.913 . S
C1729 H1705 0.950 . S
C1729 C1728 1.524 . S
C1729 C1730 1.415 . S
C1730 H1706 0.950 . S
C1730 C1725 1.363 . S
C1730 C1729 1.415 . S
C1731 H1707 0.951 . S
C1731 C1732 1.366 . S
C1731 C1733 1.388 . S
C1732 C1731 1.366 . S
C1732 C1736 1.385 . S
C1733 H1708 0.951 . S
C1733 C1731 1.388 . S
C1733 C1734 1.366 . S
C1734 C1733 1.366 . S
C1734 C1735 1.414 . S
C1734 C1737 1.499 . S
C1735 H1709 0.950 . S
C1735 C1734 1.414 . S
C1735 C1736 1.374 . S
C1736 H1710 0.950 . S
C1736 C1732 1.385 . S
C1736 C1735 1.374 . S
C1737 C1734 1.499 . S
C1737 C1738 1.373 . S
C1737 C1739 1.389 . S
C1738 H1711 0.950 . S
C1738 C1724 1.377 . S
C1738 C1737 1.373 . S
C1739 C1723 1.377 . S
C1739 C1737 1.389 . S
C1739 C1740 1.524 . S
C1740 C1739 1.524 . S
C1740 C1741 1.397 . S
C1740 C1745 1.363 . S
C1741 H1712 0.950 . S
C1741 C1740 1.397 . S
C1741 C1742 1.334 . S
C1742 H1713 0.950 . S
C1742 C1741 1.334 . S
C1742 C1743 1.287 . S
C1743 C1742 1.287 . S
C1743 C1744 1.524 . S
C1743 H1746 0.999 . S
C1744 H1714 0.950 . S
C1744 C1743 1.524 . S
C1744 C1745 1.415 . S
C1745 H1715 0.950 . S
C1745 C1740 1.363 . S
C1745 C1744 1.415 . S
H1746 C1743 0.999 . S
H1747 C1728 0.913 . S
H1748 C1766 0.951 . S
H1749 C1768 0.951 . S
H1750 C1770 0.950 . S
H1751 C1771 0.950 . S
H1752 C1773 0.950 . S
H1753 C1776 0.950 . S
H1754 C1777 0.950 . S
H1755 C1779 0.950 . S
H1756 C1780 0.950 . S
H1757 C1781 0.951 . S
H1758 C1783 0.951 . S
H1759 C1785 0.950 . S
H1760 C1786 0.950 . S
H1761 C1788 0.950 . S
H1762 C1791 0.950 . S
H1763 C1792 0.950 . S
H1764 C1794 0.950 . S
H1765 C1795 0.950 . S
C1766 H1748 0.951 . S
C1766 C1767 1.366 . S
C1766 C1768 1.388 . S
C1767 C1766 1.366 . S
C1767 C1771 1.385 . S
C1768 H1749 0.951 . S
C1768 C1766 1.388 . S
C1768 C1769 1.366 . S
C1769 C1768 1.366 . S
C1769 C1770 1.414 . S
C1769 C1772 1.499 . S
C1770 H1750 0.950 . S
C1770 C1769 1.414 . S
C1770 C1771 1.374 . S
C1771 H1751 0.950 . S
C1771 C1767 1.385 . S
C1771 C1770 1.374 . S
C1772 C1769 1.499 . S
C1772 C1773 1.373 . S
C1772 C1774 1.389 . S
C1773 H1752 0.950 . S
C1773 C1772 1.373 . S
C1773 C1789 1.377 . S
C1774 C1772 1.389 . S
C1774 C1775 1.524 . S
C1774 C1788 1.377 . S
C1775 C1774 1.524 . S
C1775 C1776 1.397 . S
C1775 C1780 1.363 . S
C1776 H1753 0.950 . S
C1776 C1775 1.397 . S
C1776 C1777 1.334 . S
C1777 H1754 0.950 . S
C1777 C1776 1.334 . S
C1777 C1778 1.287 . S
C1778 C1777 1.287 . S
C1778 C1779 1.524 . S
C1778 H1797 0.913 . S
C1779 H1755 0.950 . S
C1779 C1778 1.524 . S
C1779 C1780 1.415 . S
C1780 H1756 0.950 . S
C1780 C1775 1.363 . S
C1780 C1779 1.415 . S
C1781 H1757 0.951 . S
C1781 C1782 1.366 . S
C1781 C1783 1.388 . S
C1782 C1781 1.366 . S
C1782 C1786 1.385 . S
C1783 H1758 0.951 . S
C1783 C1781 1.388 . S
C1783 C1784 1.366 . S
C1784 C1783 1.366 . S
C1784 C1785 1.414 . S
C1784 C1787 1.499 . S
C1785 H1759 0.950 . S
C1785 C1784 1.414 . S
C1785 C1786 1.374 . S
C1786 H1760 0.950 . S
C1786 C1782 1.385 . S
C1786 C1785 1.374 . S
C1787 C1784 1.499 . S
C1787 C1788 1.373 . S
C1787 C1789 1.389 . S
C1788 H1761 0.950 . S
C1788 C1774 1.377 . S
C1788 C1787 1.373 . S
C1789 C1773 1.377 . S
C1789 C1787 1.389 . S
C1789 C1790 1.524 . S
C1790 C1789 1.524 . S
C1790 C1791 1.397 . S
C1790 C1795 1.363 . S
C1791 H1762 0.950 . S
C1791 C1790 1.397 . S
C1791 C1792 1.334 . S
C1792 H1763 0.950 . S
C1792 C1791 1.334 . S
C1792 C1793 1.287 . S
C1793 C1792 1.287 . S
C1793 C1794 1.524 . S
C1793 H1796 0.999 . S
C1794 H1764 0.950 . S
C1794 C1793 1.524 . S
C1794 C1795 1.415 . S
C1795 H1765 0.950 . S
C1795 C1790 1.363 . S
C1795 C1794 1.415 . S
H1796 C1793 0.999 . S
H1797 C1778 0.913 . S
H1798 C1816 0.951 . S
H1799 C1818 0.951 . S
H1800 C1820 0.950 . S
H1801 C1821 0.950 . S
H1802 C1823 0.950 . S
H1803 C1826 0.950 . S
H1804 C1827 0.950 . S
H1805 C1829 0.950 . S
H1806 C1830 0.950 . S
H1807 C1831 0.951 . S
H1808 C1833 0.951 . S
H1809 C1835 0.950 . S
H1810 C1836 0.950 . S
H1811 C1838 0.950 . S
H1812 C1841 0.950 . S
H1813 C1842 0.950 . S
H1814 C1844 0.950 . S
H1815 C1845 0.950 . S
C1816 H1798 0.951 . S
C1816 C1817 1.366 . S
C1816 C1818 1.388 . S
C1817 C1816 1.366 . S
C1817 C1821 1.385 . S
C1818 H1799 0.951 . S
C1818 C1816 1.388 . S
C1818 C1819 1.366 . S
C1819 C1818 1.366 . S
C1819 C1820 1.414 . S
C1819 C1822 1.499 . S
C1820 H1800 0.950 . S
C1820 C1819 1.414 . S
C1820 C1821 1.374 . S
C1821 H1801 0.950 . S
C1821 C1817 1.385 . S
C1821 C1820 1.374 . S
C1822 C1819 1.499 . S
C1822 C1823 1.373 . S
C1822 C1824 1.389 . S
C1823 H1802 0.950 . S
C1823 C1822 1.373 . S
C1823 C1839 1.377 . S
C1824 C1822 1.389 . S
C1824 C1825 1.524 . S
C1824 C1838 1.377 . S
C1825 C1824 1.524 . S
C1825 C1826 1.397 . S
C1825 C1830 1.363 . S
C1826 H1803 0.950 . S
C1826 C1825 1.397 . S
C1826 C1827 1.334 . S
C1827 H1804 0.950 . S
C1827 C1826 1.334 . S
C1827 C1828 1.287 . S
C1828 C1827 1.287 . S
C1828 C1829 1.524 . S
C1828 H1847 0.913 . S
C1829 H1805 0.950 . S
C1829 C1828 1.524 . S
C1829 C1830 1.415 . S
C1830 H1806 0.950 . S
C1830 C1825 1.363 . S
C1830 C1829 1.415 . S
C1831 H1807 0.951 . S
C1831 C1832 1.366 . S
C1831 C1833 1.388 . S
C1832 C1831 1.366 . S
C1832 C1836 1.385 . S
C1833 H1808 0.951 . S
C1833 C1831 1.388 . S
C1833 C1834 1.366 . S
C1834 C1833 1.366 . S
C1834 C1835 1.414 . S
C1834 C1837 1.499 . S
C1835 H1809 0.950 . S
C1835 C1834 1.414 . S
C1835 C1836 1.374 . S
C1836 H1810 0.950 . S
C1836 C1832 1.385 . S
C1836 C1835 1.374 . S
C1837 C1834 1.499 . S
C1837 C1838 1.373 . S
C1837 C1839 1.389 . S
C1838 H1811 0.950 . S
C1838 C1824 1.377 . S
C1838 C1837 1.373 . S
C1839 C1823 1.377 . S
C1839 C1837 1.389 . S
C1839 C1840 1.524 . S
C1840 C1839 1.524 . S
C1840 C1841 1.397 . S
C1840 C1845 1.363 . S
C1841 H1812 0.950 . S
C1841 C1840 1.397 . S
C1841 C1842 1.334 . S
C1842 H1813 0.950 . S
C1842 C1841 1.334 . S
C1842 C1843 1.287 . S
C1843 C1842 1.287 . S
C1843 C1844 1.524 . S
C1843 H1846 0.999 . S
C1844 H1814 0.950 . S
C1844 C1843 1.524 . S
C1844 C1845 1.415 . S
C1845 H1815 0.950 . S
C1845 C1840 1.363 . S
C1845 C1844 1.415 . S
H1846 C1843 0.999 . S
H1847 C1828 0.913 . S
H1848 C1866 0.951 . S
H1849 C1868 0.951 . S
H1850 C1870 0.950 . S
H1851 C1871 0.950 . S
H1852 C1873 0.950 . S
H1853 C1876 0.950 . S
H1854 C1877 0.950 . S
H1855 C1879 0.950 . S
H1856 C1880 0.950 . S
H1857 C1881 0.951 . S
H1858 C1883 0.951 . S
H1859 C1885 0.950 . S
H1860 C1886 0.950 . S
H1861 C1888 0.950 . S
H1862 C1891 0.950 . S
H1863 C1892 0.950 . S
H1864 C1894 0.950 . S
H1865 C1895 0.950 . S
C1866 H1848 0.951 . S
C1866 C1867 1.366 . S
C1866 C1868 1.388 . S
C1867 C1866 1.366 . S
C1867 C1871 1.385 . S
C1868 H1849 0.951 . S
C1868 C1866 1.388 . S
C1868 C1869 1.366 . S
C1869 C1868 1.366 . S
C1869 C1870 1.414 . S
C1869 C1872 1.499 . S
C1870 H1850 0.950 . S
C1870 C1869 1.414 . S
C1870 C1871 1.374 . S
C1871 H1851 0.950 . S
C1871 C1867 1.385 . S
C1871 C1870 1.374 . S
C1872 C1869 1.499 . S
C1872 C1873 1.373 . S
C1872 C1874 1.389 . S
C1873 H1852 0.950 . S
C1873 C1872 1.373 . S
C1873 C1889 1.377 . S
C1874 C1872 1.389 . S
C1874 C1875 1.524 . S
C1874 C1888 1.377 . S
C1875 C1874 1.524 . S
C1875 C1876 1.397 . S
C1875 C1880 1.363 . S
C1876 H1853 0.950 . S
C1876 C1875 1.397 . S
C1876 C1877 1.334 . S
C1877 H1854 0.950 . S
C1877 C1876 1.334 . S
C1877 C1878 1.287 . S
C1878 C1877 1.287 . S
C1878 C1879 1.524 . S
C1878 H1897 0.913 . S
C1879 H1855 0.950 . S
C1879 C1878 1.524 . S
C1879 C1880 1.415 . S
C1880 H1856 0.950 . S
C1880 C1875 1.363 . S
C1880 C1879 1.415 . S
C1881 H1857 0.951 . S
C1881 C1882 1.366 . S
C1881 C1883 1.388 . S
C1882 C1881 1.366 . S
C1882 C1886 1.385 . S
C1883 H1858 0.951 . S
C1883 C1881 1.388 . S
C1883 C1884 1.366 . S
C1884 C1883 1.366 . S
C1884 C1885 1.414 . S
C1884 C1887 1.499 . S
C1885 H1859 0.950 . S
C1885 C1884 1.414 . S
C1885 C1886 1.374 . S
C1886 H1860 0.950 . S
C1886 C1882 1.385 . S
C1886 C1885 1.374 . S
C1887 C1884 1.499 . S
C1887 C1888 1.373 . S
C1887 C1889 1.389 . S
C1888 H1861 0.950 . S
C1888 C1874 1.377 . S
C1888 C1887 1.373 . S
C1889 C1873 1.377 . S
C1889 C1887 1.389 . S
C1889 C1890 1.524 . S
C1890 C1889 1.524 . S
C1890 C1891 1.397 . S
C1890 C1895 1.363 . S
C1891 H1862 0.950 . S
C1891 C1890 1.397 . S
C1891 C1892 1.334 . S
C1892 H1863 0.950 . S
C1892 C1891 1.334 . S
C1892 C1893 1.287 . S
C1893 C1892 1.287 . S
C1893 C1894 1.524 . S
C1893 H1896 0.999 . S
C1894 H1864 0.950 . S
C1894 C1893 1.524 . S
C1894 C1895 1.415 . S
C1895 H1865 0.950 . S
C1895 C1890 1.363 . S
C1895 C1894 1.415 . S
H1896 C1893 0.999 . S
H1897 C1878 0.913 . S
H1898 C1916 0.951 . S
H1899 C1918 0.951 . S
H1900 C1920 0.950 . S
H1901 C1921 0.950 . S
H1902 C1923 0.950 . S
H1903 C1926 0.950 . S
H1904 C1927 0.950 . S
H1905 C1929 0.950 . S
H1906 C1930 0.950 . S
H1907 C1931 0.951 . S
H1908 C1933 0.951 . S
H1909 C1935 0.950 . S
H1910 C1936 0.950 . S
H1911 C1938 0.950 . S
H1912 C1941 0.950 . S
H1913 C1942 0.950 . S
H1914 C1944 0.950 . S
H1915 C1945 0.950 . S
C1916 H1898 0.951 . S
C1916 C1917 1.366 . S
C1916 C1918 1.388 . S
C1917 C1916 1.366 . S
C1917 C1921 1.385 . S
C1918 H1899 0.951 . S
C1918 C1916 1.388 . S
C1918 C1919 1.366 . S
C1919 C1918 1.366 . S
C1919 C1920 1.414 . S
C1919 C1922 1.499 . S
C1920 H1900 0.950 . S
C1920 C1919 1.414 . S
C1920 C1921 1.374 . S
C1921 H1901 0.950 . S
C1921 C1917 1.385 . S
C1921 C1920 1.374 . S
C1922 C1919 1.499 . S
C1922 C1923 1.373 . S
C1922 C1924 1.389 . S
C1923 H1902 0.950 . S
C1923 C1922 1.373 . S
C1923 C1939 1.377 . S
C1924 C1922 1.389 . S
C1924 C1925 1.524 . S
C1924 C1938 1.377 . S
C1925 C1924 1.524 . S
C1925 C1926 1.397 . S
C1925 C1930 1.363 . S
C1926 H1903 0.950 . S
C1926 C1925 1.397 . S
C1926 C1927 1.334 . S
C1927 H1904 0.950 . S
C1927 C1926 1.334 . S
C1927 C1928 1.287 . S
C1928 C1927 1.287 . S
C1928 C1929 1.524 . S
C1928 H1947 0.913 . S
C1929 H1905 0.950 . S
C1929 C1928 1.524 . S
C1929 C1930 1.415 . S
C1930 H1906 0.950 . S
C1930 C1925 1.363 . S
C1930 C1929 1.415 . S
C1931 H1907 0.951 . S
C1931 C1932 1.366 . S
C1931 C1933 1.388 . S
C1932 C1931 1.366 . S
C1932 C1936 1.385 . S
C1933 H1908 0.951 . S
C1933 C1931 1.388 . S
C1933 C1934 1.366 . S
C1934 C1933 1.366 . S
C1934 C1935 1.414 . S
C1934 C1937 1.499 . S
C1935 H1909 0.950 . S
C1935 C1934 1.414 . S
C1935 C1936 1.374 . S
C1936 H1910 0.950 . S
C1936 C1932 1.385 . S
C1936 C1935 1.374 . S
C1937 C1934 1.499 . S
C1937 C1938 1.373 . S
C1937 C1939 1.389 . S
C1938 H1911 0.950 . S
C1938 C1924 1.377 . S
C1938 C1937 1.373 . S
C1939 C1923 1.377 . S
C1939 C1937 1.389 . S
C1939 C1940 1.524 . S
C1940 C1939 1.524 . S
C1940 C1941 1.397 . S
C1940 C1945 1.363 . S
C1941 H1912 0.950 . S
C1941 C1940 1.397 . S
C1941 C1942 1.334 . S
C1942 H1913 0.950 . S
C1942 C1941 1.334 . S
C1942 C1943 1.287 . S
C1943 C1942 1.287 . S
C1943 C1944 1.524 . S
C1943 H1946 0.999 . S
C1944 H1914 0.950 . S
C1944 C1943 1.524 . S
C1944 C1945 1.415 . S
C1945 H1915 0.950 . S
C1945 C1940 1.363 . S
C1945 C1944 1.415 . S
H1946 C1943 0.999 . S
H1947 C1928 0.913 . S
H1948 C1966 0.951 . S
H1949 C1968 0.951 . S
H1950 C1970 0.950 . S
H1951 C1971 0.950 . S
H1952 C1973 0.950 . S
H1953 C1976 0.950 . S
H1954 C1977 0.950 . S
H1955 C1979 0.950 . S
H1956 C1980 0.950 . S
H1957 C1981 0.951 . S
H1958 C1983 0.951 . S
H1959 C1985 0.950 . S
H1960 C1986 0.950 . S
H1961 C1988 0.950 . S
H1962 C1991 0.950 . S
H1963 C1992 0.950 . S
H1964 C1994 0.950 . S
H1965 C1995 0.950 . S
C1966 H1948 0.951 . S
C1966 C1967 1.366 . S
C1966 C1968 1.388 . S
C1967 C1966 1.366 . S
C1967 C1971 1.385 . S
C1968 H1949 0.951 . S
C1968 C1966 1.388 . S
C1968 C1969 1.366 . S
C1969 C1968 1.366 . S
C1969 C1970 1.414 . S
C1969 C1972 1.499 . S
C1970 H1950 0.950 . S
C1970 C1969 1.414 . S
C1970 C1971 1.374 . S
C1971 H1951 0.950 . S
C1971 C1967 1.385 . S
C1971 C1970 1.374 . S
C1972 C1969 1.499 . S
C1972 C1973 1.373 . S
C1972 C1974 1.389 . S
C1973 H1952 0.950 . S
C1973 C1972 1.373 . S
C1973 C1989 1.377 . S
C1974 C1972 1.389 . S
C1974 C1975 1.524 . S
C1974 C1988 1.377 . S
C1975 C1974 1.524 . S
C1975 C1976 1.397 . S
C1975 C1980 1.363 . S
C1976 H1953 0.950 . S
C1976 C1975 1.397 . S
C1976 C1977 1.334 . S
C1977 H1954 0.950 . S
C1977 C1976 1.334 . S
C1977 C1978 1.287 . S
C1978 C1977 1.287 . S
C1978 C1979 1.524 . S
C1978 H1997 0.913 . S
C1979 H1955 0.950 . S
C1979 C1978 1.524 . S
C1979 C1980 1.415 . S
C1980 H1956 0.950 . S
C1980 C1975 1.363 . S
C1980 C1979 1.415 . S
C1981 H1957 0.951 . S
C1981 C1982 1.366 . S
C1981 C1983 1.388 . S
C1982 C1981 1.366 . S
C1982 C1986 1.385 . S
C1983 H1958 0.951 . S
C1983 C1981 1.388 . S
C1983 C1984 1.366 . S
C1984 C1983 1.366 . S
C1984 C1985 1.414 . S
C1984 C1987 1.499 . S
C1985 H1959 0.950 . S
C1985 C1984 1.414 . S
C1985 C1986 1.374 . S
C1986 H1960 0.950 . S
C1986 C1982 1.385 . S
C1986 C1985 1.374 . S
C1987 C1984 1.499 . S
C1987 C1988 1.373 . S
C1987 C1989 1.389 . S
C1988 H1961 0.950 . S
C1988 C1974 1.377 . S
C1988 C1987 1.373 . S
C1989 C1973 1.377 . S
C1989 C1987 1.389 . S
C1989 C1990 1.524 . S
C1990 C1989 1.524 . S
C1990 C1991 1.397 . S
C1990 C1995 1.363 . S
C1991 H1962 0.950 . S
C1991 C1990 1.397 . S
C1991 C1992 1.334 . S
C1992 H1963 0.950 . S
C1992 C1991 1.334 . S
C1992 C1993 1.287 . S
C1993 C1992 1.287 . S
C1993 C1994 1.524 . S
C1993 H1996 0.999 . S
C1994 H1964 0.950 . S
C1994 C1993 1.524 . S
C1994 C1995 1.415 . S
C1995 H1965 0.950 . S
C1995 C1990 1.363 . S
C1995 C1994 1.415 . S
H1996 C1993 0.999 . S
H1997 C1978 0.913 . S
C832 C502 1.560 . S
C817 C31 1.539 . S
C882 C571 1.552 . S
C867 C61 1.534 . S
C932 C509 1.557 . S
C917 C121 1.539 . S
C982 C572 1.555 . S
C967 C211 1.533 . S
C1032 C625 1.557 . S
C1017 C1 1.544 . S
C1082 C661 1.526 . S
C1067 C91 1.509 . S
C1117 C151 1.524 . S
C1132 C721 1.556 . S
C1182 C784 1.526 . S
C1167 C181 1.493 . S
C1232 C624 1.551 . S
C1217 C80 1.541 . S
C1267 C140 1.495 . S
C1282 C668 1.526 . S
C1332 C714 1.556 . S
C1317 C200 1.523 . S
C1382 C783 1.529 . S
C1367 C20 1.514 . S
C1417 C271 1.538 . S
C1432 C562 1.560 . S
C1482 C519 1.553 . S
C1467 C331 1.528 . S
C1517 C380 1.546 . S
C1532 C555 1.557 . S
C1567 C421 1.540 . S
C1582 C518 1.555 . S
C1632 C730 1.556 . S
C1617 C241 1.544 . S
C1682 C774 1.525 . S
C1667 C320 1.498 . S
C1732 C608 1.556 . S
C1717 C361 1.540 . S
C1767 C440 1.505 . S
C1782 C677 1.526 . S
C1832 C731 1.551 . S
C1817 C301 1.526 . S
C1882 C767 1.526 . S
C1867 C391 1.506 . S
C1932 C615 1.556 . S
C1917 C451 1.538 . S
C1967 C260 1.514 . S
C1982 C678 1.528 . S
