# Generated by pormake.
# Topology pts, (4,4)-cn, num edge types: 1
# Building blocks:
#     Node 0, Type 0, BuildingBlock: NAHDIM_clean_linker_0, # of connection points: 4
#     Node 1, Type 0, BuildingBlock: NAHDIM_clean_linker_0, # of connection points: 4
#     Node 2, Type 1, BuildingBlock: UXUYUI_clean_sbu_0, # of connection points: 4
#     Node 3, Type 1, BuildingBlock: UXUYUI_clean_sbu_0, # of connection points: 4
#     Edge 4, Type (0, 1), BuildingBlock: XIVTED_clean_linker_0, # of connection points: 2
#     Edge 5, Type (0, 1), BuildingBlock: XIVTED_clean_linker_0, # of connection points: 2
#     Edge 6, Type (0, 1), BuildingBlock: XIVTED_clean_linker_0, # of connection points: 2
#     Edge 7, Type (0, 1), BuildingBlock: XIVTED_clean_linker_0, # of connection points: 2
#     Edge 8, Type (0, 1), BuildingBlock: XIVTED_clean_linker_0, # of connection points: 2
#     Edge 9, Type (0, 1), BuildingBlock: XIVTED_clean_linker_0, # of connection points: 2
#     Edge 10, Type (0, 1), BuildingBlock: XIVTED_clean_linker_0, # of connection points: 2
#     Edge 11, Type (0, 1), BuildingBlock: XIVTED_clean_linker_0, # of connection points: 2
# Relax obj value: 0.021
# Max RMSD: 0.066
# Mean RMSD: 0.065
data_MOF--net-pts--node1-UXUYUI_clean_sbu_0--node2-NAHDIM_clean_linker_0--edge1-XIVTED_clean_linker_0
_symmetry_space_group_name_H-M    P1
_symmetry_Int_Tables_number       1
_symmetry_cell_setting            triclinic
loop_
_symmetry_equiv_pos_as_xyz
'x, y, z'
_cell_length_a     38.17102
_cell_length_b     38.197294
_cell_length_c     62.165477
_cell_angle_alpha  90.254634
_cell_angle_beta   89.555074
_cell_angle_gamma 89.999594
loop_
_atom_site_label
_atom_site_type_symbol
_atom_site_fract_x
_atom_site_fract_y
_atom_site_fract_z
_atom_type_partial_charge
C0 C 0.66701 0.06136 0.1518 0.0
C1 C 0.68586 0.03708 0.13587 0.0
C2 C 0.66352 0.03878 0.09943 0.0
C3 C 0.66234 0.00299 0.09436 0.0
C4 C 0.63911 0.99032 0.07877 0.0
C5 C 0.61655 0.01398 0.06821 0.0
C6 C 0.61889 0.05031 0.07267 0.0
C7 C 0.64289 0.06228 0.088 0.0
C8 C 0.63802 0.95159 0.07398 0.0
C9 C 0.59503 0.07636 0.06193 0.0
C10 C 0.43037 0.89324 0.14269 0.0
C11 C 0.42536 0.92567 0.12872 0.0
C12 C 0.44935 0.93149 0.09267 0.0
C13 C 0.4531 0.96796 0.09183 0.0
C14 C 0.47756 0.98335 0.07781 0.0
C15 C 0.49911 0.96167 0.06473 0.0
C16 C 0.49432 0.92488 0.06501 0.0
C17 C 0.46885 0.91035 0.07869 0.0
C18 C 0.48109 0.02269 0.07749 0.0
C19 C 0.51711 0.90076 0.05163 0.0
C20 C 0.43283 0.98323 0.9286 0.0
C21 C 0.44391 0.01604 0.93629 0.0
C22 C 0.47616 0.01978 0.94667 0.0
C23 C 0.49802 0.99022 0.9492 0.0
C24 C 0.48783 0.95753 0.94052 0.0
C25 C 0.45536 0.95452 0.93019 0.0
C26 C 0.48666 0.05527 0.95525 0.0
C27 C 0.51078 0.92563 0.94276 0.0
C28 C 0.76948 0.07543 0.94388 0.0
C29 C 0.75076 0.04683 0.93107 0.0
C30 C 0.68687 0.0461 0.93333 0.0
C31 C 0.66 0.06984 0.93789 0.0
C32 C 0.62838 0.05864 0.94721 0.0
C33 C 0.6234 0.02265 0.95158 0.0
C34 C 0.64974 0.99822 0.9458 0.0
C35 C 0.68127 0.01021 0.93669 0.0
C36 C 0.60066 0.08534 0.9529 0.0
C37 C 0.64482 0.95957 0.94968 0.0
C38 C 0.58816 0.00058 0.05423 0.0
C39 C 0.55828 0.98726 0.06437 0.0
C40 C 0.52897 0.97706 0.0526 0.0
C41 C 0.52899 0.98104 0.03001 0.0
C42 C 0.49909 0.97355 0.01778 0.0
C43 C 0.49945 0.97758 0.99555 0.0
C44 C 0.52988 0.98885 0.98467 0.0
C45 C 0.5304 0.99339 0.9621 0.0
C46 C 0.56129 0.00382 0.95172 0.0
C47 C 0.59165 0.01086 0.96341 0.0
C48 C 0.59128 0.00772 0.98608 0.0
C49 C 0.62095 0.01601 0.99842 0.0
C50 C 0.62005 0.01361 0.02075 0.0
C51 C 0.58961 0.00249 0.03156 0.0
C52 C 0.5597 0.99316 0.01942 0.0
C53 C 0.56035 0.99637 0.99669 0.0
C54 C 0.35452 0.97877 0.94572 0.0
C55 C 0.37011 0.99532 0.92535 0.0
O56 O 0.68402 0.05128 0.11543 0.0
O57 O 0.71769 0.05868 0.92557 0.0
O58 O 0.40086 0.97826 0.91955 0.0
O59 O 0.42788 0.91598 0.10725 0.0
H60 H 0.67216 0.01135 0.13659 0.0
H61 H 0.63902 0.06383 0.14729 0.0
H62 H 0.67899 0.08788 0.15173 0.0
H63 H 0.66826 0.0505 0.16834 0.0
H64 H 0.67938 0.98498 0.10271 0.0
H65 H 0.6445 0.08993 0.09187 0.0
H66 H 0.61363 0.94029 0.08089 0.0
H67 H 0.66076 0.93754 0.08091 0.0
H68 H 0.63762 0.94696 0.05633 0.0
H69 H 0.59862 0.10336 0.06825 0.0
H70 H 0.56723 0.0686 0.06434 0.0
H71 H 0.60032 0.07652 0.04436 0.0
H72 H 0.44687 0.94416 0.13298 0.0
H73 H 0.42864 0.90039 0.16002 0.0
H74 H 0.45664 0.88171 0.13951 0.0
H75 H 0.41018 0.87314 0.13907 0.0
H76 H 0.43717 0.98433 0.10229 0.0
H77 H 0.46536 0.88221 0.07938 0.0
H78 H 0.48385 0.03221 0.0607 0.0
H79 H 0.50504 0.03043 0.08634 0.0
H80 H 0.45824 0.03585 0.0852 0.0
H81 H 0.51241 0.87274 0.05539 0.0
H82 H 0.54522 0.90673 0.05433 0.0
H83 H 0.51174 0.90489 0.03431 0.0
H84 H 0.37502 0.02325 0.92918 0.0
H85 H 0.42783 0.03901 0.93418 0.0
H86 H 0.44693 0.92943 0.92388 0.0
H87 H 0.49033 0.05386 0.97293 0.0
H88 H 0.46687 0.07578 0.95181 0.0
H89 H 0.51206 0.06322 0.94798 0.0
H90 H 0.5001 0.90257 0.93406 0.0
H91 H 0.51329 0.91895 0.96004 0.0
H92 H 0.53749 0.93133 0.93649 0.0
H93 H 0.74911 0.02353 0.94173 0.0
H94 H 0.79607 0.06651 0.94853 0.0
H95 H 0.75437 0.08143 0.95879 0.0
H96 H 0.77187 0.09979 0.93427 0.0
H97 H 0.66439 0.0974 0.9348 0.0
H98 H 0.70143 0.99156 0.93219 0.0
H99 H 0.59446 0.08403 0.97037 0.0
H100 H 0.57625 0.07926 0.94405 0.0
H101 H 0.60892 0.11245 0.94892 0.0
H102 H 0.66656 0.94369 0.94275 0.0
H103 H 0.61973 0.95066 0.94257 0.0
H104 H 0.64333 0.95464 0.96725 0.0
H105 H 0.55772 0.98508 0.08178 0.0
H106 H 0.47499 0.96477 0.02531 0.0
H107 H 0.47558 0.97157 0.98699 0.0
H108 H 0.56147 0.00727 0.9344 0.0
H109 H 0.64512 0.02478 0.99099 0.0
H110 H 0.64355 0.02049 0.02946 0.0
H111 H 0.32879 0.99087 0.94971 0.0
H112 H 0.37238 0.98325 0.95948 0.0
H113 H 0.35107 0.95009 0.94367 0.0
C114 C 0.11059 0.40286 0.646 0.0
C115 C 0.0848 0.38217 0.63213 0.0
C116 C 0.08638 0.4043 0.59555 0.0
C117 C 0.05094 0.41221 0.59226 0.0
C118 C 0.04108 0.43731 0.57704 0.0
C119 C 0.06725 0.45469 0.56489 0.0
C120 C 0.10292 0.44558 0.56755 0.0
C121 C 0.11195 0.42005 0.58268 0.0
C122 C 0.00279 0.44575 0.5742 0.0
C123 C 0.13158 0.46358 0.5549 0.0
C124 C 0.07203 0.72594 0.61058 0.0
C125 C 0.07725 0.69895 0.59377 0.0
C126 C 0.04866 0.64663 0.57973 0.0
C127 C 0.07919 0.63312 0.56998 0.0
C128 C 0.07885 0.6006 0.55948 0.0
C129 C 0.04729 0.58128 0.55853 0.0
C130 C 0.01645 0.59482 0.56817 0.0
C131 C 0.01756 0.62742 0.57868 0.0
C132 C 0.11233 0.58679 0.5495 0.0
C133 C 0.98242 0.57482 0.56735 0.0
C134 C 0.03424 0.62875 0.42036 0.0
C135 C 0.06717 0.61778 0.42762 0.0
C136 C 0.0708 0.58629 0.4389 0.0
C137 C 0.04089 0.56537 0.44293 0.0
C138 C 0.00801 0.57547 0.43466 0.0
C139 C 0.00519 0.607 0.42327 0.0
C140 C 0.10648 0.57574 0.44694 0.0
C141 C 0.97573 0.55352 0.43846 0.0
C142 C 0.09231 0.29155 0.45202 0.0
C143 C 0.07434 0.30788 0.43251 0.0
C144 C 0.08177 0.37138 0.4332 0.0
C145 C 0.10812 0.39528 0.43827 0.0
C146 C 0.09989 0.42873 0.4462 0.0
C147 C 0.06434 0.43843 0.44888 0.0
C148 C 0.03754 0.41516 0.44248 0.0
C149 C 0.04653 0.3819 0.43452 0.0
C150 C 0.12914 0.45328 0.45238 0.0
C151 C -0.00057 0.42516 0.44459 0.0
C152 C 0.05762 0.48413 0.55061 0.0
C153 C 0.0534 0.51711 0.56009 0.0
C154 C 0.04699 0.5467 0.54763 0.0
C155 C 0.04409 0.54349 0.52507 0.0
C156 C 0.03747 0.57277 0.5121 0.0
C157 C 0.03665 0.56969 0.48981 0.0
C158 C 0.04258 0.53722 0.47964 0.0
C159 C 0.04378 0.53419 0.45696 0.0
C160 C 0.05009 0.50161 0.44735 0.0
C161 C 0.05533 0.47178 0.45987 0.0
C162 C 0.05399 0.47423 0.48257 0.0
C163 C 0.05901 0.44465 0.49563 0.0
C164 C 0.05945 0.44766 0.51794 0.0
C165 C 0.05512 0.48037 0.52804 0.0
C166 C 0.04869 0.51027 0.51522 0.0
C167 C 0.04806 0.50717 0.49246 0.0
C168 C 0.02026 0.70764 0.43477 0.0
C169 C 0.04378 0.69159 0.41726 0.0
O170 O 0.09665 0.38162 0.611 0.0
O171 O 0.09133 0.33863 0.42694 0.0
O172 O 0.02971 0.65999 0.41043 0.0
O173 O 0.0483 0.67777 0.59042 0.0
H174 H 0.0591 0.39577 0.63351 0.0
H175 H 0.11183 0.43041 0.6404 0.0
H176 H 0.13732 0.39146 0.64488 0.0
H177 H 0.10185 0.4029 0.66309 0.0
H178 H 0.03097 0.39881 0.60156 0.0
H179 H 0.13919 0.41323 0.58513 0.0
H180 H 0.99757 0.47275 0.5801 0.0
H181 H 0.9855 0.42737 0.58313 0.0
H182 H 0.99595 0.44486 0.55687 0.0
H183 H 0.15811 0.45462 0.55961 0.0
H184 H 0.12991 0.49234 0.55735 0.0
H185 H 0.12814 0.45834 0.53747 0.0
H186 H 0.09029 0.70798 0.57868 0.0
H187 H 0.10841 0.70946 0.63678 0.0
H188 H 0.04278 0.72878 0.61297 0.0
H189 H 0.07514 0.75185 0.6021 0.0
H190 H 0.10346 0.6477 0.57056 0.0
H191 H 0.99415 0.63801 0.58623 0.0
H192 H 0.10897 0.58375 0.53187 0.0
H193 H 0.11838 0.56054 0.55612 0.0
H194 H 0.13502 0.60434 0.55243 0.0
H195 H 0.96042 0.5895 0.57496 0.0
H196 H 0.98546 0.54941 0.57575 0.0
H197 H 0.97567 0.56896 0.55037 0.0
H198 H 0.07013 0.68768 0.42433 0.0
H199 H 0.09014 0.63357 0.42442 0.0
H200 H 0.98002 0.61541 0.41723 0.0
H201 H 0.10646 0.57625 0.4648 0.0
H202 H 0.12754 0.59339 0.44102 0.0
H203 H 0.11256 0.54855 0.44175 0.0
H204 H 0.95221 0.56461 0.43058 0.0
H205 H 0.97052 0.55151 0.45602 0.0
H206 H 0.98018 0.52657 0.43225 0.0
H207 H 0.0468 0.31275 0.43759 0.0
H208 H 0.08056 0.26564 0.45575 0.0
H209 H 0.08868 0.30887 0.46627 0.0
H210 H 0.12088 0.28835 0.44918 0.0
H211 H 0.13524 0.38719 0.43668 0.0
H212 H 0.02598 0.36434 0.42936 0.0
H213 H 0.12866 0.45752 0.47006 0.0
H214 H 0.1253 0.47913 0.44465 0.0
H215 H 0.15531 0.44294 0.44767 0.0
H216 H 0.98169 0.40453 0.43829 0.0
H217 H 0.99452 0.44986 0.43576 0.0
H218 H 0.99288 0.43 0.46179 0.0
H219 H 0.05635 0.51998 0.57736 0.0
H220 H 0.03316 0.59848 0.51904 0.0
H221 H 0.03175 0.59321 0.48066 0.0
H222 H 0.05173 0.4996 0.42996 0.0
H223 H 0.06299 0.41885 0.48876 0.0
H224 H 0.06375 0.4241 0.52719 0.0
H225 H 0.03099 0.73325 0.44014 0.0
H226 H 0.01906 0.68996 0.44889 0.0
H227 H 0.99323 0.71156 0.42872 0.0
Li228 Li 0.066 0.04114 0.26233 0.0
Li229 Li 0.0629 0.97722 0.26028 0.0
Li230 Li 0.09667 0.01107 0.23391 0.0
Li231 Li 0.03296 0.01167 0.23402 0.0
C232 C 0.1231 0.01879 0.28216 0.0
N233 N 0.15791 0.04502 0.31757 0.0
C234 C 0.12121 0.00133 0.30185 0.0
C235 C 0.1429 0.04948 0.28045 0.0
C236 C 0.13899 0.01502 0.31956 0.0
C237 C 0.16021 0.06237 0.29855 0.0
C238 C 0.98954 0.01686 0.26671 0.0
C239 C 0.92983 0.99793 0.26182 0.0
N240 N 0.91849 0.0307 0.26695 0.0
C241 C 0.9773 0.05032 0.27198 0.0
C242 C 0.96564 0.99038 0.26167 0.0
C243 C 0.94127 0.05679 0.27202 0.0
C244 C 0.06959 0.11281 0.27508 0.0
N245 N 0.06655 0.07922 0.28199 0.0
C246 C 0.06631 0.09789 0.31867 0.0
C247 C 0.06401 0.07143 0.30326 0.0
C248 C 0.07004 0.1327 0.31203 0.0
C249 C 0.07111 0.14027 0.28998 0.0
H250 H 0.07099 0.11823 0.25804 0.0
H251 H 0.06072 0.04453 0.30822 0.0
C252 C 0.0906 0.91526 0.27853 0.0
N253 N 0.06172 0.93596 0.2773 0.0
C254 C 0.09036 0.8857 0.29168 0.0
C255 C 0.0307 0.89939 0.30199 0.0
C256 C 0.03212 0.92866 0.28868 0.0
C257 C 0.06014 0.87755 0.30372 0.0
H258 H 0.11395 0.922 0.26949 0.0
H259 H 0.00981 0.94594 0.28777 0.0
C260 C 0.08001 0.0696 0.21477 0.0
N261 N 0.11209 0.10249 0.18039 0.0
C262 C 0.06675 0.06542 0.19402 0.0
C263 C 0.10945 0.09064 0.21806 0.0
C264 C 0.08336 0.08227 0.17685 0.0
C265 C 0.12535 0.10699 0.20046 0.0
C266 C 0.06875 0.9363 0.22687 0.0
C267 C 0.10197 0.9226 0.22231 0.0
C268 C 0.04071 0.91357 0.23073 0.0
C269 C 0.10657 0.88632 0.22172 0.0
C270 C 0.04642 0.87745 0.23005 0.0
N271 N 0.07895 0.86469 0.22559 0.0
C272 C 0.16922 0.01468 0.22521 0.0
C273 C 0.13396 0.00443 0.19461 0.0
C274 C 0.1996 0.01216 0.21271 0.0
N275 N 0.13729 0.01066 0.21604 0.0
C276 C 0.16369 0.00165 0.18147 0.0
C277 C 0.19711 0.00516 0.19056 0.0
H278 H 0.17119 0.01883 0.24234 0.0
H279 H 0.10819 0.00085 0.18782 0.0
C280 C 0.97503 0.04601 0.21617 0.0
N281 N 0.99235 0.01496 0.21673 0.0
C282 C 0.94351 0.04881 0.2051 0.0
C283 C 0.94894 0.98792 0.19477 0.0
C284 C 0.98037 0.98632 0.20605 0.0
C285 C 0.92984 0.01936 0.19444 0.0
H286 H 0.98532 0.06836 0.2248 0.0
H287 H 0.99492 0.9621 0.20656 0.0
O288 O 0.10544 0.00609 0.26471 0.0
O289 O 0.02476 0.0102 0.26612 0.0
O290 O 0.06447 0.05288 0.23174 0.0
O291 O 0.06382 0.97174 0.22788 0.0
H292 H 0.1059 0.97767 0.30353 0.0
H293 H 0.1444 0.06352 0.2654 0.0
H294 H 0.13762 0.00186 0.33492 0.0
H295 H 0.17536 0.08624 0.2975 0.0
H296 H 0.91106 0.97778 0.25776 0.0
H297 H 0.99539 0.07118 0.27583 0.0
H298 H 0.97467 0.96445 0.25728 0.0
H299 H 0.93143 0.08259 0.27599 0.0
H300 H 0.06494 0.09131 0.33559 0.0
H301 H 0.0738 0.16697 0.2844 0.0
H302 H 0.11358 0.86948 0.29244 0.0
H303 H 0.00711 0.89452 0.31129 0.0
H304 H 0.04408 0.04909 0.19118 0.0
H305 H 0.12009 0.09406 0.23401 0.0
H306 H 0.07349 0.07916 0.16069 0.0
H307 H 0.14827 0.1232 0.20275 0.0
H308 H 0.12405 0.93973 0.21946 0.0
H309 H 0.01495 0.9237 0.2346 0.0
H310 H 0.13215 0.87536 0.21829 0.0
H311 H 0.02501 0.85957 0.23316 0.0
H312 H 0.2248 0.01432 0.22049 0.0
H313 H 0.16057 0.9964 0.16446 0.0
H314 H 0.92949 0.07345 0.20545 0.0
H315 H 0.93964 0.96476 0.18649 0.0
Li316 Li 0.02162 0.00984 0.76597 0.0
Li317 Li 0.08388 0.00488 0.76911 0.0
Li318 Li 0.0561 0.04185 0.73973 0.0
Li319 Li 0.05408 0.97598 0.73966 0.0
C320 C 0.04386 0.06907 0.78762 0.0
N321 N 0.01943 0.11131 0.82063 0.0
C322 C 0.03905 0.05533 0.80822 0.0
C323 C 0.03636 0.1043 0.78379 0.0
C324 C 0.02661 0.0771 0.8247 0.0
C325 C 0.02402 0.12523 0.80071 0.0
C326 C 0.06326 0.94322 0.78456 0.0
C327 C 0.1079 0.9007 0.79279 0.0
N328 N 0.09383 0.89683 0.81281 0.0
C329 C 0.04922 0.93877 0.80522 0.0
C330 C 0.0928 0.92398 0.77829 0.0
C331 C 0.06506 0.9152 0.81925 0.0
C332 C 0.96545 0.98138 0.78975 0.0
N333 N 0.97856 0.01188 0.78193 0.0
C334 C 0.93259 0.04436 0.79904 0.0
C335 C 0.96205 0.04289 0.78564 0.0
C336 C 0.91962 0.0135 0.80841 0.0
C337 C 0.93592 0.98157 0.80313 0.0
H338 H 0.97826 0.95691 0.78584 0.0
H339 H 0.97218 0.06665 0.77859 0.0
C340 C 0.15567 0.00892 0.77926 0.0
N341 N 0.12329 0.00305 0.78779 0.0
C342 C 0.18533 0.00723 0.79224 0.0
C343 C 0.14777 0.99346 0.82252 0.0
C344 C 0.11887 0.99607 0.80906 0.0
C345 C 0.18149 -0.00096 0.81412 0.0
H346 H 0.15847 0.01496 0.76236 0.0
H347 H 0.09294 0.99237 0.81565 0.0
C348 C 0.98079 0.00704 0.73264 0.0
N349 N 0.90878 0.00022 0.732 0.0
C350 C 0.9655 0.97381 0.73259 0.0
C351 C 0.95953 0.03682 0.73228 0.0
C352 C 0.92902 0.97091 0.73228 0.0
C353 C 0.92315 0.03281 0.73198 0.0
C354 C 0.11658 0.99639 0.72142 0.0
C355 C 0.11432 0.01236 0.70129 0.0
C356 C 0.14024 0.96894 0.72442 0.0
C357 C 0.13534 0.00013 0.68436 0.0
C358 C 0.16078 0.95746 0.70709 0.0
N359 N 0.15791 0.97313 0.68758 0.0
C360 C 0.08776 0.10484 0.72734 0.0
C361 C 0.03721 0.08976 0.70739 0.0
C362 C 0.09167 0.13578 0.7157 0.0
N363 N 0.06073 0.08281 0.72309 0.0
C364 C 0.03994 0.12054 0.69546 0.0
C365 C 0.06735 0.14409 0.69965 0.0
H366 H 0.10606 0.09847 0.73994 0.0
H367 H 0.01629 0.07145 0.70417 0.0
C368 C 0.05137 0.90362 0.72992 0.0
N369 N 0.05455 0.93609 0.72128 0.0
C370 C 0.05467 0.87393 0.71692 0.0
C371 C 0.06234 0.91169 0.68614 0.0
C372 C 0.05872 0.94062 0.69974 0.0
C373 C 0.06099 0.87778 0.69477 0.0
H374 H 0.04674 0.90068 0.74697 0.0
H375 H 0.05971 0.96673 0.69317 0.0
O376 O 0.05575 0.04823 0.7712 0.0
O377 O 0.04832 0.9664 0.77061 0.0
O378 O 0.01639 0.01037 0.73356 0.0
O379 O 0.09609 0.00792 0.73816 0.0
H380 H 0.04406 0.02798 0.81132 0.0
H381 H 0.03989 0.11528 0.7679 0.0
H382 H 0.0225 0.06676 0.84069 0.0
H383 H 0.01803 0.15253 0.79798 0.0
H384 H 0.13081 0.88573 0.78814 0.0
H385 H 0.02674 0.95378 0.81054 0.0
H386 H 0.10395 0.92703 0.76239 0.0
H387 H 0.05457 0.91164 0.83531 0.0
H388 H 0.92097 0.0696 0.80262 0.0
H389 H 0.92626 0.95702 0.80948 0.0
H390 H 0.21098 0.01181 0.78523 0.0
H391 H 0.14376 0.98772 0.83941 0.0
H392 H 0.98163 0.95052 0.73302 0.0
H393 H 0.97097 0.06274 0.7326 0.0
H394 H 0.91679 0.94536 0.73234 0.0
H395 H 0.90635 0.05561 0.73185 0.0
H396 H 0.09624 0.03369 0.69868 0.0
H397 H 0.14284 0.95672 0.73997 0.0
H398 H 0.13367 0.01207 0.66866 0.0
H399 H 0.17909 0.93614 0.70916 0.0
H400 H 0.11296 0.1534 0.71956 0.0
H401 H 0.02092 0.12579 0.68304 0.0
H402 H 0.05337 0.8483 0.72425 0.0
H403 H 0.0663 0.91581 0.66906 0.0
H404 H 0.35975 0.90419 0.11585 0.0
H405 H 0.25925 0.04121 0.19197 0.0
H406 H 0.41145 0.98418 0.15305 0.0
H407 H 0.20851 0.95506 0.15959 0.0
H408 H 0.31404 0.02608 0.17361 0.0
H409 H 0.30298 0.92788 0.1274 0.0
C410 C 0.35906 0.9271 0.12617 0.0
C411 C 0.39025 0.94238 0.13345 0.0
C412 C 0.29084 0.01069 0.17036 0.0
C413 C 0.32558 0.9693 0.14699 0.0
C414 C 0.25958 0.01924 0.1809 0.0
C415 C 0.22931 -0.00087 0.17752 0.0
C416 C 0.29195 0.98172 0.15638 0.0
C417 C 0.23111 0.97141 0.16263 0.0
C418 C 0.32672 0.94054 0.13283 0.0
C419 C 0.38799 0.97175 0.14702 0.0
N420 N 0.26198 0.96331 0.15278 0.0
N421 N 0.35623 0.98414 0.15345 0.0
H422 H 0.02745 0.35168 0.65137 0.0
H423 H 0.12608 0.17484 0.68249 0.0
H424 H 0.13361 0.32888 0.63162 0.0
H425 H 0.01461 0.18974 0.69007 0.0
H426 H 0.12997 0.23163 0.66452 0.0
H427 H 0.02258 0.29272 0.66623 0.0
C428 C 0.04966 0.33413 0.65007 0.0
C429 C 0.08098 0.34514 0.64029 0.0
C430 C 0.10464 0.22237 0.67 0.0
C431 C 0.07578 0.27776 0.65744 0.0
C432 C 0.10244 0.19008 0.68035 0.0
C433 C 0.06998 0.17762 0.68783 0.0
C434 C 0.07422 0.24253 0.66731 0.0
C435 C 0.0401 0.19821 0.6844 0.0
C436 C 0.04689 0.3005 0.65854 0.0
C437 C 0.10903 0.32139 0.63908 0.0
N438 N 0.04298 0.22974 0.67453 0.0
N439 N 0.10584 0.28888 0.64768 0.0
H440 H 0.71607 0.98083 0.15584 0.0
H441 H 0.90323 0.0725 0.16986 0.0
H442 H 0.74089 0.08329 0.13118 0.0
H443 H 0.87752 0.97032 0.19481 0.0
H444 H 0.84494 0.07586 0.15398 0.0
H445 H 0.77629 0.97518 0.16847 0.0
C446 C 0.73438 0.00197 0.15289 0.0
C447 C 0.72366 0.0324 0.14226 0.0
C448 C 0.85212 0.05263 0.16284 0.0
C449 C 0.79246 0.02644 0.15694 0.0
C450 C 0.88533 0.05077 0.172 0.0
C451 C 0.89527 0.02112 0.18374 0.0
C452 C 0.82857 0.02469 0.1655 0.0
C453 C 0.87117 0.99352 0.1857 0.0
C454 C 0.76871 0.99881 0.16015 0.0
C455 C 0.74827 0.05925 0.13911 0.0
N456 N 0.83892 0.99605 0.17676 0.0
N457 N 0.7815 0.05567 0.14647 0.0
H458 H 0.0509 0.65645 0.63353 0.0
H459 H 0.11022 0.87008 0.66293 0.0
H460 H 0.15103 0.72637 0.59769 0.0
H461 H 0.02672 0.81452 0.69528 0.0
H462 H 0.12179 0.8181 0.641 0.0
H463 H 0.04058 0.71774 0.66036 0.0
C464 C 0.0686 0.67854 0.6329 0.0
C465 C 0.09912 0.68665 0.60992 0.0
C466 C 0.10091 0.81732 0.65287 0.0
C467 C 0.0877 0.75508 0.64354 0.0
C468 C 0.09409 0.84706 0.66528 0.0
C469 C 0.06739 0.84669 0.68093 0.0
C470 C 0.0809 0.78702 0.65614 0.0
C471 C 0.04779 0.81584 0.68355 0.0
C472 C 0.06121 0.71718 0.64834 0.0
C473 C 0.13177 0.72262 0.61033 0.0
N474 N 0.05493 0.78718 0.67125 0.0
N475 N 0.12018 0.75468 0.62616 0.0
H476 H 0.33801 0.93749 0.90698 0.0
H477 H 0.23448 0.04656 0.81834 0.0
H478 H 0.34541 0.04977 0.90109 0.0
H479 H 0.19822 0.94697 0.84219 0.0
H480 H 0.28332 0.04433 0.84371 0.0
H481 H 0.2943 0.93692 0.87828 0.0
C482 C 0.33037 0.96199 0.8997 0.0
C483 C 0.34463 0.99385 0.90684 0.0
C484 C 0.26476 0.0229 0.84328 0.0
C485 C 0.29557 0.99323 0.87369 0.0
C486 C 0.23709 0.02407 0.82877 0.0
C487 C 0.21231 0.99699 0.82832 0.0
C488 C 0.26789 0.99421 0.85719 0.0
C489 C 0.21664 0.96853 0.84224 0.0
C490 C 0.30555 0.96163 0.88332 0.0
C491 C 0.33461 0.02472 0.89636 0.0
N492 N 0.24395 0.96784 0.85612 0.0
N493 N 0.31063 0.02366 0.88035 0.0
H494 H 0.01864 0.28791 0.40765 0.0
H495 H 0.11927 0.13958 0.34307 0.0
H496 H 0.13041 0.27392 0.41299 0.0
H497 H 0.02689 0.18893 0.31777 0.0
H498 H 0.12172 0.18457 0.37133 0.0
H499 H 0.01865 0.24767 0.37685 0.0
C500 C 0.04312 0.27619 0.40243 0.0
C501 C 0.07438 0.2834 0.41333 0.0
C502 C 0.10109 0.1857 0.35949 0.0
C503 C 0.07458 0.23763 0.37815 0.0
C504 C 0.09964 0.16007 0.34349 0.0
C505 C 0.07286 0.16081 0.32822 0.0
C506 C 0.07509 0.21166 0.36047 0.0
C507 C 0.048 0.18776 0.32928 0.0
C508 C 0.04313 0.25345 0.38481 0.0
C509 C 0.10554 0.26822 0.40553 0.0
N510 N 0.04945 0.21198 0.34533 0.0
N511 N 0.10478 0.24565 0.38859 0.0
H512 H 0.79623 0.99206 0.92484 0.0
H513 H 0.86075 0.05515 0.8084 0.0
H514 H 0.75394 0.08202 0.8924 0.0
H515 H 0.91266 0.97538 0.84544 0.0
H516 H 0.81658 0.0606 0.8369 0.0
H517 H 0.83413 0.98062 0.89367 0.0
C518 C 0.7946 0.00908 0.911 0.0
C519 C 0.77164 0.03774 0.91106 0.0
C520 C 0.83752 0.04174 0.8387 0.0
C521 C 0.81527 0.02524 0.8755 0.0
C522 C 0.86284 0.0387 0.82247 0.0
C523 C 0.89067 0.01493 0.82454 0.0
C524 C 0.83998 0.02083 0.85715 0.0
C525 C 0.89156 0.99381 0.84298 0.0
C526 C 0.81631 0.00266 0.89326 0.0
C527 C 0.77096 0.05937 0.89286 0.0
N528 N 0.86673 0.99741 0.8586 0.0
N529 N 0.79252 0.05272 0.87583 0.0
H530 H 0.99554 0.70599 0.38567 0.0
H531 H 0.11215 0.85584 0.33073 0.0
H532 H 0.09914 0.73432 0.40676 0.0
H533 H 0.00687 0.83074 0.31104 0.0
H534 H 0.10949 0.80836 0.35685 0.0
H535 H 0.00053 0.74889 0.35664 0.0
C536 C 0.01947 0.72101 0.38401 0.0
C537 C 0.04715 0.71634 0.39845 0.0
C538 C 0.08701 0.81312 0.34675 0.0
C539 C 0.05292 0.76573 0.36551 0.0
C540 C 0.08861 0.84009 0.33171 0.0
C541 C 0.05964 0.84739 0.31871 0.0
C542 C 0.05622 0.79324 0.34884 0.0
C543 C 0.02964 0.82639 0.32095 0.0
C544 C 0.02229 0.74554 0.3675 0.0
C545 C 0.07736 0.73686 0.39583 0.0
N546 N 0.02867 0.80036 0.33577 0.0
N547 N 0.07943 0.76065 0.3797 0.0
loop_
_geom_bond_atom_site_label_1
_geom_bond_atom_site_label_2
_geom_bond_distance
_geom_bond_site_symmetry_2
_ccdc_geom_bond_type
C0 C1 1.560 . S
C0 H61 0.959 . S
C0 H62 0.959 . S
C0 H63 0.960 . S
C1 C0 1.560 . S
C1 O56 1.426 . S
C1 H60 0.980 . S
C2 C3 1.407 1_545 S
C2 C7 1.418 . S
C2 O56 1.334 . S
C3 C2 1.407 1_565 S
C3 C4 1.360 . S
C3 H64 0.929 . S
C4 C3 1.360 . S
C4 C5 1.401 1_565 S
C4 C8 1.527 . S
C5 C4 1.401 1_545 S
C5 C6 1.405 . S
C5 C38 1.587 1_545 S
C6 C5 1.405 . S
C6 C7 1.332 . S
C6 C9 1.496 . S
C7 C2 1.418 . S
C7 C6 1.332 . S
C7 H65 0.929 . S
C8 C4 1.527 . S
C8 H66 0.959 . S
C8 H67 0.961 . S
C8 H68 0.961 . S
C9 C6 1.496 . S
C9 H69 0.960 . S
C9 H70 0.960 . S
C9 H71 0.961 . S
C10 C11 1.517 . S
C10 H73 0.961 . S
C10 H74 0.960 . S
C10 H75 0.959 . S
C11 C10 1.517 . S
C11 O59 1.468 . S
C11 H72 0.980 1_565 S
C12 C13 1.349 . S
C12 C17 1.367 . S
C12 O59 1.408 . S
C13 C12 1.349 . S
C13 C14 1.407 1_565 S
C13 H76 0.930 1_565 S
C14 C13 1.407 1_545 S
C14 C15 1.449 1_545 S
C14 C18 1.535 . S
C15 C14 1.449 1_565 S
C15 C16 1.384 . S
C15 C40 1.553 . S
C16 C15 1.384 . S
C16 C17 1.364 . S
C16 C19 1.450 . S
C17 C12 1.367 . S
C17 C16 1.364 . S
C17 H77 0.931 . S
C18 C14 1.535 . S
C18 H78 0.959 . S
C18 H79 0.961 . S
C18 H80 0.959 . S
C19 C16 1.450 . S
C19 H81 0.960 . S
C19 H82 0.960 . S
C19 H83 0.960 . S
C20 C21 1.309 1_565 S
C20 C25 1.304 . S
C20 O58 1.435 . S
C21 C20 1.309 1_545 S
C21 C22 1.476 . S
C21 H85 0.930 . S
C22 C21 1.476 . S
C22 C23 1.400 1_545 S
C22 C26 1.567 . S
C23 C22 1.400 1_565 S
C23 C24 1.373 . S
C23 C45 1.432 . S
C24 C23 1.373 . S
C24 C25 1.339 . S
C24 C27 1.530 . S
C25 C20 1.304 . S
C25 C24 1.339 . S
C25 H86 0.930 . S
C26 C22 1.567 . S
C26 H87 0.961 . S
C26 H88 0.960 . S
C26 H89 0.958 . S
C27 C24 1.530 . S
C27 H90 0.961 . S
C27 H91 0.960 . S
C27 H92 0.960 . S
C28 C29 1.530 . S
C28 H94 0.961 . S
C28 H95 0.961 . S
C28 H96 0.959 . S
C29 C28 1.530 . S
C29 O57 1.412 . S
C29 H93 0.980 . S
C30 C31 1.288 . S
C30 C35 1.377 1_545 S
C30 O57 1.393 . S
C31 C30 1.288 . S
C31 C32 1.369 . S
C31 H97 0.932 . S
C32 C31 1.369 . S
C32 C33 1.398 . S
C32 C36 1.527 . S
C33 C32 1.398 . S
C33 C34 1.380 1_545 S
C33 C47 1.494 1_545 S
C34 C33 1.380 1_565 S
C34 C35 1.383 . S
C34 C37 1.603 . S
C35 C30 1.377 1_565 S
C35 C34 1.383 . S
C35 H98 0.929 . S
C36 C32 1.527 . S
C36 H99 0.961 . S
C36 H100 0.959 . S
C36 H101 0.959 . S
C37 C34 1.603 . S
C37 H102 0.960 . S
C37 H103 0.962 . S
C37 H104 0.961 . S
C38 C5 1.587 1_565 S
C38 C39 1.360 . S
C38 C51 1.412 . S
C39 C38 1.360 . S
C39 C40 1.365 . S
C39 H105 0.929 . S
C40 C15 1.553 . S
C40 C39 1.365 . S
C40 C41 1.404 . S
C41 C40 1.404 . S
C41 C42 1.395 . S
C41 C52 1.451 . S
C42 C41 1.395 . S
C42 C43 1.322 . S
C42 H106 0.930 . S
C43 C42 1.322 . S
C43 C44 1.459 1_554 S
C43 H107 0.929 1_554 S
C44 C43 1.459 1_556 S
C44 C45 1.445 . S
C44 C53 1.395 1_556 S
C45 C23 1.432 . S
C45 C44 1.445 . S
C45 C46 1.370 . S
C46 C45 1.370 . S
C46 C47 1.440 . S
C46 H108 0.930 . S
C47 C33 1.494 1_565 S
C47 C46 1.440 . S
C47 C48 1.362 . S
C48 C47 1.362 . S
C48 C49 1.399 1_566 S
C48 C53 1.446 1_556 S
C49 C48 1.399 1_544 S
C49 C50 1.345 1_545 S
C49 H109 0.932 1_554 S
C50 C49 1.345 1_565 S
C50 C51 1.461 . S
C50 H110 0.927 1_565 S
C51 C38 1.412 . S
C51 C50 1.461 . S
C51 C52 1.331 . S
C52 C41 1.451 . S
C52 C51 1.331 . S
C52 C53 1.497 . S
C53 C44 1.395 1_554 S
C53 C48 1.446 1_554 S
C53 C52 1.497 . S
C54 C55 1.582 . S
C54 H111 0.962 . S
C54 H112 0.959 . S
C54 H113 0.958 . S
C55 C54 1.582 . S
C55 O58 1.458 . S
C55 H84 0.980 1_565 S
O56 C1 1.426 . S
O56 C2 1.334 . S
O57 C29 1.412 . S
O57 C30 1.393 . S
O58 C20 1.435 . S
O58 C55 1.458 . S
O59 C11 1.468 . S
O59 C12 1.408 . S
H60 C1 0.980 . S
H61 C0 0.959 . S
H62 C0 0.959 . S
H63 C0 0.960 . S
H64 C3 0.929 . S
H65 C7 0.929 . S
H66 C8 0.959 . S
H67 C8 0.961 . S
H68 C8 0.961 . S
H69 C9 0.960 . S
H70 C9 0.960 . S
H71 C9 0.961 . S
H72 C11 0.980 1_545 S
H73 C10 0.961 . S
H74 C10 0.960 . S
H75 C10 0.959 . S
H76 C13 0.930 1_545 S
H77 C17 0.931 . S
H78 C18 0.959 . S
H79 C18 0.961 . S
H80 C18 0.959 . S
H81 C19 0.960 . S
H82 C19 0.960 . S
H83 C19 0.960 . S
H84 C55 0.980 1_545 S
H85 C21 0.930 . S
H86 C25 0.930 . S
H87 C26 0.961 . S
H88 C26 0.960 . S
H89 C26 0.958 . S
H90 C27 0.961 . S
H91 C27 0.960 . S
H92 C27 0.960 . S
H93 C29 0.980 . S
H94 C28 0.961 . S
H95 C28 0.961 . S
H96 C28 0.959 . S
H97 C31 0.932 . S
H98 C35 0.929 . S
H99 C36 0.961 . S
H100 C36 0.959 . S
H101 C36 0.959 . S
H102 C37 0.960 . S
H103 C37 0.962 . S
H104 C37 0.961 . S
H105 C39 0.929 . S
H106 C42 0.930 . S
H107 C43 0.929 1_556 S
H108 C46 0.930 . S
H109 C49 0.932 1_556 S
H110 C50 0.927 1_545 S
H111 C54 0.962 . S
H112 C54 0.959 . S
H113 C54 0.958 . S
C114 C115 1.560 . S
C114 H175 0.959 . S
C114 H176 0.959 . S
C114 H177 0.960 . S
C115 C114 1.560 . S
C115 O170 1.426 . S
C115 H174 0.980 . S
C116 C117 1.407 . S
C116 C121 1.418 . S
C116 O170 1.334 . S
C117 C116 1.407 . S
C117 C118 1.360 . S
C117 H178 0.929 . S
C118 C117 1.360 . S
C118 C119 1.401 . S
C118 C122 1.527 1_455 S
C119 C118 1.401 . S
C119 C120 1.405 . S
C119 C152 1.587 . S
C120 C119 1.405 . S
C120 C121 1.332 . S
C120 C123 1.496 . S
C121 C116 1.418 . S
C121 C120 1.332 . S
C121 H179 0.929 . S
C122 C118 1.527 1_655 S
C122 H180 0.959 . S
C122 H181 0.961 . S
C122 H182 0.961 . S
C123 C120 1.496 . S
C123 H183 0.960 . S
C123 H184 0.960 . S
C123 H185 0.961 . S
C124 C125 1.517 . S
C124 H187 0.961 . S
C124 H188 0.960 . S
C124 H189 0.959 . S
C125 C124 1.517 . S
C125 O173 1.468 . S
C125 H186 0.980 . S
C126 C127 1.349 . S
C126 C131 1.367 1_455 S
C126 O173 1.408 . S
C127 C126 1.349 . S
C127 C128 1.407 . S
C127 H190 0.930 . S
C128 C127 1.407 . S
C128 C129 1.449 . S
C128 C132 1.535 . S
C129 C128 1.449 . S
C129 C130 1.384 1_455 S
C129 C154 1.553 . S
C130 C129 1.384 1_655 S
C130 C131 1.364 . S
C130 C133 1.450 . S
C131 C126 1.367 1_655 S
C131 C130 1.364 . S
C131 H191 0.931 . S
C132 C128 1.535 . S
C132 H192 0.959 . S
C132 H193 0.961 . S
C132 H194 0.959 . S
C133 C130 1.450 . S
C133 H195 0.960 . S
C133 H196 0.960 . S
C133 H197 0.960 . S
C134 C135 1.309 . S
C134 C139 1.304 . S
C134 O172 1.435 . S
C135 C134 1.309 . S
C135 C136 1.476 . S
C135 H199 0.930 . S
C136 C135 1.476 . S
C136 C137 1.400 . S
C136 C140 1.567 . S
C137 C136 1.400 . S
C137 C138 1.373 . S
C137 C159 1.432 . S
C138 C137 1.373 . S
C138 C139 1.339 . S
C138 C141 1.530 1_455 S
C139 C134 1.304 . S
C139 C138 1.339 . S
C139 H200 0.930 1_455 S
C140 C136 1.567 . S
C140 H201 0.961 . S
C140 H202 0.960 . S
C140 H203 0.958 . S
C141 C138 1.530 1_655 S
C141 H204 0.961 . S
C141 H205 0.960 . S
C141 H206 0.960 . S
C142 C143 1.530 . S
C142 H208 0.961 . S
C142 H209 0.961 . S
C142 H210 0.959 . S
C143 C142 1.530 . S
C143 O171 1.412 . S
C143 H207 0.980 . S
C144 C145 1.288 . S
C144 C149 1.377 . S
C144 O171 1.393 . S
C145 C144 1.288 . S
C145 C146 1.369 . S
C145 H211 0.932 . S
C146 C145 1.369 . S
C146 C147 1.398 . S
C146 C150 1.527 . S
C147 C146 1.398 . S
C147 C148 1.380 . S
C147 C161 1.497 . S
C148 C147 1.380 . S
C148 C149 1.383 . S
C148 C151 1.603 . S
C149 C144 1.377 . S
C149 C148 1.383 . S
C149 H212 0.929 . S
C150 C146 1.527 . S
C150 H213 0.961 . S
C150 H214 0.959 . S
C150 H215 0.959 . S
C151 C148 1.603 . S
C151 H216 0.960 1_455 S
C151 H217 0.962 1_455 S
C151 H218 0.961 1_455 S
C152 C119 1.587 . S
C152 C153 1.360 . S
C152 C165 1.412 . S
C153 C152 1.360 . S
C153 C154 1.365 . S
C153 H219 0.929 . S
C154 C129 1.553 . S
C154 C153 1.365 . S
C154 C155 1.404 . S
C155 C154 1.404 . S
C155 C156 1.395 . S
C155 C166 1.451 . S
C156 C155 1.395 . S
C156 C157 1.322 . S
C156 H220 0.930 . S
C157 C156 1.322 . S
C157 C158 1.459 . S
C157 H221 0.929 . S
C158 C157 1.459 . S
C158 C159 1.445 . S
C158 C167 1.395 . S
C159 C137 1.432 . S
C159 C158 1.445 . S
C159 C160 1.370 . S
C160 C159 1.370 . S
C160 C161 1.438 . S
C160 H222 0.930 . S
C161 C147 1.497 . S
C161 C160 1.438 . S
C161 C162 1.360 . S
C162 C161 1.360 . S
C162 C163 1.401 . S
C162 C167 1.446 . S
C163 C162 1.401 . S
C163 C164 1.347 . S
C163 H223 0.929 . S
C164 C163 1.347 . S
C164 C165 1.455 . S
C164 H224 0.930 . S
C165 C152 1.412 . S
C165 C164 1.455 . S
C165 C166 1.331 . S
C166 C155 1.451 . S
C166 C165 1.331 . S
C166 C167 1.497 . S
C167 C158 1.395 . S
C167 C162 1.446 . S
C167 C166 1.497 . S
C168 C169 1.582 . S
C168 H225 0.962 . S
C168 H226 0.959 . S
C168 H227 0.958 . S
C169 C168 1.582 . S
C169 O172 1.458 . S
C169 H198 0.980 . S
O170 C115 1.426 . S
O170 C116 1.334 . S
O171 C143 1.412 . S
O171 C144 1.393 . S
O172 C134 1.435 . S
O172 C169 1.458 . S
O173 C125 1.468 . S
O173 C126 1.408 . S
H174 C115 0.980 . S
H175 C114 0.959 . S
H176 C114 0.959 . S
H177 C114 0.960 . S
H178 C117 0.929 . S
H179 C121 0.929 . S
H180 C122 0.959 . S
H181 C122 0.961 . S
H182 C122 0.961 . S
H183 C123 0.960 . S
H184 C123 0.960 . S
H185 C123 0.961 . S
H186 C125 0.980 . S
H187 C124 0.961 . S
H188 C124 0.960 . S
H189 C124 0.959 . S
H190 C127 0.930 . S
H191 C131 0.931 . S
H192 C132 0.959 . S
H193 C132 0.961 . S
H194 C132 0.959 . S
H195 C133 0.960 . S
H196 C133 0.960 . S
H197 C133 0.960 . S
H198 C169 0.980 . S
H199 C135 0.930 . S
H200 C139 0.930 1_655 S
H201 C140 0.961 . S
H202 C140 0.960 . S
H203 C140 0.958 . S
H204 C141 0.961 . S
H205 C141 0.960 . S
H206 C141 0.960 . S
H207 C143 0.980 . S
H208 C142 0.961 . S
H209 C142 0.961 . S
H210 C142 0.959 . S
H211 C145 0.932 . S
H212 C149 0.929 . S
H213 C150 0.961 . S
H214 C150 0.959 . S
H215 C150 0.959 . S
H216 C151 0.960 1_655 S
H217 C151 0.962 1_655 S
H218 C151 0.961 1_655 S
H219 C153 0.929 . S
H220 C156 0.930 . S
H221 C157 0.929 . S
H222 C160 0.930 . S
H223 C163 0.929 . S
H224 C164 0.930 . S
H225 C168 0.962 . S
H226 C168 0.959 . S
H227 C168 0.958 . S
Li228 N245 1.990 . S
Li228 O288 1.956 . S
Li228 O289 1.970 . S
Li228 O290 1.961 . S
Li229 N253 1.990 . S
Li229 O288 1.970 1_565 S
Li229 O289 1.956 1_565 S
Li229 O291 1.961 . S
Li230 N275 1.990 . S
Li230 O288 1.961 . S
Li230 O290 1.956 . S
Li230 O291 1.970 1_545 S
Li231 N281 1.990 1_455 S
Li231 O289 1.961 . S
Li231 O290 1.970 . S
Li231 O291 1.956 1_545 S
C232 C234 1.348 1_545 S
C232 C235 1.356 . S
C232 O288 1.325 . S
N233 C236 1.314 1_545 S
N233 C237 1.279 . S
C234 C232 1.348 1_565 S
C234 C236 1.353 . S
C234 H292 0.929 . S
C235 C232 1.356 . S
C235 C237 1.358 . S
C235 H293 0.930 . S
C236 N233 1.314 1_565 S
C236 C234 1.353 . S
C236 H294 0.930 . S
C237 N233 1.279 . S
C237 C235 1.358 . S
C237 H295 0.930 . S
C238 C241 1.348 . S
C238 C242 1.356 1_545 S
C238 O289 1.325 1_655 S
C239 N240 1.279 1_565 S
C239 C242 1.358 . S
C239 H296 0.930 . S
N240 C239 1.279 1_545 S
N240 C243 1.314 . S
C241 C238 1.348 . S
C241 C243 1.353 . S
C241 H297 0.929 1_655 S
C242 C238 1.356 1_565 S
C242 C239 1.358 . S
C242 H298 0.930 . S
C243 N240 1.314 . S
C243 C241 1.353 . S
C243 H299 0.930 . S
C244 N245 1.314 . S
C244 C249 1.353 . S
C244 H250 0.930 . S
N245 Li228 1.990 . S
N245 C244 1.314 . S
N245 C247 1.279 . S
C246 C247 1.358 . S
C246 C248 1.356 . S
C246 H300 0.930 . S
C247 N245 1.279 . S
C247 C246 1.358 . S
C247 H251 0.930 . S
C248 C246 1.356 . S
C248 C249 1.348 . S
C249 C244 1.353 . S
C249 C248 1.348 . S
C249 H301 0.929 . S
H250 C244 0.930 . S
H251 C247 0.930 . S
C252 N253 1.314 . S
C252 C254 1.353 . S
C252 H258 0.930 . S
N253 Li229 1.990 . S
N253 C252 1.314 . S
N253 C256 1.279 . S
C254 C252 1.353 . S
C254 C257 1.348 . S
C254 H302 0.929 . S
C255 C256 1.358 . S
C255 C257 1.356 . S
C255 H303 0.930 . S
C256 N253 1.279 . S
C256 C255 1.358 . S
C256 H259 0.930 . S
C257 C254 1.348 . S
C257 C255 1.356 . S
H258 C252 0.930 . S
H259 C256 0.930 . S
C260 C262 1.348 . S
C260 C263 1.356 . S
C260 O290 1.325 . S
N261 C264 1.314 . S
N261 C265 1.279 . S
C262 C260 1.348 . S
C262 C264 1.353 . S
C262 H304 0.929 . S
C263 C260 1.356 . S
C263 C265 1.358 . S
C263 H305 0.930 . S
C264 N261 1.314 . S
C264 C262 1.353 . S
C264 H306 0.930 . S
C265 N261 1.279 . S
C265 C263 1.358 . S
C265 H307 0.930 . S
C266 C267 1.348 . S
C266 C268 1.356 . S
C266 O291 1.325 . S
C267 C266 1.348 . S
C267 C269 1.353 . S
C267 H308 0.929 . S
C268 C266 1.356 . S
C268 C270 1.358 . S
C268 H309 0.930 . S
C269 C267 1.353 . S
C269 N271 1.314 . S
C269 H310 0.930 . S
C270 C268 1.358 . S
C270 N271 1.279 . S
C270 H311 0.930 . S
N271 C269 1.314 . S
N271 C270 1.279 . S
C272 C274 1.353 . S
C272 N275 1.314 1_565 S
C272 H278 0.930 . S
C273 N275 1.279 . S
C273 C276 1.358 . S
C273 H279 0.930 . S
C274 C272 1.353 . S
C274 C277 1.348 1_565 S
C274 H312 0.929 . S
N275 Li230 1.990 . S
N275 C272 1.314 1_545 S
N275 C273 1.279 . S
C276 C273 1.358 . S
C276 C277 1.356 . S
C276 H313 0.930 . S
C277 C274 1.348 1_545 S
C277 C276 1.356 . S
H278 C272 0.930 . S
H279 C273 0.930 . S
C280 N281 1.314 . S
C280 C282 1.353 . S
C280 H286 0.930 . S
N281 Li231 1.990 1_655 S
N281 C280 1.314 . S
N281 C284 1.279 1_545 S
C282 C280 1.353 . S
C282 C285 1.348 . S
C282 H314 0.929 . S
C283 C284 1.358 . S
C283 C285 1.356 1_565 S
C283 H315 0.930 . S
C284 N281 1.279 1_565 S
C284 C283 1.358 . S
C284 H287 0.913 1_655 S
C285 C282 1.348 . S
C285 C283 1.356 1_545 S
H286 C280 0.930 . S
H287 C284 0.913 1_455 S
O288 Li228 1.956 . S
O288 Li229 1.970 1_545 S
O288 Li230 1.961 . S
O288 C232 1.325 . S
O289 Li228 1.970 . S
O289 Li229 1.956 1_545 S
O289 Li231 1.961 . S
O289 C238 1.325 1_455 S
O290 Li228 1.961 . S
O290 Li230 1.956 . S
O290 Li231 1.970 . S
O290 C260 1.325 . S
O291 Li229 1.961 . S
O291 Li230 1.970 1_565 S
O291 Li231 1.956 1_565 S
O291 C266 1.325 . S
H292 C234 0.929 . S
H293 C235 0.930 . S
H294 C236 0.930 . S
H295 C237 0.930 . S
H296 C239 0.930 . S
H297 C241 0.929 1_455 S
H298 C242 0.930 . S
H299 C243 0.930 . S
H300 C246 0.930 . S
H301 C249 0.929 . S
H302 C254 0.929 . S
H303 C255 0.930 . S
H304 C262 0.929 . S
H305 C263 0.930 . S
H306 C264 0.930 . S
H307 C265 0.930 . S
H308 C267 0.929 . S
H309 C268 0.930 . S
H310 C269 0.930 . S
H311 C270 0.930 . S
H312 C274 0.929 . S
H313 C276 0.930 . S
H314 C282 0.929 . S
H315 C283 0.930 . S
Li316 N333 1.990 1_455 S
Li316 O376 1.956 . S
Li316 O377 1.970 1_545 S
Li316 O378 1.961 . S
Li317 N341 1.990 . S
Li317 O376 1.970 . S
Li317 O377 1.956 1_545 S
Li317 O379 1.961 . S
Li318 N363 1.990 . S
Li318 O376 1.961 . S
Li318 O378 1.956 . S
Li318 O379 1.970 . S
Li319 N369 1.990 . S
Li319 O377 1.961 . S
Li319 O378 1.970 1_565 S
Li319 O379 1.956 1_565 S
C320 C322 1.348 . S
C320 C323 1.356 . S
C320 O376 1.325 . S
N321 C324 1.314 . S
N321 C325 1.279 . S
C322 C320 1.348 . S
C322 C324 1.353 . S
C322 H380 0.929 . S
C323 C320 1.356 . S
C323 C325 1.358 . S
C323 H381 0.930 . S
C324 N321 1.314 . S
C324 C322 1.353 . S
C324 H382 0.930 . S
C325 N321 1.279 . S
C325 C323 1.358 . S
C325 H383 0.930 . S
C326 C329 1.348 . S
C326 C330 1.356 . S
C326 O377 1.325 . S
C327 N328 1.279 . S
C327 C330 1.358 . S
C327 H384 0.930 . S
N328 C327 1.279 . S
N328 C331 1.314 . S
C329 C326 1.348 . S
C329 C331 1.353 . S
C329 H385 0.929 . S
C330 C326 1.356 . S
C330 C327 1.358 . S
C330 H386 0.930 . S
C331 N328 1.314 . S
C331 C329 1.353 . S
C331 H387 0.930 . S
C332 N333 1.314 1_565 S
C332 C337 1.353 . S
C332 H338 0.930 . S
N333 Li316 1.990 1_655 S
N333 C332 1.314 1_545 S
N333 C335 1.279 . S
C334 C335 1.358 . S
C334 C336 1.356 . S
C334 H388 0.930 . S
C335 N333 1.279 . S
C335 C334 1.358 . S
C335 H339 0.930 . S
C336 C334 1.356 . S
C336 C337 1.348 1_545 S
C337 C332 1.353 . S
C337 C336 1.348 1_565 S
C337 H389 0.929 . S
H338 C332 0.930 . S
H339 C335 0.930 . S
C340 N341 1.314 . S
C340 C342 1.353 . S
C340 H346 0.930 . S
N341 Li317 1.990 . S
N341 C340 1.314 . S
N341 C344 1.279 1_545 S
C342 C340 1.353 . S
C342 C345 1.348 . S
C342 H390 0.929 . S
C343 C344 1.358 . S
C343 C345 1.356 1_565 S
C343 H391 0.930 . S
C344 N341 1.279 1_565 S
C344 C343 1.358 . S
C344 H347 0.930 . S
C345 C342 1.348 . S
C345 C343 1.356 1_545 S
H346 C340 0.930 . S
H347 C344 0.930 . S
C348 C350 1.348 1_545 S
C348 C351 1.356 . S
C348 O378 1.325 1_655 S
N349 C352 1.314 1_545 S
N349 C353 1.279 . S
C350 C348 1.348 1_565 S
C350 C352 1.353 . S
C350 H392 0.929 1_655 S
C351 C348 1.356 . S
C351 C353 1.358 . S
C351 H393 0.930 . S
C352 N349 1.314 1_565 S
C352 C350 1.353 . S
C352 H394 0.930 . S
C353 N349 1.279 . S
C353 C351 1.358 . S
C353 H395 0.930 . S
C354 C355 1.348 . S
C354 C356 1.356 1_545 S
C354 O379 1.325 . S
C355 C354 1.348 . S
C355 C357 1.353 . S
C355 H396 0.929 . S
C356 C354 1.356 1_565 S
C356 C358 1.358 . S
C356 H397 0.930 . S
C357 C355 1.353 . S
C357 N359 1.314 . S
C357 H398 0.930 . S
C358 C356 1.358 . S
C358 N359 1.279 1_565 S
C358 H399 0.930 . S
N359 C357 1.314 . S
N359 C358 1.279 1_545 S
C360 C362 1.353 . S
C360 N363 1.314 . S
C360 H366 0.930 . S
C361 N363 1.279 . S
C361 C364 1.358 . S
C361 H367 0.930 . S
C362 C360 1.353 . S
C362 C365 1.348 . S
C362 H400 0.929 . S
N363 Li318 1.990 . S
N363 C360 1.314 . S
N363 C361 1.279 . S
C364 C361 1.358 . S
C364 C365 1.356 . S
C364 H401 0.930 . S
C365 C362 1.348 . S
C365 C364 1.356 . S
H366 C360 0.930 . S
H367 C361 0.930 . S
C368 N369 1.314 . S
C368 C370 1.353 . S
C368 H374 0.930 . S
N369 Li319 1.990 . S
N369 C368 1.314 . S
N369 C372 1.279 . S
C370 C368 1.353 . S
C370 C373 1.348 . S
C370 H402 0.929 . S
C371 C372 1.358 . S
C371 C373 1.356 . S
C371 H403 0.930 . S
C372 N369 1.279 . S
C372 C371 1.358 . S
C372 H375 0.930 . S
C373 C370 1.348 . S
C373 C371 1.356 . S
H374 C368 0.930 . S
H375 C372 0.930 . S
O376 Li316 1.956 . S
O376 Li317 1.970 . S
O376 Li318 1.961 . S
O376 C320 1.325 . S
O377 Li316 1.970 1_565 S
O377 Li317 1.956 1_565 S
O377 Li319 1.961 . S
O377 C326 1.325 . S
O378 Li316 1.961 . S
O378 Li318 1.956 . S
O378 Li319 1.970 1_545 S
O378 C348 1.325 1_455 S
O379 Li317 1.961 . S
O379 Li318 1.970 . S
O379 Li319 1.956 1_545 S
O379 C354 1.325 . S
H380 C322 0.929 . S
H381 C323 0.930 . S
H382 C324 0.930 . S
H383 C325 0.930 . S
H384 C327 0.930 . S
H385 C329 0.929 . S
H386 C330 0.930 . S
H387 C331 0.930 . S
H388 C334 0.930 . S
H389 C337 0.929 . S
H390 C342 0.929 . S
H391 C343 0.930 . S
H392 C350 0.929 1_455 S
H393 C351 0.930 . S
H394 C352 0.930 . S
H395 C353 0.930 . S
H396 C355 0.929 . S
H397 C356 0.930 . S
H398 C357 0.930 . S
H399 C358 0.930 . S
H400 C362 0.929 . S
H401 C364 0.930 . S
H402 C370 0.929 . S
H403 C371 0.930 . S
H404 C410 0.930 . S
H405 C414 0.930 . S
H406 C419 0.929 . S
H407 C417 0.929 . S
H408 C412 0.929 . S
H409 C418 0.929 . S
C410 H404 0.930 . S
C410 C411 1.367 1_565 S
C410 C418 1.378 . S
C411 C410 1.367 1_545 S
C411 C419 1.433 . S
C412 H408 0.929 . S
C412 C414 1.378 . S
C412 C416 1.350 . S
C413 C416 1.463 . S
C413 C418 1.350 1_545 S
C413 N421 1.427 . S
C414 H405 0.930 . S
C414 C412 1.378 . S
C414 C415 1.367 . S
C415 C414 1.367 . S
C415 C417 1.433 1_545 S
C416 C412 1.350 . S
C416 C413 1.463 . S
C416 N420 1.427 1_545 S
C417 H407 0.929 . S
C417 C415 1.433 1_565 S
C417 N420 1.384 . S
C418 H409 0.929 . S
C418 C410 1.378 . S
C418 C413 1.350 1_565 S
C419 H406 0.929 . S
C419 C411 1.433 . S
C419 N421 1.384 . S
N420 C416 1.427 1_565 S
N420 C417 1.384 . S
N421 C413 1.427 . S
N421 C419 1.384 . S
H422 C428 0.930 . S
H423 C432 0.930 . S
H424 C437 0.929 . S
H425 C435 0.929 . S
H426 C430 0.929 . S
H427 C436 0.929 . S
C428 H422 0.930 . S
C428 C429 1.367 . S
C428 C436 1.378 . S
C429 C428 1.367 . S
C429 C437 1.433 . S
C430 H426 0.929 . S
C430 C432 1.378 . S
C430 C434 1.350 . S
C431 C434 1.463 . S
C431 C436 1.350 . S
C431 N439 1.427 . S
C432 H423 0.930 . S
C432 C430 1.378 . S
C432 C433 1.367 . S
C433 C432 1.367 . S
C433 C435 1.433 . S
C434 C430 1.350 . S
C434 C431 1.463 . S
C434 N438 1.427 . S
C435 H425 0.929 . S
C435 C433 1.433 . S
C435 N438 1.384 . S
C436 H427 0.929 . S
C436 C428 1.378 . S
C436 C431 1.350 . S
C437 H424 0.929 . S
C437 C429 1.433 . S
C437 N439 1.384 . S
N438 C434 1.427 . S
N438 C435 1.384 . S
N439 C431 1.427 . S
N439 C437 1.384 . S
H440 C446 0.930 . S
H441 C450 0.930 . S
H442 C455 0.929 . S
H443 C453 0.929 . S
H444 C448 0.929 . S
H445 C454 0.929 . S
C446 H440 0.930 . S
C446 C447 1.367 1_565 S
C446 C454 1.378 . S
C447 C446 1.367 1_545 S
C447 C455 1.433 . S
C448 H444 0.929 . S
C448 C450 1.378 . S
C448 C452 1.350 . S
C449 C452 1.463 . S
C449 C454 1.350 1_545 S
C449 N457 1.427 . S
C450 H441 0.930 . S
C450 C448 1.378 . S
C450 C451 1.367 . S
C451 C450 1.367 . S
C451 C453 1.433 1_545 S
C452 C448 1.350 . S
C452 C449 1.463 . S
C452 N456 1.427 1_545 S
C453 H443 0.929 . S
C453 C451 1.433 1_565 S
C453 N456 1.384 . S
C454 H445 0.929 . S
C454 C446 1.378 . S
C454 C449 1.350 1_565 S
C455 H442 0.929 . S
C455 C447 1.433 . S
C455 N457 1.384 . S
N456 C452 1.427 1_565 S
N456 C453 1.384 . S
N457 C449 1.427 . S
N457 C455 1.384 . S
H458 C464 0.930 . S
H459 C468 0.930 . S
H460 C473 0.929 . S
H461 C471 0.929 . S
H462 C466 0.929 . S
H463 C472 0.929 . S
C464 H458 0.930 . S
C464 C465 1.367 . S
C464 C472 1.378 . S
C465 C464 1.367 . S
C465 C473 1.433 . S
C466 H462 0.929 . S
C466 C468 1.378 . S
C466 C470 1.350 . S
C467 C470 1.463 . S
C467 C472 1.350 . S
C467 N475 1.427 . S
C468 H459 0.930 . S
C468 C466 1.378 . S
C468 C469 1.367 . S
C469 C468 1.367 . S
C469 C471 1.433 . S
C470 C466 1.350 . S
C470 C467 1.463 . S
C470 N474 1.427 . S
C471 H461 0.929 . S
C471 C469 1.433 . S
C471 N474 1.384 . S
C472 H463 0.929 . S
C472 C464 1.378 . S
C472 C467 1.350 . S
C473 H460 0.929 . S
C473 C465 1.433 . S
C473 N475 1.384 . S
N474 C470 1.427 . S
N474 C471 1.384 . S
N475 C467 1.427 . S
N475 C473 1.384 . S
H476 C482 0.930 . S
H477 C486 0.930 . S
H478 C491 0.929 . S
H479 C489 0.929 . S
H480 C484 0.929 . S
H481 C490 0.929 . S
C482 H476 0.930 . S
C482 C483 1.367 1_565 S
C482 C490 1.378 . S
C483 C482 1.367 1_545 S
C483 C491 1.433 . S
C484 H480 0.929 . S
C484 C486 1.378 . S
C484 C488 1.350 . S
C485 C488 1.463 . S
C485 C490 1.350 1_545 S
C485 N493 1.427 . S
C486 H477 0.930 . S
C486 C484 1.378 . S
C486 C487 1.367 . S
C487 C486 1.367 . S
C487 C489 1.433 1_545 S
C488 C484 1.350 . S
C488 C485 1.463 . S
C488 N492 1.427 1_545 S
C489 H479 0.929 . S
C489 C487 1.433 1_565 S
C489 N492 1.384 . S
C490 H481 0.929 . S
C490 C482 1.378 . S
C490 C485 1.350 1_565 S
C491 H478 0.929 . S
C491 C483 1.433 . S
C491 N493 1.384 . S
N492 C488 1.427 1_565 S
N492 C489 1.384 . S
N493 C485 1.427 . S
N493 C491 1.384 . S
H494 C500 0.930 . S
H495 C504 0.930 . S
H496 C509 0.929 . S
H497 C507 0.929 . S
H498 C502 0.929 . S
H499 C508 0.929 . S
C500 H494 0.930 . S
C500 C501 1.367 . S
C500 C508 1.378 . S
C501 C500 1.367 . S
C501 C509 1.433 . S
C502 H498 0.929 . S
C502 C504 1.378 . S
C502 C506 1.350 . S
C503 C506 1.463 . S
C503 C508 1.350 . S
C503 N511 1.427 . S
C504 H495 0.930 . S
C504 C502 1.378 . S
C504 C505 1.367 . S
C505 C504 1.367 . S
C505 C507 1.433 . S
C506 C502 1.350 . S
C506 C503 1.463 . S
C506 N510 1.427 . S
C507 H497 0.929 . S
C507 C505 1.433 . S
C507 N510 1.384 . S
C508 H499 0.929 . S
C508 C500 1.378 . S
C508 C503 1.350 . S
C509 H496 0.929 . S
C509 C501 1.433 . S
C509 N511 1.384 . S
N510 C506 1.427 . S
N510 C507 1.384 . S
N511 C503 1.427 . S
N511 C509 1.384 . S
H512 C518 0.930 . S
H513 C522 0.930 . S
H514 C527 0.929 . S
H515 C525 0.929 . S
H516 C520 0.929 . S
H517 C526 0.929 . S
C518 H512 0.930 . S
C518 C519 1.368 1_565 S
C518 C526 1.378 . S
C519 C518 1.368 1_545 S
C519 C527 1.432 . S
C520 H516 0.929 . S
C520 C522 1.378 . S
C520 C524 1.350 . S
C521 C524 1.463 . S
C521 C526 1.350 1_545 S
C521 N529 1.427 . S
C522 H513 0.930 . S
C522 C520 1.378 . S
C522 C523 1.367 . S
C523 C522 1.367 . S
C523 C525 1.433 1_545 S
C524 C520 1.350 . S
C524 C521 1.463 . S
C524 N528 1.427 1_545 S
C525 H515 0.929 . S
C525 C523 1.433 1_565 S
C525 N528 1.384 . S
C526 H517 0.929 . S
C526 C518 1.378 . S
C526 C521 1.350 1_565 S
C527 H514 0.929 . S
C527 C519 1.432 . S
C527 N529 1.384 . S
N528 C524 1.427 1_565 S
N528 C525 1.384 . S
N529 C521 1.427 . S
N529 C527 1.384 . S
H530 C536 0.930 . S
H531 C540 0.930 . S
H532 C545 0.929 . S
H533 C543 0.929 . S
H534 C538 0.929 . S
H535 C544 0.929 . S
C536 H530 0.930 . S
C536 C537 1.367 . S
C536 C544 1.378 . S
C537 C536 1.367 . S
C537 C545 1.433 . S
C538 H534 0.929 . S
C538 C540 1.378 . S
C538 C542 1.350 . S
C539 C542 1.463 . S
C539 C544 1.350 . S
C539 N547 1.427 . S
C540 H531 0.930 . S
C540 C538 1.378 . S
C540 C541 1.367 . S
C541 C540 1.367 . S
C541 C543 1.433 . S
C542 C538 1.350 . S
C542 C539 1.463 . S
C542 N546 1.427 . S
C543 H533 0.929 . S
C543 C541 1.433 . S
C543 N546 1.384 . S
C544 H535 0.929 . S
C544 C536 1.378 . S
C544 C539 1.350 . S
C545 H532 0.929 . S
C545 C537 1.433 . S
C545 N547 1.384 . S
N546 C542 1.427 . S
N546 C543 1.384 . S
N547 C539 1.427 . S
N547 C545 1.384 . S
C415 C277 1.481 . S
C411 C11 0.923 1_545 S
C433 C365 1.315 . S
C429 C115 1.061 . S
C451 C285 1.313 . S
C447 C1 1.051 . S
C469 C373 1.477 . S
C465 C125 0.884 . S
C487 C345 1.573 . S
C483 C55 1.133 1_545 S
C505 C248 1.407 . S
C501 C143 1.133 . S
C523 C336 1.410 . S
C519 C29 1.126 . S
C537 C169 1.139 . S
C541 C257 1.574 . S
