# Generated by pormake.
# Topology the, (3,8)-cn, num edge types: 1
# Building blocks:
#     Node 0, Type 0, BuildingBlock: BETDIP_clean_linker_0, # of connection points: 3
#     Node 1, Type 0, BuildingBlock: BETDIP_clean_linker_0, # of connection points: 3
#     Node 2, Type 0, BuildingBlock: BETDIP_clean_linker_0, # of connection points: 3
#     Node 3, Type 0, BuildingBlock: BETDIP_clean_linker_0, # of connection points: 3
#     Node 4, Type 0, BuildingBlock: BETDIP_clean_linker_0, # of connection points: 3
#     Node 5, Type 0, BuildingBlock: BETDIP_clean_linker_0, # of connection points: 3
#     Node 6, Type 0, BuildingBlock: BETDIP_clean_linker_0, # of connection points: 3
#     Node 7, Type 0, BuildingBlock: BETDIP_clean_linker_0, # of connection points: 3
#     Node 8, Type 1, BuildingBlock: GIZVER_clean_sbu_0, # of connection points: 8
#     Node 9, Type 1, BuildingBlock: GIZVER_clean_sbu_0, # of connection points: 8
#     Node 10, Type 1, BuildingBlock: GIZVER_clean_sbu_0, # of connection points: 8
#     Edge 11, Type (0, 1), BuildingBlock: XIVTED_clean_linker_0, # of connection points: 2
#     Edge 12, Type (0, 1), BuildingBlock: XIVTED_clean_linker_0, # of connection points: 2
#     Edge 13, Type (0, 1), BuildingBlock: XIVTED_clean_linker_0, # of connection points: 2
#     Edge 14, Type (0, 1), BuildingBlock: XIVTED_clean_linker_0, # of connection points: 2
#     Edge 15, Type (0, 1), BuildingBlock: XIVTED_clean_linker_0, # of connection points: 2
#     Edge 16, Type (0, 1), BuildingBlock: XIVTED_clean_linker_0, # of connection points: 2
#     Edge 17, Type (0, 1), BuildingBlock: XIVTED_clean_linker_0, # of connection points: 2
#     Edge 18, Type (0, 1), BuildingBlock: XIVTED_clean_linker_0, # of connection points: 2
#     Edge 19, Type (0, 1), BuildingBlock: XIVTED_clean_linker_0, # of connection points: 2
#     Edge 20, Type (0, 1), BuildingBlock: XIVTED_clean_linker_0, # of connection points: 2
#     Edge 21, Type (0, 1), BuildingBlock: XIVTED_clean_linker_0, # of connection points: 2
#     Edge 22, Type (0, 1), BuildingBlock: XIVTED_clean_linker_0, # of connection points: 2
#     Edge 23, Type (0, 1), BuildingBlock: XIVTED_clean_linker_0, # of connection points: 2
#     Edge 24, Type (0, 1), BuildingBlock: XIVTED_clean_linker_0, # of connection points: 2
#     Edge 25, Type (0, 1), BuildingBlock: XIVTED_clean_linker_0, # of connection points: 2
#     Edge 26, Type (0, 1), BuildingBlock: XIVTED_clean_linker_0, # of connection points: 2
#     Edge 27, Type (0, 1), BuildingBlock: XIVTED_clean_linker_0, # of connection points: 2
#     Edge 28, Type (0, 1), BuildingBlock: XIVTED_clean_linker_0, # of connection points: 2
#     Edge 29, Type (0, 1), BuildingBlock: XIVTED_clean_linker_0, # of connection points: 2
#     Edge 30, Type (0, 1), BuildingBlock: XIVTED_clean_linker_0, # of connection points: 2
#     Edge 31, Type (0, 1), BuildingBlock: XIVTED_clean_linker_0, # of connection points: 2
#     Edge 32, Type (0, 1), BuildingBlock: XIVTED_clean_linker_0, # of connection points: 2
#     Edge 33, Type (0, 1), BuildingBlock: XIVTED_clean_linker_0, # of connection points: 2
#     Edge 34, Type (0, 1), BuildingBlock: XIVTED_clean_linker_0, # of connection points: 2
# Relax obj value: 0.085
# Max RMSD: 0.192
# Mean RMSD: 0.139
data_MOF--net-the--node1-GIZVER_clean_sbu_0--node2-BETDIP_clean_linker_0--edge1-XIVTED_clean_linker_0
_symmetry_space_group_name_H-M    P1
_symmetry_Int_Tables_number       1
_symmetry_cell_setting            triclinic
loop_
_symmetry_equiv_pos_as_xyz
'x, y, z'
_cell_length_a     41.135036
_cell_length_b     38.257848
_cell_length_c     36.58706
_cell_angle_alpha  90.301344
_cell_angle_beta   91.001333
_cell_angle_gamma 110.08959
loop_
_atom_site_label
_atom_site_type_symbol
_atom_site_fract_x
_atom_site_fract_y
_atom_site_fract_z
_atom_type_partial_charge
H0 H 0.27002 0.30923 0.4438 0.0
H1 H 0.3396 0.31651 0.35546 0.0
H2 H 0.26899 0.37713 0.3507 0.0
H3 H 0.37518 0.31687 0.40899 0.0
C4 C 0.3569 0.29227 0.42124 0.0
C5 C 0.27966 0.31986 0.41721 0.0
C6 C 0.26647 0.34438 0.39904 0.0
C7 C 0.30678 0.31074 0.40221 0.0
C8 C 0.31921 0.32428 0.36764 0.0
C9 C 0.30554 0.34815 0.34889 0.0
C10 C 0.27954 0.35852 0.36499 0.0
N11 N 0.32133 0.28812 0.42249 0.0
H12 H 0.73933 0.38712 0.30277 0.0
H13 H 0.64946 0.28815 0.29174 0.0
H14 H 0.72534 0.2965 0.37684 0.0
H15 H 0.65128 0.30578 0.2333 0.0
C16 C 0.65778 0.33574 0.23547 0.0
C17 C 0.7244 0.35934 0.31168 0.0
C18 C 0.73647 0.34358 0.34134 0.0
C19 C 0.69347 0.33923 0.29296 0.0
C20 C 0.67377 0.30348 0.3053 0.0
C21 C 0.68485 0.28759 0.33562 0.0
C22 C 0.71663 0.30778 0.353 0.0
N23 N 0.68203 0.3561 0.26293 0.0
H24 H 0.71421 0.67369 0.30788 0.0
H25 H 0.73008 0.76105 0.3873 0.0
H26 H 0.64842 0.7397 0.30548 0.0
H27 H 0.78006 0.75081 0.40071 0.0
C28 C 0.7758 0.72209 0.39312 0.0
C29 C 0.70688 0.69625 0.31883 0.0
C30 C 0.67967 0.70503 0.30235 0.0
C31 C 0.72508 0.71609 0.34934 0.0
C32 C 0.71601 0.74563 0.36378 0.0
C33 C 0.6884 0.75492 0.34808 0.0
C34 C 0.67051 0.73425 0.31722 0.0
N35 N 0.75093 0.70376 0.36548 0.0
H36 H 0.23573 0.67906 0.2709 0.0
H37 H 0.33352 0.76566 0.29167 0.0
H38 H 0.25388 0.74362 0.37096 0.0
H39 H 0.35087 0.7463 0.24259 0.0
C40 C 0.33245 0.71979 0.23345 0.0
C41 C 0.25215 0.70131 0.28837 0.0
C42 C 0.24021 0.70885 0.32229 0.0
C43 C 0.28579 0.72089 0.2772 0.0
C44 C 0.30732 0.75021 0.29938 0.0
C45 C 0.29566 0.75885 0.33296 0.0
C46 C 0.26224 0.73787 0.34439 0.0
N47 N 0.29771 0.70771 0.24544 0.0
H48 H 0.29113 0.63507 0.75136 0.0
H49 H 0.38385 0.7317 0.75741 0.0
H50 H 0.30647 0.72322 0.67418 0.0
H51 H 0.3801 0.71851 0.8179 0.0
C52 C 0.37356 0.68847 0.81724 0.0
C53 C 0.30652 0.66226 0.74143 0.0
C54 C 0.29551 0.67661 0.71008 0.0
C55 C 0.33789 0.68255 0.75952 0.0
C56 C 0.35861 0.71711 0.74529 0.0
C57 C 0.34773 0.73211 0.7143 0.0
C58 C 0.31579 0.71179 0.6975 0.0
N59 N 0.34904 0.66687 0.79062 0.0
H60 H 0.32057 0.35496 0.74141 0.0
H61 H 0.30988 0.27461 0.65567 0.0
H62 H 0.38391 0.28572 0.74362 0.0
H63 H 0.25776 0.28327 0.6446 0.0
C64 C 0.26204 0.31182 0.65289 0.0
C65 C 0.32807 0.33283 0.72971 0.0
C66 C 0.35423 0.32252 0.74679 0.0
C67 C 0.31152 0.3155 0.6974 0.0
C68 C 0.3215 0.28731 0.6814 0.0
C69 C 0.3474 0.27608 0.69819 0.0
C70 C 0.36322 0.2934 0.73125 0.0
N71 N 0.28673 0.32926 0.68099 0.0
H72 H 0.69281 0.26273 0.75597 0.0
H73 H 0.78859 0.35385 0.76777 0.0
H74 H 0.77837 0.26671 0.68874 0.0
H75 H 0.76794 0.36106 0.82398 0.0
C76 C 0.74079 0.35474 0.8167 0.0
C77 C 0.71978 0.27561 0.74893 0.0
C78 C 0.73336 0.261 0.72013 0.0
C79 C 0.73988 0.30842 0.767 0.0
C80 C 0.77404 0.32695 0.75595 0.0
C81 C 0.7884 0.31241 0.7275 0.0
C82 C 0.76796 0.27871 0.71054 0.0
N83 N 0.72351 0.32435 0.79284 0.0
H84 H 0.69392 0.71875 0.70089 0.0
H85 H 0.76096 0.7236 0.61084 0.0
H86 H 0.76031 0.65307 0.70234 0.0
H87 H 0.70912 0.73132 0.58067 0.0
C88 C 0.70868 0.7534 0.59925 0.0
C89 C 0.71331 0.70974 0.68806 0.0
C90 C 0.72553 0.68406 0.70561 0.0
C91 C 0.7256 0.72364 0.65381 0.0
C92 C 0.75096 0.71247 0.63714 0.0
C93 C 0.76359 0.68705 0.65464 0.0
C94 C 0.75079 0.67294 0.68886 0.0
N95 N 0.71282 0.74988 0.63746 0.0
Co96 Co 0.07877 0.47757 0.53751 0.0
Co97 Co 0.03788 0.4586 0.47853 0.0
Co98 Co 0.01406 0.51316 0.52733 0.0
O99 O 0.03069 0.46972 0.52692 0.0
H100 H 0.0151 0.44808 0.53878 0.0
O101 O 0.99748 0.55664 0.52813 0.0
Co102 Co 0.94983 0.54945 0.51606 0.0
Co103 Co 0.98873 0.567 0.57656 0.0
H104 H 0.0135 0.57848 0.51697 0.0
O105 O 0.04468 0.41412 0.46487 0.0
O106 O 0.08459 0.46683 0.48605 0.0
O107 O 0.03615 0.49435 0.44216 0.0
O108 O 0.04241 0.53848 0.48421 0.0
O109 O 0.97477 0.48443 0.49321 0.0
O110 O 0.90729 0.54695 0.5037 0.0
O111 O 0.95589 0.59731 0.50347 0.0
O112 O 0.93723 0.49864 0.52627 0.0
O113 O 0.98577 0.48775 0.5701 0.0
O114 O 0.98893 0.53035 0.61291 0.0
O115 O 0.94238 0.5595 0.56727 0.0
O116 O 0.98175 0.61151 0.59031 0.0
C117 C 0.10705 0.44569 0.55574 0.0
C118 C 0.08461 0.54696 0.55318 0.0
C119 C 0.04506 0.52847 0.4513 0.0
C120 C 0.07675 0.43347 0.47263 0.0
C121 C 0.92262 0.58203 0.49687 0.0
C122 C 0.94334 0.47933 0.50082 0.0
C123 C 0.98194 0.49665 0.60304 0.0
C124 C 0.9499 0.5926 0.58118 0.0
O125 O 0.12189 0.48078 0.54851 0.0
O126 O 0.07364 0.43005 0.55027 0.0
O127 O 0.05331 0.54156 0.5615 0.0
O128 O 0.09043 0.52819 0.52706 0.0
Co129 Co 0.54851 0.94693 0.49192 0.0
Co130 Co 0.56543 0.97431 0.55788 0.0
Co131 Co 0.51547 0.01162 0.52467 0.0
O132 O 0.55479 0.99397 0.51512 0.0
H133 H 0.57496 0.01361 0.50659 0.0
O134 O 0.47664 0.03021 0.53466 0.0
Co135 Co 0.48531 0.08017 0.55348 0.0
Co136 Co 0.46481 0.04613 0.48985 0.0
H137 H 0.45687 0.01169 0.54532 0.0
O138 O 0.60836 0.97151 0.56545 0.0
O139 O 0.5618 0.92817 0.53862 0.0
O140 O 0.53441 0.96638 0.59833 0.0
O141 O 0.49293 0.97175 0.56168 0.0
O142 O 0.54424 0.0452 0.5636 0.0
O143 O 0.48912 0.12474 0.57141 0.0
O144 O 0.44138 0.07335 0.56838 0.0
O145 O 0.53317 0.09415 0.54282 0.0
O146 O 0.53763 0.05126 0.48719 0.0
O147 O 0.49465 0.04888 0.44896 0.0
O148 O 0.4743 0.09513 0.50437 0.0
O149 O 0.42368 0.05499 0.48231 0.0
C150 C 0.57876 0.92398 0.46283 0.0
C151 C 0.48026 0.94243 0.48675 0.0
C152 C 0.50267 0.95991 0.59104 0.0
C153 C 0.59347 0.93827 0.55178 0.0
C154 C 0.45638 0.10839 0.57764 0.0
C155 C 0.5517 0.08032 0.56216 0.0
C156 C 0.52678 0.05929 0.4565 0.0
C157 C 0.44288 0.08853 0.49201 0.0
O158 O 0.54637 0.90529 0.46869 0.0
O159 O 0.59265 0.95776 0.47612 0.0
O160 O 0.48647 0.97748 0.48592 0.0
O161 O 0.50076 0.92936 0.5038 0.0
Co162 Co 0.46927 0.52179 0.09748 0.0
Co163 Co 0.45373 0.45488 0.07292 0.0
Co164 Co 0.51522 0.51232 0.02673 0.0
O165 O 0.46958 0.50038 0.05062 0.0
H166 H 0.45199 0.50311 0.03417 0.0
O167 O 0.56076 0.52495 1.00284 0.0
Co168 Co 0.56323 0.50733 0.95483 0.0
Co169 Co 0.57689 0.5734 0.98474 0.0
H170 H 0.57808 0.52138 0.01912 0.0
O171 O 0.40731 0.43076 0.083 0.0
O172 O 0.44756 0.47215 0.11896 0.0
O173 O 0.48671 0.42981 0.07791 0.0
O174 O 0.53168 0.47694 0.0576 0.0
O175 O 0.49201 0.4712 0.99005 0.0
O176 O 0.56972 0.49016 0.91145 0.0
O177 O 0.60649 0.50658 0.96001 0.0
O178 O 0.51779 0.50492 0.94358 0.0
O179 O 0.49881 0.54733 0.99567 0.0
O180 O 0.54333 0.59836 0.98266 0.0
O181 O 0.57969 0.55852 0.93692 0.0
O182 O 0.62313 0.59805 0.97005 0.0
C183 C 0.43812 0.54502 0.12339 0.0
C184 C 0.5379 0.54572 0.09738 0.0
C185 C 0.51902 0.44553 0.07366 0.0
C186 C 0.41651 0.44815 0.11413 0.0
C187 C 0.59909 0.4925 0.92708 0.0
C188 C 0.49322 0.47773 0.95584 0.0
C189 C 0.51102 0.58037 0.983 0.0
C190 C 0.61106 0.58189 0.93901 0.0
O191 O 0.46612 0.54344 0.13923 0.0
O192 O 0.4281 0.52859 0.09169 0.0
O193 O 0.53861 0.55326 0.06343 0.0
O194 O 0.51278 0.51893 0.1093 0.0
H195 H 0.26957 0.41523 0.41163 0.0
H196 H 0.07064 0.36115 0.45698 0.0
H197 H 0.20334 0.30112 0.42426 0.0
H198 H 0.14612 0.47089 0.47513 0.0
H199 H 0.11794 0.33769 0.44482 0.0
H200 H 0.22382 0.43579 0.43487 0.0
C201 C 0.24532 0.39457 0.41955 0.0
C202 C 0.23988 0.35655 0.41587 0.0
C203 C 0.12404 0.36681 0.45179 0.0
C204 C 0.18739 0.37964 0.44213 0.0
C205 C 0.09711 0.38024 0.45847 0.0
C206 C 0.10449 0.41808 0.46658 0.0
C207 C 0.15837 0.39158 0.45284 0.0
C208 C 0.13921 0.44156 0.46868 0.0
C209 C 0.21929 0.40623 0.43293 0.0
C210 C 0.2083 0.33072 0.42678 0.0
N211 N 0.16481 0.42798 0.46153 0.0
N212 N 0.18291 0.34275 0.43904 0.0
H213 H 0.70473 0.23209 0.36672 0.0
H214 H 0.51103 0.09525 0.39785 0.0
H215 H 0.61365 0.25882 0.33825 0.0
H216 H 0.59792 0.08889 0.46201 0.0
H217 H 0.55012 0.1483 0.36559 0.0
H218 H 0.66738 0.17362 0.39293 0.0
C219 C 0.67698 0.22584 0.3659 0.0
C220 C 0.66253 0.2508 0.35012 0.0
C221 C 0.56068 0.13508 0.3865 0.0
C222 C 0.61962 0.18325 0.37934 0.0
C223 C 0.53841 0.10455 0.40481 0.0
C224 C 0.5511 0.08757 0.43295 0.0
C225 C 0.59605 0.1487 0.396 0.0
C226 C 0.58692 0.10113 0.44065 0.0
C227 C 0.6557 0.19229 0.3807 0.0
C228 C 0.62622 0.24046 0.34933 0.0
N229 N 0.60813 0.131 0.42239 0.0
N230 N 0.60613 0.20759 0.36366 0.0
H231 H 0.83378 0.75169 0.43666 0.0
H232 H 0.8571 0.55491 0.46863 0.0
H233 H 0.76843 0.64827 0.38718 0.0
H234 H 0.93967 0.65847 0.49277 0.0
H235 H 0.82186 0.58954 0.4448 0.0
H236 H 0.87063 0.71892 0.46309 0.0
C237 C 0.82722 0.72216 0.43139 0.0
C238 C 0.79813 0.70276 0.40956 0.0
C239 C 0.84769 0.60483 0.4552 0.0
C240 C 0.83978 0.66518 0.43979 0.0
C241 C 0.86789 0.58504 0.46896 0.0
C242 C 0.90158 0.60379 0.48252 0.0
C243 C 0.86095 0.64386 0.45517 0.0
C244 C 0.91398 0.6429 0.48223 0.0
C245 C 0.84826 0.70354 0.44636 0.0
C246 C 0.79068 0.6645 0.40361 0.0
N247 N 0.89362 0.66171 0.46882 0.0
N248 N 0.81127 0.64704 0.4187 0.0
H249 H 0.3346 0.83031 0.31558 0.0
H250 H 0.44786 0.86827 0.49884 0.0
H251 H 0.31127 0.75342 0.40518 0.0
H252 H 0.44315 0.95759 0.42979 0.0
H253 H 0.39997 0.82481 0.46322 0.0
H254 H 0.37683 0.87668 0.35508 0.0
C255 C 0.33828 0.82333 0.34364 0.0
C256 C 0.31948 0.78805 0.35719 0.0
C257 C 0.40922 0.85396 0.45605 0.0
C258 C 0.36786 0.84062 0.40229 0.0
C259 C 0.43663 0.87876 0.47626 0.0
C260 C 0.44961 0.91656 0.46713 0.0
C261 C 0.39507 0.86689 0.42602 0.0
C262 C 0.43391 0.92867 0.43778 0.0
C263 C 0.36221 0.84979 0.36618 0.0
C264 C 0.32506 0.7804 0.39377 0.0
N265 N 0.40772 0.90381 0.41796 0.0
N266 N 0.34902 0.80632 0.41495 0.0
H267 H 0.29113 0.66152 0.63735 0.0
H268 H 0.08418 0.56972 0.62513 0.0
H269 H 0.22845 0.64278 0.73337 0.0
H270 H 0.15271 0.57227 0.53644 0.0
H271 H 0.13513 0.59987 0.6651 0.0
H272 H 0.23938 0.63127 0.60002 0.0
C273 C 0.26634 0.6508 0.65058 0.0
C274 C 0.26405 0.65477 0.68848 0.0
C275 C 0.13887 0.59387 0.63684 0.0
C276 C 0.20422 0.62015 0.6457 0.0
C277 C 0.10984 0.57698 0.61396 0.0
C278 C 0.11417 0.56844 0.57736 0.0
C279 C 0.17234 0.60254 0.62284 0.0
C280 C 0.14804 0.57816 0.56445 0.0
C281 C 0.23673 0.6335 0.62925 0.0
C282 C 0.23129 0.6401 0.70424 0.0
N283 N 0.17563 0.5946 0.58708 0.0
N284 N 0.20253 0.62365 0.68273 0.0
H285 H 0.35385 0.21215 0.72615 0.0
H286 H 0.46682 0.18129 0.56568 0.0
H287 H 0.36976 0.27757 0.62824 0.0
H288 H 0.40165 0.08686 0.62502 0.0
H289 H 0.43711 0.21994 0.59334 0.0
H290 H 0.37679 0.16845 0.69507 0.0
C291 C 0.36206 0.21719 0.69811 0.0
C292 C 0.35984 0.24843 0.67967 0.0
C293 C 0.42914 0.19073 0.60018 0.0
C294 C 0.38653 0.19915 0.64437 0.0
C295 C 0.44612 0.16865 0.58448 0.0
C296 C 0.43664 0.13078 0.59305 0.0
C297 C 0.40313 0.17524 0.62562 0.0
C298 C 0.40961 0.11589 0.61758 0.0
C299 C 0.37493 0.19221 0.68039 0.0
C300 C 0.37079 0.2537 0.64334 0.0
N301 N 0.3941 0.13832 0.63351 0.0
N302 N 0.38405 0.22963 0.62706 0.0
H303 H 0.80949 0.31601 0.65622 0.0
H304 H 0.9621 0.50244 0.67382 0.0
H305 H 0.84619 0.36056 0.76413 0.0
H306 H 0.95744 0.42193 0.58879 0.0
H307 H 0.92032 0.45301 0.70859 0.0
H308 H 0.86333 0.35605 0.63127 0.0
C309 C 0.829 0.33345 0.67502 0.0
C310 C 0.82287 0.33451 0.71263 0.0
C311 C 0.92912 0.44619 0.68266 0.0
C312 C 0.88453 0.38207 0.68338 0.0
C313 C 0.9529 0.47434 0.66277 0.0
C314 C 0.96276 0.46654 0.62794 0.0
C315 C 0.91486 0.41034 0.66727 0.0
C316 C 0.95017 0.42951 0.61518 0.0
C317 C 0.85981 0.35665 0.66051 0.0
C318 C 0.84921 0.35915 0.73491 0.0
N319 N 0.92635 0.40299 0.63448 0.0
N320 N 0.87867 0.38245 0.71986 0.0
H321 H 0.72327 0.82233 0.62887 0.0
H322 H 0.57203 0.86585 0.52617 0.0
H323 H 0.66609 0.75148 0.5405 0.0
H324 H 0.65875 0.9508 0.57835 0.0
H325 H 0.6039 0.82228 0.53128 0.0
H326 H 0.69799 0.86899 0.61151 0.0
C327 C 0.7055 0.81679 0.60559 0.0
C328 C 0.69638 0.78305 0.58622 0.0
C329 C 0.61595 0.85061 0.5412 0.0
C330 C 0.66701 0.83599 0.56647 0.0
C331 C 0.59776 0.8754 0.5385 0.0
C332 C 0.61257 0.9119 0.55229 0.0
C333 C 0.64876 0.86233 0.55842 0.0
C334 C 0.64608 0.92286 0.56771 0.0
C335 C 0.69119 0.84345 0.59558 0.0
C336 C 0.67358 0.77728 0.55606 0.0
N337 N 0.66283 0.89808 0.57074 0.0
N338 N 0.6591 0.80333 0.54738 0.0
H339 H 0.42369 0.29661 0.43013 0.0
H340 H 0.37549 0.08404 0.48357 0.0
H341 H 0.31902 0.22401 0.4486 0.0
H342 H 0.47967 0.16304 0.49129 0.0
H343 H 0.35415 0.13522 0.47191 0.0
H344 H 0.44497 0.24837 0.45339 0.0
C345 C 0.40527 0.27057 0.43935 0.0
C346 C 0.36966 0.26411 0.43732 0.0
C347 C 0.38165 0.14141 0.47647 0.0
C348 C 0.39357 0.20889 0.4636 0.0
C349 C 0.39384 0.1122 0.48297 0.0
C350 C 0.42941 0.11934 0.48795 0.0
C351 C 0.40528 0.17791 0.47443 0.0
C352 C 0.45204 0.15634 0.48735 0.0
C353 C 0.41737 0.24314 0.45269 0.0
C354 C 0.34673 0.23006 0.44962 0.0
N355 N 0.43963 0.18426 0.48026 0.0
N356 N 0.35909 0.20354 0.46194 0.0
H357 H 0.75319 0.41212 0.37367 0.0
H358 H 0.94395 0.43384 0.4418 0.0
H359 H 0.79306 0.32311 0.35552 0.0
H360 H 0.8755 0.47376 0.5044 0.0
H361 H 0.89469 0.40073 0.40061 0.0
H362 H 0.80476 0.44464 0.41152 0.0
C363 C 0.77307 0.39972 0.37727 0.0
C364 C 0.76893 0.36493 0.36157 0.0
C365 C 0.89074 0.41686 0.42343 0.0
C366 C 0.82795 0.40197 0.40447 0.0
C367 C 0.91874 0.4357 0.44692 0.0
C368 C 0.91409 0.45703 0.47647 0.0
C369 C 0.85819 0.42015 0.42911 0.0
C370 C 0.88069 0.45825 0.48179 0.0
C371 C 0.8023 0.41811 0.399 0.0
C372 C 0.79532 0.34987 0.36734 0.0
N373 N 0.85426 0.44053 0.45817 0.0
N374 N 0.82385 0.36855 0.38822 0.0
H375 H 0.69144 0.77759 0.42073 0.0
H376 H 0.55839 0.87937 0.40293 0.0
H377 H 0.65941 0.80155 0.3133 0.0
H378 H 0.64499 0.92526 0.47777 0.0
H379 H 0.58917 0.84247 0.37357 0.0
H380 H 0.66979 0.82421 0.44668 0.0
C381 C 0.6804 0.79277 0.40236 0.0
C382 C 0.67721 0.78496 0.36448 0.0
C383 C 0.60156 0.86092 0.39618 0.0
C384 C 0.65124 0.83757 0.39468 0.0
C385 C 0.58407 0.88192 0.41292 0.0
C386 C 0.59929 0.90549 0.44264 0.0
C387 C 0.63399 0.86243 0.41007 0.0
C388 C 0.63253 0.90762 0.4547 0.0
C389 C 0.6679 0.81932 0.4174 0.0
C390 C 0.66171 0.8054 0.34266 0.0
N391 N 0.64858 0.88574 0.43882 0.0
N392 N 0.64883 0.8302 0.35811 0.0
H393 H 0.19328 0.72814 0.36366 0.0
H394 H 0.0673 0.51726 0.38346 0.0
H395 H 0.20916 0.63337 0.31251 0.0
H396 H 0.06994 0.60447 0.46018 0.0
H397 H 0.11004 0.56308 0.34688 0.0
H398 H 0.13994 0.68603 0.39 0.0
C399 C 0.18558 0.69862 0.35776 0.0
C400 C 0.20604 0.68442 0.33588 0.0
C401 C 0.10092 0.57224 0.37149 0.0
C402 C 0.14465 0.63629 0.36534 0.0
C403 C 0.07634 0.54613 0.39233 0.0
C404 C 0.06538 0.55686 0.42535 0.0
C405 C 0.11459 0.60942 0.38358 0.0
C406 C 0.07796 0.59481 0.43519 0.0
C407 C 0.155 0.67467 0.37263 0.0
C408 C 0.19419 0.6459 0.32865 0.0
N409 N 0.1022 0.61968 0.4146 0.0
N410 N 0.16444 0.62327 0.34344 0.0
H411 H 0.39179 0.79492 0.75018 0.0
H412 H 0.43681 0.91733 0.57014 0.0
H413 H 0.35507 0.75205 0.64189 0.0
H414 H 0.50949 0.93718 0.66105 0.0
H415 H 0.39775 0.86385 0.60207 0.0
H416 H 0.42789 0.85344 0.72279 0.0
C417 C 0.39124 0.79759 0.72076 0.0
C418 C 0.36996 0.76822 0.69848 0.0
C419 C 0.42209 0.88021 0.61518 0.0
C420 C 0.41043 0.83566 0.66728 0.0
C421 C 0.44428 0.91098 0.59715 0.0
C422 C 0.4766 0.93172 0.61287 0.0
C423 C 0.43195 0.87036 0.64943 0.0
C424 C 0.48492 0.92183 0.64785 0.0
C425 C 0.41169 0.83114 0.70525 0.0
C426 C 0.37013 0.77391 0.66049 0.0
N427 N 0.46276 0.89175 0.66497 0.0
N428 N 0.38982 0.80692 0.64621 0.0
H429 H 0.26923 0.38546 0.66071 0.0
H430 H 0.0913 0.36943 0.5575 0.0
H431 H 0.20328 0.2828 0.61037 0.0
H432 H 0.17259 0.47323 0.58408 0.0
H433 H 0.12899 0.33582 0.57995 0.0
H434 H 0.23118 0.41681 0.63637 0.0
C435 C 0.24667 0.36943 0.64454 0.0
C436 C 0.23934 0.33136 0.63765 0.0
C437 C 0.13847 0.36595 0.5808 0.0
C438 C 0.19538 0.36727 0.60962 0.0
C439 C 0.11694 0.38511 0.56819 0.0
C440 C 0.12871 0.42419 0.56912 0.0
C441 C 0.17178 0.38607 0.59483 0.0
C442 C 0.16233 0.44311 0.58282 0.0
C443 C 0.22495 0.38743 0.63052 0.0
C444 C 0.20981 0.3122 0.61629 0.0
N445 N 0.18249 0.42393 0.59527 0.0
N446 N 0.18875 0.33029 0.60317 0.0
H447 H 0.68678 0.19371 0.7409 0.0
H448 H 0.5886 0.15329 0.54941 0.0
H449 H 0.72639 0.2603 0.64613 0.0
H450 H 0.58213 0.06406 0.62377 0.0
H451 H 0.63577 0.19514 0.58715 0.0
H452 H 0.64468 0.14724 0.70107 0.0
C453 C 0.68681 0.19829 0.71171 0.0
C454 C 0.71012 0.23069 0.69669 0.0
C455 C 0.62419 0.16632 0.59503 0.0
C456 C 0.66194 0.17842 0.65139 0.0
C457 C 0.59721 0.1425 0.57363 0.0
C458 C 0.58146 0.10522 0.58355 0.0
C459 C 0.63498 0.15298 0.62702 0.0
C460 C 0.59371 0.09262 0.61512 0.0
C461 C 0.66294 0.17183 0.68906 0.0
C462 C 0.70911 0.23546 0.65872 0.0
N463 N 0.61951 0.1166 0.63606 0.0
N464 N 0.68513 0.20984 0.63743 0.0
H465 H 0.8262 0.73045 0.62847 0.0
H466 H 0.88047 0.55585 0.57473 0.0
H467 H 0.76092 0.6161 0.64203 0.0
H468 H 0.95573 0.66432 0.59936 0.0
H469 H 0.83423 0.58038 0.58612 0.0
H470 H 0.87181 0.70897 0.60488 0.0
C471 C 0.82141 0.70086 0.62601 0.0
C472 C 0.79008 0.67489 0.63741 0.0
C473 C 0.86086 0.59884 0.58893 0.0
C474 C 0.84155 0.65036 0.61057 0.0
C475 C 0.88731 0.58491 0.5824 0.0
C476 C 0.92203 0.608 0.58661 0.0
C477 C 0.86911 0.63615 0.5997 0.0
C478 C 0.92929 0.64548 0.59633 0.0
C479 C 0.84738 0.68868 0.61279 0.0
C480 C 0.78497 0.6369 0.63389 0.0
N481 N 0.90297 0.65843 0.60274 0.0
N482 N 0.8105 0.62575 0.62081 0.0
H483 H 0.31285 0.30915 0.28874 0.0
H484 H 0.4191 0.48657 0.17776 0.0
H485 H 0.3278 0.42045 0.32723 0.0
H486 H 0.36456 0.38147 0.12401 0.0
H487 H 0.38831 0.46277 0.23375 0.0
H488 H 0.33512 0.33447 0.22909 0.0
C489 C 0.32089 0.33891 0.28454 0.0
C490 C 0.31869 0.36285 0.31277 0.0
C491 C 0.38273 0.44511 0.20955 0.0
C492 C 0.34406 0.39185 0.2451 0.0
C493 C 0.40027 0.45868 0.17756 0.0
C494 C 0.39441 0.43594 0.1462 0.0
C495 C 0.35979 0.40825 0.21043 0.0
C496 C 0.36977 0.39995 0.14757 0.0
C497 C 0.33325 0.35327 0.25054 0.0
C498 C 0.32904 0.40113 0.30602 0.0
N499 N 0.35373 0.38696 0.1794 0.0
N500 N 0.34163 0.41453 0.27294 0.0
H501 H 0.42492 0.72524 0.86493 0.0
H502 H 0.44557 0.54338 0.95524 0.0
H503 H 0.36267 0.61398 0.83072 0.0
H504 H 0.52281 0.65312 0.96482 0.0
H505 H 0.41001 0.56891 0.91663 0.0
H506 H 0.4562 0.69931 0.90827 0.0
C507 C 0.41776 0.69528 0.86668 0.0
C508 C 0.39128 0.67176 0.8441 0.0
C509 C 0.43462 0.58741 0.92744 0.0
C510 C 0.42693 0.64174 0.89388 0.0
C511 C 0.45484 0.57294 0.94976 0.0
C512 C 0.48731 0.59614 0.9634 0.0
C513 C 0.44671 0.62544 0.91898 0.0
C514 C 0.49806 0.63414 0.95491 0.0
C515 C 0.43567 0.68049 0.89139 0.0
C516 C 0.38301 0.63314 0.84752 0.0
N517 N 0.47786 0.64754 0.93331 0.0
N518 N 0.40078 0.61931 0.87197 0.0
H519 H 0.37851 0.39792 0.75563 0.0
H520 H 0.45569 0.40229 0.95936 0.0
H521 H 0.37423 0.29743 0.81142 0.0
H522 H 0.47362 0.49816 0.89076 0.0
H523 H 0.42022 0.36281 0.90951 0.0
H524 H 0.40829 0.43434 0.80849 0.0
C525 C 0.38364 0.38342 0.77917 0.0
C526 C 0.37352 0.34444 0.77909 0.0
C527 C 0.43176 0.39254 0.90561 0.0
C528 C 0.40827 0.3864 0.84021 0.0
C529 C 0.45169 0.41507 0.93412 0.0
C530 C 0.46772 0.45353 0.92912 0.0
C531 C 0.42761 0.40879 0.87221 0.0
C532 C 0.462 0.46862 0.89575 0.0
C533 C 0.40087 0.40432 0.80941 0.0
C534 C 0.38166 0.32741 0.81025 0.0
N535 N 0.44258 0.44631 0.86873 0.0
N536 N 0.39847 0.34848 0.83965 0.0
H537 H 0.76275 0.40778 0.87032 0.0
H538 H 0.59011 0.45942 0.8596 0.0
H539 H 0.67584 0.35408 0.79776 0.0
H540 H 0.6626 0.4918 0.95088 0.0
H541 H 0.62648 0.4288 0.83122 0.0
H542 H 0.73086 0.44588 0.8956 0.0
C543 C 0.73698 0.40404 0.85979 0.0
C544 C 0.72176 0.37758 0.83224 0.0
C545 C 0.63454 0.44275 0.85739 0.0
C546 C 0.68551 0.42114 0.86043 0.0
C547 C 0.61385 0.4604 0.87357 0.0
C548 C 0.62312 0.47784 0.90791 0.0
C549 C 0.66483 0.44258 0.87553 0.0
C550 C 0.65434 0.47842 0.92452 0.0
C551 C 0.71886 0.42574 0.87415 0.0
C552 C 0.68845 0.37389 0.81926 0.0
N553 N 0.67402 0.46081 0.90826 0.0
N554 N 0.67148 0.39545 0.83345 0.0
H555 H 0.76013 0.68049 0.76936 0.0
H556 H 0.58878 0.55887 0.86962 0.0
H557 H 0.65766 0.65032 0.72108 0.0
H558 H 0.67794 0.63002 0.9308 0.0
H559 H 0.61841 0.58176 0.81307 0.0
H560 H 0.73438 0.65281 0.82728 0.0
C561 C 0.73226 0.66794 0.77103 0.0
C562 C 0.71085 0.66777 0.7407 0.0
C563 C 0.63156 0.59225 0.83887 0.0
C564 C 0.68157 0.63584 0.80602 0.0
C565 C 0.61475 0.57909 0.87125 0.0
C566 C 0.63074 0.59293 0.90507 0.0
C567 C 0.66477 0.61921 0.84015 0.0
C568 C 0.66456 0.6189 0.9053 0.0
C569 C 0.71766 0.65233 0.80393 0.0
C570 C 0.67495 0.6513 0.74403 0.0
N571 N 0.6805 0.63138 0.87321 0.0
N572 N 0.66143 0.63581 0.77607 0.0
H573 H 0.65812 0.72954 0.23873 0.0
H574 H 0.55767 0.52396 0.16177 0.0
H575 H 0.65678 0.62933 0.29318 0.0
H576 H 0.57564 0.62097 0.09482 0.0
H577 H 0.59368 0.56303 0.2102 0.0
H578 H 0.62679 0.69149 0.18637 0.0
C579 C 0.65117 0.69957 0.23972 0.0
C580 C 0.66021 0.68263 0.27041 0.0
C581 C 0.59009 0.57592 0.18489 0.0
C582 C 0.62454 0.63901 0.21059 0.0
C583 C 0.56952 0.55357 0.15716 0.0
C584 C 0.56358 0.56926 0.12425 0.0
C585 C 0.60461 0.61455 0.18011 0.0
C586 C 0.57973 0.60776 0.11973 0.0
C587 C 0.63355 0.67792 0.20972 0.0
C588 C 0.65079 0.6437 0.27002 0.0
N589 N 0.59922 0.62922 0.14756 0.0
N590 N 0.63343 0.62332 0.24076 0.0
H591 H 0.29588 0.65499 0.19604 0.0
H592 H 0.45899 0.59045 0.183 0.0
H593 H 0.39936 0.72481 0.22802 0.0
H594 H 0.37506 0.55097 0.10363 0.0
H595 H 0.43195 0.63233 0.20835 0.0
H596 H 0.31973 0.61024 0.1688 0.0
C597 C 0.32359 0.66095 0.19717 0.0
C598 C 0.3458 0.69355 0.21434 0.0
C599 C 0.41938 0.61443 0.18545 0.0
C600 C 0.37287 0.64243 0.18408 0.0
C601 C 0.43464 0.59024 0.17106 0.0
C602 C 0.41938 0.56724 0.14092 0.0
C603 C 0.38831 0.61545 0.17004 0.0
C604 C 0.38777 0.56835 0.12676 0.0
C605 C 0.33711 0.63549 0.18161 0.0
C606 C 0.38143 0.70003 0.21497 0.0
N607 N 0.37317 0.59212 0.1415 0.0
N608 N 0.39384 0.67451 0.20044 0.0
H609 H 0.66953 0.4109 0.22507 0.0
H610 H 0.50605 0.37249 0.09011 0.0
H611 H 0.60665 0.30139 0.18659 0.0
H612 H 0.58511 0.48093 0.10068 0.0
H613 H 0.5419 0.34653 0.12731 0.0
H614 H 0.63828 0.43801 0.18213 0.0
C615 C 0.64925 0.39259 0.20755 0.0
C616 C 0.64056 0.3538 0.20943 0.0
C617 C 0.55165 0.37595 0.12122 0.0
C618 C 0.60468 0.38454 0.16053 0.0
C619 C 0.53117 0.39079 0.09992 0.0
C620 C 0.54262 0.42892 0.0921 0.0
C621 C 0.58367 0.39944 0.13555 0.0
C622 C 0.57541 0.4513 0.1057 0.0
C623 C 0.63152 0.40807 0.18297 0.0
C624 C 0.61413 0.33142 0.18604 0.0
N625 N 0.59462 0.43632 0.12712 0.0
N626 N 0.59701 0.34704 0.16283 0.0
loop_
_geom_bond_atom_site_label_1
_geom_bond_atom_site_label_2
_geom_bond_distance
_geom_bond_site_symmetry_2
_ccdc_geom_bond_type
H0 C5 0.930 . S
H1 C8 0.930 . S
H2 C10 0.930 . S
H3 C4 1.016 . S
C4 H3 1.016 . S
C4 N11 1.286 . S
C5 H0 0.930 . S
C5 C6 1.397 . S
C5 C7 1.361 . S
C6 C5 1.397 . S
C6 C10 1.390 . S
C7 C5 1.361 . S
C7 C8 1.393 . S
C7 N11 1.413 . S
C8 H1 0.930 . S
C8 C7 1.393 . S
C8 C9 1.399 . S
C9 C8 1.399 . S
C9 C10 1.381 . S
C10 H2 0.930 . S
C10 C6 1.390 . S
C10 C9 1.381 . S
N11 C4 1.286 . S
N11 C7 1.413 . S
H12 C17 0.930 . S
H13 C20 0.930 . S
H14 C22 0.930 . S
H15 C16 1.016 . S
C16 H15 1.016 . S
C16 N23 1.286 . S
C17 H12 0.930 . S
C17 C18 1.397 . S
C17 C19 1.361 . S
C18 C17 1.397 . S
C18 C22 1.390 . S
C19 C17 1.361 . S
C19 C20 1.393 . S
C19 N23 1.413 . S
C20 H13 0.930 . S
C20 C19 1.393 . S
C20 C21 1.399 . S
C21 C20 1.399 . S
C21 C22 1.381 . S
C22 H14 0.930 . S
C22 C18 1.390 . S
C22 C21 1.381 . S
N23 C16 1.286 . S
N23 C19 1.413 . S
H24 C29 0.930 . S
H25 C32 0.930 . S
H26 C34 0.930 . S
H27 C28 1.016 . S
C28 H27 1.016 . S
C28 N35 1.286 . S
C29 H24 0.930 . S
C29 C30 1.397 . S
C29 C31 1.361 . S
C30 C29 1.397 . S
C30 C34 1.390 . S
C31 C29 1.361 . S
C31 C32 1.393 . S
C31 N35 1.413 . S
C32 H25 0.930 . S
C32 C31 1.393 . S
C32 C33 1.399 . S
C33 C32 1.399 . S
C33 C34 1.381 . S
C34 H26 0.930 . S
C34 C30 1.390 . S
C34 C33 1.381 . S
N35 C28 1.286 . S
N35 C31 1.413 . S
H36 C41 0.930 . S
H37 C44 0.930 . S
H38 C46 0.930 . S
H39 C40 1.016 . S
C40 H39 1.016 . S
C40 N47 1.286 . S
C41 H36 0.930 . S
C41 C42 1.397 . S
C41 C43 1.361 . S
C42 C41 1.397 . S
C42 C46 1.390 . S
C43 C41 1.361 . S
C43 C44 1.393 . S
C43 N47 1.413 . S
C44 H37 0.930 . S
C44 C43 1.393 . S
C44 C45 1.399 . S
C45 C44 1.399 . S
C45 C46 1.381 . S
C46 H38 0.930 . S
C46 C42 1.390 . S
C46 C45 1.381 . S
N47 C40 1.286 . S
N47 C43 1.413 . S
H48 C53 0.930 . S
H49 C56 0.930 . S
H50 C58 0.930 . S
H51 C52 1.016 . S
C52 H51 1.016 . S
C52 N59 1.286 . S
C53 H48 0.930 . S
C53 C54 1.397 . S
C53 C55 1.361 . S
C54 C53 1.397 . S
C54 C58 1.390 . S
C55 C53 1.361 . S
C55 C56 1.393 . S
C55 N59 1.413 . S
C56 H49 0.930 . S
C56 C55 1.393 . S
C56 C57 1.399 . S
C57 C56 1.399 . S
C57 C58 1.381 . S
C58 H50 0.930 . S
C58 C54 1.390 . S
C58 C57 1.381 . S
N59 C52 1.286 . S
N59 C55 1.413 . S
H60 C65 0.930 . S
H61 C68 0.930 . S
H62 C70 0.930 . S
H63 C64 1.016 . S
C64 H63 1.016 . S
C64 N71 1.286 . S
C65 H60 0.930 . S
C65 C66 1.397 . S
C65 C67 1.361 . S
C66 C65 1.397 . S
C66 C70 1.390 . S
C67 C65 1.361 . S
C67 C68 1.393 . S
C67 N71 1.413 . S
C68 H61 0.930 . S
C68 C67 1.393 . S
C68 C69 1.399 . S
C69 C68 1.399 . S
C69 C70 1.381 . S
C70 H62 0.930 . S
C70 C66 1.390 . S
C70 C69 1.381 . S
N71 C64 1.286 . S
N71 C67 1.413 . S
H72 C77 0.930 . S
H73 C80 0.930 . S
H74 C82 0.930 . S
H75 C76 1.016 . S
C76 H75 1.016 . S
C76 N83 1.286 . S
C77 H72 0.930 . S
C77 C78 1.397 . S
C77 C79 1.361 . S
C78 C77 1.397 . S
C78 C82 1.390 . S
C79 C77 1.361 . S
C79 C80 1.393 . S
C79 N83 1.413 . S
C80 H73 0.930 . S
C80 C79 1.393 . S
C80 C81 1.399 . S
C81 C80 1.399 . S
C81 C82 1.381 . S
C82 H74 0.930 . S
C82 C78 1.390 . S
C82 C81 1.381 . S
N83 C76 1.286 . S
N83 C79 1.413 . S
H84 C89 0.930 . S
H85 C92 0.930 . S
H86 C94 0.930 . S
H87 C88 1.016 . S
C88 H87 1.016 . S
C88 N95 1.286 . S
C89 H84 0.930 . S
C89 C90 1.397 . S
C89 C91 1.361 . S
C90 C89 1.397 . S
C90 C94 1.390 . S
C91 C89 1.361 . S
C91 C92 1.393 . S
C91 N95 1.413 . S
C92 H85 0.930 . S
C92 C91 1.393 . S
C92 C93 1.399 . S
C93 C92 1.399 . S
C93 C94 1.381 . S
C94 H86 0.930 . S
C94 C90 1.390 . S
C94 C93 1.381 . S
N95 C88 1.286 . S
N95 C91 1.413 . S
Co96 O99 2.042 . S
Co96 O106 2.264 . S
Co96 O125 2.286 . S
Co96 O126 2.069 . S
Co96 O128 2.015 . S
Co97 O99 2.122 . S
Co97 O105 2.073 . S
Co97 O106 2.327 . S
Co97 O107 1.976 . S
Co98 O99 2.087 . S
Co98 O101 2.087 1_455 S
Co98 O108 2.111 . S
Co98 O109 2.143 1_455 S
Co98 O113 2.111 1_455 S
Co98 O127 2.143 . S
O99 Co96 2.042 . S
O99 Co97 2.122 . S
O99 Co98 2.087 . S
O99 H100 0.980 . S
H100 O99 0.980 . S
O101 Co98 2.087 1_655 S
O101 Co102 2.042 . S
O101 Co103 2.122 . S
O101 H104 0.980 1_655 S
Co102 O101 2.042 . S
Co102 O110 2.286 . S
Co102 O111 2.069 . S
Co102 O112 2.015 . S
Co102 O115 2.264 . S
Co103 O101 2.122 . S
Co103 O114 1.976 . S
Co103 O115 2.327 . S
Co103 O116 2.073 . S
H104 O101 0.980 1_455 S
O105 Co97 2.073 . S
O105 C120 1.245 . S
O106 Co96 2.264 . S
O106 Co97 2.327 . S
O106 C120 1.257 . S
O107 Co97 1.976 . S
O107 C119 1.251 . S
O108 Co98 2.111 . S
O108 C119 1.274 . S
O109 Co98 2.143 1_655 S
O109 C122 1.246 . S
O110 Co102 2.286 . S
O110 C121 1.259 . S
O111 Co102 2.069 . S
O111 C121 1.289 . S
O112 Co102 2.015 . S
O112 C122 1.257 . S
O113 Co98 2.111 1_655 S
O113 C123 1.274 . S
O114 Co103 1.976 . S
O114 C123 1.251 . S
O115 Co102 2.264 . S
O115 Co103 2.327 . S
O115 C124 1.257 . S
O116 Co103 2.073 . S
O116 C124 1.245 . S
C117 O125 1.259 . S
C117 O126 1.289 . S
C118 O127 1.246 . S
C118 O128 1.257 . S
C119 O107 1.251 . S
C119 O108 1.274 . S
C120 O105 1.245 . S
C120 O106 1.257 . S
C121 O110 1.259 . S
C121 O111 1.289 . S
C122 O109 1.246 . S
C122 O112 1.257 . S
C123 O113 1.274 . S
C123 O114 1.251 . S
C124 O115 1.257 . S
C124 O116 1.245 . S
O125 Co96 2.286 . S
O125 C117 1.259 . S
O126 Co96 2.069 . S
O126 C117 1.289 . S
O127 Co98 2.143 . S
O127 C118 1.246 . S
O128 Co96 2.015 . S
O128 C118 1.257 . S
Co129 O132 2.042 . S
Co129 O139 2.264 . S
Co129 O158 2.286 . S
Co129 O159 2.069 . S
Co129 O161 2.015 . S
Co130 O132 2.122 . S
Co130 O138 2.073 . S
Co130 O139 2.327 . S
Co130 O140 1.976 . S
Co131 O132 2.087 1_545 S
Co131 O134 2.087 . S
Co131 O141 2.111 1_545 S
Co131 O142 2.143 . S
Co131 O146 2.111 . S
Co131 O160 2.143 1_545 S
O132 Co129 2.042 . S
O132 Co130 2.122 . S
O132 Co131 2.087 1_565 S
O132 H133 0.971 1_565 S
H133 O132 0.971 1_545 S
O134 Co131 2.087 . S
O134 Co135 2.042 . S
O134 Co136 2.122 . S
O134 H137 0.980 . S
Co135 O134 2.042 . S
Co135 O143 2.286 . S
Co135 O144 2.069 . S
Co135 O145 2.015 . S
Co135 O148 2.264 . S
Co136 O134 2.122 . S
Co136 O147 1.976 . S
Co136 O148 2.327 . S
Co136 O149 2.073 . S
H137 O134 0.980 . S
O138 Co130 2.073 . S
O138 C153 1.245 . S
O139 Co129 2.264 . S
O139 Co130 2.327 . S
O139 C153 1.257 . S
O140 Co130 1.976 . S
O140 C152 1.251 . S
O141 Co131 2.111 1_565 S
O141 C152 1.274 . S
O142 Co131 2.143 . S
O142 C155 1.246 . S
O143 Co135 2.286 . S
O143 C154 1.259 . S
O144 Co135 2.069 . S
O144 C154 1.289 . S
O145 Co135 2.015 . S
O145 C155 1.257 . S
O146 Co131 2.111 . S
O146 C156 1.274 . S
O147 Co136 1.976 . S
O147 C156 1.251 . S
O148 Co135 2.264 . S
O148 Co136 2.327 . S
O148 C157 1.257 . S
O149 Co136 2.073 . S
O149 C157 1.245 . S
C150 O158 1.259 . S
C150 O159 1.289 . S
C151 O160 1.246 . S
C151 O161 1.257 . S
C152 O140 1.251 . S
C152 O141 1.274 . S
C153 O138 1.245 . S
C153 O139 1.257 . S
C154 O143 1.259 . S
C154 O144 1.289 . S
C155 O142 1.246 . S
C155 O145 1.257 . S
C156 O146 1.274 . S
C156 O147 1.251 . S
C157 O148 1.257 . S
C157 O149 1.245 . S
O158 Co129 2.286 . S
O158 C150 1.259 . S
O159 Co129 2.069 . S
O159 C150 1.289 . S
O160 Co131 2.143 1_565 S
O160 C151 1.246 . S
O161 Co129 2.015 . S
O161 C151 1.257 . S
Co162 O165 2.042 . S
Co162 O172 2.264 . S
Co162 O191 2.286 . S
Co162 O192 2.069 . S
Co162 O194 2.015 . S
Co163 O165 2.122 . S
Co163 O171 2.073 . S
Co163 O172 2.327 . S
Co163 O173 1.976 . S
Co164 O165 2.087 . S
Co164 O167 2.087 1_554 S
Co164 O174 2.111 . S
Co164 O175 2.143 1_554 S
Co164 O179 2.111 1_554 S
Co164 O193 2.143 . S
O165 Co162 2.042 . S
O165 Co163 2.122 . S
O165 Co164 2.087 . S
O165 H166 0.980 . S
H166 O165 0.980 . S
O167 Co164 2.087 1_556 S
O167 Co168 2.042 . S
O167 Co169 2.122 . S
O167 H170 0.980 . S
Co168 O167 2.042 . S
Co168 O176 2.286 . S
Co168 O177 2.069 . S
Co168 O178 2.015 . S
Co168 O181 2.264 . S
Co169 O167 2.122 . S
Co169 O180 1.976 . S
Co169 O181 2.327 . S
Co169 O182 2.073 . S
H170 O167 0.980 . S
O171 Co163 2.073 . S
O171 C186 1.245 . S
O172 Co162 2.264 . S
O172 Co163 2.327 . S
O172 C186 1.257 . S
O173 Co163 1.976 . S
O173 C185 1.251 . S
O174 Co164 2.111 . S
O174 C185 1.274 . S
O175 Co164 2.143 1_556 S
O175 C188 1.246 . S
O176 Co168 2.286 . S
O176 C187 1.259 . S
O177 Co168 2.069 . S
O177 C187 1.289 . S
O178 Co168 2.015 . S
O178 C188 1.257 . S
O179 Co164 2.111 1_556 S
O179 C189 1.274 . S
O180 Co169 1.976 . S
O180 C189 1.251 . S
O181 Co168 2.264 . S
O181 Co169 2.327 . S
O181 C190 1.257 . S
O182 Co169 2.073 . S
O182 C190 1.245 . S
C183 O191 1.259 . S
C183 O192 1.289 . S
C184 O193 1.246 . S
C184 O194 1.257 . S
C185 O173 1.251 . S
C185 O174 1.274 . S
C186 O171 1.245 . S
C186 O172 1.257 . S
C187 O176 1.259 . S
C187 O177 1.289 . S
C188 O175 1.246 . S
C188 O178 1.257 . S
C189 O179 1.274 . S
C189 O180 1.251 . S
C190 O181 1.257 . S
C190 O182 1.245 . S
O191 Co162 2.286 . S
O191 C183 1.259 . S
O192 Co162 2.069 . S
O192 C183 1.289 . S
O193 Co164 2.143 . S
O193 C184 1.246 . S
O194 Co162 2.015 . S
O194 C184 1.257 . S
H195 C201 0.930 . S
H196 C205 0.930 . S
H197 C210 0.929 . S
H198 C208 0.929 . S
H199 C203 0.929 . S
H200 C209 0.929 . S
C201 H195 0.930 . S
C201 C202 1.367 . S
C201 C209 1.378 . S
C202 C201 1.367 . S
C202 C210 1.433 . S
C203 H199 0.929 . S
C203 C205 1.378 . S
C203 C207 1.350 . S
C204 C207 1.463 . S
C204 C209 1.350 . S
C204 N212 1.427 . S
C205 H196 0.930 . S
C205 C203 1.378 . S
C205 C206 1.367 . S
C206 C205 1.367 . S
C206 C208 1.433 . S
C207 C203 1.350 . S
C207 C204 1.463 . S
C207 N211 1.427 . S
C208 H198 0.929 . S
C208 C206 1.433 . S
C208 N211 1.384 . S
C209 H200 0.929 . S
C209 C201 1.378 . S
C209 C204 1.350 . S
C210 H197 0.929 . S
C210 C202 1.433 . S
C210 N212 1.384 . S
N211 C207 1.427 . S
N211 C208 1.384 . S
N212 C204 1.427 . S
N212 C210 1.384 . S
H213 C219 0.930 . S
H214 C223 0.930 . S
H215 C228 0.929 . S
H216 C226 0.929 . S
H217 C221 0.929 . S
H218 C227 0.929 . S
C219 H213 0.930 . S
C219 C220 1.367 . S
C219 C227 1.378 . S
C220 C219 1.367 . S
C220 C228 1.433 . S
C221 H217 0.929 . S
C221 C223 1.378 . S
C221 C225 1.350 . S
C222 C225 1.463 . S
C222 C227 1.350 . S
C222 N230 1.427 . S
C223 H214 0.930 . S
C223 C221 1.378 . S
C223 C224 1.367 . S
C224 C223 1.367 . S
C224 C226 1.433 . S
C225 C221 1.350 . S
C225 C222 1.463 . S
C225 N229 1.427 . S
C226 H216 0.929 . S
C226 C224 1.433 . S
C226 N229 1.384 . S
C227 H218 0.929 . S
C227 C219 1.378 . S
C227 C222 1.350 . S
C228 H215 0.929 . S
C228 C220 1.433 . S
C228 N230 1.384 . S
N229 C225 1.427 . S
N229 C226 1.384 . S
N230 C222 1.427 . S
N230 C228 1.384 . S
H231 C237 0.930 . S
H232 C241 0.930 . S
H233 C246 0.929 . S
H234 C244 0.929 . S
H235 C239 0.929 . S
H236 C245 0.929 . S
C237 H231 0.930 . S
C237 C238 1.367 . S
C237 C245 1.378 . S
C238 C237 1.367 . S
C238 C246 1.433 . S
C239 H235 0.929 . S
C239 C241 1.378 . S
C239 C243 1.350 . S
C240 C243 1.463 . S
C240 C245 1.350 . S
C240 N248 1.427 . S
C241 H232 0.930 . S
C241 C239 1.378 . S
C241 C242 1.367 . S
C242 C241 1.367 . S
C242 C244 1.433 . S
C243 C239 1.350 . S
C243 C240 1.463 . S
C243 N247 1.427 . S
C244 H234 0.929 . S
C244 C242 1.433 . S
C244 N247 1.384 . S
C245 H236 0.929 . S
C245 C237 1.378 . S
C245 C240 1.350 . S
C246 H233 0.929 . S
C246 C238 1.433 . S
C246 N248 1.384 . S
N247 C243 1.427 . S
N247 C244 1.384 . S
N248 C240 1.427 . S
N248 C246 1.384 . S
H249 C255 0.930 . S
H250 C259 0.930 . S
H251 C264 0.929 . S
H252 C262 0.929 . S
H253 C257 0.929 . S
H254 C263 0.929 . S
C255 H249 0.930 . S
C255 C256 1.367 . S
C255 C263 1.378 . S
C256 C255 1.367 . S
C256 C264 1.433 . S
C257 H253 0.929 . S
C257 C259 1.378 . S
C257 C261 1.350 . S
C258 C261 1.463 . S
C258 C263 1.350 . S
C258 N266 1.427 . S
C259 H250 0.930 . S
C259 C257 1.378 . S
C259 C260 1.367 . S
C260 C259 1.367 . S
C260 C262 1.433 . S
C261 C257 1.350 . S
C261 C258 1.463 . S
C261 N265 1.427 . S
C262 H252 0.929 . S
C262 C260 1.433 . S
C262 N265 1.384 . S
C263 H254 0.929 . S
C263 C255 1.378 . S
C263 C258 1.350 . S
C264 H251 0.929 . S
C264 C256 1.433 . S
C264 N266 1.384 . S
N265 C261 1.427 . S
N265 C262 1.384 . S
N266 C258 1.427 . S
N266 C264 1.384 . S
H267 C273 0.930 . S
H268 C277 0.930 . S
H269 C282 0.929 . S
H270 C280 0.929 . S
H271 C275 0.929 . S
H272 C281 0.929 . S
C273 H267 0.930 . S
C273 C274 1.367 . S
C273 C281 1.378 . S
C274 C273 1.367 . S
C274 C282 1.433 . S
C275 H271 0.929 . S
C275 C277 1.378 . S
C275 C279 1.350 . S
C276 C279 1.463 . S
C276 C281 1.350 . S
C276 N284 1.427 . S
C277 H268 0.930 . S
C277 C275 1.378 . S
C277 C278 1.367 . S
C278 C277 1.367 . S
C278 C280 1.433 . S
C279 C275 1.350 . S
C279 C276 1.463 . S
C279 N283 1.427 . S
C280 H270 0.929 . S
C280 C278 1.433 . S
C280 N283 1.384 . S
C281 H272 0.929 . S
C281 C273 1.378 . S
C281 C276 1.350 . S
C282 H269 0.929 . S
C282 C274 1.433 . S
C282 N284 1.384 . S
N283 C279 1.427 . S
N283 C280 1.384 . S
N284 C276 1.427 . S
N284 C282 1.384 . S
H285 C291 0.930 . S
H286 C295 0.930 . S
H287 C300 0.929 . S
H288 C298 0.929 . S
H289 C293 0.929 . S
H290 C299 0.929 . S
C291 H285 0.930 . S
C291 C292 1.367 . S
C291 C299 1.378 . S
C292 C291 1.367 . S
C292 C300 1.433 . S
C293 H289 0.929 . S
C293 C295 1.378 . S
C293 C297 1.350 . S
C294 C297 1.463 . S
C294 C299 1.350 . S
C294 N302 1.427 . S
C295 H286 0.930 . S
C295 C293 1.378 . S
C295 C296 1.367 . S
C296 C295 1.367 . S
C296 C298 1.433 . S
C297 C293 1.350 . S
C297 C294 1.463 . S
C297 N301 1.427 . S
C298 H288 0.929 . S
C298 C296 1.433 . S
C298 N301 1.384 . S
C299 H290 0.929 . S
C299 C291 1.378 . S
C299 C294 1.350 . S
C300 H287 0.929 . S
C300 C292 1.433 . S
C300 N302 1.384 . S
N301 C297 1.427 . S
N301 C298 1.384 . S
N302 C294 1.427 . S
N302 C300 1.384 . S
H303 C309 0.930 . S
H304 C313 0.930 . S
H305 C318 0.929 . S
H306 C316 0.929 . S
H307 C311 0.929 . S
H308 C317 0.929 . S
C309 H303 0.930 . S
C309 C310 1.367 . S
C309 C317 1.378 . S
C310 C309 1.367 . S
C310 C318 1.433 . S
C311 H307 0.929 . S
C311 C313 1.378 . S
C311 C315 1.350 . S
C312 C315 1.463 . S
C312 C317 1.350 . S
C312 N320 1.427 . S
C313 H304 0.930 . S
C313 C311 1.378 . S
C313 C314 1.367 . S
C314 C313 1.367 . S
C314 C316 1.433 . S
C315 C311 1.350 . S
C315 C312 1.463 . S
C315 N319 1.427 . S
C316 H306 0.929 . S
C316 C314 1.433 . S
C316 N319 1.384 . S
C317 H308 0.929 . S
C317 C309 1.378 . S
C317 C312 1.350 . S
C318 H305 0.929 . S
C318 C310 1.433 . S
C318 N320 1.384 . S
N319 C315 1.427 . S
N319 C316 1.384 . S
N320 C312 1.427 . S
N320 C318 1.384 . S
H321 C327 0.930 . S
H322 C331 0.930 . S
H323 C336 0.929 . S
H324 C334 0.929 . S
H325 C329 0.929 . S
H326 C335 0.929 . S
C327 H321 0.930 . S
C327 C328 1.367 . S
C327 C335 1.378 . S
C328 C327 1.367 . S
C328 C336 1.433 . S
C329 H325 0.929 . S
C329 C331 1.378 . S
C329 C333 1.350 . S
C330 C333 1.463 . S
C330 C335 1.350 . S
C330 N338 1.427 . S
C331 H322 0.930 . S
C331 C329 1.378 . S
C331 C332 1.367 . S
C332 C331 1.367 . S
C332 C334 1.433 . S
C333 C329 1.350 . S
C333 C330 1.463 . S
C333 N337 1.427 . S
C334 H324 0.929 . S
C334 C332 1.433 . S
C334 N337 1.384 . S
C335 H326 0.929 . S
C335 C327 1.378 . S
C335 C330 1.350 . S
C336 H323 0.929 . S
C336 C328 1.433 . S
C336 N338 1.384 . S
N337 C333 1.427 . S
N337 C334 1.384 . S
N338 C330 1.427 . S
N338 C336 1.384 . S
H339 C345 0.930 . S
H340 C349 0.930 . S
H341 C354 0.929 . S
H342 C352 0.929 . S
H343 C347 0.929 . S
H344 C353 0.929 . S
C345 H339 0.930 . S
C345 C346 1.367 . S
C345 C353 1.378 . S
C346 C345 1.367 . S
C346 C354 1.433 . S
C347 H343 0.929 . S
C347 C349 1.378 . S
C347 C351 1.350 . S
C348 C351 1.463 . S
C348 C353 1.350 . S
C348 N356 1.427 . S
C349 H340 0.930 . S
C349 C347 1.378 . S
C349 C350 1.367 . S
C350 C349 1.367 . S
C350 C352 1.433 . S
C351 C347 1.350 . S
C351 C348 1.463 . S
C351 N355 1.427 . S
C352 H342 0.929 . S
C352 C350 1.433 . S
C352 N355 1.384 . S
C353 H344 0.929 . S
C353 C345 1.378 . S
C353 C348 1.350 . S
C354 H341 0.929 . S
C354 C346 1.433 . S
C354 N356 1.384 . S
N355 C351 1.427 . S
N355 C352 1.384 . S
N356 C348 1.427 . S
N356 C354 1.384 . S
H357 C363 0.930 . S
H358 C367 0.930 . S
H359 C372 0.929 . S
H360 C370 0.929 . S
H361 C365 0.929 . S
H362 C371 0.929 . S
C363 H357 0.930 . S
C363 C364 1.367 . S
C363 C371 1.378 . S
C364 C363 1.367 . S
C364 C372 1.433 . S
C365 H361 0.929 . S
C365 C367 1.378 . S
C365 C369 1.350 . S
C366 C369 1.463 . S
C366 C371 1.350 . S
C366 N374 1.427 . S
C367 H358 0.930 . S
C367 C365 1.378 . S
C367 C368 1.367 . S
C368 C367 1.367 . S
C368 C370 1.433 . S
C369 C365 1.350 . S
C369 C366 1.463 . S
C369 N373 1.427 . S
C370 H360 0.929 . S
C370 C368 1.433 . S
C370 N373 1.384 . S
C371 H362 0.929 . S
C371 C363 1.378 . S
C371 C366 1.350 . S
C372 H359 0.929 . S
C372 C364 1.433 . S
C372 N374 1.384 . S
N373 C369 1.427 . S
N373 C370 1.384 . S
N374 C366 1.427 . S
N374 C372 1.384 . S
H375 C381 0.930 . S
H376 C385 0.930 . S
H377 C390 0.929 . S
H378 C388 0.929 . S
H379 C383 0.929 . S
H380 C389 0.929 . S
C381 H375 0.930 . S
C381 C382 1.367 . S
C381 C389 1.378 . S
C382 C381 1.367 . S
C382 C390 1.433 . S
C383 H379 0.929 . S
C383 C385 1.378 . S
C383 C387 1.350 . S
C384 C387 1.463 . S
C384 C389 1.350 . S
C384 N392 1.427 . S
C385 H376 0.930 . S
C385 C383 1.378 . S
C385 C386 1.367 . S
C386 C385 1.367 . S
C386 C388 1.433 . S
C387 C383 1.350 . S
C387 C384 1.463 . S
C387 N391 1.427 . S
C388 H378 0.929 . S
C388 C386 1.433 . S
C388 N391 1.384 . S
C389 H380 0.929 . S
C389 C381 1.378 . S
C389 C384 1.350 . S
C390 H377 0.929 . S
C390 C382 1.433 . S
C390 N392 1.384 . S
N391 C387 1.427 . S
N391 C388 1.384 . S
N392 C384 1.427 . S
N392 C390 1.384 . S
H393 C399 0.930 . S
H394 C403 0.930 . S
H395 C408 0.929 . S
H396 C406 0.929 . S
H397 C401 0.929 . S
H398 C407 0.929 . S
C399 H393 0.930 . S
C399 C400 1.367 . S
C399 C407 1.378 . S
C400 C399 1.367 . S
C400 C408 1.433 . S
C401 H397 0.929 . S
C401 C403 1.378 . S
C401 C405 1.350 . S
C402 C405 1.463 . S
C402 C407 1.350 . S
C402 N410 1.427 . S
C403 H394 0.930 . S
C403 C401 1.378 . S
C403 C404 1.367 . S
C404 C403 1.367 . S
C404 C406 1.433 . S
C405 C401 1.350 . S
C405 C402 1.463 . S
C405 N409 1.427 . S
C406 H396 0.929 . S
C406 C404 1.433 . S
C406 N409 1.384 . S
C407 H398 0.929 . S
C407 C399 1.378 . S
C407 C402 1.350 . S
C408 H395 0.929 . S
C408 C400 1.433 . S
C408 N410 1.384 . S
N409 C405 1.427 . S
N409 C406 1.384 . S
N410 C402 1.427 . S
N410 C408 1.384 . S
H411 C417 0.930 . S
H412 C421 0.930 . S
H413 C426 0.929 . S
H414 C424 0.929 . S
H415 C419 0.929 . S
H416 C425 0.929 . S
C417 H411 0.930 . S
C417 C418 1.367 . S
C417 C425 1.378 . S
C418 C417 1.367 . S
C418 C426 1.433 . S
C419 H415 0.929 . S
C419 C421 1.378 . S
C419 C423 1.350 . S
C420 C423 1.463 . S
C420 C425 1.350 . S
C420 N428 1.427 . S
C421 H412 0.930 . S
C421 C419 1.378 . S
C421 C422 1.367 . S
C422 C421 1.367 . S
C422 C424 1.433 . S
C423 C419 1.350 . S
C423 C420 1.463 . S
C423 N427 1.427 . S
C424 H414 0.929 . S
C424 C422 1.433 . S
C424 N427 1.384 . S
C425 H416 0.929 . S
C425 C417 1.378 . S
C425 C420 1.350 . S
C426 H413 0.929 . S
C426 C418 1.433 . S
C426 N428 1.384 . S
N427 C423 1.427 . S
N427 C424 1.384 . S
N428 C420 1.427 . S
N428 C426 1.384 . S
H429 C435 0.930 . S
H430 C439 0.930 . S
H431 C444 0.929 . S
H432 C442 0.929 . S
H433 C437 0.929 . S
H434 C443 0.929 . S
C435 H429 0.930 . S
C435 C436 1.367 . S
C435 C443 1.378 . S
C436 C435 1.367 . S
C436 C444 1.433 . S
C437 H433 0.929 . S
C437 C439 1.378 . S
C437 C441 1.350 . S
C438 C441 1.463 . S
C438 C443 1.350 . S
C438 N446 1.427 . S
C439 H430 0.930 . S
C439 C437 1.378 . S
C439 C440 1.367 . S
C440 C439 1.367 . S
C440 C442 1.433 . S
C441 C437 1.350 . S
C441 C438 1.463 . S
C441 N445 1.427 . S
C442 H432 0.929 . S
C442 C440 1.433 . S
C442 N445 1.384 . S
C443 H434 0.929 . S
C443 C435 1.378 . S
C443 C438 1.350 . S
C444 H431 0.929 . S
C444 C436 1.433 . S
C444 N446 1.384 . S
N445 C441 1.427 . S
N445 C442 1.384 . S
N446 C438 1.427 . S
N446 C444 1.384 . S
H447 C453 0.930 . S
H448 C457 0.930 . S
H449 C462 0.929 . S
H450 C460 0.929 . S
H451 C455 0.929 . S
H452 C461 0.929 . S
C453 H447 0.930 . S
C453 C454 1.367 . S
C453 C461 1.378 . S
C454 C453 1.367 . S
C454 C462 1.433 . S
C455 H451 0.929 . S
C455 C457 1.378 . S
C455 C459 1.350 . S
C456 C459 1.463 . S
C456 C461 1.350 . S
C456 N464 1.427 . S
C457 H448 0.930 . S
C457 C455 1.378 . S
C457 C458 1.367 . S
C458 C457 1.367 . S
C458 C460 1.433 . S
C459 C455 1.350 . S
C459 C456 1.463 . S
C459 N463 1.427 . S
C460 H450 0.929 . S
C460 C458 1.433 . S
C460 N463 1.384 . S
C461 H452 0.929 . S
C461 C453 1.378 . S
C461 C456 1.350 . S
C462 H449 0.929 . S
C462 C454 1.433 . S
C462 N464 1.384 . S
N463 C459 1.427 . S
N463 C460 1.384 . S
N464 C456 1.427 . S
N464 C462 1.384 . S
H465 C471 0.930 . S
H466 C475 0.930 . S
H467 C480 0.929 . S
H468 C478 0.929 . S
H469 C473 0.929 . S
H470 C479 0.929 . S
C471 H465 0.930 . S
C471 C472 1.367 . S
C471 C479 1.378 . S
C472 C471 1.367 . S
C472 C480 1.433 . S
C473 H469 0.929 . S
C473 C475 1.378 . S
C473 C477 1.350 . S
C474 C477 1.463 . S
C474 C479 1.350 . S
C474 N482 1.427 . S
C475 H466 0.930 . S
C475 C473 1.378 . S
C475 C476 1.367 . S
C476 C475 1.367 . S
C476 C478 1.433 . S
C477 C473 1.350 . S
C477 C474 1.463 . S
C477 N481 1.427 . S
C478 H468 0.929 . S
C478 C476 1.433 . S
C478 N481 1.384 . S
C479 H470 0.929 . S
C479 C471 1.378 . S
C479 C474 1.350 . S
C480 H467 0.929 . S
C480 C472 1.433 . S
C480 N482 1.384 . S
N481 C477 1.427 . S
N481 C478 1.384 . S
N482 C474 1.427 . S
N482 C480 1.384 . S
H483 C489 0.930 . S
H484 C493 0.930 . S
H485 C498 0.929 . S
H486 C496 0.929 . S
H487 C491 0.929 . S
H488 C497 0.929 . S
C489 H483 0.930 . S
C489 C490 1.367 . S
C489 C497 1.378 . S
C490 C489 1.367 . S
C490 C498 1.433 . S
C491 H487 0.929 . S
C491 C493 1.378 . S
C491 C495 1.350 . S
C492 C495 1.463 . S
C492 C497 1.350 . S
C492 N500 1.427 . S
C493 H484 0.930 . S
C493 C491 1.378 . S
C493 C494 1.367 . S
C494 C493 1.367 . S
C494 C496 1.433 . S
C495 C491 1.350 . S
C495 C492 1.463 . S
C495 N499 1.427 . S
C496 H486 0.929 . S
C496 C494 1.433 . S
C496 N499 1.384 . S
C497 H488 0.929 . S
C497 C489 1.378 . S
C497 C492 1.350 . S
C498 H485 0.929 . S
C498 C490 1.433 . S
C498 N500 1.384 . S
N499 C495 1.427 . S
N499 C496 1.384 . S
N500 C492 1.427 . S
N500 C498 1.384 . S
H501 C507 0.930 . S
H502 C511 0.930 . S
H503 C516 0.929 . S
H504 C514 0.929 . S
H505 C509 0.929 . S
H506 C515 0.929 . S
C507 H501 0.930 . S
C507 C508 1.367 . S
C507 C515 1.378 . S
C508 C507 1.367 . S
C508 C516 1.433 . S
C509 H505 0.929 . S
C509 C511 1.378 . S
C509 C513 1.350 . S
C510 C513 1.463 . S
C510 C515 1.350 . S
C510 N518 1.427 . S
C511 H502 0.930 . S
C511 C509 1.378 . S
C511 C512 1.367 . S
C512 C511 1.367 . S
C512 C514 1.433 . S
C513 C509 1.350 . S
C513 C510 1.463 . S
C513 N517 1.427 . S
C514 H504 0.929 . S
C514 C512 1.433 . S
C514 N517 1.384 . S
C515 H506 0.929 . S
C515 C507 1.378 . S
C515 C510 1.350 . S
C516 H503 0.929 . S
C516 C508 1.433 . S
C516 N518 1.384 . S
N517 C513 1.427 . S
N517 C514 1.384 . S
N518 C510 1.427 . S
N518 C516 1.384 . S
H519 C525 0.930 . S
H520 C529 0.930 . S
H521 C534 0.929 . S
H522 C532 0.929 . S
H523 C527 0.929 . S
H524 C533 0.929 . S
C525 H519 0.930 . S
C525 C526 1.367 . S
C525 C533 1.378 . S
C526 C525 1.367 . S
C526 C534 1.433 . S
C527 H523 0.929 . S
C527 C529 1.378 . S
C527 C531 1.350 . S
C528 C531 1.463 . S
C528 C533 1.350 . S
C528 N536 1.427 . S
C529 H520 0.930 . S
C529 C527 1.378 . S
C529 C530 1.367 . S
C530 C529 1.367 . S
C530 C532 1.433 . S
C531 C527 1.350 . S
C531 C528 1.463 . S
C531 N535 1.427 . S
C532 H522 0.929 . S
C532 C530 1.433 . S
C532 N535 1.384 . S
C533 H524 0.929 . S
C533 C525 1.378 . S
C533 C528 1.350 . S
C534 H521 0.929 . S
C534 C526 1.433 . S
C534 N536 1.384 . S
N535 C531 1.427 . S
N535 C532 1.384 . S
N536 C528 1.427 . S
N536 C534 1.384 . S
H537 C543 0.930 . S
H538 C547 0.930 . S
H539 C552 0.929 . S
H540 C550 0.929 . S
H541 C545 0.929 . S
H542 C551 0.929 . S
C543 H537 0.930 . S
C543 C544 1.367 . S
C543 C551 1.378 . S
C544 C543 1.367 . S
C544 C552 1.433 . S
C545 H541 0.929 . S
C545 C547 1.378 . S
C545 C549 1.350 . S
C546 C549 1.463 . S
C546 C551 1.350 . S
C546 N554 1.427 . S
C547 H538 0.930 . S
C547 C545 1.378 . S
C547 C548 1.367 . S
C548 C547 1.367 . S
C548 C550 1.433 . S
C549 C545 1.350 . S
C549 C546 1.463 . S
C549 N553 1.427 . S
C550 H540 0.929 . S
C550 C548 1.433 . S
C550 N553 1.384 . S
C551 H542 0.929 . S
C551 C543 1.378 . S
C551 C546 1.350 . S
C552 H539 0.929 . S
C552 C544 1.433 . S
C552 N554 1.384 . S
N553 C549 1.427 . S
N553 C550 1.384 . S
N554 C546 1.427 . S
N554 C552 1.384 . S
H555 C561 0.930 . S
H556 C565 0.930 . S
H557 C570 0.929 . S
H558 C568 0.929 . S
H559 C563 0.929 . S
H560 C569 0.929 . S
C561 H555 0.930 . S
C561 C562 1.367 . S
C561 C569 1.378 . S
C562 C561 1.367 . S
C562 C570 1.433 . S
C563 H559 0.929 . S
C563 C565 1.378 . S
C563 C567 1.350 . S
C564 C567 1.463 . S
C564 C569 1.350 . S
C564 N572 1.427 . S
C565 H556 0.930 . S
C565 C563 1.378 . S
C565 C566 1.367 . S
C566 C565 1.367 . S
C566 C568 1.433 . S
C567 C563 1.350 . S
C567 C564 1.463 . S
C567 N571 1.427 . S
C568 H558 0.929 . S
C568 C566 1.433 . S
C568 N571 1.384 . S
C569 H560 0.929 . S
C569 C561 1.378 . S
C569 C564 1.350 . S
C570 H557 0.929 . S
C570 C562 1.433 . S
C570 N572 1.384 . S
N571 C567 1.427 . S
N571 C568 1.384 . S
N572 C564 1.427 . S
N572 C570 1.384 . S
H573 C579 0.930 . S
H574 C583 0.930 . S
H575 C588 0.929 . S
H576 C586 0.929 . S
H577 C581 0.929 . S
H578 C587 0.929 . S
C579 H573 0.930 . S
C579 C580 1.367 . S
C579 C587 1.378 . S
C580 C579 1.367 . S
C580 C588 1.433 . S
C581 H577 0.929 . S
C581 C583 1.378 . S
C581 C585 1.350 . S
C582 C585 1.463 . S
C582 C587 1.350 . S
C582 N590 1.427 . S
C583 H574 0.930 . S
C583 C581 1.378 . S
C583 C584 1.367 . S
C584 C583 1.367 . S
C584 C586 1.433 . S
C585 C581 1.350 . S
C585 C582 1.463 . S
C585 N589 1.427 . S
C586 H576 0.929 . S
C586 C584 1.433 . S
C586 N589 1.384 . S
C587 H578 0.929 . S
C587 C579 1.378 . S
C587 C582 1.350 . S
C588 H575 0.929 . S
C588 C580 1.433 . S
C588 N590 1.384 . S
N589 C585 1.427 . S
N589 C586 1.384 . S
N590 C582 1.427 . S
N590 C588 1.384 . S
H591 C597 0.930 . S
H592 C601 0.930 . S
H593 C606 0.929 . S
H594 C604 0.929 . S
H595 C599 0.929 . S
H596 C605 0.929 . S
C597 H591 0.930 . S
C597 C598 1.367 . S
C597 C605 1.378 . S
C598 C597 1.367 . S
C598 C606 1.433 . S
C599 H595 0.929 . S
C599 C601 1.378 . S
C599 C603 1.350 . S
C600 C603 1.463 . S
C600 C605 1.350 . S
C600 N608 1.427 . S
C601 H592 0.930 . S
C601 C599 1.378 . S
C601 C602 1.367 . S
C602 C601 1.367 . S
C602 C604 1.433 . S
C603 C599 1.350 . S
C603 C600 1.463 . S
C603 N607 1.427 . S
C604 H594 0.929 . S
C604 C602 1.433 . S
C604 N607 1.384 . S
C605 H596 0.929 . S
C605 C597 1.378 . S
C605 C600 1.350 . S
C606 H593 0.929 . S
C606 C598 1.433 . S
C606 N608 1.384 . S
N607 C603 1.427 . S
N607 C604 1.384 . S
N608 C600 1.427 . S
N608 C606 1.384 . S
H609 C615 0.930 . S
H610 C619 0.930 . S
H611 C624 0.929 . S
H612 C622 0.929 . S
H613 C617 0.929 . S
H614 C623 0.929 . S
C615 H609 0.930 . S
C615 C616 1.367 . S
C615 C623 1.378 . S
C616 C615 1.367 . S
C616 C624 1.433 . S
C617 H613 0.929 . S
C617 C619 1.378 . S
C617 C621 1.350 . S
C618 C621 1.463 . S
C618 C623 1.350 . S
C618 N626 1.427 . S
C619 H610 0.930 . S
C619 C617 1.378 . S
C619 C620 1.367 . S
C620 C619 1.367 . S
C620 C622 1.433 . S
C621 C617 1.350 . S
C621 C618 1.463 . S
C621 N625 1.427 . S
C622 H612 0.929 . S
C622 C620 1.433 . S
C622 N625 1.384 . S
C623 H614 0.929 . S
C623 C615 1.378 . S
C623 C618 1.350 . S
C624 H611 0.929 . S
C624 C616 1.433 . S
C624 N626 1.384 . S
N625 C621 1.427 . S
N625 C622 1.384 . S
N626 C618 1.427 . S
N626 C624 1.384 . S
C206 C120 1.462 . S
C202 C6 1.540 . S
C224 C156 1.754 . S
C220 C21 1.863 . S
C242 C121 1.369 . S
C238 C28 1.387 . S
C260 C151 1.085 . S
C256 C45 1.119 . S
C278 C118 1.531 . S
C274 C54 1.609 . S
C292 C69 1.999 . S
C296 C154 2.003 . S
C310 C81 0.635 . S
C314 C123 0.662 . S
C332 C153 1.460 . S
C328 C88 1.502 . S
C350 C157 1.404 . S
C346 C4 1.404 . S
C368 C122 1.546 . S
C364 C18 1.589 . S
C386 C150 1.893 . S
C382 C33 1.876 . S
C404 C119 0.645 . S
C400 C42 0.615 . S
C422 C152 1.823 . S
C418 C57 1.940 . S
C436 C64 1.434 . S
C440 C117 1.423 . S
C454 C78 1.078 . S
C458 C155 1.062 . S
C476 C124 1.445 . S
C472 C93 1.526 . S
C494 C186 1.927 . S
C490 C9 2.030 . S
C508 C52 1.991 . S
C512 C189 1.869 . S
C530 C188 1.923 . S
C526 C66 1.999 . S
C544 C76 1.301 . S
C548 C187 1.288 . S
C566 C190 1.822 . S
C562 C90 1.921 . S
C580 C30 1.921 . S
C584 C184 1.857 . S
C602 C183 1.281 . S
C598 C40 1.305 . S
C616 C16 1.940 . S
C620 C185 1.815 . S
