# Generated by pormake.
# Topology pyr, (3,6)-cn, num edge types: 1
# Building blocks:
#     Node 0, Type 0, BuildingBlock: QEWDON_clean_linker_0, # of connection points: 3
#     Node 1, Type 0, BuildingBlock: QEWDON_clean_linker_0, # of connection points: 3
#     Node 2, Type 0, BuildingBlock: QEWDON_clean_linker_0, # of connection points: 3
#     Node 3, Type 0, BuildingBlock: QEWDON_clean_linker_0, # of connection points: 3
#     Node 4, Type 0, BuildingBlock: QEWDON_clean_linker_0, # of connection points: 3
#     Node 5, Type 0, BuildingBlock: QEWDON_clean_linker_0, # of connection points: 3
#     Node 6, Type 0, BuildingBlock: QEWDON_clean_linker_0, # of connection points: 3
#     Node 7, Type 0, BuildingBlock: QEWDON_clean_linker_0, # of connection points: 3
#     Node 8, Type 1, BuildingBlock: JUFBIX_clean_sbu_0, # of connection points: 6
#     Node 9, Type 1, BuildingBlock: JUFBIX_clean_sbu_0, # of connection points: 6
#     Node 10, Type 1, BuildingBlock: JUFBIX_clean_sbu_0, # of connection points: 6
#     Node 11, Type 1, BuildingBlock: JUFBIX_clean_sbu_0, # of connection points: 6
#     Edge 12, Type (0, 1), BuildingBlock: OJICUG_clean_linker_0, # of connection points: 2
#     Edge 13, Type (0, 1), BuildingBlock: OJICUG_clean_linker_0, # of connection points: 2
#     Edge 14, Type (0, 1), BuildingBlock: OJICUG_clean_linker_0, # of connection points: 2
#     Edge 15, Type (0, 1), BuildingBlock: OJICUG_clean_linker_0, # of connection points: 2
#     Edge 16, Type (0, 1), BuildingBlock: OJICUG_clean_linker_0, # of connection points: 2
#     Edge 17, Type (0, 1), BuildingBlock: OJICUG_clean_linker_0, # of connection points: 2
#     Edge 18, Type (0, 1), BuildingBlock: OJICUG_clean_linker_0, # of connection points: 2
#     Edge 19, Type (0, 1), BuildingBlock: OJICUG_clean_linker_0, # of connection points: 2
#     Edge 20, Type (0, 1), BuildingBlock: OJICUG_clean_linker_0, # of connection points: 2
#     Edge 21, Type (0, 1), BuildingBlock: OJICUG_clean_linker_0, # of connection points: 2
#     Edge 22, Type (0, 1), BuildingBlock: OJICUG_clean_linker_0, # of connection points: 2
#     Edge 23, Type (0, 1), BuildingBlock: OJICUG_clean_linker_0, # of connection points: 2
#     Edge 24, Type (0, 1), BuildingBlock: OJICUG_clean_linker_0, # of connection points: 2
#     Edge 25, Type (0, 1), BuildingBlock: OJICUG_clean_linker_0, # of connection points: 2
#     Edge 26, Type (0, 1), BuildingBlock: OJICUG_clean_linker_0, # of connection points: 2
#     Edge 27, Type (0, 1), BuildingBlock: OJICUG_clean_linker_0, # of connection points: 2
#     Edge 28, Type (0, 1), BuildingBlock: OJICUG_clean_linker_0, # of connection points: 2
#     Edge 29, Type (0, 1), BuildingBlock: OJICUG_clean_linker_0, # of connection points: 2
#     Edge 30, Type (0, 1), BuildingBlock: OJICUG_clean_linker_0, # of connection points: 2
#     Edge 31, Type (0, 1), BuildingBlock: OJICUG_clean_linker_0, # of connection points: 2
#     Edge 32, Type (0, 1), BuildingBlock: OJICUG_clean_linker_0, # of connection points: 2
#     Edge 33, Type (0, 1), BuildingBlock: OJICUG_clean_linker_0, # of connection points: 2
#     Edge 34, Type (0, 1), BuildingBlock: OJICUG_clean_linker_0, # of connection points: 2
#     Edge 35, Type (0, 1), BuildingBlock: OJICUG_clean_linker_0, # of connection points: 2
# Relax obj value: 0.219
# Max RMSD: 0.295
# Mean RMSD: 0.182
data_MOF--net-pry--node1-JUFBIX_clean_sbu_0--node2-QEWDON_clean_linker_0--edge1-OJICUG_clean_linker_0
_symmetry_space_group_name_H-M    P1
_symmetry_Int_Tables_number       1
_symmetry_cell_setting            triclinic
loop_
_symmetry_equiv_pos_as_xyz
'x, y, z'
_cell_length_a     27.306997
_cell_length_b     25.815485
_cell_length_c     28.741518
_cell_angle_alpha  80.828678
_cell_angle_beta   86.839025
_cell_angle_gamma 98.581118
loop_
_atom_site_label
_atom_site_type_symbol
_atom_site_fract_x
_atom_site_fract_y
_atom_site_fract_z
_atom_type_partial_charge
H0 H 0.34018 0.23337 0.18505 0.0
C1 C 0.31603 0.21162 0.21529 0.0
C2 C 0.32378 0.16048 0.23556 0.0
C3 C 0.2792 0.23639 0.2346 0.0
H4 H 0.29939 0.09499 0.29325 0.0
C5 C 0.29346 0.13408 0.27681 0.0
C6 C 0.25484 0.15784 0.29616 0.0
C7 C 0.24823 0.20895 0.27412 0.0
C8 C 0.27827 0.29369 0.21745 0.0
H9 H 0.22098 0.22912 0.28958 0.0
C10 C 0.23522 0.31262 0.20105 0.0
C11 C 0.23655 0.36752 0.1851 0.0
C12 C 0.32181 0.33019 0.21815 0.0
H13 H 0.35513 0.31672 0.23094 0.0
C14 C 0.32276 0.38439 0.20304 0.0
H15 H 0.20147 0.28495 0.19997 0.0
C16 C 0.28049 0.40297 0.18656 0.0
H17 H 0.28217 0.44522 0.17445 0.0
H18 H 0.35647 0.4121 0.20394 0.0
H19 H 0.39048 0.86774 0.88309 0.0
C20 C 0.40917 0.84371 0.86235 0.0
C21 C 0.45951 0.85936 0.84692 0.0
C22 C 0.38132 0.8002 0.84813 0.0
H23 H 0.52178 0.84119 0.80587 0.0
C24 C 0.48293 0.82908 0.81823 0.0
C25 C 0.45508 0.78386 0.80468 0.0
C26 C 0.40431 0.77005 0.82011 0.0
C27 C 0.32727 0.79705 0.84942 0.0
H28 H 0.38136 0.73837 0.80691 0.0
C29 C 0.30913 0.83697 0.82 0.0
C30 C 0.25858 0.83311 0.81345 0.0
C31 C 0.29437 0.75332 0.87419 0.0
H32 H 0.3081 0.72167 0.8966 0.0
C33 C 0.24335 0.75019 0.86922 0.0
H34 H 0.33523 0.86942 0.79931 0.0
C35 C 0.22539 0.78945 0.8384 0.0
H36 H 0.18605 0.78536 0.83346 0.0
H37 H 0.21789 0.7166 0.88822 0.0
H38 H 0.79747 0.50994 0.96931 0.0
C39 C 0.77826 0.46949 0.98018 0.0
C40 C 0.80375 0.43052 1.00242 0.0
C41 C 0.72788 0.45747 0.97311 0.0
H42 H 0.79761 0.34851 1.03573 0.0
C43 C 0.77802 0.37855 1.01805 0.0
C44 C 0.72733 0.36537 1.01006 0.0
C45 C 0.70278 0.4054 0.98725 0.0
C46 C 0.70149 0.50056 0.9528 0.0
H47 H 0.66354 0.39676 0.98221 0.0
C48 C 0.6796 0.49908 0.90986 0.0
C49 C 0.65963 0.54312 0.88819 0.0
C50 C 0.7014 0.54535 0.97488 0.0
H51 H 0.71813 0.54711 1.00803 0.0
C52 C 0.68022 0.5884 0.9541 0.0
H53 H 0.68048 0.46509 0.89218 0.0
C54 C 0.65988 0.58762 0.91072 0.0
H55 H 0.64452 0.62186 0.89455 0.0
H56 H 0.68037 0.62284 0.97123 0.0
H57 H 0.98564 0.77583 0.4096 0.0
C58 C 0.96431 0.75512 0.44184 0.0
C59 C 0.98183 0.7604 0.48642 0.0
C60 C 0.91638 0.72871 0.43879 0.0
H61 H 0.96199 0.74158 0.56217 0.0
C62 C 0.95188 0.73449 0.52754 0.0
C63 C 0.90502 0.70565 0.52406 0.0
C64 C 0.88809 0.70196 0.47949 0.0
C65 C 0.89135 0.73753 0.39505 0.0
H66 H 0.85013 0.68373 0.47655 0.0
C67 C 0.89358 0.70322 0.3626 0.0
C68 C 0.86661 0.70865 0.32238 0.0
C69 C 0.86166 0.7776 0.38777 0.0
H70 H 0.85895 0.80396 0.41328 0.0
C71 C 0.83489 0.78342 0.34769 0.0
H72 H 0.91706 0.67278 0.36846 0.0
C73 C 0.83748 0.74921 0.31484 0.0
H74 H 0.81703 0.75445 0.28364 0.0
H75 H 0.81218 0.81447 0.34208 0.0
H76 H 0.89644 0.83536 0.96008 0.0
C77 C 0.91516 0.85666 0.9268 0.0
C78 C 0.96171 0.84539 0.91104 0.0
C79 C 0.89002 0.89173 0.8983 0.0
H80 H 1.01842 0.86289 0.85251 0.0
C81 C 0.98297 0.87125 0.86539 0.0
C82 C 0.95816 0.90643 0.83551 0.0
C83 C 0.91166 0.91629 0.853 0.0
C84 C 0.8366 0.89269 0.91105 0.0
H85 H 0.89126 0.94224 0.83102 0.0
C86 C 0.81995 0.92408 0.94316 0.0
C87 C 0.76828 0.92307 0.95309 0.0
C88 C 0.80147 0.86007 0.89026 0.0
H89 H 0.8134 0.83557 0.86587 0.0
C90 C 0.75083 0.85836 0.90073 0.0
H91 H 0.84666 0.94981 0.95913 0.0
C92 C 0.73435 0.88963 0.93168 0.0
H93 H 0.69469 0.88812 0.93865 0.0
H94 H 0.72416 0.83295 0.88447 0.0
H95 H 0.75449 0.25405 0.51141 0.0
C96 C 0.74748 0.24626 0.47622 0.0
C97 C 0.78245 0.22444 0.45057 0.0
C98 C 0.70132 0.2527 0.4584 0.0
H99 H 0.79635 0.18997 0.3886 0.0
C100 C 0.77103 0.21002 0.40697 0.0
C101 C 0.72438 0.21372 0.39014 0.0
C102 C 0.69046 0.23704 0.41492 0.0
C103 C 0.65996 0.26292 0.48938 0.0
H104 H 0.65357 0.23796 0.40292 0.0
C105 C 0.66035 0.31165 0.50583 0.0
C106 C 0.61904 0.31981 0.53406 0.0
C107 C 0.61861 0.22257 0.50176 0.0
H108 H 0.61775 0.18474 0.48977 0.0
C109 C 0.57793 0.23049 0.52944 0.0
H110 H 0.69226 0.3428 0.49654 0.0
C111 C 0.57791 0.27869 0.54522 0.0
H112 H 0.54512 0.28397 0.56579 0.0
H113 H 0.5461 0.19927 0.53842 0.0
H114 H 0.44635 0.73005 0.25408 0.0
C115 C 0.41306 0.72187 0.23594 0.0
C116 C 0.40457 0.75782 0.19584 0.0
C117 C 0.38006 0.6741 0.25139 0.0
H118 H 0.35459 0.77269 0.14093 0.0
C119 C 0.3624 0.7451 0.17111 0.0
C120 C 0.32882 0.69795 0.18597 0.0
C121 C 0.33755 0.66312 0.22647 0.0
C122 C 0.39142 0.63353 0.29107 0.0
H123 H 0.31141 0.6268 0.23812 0.0
C124 C 0.41043 0.64726 0.33333 0.0
C125 C 0.41883 0.60707 0.37041 0.0
C126 C 0.38309 0.57958 0.2862 0.0
H127 H 0.37001 0.56761 0.25402 0.0
C128 C 0.39204 0.54024 0.32235 0.0
H129 H 0.41709 0.68847 0.338 0.0
C130 C 0.40941 0.55372 0.36414 0.0
H131 H 0.41592 0.5222 0.3917 0.0
H132 H 0.3854 0.49896 0.31796 0.0
H133 H 0.13677 0.45945 0.68874 0.0
C134 C 0.12903 0.4296 0.6666 0.0
C135 C 0.1698 0.4166 0.64232 0.0
C136 C 0.08063 0.40139 0.66594 0.0
H137 H 0.19559 0.36307 0.60041 0.0
C138 C 0.16329 0.3747 0.61714 0.0
C139 C 0.11662 0.34346 0.61866 0.0
C140 C 0.07492 0.35861 0.64066 0.0
C141 C 0.03951 0.41076 0.69888 0.0
H142 H 0.039 0.33439 0.64097 0.0
C143 C 0.04466 0.45817 0.7177 0.0
C144 C 1.02261 0.45904 0.76262 0.0
C145 C 1.00071 0.36953 0.7192 0.0
H146 H 0.9941 0.33222 0.70635 0.0
C147 C 0.9718 0.37434 0.75952 0.0
H148 H 0.07087 0.49249 0.70068 0.0
C149 C 0.98402 0.41776 0.78243 0.0
H150 H 0.96554 0.41709 0.81687 0.0
H151 H 0.9428 0.34206 0.77541 0.0
Co152 Co 0.05288 0.04512 0.54459 0.0
C153 C 0.07725 0.94807 0.53447 0.0
Co154 Co 0.12415 0.03174 0.57234 0.0
C155 C 0.97526 0.1023 0.50791 0.0
C156 C 0.95085 0.01857 0.52862 0.0
N157 N 0.99192 0.05598 0.52227 0.0
N158 N 0.92542 0.09518 0.50653 0.0
C159 C 0.91002 0.04252 0.51908 0.0
H160 H 0.99856 0.14089 0.50206 0.0
H161 H 0.95011 0.97698 0.54263 0.0
C162 C 0.09955 0.13055 0.57886 0.0
N163 N 0.18216 0.01944 0.59792 0.0
C164 C 0.18471 0.97479 0.62828 0.0
C165 C 0.22445 0.05258 0.60113 0.0
N166 N 0.2258 0.97887 0.65181 0.0
C167 C 0.25142 0.02767 0.63467 0.0
C168 C 0.1359 0.07524 0.47652 0.0
O169 O 0.06064 0.1118 0.56155 0.0
O170 O 0.13332 0.10205 0.58702 0.0
O171 O 0.15844 0.05787 0.5119 0.0
O172 O 0.08896 0.07529 0.48248 0.0
O173 O 0.11466 0.96164 0.55663 0.0
H174 H 0.23314 0.0934 0.58324 0.0
H175 H 0.15428 0.94188 0.63662 0.0
O176 O 0.04556 0.97886 0.52669 0.0
O177 O 1.01815 0.0141 0.60736 0.0
O178 O 0.09022 0.00537 0.63348 0.0
C179 C 0.04356 -0.00014 0.64174 0.0
H180 H 0.87172 0.023 0.52283 0.0
H181 H 0.2856 0.04518 0.64732 0.0
Co182 Co 0.55094 0.06178 0.07139 0.0
C183 C 0.52709 0.96359 0.1329 0.0
Co184 Co 0.58855 0.05644 0.13726 0.0
C185 C 0.52383 0.01827 0.99101 0.0
C186 C 0.50648 0.09706 0.98358 0.0
N187 N 0.52287 0.0596 1.0143 0.0
N188 N 0.50965 0.02817 0.94676 0.0
C189 C 0.49797 0.07767 0.94204 0.0
H190 H 0.536 0.98173 1.00619 0.0
H191 H 0.50299 0.13651 0.99014 0.0
C192 C 0.61323 0.15466 0.07574 0.0
N193 N 0.61966 0.05642 0.1924 0.0
C194 C 0.62686 0.0958 0.21819 0.0
C195 C 0.64383 0.01842 0.21337 0.0
N196 N 0.65511 0.08423 0.25443 0.0
C197 C 0.66569 0.03534 0.25135 0.0
C198 C 0.64393 0.02635 0.06505 0.0
O199 O 0.58189 0.13361 0.0503 0.0
O200 O 0.62105 0.12786 0.11495 0.0
O201 O 0.64453 0.02984 0.10868 0.0
O202 O 0.60696 0.0388 1.0437 0.0
O203 O 0.55634 0.98562 0.15935 0.0
H204 H 0.64657 0.98144 0.201 0.0
H205 H 0.6121 0.13248 0.20983 0.0
O206 O 0.52032 0.98963 0.09304 0.0
O207 O 0.49429 0.08533 0.09964 0.0
O208 O 0.53191 0.08211 0.16543 0.0
C209 C 0.49399 0.09099 0.14303 0.0
H210 H 0.48561 0.09905 0.91049 0.0
H211 H 0.68888 0.01362 0.27383 0.0
Co212 Co 0.57424 0.61337 0.61327 0.0
C213 C 0.50213 0.61072 0.55071 0.0
Co214 Co 0.50844 0.55699 0.64436 0.0
C215 C 0.67735 0.6461 0.60105 0.0
C216 C 0.63999 0.71077 0.57502 0.0
N217 N 0.63213 0.65848 0.59296 0.0
N218 N 0.7134 0.6885 0.58958 0.0
C219 C 0.6902 0.7294 0.57271 0.0
H220 H 0.68341 0.60683 0.61671 0.0
H221 H 0.61106 0.73399 0.56556 0.0
C222 C 0.58013 0.55996 0.706 0.0
N223 N 0.45121 0.51128 0.66705 0.0
C224 C 0.40498 0.51689 0.65559 0.0
C225 C 0.44595 0.46478 0.69736 0.0
N226 N 0.37117 0.47574 0.67728 0.0
C227 C 0.39647 0.44284 0.70389 0.0
C228 C 0.57485 0.51021 0.59591 0.0
O229 O 0.60259 0.59299 0.67128 0.0
O230 O 0.53649 0.53746 0.70212 0.0
O231 O 0.53341 0.50204 0.62017 0.0
O232 O 0.59946 0.55705 0.58681 0.0
O233 O 0.48019 0.57687 0.58548 0.0
H234 H 0.4762 0.44736 0.71284 0.0
H235 H 0.39616 0.55026 0.63145 0.0
O236 O 0.5457 0.6342 0.55484 0.0
O237 O 0.54972 0.66861 0.64078 0.0
O238 O 0.48379 0.61132 0.67035 0.0
C239 C 0.50938 0.6572 0.66714 0.0
H240 H 0.70819 0.76966 0.5591 0.0
H241 H 0.38057 0.40479 0.72486 0.0
Co242 Co 0.09495 0.58465 1.02925 0.0
C243 C 0.99572 0.53119 1.04209 0.0
Co244 Co 0.05453 0.58911 0.09577 0.0
C245 C 0.10906 0.5471 0.94318 0.0
C246 C 0.15321 0.62319 0.94122 0.0
N247 N 0.12531 0.58238 0.97088 0.0
N248 N 0.12309 0.56538 0.8973 0.0
C249 C 0.15168 0.61287 0.89559 0.0
H250 H 0.08254 0.5113 0.95544 0.0
H251 H 0.168 0.66066 0.9513 0.0
C252 C 0.15317 0.63881 0.08818 0.0
N253 N 1.0229 0.59073 0.15299 0.0
C254 C 0.97893 0.60668 0.16089 0.0
C255 C 0.03695 0.57321 0.19619 0.0
N256 N 0.96479 0.59945 0.2073 0.0
C257 C 1.00114 0.57849 0.22973 0.0
C258 C 0.10651 0.50205 0.09877 0.0
O259 O 0.15543 0.6237 0.048 0.0
O260 O 0.11156 0.63044 0.11225 0.0
O261 O 0.07962 0.52582 0.1231 0.0
O262 O 0.11655 0.52034 0.05505 0.0
O263 O 0.99716 0.5467 0.08154 0.0
H264 H 0.07127 0.55821 0.2029 0.0
H265 H 0.95778 0.62357 0.13321 0.0
O266 O 0.03375 0.54487 1.01272 0.0
O267 O 0.07376 0.64897 1.00219 0.0
O268 O 0.02989 0.65359 0.06672 0.0
C269 C 0.04414 0.67245 1.02347 0.0
H270 H 0.16536 0.64049 0.86349 0.0
H271 H 1.00284 0.57015 0.26769 0.0
C272 C 0.17215 0.13678 0.34626 0.0
C273 C 0.22304 0.13212 0.34093 0.0
H274 H 0.10486 0.12286 0.3923 0.0
C275 C 0.24395 0.10671 0.38021 0.0
H276 H 0.15435 0.15556 0.31681 0.0
C277 C 0.21551 0.08822 0.42362 0.0
C278 C 0.165 0.09408 0.42931 0.0
H279 H 0.2829 0.10276 0.37799 0.0
H280 H 0.23355 0.06977 0.45305 0.0
C281 C 0.14357 0.11795 0.38966 0.0
C282 C 0.52151 0.90698 0.89243 0.0
C283 C 0.48467 0.90894 0.86052 0.0
H284 H 0.55962 0.9444 0.94421 0.0
C285 C 0.46279 0.95518 0.85134 0.0
H286 H 0.53877 0.87174 0.9002 0.0
C287 C 0.47336 0.99611 0.87751 0.0
C288 C 0.50629 0.99178 0.91322 0.0
H289 H 0.43413 0.9575 0.82681 0.0
H290 H 0.45288 0.02907 0.87211 0.0
C291 C 0.53248 0.94821 0.91838 0.0
C292 C 0.66184 0.58583 0.80407 0.0
C293 C 0.64125 0.54447 0.84079 0.0
H294 H 0.65931 0.6224 0.73236 0.0
C295 C 0.60239 0.5059 0.83223 0.0
H296 H 0.69216 0.61573 0.80989 0.0
C297 C 0.58296 0.51003 0.78796 0.0
C298 C 0.60292 0.55217 0.75145 0.0
H299 H 0.58607 0.47366 0.86019 0.0
H300 H 0.55196 0.48076 0.78252 0.0
C301 C 0.64319 0.5894 0.75971 0.0
C302 C 0.87624 0.62097 0.3014 0.0
C303 C 0.8742 0.6751 0.28667 0.0
H304 H 0.90782 0.55377 0.28656 0.0
C305 C 0.89133 0.69924 0.24025 0.0
H306 H 0.86228 0.60134 0.33683 0.0
C307 C 0.91685 0.67182 0.21146 0.0
C308 C 0.92558 0.62038 0.22916 0.0
H309 H 0.89008 0.74094 0.22813 0.0
H310 H 0.9344 0.69288 0.17765 0.0
C311 C 0.90226 0.59387 0.27289 0.0
C312 C 0.36986 0.13942 0.16383 0.0
C313 C 0.36493 0.13722 0.21326 0.0
H314 H 0.41335 0.12678 0.10333 0.0
C315 C 0.4024 0.11812 0.23967 0.0
H316 H 0.34184 0.15385 0.14222 0.0
C317 C 0.44422 0.10332 0.2171 0.0
C318 C 0.44947 0.10648 0.16749 0.0
H319 H 0.4003 0.11643 0.27764 0.0
H320 H 0.47263 0.08965 0.23858 0.0
C321 C 0.41113 0.12401 0.14141 0.0
C322 C 0.21885 0.85295 0.73845 0.0
C323 C 0.24333 0.87145 0.7756 0.0
H324 H 0.19619 0.87268 0.66878 0.0
C325 C 0.26138 0.92599 0.77188 0.0
H326 H 0.20575 0.81092 0.74004 0.0
C327 C 0.2565 0.96127 0.73095 0.0
C328 C 0.23336 0.94257 0.69311 0.0
H329 H 0.28068 0.941 0.80015 0.0
H330 H 0.27055 0.00308 0.72906 0.0
C331 C 0.21408 0.88819 0.6975 0.0
C332 C 0.89125 0.47324 0.97468 0.0
C333 C 0.8562 0.44679 1.01182 0.0
H334 H 0.96334 0.52013 0.95507 0.0
C335 C 0.86933 0.44401 0.05851 0.0
H336 H 0.88177 0.47623 0.93834 0.0
C337 C 0.91545 0.47005 0.06807 0.0
C338 C 0.9497 0.49866 1.03107 0.0
H339 H 0.84277 0.42449 0.08773 0.0
H340 H 0.92372 0.4691 0.1046 0.0
C341 C 0.93782 0.49845 0.9842 0.0
C342 C 0.83592 0.64521 0.57209 0.0
C343 C 0.86672 0.69478 0.56369 0.0
H344 H 0.76163 0.60453 0.58572 0.0
C345 C 0.849 0.73887 0.57737 0.0
H346 H 0.84905 0.6108 0.56169 0.0
C347 C 0.79858 0.73577 0.59026 0.0
C348 C 0.7659 0.68834 0.59037 0.0
H349 H 0.87231 0.77754 0.57131 0.0
H350 H 0.78463 0.77153 0.59601 0.0
C351 C 0.78558 0.64201 0.58516 0.0
C352 C 0.19087 0.39746 0.11572 0.0
C353 C 0.19383 0.38963 0.16486 0.0
H354 H 0.16041 0.43864 0.05622 0.0
C355 C 0.16303 0.41365 0.19268 0.0
H356 H 0.21504 0.38017 0.09352 0.0
C357 C 0.13169 0.44728 0.17145 0.0
C358 C 0.13122 0.45817 0.12189 0.0
H359 H 0.1655 0.40903 0.23056 0.0
H360 H 0.11031 0.46735 0.19369 0.0
C361 C 0.15985 0.4313 0.09443 0.0
C362 C 0.6642 0.28762 0.99846 0.0
C363 C 0.69916 0.31066 1.02653 0.0
H364 H 0.60966 0.22089 0.99186 0.0
C365 C 0.70542 0.28183 0.07103 0.0
H366 H 0.65877 0.30834 0.96375 0.0
C367 C 0.67721 0.23153 0.08716 0.0
C368 C 0.64207 0.20871 0.05915 0.0
H369 H 0.73145 0.29856 0.09387 0.0
H370 H 0.68295 0.21057 0.12169 0.0
C371 C 0.63602 0.23737 1.01456 0.0
C372 C 1.02631 0.85267 0.45943 0.0
C373 C 1.02264 0.80408 0.49057 0.0
H374 H 0.04792 0.93664 0.44931 0.0
C375 C 0.04968 0.80243 0.53111 0.0
H376 H 1.00634 0.85648 0.42791 0.0
C377 C 0.07295 0.84963 0.5439 0.0
C378 C 0.06978 0.89836 0.51577 0.0
H379 H 0.04888 0.76541 0.55515 0.0
H380 H 0.08893 0.84834 0.57767 0.0
C381 C 0.04976 0.89923 0.47195 0.0
C382 C 0.46092 0.69696 0.77928 0.0
C383 C 0.47573 0.75235 0.77143 0.0
H384 H 0.45824 0.62462 0.75217 0.0
C385 C 0.5039 0.77678 0.72898 0.0
H386 H 0.44008 0.67667 0.81193 0.0
C387 C 0.51511 0.74638 0.69442 0.0
C388 C 0.49735 0.69143 0.70151 0.0
H389 H 0.51558 0.81944 0.72173 0.0
H390 H 0.53658 0.7659 0.66189 0.0
C391 C 0.47091 0.66715 0.74468 0.0
C392 C 0.03135 0.94513 0.77466 0.0
C393 C 0.97963 0.9311 0.7856 0.0
H394 H 0.09144 0.97721 0.72201 0.0
C395 C 0.94882 0.94069 0.74811 0.0
H396 H 0.05671 0.93959 0.80201 0.0
C397 C 0.96897 0.96337 0.70172 0.0
C398 C 1.02068 0.97688 0.69105 0.0
H399 H 0.90889 0.92978 0.75422 0.0
H400 H 0.94401 0.96966 0.6741 0.0
C401 C 0.05141 0.96733 0.7284 0.0
C402 C 0.68527 0.2039 0.31412 0.0
C403 C 0.70733 0.18196 0.35393 0.0
H404 H 0.65246 0.19063 0.25046 0.0
C405 C 0.71107 0.1277 0.36097 0.0
H406 H 0.68167 0.24562 0.30826 0.0
C407 C 0.69354 0.09589 0.32876 0.0
C408 C 0.67218 0.11751 0.28818 0.0
H409 H 0.72677 0.10949 0.39213 0.0
H410 H 0.6964 0.05414 0.33632 0.0
C411 C 0.66825 0.17209 0.28127 0.0
C412 C 0.48357 0.64796 0.41928 0.0
C413 C 0.43651 0.61836 0.41655 0.0
H414 H 0.54159 0.66894 0.46387 0.0
C415 C 0.40941 0.59173 0.45877 0.0
H416 H 0.50553 0.66838 0.38729 0.0
C417 C 0.42983 0.59186 0.50233 0.0
C418 C 0.47822 0.61842 0.50507 0.0
H419 H 0.37306 0.56857 0.4578 0.0
H420 H 0.40831 0.56906 0.53369 0.0
C421 C 0.50429 0.64795 0.46315 0.0
C422 C 0.10033 0.50653 0.78915 0.0
C423 C 0.04781 0.49542 0.79231 0.0
H424 H 0.16542 0.53828 0.82039 0.0
C425 C 1.02096 0.51333 0.82793 0.0
H426 H 0.12261 0.49242 0.76302 0.0
C427 C 0.04603 0.53865 0.86118 0.0
C428 C 0.09819 0.5467 0.85926 0.0
H429 H 0.98072 0.50616 0.83113 0.0
H430 H 1.02481 0.55071 0.88935 0.0
C431 C 0.12521 0.53235 0.82214 0.0
C432 C 0.7192 0.99537 0.96117 0.0
C433 C 0.74738 0.95837 0.98267 0.0
H434 H 0.66534 0.04577 0.97014 0.0
C435 C 0.74602 0.94838 1.03242 0.0
H436 H 0.71905 0.00346 0.92301 0.0
C437 C 0.71476 0.97281 0.05996 0.0
C438 C 0.68396 0.00706 1.03808 0.0
H439 H 0.76663 0.91925 0.04995 0.0
H440 H 0.71246 0.96242 0.09812 0.0
C441 C 0.68803 0.01926 0.98836 0.0
C442 C 0.87162 0.21156 0.44786 0.0
C443 C 0.82456 0.20316 0.4729 0.0
H444 H 0.94122 0.18334 0.43945 0.0
C445 C 0.81438 0.1635 0.51321 0.0
H446 H 0.88007 0.2415 0.41629 0.0
C447 C 0.84866 0.12962 0.52556 0.0
C448 C 0.89406 0.13527 0.4983 0.0
H449 H 0.77819 0.15559 0.5327 0.0
H450 H 0.8388 0.0974 0.5552 0.0
C451 C 0.90635 0.17814 0.46079 0.0
C452 C 0.28802 0.68673 0.11034 0.0
C453 C 0.28408 0.68548 0.15966 0.0
H454 H 0.25001 0.67259 0.04868 0.0
C455 C 0.23688 0.67187 0.18408 0.0
H456 H 0.32405 0.69708 0.09058 0.0
C457 C 0.19471 0.65916 0.16014 0.0
C458 C 0.19843 0.65866 0.11104 0.0
H459 H 0.23253 0.67107 0.2219 0.0
H460 H 0.15915 0.64814 0.18068 0.0
C461 C 0.24568 0.67284 0.08632 0.0
C462 C 0.25548 0.46257 0.61415 0.0
C463 C 0.22031 0.43857 0.65158 0.0
H464 H 0.332 0.49404 0.5935 0.0
C465 C 0.23475 0.42985 0.69794 0.0
H466 H 0.24489 0.46901 0.57816 0.0
C467 C 0.28432 0.44305 0.70655 0.0
C468 C 0.31977 0.46595 0.66905 0.0
H469 H 0.20806 0.41063 0.72716 0.0
H470 H 0.29523 0.43472 0.7423 0.0
C471 C 0.30494 0.47679 0.62293 0.0
C472 C 0.97835 0.79332 0.99076 0.0
C473 C 0.98555 0.80342 0.94073 0.0
H474 H 0.99035 0.74455 0.05606 0.0
C475 C 1.01365 0.7708 0.91925 0.0
H476 H 0.95785 0.81773 1.00922 0.0
C477 C 0.03321 0.72968 0.94635 0.0
C478 C 1.02492 0.71877 0.99608 0.0
H479 H 1.01948 0.77565 0.88117 0.0
H480 H 0.05393 0.70538 0.9279 0.0
C481 C 0.99734 0.7514 1.01794 0.0
C482 C 0.46197 0.83786 0.21246 0.0
C483 C 0.43928 0.80887 0.17965 0.0
H484 H 0.50788 0.90917 0.22342 0.0
C485 C 0.44854 0.83015 0.13115 0.0
H486 H 0.45539 0.82325 0.25008 0.0
C487 C 0.47771 0.87992 0.11602 0.0
C488 C 0.49926 0.9093 0.14889 0.0
H489 H 0.43297 0.80854 0.10465 0.0
H490 H 0.48319 0.89552 0.07848 0.0
C491 C 0.49191 0.88732 0.19721 0.0
C492 C 0.07384 0.26958 0.58167 0.0
C493 C 0.11356 0.29014 0.6056 0.0
H494 H 0.03829 0.20278 0.55453 0.0
C495 C 0.14914 0.25798 0.62031 0.0
H496 H 0.04603 0.29351 0.56995 0.0
C497 C 0.14504 0.20618 0.6113 0.0
C498 C 0.10498 0.18541 0.58792 0.0
H499 H 0.17954 0.27232 0.63999 0.0
H500 H 0.17272 0.18221 0.62334 0.0
C501 C 0.06956 0.21764 0.57293 0.0
C502 C 0.63048 0.42041 0.52202 0.0
C503 C 0.61684 0.37071 0.55171 0.0
H504 H 0.62814 0.50453 0.51285 0.0
C505 C 0.59537 0.3692 0.59759 0.0
H506 H 0.64705 0.42289 0.48646 0.0
C507 C 0.58366 0.41515 0.612 0.0
C508 C 0.59418 0.46421 0.58144 0.0
H509 H 0.58566 0.3319 0.62187 0.0
H510 H 0.56511 0.41204 0.6469 0.0
C511 C 0.61948 0.46702 0.53695 0.0
loop_
_geom_bond_atom_site_label_1
_geom_bond_atom_site_label_2
_geom_bond_distance
_geom_bond_site_symmetry_2
_ccdc_geom_bond_type
H0 C1 0.949 . S
C1 H0 0.949 . S
C1 C2 1.395 . S
C1 C3 1.391 . S
C2 C1 1.395 . S
C2 C5 1.390 . S
C3 C1 1.391 . S
C3 C7 1.387 . S
C3 C8 1.491 . S
H4 C5 0.950 . S
C5 C2 1.390 . S
C5 H4 0.950 . S
C5 C6 1.378 . S
C6 C5 1.378 . S
C6 C7 1.409 . S
C7 C3 1.387 . S
C7 C6 1.409 . S
C7 H9 0.951 . S
C8 C3 1.491 . S
C8 C10 1.382 . S
C8 C12 1.404 . S
H9 C7 0.951 . S
C10 C8 1.382 . S
C10 C11 1.390 . S
C10 H15 0.949 . S
C11 C10 1.390 . S
C11 C16 1.399 . S
C12 C8 1.404 . S
C12 H13 0.950 . S
C12 C14 1.375 . S
H13 C12 0.950 . S
C14 C12 1.375 . S
C14 C16 1.382 . S
C14 H18 0.950 . S
H15 C10 0.949 . S
C16 C11 1.399 . S
C16 C14 1.382 . S
C16 H17 0.952 . S
H17 C16 0.952 . S
H18 C14 0.950 . S
H19 C20 0.949 . S
C20 H19 0.949 . S
C20 C21 1.395 . S
C20 C22 1.391 . S
C21 C20 1.395 . S
C21 C24 1.390 . S
C22 C20 1.391 . S
C22 C26 1.387 . S
C22 C27 1.491 . S
H23 C24 0.950 . S
C24 C21 1.390 . S
C24 H23 0.950 . S
C24 C25 1.378 . S
C25 C24 1.378 . S
C25 C26 1.409 . S
C26 C22 1.387 . S
C26 C25 1.409 . S
C26 H28 0.951 . S
C27 C22 1.491 . S
C27 C29 1.382 . S
C27 C31 1.404 . S
H28 C26 0.951 . S
C29 C27 1.382 . S
C29 C30 1.390 . S
C29 H34 0.949 . S
C30 C29 1.390 . S
C30 C35 1.399 . S
C31 C27 1.404 . S
C31 H32 0.950 . S
C31 C33 1.375 . S
H32 C31 0.950 . S
C33 C31 1.375 . S
C33 C35 1.382 . S
C33 H37 0.950 . S
H34 C29 0.949 . S
C35 C30 1.399 . S
C35 C33 1.382 . S
C35 H36 0.952 . S
H36 C35 0.952 . S
H37 C33 0.950 . S
H38 C39 0.949 . S
C39 H38 0.949 . S
C39 C40 1.395 . S
C39 C41 1.391 . S
C40 C39 1.395 . S
C40 C43 1.390 . S
C41 C39 1.391 . S
C41 C45 1.387 . S
C41 C46 1.491 . S
H42 C43 0.950 1_554 S
C43 C40 1.390 . S
C43 H42 0.950 1_556 S
C43 C44 1.378 . S
C44 C43 1.378 . S
C44 C45 1.409 . S
C45 C41 1.387 . S
C45 C44 1.409 . S
C45 H47 0.951 . S
C46 C41 1.491 . S
C46 C48 1.382 . S
C46 C50 1.404 . S
H47 C45 0.951 . S
C48 C46 1.382 . S
C48 C49 1.390 . S
C48 H53 0.949 . S
C49 C48 1.390 . S
C49 C54 1.399 . S
C50 C46 1.404 . S
C50 H51 0.950 . S
C50 C52 1.375 . S
H51 C50 0.950 . S
C52 C50 1.375 . S
C52 C54 1.382 . S
C52 H56 0.950 . S
H53 C48 0.949 . S
C54 C49 1.399 . S
C54 C52 1.382 . S
C54 H55 0.952 . S
H55 C54 0.952 . S
H56 C52 0.950 . S
H57 C58 0.949 . S
C58 H57 0.949 . S
C58 C59 1.395 . S
C58 C60 1.391 . S
C59 C58 1.395 . S
C59 C62 1.390 . S
C60 C58 1.391 . S
C60 C64 1.387 . S
C60 C65 1.491 . S
H61 C62 0.950 . S
C62 C59 1.390 . S
C62 H61 0.950 . S
C62 C63 1.378 . S
C63 C62 1.378 . S
C63 C64 1.409 . S
C64 C60 1.387 . S
C64 C63 1.409 . S
C64 H66 0.951 . S
C65 C60 1.491 . S
C65 C67 1.382 . S
C65 C69 1.404 . S
H66 C64 0.951 . S
C67 C65 1.382 . S
C67 C68 1.390 . S
C67 H72 0.949 1_655 S
C68 C67 1.390 . S
C68 C73 1.399 . S
C69 C65 1.404 . S
C69 H70 0.950 . S
C69 C71 1.375 . S
H70 C69 0.950 . S
C71 C69 1.375 . S
C71 C73 1.382 . S
C71 H75 0.950 . S
H72 C67 0.949 1_455 S
C73 C68 1.399 . S
C73 C71 1.382 . S
C73 H74 0.952 . S
H74 C73 0.952 . S
H75 C71 0.950 . S
H76 C77 0.949 . S
C77 H76 0.949 . S
C77 C78 1.395 . S
C77 C79 1.391 . S
C78 C77 1.395 . S
C78 C81 1.390 . S
C79 C77 1.391 . S
C79 C83 1.387 . S
C79 C84 1.491 . S
H80 C81 0.950 1_455 S
C81 C78 1.390 . S
C81 H80 0.950 1_655 S
C81 C82 1.378 . S
C82 C81 1.378 . S
C82 C83 1.409 . S
C83 C79 1.387 . S
C83 C82 1.409 . S
C83 H85 0.951 . S
C84 C79 1.491 . S
C84 C86 1.382 . S
C84 C88 1.404 . S
H85 C83 0.951 . S
C86 C84 1.382 . S
C86 C87 1.390 . S
C86 H91 0.949 . S
C87 C86 1.390 . S
C87 C92 1.399 . S
C88 C84 1.404 . S
C88 H89 0.950 . S
C88 C90 1.375 . S
H89 C88 0.950 . S
C90 C88 1.375 . S
C90 C92 1.382 . S
C90 H94 0.950 . S
H91 C86 0.949 . S
C92 C87 1.399 . S
C92 C90 1.382 . S
C92 H93 0.950 1_565 S
H93 C92 0.950 1_545 S
H94 C90 0.950 . S
H95 C96 0.949 . S
C96 H95 0.949 . S
C96 C97 1.395 . S
C96 C98 1.391 . S
C97 C96 1.395 . S
C97 C100 1.390 . S
C98 C96 1.391 . S
C98 C102 1.387 . S
C98 C103 1.491 . S
H99 C100 0.950 . S
C100 C97 1.390 . S
C100 H99 0.950 . S
C100 C101 1.378 . S
C101 C100 1.378 . S
C101 C102 1.409 . S
C102 C98 1.387 . S
C102 C101 1.409 . S
C102 H104 0.951 . S
C103 C98 1.491 . S
C103 C105 1.382 . S
C103 C107 1.404 . S
H104 C102 0.951 . S
C105 C103 1.382 . S
C105 C106 1.390 . S
C105 H110 0.949 . S
C106 C105 1.390 . S
C106 C111 1.399 . S
C107 C103 1.404 . S
C107 H108 0.950 . S
C107 C109 1.375 . S
H108 C107 0.950 . S
C109 C107 1.375 . S
C109 C111 1.382 . S
C109 H113 0.950 . S
H110 C105 0.949 . S
C111 C106 1.399 . S
C111 C109 1.382 . S
C111 H112 0.952 . S
H112 C111 0.952 . S
H113 C109 0.950 . S
H114 C115 0.949 . S
C115 H114 0.949 . S
C115 C116 1.395 . S
C115 C117 1.391 . S
C116 C115 1.395 . S
C116 C119 1.390 . S
C117 C115 1.391 . S
C117 C121 1.387 . S
C117 C122 1.491 . S
H118 C119 0.950 . S
C119 C116 1.390 . S
C119 H118 0.950 . S
C119 C120 1.378 . S
C120 C119 1.378 . S
C120 C121 1.409 . S
C121 C117 1.387 . S
C121 C120 1.409 . S
C121 H123 0.951 . S
C122 C117 1.491 . S
C122 C124 1.382 . S
C122 C126 1.404 . S
H123 C121 0.951 . S
C124 C122 1.382 . S
C124 C125 1.390 . S
C124 H129 0.949 . S
C125 C124 1.390 . S
C125 C130 1.399 . S
C126 C122 1.404 . S
C126 H127 0.950 . S
C126 C128 1.375 . S
H127 C126 0.950 . S
C128 C126 1.375 . S
C128 C130 1.382 . S
C128 H132 0.950 . S
H129 C124 0.949 . S
C130 C125 1.399 . S
C130 C128 1.382 . S
C130 H131 0.952 . S
H131 C130 0.952 . S
H132 C128 0.950 . S
H133 C134 0.949 . S
C134 H133 0.949 . S
C134 C135 1.395 . S
C134 C136 1.391 . S
C135 C134 1.395 . S
C135 C138 1.390 . S
C136 C134 1.391 . S
C136 C140 1.387 . S
C136 C141 1.491 . S
H137 C138 0.950 . S
C138 C135 1.390 . S
C138 H137 0.950 . S
C138 C139 1.378 . S
C139 C138 1.378 . S
C139 C140 1.409 . S
C140 C136 1.387 . S
C140 C139 1.409 . S
C140 H142 0.951 . S
C141 C136 1.491 . S
C141 C143 1.382 . S
C141 C145 1.404 . S
H142 C140 0.951 . S
C143 C141 1.382 . S
C143 C144 1.390 . S
C143 H148 0.949 . S
C144 C143 1.390 . S
C144 C149 1.399 . S
C145 C141 1.404 . S
C145 H146 0.950 . S
C145 C147 1.375 . S
H146 C145 0.950 . S
C147 C145 1.375 . S
C147 C149 1.382 . S
C147 H151 0.950 . S
H148 C143 0.949 . S
C149 C144 1.399 . S
C149 C147 1.382 . S
C149 H150 0.952 . S
H150 C149 0.952 . S
H151 C147 0.950 . S
Co152 N157 2.057 . S
Co152 O169 2.024 . S
Co152 O172 2.059 1_655 S
Co152 O176 2.117 1_545 S
Co152 O177 2.020 . S
C153 O173 1.259 1_655 S
C153 O176 1.258 . S
Co154 N163 2.057 . S
Co154 O170 2.117 . S
Co154 O171 2.020 . S
Co154 O173 2.021 1_545 S
Co154 O178 2.062 . S
C155 N157 1.316 . S
C155 N158 1.347 . S
C155 H160 0.931 . S
C156 N157 1.375 . S
C156 C159 1.350 . S
C156 H161 0.930 1_545 S
N157 Co152 2.057 . S
N157 C155 1.316 . S
N157 C156 1.375 . S
N158 C155 1.347 . S
N158 C159 1.373 . S
C159 C156 1.350 . S
C159 N158 1.373 . S
C159 H180 0.931 . S
H160 C155 0.931 . S
H161 C156 0.930 1_565 S
C162 O169 1.239 1_455 S
C162 O170 1.258 . S
N163 Co154 2.057 . S
N163 C164 1.316 1_545 S
N163 C165 1.375 . S
C164 N163 1.316 1_565 S
C164 N166 1.347 1_565 S
C164 H175 0.931 . S
C165 N163 1.375 . S
C165 C167 1.350 . S
C165 H174 0.930 . S
N166 C164 1.347 1_545 S
N166 C167 1.373 . S
C167 C165 1.350 . S
C167 N166 1.373 . S
C167 H181 0.931 . S
C168 O171 1.256 . S
C168 O172 1.260 . S
O169 Co152 2.024 . S
O169 C162 1.239 1_655 S
O170 Co154 2.117 . S
O170 C162 1.258 . S
O171 Co154 2.020 . S
O171 C168 1.256 . S
O172 Co152 2.059 1_455 S
O172 C168 1.260 . S
O173 C153 1.259 1_455 S
O173 Co154 2.021 1_565 S
H174 C165 0.930 . S
H175 C164 0.931 . S
O176 Co152 2.117 1_565 S
O176 C153 1.258 . S
O177 Co152 2.020 . S
O177 C179 1.256 . S
O178 Co154 2.062 . S
O178 C179 1.255 1_455 S
C179 O177 1.256 . S
C179 O178 1.255 1_655 S
H180 C159 0.931 . S
H181 C167 0.931 . S
Co182 N187 2.057 1_544 S
Co182 O199 2.021 . S
Co182 O202 2.062 . S
Co182 O206 2.117 1_545 S
Co182 O207 2.020 . S
C183 O203 1.259 . S
C183 O206 1.258 . S
Co184 N193 2.057 . S
Co184 O200 2.117 . S
Co184 O201 2.020 . S
Co184 O203 2.021 1_545 S
Co184 O208 2.062 . S
C185 N187 1.316 1_545 S
C185 N188 1.347 1_545 S
C185 H190 0.931 . S
C186 N187 1.375 . S
C186 C189 1.350 . S
C186 H191 0.930 . S
N187 Co182 2.057 1_566 S
N187 C185 1.316 1_565 S
N187 C186 1.375 . S
N188 C185 1.347 1_565 S
N188 C189 1.373 . S
C189 C186 1.350 . S
C189 N188 1.373 . S
C189 H210 0.931 . S
H190 C185 0.931 . S
H191 C186 0.930 . S
C192 O199 1.259 . S
C192 O200 1.258 . S
N193 Co184 2.057 . S
N193 C194 1.316 . S
N193 C195 1.375 . S
C194 N193 1.316 . S
C194 N196 1.347 . S
C194 H205 0.931 . S
C195 N193 1.375 . S
C195 C197 1.350 . S
C195 H204 0.930 . S
N196 C194 1.347 . S
N196 C197 1.373 . S
C197 C195 1.350 . S
C197 N196 1.373 . S
C197 H211 0.931 . S
C198 O201 1.256 . S
C198 O202 1.255 . S
O199 Co182 2.021 . S
O199 C192 1.259 . S
O200 Co184 2.117 . S
O200 C192 1.258 . S
O201 Co184 2.020 . S
O201 C198 1.256 . S
O202 Co182 2.062 . S
O202 C198 1.255 . S
O203 C183 1.259 . S
O203 Co184 2.021 1_565 S
H204 C195 0.930 . S
H205 C194 0.931 . S
O206 Co182 2.117 1_565 S
O206 C183 1.258 . S
O207 Co182 2.020 . S
O207 C209 1.256 . S
O208 Co184 2.062 . S
O208 C209 1.255 . S
C209 O207 1.256 . S
C209 O208 1.255 . S
H210 C189 0.931 . S
H211 C197 0.931 . S
Co212 N217 2.057 . S
Co212 O229 2.021 . S
Co212 O232 2.062 . S
Co212 O236 2.117 . S
Co212 O237 2.020 . S
C213 O233 1.259 . S
C213 O236 1.258 . S
Co214 N223 2.057 . S
Co214 O230 2.117 . S
Co214 O231 2.020 . S
Co214 O233 2.021 . S
Co214 O238 2.062 . S
C215 N217 1.316 . S
C215 N218 1.347 . S
C215 H220 0.931 . S
C216 N217 1.375 . S
C216 C219 1.350 . S
C216 H221 0.930 . S
N217 Co212 2.057 . S
N217 C215 1.316 . S
N217 C216 1.375 . S
N218 C215 1.347 . S
N218 C219 1.373 . S
C219 C216 1.350 . S
C219 N218 1.373 . S
C219 H240 0.931 . S
H220 C215 0.931 . S
H221 C216 0.930 . S
C222 O229 1.259 . S
C222 O230 1.258 . S
N223 Co214 2.057 . S
N223 C224 1.316 . S
N223 C225 1.375 . S
C224 N223 1.316 . S
C224 N226 1.347 . S
C224 H235 0.931 . S
C225 N223 1.375 . S
C225 C227 1.350 . S
C225 H234 0.930 . S
N226 C224 1.347 . S
N226 C227 1.373 . S
C227 C225 1.350 . S
C227 N226 1.373 . S
C227 H241 0.931 . S
C228 O231 1.256 . S
C228 O232 1.255 . S
O229 Co212 2.021 . S
O229 C222 1.259 . S
O230 Co214 2.117 . S
O230 C222 1.258 . S
O231 Co214 2.020 . S
O231 C228 1.256 . S
O232 Co212 2.062 . S
O232 C228 1.255 . S
O233 C213 1.259 . S
O233 Co214 2.021 . S
H234 C225 0.930 . S
H235 C224 0.931 . S
O236 Co212 2.117 . S
O236 C213 1.258 . S
O237 Co212 2.020 . S
O237 C239 1.256 . S
O238 Co214 2.062 . S
O238 C239 1.255 . S
C239 O237 1.256 . S
C239 O238 1.255 . S
H240 C219 0.931 . S
H241 C227 0.931 . S
Co242 N247 2.057 . S
Co242 O259 2.021 . S
Co242 O262 2.062 1_556 S
Co242 O266 2.117 1_455 S
Co242 O267 2.020 . S
C243 O263 1.259 . S
C243 O266 1.258 1_554 S
Co244 N253 2.057 . S
Co244 O260 2.117 . S
Co244 O261 2.020 . S
Co244 O263 2.021 1_455 S
Co244 O268 2.062 . S
C245 N247 1.316 . S
C245 N248 1.347 . S
C245 H250 0.931 . S
C246 N247 1.375 . S
C246 C249 1.350 . S
C246 H251 0.930 1_455 S
N247 Co242 2.057 . S
N247 C245 1.316 . S
N247 C246 1.375 . S
N248 C245 1.347 . S
N248 C249 1.373 . S
C249 C246 1.350 . S
C249 N248 1.373 . S
C249 H270 0.931 . S
H250 C245 0.931 . S
H251 C246 0.930 1_655 S
C252 O259 1.259 1_554 S
C252 O260 1.258 . S
N253 Co244 2.057 . S
N253 C254 1.316 1_455 S
N253 C255 1.375 . S
C254 N253 1.316 1_655 S
C254 N256 1.347 . S
C254 H265 0.931 . S
C255 N253 1.375 . S
C255 C257 1.350 . S
C255 H264 0.930 . S
N256 C254 1.347 . S
N256 C257 1.373 1_655 S
C257 C255 1.350 . S
C257 N256 1.373 1_455 S
C257 H271 0.931 . S
C258 O261 1.256 . S
C258 O262 1.255 . S
O259 Co242 2.021 . S
O259 C252 1.259 1_556 S
O260 Co244 2.117 . S
O260 C252 1.258 . S
O261 Co244 2.020 . S
O261 C258 1.256 . S
O262 Co242 2.062 1_554 S
O262 C258 1.255 . S
O263 C243 1.259 . S
O263 Co244 2.021 1_655 S
H264 C255 0.930 . S
H265 C254 0.931 . S
O266 Co242 2.117 1_655 S
O266 C243 1.258 1_556 S
O267 Co242 2.020 . S
O267 C269 1.256 . S
O268 Co244 2.062 . S
O268 C269 1.255 1_554 S
C269 O267 1.256 . S
C269 O268 1.255 1_556 S
H270 C249 0.931 . S
H271 C257 0.931 . S
C272 C273 1.387 . S
C272 H276 0.950 . S
C272 C281 1.390 . S
C273 C272 1.387 . S
C273 C275 1.387 . S
H274 C281 0.950 . S
C275 C273 1.387 . S
C275 C277 1.390 . S
C275 H279 0.950 . S
H276 C272 0.950 . S
C277 C275 1.390 . S
C277 C278 1.387 . S
C277 H280 0.950 . S
C278 C277 1.387 . S
C278 C281 1.387 . S
H279 C275 0.950 . S
H280 C277 0.950 . S
C281 C272 1.390 . S
C281 H274 0.950 . S
C281 C278 1.387 . S
C282 C283 1.387 . S
C282 H286 0.950 . S
C282 C291 1.390 . S
C283 C282 1.387 . S
C283 C285 1.387 . S
H284 C291 0.950 . S
C285 C283 1.387 . S
C285 C287 1.390 . S
C285 H289 0.950 . S
H286 C282 0.950 . S
C287 C285 1.390 . S
C287 C288 1.387 . S
C287 H290 0.950 . S
C288 C287 1.387 . S
C288 C291 1.387 . S
H289 C285 0.950 . S
H290 C287 0.950 . S
C291 C282 1.390 . S
C291 H284 0.950 . S
C291 C288 1.387 . S
C292 C293 1.387 . S
C292 H296 0.950 . S
C292 C301 1.390 . S
C293 C292 1.387 . S
C293 C295 1.387 . S
H294 C301 0.950 . S
C295 C293 1.387 . S
C295 C297 1.390 . S
C295 H299 0.950 . S
H296 C292 0.950 . S
C297 C295 1.390 . S
C297 C298 1.387 . S
C297 H300 0.950 . S
C298 C297 1.387 . S
C298 C301 1.387 . S
H299 C295 0.950 . S
H300 C297 0.950 . S
C301 C292 1.390 . S
C301 H294 0.950 . S
C301 C298 1.387 . S
C302 C303 1.388 . S
C302 H306 0.950 . S
C302 C311 1.390 . S
C303 C302 1.388 . S
C303 C305 1.389 1_655 S
H304 C311 0.950 . S
C305 C303 1.389 1_455 S
C305 C307 1.390 1_455 S
C305 H309 0.950 . S
H306 C302 0.950 . S
C307 C305 1.390 1_655 S
C307 C308 1.387 . S
C307 H310 0.950 . S
C308 C307 1.387 . S
C308 C311 1.387 . S
H309 C305 0.950 . S
H310 C307 0.950 . S
C311 C302 1.390 . S
C311 H304 0.950 . S
C311 C308 1.387 . S
C312 C313 1.387 . S
C312 H316 0.950 . S
C312 C321 1.390 . S
C313 C312 1.387 . S
C313 C315 1.387 . S
H314 C321 0.950 . S
C315 C313 1.387 . S
C315 C317 1.390 . S
C315 H319 0.950 . S
H316 C312 0.950 . S
C317 C315 1.390 . S
C317 C318 1.387 . S
C317 H320 0.950 . S
C318 C317 1.387 . S
C318 C321 1.387 . S
H319 C315 0.950 . S
H320 C317 0.950 . S
C321 C312 1.390 . S
C321 H314 0.950 . S
C321 C318 1.387 . S
C322 C323 1.387 . S
C322 H326 0.950 . S
C322 C331 1.390 . S
C323 C322 1.387 . S
C323 C325 1.387 1_565 S
H324 C331 0.950 . S
C325 C323 1.387 1_545 S
C325 C327 1.390 . S
C325 H329 0.950 . S
H326 C322 0.950 . S
C327 C325 1.390 . S
C327 C328 1.387 1_545 S
C327 H330 0.950 . S
C328 C327 1.387 1_565 S
C328 C331 1.387 . S
H329 C325 0.950 . S
H330 C327 0.950 . S
C331 C322 1.390 . S
C331 H324 0.950 . S
C331 C328 1.387 . S
C332 C333 1.387 . S
C332 H336 0.950 . S
C332 C341 1.390 . S
C333 C332 1.387 . S
C333 C335 1.387 1_556 S
H334 C341 0.950 . S
C335 C333 1.387 1_554 S
C335 C337 1.390 . S
C335 H339 0.950 . S
H336 C332 0.950 . S
C337 C335 1.390 . S
C337 C338 1.387 1_554 S
C337 H340 0.950 . S
C338 C337 1.387 1_556 S
C338 C341 1.387 . S
H339 C335 0.950 . S
H340 C337 0.950 . S
C341 C332 1.390 . S
C341 H334 0.950 . S
C341 C338 1.387 . S
C342 C343 1.387 . S
C342 H346 0.950 . S
C342 C351 1.390 . S
C343 C342 1.387 . S
C343 C345 1.387 . S
H344 C351 0.950 . S
C345 C343 1.387 . S
C345 C347 1.390 . S
C345 H349 0.950 . S
H346 C342 0.950 . S
C347 C345 1.390 . S
C347 C348 1.387 . S
C347 H350 0.950 . S
C348 C347 1.387 . S
C348 C351 1.387 . S
H349 C345 0.950 . S
H350 C347 0.950 . S
C351 C342 1.390 . S
C351 H344 0.950 . S
C351 C348 1.387 . S
C352 C353 1.387 . S
C352 H356 0.950 . S
C352 C361 1.390 . S
C353 C352 1.387 . S
C353 C355 1.387 . S
H354 C361 0.950 1_556 S
C355 C353 1.387 . S
C355 C357 1.390 . S
C355 H359 0.950 . S
H356 C352 0.950 . S
C357 C355 1.390 . S
C357 C358 1.387 . S
C357 H360 0.950 . S
C358 C357 1.387 . S
C358 C361 1.387 . S
H359 C355 0.950 . S
H360 C357 0.950 . S
C361 C352 1.390 . S
C361 H354 0.950 1_554 S
C361 C358 1.387 . S
C362 C363 1.387 1_556 S
C362 H366 0.950 . S
C362 C371 1.390 . S
C363 C362 1.387 1_554 S
C363 C365 1.387 . S
H364 C371 0.950 . S
C365 C363 1.387 . S
C365 C367 1.390 . S
C365 H369 0.950 . S
H366 C362 0.950 . S
C367 C365 1.390 . S
C367 C368 1.387 . S
C367 H370 0.950 . S
C368 C367 1.387 . S
C368 C371 1.387 1_554 S
H369 C365 0.950 . S
H370 C367 0.950 . S
C371 C362 1.390 . S
C371 H364 0.950 . S
C371 C368 1.387 1_556 S
C372 C373 1.387 . S
C372 H376 0.950 . S
C372 C381 1.390 . S
C373 C372 1.387 . S
C373 C375 1.387 . S
H374 C381 0.950 . S
C375 C373 1.387 . S
C375 C377 1.390 . S
C375 H379 0.950 . S
H376 C372 0.950 . S
C377 C375 1.390 . S
C377 C378 1.387 . S
C377 H380 0.950 . S
C378 C377 1.387 . S
C378 C381 1.387 . S
H379 C375 0.950 . S
H380 C377 0.950 . S
C381 C372 1.390 . S
C381 H374 0.950 . S
C381 C378 1.387 . S
C382 C383 1.387 . S
C382 H386 0.950 . S
C382 C391 1.390 . S
C383 C382 1.387 . S
C383 C385 1.387 . S
H384 C391 0.950 . S
C385 C383 1.387 . S
C385 C387 1.390 . S
C385 H389 0.950 . S
H386 C382 0.950 . S
C387 C385 1.390 . S
C387 C388 1.387 . S
C387 H390 0.950 . S
C388 C387 1.387 . S
C388 C391 1.387 . S
H389 C385 0.950 . S
H390 C387 0.950 . S
C391 C382 1.390 . S
C391 H384 0.950 . S
C391 C388 1.387 . S
C392 C393 1.387 . S
C392 H396 0.950 1_655 S
C392 C401 1.390 . S
C393 C392 1.387 . S
C393 C395 1.387 1_565 S
H394 C401 0.950 1_455 S
C395 C393 1.387 1_545 S
C395 C397 1.390 . S
C395 H399 0.950 . S
H396 C392 0.950 1_455 S
C397 C395 1.390 . S
C397 C398 1.387 1_545 S
C397 H400 0.950 . S
C398 C397 1.387 1_565 S
C398 C401 1.387 . S
H399 C395 0.950 . S
H400 C397 0.950 . S
C401 C392 1.390 . S
C401 H394 0.950 1_655 S
C401 C398 1.387 . S
C402 C403 1.387 . S
C402 H406 0.950 . S
C402 C411 1.390 . S
C403 C402 1.387 . S
C403 C405 1.387 . S
H404 C411 0.950 . S
C405 C403 1.387 . S
C405 C407 1.390 . S
C405 H409 0.950 . S
H406 C402 0.950 . S
C407 C405 1.390 . S
C407 C408 1.387 . S
C407 H410 0.950 . S
C408 C407 1.387 . S
C408 C411 1.387 . S
H409 C405 0.950 . S
H410 C407 0.950 . S
C411 C402 1.390 . S
C411 H404 0.950 . S
C411 C408 1.387 . S
C412 C413 1.387 . S
C412 H416 0.950 . S
C412 C421 1.390 . S
C413 C412 1.387 . S
C413 C415 1.387 . S
H414 C421 0.950 . S
C415 C413 1.387 . S
C415 C417 1.390 . S
C415 H419 0.950 . S
H416 C412 0.950 . S
C417 C415 1.390 . S
C417 C418 1.387 . S
C417 H420 0.950 . S
C418 C417 1.387 . S
C418 C421 1.387 . S
H419 C415 0.950 . S
H420 C417 0.950 . S
C421 C412 1.390 . S
C421 H414 0.950 . S
C421 C418 1.387 . S
C422 C423 1.387 . S
C422 H426 0.950 . S
C422 C431 1.390 . S
C423 C422 1.387 . S
C423 C425 1.387 . S
H424 C431 0.950 . S
C425 C423 1.387 . S
C425 C427 1.390 . S
C425 H429 0.950 . S
H426 C422 0.950 . S
C427 C425 1.390 . S
C427 C428 1.387 . S
C427 H430 0.950 . S
C428 C427 1.387 . S
C428 C431 1.387 . S
H429 C425 0.950 . S
H430 C427 0.950 . S
C431 C422 1.390 . S
C431 H424 0.950 . S
C431 C428 1.387 . S
C432 C433 1.370 1_545 S
C432 H436 0.950 . S
C432 C441 1.390 . S
C433 C432 1.370 1_565 S
C433 C435 1.397 1_556 S
H434 C441 0.950 . S
C435 C433 1.397 1_554 S
C435 C437 1.390 . S
C435 H439 0.950 . S
H436 C432 0.950 . S
C437 C435 1.390 . S
C437 C438 1.387 1_565 S
C437 H440 0.950 . S
C438 C437 1.387 1_545 S
C438 C441 1.387 1_554 S
H439 C435 0.950 . S
H440 C437 0.950 . S
C441 C432 1.390 . S
C441 H434 0.950 . S
C441 C438 1.387 1_556 S
C442 C443 1.387 . S
C442 H446 0.950 . S
C442 C451 1.390 . S
C443 C442 1.387 . S
C443 C445 1.387 . S
H444 C451 0.950 . S
C445 C443 1.387 . S
C445 C447 1.390 . S
C445 H449 0.950 . S
H446 C442 0.950 . S
C447 C445 1.390 . S
C447 C448 1.387 . S
C447 H450 0.950 . S
C448 C447 1.387 . S
C448 C451 1.387 . S
H449 C445 0.950 . S
H450 C447 0.950 . S
C451 C442 1.390 . S
C451 H444 0.950 . S
C451 C448 1.387 . S
C452 C453 1.387 . S
C452 H456 0.950 . S
C452 C461 1.390 . S
C453 C452 1.387 . S
C453 C455 1.387 . S
H454 C461 0.950 . S
C455 C453 1.387 . S
C455 C457 1.390 . S
C455 H459 0.950 . S
H456 C452 0.950 . S
C457 C455 1.390 . S
C457 C458 1.387 . S
C457 H460 0.950 . S
C458 C457 1.387 . S
C458 C461 1.387 . S
H459 C455 0.950 . S
H460 C457 0.950 . S
C461 C452 1.390 . S
C461 H454 0.950 . S
C461 C458 1.387 . S
C462 C463 1.387 . S
C462 H466 0.950 . S
C462 C471 1.390 . S
C463 C462 1.387 . S
C463 C465 1.387 . S
H464 C471 0.950 . S
C465 C463 1.387 . S
C465 C467 1.390 . S
C465 H469 0.950 . S
H466 C462 0.950 . S
C467 C465 1.390 . S
C467 C468 1.387 . S
C467 H470 0.950 . S
C468 C467 1.387 . S
C468 C471 1.387 . S
H469 C465 0.950 . S
H470 C467 0.950 . S
C471 C462 1.390 . S
C471 H464 0.950 . S
C471 C468 1.387 . S
C472 C473 1.387 . S
C472 H476 0.950 1_556 S
C472 C481 1.390 1_556 S
C473 C472 1.387 . S
C473 C475 1.387 . S
H474 C481 0.950 . S
C475 C473 1.387 . S
C475 C477 1.390 1_655 S
C475 H479 0.950 1_655 S
H476 C472 0.950 1_554 S
C477 C475 1.390 1_455 S
C477 C478 1.387 . S
C477 H480 0.950 . S
C478 C477 1.387 . S
C478 C481 1.387 1_456 S
H479 C475 0.950 1_455 S
H480 C477 0.950 . S
C481 C472 1.390 1_554 S
C481 H474 0.950 . S
C481 C478 1.387 1_654 S
C482 C483 1.387 . S
C482 H486 0.950 . S
C482 C491 1.390 . S
C483 C482 1.387 . S
C483 C485 1.387 . S
H484 C491 0.950 . S
C485 C483 1.387 . S
C485 C487 1.390 . S
C485 H489 0.950 . S
H486 C482 0.950 . S
C487 C485 1.390 . S
C487 C488 1.387 . S
C487 H490 0.950 . S
C488 C487 1.387 . S
C488 C491 1.387 . S
H489 C485 0.950 . S
H490 C487 0.950 . S
C491 C482 1.390 . S
C491 H484 0.950 . S
C491 C488 1.387 . S
C492 C493 1.387 . S
C492 H496 0.950 . S
C492 C501 1.390 . S
C493 C492 1.387 . S
C493 C495 1.387 . S
H494 C501 0.950 . S
C495 C493 1.387 . S
C495 C497 1.390 . S
C495 H499 0.950 . S
H496 C492 0.950 . S
C497 C495 1.390 . S
C497 C498 1.387 . S
C497 H500 0.950 . S
C498 C497 1.387 . S
C498 C501 1.387 . S
H499 C495 0.950 . S
H500 C497 0.950 . S
C501 C492 1.390 . S
C501 H494 0.950 . S
C501 C498 1.387 . S
C502 C503 1.387 . S
C502 H506 0.950 . S
C502 C511 1.390 . S
C503 C502 1.387 . S
C503 C505 1.387 . S
H504 C511 0.950 . S
C505 C503 1.387 . S
C505 C507 1.390 . S
C505 H509 0.950 . S
H506 C502 0.950 . S
C507 C505 1.390 . S
C507 C508 1.387 . S
C507 H510 0.950 . S
C508 C507 1.387 . S
C508 C511 1.387 . S
H509 C505 0.950 . S
H510 C507 0.950 . S
C511 C502 1.390 . S
C511 H504 0.950 . S
C511 C508 1.387 . S
C273 C6 2.427 . S
C278 C168 2.466 . S
C283 C21 1.584 . S
C288 N188 1.605 . S
C298 C222 1.528 . S
C293 C49 1.450 . S
C303 C68 1.018 . S
C308 N256 1.156 . S
C318 C209 2.910 . S
C313 C2 2.886 . S
C328 N166 0.954 1_565 S
C323 C30 0.886 . S
C338 C243 1.872 1_556 S
C333 C40 1.867 . S
C348 N218 1.012 . S
C343 C63 1.003 . S
C353 C11 1.552 . S
C358 C258 1.858 . S
C368 C192 1.865 . S
C363 C44 1.828 1_554 S
C373 C59 1.049 . S
C378 C153 1.082 . S
C383 C25 1.696 . S
C388 C239 1.741 . S
C398 C179 2.550 1_565 S
C393 C82 2.526 . S
C403 C101 1.310 . S
C408 N196 1.297 . S
C413 C125 1.837 . S
C418 C213 1.869 . S
C423 C144 1.026 . S
C428 N248 1.017 . S
C433 C87 1.847 . S
C438 C198 2.048 . S
C448 N158 1.645 . S
C443 C97 1.627 . S
C458 C252 1.846 . S
C453 C120 1.845 . S
C468 N226 1.210 . S
C463 C135 1.182 . S
C473 C78 2.114 . S
C478 C269 2.123 . S
C488 C183 1.428 . S
C483 C116 1.409 . S
C498 C162 1.577 . S
C493 C139 1.540 . S
C503 C106 1.360 . S
C508 C228 1.447 . S
