# Generated by pormake.
# Topology anh, (6,3)-cn, num edge types: 1
# Building blocks:
#     Node 0, Type 0, BuildingBlock: BETGAK_clean_sbu_0, # of connection points: 6
#     Node 1, Type 0, BuildingBlock: BETGAK_clean_sbu_0, # of connection points: 6
#     Node 2, Type 0, BuildingBlock: BETGAK_clean_sbu_0, # of connection points: 6
#     Node 3, Type 1, BuildingBlock: VETTIZ_charged_linker_0, # of connection points: 3
#     Node 4, Type 1, BuildingBlock: VETTIZ_charged_linker_0, # of connection points: 3
#     Node 5, Type 1, BuildingBlock: VETTIZ_charged_linker_0, # of connection points: 3
#     Node 6, Type 1, BuildingBlock: VETTIZ_charged_linker_0, # of connection points: 3
#     Node 7, Type 1, BuildingBlock: VETTIZ_charged_linker_0, # of connection points: 3
#     Node 8, Type 1, BuildingBlock: VETTIZ_charged_linker_0, # of connection points: 3
#     Edge 9, Type (0, 1), None
#     Edge 10, Type (0, 1), None
#     Edge 11, Type (0, 1), None
#     Edge 12, Type (0, 1), None
#     Edge 13, Type (0, 1), None
#     Edge 14, Type (0, 1), None
#     Edge 15, Type (0, 1), None
#     Edge 16, Type (0, 1), None
#     Edge 17, Type (0, 1), None
#     Edge 18, Type (0, 1), None
#     Edge 19, Type (0, 1), None
#     Edge 20, Type (0, 1), None
#     Edge 21, Type (0, 1), None
#     Edge 22, Type (0, 1), None
#     Edge 23, Type (0, 1), None
#     Edge 24, Type (0, 1), None
#     Edge 25, Type (0, 1), None
#     Edge 26, Type (0, 1), None
# Relax obj value: 0.297
# Max RMSD: 0.261
# Mean RMSD: 0.185
data_MOF--net-anh--node1-BETGAK_clean_sbu_0--node2-VETTIZ_charged_linker_0--edge1-none
_symmetry_space_group_name_H-M    P1
_symmetry_Int_Tables_number       1
_symmetry_cell_setting            triclinic
loop_
_symmetry_equiv_pos_as_xyz
'x, y, z'
_cell_length_a     19.454435
_cell_length_b     26.245383
_cell_length_c     37.932961
_cell_angle_alpha  91.777616
_cell_angle_beta   88.94837
_cell_angle_gamma 135.48449
loop_
_atom_site_label
_atom_site_type_symbol
_atom_site_fract_x
_atom_site_fract_y
_atom_site_fract_z
_atom_type_partial_charge
La0 La 0.34941 0.64743 0.15344 0.0
La1 La 0.1979 0.6373 0.14273 0.0
C2 C 0.48336 0.65319 0.15629 0.0
C3 C 0.47022 0.59382 0.16781 0.0
C4 C 0.38047 0.533 0.18318 0.0
C5 C 0.34577 0.46481 0.18025 0.0
C6 C 0.40273 0.45776 0.16316 0.0
C7 C 0.49986 0.52063 0.1537 0.0
C8 C 0.53284 0.58844 0.1553 0.0
C9 C 0.26017 0.63054 0.21248 0.0
C10 C 0.41305 0.79634 0.14723 0.0
C11 C 1.05167 0.61423 0.13848 0.0
C12 C 0.95996 0.54113 0.12555 0.0
C13 C 0.93609 0.52948 0.08958 0.0
C14 C 0.86633 0.45912 0.07507 0.0
C15 C 0.8174 0.39802 0.09615 0.0
C16 C 0.84119 0.40964 0.13218 0.0
C17 C 0.91074 0.48009 0.14674 0.0
C18 C 0.23975 0.60268 0.08472 0.0
C19 C 1.13594 0.49183 0.15549 0.0
O20 O 0.43531 0.63744 0.12725 0.0
O21 O 0.47109 0.68257 0.18053 0.0
O22 O 0.28407 0.59714 0.20418 0.0
O23 O 0.28602 0.67217 0.18802 0.0
O24 O 0.44286 0.76432 0.14925 0.0
O25 O 0.3182 0.7572 0.14571 0.0
O26 O 1.12235 0.65372 0.11516 0.0
O27 O 1.08354 0.61548 0.169 0.0
O28 O 1.15407 0.56636 0.09735 0.0
O29 O 0.29982 0.65565 0.10587 0.0
O30 O 1.11375 0.52816 0.16265 0.0
O31 O 0.22604 0.52848 0.14517 0.0
H32 H 0.33172 0.53598 0.19358 0.0
H33 H 0.2707 0.41711 0.1875 0.0
H34 H 0.54474 0.51579 0.14029 0.0
H35 H 0.60224 0.63449 0.14334 0.0
H36 H 0.97379 0.57497 0.07231 0.0
H37 H 0.84891 0.45296 0.04736 0.0
H38 H 0.80459 0.36409 0.14927 0.0
H39 H 0.92825 0.48654 0.1745 0.0
La40 La 0.85648 0.13034 0.48158 0.0
La41 La 0.71583 0.14093 0.47217 0.0
C42 C 0.94567 0.09972 0.50242 0.0
C43 C 0.91626 1.0345 0.51589 0.0
C44 C 0.97417 1.02196 0.50849 0.0
C45 C 0.94681 0.95988 0.52085 0.0
C46 C 0.86175 0.91006 0.54116 0.0
C47 C 0.80318 0.92225 0.5481 0.0
C48 C 0.82961 0.98352 0.53524 0.0
C49 C 0.82754 0.14041 0.41567 0.0
C50 C 0.62604 0.98508 0.47435 0.0
C51 C 0.62918 0.17254 0.44951 0.0
C52 C 0.64097 0.23444 0.45443 0.0
C53 C 0.55891 0.22053 0.46378 0.0
C54 C 0.56976 0.27761 0.47373 0.0
C55 C 0.66284 0.34974 0.47419 0.0
C56 C 0.74419 0.36428 0.4625 0.0
C57 C 0.73348 0.30696 0.45281 0.0
C58 C 0.74113 0.12816 0.53799 0.0
C59 C 0.94812 0.28741 0.47441 0.0
O60 O 0.92337 0.0953 0.46943 0.0
O61 O 0.92725 0.13021 0.52264 0.0
O62 O 0.91139 0.1706 0.42823 0.0
O63 O 0.76344 0.10394 0.43928 0.0
O64 O 0.71097 1.01576 0.48832 0.0
O65 O 0.61702 1.02578 0.46063 0.0
O66 O 0.60164 0.13389 0.47749 0.0
O67 O 0.69812 0.18438 0.43214 0.0
O68 O 0.66111 0.10501 0.52563 0.0
O69 O 0.80693 0.16525 0.51493 0.0
O70 O 0.8571 0.2551 0.46932 0.0
O71 O 0.96735 0.2497 0.48222 0.0
H72 H 1.0407 0.0603 0.49323 0.0
H73 H 0.9932 0.95167 0.51526 0.0
H74 H 0.73657 0.8841 0.56335 0.0
H75 H 0.78227 0.99086 0.54043 0.0
H76 H 0.48697 0.16516 0.46508 0.0
H77 H 0.50613 0.26519 0.48287 0.0
H78 H 0.81683 0.41939 0.46316 0.0
H79 H 0.79814 0.31932 0.44564 0.0
La80 La 0.7519 0.60618 0.82958 0.0
La81 La 0.61344 0.44437 0.83259 0.0
C82 C 0.86976 0.7348 0.80814 0.0
C83 C 0.86228 0.78485 0.79852 0.0
C84 C 0.78554 0.77567 0.81091 0.0
C85 C 0.77454 0.81944 0.79856 0.0
C86 C 0.83933 0.87249 0.77325 0.0
C87 C 0.91708 0.88219 0.76155 0.0
C88 C 0.92829 0.83884 0.77403 0.0
C89 C 0.6903 0.5506 0.8923 0.0
C90 C 0.52191 0.51088 0.83887 0.0
C91 C 0.52643 0.31583 0.84477 0.0
C92 C 0.55717 0.27864 0.84888 0.0
C93 C 0.49074 0.20456 0.83956 0.0
C94 C 0.52377 0.17208 0.83342 0.0
C95 C 0.62382 0.21329 0.83644 0.0
C96 C 0.68916 0.28591 0.84858 0.0
C97 C 0.65586 0.31824 0.85509 0.0
C98 C 0.62013 0.49321 0.77183 0.0
C99 C 0.84712 0.54137 0.83141 0.0
O100 O 0.85938 0.7187 0.84146 0.0
O101 O 0.82166 0.67741 0.78734 0.0
O102 O 0.70301 0.60402 0.88283 0.0
O103 O 0.71401 0.53299 0.86761 0.0
O104 O 0.60714 0.57152 0.82542 0.0
O105 O 0.51444 0.45803 0.84859 0.0
O106 O 0.54126 0.34077 0.81325 0.0
O107 O 0.5511 0.36251 0.86952 0.0
O108 O 0.54194 0.43223 0.78493 0.0
O109 O 0.6915 0.52165 0.79178 0.0
O110 O 0.75541 0.47603 0.82661 0.0
O111 O 0.86228 0.60003 0.83541 0.0
H112 H 0.73281 0.73355 0.82946 0.0
H113 H 0.71334 0.81001 0.80786 0.0
H114 H 0.96901 0.92303 0.74241 0.0
H115 H 0.98746 0.84643 0.76389 0.0
H116 H 0.41455 0.17318 0.83433 0.0
H117 H 0.47254 0.11644 0.82339 0.0
H118 H 0.76692 0.31903 0.85049 0.0
H119 H 0.70836 0.37524 0.86268 0.0
C120 C 0.98669 0.35215 0.15466 0.0
C121 C 1.07392 0.41822 0.17063 0.0
C122 C 1.10136 0.41539 0.20389 0.0
C123 C 0.95239 0.28698 0.20762 0.0
C124 C 0.92793 0.28625 0.17351 0.0
C125 C 0.83765 0.20816 0.16115 0.0
H126 H 0.45988 0.85015 0.21268 0.0
C127 C 0.87368 0.21368 0.22218 0.0
C128 C 0.80512 0.16549 0.1952 0.0
H129 H 0.5311 0.92022 0.10536 0.0
H130 H 0.66075 0.04783 0.12622 0.0
H131 H 0.67346 0.94638 0.23975 0.0
H132 H 0.48007 0.97311 0.24326 0.0
H133 H 0.55579 1.02154 0.28058 0.0
H134 H 0.47683 0.92453 0.27655 0.0
H135 H 0.5614 0.89093 0.26443 0.0
H136 H 0.67465 0.97345 0.28302 0.0
C137 C 0.87165 0.18643 0.13299 0.0
C138 C 0.75878 0.20275 0.14721 0.0
C139 C 0.87781 0.18605 0.35421 0.0
C140 C 0.80575 0.13181 0.37765 0.0
C141 C 0.713 0.0684 0.3643 0.0
C142 C 0.69322 0.05824 0.32799 0.0
C143 C 0.76632 0.11287 0.30473 0.0
C144 C 0.85527 0.17647 0.31819 0.0
C145 C 0.91834 0.23267 0.29046 0.0
C146 C 0.85529 0.19059 0.25757 0.0
C147 C 0.76755 0.12007 0.26605 0.0
C148 C 1.0165 0.25467 0.28848 0.0
C149 C 0.92896 0.29567 0.30051 0.0
C150 C 0.50268 0.89279 0.1936 0.0
C151 C 0.485 0.87509 0.15758 0.0
C152 C 0.54323 0.93243 0.13342 0.0
C153 C 0.61942 1.00614 0.14551 0.0
C154 C 0.63912 1.02238 0.18203 0.0
C155 C 0.57923 0.96529 0.20515 0.0
C156 C 0.6089 0.98929 0.24288 0.0
C157 C 0.70096 0.06944 0.23897 0.0
C158 C 0.71901 0.09061 0.2034 0.0
C159 C 0.63049 0.94793 0.25863 0.0
C160 C 0.52631 0.97622 0.26204 0.0
H161 H 1.06743 0.35384 0.24774 0.0
H162 H 0.9653 0.35199 0.12848 0.0
H163 H 0.74136 0.22364 0.16748 0.0
H164 H 0.69002 0.14586 0.14056 0.0
H165 H 0.78455 0.23529 0.12314 0.0
H166 H 0.93829 0.20139 0.14215 0.0
H167 H 0.88992 0.21484 0.10799 0.0
H168 H 0.81621 0.12748 0.12733 0.0
H169 H 0.9497 0.23555 0.36366 0.0
H170 H 0.65646 1.02587 0.38187 0.0
H171 H 0.62199 1.00799 0.31945 0.0
H172 H 1.00894 0.21165 0.29881 0.0
H173 H 1.07496 0.30538 0.30413 0.0
H174 H 1.04196 0.26189 0.26099 0.0
H175 H 0.85707 0.27419 0.30861 0.0
H176 H 0.95379 0.3323 0.27878 0.0
H177 H 0.98035 0.32827 0.32306 0.0
H178 H 1.1683 0.46396 0.21647 0.0
C179 C 1.04177 0.3509 0.2223 0.0
C180 C 0.82892 0.79853 0.53502 0.0
C181 C 0.83557 0.84684 0.55632 0.0
C182 C 0.81555 0.83409 0.5926 0.0
C183 C 0.78037 0.72537 0.58599 0.0
C184 C 0.80004 0.73764 0.55033 0.0
C185 C 0.78406 0.67822 0.53162 0.0
H186 H 0.61779 0.34656 0.54155 0.0
C187 C 0.74845 0.65641 0.5936 0.0
C188 C 0.74884 0.62754 0.56179 0.0
H189 H 0.74372 0.4818 0.45039 0.0
H190 H 0.76906 0.57468 0.48436 0.0
H191 H 0.78064 0.46977 0.59187 0.0
H192 H 0.49317 0.37533 0.57021 0.0
H193 H 0.50977 0.3921 0.61596 0.0
H194 H 0.51432 0.33127 0.59588 0.0
H195 H 0.67245 0.38518 0.61006 0.0
H196 H 0.738 0.47105 0.63257 0.0
C197 C 0.88356 0.71182 0.51691 0.0
C198 C 0.70394 0.64209 0.5031 0.0
C199 C 0.66898 0.56834 0.71966 0.0
C200 C 0.6312 0.50379 0.73383 0.0
C201 C 0.60509 0.44858 0.71139 0.0
C202 C 0.61905 0.45819 0.67508 0.0
C203 C 0.65898 0.52358 0.66105 0.0
C204 C 0.68148 0.57681 0.68307 0.0
C205 C 0.71766 0.64067 0.66292 0.0
C206 C 0.7179 0.61824 0.62543 0.0
C207 C 0.68402 0.55002 0.62475 0.0
C208 C 0.82247 0.70938 0.67613 0.0
C209 C 0.64256 0.64513 0.66764 0.0
C210 C 0.64928 0.39566 0.5287 0.0
C211 C 0.6768 0.40657 0.49325 0.0
C212 C 0.72101 0.47224 0.47771 0.0
C213 C 0.73568 0.52583 0.49746 0.0
C214 C 0.70744 0.51382 0.53317 0.0
C215 C 0.66626 0.44973 0.54809 0.0
C216 C 0.64763 0.4473 0.58671 0.0
C217 C 0.68252 0.51996 0.59278 0.0
C218 C 0.71633 0.55876 0.56143 0.0
C219 C 0.71209 0.44258 0.60657 0.0
C220 C 0.53568 0.38302 0.59284 0.0
H221 H 0.77467 0.7675 0.63532 0.0
H222 H 0.84343 0.80702 0.507 0.0
H223 H 0.64095 0.63098 0.51402 0.0
H224 H 0.67334 0.58923 0.49333 0.0
H225 H 0.73302 0.6781 0.48026 0.0
H226 H 0.94444 0.75446 0.53539 0.0
H227 H 0.89958 0.73749 0.49118 0.0
H228 H 0.88706 0.67176 0.51381 0.0
H229 H 0.68705 0.61062 0.73653 0.0
H230 H 0.57559 0.39842 0.7221 0.0
H231 H 0.59884 0.4144 0.65945 0.0
H232 H 0.86692 0.69763 0.67874 0.0
H233 H 0.82039 0.72817 0.70241 0.0
H234 H 0.86332 0.75492 0.65785 0.0
H235 H 0.56927 0.59235 0.67568 0.0
H236 H 0.6285 0.65746 0.64273 0.0
H237 H 0.66721 0.6865 0.68817 0.0
H238 H 0.82125 0.87108 0.60948 0.0
C239 C 0.78855 0.77395 0.60755 0.0
C240 C 0.40266 0.53072 0.83076 0.0
C241 C 0.43933 0.50633 0.84986 0.0
C242 C 0.39368 0.4743 0.8825 0.0
C243 C 0.30146 0.50562 0.88087 0.0
C244 C 0.32881 0.52608 0.84642 0.0
C245 C 0.26862 0.54049 0.83205 0.0
H246 H 0.98236 0.60823 0.88567 0.0
C247 C 0.24107 0.51816 0.89352 0.0
C248 C 0.21039 0.5316 0.86476 0.0
H249 H 0.90216 0.47995 0.79169 0.0
H250 H 1.02958 0.48249 0.80495 0.0
H251 H 0.95905 0.50143 0.92715 0.0
H252 H 0.21822 0.71146 0.89007 0.0
H253 H 0.25126 0.70511 0.93118 0.0
H254 H 1.15423 0.7006 0.92854 0.0
H255 H 1.00513 0.58476 0.9458 0.0
H256 H 1.04292 0.54425 0.96201 0.0
C257 C 0.19826 0.48432 0.80281 0.0
C258 C 0.33878 0.61802 0.81822 0.0
C259 C 0.26687 0.57296 0.0259 0.0
C260 C 0.25003 0.60897 0.04606 0.0
C261 C 0.2239 0.63987 0.02878 0.0
C262 C 0.20942 0.63173 -0.00781 0.0
C263 C 0.22031 0.59161 0.9724 0.0
C264 C 0.25381 0.56646 -0.01101 0.0
C265 C 0.26619 0.52845 0.96338 0.0
C266 C 0.23532 0.53587 0.92856 0.0
C267 C 0.20335 0.56925 0.93447 0.0
C268 C 0.19329 0.44781 0.97385 0.0
C269 C 0.37532 0.56879 0.96411 0.0
C270 C 0.99395 0.58327 0.8667 0.0
C271 C 0.93254 0.54712 0.83661 0.0
C272 C 0.94875 0.51098 0.81459 0.0
C273 C 1.02384 0.51306 0.82197 0.0
C274 C 1.08465 0.55017 0.85243 0.0
C275 C 1.06355 0.58098 0.87471 0.0
C276 C 1.10979 0.59955 0.91029 0.0
C277 C 1.1587 0.57318 0.90679 0.0
C278 C 1.15405 0.54967 0.87191 0.0
C279 C 1.02587 0.55605 0.93799 0.0
C280 C 1.18693 0.68336 0.91565 0.0
H281 H 0.29685 0.44888 0.92271 0.0
H282 H 0.42937 0.55154 0.80451 0.0
H283 H 0.3904 0.65842 0.83939 0.0
H284 H 0.29705 0.62954 0.80915 0.0
H285 H 0.38227 0.62519 0.79573 0.0
H286 H 1.14456 0.4285 0.81334 0.0
H287 H 0.23957 0.48667 0.78111 0.0
H288 H 1.15753 0.4951 0.79158 0.0
H289 H 0.28596 0.548 0.03865 0.0
H290 H 0.20942 0.66709 0.04393 0.0
H291 H 1.18568 0.65411 0.98102 0.0
H292 H 1.12244 0.4272 0.9828 0.0
H293 H 0.22339 0.44113 -0.00427 0.0
H294 H 1.17398 0.41152 0.95145 0.0
H295 H 0.41589 0.60615 0.98744 0.0
H296 H 0.41563 0.60274 0.94056 0.0
H297 H 0.3827 0.53079 0.9659 0.0
H298 H 0.41102 0.44988 0.8971 0.0
C299 C 0.32752 0.47453 0.89787 0.0
C300 C 1.0973 0.42777 0.47401 0.0
C301 C 1.02429 0.35837 0.45693 0.0
C302 C 1.0137 0.35476 0.42027 0.0
C303 C 1.14098 0.48542 0.41723 0.0
C304 C 1.15563 0.49136 0.45328 0.0
C305 C 0.23776 0.57145 0.4648 0.0
H306 H 0.52559 0.92527 0.41431 0.0
C307 C 0.20429 0.55848 0.40277 0.0
C308 C 0.26167 0.61068 0.43027 0.0
H309 H 0.54974 0.86483 0.51416 0.0
H310 H 0.41808 0.73558 0.49586 0.0
H311 H 0.543 0.83864 0.3734 0.0
H312 H 0.29186 0.79575 0.40181 0.0
H313 H 0.27691 0.76897 0.35717 0.0
H314 H 0.38262 0.86207 0.37053 0.0
H315 H 0.50507 0.87126 0.34774 0.0
H316 H 0.46102 0.7841 0.33844 0.0
C317 C 0.32497 0.58564 0.47767 0.0
C318 C 0.19958 0.5891 0.49333 0.0
C319 C 0.19476 0.57931 0.27121 0.0
C320 C 0.24572 0.63899 0.24939 0.0
C321 C 0.29641 0.70776 0.26446 0.0
C322 C 0.30448 0.71806 0.30126 0.0
C323 C 0.26104 0.65874 0.3229 0.0
C324 C 0.20347 0.59039 0.30773 0.0
C325 C 1.16006 0.53332 0.33446 0.0
C326 C 0.20894 0.57956 0.36809 0.0
C327 C 0.26738 0.65256 0.36116 0.0
C328 C 1.19164 0.49434 0.32495 0.0
C329 C 1.04776 0.48391 0.33443 0.0
C330 C 0.50274 0.88484 0.43268 0.0
C331 C 0.54741 0.90554 0.46578 0.0
C332 C 0.51638 0.85036 0.48835 0.0
C333 C 0.44043 0.77567 0.47769 0.0
C334 C 0.39804 0.75655 0.44373 0.0
C335 C 0.432 0.81197 0.42195 0.0
C336 C 0.39203 0.78644 0.38535 0.0
C337 C 0.32555 0.70584 0.38834 0.0
C338 C 0.32574 0.68649 0.42274 0.0
C339 C 0.4791 0.8219 0.35972 0.0
C340 C 0.33315 0.80445 0.37799 0.0
H341 H 1.05749 0.40863 0.37283 0.0
H342 H 1.10662 0.43229 0.50235 0.0
H343 H 1.13281 0.57355 0.48379 0.0
H344 H 0.25463 0.64773 0.50035 0.0
H345 H 1.18042 0.55884 0.51769 0.0
H346 H 0.34195 0.56332 0.4582 0.0
H347 H 0.3078 0.55915 0.50325 0.0
H348 H 0.39248 0.64408 0.48091 0.0
H349 H 1.15362 0.52559 0.26009 0.0
H350 H 0.33513 0.75425 0.24794 0.0
H351 H 0.34774 0.77233 0.3113 0.0
H352 H 0.26623 0.53275 0.31321 0.0
H353 H 1.14069 0.44925 0.30541 0.0
H354 H 0.19792 0.4733 0.34809 0.0
H355 H 1.03078 0.51511 0.32802 0.0
H356 H 1.01356 0.46119 0.36047 0.0
H357 H 1.00993 0.43919 0.31442 0.0
H358 H 0.95725 0.30281 0.40676 0.0
C359 C 1.07129 0.41694 0.40053 0.0
C360 C 0.79854 0.94511 0.77882 0.0
C361 C 0.82388 0.91534 0.7577 0.0
C362 C 0.83475 0.92679 0.72105 0.0
C363 C 0.79707 0.99702 0.7271 0.0
C364 C 0.78615 0.98604 0.76305 0.0
C365 C 0.76087 1.02278 0.78148 0.0
H366 H 0.67119 0.22972 0.76857 0.0
C367 C 0.78013 1.04216 0.71887 0.0
C368 C 0.75964 0.05812 0.75077 0.0
H369 H 0.657 0.13507 0.86286 0.0
H370 H 0.70669 0.08466 0.82945 0.0
H371 H 0.86925 0.28203 0.73568 0.0
H372 H 0.55961 0.0965 0.72306 0.0
H373 H 0.60796 0.10577 0.68159 0.0
H374 H 0.624 0.17823 0.69958 0.0
H375 H 0.79022 0.28365 0.71344 0.0
H376 H 0.84759 0.26095 0.69024 0.0
C377 C 0.84331 0.07992 0.80828 0.0
C378 C 0.65839 0.96346 0.79826 0.0
C379 C 0.78033 0.09833 0.59107 0.0
C380 C 0.7595 0.13438 0.57601 0.0
C381 C 0.74455 0.16972 0.59803 0.0
C382 C 0.74824 0.16812 0.63471 0.0
C383 C 0.76481 0.12923 0.64965 0.0
C384 C 0.78188 0.09592 0.62799 0.0
C385 C 0.79518 0.05534 0.64883 0.0
C386 C 0.78095 0.06859 0.68645 0.0
C387 C 0.7633 0.11187 0.68653 0.0
C388 C 0.90073 0.09114 0.64255 0.0
C389 C 0.71355 0.97391 0.63753 0.0
C390 C 0.68036 0.19906 0.78209 0.0
C391 C 0.66153 0.18675 0.81819 0.0
C392 C 0.67209 0.14548 0.83496 0.0
C393 C 0.70036 0.11613 0.81548 0.0
C394 C 0.71699 0.12773 0.77889 0.0
C395 C 0.707 0.16897 0.76306 0.0
C396 C 0.72159 0.17319 0.72399 0.0
C397 C 0.74345 0.12853 0.71858 0.0
C398 C 0.74121 0.10189 0.75066 0.0
C399 C 0.8113 0.25405 0.71504 0.0
C400 C 0.62397 0.13717 0.70588 0.0
H401 H 0.83086 0.97366 0.67773 0.0
H402 H 0.79014 0.93776 0.80706 0.0
H403 H 0.60837 0.91466 0.78042 0.0
H404 H 0.62164 0.98107 0.8028 0.0
H405 H 0.66306 0.94599 0.82363 0.0
H406 H 0.91649 0.11061 0.79653 0.0
H407 H 0.83662 0.05351 0.83231 0.0
H408 H 0.84428 0.12121 0.81621 0.0
H409 H 0.7903 0.06975 0.57458 0.0
H410 H 0.72787 0.19739 0.58677 0.0
H411 H 0.73533 0.19568 0.64994 0.0
H412 H 0.95271 0.15065 0.63878 0.0
H413 H 0.90423 0.06758 0.61861 0.0
H414 H 0.93053 0.08657 0.66533 0.0
H415 H 0.64269 0.95657 0.63364 0.0
H416 H 0.6984 0.93741 0.65757 0.0
H417 H 0.73216 0.96351 0.6123 0.0
H418 H 0.85245 0.90359 0.70401 0.0
C419 C 0.82165 0.9673 0.70574 0.0
C420 C 0.64076 0.28981 0.10112 0.0
C421 C 0.72708 0.32475 0.08229 0.0
C422 C 0.71819 0.30989 0.0457 0.0
C423 C 0.56808 0.27857 0.04674 0.0
C424 C 0.56445 0.27316 0.08298 0.0
C425 C 0.49417 0.27399 0.09929 0.0
H426 H 0.33908 0.42844 0.09767 0.0
C427 C 0.51248 0.2948 0.03686 0.0
C428 C 0.465 0.28877 0.06731 0.0
H429 H 0.36537 0.34003 0.18374 0.0
H430 H 0.36555 0.26799 0.14246 0.0
H431 H 0.50432 0.49165 0.0734 0.0
H432 H 0.23682 0.29052 0.02995 0.0
H433 H 0.31473 0.34781 -0.00512 0.0
H434 H 0.28049 0.37798 0.02746 0.0
H435 H 0.44956 0.4903 0.0356 0.0
H436 H 0.54063 0.48861 0.03217 0.0
C437 C 0.55075 0.33727 0.12764 0.0
C438 C 0.40591 0.1974 0.11364 0.0
C439 C 0.6444 0.4593 0.93315 0.0
C440 C 0.63462 0.50466 0.9228 0.0
C441 C 0.56672 0.50098 0.93997 0.0
C442 C 0.50756 0.45115 0.96683 0.0
C443 C 0.5215 0.40836 0.97812 0.0
C444 C 0.58842 0.41247 0.96105 0.0
C445 C 0.59617 0.365 0.97691 0.0
C446 C 0.52515 0.33361 0.00769 0.0
C447 C 0.48212 0.35959 0.00817 0.0
C448 C 0.70457 0.41392 -0.01123 0.0
C449 C 0.55888 0.30508 0.94934 0.0
C450 C 0.3399 0.39042 0.10739 0.0
C451 C 0.3544 0.39038 0.14341 0.0
C452 C 0.35562 0.34133 0.15587 0.0
C453 C 0.35785 0.30098 0.13174 0.0
C454 C 0.36948 0.31654 0.09559 0.0
C455 C 0.35575 0.35803 0.0837 0.0
C456 C 0.39061 0.38208 0.04647 0.0
C457 C 0.42745 0.34807 0.03789 0.0
C458 C 0.41621 0.31072 0.0669 0.0
C459 C 0.47478 0.4671 0.04657 0.0
C460 C 0.30133 0.34834 0.02328 0.0
H461 H 0.63493 0.28066 -0.00056 0.0
H462 H 0.64266 0.29454 0.12962 0.0
H463 H 0.38917 0.15445 0.0965 0.0
H464 H 0.33738 0.18375 0.11388 0.0
H465 H 0.42124 0.192 0.14058 0.0
H466 H 0.63106 0.38027 0.12276 0.0
H467 H 0.53939 0.31718 0.15462 0.0
H468 H 0.53283 0.36864 0.12742 0.0
H469 H 0.69603 0.461 0.92007 0.0
H470 H 0.55799 0.53543 0.93211 0.0
H471 H 0.45509 0.44918 0.97841 0.0
H472 H 0.75612 0.46992 0.97859 0.0
H473 H 0.73389 0.39222 0.97903 0.0
H474 H 0.71238 0.42112 0.01789 0.0
H475 H 0.49337 0.28464 0.93505 0.0
H476 H 0.53508 0.2569 0.96156 0.0
H477 H 0.6165 0.32643 0.92956 0.0
H478 H 0.78094 0.32988 0.03059 0.0
C479 C 0.63638 0.28517 0.02764 0.0
loop_
_geom_bond_atom_site_label_1
_geom_bond_atom_site_label_2
_geom_bond_distance
_geom_bond_site_symmetry_2
_ccdc_geom_bond_type
La0 C2 2.928 . S
La0 O20 2.521 . S
La0 O21 2.628 . S
La0 O22 2.554 . S
La0 O23 2.757 . S
La0 O24 2.470 . S
La0 O29 2.482 . S
La0 O31 2.503 1_455 S
La1 C11 2.928 . S
La1 O23 2.482 1_655 S
La1 O25 2.503 1_655 S
La1 O26 2.521 . S
La1 O27 2.628 . S
La1 O28 2.554 . S
La1 O29 2.757 1_655 S
La1 O30 2.470 . S
C2 La0 2.928 . S
C2 C3 1.503 . S
C2 O20 1.261 . S
C2 O21 1.243 . S
C3 C2 1.503 . S
C3 C4 1.394 . S
C3 C8 1.373 . S
C4 C3 1.394 . S
C4 C5 1.380 . S
C4 H32 0.930 . S
C5 C4 1.380 . S
C5 C6 1.376 . S
C5 H33 0.930 . S
C6 C5 1.376 . S
C6 C7 1.370 . S
C7 C6 1.370 . S
C7 C8 1.396 . S
C7 H34 0.929 . S
C8 C3 1.373 . S
C8 C7 1.396 . S
C8 H35 0.929 . S
C9 O22 1.240 . S
C9 O23 1.289 . S
C10 O24 1.258 . S
C10 O25 1.256 . S
C11 La1 2.928 . S
C11 C12 1.503 . S
C11 O26 1.261 . S
C11 O27 1.243 . S
C12 C11 1.503 . S
C12 C13 1.394 . S
C12 C17 1.373 . S
C13 C12 1.394 . S
C13 C14 1.380 . S
C13 H36 0.930 . S
C14 C13 1.380 . S
C14 C15 1.376 . S
C14 H37 0.930 . S
C15 C14 1.376 . S
C15 C16 1.370 . S
C16 C15 1.370 . S
C16 C17 1.396 . S
C16 H38 0.929 . S
C17 C12 1.373 . S
C17 C16 1.396 . S
C17 H39 0.929 . S
C18 O28 1.240 1_455 S
C18 O29 1.289 . S
C19 O30 1.258 . S
C19 O31 1.256 . S
O20 La0 2.521 . S
O20 C2 1.261 . S
O21 La0 2.628 . S
O21 C2 1.243 . S
O22 La0 2.554 . S
O22 C9 1.240 . S
O23 La0 2.757 . S
O23 La1 2.482 1_455 S
O23 C9 1.289 . S
O24 La0 2.470 . S
O24 C10 1.258 . S
O25 La1 2.503 1_455 S
O25 C10 1.256 . S
O26 La1 2.521 . S
O26 C11 1.261 . S
O27 La1 2.628 . S
O27 C11 1.243 . S
O28 La1 2.554 . S
O28 C18 1.240 1_655 S
O29 La0 2.482 . S
O29 La1 2.757 1_455 S
O29 C18 1.289 . S
O30 La1 2.470 . S
O30 C19 1.258 . S
O31 La0 2.503 1_655 S
O31 C19 1.256 . S
H32 C4 0.930 . S
H33 C5 0.930 . S
H34 C7 0.929 . S
H35 C8 0.929 . S
H36 C13 0.930 . S
H37 C14 0.930 . S
H38 C16 0.929 . S
H39 C17 0.929 . S
La40 C42 2.928 . S
La40 O60 2.521 . S
La40 O61 2.628 . S
La40 O62 2.554 . S
La40 O63 2.757 1_565 S
La40 O64 2.470 . S
La40 O69 2.482 . S
La40 O71 2.503 1_565 S
La41 C51 2.928 . S
La41 O63 2.482 . S
La41 O65 2.503 1_545 S
La41 O66 2.521 . S
La41 O67 2.628 . S
La41 O68 2.554 . S
La41 O69 2.757 1_545 S
La41 O70 2.470 . S
C42 La40 2.928 . S
C42 C43 1.503 . S
C42 O60 1.261 . S
C42 O61 1.243 . S
C43 C42 1.503 . S
C43 C44 1.394 . S
C43 C48 1.373 . S
C44 C43 1.394 . S
C44 C45 1.380 . S
C44 H72 0.930 . S
C45 C44 1.380 . S
C45 C46 1.376 . S
C45 H73 0.930 . S
C46 C45 1.376 . S
C46 C47 1.370 . S
C47 C46 1.370 . S
C47 C48 1.396 . S
C47 H74 0.929 . S
C48 C43 1.373 . S
C48 C47 1.396 . S
C48 H75 0.929 . S
C49 O62 1.240 1_545 S
C49 O63 1.289 . S
C50 O64 1.258 . S
C50 O65 1.256 . S
C51 La41 2.928 . S
C51 C52 1.503 . S
C51 O66 1.261 . S
C51 O67 1.243 . S
C52 C51 1.503 . S
C52 C53 1.394 . S
C52 C57 1.373 . S
C53 C52 1.394 . S
C53 C54 1.380 . S
C53 H76 0.930 . S
C54 C53 1.380 . S
C54 C55 1.376 . S
C54 H77 0.930 . S
C55 C54 1.376 . S
C55 C56 1.370 . S
C56 C55 1.370 . S
C56 C57 1.396 . S
C56 H78 0.929 . S
C57 C52 1.373 . S
C57 C56 1.396 . S
C57 H79 0.929 . S
C58 O68 1.240 . S
C58 O69 1.289 1_545 S
C59 O70 1.258 . S
C59 O71 1.256 . S
O60 La40 2.521 . S
O60 C42 1.261 . S
O61 La40 2.628 . S
O61 C42 1.243 . S
O62 La40 2.554 . S
O62 C49 1.240 1_565 S
O63 La40 2.757 1_545 S
O63 La41 2.482 . S
O63 C49 1.289 . S
O64 La40 2.470 . S
O64 C50 1.258 . S
O65 La41 2.503 1_565 S
O65 C50 1.256 . S
O66 La41 2.521 . S
O66 C51 1.261 . S
O67 La41 2.628 . S
O67 C51 1.243 . S
O68 La41 2.554 . S
O68 C58 1.240 . S
O69 La40 2.482 . S
O69 La41 2.757 1_565 S
O69 C58 1.289 1_565 S
O70 La41 2.470 . S
O70 C59 1.258 . S
O71 La40 2.503 1_545 S
O71 C59 1.256 . S
H72 C44 0.930 . S
H73 C45 0.930 . S
H74 C47 0.929 . S
H75 C48 0.929 . S
H76 C53 0.930 . S
H77 C54 0.930 . S
H78 C56 0.929 . S
H79 C57 0.929 . S
La80 C82 2.928 . S
La80 O100 2.521 . S
La80 O101 2.628 . S
La80 O102 2.554 . S
La80 O103 2.757 . S
La80 O104 2.470 . S
La80 O109 2.482 . S
La80 O111 2.503 . S
La81 C91 2.928 . S
La81 O103 2.482 . S
La81 O105 2.503 . S
La81 O106 2.521 . S
La81 O107 2.628 . S
La81 O108 2.554 . S
La81 O109 2.757 . S
La81 O110 2.470 . S
C82 La80 2.928 . S
C82 C83 1.503 . S
C82 O100 1.261 . S
C82 O101 1.243 . S
C83 C82 1.503 . S
C83 C84 1.394 . S
C83 C88 1.373 . S
C84 C83 1.394 . S
C84 C85 1.380 . S
C84 H112 0.930 . S
C85 C84 1.380 . S
C85 C86 1.376 . S
C85 H113 0.930 . S
C86 C85 1.376 . S
C86 C87 1.370 . S
C87 C86 1.370 . S
C87 C88 1.396 . S
C87 H114 0.929 . S
C88 C83 1.373 . S
C88 C87 1.396 . S
C88 H115 0.929 . S
C89 O102 1.240 . S
C89 O103 1.289 . S
C90 O104 1.258 . S
C90 O105 1.256 . S
C91 La81 2.928 . S
C91 C92 1.503 . S
C91 O106 1.261 . S
C91 O107 1.243 . S
C92 C91 1.503 . S
C92 C93 1.394 . S
C92 C97 1.373 . S
C93 C92 1.394 . S
C93 C94 1.380 . S
C93 H116 0.930 . S
C94 C93 1.380 . S
C94 C95 1.376 . S
C94 H117 0.930 . S
C95 C94 1.376 . S
C95 C96 1.370 . S
C96 C95 1.370 . S
C96 C97 1.396 . S
C96 H118 0.929 . S
C97 C92 1.373 . S
C97 C96 1.396 . S
C97 H119 0.929 . S
C98 O108 1.240 . S
C98 O109 1.289 . S
C99 O110 1.258 . S
C99 O111 1.256 . S
O100 La80 2.521 . S
O100 C82 1.261 . S
O101 La80 2.628 . S
O101 C82 1.243 . S
O102 La80 2.554 . S
O102 C89 1.240 . S
O103 La80 2.757 . S
O103 La81 2.482 . S
O103 C89 1.289 . S
O104 La80 2.470 . S
O104 C90 1.258 . S
O105 La81 2.503 . S
O105 C90 1.256 . S
O106 La81 2.521 . S
O106 C91 1.261 . S
O107 La81 2.628 . S
O107 C91 1.243 . S
O108 La81 2.554 . S
O108 C98 1.240 . S
O109 La80 2.482 . S
O109 La81 2.757 . S
O109 C98 1.289 . S
O110 La81 2.470 . S
O110 C99 1.258 . S
O111 La80 2.503 . S
O111 C99 1.256 . S
H112 C84 0.930 . S
H113 C85 0.930 . S
H114 C87 0.929 . S
H115 C88 0.929 . S
H116 C93 0.930 . S
H117 C94 0.930 . S
H118 C96 0.929 . S
H119 C97 0.929 . S
C120 C121 1.391 . S
C120 C124 1.391 . S
C120 H162 0.948 . S
C121 C120 1.391 . S
C121 C122 1.391 . S
C122 C121 1.391 . S
C122 H178 0.947 . S
C122 C179 1.392 . S
C123 C124 1.391 . S
C123 C127 1.397 . S
C123 C179 1.419 . S
C124 C120 1.391 . S
C124 C123 1.391 . S
C124 C125 1.399 . S
C125 C124 1.399 . S
C125 C128 1.396 . S
C125 C137 1.453 . S
C125 C138 1.684 . S
H126 C150 0.948 . S
C127 C123 1.397 . S
C127 C128 1.394 . S
C127 C146 1.723 . S
C128 C125 1.396 . S
C128 C127 1.394 . S
C128 C158 1.723 1_545 S
H129 C152 0.947 . S
H130 C153 0.948 . S
H131 C159 0.982 . S
H132 C160 0.979 . S
H133 C160 0.980 . S
H134 C160 0.983 . S
H135 C159 0.979 . S
H136 C159 0.977 . S
C137 C125 1.453 . S
C137 H166 0.982 . S
C137 H167 0.979 . S
C137 H168 0.977 . S
C138 C125 1.684 . S
C138 H163 0.979 . S
C138 H164 0.980 . S
C138 H165 0.983 . S
C139 C140 1.391 . S
C139 C144 1.391 . S
C139 H169 0.948 . S
C140 C139 1.391 . S
C140 C141 1.391 1_545 S
C141 C140 1.391 1_565 S
C141 C142 1.392 . S
C141 H170 0.947 . S
C142 C141 1.392 . S
C142 C143 1.419 1_565 S
C142 H171 0.948 . S
C143 C142 1.419 1_545 S
C143 C144 1.391 . S
C143 C147 1.397 . S
C144 C139 1.391 . S
C144 C143 1.391 . S
C144 C145 1.399 . S
C145 C144 1.399 . S
C145 C146 1.396 . S
C145 C148 1.453 . S
C145 C149 1.684 . S
C146 C127 1.723 . S
C146 C145 1.396 . S
C146 C147 1.394 . S
C147 C143 1.397 . S
C147 C146 1.394 . S
C147 C157 1.723 1_545 S
C148 C145 1.453 . S
C148 H172 0.982 . S
C148 H173 0.979 . S
C148 H174 0.977 . S
C149 C145 1.684 . S
C149 H175 0.979 . S
C149 H176 0.980 . S
C149 H177 0.983 . S
C150 H126 0.948 . S
C150 C151 1.391 . S
C150 C155 1.391 . S
C151 C150 1.391 . S
C151 C152 1.391 . S
C152 H129 0.947 . S
C152 C151 1.391 . S
C152 C153 1.392 . S
C153 H130 0.948 . S
C153 C152 1.392 . S
C153 C154 1.419 . S
C154 C153 1.419 . S
C154 C155 1.391 . S
C154 C158 1.397 . S
C155 C150 1.391 . S
C155 C154 1.391 . S
C155 C156 1.399 . S
C156 C155 1.399 . S
C156 C157 1.396 . S
C156 C159 1.453 . S
C156 C160 1.684 . S
C157 C147 1.723 1_565 S
C157 C156 1.396 . S
C157 C158 1.394 . S
C158 C128 1.723 1_565 S
C158 C154 1.397 . S
C158 C157 1.394 . S
C159 H131 0.982 . S
C159 H135 0.979 . S
C159 H136 0.977 . S
C159 C156 1.453 . S
C160 H132 0.979 . S
C160 H133 0.980 . S
C160 H134 0.983 . S
C160 C156 1.684 . S
H161 C179 0.948 . S
H162 C120 0.948 . S
H163 C138 0.979 . S
H164 C138 0.980 . S
H165 C138 0.983 . S
H166 C137 0.982 . S
H167 C137 0.979 . S
H168 C137 0.977 . S
H169 C139 0.948 . S
H170 C141 0.947 . S
H171 C142 0.948 . S
H172 C148 0.982 . S
H173 C148 0.979 . S
H174 C148 0.977 . S
H175 C149 0.979 . S
H176 C149 0.980 . S
H177 C149 0.983 . S
H178 C122 0.947 . S
C179 C122 1.392 . S
C179 C123 1.419 . S
C179 H161 0.948 . S
C180 C181 1.391 . S
C180 C184 1.391 . S
C180 H222 0.948 . S
C181 C180 1.391 . S
C181 C182 1.391 . S
C182 C181 1.391 . S
C182 H238 0.947 . S
C182 C239 1.392 . S
C183 C184 1.391 . S
C183 C187 1.397 . S
C183 C239 1.419 . S
C184 C180 1.391 . S
C184 C183 1.391 . S
C184 C185 1.399 . S
C185 C184 1.399 . S
C185 C188 1.396 . S
C185 C197 1.453 . S
C185 C198 1.684 . S
H186 C210 0.948 . S
C187 C183 1.397 . S
C187 C188 1.394 . S
C187 C206 1.723 . S
C188 C185 1.396 . S
C188 C187 1.394 . S
C188 C218 1.723 . S
H189 C212 0.947 . S
H190 C213 0.948 . S
H191 C219 0.982 . S
H192 C220 0.979 . S
H193 C220 0.980 . S
H194 C220 0.983 . S
H195 C219 0.979 . S
H196 C219 0.977 . S
C197 C185 1.453 . S
C197 H226 0.982 . S
C197 H227 0.979 . S
C197 H228 0.977 . S
C198 C185 1.684 . S
C198 H223 0.979 . S
C198 H224 0.980 . S
C198 H225 0.983 . S
C199 C200 1.391 . S
C199 C204 1.391 . S
C199 H229 0.948 . S
C200 C199 1.391 . S
C200 C201 1.391 . S
C201 C200 1.391 . S
C201 C202 1.392 . S
C201 H230 0.947 . S
C202 C201 1.392 . S
C202 C203 1.419 . S
C202 H231 0.948 . S
C203 C202 1.419 . S
C203 C204 1.391 . S
C203 C207 1.397 . S
C204 C199 1.391 . S
C204 C203 1.391 . S
C204 C205 1.399 . S
C205 C204 1.399 . S
C205 C206 1.396 . S
C205 C208 1.453 . S
C205 C209 1.684 . S
C206 C187 1.723 . S
C206 C205 1.396 . S
C206 C207 1.394 . S
C207 C203 1.397 . S
C207 C206 1.394 . S
C207 C217 1.723 . S
C208 C205 1.453 . S
C208 H232 0.982 . S
C208 H233 0.979 . S
C208 H234 0.977 . S
C209 C205 1.684 . S
C209 H235 0.979 . S
C209 H236 0.980 . S
C209 H237 0.983 . S
C210 H186 0.948 . S
C210 C211 1.391 . S
C210 C215 1.391 . S
C211 C210 1.391 . S
C211 C212 1.391 . S
C212 H189 0.947 . S
C212 C211 1.391 . S
C212 C213 1.392 . S
C213 H190 0.948 . S
C213 C212 1.392 . S
C213 C214 1.419 . S
C214 C213 1.419 . S
C214 C215 1.391 . S
C214 C218 1.397 . S
C215 C210 1.391 . S
C215 C214 1.391 . S
C215 C216 1.399 . S
C216 C215 1.399 . S
C216 C217 1.396 . S
C216 C219 1.453 . S
C216 C220 1.684 . S
C217 C207 1.723 . S
C217 C216 1.396 . S
C217 C218 1.394 . S
C218 C188 1.723 . S
C218 C214 1.397 . S
C218 C217 1.394 . S
C219 H191 0.982 . S
C219 H195 0.979 . S
C219 H196 0.977 . S
C219 C216 1.453 . S
C220 H192 0.979 . S
C220 H193 0.980 . S
C220 H194 0.983 . S
C220 C216 1.684 . S
H221 C239 0.948 . S
H222 C180 0.948 . S
H223 C198 0.979 . S
H224 C198 0.980 . S
H225 C198 0.983 . S
H226 C197 0.982 . S
H227 C197 0.979 . S
H228 C197 0.977 . S
H229 C199 0.948 . S
H230 C201 0.947 . S
H231 C202 0.948 . S
H232 C208 0.982 . S
H233 C208 0.979 . S
H234 C208 0.977 . S
H235 C209 0.979 . S
H236 C209 0.980 . S
H237 C209 0.983 . S
H238 C182 0.947 . S
C239 C182 1.392 . S
C239 C183 1.419 . S
C239 H221 0.948 . S
C240 C241 1.391 . S
C240 C244 1.391 . S
C240 H282 0.948 . S
C241 C240 1.391 . S
C241 C242 1.391 . S
C242 C241 1.391 . S
C242 H298 0.947 . S
C242 C299 1.392 . S
C243 C244 1.391 . S
C243 C247 1.397 . S
C243 C299 1.419 . S
C244 C240 1.391 . S
C244 C243 1.391 . S
C244 C245 1.399 . S
C245 C244 1.399 . S
C245 C248 1.396 . S
C245 C257 1.453 . S
C245 C258 1.684 . S
H246 C270 0.948 . S
C247 C243 1.397 . S
C247 C248 1.394 . S
C247 C266 1.723 . S
C248 C245 1.396 . S
C248 C247 1.394 . S
C248 C278 1.723 . S
H249 C272 0.947 . S
H250 C273 0.948 1_455 S
H251 C279 0.982 . S
H252 C280 0.979 1_455 S
H253 C280 0.980 . S
H254 C280 0.983 . S
H255 C279 0.979 . S
H256 C279 0.977 . S
C257 C245 1.453 . S
C257 H286 0.982 . S
C257 H287 0.979 . S
C257 H288 0.977 . S
C258 C245 1.684 . S
C258 H283 0.979 . S
C258 H284 0.980 . S
C258 H285 0.983 . S
C259 C260 1.391 . S
C259 C264 1.388 . S
C259 H289 0.948 . S
C260 C259 1.391 . S
C260 C261 1.391 . S
C261 C260 1.391 . S
C261 C262 1.392 . S
C261 H290 0.947 1_455 S
C262 C261 1.392 . S
C262 C263 1.419 1_554 S
C262 H291 0.948 1_454 S
C263 C262 1.419 1_556 S
C263 C264 1.393 1_556 S
C263 C267 1.397 . S
C264 C259 1.388 . S
C264 C263 1.393 1_554 S
C264 C265 1.402 1_554 S
C265 C264 1.402 1_556 S
C265 C266 1.396 . S
C265 C268 1.453 . S
C265 C269 1.684 . S
C266 C247 1.723 . S
C266 C265 1.396 . S
C266 C267 1.394 . S
C267 C263 1.397 . S
C267 C266 1.394 . S
C267 C277 1.723 1_455 S
C268 C265 1.453 . S
C268 H292 0.982 . S
C268 H293 0.979 . S
C268 H294 0.977 . S
C269 C265 1.684 . S
C269 H295 0.979 . S
C269 H296 0.980 . S
C269 H297 0.983 1_556 S
C270 H246 0.948 . S
C270 C271 1.391 . S
C270 C275 1.391 . S
C271 C270 1.391 . S
C271 C272 1.391 . S
C272 H249 0.947 . S
C272 C271 1.391 . S
C272 C273 1.392 . S
C273 H250 0.948 1_655 S
C273 C272 1.392 . S
C273 C274 1.419 . S
C274 C273 1.419 . S
C274 C275 1.391 . S
C274 C278 1.397 1_655 S
C275 C270 1.391 . S
C275 C274 1.391 . S
C275 C276 1.399 . S
C276 C275 1.399 . S
C276 C277 1.396 . S
C276 C279 1.453 . S
C276 C280 1.684 . S
C277 C267 1.723 1_655 S
C277 C276 1.396 . S
C277 C278 1.394 1_655 S
C278 C248 1.723 . S
C278 C274 1.397 1_455 S
C278 C277 1.394 1_455 S
C279 H251 0.982 . S
C279 H255 0.979 . S
C279 H256 0.977 . S
C279 C276 1.453 . S
C280 H252 0.979 1_655 S
C280 H253 0.980 . S
C280 H254 0.983 . S
C280 C276 1.684 . S
H281 C299 0.948 . S
H282 C240 0.948 . S
H283 C258 0.979 . S
H284 C258 0.980 . S
H285 C258 0.983 . S
H286 C257 0.982 . S
H287 C257 0.979 . S
H288 C257 0.977 . S
H289 C259 0.948 . S
H290 C261 0.947 1_655 S
H291 C262 0.948 1_656 S
H292 C268 0.982 . S
H293 C268 0.979 . S
H294 C268 0.977 . S
H295 C269 0.979 . S
H296 C269 0.980 . S
H297 C269 0.983 1_554 S
H298 C242 0.947 . S
C299 C242 1.392 . S
C299 C243 1.419 . S
C299 H281 0.948 . S
C300 C301 1.391 . S
C300 C304 1.391 . S
C300 H342 0.948 . S
C301 C300 1.391 . S
C301 C302 1.391 . S
C302 C301 1.391 . S
C302 H358 0.947 . S
C302 C359 1.392 . S
C303 C304 1.391 . S
C303 C307 1.397 . S
C303 C359 1.419 . S
C304 C300 1.391 . S
C304 C303 1.391 . S
C304 C305 1.399 . S
C305 C304 1.399 . S
C305 C308 1.396 . S
C305 C317 1.453 . S
C305 C318 1.684 . S
H306 C330 0.948 . S
C307 C303 1.397 . S
C307 C308 1.394 . S
C307 C326 1.723 . S
C308 C305 1.396 . S
C308 C307 1.394 . S
C308 C338 1.723 1_655 S
H309 C332 0.947 . S
H310 C333 0.948 . S
H311 C339 0.982 . S
H312 C340 0.979 . S
H313 C340 0.980 . S
H314 C340 0.983 . S
H315 C339 0.979 . S
H316 C339 0.977 . S
C317 C305 1.453 . S
C317 H346 0.982 1_655 S
C317 H347 0.979 . S
C317 H348 0.977 1_655 S
C318 C305 1.684 . S
C318 H343 0.979 . S
C318 H344 0.980 . S
C318 H345 0.983 . S
C319 C320 1.391 1_655 S
C319 C324 1.391 . S
C319 H349 0.948 . S
C320 C319 1.391 1_455 S
C320 C321 1.391 . S
C321 C320 1.391 . S
C321 C322 1.392 . S
C321 H350 0.947 . S
C322 C321 1.392 . S
C322 C323 1.419 . S
C322 H351 0.948 . S
C323 C322 1.419 . S
C323 C324 1.391 1_455 S
C323 C327 1.397 . S
C324 C319 1.391 . S
C324 C323 1.391 1_655 S
C324 C325 1.399 . S
C325 C324 1.399 . S
C325 C326 1.396 . S
C325 C328 1.453 . S
C325 C329 1.684 . S
C326 C307 1.723 . S
C326 C325 1.396 . S
C326 C327 1.394 1_655 S
C327 C323 1.397 . S
C327 C326 1.394 1_455 S
C327 C337 1.723 . S
C328 C325 1.453 . S
C328 H352 0.982 . S
C328 H353 0.979 . S
C328 H354 0.977 . S
C329 C325 1.684 . S
C329 H355 0.979 . S
C329 H356 0.980 . S
C329 H357 0.983 . S
C330 H306 0.948 . S
C330 C331 1.391 . S
C330 C335 1.391 . S
C331 C330 1.391 . S
C331 C332 1.391 . S
C332 H309 0.947 . S
C332 C331 1.391 . S
C332 C333 1.392 . S
C333 H310 0.948 . S
C333 C332 1.392 . S
C333 C334 1.419 . S
C334 C333 1.419 . S
C334 C335 1.391 . S
C334 C338 1.397 . S
C335 C330 1.391 . S
C335 C334 1.391 . S
C335 C336 1.399 . S
C336 C335 1.399 . S
C336 C337 1.396 . S
C336 C339 1.453 . S
C336 C340 1.684 . S
C337 C327 1.723 . S
C337 C336 1.396 . S
C337 C338 1.394 . S
C338 C308 1.723 1_455 S
C338 C334 1.397 . S
C338 C337 1.394 . S
C339 H311 0.982 . S
C339 H315 0.979 . S
C339 H316 0.977 . S
C339 C336 1.453 . S
C340 H312 0.979 . S
C340 H313 0.980 . S
C340 H314 0.983 . S
C340 C336 1.684 . S
H341 C359 0.948 . S
H342 C300 0.948 . S
H343 C318 0.979 . S
H344 C318 0.980 . S
H345 C318 0.983 . S
H346 C317 0.982 1_455 S
H347 C317 0.979 . S
H348 C317 0.977 1_455 S
H349 C319 0.948 . S
H350 C321 0.947 . S
H351 C322 0.948 . S
H352 C328 0.982 . S
H353 C328 0.979 . S
H354 C328 0.977 . S
H355 C329 0.979 . S
H356 C329 0.980 . S
H357 C329 0.983 . S
H358 C302 0.947 . S
C359 C302 1.392 . S
C359 C303 1.419 . S
C359 H341 0.948 . S
C360 C361 1.391 . S
C360 C364 1.391 . S
C360 H402 0.948 . S
C361 C360 1.391 . S
C361 C362 1.391 . S
C362 C361 1.391 . S
C362 H418 0.947 . S
C362 C419 1.392 . S
C363 C364 1.391 . S
C363 C367 1.397 . S
C363 C419 1.419 . S
C364 C360 1.391 . S
C364 C363 1.391 . S
C364 C365 1.399 . S
C365 C364 1.399 . S
C365 C368 1.396 . S
C365 C377 1.453 1_565 S
C365 C378 1.684 . S
H366 C390 0.948 . S
C367 C363 1.397 . S
C367 C368 1.394 . S
C367 C386 1.723 . S
C368 C365 1.396 . S
C368 C367 1.394 . S
C368 C398 1.723 1_565 S
H369 C392 0.947 . S
H370 C393 0.948 . S
H371 C399 0.982 . S
H372 C400 0.979 . S
H373 C400 0.980 . S
H374 C400 0.983 . S
H375 C399 0.979 . S
H376 C399 0.977 . S
C377 C365 1.453 1_545 S
C377 H406 0.982 . S
C377 H407 0.979 . S
C377 H408 0.977 . S
C378 C365 1.684 . S
C378 H403 0.979 . S
C378 H404 0.980 . S
C378 H405 0.983 . S
C379 C380 1.391 . S
C379 C384 1.391 . S
C379 H409 0.948 . S
C380 C379 1.391 . S
C380 C381 1.391 1_565 S
C381 C380 1.391 1_545 S
C381 C382 1.392 . S
C381 H410 0.947 . S
C382 C381 1.392 . S
C382 C383 1.419 . S
C382 H411 0.948 . S
C383 C382 1.419 . S
C383 C384 1.391 1_545 S
C383 C387 1.397 . S
C384 C379 1.391 . S
C384 C383 1.391 1_565 S
C384 C385 1.399 . S
C385 C384 1.399 . S
C385 C386 1.396 . S
C385 C388 1.453 . S
C385 C389 1.684 . S
C386 C367 1.723 . S
C386 C385 1.396 . S
C386 C387 1.394 1_565 S
C387 C383 1.397 . S
C387 C386 1.394 1_545 S
C387 C397 1.723 . S
C388 C385 1.453 . S
C388 H412 0.982 . S
C388 H413 0.979 . S
C388 H414 0.977 . S
C389 C385 1.684 . S
C389 H415 0.979 . S
C389 H416 0.980 . S
C389 H417 0.983 . S
C390 H366 0.948 . S
C390 C391 1.391 . S
C390 C395 1.391 . S
C391 C390 1.391 . S
C391 C392 1.391 . S
C392 H369 0.947 . S
C392 C391 1.391 . S
C392 C393 1.392 . S
C393 H370 0.948 . S
C393 C392 1.392 . S
C393 C394 1.419 . S
C394 C393 1.419 . S
C394 C395 1.391 . S
C394 C398 1.397 . S
C395 C390 1.391 . S
C395 C394 1.391 . S
C395 C396 1.399 . S
C396 C395 1.399 . S
C396 C397 1.396 . S
C396 C399 1.453 . S
C396 C400 1.684 . S
C397 C387 1.723 . S
C397 C396 1.396 . S
C397 C398 1.394 . S
C398 C368 1.723 1_545 S
C398 C394 1.397 . S
C398 C397 1.394 . S
C399 H371 0.982 . S
C399 H375 0.979 . S
C399 H376 0.977 . S
C399 C396 1.453 . S
C400 H372 0.979 . S
C400 H373 0.980 . S
C400 H374 0.983 . S
C400 C396 1.684 . S
H401 C419 0.948 . S
H402 C360 0.948 . S
H403 C378 0.979 . S
H404 C378 0.980 . S
H405 C378 0.983 . S
H406 C377 0.982 . S
H407 C377 0.979 . S
H408 C377 0.977 . S
H409 C379 0.948 . S
H410 C381 0.947 . S
H411 C382 0.948 . S
H412 C388 0.982 . S
H413 C388 0.979 . S
H414 C388 0.977 . S
H415 C389 0.979 . S
H416 C389 0.980 . S
H417 C389 0.983 . S
H418 C362 0.947 . S
C419 C362 1.392 . S
C419 C363 1.419 . S
C419 H401 0.948 . S
C420 C421 1.391 . S
C420 C424 1.391 . S
C420 H462 0.948 . S
C421 C420 1.391 . S
C421 C422 1.391 . S
C422 C421 1.391 . S
C422 H478 0.947 . S
C422 C479 1.392 . S
C423 C424 1.391 . S
C423 C427 1.397 . S
C423 C479 1.419 . S
C424 C420 1.391 . S
C424 C423 1.391 . S
C424 C425 1.399 . S
C425 C424 1.399 . S
C425 C428 1.396 . S
C425 C437 1.453 . S
C425 C438 1.684 . S
H426 C450 0.948 . S
C427 C423 1.397 . S
C427 C428 1.394 . S
C427 C446 1.723 . S
C428 C425 1.396 . S
C428 C427 1.394 . S
C428 C458 1.723 . S
H429 C452 0.947 . S
H430 C453 0.948 . S
H431 C459 0.982 . S
H432 C460 0.979 . S
H433 C460 0.980 . S
H434 C460 0.983 . S
H435 C459 0.979 . S
H436 C459 0.977 . S
C437 C425 1.453 . S
C437 H466 0.982 . S
C437 H467 0.979 . S
C437 H468 0.977 . S
C438 C425 1.684 . S
C438 H463 0.979 . S
C438 H464 0.980 . S
C438 H465 0.983 . S
C439 C440 1.391 . S
C439 C444 1.391 . S
C439 H469 0.948 . S
C440 C439 1.391 . S
C440 C441 1.391 . S
C441 C440 1.391 . S
C441 C442 1.392 . S
C441 H470 0.947 . S
C442 C441 1.392 . S
C442 C443 1.419 . S
C442 H471 0.948 . S
C443 C442 1.419 . S
C443 C444 1.391 . S
C443 C447 1.397 1_556 S
C444 C439 1.391 . S
C444 C443 1.391 . S
C444 C445 1.399 1_556 S
C445 C444 1.399 1_554 S
C445 C446 1.396 . S
C445 C448 1.453 . S
C445 C449 1.684 1_554 S
C446 C427 1.723 . S
C446 C445 1.396 . S
C446 C447 1.394 . S
C447 C443 1.397 1_554 S
C447 C446 1.394 . S
C447 C457 1.723 . S
C448 C445 1.453 . S
C448 H472 0.982 . S
C448 H473 0.979 1_554 S
C448 H474 0.977 . S
C449 C445 1.684 1_556 S
C449 H475 0.979 . S
C449 H476 0.980 1_556 S
C449 H477 0.983 . S
C450 H426 0.948 . S
C450 C451 1.391 . S
C450 C455 1.391 . S
C451 C450 1.391 . S
C451 C452 1.391 . S
C452 H429 0.947 . S
C452 C451 1.391 . S
C452 C453 1.392 . S
C453 H430 0.948 . S
C453 C452 1.392 . S
C453 C454 1.419 . S
C454 C453 1.419 . S
C454 C455 1.391 . S
C454 C458 1.397 . S
C455 C450 1.391 . S
C455 C454 1.391 . S
C455 C456 1.399 . S
C456 C455 1.399 . S
C456 C457 1.396 . S
C456 C459 1.453 . S
C456 C460 1.684 . S
C457 C447 1.723 . S
C457 C456 1.396 . S
C457 C458 1.394 . S
C458 C428 1.723 . S
C458 C454 1.397 . S
C458 C457 1.394 . S
C459 H431 0.982 . S
C459 H435 0.979 . S
C459 H436 0.977 . S
C459 C456 1.453 . S
C460 H432 0.979 . S
C460 H433 0.980 . S
C460 H434 0.983 . S
C460 C456 1.684 . S
H461 C479 0.948 . S
H462 C420 0.948 . S
H463 C438 0.979 . S
H464 C438 0.980 . S
H465 C438 0.983 . S
H466 C437 0.982 . S
H467 C437 0.979 . S
H468 C437 0.977 . S
H469 C439 0.948 . S
H470 C441 0.947 . S
H471 C442 0.948 . S
H472 C448 0.982 . S
H473 C448 0.979 1_556 S
H474 C448 0.977 . S
H475 C449 0.979 . S
H476 C449 0.980 1_554 S
H477 C449 0.983 . S
H478 C422 0.947 . S
C479 C422 1.392 . S
C479 C423 1.419 . S
C479 H461 0.948 . S
C6 C451 3.406 . S
C59 C301 2.596 . S
C86 C361 2.777 . S
C15 C421 2.117 . S
C331 C50 3.395 . S
C391 C95 1.543 . S
C46 C181 1.815 . S
C99 C271 5.120 . S
C10 C151 3.551 . S
C211 C55 1.726 . S
C241 C90 4.814 . S
C19 C121 2.614 . S
C260 C18 1.980 . S
C49 C140 1.140 . S
C98 C200 1.323 . S
C380 C58 1.364 1_565 S
C440 C89 1.812 . S
C9 C320 1.145 . S
