# Generated by pormake.
# Topology rtl, (3,6)-cn, num edge types: 1
# Building blocks:
#     Node 0, Type 0, BuildingBlock: ESEHIV_clean_linker_0, # of connection points: 3
#     Node 1, Type 0, BuildingBlock: ESEHIV_clean_linker_0, # of connection points: 3
#     Node 2, Type 0, BuildingBlock: ESEHIV_clean_linker_0, # of connection points: 3
#     Node 3, Type 0, BuildingBlock: ESEHIV_clean_linker_0, # of connection points: 3
#     Node 4, Type 1, BuildingBlock: KUMBOL_clean_sbu_1, # of connection points: 6
#     Node 5, Type 1, BuildingBlock: KUMBOL_clean_sbu_1, # of connection points: 6
#     Edge 6, Type (0, 1), BuildingBlock: OJICUG_clean_linker_0, # of connection points: 2
#     Edge 7, Type (0, 1), BuildingBlock: OJICUG_clean_linker_0, # of connection points: 2
#     Edge 8, Type (0, 1), BuildingBlock: OJICUG_clean_linker_0, # of connection points: 2
#     Edge 9, Type (0, 1), BuildingBlock: OJICUG_clean_linker_0, # of connection points: 2
#     Edge 10, Type (0, 1), BuildingBlock: OJICUG_clean_linker_0, # of connection points: 2
#     Edge 11, Type (0, 1), BuildingBlock: OJICUG_clean_linker_0, # of connection points: 2
#     Edge 12, Type (0, 1), BuildingBlock: OJICUG_clean_linker_0, # of connection points: 2
#     Edge 13, Type (0, 1), BuildingBlock: OJICUG_clean_linker_0, # of connection points: 2
#     Edge 14, Type (0, 1), BuildingBlock: OJICUG_clean_linker_0, # of connection points: 2
#     Edge 15, Type (0, 1), BuildingBlock: OJICUG_clean_linker_0, # of connection points: 2
#     Edge 16, Type (0, 1), BuildingBlock: OJICUG_clean_linker_0, # of connection points: 2
#     Edge 17, Type (0, 1), BuildingBlock: OJICUG_clean_linker_0, # of connection points: 2
# Relax obj value: 0.019
# Max RMSD: 0.147
# Mean RMSD: 0.088
data_MOF--net-rtl--node1-KUMBOL_clean_sbu_1--node2-ESEHIV_clean_linker_0--edge1-OJICUG_clean_linker_0
_symmetry_space_group_name_H-M    P1
_symmetry_Int_Tables_number       1
_symmetry_cell_setting            triclinic
loop_
_symmetry_equiv_pos_as_xyz
'x, y, z'
_cell_length_a     21.984533
_cell_length_b     22.871215
_cell_length_c     20.97124
_cell_angle_alpha  72.761503
_cell_angle_beta   98.298646
_cell_angle_gamma 91.535606
loop_
_atom_site_label
_atom_site_type_symbol
_atom_site_fract_x
_atom_site_fract_y
_atom_site_fract_z
_atom_type_partial_charge
H0 H 0.16359 0.93224 0.99897 0.0
H1 H 0.3013 0.80811 0.13463 0.0
H2 H 0.26252 0.8139 0.92507 0.0
C3 C 0.20008 0.89857 0.00788 0.0
C4 C 0.21163 0.87768 0.95462 0.0
C5 C 0.2315 0.87322 0.07318 0.0
C6 C 0.27641 0.82712 0.08441 0.0
C7 C 0.28881 0.80558 0.03102 0.0
C8 C 0.25551 0.83108 0.96642 0.0
H9 H 0.65435 0.59204 0.71563 0.0
H10 H 0.75681 0.72082 0.58057 0.0
H11 H 0.75085 0.73476 0.78065 0.0
C12 C 0.68357 0.6317 0.70535 0.0
C13 C 0.70127 0.65992 0.7559 0.0
C14 C 0.70233 0.65401 0.64171 0.0
C15 C 0.74107 0.70467 0.62927 0.0
C16 C 0.7591 0.73481 0.67865 0.0
C17 C 0.73836 0.71213 0.74211 0.0
H18 H 0.90167 0.11606 0.12941 0.0
H19 H 0.76488 0.17462 0.22394 0.0
H20 H 0.75972 0.24099 0.0073 0.0
C21 C 0.86004 0.14222 0.12502 0.0
C22 C 0.82995 0.1751 0.06125 0.0
C23 C 0.83639 0.14304 0.18326 0.0
C24 C 0.78259 0.17664 0.17788 0.0
C25 C 0.75432 0.21426 0.11487 0.0
C26 C 0.77842 0.21197 0.05669 0.0
H27 H 0.40545 0.40152 0.45294 0.0
H28 H 0.28442 0.28872 0.58029 0.0
H29 H 0.29671 0.26645 0.3856 0.0
C30 C 0.37246 0.36497 0.46252 0.0
C31 C 0.35498 0.33494 0.41334 0.0
C32 C 0.34645 0.34935 0.52272 0.0
C33 C 0.30437 0.30126 0.53394 0.0
C34 C 0.28563 0.27077 0.48518 0.0
C35 C 0.31138 0.28814 0.42458 0.0
C36 C 0.87394 0.15125 0.46725 0.0
C37 C 0.77602 0.09987 0.46822 0.0
C38 C 0.83755 0.10322 0.4974 0.0
C39 C 0.75315 0.14281 0.40662 0.0
C40 C 0.85032 0.19588 0.40684 0.0
C41 C 0.79019 0.19072 0.37611 0.0
N42 N 0.93255 0.15445 0.49716 0.0
C43 C 0.96839 0.20337 0.47227 0.0
C44 C 0.88771 0.24473 0.37939 0.0
C45 C 0.94674 0.24885 0.41269 0.0
Gd46 Gd 0.05397 0.94313 0.54502 0.0
Gd47 Gd 0.96577 0.07407 0.59492 0.0
N48 N 0.86089 0.06221 0.55713 0.0
C49 C 0.73846 0.055 0.50321 0.0
C50 C 0.82228 0.02328 0.59469 0.0
C51 C 0.76128 0.01761 0.5675 0.0
H52 H 0.83791 0.99658 0.64604 0.0
H53 H 0.73163 0.98506 0.59663 0.0
H54 H 0.19055 0.99498 0.59981 0.0
H55 H 0.01435 0.20603 0.49746 0.0
H56 H 0.2837 0.95408 0.67976 0.0
H57 H 0.69099 0.05093 0.48253 0.0
H58 H 0.70626 0.14045 0.38316 0.0
H59 H 0.95846 0.82541 0.55429 0.0
H60 H 0.87119 0.27984 0.33298 0.0
H61 H 0.97571 0.2868 0.39226 0.0
H62 H 0.24316 0.74052 0.77155 0.0
H63 H 0.77147 0.22435 0.32954 0.0
H64 H 0.04759 0.66628 0.69806 0.0
H65 H 0.95686 0.71545 0.61732 0.0
N66 N 0.0481 0.8385 0.60092 0.0
C67 C 0.09868 0.81236 0.64454 0.0
C68 C 0.99773 0.80457 0.59048 0.0
C69 C 0.04834 0.7146 0.67097 0.0
C70 C 0.99696 0.74222 0.62556 0.0
C71 C 0.1001 0.74963 0.6809 0.0
H72 H 0.15468 0.6759 0.75465 0.0
N73 N 0.14468 0.90983 0.62055 0.0
C74 C 0.14874 0.84885 0.65404 0.0
C75 C 0.25014 0.86199 0.70959 0.0
C76 C 0.20132 0.82346 0.70013 0.0
C77 C 0.19283 0.94725 0.62813 0.0
C78 C 0.24595 0.92406 0.67321 0.0
O79 O 0.98099 0.08268 0.48746 0.0
O80 O 0.96589 0.98558 0.48221 0.0
O81 O 0.11143 0.96528 0.46575 0.0
O82 O 0.0588 0.88203 0.48395 0.0
O83 O 0.94171 0.97403 0.64001 0.0
O84 O 0.95255 0.93684 0.55177 0.0
O85 O 0.06195 0.93237 0.65592 0.0
O86 O 0.04484 0.0264 0.67252 0.0
O87 O 0.92017 0.09189 0.67484 0.0
O88 O 0.98248 0.15798 0.62092 0.0
O89 O 0.0957 0.03832 0.51948 0.0
O90 O 0.06715 0.08742 0.59325 0.0
C91 C 0.96025 0.04459 0.45386 0.0
C92 C 0.93031 0.93249 0.60785 0.0
C93 C 0.07613 0.93082 0.37268 0.0
C94 C 0.10282 0.93515 0.26297 0.0
C95 C 1.00305 0.97297 0.27178 0.0
C96 C 0.01822 0.95664 0.34177 0.0
C97 C 0.04526 0.96266 0.23236 0.0
C98 C 0.11806 0.91939 0.33331 0.0
C99 C 0.09438 0.91793 0.44547 0.0
C100 C 0.20314 0.76084 0.73593 0.0
C101 C 0.1527 0.72404 0.72634 0.0
H102 H 0.29124 0.84429 0.74475 0.0
C103 C 0.06717 0.97004 0.69288 0.0
C104 C 0.10148 0.08255 0.54857 0.0
C105 C 0.93744 0.1881 0.7048 0.0
C106 C 0.91536 0.21001 0.80631 0.0
C107 C 0.94991 0.29095 0.71537 0.0
C108 C 0.95304 0.24976 0.67848 0.0
C109 C 0.93175 0.27117 0.77916 0.0
C110 C 0.91737 0.16853 0.76855 0.0
C111 C 0.94679 0.14458 0.66709 0.0
H112 H 0.95846 0.9934 0.2481 0.0
H113 H 0.98496 0.96409 0.37174 0.0
H114 H 0.03248 0.97489 0.17813 0.0
H115 H 0.16273 0.89902 0.35723 0.0
H116 H 0.96222 0.33825 0.69471 0.0
H117 H 0.96836 0.26612 0.6295 0.0
H118 H 0.93001 0.3038 0.80726 0.0
H119 H 0.90557 0.12107 0.78971 0.0
C120 C 0.70473 0.57391 0.08071 0.0
C121 C 0.69949 0.68421 0.03018 0.0
C122 C 0.67315 0.62918 0.06475 0.0
C123 C 0.75738 0.68256 0.00985 0.0
C124 C 0.76387 0.57236 0.06257 0.0
C125 C 0.78944 0.62673 0.02586 0.0
N126 N 0.67878 0.52217 0.11649 0.0
C127 C 0.71241 0.46902 0.14202 0.0
C128 C 0.79626 0.5165 0.0836 0.0
C129 C 0.77086 0.46484 0.12464 0.0
Gd130 Gd 0.44971 0.48021 0.00862 0.0
Gd131 Gd 0.57845 0.5335 0.13893 0.0
N132 N 0.61622 0.62899 0.08284 0.0
C133 C 0.66679 0.7392 0.01727 0.0
C134 C 0.58542 0.68259 0.07351 0.0
C135 C 0.60984 0.73843 0.03977 0.0
H136 H 0.54173 0.68205 0.09148 0.0
H137 H 0.58477 0.78079 0.03118 0.0
H138 H 0.49772 0.34082 0.00869 0.0
H139 H 0.69518 0.43032 0.17752 0.0
H140 H 0.46973 0.23302 0.0534 0.0
H141 H 0.68544 0.78248 0.99084 0.0
H142 H 0.7781 0.72425 0.98249 0.0
H143 H 0.32941 0.56372 0.01244 0.0
H144 H 0.8418 0.51333 0.07072 0.0
H145 H 0.79672 0.42209 0.14397 0.0
H146 H 0.27954 0.24345 0.13691 0.0
H147 H 0.83455 0.6263 0.01092 0.0
H148 H 0.19283 0.44257 0.10251 0.0
H149 H 0.22784 0.54778 0.05194 0.0
N150 N 0.35229 0.46887 0.04312 0.0
C151 C 0.33273 0.41075 0.06743 0.0
C152 C 0.31478 0.5178 0.03533 0.0
C153 C 0.23747 0.44938 0.08554 0.0
C154 C 0.25712 0.50886 0.05716 0.0
C155 C 0.27513 0.39936 0.09036 0.0
H156 H 0.21294 0.32895 0.13497 0.0
N157 N 0.42443 0.37581 0.04326 0.0
C158 C 0.37043 0.36276 0.06859 0.0
C159 C 0.38848 0.25461 0.08893 0.0
C160 C 0.35122 0.3018 0.09263 0.0
C161 C 0.45852 0.33023 0.03512 0.0
C162 C 0.44187 0.269 0.05903 0.0
O163 O 0.56352 0.58117 0.02647 0.0
O164 O 0.54455 0.50297 0.98066 0.0
O165 O 0.41459 0.44901 0.9211 0.0
O166 O 0.41122 0.54632 0.91468 0.0
O167 O 0.48305 0.57407 0.12221 0.0
O168 O 0.44653 0.57835 0.01155 0.0
O169 O 0.4308 0.47192 0.11467 0.0
O170 O 0.52479 0.44796 0.18036 0.0
O171 O 0.55982 0.57504 0.2147 0.0
O172 O 0.6454 0.52595 0.22816 0.0
O173 O 0.54207 0.43035 0.03401 0.0
O174 O 0.58494 0.43369 0.14105 0.0
C175 C 0.57253 0.55398 0.98182 0.0
C176 C 0.44828 0.59887 0.06428 0.0
C177 C 0.37016 0.52006 0.8129 0.0
C178 C 0.35141 0.49877 0.70381 0.0
C179 C 0.30636 0.58954 0.71806 0.0
C180 C 0.33404 0.57368 0.78509 0.0
C181 C 0.31477 0.5525 0.67774 0.0
C182 C 0.37863 0.48255 0.77215 0.0
C183 C 0.39955 0.5046 0.88392 0.0
C184 C 0.2948 0.29001 0.11776 0.0
C185 C 0.2568 0.33869 0.11653 0.0
H186 H 0.37538 0.20717 0.10683 0.0
C187 C 0.46462 0.44287 0.17179 0.0
C188 C 0.57883 0.40809 0.09159 0.0
C189 C 0.60431 0.52599 0.32569 0.0
C190 C 0.6172 0.53124 0.4411 0.0
C191 C 0.56569 0.44478 0.4131 0.0
C192 C 0.57468 0.46993 0.34592 0.0
C193 C 0.5865 0.47537 0.46052 0.0
C194 C 0.62606 0.55626 0.37338 0.0
C195 C 0.61059 0.55464 0.25461 0.0
H196 H 0.27802 0.63065 0.6973 0.0
H197 H 0.32677 0.60321 0.81537 0.0
H198 H 0.29162 0.56563 0.62626 0.0
H199 H 0.4074 0.44172 0.79322 0.0
H200 H 0.5424 0.40163 0.42841 0.0
H201 H 0.55835 0.44614 0.30956 0.0
H202 H 0.57919 0.45513 0.51244 0.0
H203 H 0.64855 0.59992 0.35749 0.0
C204 C 0.18888 0.23005 0.5321 0.0
C205 C 0.23722 0.22303 0.49757 0.0
H206 H 0.1103 0.19147 0.57664 0.0
C207 C 0.23944 0.16956 0.47757 0.0
H208 H 0.18397 0.27124 0.54644 0.0
C209 C 0.19526 0.12385 0.49333 0.0
C210 C 0.14844 0.13034 0.53013 0.0
H211 H 0.27603 0.16236 0.45111 0.0
H212 H 0.19848 0.08304 0.47778 0.0
C213 C 0.14591 0.18419 0.54898 0.0
C214 C 0.34082 0.70593 0.10269 0.0
C215 C 0.33377 0.75457 0.04228 0.0
H216 H 0.38329 0.61855 0.15708 0.0
C217 C 0.36749 0.75228 0.99073 0.0
H218 H 0.31511 0.70535 0.14316 0.0
C219 C 0.40454 0.70152 0.99793 0.0
C220 C 0.41044 0.65287 0.05767 0.0
H221 H 0.36494 0.7895 0.94428 0.0
H222 H 0.42903 0.70052 0.95696 0.0
C223 C 0.37942 0.6559 0.11057 0.0
C224 C 0.7953 0.82923 0.59669 0.0
C225 C 0.79976 0.78934 0.66297 0.0
H226 H 0.83378 0.90467 0.52757 0.0
C227 C 0.8454 0.80045 0.71245 0.0
H228 H 0.75961 0.8241 0.5575 0.0
C229 C 0.88662 0.84867 0.69537 0.0
C230 C 0.88377 0.88566 0.62835 0.0
H231 H 0.8508 0.77071 0.76385 0.0
H232 H 0.9223 0.85538 0.73383 0.0
C233 C 0.83745 0.87593 0.57942 0.0
C234 C 0.6952 0.27818 0.16686 0.0
C235 C 0.70388 0.25929 0.1104 0.0
H236 H 0.64647 0.3359 0.20645 0.0
C237 C 0.66623 0.28718 0.04877 0.0
H238 H 0.72284 0.26008 0.21534 0.0
C239 C 0.62571 0.33518 0.04272 0.0
C240 C 0.61861 0.35446 0.09891 0.0
H241 H 0.66824 0.27333 1.00416 0.0
H242 H 0.60084 0.35785 0.99339 0.0
C243 C 0.65194 0.32352 0.16156 0.0
C244 C 0.20021 0.84615 0.18859 0.0
C245 C 0.21152 0.89115 0.12948 0.0
H246 H 0.1566 0.82524 0.27766 0.0
C247 C 0.1942 0.95228 0.11995 0.0
H248 H 0.21252 0.79862 0.19718 0.0
C249 C 0.16102 0.96709 0.16504 0.0
C250 C 0.14582 0.92132 0.22131 0.0
H251 H 0.20342 0.9882 0.0756 0.0
H252 H 0.14537 0.01394 0.15473 0.0
C253 C 0.16783 0.86124 0.23437 0.0
C254 C 0.67857 0.57081 0.8517 0.0
C255 C 0.67786 0.6346 0.82148 0.0
H256 H 0.64527 0.49553 0.92573 0.0
C257 C 0.64693 0.67227 0.84893 0.0
H258 H 0.70276 0.54069 0.83221 0.0
C259 C 0.61396 0.64621 0.90267 0.0
C260 C 0.61166 0.58225 0.92974 0.0
H261 H 0.64522 0.72147 0.8264 0.0
H262 H 0.58807 0.67592 0.92102 0.0
C263 C 0.64544 0.54492 0.90488 0.0
C264 C 0.92354 0.14253 0.27309 0.0
C265 C 0.87075 0.11431 0.25063 0.0
H266 H 0.99295 0.14274 0.35617 0.0
C267 C 0.84786 0.06264 0.29492 0.0
H268 H 0.94112 0.18313 0.23978 0.0
C269 C 0.87774 0.03921 0.36097 0.0
C270 C 0.92991 0.06817 0.38384 0.0
H271 H 0.80657 0.04097 0.2786 0.0
H272 H 0.85927 0.99945 0.3947 0.0
C273 C 0.95268 0.11989 0.33948 0.0
C274 C 0.35873 0.35937 0.64089 0.0
C275 C 0.35791 0.38657 0.57102 0.0
H276 H 0.35637 0.37292 0.73728 0.0
C277 C 0.36191 0.45066 0.54687 0.0
H278 H 0.35718 0.31011 0.66178 0.0
C279 C 0.36299 0.48661 0.59056 0.0
C280 C 0.3593 0.4597 0.65958 0.0
H281 H 0.36114 0.47359 0.49358 0.0
H282 H 0.36494 0.53585 0.56968 0.0
C283 C 0.35908 0.39544 0.68453 0.0
C284 C 0.61959 0.60361 0.58178 0.0
C285 C 0.68038 0.62439 0.58843 0.0
H286 H 0.55227 0.55772 0.53028 0.0
C287 C 0.71983 0.61554 0.5448 0.0
H288 H 0.58743 0.61096 0.61331 0.0
C289 C 0.69915 0.58589 0.49636 0.0
C290 C 0.63889 0.56392 0.49115 0.0
H291 H 0.76707 0.63029 0.54897 0.0
H292 H 0.73066 0.57892 0.46395 0.0
C293 C 0.59927 0.57329 0.53409 0.0
C294 C 0.81484 0.16527 0.94409 0.0
C295 C 0.85431 0.17513 0.99889 0.0
H296 H 0.80406 0.16711 0.84003 0.0
C297 C 0.91583 0.18996 0.99171 0.0
H298 H 0.76725 0.15355 0.94857 0.0
C299 C 0.93649 0.19838 0.92964 0.0
C300 C 0.89635 0.19092 0.87418 0.0
H301 H 0.94704 0.19815 0.033 0.0
H302 H 0.9833 0.21278 0.92422 0.0
C303 C 0.83587 0.17258 0.88234 0.0
C304 C 0.4408 0.34078 0.34543 0.0
C305 C 0.38015 0.3559 0.34868 0.0
H306 H 0.51434 0.35464 0.28588 0.0
C307 C 0.34586 0.39638 0.29188 0.0
H308 H 0.4681 0.30982 0.38885 0.0
C309 C 0.37271 0.4234 0.23363 0.0
C310 C 0.4342 0.40996 0.2309 0.0
H311 H 0.29915 0.40911 0.29362 0.0
H312 H 0.34606 0.4567 0.19189 0.0
C313 C 0.46729 0.36691 0.28678 0.0
C314 C 0.16501 0.96519 0.85811 0.0
C315 C 0.17453 0.90182 0.88764 0.0
H316 H 0.12346 0.03677 0.77276 0.0
C317 C 0.1466 0.86131 0.85402 0.0
H318 H 0.18613 0.99728 0.88329 0.0
C319 C 0.11022 0.88371 0.79167 0.0
C320 C 0.10182 0.94709 0.76115 0.0
H321 H 0.1521 0.81222 0.87642 0.0
H322 H 0.08859 0.85118 0.76748 0.0
C323 C 0.129 0.9877 0.7952 0.0
loop_
_geom_bond_atom_site_label_1
_geom_bond_atom_site_label_2
_geom_bond_distance
_geom_bond_site_symmetry_2
_ccdc_geom_bond_type
H0 C3 0.931 1_556 S
H1 C6 0.928 . S
H2 C8 0.930 . S
C3 H0 0.931 1_554 S
C3 C4 1.413 1_554 S
C3 C5 1.360 . S
C4 C3 1.413 1_556 S
C4 C8 1.429 . S
C5 C3 1.360 . S
C5 C6 1.372 . S
C6 H1 0.928 . S
C6 C5 1.372 . S
C6 C7 1.404 . S
C7 C6 1.404 . S
C7 C8 1.391 1_554 S
C8 H2 0.930 . S
C8 C4 1.429 . S
C8 C7 1.391 1_556 S
H9 C12 0.931 . S
H10 C15 0.928 . S
H11 C17 0.930 . S
C12 H9 0.931 . S
C12 C13 1.413 . S
C12 C14 1.360 . S
C13 C12 1.413 . S
C13 C17 1.429 . S
C14 C12 1.360 . S
C14 C15 1.372 . S
C15 H10 0.928 . S
C15 C14 1.372 . S
C15 C16 1.404 . S
C16 C15 1.404 . S
C16 C17 1.391 . S
C17 H11 0.930 . S
C17 C13 1.429 . S
C17 C16 1.391 . S
H18 C21 0.931 . S
H19 C24 0.928 . S
H20 C26 0.930 . S
C21 H18 0.931 . S
C21 C22 1.413 . S
C21 C23 1.360 . S
C22 C21 1.413 . S
C22 C26 1.429 . S
C23 C21 1.360 . S
C23 C24 1.372 . S
C24 H19 0.928 . S
C24 C23 1.372 . S
C24 C25 1.404 . S
C25 C24 1.404 . S
C25 C26 1.391 . S
C26 H20 0.930 . S
C26 C22 1.429 . S
C26 C25 1.391 . S
H27 C30 0.931 . S
H28 C33 0.928 . S
H29 C35 0.930 . S
C30 H27 0.931 . S
C30 C31 1.413 . S
C30 C32 1.360 . S
C31 C30 1.413 . S
C31 C35 1.429 . S
C32 C30 1.360 . S
C32 C33 1.372 . S
C33 H28 0.928 . S
C33 C32 1.372 . S
C33 C34 1.404 . S
C34 C33 1.404 . S
C34 C35 1.391 . S
C35 H29 0.930 . S
C35 C31 1.429 . S
C35 C34 1.391 . S
C36 C38 1.422 . S
C36 C40 1.415 . S
C36 N42 1.369 . S
C37 C38 1.421 . S
C37 C39 1.417 . S
C37 C49 1.422 . S
C38 C36 1.422 . S
C38 C37 1.421 . S
C38 N48 1.359 . S
C39 C37 1.417 . S
C39 C41 1.329 . S
C39 H58 0.930 . S
C40 C36 1.415 . S
C40 C41 1.437 . S
C40 C44 1.413 . S
C41 C39 1.329 . S
C41 C40 1.437 . S
C41 H63 0.929 . S
N42 C36 1.369 . S
N42 C43 1.338 . S
N42 Gd47 2.622 . S
C43 N42 1.338 . S
C43 C45 1.378 . S
C43 H55 0.929 1_655 S
C44 C40 1.413 . S
C44 C45 1.348 . S
C44 H60 0.931 . S
C45 C43 1.378 . S
C45 C44 1.348 . S
C45 H61 0.930 1_655 S
Gd46 N66 2.622 . S
Gd46 N73 2.570 . S
Gd46 O80 2.353 1_465 S
Gd46 O81 2.468 . S
Gd46 O82 2.427 . S
Gd46 O84 2.388 1_455 S
Gd46 O85 2.386 . S
Gd46 O89 2.307 1_565 S
Gd46 C99 2.805 . S
Gd47 N42 2.622 . S
Gd47 N48 2.570 . S
Gd47 O79 2.386 . S
Gd47 O83 2.307 1_545 S
Gd47 O86 2.353 1_655 S
Gd47 O87 2.468 . S
Gd47 O88 2.427 . S
Gd47 O90 2.388 1_655 S
Gd47 C111 2.805 . S
N48 C38 1.359 . S
N48 Gd47 2.570 . S
N48 C50 1.343 . S
C49 C37 1.422 . S
C49 C51 1.321 . S
C49 H57 0.931 . S
C50 N48 1.343 . S
C50 C51 1.390 . S
C50 H52 0.931 . S
C51 C49 1.321 . S
C51 C50 1.390 . S
C51 H53 0.930 . S
H52 C50 0.931 . S
H53 C51 0.930 . S
H54 C77 0.931 . S
H55 C43 0.929 1_455 S
H56 C78 0.930 . S
H57 C49 0.931 . S
H58 C39 0.930 . S
H59 C68 0.929 1_655 S
H60 C44 0.931 . S
H61 C45 0.930 1_455 S
H62 C100 0.930 . S
H63 C41 0.929 . S
H64 C69 0.931 . S
H65 C70 0.930 1_655 S
N66 Gd46 2.622 . S
N66 C67 1.369 . S
N66 C68 1.338 . S
C67 N66 1.369 . S
C67 C71 1.415 . S
C67 C74 1.422 . S
C68 H59 0.929 1_455 S
C68 N66 1.338 . S
C68 C70 1.378 . S
C69 H64 0.931 . S
C69 C70 1.348 . S
C69 C71 1.413 . S
C70 H65 0.930 1_455 S
C70 C68 1.378 . S
C70 C69 1.348 . S
C71 C67 1.415 . S
C71 C69 1.413 . S
C71 C101 1.437 . S
H72 C101 0.929 . S
N73 Gd46 2.570 . S
N73 C74 1.359 . S
N73 C77 1.343 . S
C74 C67 1.422 . S
C74 N73 1.359 . S
C74 C76 1.421 . S
C75 C76 1.422 . S
C75 C78 1.321 . S
C75 H102 0.931 . S
C76 C74 1.421 . S
C76 C75 1.422 . S
C76 C100 1.417 . S
C77 H54 0.931 . S
C77 N73 1.343 . S
C77 C78 1.390 . S
C78 H56 0.930 . S
C78 C75 1.321 . S
C78 C77 1.390 . S
O79 Gd47 2.386 . S
O79 C91 1.265 . S
O80 Gd46 2.353 1_645 S
O80 C91 1.242 . S
O81 Gd46 2.468 . S
O81 C99 1.263 . S
O82 Gd46 2.427 . S
O82 C99 1.252 . S
O83 Gd47 2.307 1_565 S
O83 C92 1.261 . S
O84 Gd46 2.388 1_655 S
O84 C92 1.252 . S
O85 Gd46 2.386 . S
O85 C103 1.265 . S
O86 Gd47 2.353 1_455 S
O86 C103 1.242 1_545 S
O87 Gd47 2.468 . S
O87 C111 1.263 . S
O88 Gd47 2.427 . S
O88 C111 1.252 . S
O89 Gd46 2.307 1_545 S
O89 C104 1.261 . S
O90 Gd47 2.388 1_455 S
O90 C104 1.252 . S
C91 O79 1.265 . S
C91 O80 1.242 . S
C92 O83 1.261 . S
C92 O84 1.252 . S
C93 C96 1.394 . S
C93 C98 1.370 . S
C93 C99 1.500 . S
C94 C97 1.383 . S
C94 C98 1.395 . S
C95 C96 1.396 . S
C95 C97 1.365 . S
C95 H112 0.929 . S
C96 C93 1.394 . S
C96 C95 1.396 . S
C96 H113 0.930 . S
C97 C94 1.383 . S
C97 C95 1.365 . S
C97 H114 0.931 . S
C98 C93 1.370 . S
C98 C94 1.395 . S
C98 H115 0.930 . S
C99 Gd46 2.805 . S
C99 O81 1.263 . S
C99 O82 1.252 . S
C99 C93 1.500 . S
C100 H62 0.930 . S
C100 C76 1.417 . S
C100 C101 1.329 . S
C101 C71 1.437 . S
C101 H72 0.929 . S
C101 C100 1.329 . S
H102 C75 0.931 . S
C103 O85 1.265 . S
C103 O86 1.242 1_565 S
C104 O89 1.261 . S
C104 O90 1.252 . S
C105 C108 1.394 . S
C105 C110 1.370 . S
C105 C111 1.500 . S
C106 C109 1.383 . S
C106 C110 1.395 . S
C107 C108 1.396 . S
C107 C109 1.365 . S
C107 H116 0.929 . S
C108 C105 1.394 . S
C108 C107 1.396 . S
C108 H117 0.930 . S
C109 C106 1.383 . S
C109 C107 1.365 . S
C109 H118 0.931 . S
C110 C105 1.370 . S
C110 C106 1.395 . S
C110 H119 0.930 . S
C111 Gd47 2.805 . S
C111 O87 1.263 . S
C111 O88 1.252 . S
C111 C105 1.500 . S
H112 C95 0.929 . S
H113 C96 0.930 . S
H114 C97 0.931 . S
H115 C98 0.930 . S
H116 C107 0.929 . S
H117 C108 0.930 . S
H118 C109 0.931 . S
H119 C110 0.930 . S
C120 C122 1.422 . S
C120 C124 1.415 . S
C120 N126 1.369 . S
C121 C122 1.421 . S
C121 C123 1.417 . S
C121 C133 1.422 . S
C122 C120 1.422 . S
C122 C121 1.421 . S
C122 N132 1.359 . S
C123 C121 1.417 . S
C123 C125 1.329 . S
C123 H142 0.930 . S
C124 C120 1.415 . S
C124 C125 1.437 . S
C124 C128 1.413 . S
C125 C123 1.329 . S
C125 C124 1.437 . S
C125 H147 0.929 . S
N126 C120 1.369 . S
N126 C127 1.338 . S
N126 Gd131 2.622 . S
C127 N126 1.338 . S
C127 C129 1.378 . S
C127 H139 0.929 . S
C128 C124 1.413 . S
C128 C129 1.348 . S
C128 H144 0.931 . S
C129 C127 1.378 . S
C129 C128 1.348 . S
C129 H145 0.930 . S
Gd130 N150 2.622 . S
Gd130 N157 2.570 . S
Gd130 O164 2.353 1_554 S
Gd130 O165 2.468 1_554 S
Gd130 O166 2.427 1_554 S
Gd130 O168 2.388 . S
Gd130 O169 2.386 . S
Gd130 O173 2.307 . S
Gd130 C183 2.805 1_554 S
Gd131 N126 2.622 . S
Gd131 N132 2.570 . S
Gd131 O163 2.386 . S
Gd131 O167 2.307 . S
Gd131 O170 2.353 . S
Gd131 O171 2.468 . S
Gd131 O172 2.427 . S
Gd131 O174 2.388 . S
Gd131 C195 2.805 . S
N132 C122 1.359 . S
N132 Gd131 2.570 . S
N132 C134 1.343 . S
C133 C121 1.422 . S
C133 C135 1.321 . S
C133 H141 0.931 . S
C134 N132 1.343 . S
C134 C135 1.390 . S
C134 H136 0.931 . S
C135 C133 1.321 . S
C135 C134 1.390 . S
C135 H137 0.930 . S
H136 C134 0.931 . S
H137 C135 0.930 . S
H138 C161 0.931 . S
H139 C127 0.929 . S
H140 C162 0.930 . S
H141 C133 0.931 . S
H142 C123 0.930 . S
H143 C152 0.929 . S
H144 C128 0.931 . S
H145 C129 0.930 . S
H146 C184 0.930 . S
H147 C125 0.929 . S
H148 C153 0.931 . S
H149 C154 0.930 . S
N150 Gd130 2.622 . S
N150 C151 1.369 . S
N150 C152 1.338 1_554 S
C151 N150 1.369 . S
C151 C155 1.415 . S
C151 C158 1.422 . S
C152 H143 0.929 . S
C152 N150 1.338 1_556 S
C152 C154 1.378 . S
C153 H148 0.931 . S
C153 C154 1.348 1_554 S
C153 C155 1.413 . S
C154 H149 0.930 . S
C154 C152 1.378 . S
C154 C153 1.348 1_556 S
C155 C151 1.415 . S
C155 C153 1.413 . S
C155 C185 1.437 . S
H156 C185 0.929 . S
N157 Gd130 2.570 . S
N157 C158 1.359 . S
N157 C161 1.343 . S
C158 C151 1.422 . S
C158 N157 1.359 . S
C158 C160 1.421 . S
C159 C160 1.422 . S
C159 C162 1.321 . S
C159 H186 0.931 . S
C160 C158 1.421 . S
C160 C159 1.422 . S
C160 C184 1.417 . S
C161 H138 0.931 . S
C161 N157 1.343 . S
C161 C162 1.390 . S
C162 H140 0.930 . S
C162 C159 1.321 . S
C162 C161 1.390 . S
O163 Gd131 2.386 . S
O163 C175 1.265 1_554 S
O164 Gd130 2.353 1_556 S
O164 C175 1.242 . S
O165 Gd130 2.468 1_556 S
O165 C183 1.263 . S
O166 Gd130 2.427 1_556 S
O166 C183 1.252 . S
O167 Gd131 2.307 . S
O167 C176 1.261 . S
O168 Gd130 2.388 . S
O168 C176 1.252 . S
O169 Gd130 2.386 . S
O169 C187 1.265 . S
O170 Gd131 2.353 . S
O170 C187 1.242 . S
O171 Gd131 2.468 . S
O171 C195 1.263 . S
O172 Gd131 2.427 . S
O172 C195 1.252 . S
O173 Gd130 2.307 . S
O173 C188 1.261 . S
O174 Gd131 2.388 . S
O174 C188 1.252 . S
C175 O163 1.265 1_556 S
C175 O164 1.242 . S
C176 O167 1.261 . S
C176 O168 1.252 . S
C177 C180 1.394 . S
C177 C182 1.370 . S
C177 C183 1.500 . S
C178 C181 1.383 . S
C178 C182 1.395 . S
C179 C180 1.396 . S
C179 C181 1.365 . S
C179 H196 0.929 . S
C180 C177 1.394 . S
C180 C179 1.396 . S
C180 H197 0.930 . S
C181 C178 1.383 . S
C181 C179 1.365 . S
C181 H198 0.931 . S
C182 C177 1.370 . S
C182 C178 1.395 . S
C182 H199 0.930 . S
C183 Gd130 2.805 1_556 S
C183 O165 1.263 . S
C183 O166 1.252 . S
C183 C177 1.500 . S
C184 H146 0.930 . S
C184 C160 1.417 . S
C184 C185 1.329 . S
C185 C155 1.437 . S
C185 H156 0.929 . S
C185 C184 1.329 . S
H186 C159 0.931 . S
C187 O169 1.265 . S
C187 O170 1.242 . S
C188 O173 1.261 . S
C188 O174 1.252 . S
C189 C192 1.394 . S
C189 C194 1.370 . S
C189 C195 1.500 . S
C190 C193 1.383 . S
C190 C194 1.395 . S
C191 C192 1.396 . S
C191 C193 1.365 . S
C191 H200 0.929 . S
C192 C189 1.394 . S
C192 C191 1.396 . S
C192 H201 0.930 . S
C193 C190 1.383 . S
C193 C191 1.365 . S
C193 H202 0.931 . S
C194 C189 1.370 . S
C194 C190 1.395 . S
C194 H203 0.930 . S
C195 Gd131 2.805 . S
C195 O171 1.263 . S
C195 O172 1.252 . S
C195 C189 1.500 . S
H196 C179 0.929 . S
H197 C180 0.930 . S
H198 C181 0.931 . S
H199 C182 0.930 . S
H200 C191 0.929 . S
H201 C192 0.930 . S
H202 C193 0.931 . S
H203 C194 0.930 . S
C204 C205 1.387 . S
C204 H208 0.950 . S
C204 C213 1.390 . S
C205 C204 1.387 . S
C205 C207 1.387 . S
H206 C213 0.950 . S
C207 C205 1.387 . S
C207 C209 1.390 . S
C207 H211 0.950 . S
H208 C204 0.950 . S
C209 C207 1.390 . S
C209 C210 1.387 . S
C209 H212 0.950 . S
C210 C209 1.387 . S
C210 C213 1.387 . S
H211 C207 0.950 . S
H212 C209 0.950 . S
C213 C204 1.390 . S
C213 H206 0.950 . S
C213 C210 1.387 . S
C214 C215 1.387 . S
C214 H218 0.950 . S
C214 C223 1.390 . S
C215 C214 1.387 . S
C215 C217 1.387 1_554 S
H216 C223 0.950 . S
C217 C215 1.387 1_556 S
C217 C219 1.390 . S
C217 H221 0.950 . S
H218 C214 0.950 . S
C219 C217 1.390 . S
C219 C220 1.387 1_556 S
C219 H222 0.950 . S
C220 C219 1.387 1_554 S
C220 C223 1.387 . S
H221 C217 0.950 . S
H222 C219 0.950 . S
C223 C214 1.390 . S
C223 H216 0.950 . S
C223 C220 1.387 . S
C224 C225 1.387 . S
C224 H228 0.950 . S
C224 C233 1.390 . S
C225 C224 1.387 . S
C225 C227 1.387 . S
H226 C233 0.950 . S
C227 C225 1.387 . S
C227 C229 1.390 . S
C227 H231 0.950 . S
H228 C224 0.950 . S
C229 C227 1.390 . S
C229 C230 1.387 . S
C229 H232 0.950 . S
C230 C229 1.387 . S
C230 C233 1.387 . S
H231 C227 0.950 . S
H232 C229 0.950 . S
C233 C224 1.390 . S
C233 H226 0.950 . S
C233 C230 1.387 . S
C234 C235 1.387 . S
C234 H238 0.950 . S
C234 C243 1.390 . S
C235 C234 1.387 . S
C235 C237 1.387 . S
H236 C243 0.950 . S
C237 C235 1.387 . S
C237 C239 1.390 . S
C237 H241 0.950 1_554 S
H238 C234 0.950 . S
C239 C237 1.390 . S
C239 C240 1.387 . S
C239 H242 0.950 1_554 S
C240 C239 1.387 . S
C240 C243 1.387 . S
H241 C237 0.950 1_556 S
H242 C239 0.950 1_556 S
C243 C234 1.390 . S
C243 H236 0.950 . S
C243 C240 1.387 . S
C244 C245 1.387 . S
C244 H248 0.950 . S
C244 C253 1.390 . S
C245 C244 1.387 . S
C245 C247 1.387 . S
H246 C253 0.950 . S
C247 C245 1.387 . S
C247 C249 1.390 . S
C247 H251 0.950 . S
H248 C244 0.950 . S
C249 C247 1.390 . S
C249 C250 1.387 . S
C249 H252 0.950 1_565 S
C250 C249 1.387 . S
C250 C253 1.387 . S
H251 C247 0.950 . S
H252 C249 0.950 1_545 S
C253 C244 1.390 . S
C253 H246 0.950 . S
C253 C250 1.387 . S
C254 C255 1.387 . S
C254 H258 0.950 . S
C254 C263 1.390 . S
C255 C254 1.387 . S
C255 C257 1.387 . S
H256 C263 0.950 . S
C257 C255 1.387 . S
C257 C259 1.390 . S
C257 H261 0.950 . S
H258 C254 0.950 . S
C259 C257 1.390 . S
C259 C260 1.387 . S
C259 H262 0.950 . S
C260 C259 1.387 . S
C260 C263 1.387 . S
H261 C257 0.950 . S
H262 C259 0.950 . S
C263 C254 1.390 . S
C263 H256 0.950 . S
C263 C260 1.387 . S
C264 C265 1.387 . S
C264 H268 0.950 . S
C264 C273 1.390 . S
C265 C264 1.387 . S
C265 C267 1.387 . S
H266 C273 0.950 . S
C267 C265 1.387 . S
C267 C269 1.390 . S
C267 H271 0.950 1_545 S
H268 C264 0.950 . S
C269 C267 1.390 . S
C269 C270 1.387 . S
C269 H272 0.950 1_545 S
C270 C269 1.387 . S
C270 C273 1.387 . S
H271 C267 0.950 1_565 S
H272 C269 0.950 1_565 S
C273 C264 1.390 . S
C273 H266 0.950 . S
C273 C270 1.387 . S
C274 C275 1.387 . S
C274 H278 0.950 . S
C274 C283 1.390 . S
C275 C274 1.387 . S
C275 C277 1.387 . S
H276 C283 0.950 . S
C277 C275 1.387 . S
C277 C279 1.390 . S
C277 H281 0.950 . S
H278 C274 0.950 . S
C279 C277 1.390 . S
C279 C280 1.387 . S
C279 H282 0.950 . S
C280 C279 1.387 . S
C280 C283 1.387 . S
H281 C277 0.950 . S
H282 C279 0.950 . S
C283 C274 1.390 . S
C283 H276 0.950 . S
C283 C280 1.387 . S
C284 C285 1.387 . S
C284 H288 0.950 . S
C284 C293 1.390 . S
C285 C284 1.387 . S
C285 C287 1.387 . S
H286 C293 0.950 . S
C287 C285 1.387 . S
C287 C289 1.390 . S
C287 H291 0.950 . S
H288 C284 0.950 . S
C289 C287 1.390 . S
C289 C290 1.387 . S
C289 H292 0.950 . S
C290 C289 1.387 . S
C290 C293 1.387 . S
H291 C287 0.950 . S
H292 C289 0.950 . S
C293 C284 1.390 . S
C293 H286 0.950 . S
C293 C290 1.387 . S
C294 C295 1.387 1_556 S
C294 H298 0.950 . S
C294 C303 1.390 . S
C295 C294 1.387 1_554 S
C295 C297 1.387 . S
H296 C303 0.950 . S
C297 C295 1.387 . S
C297 C299 1.390 1_554 S
C297 H301 0.950 . S
H298 C294 0.950 . S
C299 C297 1.390 1_556 S
C299 C300 1.387 . S
C299 H302 0.950 . S
C300 C299 1.387 . S
C300 C303 1.387 . S
H301 C297 0.950 . S
H302 C299 0.950 . S
C303 C294 1.390 . S
C303 H296 0.950 . S
C303 C300 1.387 . S
C304 C305 1.387 . S
C304 H308 0.950 . S
C304 C313 1.390 . S
C305 C304 1.387 . S
C305 C307 1.387 . S
H306 C313 0.950 . S
C307 C305 1.387 . S
C307 C309 1.390 . S
C307 H311 0.950 . S
H308 C304 0.950 . S
C309 C307 1.390 . S
C309 C310 1.387 . S
C309 H312 0.950 . S
C310 C309 1.387 . S
C310 C313 1.387 . S
H311 C307 0.950 . S
H312 C309 0.950 . S
C313 C304 1.390 . S
C313 H306 0.950 . S
C313 C310 1.387 . S
C314 C315 1.387 . S
C314 H318 0.950 1_565 S
C314 C323 1.390 . S
C315 C314 1.387 . S
C315 C317 1.387 . S
H316 C323 0.950 1_545 S
C317 C315 1.387 . S
C317 C319 1.390 . S
C317 H321 0.950 . S
H318 C314 0.950 1_545 S
C319 C317 1.390 . S
C319 C320 1.387 . S
C319 H322 0.950 . S
C320 C319 1.387 . S
C320 C323 1.387 . S
H321 C317 0.950 . S
H322 C319 0.950 . S
C323 C314 1.390 . S
C323 H316 0.950 1_565 S
C323 C320 1.387 . S
C210 C104 1.556 . S
C205 C34 1.572 . S
C215 C7 1.547 . S
C220 C176 1.539 . S
C225 C16 1.568 . S
C230 C92 1.556 . S
C235 C25 1.545 . S
C240 C188 1.540 . S
C250 C94 1.354 . S
C245 C5 1.522 . S
C260 C175 1.569 . S
C255 C13 1.560 . S
C265 C23 1.546 . S
C270 C91 1.565 . S
C275 C32 1.513 . S
C280 C178 1.362 . S
C290 C190 1.359 . S
C285 C14 1.512 . S
C300 C106 1.349 . S
C295 C22 1.521 . S
C310 C187 1.567 . S
C305 C31 1.559 . S
C315 C4 1.542 . S
C320 C103 1.563 . S
