# Generated by pormake.
# Topology ssb, (4,4)-cn, num edge types: 1
# Building blocks:
#     Node 0, Type 0, BuildingBlock: GIZVER_clean_linker_0, # of connection points: 4
#     Node 1, Type 0, BuildingBlock: GIZVER_clean_linker_0, # of connection points: 4
#     Node 2, Type 0, BuildingBlock: GIZVER_clean_linker_0, # of connection points: 4
#     Node 3, Type 0, BuildingBlock: GIZVER_clean_linker_0, # of connection points: 4
#     Node 4, Type 0, BuildingBlock: GIZVER_clean_linker_0, # of connection points: 4
#     Node 5, Type 0, BuildingBlock: GIZVER_clean_linker_0, # of connection points: 4
#     Node 6, Type 0, BuildingBlock: GIZVER_clean_linker_0, # of connection points: 4
#     Node 7, Type 0, BuildingBlock: GIZVER_clean_linker_0, # of connection points: 4
#     Node 8, Type 1, BuildingBlock: KOZSID_clean_sbu_0, # of connection points: 4
#     Node 9, Type 1, BuildingBlock: KOZSID_clean_sbu_0, # of connection points: 4
#     Node 10, Type 1, BuildingBlock: KOZSID_clean_sbu_0, # of connection points: 4
#     Node 11, Type 1, BuildingBlock: KOZSID_clean_sbu_0, # of connection points: 4
#     Node 12, Type 1, BuildingBlock: KOZSID_clean_sbu_0, # of connection points: 4
#     Node 13, Type 1, BuildingBlock: KOZSID_clean_sbu_0, # of connection points: 4
#     Node 14, Type 1, BuildingBlock: KOZSID_clean_sbu_0, # of connection points: 4
#     Node 15, Type 1, BuildingBlock: KOZSID_clean_sbu_0, # of connection points: 4
#     Edge 16, Type (0, 1), BuildingBlock: CIFDUS_clean_linker_0, # of connection points: 2
#     Edge 17, Type (0, 1), BuildingBlock: CIFDUS_clean_linker_0, # of connection points: 2
#     Edge 18, Type (0, 1), BuildingBlock: CIFDUS_clean_linker_0, # of connection points: 2
#     Edge 19, Type (0, 1), BuildingBlock: CIFDUS_clean_linker_0, # of connection points: 2
#     Edge 20, Type (0, 1), BuildingBlock: CIFDUS_clean_linker_0, # of connection points: 2
#     Edge 21, Type (0, 1), BuildingBlock: CIFDUS_clean_linker_0, # of connection points: 2
#     Edge 22, Type (0, 1), BuildingBlock: CIFDUS_clean_linker_0, # of connection points: 2
#     Edge 23, Type (0, 1), BuildingBlock: CIFDUS_clean_linker_0, # of connection points: 2
#     Edge 24, Type (0, 1), BuildingBlock: CIFDUS_clean_linker_0, # of connection points: 2
#     Edge 25, Type (0, 1), BuildingBlock: CIFDUS_clean_linker_0, # of connection points: 2
#     Edge 26, Type (0, 1), BuildingBlock: CIFDUS_clean_linker_0, # of connection points: 2
#     Edge 27, Type (0, 1), BuildingBlock: CIFDUS_clean_linker_0, # of connection points: 2
#     Edge 28, Type (0, 1), BuildingBlock: CIFDUS_clean_linker_0, # of connection points: 2
#     Edge 29, Type (0, 1), BuildingBlock: CIFDUS_clean_linker_0, # of connection points: 2
#     Edge 30, Type (0, 1), BuildingBlock: CIFDUS_clean_linker_0, # of connection points: 2
#     Edge 31, Type (0, 1), BuildingBlock: CIFDUS_clean_linker_0, # of connection points: 2
#     Edge 32, Type (0, 1), BuildingBlock: CIFDUS_clean_linker_0, # of connection points: 2
#     Edge 33, Type (0, 1), BuildingBlock: CIFDUS_clean_linker_0, # of connection points: 2
#     Edge 34, Type (0, 1), BuildingBlock: CIFDUS_clean_linker_0, # of connection points: 2
#     Edge 35, Type (0, 1), BuildingBlock: CIFDUS_clean_linker_0, # of connection points: 2
#     Edge 36, Type (0, 1), BuildingBlock: CIFDUS_clean_linker_0, # of connection points: 2
#     Edge 37, Type (0, 1), BuildingBlock: CIFDUS_clean_linker_0, # of connection points: 2
#     Edge 38, Type (0, 1), BuildingBlock: CIFDUS_clean_linker_0, # of connection points: 2
#     Edge 39, Type (0, 1), BuildingBlock: CIFDUS_clean_linker_0, # of connection points: 2
#     Edge 40, Type (0, 1), BuildingBlock: CIFDUS_clean_linker_0, # of connection points: 2
#     Edge 41, Type (0, 1), BuildingBlock: CIFDUS_clean_linker_0, # of connection points: 2
#     Edge 42, Type (0, 1), BuildingBlock: CIFDUS_clean_linker_0, # of connection points: 2
#     Edge 43, Type (0, 1), BuildingBlock: CIFDUS_clean_linker_0, # of connection points: 2
#     Edge 44, Type (0, 1), BuildingBlock: CIFDUS_clean_linker_0, # of connection points: 2
#     Edge 45, Type (0, 1), BuildingBlock: CIFDUS_clean_linker_0, # of connection points: 2
#     Edge 46, Type (0, 1), BuildingBlock: CIFDUS_clean_linker_0, # of connection points: 2
#     Edge 47, Type (0, 1), BuildingBlock: CIFDUS_clean_linker_0, # of connection points: 2
# Relax obj value: 0.003
# Max RMSD: 0.049
# Mean RMSD: 0.024
data_MOF--net-ssb--node1-KOZSID_clean_sbu_0--node2-GIZVER_clean_linker_0--edge1-CIFDUS_clean_linker_0
_symmetry_space_group_name_H-M    P1
_symmetry_Int_Tables_number       1
_symmetry_cell_setting            triclinic
loop_
_symmetry_equiv_pos_as_xyz
'x, y, z'
_cell_length_a     48.855839
_cell_length_b     48.646052
_cell_length_c     35.958582
_cell_angle_alpha  93.078808
_cell_angle_beta   95.777937
_cell_angle_gamma 89.992647
loop_
_atom_site_label
_atom_site_type_symbol
_atom_site_fract_x
_atom_site_fract_y
_atom_site_fract_z
_atom_type_partial_charge
H0 H 0.26762 0.19106 0.30395 0.0
H1 H 0.20858 0.25713 0.30295 0.0
H2 H 0.22692 0.21257 0.40207 0.0
H3 H 0.24503 0.2072 0.24452 0.0
H4 H 0.21977 0.23331 0.2445 0.0
H5 H 0.29468 0.219 0.24783 0.0
H6 H 0.31145 0.29469 0.19835 0.0
H7 H 0.23151 0.2807 0.2343 0.0
C8 C 0.25409 0.20455 0.31851 0.0
C9 C 0.24978 0.19983 0.35594 0.0
C10 C 0.23997 0.22593 0.29932 0.0
C11 C 0.22087 0.24193 0.31793 0.0
C12 C 0.21632 0.2372 0.35504 0.0
C13 C 0.23129 0.21673 0.37391 0.0
C14 C 0.24065 0.22789 0.25724 0.0
C15 C 0.26136 0.24838 0.24545 0.0
C16 C 0.2883 0.23949 0.24033 0.0
C17 C 0.30638 0.25616 0.22321 0.0
C18 C 0.29754 0.28209 0.21194 0.0
C19 C 0.27048 0.29107 0.21473 0.0
C20 C 0.25265 0.27441 0.23268 0.0
H21 H 0.82896 0.24994 0.27233 0.0
H22 H 0.76146 0.19341 0.27481 0.0
H23 H 0.81507 0.21258 0.37476 0.0
H24 H 0.80429 0.23222 0.21425 0.0
H25 H 0.7812 0.20379 0.21475 0.0
H26 H 0.78769 0.28016 0.22694 0.0
H27 H 0.70158 0.29301 0.1948 0.0
H28 H 0.73197 0.2111 0.21014 0.0
C29 C 0.81684 0.23683 0.28786 0.0
C30 C 0.82463 0.23353 0.32614 0.0
C31 C 0.79385 0.22263 0.26929 0.0
C32 C 0.77866 0.20505 0.28921 0.0
C33 C 0.78605 0.20182 0.32734 0.0
C34 C 0.80871 0.21632 0.34571 0.0
C35 C 0.78646 0.22462 0.22781 0.0
C36 C 0.76238 0.24364 0.22035 0.0
C37 C 0.76694 0.27213 0.22072 0.0
C38 C 0.74515 0.29012 0.21148 0.0
C39 C 0.71836 0.27942 0.20347 0.0
C40 C 0.71344 0.25097 0.20284 0.0
C41 C 0.73554 0.23314 0.21142 0.0
H42 H 0.77801 0.73011 0.32322 0.0
H43 H 0.71234 0.78874 0.33014 0.0
H44 H 0.79363 0.80951 0.38036 0.0
H45 H 0.72795 0.71587 0.318 0.0
H46 H 0.70166 0.74104 0.31379 0.0
H47 H 0.74636 0.69662 0.26431 0.0
H48 H 0.71227 0.72039 0.15522 0.0
H49 H 0.69167 0.76518 0.25421 0.0
C50 C 0.77107 0.75054 0.33125 0.0
C51 C 0.7894 0.76903 0.35263 0.0
C52 C 0.74319 0.75755 0.32264 0.0
C53 C 0.73392 0.78353 0.33522 0.0
C54 C 0.75213 0.80237 0.35577 0.0
C55 C 0.77978 0.79511 0.36382 0.0
C56 C 0.72255 0.73593 0.30576 0.0
C57 C 0.7211 0.73252 0.26341 0.0
C58 C 0.7346 0.71036 0.24631 0.0
C59 C 0.73124 0.70486 0.20706 0.0
C60 C 0.71481 0.72318 0.18535 0.0
C61 C 0.69972 0.74426 0.202 0.0
C62 C 0.7034 0.74915 0.24105 0.0
H63 H 0.18625 0.74142 0.23945 0.0
H64 H 0.2465 0.8059 0.23757 0.0
H65 H 0.20718 0.79458 0.33739 0.0
H66 H 0.20101 0.75421 0.1805 0.0
H67 H 0.22038 0.78504 0.17876 0.0
H68 H 0.22329 0.70995 0.18131 0.0
H69 H 0.30687 0.70669 0.15453 0.0
H70 H 0.27161 0.78451 0.18486 0.0
C71 C 0.19881 0.75788 0.25375 0.0
C72 C 0.19525 0.76585 0.29106 0.0
C73 C 0.2178 0.77192 0.23448 0.0
C74 C 0.23278 0.79425 0.25274 0.0
C75 C 0.22918 0.80242 0.28992 0.0
C76 C 0.21084 0.78774 0.30911 0.0
C77 C 0.21974 0.76547 0.19334 0.0
C78 C 0.2451 0.74891 0.18643 0.0
C79 C 0.24287 0.72013 0.1799 0.0
C80 C 0.265 0.70498 0.16773 0.0
C81 C 0.28989 0.71842 0.16447 0.0
C82 C 0.29244 0.74703 0.17005 0.0
C83 C 0.27014 0.76227 0.18183 0.0
H84 H 0.30779 0.76929 0.77806 0.0
H85 H 0.25231 0.70004 0.75712 0.0
H86 H 0.29654 0.71472 0.86565 0.0
H87 H 0.29606 0.7479 0.71406 0.0
H88 H 0.27005 0.72232 0.70528 0.0
H89 H 0.28504 0.79545 0.70564 0.0
H90 H 0.20298 0.81393 0.65902 0.0
H91 H 0.22025 0.73532 0.70486 0.0
C92 C 0.2972 0.75206 0.78823 0.0
C93 C 0.30399 0.74436 0.82523 0.0
C94 C 0.27812 0.73659 0.76347 0.0
C95 C 0.26581 0.71302 0.77636 0.0
C96 C 0.27204 0.70539 0.81353 0.0
C97 C 0.2907 0.72147 0.83771 0.0
C98 C 0.27553 0.74184 0.72192 0.0
C99 C 0.25463 0.76364 0.70973 0.0
C100 C 0.26343 0.78995 0.70065 0.0
C101 C 0.24483 0.80843 0.68269 0.0
C102 C 0.2171 0.80056 0.67469 0.0
C103 C 0.20815 0.77423 0.68241 0.0
C104 C 0.22686 0.75608 0.70047 0.0
H105 H 0.27952 0.21157 0.88139 0.0
H106 H 0.22134 0.27753 0.86539 0.0
H107 H 0.30467 0.29518 0.911 0.0
H108 H 0.23099 0.20111 0.86735 0.0
H109 H 0.20653 0.22809 0.87133 0.0
H110 H 0.25035 0.19045 0.80673 0.0
H111 H 0.19952 0.21173 0.7084 0.0
H112 H 0.1848 0.24896 0.8159 0.0
C113 C 0.27483 0.23336 0.88255 0.0
C114 C 0.29537 0.25245 0.89675 0.0
C115 C 0.24813 0.24239 0.8705 0.0
C116 C 0.24211 0.27063 0.87328 0.0
C117 C 0.2623 0.28973 0.88832 0.0
C118 C 0.28898 0.28052 0.89926 0.0
C119 C 0.22535 0.22197 0.85795 0.0
C120 C 0.21888 0.22056 0.81591 0.0
C121 C 0.23394 0.20277 0.7937 0.0
C122 C 0.22715 0.19997 0.75492 0.0
C123 C 0.20544 0.21522 0.73817 0.0
C124 C 0.18975 0.2328 0.75978 0.0
C125 C 0.19684 0.23565 0.79877 0.0
H126 H 0.69648 0.25476 0.77362 0.0
H127 H 0.75532 0.32091 0.77601 0.0
H128 H 0.70819 0.31254 0.86897 0.0
H129 H 0.70945 0.27497 0.7147 0.0
H130 H 0.73681 0.29919 0.71675 0.0
H131 H 0.71815 0.22655 0.70843 0.0
H132 H 0.79959 0.20081 0.68811 0.0
H133 H 0.78594 0.28387 0.72918 0.0
C134 C 0.70718 0.27219 0.78848 0.0
C135 C 0.7005 0.28103 0.82449 0.0
C136 C 0.72691 0.28652 0.77072 0.0
C137 C 0.74057 0.30947 0.78976 0.0
C138 C 0.73432 0.31849 0.82571 0.0
C139 C 0.71425 0.30427 0.84247 0.0
C140 C 0.72999 0.28036 0.72956 0.0
C141 C 0.75002 0.25737 0.72215 0.0
C142 C 0.74003 0.23084 0.7102 0.0
C143 C 0.75791 0.21036 0.69814 0.0
C144 C 0.78604 0.21626 0.69903 0.0
C145 C 0.79638 0.24274 0.70985 0.0
C146 C 0.77829 0.26317 0.72179 0.0
H147 H 0.75867 0.69529 0.77752 0.0
H148 H 0.70432 0.76454 0.76476 0.0
H149 H 0.71709 0.72739 0.87041 0.0
H150 H 0.74552 0.71097 0.71646 0.0
H151 H 0.72013 0.73707 0.70968 0.0
H152 H 0.79209 0.72246 0.70874 0.0
H153 H 0.8132 0.80678 0.69345 0.0
H154 H 0.73446 0.7874 0.72792 0.0
C155 C 0.74577 0.71068 0.78981 0.0
C156 C 0.73898 0.70841 0.82661 0.0
C157 C 0.73412 0.73148 0.76759 0.0
C158 C 0.71508 0.74981 0.78239 0.0
C159 C 0.70922 0.74848 0.81967 0.0
C160 C 0.72209 0.72852 0.84183 0.0
C161 C 0.73944 0.73181 0.7269 0.0
C162 C 0.76129 0.75266 0.72081 0.0
C163 C 0.78724 0.7442 0.71048 0.0
C164 C 0.80636 0.76363 0.70071 0.0
C165 C 0.79945 0.79167 0.70275 0.0
C166 C 0.7737 0.8003 0.7127 0.0
C167 C 0.75475 0.78077 0.72175 0.0
C168 C 0.05151 0.29413 0.60247 0.0
C169 C 0.06128 0.31954 0.61754 0.0
C170 C 0.04735 0.33897 0.59727 0.0
C171 C 0.02986 0.32439 0.57123 0.0
N172 N 0.03159 0.29678 0.57377 0.0
Co173 Co 0.00989 0.26794 0.54128 0.0
N174 N 0.99079 0.29648 0.5099 0.0
C175 C 0.99539 0.32396 0.51295 0.0
C176 C 0.97884 0.33835 0.48784 0.0
C177 C 0.96249 0.31894 0.46774 0.0
C178 C 0.97001 0.29377 0.48192 0.0
N179 N 0.98764 0.23913 0.50942 0.0
C180 C 0.96695 0.24191 0.48179 0.0
C181 C 0.95599 0.21657 0.46817 0.0
C182 C 0.97004 0.19708 0.48813 0.0
C183 C 0.98862 0.21156 0.51276 0.0
N184 N 0.02944 0.23934 0.57213 0.0
C185 C 0.02618 0.21171 0.56737 0.0
C186 C 0.04323 0.19722 0.59171 0.0
C187 C 0.05859 0.21671 0.61308 0.0
C188 C 0.04988 0.24211 0.60059 0.0
N189 N 0.98022 0.27036 0.57552 0.0
C190 C 0.93413 0.27304 0.61747 0.0
C191 C 0.94659 0.24791 0.6089 0.0
C192 C 0.96943 0.24707 0.58832 0.0
C193 C 0.94599 0.29694 0.60591 0.0
C194 C 0.96884 0.29516 0.58527 0.0
N195 N 0.03947 0.26548 0.50668 0.0
C196 C 0.06647 0.23828 0.46545 0.0
C197 C 0.08092 0.26153 0.45705 0.0
C198 C 0.0745 0.28682 0.47423 0.0
C199 C 0.05369 0.28837 0.49847 0.0
C200 C 0.04626 0.24064 0.4903 0.0
H201 H 0.04947 0.30833 0.51013 0.0
H202 H 0.03652 0.22197 0.49583 0.0
H203 H 0.97759 0.22721 0.58237 0.0
H204 H 0.97664 0.31408 0.57689 0.0
C205 C 0.01327 0.33583 0.54215 0.0
C206 C 0.06252 0.26812 0.61557 0.0
C207 C 0.95611 0.26804 0.46884 0.0
C208 C 0.00695 0.19994 0.53975 0.0
H209 H 0.07722 0.32354 0.64036 0.0
H210 H 0.05019 0.36107 0.60047 0.0
H211 H 0.97808 0.36042 0.48534 0.0
H212 H 0.94641 0.32286 0.44571 0.0
H213 H 0.9392 0.21258 0.44653 0.0
H214 H 0.96676 0.17503 0.48547 0.0
H215 H 0.04457 0.17511 0.59339 0.0
H216 H 0.07468 0.21259 0.63498 0.0
H217 H 0.93823 0.2287 0.61681 0.0
H218 H 0.93759 0.31702 0.61245 0.0
H219 H 0.07103 0.21814 0.45329 0.0
H220 H 0.08513 0.30543 0.46849 0.0
C221 C 0.71533 0.0512 0.57532 0.0
C222 C 0.69003 0.06111 0.58434 0.0
C223 C 0.67037 0.04645 0.56197 0.0
C224 C 0.68465 0.02822 0.54099 0.0
N225 N 0.71228 0.03033 0.54853 0.0
Co226 Co 0.74047 0.00609 0.52636 0.0
N227 N 0.71151 0.98467 0.49324 0.0
C228 C 0.68425 0.99 0.48936 0.0
C229 C 0.66951 0.97285 0.46322 0.0
C230 C 0.68849 0.95553 0.44944 0.0
C231 C 0.71381 0.96297 0.4683 0.0
N232 N 0.7686 0.98088 0.50588 0.0
C233 C 0.7654 0.95827 0.48202 0.0
C234 C 0.79035 0.94513 0.47842 0.0
C235 C 0.81003 0.96031 0.49988 0.0
C236 C 0.79606 0.9815 0.51582 0.0
N237 N 0.76958 0.02825 0.55805 0.0
C238 C 0.7971 0.02534 0.5579 0.0
C239 C 0.81217 0.04502 0.5796 0.0
C240 C 0.79318 0.06162 0.59454 0.0
C241 C 0.76743 0.0508 0.58152 0.0
N242 N 0.7376 0.98056 0.56683 0.0
C243 C 0.73455 0.93844 0.61698 0.0
C244 C 0.75971 0.95088 0.61228 0.0
C245 C 0.76069 0.97199 0.58771 0.0
C246 C 0.71073 0.94896 0.59809 0.0
C247 C 0.71272 0.96976 0.57322 0.0
N248 N 0.74335 0.03164 0.48562 0.0
C249 C 0.77041 0.053 0.44231 0.0
C250 C 0.74839 0.06967 0.43051 0.0
C251 C 0.7236 0.0667 0.44596 0.0
C252 C 0.72141 0.04739 0.47289 0.0
C253 C 0.76756 0.03444 0.46988 0.0
H254 H 0.70179 0.04583 0.4831 0.0
H255 H 0.78542 0.02291 0.47825 0.0
H256 H 0.78049 0.98042 0.58509 0.0
H257 H 0.69393 0.97624 0.55872 0.0
C258 C 0.67289 0.00992 0.51258 0.0
C259 C 0.74164 0.06262 0.59242 0.0
C260 C 0.73941 0.94879 0.46155 0.0
C261 C 0.80823 0.00304 0.53877 0.0
H262 H 0.68612 0.0774 0.60477 0.0
H263 H 0.64829 0.04896 0.56088 0.0
H264 H 0.64752 0.97271 0.45547 0.0
H265 H 0.68412 0.93919 0.42804 0.0
H266 H 0.7941 0.92652 0.4619 0.0
H267 H 0.83194 0.95645 0.5033 0.0
H268 H 0.83434 0.04699 0.58417 0.0
H269 H 0.79793 0.07968 0.61291 0.0
H270 H 0.77888 0.9436 0.626 0.0
H271 H 0.69062 0.9407 0.60157 0.0
H272 H 0.79008 0.0549 0.43114 0.0
H273 H 0.70599 0.0792 0.43726 0.0
C274 C 0.04836 0.78052 0.55917 0.0
C275 C 0.06174 0.80581 0.56621 0.0
C276 C 0.05104 0.82276 0.53934 0.0
C277 C 0.03188 0.80707 0.51726 0.0
N278 N 0.02951 0.78134 0.52884 0.0
Co279 Co 0.00583 0.75175 0.50234 0.0
N280 N 0.98336 0.77874 0.4734 0.0
C281 C 0.99078 0.8046 0.46739 0.0
C282 C 0.97076 0.81835 0.44623 0.0
C283 C 0.94944 0.79989 0.43847 0.0
C284 C 0.95775 0.77593 0.45549 0.0
N285 N 0.98201 0.72246 0.4754 0.0
C286 C 0.95639 0.72443 0.45739 0.0
C287 C 0.94652 0.69882 0.44343 0.0
C288 C 0.96687 0.68023 0.45304 0.0
C289 C 0.9879 0.6955 0.47234 0.0
N290 N 0.0284 0.72462 0.53115 0.0
C291 C 0.02883 0.69727 0.52292 0.0
C292 C 0.04595 0.68348 0.5481 0.0
C293 C 0.05735 0.70341 0.57336 0.0
C294 C 0.04681 0.72846 0.56191 0.0
N295 N 0.98077 0.75464 0.54155 0.0
C296 C 0.94203 0.75844 0.59418 0.0
C297 C 0.95164 0.7328 0.58161 0.0
C298 C 0.971 0.73136 0.55549 0.0
C299 C 0.95271 0.78218 0.58028 0.0
C300 C 0.97201 0.77983 0.55407 0.0
N301 N 0.03091 0.74875 0.46298 0.0
C302 C 0.0771 0.7486 0.445 0.0
C303 C 0.06721 0.74725 0.40697 0.0
C304 C 0.03859 0.74603 0.39769 0.0
C305 C 0.02086 0.74686 0.42602 0.0
C306 C 0.05875 0.74915 0.47236 0.0
H307 H 0.99898 0.7463 0.41798 0.0
H308 H 0.06725 0.75043 0.50117 0.0
H309 H 0.97774 0.71131 0.54617 0.0
H310 H 0.97948 0.79841 0.5434 0.0
C311 C 0.01401 0.81654 0.48783 0.0
C312 C 0.05688 0.75545 0.57849 0.0
C313 C 0.94161 0.75044 0.45246 0.0
C314 C 0.01028 0.685 0.49453 0.0
H315 H 0.07828 0.81133 0.58759 0.0
H316 H 0.05654 0.84403 0.53638 0.0
H317 H 0.97106 0.8396 0.4388 0.0
H318 H 0.93003 0.80358 0.42223 0.0
H319 H 0.92667 0.69401 0.42834 0.0
H320 H 0.96575 0.65808 0.44838 0.0
H321 H 0.04925 0.66149 0.54863 0.0
H322 H 0.07213 0.69989 0.59709 0.0
H323 H 0.94431 0.71391 0.59191 0.0
H324 H 0.94571 0.80245 0.58881 0.0
H325 H 0.09892 0.75008 0.45386 0.0
H326 H 0.02986 0.74458 0.36876 0.0
C327 C 0.28614 0.96311 0.57734 0.0
C328 C 0.31051 0.95623 0.59793 0.0
C329 C 0.33065 0.97248 0.58684 0.0
C330 C 0.3175 0.9886 0.56056 0.0
N331 N 0.29017 0.98361 0.55407 0.0
Co332 Co 0.26332 0.00426 0.51994 0.0
N333 N 0.2932 0.02703 0.50198 0.0
C334 C 0.32053 0.02423 0.51118 0.0
C335 C 0.3363 0.04176 0.49355 0.0
C336 C 0.31797 0.05661 0.4716 0.0
C337 C 0.29191 0.04743 0.47735 0.0
N338 N 0.2362 0.02604 0.48775 0.0
C339 C 0.23999 0.04764 0.46629 0.0
C340 C 0.21503 0.05807 0.45131 0.0
C341 C 0.19487 0.0423 0.46311 0.0
C342 C 0.20851 0.02344 0.48494 0.0
N343 N 0.23356 0.98033 0.53589 0.0
C344 C 0.20662 0.98077 0.52287 0.0
C345 C 0.1913 0.96031 0.53546 0.0
C346 C 0.20952 0.94577 0.55784 0.0
C347 C 0.23501 0.95855 0.55819 0.0
N348 N 0.25926 0.03148 0.56211 0.0
C349 C 0.25355 0.06971 0.62235 0.0
C350 C 0.23107 0.0542 0.60586 0.0
C351 C 0.23429 0.03551 0.57581 0.0
C352 C 0.27891 0.06584 0.60827 0.0
C353 C 0.28136 0.0466 0.57858 0.0
N354 N 0.26739 0.97682 0.47808 0.0
C355 C 0.24665 0.94798 0.42602 0.0
C356 C 0.27025 0.9318 0.42634 0.0
C357 C 0.29305 0.9396 0.45111 0.0
C358 C 0.29135 0.96235 0.47615 0.0
C359 C 0.24564 0.97024 0.45198 0.0
H360 H 0.30946 0.9673 0.49436 0.0
H361 H 0.22671 0.98118 0.45115 0.0
H362 H 0.21624 0.02464 0.56408 0.0
H363 H 0.30138 0.04434 0.56954 0.0
C364 C 0.33046 0.00685 0.53913 0.0
C365 C 0.25978 0.94942 0.58062 0.0
C366 C 0.26663 0.05885 0.45892 0.0
C367 C 0.19608 0.00165 0.50059 0.0
H368 H 0.31355 0.94088 0.61861 0.0
H369 H 0.35238 0.97224 0.59635 0.0
H370 H 0.35848 0.0439 0.49687 0.0
H371 H 0.32318 0.07258 0.45367 0.0
H372 H 0.21166 0.07522 0.43348 0.0
H373 H 0.17289 0.04413 0.45615 0.0
H374 H 0.16945 0.9565 0.52927 0.0
H375 H 0.20447 0.92779 0.57226 0.0
H376 H 0.21092 0.05686 0.61565 0.0
H377 H 0.29689 0.07739 0.62041 0.0
H378 H 0.2285 0.94267 0.40714 0.0
H379 H 0.31193 0.92788 0.45169 0.0
C380 C 0.54887 0.80122 0.06655 0.0
C381 C 0.5583 0.82643 0.08273 0.0
C382 C 0.54339 0.84616 0.06425 0.0
C383 C 0.52569 0.83193 0.03806 0.0
N384 N 0.52835 0.80429 0.03866 0.0
Co385 Co 0.50638 0.77598 0.00547 0.0
N386 N 0.48528 0.80504 0.97728 0.0
C387 C 0.48927 0.83255 0.98186 0.0
C388 C 0.47148 0.84738 0.95883 0.0
C389 C 0.45497 0.82819 0.93848 0.0
C390 C 0.46365 0.80269 0.95041 0.0
N391 N 0.48372 0.7476 0.97329 0.0
C392 C 0.46177 0.75069 0.94761 0.0
C393 C 0.45093 0.72544 0.93334 0.0
C394 C 0.46636 0.70569 0.95088 0.0
C395 C 0.48559 0.71991 0.97482 0.0
N396 N 0.52804 0.74684 0.03281 0.0
C397 C 0.52583 0.71927 0.02573 0.0
C398 C 0.54419 0.7044 0.04778 0.0
C399 C 0.55925 0.72356 0.07016 0.0
C400 C 0.54905 0.74916 0.06055 0.0
N401 N 0.4782 0.77601 0.04167 0.0
C402 C 0.43008 0.77405 0.07823 0.0
C403 C 0.44489 0.75018 0.07101 0.0
C404 C 0.46895 0.75165 0.05336 0.0
C405 C 0.44106 0.79927 0.07017 0.0
C406 C 0.46519 0.79979 0.05213 0.0
N407 N 0.53435 0.77593 0.96866 0.0
C408 C 0.5599 0.75133 0.92322 0.0
C409 C 0.57383 0.77527 0.91628 0.0
C410 C 0.56776 0.79962 0.9361 0.0
C411 C 0.54792 0.79955 0.96169 0.0
C412 C 0.54063 0.75207 0.94938 0.0
H413 H 0.54396 0.81886 0.97547 0.0
H414 H 0.53125 0.73294 0.95355 0.0
H415 H 0.47895 0.73264 0.04783 0.0
H416 H 0.47223 0.8195 0.04535 0.0
C417 C 0.50779 0.84387 0.01077 0.0
C418 C 0.56034 0.77499 0.07833 0.0
C419 C 0.45007 0.77694 0.93641 0.0
C420 C 0.50566 0.7079 0.9991 0.0
H421 H 0.57452 0.83015 0.10525 0.0
H422 H 0.54558 0.86826 0.06886 0.0
H423 H 0.47002 0.86954 0.95791 0.0
H424 H 0.43803 0.83247 0.91784 0.0
H425 H 0.43346 0.72169 0.91269 0.0
H426 H 0.46366 0.68361 0.94699 0.0
H427 H 0.54635 0.68225 0.04764 0.0
H428 H 0.57595 0.71916 0.09108 0.0
H429 H 0.43723 0.73026 0.07743 0.0
H430 H 0.43025 0.81826 0.07569 0.0
H431 H 0.56427 0.73183 0.90905 0.0
H432 H 0.57804 0.8187 0.93158 0.0
C433 C 0.2215 0.53635 0.0815 0.0
C434 C 0.19646 0.54582 0.09215 0.0
C435 C 0.1766 0.53668 0.06468 0.0
C436 C 0.19046 0.52218 0.03879 0.0
N437 N 0.21781 0.5211 0.0486 0.0
Co438 Co 0.24521 0.50342 0.01777 0.0
N439 N 0.21612 0.48314 0.98487 0.0
C440 C 0.18908 0.48869 0.98131 0.0
C441 C 0.17411 0.46958 0.95804 0.0
C442 C 0.19299 0.45082 0.94657 0.0
C443 C 0.21841 0.4597 0.96348 0.0
N444 N 0.27233 0.48596 0.98677 0.0
C445 C 0.26959 0.46272 0.96455 0.0
C446 C 0.29351 0.45674 0.94817 0.0
C447 C 0.31204 0.47715 0.96109 0.0
C448 C 0.2983 0.4943 0.98448 0.0
N449 N 0.27468 0.52338 0.05058 0.0
C450 C 0.30101 0.52646 0.04317 0.0
C451 C 0.31697 0.54053 0.07151 0.0
C452 C 0.29951 0.54728 0.09801 0.0
C453 C 0.27366 0.53719 0.08414 0.0
N454 N 0.24842 0.47229 0.05086 0.0
C455 C 0.25324 0.42467 0.0923 0.0
C456 C 0.27656 0.438 0.08203 0.0
C457 C 0.27375 0.46173 0.06165 0.0
C458 C 0.22746 0.4364 0.08272 0.0
C459 C 0.22549 0.46009 0.06188 0.0
N460 N 0.24209 0.53447 0.98436 0.0
C461 C 0.24161 0.58351 0.97742 0.0
C462 C 0.24025 0.57998 0.93826 0.0
C463 C 0.23968 0.55275 0.92274 0.0
C464 C 0.24066 0.53037 0.9462 0.0
C465 C 0.2421 0.56077 0.99952 0.0
H466 H 0.24036 0.50975 0.93346 0.0
H467 H 0.24272 0.56455 0.02908 0.0
H468 H 0.29213 0.47102 0.05366 0.0
H469 H 0.20531 0.46805 0.05378 0.0
C470 C 0.17833 0.50755 0.00667 0.0
C471 C 0.24825 0.54642 0.09965 0.0
C472 C 0.24459 0.44607 0.95893 0.0
C473 C 0.31061 0.5136 0.01121 0.0
H474 H 0.19294 0.55892 0.11645 0.0
H475 H 0.15468 0.54026 0.0637 0.0
H476 H 0.15197 0.46833 0.95216 0.0
H477 H 0.18848 0.43253 0.92853 0.0
H478 H 0.29726 0.43916 0.92964 0.0
H479 H 0.33349 0.47821 0.95609 0.0
H480 H 0.33869 0.5453 0.0728 0.0
H481 H 0.30479 0.55965 0.12367 0.0
H482 H 0.29693 0.42977 0.08902 0.0
H483 H 0.20889 0.4267 0.08988 0.0
H484 H 0.24279 0.60379 0.99142 0.0
H485 H 0.2383 0.54863 0.89274 0.0
C486 C 0.46966 0.26681 0.98473 0.0
C487 C 0.46322 0.29255 0.97139 0.0
C488 C 0.48452 0.30982 0.98479 0.0
C489 C 0.50253 0.29389 0.00593 0.0
N490 N 0.49389 0.2677 0.00676 0.0
Co491 Co 0.51243 0.2384 0.03642 0.0
N492 N 0.53509 0.26577 0.06919 0.0
C493 C 0.53931 0.29214 0.06131 0.0
C494 C 0.55713 0.30608 0.08753 0.0
C495 C 0.5651 0.28726 0.11327 0.0
C496 C 0.55159 0.26266 0.10135 0.0
N497 N 0.53048 0.20889 0.0663 0.0
C498 C 0.54633 0.21058 0.09962 0.0
C499 C 0.55435 0.18458 0.11052 0.0
C500 C 0.54403 0.16616 0.08248 0.0
C501 C 0.53009 0.18179 0.05622 0.0
N502 N 0.49007 0.21129 0.00312 0.0
C503 C 0.49514 0.1842 0.99865 0.0
C504 C 0.47591 0.17066 0.97371 0.0
C505 C 0.45758 0.19049 0.96187 0.0
C506 C 0.46664 0.21504 0.98047 0.0
N507 N 0.54182 0.23621 0.00256 0.0
C508 C 0.58596 0.24083 0.95824 0.0
C509 C 0.59024 0.23316 0.99541 0.0
C510 C 0.56829 0.23172 0.01705 0.0
C511 C 0.55854 0.24397 0.94289 0.0
C512 C 0.53679 0.24105 0.96531 0.0
N513 N 0.48347 0.24086 0.0705 0.0
C514 C 0.45157 0.2192 0.10704 0.0
C515 C 0.44308 0.24496 0.12115 0.0
C516 C 0.45511 0.26855 0.10865 0.0
C517 C 0.47525 0.26606 0.08374 0.0
C518 C 0.47159 0.21763 0.08169 0.0
H519 H 0.48418 0.28465 0.07521 0.0
H520 H 0.4776 0.19755 0.07139 0.0
H521 H 0.57323 0.22788 0.046 0.0
H522 H 0.51601 0.24377 0.95281 0.0
C523 C 0.52428 0.30386 0.03111 0.0
C524 C 0.45321 0.24166 0.97491 0.0
C525 C 0.55808 0.23621 0.11831 0.0
C526 C 0.51427 0.17163 0.02379 0.0
H527 H 0.44498 0.29856 0.95427 0.0
H528 H 0.48586 0.33173 0.98136 0.0
H529 H 0.56351 0.32741 0.08797 0.0
H530 H 0.57999 0.29121 0.13727 0.0
H531 H 0.56733 0.17958 0.13541 0.0
H532 H 0.54631 0.144 0.08148 0.0
H533 H 0.47452 0.14878 0.96652 0.0
H534 H 0.43949 0.18722 0.94213 0.0
H535 H 0.61062 0.22903 0.00856 0.0
H536 H 0.5538 0.24965 0.91429 0.0
H537 H 0.44317 0.20031 0.11586 0.0
H538 H 0.44889 0.28899 0.11769 0.0
C539 C 0.73328 0.54335 0.08561 0.0
C540 C 0.70776 0.54931 0.09786 0.0
C541 C 0.68942 0.53118 0.07888 0.0
C542 C 0.70475 0.51503 0.05656 0.0
N543 N 0.73193 0.52122 0.06089 0.0
Co544 Co 0.76165 0.50288 0.03413 0.0
N545 N 0.73433 0.47775 0.00361 0.0
C546 C 0.70683 0.47668 0.00575 0.0
C547 C 0.6935 0.45695 0.982 0.0
C548 C 0.71367 0.44436 0.96386 0.0
C549 C 0.73827 0.45725 0.97766 0.0
N550 N 0.79128 0.48482 0.00676 0.0
C551 C 0.78982 0.46361 0.98046 0.0
C552 C 0.81547 0.45717 0.96913 0.0
C553 C 0.83387 0.47473 0.98925 0.0
C554 C 0.81846 0.49086 0.01157 0.0
N555 N 0.78889 0.52787 0.06515 0.0
C556 C 0.81655 0.52774 0.06465 0.0
C557 C 0.82968 0.54872 0.08635 0.0
C558 C 0.80922 0.56343 0.10116 0.0
C559 C 0.7846 0.55039 0.08791 0.0
N560 N 0.76656 0.47491 0.0726 0.0
C561 C 0.77278 0.43082 0.1206 0.0
C562 C 0.79574 0.44416 0.10954 0.0
C563 C 0.79218 0.46605 0.08584 0.0
C564 C 0.74679 0.44085 0.10866 0.0
C565 C 0.74421 0.46274 0.08517 0.0
N566 N 0.75673 0.53076 0.99584 0.0
C567 C 0.77467 0.56861 0.96449 0.0
C568 C 0.7483 0.57497 0.9485 0.0
C569 C 0.7266 0.55762 0.9548 0.0
C570 C 0.73116 0.53609 0.97865 0.0
C571 C 0.77844 0.54632 0.9874 0.0
H572 H 0.71352 0.52447 0.98341 0.0
H573 H 0.79899 0.54255 0.99882 0.0
H574 H 0.81046 0.47505 0.07802 0.0
H575 H 0.72378 0.46882 0.07679 0.0
C576 C 0.69415 0.49445 0.03051 0.0
C577 C 0.75752 0.56088 0.09559 0.0
C578 C 0.76487 0.4484 0.9663 0.0
C579 C 0.82904 0.51054 0.03897 0.0
H580 H 0.70276 0.56576 0.11749 0.0
H581 H 0.66743 0.53034 0.08044 0.0
H582 H 0.67174 0.45207 0.9786 0.0
H583 H 0.71067 0.42734 0.9432 0.0
H584 H 0.82036 0.44112 0.94887 0.0
H585 H 0.85594 0.47524 0.98836 0.0
H586 H 0.85139 0.55376 0.08915 0.0
H587 H 0.81226 0.58226 0.11841 0.0
H588 H 0.81638 0.43748 0.11858 0.0
H589 H 0.72826 0.43114 0.11599 0.0
H590 H 0.79228 0.58123 0.96056 0.0
H591 H 0.7059 0.56085 0.94201 0.0
H592 H 0.16201 0.22915 0.3357 0.0
H593 H 0.21949 0.27262 0.41663 0.0
H594 H 0.18196 0.28647 0.45399 0.0
H595 H 0.13343 0.28188 0.4669 0.0
H596 H 0.07687 0.23511 0.38802 0.0
H597 H 0.11312 0.22687 0.34667 0.0
C598 C 0.16608 0.24232 0.36097 0.0
C599 C 0.19329 0.25033 0.37315 0.0
C600 C 0.14458 0.24916 0.38302 0.0
C601 C 0.19859 0.26666 0.40651 0.0
C602 C 0.17718 0.27433 0.42799 0.0
C603 C 0.12899 0.27028 0.44036 0.0
C604 C 0.10253 0.259 0.43063 0.0
C605 C 0.15018 0.26508 0.41705 0.0
C606 C 0.09714 0.24376 0.39633 0.0
C607 C 0.11785 0.2391 0.37262 0.0
H608 H 0.78262 0.14753 0.30893 0.0
H609 H 0.76053 0.20918 0.39098 0.0
H610 H 0.74377 0.17331 0.42851 0.0
H611 H 0.73967 0.12422 0.44062 0.0
H612 H 0.7659 0.06265 0.36126 0.0
H613 H 0.77667 0.09854 0.31969 0.0
C614 C 0.77357 0.15301 0.33465 0.0
C615 C 0.7725 0.18076 0.34723 0.0
C616 C 0.76502 0.13229 0.35658 0.0
C617 C 0.76135 0.18784 0.3809 0.0
C618 C 0.75191 0.16738 0.40231 0.0
C619 C 0.74727 0.11876 0.41388 0.0
C620 C 0.75196 0.09101 0.40375 0.0
C621 C 0.75424 0.13951 0.39084 0.0
C622 C 0.76223 0.08399 0.36945 0.0
C623 C 0.76838 0.10445 0.34579 0.0
H624 H 0.81523 0.77642 0.42292 0.0
H625 H 0.8277 0.74272 0.31258 0.0
H626 H 0.87555 0.73198 0.33424 0.0
H627 H 0.91485 0.73512 0.38397 0.0
H628 H 0.90185 0.76962 0.49358 0.0
H629 H 0.85328 0.77733 0.47289 0.0
C630 C 0.82843 0.7668 0.40353 0.0
C631 C 0.81799 0.76076 0.366 0.0
C632 C 0.85585 0.76086 0.41614 0.0
C633 C 0.8352 0.74763 0.34156 0.0
C634 C 0.86259 0.74159 0.35392 0.0
C635 C 0.90113 0.74377 0.40337 0.0
C636 C 0.91162 0.75145 0.44038 0.0
C637 C 0.87326 0.74843 0.39105 0.0
C638 C 0.89399 0.76328 0.46514 0.0
C639 C 0.86632 0.76779 0.45325 0.0
H640 H 0.25751 0.81028 0.35856 0.0
H641 H 0.22749 0.85276 0.26054 0.0
H642 H 0.24007 0.89703 0.29314 0.0
H643 H 0.2546 0.92374 0.35192 0.0
H644 H 0.28472 0.88125 0.4499 0.0
H645 H 0.27742 0.83692 0.41495 0.0
C646 C 0.2542 0.82925 0.34425 0.0
C647 C 0.24147 0.82837 0.3074 0.0
C648 C 0.26128 0.8546 0.36326 0.0
C649 C 0.23744 0.85298 0.28888 0.0
C650 C 0.2444 0.87828 0.30759 0.0
C651 C 0.25991 0.90474 0.36534 0.0
C652 C 0.26994 0.90563 0.40338 0.0
C653 C 0.25557 0.87936 0.34512 0.0
C654 C 0.27707 0.881 0.42053 0.0
C655 C 0.27273 0.85567 0.40066 0.0
H656 H 0.1565 0.78919 0.69884 0.0
H657 H 0.19992 0.73728 0.62391 0.0
H658 H 0.15672 0.72547 0.58598 0.0
H659 H 0.10734 0.73359 0.57071 0.0
H660 H 0.06267 0.78242 0.64754 0.0
H661 H 0.10544 0.79185 0.68822 0.0
C662 C 0.15627 0.77485 0.67466 0.0
C663 C 0.18123 0.76402 0.66411 0.0
C664 C 0.1312 0.76784 0.65321 0.0
C665 C 0.18087 0.7456 0.63265 0.0
C666 C 0.15622 0.739 0.61085 0.0
C667 C 0.10683 0.74555 0.59697 0.0
C668 C 0.08188 0.75716 0.60629 0.0
C669 C 0.13135 0.75043 0.62041 0.0
C670 C 0.08164 0.77315 0.63998 0.0
C671 C 0.1061 0.77864 0.66309 0.0
H672 H 0.22162 0.14536 0.75896 0.0
H673 H 0.25898 0.20682 0.69828 0.0
H674 H 0.27286 0.17112 0.65322 0.0
H675 H 0.27018 0.12304 0.62794 0.0
H676 H 0.22927 0.06228 0.68598 0.0
H677 H 0.2208 0.09696 0.73529 0.0
C678 C 0.23341 0.1507 0.73634 0.0
C679 C 0.23974 0.17839 0.73199 0.0
C680 C 0.24021 0.13027 0.70986 0.0
C681 C 0.25431 0.18546 0.70218 0.0
C682 C 0.26201 0.16512 0.67638 0.0
C683 C 0.25979 0.11738 0.65172 0.0
C684 C 0.25028 0.09026 0.65342 0.0
C685 C 0.25447 0.13755 0.67943 0.0
C686 C 0.23653 0.08315 0.68402 0.0
C687 C 0.23177 0.10292 0.71221 0.0
H688 H 0.8139 0.28306 0.66834 0.0
H689 H 0.84311 0.21603 0.73501 0.0
H690 H 0.88912 0.22098 0.71474 0.0
H691 H 0.91986 0.2416 0.67369 0.0
H692 H 0.88956 0.30659 0.6036 0.0
H693 H 0.84559 0.30561 0.6301 0.0
C694 C 0.83056 0.27004 0.67915 0.0
C695 C 0.82519 0.24931 0.70332 0.0
C696 C 0.85677 0.27247 0.66643 0.0
C697 C 0.8468 0.23219 0.71651 0.0
C698 C 0.87306 0.23492 0.70474 0.0
C699 C 0.90368 0.25557 0.66414 0.0
C700 C 0.90819 0.27403 0.63641 0.0
C701 C 0.87808 0.25448 0.67889 0.0
C702 C 0.887 0.29234 0.62513 0.0
C703 C 0.86166 0.29167 0.64009 0.0
H704 H 0.72977 0.81759 0.66912 0.0
H705 H 0.79984 0.84709 0.74278 0.0
H706 H 0.79105 0.89414 0.72364 0.0
H707 H 0.76694 0.92536 0.6802 0.0
H708 H 0.70033 0.89385 0.60117 0.0
H709 H 0.70352 0.84952 0.62922 0.0
C710 C 0.7426 0.8345 0.68173 0.0
C711 C 0.76533 0.8291 0.70732 0.0
C712 C 0.73809 0.86112 0.66945 0.0
C713 C 0.7822 0.85095 0.72302 0.0
C714 C 0.77725 0.87774 0.71195 0.0
C715 C 0.75306 0.90885 0.66909 0.0
C716 C 0.73366 0.91306 0.63823 0.0
C717 C 0.75585 0.88286 0.68416 0.0
C718 C 0.71532 0.89154 0.62508 0.0
C719 C 0.71731 0.86596 0.64084 0.0
H720 H 0.85711 0.78803 0.71156 0.0
H721 H 0.81281 0.72047 0.65012 0.0
H722 H 0.85173 0.71162 0.6137 0.0
H723 H 0.89618 0.7263 0.59444 0.0
H724 H 0.93952 0.79519 0.65407 0.0
H725 H 0.90281 0.80076 0.69515 0.0
C726 C 0.856 0.77124 0.69036 0.0
C727 C 0.83186 0.7551 0.68354 0.0
C728 C 0.87809 0.76686 0.66856 0.0
C729 C 0.83111 0.73309 0.65641 0.0
C730 C 0.85328 0.72821 0.63517 0.0
C731 C 0.89785 0.74225 0.61682 0.0
C732 C 0.92054 0.76045 0.62087 0.0
C733 C 0.87656 0.74544 0.6403 0.0
C734 C 0.92211 0.7812 0.64981 0.0
C735 C 0.90119 0.78429 0.6735 0.0
H736 H 0.22617 0.86117 0.69175 0.0
H737 H 0.28472 0.81235 0.63552 0.0
H738 H 0.29562 0.85177 0.59997 0.0
H739 H 0.28538 0.89919 0.58069 0.0
H740 H 0.22918 0.9489 0.63996 0.0
H741 H 0.22047 0.91035 0.67832 0.0
C742 C 0.24168 0.85937 0.6722 0.0
C743 C 0.25463 0.83383 0.66635 0.0
C744 C 0.24801 0.88226 0.65201 0.0
C745 C 0.27468 0.83181 0.64089 0.0
C746 C 0.28075 0.85431 0.62029 0.0
C747 C 0.27164 0.90168 0.6025 0.0
C748 C 0.25763 0.92678 0.60711 0.0
C749 C 0.26713 0.8795 0.62502 0.0
C750 C 0.23994 0.92971 0.63557 0.0
C751 C 0.23495 0.90766 0.6575 0.0
H752 H 0.18311 0.25722 0.69306 0.0
H753 H 0.13872 0.23517 0.785 0.0
H754 H 0.09527 0.24676 0.74967 0.0
H755 H 0.06943 0.25775 0.68951 0.0
H756 H 0.11384 0.27754 0.59686 0.0
H757 H 0.15769 0.27205 0.63524 0.0
C758 C 0.16394 0.25524 0.70553 0.0
C759 C 0.16421 0.2451 0.74153 0.0
C760 C 0.13898 0.26115 0.68462 0.0
C761 C 0.13921 0.24312 0.75752 0.0
C762 C 0.11429 0.24944 0.73713 0.0
C763 C 0.0888 0.2612 0.67812 0.0
C764 C 0.08868 0.26781 0.64055 0.0
C765 C 0.11386 0.25764 0.70024 0.0
C766 C 0.11367 0.27235 0.62577 0.0
C767 C 0.13865 0.26916 0.64765 0.0
H768 H 0.76939 0.15785 0.71704 0.0
H769 H 0.72348 0.2051 0.63432 0.0
H770 H 0.71296 0.16321 0.59462 0.0
H771 H 0.72114 0.11382 0.58064 0.0
H772 H 0.76417 0.06588 0.66508 0.0
H773 H 0.77156 0.10718 0.707 0.0
C774 C 0.75655 0.15875 0.69071 0.0
C775 C 0.74717 0.1844 0.67853 0.0
C776 C 0.75045 0.13454 0.66817 0.0
C777 C 0.73064 0.18549 0.64435 0.0
C778 C 0.72485 0.1616 0.62153 0.0
C779 C 0.73161 0.1124 0.60853 0.0
C780 C 0.74249 0.08701 0.61964 0.0
C781 C 0.73524 0.13611 0.63272 0.0
C782 C 0.75594 0.08533 0.65586 0.0
C783 C 0.76016 0.10891 0.67977 0.0
H784 H 0.83371 0.25775 0.39643 0.0
H785 H 0.87482 0.23476 0.29877 0.0
H786 H 0.91929 0.24624 0.33342 0.0
H787 H 0.94694 0.25755 0.39377 0.0
H788 H 0.90593 0.27859 0.49182 0.0
H789 H 0.86101 0.27303 0.45503 0.0
C790 C 0.85239 0.25553 0.38263 0.0
C791 C 0.8509 0.24519 0.34513 0.0
C792 C 0.87795 0.26152 0.40299 0.0
C793 C 0.87528 0.24287 0.32748 0.0
C794 C 0.90078 0.24916 0.3474 0.0
C795 C 0.92807 0.26135 0.40669 0.0
C796 C 0.92942 0.26835 0.44521 0.0
C797 C 0.90242 0.25773 0.38545 0.0
C798 C 0.90511 0.2732 0.46209 0.0
C799 C 0.87953 0.26993 0.44112 0.0
H800 H 0.76721 0.85465 0.34386 0.0
H801 H 0.7155 0.80782 0.40756 0.0
H802 H 0.70516 0.84955 0.44474 0.0
H803 H 0.7149 0.8986 0.46331 0.0
H804 H 0.76459 0.94584 0.39733 0.0
H805 H 0.77155 0.90496 0.35664 0.0
C806 C 0.75323 0.85381 0.36538 0.0
C807 C 0.74212 0.82833 0.3731 0.0
C808 C 0.74727 0.87791 0.38643 0.0
C809 C 0.72408 0.82732 0.40103 0.0
C810 C 0.71833 0.85112 0.42242 0.0
C811 C 0.72673 0.89996 0.4395 0.0
C812 C 0.73955 0.92499 0.43351 0.0
C813 C 0.73036 0.87642 0.416 0.0
C814 C 0.75477 0.92665 0.40256 0.0
C815 C 0.7588 0.9033 0.37941 0.0
H816 H 0.14099 0.77623 0.27939 0.0
H817 H 0.20061 0.73092 0.34777 0.0
H818 H 0.16521 0.71858 0.3878 0.0
H819 H 0.11847 0.72441 0.40648 0.0
H820 H 0.06003 0.77363 0.34114 0.0
H821 H 0.09341 0.78008 0.29636 0.0
C822 C 0.14592 0.76306 0.30253 0.0
C823 C 0.1731 0.75407 0.31048 0.0
C824 C 0.12571 0.75697 0.32612 0.0
C825 C 0.17965 0.73765 0.34098 0.0
C826 C 0.15948 0.73081 0.36395 0.0
C827 C 0.11297 0.7366 0.38251 0.0
C828 C 0.08669 0.74867 0.37759 0.0
C829 C 0.13262 0.741 0.35738 0.0
C830 C 0.07988 0.7638 0.34568 0.0
C831 C 0.09909 0.76774 0.32011 0.0
H832 H 0.24718 0.14516 0.33303 0.0
H833 H 0.27774 0.20059 0.42537 0.0
H834 H 0.28783 0.1617 0.46476 0.0
H835 H 0.28292 0.1122 0.47534 0.0
H836 H 0.2518 0.05665 0.38363 0.0
H837 H 0.24711 0.09492 0.34175 0.0
C838 C 0.25682 0.14862 0.36141 0.0
C839 C 0.26172 0.17581 0.37617 0.0
C840 C 0.26203 0.12605 0.3843 0.0
C841 C 0.27378 0.17991 0.41329 0.0
C842 C 0.27939 0.15766 0.43594 0.0
C843 C 0.27563 0.10849 0.446 0.0
C844 C 0.26757 0.0817 0.43259 0.0
C845 C 0.27282 0.13069 0.42215 0.0
C846 C 0.25804 0.07713 0.39455 0.0
C847 C 0.25531 0.09903 0.37065 0.0
H848 H 0.65529 0.74373 0.79616 0.0
H849 H 0.71234 0.7861 0.87882 0.0
H850 H 0.67432 0.80144 0.91427 0.0
H851 H 0.62578 0.79664 0.92642 0.0
H852 H 0.56948 0.75103 0.84585 0.0
H853 H 0.60602 0.74313 0.80492 0.0
C854 C 0.65918 0.75718 0.8212 0.0
C855 C 0.68641 0.76415 0.83469 0.0
C856 C 0.63736 0.76476 0.84226 0.0
C857 C 0.69143 0.78088 0.86774 0.0
C858 C 0.66974 0.78936 0.88818 0.0
C859 C 0.62141 0.78553 0.89951 0.0
C860 C 0.59504 0.7742 0.88934 0.0
C861 C 0.64274 0.78051 0.87647 0.0
C862 C 0.58972 0.75961 0.85453 0.0
C863 C 0.61059 0.75514 0.83107 0.0
H864 H 0.24122 0.69794 0.87105 0.0
H865 H 0.28288 0.65342 0.7869 0.0
H866 H 0.27574 0.61011 0.81665 0.0
H867 H 0.26181 0.58579 0.87062 0.0
H868 H 0.21692 0.63052 0.95185 0.0
H869 H 0.22139 0.67254 0.91952 0.0
C870 C 0.24812 0.67862 0.85877 0.0
C871 C 0.26244 0.67885 0.82674 0.0
C872 C 0.24389 0.65383 0.87602 0.0
C873 C 0.27148 0.65372 0.81124 0.0
C874 C 0.26763 0.629 0.82851 0.0
C875 C 0.25247 0.60451 0.88096 0.0
C876 C 0.23982 0.60473 0.91469 0.0
C877 C 0.25444 0.62886 0.86151 0.0
C878 C 0.22785 0.62954 0.9271 0.0
C879 C 0.23011 0.65374 0.90833 0.0
H880 H 0.34408 0.26295 0.87046 0.0
H881 H 0.30829 0.22311 0.9582 0.0
H882 H 0.35425 0.21543 0.99005 0.0
H883 H 0.40462 0.22357 0.99525 0.0
H884 H 0.44035 0.2605 0.9051 0.0
H885 H 0.39462 0.26582 0.87173 0.0
C886 C 0.3465 0.25212 0.89618 0.0
C887 C 0.32302 0.24354 0.91206 0.0
C888 C 0.37294 0.24771 0.91413 0.0
C889 C 0.32619 0.22961 0.9454 0.0
C890 C 0.35242 0.22544 0.96371 0.0
C891 C 0.40226 0.23263 0.9682 0.0
C892 C 0.42556 0.24276 0.95332 0.0
C893 C 0.37592 0.23495 0.94875 0.0
C894 C 0.42251 0.25364 0.91774 0.0
C895 C 0.39642 0.25648 0.89856 0.0
H896 H 0.75481 0.32662 0.8986 0.0
H897 H 0.73964 0.36866 0.79605 0.0
H898 H 0.75083 0.4128 0.8301 0.0
H899 H 0.75929 0.43998 0.89054 0.0
H900 H 0.77288 0.39781 0.99294 0.0
H901 H 0.76794 0.35322 0.95773 0.0
C902 C 0.75435 0.34543 0.88364 0.0
C903 C 0.74619 0.34436 0.84488 0.0
C904 C 0.76024 0.37074 0.90353 0.0
C905 C 0.74601 0.36885 0.82579 0.0
C906 C 0.75215 0.39414 0.84534 0.0
C907 C 0.76175 0.42093 0.90482 0.0
C908 C 0.76649 0.4219 0.94407 0.0
C909 C 0.75848 0.39543 0.88437 0.0
C910 C 0.7694 0.39731 0.96266 0.0
C911 C 0.76643 0.37191 0.94257 0.0
H912 H 0.66404 0.26187 0.22936 0.0
H913 H 0.70156 0.21654 0.14172 0.0
H914 H 0.65617 0.20536 0.10935 0.0
H915 H 0.60636 0.21359 0.10215 0.0
H916 H 0.56807 0.25681 0.19074 0.0
H917 H 0.61314 0.26354 0.22697 0.0
C918 C 0.66212 0.24904 0.20361 0.0
C919 C 0.68599 0.24009 0.18778 0.0
C920 C 0.6359 0.24254 0.18529 0.0
C921 C 0.68342 0.22346 0.15447 0.0
C922 C 0.6575 0.21724 0.13585 0.0
C923 C 0.60782 0.22372 0.12991 0.0
C924 C 0.58407 0.23486 0.1438 0.0
C925 C 0.63367 0.22732 0.15047 0.0
C926 C 0.58617 0.2481 0.17964 0.0
C927 C 0.61192 0.25209 0.20015 0.0
H928 H 0.71361 0.67805 0.13861 0.0
H929 H 0.77433 0.67118 0.23419 0.0
H930 H 0.78711 0.62622 0.20929 0.0
H931 H 0.77923 0.5873 0.16179 0.0
H932 H 0.72578 0.5994 0.06112 0.0
H933 H 0.7127 0.64452 0.08647 0.0
C934 C 0.73042 0.6678 0.15396 0.0
C935 C 0.74227 0.67876 0.18923 0.0
C936 C 0.73909 0.64255 0.13843 0.0
C937 C 0.76358 0.66352 0.20796 0.0
C938 C 0.77134 0.63768 0.19344 0.0
C939 C 0.76548 0.60022 0.14488 0.0
C940 C 0.75347 0.58998 0.10958 0.0
C941 C 0.75891 0.62677 0.15895 0.0
C942 C 0.73516 0.60676 0.08844 0.0
C943 C 0.72767 0.63254 0.10293 0.0
H944 H 0.309 0.74174 0.10143 0.0
H945 H 0.33083 0.7814 0.2103 0.0
H946 H 0.37524 0.79583 0.19052 0.0
H947 H 0.40978 0.79252 0.14358 0.0
H948 H 0.38721 0.75016 0.03647 0.0
H949 H 0.3412 0.74135 0.05403 0.0
C950 C 0.32338 0.75388 0.12067 0.0
C951 C 0.31692 0.76033 0.1573 0.0
C952 C 0.34885 0.76128 0.10944 0.0
C953 C 0.33545 0.77627 0.18193 0.0
C954 C 0.36087 0.78428 0.17068 0.0
C955 C 0.39455 0.78171 0.12412 0.0
C956 C 0.40176 0.77174 0.08893 0.0
C957 C 0.36813 0.77622 0.13477 0.0
C958 C 0.38205 0.75772 0.06379 0.0
C959 C 0.35579 0.75272 0.07379 0.0
H960 H 0.28185 0.30573 0.14608 0.0
H961 H 0.23741 0.33351 0.23863 0.0
H962 H 0.22645 0.37676 0.20805 0.0
H963 H 0.23255 0.40818 0.15642 0.0
H964 H 0.28017 0.37998 0.06723 0.0
H965 H 0.28729 0.33577 0.09541 0.0
C966 C 0.26997 0.32129 0.15995 0.0
C967 C 0.26101 0.31644 0.19516 0.0
C968 C 0.26454 0.34626 0.14282 0.0
C969 C 0.2447 0.33657 0.21169 0.0
C970 C 0.2386 0.36143 0.19428 0.0
C971 C 0.24432 0.39223 0.14316 0.0
C972 C 0.25602 0.39751 0.10983 0.0
C973 C 0.24885 0.36675 0.16009 0.0
C974 C 0.27126 0.37664 0.09302 0.0
C975 C 0.27527 0.35129 0.10908 0.0
H976 H 0.35678 0.28064 0.23422 0.0
H977 H 0.31447 0.20869 0.18206 0.0
H978 H 0.35397 0.19756 0.14729 0.0
H979 H 0.39775 0.21199 0.1254 0.0
H980 H 0.44041 0.28355 0.17919 0.0
H981 H 0.40338 0.29135 0.21886 0.0
C982 C 0.35655 0.26214 0.21595 0.0
C983 C 0.33272 0.24555 0.21069 0.0
C984 C 0.37908 0.25622 0.19546 0.0
C985 C 0.33266 0.22162 0.18695 0.0
C986 C 0.35512 0.21548 0.16665 0.0
C987 C 0.39935 0.22896 0.1463 0.0
C988 C 0.42175 0.24753 0.14833 0.0
C989 C 0.37806 0.23317 0.1697 0.0
C990 C 0.42311 0.26942 0.17577 0.0
C991 C 0.40202 0.27379 0.19889 0.0
H992 H 0.78518 0.31005 0.17335 0.0
H993 H 0.71697 0.33565 0.23413 0.0
H994 H 0.72185 0.38278 0.21499 0.0
H995 H 0.74256 0.41534 0.17592 0.0
H996 H 0.80876 0.38846 0.11188 0.0
H997 H 0.80836 0.34353 0.13865 0.0
C998 C 0.77183 0.32609 0.18322 0.0
C999 C 0.75069 0.31938 0.20504 0.0
C1000 C 0.7744 0.35291 0.17148 0.0
C1001 C 0.73325 0.34029 0.21705 0.0
C1002 C 0.73604 0.3672 0.20613 0.0
C1003 C 0.75699 0.3997 0.16794 0.0
C1004 C 0.77545 0.40526 0.14157 0.0
C1005 C 0.75603 0.37354 0.18244 0.0
C1006 C 0.79446 0.38494 0.13229 0.0
C1007 C 0.79407 0.35908 0.1473 0.0
H1008 H 0.64614 0.74987 0.21506 0.0
H1009 H 0.70292 0.76819 0.13534 0.0
H1010 H 0.66469 0.78186 0.09099 0.0
H1011 H 0.61459 0.78361 0.07219 0.0
H1012 H 0.55793 0.76362 0.15104 0.0
H1013 H 0.59642 0.75587 0.19854 0.0
C1014 C 0.6502 0.75761 0.18841 0.0
C1015 C 0.67737 0.758 0.17854 0.0
C1016 C 0.62802 0.7648 0.16269 0.0
C1017 C 0.68221 0.76761 0.14356 0.0
C1018 C 0.66033 0.77532 0.11813 0.0
C1019 C 0.61083 0.77807 0.10006 0.0
C1020 C 0.58365 0.77418 0.10837 0.0
C1021 C 0.6331 0.77322 0.12694 0.0
C1022 C 0.57879 0.76678 0.14431 0.0
C1023 C 0.60076 0.76228 0.17133 0.0
H1024 H 0.24709 0.65858 0.1991 0.0
H1025 H 0.27385 0.68843 0.09772 0.0
H1026 H 0.27112 0.64221 0.06847 0.0
H1027 H 0.26321 0.59371 0.0721 0.0
H1028 H 0.23545 0.56146 0.17104 0.0
H1029 H 0.23689 0.6082 0.20139 0.0
C1030 C 0.25208 0.6548 0.17058 0.0
C1031 C 0.26105 0.67672 0.15073 0.0
C1032 C 0.25056 0.62789 0.15374 0.0
C1033 C 0.26738 0.67176 0.11371 0.0
C1034 C 0.26579 0.64539 0.09693 0.0
C1035 C 0.25703 0.59681 0.10007 0.0
C1036 C 0.24899 0.57428 0.11921 0.0
C1037 C 0.25774 0.62335 0.11679 0.0
C1038 C 0.24169 0.57864 0.15583 0.0
C1039 C 0.24248 0.60529 0.17304 0.0
H1040 H 0.35492 0.75706 0.80607 0.0
H1041 H 0.30615 0.75992 0.89972 0.0
H1042 H 0.34688 0.77274 0.94229 0.0
H1043 H 0.39738 0.77823 0.95373 0.0
H1044 H 0.44619 0.7745 0.86044 0.0
H1045 H 0.40455 0.76734 0.81678 0.0
C1046 C 0.35304 0.76125 0.83563 0.0
C1047 C 0.32748 0.75739 0.84966 0.0
C1048 C 0.37668 0.76821 0.86006 0.0
C1049 C 0.32559 0.7625 0.88821 0.0
C1050 C 0.34889 0.76978 0.9126 0.0
C1051 C 0.39867 0.77642 0.92375 0.0
C1052 C 0.42456 0.77697 0.91004 0.0
C1053 C 0.37468 0.77193 0.89899 0.0
C1054 C 0.42631 0.77431 0.87133 0.0
C1055 C 0.40256 0.77009 0.84649 0.0
H1056 H 0.27353 0.32024 0.95289 0.0
H1057 H 0.23454 0.32443 0.84036 0.0
H1058 H 0.224 0.37319 0.8527 0.0
H1059 H 0.22812 0.41526 0.89503 0.0
H1060 H 0.26718 0.41025 0.00727 0.0
H1061 H 0.27566 0.36115 0.99566 0.0
C1062 C 0.26284 0.3319 0.93102 0.0
C1063 C 0.25515 0.31898 0.89564 0.0
C1064 C 0.25685 0.35969 0.93838 0.0
C1065 C 0.24072 0.33405 0.86779 0.0
C1066 C 0.23476 0.36188 0.87483 0.0
C1067 C 0.23795 0.40316 0.91702 0.0
C1068 C 0.24671 0.41597 0.95211 0.0
C1069 C 0.24292 0.37498 0.90995 0.0
C1070 C 0.26008 0.40051 0.98025 0.0
C1071 C 0.26501 0.37256 0.97355 0.0
H1072 H 0.69815 0.27457 0.89894 0.0
H1073 H 0.65141 0.25793 0.79169 0.0
H1074 H 0.61261 0.24213 0.8231 0.0
H1075 H 0.59067 0.23621 0.88162 0.0
H1076 H 0.63637 0.26123 0.98746 0.0
H1077 H 0.67621 0.27088 0.95588 0.0
C1078 C 0.67942 0.26785 0.88216 0.0
C1079 C 0.67787 0.26795 0.84283 0.0
C1080 C 0.65667 0.26033 0.90031 0.0
C1081 C 0.65358 0.258 0.82195 0.0
C1082 C 0.63114 0.24925 0.83996 0.0
C1083 C 0.6092 0.24394 0.89788 0.0
C1084 C 0.6102 0.24712 0.93735 0.0
C1085 C 0.6322 0.25091 0.87925 0.0
C1086 C 0.63478 0.25723 0.95744 0.0
C1087 C 0.65776 0.26319 0.93931 0.0
H1088 H 0.70641 0.68161 0.86952 0.0
H1089 H 0.78682 0.67781 0.82952 0.0
H1090 H 0.79649 0.63546 0.86234 0.0
H1091 H 0.78176 0.59966 0.90256 0.0
H1092 H 0.70302 0.60792 0.94723 0.0
H1093 H 0.69326 0.64862 0.91241 0.0
C1094 C 0.72643 0.67211 0.86863 0.0
C1095 C 0.74602 0.68329 0.84748 0.0
C1096 C 0.73206 0.64836 0.88816 0.0
C1097 C 0.7713 0.66971 0.8455 0.0
C1098 C 0.77688 0.64555 0.8644 0.0
C1099 C 0.7626 0.61049 0.90509 0.0
C1100 C 0.743 0.60019 0.92715 0.0
C1101 C 0.75737 0.6347 0.88588 0.0
C1102 C 0.71819 0.61458 0.92963 0.0
C1103 C 0.71265 0.63816 0.91003 0.0
loop_
_geom_bond_atom_site_label_1
_geom_bond_atom_site_label_2
_geom_bond_distance
_geom_bond_site_symmetry_2
_ccdc_geom_bond_type
H0 C8 0.930 . S
H1 C11 0.930 . S
H2 C13 0.930 . S
H3 C14 0.970 . S
H4 C14 0.970 . S
H5 C16 0.930 . S
H6 C18 0.930 . S
H7 C20 0.930 . S
C8 H0 0.930 . S
C8 C9 1.382 . S
C8 C10 1.426 . S
C9 C8 1.382 . S
C9 C13 1.389 . S
C10 C8 1.426 . S
C10 C11 1.375 . S
C10 C14 1.532 . S
C11 H1 0.930 . S
C11 C10 1.375 . S
C11 C12 1.416 . S
C12 C11 1.416 . S
C12 C13 1.371 . S
C13 H2 0.930 . S
C13 C9 1.389 . S
C13 C12 1.371 . S
C14 H3 0.970 . S
C14 H4 0.970 . S
C14 C10 1.532 . S
C14 C15 1.499 . S
C15 C14 1.499 . S
C15 C16 1.370 . S
C15 C20 1.415 . S
C16 H5 0.930 . S
C16 C15 1.370 . S
C16 C17 1.407 . S
C17 C16 1.407 . S
C17 C18 1.365 . S
C18 H6 0.930 . S
C18 C17 1.365 . S
C18 C19 1.393 . S
C19 C18 1.393 . S
C19 C20 1.387 . S
C20 H7 0.930 . S
C20 C15 1.415 . S
C20 C19 1.387 . S
H21 C29 0.930 . S
H22 C32 0.930 . S
H23 C34 0.930 . S
H24 C35 0.970 . S
H25 C35 0.970 . S
H26 C37 0.930 . S
H27 C39 0.930 . S
H28 C41 0.930 . S
C29 H21 0.930 . S
C29 C30 1.382 . S
C29 C31 1.426 . S
C30 C29 1.382 . S
C30 C34 1.389 . S
C31 C29 1.426 . S
C31 C32 1.375 . S
C31 C35 1.532 . S
C32 H22 0.930 . S
C32 C31 1.375 . S
C32 C33 1.416 . S
C33 C32 1.416 . S
C33 C34 1.371 . S
C34 H23 0.930 . S
C34 C30 1.389 . S
C34 C33 1.371 . S
C35 H24 0.970 . S
C35 H25 0.970 . S
C35 C31 1.532 . S
C35 C36 1.499 . S
C36 C35 1.499 . S
C36 C37 1.370 . S
C36 C41 1.415 . S
C37 H26 0.930 . S
C37 C36 1.370 . S
C37 C38 1.407 . S
C38 C37 1.407 . S
C38 C39 1.365 . S
C39 H27 0.930 . S
C39 C38 1.365 . S
C39 C40 1.393 . S
C40 C39 1.393 . S
C40 C41 1.387 . S
C41 H28 0.930 . S
C41 C36 1.415 . S
C41 C40 1.387 . S
H42 C50 0.930 . S
H43 C53 0.930 . S
H44 C55 0.930 . S
H45 C56 0.970 . S
H46 C56 0.970 . S
H47 C58 0.930 . S
H48 C60 0.930 . S
H49 C62 0.930 . S
C50 H42 0.930 . S
C50 C51 1.382 . S
C50 C52 1.426 . S
C51 C50 1.382 . S
C51 C55 1.389 . S
C52 C50 1.426 . S
C52 C53 1.375 . S
C52 C56 1.532 . S
C53 H43 0.930 . S
C53 C52 1.375 . S
C53 C54 1.416 . S
C54 C53 1.416 . S
C54 C55 1.371 . S
C55 H44 0.930 . S
C55 C51 1.389 . S
C55 C54 1.371 . S
C56 H45 0.970 . S
C56 H46 0.970 . S
C56 C52 1.532 . S
C56 C57 1.499 . S
C57 C56 1.499 . S
C57 C58 1.370 . S
C57 C62 1.415 . S
C58 H47 0.930 . S
C58 C57 1.370 . S
C58 C59 1.407 . S
C59 C58 1.407 . S
C59 C60 1.365 . S
C60 H48 0.930 . S
C60 C59 1.365 . S
C60 C61 1.393 . S
C61 C60 1.393 . S
C61 C62 1.387 . S
C62 H49 0.930 . S
C62 C57 1.415 . S
C62 C61 1.387 . S
H63 C71 0.930 . S
H64 C74 0.930 . S
H65 C76 0.930 . S
H66 C77 0.970 . S
H67 C77 0.970 . S
H68 C79 0.930 . S
H69 C81 0.930 . S
H70 C83 0.930 . S
C71 H63 0.930 . S
C71 C72 1.382 . S
C71 C73 1.426 . S
C72 C71 1.382 . S
C72 C76 1.389 . S
C73 C71 1.426 . S
C73 C74 1.375 . S
C73 C77 1.532 . S
C74 H64 0.930 . S
C74 C73 1.375 . S
C74 C75 1.416 . S
C75 C74 1.416 . S
C75 C76 1.371 . S
C76 H65 0.930 . S
C76 C72 1.389 . S
C76 C75 1.371 . S
C77 H66 0.970 . S
C77 H67 0.970 . S
C77 C73 1.532 . S
C77 C78 1.499 . S
C78 C77 1.499 . S
C78 C79 1.370 . S
C78 C83 1.415 . S
C79 H68 0.930 . S
C79 C78 1.370 . S
C79 C80 1.407 . S
C80 C79 1.407 . S
C80 C81 1.365 . S
C81 H69 0.930 . S
C81 C80 1.365 . S
C81 C82 1.393 . S
C82 C81 1.393 . S
C82 C83 1.387 . S
C83 H70 0.930 . S
C83 C78 1.415 . S
C83 C82 1.387 . S
H84 C92 0.930 . S
H85 C95 0.930 . S
H86 C97 0.930 . S
H87 C98 0.970 . S
H88 C98 0.970 . S
H89 C100 0.930 . S
H90 C102 0.930 . S
H91 C104 0.930 . S
C92 H84 0.930 . S
C92 C93 1.382 . S
C92 C94 1.426 . S
C93 C92 1.382 . S
C93 C97 1.389 . S
C94 C92 1.426 . S
C94 C95 1.375 . S
C94 C98 1.532 . S
C95 H85 0.930 . S
C95 C94 1.375 . S
C95 C96 1.416 . S
C96 C95 1.416 . S
C96 C97 1.371 . S
C97 H86 0.930 . S
C97 C93 1.389 . S
C97 C96 1.371 . S
C98 H87 0.970 . S
C98 H88 0.970 . S
C98 C94 1.532 . S
C98 C99 1.499 . S
C99 C98 1.499 . S
C99 C100 1.370 . S
C99 C104 1.415 . S
C100 H89 0.930 . S
C100 C99 1.370 . S
C100 C101 1.407 . S
C101 C100 1.407 . S
C101 C102 1.365 . S
C102 H90 0.930 . S
C102 C101 1.365 . S
C102 C103 1.393 . S
C103 C102 1.393 . S
C103 C104 1.387 . S
C104 H91 0.930 . S
C104 C99 1.415 . S
C104 C103 1.387 . S
H105 C113 0.930 . S
H106 C116 0.930 . S
H107 C118 0.930 . S
H108 C119 0.970 . S
H109 C119 0.970 . S
H110 C121 0.930 . S
H111 C123 0.930 . S
H112 C125 0.930 . S
C113 H105 0.930 . S
C113 C114 1.382 . S
C113 C115 1.426 . S
C114 C113 1.382 . S
C114 C118 1.389 . S
C115 C113 1.426 . S
C115 C116 1.375 . S
C115 C119 1.532 . S
C116 H106 0.930 . S
C116 C115 1.375 . S
C116 C117 1.416 . S
C117 C116 1.416 . S
C117 C118 1.371 . S
C118 H107 0.930 . S
C118 C114 1.389 . S
C118 C117 1.371 . S
C119 H108 0.970 . S
C119 H109 0.970 . S
C119 C115 1.532 . S
C119 C120 1.499 . S
C120 C119 1.499 . S
C120 C121 1.370 . S
C120 C125 1.415 . S
C121 H110 0.930 . S
C121 C120 1.370 . S
C121 C122 1.407 . S
C122 C121 1.407 . S
C122 C123 1.365 . S
C123 H111 0.930 . S
C123 C122 1.365 . S
C123 C124 1.393 . S
C124 C123 1.393 . S
C124 C125 1.387 . S
C125 H112 0.930 . S
C125 C120 1.415 . S
C125 C124 1.387 . S
H126 C134 0.930 . S
H127 C137 0.930 . S
H128 C139 0.930 . S
H129 C140 0.970 . S
H130 C140 0.970 . S
H131 C142 0.930 . S
H132 C144 0.930 . S
H133 C146 0.930 . S
C134 H126 0.930 . S
C134 C135 1.382 . S
C134 C136 1.426 . S
C135 C134 1.382 . S
C135 C139 1.389 . S
C136 C134 1.426 . S
C136 C137 1.375 . S
C136 C140 1.532 . S
C137 H127 0.930 . S
C137 C136 1.375 . S
C137 C138 1.416 . S
C138 C137 1.416 . S
C138 C139 1.371 . S
C139 H128 0.930 . S
C139 C135 1.389 . S
C139 C138 1.371 . S
C140 H129 0.970 . S
C140 H130 0.970 . S
C140 C136 1.532 . S
C140 C141 1.499 . S
C141 C140 1.499 . S
C141 C142 1.370 . S
C141 C146 1.415 . S
C142 H131 0.930 . S
C142 C141 1.370 . S
C142 C143 1.407 . S
C143 C142 1.407 . S
C143 C144 1.365 . S
C144 H132 0.930 . S
C144 C143 1.365 . S
C144 C145 1.393 . S
C145 C144 1.393 . S
C145 C146 1.387 . S
C146 H133 0.930 . S
C146 C141 1.415 . S
C146 C145 1.387 . S
H147 C155 0.930 . S
H148 C158 0.930 . S
H149 C160 0.930 . S
H150 C161 0.970 . S
H151 C161 0.970 . S
H152 C163 0.930 . S
H153 C165 0.930 . S
H154 C167 0.930 . S
C155 H147 0.930 . S
C155 C156 1.382 . S
C155 C157 1.426 . S
C156 C155 1.382 . S
C156 C160 1.389 . S
C157 C155 1.426 . S
C157 C158 1.375 . S
C157 C161 1.532 . S
C158 H148 0.930 . S
C158 C157 1.375 . S
C158 C159 1.416 . S
C159 C158 1.416 . S
C159 C160 1.371 . S
C160 H149 0.930 . S
C160 C156 1.389 . S
C160 C159 1.371 . S
C161 H150 0.970 . S
C161 H151 0.970 . S
C161 C157 1.532 . S
C161 C162 1.499 . S
C162 C161 1.499 . S
C162 C163 1.370 . S
C162 C167 1.415 . S
C163 H152 0.930 . S
C163 C162 1.370 . S
C163 C164 1.407 . S
C164 C163 1.407 . S
C164 C165 1.365 . S
C165 H153 0.930 . S
C165 C164 1.365 . S
C165 C166 1.393 . S
C166 C165 1.393 . S
C166 C167 1.387 . S
C167 H154 0.930 . S
C167 C162 1.415 . S
C167 C166 1.387 . S
C168 C169 1.443 . S
C168 N172 1.376 . S
C168 C206 1.389 . S
C169 C168 1.443 . S
C169 C170 1.340 . S
C169 H209 0.951 . S
C170 C169 1.340 . S
C170 C171 1.439 . S
C170 H210 0.950 . S
C171 C170 1.439 . S
C171 N172 1.374 . S
C171 C205 1.395 . S
N172 C168 1.376 . S
N172 C171 1.374 . S
N172 Co173 2.008 . S
Co173 N172 2.008 . S
Co173 N174 1.995 1_455 S
Co173 N179 2.008 1_455 S
Co173 N184 1.995 . S
Co173 N189 2.282 1_455 S
Co173 N195 2.282 . S
N174 Co173 1.995 1_655 S
N174 C175 1.376 . S
N174 C178 1.383 . S
C175 N174 1.376 . S
C175 C176 1.446 . S
C175 C205 1.391 1_655 S
C176 C175 1.446 . S
C176 C177 1.339 . S
C176 H211 0.949 . S
C177 C176 1.339 . S
C177 C178 1.439 . S
C177 H212 0.950 . S
C178 N174 1.383 . S
C178 C177 1.439 . S
C178 C207 1.392 . S
N179 Co173 2.008 1_655 S
N179 C180 1.376 . S
N179 C183 1.374 . S
C180 N179 1.376 . S
C180 C181 1.443 . S
C180 C207 1.389 . S
C181 C180 1.443 . S
C181 C182 1.340 . S
C181 H213 0.951 . S
C182 C181 1.340 . S
C182 C183 1.439 . S
C182 H214 0.950 . S
C183 N179 1.374 . S
C183 C182 1.439 . S
C183 C208 1.404 . S
N184 Co173 1.995 . S
N184 C185 1.376 . S
N184 C188 1.383 . S
C185 N184 1.376 . S
C185 C186 1.446 . S
C185 C208 1.381 1_455 S
C186 C185 1.446 . S
C186 C187 1.339 . S
C186 H215 0.949 . S
C187 C186 1.339 . S
C187 C188 1.439 . S
C187 H216 0.950 . S
C188 N184 1.383 . S
C188 C187 1.439 . S
C188 C206 1.392 . S
N189 Co173 2.282 1_655 S
N189 C192 1.332 . S
N189 C194 1.332 . S
C190 C191 1.386 . S
C190 C193 1.388 . S
C191 C190 1.386 . S
C191 C192 1.382 . S
C191 H217 0.950 . S
C192 N189 1.332 . S
C192 C191 1.382 . S
C192 H203 0.952 . S
C193 C190 1.388 . S
C193 C194 1.382 . S
C193 H218 0.950 . S
C194 N189 1.332 . S
C194 C193 1.382 . S
C194 H204 0.948 . S
N195 Co173 2.282 . S
N195 C199 1.332 . S
N195 C200 1.332 . S
C196 C197 1.388 . S
C196 C200 1.382 . S
C196 H219 0.950 . S
C197 C196 1.388 . S
C197 C198 1.386 . S
C198 C197 1.386 . S
C198 C199 1.382 . S
C198 H220 0.950 . S
C199 N195 1.332 . S
C199 C198 1.382 . S
C199 H201 0.952 . S
C200 N195 1.332 . S
C200 C196 1.382 . S
C200 H202 0.948 . S
H201 C199 0.952 . S
H202 C200 0.948 . S
H203 C192 0.952 . S
H204 C194 0.948 . S
C205 C171 1.395 . S
C205 C175 1.391 1_455 S
C206 C168 1.389 . S
C206 C188 1.392 . S
C207 C178 1.392 . S
C207 C180 1.389 . S
C208 C183 1.404 . S
C208 C185 1.381 1_655 S
H209 C169 0.951 . S
H210 C170 0.950 . S
H211 C176 0.949 . S
H212 C177 0.950 . S
H213 C181 0.951 . S
H214 C182 0.950 . S
H215 C186 0.949 . S
H216 C187 0.950 . S
H217 C191 0.950 . S
H218 C193 0.950 . S
H219 C196 0.950 . S
H220 C198 0.950 . S
C221 C222 1.443 . S
C221 N225 1.376 . S
C221 C259 1.389 . S
C222 C221 1.443 . S
C222 C223 1.340 . S
C222 H262 0.951 . S
C223 C222 1.340 . S
C223 C224 1.439 . S
C223 H263 0.950 . S
C224 C223 1.439 . S
C224 N225 1.374 . S
C224 C258 1.395 . S
N225 C221 1.376 . S
N225 C224 1.374 . S
N225 Co226 2.008 . S
Co226 N225 2.008 . S
Co226 N227 1.995 1_545 S
Co226 N232 2.008 1_545 S
Co226 N237 1.995 . S
Co226 N242 2.282 1_545 S
Co226 N248 2.282 . S
N227 Co226 1.995 1_565 S
N227 C228 1.376 . S
N227 C231 1.383 . S
C228 N227 1.376 . S
C228 C229 1.446 . S
C228 C258 1.391 1_565 S
C229 C228 1.446 . S
C229 C230 1.339 . S
C229 H264 0.949 . S
C230 C229 1.339 . S
C230 C231 1.439 . S
C230 H265 0.950 . S
C231 N227 1.383 . S
C231 C230 1.439 . S
C231 C260 1.392 . S
N232 Co226 2.008 1_565 S
N232 C233 1.376 . S
N232 C236 1.374 . S
C233 N232 1.376 . S
C233 C234 1.443 . S
C233 C260 1.389 . S
C234 C233 1.443 . S
C234 C235 1.340 . S
C234 H266 0.951 . S
C235 C234 1.340 . S
C235 C236 1.439 . S
C235 H267 0.950 . S
C236 N232 1.374 . S
C236 C235 1.439 . S
C236 C261 1.395 1_565 S
N237 Co226 1.995 . S
N237 C238 1.376 . S
N237 C241 1.383 . S
C238 N237 1.376 . S
C238 C239 1.446 . S
C238 C261 1.391 . S
C239 C238 1.446 . S
C239 C240 1.339 . S
C239 H268 0.949 . S
C240 C239 1.339 . S
C240 C241 1.439 . S
C240 H269 0.950 . S
C241 N237 1.383 . S
C241 C240 1.439 . S
C241 C259 1.392 . S
N242 Co226 2.282 1_565 S
N242 C245 1.332 . S
N242 C247 1.332 . S
C243 C244 1.386 . S
C243 C246 1.388 . S
C244 C243 1.386 . S
C244 C245 1.382 . S
C244 H270 0.950 . S
C245 N242 1.332 . S
C245 C244 1.382 . S
C245 H256 0.952 . S
C246 C243 1.388 . S
C246 C247 1.382 . S
C246 H271 0.950 . S
C247 N242 1.332 . S
C247 C246 1.382 . S
C247 H257 0.948 . S
N248 Co226 2.282 . S
N248 C252 1.332 . S
N248 C253 1.332 . S
C249 C250 1.388 . S
C249 C253 1.382 . S
C249 H272 0.950 . S
C250 C249 1.388 . S
C250 C251 1.386 . S
C251 C250 1.386 . S
C251 C252 1.382 . S
C251 H273 0.950 . S
C252 N248 1.332 . S
C252 C251 1.382 . S
C252 H254 0.952 . S
C253 N248 1.332 . S
C253 C249 1.382 . S
C253 H255 0.948 . S
H254 C252 0.952 . S
H255 C253 0.948 . S
H256 C245 0.952 . S
H257 C247 0.948 . S
C258 C224 1.395 . S
C258 C228 1.391 1_545 S
C259 C221 1.389 . S
C259 C241 1.392 . S
C260 C231 1.392 . S
C260 C233 1.389 . S
C261 C236 1.395 1_545 S
C261 C238 1.391 . S
H262 C222 0.951 . S
H263 C223 0.950 . S
H264 C229 0.949 . S
H265 C230 0.950 . S
H266 C234 0.951 . S
H267 C235 0.950 . S
H268 C239 0.949 . S
H269 C240 0.950 . S
H270 C244 0.950 . S
H271 C246 0.950 . S
H272 C249 0.950 . S
H273 C251 0.950 . S
C274 C275 1.443 . S
C274 N278 1.376 . S
C274 C312 1.389 . S
C275 C274 1.443 . S
C275 C276 1.340 . S
C275 H315 0.951 . S
C276 C275 1.340 . S
C276 C277 1.439 . S
C276 H316 0.950 . S
C277 C276 1.439 . S
C277 N278 1.374 . S
C277 C311 1.395 . S
N278 C274 1.376 . S
N278 C277 1.374 . S
N278 Co279 2.025 . S
Co279 N278 2.025 . S
Co279 N280 1.980 1_455 S
Co279 N285 1.992 1_455 S
Co279 N290 2.009 . S
Co279 N295 2.261 1_455 S
Co279 N301 2.304 . S
N280 Co279 1.980 1_655 S
N280 C281 1.376 . S
N280 C284 1.383 . S
C281 N280 1.376 . S
C281 C282 1.446 . S
C281 C311 1.391 1_655 S
C282 C281 1.446 . S
C282 C283 1.339 . S
C282 H317 0.949 . S
C283 C282 1.339 . S
C283 C284 1.439 . S
C283 H318 0.950 . S
C284 N280 1.383 . S
C284 C283 1.439 . S
C284 C313 1.392 . S
N285 Co279 1.992 1_655 S
N285 C286 1.376 . S
N285 C289 1.374 . S
C286 N285 1.376 . S
C286 C287 1.443 . S
C286 C313 1.389 . S
C287 C286 1.443 . S
C287 C288 1.340 . S
C287 H319 0.951 . S
C288 C287 1.340 . S
C288 C289 1.439 . S
C288 H320 0.950 . S
C289 N285 1.374 . S
C289 C288 1.439 . S
C289 C314 1.395 . S
N290 Co279 2.009 . S
N290 C291 1.376 . S
N290 C294 1.383 . S
C291 N290 1.376 . S
C291 C292 1.446 . S
C291 C314 1.391 1_455 S
C292 C291 1.446 . S
C292 C293 1.339 . S
C292 H321 0.949 . S
C293 C292 1.339 . S
C293 C294 1.439 . S
C293 H322 0.950 . S
C294 N290 1.383 . S
C294 C293 1.439 . S
C294 C312 1.392 . S
N295 Co279 2.261 1_655 S
N295 C298 1.332 . S
N295 C300 1.332 . S
C296 C297 1.386 . S
C296 C299 1.388 . S
C297 C296 1.386 . S
C297 C298 1.382 . S
C297 H323 0.950 . S
C298 N295 1.332 . S
C298 C297 1.382 . S
C298 H309 0.952 . S
C299 C296 1.388 . S
C299 C300 1.382 . S
C299 H324 0.950 . S
C300 N295 1.332 . S
C300 C299 1.382 . S
C300 H310 0.948 . S
N301 Co279 2.304 . S
N301 C305 1.332 . S
N301 C306 1.332 . S
C302 C303 1.388 . S
C302 C306 1.382 . S
C302 H325 0.950 . S
C303 C302 1.388 . S
C303 C304 1.386 . S
C304 C303 1.386 . S
C304 C305 1.382 . S
C304 H326 0.950 . S
C305 N301 1.332 . S
C305 C304 1.382 . S
C305 H307 0.952 . S
C306 N301 1.332 . S
C306 C302 1.382 . S
C306 H308 0.948 . S
H307 C305 0.952 . S
H308 C306 0.948 . S
H309 C298 0.952 . S
H310 C300 0.948 . S
C311 C277 1.395 . S
C311 C281 1.391 1_455 S
C312 C274 1.389 . S
C312 C294 1.392 . S
C313 C284 1.392 . S
C313 C286 1.389 . S
C314 C289 1.395 . S
C314 C291 1.391 1_655 S
H315 C275 0.951 . S
H316 C276 0.950 . S
H317 C282 0.949 . S
H318 C283 0.950 . S
H319 C287 0.951 . S
H320 C288 0.950 . S
H321 C292 0.949 . S
H322 C293 0.950 . S
H323 C297 0.950 . S
H324 C299 0.950 . S
H325 C302 0.950 . S
H326 C304 0.950 . S
C327 C328 1.443 . S
C327 N331 1.376 . S
C327 C365 1.389 . S
C328 C327 1.443 . S
C328 C329 1.340 . S
C328 H368 0.951 . S
C329 C328 1.340 . S
C329 C330 1.439 . S
C329 H369 0.950 . S
C330 C329 1.439 . S
C330 N331 1.374 . S
C330 C364 1.410 . S
N331 C327 1.376 . S
N331 C330 1.374 . S
N331 Co332 2.008 1_565 S
Co332 N331 2.008 1_545 S
Co332 N333 1.995 . S
Co332 N338 2.008 . S
Co332 N343 1.995 1_545 S
Co332 N348 2.282 . S
Co332 N354 2.282 1_545 S
N333 Co332 1.995 . S
N333 C334 1.376 . S
N333 C337 1.383 . S
C334 N333 1.376 . S
C334 C335 1.446 . S
C334 C364 1.375 1_545 S
C335 C334 1.446 . S
C335 C336 1.339 . S
C335 H370 0.949 . S
C336 C335 1.339 . S
C336 C337 1.439 . S
C336 H371 0.950 . S
C337 N333 1.383 . S
C337 C336 1.439 . S
C337 C366 1.392 . S
N338 Co332 2.008 . S
N338 C339 1.376 . S
N338 C342 1.374 . S
C339 N338 1.376 . S
C339 C340 1.443 . S
C339 C366 1.389 . S
C340 C339 1.443 . S
C340 C341 1.340 . S
C340 H372 0.951 . S
C341 C340 1.340 . S
C341 C342 1.439 . S
C341 H373 0.950 . S
C342 N338 1.374 . S
C342 C341 1.439 . S
C342 C367 1.395 . S
N343 Co332 1.995 1_565 S
N343 C344 1.376 . S
N343 C347 1.383 . S
C344 N343 1.376 . S
C344 C345 1.446 . S
C344 C367 1.391 1_565 S
C345 C344 1.446 . S
C345 C346 1.339 . S
C345 H374 0.949 . S
C346 C345 1.339 . S
C346 C347 1.439 . S
C346 H375 0.950 . S
C347 N343 1.383 . S
C347 C346 1.439 . S
C347 C365 1.392 . S
N348 Co332 2.282 . S
N348 C351 1.332 . S
N348 C353 1.332 . S
C349 C350 1.386 . S
C349 C352 1.388 . S
C350 C349 1.386 . S
C350 C351 1.382 . S
C350 H376 0.950 . S
C351 N348 1.332 . S
C351 C350 1.382 . S
C351 H362 0.952 . S
C352 C349 1.388 . S
C352 C353 1.382 . S
C352 H377 0.950 . S
C353 N348 1.332 . S
C353 C352 1.382 . S
C353 H363 0.948 . S
N354 Co332 2.282 1_565 S
N354 C358 1.332 . S
N354 C359 1.332 . S
C355 C356 1.388 . S
C355 C359 1.382 . S
C355 H378 0.950 . S
C356 C355 1.388 . S
C356 C357 1.386 . S
C357 C356 1.386 . S
C357 C358 1.382 . S
C357 H379 0.950 . S
C358 N354 1.332 . S
C358 C357 1.382 . S
C358 H360 0.952 . S
C359 N354 1.332 . S
C359 C355 1.382 . S
C359 H361 0.948 . S
H360 C358 0.952 . S
H361 C359 0.948 . S
H362 C351 0.952 . S
H363 C353 0.948 . S
C364 C330 1.410 . S
C364 C334 1.375 1_565 S
C365 C327 1.389 . S
C365 C347 1.392 . S
C366 C337 1.392 . S
C366 C339 1.389 . S
C367 C342 1.395 . S
C367 C344 1.391 1_545 S
H368 C328 0.951 . S
H369 C329 0.950 . S
H370 C335 0.949 . S
H371 C336 0.950 . S
H372 C340 0.951 . S
H373 C341 0.950 . S
H374 C345 0.949 . S
H375 C346 0.950 . S
H376 C350 0.950 . S
H377 C352 0.950 . S
H378 C355 0.950 . S
H379 C357 0.950 . S
C380 C381 1.443 . S
C380 N384 1.376 . S
C380 C418 1.389 . S
C381 C380 1.443 . S
C381 C382 1.340 . S
C381 H421 0.951 . S
C382 C381 1.340 . S
C382 C383 1.439 . S
C382 H422 0.950 . S
C383 C382 1.439 . S
C383 N384 1.374 . S
C383 C417 1.405 . S
N384 C380 1.376 . S
N384 C383 1.374 . S
N384 Co385 2.014 . S
Co385 N384 2.014 . S
Co385 N386 1.988 1_554 S
Co385 N391 2.003 1_554 S
Co385 N396 2.001 . S
Co385 N401 2.292 . S
Co385 N407 2.273 1_554 S
N386 Co385 1.988 1_556 S
N386 C387 1.376 . S
N386 C390 1.383 . S
C387 N386 1.376 . S
C387 C388 1.446 . S
C387 C417 1.382 1_556 S
C388 C387 1.446 . S
C388 C389 1.339 . S
C388 H423 0.949 . S
C389 C388 1.339 . S
C389 C390 1.439 . S
C389 H424 0.950 . S
C390 N386 1.383 . S
C390 C389 1.439 . S
C390 C419 1.392 . S
N391 Co385 2.003 1_556 S
N391 C392 1.376 . S
N391 C395 1.374 . S
C392 N391 1.376 . S
C392 C393 1.443 . S
C392 C419 1.389 . S
C393 C392 1.443 . S
C393 C394 1.340 . S
C393 H425 0.951 . S
C394 C393 1.340 . S
C394 C395 1.439 . S
C394 H426 0.950 . S
C395 N391 1.374 . S
C395 C394 1.439 . S
C395 C420 1.389 1_556 S
N396 Co385 2.001 . S
N396 C397 1.376 . S
N396 C400 1.383 . S
C397 N396 1.376 . S
C397 C398 1.446 . S
C397 C420 1.396 . S
C398 C397 1.446 . S
C398 C399 1.339 . S
C398 H427 0.949 . S
C399 C398 1.339 . S
C399 C400 1.439 . S
C399 H428 0.950 . S
C400 N396 1.383 . S
C400 C399 1.439 . S
C400 C418 1.392 . S
N401 Co385 2.292 . S
N401 C404 1.332 . S
N401 C406 1.332 . S
C402 C403 1.386 . S
C402 C405 1.388 . S
C403 C402 1.386 . S
C403 C404 1.382 . S
C403 H429 0.950 . S
C404 N401 1.332 . S
C404 C403 1.382 . S
C404 H415 0.952 . S
C405 C402 1.388 . S
C405 C406 1.382 . S
C405 H430 0.950 . S
C406 N401 1.332 . S
C406 C405 1.382 . S
C406 H416 0.948 . S
N407 Co385 2.273 1_556 S
N407 C411 1.332 . S
N407 C412 1.332 . S
C408 C409 1.388 . S
C408 C412 1.382 . S
C408 H431 0.950 . S
C409 C408 1.388 . S
C409 C410 1.386 . S
C410 C409 1.386 . S
C410 C411 1.382 . S
C410 H432 0.950 . S
C411 N407 1.332 . S
C411 C410 1.382 . S
C411 H413 0.952 . S
C412 N407 1.332 . S
C412 C408 1.382 . S
C412 H414 0.948 . S
H413 C411 0.952 . S
H414 C412 0.948 . S
H415 C404 0.952 . S
H416 C406 0.948 . S
C417 C383 1.405 . S
C417 C387 1.382 1_554 S
C418 C380 1.389 . S
C418 C400 1.392 . S
C419 C390 1.392 . S
C419 C392 1.389 . S
C420 C395 1.389 1_554 S
C420 C397 1.396 . S
H421 C381 0.951 . S
H422 C382 0.950 . S
H423 C388 0.949 . S
H424 C389 0.950 . S
H425 C393 0.951 . S
H426 C394 0.950 . S
H427 C398 0.949 . S
H428 C399 0.950 . S
H429 C403 0.950 . S
H430 C405 0.950 . S
H431 C408 0.950 . S
H432 C410 0.950 . S
C433 C434 1.443 . S
C433 N437 1.376 . S
C433 C471 1.389 . S
C434 C433 1.443 . S
C434 C435 1.340 . S
C434 H474 0.951 . S
C435 C434 1.340 . S
C435 C436 1.439 . S
C435 H475 0.950 . S
C436 C435 1.439 . S
C436 N437 1.374 . S
C436 C470 1.395 . S
N437 C433 1.376 . S
N437 C436 1.374 . S
N437 Co438 2.008 . S
Co438 N437 2.008 . S
Co438 N439 1.995 1_554 S
Co438 N444 2.008 . S
Co438 N449 1.995 . S
Co438 N454 2.282 . S
Co438 N460 2.282 1_554 S
N439 Co438 1.995 1_556 S
N439 C440 1.376 . S
N439 C443 1.383 . S
C440 N439 1.376 . S
C440 C441 1.446 . S
C440 C470 1.391 1_556 S
C441 C440 1.446 . S
C441 C442 1.339 . S
C441 H476 0.949 . S
C442 C441 1.339 . S
C442 C443 1.439 . S
C442 H477 0.950 . S
C443 N439 1.383 . S
C443 C442 1.439 . S
C443 C472 1.392 . S
N444 Co438 2.008 . S
N444 C445 1.376 1_554 S
N444 C448 1.374 . S
C445 N444 1.376 1_556 S
C445 C446 1.443 . S
C445 C472 1.389 . S
C446 C445 1.443 . S
C446 C447 1.340 1_556 S
C446 H478 0.951 . S
C447 C446 1.340 1_554 S
C447 C448 1.439 . S
C447 H479 0.950 . S
C448 N444 1.374 . S
C448 C447 1.439 . S
C448 C473 1.395 . S
N449 Co438 1.995 . S
N449 C450 1.376 . S
N449 C453 1.383 . S
C450 N449 1.376 . S
C450 C451 1.446 . S
C450 C473 1.391 . S
C451 C450 1.446 . S
C451 C452 1.339 . S
C451 H480 0.949 . S
C452 C451 1.339 . S
C452 C453 1.439 . S
C452 H481 0.950 . S
C453 N449 1.383 . S
C453 C452 1.439 . S
C453 C471 1.392 . S
N454 Co438 2.282 . S
N454 C457 1.332 . S
N454 C459 1.332 . S
C455 C456 1.386 . S
C455 C458 1.388 . S
C456 C455 1.386 . S
C456 C457 1.382 . S
C456 H482 0.950 . S
C457 N454 1.332 . S
C457 C456 1.382 . S
C457 H468 0.952 . S
C458 C455 1.388 . S
C458 C459 1.382 . S
C458 H483 0.950 . S
C459 N454 1.332 . S
C459 C458 1.382 . S
C459 H469 0.948 . S
N460 Co438 2.282 1_556 S
N460 C464 1.332 . S
N460 C465 1.332 . S
C461 C462 1.388 . S
C461 C465 1.382 . S
C461 H484 0.950 . S
C462 C461 1.388 . S
C462 C463 1.386 . S
C463 C462 1.386 . S
C463 C464 1.382 . S
C463 H485 0.950 . S
C464 N460 1.332 . S
C464 C463 1.382 . S
C464 H466 0.952 . S
C465 N460 1.332 . S
C465 C461 1.382 . S
C465 H467 0.948 . S
H466 C464 0.952 . S
H467 C465 0.948 . S
H468 C457 0.952 . S
H469 C459 0.948 . S
C470 C436 1.395 . S
C470 C440 1.391 1_554 S
C471 C433 1.389 . S
C471 C453 1.392 . S
C472 C443 1.392 . S
C472 C445 1.389 . S
C473 C448 1.395 . S
C473 C450 1.391 . S
H474 C434 0.951 . S
H475 C435 0.950 . S
H476 C441 0.949 . S
H477 C442 0.950 . S
H478 C446 0.951 . S
H479 C447 0.950 . S
H480 C451 0.949 . S
H481 C452 0.950 . S
H482 C456 0.950 . S
H483 C458 0.950 . S
H484 C461 0.950 . S
H485 C463 0.950 . S
C486 C487 1.443 . S
C486 N490 1.376 1_556 S
C486 C524 1.389 . S
C487 C486 1.443 . S
C487 C488 1.340 1_556 S
C487 H527 0.951 . S
C488 C487 1.340 1_554 S
C488 C489 1.439 . S
C488 H528 0.950 . S
C489 C488 1.439 . S
C489 N490 1.374 . S
C489 C523 1.395 . S
N490 C486 1.376 1_554 S
N490 C489 1.374 . S
N490 Co491 2.008 . S
Co491 N490 2.008 . S
Co491 N492 1.995 . S
Co491 N497 2.008 . S
Co491 N502 1.995 . S
Co491 N507 2.282 1_554 S
Co491 N513 2.282 . S
N492 Co491 1.995 . S
N492 C493 1.376 . S
N492 C496 1.383 . S
C493 N492 1.376 . S
C493 C494 1.446 . S
C493 C523 1.391 . S
C494 C493 1.446 . S
C494 C495 1.339 . S
C494 H529 0.949 . S
C495 C494 1.339 . S
C495 C496 1.439 . S
C495 H530 0.950 . S
C496 N492 1.383 . S
C496 C495 1.439 . S
C496 C525 1.392 . S
N497 Co491 2.008 . S
N497 C498 1.376 . S
N497 C501 1.374 . S
C498 N497 1.376 . S
C498 C499 1.443 . S
C498 C525 1.389 . S
C499 C498 1.443 . S
C499 C500 1.340 . S
C499 H531 0.951 . S
C500 C499 1.340 . S
C500 C501 1.439 . S
C500 H532 0.950 . S
C501 N497 1.374 . S
C501 C500 1.439 . S
C501 C526 1.395 . S
N502 Co491 1.995 . S
N502 C503 1.376 . S
N502 C506 1.383 1_554 S
C503 N502 1.376 . S
C503 C504 1.446 1_554 S
C503 C526 1.391 . S
C504 C503 1.446 1_556 S
C504 C505 1.339 . S
C504 H533 0.949 . S
C505 C504 1.339 . S
C505 C506 1.439 . S
C505 H534 0.950 . S
C506 N502 1.383 1_556 S
C506 C505 1.439 . S
C506 C524 1.392 . S
N507 Co491 2.282 1_556 S
N507 C510 1.332 . S
N507 C512 1.332 . S
C508 C509 1.386 . S
C508 C511 1.388 . S
C509 C508 1.386 . S
C509 C510 1.382 . S
C509 H535 0.950 . S
C510 N507 1.332 . S
C510 C509 1.382 . S
C510 H521 0.952 . S
C511 C508 1.388 . S
C511 C512 1.382 . S
C511 H536 0.950 . S
C512 N507 1.332 . S
C512 C511 1.382 . S
C512 H522 0.948 1_556 S
N513 Co491 2.282 . S
N513 C517 1.332 . S
N513 C518 1.332 . S
C514 C515 1.388 . S
C514 C518 1.382 . S
C514 H537 0.950 . S
C515 C514 1.388 . S
C515 C516 1.386 . S
C516 C515 1.386 . S
C516 C517 1.382 . S
C516 H538 0.950 . S
C517 N513 1.332 . S
C517 C516 1.382 . S
C517 H519 0.952 . S
C518 N513 1.332 . S
C518 C514 1.382 . S
C518 H520 0.948 . S
H519 C517 0.952 . S
H520 C518 0.948 . S
H521 C510 0.952 . S
H522 C512 0.948 1_554 S
C523 C489 1.395 . S
C523 C493 1.391 . S
C524 C486 1.389 . S
C524 C506 1.392 . S
C525 C496 1.392 . S
C525 C498 1.389 . S
C526 C501 1.395 . S
C526 C503 1.391 . S
H527 C487 0.951 . S
H528 C488 0.950 . S
H529 C494 0.949 . S
H530 C495 0.950 . S
H531 C499 0.951 . S
H532 C500 0.950 . S
H533 C504 0.949 . S
H534 C505 0.950 . S
H535 C509 0.950 . S
H536 C511 0.950 . S
H537 C514 0.950 . S
H538 C516 0.950 . S
C539 C540 1.443 . S
C539 N543 1.376 . S
C539 C577 1.389 . S
C540 C539 1.443 . S
C540 C541 1.340 . S
C540 H580 0.951 . S
C541 C540 1.340 . S
C541 C542 1.439 . S
C541 H581 0.950 . S
C542 C541 1.439 . S
C542 N543 1.374 . S
C542 C576 1.395 1_554 S
N543 C539 1.376 . S
N543 C542 1.374 . S
N543 Co544 2.008 . S
Co544 N543 2.008 . S
Co544 N545 1.995 1_554 S
Co544 N550 2.008 1_554 S
Co544 N555 1.995 . S
Co544 N560 2.282 . S
Co544 N566 2.282 1_554 S
N545 Co544 1.995 1_556 S
N545 C546 1.376 . S
N545 C549 1.383 . S
C546 N545 1.376 . S
C546 C547 1.446 . S
C546 C576 1.391 . S
C547 C546 1.446 . S
C547 C548 1.339 . S
C547 H582 0.949 . S
C548 C547 1.339 . S
C548 C549 1.439 . S
C548 H583 0.950 . S
C549 N545 1.383 . S
C549 C548 1.439 . S
C549 C578 1.392 . S
N550 Co544 2.008 1_556 S
N550 C551 1.376 . S
N550 C554 1.374 1_556 S
C551 N550 1.376 . S
C551 C552 1.443 . S
C551 C578 1.389 . S
C552 C551 1.443 . S
C552 C553 1.340 . S
C552 H584 0.951 . S
C553 C552 1.340 . S
C553 C554 1.439 1_556 S
C553 H585 0.950 . S
C554 N550 1.374 1_554 S
C554 C553 1.439 1_554 S
C554 C579 1.395 . S
N555 Co544 1.995 . S
N555 C556 1.376 . S
N555 C559 1.383 . S
C556 N555 1.376 . S
C556 C557 1.446 . S
C556 C579 1.391 . S
C557 C556 1.446 . S
C557 C558 1.339 . S
C557 H586 0.949 . S
C558 C557 1.339 . S
C558 C559 1.439 . S
C558 H587 0.950 . S
C559 N555 1.383 . S
C559 C558 1.439 . S
C559 C577 1.392 . S
N560 Co544 2.282 . S
N560 C563 1.332 . S
N560 C565 1.332 . S
C561 C562 1.386 . S
C561 C564 1.388 . S
C562 C561 1.386 . S
C562 C563 1.382 . S
C562 H588 0.950 . S
C563 N560 1.332 . S
C563 C562 1.382 . S
C563 H574 0.952 . S
C564 C561 1.388 . S
C564 C565 1.382 . S
C564 H589 0.950 . S
C565 N560 1.332 . S
C565 C564 1.382 . S
C565 H575 0.948 . S
N566 Co544 2.282 1_556 S
N566 C570 1.332 . S
N566 C571 1.332 . S
C567 C568 1.388 . S
C567 C571 1.382 . S
C567 H590 0.950 . S
C568 C567 1.388 . S
C568 C569 1.386 . S
C569 C568 1.386 . S
C569 C570 1.382 . S
C569 H591 0.950 . S
C570 N566 1.332 . S
C570 C569 1.382 . S
C570 H572 0.952 . S
C571 N566 1.332 . S
C571 C567 1.382 . S
C571 H573 0.948 . S
H572 C570 0.952 . S
H573 C571 0.948 . S
H574 C563 0.952 . S
H575 C565 0.948 . S
C576 C542 1.395 1_556 S
C576 C546 1.391 . S
C577 C539 1.389 . S
C577 C559 1.392 . S
C578 C549 1.392 . S
C578 C551 1.389 . S
C579 C554 1.395 . S
C579 C556 1.391 . S
H580 C540 0.951 . S
H581 C541 0.950 . S
H582 C547 0.949 . S
H583 C548 0.950 . S
H584 C552 0.951 . S
H585 C553 0.950 . S
H586 C557 0.949 . S
H587 C558 0.950 . S
H588 C562 0.950 . S
H589 C564 0.950 . S
H590 C567 0.950 . S
H591 C569 0.950 . S
H592 C598 0.930 . S
H593 C601 0.930 . S
H594 C602 0.930 . S
H595 C603 0.930 . S
H596 C606 0.930 . S
H597 C607 0.930 . S
C598 H592 0.930 . S
C598 C599 1.355 . S
C598 C600 1.415 . S
C599 C598 1.355 . S
C599 C601 1.419 . S
C600 C598 1.415 . S
C600 C605 1.425 . S
C600 C607 1.409 . S
C601 H593 0.930 . S
C601 C599 1.419 . S
C601 C602 1.362 . S
C602 H594 0.930 . S
C602 C601 1.362 . S
C602 C605 1.409 . S
C603 H595 0.930 . S
C603 C604 1.355 . S
C603 C605 1.415 . S
C604 C603 1.355 . S
C604 C606 1.419 . S
C605 C600 1.425 . S
C605 C602 1.409 . S
C605 C603 1.415 . S
C606 H596 0.930 . S
C606 C604 1.419 . S
C606 C607 1.362 . S
C607 H597 0.930 . S
C607 C600 1.409 . S
C607 C606 1.362 . S
H608 C614 0.930 . S
H609 C617 0.930 . S
H610 C618 0.930 . S
H611 C619 0.930 . S
H612 C622 0.930 . S
H613 C623 0.930 . S
C614 H608 0.930 . S
C614 C615 1.355 . S
C614 C616 1.415 . S
C615 C614 1.355 . S
C615 C617 1.419 . S
C616 C614 1.415 . S
C616 C621 1.425 . S
C616 C623 1.409 . S
C617 H609 0.930 . S
C617 C615 1.419 . S
C617 C618 1.362 . S
C618 H610 0.930 . S
C618 C617 1.362 . S
C618 C621 1.409 . S
C619 H611 0.930 . S
C619 C620 1.355 . S
C619 C621 1.415 . S
C620 C619 1.355 . S
C620 C622 1.419 . S
C621 C616 1.425 . S
C621 C618 1.409 . S
C621 C619 1.415 . S
C622 H612 0.930 . S
C622 C620 1.419 . S
C622 C623 1.362 . S
C623 H613 0.930 . S
C623 C616 1.409 . S
C623 C622 1.362 . S
H624 C630 0.930 . S
H625 C633 0.930 . S
H626 C634 0.930 . S
H627 C635 0.930 . S
H628 C638 0.930 . S
H629 C639 0.930 . S
C630 H624 0.930 . S
C630 C631 1.355 . S
C630 C632 1.415 . S
C631 C630 1.355 . S
C631 C633 1.419 . S
C632 C630 1.415 . S
C632 C637 1.425 . S
C632 C639 1.409 . S
C633 H625 0.930 . S
C633 C631 1.419 . S
C633 C634 1.362 . S
C634 H626 0.930 . S
C634 C633 1.362 . S
C634 C637 1.409 . S
C635 H627 0.930 . S
C635 C636 1.355 . S
C635 C637 1.415 . S
C636 C635 1.355 . S
C636 C638 1.419 . S
C637 C632 1.425 . S
C637 C634 1.409 . S
C637 C635 1.415 . S
C638 H628 0.930 . S
C638 C636 1.419 . S
C638 C639 1.362 . S
C639 H629 0.930 . S
C639 C632 1.409 . S
C639 C638 1.362 . S
H640 C646 0.930 . S
H641 C649 0.930 . S
H642 C650 0.930 . S
H643 C651 0.930 . S
H644 C654 0.930 . S
H645 C655 0.930 . S
C646 H640 0.930 . S
C646 C647 1.355 . S
C646 C648 1.415 . S
C647 C646 1.355 . S
C647 C649 1.419 . S
C648 C646 1.415 . S
C648 C653 1.425 . S
C648 C655 1.409 . S
C649 H641 0.930 . S
C649 C647 1.419 . S
C649 C650 1.362 . S
C650 H642 0.930 . S
C650 C649 1.362 . S
C650 C653 1.409 . S
C651 H643 0.930 . S
C651 C652 1.355 . S
C651 C653 1.415 . S
C652 C651 1.355 . S
C652 C654 1.419 . S
C653 C648 1.425 . S
C653 C650 1.409 . S
C653 C651 1.415 . S
C654 H644 0.930 . S
C654 C652 1.419 . S
C654 C655 1.362 . S
C655 H645 0.930 . S
C655 C648 1.409 . S
C655 C654 1.362 . S
H656 C662 0.930 . S
H657 C665 0.930 . S
H658 C666 0.930 . S
H659 C667 0.930 . S
H660 C670 0.930 . S
H661 C671 0.930 . S
C662 H656 0.930 . S
C662 C663 1.355 . S
C662 C664 1.415 . S
C663 C662 1.355 . S
C663 C665 1.419 . S
C664 C662 1.415 . S
C664 C669 1.425 . S
C664 C671 1.409 . S
C665 H657 0.930 . S
C665 C663 1.419 . S
C665 C666 1.362 . S
C666 H658 0.930 . S
C666 C665 1.362 . S
C666 C669 1.409 . S
C667 H659 0.930 . S
C667 C668 1.355 . S
C667 C669 1.415 . S
C668 C667 1.355 . S
C668 C670 1.419 . S
C669 C664 1.425 . S
C669 C666 1.409 . S
C669 C667 1.415 . S
C670 H660 0.930 . S
C670 C668 1.419 . S
C670 C671 1.362 . S
C671 H661 0.930 . S
C671 C664 1.409 . S
C671 C670 1.362 . S
H672 C678 0.930 . S
H673 C681 0.930 . S
H674 C682 0.930 . S
H675 C683 0.930 . S
H676 C686 0.930 . S
H677 C687 0.930 . S
C678 H672 0.930 . S
C678 C679 1.355 . S
C678 C680 1.415 . S
C679 C678 1.355 . S
C679 C681 1.419 . S
C680 C678 1.415 . S
C680 C685 1.425 . S
C680 C687 1.409 . S
C681 H673 0.930 . S
C681 C679 1.419 . S
C681 C682 1.362 . S
C682 H674 0.930 . S
C682 C681 1.362 . S
C682 C685 1.409 . S
C683 H675 0.930 . S
C683 C684 1.355 . S
C683 C685 1.415 . S
C684 C683 1.355 . S
C684 C686 1.419 . S
C685 C680 1.425 . S
C685 C682 1.409 . S
C685 C683 1.415 . S
C686 H676 0.930 . S
C686 C684 1.419 . S
C686 C687 1.362 . S
C687 H677 0.930 . S
C687 C680 1.409 . S
C687 C686 1.362 . S
H688 C694 0.930 . S
H689 C697 0.930 . S
H690 C698 0.930 . S
H691 C699 0.930 . S
H692 C702 0.930 . S
H693 C703 0.930 . S
C694 H688 0.930 . S
C694 C695 1.355 . S
C694 C696 1.415 . S
C695 C694 1.355 . S
C695 C697 1.419 . S
C696 C694 1.415 . S
C696 C701 1.425 . S
C696 C703 1.409 . S
C697 H689 0.930 . S
C697 C695 1.419 . S
C697 C698 1.362 . S
C698 H690 0.930 . S
C698 C697 1.362 . S
C698 C701 1.409 . S
C699 H691 0.930 . S
C699 C700 1.355 . S
C699 C701 1.415 . S
C700 C699 1.355 . S
C700 C702 1.419 . S
C701 C696 1.425 . S
C701 C698 1.409 . S
C701 C699 1.415 . S
C702 H692 0.930 . S
C702 C700 1.419 . S
C702 C703 1.362 . S
C703 H693 0.930 . S
C703 C696 1.409 . S
C703 C702 1.362 . S
H704 C710 0.930 . S
H705 C713 0.930 . S
H706 C714 0.930 . S
H707 C715 0.930 . S
H708 C718 0.930 . S
H709 C719 0.930 . S
C710 H704 0.930 . S
C710 C711 1.355 . S
C710 C712 1.415 . S
C711 C710 1.355 . S
C711 C713 1.419 . S
C712 C710 1.415 . S
C712 C717 1.425 . S
C712 C719 1.409 . S
C713 H705 0.930 . S
C713 C711 1.419 . S
C713 C714 1.362 . S
C714 H706 0.930 . S
C714 C713 1.362 . S
C714 C717 1.409 . S
C715 H707 0.930 . S
C715 C716 1.355 . S
C715 C717 1.415 . S
C716 C715 1.355 . S
C716 C718 1.419 . S
C717 C712 1.425 . S
C717 C714 1.409 . S
C717 C715 1.415 . S
C718 H708 0.930 . S
C718 C716 1.419 . S
C718 C719 1.362 . S
C719 H709 0.930 . S
C719 C712 1.409 . S
C719 C718 1.362 . S
H720 C726 0.930 . S
H721 C729 0.930 . S
H722 C730 0.930 . S
H723 C731 0.930 . S
H724 C734 0.930 . S
H725 C735 0.930 . S
C726 H720 0.930 . S
C726 C727 1.355 . S
C726 C728 1.415 . S
C727 C726 1.355 . S
C727 C729 1.419 . S
C728 C726 1.415 . S
C728 C733 1.425 . S
C728 C735 1.409 . S
C729 H721 0.930 . S
C729 C727 1.419 . S
C729 C730 1.362 . S
C730 H722 0.930 . S
C730 C729 1.362 . S
C730 C733 1.409 . S
C731 H723 0.930 . S
C731 C732 1.355 . S
C731 C733 1.415 . S
C732 C731 1.355 . S
C732 C734 1.419 . S
C733 C728 1.425 . S
C733 C730 1.409 . S
C733 C731 1.415 . S
C734 H724 0.930 . S
C734 C732 1.419 . S
C734 C735 1.362 . S
C735 H725 0.930 . S
C735 C728 1.409 . S
C735 C734 1.362 . S
H736 C742 0.930 . S
H737 C745 0.930 . S
H738 C746 0.930 . S
H739 C747 0.930 . S
H740 C750 0.930 . S
H741 C751 0.930 . S
C742 H736 0.930 . S
C742 C743 1.355 . S
C742 C744 1.415 . S
C743 C742 1.355 . S
C743 C745 1.419 . S
C744 C742 1.415 . S
C744 C749 1.425 . S
C744 C751 1.409 . S
C745 H737 0.930 . S
C745 C743 1.419 . S
C745 C746 1.362 . S
C746 H738 0.930 . S
C746 C745 1.362 . S
C746 C749 1.409 . S
C747 H739 0.930 . S
C747 C748 1.355 . S
C747 C749 1.415 . S
C748 C747 1.355 . S
C748 C750 1.419 . S
C749 C744 1.425 . S
C749 C746 1.409 . S
C749 C747 1.415 . S
C750 H740 0.930 . S
C750 C748 1.419 . S
C750 C751 1.362 . S
C751 H741 0.930 . S
C751 C744 1.409 . S
C751 C750 1.362 . S
H752 C758 0.930 . S
H753 C761 0.930 . S
H754 C762 0.930 . S
H755 C763 0.930 . S
H756 C766 0.930 . S
H757 C767 0.930 . S
C758 H752 0.930 . S
C758 C759 1.355 . S
C758 C760 1.415 . S
C759 C758 1.355 . S
C759 C761 1.419 . S
C760 C758 1.415 . S
C760 C765 1.425 . S
C760 C767 1.409 . S
C761 H753 0.930 . S
C761 C759 1.419 . S
C761 C762 1.362 . S
C762 H754 0.930 . S
C762 C761 1.362 . S
C762 C765 1.409 . S
C763 H755 0.930 . S
C763 C764 1.355 . S
C763 C765 1.415 . S
C764 C763 1.355 . S
C764 C766 1.419 . S
C765 C760 1.425 . S
C765 C762 1.409 . S
C765 C763 1.415 . S
C766 H756 0.930 . S
C766 C764 1.419 . S
C766 C767 1.362 . S
C767 H757 0.930 . S
C767 C760 1.409 . S
C767 C766 1.362 . S
H768 C774 0.930 . S
H769 C777 0.930 . S
H770 C778 0.930 . S
H771 C779 0.930 . S
H772 C782 0.930 . S
H773 C783 0.930 . S
C774 H768 0.930 . S
C774 C775 1.355 . S
C774 C776 1.415 . S
C775 C774 1.355 . S
C775 C777 1.419 . S
C776 C774 1.415 . S
C776 C781 1.425 . S
C776 C783 1.409 . S
C777 H769 0.930 . S
C777 C775 1.419 . S
C777 C778 1.362 . S
C778 H770 0.930 . S
C778 C777 1.362 . S
C778 C781 1.409 . S
C779 H771 0.930 . S
C779 C780 1.355 . S
C779 C781 1.415 . S
C780 C779 1.355 . S
C780 C782 1.419 . S
C781 C776 1.425 . S
C781 C778 1.409 . S
C781 C779 1.415 . S
C782 H772 0.930 . S
C782 C780 1.419 . S
C782 C783 1.362 . S
C783 H773 0.930 . S
C783 C776 1.409 . S
C783 C782 1.362 . S
H784 C790 0.930 . S
H785 C793 0.930 . S
H786 C794 0.930 . S
H787 C795 0.930 . S
H788 C798 0.930 . S
H789 C799 0.930 . S
C790 H784 0.930 . S
C790 C791 1.355 . S
C790 C792 1.415 . S
C791 C790 1.355 . S
C791 C793 1.419 . S
C792 C790 1.415 . S
C792 C797 1.425 . S
C792 C799 1.409 . S
C793 H785 0.930 . S
C793 C791 1.419 . S
C793 C794 1.362 . S
C794 H786 0.930 . S
C794 C793 1.362 . S
C794 C797 1.409 . S
C795 H787 0.930 . S
C795 C796 1.355 . S
C795 C797 1.415 . S
C796 C795 1.355 . S
C796 C798 1.419 . S
C797 C792 1.425 . S
C797 C794 1.409 . S
C797 C795 1.415 . S
C798 H788 0.930 . S
C798 C796 1.419 . S
C798 C799 1.362 . S
C799 H789 0.930 . S
C799 C792 1.409 . S
C799 C798 1.362 . S
H800 C806 0.930 . S
H801 C809 0.930 . S
H802 C810 0.930 . S
H803 C811 0.930 . S
H804 C814 0.930 . S
H805 C815 0.930 . S
C806 H800 0.930 . S
C806 C807 1.355 . S
C806 C808 1.415 . S
C807 C806 1.355 . S
C807 C809 1.419 . S
C808 C806 1.415 . S
C808 C813 1.425 . S
C808 C815 1.409 . S
C809 H801 0.930 . S
C809 C807 1.419 . S
C809 C810 1.362 . S
C810 H802 0.930 . S
C810 C809 1.362 . S
C810 C813 1.409 . S
C811 H803 0.930 . S
C811 C812 1.355 . S
C811 C813 1.415 . S
C812 C811 1.355 . S
C812 C814 1.419 . S
C813 C808 1.425 . S
C813 C810 1.409 . S
C813 C811 1.415 . S
C814 H804 0.930 . S
C814 C812 1.419 . S
C814 C815 1.362 . S
C815 H805 0.930 . S
C815 C808 1.409 . S
C815 C814 1.362 . S
H816 C822 0.930 . S
H817 C825 0.930 . S
H818 C826 0.930 . S
H819 C827 0.930 . S
H820 C830 0.930 . S
H821 C831 0.930 . S
C822 H816 0.930 . S
C822 C823 1.355 . S
C822 C824 1.415 . S
C823 C822 1.355 . S
C823 C825 1.419 . S
C824 C822 1.415 . S
C824 C829 1.425 . S
C824 C831 1.409 . S
C825 H817 0.930 . S
C825 C823 1.419 . S
C825 C826 1.362 . S
C826 H818 0.930 . S
C826 C825 1.362 . S
C826 C829 1.409 . S
C827 H819 0.930 . S
C827 C828 1.355 . S
C827 C829 1.415 . S
C828 C827 1.355 . S
C828 C830 1.419 . S
C829 C824 1.425 . S
C829 C826 1.409 . S
C829 C827 1.415 . S
C830 H820 0.930 . S
C830 C828 1.419 . S
C830 C831 1.362 . S
C831 H821 0.930 . S
C831 C824 1.409 . S
C831 C830 1.362 . S
H832 C838 0.930 . S
H833 C841 0.930 . S
H834 C842 0.930 . S
H835 C843 0.930 . S
H836 C846 0.930 . S
H837 C847 0.930 . S
C838 H832 0.930 . S
C838 C839 1.355 . S
C838 C840 1.415 . S
C839 C838 1.355 . S
C839 C841 1.419 . S
C840 C838 1.415 . S
C840 C845 1.425 . S
C840 C847 1.409 . S
C841 H833 0.930 . S
C841 C839 1.419 . S
C841 C842 1.362 . S
C842 H834 0.930 . S
C842 C841 1.362 . S
C842 C845 1.409 . S
C843 H835 0.930 . S
C843 C844 1.355 . S
C843 C845 1.415 . S
C844 C843 1.355 . S
C844 C846 1.419 . S
C845 C840 1.425 . S
C845 C842 1.409 . S
C845 C843 1.415 . S
C846 H836 0.930 . S
C846 C844 1.419 . S
C846 C847 1.362 . S
C847 H837 0.930 . S
C847 C840 1.409 . S
C847 C846 1.362 . S
H848 C854 0.930 . S
H849 C857 0.930 . S
H850 C858 0.930 . S
H851 C859 0.930 . S
H852 C862 0.930 . S
H853 C863 0.930 . S
C854 H848 0.930 . S
C854 C855 1.355 . S
C854 C856 1.415 . S
C855 C854 1.355 . S
C855 C857 1.419 . S
C856 C854 1.415 . S
C856 C861 1.425 . S
C856 C863 1.409 . S
C857 H849 0.930 . S
C857 C855 1.419 . S
C857 C858 1.362 . S
C858 H850 0.930 . S
C858 C857 1.362 . S
C858 C861 1.409 . S
C859 H851 0.930 . S
C859 C860 1.355 . S
C859 C861 1.415 . S
C860 C859 1.355 . S
C860 C862 1.419 . S
C861 C856 1.425 . S
C861 C858 1.409 . S
C861 C859 1.415 . S
C862 H852 0.930 . S
C862 C860 1.419 . S
C862 C863 1.362 . S
C863 H853 0.930 . S
C863 C856 1.409 . S
C863 C862 1.362 . S
H864 C870 0.930 . S
H865 C873 0.930 . S
H866 C874 0.930 . S
H867 C875 0.930 . S
H868 C878 0.930 . S
H869 C879 0.930 . S
C870 H864 0.930 . S
C870 C871 1.355 . S
C870 C872 1.415 . S
C871 C870 1.355 . S
C871 C873 1.419 . S
C872 C870 1.415 . S
C872 C877 1.425 . S
C872 C879 1.409 . S
C873 H865 0.930 . S
C873 C871 1.419 . S
C873 C874 1.362 . S
C874 H866 0.930 . S
C874 C873 1.362 . S
C874 C877 1.409 . S
C875 H867 0.930 . S
C875 C876 1.355 . S
C875 C877 1.415 . S
C876 C875 1.355 . S
C876 C878 1.419 . S
C877 C872 1.425 . S
C877 C874 1.409 . S
C877 C875 1.415 . S
C878 H868 0.930 . S
C878 C876 1.419 . S
C878 C879 1.362 . S
C879 H869 0.930 . S
C879 C872 1.409 . S
C879 C878 1.362 . S
H880 C886 0.930 . S
H881 C889 0.930 . S
H882 C890 0.930 . S
H883 C891 0.930 . S
H884 C894 0.930 . S
H885 C895 0.930 . S
C886 H880 0.930 . S
C886 C887 1.355 . S
C886 C888 1.415 . S
C887 C886 1.355 . S
C887 C889 1.419 . S
C888 C886 1.415 . S
C888 C893 1.425 . S
C888 C895 1.409 . S
C889 H881 0.930 . S
C889 C887 1.419 . S
C889 C890 1.362 . S
C890 H882 0.930 . S
C890 C889 1.362 . S
C890 C893 1.409 . S
C891 H883 0.930 . S
C891 C892 1.355 . S
C891 C893 1.415 . S
C892 C891 1.355 . S
C892 C894 1.419 . S
C893 C888 1.425 . S
C893 C890 1.409 . S
C893 C891 1.415 . S
C894 H884 0.930 . S
C894 C892 1.419 . S
C894 C895 1.362 . S
C895 H885 0.930 . S
C895 C888 1.409 . S
C895 C894 1.362 . S
H896 C902 0.930 . S
H897 C905 0.930 . S
H898 C906 0.930 . S
H899 C907 0.930 . S
H900 C910 0.930 . S
H901 C911 0.930 . S
C902 H896 0.930 . S
C902 C903 1.355 . S
C902 C904 1.415 . S
C903 C902 1.355 . S
C903 C905 1.419 . S
C904 C902 1.415 . S
C904 C909 1.425 . S
C904 C911 1.409 . S
C905 H897 0.930 . S
C905 C903 1.419 . S
C905 C906 1.362 . S
C906 H898 0.930 . S
C906 C905 1.362 . S
C906 C909 1.409 . S
C907 H899 0.930 . S
C907 C908 1.355 . S
C907 C909 1.415 . S
C908 C907 1.355 . S
C908 C910 1.419 . S
C909 C904 1.425 . S
C909 C906 1.409 . S
C909 C907 1.415 . S
C910 H900 0.930 . S
C910 C908 1.419 . S
C910 C911 1.362 . S
C911 H901 0.930 . S
C911 C904 1.409 . S
C911 C910 1.362 . S
H912 C918 0.930 . S
H913 C921 0.930 . S
H914 C922 0.930 . S
H915 C923 0.930 . S
H916 C926 0.930 . S
H917 C927 0.930 . S
C918 H912 0.930 . S
C918 C919 1.355 . S
C918 C920 1.415 . S
C919 C918 1.355 . S
C919 C921 1.419 . S
C920 C918 1.415 . S
C920 C925 1.425 . S
C920 C927 1.409 . S
C921 H913 0.930 . S
C921 C919 1.419 . S
C921 C922 1.362 . S
C922 H914 0.930 . S
C922 C921 1.362 . S
C922 C925 1.409 . S
C923 H915 0.930 . S
C923 C924 1.355 . S
C923 C925 1.415 . S
C924 C923 1.355 . S
C924 C926 1.419 . S
C925 C920 1.425 . S
C925 C922 1.409 . S
C925 C923 1.415 . S
C926 H916 0.930 . S
C926 C924 1.419 . S
C926 C927 1.362 . S
C927 H917 0.930 . S
C927 C920 1.409 . S
C927 C926 1.362 . S
H928 C934 0.930 . S
H929 C937 0.930 . S
H930 C938 0.930 . S
H931 C939 0.930 . S
H932 C942 0.930 . S
H933 C943 0.930 . S
C934 H928 0.930 . S
C934 C935 1.355 . S
C934 C936 1.415 . S
C935 C934 1.355 . S
C935 C937 1.419 . S
C936 C934 1.415 . S
C936 C941 1.425 . S
C936 C943 1.409 . S
C937 H929 0.930 . S
C937 C935 1.419 . S
C937 C938 1.362 . S
C938 H930 0.930 . S
C938 C937 1.362 . S
C938 C941 1.409 . S
C939 H931 0.930 . S
C939 C940 1.355 . S
C939 C941 1.415 . S
C940 C939 1.355 . S
C940 C942 1.419 . S
C941 C936 1.425 . S
C941 C938 1.409 . S
C941 C939 1.415 . S
C942 H932 0.930 . S
C942 C940 1.419 . S
C942 C943 1.362 . S
C943 H933 0.930 . S
C943 C936 1.409 . S
C943 C942 1.362 . S
H944 C950 0.930 . S
H945 C953 0.930 . S
H946 C954 0.930 . S
H947 C955 0.930 . S
H948 C958 0.930 . S
H949 C959 0.930 . S
C950 H944 0.930 . S
C950 C951 1.355 . S
C950 C952 1.415 . S
C951 C950 1.355 . S
C951 C953 1.419 . S
C952 C950 1.415 . S
C952 C957 1.425 . S
C952 C959 1.409 . S
C953 H945 0.930 . S
C953 C951 1.419 . S
C953 C954 1.362 . S
C954 H946 0.930 . S
C954 C953 1.362 . S
C954 C957 1.409 . S
C955 H947 0.930 . S
C955 C956 1.355 . S
C955 C957 1.415 . S
C956 C955 1.355 . S
C956 C958 1.419 . S
C957 C952 1.425 . S
C957 C954 1.409 . S
C957 C955 1.415 . S
C958 H948 0.930 . S
C958 C956 1.419 . S
C958 C959 1.362 . S
C959 H949 0.930 . S
C959 C952 1.409 . S
C959 C958 1.362 . S
H960 C966 0.930 . S
H961 C969 0.930 . S
H962 C970 0.930 . S
H963 C971 0.930 . S
H964 C974 0.930 . S
H965 C975 0.930 . S
C966 H960 0.930 . S
C966 C967 1.355 . S
C966 C968 1.415 . S
C967 C966 1.355 . S
C967 C969 1.419 . S
C968 C966 1.415 . S
C968 C973 1.425 . S
C968 C975 1.409 . S
C969 H961 0.930 . S
C969 C967 1.419 . S
C969 C970 1.362 . S
C970 H962 0.930 . S
C970 C969 1.362 . S
C970 C973 1.409 . S
C971 H963 0.930 . S
C971 C972 1.355 . S
C971 C973 1.415 . S
C972 C971 1.355 . S
C972 C974 1.419 . S
C973 C968 1.425 . S
C973 C970 1.409 . S
C973 C971 1.415 . S
C974 H964 0.930 . S
C974 C972 1.419 . S
C974 C975 1.362 . S
C975 H965 0.930 . S
C975 C968 1.409 . S
C975 C974 1.362 . S
H976 C982 0.930 . S
H977 C985 0.930 . S
H978 C986 0.930 . S
H979 C987 0.930 . S
H980 C990 0.930 . S
H981 C991 0.930 . S
C982 H976 0.930 . S
C982 C983 1.355 . S
C982 C984 1.415 . S
C983 C982 1.355 . S
C983 C985 1.419 . S
C984 C982 1.415 . S
C984 C989 1.425 . S
C984 C991 1.409 . S
C985 H977 0.930 . S
C985 C983 1.419 . S
C985 C986 1.362 . S
C986 H978 0.930 . S
C986 C985 1.362 . S
C986 C989 1.409 . S
C987 H979 0.930 . S
C987 C988 1.355 . S
C987 C989 1.415 . S
C988 C987 1.355 . S
C988 C990 1.419 . S
C989 C984 1.425 . S
C989 C986 1.409 . S
C989 C987 1.415 . S
C990 H980 0.930 . S
C990 C988 1.419 . S
C990 C991 1.362 . S
C991 H981 0.930 . S
C991 C984 1.409 . S
C991 C990 1.362 . S
H992 C998 0.930 . S
H993 C1001 0.930 . S
H994 C1002 0.930 . S
H995 C1003 0.930 . S
H996 C1006 0.930 . S
H997 C1007 0.930 . S
C998 H992 0.930 . S
C998 C999 1.355 . S
C998 C1000 1.415 . S
C999 C998 1.355 . S
C999 C1001 1.419 . S
C1000 C998 1.415 . S
C1000 C1005 1.425 . S
C1000 C1007 1.409 . S
C1001 H993 0.930 . S
C1001 C999 1.419 . S
C1001 C1002 1.362 . S
C1002 H994 0.930 . S
C1002 C1001 1.362 . S
C1002 C1005 1.409 . S
C1003 H995 0.930 . S
C1003 C1004 1.355 . S
C1003 C1005 1.415 . S
C1004 C1003 1.355 . S
C1004 C1006 1.419 . S
C1005 C1000 1.425 . S
C1005 C1002 1.409 . S
C1005 C1003 1.415 . S
C1006 H996 0.930 . S
C1006 C1004 1.419 . S
C1006 C1007 1.362 . S
C1007 H997 0.930 . S
C1007 C1000 1.409 . S
C1007 C1006 1.362 . S
H1008 C1014 0.930 . S
H1009 C1017 0.930 . S
H1010 C1018 0.930 . S
H1011 C1019 0.930 . S
H1012 C1022 0.930 . S
H1013 C1023 0.930 . S
C1014 H1008 0.930 . S
C1014 C1015 1.355 . S
C1014 C1016 1.415 . S
C1015 C1014 1.355 . S
C1015 C1017 1.419 . S
C1016 C1014 1.415 . S
C1016 C1021 1.425 . S
C1016 C1023 1.409 . S
C1017 H1009 0.930 . S
C1017 C1015 1.419 . S
C1017 C1018 1.362 . S
C1018 H1010 0.930 . S
C1018 C1017 1.362 . S
C1018 C1021 1.409 . S
C1019 H1011 0.930 . S
C1019 C1020 1.355 . S
C1019 C1021 1.415 . S
C1020 C1019 1.355 . S
C1020 C1022 1.419 . S
C1021 C1016 1.425 . S
C1021 C1018 1.409 . S
C1021 C1019 1.415 . S
C1022 H1012 0.930 . S
C1022 C1020 1.419 . S
C1022 C1023 1.362 . S
C1023 H1013 0.930 . S
C1023 C1016 1.409 . S
C1023 C1022 1.362 . S
H1024 C1030 0.930 . S
H1025 C1033 0.930 . S
H1026 C1034 0.930 . S
H1027 C1035 0.930 . S
H1028 C1038 0.930 . S
H1029 C1039 0.930 . S
C1030 H1024 0.930 . S
C1030 C1031 1.355 . S
C1030 C1032 1.415 . S
C1031 C1030 1.355 . S
C1031 C1033 1.419 . S
C1032 C1030 1.415 . S
C1032 C1037 1.425 . S
C1032 C1039 1.409 . S
C1033 H1025 0.930 . S
C1033 C1031 1.419 . S
C1033 C1034 1.362 . S
C1034 H1026 0.930 . S
C1034 C1033 1.362 . S
C1034 C1037 1.409 . S
C1035 H1027 0.930 . S
C1035 C1036 1.355 . S
C1035 C1037 1.415 . S
C1036 C1035 1.355 . S
C1036 C1038 1.419 . S
C1037 C1032 1.425 . S
C1037 C1034 1.409 . S
C1037 C1035 1.415 . S
C1038 H1028 0.930 . S
C1038 C1036 1.419 . S
C1038 C1039 1.362 . S
C1039 H1029 0.930 . S
C1039 C1032 1.409 . S
C1039 C1038 1.362 . S
H1040 C1046 0.930 . S
H1041 C1049 0.930 . S
H1042 C1050 0.930 . S
H1043 C1051 0.930 . S
H1044 C1054 0.930 . S
H1045 C1055 0.930 . S
C1046 H1040 0.930 . S
C1046 C1047 1.355 . S
C1046 C1048 1.415 . S
C1047 C1046 1.355 . S
C1047 C1049 1.419 . S
C1048 C1046 1.415 . S
C1048 C1053 1.425 . S
C1048 C1055 1.409 . S
C1049 H1041 0.930 . S
C1049 C1047 1.419 . S
C1049 C1050 1.362 . S
C1050 H1042 0.930 . S
C1050 C1049 1.362 . S
C1050 C1053 1.409 . S
C1051 H1043 0.930 . S
C1051 C1052 1.355 . S
C1051 C1053 1.415 . S
C1052 C1051 1.355 . S
C1052 C1054 1.419 . S
C1053 C1048 1.425 . S
C1053 C1050 1.409 . S
C1053 C1051 1.415 . S
C1054 H1044 0.930 . S
C1054 C1052 1.419 . S
C1054 C1055 1.362 . S
C1055 H1045 0.930 . S
C1055 C1048 1.409 . S
C1055 C1054 1.362 . S
H1056 C1062 0.930 . S
H1057 C1065 0.930 . S
H1058 C1066 0.930 . S
H1059 C1067 0.930 . S
H1060 C1070 0.930 . S
H1061 C1071 0.930 . S
C1062 H1056 0.930 . S
C1062 C1063 1.355 . S
C1062 C1064 1.415 . S
C1063 C1062 1.355 . S
C1063 C1065 1.419 . S
C1064 C1062 1.415 . S
C1064 C1069 1.425 . S
C1064 C1071 1.409 . S
C1065 H1057 0.930 . S
C1065 C1063 1.419 . S
C1065 C1066 1.362 . S
C1066 H1058 0.930 . S
C1066 C1065 1.362 . S
C1066 C1069 1.409 . S
C1067 H1059 0.930 . S
C1067 C1068 1.355 . S
C1067 C1069 1.415 . S
C1068 C1067 1.355 . S
C1068 C1070 1.419 . S
C1069 C1064 1.425 . S
C1069 C1066 1.409 . S
C1069 C1067 1.415 . S
C1070 H1060 0.930 . S
C1070 C1068 1.419 . S
C1070 C1071 1.362 . S
C1071 H1061 0.930 . S
C1071 C1064 1.409 . S
C1071 C1070 1.362 . S
H1072 C1078 0.930 . S
H1073 C1081 0.930 . S
H1074 C1082 0.930 . S
H1075 C1083 0.930 . S
H1076 C1086 0.930 . S
H1077 C1087 0.930 . S
C1078 H1072 0.930 . S
C1078 C1079 1.355 . S
C1078 C1080 1.415 . S
C1079 C1078 1.355 . S
C1079 C1081 1.419 . S
C1080 C1078 1.415 . S
C1080 C1085 1.425 . S
C1080 C1087 1.409 . S
C1081 H1073 0.930 . S
C1081 C1079 1.419 . S
C1081 C1082 1.362 . S
C1082 H1074 0.930 . S
C1082 C1081 1.362 . S
C1082 C1085 1.409 . S
C1083 H1075 0.930 . S
C1083 C1084 1.355 . S
C1083 C1085 1.415 . S
C1084 C1083 1.355 . S
C1084 C1086 1.419 . S
C1085 C1080 1.425 . S
C1085 C1082 1.409 . S
C1085 C1083 1.415 . S
C1086 H1076 0.930 . S
C1086 C1084 1.419 . S
C1086 C1087 1.362 . S
C1087 H1077 0.930 . S
C1087 C1080 1.409 . S
C1087 C1086 1.362 . S
H1088 C1094 0.930 . S
H1089 C1097 0.930 . S
H1090 C1098 0.930 . S
H1091 C1099 0.930 . S
H1092 C1102 0.930 . S
H1093 C1103 0.930 . S
C1094 H1088 0.930 . S
C1094 C1095 1.355 . S
C1094 C1096 1.415 . S
C1095 C1094 1.355 . S
C1095 C1097 1.419 . S
C1096 C1094 1.415 . S
C1096 C1101 1.425 . S
C1096 C1103 1.409 . S
C1097 H1089 0.930 . S
C1097 C1095 1.419 . S
C1097 C1098 1.362 . S
C1098 H1090 0.930 . S
C1098 C1097 1.362 . S
C1098 C1101 1.409 . S
C1099 H1091 0.930 . S
C1099 C1100 1.355 . S
C1099 C1101 1.415 . S
C1100 C1099 1.355 . S
C1100 C1102 1.419 . S
C1101 C1096 1.425 . S
C1101 C1098 1.409 . S
C1101 C1099 1.415 . S
C1102 H1092 0.930 . S
C1102 C1100 1.419 . S
C1102 C1103 1.362 . S
C1103 H1093 0.930 . S
C1103 C1096 1.409 . S
C1103 C1102 1.362 . S
C604 C197 1.499 . S
C599 C12 1.405 . S
C620 C250 1.312 . S
C615 C33 1.262 . S
C636 C313 1.525 . S
C631 C51 1.452 . S
C652 C356 1.277 . S
C647 C75 1.134 . S
C663 C103 1.452 . S
C668 C312 1.539 . S
C684 C349 1.333 . S
C679 C122 1.291 . S
C700 C190 1.475 . S
C695 C145 1.423 . S
C716 C243 1.249 . S
C711 C166 1.224 . S
C732 C296 1.537 . S
C727 C164 1.366 . S
C748 C365 1.812 . S
C743 C101 1.676 . S
C764 C206 1.575 . S
C759 C124 1.477 . S
C780 C259 1.743 . S
C775 C143 1.614 . S
C796 C207 1.572 . S
C791 C30 1.448 . S
C812 C260 1.805 . S
C807 C54 1.643 . S
C828 C303 1.552 . S
C823 C72 1.467 . S
C844 C366 1.778 . S
C839 C9 1.677 . S
C860 C409 1.485 . S
C855 C159 1.374 . S
C871 C96 1.519 . S
C876 C462 1.682 . S
C887 C114 1.448 . S
C892 C524 1.550 . S
C903 C138 1.551 . S
C908 C578 1.685 . S
C919 C40 1.420 . S
C924 C525 1.510 . S
C935 C59 1.654 . S
C940 C577 1.743 . S
C951 C82 1.415 . S
C956 C402 1.487 . S
C972 C455 1.627 . S
C967 C19 1.552 . S
C988 C515 1.530 . S
C983 C17 1.399 . S
C999 C38 1.334 . S
C1004 C561 1.397 . S
C1015 C61 1.489 . S
C1020 C418 1.583 . S
C1031 C80 1.252 . S
C1036 C471 1.343 . S
C1052 C419 1.546 . S
C1047 C93 1.428 . S
C1068 C472 1.431 . S
C1063 C117 1.352 . S
C1079 C135 1.458 . S
C1084 C508 1.559 . S
C1100 C568 1.356 . S
C1095 C156 1.293 . S
