# Generated by pormake.
# Topology ctn, (3,4)-cn, num edge types: 1
# Building blocks:
#     Node 0, Type 0, BuildingBlock: BETDIP_clean_linker_0, # of connection points: 3
#     Node 1, Type 0, BuildingBlock: BETDIP_clean_linker_0, # of connection points: 3
#     Node 2, Type 0, BuildingBlock: BETDIP_clean_linker_0, # of connection points: 3
#     Node 3, Type 0, BuildingBlock: BETDIP_clean_linker_0, # of connection points: 3
#     Node 4, Type 0, BuildingBlock: BETDIP_clean_linker_0, # of connection points: 3
#     Node 5, Type 0, BuildingBlock: BETDIP_clean_linker_0, # of connection points: 3
#     Node 6, Type 0, BuildingBlock: BETDIP_clean_linker_0, # of connection points: 3
#     Node 7, Type 0, BuildingBlock: BETDIP_clean_linker_0, # of connection points: 3
#     Node 8, Type 0, BuildingBlock: BETDIP_clean_linker_0, # of connection points: 3
#     Node 9, Type 0, BuildingBlock: BETDIP_clean_linker_0, # of connection points: 3
#     Node 10, Type 0, BuildingBlock: BETDIP_clean_linker_0, # of connection points: 3
#     Node 11, Type 0, BuildingBlock: BETDIP_clean_linker_0, # of connection points: 3
#     Node 12, Type 0, BuildingBlock: BETDIP_clean_linker_0, # of connection points: 3
#     Node 13, Type 0, BuildingBlock: BETDIP_clean_linker_0, # of connection points: 3
#     Node 14, Type 0, BuildingBlock: BETDIP_clean_linker_0, # of connection points: 3
#     Node 15, Type 0, BuildingBlock: BETDIP_clean_linker_0, # of connection points: 3
#     Node 16, Type 1, BuildingBlock: TATPOV_clean_sbu_0, # of connection points: 4
#     Node 17, Type 1, BuildingBlock: TATPOV_clean_sbu_0, # of connection points: 4
#     Node 18, Type 1, BuildingBlock: TATPOV_clean_sbu_0, # of connection points: 4
#     Node 19, Type 1, BuildingBlock: TATPOV_clean_sbu_0, # of connection points: 4
#     Node 20, Type 1, BuildingBlock: TATPOV_clean_sbu_0, # of connection points: 4
#     Node 21, Type 1, BuildingBlock: TATPOV_clean_sbu_0, # of connection points: 4
#     Node 22, Type 1, BuildingBlock: TATPOV_clean_sbu_0, # of connection points: 4
#     Node 23, Type 1, BuildingBlock: TATPOV_clean_sbu_0, # of connection points: 4
#     Node 24, Type 1, BuildingBlock: TATPOV_clean_sbu_0, # of connection points: 4
#     Node 25, Type 1, BuildingBlock: TATPOV_clean_sbu_0, # of connection points: 4
#     Node 26, Type 1, BuildingBlock: TATPOV_clean_sbu_0, # of connection points: 4
#     Node 27, Type 1, BuildingBlock: TATPOV_clean_sbu_0, # of connection points: 4
#     Edge 28, Type (0, 1), BuildingBlock: MIFKUJ_clean_linker_0, # of connection points: 2
#     Edge 29, Type (0, 1), BuildingBlock: MIFKUJ_clean_linker_0, # of connection points: 2
#     Edge 30, Type (0, 1), BuildingBlock: MIFKUJ_clean_linker_0, # of connection points: 2
#     Edge 31, Type (0, 1), BuildingBlock: MIFKUJ_clean_linker_0, # of connection points: 2
#     Edge 32, Type (0, 1), BuildingBlock: MIFKUJ_clean_linker_0, # of connection points: 2
#     Edge 33, Type (0, 1), BuildingBlock: MIFKUJ_clean_linker_0, # of connection points: 2
#     Edge 34, Type (0, 1), BuildingBlock: MIFKUJ_clean_linker_0, # of connection points: 2
#     Edge 35, Type (0, 1), BuildingBlock: MIFKUJ_clean_linker_0, # of connection points: 2
#     Edge 36, Type (0, 1), BuildingBlock: MIFKUJ_clean_linker_0, # of connection points: 2
#     Edge 37, Type (0, 1), BuildingBlock: MIFKUJ_clean_linker_0, # of connection points: 2
#     Edge 38, Type (0, 1), BuildingBlock: MIFKUJ_clean_linker_0, # of connection points: 2
#     Edge 39, Type (0, 1), BuildingBlock: MIFKUJ_clean_linker_0, # of connection points: 2
#     Edge 40, Type (0, 1), BuildingBlock: MIFKUJ_clean_linker_0, # of connection points: 2
#     Edge 41, Type (0, 1), BuildingBlock: MIFKUJ_clean_linker_0, # of connection points: 2
#     Edge 42, Type (0, 1), BuildingBlock: MIFKUJ_clean_linker_0, # of connection points: 2
#     Edge 43, Type (0, 1), BuildingBlock: MIFKUJ_clean_linker_0, # of connection points: 2
#     Edge 44, Type (0, 1), BuildingBlock: MIFKUJ_clean_linker_0, # of connection points: 2
#     Edge 45, Type (0, 1), BuildingBlock: MIFKUJ_clean_linker_0, # of connection points: 2
#     Edge 46, Type (0, 1), BuildingBlock: MIFKUJ_clean_linker_0, # of connection points: 2
#     Edge 47, Type (0, 1), BuildingBlock: MIFKUJ_clean_linker_0, # of connection points: 2
#     Edge 48, Type (0, 1), BuildingBlock: MIFKUJ_clean_linker_0, # of connection points: 2
#     Edge 49, Type (0, 1), BuildingBlock: MIFKUJ_clean_linker_0, # of connection points: 2
#     Edge 50, Type (0, 1), BuildingBlock: MIFKUJ_clean_linker_0, # of connection points: 2
#     Edge 51, Type (0, 1), BuildingBlock: MIFKUJ_clean_linker_0, # of connection points: 2
#     Edge 52, Type (0, 1), BuildingBlock: MIFKUJ_clean_linker_0, # of connection points: 2
#     Edge 53, Type (0, 1), BuildingBlock: MIFKUJ_clean_linker_0, # of connection points: 2
#     Edge 54, Type (0, 1), BuildingBlock: MIFKUJ_clean_linker_0, # of connection points: 2
#     Edge 55, Type (0, 1), BuildingBlock: MIFKUJ_clean_linker_0, # of connection points: 2
#     Edge 56, Type (0, 1), BuildingBlock: MIFKUJ_clean_linker_0, # of connection points: 2
#     Edge 57, Type (0, 1), BuildingBlock: MIFKUJ_clean_linker_0, # of connection points: 2
#     Edge 58, Type (0, 1), BuildingBlock: MIFKUJ_clean_linker_0, # of connection points: 2
#     Edge 59, Type (0, 1), BuildingBlock: MIFKUJ_clean_linker_0, # of connection points: 2
#     Edge 60, Type (0, 1), BuildingBlock: MIFKUJ_clean_linker_0, # of connection points: 2
#     Edge 61, Type (0, 1), BuildingBlock: MIFKUJ_clean_linker_0, # of connection points: 2
#     Edge 62, Type (0, 1), BuildingBlock: MIFKUJ_clean_linker_0, # of connection points: 2
#     Edge 63, Type (0, 1), BuildingBlock: MIFKUJ_clean_linker_0, # of connection points: 2
#     Edge 64, Type (0, 1), BuildingBlock: MIFKUJ_clean_linker_0, # of connection points: 2
#     Edge 65, Type (0, 1), BuildingBlock: MIFKUJ_clean_linker_0, # of connection points: 2
#     Edge 66, Type (0, 1), BuildingBlock: MIFKUJ_clean_linker_0, # of connection points: 2
#     Edge 67, Type (0, 1), BuildingBlock: MIFKUJ_clean_linker_0, # of connection points: 2
#     Edge 68, Type (0, 1), BuildingBlock: MIFKUJ_clean_linker_0, # of connection points: 2
#     Edge 69, Type (0, 1), BuildingBlock: MIFKUJ_clean_linker_0, # of connection points: 2
#     Edge 70, Type (0, 1), BuildingBlock: MIFKUJ_clean_linker_0, # of connection points: 2
#     Edge 71, Type (0, 1), BuildingBlock: MIFKUJ_clean_linker_0, # of connection points: 2
#     Edge 72, Type (0, 1), BuildingBlock: MIFKUJ_clean_linker_0, # of connection points: 2
#     Edge 73, Type (0, 1), BuildingBlock: MIFKUJ_clean_linker_0, # of connection points: 2
#     Edge 74, Type (0, 1), BuildingBlock: MIFKUJ_clean_linker_0, # of connection points: 2
#     Edge 75, Type (0, 1), BuildingBlock: MIFKUJ_clean_linker_0, # of connection points: 2
# Relax obj value: 0.066
# Max RMSD: 0.196
# Mean RMSD: 0.113
data_MOF--net-ctn--node1-TATPOV_clean_sbu_0--node2-BETDIP_clean_linker_0--edge1-MIFKUJ_clean_linker_0
_symmetry_space_group_name_H-M    P1
_symmetry_Int_Tables_number       1
_symmetry_cell_setting            triclinic
loop_
_symmetry_equiv_pos_as_xyz
'x, y, z'
_cell_length_a     68.233452
_cell_length_b     68.545642
_cell_length_c     74.993259
_cell_angle_alpha  94.615102
_cell_angle_beta   94.708307
_cell_angle_gamma 94.121852
loop_
_atom_site_label
_atom_site_type_symbol
_atom_site_fract_x
_atom_site_fract_y
_atom_site_fract_z
_atom_type_partial_charge
H0 H 0.02957 0.05721 0.05347 0.0
H1 H 0.0761 0.03596 0.0238 0.0
H2 H 0.06142 0.0093 0.07139 0.0
H3 H 0.07709 0.0657 0.01378 0.0
C4 C 0.0621 0.07009 0.01314 0.0
C5 C 0.04089 0.04706 0.05181 0.0
C6 C 0.04403 0.0331 0.06432 0.0
C7 C 0.05255 0.04852 0.03738 0.0
C8 C 0.06727 0.03537 0.0351 0.0
C9 C 0.0707 0.02128 0.04742 0.0
C10 C 0.0591 0.02037 0.06206 0.0
N11 N 0.04879 0.06312 0.0253 0.0
H12 H 0.25547 0.6925 0.20585 0.0
H13 H 0.31383 0.72036 0.21909 0.0
H14 H 0.29447 0.67087 0.24648 0.0
H15 H 0.30313 0.74496 0.20587 0.0
C16 C 0.29018 0.74016 0.1968 0.0
C17 C 0.26951 0.69348 0.21388 0.0
C18 C 0.27336 0.67954 0.22622 0.0
C19 C 0.28372 0.70861 0.21152 0.0
C20 C 0.30228 0.70949 0.2214 0.0
C21 C 0.30634 0.69592 0.23407 0.0
C22 C 0.29172 0.68107 0.23642 0.0
N23 N 0.27888 0.72233 0.19886 0.0
H24 H 0.93969 0.46427 0.02482 0.0
H25 H 0.98487 0.43902 0.0568 0.0
H26 H 0.96699 0.49588 0.0736 0.0
H27 H 0.966 0.41034 0.04488 0.0
C28 C 0.96483 0.41388 0.03099 0.0
C29 C 0.95013 0.46523 0.03662 0.0
C30 C 0.95173 0.48193 0.049 0.0
C31 C 0.96164 0.44948 0.03957 0.0
C32 C 0.97545 0.45082 0.05466 0.0
C33 C 0.97736 0.46749 0.06699 0.0
C34 C 0.96529 0.48286 0.06422 0.0
N35 N 0.95972 0.43284 0.02681 0.0
H36 H 0.73431 0.74647 0.20789 0.0
H37 H 0.7569 0.79786 0.24201 0.0
H38 H 0.77907 0.78624 0.19046 0.0
H39 H 0.74759 0.77662 0.26419 0.0
C40 C 0.73318 0.77118 0.25772 0.0
C41 C 0.74441 0.75954 0.21036 0.0
C42 C 0.75696 0.76474 0.19729 0.0
C43 C 0.74452 0.77119 0.22659 0.0
C44 C 0.7571 0.78854 0.22968 0.0
C45 C 0.76961 0.79414 0.21664 0.0
C46 C 0.76952 0.78203 0.20059 0.0
N47 N 0.73085 0.7657 0.23895 0.0
H48 H 0.05667 0.96382 0.43513 0.0
H49 H 0.10878 0.98851 0.46755 0.0
H50 H 0.09216 0.01201 0.41768 0.0
H51 H 0.10787 0.95851 0.47786 0.0
C52 C 0.09223 0.95471 0.47849 0.0
C53 C 0.06941 0.9744 0.43719 0.0
C54 C 0.07288 0.98782 0.42436 0.0
C55 C 0.08244 0.97424 0.4526 0.0
C56 C 0.09887 0.98806 0.45547 0.0
C57 C 0.10256 0.00156 0.4428 0.0
C58 C 0.0896 0.00126 0.42724 0.0
N59 N 0.07822 0.96045 0.46521 0.0
H60 H 0.22234 0.7462 0.80137 0.0
H61 H 0.24836 0.70975 0.76221 0.0
H62 H 0.26937 0.71121 0.818 0.0
H63 H 0.23246 0.72673 0.74248 0.0
C64 C 0.21925 0.73085 0.74848 0.0
C65 C 0.23299 0.73571 0.79828 0.0
C66 C 0.24601 0.72987 0.81199 0.0
C67 C 0.23361 0.72847 0.7804 0.0
C68 C 0.24768 0.71528 0.77601 0.0
C69 C 0.26089 0.70906 0.78945 0.0
C70 C 0.2598 0.71638 0.80744 0.0
N71 N 0.21923 0.73418 0.76743 0.0
H72 H 0.98373 0.57276 0.45603 0.0
H73 H 0.94568 0.51945 0.44613 0.0
H74 H 0.93879 0.55999 0.4914 0.0
H75 H 0.96889 0.50904 0.42994 0.0
C76 C 0.97747 0.52148 0.42565 0.0
C77 C 0.97172 0.56316 0.45979 0.0
C78 C 0.96181 0.56862 0.47486 0.0
C79 C 0.96632 0.54539 0.44947 0.0
C80 C 0.95041 0.53309 0.45407 0.0
C81 C 0.94058 0.53827 0.46928 0.0
C82 C 0.94633 0.55602 0.47961 0.0
N83 N 0.97736 0.54048 0.43472 0.0
H84 H 0.83033 0.82656 0.77912 0.0
H85 H 0.85602 0.79228 0.81911 0.0
H86 H 0.80464 0.8228 0.82927 0.0
H87 H 0.88216 0.79322 0.80328 0.0
C88 C 0.87701 0.79546 0.78958 0.0
C89 C 0.8305 0.82135 0.7924 0.0
C90 C 0.81563 0.82593 0.80349 0.0
C91 C 0.84533 0.80958 0.79801 0.0
C92 C 0.84523 0.80218 0.81497 0.0
C93 C 0.83052 0.80682 0.82637 0.0
C94 C 0.81587 0.81883 0.82052 0.0
N95 N 0.85939 0.80477 0.78574 0.0
H96 H 0.32824 0.32417 0.28336 0.0
H97 H 0.35574 0.29406 0.32556 0.0
H98 H 0.31428 0.33651 0.33778 0.0
H99 H 0.37685 0.28588 0.30632 0.0
C100 C 0.37101 0.28805 0.2928 0.0
C101 C 0.33036 0.32174 0.29748 0.0
C102 C 0.31974 0.3319 0.30994 0.0
C103 C 0.34387 0.3086 0.30302 0.0
C104 C 0.3463 0.3051 0.32125 0.0
C105 C 0.33567 0.31512 0.33394 0.0
C106 C 0.32264 0.32876 0.32818 0.0
N107 N 0.35437 0.29905 0.28972 0.0
H108 H 0.43466 0.956 0.52752 0.0
H109 H 0.47563 0.92927 0.56278 0.0
H110 H 0.45887 0.98713 0.57755 0.0
H111 H 0.45892 0.90101 0.54883 0.0
C112 C 0.45822 0.9049 0.53504 0.0
C113 C 0.444 0.95666 0.53999 0.0
C114 C 0.44533 0.97351 0.55216 0.0
C115 C 0.45443 0.94044 0.54391 0.0
C116 C 0.46675 0.94131 0.55997 0.0
C117 C 0.46844 0.95814 0.57213 0.0
C118 C 0.45759 0.97411 0.56819 0.0
N119 N 0.45318 0.92393 0.53102 0.0
H120 H 0.23502 0.25698 0.70176 0.0
H121 H 0.25015 0.31058 0.73515 0.0
H122 H 0.27984 0.29877 0.68741 0.0
H123 H 0.24263 0.28815 0.75743 0.0
C124 C 0.22875 0.28178 0.7505 0.0
C125 C 0.24402 0.27074 0.70456 0.0
C126 C 0.25766 0.2765 0.69257 0.0
C127 C 0.24176 0.28264 0.72019 0.0
C128 C 0.25274 0.30092 0.72358 0.0
C129 C 0.2663 0.30713 0.71161 0.0
C130 C 0.26887 0.29458 0.69634 0.0
N131 N 0.22752 0.27634 0.73173 0.0
H132 H 0.75044 0.18708 0.70618 0.0
H133 H 0.80548 0.22085 0.72128 0.0
H134 H 0.78953 0.17059 0.74947 0.0
H135 H 0.78467 0.24619 0.71224 0.0
C136 C 0.77851 0.23838 0.69961 0.0
C137 C 0.764 0.18964 0.71492 0.0
C138 C 0.76835 0.17681 0.72814 0.0
C139 C 0.777 0.20582 0.71278 0.0
C140 C 0.79498 0.2089 0.72356 0.0
C141 C 0.79984 0.196 0.73666 0.0
C142 C 0.78627 0.18016 0.73898 0.0
N143 N 0.77207 0.21814 0.69901 0.0
H144 H 0.53451 0.5523 0.55678 0.0
H145 H 0.57944 0.53033 0.52562 0.0
H146 H 0.56473 0.5025 0.57264 0.0
H147 H 0.584 0.56285 0.52061 0.0
C148 C 0.56891 0.5668 0.51843 0.0
C149 C 0.54555 0.54192 0.55479 0.0
C150 C 0.54804 0.52711 0.56656 0.0
C151 C 0.55721 0.54358 0.54036 0.0
C152 C 0.57112 0.52978 0.53726 0.0
C153 C 0.57382 0.51473 0.54873 0.0
C154 C 0.56229 0.51363 0.56341 0.0
N155 N 0.55427 0.55895 0.52893 0.0
H156 H 0.5658 0.44269 0.92536 0.0
H157 H 0.61551 0.46791 0.96076 0.0
H158 H 0.60207 0.49169 0.91037 0.0
H159 H 0.61446 0.43672 0.96984 0.0
C160 C 0.59867 0.43396 0.97052 0.0
C161 C 0.57841 0.45337 0.92816 0.0
C162 C 0.58273 0.46696 0.91567 0.0
C163 C 0.59039 0.4533 0.94425 0.0
C164 C 0.60651 0.46738 0.94813 0.0
C165 C 0.6109 0.48116 0.93588 0.0
C166 C 0.59908 0.4807 0.91962 0.0
N167 N 0.58527 0.43962 0.9567 0.0
H168 H 0.72742 0.25353 0.28918 0.0
H169 H 0.75112 0.21205 0.25248 0.0
H170 H 0.77578 0.22078 0.30733 0.0
H171 H 0.73734 0.23017 0.23167 0.0
C172 C 0.7238 0.23422 0.23712 0.0
C173 C 0.73798 0.24279 0.28663 0.0
C174 C 0.75169 0.23846 0.30053 0.0
C175 C 0.73783 0.23363 0.26926 0.0
C176 C 0.75142 0.21966 0.26572 0.0
C177 C 0.76531 0.21513 0.27936 0.0
C178 C 0.76546 0.22469 0.29669 0.0
N179 N 0.7232 0.23818 0.25596 0.0
H180 H 0.47414 0.08239 0.95227 0.0
H181 H 0.43613 0.03004 0.93696 0.0
H182 H 0.42289 0.07018 0.98056 0.0
H183 H 0.46355 0.0186 0.92735 0.0
C184 C 0.47215 0.03097 0.92294 0.0
C185 C 0.46111 0.07306 0.95419 0.0
C186 C 0.44887 0.07854 0.96757 0.0
C187 C 0.45694 0.05544 0.9434 0.0
C188 C 0.43993 0.04337 0.94566 0.0
C189 C 0.42749 0.0486 0.95902 0.0
C190 C 0.43202 0.0663 0.96986 0.0
N191 N 0.47032 0.05033 0.93057 0.0
Zn192 Zn 0.29192 0.85579 0.01386 0.0
Zn193 Zn 0.25742 0.87101 0.01231 0.0
O194 O 0.25976 0.85867 0.03689 0.0
O195 O 0.28972 0.84859 0.03895 0.0
O196 O 0.23204 0.88481 0.01311 0.0
O197 O 0.30627 0.88105 0.00949 0.0
O198 O 0.27778 0.89417 0.0086 0.0
C199 C 0.27356 0.8509 0.04567 0.0
C200 C 0.26475 0.83784 0.98446 0.0
O201 O 0.2532 0.8503 0.99024 0.0
O202 O 0.28167 0.83705 0.99258 0.0
C203 C 0.23052 0.89646 0.02695 0.0
O204 O 0.24502 0.89849 0.03979 0.0
C205 C 0.2964 0.89576 0.00755 0.0
Zn206 Zn 0.11145 0.43886 0.26072 0.0
Zn207 Zn 0.13068 0.47472 0.25986 0.0
O208 O 0.11426 0.47938 0.28129 0.0
O209 O 0.09964 0.44992 0.28289 0.0
O210 O 0.14632 0.50041 0.25816 0.0
O211 O 0.13744 0.42658 0.26275 0.0
O212 O 0.15258 0.45617 0.26375 0.0
C213 C 0.10276 0.4678 0.28887 0.0
C214 C 0.10179 0.45674 0.22821 0.0
O215 O 0.11423 0.47036 0.23554 0.0
O216 O 0.09781 0.44163 0.23632 0.0
C217 C 0.13858 0.51612 0.25458 0.0
O218 O 0.11927 0.51609 0.25243 0.0
C219 C 0.15323 0.4377 0.26423 0.0
Zn220 Zn 0.81194 0.6427 0.96332 0.0
Zn221 Zn 0.79992 0.65802 0.99434 0.0
O222 O 0.82366 0.64296 0.00262 0.0
O223 O 0.83333 0.63025 0.97721 0.0
O224 O 0.79131 0.67005 0.01748 0.0
O225 O 0.81748 0.66969 0.95566 0.0
O226 O 0.80584 0.6822 0.98032 0.0
C227 C 0.83527 0.63257 0.99419 0.0
C228 C 0.77231 0.62887 0.96918 0.0
O229 O 0.776 0.63967 0.98388 0.0
O230 O 0.78506 0.62806 0.95783 0.0
C231 C 0.78686 0.65958 0.03002 0.0
O232 O 0.78782 0.64048 0.02774 0.0
C233 C 0.81312 0.68436 0.96543 0.0
Zn234 Zn 0.88305 0.01512 0.27223 0.0
Zn235 Zn 0.90627 0.01758 0.24559 0.0
O236 O 0.89191 0.0436 0.24579 0.0
O237 O 0.87234 0.04067 0.2676 0.0
O238 O 0.92432 0.01956 0.22542 0.0
O239 O 0.90657 0.01354 0.28984 0.0
O240 O 0.92585 0.01529 0.2678 0.0
C241 C 0.87876 0.05024 0.25529 0.0
C242 C 0.87415 0.98327 0.24533 0.0
O243 O 0.8884 0.99173 0.23809 0.0
O244 O 0.86885 0.99059 0.26003 0.0
C245 C 0.91773 0.02152 0.20935 0.0
O246 O 0.89866 0.02235 0.20568 0.0
C247 C 0.92364 0.0137 0.28437 0.0
Zn248 Zn 0.31694 0.14386 0.46274 0.0
Zn249 Zn 0.30729 0.1606 0.49417 0.0
O250 O 0.32915 0.14293 0.50187 0.0
O251 O 0.33659 0.12881 0.47613 0.0
O252 O 0.30031 0.17385 0.51746 0.0
O253 O 0.32576 0.1703 0.45534 0.0
O254 O 0.31549 0.1841 0.48011 0.0
C255 C 0.33914 0.13107 0.4931 0.0
C256 C 0.27644 0.13451 0.4694 0.0
O257 O 0.28161 0.14481 0.48416 0.0
O258 O 0.28864 0.13237 0.45766 0.0
C259 C 0.29629 0.16427 0.53069 0.0
O260 O 0.29677 0.14508 0.52921 0.0
C261 C 0.32302 0.18551 0.46523 0.0
Zn262 Zn 0.39622 0.52297 0.78061 0.0
Zn263 Zn 0.41314 0.52352 0.7504 0.0
O264 O 0.40008 0.5502 0.75315 0.0
O265 O 0.38849 0.55039 0.77973 0.0
O266 O 0.42744 0.52555 0.72776 0.0
O267 O 0.42099 0.5179 0.79455 0.0
O268 O 0.43582 0.51847 0.76962 0.0
C269 C 0.39141 0.55879 0.76569 0.0
C270 C 0.37993 0.49204 0.75421 0.0
O271 O 0.39279 0.49941 0.74471 0.0
O272 O 0.37817 0.49982 0.76983 0.0
C273 C 0.43367 0.51062 0.71944 0.0
O274 O 0.43042 0.4933 0.72545 0.0
C275 C 0.4364 0.51637 0.78643 0.0
Zn276 Zn 0.79217 0.34794 0.51122 0.0
Zn277 Zn 0.75931 0.36558 0.50977 0.0
O278 O 0.75882 0.35064 0.53302 0.0
O279 O 0.78427 0.33274 0.53141 0.0
O280 O 0.7353 0.38147 0.51036 0.0
O281 O 0.80897 0.37344 0.51589 0.0
O282 O 0.78162 0.38769 0.5098 0.0
C283 C 0.76932 0.33756 0.5391 0.0
C284 C 0.76821 0.33794 0.47787 0.0
O285 O 0.75567 0.34792 0.48557 0.0
O286 O 0.78506 0.33654 0.48587 0.0
C287 C 0.71901 0.3757 0.5161 0.0
O288 O 0.71677 0.35787 0.52127 0.0
C289 C 0.80032 0.38875 0.51307 0.0
Zn290 Zn 0.60561 0.93628 0.76697 0.0
Zn291 Zn 0.62649 0.97053 0.76306 0.0
O292 O 0.6125 0.97729 0.78574 0.0
O293 O 0.59599 0.94929 0.78938 0.0
O294 O 0.64322 0.99516 0.75989 0.0
O295 O 0.63059 0.92234 0.76845 0.0
O296 O 0.64722 0.95037 0.76526 0.0
C297 C 0.60088 0.96716 0.79452 0.0
C298 C 0.59443 0.95314 0.734 0.0
O299 O 0.60776 0.96653 0.74009 0.0
O300 O 0.59077 0.93855 0.74287 0.0
C301 C 0.63597 0.01112 0.75638 0.0
O302 O 0.61672 0.01186 0.75501 0.0
C303 C 0.64684 0.93207 0.76727 0.0
Zn304 Zn 0.01752 0.27595 0.84862 0.0
Zn305 Zn 0.02213 0.24452 0.86591 0.0
O306 O 0.04768 0.24781 0.85251 0.0
O307 O 0.04202 0.27253 0.83628 0.0
O308 O 0.02681 0.22123 0.88037 0.0
O309 O 0.01776 0.2932 0.87148 0.0
O310 O 0.01873 0.2665 0.88583 0.0
C311 C 0.05289 0.25928 0.84085 0.0
C312 C 0.98583 0.24633 0.83915 0.0
O313 O 0.99618 0.23632 0.84946 0.0
O314 O 0.9917 0.26384 0.83697 0.0
C315 C 0.01418 0.21505 0.89061 0.0
O316 O 0.99754 0.22351 0.89121 0.0
C317 C 0.01751 0.285 0.88599 0.0
Zn318 Zn 0.52007 0.77179 0.35278 0.0
Zn319 Zn 0.52372 0.73998 0.37 0.0
O320 O 0.55019 0.74327 0.35791 0.0
O321 O 0.54583 0.76884 0.34242 0.0
O322 O 0.52652 0.71649 0.3847 0.0
O323 O 0.51816 0.78868 0.3755 0.0
O324 O 0.51917 0.76186 0.38967 0.0
C325 C 0.5563 0.75529 0.34704 0.0
C326 C 0.48927 0.74185 0.34109 0.0
O327 O 0.49882 0.73197 0.35213 0.0
O328 O 0.4953 0.7594 0.33923 0.0
C329 C 0.54283 0.71395 0.3934 0.0
O330 O 0.55818 0.72634 0.39218 0.0
C331 C 0.51742 0.78028 0.38987 0.0
Zn332 Zn 0.98398 0.7883 0.59725 0.0
Zn333 Zn 0.01917 0.77984 0.61275 0.0
O334 O 0.02592 0.80554 0.60142 0.0
O335 O 0.99733 0.81279 0.58892 0.0
O336 O 0.04497 0.77397 0.62538 0.0
O337 O 0.97265 0.7888 0.62125 0.0
O338 O 0.00125 0.78131 0.63348 0.0
C339 C 0.01573 0.8168 0.59236 0.0
C340 C 0.99706 0.75138 0.58314 0.0
O341 O 0.01204 0.75616 0.59433 0.0
O342 O 0.98307 0.76254 0.58191 0.0
C343 C 0.04573 0.75858 0.63372 0.0
O344 O 0.02975 0.74661 0.6334 0.0
C345 C 0.98336 0.78491 0.6349 0.0
Zn346 Zn 0.47894 0.29202 0.10158 0.0
Zn347 Zn 0.51315 0.28042 0.1164 0.0
O348 O 0.52178 0.30584 0.10542 0.0
O349 O 0.49398 0.31585 0.09375 0.0
O350 O 0.53815 0.27272 0.12916 0.0
O351 O 0.46738 0.29247 0.12547 0.0
O352 O 0.49516 0.28237 0.13701 0.0
C353 C 0.51257 0.31818 0.09681 0.0
C354 C 0.48935 0.25427 0.0863 0.0
O355 O 0.50456 0.25755 0.09748 0.0
O356 O 0.47638 0.2666 0.08556 0.0
C357 C 0.55375 0.26953 0.1216 0.0
O358 O 0.55396 0.27108 0.10427 0.0
C359 C 0.47767 0.28713 0.13876 0.0
H360 H 0.21342 0.73847 0.82958 0.0
H361 H 0.21269 0.75467 0.85973 0.0
H362 H 0.27603 0.75569 0.86785 0.0
H363 H 0.27707 0.74026 0.83745 0.0
H364 H 0.25529 0.74349 0.89755 0.0
H365 H 0.2574 0.79546 0.8571 0.0
H366 H 0.24502 0.81208 0.83095 0.0
H367 H 0.18961 0.81753 0.85348 0.0
H368 H 0.20158 0.80067 0.87965 0.0
H369 H 0.28856 0.81438 0.96672 0.0
H370 H 0.28084 0.79386 0.93884 0.0
H371 H 0.22091 0.81041 0.93624 0.0
H372 H 0.2288 0.8318 0.96422 0.0
H373 H 0.23423 0.8113 0.90448 0.0
H374 H 0.23261 0.76353 0.94662 0.0
H375 H 0.24375 0.74641 0.97285 0.0
H376 H 0.29571 0.7317 0.94775 0.0
H377 H 0.28504 0.74897 0.92147 0.0
C378 C 0.22725 0.74226 0.83768 0.0
C379 C 0.24534 0.73819 0.83093 0.0
C380 C 0.22675 0.75139 0.85497 0.0
C381 C 0.2443 0.75647 0.86595 0.0
C382 C 0.26231 0.75182 0.85958 0.0
C383 C 0.26286 0.7429 0.84221 0.0
C384 C 0.24406 0.76728 0.88385 0.0
C385 C 0.2508 0.75835 0.89911 0.0
C386 C 0.23743 0.78636 0.88588 0.0
C387 C 0.2303 0.7966 0.87021 0.0
C388 C 0.24252 0.80005 0.8564 0.0
C389 C 0.23559 0.80954 0.84159 0.0
C390 C 0.21652 0.8158 0.84053 0.0
C391 C 0.20436 0.81264 0.8543 0.0
C392 C 0.21121 0.80312 0.86913 0.0
C393 C 0.27364 0.81362 0.96039 0.0
C394 C 0.25925 0.8247 0.96782 0.0
C395 C 0.26921 0.80171 0.94442 0.0
C396 C 0.25017 0.80019 0.93558 0.0
C397 C 0.23568 0.81123 0.9429 0.0
C398 C 0.24018 0.8234 0.95889 0.0
C399 C 0.24599 0.78773 0.9183 0.0
C400 C 0.2384 0.79632 0.90308 0.0
C401 C 0.25159 0.76819 0.91635 0.0
C402 C 0.25805 0.75766 0.93209 0.0
C403 C 0.24647 0.75675 0.94673 0.0
C404 C 0.2527 0.74701 0.96161 0.0
C405 C 0.27044 0.738 0.96197 0.0
C406 C 0.28197 0.73868 0.94744 0.0
C407 C 0.27582 0.74842 0.93254 0.0
H408 H 0.27524 0.73046 0.9735 0.0
H409 H 0.21118 0.82315 0.82905 0.0
H410 H 0.0024 0.54826 0.41144 0.0
H411 H 0.02576 0.54146 0.38911 0.0
H412 H 0.00674 0.47977 0.38598 0.0
H413 H 0.98347 0.48647 0.40847 0.0
H414 H 0.04669 0.48607 0.38909 0.0
H415 H 0.99181 0.50813 0.35319 0.0
H416 H 0.96733 0.53135 0.34488 0.0
H417 H 0.01397 0.57507 0.33854 0.0
H418 H 0.03874 0.55218 0.34705 0.0
H419 H 0.07862 0.44651 0.30856 0.0
H420 H 0.0601 0.45848 0.33299 0.0
H421 H 0.08462 0.51756 0.32886 0.0
H422 H 0.10315 0.5057 0.30404 0.0
H423 H 0.04507 0.51603 0.33097 0.0
H424 H 0.10001 0.49309 0.36403 0.0
H425 H 0.12461 0.4699 0.37205 0.0
H426 H 0.07846 0.42824 0.3839 0.0
H427 H 0.05354 0.45107 0.3757 0.0
C428 C 0.00314 0.53326 0.40596 0.0
C429 C 0.99114 0.51784 0.41168 0.0
C430 C 0.01646 0.52941 0.39316 0.0
C431 C 0.01791 0.51013 0.38583 0.0
C432 C 0.00587 0.49475 0.3915 0.0
C433 C 0.99255 0.49859 0.40427 0.0
C434 C 0.03215 0.50582 0.37244 0.0
C435 C 0.04624 0.49248 0.37631 0.0
C436 C 0.032 0.51476 0.35607 0.0
C437 C 0.01712 0.52852 0.35097 0.0
C438 C 0.99685 0.52275 0.35018 0.0
C439 C 0.98292 0.53584 0.3454 0.0
C440 C 0.98909 0.55469 0.34124 0.0
C441 C 0.00921 0.56047 0.3418 0.0
C442 C 0.0232 0.54745 0.34659 0.0
C443 C 0.08023 0.46205 0.31287 0.0
C444 C 0.09241 0.47515 0.30434 0.0
C445 C 0.06969 0.46885 0.32693 0.0
C446 C 0.07117 0.48887 0.33289 0.0
C447 C 0.08335 0.50203 0.32449 0.0
C448 C 0.09396 0.49522 0.31037 0.0
C449 C 0.05932 0.49592 0.34744 0.0
C450 C 0.04571 0.5098 0.34383 0.0
C451 C 0.05994 0.48752 0.36409 0.0
C452 C 0.07489 0.47376 0.36913 0.0
C453 C 0.09509 0.47893 0.36822 0.0
C454 C 0.1091 0.46586 0.37282 0.0
C455 C 0.1031 0.4476 0.37845 0.0
C456 C 0.08309 0.44239 0.37953 0.0
C457 C 0.06901 0.4554 0.37494 0.0
H458 H 0.11397 0.43749 0.382 0.0
H459 H 0.97829 0.5648 0.33753 0.0
H460 H 0.79811 0.79284 0.84206 0.0
H461 H 0.79726 0.77831 0.87065 0.0
H462 H 0.86068 0.78675 0.87909 0.0
H463 H 0.86169 0.80193 0.8507 0.0
H464 H 0.84537 0.74856 0.88234 0.0
H465 H 0.83429 0.81402 0.90468 0.0
H466 H 0.81783 0.8449 0.90502 0.0
H467 H 0.76285 0.81365 0.91295 0.0
H468 H 0.7789 0.78252 0.91238 0.0
H469 H 0.84783 0.70447 0.96189 0.0
H470 H 0.85286 0.73211 0.94358 0.0
H471 H 0.78978 0.73391 0.93398 0.0
H472 H 0.78484 0.70689 0.95311 0.0
H473 H 0.80747 0.76983 0.93323 0.0
H474 H 0.8152 0.70519 0.90622 0.0
H475 H 0.82898 0.67288 0.90392 0.0
H476 H 0.88704 0.70097 0.90224 0.0
H477 H 0.87362 0.73348 0.9048 0.0
C478 C 0.81187 0.79204 0.85016 0.0
C479 C 0.82999 0.79858 0.84407 0.0
C480 C 0.81134 0.78371 0.86649 0.0
C481 C 0.82889 0.78166 0.87703 0.0
C482 C 0.84698 0.78829 0.87114 0.0
C483 C 0.84753 0.7968 0.85485 0.0
C484 C 0.82837 0.7711 0.89344 0.0
C485 C 0.83749 0.75344 0.89367 0.0
C486 C 0.81745 0.77717 0.90785 0.0
C487 C 0.80779 0.7959 0.90836 0.0
C488 C 0.81865 0.8137 0.90636 0.0
C489 C 0.8094 0.83126 0.90661 0.0
C490 C 0.7893 0.83123 0.90897 0.0
C491 C 0.77842 0.81365 0.91112 0.0
C492 C 0.78759 0.79605 0.91085 0.0
C493 C 0.83512 0.71136 0.95645 0.0
C494 C 0.81599 0.70377 0.95882 0.0
C495 C 0.83797 0.72701 0.94591 0.0
C496 C 0.82169 0.7347 0.93703 0.0
C497 C 0.80255 0.72817 0.94066 0.0
C498 C 0.79971 0.71278 0.95156 0.0
C499 C 0.82453 0.74732 0.92214 0.0
C500 C 0.81571 0.76519 0.92208 0.0
C501 C 0.83536 0.74128 0.90761 0.0
C502 C 0.84345 0.72176 0.90591 0.0
C503 C 0.83092 0.70447 0.90548 0.0
C504 C 0.83866 0.68613 0.90412 0.0
C505 C 0.85888 0.68488 0.90299 0.0
C506 C 0.87139 0.70197 0.90316 0.0
C507 C 0.86373 0.72036 0.90456 0.0
H508 H 0.86484 0.67066 0.90193 0.0
H509 H 0.78216 0.84484 0.90916 0.0
H510 H 0.03261 0.98509 0.42257 0.0
H511 H 0.00951 0.98745 0.39634 0.0
H512 H 0.05813 0.99429 0.36346 0.0
H513 H 0.08139 0.99191 0.38971 0.0
H514 H 0.03221 0.02084 0.35717 0.0
H515 H 0.02884 0.95158 0.35956 0.0
H516 H 0.02537 0.92022 0.37338 0.0
H517 H 0.96683 0.93186 0.38595 0.0
H518 H 0.97004 0.96344 0.37243 0.0
H519 H 0.96285 0.01328 0.27819 0.0
H520 H 0.99045 0.0074 0.29969 0.0
H521 H 0.95051 0.00229 0.34106 0.0
H522 H 0.92303 0.00805 0.31986 0.0
H523 H 0.97488 0.97245 0.33977 0.0
H524 H 0.98031 0.04342 0.34009 0.0
H525 H 0.98416 0.07475 0.32623 0.0
H526 H 0.03943 0.05915 0.30796 0.0
H527 H 0.03578 0.02759 0.32152 0.0
C528 C 0.03839 0.98678 0.40971 0.0
C529 C 0.05883 0.98827 0.40821 0.0
C530 C 0.02516 0.98815 0.39472 0.0
C531 C 0.03208 0.99084 0.37789 0.0
C532 C 0.05248 0.99222 0.37631 0.0
C533 C 0.06573 0.9909 0.39133 0.0
C534 C 0.01797 0.99295 0.36215 0.0
C535 C 0.01989 0.01007 0.35312 0.0
C536 C 0.00179 0.97899 0.35699 0.0
C537 C 0.99974 0.95996 0.36509 0.0
C538 C 0.01528 0.94753 0.36539 0.0
C539 C 0.01335 0.92969 0.37315 0.0
C540 C 0.99591 0.92406 0.38057 0.0
C541 C 0.98034 0.93624 0.3802 0.0
C542 C 0.98219 0.9541 0.37247 0.0
C543 C 0.95998 0.011 0.29189 0.0
C544 C 0.94072 0.01114 0.29728 0.0
C545 C 0.97576 0.00766 0.30415 0.0
C546 C 0.9725 0.00441 0.32197 0.0
C547 C 0.95333 0.00467 0.32736 0.0
C548 C 0.93764 0.00806 0.3152 0.0
C549 C 0.98886 0.00055 0.33515 0.0
C550 C 0.98737 0.98307 0.34366 0.0
C551 C 0.00546 0.01411 0.33977 0.0
C552 C 0.00765 0.03306 0.33161 0.0
C553 C 0.99319 0.0466 0.33297 0.0
C554 C 0.99536 0.06441 0.32521 0.0
C555 C 0.012 0.06891 0.31617 0.0
C556 C 0.02653 0.05562 0.31493 0.0
C557 C 0.02443 0.03778 0.32266 0.0
H558 H 0.01365 0.08271 0.31017 0.0
H559 H 0.99444 0.91025 0.38657 0.0
H560 H 0.25917 0.23652 0.68883 0.0
H561 H 0.26388 0.21588 0.66157 0.0
H562 H 0.26695 0.26716 0.63182 0.0
H563 H 0.26158 0.28777 0.65882 0.0
H564 H 0.24487 0.23745 0.61292 0.0
H565 H 0.30863 0.2463 0.64639 0.0
H566 H 0.33225 0.24514 0.67293 0.0
H567 H 0.31943 0.18275 0.67155 0.0
H568 H 0.29552 0.18358 0.64513 0.0
H569 H 0.2922 0.20348 0.53737 0.0
H570 H 0.28388 0.22072 0.56516 0.0
H571 H 0.28027 0.16607 0.58993 0.0
H572 H 0.28877 0.14866 0.56216 0.0
H573 H 0.30104 0.19536 0.61184 0.0
H574 H 0.23868 0.18651 0.57688 0.0
H575 H 0.21544 0.18805 0.55016 0.0
H576 H 0.22594 0.25083 0.55411 0.0
H577 H 0.24947 0.24965 0.58073 0.0
C578 C 0.26063 0.24336 0.67643 0.0
C579 C 0.26013 0.2638 0.67601 0.0
C580 C 0.26349 0.23157 0.66091 0.0
C581 C 0.26602 0.24002 0.64471 0.0
C582 C 0.26511 0.26035 0.64418 0.0
C583 C 0.26223 0.27212 0.65967 0.0
C584 C 0.26983 0.22777 0.62832 0.0
C585 C 0.25726 0.22839 0.61263 0.0
C586 C 0.28571 0.21557 0.62807 0.0
C587 C 0.30013 0.21504 0.64391 0.0
C588 C 0.31073 0.23236 0.65184 0.0
C589 C 0.32419 0.23176 0.66684 0.0
C590 C 0.3273 0.21389 0.67395 0.0
C591 C 0.31699 0.19658 0.66604 0.0
C592 C 0.30349 0.19711 0.65105 0.0
C593 C 0.28961 0.19508 0.5487 0.0
C594 C 0.29111 0.17467 0.54753 0.0
C595 C 0.28476 0.20496 0.56456 0.0
C596 C 0.28123 0.19464 0.57954 0.0
C597 C 0.28287 0.17429 0.57849 0.0
C598 C 0.28769 0.16437 0.5626 0.0
C599 C 0.27621 0.20523 0.59639 0.0
C600 C 0.28856 0.2043 0.61216 0.0
C601 C 0.26016 0.2172 0.5967 0.0
C602 C 0.24598 0.21797 0.58072 0.0
C603 C 0.23616 0.20063 0.57197 0.0
C604 C 0.22291 0.20145 0.55686 0.0
C605 C 0.21925 0.21952 0.55042 0.0
C606 C 0.22881 0.23684 0.55911 0.0
C607 C 0.24208 0.23611 0.57422 0.0
H608 H 0.20899 0.22012 0.53871 0.0
H609 H 0.33773 0.21346 0.68557 0.0
H610 H 0.53174 0.49393 0.57965 0.0
H611 H 0.51229 0.49176 0.60544 0.0
H612 H 0.51667 0.55494 0.61434 0.0
H613 H 0.53687 0.55721 0.58901 0.0
H614 H 0.52223 0.53937 0.64535 0.0
H615 H 0.47392 0.52878 0.59485 0.0
H616 H 0.45873 0.51327 0.5657 0.0
H617 H 0.45308 0.45751 0.58787 0.0
H618 H 0.4685 0.47264 0.61711 0.0
H619 H 0.44642 0.54456 0.70537 0.0
H620 H 0.46547 0.5478 0.67934 0.0
H621 H 0.46541 0.4848 0.67124 0.0
H622 H 0.44632 0.48141 0.69717 0.0
H623 H 0.4572 0.50102 0.63972 0.0
H624 H 0.50606 0.51197 0.69021 0.0
H625 H 0.52102 0.52786 0.7193 0.0
H626 H 0.52515 0.58359 0.69695 0.0
H627 H 0.50995 0.56807 0.66777 0.0
C628 C 0.52875 0.50739 0.58717 0.0
C629 C 0.53588 0.52576 0.58217 0.0
C630 C 0.51741 0.50612 0.60183 0.0
C631 C 0.51273 0.5232 0.61173 0.0
C632 C 0.51998 0.54155 0.60689 0.0
C633 C 0.53138 0.54283 0.59227 0.0
C634 C 0.50045 0.52189 0.62722 0.0
C635 C 0.50788 0.53122 0.64403 0.0
C636 C 0.48187 0.51096 0.62567 0.0
C637 C 0.47254 0.50182 0.60812 0.0
C638 C 0.46958 0.51318 0.59347 0.0
C639 C 0.4609 0.50446 0.57694 0.0
C640 C 0.45499 0.48441 0.57492 0.0
C641 C 0.45769 0.47304 0.58945 0.0
C642 C 0.46638 0.48168 0.60601 0.0
C643 C 0.45042 0.53138 0.69804 0.0
C644 C 0.44487 0.51272 0.70342 0.0
C645 C 0.46139 0.53327 0.68319 0.0
C646 C 0.46705 0.51654 0.67341 0.0
C647 C 0.46124 0.49791 0.67858 0.0
C648 C 0.45037 0.49601 0.69346 0.0
C649 C 0.47902 0.51843 0.65781 0.0
C650 C 0.47153 0.50921 0.641 0.0
C651 C 0.49749 0.52953 0.65935 0.0
C652 C 0.50667 0.53889 0.67686 0.0
C653 C 0.51 0.52764 0.69154 0.0
C654 C 0.51856 0.53658 0.70804 0.0
C655 C 0.52398 0.55673 0.70999 0.0
C656 C 0.52091 0.56799 0.69542 0.0
C657 C 0.51234 0.55912 0.6789 0.0
H658 H 0.53061 0.56362 0.72277 0.0
H659 H 0.44828 0.47768 0.56211 0.0
H660 H 0.7789 0.27794 0.69861 0.0
H661 H 0.7741 0.29642 0.67201 0.0
H662 H 0.76655 0.24211 0.63808 0.0
H663 H 0.77084 0.2236 0.66453 0.0
H664 H 0.79619 0.27319 0.62917 0.0
H665 H 0.72803 0.26236 0.64284 0.0
H666 H 0.70102 0.26463 0.66264 0.0
H667 H 0.71125 0.32746 0.66844 0.0
H668 H 0.73854 0.32553 0.64888 0.0
H669 H 0.77072 0.29915 0.54406 0.0
H670 H 0.7689 0.28368 0.5721 0.0
H671 H 0.75744 0.33909 0.59928 0.0
H672 H 0.75822 0.35443 0.57074 0.0
H673 H 0.73826 0.31035 0.61361 0.0
H674 H 0.80459 0.32324 0.60057 0.0
H675 H 0.83317 0.32334 0.58247 0.0
H676 H 0.82925 0.26031 0.57802 0.0
H677 H 0.80045 0.25981 0.59589 0.0
C678 C 0.77606 0.26999 0.68546 0.0
C679 C 0.77517 0.24938 0.68361 0.0
C680 C 0.77327 0.28053 0.67034 0.0
C681 C 0.76989 0.27058 0.65315 0.0
C682 C 0.76906 0.25001 0.65127 0.0
C683 C 0.77148 0.23947 0.66639 0.0
C684 C 0.76815 0.28157 0.63697 0.0
C685 C 0.78344 0.28114 0.62563 0.0
C686 C 0.75191 0.29264 0.63288 0.0
C687 C 0.73548 0.29378 0.64458 0.0
C688 C 0.72466 0.27665 0.64849 0.0
C689 C 0.70926 0.27788 0.65963 0.0
C690 C 0.70446 0.29618 0.66684 0.0
C691 C 0.71501 0.31329 0.66288 0.0
C692 C 0.73043 0.31214 0.65175 0.0
C693 C 0.7674 0.30793 0.55594 0.0
C694 C 0.76477 0.32798 0.55534 0.0
C695 C 0.76651 0.29912 0.57199 0.0
C696 C 0.76371 0.31035 0.58795 0.0
C697 C 0.75982 0.33016 0.58717 0.0
C698 C 0.76023 0.33891 0.57091 0.0
C699 C 0.7661 0.30152 0.60542 0.0
C700 C 0.75106 0.30247 0.61711 0.0
C701 C 0.78285 0.29129 0.61012 0.0
C702 C 0.80026 0.29149 0.59945 0.0
C703 C 0.80974 0.30939 0.59563 0.0
C704 C 0.82599 0.30952 0.58543 0.0
C705 C 0.833 0.29184 0.57907 0.0
C706 C 0.82379 0.27399 0.58295 0.0
C707 C 0.80752 0.27378 0.59313 0.0
H708 H 0.84558 0.29198 0.57117 0.0
H709 H 0.69253 0.2971 0.67546 0.0
H710 H 0.47211 0.93019 0.59581 0.0
H711 H 0.49431 0.93184 0.6233 0.0
H712 H 0.51703 0.99005 0.61362 0.0
H713 H 0.49505 0.98837 0.58591 0.0
H714 H 0.54648 0.96634 0.62355 0.0
H715 H 0.48608 0.98577 0.64459 0.0
H716 H 0.45029 0.98325 0.64758 0.0
H717 H 0.45496 0.9286 0.67126 0.0
H718 H 0.49075 0.93064 0.66816 0.0
H719 H 0.59613 0.9835 0.71231 0.0
H720 H 0.57543 0.98652 0.68456 0.0
H721 H 0.5457 0.92966 0.68909 0.0
H722 H 0.56603 0.92661 0.71682 0.0
H723 H 0.51988 0.95637 0.68206 0.0
H724 H 0.57999 0.93603 0.65903 0.0
H725 H 0.61572 0.93853 0.65573 0.0
H726 H 0.61156 0.99523 0.63583 0.0
H727 H 0.57582 0.99318 0.63923 0.0
C728 C 0.48192 0.94329 0.5995 0.0
C729 C 0.48182 0.95918 0.58879 0.0
C730 C 0.49447 0.94427 0.61524 0.0
C731 C 0.50714 0.96115 0.62054 0.0
C732 C 0.50729 0.97694 0.60976 0.0
C733 C 0.49465 0.97601 0.59405 0.0
C734 C 0.52022 0.96219 0.63735 0.0
C735 C 0.54069 0.9645 0.63642 0.0
C736 C 0.5126 0.95953 0.65404 0.0
C737 C 0.49108 0.95828 0.656 0.0
C738 C 0.47945 0.97313 0.6503 0.0
C739 C 0.45917 0.97181 0.65204 0.0
C740 C 0.45035 0.95576 0.65957 0.0
C741 C 0.46181 0.94102 0.66541 0.0
C742 C 0.4821 0.94226 0.66369 0.0
C743 C 0.58524 0.97158 0.70733 0.0
C744 C 0.5827 0.9548 0.71679 0.0
C745 C 0.57348 0.97334 0.69147 0.0
C746 C 0.5591 0.95828 0.68476 0.0
C747 C 0.55668 0.94148 0.69408 0.0
C748 C 0.56836 0.93972 0.70992 0.0
C749 C 0.54618 0.96006 0.66823 0.0
C750 C 0.52569 0.95837 0.66923 0.0
C751 C 0.55381 0.96331 0.65164 0.0
C752 C 0.57528 0.96455 0.64958 0.0
C753 C 0.58673 0.9491 0.6541 0.0
C754 C 0.60697 0.95042 0.65218 0.0
C755 C 0.61592 0.96705 0.64563 0.0
C756 C 0.60462 0.98238 0.64093 0.0
C757 C 0.58437 0.98114 0.64284 0.0
H758 H 0.6316 0.96805 0.64415 0.0
H759 H 0.43464 0.95476 0.6609 0.0
H760 H 0.81974 0.23061 0.75111 0.0
H761 H 0.85199 0.23518 0.76826 0.0
H762 H 0.85588 0.17252 0.76482 0.0
H763 H 0.82384 0.16776 0.74721 0.0
H764 H 0.86754 0.19117 0.79946 0.0
H765 H 0.88151 0.19717 0.73854 0.0
H766 H 0.87748 0.20965 0.70863 0.0
H767 H 0.89346 0.26843 0.7321 0.0
H768 H 0.8973 0.25635 0.7622 0.0
H769 H 0.97081 0.20757 0.83332 0.0
H770 H 0.93977 0.19491 0.81581 0.0
H771 H 0.92685 0.25416 0.80653 0.0
H772 H 0.95759 0.2667 0.82341 0.0
H773 H 0.92127 0.23191 0.77631 0.0
H774 H 0.9036 0.22688 0.83722 0.0
H775 H 0.90685 0.21514 0.86748 0.0
H776 H 0.89755 0.15543 0.84448 0.0
H777 H 0.89448 0.16683 0.81405 0.0
C778 C 0.82749 0.21778 0.75384 0.0
C779 C 0.81919 0.19882 0.74767 0.0
C780 C 0.84588 0.22042 0.76374 0.0
C781 C 0.85636 0.20418 0.76769 0.0
C782 C 0.84799 0.18522 0.76195 0.0
C783 C 0.82963 0.18256 0.75193 0.0
C784 C 0.87628 0.20719 0.77746 0.0
C785 C 0.87944 0.1998 0.7943 0.0
C786 C 0.89169 0.21855 0.77076 0.0
C787 C 0.88955 0.22586 0.75265 0.0
C788 C 0.88403 0.21278 0.73734 0.0
C789 C 0.8818 0.21978 0.72035 0.0
C790 C 0.88518 0.23982 0.71847 0.0
C791 C 0.89084 0.25291 0.73358 0.0
C792 C 0.89307 0.24599 0.75061 0.0
C793 C 0.96126 0.21783 0.82759 0.0
C794 C 0.96676 0.23812 0.82963 0.0
C795 C 0.94352 0.21061 0.81763 0.0
C796 C 0.93098 0.2236 0.80981 0.0
C797 C 0.93634 0.24382 0.81224 0.0
C798 C 0.95398 0.25097 0.82196 0.0
C799 C 0.9124 0.21657 0.79868 0.0
C800 C 0.90951 0.22309 0.78145 0.0
C801 C 0.89725 0.20454 0.80511 0.0
C802 C 0.89906 0.1977 0.82337 0.0
C803 C 0.90241 0.21125 0.83862 0.0
C804 C 0.90419 0.20465 0.8558 0.0
C805 C 0.90248 0.18455 0.8579 0.0
C806 C 0.89892 0.171 0.84283 0.0
C807 C 0.89715 0.17751 0.82562 0.0
H808 H 0.90385 0.17947 0.87121 0.0
H809 H 0.88344 0.24521 0.7053 0.0
H810 H 0.46019 0.90954 0.49921 0.0
H811 H 0.46951 0.88563 0.47617 0.0
H812 H 0.47609 0.84331 0.51543 0.0
H813 H 0.46714 0.86747 0.53872 0.0
H814 H 0.50636 0.84378 0.49534 0.0
H815 H 0.43653 0.83856 0.48378 0.0
H816 H 0.40334 0.85015 0.47849 0.0
H817 H 0.42001 0.87481 0.43057 0.0
H818 H 0.45341 0.86361 0.43571 0.0
H819 H 0.51416 0.76776 0.42355 0.0
H820 H 0.50383 0.78661 0.44993 0.0
H821 H 0.50004 0.83743 0.41982 0.0
H822 H 0.51033 0.81893 0.39361 0.0
H823 H 0.4664 0.82867 0.43692 0.0
H824 H 0.53735 0.83585 0.45065 0.0
H825 H 0.57022 0.82363 0.45627 0.0
H826 H 0.55041 0.79383 0.50051 0.0
H827 H 0.51732 0.80567 0.49499 0.0
C828 C 0.46348 0.89511 0.50293 0.0
C829 C 0.46286 0.89029 0.52074 0.0
C830 C 0.46874 0.88141 0.48973 0.0
C831 C 0.47325 0.86257 0.49402 0.0
C832 C 0.47262 0.85773 0.51181 0.0
C833 C 0.46743 0.87148 0.52505 0.0
C834 C 0.47918 0.84822 0.47997 0.0
C835 C 0.49744 0.84018 0.48269 0.0
C836 C 0.46763 0.84363 0.4634 0.0
C837 C 0.44753 0.85036 0.46021 0.0
C838 C 0.43317 0.84658 0.47219 0.0
C839 C 0.41431 0.85306 0.4692 0.0
C840 C 0.40959 0.86324 0.45422 0.0
C841 C 0.4237 0.86693 0.44217 0.0
C842 C 0.44259 0.86049 0.4451 0.0
C843 C 0.51133 0.78301 0.42263 0.0
C844 C 0.51301 0.7918 0.40644 0.0
C845 C 0.50544 0.79374 0.4377 0.0
C846 C 0.50111 0.81338 0.43677 0.0
C847 C 0.5032 0.82226 0.42077 0.0
C848 C 0.50918 0.81165 0.40581 0.0
C849 C 0.49376 0.82471 0.45215 0.0
C850 C 0.47518 0.83211 0.44966 0.0
C851 C 0.50493 0.82855 0.46895 0.0
C852 C 0.5248 0.82143 0.47226 0.0
C853 C 0.53995 0.82653 0.46146 0.0
C854 C 0.55863 0.81971 0.46466 0.0
C855 C 0.56238 0.8079 0.4787 0.0
C856 C 0.54747 0.80294 0.48961 0.0
C857 C 0.52876 0.80971 0.48646 0.0
H858 H 0.57686 0.80264 0.48115 0.0
H859 H 0.39498 0.86825 0.45193 0.0
H860 H 0.19007 0.27289 0.73792 0.0
H861 H 0.16195 0.26717 0.75561 0.0
H862 H 0.20088 0.27476 0.80434 0.0
H863 H 0.22917 0.28098 0.78669 0.0
H864 H 0.16896 0.23997 0.79955 0.0
H865 H 0.1795 0.3105 0.79952 0.0
H866 H 0.18502 0.3413 0.78514 0.0
H867 H 0.13021 0.32848 0.75248 0.0
H868 H 0.12451 0.29743 0.76649 0.0
H869 H 0.08841 0.2491 0.85589 0.0
H870 H 0.1201 0.25096 0.84247 0.0
H871 H 0.09062 0.26691 0.79318 0.0
H872 H 0.05943 0.26604 0.8068 0.0
H873 H 0.12065 0.29067 0.80122 0.0
H874 H 0.10988 0.22017 0.79907 0.0
H875 H 0.10382 0.18828 0.81152 0.0
H876 H 0.15757 0.19927 0.846 0.0
H877 H 0.16383 0.23135 0.8339 0.0
C878 C 0.19269 0.2732 0.75238 0.0
C879 C 0.21179 0.27738 0.76098 0.0
C880 C 0.17662 0.26992 0.76245 0.0
C881 C 0.1794 0.27051 0.78124 0.0
C882 C 0.1985 0.27415 0.78984 0.0
C883 C 0.21457 0.27778 0.77978 0.0
C884 C 0.1621 0.26842 0.7918 0.0
C885 C 0.15848 0.25112 0.80021 0.0
C886 C 0.14836 0.28284 0.79228 0.0
C887 C 0.15168 0.30156 0.78393 0.0
C888 C 0.16872 0.31416 0.78916 0.0
C889 C 0.17186 0.33168 0.7811 0.0
C890 C 0.158 0.33682 0.76787 0.0
C891 C 0.14094 0.32447 0.76271 0.0
C892 C 0.13774 0.30692 0.77072 0.0
C893 C 0.08876 0.25272 0.84212 0.0
C894 C 0.07155 0.25755 0.8324 0.0
C895 C 0.10684 0.25374 0.83443 0.0
C896 C 0.10782 0.25908 0.81676 0.0
C897 C 0.09037 0.26298 0.80687 0.0
C898 C 0.07252 0.26241 0.81465 0.0
C899 C 0.12695 0.26185 0.80869 0.0
C900 C 0.13105 0.27943 0.80076 0.0
C901 C 0.14094 0.24752 0.80846 0.0
C902 C 0.1372 0.22825 0.81573 0.0
C903 C 0.12032 0.21585 0.80941 0.0
C904 C 0.11687 0.19773 0.81638 0.0
C905 C 0.13027 0.19178 0.82958 0.0
C906 C 0.14719 0.20392 0.8358 0.0
C907 C 0.1507 0.22206 0.82888 0.0
H908 H 0.12757 0.17774 0.83496 0.0
H909 H 0.16046 0.35039 0.76164 0.0
H910 H 0.59533 0.58776 0.50118 0.0
H911 H 0.58912 0.61265 0.4802 0.0
H912 H 0.52674 0.60443 0.48582 0.0
H913 H 0.5329 0.5795 0.50694 0.0
H914 H 0.53559 0.60582 0.44998 0.0
H915 H 0.5515 0.64395 0.50642 0.0
H916 H 0.57136 0.65467 0.53494 0.0
H917 H 0.62038 0.67247 0.50594 0.0
H918 H 0.60089 0.66159 0.47723 0.0
H919 H 0.51287 0.69046 0.40477 0.0
H920 H 0.51562 0.66534 0.42605 0.0
H921 H 0.57902 0.67576 0.43037 0.0
H922 H 0.57633 0.70128 0.4096 0.0
H923 H 0.56754 0.67344 0.46219 0.0
H924 H 0.55309 0.63403 0.40604 0.0
H925 H 0.53414 0.62272 0.37718 0.0
H926 H 0.48359 0.60675 0.40496 0.0
H927 H 0.50217 0.6182 0.43398 0.0
C928 C 0.58029 0.5913 0.49797 0.0
C929 C 0.56464 0.5818 0.50577 0.0
C930 C 0.57677 0.60554 0.48602 0.0
C931 C 0.55748 0.61053 0.48156 0.0
C932 C 0.54174 0.60084 0.48911 0.0
C933 C 0.54529 0.58666 0.50122 0.0
C934 C 0.55392 0.62588 0.469 0.0
C935 C 0.5423 0.62071 0.45275 0.0
C936 C 0.56305 0.64517 0.47243 0.0
C937 C 0.57478 0.65179 0.48968 0.0
C938 C 0.56657 0.65 0.50612 0.0
C939 C 0.57775 0.65614 0.52232 0.0
C940 C 0.59713 0.66421 0.52225 0.0
C941 C 0.60536 0.6662 0.50597 0.0
C942 C 0.59425 0.66007 0.48973 0.0
C943 C 0.5274 0.68731 0.41017 0.0
C944 C 0.54438 0.69788 0.40546 0.0
C945 C 0.52896 0.67286 0.4223 0.0
C946 C 0.54755 0.66844 0.42974 0.0
C947 C 0.56451 0.67888 0.42489 0.0
C948 C 0.56294 0.69345 0.41294 0.0
C949 C 0.54944 0.65337 0.44293 0.0
C950 C 0.56073 0.6586 0.45937 0.0
C951 C 0.54014 0.63409 0.43958 0.0
C952 C 0.52896 0.62717 0.42216 0.0
C953 C 0.53789 0.62824 0.40598 0.0
C954 C 0.52722 0.62178 0.3896 0.0
C955 C 0.50766 0.61407 0.38923 0.0
C956 C 0.49873 0.61276 0.40526 0.0
C957 C 0.50933 0.61922 0.42168 0.0
H958 H 0.49942 0.60908 0.37654 0.0
H959 H 0.60576 0.66895 0.53481 0.0
H960 H 0.86848 0.7976 0.75354 0.0
H961 H 0.88953 0.79045 0.72958 0.0
H962 H 0.93468 0.77444 0.76821 0.0
H963 H 0.91355 0.78186 0.79252 0.0
H964 H 0.9497 0.79883 0.74517 0.0
H965 H 0.90968 0.73902 0.73979 0.0
H966 H 0.87912 0.71721 0.73803 0.0
H967 H 0.85825 0.7408 0.68929 0.0
H968 H 0.88855 0.76298 0.69088 0.0
H969 H 0.00099 0.7747 0.66672 0.0
H970 H 0.98585 0.77167 0.695 0.0
H971 H 0.93125 0.78946 0.6706 0.0
H972 H 0.94606 0.79231 0.64239 0.0
H973 H 0.92522 0.7576 0.68927 0.0
H974 H 0.96301 0.82141 0.69866 0.0
H975 H 0.99376 0.84304 0.70064 0.0
H976 H 0.01917 0.81062 0.7422 0.0
H977 H 0.98863 0.78866 0.74032 0.0
C978 C 0.88283 0.79248 0.757 0.0
C979 C 0.88944 0.79035 0.77492 0.0
C980 C 0.8948 0.78824 0.74324 0.0
C981 C 0.91357 0.78166 0.74708 0.0
C982 C 0.9202 0.77941 0.76497 0.0
C983 C 0.90815 0.78362 0.77879 0.0
C984 C 0.92643 0.77825 0.73234 0.0
C985 C 0.94458 0.78944 0.7331 0.0
C986 C 0.91969 0.76608 0.71657 0.0
C987 C 0.90139 0.75275 0.71552 0.0
C988 C 0.89852 0.73967 0.72876 0.0
C989 C 0.88125 0.72722 0.72778 0.0
C990 C 0.86674 0.72763 0.71357 0.0
C991 C 0.8695 0.74049 0.70029 0.0
C992 C 0.88674 0.75298 0.70121 0.0
C993 C 0.98578 0.77804 0.66741 0.0
C994 C 0.97474 0.78379 0.6523 0.0
C995 C 0.97717 0.77629 0.68358 0.0
C996 C 0.95744 0.78036 0.68489 0.0
C997 C 0.94646 0.78614 0.66984 0.0
C998 C 0.955 0.78786 0.65374 0.0
C999 C 0.94798 0.77884 0.70185 0.0
C1000 C 0.93051 0.76664 0.7015 0.0
C1001 C 0.95539 0.78999 0.718 0.0
C1002 C 0.97365 0.80327 0.7192 0.0
C1003 C 0.97522 0.81882 0.70813 0.0
C1004 C 0.99259 0.83115 0.70925 0.0
C1005 C 0.00843 0.82816 0.7215 0.0
C1006 C 0.00691 0.81289 0.7327 0.0
C1007 C 0.98957 0.80051 0.73162 0.0
H1008 H 0.02187 0.83772 0.72234 0.0
H1009 H 0.85338 0.71798 0.71284 0.0
H1010 H 0.05455 0.94284 0.48544 0.0
H1011 H 0.04469 0.92202 0.50862 0.0
H1012 H 0.10583 0.91781 0.52657 0.0
H1013 H 0.11582 0.93863 0.50323 0.0
H1014 H 0.08486 0.88215 0.52292 0.0
H1015 H 0.07839 0.94569 0.55163 0.0
H1016 H 0.06762 0.97928 0.55439 0.0
H1017 H 0.00702 0.95625 0.54747 0.0
H1018 H 0.01742 0.9225 0.54441 0.0
H1019 H 0.05516 0.82905 0.59514 0.0
H1020 H 0.07112 0.85526 0.57979 0.0
H1021 H 0.01427 0.86888 0.55661 0.0
H1022 H 0.99824 0.84312 0.57209 0.0
H1023 H 0.03729 0.90174 0.56639 0.0
H1024 H 0.04372 0.83905 0.53339 0.0
H1025 H 0.05399 0.80528 0.52989 0.0
H1026 H 0.11433 0.82681 0.54437 0.0
H1027 H 0.10436 0.86071 0.54817 0.0
C1028 C 0.0659 0.93753 0.49433 0.0
C1029 C 0.08598 0.9423 0.49255 0.0
C1030 C 0.06024 0.92573 0.50765 0.0
C1031 C 0.07453 0.91856 0.51945 0.0
C1032 C 0.09459 0.92325 0.51764 0.0
C1033 C 0.10026 0.93513 0.50435 0.0
C1034 C 0.06841 0.90559 0.53322 0.0
C1035 C 0.07478 0.88656 0.53269 0.0
C1036 C 0.05504 0.91128 0.54576 0.0
C1037 C 0.0487 0.93156 0.54766 0.0
C1038 C 0.06277 0.94778 0.55056 0.0
C1039 C 0.05673 0.96686 0.5522 0.0
C1040 C 0.03665 0.9699 0.55107 0.0
C1041 C 0.02257 0.95387 0.54834 0.0
C1042 C 0.02853 0.93476 0.54667 0.0
C1043 C 0.04605 0.8378 0.58696 0.0
C1044 C 0.02543 0.83385 0.58471 0.0
C1045 C 0.0552 0.85272 0.57815 0.0
C1046 C 0.0439 0.86382 0.56684 0.0
C1047 C 0.02329 0.86049 0.56524 0.0
C1048 C 0.01415 0.84567 0.57407 0.0
C1049 C 0.05338 0.87817 0.55579 0.0
C1050 C 0.04764 0.89745 0.55683 0.0
C1051 C 0.06727 0.8727 0.54365 0.0
C1052 C 0.07327 0.85236 0.54127 0.0
C1053 C 0.05916 0.83656 0.53595 0.0
C1054 C 0.06492 0.8174 0.53389 0.0
C1055 C 0.08479 0.81389 0.53696 0.0
C1056 C 0.09894 0.82955 0.54204 0.0
C1057 C 0.09324 0.84873 0.54414 0.0
H1058 H 0.08923 0.79905 0.53536 0.0
H1059 H 0.03201 0.98468 0.55235 0.0
H1060 H 0.18288 0.74007 0.75819 0.0
H1061 H 0.15346 0.74382 0.73832 0.0
H1062 H 0.18595 0.73204 0.69215 0.0
H1063 H 0.21542 0.72788 0.71205 0.0
H1064 H 0.14551 0.76882 0.71446 0.0
H1065 H 0.15496 0.70804 0.6581 0.0
H1066 H 0.16934 0.67609 0.65456 0.0
H1067 H 0.16209 0.6674 0.70977 0.0
H1068 H 0.14743 0.69915 0.71358 0.0
H1069 H 0.08086 0.78109 0.63836 0.0
H1070 H 0.11039 0.77558 0.65745 0.0
H1071 H 0.0815 0.72217 0.67271 0.0
H1072 H 0.05198 0.72743 0.6535 0.0
H1073 H 0.11912 0.71714 0.66665 0.0
H1074 H 0.08458 0.76333 0.70065 0.0
H1075 H 0.0678 0.79359 0.70646 0.0
H1076 H 0.12122 0.82847 0.70011 0.0
H1077 H 0.13824 0.79838 0.69402 0.0
C1078 C 0.18379 0.73829 0.74381 0.0
C1079 C 0.20145 0.73366 0.73662 0.0
C1080 C 0.16696 0.74048 0.73246 0.0
C1081 C 0.16743 0.73805 0.71374 0.0
C1082 C 0.18514 0.73368 0.70655 0.0
C1083 C 0.20198 0.73141 0.7179 0.0
C1084 C 0.14939 0.74017 0.7018 0.0
C1085 C 0.13979 0.75753 0.70398 0.0
C1086 C 0.14166 0.72529 0.68835 0.0
C1087 C 0.1503 0.70608 0.68616 0.0
C1088 C 0.15638 0.69928 0.66947 0.0
C1089 C 0.16459 0.68121 0.66741 0.0
C1090 C 0.1667 0.66975 0.68195 0.0
C1091 C 0.16053 0.67632 0.69855 0.0
C1092 C 0.1523 0.69436 0.70067 0.0
C1093 C 0.08081 0.76811 0.64569 0.0
C1094 C 0.06401 0.75476 0.64449 0.0
C1095 C 0.09768 0.76501 0.65663 0.0
C1096 C 0.09805 0.74859 0.66666 0.0
C1097 C 0.08152 0.73495 0.6651 0.0
C1098 C 0.06463 0.73803 0.65415 0.0
C1099 C 0.11548 0.7459 0.67914 0.0
C1100 C 0.12494 0.72845 0.67707 0.0
C1101 C 0.12279 0.76048 0.693 0.0
C1102 C 0.11263 0.77861 0.6967 0.0
C1103 C 0.0927 0.77745 0.70036 0.0
C1104 C 0.08316 0.79457 0.70373 0.0
C1105 C 0.09342 0.81294 0.70361 0.0
C1106 C 0.11328 0.81423 0.70017 0.0
C1107 C 0.12289 0.79715 0.69677 0.0
H1108 H 0.08601 0.82618 0.70623 0.0
H1109 H 0.17306 0.65577 0.68033 0.0
H1110 H 0.93774 0.59631 0.4859 0.0
H1111 H 0.94725 0.6277 0.50351 0.0
H1112 H 0.00832 0.61485 0.50571 0.0
H1113 H 0.99888 0.58337 0.48803 0.0
H1114 H 0.99526 0.6289 0.53937 0.0
H1115 H 0.99555 0.64639 0.47889 0.0
H1116 H 0.98208 0.64745 0.44749 0.0
H1117 H 0.93342 0.67787 0.46532 0.0
H1118 H 0.94644 0.67673 0.49686 0.0
H1119 H 0.026 0.7262 0.57812 0.0
H1120 H 0.02335 0.69537 0.55886 0.0
H1121 H 0.96233 0.70339 0.54334 0.0
H1122 H 0.96501 0.73434 0.56204 0.0
H1123 H 0.97972 0.69177 0.51506 0.0
H1124 H 0.97681 0.67138 0.57505 0.0
H1125 H 0.98892 0.66965 0.60675 0.0
H1126 H 0.04097 0.64423 0.59029 0.0
H1127 H 0.02927 0.64604 0.55848 0.0
C1128 C 0.95318 0.60016 0.49021 0.0
C1129 C 0.96759 0.58749 0.48561 0.0
C1130 C 0.95859 0.61809 0.50016 0.0
C1131 C 0.97849 0.62358 0.50576 0.0
C1132 C 0.99291 0.61085 0.50143 0.0
C1133 C 0.98752 0.59298 0.49129 0.0
C1134 C 0.98406 0.64264 0.51622 0.0
C1135 C 0.99223 0.64271 0.534 0.0
C1136 C 0.97974 0.66053 0.50922 0.0
C1137 C 0.9719 0.66133 0.49025 0.0
C1138 C 0.98189 0.65316 0.47613 0.0
C1139 C 0.97435 0.65381 0.4583 0.0
C1140 C 0.95688 0.66269 0.45441 0.0
C1141 C 0.94694 0.67099 0.46835 0.0
C1142 C 0.95441 0.67036 0.48621 0.0
C1143 C 0.01204 0.72138 0.57058 0.0
C1144 C 0.99571 0.73271 0.57163 0.0
C1145 C 0.01052 0.70374 0.55964 0.0
C1146 C 0.99258 0.69698 0.54979 0.0
C1147 C 0.97634 0.70834 0.55076 0.0
C1148 C 0.97789 0.72602 0.56152 0.0
C1149 C 0.99048 0.67808 0.53845 0.0
C1150 C 0.98299 0.67802 0.52043 0.0
C1151 C 0.99526 0.66019 0.54531 0.0
C1152 C 0.00228 0.65906 0.56441 0.0
C1153 C 0.99091 0.66557 0.5782 0.0
C1154 C 0.99769 0.66455 0.59618 0.0
C1155 C 0.01574 0.65689 0.60053 0.0
C1156 C 0.02702 0.65019 0.5869 0.0
C1157 C 0.02032 0.6512 0.5689 0.0
H1158 H 0.02096 0.65611 0.61446 0.0
H1159 H 0.95107 0.66317 0.4406 0.0
H1160 H 0.80777 0.80119 0.20847 0.0
H1161 H 0.82701 0.83284 0.20986 0.0
H1162 H 0.77912 0.86147 0.23215 0.0
H1163 H 0.7595 0.82997 0.23013 0.0
H1164 H 0.7928 0.88104 0.20587 0.0
H1165 H 0.82146 0.85334 0.25809 0.0
H1166 H 0.83767 0.82827 0.27451 0.0
H1167 H 0.88694 0.83349 0.2426 0.0
H1168 H 0.87089 0.85842 0.22583 0.0
H1169 H 0.83673 0.96964 0.24942 0.0
H1170 H 0.82082 0.93708 0.2401 0.0
H1171 H 0.87243 0.92132 0.21441 0.0
H1172 H 0.88857 0.95429 0.22371 0.0
H1173 H 0.85949 0.89431 0.23808 0.0
H1174 H 0.83199 0.92546 0.1885 0.0
H1175 H 0.81568 0.95122 0.17318 0.0
H1176 H 0.76402 0.9401 0.20099 0.0
H1177 H 0.78012 0.91445 0.21669 0.0
C1178 C 0.80132 0.81423 0.21366 0.0
C1179 C 0.78207 0.81305 0.21916 0.0
C1180 C 0.81241 0.8323 0.21457 0.0
C1181 C 0.80455 0.84954 0.22118 0.0
C1182 C 0.78548 0.84836 0.22698 0.0
C1183 C 0.77436 0.83031 0.22602 0.0
C1184 C 0.81597 0.8689 0.2217 0.0
C1185 C 0.80731 0.88398 0.21304 0.0
C1186 C 0.83521 0.87255 0.23049 0.0
C1187 C 0.84487 0.85757 0.24056 0.0
C1188 C 0.83567 0.84902 0.25447 0.0
C1189 C 0.84485 0.83486 0.26386 0.0
C1190 C 0.86329 0.82925 0.25956 0.0
C1191 C 0.87263 0.83783 0.24589 0.0
C1192 C 0.86351 0.85198 0.23645 0.0
C1193 C 0.84462 0.95938 0.24154 0.0
C1194 C 0.86392 0.96448 0.23733 0.0
C1195 C 0.83547 0.94078 0.23616 0.0
C1196 C 0.84541 0.92681 0.2265 0.0
C1197 C 0.86451 0.93196 0.22181 0.0
C1198 C 0.87364 0.95078 0.22702 0.0
C1199 C 0.8361 0.90652 0.22262 0.0
C1200 C 0.84512 0.89126 0.23065 0.0
C1201 C 0.81714 0.90272 0.21334 0.0
C1202 C 0.80733 0.91809 0.20386 0.0
C1203 C 0.81721 0.9286 0.19146 0.0
C1204 C 0.80799 0.94317 0.18268 0.0
C1205 C 0.78884 0.94731 0.18613 0.0
C1206 C 0.77885 0.93687 0.19833 0.0
C1207 C 0.78801 0.92229 0.20715 0.0
H1208 H 0.78173 0.9586 0.17932 0.0
H1209 H 0.87037 0.81829 0.26685 0.0
H1210 H 0.75633 0.17871 0.26203 0.0
H1211 H 0.77861 0.15299 0.25627 0.0
H1212 H 0.82755 0.19082 0.28246 0.0
H1213 H 0.80522 0.21677 0.28829 0.0
H1214 H 0.83544 0.16904 0.24879 0.0
H1215 H 0.81094 0.15855 0.30566 0.0
H1216 H 0.78532 0.15483 0.32676 0.0
H1217 H 0.75796 0.10445 0.2939 0.0
H1218 H 0.78325 0.10805 0.27244 0.0
H1219 H 0.8968 0.08746 0.25892 0.0
H1220 H 0.88001 0.11804 0.26098 0.0
H1221 H 0.82398 0.08471 0.24688 0.0
H1222 H 0.84066 0.05435 0.24556 0.0
H1223 H 0.82238 0.10655 0.27637 0.0
H1224 H 0.84587 0.11739 0.21879 0.0
H1225 H 0.87098 0.12119 0.19721 0.0
H1226 H 0.89994 0.17044 0.2306 0.0
H1227 H 0.87514 0.16677 0.25251 0.0
C1228 C 0.77187 0.18164 0.2664 0.0
C1229 C 0.77905 0.19974 0.27562 0.0
C1230 C 0.78456 0.16693 0.26315 0.0
C1231 C 0.80471 0.17001 0.26896 0.0
C1232 C 0.81206 0.1882 0.27783 0.0
C1233 C 0.79929 0.20291 0.28127 0.0
C1234 C 0.8177 0.15375 0.26649 0.0
C1235 C 0.83284 0.15544 0.25499 0.0
C1236 C 0.81407 0.13598 0.27442 0.0
C1237 C 0.7989 0.13368 0.28736 0.0
C1238 C 0.79937 0.14678 0.30286 0.0
C1239 C 0.78492 0.14467 0.31489 0.0
C1240 C 0.77 0.12944 0.31165 0.0
C1241 C 0.76952 0.11625 0.29638 0.0
C1242 C 0.78392 0.11831 0.28429 0.0
C1243 C 0.88099 0.08686 0.2557 0.0
C1244 C 0.86996 0.0687 0.25195 0.0
C1245 C 0.87138 0.10429 0.25692 0.0
C1246 C 0.85068 0.10371 0.25415 0.0
C1247 C 0.83992 0.08557 0.24922 0.0
C1248 C 0.84944 0.06824 0.2483 0.0
C1249 C 0.83986 0.12143 0.25812 0.0
C1250 C 0.82513 0.1201 0.27011 0.0
C1251 C 0.84388 0.13943 0.25056 0.0
C1252 C 0.85878 0.14166 0.23739 0.0
C1253 C 0.85769 0.12893 0.22161 0.0
C1254 C 0.87185 0.13108 0.2093 0.0
C1255 C 0.88708 0.14601 0.21256 0.0
C1256 C 0.88815 0.15886 0.22811 0.0
C1257 C 0.87404 0.15676 0.24047 0.0
H1258 H 0.89802 0.14765 0.20301 0.0
H1259 H 0.75883 0.12783 0.32099 0.0
H1260 H 0.42638 0.00885 0.95971 0.0
H1261 H 0.3989 0.98647 0.96591 0.0
H1262 H 0.36258 0.03508 0.97251 0.0
H1263 H 0.3902 0.05772 0.96623 0.0
H1264 H 0.35887 0.01094 0.99893 0.0
H1265 H 0.3538 0.00323 0.93544 0.0
H1266 H 0.36524 0.99861 0.90516 0.0
H1267 H 0.38409 0.94211 0.91644 0.0
H1268 H 0.37304 0.9465 0.9469 0.0
H1269 H 0.28154 0.93187 0.00439 0.0
H1270 H 0.29876 0.96149 0.99471 0.0
H1271 H 0.3512 0.93058 0.99005 0.0
H1272 H 0.33447 0.90134 -0.00023 0.0
H1273 H 0.33938 0.94995 0.95934 0.0
H1274 H 0.34951 0.9617 0.02477 0.0
H1275 H 0.33791 0.96686 0.05497 0.0
H1276 H 0.30803 0.01651 0.03892 0.0
H1277 H 0.31926 0.01147 0.00854 0.0
C1278 C 0.41247 0.01478 0.96218 0.0
C1279 C 0.41042 0.03504 0.96231 0.0
C1280 C 0.39676 0.00197 0.96575 0.0
C1281 C 0.37857 0.00906 0.96938 0.0
C1282 C 0.37646 0.02929 0.96966 0.0
C1283 C 0.39225 0.04219 0.96611 0.0
C1284 C 0.36217 0.99517 0.97343 0.0
C1285 C 0.35423 0.99784 0.99008 0.0
C1286 C 0.35608 0.97807 0.96188 0.0
C1287 C 0.36265 0.97525 0.94351 0.0
C1288 C 0.36049 0.98987 0.93151 0.0
C1289 C 0.3669 0.98728 0.91431 0.0
C1290 C 0.37541 0.97008 0.90889 0.0
C1291 C 0.37749 0.95542 0.92066 0.0
C1292 C 0.37112 0.95794 0.93789 0.0
C1293 C 0.29678 0.93148 0.00142 0.0
C1294 C 0.3066 0.91422 0.00284 0.0
C1295 C 0.30656 0.94837 0.99589 0.0
C1296 C 0.32619 0.94811 0.99157 0.0
C1297 C 0.33601 0.93101 0.9932 0.0
C1298 C 0.3264 0.91432 0.99886 0.0
C1299 C 0.33684 0.96537 0.98511 0.0
C1300 C 0.34363 0.96333 0.96795 0.0
C1301 C 0.34171 0.98306 0.99611 0.0
C1302 C 0.33498 0.98604 0.01434 0.0
C1303 C 0.3403 0.97359 0.02764 0.0
C1304 C 0.33383 0.97652 0.04479 0.0
C1305 C 0.32217 0.99195 0.04884 0.0
C1306 C 0.31701 0.00453 0.03575 0.0
C1307 C 0.32342 0.00165 0.01857 0.0
H1308 H 0.31719 0.9942 0.06213 0.0
H1309 H 0.38037 0.96811 0.89557 0.0
H1310 H 0.31674 0.37011 0.32183 0.0
H1311 H 0.29125 0.39142 0.31221 0.0
H1312 H 0.26346 0.34409 0.27512 0.0
H1313 H 0.2894 0.32315 0.28417 0.0
H1314 H 0.26154 0.37636 0.26001 0.0
H1315 H 0.2471 0.3561 0.31766 0.0
H1316 H 0.25396 0.35182 0.34986 0.0
H1317 H 0.26373 0.4143 0.36148 0.0
H1318 H 0.25718 0.41894 0.3293 0.0
H1319 H 0.16116 0.39976 0.2562 0.0
H1320 H 0.1925 0.38521 0.26201 0.0
H1321 H 0.21973 0.44151 0.28447 0.0
H1322 H 0.18848 0.45634 0.27839 0.0
H1323 H 0.22391 0.40833 0.30655 0.0
H1324 H 0.23351 0.42701 0.24726 0.0
H1325 H 0.2241 0.4288 0.21501 0.0
H1326 H 0.22018 0.36589 0.20656 0.0
H1327 H 0.22929 0.3637 0.23882 0.0
C1328 C 0.30521 0.36439 0.31155 0.0
C1329 C 0.30489 0.34505 0.30376 0.0
C1330 C 0.29065 0.3765 0.3061 0.0
C1331 C 0.27523 0.36925 0.29316 0.0
C1332 C 0.2752 0.35003 0.2851 0.0
C1333 C 0.28997 0.33807 0.29029 0.0
C1334 C 0.25871 0.38134 0.28842 0.0
C1335 C 0.25326 0.38324 0.2702 0.0
C1336 C 0.24804 0.39058 0.3017 0.0
C1337 C 0.25188 0.38785 0.32106 0.0
C1338 C 0.25085 0.36892 0.32707 0.0
C1339 C 0.25466 0.36643 0.34532 0.0
C1340 C 0.25934 0.38278 0.3577 0.0
C1341 C 0.26015 0.40165 0.35187 0.0
C1342 C 0.25638 0.40422 0.33363 0.0
C1343 C 0.17385 0.40909 0.26225 0.0
C1344 C 0.17238 0.42917 0.2669 0.0
C1345 C 0.19173 0.40077 0.26547 0.0
C1346 C 0.20835 0.41234 0.27358 0.0
C1347 C 0.20702 0.43242 0.27813 0.0
C1348 C 0.18921 0.44084 0.27462 0.0
C1349 C 0.22673 0.40309 0.27823 0.0
C1350 C 0.23244 0.40167 0.29642 0.0
C1351 C 0.23731 0.39392 0.26493 0.0
C1352 C 0.23193 0.39519 0.2455 0.0
C1353 C 0.23048 0.41355 0.23856 0.0
C1354 C 0.22523 0.41464 0.22027 0.0
C1355 C 0.22151 0.39747 0.20875 0.0
C1356 C 0.22306 0.37918 0.2155 0.0
C1357 C 0.22829 0.378 0.23378 0.0
H1358 H 0.21745 0.39835 0.1946 0.0
H1359 H 0.26228 0.38082 0.37182 0.0
H1360 H 0.11487 0.02494 0.47349 0.0
H1361 H 0.14354 0.04902 0.47851 0.0
H1362 H 0.15769 0.03527 0.42413 0.0
H1363 H 0.12918 0.01105 0.41908 0.0
H1364 H 0.19 0.03625 0.44939 0.0
H1365 H 0.13676 0.0763 0.4342 0.0
H1366 H 0.10434 0.08926 0.43747 0.0
H1367 H 0.1235 0.11219 0.49156 0.0
H1368 H 0.15596 0.09911 0.48869 0.0
H1369 H 0.26026 0.11269 0.43902 0.0
H1370 H 0.22952 0.09176 0.43523 0.0
H1371 H 0.21734 0.11041 0.48924 0.0
H1372 H 0.24806 0.13166 0.49313 0.0
H1373 H 0.18394 0.10703 0.46586 0.0
H1374 H 0.23663 0.06787 0.48178 0.0
H1375 H 0.2691 0.05462 0.47975 0.0
H1376 H 0.25107 0.0294 0.42612 0.0
H1377 H 0.21857 0.04275 0.42774 0.0
C1378 C 0.12417 0.02701 0.46265 0.0
C1379 C 0.11984 0.01616 0.44589 0.0
C1380 C 0.14042 0.04084 0.46549 0.0
C1381 C 0.15261 0.04399 0.45164 0.0
C1382 C 0.14841 0.03306 0.43496 0.0
C1383 C 0.13209 0.01934 0.43207 0.0
C1384 C 0.16995 0.05847 0.45459 0.0
C1385 C 0.18867 0.05176 0.45276 0.0
C1386 C 0.16819 0.07857 0.45959 0.0
C1387 C 0.14872 0.08655 0.46129 0.0
C1388 C 0.13401 0.08396 0.44684 0.0
C1389 C 0.11563 0.09135 0.44861 0.0
C1390 C 0.11184 0.10149 0.46473 0.0
C1391 C 0.12645 0.1043 0.47909 0.0
C1392 C 0.14484 0.09692 0.4774 0.0
C1393 C 0.25097 0.11254 0.45005 0.0
C1394 C 0.25673 0.12369 0.46645 0.0
C1395 C 0.23342 0.10052 0.44787 0.0
C1396 C 0.22137 0.09927 0.46208 0.0
C1397 C 0.22651 0.11111 0.47816 0.0
C1398 C 0.24408 0.12322 0.48035 0.0
C1399 C 0.20396 0.08484 0.46035 0.0
C1400 C 0.18526 0.09152 0.46249 0.0
C1401 C 0.20573 0.06463 0.45583 0.0
C1402 C 0.22522 0.05648 0.45482 0.0
C1403 C 0.23964 0.05963 0.4695 0.0
C1404 C 0.25804 0.05208 0.46844 0.0
C1405 C 0.26216 0.04122 0.4528 0.0
C1406 C 0.24786 0.03784 0.43822 0.0
C1407 C 0.22944 0.04538 0.4392 0.0
H1408 H 0.27641 0.03538 0.452 0.0
H1409 H 0.09761 0.10721 0.46608 0.0
H1410 H 0.77664 0.13928 0.7342 0.0
H1411 H 0.75345 0.11163 0.73866 0.0
H1412 H 0.70494 0.14812 0.73156 0.0
H1413 H 0.72813 0.17607 0.72774 0.0
H1414 H 0.70088 0.12662 0.75946 0.0
H1415 H 0.71457 0.11426 0.69816 0.0
H1416 H 0.7355 0.1099 0.67307 0.0
H1417 H 0.75977 0.0607 0.69634 0.0
H1418 H 0.73917 0.06494 0.72171 0.0
H1419 H 0.62559 0.04773 0.74911 0.0
H1420 H 0.6475 0.07619 0.74395 0.0
H1421 H 0.69792 0.04238 0.75201 0.0
H1422 H 0.67618 0.01383 0.75701 0.0
H1423 H 0.70009 0.06292 0.72285 0.0
H1424 H 0.68696 0.07598 0.78456 0.0
H1425 H 0.666 0.08045 0.80961 0.0
H1426 H 0.64049 0.12845 0.78533 0.0
H1427 H 0.66111 0.12408 0.75999 0.0
C1428 C 0.76105 0.14148 0.73373 0.0
C1429 C 0.75423 0.15989 0.73059 0.0
C1430 C 0.74779 0.1256 0.7361 0.0
C1431 C 0.72743 0.12774 0.73521 0.0
C1432 C 0.72058 0.14612 0.73222 0.0
C1433 C 0.73384 0.16203 0.72988 0.0
C1434 C 0.71333 0.11085 0.73765 0.0
C1435 C 0.70049 0.11278 0.75127 0.0
C1436 C 0.7131 0.09268 0.7272 0.0
C1437 C 0.72545 0.09003 0.71192 0.0
C1438 C 0.72448 0.10261 0.698 0.0
C1439 C 0.73626 0.10014 0.68372 0.0
C1440 C 0.74899 0.08506 0.68314 0.0
C1441 C 0.74992 0.07238 0.69682 0.0
C1442 C 0.73818 0.0748 0.71114 0.0
C1443 C 0.64135 0.04635 0.74982 0.0
C1444 C 0.64913 0.02851 0.75351 0.0
C1445 C 0.65385 0.06265 0.74692 0.0
C1446 C 0.67435 0.06144 0.74774 0.0
C1447 C 0.68214 0.04363 0.75132 0.0
C1448 C 0.66968 0.02735 0.75423 0.0
C1449 C 0.68774 0.07866 0.74473 0.0
C1450 C 0.70043 0.07679 0.73099 0.0
C1451 C 0.68781 0.09689 0.75505 0.0
C1452 C 0.67543 0.09956 0.77028 0.0
C1453 C 0.67676 0.08738 0.78448 0.0
C1454 C 0.66497 0.08992 0.79875 0.0
C1455 C 0.65188 0.10469 0.79904 0.0
C1456 C 0.65061 0.11699 0.78508 0.0
C1457 C 0.66236 0.1145 0.77076 0.0
H1458 H 0.64277 0.10664 0.8101 0.0
H1459 H 0.7581 0.08317 0.67207 0.0
H1460 H 0.44202 0.99072 0.52057 0.0
H1461 H 0.42522 0.0201 0.51431 0.0
H1462 H 0.4075 0.02483 0.5683 0.0
H1463 H 0.424 0.99522 0.57456 0.0
H1464 H 0.37735 0.03067 0.54306 0.0
H1465 H 0.4445 0.05478 0.5585 0.0
H1466 H 0.48052 0.05585 0.55707 0.0
H1467 H 0.4735 0.06729 0.50154 0.0
H1468 H 0.43739 0.066 0.50255 0.0
H1469 H 0.34203 0.12408 0.52873 0.0
H1470 H 0.36196 0.1002 0.54291 0.0
H1471 H 0.38668 0.08628 0.49273 0.0
H1472 H 0.36712 0.11006 0.47859 0.0
H1473 H 0.41434 0.08754 0.52094 0.0
H1474 H 0.34769 0.05864 0.50431 0.0
H1475 H 0.31152 0.0569 0.50489 0.0
H1476 H 0.31766 0.05407 0.56205 0.0
H1477 H 0.35391 0.05605 0.56183 0.0
C1478 C 0.43436 0.99789 0.53103 0.0
C1479 C 0.43437 0.99074 0.54806 0.0
C1480 C 0.42494 0.01477 0.52751 0.0
C1481 C 0.41539 0.02477 0.54094 0.0
C1482 C 0.41492 0.01738 0.55781 0.0
C1483 C 0.42442 0.00055 0.56138 0.0
C1484 C 0.40585 0.04293 0.53727 0.0
C1485 C 0.38549 0.04327 0.53857 0.0
C1486 C 0.41648 0.05925 0.53122 0.0
C1487 C 0.43821 0.06015 0.53057 0.0
C1488 C 0.45062 0.05738 0.54594 0.0
C1489 C 0.47106 0.05805 0.54521 0.0
C1490 C 0.4793 0.0616 0.52922 0.0
C1491 C 0.4671 0.06453 0.51392 0.0
C1492 C 0.44665 0.06385 0.51457 0.0
C1493 C 0.35199 0.11617 0.52084 0.0
C1494 C 0.35286 0.11879 0.5025 0.0
C1495 C 0.36328 0.1025 0.52892 0.0
C1496 C 0.37559 0.09132 0.51879 0.0
C1497 C 0.37726 0.09473 0.50078 0.0
C1498 C 0.36597 0.10827 0.4927 0.0
C1499 C 0.38578 0.07508 0.52634 0.0
C1500 C 0.40627 0.07508 0.52576 0.0
C1501 C 0.37526 0.05905 0.53296 0.0
C1502 C 0.35349 0.05774 0.53309 0.0
C1503 C 0.34132 0.0578 0.51702 0.0
C1504 C 0.32081 0.05674 0.51728 0.0
C1505 C 0.3123 0.05544 0.5335 0.0
C1506 C 0.32428 0.05513 0.5495 0.0
C1507 C 0.3448 0.05621 0.54932 0.0
H1508 H 0.29641 0.05463 0.53368 0.0
H1509 H 0.49513 0.06212 0.52868 0.0
H1510 H 0.5703 0.47502 0.55191 0.0
H1511 H 0.5945 0.4512 0.54604 0.0
H1512 H 0.6349 0.4974 0.53156 0.0
H1513 H 0.6109 0.52137 0.53763 0.0
H1514 H 0.63299 0.46528 0.50766 0.0
H1515 H 0.64182 0.47862 0.5718 0.0
H1516 H 0.63121 0.48157 0.60248 0.0
H1517 H 0.6109 0.42044 0.59712 0.0
H1518 H 0.62114 0.4172 0.56629 0.0
H1519 H 0.72025 0.41456 0.50974 0.0
H1520 H 0.69506 0.43752 0.51464 0.0
H1521 H 0.65689 0.39101 0.53176 0.0
H1522 H 0.6822 0.36802 0.52725 0.0
H1523 H 0.65707 0.42289 0.55403 0.0
H1524 H 0.6486 0.40925 0.49011 0.0
H1525 H 0.65895 0.40622 0.45933 0.0
H1526 H 0.67821 0.46759 0.46406 0.0
H1527 H 0.66821 0.47094 0.49497 0.0
C1528 C 0.58442 0.48018 0.54769 0.0
C1529 C 0.58863 0.50017 0.5453 0.0
C1530 C 0.59823 0.46651 0.54427 0.0
C1531 C 0.6166 0.47251 0.53848 0.0
C1532 C 0.62081 0.4924 0.53596 0.0
C1533 C 0.60703 0.50609 0.5394 0.0
C1534 C 0.6314 0.45806 0.53495 0.0
C1535 C 0.63844 0.45618 0.51787 0.0
C1536 C 0.63816 0.44582 0.54811 0.0
C1537 C 0.63207 0.44772 0.56667 0.0
C1538 C 0.63495 0.46584 0.57711 0.0
C1539 C 0.62902 0.46756 0.59453 0.0
C1540 C 0.62033 0.45121 0.60173 0.0
C1541 C 0.6176 0.4331 0.59152 0.0
C1542 C 0.62348 0.43131 0.57407 0.0
C1543 C 0.70644 0.40915 0.51442 0.0
C1544 C 0.70326 0.3894 0.51806 0.0
C1545 C 0.692 0.42231 0.51716 0.0
C1546 C 0.67394 0.41599 0.5234 0.0
C1547 C 0.67068 0.39626 0.52694 0.0
C1548 C 0.68516 0.3831 0.52428 0.0
C1549 C 0.65871 0.43009 0.52672 0.0
C1550 C 0.65159 0.43193 0.54378 0.0
C1551 C 0.65184 0.44226 0.51352 0.0
C1552 C 0.65782 0.4403 0.49492 0.0
C1553 C 0.65518 0.42207 0.48464 0.0
C1554 C 0.66096 0.4203 0.46716 0.0
C1555 C 0.66927 0.43669 0.45976 0.0
C1556 C 0.67178 0.4549 0.46982 0.0
C1557 C 0.66605 0.45675 0.48731 0.0
H1558 H 0.67374 0.43529 0.44623 0.0
H1559 H 0.61576 0.45257 0.61522 0.0
H1560 H 0.78316 0.25184 0.32463 0.0
H1561 H 0.78247 0.26761 0.35495 0.0
H1562 H 0.71889 0.26329 0.34859 0.0
H1563 H 0.71939 0.24704 0.31841 0.0
H1564 H 0.73486 0.30013 0.36346 0.0
H1565 H 0.74078 0.2327 0.37365 0.0
H1566 H 0.75503 0.20067 0.37062 0.0
H1567 H 0.81074 0.22709 0.39513 0.0
H1568 H 0.79691 0.25936 0.39807 0.0
H1569 H 0.73218 0.33071 0.45781 0.0
H1570 H 0.72571 0.3129 0.42785 0.0
H1571 H 0.78787 0.30545 0.42663 0.0
H1572 H 0.7943 0.32256 0.45634 0.0
H1573 H 0.76787 0.27226 0.41597 0.0
H1574 H 0.76354 0.33995 0.40279 0.0
H1575 H 0.75017 0.37246 0.4052 0.0
H1576 H 0.69249 0.34613 0.38609 0.0
H1577 H 0.70549 0.31341 0.38377 0.0
C1578 C 0.76901 0.25401 0.32972 0.0
C1579 C 0.75134 0.24812 0.31903 0.0
C1580 C 0.76864 0.26312 0.34704 0.0
C1581 C 0.75061 0.26653 0.35406 0.0
C1582 C 0.73295 0.26087 0.34341 0.0
C1583 C 0.7333 0.25165 0.32612 0.0
C1584 C 0.7503 0.27594 0.37255 0.0
C1585 C 0.74179 0.29391 0.37501 0.0
C1586 C 0.75951 0.2679 0.38756 0.0
C1587 C 0.76784 0.24848 0.38595 0.0
C1588 C 0.75611 0.23171 0.37828 0.0
C1589 C 0.76411 0.21351 0.37659 0.0
C1590 C 0.78379 0.21186 0.38264 0.0
C1591 C 0.7955 0.2284 0.39043 0.0
C1592 C 0.78758 0.24664 0.39213 0.0
C1593 C 0.74442 0.32529 0.45109 0.0
C1594 C 0.76373 0.32798 0.45953 0.0
C1595 C 0.74073 0.31517 0.43396 0.0
C1596 C 0.75633 0.30783 0.42495 0.0
C1597 C 0.77556 0.31077 0.43333 0.0
C1598 C 0.77921 0.32065 0.45037 0.0
C1599 C 0.75301 0.29684 0.40688 0.0
C1600 C 0.76076 0.27846 0.40448 0.0
C1601 C 0.74323 0.30459 0.39194 0.0
C1602 C 0.73543 0.32423 0.39332 0.0
C1603 C 0.74797 0.34108 0.39924 0.0
C1604 C 0.74047 0.35954 0.40057 0.0
C1605 C 0.72048 0.36135 0.39586 0.0
C1606 C 0.70796 0.3447 0.38977 0.0
C1607 C 0.71539 0.3262 0.38844 0.0
H1608 H 0.7147 0.37566 0.39689 0.0
H1609 H 0.78995 0.19775 0.38132 0.0
H1610 H 0.49749 0.05756 0.90891 0.0
H1611 H 0.52325 0.05029 0.88905 0.0
H1612 H 0.50718 0.98829 0.88936 0.0
H1613 H 0.4815 0.99547 0.90935 0.0
H1614 H 0.54711 0.99691 0.89444 0.0
H1615 H 0.4925 0.01304 0.85402 0.0
H1616 H 0.4675 0.03438 0.84277 0.0
H1617 H 0.51315 0.07867 0.83528 0.0
H1618 H 0.53842 0.05767 0.84671 0.0
H1619 H 0.57879 0.94878 0.81777 0.0
H1620 H 0.56159 0.96373 0.84183 0.0
H1621 H 0.5855 0.02116 0.83107 0.0
H1622 H 0.60272 0.00623 0.8066 0.0
H1623 H 0.54622 0.02014 0.83342 0.0
H1624 H 0.60113 0.00206 0.86949 0.0
H1625 H 0.62627 0.98068 0.88035 0.0
H1626 H 0.58094 0.9406 0.89619 0.0
H1627 H 0.55548 0.96158 0.88519 0.0
C1628 C 0.49944 0.04238 0.90474 0.0
C1629 C 0.48751 0.02702 0.91064 0.0
C1630 C 0.51413 0.03827 0.89337 0.0
C1631 C 0.51706 0.01876 0.8877 0.0
C1632 C 0.50519 0.00344 0.89364 0.0
C1633 C 0.49049 0.00754 0.90497 0.0
C1634 C 0.53238 0.01413 0.87546 0.0
C1635 C 0.54689 0.00189 0.88106 0.0
C1636 C 0.53251 0.02129 0.85829 0.0
C1637 C 0.51732 0.0339 0.85143 0.0
C1638 C 0.49719 0.0274 0.85012 0.0
C1639 C 0.48298 0.03941 0.84368 0.0
C1640 C 0.48873 0.05789 0.83837 0.0
C1641 C 0.50872 0.06437 0.83944 0.0
C1642 C 0.52299 0.05242 0.84589 0.0
C1643 C 0.58062 0.96458 0.82059 0.0
C1644 C 0.5921 0.97632 0.81021 0.0
C1645 C 0.57086 0.97311 0.83446 0.0
C1646 C 0.57243 0.99354 0.83838 0.0
C1647 C 0.58418 0.00534 0.8283 0.0
C1648 C 0.59404 0.99679 0.81438 0.0
C1649 C 0.5606 0.00238 0.85218 0.0
C1650 C 0.54674 0.01545 0.84692 0.0
C1651 C 0.56112 0.99604 0.86969 0.0
C1652 C 0.57638 0.98337 0.87641 0.0
C1653 C 0.5965 0.98862 0.87517 0.0
C1654 C 0.61082 0.97658 0.88137 0.0
C1655 C 0.60521 0.95928 0.88893 0.0
C1656 C 0.58526 0.95401 0.89033 0.0
C1657 C 0.57089 0.96599 0.88414 0.0
H1658 H 0.61631 0.94998 0.89372 0.0
H1659 H 0.4777 0.06717 0.83338 0.0
H1660 H 0.36874 0.30838 0.35505 0.0
H1661 H 0.36988 0.29333 0.38356 0.0
H1662 H 0.30693 0.29531 0.38414 0.0
H1663 H 0.30553 0.30988 0.35544 0.0
H1664 H 0.33013 0.30108 0.41994 0.0
H1665 H 0.31937 0.25714 0.36492 0.0
H1666 H 0.328 0.24538 0.33483 0.0
H1667 H 0.38523 0.23293 0.35726 0.0
H1668 H 0.37704 0.24498 0.38746 0.0
H1669 H 0.30006 0.21631 0.46359 0.0
H1670 H 0.30579 0.24508 0.44678 0.0
H1671 H 0.36336 0.22686 0.43622 0.0
H1672 H 0.35698 0.19751 0.45194 0.0
H1673 H 0.34524 0.23191 0.40689 0.0
H1674 H 0.35477 0.27123 0.46294 0.0
H1675 H 0.34701 0.28403 0.49301 0.0
H1676 H 0.294 0.30572 0.46999 0.0
H1677 H 0.3013 0.29282 0.4398 0.0
C1678 C 0.35519 0.30593 0.3614 0.0
C1679 C 0.337 0.30996 0.35282 0.0
C1680 C 0.3559 0.29755 0.37776 0.0
C1681 C 0.33847 0.29313 0.38581 0.0
C1682 C 0.32055 0.29877 0.37815 0.0
C1683 C 0.31979 0.30706 0.36172 0.0
C1684 C 0.3384 0.27951 0.40008 0.0
C1685 C 0.33339 0.28592 0.41722 0.0
C1686 C 0.34294 0.25989 0.39645 0.0
C1687 C 0.34767 0.25215 0.37839 0.0
C1688 C 0.33384 0.25202 0.36341 0.0
C1689 C 0.33865 0.2453 0.34634 0.0
C1690 C 0.35717 0.23846 0.34412 0.0
C1691 C 0.3709 0.23827 0.35899 0.0
C1692 C 0.36618 0.24504 0.37609 0.0
C1693 C 0.3141 0.21881 0.45804 0.0
C1694 C 0.32805 0.20478 0.45887 0.0
C1695 C 0.31745 0.2353 0.44852 0.0
C1696 C 0.33506 0.23822 0.44021 0.0
C1697 C 0.3496 0.22488 0.44236 0.0
C1698 C 0.346 0.20817 0.45137 0.0
C1699 C 0.33724 0.25334 0.42722 0.0
C1700 C 0.34239 0.24712 0.41003 0.0
C1701 C 0.33296 0.27312 0.43096 0.0
C1702 C 0.32852 0.28091 0.44911 0.0
C1703 C 0.34138 0.27859 0.4643 0.0
C1704 C 0.33708 0.28589 0.48137 0.0
C1705 C 0.32001 0.29564 0.48341 0.0
C1706 C 0.30722 0.29815 0.46839 0.0
C1707 C 0.31144 0.29087 0.45129 0.0
H1708 H 0.3167 0.30128 0.49664 0.0
H1709 H 0.36088 0.23328 0.3309 0.0
H1710 H 0.54253 0.46512 0.91207 0.0
H1711 H 0.52109 0.46966 0.88532 0.0
H1712 H 0.57181 0.4754 0.85477 0.0
H1713 H 0.59341 0.47106 0.88168 0.0
H1714 H 0.54894 0.50367 0.84858 0.0
H1715 H 0.53836 0.4346 0.847 0.0
H1716 H 0.53163 0.40237 0.85859 0.0
H1717 H 0.47454 0.41838 0.8718 0.0
H1718 H 0.48102 0.45083 0.86054 0.0
H1719 H 0.47307 0.51077 0.77451 0.0
H1720 H 0.50163 0.49916 0.79172 0.0
H1721 H 0.46852 0.4974 0.8382 0.0
H1722 H 0.44038 0.50901 0.82151 0.0
H1723 H 0.48676 0.46258 0.82969 0.0
H1724 H 0.50163 0.53397 0.83637 0.0
H1725 H 0.5089 0.566 0.82453 0.0
H1726 H 0.55877 0.54407 0.80032 0.0
H1727 H 0.55162 0.51181 0.81185 0.0
C1728 C 0.54909 0.46693 0.89958 0.0
C1729 C 0.56964 0.4677 0.89897 0.0
C1730 C 0.53682 0.46951 0.88426 0.0
C1731 C 0.54481 0.47263 0.86794 0.0
C1732 C 0.56531 0.473 0.8672 0.0
C1733 C 0.57762 0.47053 0.88257 0.0
C1734 C 0.53172 0.47682 0.85211 0.0
C1735 C 0.53559 0.49441 0.84415 0.0
C1736 C 0.5143 0.46477 0.84625 0.0
C1737 C 0.51023 0.44521 0.85298 0.0
C1738 C 0.52442 0.4313 0.85248 0.0
C1739 C 0.52064 0.41298 0.85898 0.0
C1740 C 0.50268 0.40833 0.86594 0.0
C1741 C 0.48844 0.42199 0.86639 0.0
C1742 C 0.49215 0.44034 0.85992 0.0
C1743 C 0.47199 0.50805 0.78844 0.0
C1744 C 0.45441 0.51079 0.79659 0.0
C1745 C 0.48827 0.50139 0.79821 0.0
C1746 C 0.48706 0.49727 0.81617 0.0
C1747 C 0.46967 0.5003 0.82431 0.0
C1748 C 0.45361 0.50706 0.81471 0.0
C1749 C 0.50363 0.48974 0.82687 0.0
C1750 C 0.50041 0.47149 0.83382 0.0
C1751 C 0.52169 0.50107 0.83165 0.0
C1752 C 0.52593 0.52043 0.82475 0.0
C1753 C 0.51403 0.53593 0.82837 0.0
C1754 C 0.51815 0.55413 0.82176 0.0
C1755 C 0.53424 0.55705 0.81162 0.0
C1756 C 0.54628 0.54178 0.80813 0.0
C1757 C 0.5422 0.52354 0.81471 0.0
H1758 H 0.53742 0.57115 0.80651 0.0
H1759 H 0.49978 0.39414 0.87098 0.0
H1760 H 0.75787 0.77679 0.16346 0.0
H1761 H 0.75982 0.7566 0.13545 0.0
H1762 H 0.75723 0.7044 0.16398 0.0
H1763 H 0.75598 0.72464 0.19225 0.0
H1764 H 0.78587 0.70383 0.14189 0.0
H1765 H 0.71769 0.71532 0.13648 0.0
H1766 H 0.68874 0.73486 0.13681 0.0
H1767 H 0.70907 0.76631 0.09373 0.0
H1768 H 0.7383 0.74715 0.0933 0.0
H1769 H 0.77843 0.64185 0.06024 0.0
H1770 H 0.7702 0.65758 0.08883 0.0
H1771 H 0.77438 0.71402 0.06722 0.0
H1772 H 0.78241 0.69844 0.03857 0.0
H1773 H 0.74243 0.70956 0.08648 0.0
H1774 H 0.81202 0.70005 0.09413 0.0
H1775 H 0.84106 0.68061 0.09397 0.0
H1776 H 0.8176 0.64521 0.13314 0.0
H1777 H 0.78828 0.66428 0.13334 0.0
C1778 C 0.75778 0.76101 0.1638 0.0
C1779 C 0.75688 0.75232 0.1801 0.0
C1780 C 0.75866 0.74947 0.14773 0.0
C1781 C 0.75845 0.72896 0.14757 0.0
C1782 C 0.75733 0.72019 0.16378 0.0
C1783 C 0.75647 0.73176 0.1799 0.0
C1784 C 0.76039 0.71686 0.13058 0.0
C1785 C 0.77612 0.70478 0.12987 0.0
C1786 C 0.74789 0.71837 0.1148 0.0
C1787 C 0.73028 0.72989 0.11496 0.0
C1788 C 0.71607 0.7265 0.12716 0.0
C1789 C 0.69959 0.73749 0.12735 0.0
C1790 C 0.69709 0.75184 0.11532 0.0
C1791 C 0.71103 0.7552 0.10305 0.0
C1792 C 0.72755 0.74426 0.10281 0.0
C1793 C 0.77751 0.6576 0.06153 0.0
C1794 C 0.7812 0.66891 0.04715 0.0
C1795 C 0.77285 0.66656 0.0779 0.0
C1796 C 0.77187 0.68699 0.08019 0.0
C1797 C 0.77506 0.69824 0.06573 0.0
C1798 C 0.77974 0.68931 0.04938 0.0
C1799 C 0.76805 0.6968 0.09778 0.0
C1800 C 0.75199 0.70845 0.09858 0.0
C1801 C 0.78021 0.69487 0.11366 0.0
C1802 C 0.79786 0.68344 0.11359 0.0
C1803 C 0.81298 0.68801 0.10259 0.0
C1804 C 0.8295 0.67708 0.10252 0.0
C1805 C 0.83114 0.66164 0.1135 0.0
C1806 C 0.81629 0.65714 0.12462 0.0
C1807 C 0.79972 0.66802 0.12473 0.0
H1808 H 0.84395 0.6532 0.11342 0.0
H1809 H 0.68432 0.76033 0.11549 0.0
H1810 H 0.05561 0.02795 0.09946 0.0
H1811 H 0.035 0.02608 0.12456 0.0
H1812 H 0.98355 0.03356 0.0891 0.0
H1813 H 0.00406 0.03544 0.06396 0.0
H1814 H 0.98338 0.05606 0.11968 0.0
H1815 H 0.99342 0.98836 0.10364 0.0
H1816 H 0.01307 0.96014 0.09752 0.0
H1817 H 0.0412 0.96887 0.15122 0.0
H1818 H 0.0219 0.99733 0.15758 0.0
H1819 H 0.90837 0.02638 0.17388 0.0
H1820 H 0.93063 0.02859 0.1501 0.0
H1821 H 0.98016 0.02205 0.18814 0.0
H1822 H 0.95792 0.01959 0.21203 0.0
H1823 H 0.9824 0.99967 0.15722 0.0
H1824 H 0.97182 0.06675 0.17359 0.0
H1825 H 0.95228 0.09502 0.17981 0.0
H1826 H 0.92537 0.08763 0.12565 0.0
H1827 H 0.94456 0.05912 0.11917 0.0
C1828 C 0.03988 0.02901 0.09696 0.0
C1829 C 0.03151 0.03182 0.07966 0.0
C1830 C 0.0281 0.02796 0.11135 0.0
C1831 C 0.00765 0.02948 0.10873 0.0
C1832 C 0.99928 0.03239 0.09149 0.0
C1833 C 0.01105 0.03351 0.07713 0.0
C1834 C 0.99496 0.02823 0.12392 0.0
C1835 C 0.98299 0.04361 0.12774 0.0
C1836 C 0.99482 0.01225 0.1348 0.0
C1837 C 0.00636 0.99509 0.13102 0.0
C1838 C 0.0039 0.98435 0.1141 0.0
C1839 C 0.01496 0.9683 0.11059 0.0
C1840 C 0.02841 0.96275 0.12396 0.0
C1841 C 0.03079 0.97321 0.14087 0.0
C1842 C 0.01979 0.98929 0.14444 0.0
C1843 C 0.92399 0.02542 0.17724 0.0
C1844 C 0.93134 0.02287 0.19491 0.0
C1845 C 0.93673 0.02677 0.16361 0.0
C1846 C 0.95713 0.02573 0.16734 0.0
C1847 C 0.96449 0.02294 0.18493 0.0
C1848 C 0.95175 0.0216 0.19859 0.0
C1849 C 0.97069 0.02742 0.15285 0.0
C1850 C 0.98283 0.01215 0.14919 0.0
C1851 C 0.97101 0.0435 0.14211 0.0
C1852 C 0.9595 0.06068 0.14595 0.0
C1853 C 0.96162 0.07105 0.16305 0.0
C1854 C 0.95063 0.08714 0.16661 0.0
C1855 C 0.93755 0.09308 0.15315 0.0
C1856 C 0.93549 0.08299 0.13607 0.0
C1857 C 0.94643 0.06688 0.13244 0.0
H1858 H 0.92905 0.10554 0.15594 0.0
H1859 H 0.03696 0.95032 0.12122 0.0
H1860 H 0.31172 0.77151 0.18709 0.0
H1861 H 0.30348 0.79238 0.16311 0.0
H1862 H 0.24744 0.75869 0.15048 0.0
H1863 H 0.25602 0.73727 0.17409 0.0
H1864 H 0.26257 0.76509 0.12094 0.0
H1865 H 0.25144 0.80663 0.17211 0.0
H1866 H 0.25833 0.82399 0.20231 0.0
H1867 H 0.30854 0.85625 0.18495 0.0
H1868 H 0.30214 0.8389 0.1547 0.0
H1869 H 0.2394 0.83583 0.05804 0.0
H1870 H 0.23647 0.81918 0.08569 0.0
H1871 H 0.29861 0.83296 0.10063 0.0
H1872 H 0.3017 0.84911 0.07302 0.0
H1873 H 0.2734 0.83771 0.12984 0.0
H1874 H 0.28631 0.79094 0.08022 0.0
H1875 H 0.27837 0.77375 0.05003 0.0
H1876 H 0.22213 0.75189 0.06527 0.0
H1877 H 0.22966 0.76921 0.09549 0.0
C1878 C 0.29761 0.76862 0.17923 0.0
C1879 C 0.28453 0.75281 0.18245 0.0
C1880 C 0.29282 0.78066 0.16562 0.0
C1881 C 0.27463 0.77741 0.15518 0.0
C1882 C 0.26151 0.76158 0.15839 0.0
C1883 C 0.26642 0.74935 0.1719 0.0
C1884 C 0.26989 0.79002 0.14039 0.0
C1885 C 0.26448 0.78098 0.12303 0.0
C1886 C 0.27245 0.81081 0.14297 0.0
C1887 C 0.27636 0.82136 0.16114 0.0
C1888 C 0.26403 0.81733 0.17476 0.0
C1889 C 0.26784 0.82719 0.19189 0.0
C1890 C 0.28388 0.84119 0.19555 0.0
C1891 C 0.29612 0.8454 0.18209 0.0
C1892 C 0.29239 0.83558 0.16493 0.0
C1893 C 0.25231 0.83561 0.06743 0.0
C1894 C 0.2708 0.84363 0.06338 0.0
C1895 C 0.25064 0.82608 0.08315 0.0
C1896 C 0.26736 0.8248 0.09512 0.0
C1897 C 0.28554 0.83383 0.09158 0.0
C1898 C 0.28729 0.84297 0.07577 0.0
C1899 C 0.26658 0.81269 0.11058 0.0
C1900 C 0.27102 0.82184 0.12798 0.0
C1901 C 0.26289 0.79205 0.1081 0.0
C1902 C 0.25844 0.78156 0.09 0.0
C1903 C 0.27218 0.78261 0.07707 0.0
C1904 C 0.26777 0.77282 0.05997 0.0
C1905 C 0.24972 0.76179 0.05571 0.0
C1906 C 0.23608 0.76048 0.06857 0.0
C1907 C 0.24042 0.77027 0.08568 0.0
H1908 H 0.24633 0.75421 0.04247 0.0
H1909 H 0.2868 0.8488 0.20883 0.0
H1910 H 0.01623 0.46067 0.06732 0.0
H1911 H 0.04026 0.46147 0.09353 0.0
H1912 H 0.99558 0.47794 0.12816 0.0
H1913 H 0.97166 0.4776 0.10194 0.0
H1914 H 0.02973 0.49745 0.1396 0.0
H1915 H 0.007 0.43004 0.12125 0.0
H1916 H 0.00063 0.4006 0.09981 0.0
H1917 H 0.06248 0.40073 0.09285 0.0
H1918 H 0.06918 0.43036 0.11408 0.0
H1919 H 0.07124 0.4328 0.2111 0.0
H1920 H 0.05281 0.43671 0.18262 0.0
H1921 H 0.09043 0.4886 0.17626 0.0
H1922 H 0.10872 0.48509 0.20517 0.0
H1923 H 0.06193 0.43611 0.14957 0.0
H1924 H 0.06296 0.5205 0.15393 0.0
H1925 H 0.0661 0.54874 0.17686 0.0
H1926 H 0.04206 0.51217 0.2149 0.0
H1927 H 0.03856 0.4838 0.19214 0.0
C1928 C 0.01161 0.46451 0.08054 0.0
C1929 C 0.9921 0.46887 0.08269 0.0
C1930 C 0.02531 0.465 0.09547 0.0
C1931 C 0.01961 0.4695 0.1128 0.0
C1932 C 0.00029 0.47448 0.1149 0.0
C1933 C 0.98664 0.47422 0.09996 0.0
C1934 C 0.0334 0.46796 0.12883 0.0
C1935 C 0.03688 0.48409 0.14174 0.0
C1936 C 0.04253 0.45045 0.1317 0.0
C1937 C 0.03856 0.43252 0.1191 0.0
C1938 C 0.01922 0.42386 0.11506 0.0
C1939 C 0.01555 0.40714 0.10295 0.0
C1940 C 0.03113 0.39883 0.09493 0.0
C1941 C 0.05042 0.4072 0.09905 0.0
C1942 C 0.05417 0.42395 0.11112 0.0
C1943 C 0.07568 0.44503 0.20366 0.0
C1944 C 0.09138 0.4587 0.21046 0.0
C1945 C 0.06515 0.4472 0.18732 0.0
C1946 C 0.07013 0.46302 0.17739 0.0
C1947 C 0.08615 0.47644 0.18386 0.0
C1948 C 0.09662 0.47438 0.20034 0.0
C1949 C 0.05811 0.46552 0.16049 0.0
C1950 C 0.05502 0.44958 0.14734 0.0
C1951 C 0.04891 0.48301 0.15766 0.0
C1952 C 0.05073 0.5 0.1714 0.0
C1953 C 0.0583 0.51852 0.16718 0.0
C1954 C 0.06015 0.53454 0.18015 0.0
C1955 C 0.05436 0.53223 0.19735 0.0
C1956 C 0.04662 0.51392 0.2016 0.0
C1957 C 0.04472 0.49786 0.18868 0.0
H1958 H 0.05582 0.54464 0.20737 0.0
H1959 H 0.02826 0.38589 0.08556 0.0
H1960 H 0.32847 0.72923 0.24855 0.0
H1961 H 0.36064 0.73171 0.26569 0.0
H1962 H 0.36025 0.66861 0.26225 0.0
H1963 H 0.32828 0.6659 0.24443 0.0
H1964 H 0.37204 0.68821 0.29764 0.0
H1965 H 0.38838 0.68963 0.23694 0.0
H1966 H 0.38609 0.70053 0.20635 0.0
H1967 H 0.40505 0.75953 0.22759 0.0
H1968 H 0.40716 0.74904 0.25835 0.0
H1969 H 0.47377 0.7032 0.33618 0.0
H1970 H 0.44376 0.69011 0.31731 0.0
H1971 H 0.43343 0.74863 0.30348 0.0
H1972 H 0.46317 0.76158 0.32171 0.0
H1973 H 0.42885 0.72438 0.27448 0.0
H1974 H 0.40751 0.72462 0.33477 0.0
H1975 H 0.40861 0.71499 0.36581 0.0
H1976 H 0.39844 0.65428 0.34591 0.0
H1977 H 0.39751 0.66356 0.31473 0.0
C1978 C 0.33528 0.71584 0.25118 0.0
C1979 C 0.32579 0.69736 0.24493 0.0
C1980 C 0.35362 0.7173 0.26111 0.0
C1981 C 0.36284 0.70034 0.26512 0.0
C1982 C 0.35332 0.68186 0.2593 0.0
C1983 C 0.33502 0.68037 0.24918 0.0
C1984 C 0.38259 0.70221 0.27519 0.0
C1985 C 0.38462 0.69576 0.29249 0.0
C1986 C 0.39888 0.71221 0.26847 0.0
C1987 C 0.39781 0.71856 0.24997 0.0
C1988 C 0.39192 0.70496 0.2351 0.0
C1989 C 0.39068 0.71106 0.21773 0.0
C1990 C 0.39539 0.73072 0.21503 0.0
C1991 C 0.4014 0.74431 0.2297 0.0
C1992 C 0.40265 0.73828 0.24711 0.0
C1993 C 0.46504 0.71321 0.32912 0.0
C1994 C 0.47095 0.73341 0.33038 0.0
C1995 C 0.44789 0.70574 0.31838 0.0
C1996 C 0.43633 0.7184 0.30895 0.0
C1997 C 0.44216 0.73853 0.31045 0.0
C1998 C 0.45922 0.74593 0.32097 0.0
C1999 C 0.41816 0.71114 0.29731 0.0
C2000 C 0.41643 0.7165 0.27959 0.0
C2001 C 0.40214 0.70031 0.30374 0.0
C2002 C 0.4027 0.69475 0.32245 0.0
C2003 C 0.40567 0.7092 0.33702 0.0
C2004 C 0.40623 0.70381 0.35463 0.0
C2005 C 0.40367 0.68403 0.35783 0.0
C2006 C 0.40047 0.66959 0.34341 0.0
C2007 C 0.39993 0.67491 0.32577 0.0
H2008 H 0.4041 0.67988 0.37147 0.0
H2009 H 0.39442 0.73541 0.20157 0.0
H2010 H 0.96687 0.41798 0.99509 0.0
H2011 H 0.97522 0.39336 0.97219 0.0
H2012 H 0.9802 0.35126 0.01182 0.0
H2013 H 0.97234 0.37615 0.03497 0.0
H2014 H 0.00999 0.34974 0.99173 0.0
H2015 H 0.94036 0.34798 0.98 0.0
H2016 H 0.90792 0.36113 0.97459 0.0
H2017 H 0.926 0.3846 0.9266 0.0
H2018 H 0.95867 0.37182 0.93186 0.0
H2019 H 0.0138 0.27268 0.91969 0.0
H2020 H 0.00472 0.29223 0.94621 0.0
H2021 H 0.00415 0.34343 0.91637 0.0
H2022 H 0.01322 0.32425 0.89002 0.0
H2023 H 0.96992 0.33626 0.93321 0.0
H2024 H 0.0409 0.33967 0.94731 0.0
H2025 H 0.07276 0.32545 0.9531 0.0
H2026 H 0.05065 0.2969 0.99713 0.0
H2027 H 0.01855 0.31076 0.99145 0.0
C2028 C 0.96959 0.40345 0.99891 0.0
C2029 C 0.96885 0.39889 0.01677 0.0
C2030 C 0.9743 0.38935 0.98579 0.0
C2031 C 0.97806 0.37035 0.99022 0.0
C2032 C 0.9773 0.36579 0.00808 0.0
C2033 C 0.97274 0.37996 0.02125 0.0
C2034 C 0.98331 0.35553 0.97624 0.0
C2035 C 0.00103 0.34652 0.97906 0.0
C2036 C 0.9717 0.35137 0.95967 0.0
C2037 C 0.95203 0.35905 0.95641 0.0
C2038 C 0.93748 0.35606 0.96836 0.0
C2039 C 0.91903 0.36343 0.96531 0.0
C2040 C 0.91491 0.37373 0.95028 0.0
C2041 C 0.92922 0.37663 0.93825 0.0
C2042 C 0.9477 0.36931 0.94124 0.0
C2043 C 0.01199 0.28816 0.91886 0.0
C2044 C 0.01415 0.29687 0.9027 0.0
C2045 C 0.0068 0.29929 0.93401 0.0
C2046 C 0.00367 0.31923 0.93317 0.0
C2047 C 0.00636 0.32803 0.91723 0.0
C2048 C 0.01163 0.31702 0.90219 0.0
C2049 C 0.99681 0.33099 0.94854 0.0
C2050 C 0.97872 0.33934 0.94598 0.0
C2051 C 0.00797 0.33433 0.96538 0.0
C2052 C 0.02726 0.32605 0.96882 0.0
C2053 C 0.04277 0.33021 0.95813 0.0
C2054 C 0.06089 0.32225 0.96141 0.0
C2055 C 0.06371 0.31022 0.97544 0.0
C2056 C 0.04843 0.30619 0.98625 0.0
C2057 C 0.03029 0.3141 0.98301 0.0
H2058 H 0.07774 0.30407 0.97796 0.0
H2059 H 0.90062 0.37942 0.94794 0.0
H2060 H 0.69389 0.76553 0.24645 0.0
H2061 H 0.66629 0.76141 0.26504 0.0
H2062 H 0.70697 0.76497 0.31252 0.0
H2063 H 0.7348 0.76965 0.29396 0.0
H2064 H 0.67136 0.73145 0.30603 0.0
H2065 H 0.68926 0.80157 0.31224 0.0
H2066 H 0.69798 0.83334 0.30049 0.0
H2067 H 0.64274 0.8286 0.26799 0.0
H2068 H 0.63384 0.79663 0.27935 0.0
H2069 H 0.59029 0.7415 0.36205 0.0
H2070 H 0.62273 0.74274 0.34991 0.0
H2071 H 0.59739 0.76627 0.30231 0.0
H2072 H 0.56554 0.76586 0.31466 0.0
H2073 H 0.62908 0.78698 0.31321 0.0
H2074 H 0.61135 0.71709 0.30411 0.0
H2075 H 0.6018 0.68431 0.31346 0.0
H2076 H 0.65496 0.68713 0.34875 0.0
H2077 H 0.66471 0.72005 0.33976 0.0
C2078 C 0.697 0.7653 0.26083 0.0
C2079 C 0.71648 0.76788 0.26881 0.0
C2080 C 0.68123 0.76293 0.27141 0.0
C2081 C 0.68466 0.76281 0.2901 0.0
C2082 C 0.7041 0.76492 0.29809 0.0
C2083 C 0.71991 0.76767 0.28752 0.0
C2084 C 0.66771 0.76153 0.30116 0.0
C2085 C 0.66225 0.74365 0.30795 0.0
C2086 C 0.65573 0.77735 0.30327 0.0
C2087 C 0.66098 0.79663 0.29651 0.0
C2088 C 0.67906 0.80721 0.30246 0.0
C2089 C 0.68402 0.82528 0.2959 0.0
C2090 C 0.67094 0.83296 0.28347 0.0
C2091 C 0.65286 0.82262 0.27761 0.0
C2092 C 0.64785 0.80454 0.28411 0.0
C2093 C 0.5917 0.74673 0.34893 0.0
C2094 C 0.57546 0.75373 0.33935 0.0
C2095 C 0.61021 0.74741 0.34198 0.0
C2096 C 0.61258 0.75464 0.32516 0.0
C2097 C 0.59609 0.76087 0.31539 0.0
C2098 C 0.57783 0.76056 0.32244 0.0
C2099 C 0.63216 0.75662 0.31776 0.0
C2100 C 0.63821 0.77474 0.31161 0.0
C2101 C 0.64447 0.74089 0.31604 0.0
C2102 C 0.63864 0.72112 0.32143 0.0
C2103 C 0.62092 0.71078 0.31397 0.0
C2104 C 0.61549 0.69217 0.31918 0.0
C2105 C 0.62773 0.68367 0.33174 0.0
C2106 C 0.64547 0.69375 0.33906 0.0
C2107 C 0.65096 0.71237 0.33391 0.0
H2108 H 0.6235 0.66926 0.33576 0.0
H2109 H 0.6748 0.84695 0.27841 0.0
H2110 H 0.02628 0.08577 0.00721 0.0
H2111 H 0.01781 0.10997 0.98612 0.0
H2112 H 0.07676 0.11137 0.96916 0.0
H2113 H 0.08536 0.08733 0.99039 0.0
H2114 H 0.0652 0.14784 0.97439 0.0
H2115 H 0.03795 0.08687 0.94302 0.0
H2116 H 0.01772 0.05529 0.93901 0.0
H2117 H 0.96547 0.08543 0.94595 0.0
H2118 H 0.98544 0.11719 0.95024 0.0
H2119 H 0.0486 0.19703 0.89542 0.0
H2120 H 0.05616 0.17209 0.91599 0.0
H2121 H 0.99745 0.17249 0.93331 0.0
H2122 H 0.98972 0.19734 0.91271 0.0
H2123 H 0.00855 0.13524 0.92801 0.0
H2124 H 0.03573 0.19616 0.95927 0.0
H2125 H 0.0559 0.22778 0.96328 0.0
H2126 H 0.10825 0.19772 0.95661 0.0
H2127 H 0.08833 0.16592 0.95231 0.0
C2128 C 0.03743 0.09122 0.99899 0.0
C2129 C 0.05651 0.08465 0.00042 0.0
C2130 C 0.03255 0.105 0.98687 0.0
C2131 C 0.04659 0.11238 0.97591 0.0
C2132 C 0.06568 0.10591 0.97746 0.0
C2133 C 0.07055 0.09214 0.98954 0.0
C2134 C 0.04151 0.12697 0.96293 0.0
C2135 C 0.05297 0.14496 0.9641 0.0
C2136 C 0.02527 0.12345 0.94975 0.0
C2137 C 0.01322 0.10439 0.94714 0.0
C2138 C 0.02217 0.08675 0.94383 0.0
C2139 C 0.01074 0.06882 0.94148 0.0
C2140 C 0.99033 0.06835 0.94227 0.0
C2141 C 0.98129 0.08582 0.94537 0.0
C2142 C 0.99265 0.10379 0.94775 0.0
C2143 C 0.03725 0.19176 0.90354 0.0
C2144 C 0.01857 0.19926 0.90245 0.0
C2145 C 0.04163 0.17755 0.91535 0.0
C2146 C 0.02745 0.17057 0.92635 0.0
C2147 C 0.00864 0.17768 0.92498 0.0
C2148 C 0.00427 0.19193 0.91322 0.0
C2149 C 0.03229 0.15604 0.93944 0.0
C2150 C 0.02078 0.13809 0.9383 0.0
C2151 C 0.04849 0.15959 0.95266 0.0
C2152 C 0.06051 0.17868 0.95528 0.0
C2153 C 0.05152 0.19631 0.95851 0.0
C2154 C 0.06291 0.21426 0.96087 0.0
C2155 C 0.08334 0.21476 0.96016 0.0
C2156 C 0.09242 0.19731 0.95713 0.0
C2157 C 0.08109 0.17931 0.95475 0.0
H2158 H 0.09213 0.22867 0.96199 0.0
H2159 H 0.98151 0.05445 0.94044 0.0
H2160 H 0.40688 0.27307 0.29448 0.0
H2161 H 0.42756 0.26682 0.26964 0.0
H2162 H 0.38164 0.28398 0.23239 0.0
H2163 H 0.36096 0.28993 0.25693 0.0
H2164 H 0.39933 0.25284 0.21819 0.0
H2165 H 0.41933 0.31679 0.25036 0.0
H2166 H 0.43146 0.33857 0.27741 0.0
H2167 H 0.48379 0.30753 0.28303 0.0
H2168 H 0.47183 0.28541 0.25612 0.0
H2169 H 0.44003 0.29346 0.14612 0.0
H2170 H 0.42465 0.28805 0.17367 0.0
H2171 H 0.47948 0.2706 0.19789 0.0
H2172 H 0.49516 0.27607 0.17026 0.0
H2173 H 0.46143 0.29576 0.22062 0.0
H2174 H 0.44392 0.23592 0.18465 0.0
H2175 H 0.43171 0.21466 0.15734 0.0
H2176 H 0.37487 0.23759 0.1586 0.0
H2177 H 0.38681 0.25922 0.18577 0.0
C2178 C 0.40116 0.27522 0.28093 0.0
C2179 C 0.38249 0.28224 0.27765 0.0
C2180 C 0.41296 0.27169 0.26679 0.0
C2181 C 0.40621 0.27519 0.24923 0.0
C2182 C 0.38714 0.2812 0.24585 0.0
C2183 C 0.37538 0.28473 0.25992 0.0
C2184 C 0.41932 0.27415 0.23446 0.0
C2185 C 0.41291 0.2622 0.21869 0.0
C2186 C 0.43734 0.28594 0.23534 0.0
C2187 C 0.44459 0.29933 0.25139 0.0
C2188 C 0.43336 0.31454 0.25745 0.0
C2189 C 0.44021 0.32695 0.27274 0.0
C2190 C 0.45835 0.32439 0.28197 0.0
C2191 C 0.46972 0.30946 0.27589 0.0
C2192 C 0.46292 0.29699 0.26062 0.0
C2193 C 0.44891 0.28856 0.15729 0.0
C2194 C 0.46882 0.28513 0.15595 0.0
C2195 C 0.44003 0.28534 0.173 0.0
C2196 C 0.45084 0.27858 0.18767 0.0
C2197 C 0.47087 0.27567 0.18663 0.0
C2198 C 0.47978 0.27883 0.17085 0.0
C2199 C 0.44108 0.27497 0.20413 0.0
C2200 C 0.44812 0.28602 0.22022 0.0
C2201 C 0.42364 0.26235 0.20352 0.0
C2202 C 0.41631 0.24929 0.18721 0.0
C2203 C 0.42885 0.23654 0.17904 0.0
C2204 C 0.42198 0.2244 0.16359 0.0
C2205 C 0.40254 0.22479 0.15622 0.0
C2206 C 0.38993 0.2373 0.16432 0.0
C2207 C 0.39674 0.24949 0.17976 0.0
H2208 H 0.39724 0.21539 0.14426 0.0
H2209 H 0.46363 0.33401 0.2938 0.0
H2210 H 0.56045 0.42653 0.97855 0.0
H2211 H 0.5492 0.40987 0.00391 0.0
H2212 H 0.60947 0.40172 0.02206 0.0
H2213 H 0.62085 0.41842 0.99661 0.0
H2214 H 0.58501 0.3681 0.02187 0.0
H2215 H 0.58599 0.43531 0.04446 0.0
H2216 H 0.57878 0.47 0.04394 0.0
H2217 H 0.51664 0.45314 0.04023 0.0
H2218 H 0.52347 0.4183 0.04047 0.0
H2219 H 0.55266 0.32688 0.09891 0.0
H2220 H 0.57063 0.34999 0.08169 0.0
H2221 H 0.51546 0.36792 0.0586 0.0
H2222 H 0.49746 0.34538 0.07604 0.0
H2223 H 0.54176 0.39855 0.06447 0.0
H2224 H 0.54043 0.3318 0.03721 0.0
H2225 H 0.54681 0.29681 0.03689 0.0
H2226 H 0.60884 0.31269 0.04855 0.0
H2227 H 0.60278 0.34781 0.04916 0.0
C2228 C 0.57132 0.4212 0.98792 0.0
C2229 C 0.59154 0.42371 0.98563 0.0
C2230 C 0.56487 0.41179 0.00247 0.0
C2231 C 0.57853 0.40476 0.01497 0.0
C2232 C 0.59872 0.40711 0.0126 0.0
C2233 C 0.60518 0.41662 0.9981 0.0
C2234 C 0.57158 0.39444 0.03017 0.0
C2235 C 0.57589 0.37487 0.03143 0.0
C2236 C 0.55943 0.40321 0.04243 0.0
C2237 C 0.55525 0.42416 0.04235 0.0
C2238 C 0.57078 0.43897 0.04339 0.0
C2239 C 0.56676 0.45867 0.04317 0.0
C2240 C 0.54726 0.46376 0.04202 0.0
C2241 C 0.53174 0.44917 0.04112 0.0
C2242 C 0.53568 0.42944 0.04132 0.0
C2243 C 0.54436 0.33602 0.09042 0.0
C2244 C 0.52361 0.33409 0.08868 0.0
C2245 C 0.55466 0.34915 0.08053 0.0
C2246 C 0.54438 0.36038 0.06857 0.0
C2247 C 0.52371 0.35935 0.06768 0.0
C2248 C 0.51343 0.34637 0.07764 0.0
C2249 C 0.55483 0.37207 0.05592 0.0
C2250 C 0.55117 0.39189 0.05512 0.0
C2251 C 0.56746 0.36349 0.04397 0.0
C2252 C 0.57113 0.34241 0.04343 0.0
C2253 C 0.55541 0.32782 0.03981 0.0
C2254 C 0.55897 0.30797 0.03957 0.0
C2255 C 0.57821 0.30253 0.04276 0.0
C2256 C 0.59394 0.31693 0.04613 0.0
C2257 C 0.59046 0.33681 0.04642 0.0
H2258 H 0.58093 0.28716 0.04257 0.0
H2259 H 0.54418 0.47902 0.04185 0.0
H2260 H 0.72205 0.23236 0.20076 0.0
H2261 H 0.6936 0.23698 0.17974 0.0
H2262 H 0.65823 0.24674 0.22425 0.0
H2263 H 0.68652 0.24212 0.24526 0.0
H2264 H 0.63895 0.22159 0.19684 0.0
H2265 H 0.67576 0.28487 0.20379 0.0
H2266 H 0.70533 0.30765 0.20331 0.0
H2267 H 0.70795 0.29058 0.14725 0.0
H2268 H 0.67852 0.26748 0.14746 0.0
H2269 H 0.5581 0.26616 0.15772 0.0
H2270 H 0.58745 0.25848 0.17575 0.0
H2271 H 0.61902 0.25358 0.12826 0.0
H2272 H 0.58969 0.26161 0.11006 0.0
H2273 H 0.64108 0.27444 0.15537 0.0
H2274 H 0.6032 0.21265 0.14771 0.0
H2275 H 0.57372 0.18969 0.14797 0.0
H2276 H 0.57326 0.20326 0.20483 0.0
H2277 H 0.60258 0.22652 0.20488 0.0
C2278 C 0.70819 0.23552 0.20602 0.0
C2279 C 0.70652 0.237 0.22461 0.0
C2280 C 0.69199 0.23818 0.19403 0.0
C2281 C 0.67386 0.24235 0.20046 0.0
C2282 C 0.6721 0.24355 0.21902 0.0
C2283 C 0.68831 0.241 0.23101 0.0
C2284 C 0.65668 0.24553 0.18789 0.0
C2285 C 0.63932 0.23326 0.18789 0.0
C2286 C 0.65742 0.26038 0.17584 0.0
C2287 C 0.67507 0.27429 0.17569 0.0
C2288 C 0.68274 0.28585 0.1914 0.0
C2289 C 0.69946 0.29884 0.19117 0.0
C2290 C 0.70855 0.30052 0.17527 0.0
C2291 C 0.70091 0.28924 0.15956 0.0
C2292 C 0.6842 0.27621 0.15972 0.0
C2293 C 0.57124 0.26339 0.15105 0.0
C2294 C 0.57152 0.26445 0.13242 0.0
C2295 C 0.588 0.25889 0.16139 0.0
C2296 C 0.60537 0.25518 0.15333 0.0
C2297 C 0.60576 0.25632 0.13474 0.0
C2298 C 0.58897 0.26087 0.12436 0.0
C2299 C 0.6232 0.25064 0.16446 0.0
C2300 C 0.64071 0.26265 0.1642 0.0
C2301 C 0.62263 0.23548 0.17622 0.0
C2302 C 0.60501 0.22146 0.17626 0.0
C2303 C 0.59673 0.21085 0.16025 0.0
C2304 C 0.58006 0.19777 0.16035 0.0
C2305 C 0.5716 0.19505 0.1764 0.0
C2306 C 0.57982 0.20539 0.1924 0.0
C2307 C 0.59648 0.21852 0.19238 0.0
H2308 H 0.55869 0.18491 0.17645 0.0
H2309 H 0.72149 0.31059 0.17512 0.0
H2310 H 0.42477 0.10683 0.97756 0.0
H2311 H 0.43366 0.13678 0.99753 0.0
H2312 H 0.49371 0.12102 0.00466 0.0
H2313 H 0.48487 0.09097 0.98484 0.0
H2314 H 0.47882 0.13336 0.03672 0.0
H2315 H 0.48395 0.15543 0.97814 0.0
H2316 H 0.47261 0.15953 0.94669 0.0
H2317 H 0.42445 0.19095 0.96424 0.0
H2318 H 0.43535 0.18679 0.99581 0.0
H2319 H 0.51591 0.22676 0.08035 0.0
H2320 H 0.51097 0.19684 0.05983 0.0
H2321 H 0.45147 0.21054 0.0446 0.0
H2322 H 0.45643 0.24058 0.06463 0.0
H2323 H 0.46867 0.1991 0.01594 0.0
H2324 H 0.46193 0.17542 0.07414 0.0
H2325 H 0.47252 0.17099 0.1057 0.0
H2326 H 0.52281 0.1424 0.08909 0.0
H2327 H 0.51264 0.14689 0.05743 0.0
C2328 C 0.43983 0.10974 0.98345 0.0
C2329 C 0.45416 0.09667 0.9796 0.0
C2330 C 0.44491 0.12687 0.99474 0.0
C2331 C 0.46437 0.13115 0.00241 0.0
C2332 C 0.47864 0.11799 0.9988 0.0
C2333 C 0.4736 0.10094 0.9874 0.0
C2334 C 0.46978 0.14934 0.01427 0.0
C2335 C 0.4769 0.14778 0.03214 0.0
C2336 C 0.46693 0.16806 0.00831 0.0
C2337 C 0.46037 0.17064 0.98934 0.0
C2338 C 0.47085 0.16307 0.97529 0.0
C2339 C 0.46452 0.16544 0.95744 0.0
C2340 C 0.44779 0.17545 0.95347 0.0
C2341 C 0.43739 0.18318 0.96734 0.0
C2342 C 0.44365 0.18084 0.98521 0.0
C2343 C 0.50178 0.22337 0.07264 0.0
C2344 C 0.48656 0.23603 0.07413 0.0
C2345 C 0.49895 0.20625 0.06097 0.0
C2346 C 0.48078 0.20137 0.05081 0.0
C2347 C 0.46563 0.21403 0.05227 0.0
C2348 C 0.46848 0.23119 0.06378 0.0
C2349 C 0.4774 0.18317 0.03854 0.0
C2350 C 0.47071 0.18472 0.02054 0.0
C2351 C 0.48054 0.16444 0.04443 0.0
C2352 C 0.48664 0.16169 0.06345 0.0
C2353 C 0.47533 0.16833 0.07723 0.0
C2354 C 0.48124 0.16578 0.09514 0.0
C2355 C 0.49836 0.15648 0.0994 0.0
C2356 C 0.50957 0.14964 0.08577 0.0
C2357 C 0.50373 0.15217 0.06785 0.0
H2358 H 0.50292 0.15452 0.11327 0.0
H2359 H 0.44292 0.17727 0.93964 0.0
H2360 H 0.27643 0.33228 0.68653 0.0
H2361 H 0.29537 0.36412 0.6916 0.0
H2362 H 0.29953 0.35915 0.74868 0.0
H2363 H 0.28144 0.32679 0.74379 0.0
H2364 H 0.28697 0.39634 0.73674 0.0
H2365 H 0.33786 0.35116 0.72918 0.0
H2366 H 0.35357 0.32471 0.71281 0.0
H2367 H 0.35854 0.35974 0.66819 0.0
H2368 H 0.34258 0.3863 0.6842 0.0
H2369 H 0.3586 0.46847 0.77412 0.0
H2370 H 0.33864 0.43823 0.76424 0.0
H2371 H 0.35254 0.44395 0.7097 0.0
H2372 H 0.37342 0.4742 0.71973 0.0
H2373 H 0.35416 0.40741 0.71681 0.0
H2374 H 0.30619 0.45347 0.72382 0.0
H2375 H 0.28952 0.48031 0.73854 0.0
H2376 H 0.27718 0.44476 0.78148 0.0
H2377 H 0.29403 0.41779 0.76716 0.0
C2378 C 0.28163 0.33773 0.70018 0.0
C2379 C 0.27748 0.32679 0.71475 0.0
C2380 C 0.29232 0.35603 0.70303 0.0
C2381 C 0.29887 0.3639 0.72049 0.0
C2382 C 0.29452 0.35329 0.73509 0.0
C2383 C 0.28408 0.33484 0.73226 0.0
C2384 C 0.31025 0.38325 0.72357 0.0
C2385 C 0.30174 0.39878 0.73256 0.0
C2386 C 0.32913 0.38653 0.71737 0.0
C2387 C 0.33882 0.37062 0.7078 0.0
C2388 C 0.34213 0.35315 0.71581 0.0
C2389 C 0.35112 0.33815 0.70661 0.0
C2390 C 0.35699 0.34051 0.68945 0.0
C2391 C 0.35395 0.35791 0.68147 0.0
C2392 C 0.34495 0.37294 0.69061 0.0
C2393 C 0.35737 0.46345 0.75998 0.0
C2394 C 0.36747 0.47388 0.74767 0.0
C2395 C 0.34582 0.44614 0.75432 0.0
C2396 C 0.34365 0.43901 0.73615 0.0
C2397 C 0.35386 0.44925 0.72378 0.0
C2398 C 0.36574 0.46654 0.72951 0.0
C2399 C 0.33111 0.42057 0.73042 0.0
C2400 C 0.33933 0.40516 0.72086 0.0
C2401 C 0.31176 0.41749 0.73581 0.0
C2402 C 0.3015 0.43364 0.74446 0.0
C2403 C 0.30004 0.45142 0.73646 0.0
C2404 C 0.29054 0.46665 0.74473 0.0
C2405 C 0.28232 0.46425 0.76095 0.0
C2406 C 0.28355 0.44659 0.76892 0.0
C2407 C 0.29305 0.43131 0.76072 0.0
H2408 H 0.27498 0.47607 0.76733 0.0
H2409 H 0.36395 0.32889 0.68235 0.0
H2410 H 0.25671 0.67817 0.76316 0.0
H2411 H 0.28098 0.65556 0.75503 0.0
H2412 H 0.32234 0.6836 0.79763 0.0
H2413 H 0.29879 0.70754 0.80478 0.0
H2414 H 0.34177 0.67473 0.77101 0.0
H2415 H 0.29355 0.63847 0.80073 0.0
H2416 H 0.26036 0.6251 0.80651 0.0
H2417 H 0.25307 0.59415 0.754 0.0
H2418 H 0.28614 0.60754 0.74782 0.0
H2419 H 0.39268 0.58933 0.79107 0.0
H2420 H 0.37309 0.61786 0.7904 0.0
H2421 H 0.3504 0.59892 0.73593 0.0
H2422 H 0.37062 0.5706 0.73633 0.0
H2423 H 0.32193 0.6033 0.76502 0.0
H2424 H 0.37421 0.63804 0.73843 0.0
H2425 H 0.40866 0.65044 0.7362 0.0
H2426 H 0.40964 0.68311 0.78762 0.0
H2427 H 0.37527 0.67066 0.79029 0.0
C2428 C 0.27108 0.67989 0.77062 0.0
C2429 C 0.27565 0.69482 0.7847 0.0
C2430 C 0.2849 0.66666 0.76611 0.0
C2431 C 0.30343 0.66754 0.77593 0.0
C2432 C 0.30814 0.68251 0.78986 0.0
C2433 C 0.29448 0.69605 0.79413 0.0
C2434 C 0.31774 0.65268 0.77189 0.0
C2435 C 0.33741 0.65912 0.76985 0.0
C2436 C 0.31212 0.63224 0.77008 0.0
C2437 C 0.29222 0.62419 0.77374 0.0
C2438 C 0.28481 0.62894 0.79036 0.0
C2439 C 0.26603 0.62133 0.79372 0.0
C2440 C 0.25459 0.60883 0.78061 0.0
C2441 C 0.26193 0.60386 0.76413 0.0
C2442 C 0.28069 0.61145 0.76069 0.0
C2443 C 0.38401 0.59163 0.77876 0.0
C2444 C 0.38317 0.57787 0.76372 0.0
C2445 C 0.37285 0.60789 0.77839 0.0
C2446 C 0.36032 0.61044 0.76313 0.0
C2447 C 0.3601 0.59722 0.74779 0.0
C2448 C 0.37171 0.58116 0.74799 0.0
C2449 C 0.34578 0.62541 0.76424 0.0
C2450 C 0.32611 0.61895 0.7659 0.0
C2451 C 0.35154 0.64573 0.7662 0.0
C2452 C 0.3722 0.65327 0.76462 0.0
C2453 C 0.38182 0.64772 0.74934 0.0
C2454 C 0.40133 0.65479 0.74798 0.0
C2455 C 0.41135 0.66752 0.76177 0.0
C2456 C 0.40187 0.67324 0.77695 0.0
C2457 C 0.38236 0.6662 0.77838 0.0
H2458 H 0.42645 0.67299 0.76069 0.0
H2459 H 0.24006 0.60296 0.78324 0.0
H2460 H 0.90681 0.5231 0.44945 0.0
H2461 H 0.88098 0.50005 0.45867 0.0
H2462 H 0.91343 0.49966 0.51045 0.0
H2463 H 0.93897 0.52306 0.50148 0.0
H2464 H 0.90015 0.4606 0.48782 0.0
H2465 H 0.87804 0.52188 0.51325 0.0
H2466 H 0.86791 0.55551 0.51137 0.0
H2467 H 0.82053 0.53408 0.47185 0.0
H2468 H 0.83058 0.50032 0.4733 0.0
H2469 H 0.83601 0.40077 0.5309 0.0
H2470 H 0.85812 0.42886 0.52543 0.0
H2471 H 0.8144 0.44586 0.48592 0.0
H2472 H 0.7918 0.41833 0.49212 0.0
H2473 H 0.83314 0.47732 0.50168 0.0
H2474 H 0.85335 0.41776 0.4743 0.0
H2475 H 0.86286 0.38367 0.47252 0.0
H2476 H 0.91288 0.40073 0.51055 0.0
H2477 H 0.9035 0.43489 0.51274 0.0
C2478 C 0.90829 0.51815 0.46282 0.0
C2479 C 0.92477 0.52478 0.4748 0.0
C2480 C 0.89357 0.5051 0.46807 0.0
C2481 C 0.89536 0.49831 0.48524 0.0
C2482 C 0.91182 0.50487 0.49718 0.0
C2483 C 0.92632 0.5182 0.49208 0.0
C2484 C 0.8805 0.48361 0.49047 0.0
C2485 C 0.88558 0.46424 0.49112 0.0
C2486 C 0.86132 0.48836 0.49401 0.0
C2487 C 0.8552 0.50861 0.49323 0.0
C2488 C 0.86559 0.52436 0.50402 0.0
C2489 C 0.85983 0.54344 0.50307 0.0
C2490 C 0.84362 0.54694 0.49146 0.0
C2491 C 0.8331 0.53135 0.48082 0.0
C2492 C 0.83881 0.51224 0.48171 0.0
C2493 C 0.83099 0.41073 0.5213 0.0
C2494 C 0.8123 0.4073 0.51181 0.0
C2495 C 0.84368 0.4267 0.51808 0.0
C2496 C 0.83819 0.43913 0.50483 0.0
C2497 C 0.81905 0.4364 0.4961 0.0
C2498 C 0.80614 0.42068 0.49966 0.0
C2499 C 0.85282 0.45415 0.49937 0.0
C2500 C 0.84771 0.47357 0.4985 0.0
C2501 C 0.87188 0.44936 0.49513 0.0
C2502 C 0.87761 0.42884 0.49382 0.0
C2503 C 0.8663 0.41421 0.48238 0.0
C2504 C 0.87167 0.39488 0.48128 0.0
C2505 C 0.88843 0.39003 0.49145 0.0
C2506 C 0.89988 0.40451 0.5027 0.0
C2507 C 0.89455 0.42386 0.50387 0.0
H2508 H 0.89257 0.37505 0.49058 0.0
H2509 H 0.83919 0.56172 0.49074 0.0
H2510 H 0.81845 0.86037 0.78749 0.0
H2511 H 0.79135 0.87976 0.77754 0.0
H2512 H 0.74935 0.83688 0.79507 0.0
H2513 H 0.77628 0.81746 0.80495 0.0
H2514 H 0.73834 0.84932 0.76098 0.0
H2515 H 0.76224 0.87697 0.82122 0.0
H2516 H 0.7879 0.89207 0.84428 0.0
H2517 H 0.79863 0.94023 0.81219 0.0
H2518 H 0.77319 0.92524 0.78882 0.0
H2519 H 0.65145 0.89425 0.77456 0.0
H2520 H 0.68189 0.8778 0.77683 0.0
H2521 H 0.7146 0.93046 0.76431 0.0
H2522 H 0.68412 0.94727 0.7624 0.0
H2523 H 0.733 0.91535 0.79173 0.0
H2524 H 0.70615 0.89043 0.73329 0.0
H2525 H 0.68082 0.8756 0.70983 0.0
H2526 H 0.67619 0.82289 0.737 0.0
H2527 H 0.70129 0.8375 0.76079 0.0
C2528 C 0.80341 0.85506 0.78908 0.0
C2529 C 0.79942 0.83753 0.7971 0.0
C2530 C 0.788 0.86613 0.78345 0.0
C2531 C 0.76841 0.85974 0.78565 0.0
C2532 C 0.76439 0.84201 0.79325 0.0
C2533 C 0.77976 0.83106 0.79903 0.0
C2534 C 0.75203 0.87178 0.7807 0.0
C2535 C 0.73707 0.86373 0.76771 0.0
C2536 C 0.75082 0.89081 0.7891 0.0
C2537 C 0.766 0.89988 0.80319 0.0
C2538 C 0.77019 0.89069 0.81902 0.0
C2539 C 0.78467 0.89925 0.83216 0.0
C2540 C 0.79493 0.91707 0.82968 0.0
C2541 C 0.79069 0.9264 0.81408 0.0
C2542 C 0.77624 0.91789 0.80089 0.0
C2543 C 0.66508 0.90236 0.7722 0.0
C2544 C 0.66535 0.92208 0.76828 0.0
C2545 C 0.68247 0.89287 0.77338 0.0
C2546 C 0.70047 0.9028 0.77043 0.0
C2547 C 0.70084 0.9225 0.76654 0.0
C2548 C 0.68342 0.93207 0.76546 0.0
C2549 C 0.71893 0.89271 0.77227 0.0
C2550 C 0.73433 0.90111 0.78469 0.0
C2551 C 0.72061 0.87404 0.76322 0.0
C2552 C 0.70553 0.86513 0.7489 0.0
C2553 C 0.69963 0.87573 0.73434 0.0
C2554 C 0.68533 0.86735 0.72097 0.0
C2555 C 0.67688 0.84833 0.72194 0.0
C2556 C 0.68275 0.83763 0.73627 0.0
C2557 C 0.69704 0.84594 0.74969 0.0
H2558 H 0.6658 0.84187 0.71157 0.0
H2559 H 0.80614 0.92367 0.83986 0.0
H2560 H 0.63862 0.4933 0.91407 0.0
H2561 H 0.66522 0.51932 0.92104 0.0
H2562 H 0.64715 0.52957 0.97457 0.0
H2563 H 0.62019 0.50383 0.96755 0.0
H2564 H 0.65466 0.56384 0.95908 0.0
H2565 H 0.68707 0.50558 0.96864 0.0
H2566 H 0.69665 0.4721 0.96115 0.0
H2567 H 0.72481 0.49158 0.91587 0.0
H2568 H 0.71514 0.52514 0.92293 0.0
H2569 H 0.74396 0.62218 0.99233 0.0
H2570 H 0.71534 0.59812 0.98755 0.0
H2571 H 0.73018 0.58258 0.93368 0.0
H2572 H 0.75887 0.60631 0.93839 0.0
H2573 H 0.72418 0.55072 0.9515 0.0
H2574 H 0.69064 0.60895 0.9416 0.0
H2575 H 0.68091 0.64233 0.94932 0.0
H2576 H 0.65502 0.62286 0.99574 0.0
H2577 H 0.66484 0.5894 0.98843 0.0
C2578 C 0.64028 0.50115 0.9273 0.0
C2579 C 0.6274 0.4965 0.94029 0.0
C2580 C 0.65554 0.5159 0.9313 0.0
C2581 C 0.65824 0.52622 0.94837 0.0
C2582 C 0.64533 0.52172 0.96134 0.0
C2583 C 0.63008 0.50691 0.95737 0.0
C2584 C 0.67451 0.54179 0.95257 0.0
C2585 C 0.66991 0.56095 0.95769 0.0
C2586 C 0.69433 0.53801 0.95049 0.0
C2587 C 0.70023 0.51785 0.94623 0.0
C2588 C 0.69517 0.5027 0.957 0.0
C2589 C 0.70064 0.48371 0.95285 0.0
C2590 C 0.71129 0.4797 0.93802 0.0
C2591 C 0.71654 0.4947 0.92734 0.0
C2592 C 0.71108 0.51371 0.93142 0.0
C2593 C 0.74097 0.61383 0.97938 0.0
C2594 C 0.75376 0.61608 0.96577 0.0
C2595 C 0.72459 0.60012 0.97667 0.0
C2596 C 0.72065 0.58858 0.96025 0.0
C2597 C 0.73302 0.59127 0.94648 0.0
C2598 C 0.74939 0.60489 0.94919 0.0
C2599 C 0.70433 0.57289 0.95766 0.0
C2600 C 0.70895 0.55364 0.95293 0.0
C2601 C 0.68457 0.57661 0.96016 0.0
C2602 C 0.67867 0.59672 0.96457 0.0
C2603 C 0.68303 0.61182 0.95354 0.0
C2604 C 0.67747 0.63075 0.95783 0.0
C2605 C 0.66741 0.63473 0.97304 0.0
C2606 C 0.66285 0.61977 0.98398 0.0
C2607 C 0.66839 0.60082 0.97976 0.0
H2608 H 0.66311 0.64939 0.97633 0.0
H2609 H 0.71552 0.46499 0.93483 0.0
H2610 H 0.23338 0.68123 0.22728 0.0
H2611 H 0.20889 0.65435 0.23109 0.0
H2612 H 0.25492 0.61449 0.23456 0.0
H2613 H 0.27933 0.64104 0.23005 0.0
H2614 H 0.2238 0.59792 0.21384 0.0
H2615 H 0.23483 0.63367 0.27218 0.0
H2616 H 0.2365 0.66297 0.29377 0.0
H2617 H 0.17513 0.66965 0.28008 0.0
H2618 H 0.17317 0.64052 0.25823 0.0
H2619 H 0.17872 0.5197 0.25488 0.0
H2620 H 0.19972 0.54846 0.24921 0.0
H2621 H 0.14858 0.58152 0.24245 0.0
H2622 H 0.12733 0.55272 0.24816 0.0
H2623 H 0.17993 0.60248 0.26336 0.0
H2624 H 0.16876 0.56507 0.20628 0.0
H2625 H 0.16747 0.53538 0.18521 0.0
H2626 H 0.22965 0.53152 0.197 0.0
H2627 H 0.23126 0.56103 0.21836 0.0
C2628 C 0.23825 0.66669 0.22867 0.0
C2629 C 0.25833 0.66331 0.22845 0.0
C2630 C 0.22426 0.65139 0.23102 0.0
C2631 C 0.2301 0.63245 0.23334 0.0
C2632 C 0.25008 0.62899 0.23286 0.0
C2633 C 0.26404 0.64424 0.23046 0.0
C2634 C 0.21549 0.61617 0.23628 0.0
C2635 C 0.21435 0.59886 0.22477 0.0
C2636 C 0.20277 0.61758 0.25026 0.0
C2637 C 0.20391 0.63505 0.26343 0.0
C2638 C 0.22173 0.64148 0.27367 0.0
C2639 C 0.22272 0.65804 0.28597 0.0
C2640 C 0.20595 0.6682 0.28826 0.0
C2641 C 0.18813 0.66179 0.27828 0.0
C2642 C 0.18706 0.64524 0.26594 0.0
C2643 C 0.17189 0.53308 0.25225 0.0
C2644 C 0.15132 0.53388 0.2519 0.0
C2645 C 0.18392 0.54949 0.24894 0.0
C2646 C 0.17567 0.56703 0.24519 0.0
C2647 C 0.15521 0.56808 0.24525 0.0
C2648 C 0.14311 0.5516 0.24848 0.0
C2649 C 0.18852 0.58418 0.2411 0.0
C2650 C 0.18929 0.60163 0.25235 0.0
C2651 C 0.20098 0.58288 0.22694 0.0
C2652 C 0.20009 0.56517 0.21404 0.0
C2653 C 0.18213 0.5578 0.20449 0.0
C2654 C 0.18135 0.54102 0.19247 0.0
C2655 C 0.19846 0.53155 0.1898 0.0
C2656 C 0.21641 0.53887 0.1991 0.0
C2657 C 0.21726 0.55563 0.21115 0.0
H2658 H 0.19783 0.51856 0.18049 0.0
H2659 H 0.20674 0.68102 0.29779 0.0
H2660 H 0.93138 0.50238 0.07317 0.0
H2661 H 0.9131 0.53129 0.0684 0.0
H2662 H 0.92694 0.52828 0.01319 0.0
H2663 H 0.9454 0.49953 0.01792 0.0
H2664 H 0.93372 0.56595 0.03078 0.0
H2665 H 0.88235 0.51237 0.02292 0.0
H2666 H 0.86305 0.48384 0.03248 0.0
H2667 H 0.84633 0.51946 0.07765 0.0
H2668 H 0.86577 0.54815 0.06848 0.0
H2669 H 0.86553 0.61448 0.98041 0.0
H2670 H 0.88729 0.59298 0.9951 0.0
H2671 H 0.86075 0.60455 0.04477 0.0
H2672 H 0.83849 0.62608 0.02996 0.0
H2673 H 0.86176 0.56591 0.03633 0.0
H2674 H 0.90858 0.62077 0.04164 0.0
H2675 H 0.92755 0.64956 0.03221 0.0
H2676 H 0.95305 0.61255 0.99288 0.0
H2677 H 0.93402 0.58356 0.00187 0.0
C2678 C 0.93051 0.50792 0.06003 0.0
C2679 C 0.93977 0.49872 0.04589 0.0
C2680 C 0.92003 0.52435 0.05732 0.0
C2681 C 0.91869 0.53187 0.04045 0.0
C2682 C 0.92786 0.52269 0.02632 0.0
C2683 C 0.93822 0.50619 0.02898 0.0
C2684 C 0.90774 0.54933 0.03741 0.0
C2685 C 0.91797 0.56596 0.03189 0.0
C2686 C 0.88738 0.54957 0.03964 0.0
C2687 C 0.87572 0.53233 0.04515 0.0
C2688 C 0.87471 0.51407 0.03499 0.0
C2689 C 0.86372 0.49788 0.04031 0.0
C2690 C 0.85352 0.49982 0.0557 0.0
C2691 C 0.85427 0.51797 0.06576 0.0
C2692 C 0.86527 0.5342 0.0605 0.0
C2693 C 0.86447 0.61274 0.99454 0.0
C2694 C 0.8502 0.6219 0.004 0.0
C2695 C 0.87705 0.60053 0.00297 0.0
C2696 C 0.87577 0.59729 0.02108 0.0
C2697 C 0.86201 0.60693 0.03079 0.0
C2698 C 0.84938 0.61927 0.02234 0.0
C2699 C 0.8876 0.58238 0.02908 0.0
C2700 C 0.87759 0.56617 0.03557 0.0
C2701 C 0.9082 0.58259 0.02785 0.0
C2702 C 0.91978 0.59998 0.02239 0.0
C2703 C 0.91813 0.61878 0.03089 0.0
C2704 C 0.92891 0.63514 0.02564 0.0
C2705 C 0.94148 0.63289 0.01194 0.0
C2706 C 0.94331 0.61427 0.00349 0.0
C2707 C 0.93256 0.59786 0.00869 0.0
H2708 H 0.94981 0.64558 0.00789 0.0
H2709 H 0.84501 0.48728 0.05979 0.0
H2710 H 0.09826 0.01096 0.07286 0.0
H2711 H 0.12462 0.98904 0.06864 0.0
H2712 H 0.10521 0.97877 0.01226 0.0
H2713 H 0.07866 0.0005 0.01643 0.0
H2714 H 0.11389 0.94452 0.02748 0.0
H2715 H 0.14462 0.00938 0.02503 0.0
H2716 H 0.1538 0.044 0.03587 0.0
H2717 H 0.18454 0.02601 0.08332 0.0
H2718 H 0.17529 0.99126 0.07288 0.0
H2719 H 0.20032 0.90061 0.00123 0.0
H2720 H 0.17256 0.92111 0.00397 0.0
H2721 H 0.19347 0.93883 0.05916 0.0
H2722 H 0.22141 0.91887 0.05638 0.0
H2723 H 0.18367 0.96956 0.04341 0.0
H2724 H 0.15255 0.90501 0.04678 0.0
H2725 H 0.1431 0.87024 0.03665 0.0
H2726 H 0.11296 0.88723 0.98848 0.0
H2727 H 0.12246 0.92212 0.99822 0.0
C2728 C 0.0995 0.00391 0.05959 0.0
C2729 C 0.08642 0.00755 0.04496 0.0
C2730 C 0.11465 0.99148 0.05718 0.0
C2731 C 0.11701 0.9824 0.04009 0.0
C2732 C 0.10371 0.98566 0.02554 0.0
C2733 C 0.08864 0.9982 0.02792 0.0
C2734 C 0.13353 0.96974 0.03739 0.0
C2735 C 0.12917 0.95004 0.03073 0.0
C2736 C 0.15344 0.97683 0.04197 0.0
C2737 C 0.15909 0.99772 0.04825 0.0
C2738 C 0.1532 0.01281 0.03784 0.0
C2739 C 0.15844 0.03246 0.0439 0.0
C2740 C 0.16971 0.03721 0.06029 0.0
C2741 C 0.1758 0.02231 0.07064 0.0
C2742 C 0.17057 0.00263 0.06465 0.0
C2743 C 0.19894 0.9088 0.01397 0.0
C2744 C 0.2131 0.90808 0.02858 0.0
C2745 C 0.18301 0.92047 0.01555 0.0
C2746 C 0.18077 0.93143 0.03184 0.0
C2747 C 0.19485 0.93059 0.04644 0.0
C2748 C 0.21082 0.91909 0.04483 0.0
C2749 C 0.16409 0.94418 0.03368 0.0
C2750 C 0.16841 0.96397 0.04014 0.0
C2751 C 0.14415 0.93711 0.02902 0.0
C2752 C 0.1384 0.91616 0.02314 0.0
C2753 C 0.14404 0.90132 0.03396 0.0
C2754 C 0.13865 0.88159 0.0283 0.0
C2755 C 0.12749 0.87653 0.0119 0.0
C2756 C 0.12164 0.89118 0.00116 0.0
C2757 C 0.127 0.91093 0.00675 0.0
H2758 H 0.12332 0.86124 0.00755 0.0
H2759 H 0.17376 0.05243 0.06496 0.0
loop_
_geom_bond_atom_site_label_1
_geom_bond_atom_site_label_2
_geom_bond_distance
_geom_bond_site_symmetry_2
_ccdc_geom_bond_type
H0 C5 0.930 . S
H1 C8 0.930 . S
H2 C10 0.930 . S
H3 C4 1.016 . S
C4 H3 1.016 . S
C4 N11 1.286 . S
C5 H0 0.930 . S
C5 C6 1.397 . S
C5 C7 1.361 . S
C6 C5 1.397 . S
C6 C10 1.390 . S
C7 C5 1.361 . S
C7 C8 1.393 . S
C7 N11 1.413 . S
C8 H1 0.930 . S
C8 C7 1.393 . S
C8 C9 1.399 . S
C9 C8 1.399 . S
C9 C10 1.381 . S
C10 H2 0.930 . S
C10 C6 1.390 . S
C10 C9 1.381 . S
N11 C4 1.286 . S
N11 C7 1.413 . S
H12 C17 0.930 . S
H13 C20 0.930 . S
H14 C22 0.930 . S
H15 C16 1.016 . S
C16 H15 1.016 . S
C16 N23 1.286 . S
C17 H12 0.930 . S
C17 C18 1.397 . S
C17 C19 1.361 . S
C18 C17 1.397 . S
C18 C22 1.390 . S
C19 C17 1.361 . S
C19 C20 1.393 . S
C19 N23 1.413 . S
C20 H13 0.930 . S
C20 C19 1.393 . S
C20 C21 1.399 . S
C21 C20 1.399 . S
C21 C22 1.381 . S
C22 H14 0.930 . S
C22 C18 1.390 . S
C22 C21 1.381 . S
N23 C16 1.286 . S
N23 C19 1.413 . S
H24 C29 0.930 . S
H25 C32 0.930 . S
H26 C34 0.930 . S
H27 C28 1.016 . S
C28 H27 1.016 . S
C28 N35 1.286 . S
C29 H24 0.930 . S
C29 C30 1.397 . S
C29 C31 1.361 . S
C30 C29 1.397 . S
C30 C34 1.390 . S
C31 C29 1.361 . S
C31 C32 1.393 . S
C31 N35 1.413 . S
C32 H25 0.930 . S
C32 C31 1.393 . S
C32 C33 1.399 . S
C33 C32 1.399 . S
C33 C34 1.381 . S
C34 H26 0.930 . S
C34 C30 1.390 . S
C34 C33 1.381 . S
N35 C28 1.286 . S
N35 C31 1.413 . S
H36 C41 0.930 . S
H37 C44 0.930 . S
H38 C46 0.930 . S
H39 C40 1.016 . S
C40 H39 1.016 . S
C40 N47 1.286 . S
C41 H36 0.930 . S
C41 C42 1.397 . S
C41 C43 1.361 . S
C42 C41 1.397 . S
C42 C46 1.390 . S
C43 C41 1.361 . S
C43 C44 1.393 . S
C43 N47 1.413 . S
C44 H37 0.930 . S
C44 C43 1.393 . S
C44 C45 1.399 . S
C45 C44 1.399 . S
C45 C46 1.381 . S
C46 H38 0.930 . S
C46 C42 1.390 . S
C46 C45 1.381 . S
N47 C40 1.286 . S
N47 C43 1.413 . S
H48 C53 0.930 . S
H49 C56 0.930 . S
H50 C58 0.930 . S
H51 C52 1.016 . S
C52 H51 1.016 . S
C52 N59 1.286 . S
C53 H48 0.930 . S
C53 C54 1.397 . S
C53 C55 1.361 . S
C54 C53 1.397 . S
C54 C58 1.390 . S
C55 C53 1.361 . S
C55 C56 1.393 . S
C55 N59 1.413 . S
C56 H49 0.930 . S
C56 C55 1.393 . S
C56 C57 1.399 . S
C57 C56 1.399 . S
C57 C58 1.381 . S
C58 H50 0.930 . S
C58 C54 1.390 . S
C58 C57 1.381 . S
N59 C52 1.286 . S
N59 C55 1.413 . S
H60 C65 0.930 . S
H61 C68 0.930 . S
H62 C70 0.930 . S
H63 C64 1.016 . S
C64 H63 1.016 . S
C64 N71 1.286 . S
C65 H60 0.930 . S
C65 C66 1.397 . S
C65 C67 1.361 . S
C66 C65 1.397 . S
C66 C70 1.390 . S
C67 C65 1.361 . S
C67 C68 1.393 . S
C67 N71 1.413 . S
C68 H61 0.930 . S
C68 C67 1.393 . S
C68 C69 1.399 . S
C69 C68 1.399 . S
C69 C70 1.381 . S
C70 H62 0.930 . S
C70 C66 1.390 . S
C70 C69 1.381 . S
N71 C64 1.286 . S
N71 C67 1.413 . S
H72 C77 0.930 . S
H73 C80 0.930 . S
H74 C82 0.930 . S
H75 C76 1.016 . S
C76 H75 1.016 . S
C76 N83 1.286 . S
C77 H72 0.930 . S
C77 C78 1.397 . S
C77 C79 1.361 . S
C78 C77 1.397 . S
C78 C82 1.390 . S
C79 C77 1.361 . S
C79 C80 1.393 . S
C79 N83 1.413 . S
C80 H73 0.930 . S
C80 C79 1.393 . S
C80 C81 1.399 . S
C81 C80 1.399 . S
C81 C82 1.381 . S
C82 H74 0.930 . S
C82 C78 1.390 . S
C82 C81 1.381 . S
N83 C76 1.286 . S
N83 C79 1.413 . S
H84 C89 0.930 . S
H85 C92 0.930 . S
H86 C94 0.930 . S
H87 C88 1.016 . S
C88 H87 1.016 . S
C88 N95 1.286 . S
C89 H84 0.930 . S
C89 C90 1.397 . S
C89 C91 1.361 . S
C90 C89 1.397 . S
C90 C94 1.390 . S
C91 C89 1.361 . S
C91 C92 1.393 . S
C91 N95 1.413 . S
C92 H85 0.930 . S
C92 C91 1.393 . S
C92 C93 1.399 . S
C93 C92 1.399 . S
C93 C94 1.381 . S
C94 H86 0.930 . S
C94 C90 1.390 . S
C94 C93 1.381 . S
N95 C88 1.286 . S
N95 C91 1.413 . S
H96 C101 0.930 . S
H97 C104 0.930 . S
H98 C106 0.930 . S
H99 C100 1.016 . S
C100 H99 1.016 . S
C100 N107 1.286 . S
C101 H96 0.930 . S
C101 C102 1.397 . S
C101 C103 1.361 . S
C102 C101 1.397 . S
C102 C106 1.390 . S
C103 C101 1.361 . S
C103 C104 1.393 . S
C103 N107 1.413 . S
C104 H97 0.930 . S
C104 C103 1.393 . S
C104 C105 1.399 . S
C105 C104 1.399 . S
C105 C106 1.381 . S
C106 H98 0.930 . S
C106 C102 1.390 . S
C106 C105 1.381 . S
N107 C100 1.286 . S
N107 C103 1.413 . S
H108 C113 0.930 . S
H109 C116 0.930 . S
H110 C118 0.930 . S
H111 C112 1.016 . S
C112 H111 1.016 . S
C112 N119 1.286 . S
C113 H108 0.930 . S
C113 C114 1.397 . S
C113 C115 1.361 . S
C114 C113 1.397 . S
C114 C118 1.390 . S
C115 C113 1.361 . S
C115 C116 1.393 . S
C115 N119 1.413 . S
C116 H109 0.930 . S
C116 C115 1.393 . S
C116 C117 1.399 . S
C117 C116 1.399 . S
C117 C118 1.381 . S
C118 H110 0.930 . S
C118 C114 1.390 . S
C118 C117 1.381 . S
N119 C112 1.286 . S
N119 C115 1.413 . S
H120 C125 0.930 . S
H121 C128 0.930 . S
H122 C130 0.930 . S
H123 C124 1.016 . S
C124 H123 1.016 . S
C124 N131 1.286 . S
C125 H120 0.930 . S
C125 C126 1.397 . S
C125 C127 1.361 . S
C126 C125 1.397 . S
C126 C130 1.390 . S
C127 C125 1.361 . S
C127 C128 1.393 . S
C127 N131 1.413 . S
C128 H121 0.930 . S
C128 C127 1.393 . S
C128 C129 1.399 . S
C129 C128 1.399 . S
C129 C130 1.381 . S
C130 H122 0.930 . S
C130 C126 1.390 . S
C130 C129 1.381 . S
N131 C124 1.286 . S
N131 C127 1.413 . S
H132 C137 0.930 . S
H133 C140 0.930 . S
H134 C142 0.930 . S
H135 C136 1.016 . S
C136 H135 1.016 . S
C136 N143 1.286 . S
C137 H132 0.930 . S
C137 C138 1.397 . S
C137 C139 1.361 . S
C138 C137 1.397 . S
C138 C142 1.390 . S
C139 C137 1.361 . S
C139 C140 1.393 . S
C139 N143 1.413 . S
C140 H133 0.930 . S
C140 C139 1.393 . S
C140 C141 1.399 . S
C141 C140 1.399 . S
C141 C142 1.381 . S
C142 H134 0.930 . S
C142 C138 1.390 . S
C142 C141 1.381 . S
N143 C136 1.286 . S
N143 C139 1.413 . S
H144 C149 0.930 . S
H145 C152 0.930 . S
H146 C154 0.930 . S
H147 C148 1.016 . S
C148 H147 1.016 . S
C148 N155 1.286 . S
C149 H144 0.930 . S
C149 C150 1.397 . S
C149 C151 1.361 . S
C150 C149 1.397 . S
C150 C154 1.390 . S
C151 C149 1.361 . S
C151 C152 1.393 . S
C151 N155 1.413 . S
C152 H145 0.930 . S
C152 C151 1.393 . S
C152 C153 1.399 . S
C153 C152 1.399 . S
C153 C154 1.381 . S
C154 H146 0.930 . S
C154 C150 1.390 . S
C154 C153 1.381 . S
N155 C148 1.286 . S
N155 C151 1.413 . S
H156 C161 0.930 . S
H157 C164 0.930 . S
H158 C166 0.930 . S
H159 C160 1.016 . S
C160 H159 1.016 . S
C160 N167 1.286 . S
C161 H156 0.930 . S
C161 C162 1.397 . S
C161 C163 1.361 . S
C162 C161 1.397 . S
C162 C166 1.390 . S
C163 C161 1.361 . S
C163 C164 1.393 . S
C163 N167 1.413 . S
C164 H157 0.930 . S
C164 C163 1.393 . S
C164 C165 1.399 . S
C165 C164 1.399 . S
C165 C166 1.381 . S
C166 H158 0.930 . S
C166 C162 1.390 . S
C166 C165 1.381 . S
N167 C160 1.286 . S
N167 C163 1.413 . S
H168 C173 0.930 . S
H169 C176 0.930 . S
H170 C178 0.930 . S
H171 C172 1.016 . S
C172 H171 1.016 . S
C172 N179 1.286 . S
C173 H168 0.930 . S
C173 C174 1.397 . S
C173 C175 1.361 . S
C174 C173 1.397 . S
C174 C178 1.390 . S
C175 C173 1.361 . S
C175 C176 1.393 . S
C175 N179 1.413 . S
C176 H169 0.930 . S
C176 C175 1.393 . S
C176 C177 1.399 . S
C177 C176 1.399 . S
C177 C178 1.381 . S
C178 H170 0.930 . S
C178 C174 1.390 . S
C178 C177 1.381 . S
N179 C172 1.286 . S
N179 C175 1.413 . S
H180 C185 0.930 . S
H181 C188 0.930 . S
H182 C190 0.930 . S
H183 C184 1.016 . S
C184 H183 1.016 . S
C184 N191 1.286 . S
C185 H180 0.930 . S
C185 C186 1.397 . S
C185 C187 1.361 . S
C186 C185 1.397 . S
C186 C190 1.390 . S
C187 C185 1.361 . S
C187 C188 1.393 . S
C187 N191 1.413 . S
C188 H181 0.930 . S
C188 C187 1.393 . S
C188 C189 1.399 . S
C189 C188 1.399 . S
C189 C190 1.381 . S
C190 H182 0.930 . S
C190 C186 1.390 . S
C190 C189 1.381 . S
N191 C184 1.286 . S
N191 C187 1.413 . S
Zn192 O195 2.031 . S
Zn192 O197 2.049 . S
Zn192 O202 2.067 1_554 S
Zn193 O194 1.962 . S
Zn193 O196 1.986 . S
Zn193 O198 1.996 . S
Zn193 O201 1.943 1_554 S
O194 Zn193 1.962 . S
O194 C199 1.254 . S
O195 Zn192 2.031 . S
O195 C199 1.269 . S
O196 Zn193 1.986 . S
O196 C203 1.262 . S
O197 Zn192 2.049 . S
O197 C205 1.260 . S
O198 Zn193 1.996 . S
O198 C205 1.257 . S
C199 O194 1.254 . S
C199 O195 1.269 . S
C200 O201 1.249 . S
C200 O202 1.270 . S
O201 Zn193 1.943 1_556 S
O201 C200 1.249 . S
O202 Zn192 2.067 1_556 S
O202 C200 1.270 . S
C203 O196 1.262 . S
C203 O204 1.232 . S
O204 C203 1.232 . S
C205 O197 1.260 . S
C205 O198 1.257 . S
Zn206 O209 2.031 . S
Zn206 O211 2.049 . S
Zn206 O216 2.067 . S
Zn207 O208 1.962 . S
Zn207 O210 1.986 . S
Zn207 O212 1.996 . S
Zn207 O215 1.943 . S
O208 Zn207 1.962 . S
O208 C213 1.254 . S
O209 Zn206 2.031 . S
O209 C213 1.269 . S
O210 Zn207 1.986 . S
O210 C217 1.262 . S
O211 Zn206 2.049 . S
O211 C219 1.260 . S
O212 Zn207 1.996 . S
O212 C219 1.257 . S
C213 O208 1.254 . S
C213 O209 1.269 . S
C214 O215 1.249 . S
C214 O216 1.270 . S
O215 Zn207 1.943 . S
O215 C214 1.249 . S
O216 Zn206 2.067 . S
O216 C214 1.270 . S
C217 O210 1.262 . S
C217 O218 1.232 . S
O218 C217 1.232 . S
C219 O211 1.260 . S
C219 O212 1.257 . S
Zn220 O223 2.031 . S
Zn220 O225 2.049 . S
Zn220 O230 2.067 . S
Zn221 O222 1.962 . S
Zn221 O224 1.986 . S
Zn221 O226 1.996 1_554 S
Zn221 O229 1.943 . S
O222 Zn221 1.962 . S
O222 C227 1.254 . S
O223 Zn220 2.031 . S
O223 C227 1.269 1_556 S
O224 Zn221 1.986 . S
O224 C231 1.262 . S
O225 Zn220 2.049 . S
O225 C233 1.260 . S
O226 Zn221 1.996 1_556 S
O226 C233 1.257 . S
C227 O222 1.254 . S
C227 O223 1.269 1_554 S
C228 O229 1.249 1_556 S
C228 O230 1.270 . S
O229 Zn221 1.943 . S
O229 C228 1.249 1_554 S
O230 Zn220 2.067 . S
O230 C228 1.270 . S
C231 O224 1.262 . S
C231 O232 1.232 . S
O232 C231 1.232 . S
C233 O225 1.260 . S
C233 O226 1.257 . S
Zn234 O237 2.031 . S
Zn234 O239 2.049 . S
Zn234 O244 2.067 1_545 S
Zn235 O236 1.962 . S
Zn235 O238 1.986 . S
Zn235 O240 1.996 . S
Zn235 O243 1.943 1_545 S
O236 Zn235 1.962 . S
O236 C241 1.254 . S
O237 Zn234 2.031 . S
O237 C241 1.269 . S
O238 Zn235 1.986 . S
O238 C245 1.262 . S
O239 Zn234 2.049 . S
O239 C247 1.260 . S
O240 Zn235 1.996 . S
O240 C247 1.257 . S
C241 O236 1.254 . S
C241 O237 1.269 . S
C242 O243 1.249 . S
C242 O244 1.270 . S
O243 Zn235 1.943 1_565 S
O243 C242 1.249 . S
O244 Zn234 2.067 1_565 S
O244 C242 1.270 . S
C245 O238 1.262 . S
C245 O246 1.232 . S
O246 C245 1.232 . S
C247 O239 1.260 . S
C247 O240 1.257 . S
Zn248 O251 2.031 . S
Zn248 O253 2.049 . S
Zn248 O258 2.067 . S
Zn249 O250 1.962 . S
Zn249 O252 1.986 . S
Zn249 O254 1.996 . S
Zn249 O257 1.943 . S
O250 Zn249 1.962 . S
O250 C255 1.254 . S
O251 Zn248 2.031 . S
O251 C255 1.269 . S
O252 Zn249 1.986 . S
O252 C259 1.262 . S
O253 Zn248 2.049 . S
O253 C261 1.260 . S
O254 Zn249 1.996 . S
O254 C261 1.257 . S
C255 O250 1.254 . S
C255 O251 1.269 . S
C256 O257 1.249 . S
C256 O258 1.270 . S
O257 Zn249 1.943 . S
O257 C256 1.249 . S
O258 Zn248 2.067 . S
O258 C256 1.270 . S
C259 O252 1.262 . S
C259 O260 1.232 . S
O260 C259 1.232 . S
C261 O253 1.260 . S
C261 O254 1.257 . S
Zn262 O265 2.031 . S
Zn262 O267 2.049 . S
Zn262 O272 2.067 . S
Zn263 O264 1.962 . S
Zn263 O266 1.986 . S
Zn263 O268 1.996 . S
Zn263 O271 1.943 . S
O264 Zn263 1.962 . S
O264 C269 1.254 . S
O265 Zn262 2.031 . S
O265 C269 1.269 . S
O266 Zn263 1.986 . S
O266 C273 1.262 . S
O267 Zn262 2.049 . S
O267 C275 1.260 . S
O268 Zn263 1.996 . S
O268 C275 1.257 . S
C269 O264 1.254 . S
C269 O265 1.269 . S
C270 O271 1.249 . S
C270 O272 1.270 . S
O271 Zn263 1.943 . S
O271 C270 1.249 . S
O272 Zn262 2.067 . S
O272 C270 1.270 . S
C273 O266 1.262 . S
C273 O274 1.232 . S
O274 C273 1.232 . S
C275 O267 1.260 . S
C275 O268 1.257 . S
Zn276 O279 2.031 . S
Zn276 O281 2.049 . S
Zn276 O286 2.067 . S
Zn277 O278 1.962 . S
Zn277 O280 1.986 . S
Zn277 O282 1.996 . S
Zn277 O285 1.943 . S
O278 Zn277 1.962 . S
O278 C283 1.254 . S
O279 Zn276 2.031 . S
O279 C283 1.269 . S
O280 Zn277 1.986 . S
O280 C287 1.262 . S
O281 Zn276 2.049 . S
O281 C289 1.260 . S
O282 Zn277 1.996 . S
O282 C289 1.257 . S
C283 O278 1.254 . S
C283 O279 1.269 . S
C284 O285 1.249 . S
C284 O286 1.270 . S
O285 Zn277 1.943 . S
O285 C284 1.249 . S
O286 Zn276 2.067 . S
O286 C284 1.270 . S
C287 O280 1.262 . S
C287 O288 1.232 . S
O288 C287 1.232 . S
C289 O281 1.260 . S
C289 O282 1.257 . S
Zn290 O293 2.031 . S
Zn290 O295 2.049 . S
Zn290 O300 2.067 . S
Zn291 O292 1.962 . S
Zn291 O294 1.986 . S
Zn291 O296 1.996 1_545 S
Zn291 O299 1.943 . S
O292 Zn291 1.962 . S
O292 C297 1.254 . S
O293 Zn290 2.031 . S
O293 C297 1.269 1_565 S
O294 Zn291 1.986 . S
O294 C301 1.262 . S
O295 Zn290 2.049 . S
O295 C303 1.260 . S
O296 Zn291 1.996 1_565 S
O296 C303 1.257 . S
C297 O292 1.254 . S
C297 O293 1.269 1_545 S
C298 O299 1.249 1_565 S
C298 O300 1.270 . S
O299 Zn291 1.943 . S
O299 C298 1.249 1_545 S
O300 Zn290 2.067 . S
O300 C298 1.270 . S
C301 O294 1.262 . S
C301 O302 1.232 . S
O302 C301 1.232 . S
C303 O295 1.260 . S
C303 O296 1.257 . S
Zn304 O307 2.031 . S
Zn304 O309 2.049 1_455 S
Zn304 O314 2.067 1_455 S
Zn305 O306 1.962 . S
Zn305 O308 1.986 . S
Zn305 O310 1.996 . S
Zn305 O313 1.943 1_455 S
O306 Zn305 1.962 . S
O306 C311 1.254 . S
O307 Zn304 2.031 . S
O307 C311 1.269 . S
O308 Zn305 1.986 . S
O308 C315 1.262 . S
O309 Zn304 2.049 1_655 S
O309 C317 1.260 1_655 S
O310 Zn305 1.996 . S
O310 C317 1.257 . S
C311 O306 1.254 . S
C311 O307 1.269 . S
C312 O313 1.249 . S
C312 O314 1.270 . S
O313 Zn305 1.943 1_655 S
O313 C312 1.249 . S
O314 Zn304 2.067 1_655 S
O314 C312 1.270 . S
C315 O308 1.262 . S
C315 O316 1.232 . S
O316 C315 1.232 . S
C317 O309 1.260 1_455 S
C317 O310 1.257 . S
Zn318 O321 2.031 . S
Zn318 O323 2.049 . S
Zn318 O328 2.067 . S
Zn319 O320 1.962 . S
Zn319 O322 1.986 . S
Zn319 O324 1.996 . S
Zn319 O327 1.943 . S
O320 Zn319 1.962 . S
O320 C325 1.254 . S
O321 Zn318 2.031 . S
O321 C325 1.269 . S
O322 Zn319 1.986 . S
O322 C329 1.262 . S
O323 Zn318 2.049 . S
O323 C331 1.260 . S
O324 Zn319 1.996 . S
O324 C331 1.257 . S
C325 O320 1.254 . S
C325 O321 1.269 . S
C326 O327 1.249 . S
C326 O328 1.270 . S
O327 Zn319 1.943 . S
O327 C326 1.249 . S
O328 Zn318 2.067 . S
O328 C326 1.270 . S
C329 O322 1.262 . S
C329 O330 1.232 . S
O330 C329 1.232 . S
C331 O323 1.260 . S
C331 O324 1.257 . S
Zn332 O335 2.031 1_655 S
Zn332 O337 2.049 . S
Zn332 O342 2.067 . S
Zn333 O334 1.962 . S
Zn333 O336 1.986 . S
Zn333 O338 1.996 1_455 S
Zn333 O341 1.943 . S
O334 Zn333 1.962 . S
O334 C339 1.254 . S
O335 Zn332 2.031 1_455 S
O335 C339 1.269 . S
O336 Zn333 1.986 . S
O336 C343 1.262 . S
O337 Zn332 2.049 . S
O337 C345 1.260 . S
O338 Zn333 1.996 1_655 S
O338 C345 1.257 . S
C339 O334 1.254 . S
C339 O335 1.269 . S
C340 O341 1.249 . S
C340 O342 1.270 1_455 S
O341 Zn333 1.943 . S
O341 C340 1.249 . S
O342 Zn332 2.067 . S
O342 C340 1.270 1_655 S
C343 O336 1.262 . S
C343 O344 1.232 . S
O344 C343 1.232 . S
C345 O337 1.260 . S
C345 O338 1.257 . S
Zn346 O349 2.031 . S
Zn346 O351 2.049 . S
Zn346 O356 2.067 . S
Zn347 O348 1.962 . S
Zn347 O350 1.986 . S
Zn347 O352 1.996 . S
Zn347 O355 1.943 . S
O348 Zn347 1.962 . S
O348 C353 1.254 . S
O349 Zn346 2.031 . S
O349 C353 1.269 . S
O350 Zn347 1.986 . S
O350 C357 1.262 . S
O351 Zn346 2.049 . S
O351 C359 1.260 . S
O352 Zn347 1.996 . S
O352 C359 1.257 . S
C353 O348 1.254 . S
C353 O349 1.269 . S
C354 O355 1.249 . S
C354 O356 1.270 . S
O355 Zn347 1.943 . S
O355 C354 1.249 . S
O356 Zn346 2.067 . S
O356 C354 1.270 . S
C357 O350 1.262 . S
C357 O358 1.232 . S
O358 C357 1.232 . S
C359 O351 1.260 . S
C359 O352 1.257 . S
H360 C378 0.951 . S
H361 C380 0.951 . S
H362 C382 0.950 . S
H363 C383 0.950 . S
H364 C385 0.950 . S
H365 C388 0.950 . S
H366 C389 0.950 . S
H367 C391 0.950 . S
H368 C392 0.950 . S
H369 C393 0.951 . S
H370 C395 0.951 . S
H371 C397 0.950 . S
H372 C398 0.950 . S
H373 C400 0.950 . S
H374 C403 0.950 . S
H375 C404 0.950 . S
H376 C406 0.950 . S
H377 C407 0.950 . S
C378 H360 0.951 . S
C378 C379 1.366 . S
C378 C380 1.388 . S
C379 C378 1.366 . S
C379 C383 1.385 . S
C380 H361 0.951 . S
C380 C378 1.388 . S
C380 C381 1.366 . S
C381 C380 1.366 . S
C381 C382 1.414 . S
C381 C384 1.499 . S
C382 H362 0.950 . S
C382 C381 1.414 . S
C382 C383 1.374 . S
C383 H363 0.950 . S
C383 C379 1.385 . S
C383 C382 1.374 . S
C384 C381 1.499 . S
C384 C385 1.373 . S
C384 C386 1.389 . S
C385 H364 0.950 . S
C385 C384 1.373 . S
C385 C401 1.377 . S
C386 C384 1.389 . S
C386 C387 1.524 . S
C386 C400 1.377 . S
C387 C386 1.524 . S
C387 C388 1.397 . S
C387 C392 1.363 . S
C388 H365 0.950 . S
C388 C387 1.397 . S
C388 C389 1.334 . S
C389 H366 0.950 . S
C389 C388 1.334 . S
C389 C390 1.287 . S
C390 C389 1.287 . S
C390 C391 1.524 . S
C390 H409 0.913 . S
C391 H367 0.950 . S
C391 C390 1.524 . S
C391 C392 1.415 . S
C392 H368 0.950 . S
C392 C387 1.363 . S
C392 C391 1.415 . S
C393 H369 0.951 . S
C393 C394 1.366 . S
C393 C395 1.388 . S
C394 C393 1.366 . S
C394 C398 1.385 . S
C395 H370 0.951 . S
C395 C393 1.388 . S
C395 C396 1.366 . S
C396 C395 1.366 . S
C396 C397 1.414 . S
C396 C399 1.499 . S
C397 H371 0.950 . S
C397 C396 1.414 . S
C397 C398 1.374 . S
C398 H372 0.950 . S
C398 C394 1.385 . S
C398 C397 1.374 . S
C399 C396 1.499 . S
C399 C400 1.373 . S
C399 C401 1.389 . S
C400 H373 0.950 . S
C400 C386 1.377 . S
C400 C399 1.373 . S
C401 C385 1.377 . S
C401 C399 1.389 . S
C401 C402 1.524 . S
C402 C401 1.524 . S
C402 C403 1.397 . S
C402 C407 1.363 . S
C403 H374 0.950 . S
C403 C402 1.397 . S
C403 C404 1.334 . S
C404 H375 0.950 . S
C404 C403 1.334 . S
C404 C405 1.287 . S
C405 C404 1.287 . S
C405 C406 1.524 . S
C405 H408 0.999 . S
C406 H376 0.950 . S
C406 C405 1.524 . S
C406 C407 1.415 . S
C407 H377 0.950 . S
C407 C402 1.363 . S
C407 C406 1.415 . S
H408 C405 0.999 . S
H409 C390 0.913 . S
H410 C428 0.951 . S
H411 C430 0.951 . S
H412 C432 0.950 . S
H413 C433 0.950 1_655 S
H414 C435 0.950 . S
H415 C438 0.950 . S
H416 C439 0.950 1_655 S
H417 C441 0.950 . S
H418 C442 0.950 . S
H419 C443 0.951 . S
H420 C445 0.951 . S
H421 C447 0.950 . S
H422 C448 0.950 . S
H423 C450 0.950 . S
H424 C453 0.950 . S
H425 C454 0.950 . S
H426 C456 0.950 . S
H427 C457 0.950 . S
C428 H410 0.951 . S
C428 C429 1.366 . S
C428 C430 1.388 . S
C429 C428 1.366 . S
C429 C433 1.385 . S
C430 H411 0.951 . S
C430 C428 1.388 . S
C430 C431 1.366 . S
C431 C430 1.366 . S
C431 C432 1.414 . S
C431 C434 1.499 . S
C432 H412 0.950 . S
C432 C431 1.414 . S
C432 C433 1.374 . S
C433 H413 0.950 1_455 S
C433 C429 1.385 . S
C433 C432 1.374 . S
C434 C431 1.499 . S
C434 C435 1.373 . S
C434 C436 1.389 . S
C435 H414 0.950 . S
C435 C434 1.373 . S
C435 C451 1.377 . S
C436 C434 1.389 . S
C436 C437 1.524 . S
C436 C450 1.377 . S
C437 C436 1.524 . S
C437 C438 1.397 . S
C437 C442 1.363 . S
C438 H415 0.950 . S
C438 C437 1.397 . S
C438 C439 1.334 . S
C439 H416 0.950 1_455 S
C439 C438 1.334 . S
C439 C440 1.287 . S
C440 C439 1.287 . S
C440 C441 1.524 . S
C440 H459 0.913 . S
C441 H417 0.950 . S
C441 C440 1.524 . S
C441 C442 1.415 . S
C442 H418 0.950 . S
C442 C437 1.363 . S
C442 C441 1.415 . S
C443 H419 0.951 . S
C443 C444 1.366 . S
C443 C445 1.388 . S
C444 C443 1.366 . S
C444 C448 1.385 . S
C445 H420 0.951 . S
C445 C443 1.388 . S
C445 C446 1.366 . S
C446 C445 1.366 . S
C446 C447 1.414 . S
C446 C449 1.499 . S
C447 H421 0.950 . S
C447 C446 1.414 . S
C447 C448 1.374 . S
C448 H422 0.950 . S
C448 C444 1.385 . S
C448 C447 1.374 . S
C449 C446 1.499 . S
C449 C450 1.373 . S
C449 C451 1.389 . S
C450 H423 0.950 . S
C450 C436 1.377 . S
C450 C449 1.373 . S
C451 C435 1.377 . S
C451 C449 1.389 . S
C451 C452 1.524 . S
C452 C451 1.524 . S
C452 C453 1.397 . S
C452 C457 1.363 . S
C453 H424 0.950 . S
C453 C452 1.397 . S
C453 C454 1.334 . S
C454 H425 0.950 . S
C454 C453 1.334 . S
C454 C455 1.287 . S
C455 C454 1.287 . S
C455 C456 1.524 . S
C455 H458 0.999 . S
C456 H426 0.950 . S
C456 C455 1.524 . S
C456 C457 1.415 . S
C457 H427 0.950 . S
C457 C452 1.363 . S
C457 C456 1.415 . S
H458 C455 0.999 . S
H459 C440 0.913 . S
H460 C478 0.951 . S
H461 C480 0.951 . S
H462 C482 0.950 . S
H463 C483 0.950 . S
H464 C485 0.950 . S
H465 C488 0.950 . S
H466 C489 0.950 . S
H467 C491 0.950 . S
H468 C492 0.950 . S
H469 C493 0.951 . S
H470 C495 0.951 . S
H471 C497 0.950 . S
H472 C498 0.950 . S
H473 C500 0.950 . S
H474 C503 0.950 . S
H475 C504 0.950 . S
H476 C506 0.950 . S
H477 C507 0.950 . S
C478 H460 0.951 . S
C478 C479 1.366 . S
C478 C480 1.388 . S
C479 C478 1.366 . S
C479 C483 1.385 . S
C480 H461 0.951 . S
C480 C478 1.388 . S
C480 C481 1.366 . S
C481 C480 1.366 . S
C481 C482 1.414 . S
C481 C484 1.499 . S
C482 H462 0.950 . S
C482 C481 1.414 . S
C482 C483 1.374 . S
C483 H463 0.950 . S
C483 C479 1.385 . S
C483 C482 1.374 . S
C484 C481 1.499 . S
C484 C485 1.373 . S
C484 C486 1.389 . S
C485 H464 0.950 . S
C485 C484 1.373 . S
C485 C501 1.377 . S
C486 C484 1.389 . S
C486 C487 1.524 . S
C486 C500 1.377 . S
C487 C486 1.524 . S
C487 C488 1.397 . S
C487 C492 1.363 . S
C488 H465 0.950 . S
C488 C487 1.397 . S
C488 C489 1.334 . S
C489 H466 0.950 . S
C489 C488 1.334 . S
C489 C490 1.287 . S
C490 C489 1.287 . S
C490 C491 1.524 . S
C490 H509 0.913 . S
C491 H467 0.950 . S
C491 C490 1.524 . S
C491 C492 1.415 . S
C492 H468 0.950 . S
C492 C487 1.363 . S
C492 C491 1.415 . S
C493 H469 0.951 . S
C493 C494 1.366 . S
C493 C495 1.388 . S
C494 C493 1.366 . S
C494 C498 1.385 . S
C495 H470 0.951 . S
C495 C493 1.388 . S
C495 C496 1.366 . S
C496 C495 1.366 . S
C496 C497 1.414 . S
C496 C499 1.499 . S
C497 H471 0.950 . S
C497 C496 1.414 . S
C497 C498 1.374 . S
C498 H472 0.950 . S
C498 C494 1.385 . S
C498 C497 1.374 . S
C499 C496 1.499 . S
C499 C500 1.373 . S
C499 C501 1.389 . S
C500 H473 0.950 . S
C500 C486 1.377 . S
C500 C499 1.373 . S
C501 C485 1.377 . S
C501 C499 1.389 . S
C501 C502 1.524 . S
C502 C501 1.524 . S
C502 C503 1.397 . S
C502 C507 1.363 . S
C503 H474 0.950 . S
C503 C502 1.397 . S
C503 C504 1.334 . S
C504 H475 0.950 . S
C504 C503 1.334 . S
C504 C505 1.287 . S
C505 C504 1.287 . S
C505 C506 1.524 . S
C505 H508 0.999 . S
C506 H476 0.950 . S
C506 C505 1.524 . S
C506 C507 1.415 . S
C507 H477 0.950 . S
C507 C502 1.363 . S
C507 C506 1.415 . S
H508 C505 0.999 . S
H509 C490 0.913 . S
H510 C528 0.951 . S
H511 C530 0.951 . S
H512 C532 0.950 . S
H513 C533 0.950 . S
H514 C535 0.953 1_545 S
H515 C538 0.950 . S
H516 C539 0.950 . S
H517 C541 0.950 . S
H518 C542 0.950 . S
H519 C543 0.951 . S
H520 C545 1.000 . S
H521 C547 0.950 . S
H522 C548 0.950 . S
H523 C550 0.950 1_655 S
H524 C553 0.950 1_655 S
H525 C554 0.950 1_655 S
H526 C556 0.950 . S
H527 C557 0.950 . S
C528 H510 0.951 . S
C528 C529 1.366 . S
C528 C530 1.388 . S
C529 C528 1.366 . S
C529 C533 1.385 . S
C530 H511 0.951 . S
C530 C528 1.388 . S
C530 C531 1.366 . S
C531 C530 1.366 . S
C531 C532 1.414 . S
C531 C534 1.499 . S
C532 H512 0.950 . S
C532 C531 1.414 . S
C532 C533 1.374 . S
C533 H513 0.950 . S
C533 C529 1.385 . S
C533 C532 1.374 . S
C534 C531 1.499 . S
C534 C535 1.368 . S
C534 C536 1.389 . S
C535 H514 0.953 1_565 S
C535 C534 1.368 . S
C535 C551 1.379 1_565 S
C536 C534 1.389 . S
C536 C537 1.524 . S
C536 C550 1.377 . S
C537 C536 1.524 . S
C537 C538 1.397 . S
C537 C542 1.363 1_455 S
C538 H515 0.950 . S
C538 C537 1.397 . S
C538 C539 1.334 . S
C539 H516 0.950 . S
C539 C538 1.334 . S
C539 C540 1.287 . S
C540 C539 1.287 . S
C540 C541 1.524 1_455 S
C540 H559 0.913 . S
C541 H517 0.950 . S
C541 C540 1.524 1_655 S
C541 C542 1.415 . S
C542 H518 0.950 . S
C542 C537 1.363 1_655 S
C542 C541 1.415 . S
C543 H519 0.951 . S
C543 C544 1.366 . S
C543 C545 1.364 1_655 S
C544 C543 1.366 . S
C544 C548 1.385 1_545 S
C545 H520 1.000 . S
C545 C543 1.364 1_455 S
C545 C546 1.343 1_445 S
C546 C545 1.343 1_665 S
C546 C547 1.414 . S
C546 C549 1.499 1_655 S
C547 H521 0.950 . S
C547 C546 1.414 . S
C547 C548 1.374 . S
C548 H522 0.950 . S
C548 C544 1.385 1_565 S
C548 C547 1.374 . S
C549 C546 1.499 1_455 S
C549 C550 1.373 . S
C549 C551 1.389 1_565 S
C550 H523 0.950 1_455 S
C550 C536 1.377 . S
C550 C549 1.373 . S
C551 C535 1.379 1_545 S
C551 C549 1.389 1_545 S
C551 C552 1.524 . S
C552 C551 1.524 . S
C552 C553 1.397 . S
C552 C557 1.363 . S
C553 H524 0.950 1_455 S
C553 C552 1.397 . S
C553 C554 1.334 . S
C554 H525 0.950 1_455 S
C554 C553 1.334 . S
C554 C555 1.287 . S
C555 C554 1.287 . S
C555 C556 1.524 . S
C555 H558 0.999 . S
C556 H526 0.950 . S
C556 C555 1.524 . S
C556 C557 1.415 . S
C557 H527 0.950 . S
C557 C552 1.363 . S
C557 C556 1.415 . S
H558 C555 0.999 . S
H559 C540 0.913 . S
H560 C578 0.951 . S
H561 C580 0.951 . S
H562 C582 0.950 . S
H563 C583 0.950 . S
H564 C585 0.950 . S
H565 C588 0.950 . S
H566 C589 0.950 . S
H567 C591 0.950 . S
H568 C592 0.950 . S
H569 C593 0.951 . S
H570 C595 0.951 . S
H571 C597 0.950 . S
H572 C598 0.950 . S
H573 C600 0.950 . S
H574 C603 0.950 . S
H575 C604 0.950 . S
H576 C606 0.950 . S
H577 C607 0.950 . S
C578 H560 0.951 . S
C578 C579 1.366 . S
C578 C580 1.388 . S
C579 C578 1.366 . S
C579 C583 1.385 . S
C580 H561 0.951 . S
C580 C578 1.388 . S
C580 C581 1.366 . S
C581 C580 1.366 . S
C581 C582 1.414 . S
C581 C584 1.499 . S
C582 H562 0.950 . S
C582 C581 1.414 . S
C582 C583 1.374 . S
C583 H563 0.950 . S
C583 C579 1.385 . S
C583 C582 1.374 . S
C584 C581 1.499 . S
C584 C585 1.373 . S
C584 C586 1.389 . S
C585 H564 0.950 . S
C585 C584 1.373 . S
C585 C601 1.377 . S
C586 C584 1.389 . S
C586 C587 1.524 . S
C586 C600 1.377 . S
C587 C586 1.524 . S
C587 C588 1.397 . S
C587 C592 1.363 . S
C588 H565 0.950 . S
C588 C587 1.397 . S
C588 C589 1.334 . S
C589 H566 0.950 . S
C589 C588 1.334 . S
C589 C590 1.287 . S
C590 C589 1.287 . S
C590 C591 1.524 . S
C590 H609 0.913 . S
C591 H567 0.950 . S
C591 C590 1.524 . S
C591 C592 1.415 . S
C592 H568 0.950 . S
C592 C587 1.363 . S
C592 C591 1.415 . S
C593 H569 0.951 . S
C593 C594 1.366 . S
C593 C595 1.388 . S
C594 C593 1.366 . S
C594 C598 1.385 . S
C595 H570 0.951 . S
C595 C593 1.388 . S
C595 C596 1.366 . S
C596 C595 1.366 . S
C596 C597 1.414 . S
C596 C599 1.499 . S
C597 H571 0.950 . S
C597 C596 1.414 . S
C597 C598 1.374 . S
C598 H572 0.950 . S
C598 C594 1.385 . S
C598 C597 1.374 . S
C599 C596 1.499 . S
C599 C600 1.373 . S
C599 C601 1.389 . S
C600 H573 0.950 . S
C600 C586 1.377 . S
C600 C599 1.373 . S
C601 C585 1.377 . S
C601 C599 1.389 . S
C601 C602 1.524 . S
C602 C601 1.524 . S
C602 C603 1.397 . S
C602 C607 1.363 . S
C603 H574 0.950 . S
C603 C602 1.397 . S
C603 C604 1.334 . S
C604 H575 0.950 . S
C604 C603 1.334 . S
C604 C605 1.287 . S
C605 C604 1.287 . S
C605 C606 1.524 . S
C605 H608 0.999 . S
C606 H576 0.950 . S
C606 C605 1.524 . S
C606 C607 1.415 . S
C607 H577 0.950 . S
C607 C602 1.363 . S
C607 C606 1.415 . S
H608 C605 0.999 . S
H609 C590 0.913 . S
H610 C628 0.951 . S
H611 C630 0.951 . S
H612 C632 0.950 . S
H613 C633 0.950 . S
H614 C635 0.950 . S
H615 C638 0.950 . S
H616 C639 0.950 . S
H617 C641 0.950 . S
H618 C642 0.950 . S
H619 C643 0.951 . S
H620 C645 0.951 . S
H621 C647 0.950 . S
H622 C648 0.950 . S
H623 C650 0.950 . S
H624 C653 0.950 . S
H625 C654 0.950 . S
H626 C656 0.950 . S
H627 C657 0.950 . S
C628 H610 0.951 . S
C628 C629 1.366 . S
C628 C630 1.388 . S
C629 C628 1.366 . S
C629 C633 1.385 . S
C630 H611 0.951 . S
C630 C628 1.388 . S
C630 C631 1.366 . S
C631 C630 1.366 . S
C631 C632 1.414 . S
C631 C634 1.499 . S
C632 H612 0.950 . S
C632 C631 1.414 . S
C632 C633 1.374 . S
C633 H613 0.950 . S
C633 C629 1.385 . S
C633 C632 1.374 . S
C634 C631 1.499 . S
C634 C635 1.373 . S
C634 C636 1.389 . S
C635 H614 0.950 . S
C635 C634 1.373 . S
C635 C651 1.377 . S
C636 C634 1.389 . S
C636 C637 1.524 . S
C636 C650 1.377 . S
C637 C636 1.524 . S
C637 C638 1.397 . S
C637 C642 1.363 . S
C638 H615 0.950 . S
C638 C637 1.397 . S
C638 C639 1.334 . S
C639 H616 0.950 . S
C639 C638 1.334 . S
C639 C640 1.287 . S
C640 C639 1.287 . S
C640 C641 1.524 . S
C640 H659 0.913 . S
C641 H617 0.950 . S
C641 C640 1.524 . S
C641 C642 1.415 . S
C642 H618 0.950 . S
C642 C637 1.363 . S
C642 C641 1.415 . S
C643 H619 0.951 . S
C643 C644 1.366 . S
C643 C645 1.388 . S
C644 C643 1.366 . S
C644 C648 1.385 . S
C645 H620 0.951 . S
C645 C643 1.388 . S
C645 C646 1.366 . S
C646 C645 1.366 . S
C646 C647 1.414 . S
C646 C649 1.499 . S
C647 H621 0.950 . S
C647 C646 1.414 . S
C647 C648 1.374 . S
C648 H622 0.950 . S
C648 C644 1.385 . S
C648 C647 1.374 . S
C649 C646 1.499 . S
C649 C650 1.373 . S
C649 C651 1.389 . S
C650 H623 0.950 . S
C650 C636 1.377 . S
C650 C649 1.373 . S
C651 C635 1.377 . S
C651 C649 1.389 . S
C651 C652 1.524 . S
C652 C651 1.524 . S
C652 C653 1.397 . S
C652 C657 1.363 . S
C653 H624 0.950 . S
C653 C652 1.397 . S
C653 C654 1.334 . S
C654 H625 0.950 . S
C654 C653 1.334 . S
C654 C655 1.287 . S
C655 C654 1.287 . S
C655 C656 1.524 . S
C655 H658 0.999 . S
C656 H626 0.950 . S
C656 C655 1.524 . S
C656 C657 1.415 . S
C657 H627 0.950 . S
C657 C652 1.363 . S
C657 C656 1.415 . S
H658 C655 0.999 . S
H659 C640 0.913 . S
H660 C678 0.951 . S
H661 C680 0.951 . S
H662 C682 0.950 . S
H663 C683 0.950 . S
H664 C685 0.950 . S
H665 C688 0.950 . S
H666 C689 0.950 . S
H667 C691 0.950 . S
H668 C692 0.950 . S
H669 C693 0.951 . S
H670 C695 0.951 . S
H671 C697 0.950 . S
H672 C698 0.950 . S
H673 C700 0.950 . S
H674 C703 0.950 . S
H675 C704 0.950 . S
H676 C706 0.950 . S
H677 C707 0.950 . S
C678 H660 0.951 . S
C678 C679 1.366 . S
C678 C680 1.388 . S
C679 C678 1.366 . S
C679 C683 1.385 . S
C680 H661 0.951 . S
C680 C678 1.388 . S
C680 C681 1.366 . S
C681 C680 1.366 . S
C681 C682 1.414 . S
C681 C684 1.499 . S
C682 H662 0.950 . S
C682 C681 1.414 . S
C682 C683 1.374 . S
C683 H663 0.950 . S
C683 C679 1.385 . S
C683 C682 1.374 . S
C684 C681 1.499 . S
C684 C685 1.373 . S
C684 C686 1.389 . S
C685 H664 0.950 . S
C685 C684 1.373 . S
C685 C701 1.377 . S
C686 C684 1.389 . S
C686 C687 1.524 . S
C686 C700 1.377 . S
C687 C686 1.524 . S
C687 C688 1.397 . S
C687 C692 1.363 . S
C688 H665 0.950 . S
C688 C687 1.397 . S
C688 C689 1.334 . S
C689 H666 0.950 . S
C689 C688 1.334 . S
C689 C690 1.287 . S
C690 C689 1.287 . S
C690 C691 1.524 . S
C690 H709 0.913 . S
C691 H667 0.950 . S
C691 C690 1.524 . S
C691 C692 1.415 . S
C692 H668 0.950 . S
C692 C687 1.363 . S
C692 C691 1.415 . S
C693 H669 0.951 . S
C693 C694 1.366 . S
C693 C695 1.388 . S
C694 C693 1.366 . S
C694 C698 1.385 . S
C695 H670 0.951 . S
C695 C693 1.388 . S
C695 C696 1.366 . S
C696 C695 1.366 . S
C696 C697 1.414 . S
C696 C699 1.499 . S
C697 H671 0.950 . S
C697 C696 1.414 . S
C697 C698 1.374 . S
C698 H672 0.950 . S
C698 C694 1.385 . S
C698 C697 1.374 . S
C699 C696 1.499 . S
C699 C700 1.373 . S
C699 C701 1.389 . S
C700 H673 0.950 . S
C700 C686 1.377 . S
C700 C699 1.373 . S
C701 C685 1.377 . S
C701 C699 1.389 . S
C701 C702 1.524 . S
C702 C701 1.524 . S
C702 C703 1.397 . S
C702 C707 1.363 . S
C703 H674 0.950 . S
C703 C702 1.397 . S
C703 C704 1.334 . S
C704 H675 0.950 . S
C704 C703 1.334 . S
C704 C705 1.287 . S
C705 C704 1.287 . S
C705 C706 1.524 . S
C705 H708 0.999 . S
C706 H676 0.950 . S
C706 C705 1.524 . S
C706 C707 1.415 . S
C707 H677 0.950 . S
C707 C702 1.363 . S
C707 C706 1.415 . S
H708 C705 0.999 . S
H709 C690 0.913 . S
H710 C728 0.951 . S
H711 C730 0.951 . S
H712 C732 0.950 . S
H713 C733 0.950 . S
H714 C735 0.950 . S
H715 C738 0.950 . S
H716 C739 0.950 . S
H717 C741 0.950 . S
H718 C742 0.950 . S
H719 C743 0.951 1_545 S
H720 C745 0.951 1_545 S
H721 C747 0.950 . S
H722 C748 0.950 . S
H723 C750 0.950 . S
H724 C753 0.950 . S
H725 C754 0.950 . S
H726 C756 0.950 . S
H727 C757 0.950 . S
C728 H710 0.951 . S
C728 C729 1.366 . S
C728 C730 1.388 . S
C729 C728 1.366 . S
C729 C733 1.385 . S
C730 H711 0.951 . S
C730 C728 1.388 . S
C730 C731 1.366 . S
C731 C730 1.366 . S
C731 C732 1.414 . S
C731 C734 1.499 . S
C732 H712 0.950 . S
C732 C731 1.414 . S
C732 C733 1.374 . S
C733 H713 0.950 . S
C733 C729 1.385 . S
C733 C732 1.374 . S
C734 C731 1.499 . S
C734 C735 1.373 . S
C734 C736 1.389 . S
C735 H714 0.950 . S
C735 C734 1.373 . S
C735 C751 1.377 . S
C736 C734 1.389 . S
C736 C737 1.524 . S
C736 C750 1.377 . S
C737 C736 1.524 . S
C737 C738 1.397 1_565 S
C737 C742 1.363 . S
C738 H715 0.950 . S
C738 C737 1.397 1_545 S
C738 C739 1.334 . S
C739 H716 0.950 . S
C739 C738 1.334 . S
C739 C740 1.287 1_545 S
C740 C739 1.287 1_565 S
C740 C741 1.524 . S
C740 H759 0.913 1_565 S
C741 H717 0.950 . S
C741 C740 1.524 . S
C741 C742 1.415 . S
C742 H718 0.950 . S
C742 C737 1.363 . S
C742 C741 1.415 . S
C743 H719 0.951 1_565 S
C743 C744 1.366 . S
C743 C745 1.388 . S
C744 C743 1.366 . S
C744 C748 1.385 . S
C745 H720 0.951 1_565 S
C745 C743 1.388 . S
C745 C746 1.366 . S
C746 C745 1.366 . S
C746 C747 1.414 . S
C746 C749 1.499 . S
C747 H721 0.950 . S
C747 C746 1.414 . S
C747 C748 1.374 . S
C748 H722 0.950 . S
C748 C744 1.385 . S
C748 C747 1.374 . S
C749 C746 1.499 . S
C749 C750 1.373 . S
C749 C751 1.389 . S
C750 H723 0.950 . S
C750 C736 1.377 . S
C750 C749 1.373 . S
C751 C735 1.377 . S
C751 C749 1.389 . S
C751 C752 1.524 . S
C752 C751 1.524 . S
C752 C753 1.397 . S
C752 C757 1.363 . S
C753 H724 0.950 . S
C753 C752 1.397 . S
C753 C754 1.334 . S
C754 H725 0.950 . S
C754 C753 1.334 . S
C754 C755 1.287 . S
C755 C754 1.287 . S
C755 C756 1.524 . S
C755 H758 0.999 . S
C756 H726 0.950 . S
C756 C755 1.524 . S
C756 C757 1.415 . S
C757 H727 0.950 . S
C757 C752 1.363 . S
C757 C756 1.415 . S
H758 C755 0.999 . S
H759 C740 0.913 1_545 S
H760 C778 0.951 . S
H761 C780 0.951 . S
H762 C782 0.950 . S
H763 C783 0.950 . S
H764 C785 0.950 . S
H765 C788 0.950 . S
H766 C789 0.950 . S
H767 C791 0.950 . S
H768 C792 0.950 . S
H769 C793 0.951 . S
H770 C795 0.951 . S
H771 C797 0.950 . S
H772 C798 0.950 . S
H773 C800 0.950 . S
H774 C803 0.950 . S
H775 C804 0.950 . S
H776 C806 0.950 . S
H777 C807 0.950 . S
C778 H760 0.951 . S
C778 C779 1.366 . S
C778 C780 1.388 . S
C779 C778 1.366 . S
C779 C783 1.385 . S
C780 H761 0.951 . S
C780 C778 1.388 . S
C780 C781 1.366 . S
C781 C780 1.366 . S
C781 C782 1.414 . S
C781 C784 1.499 . S
C782 H762 0.950 . S
C782 C781 1.414 . S
C782 C783 1.374 . S
C783 H763 0.950 . S
C783 C779 1.385 . S
C783 C782 1.374 . S
C784 C781 1.499 . S
C784 C785 1.373 . S
C784 C786 1.389 . S
C785 H764 0.950 . S
C785 C784 1.373 . S
C785 C801 1.377 . S
C786 C784 1.389 . S
C786 C787 1.524 . S
C786 C800 1.377 . S
C787 C786 1.524 . S
C787 C788 1.397 . S
C787 C792 1.363 . S
C788 H765 0.950 . S
C788 C787 1.397 . S
C788 C789 1.334 . S
C789 H766 0.950 . S
C789 C788 1.334 . S
C789 C790 1.287 . S
C790 C789 1.287 . S
C790 C791 1.524 . S
C790 H809 0.913 . S
C791 H767 0.950 . S
C791 C790 1.524 . S
C791 C792 1.415 . S
C792 H768 0.950 . S
C792 C787 1.363 . S
C792 C791 1.415 . S
C793 H769 0.951 . S
C793 C794 1.366 . S
C793 C795 1.388 . S
C794 C793 1.366 . S
C794 C798 1.385 . S
C795 H770 0.951 . S
C795 C793 1.388 . S
C795 C796 1.366 . S
C796 C795 1.366 . S
C796 C797 1.414 . S
C796 C799 1.499 . S
C797 H771 0.950 . S
C797 C796 1.414 . S
C797 C798 1.374 . S
C798 H772 0.950 . S
C798 C794 1.385 . S
C798 C797 1.374 . S
C799 C796 1.499 . S
C799 C800 1.373 . S
C799 C801 1.389 . S
C800 H773 0.950 . S
C800 C786 1.377 . S
C800 C799 1.373 . S
C801 C785 1.377 . S
C801 C799 1.389 . S
C801 C802 1.524 . S
C802 C801 1.524 . S
C802 C803 1.397 . S
C802 C807 1.363 . S
C803 H774 0.950 . S
C803 C802 1.397 . S
C803 C804 1.334 . S
C804 H775 0.950 . S
C804 C803 1.334 . S
C804 C805 1.287 . S
C805 C804 1.287 . S
C805 C806 1.524 . S
C805 H808 0.999 . S
C806 H776 0.950 . S
C806 C805 1.524 . S
C806 C807 1.415 . S
C807 H777 0.950 . S
C807 C802 1.363 . S
C807 C806 1.415 . S
H808 C805 0.999 . S
H809 C790 0.913 . S
H810 C828 0.951 . S
H811 C830 0.951 . S
H812 C832 0.950 . S
H813 C833 0.950 . S
H814 C835 0.950 . S
H815 C838 0.950 . S
H816 C839 0.950 . S
H817 C841 0.950 . S
H818 C842 0.950 . S
H819 C843 0.951 . S
H820 C845 0.951 . S
H821 C847 0.950 . S
H822 C848 0.950 . S
H823 C850 0.950 . S
H824 C853 0.950 . S
H825 C854 0.950 . S
H826 C856 0.950 . S
H827 C857 0.950 . S
C828 H810 0.951 . S
C828 C829 1.366 . S
C828 C830 1.388 . S
C829 C828 1.366 . S
C829 C833 1.385 . S
C830 H811 0.951 . S
C830 C828 1.388 . S
C830 C831 1.366 . S
C831 C830 1.366 . S
C831 C832 1.414 . S
C831 C834 1.499 . S
C832 H812 0.950 . S
C832 C831 1.414 . S
C832 C833 1.374 . S
C833 H813 0.950 . S
C833 C829 1.385 . S
C833 C832 1.374 . S
C834 C831 1.499 . S
C834 C835 1.373 . S
C834 C836 1.389 . S
C835 H814 0.950 . S
C835 C834 1.373 . S
C835 C851 1.377 . S
C836 C834 1.389 . S
C836 C837 1.524 . S
C836 C850 1.377 . S
C837 C836 1.524 . S
C837 C838 1.397 . S
C837 C842 1.363 . S
C838 H815 0.950 . S
C838 C837 1.397 . S
C838 C839 1.334 . S
C839 H816 0.950 . S
C839 C838 1.334 . S
C839 C840 1.287 . S
C840 C839 1.287 . S
C840 C841 1.524 . S
C840 H859 0.913 . S
C841 H817 0.950 . S
C841 C840 1.524 . S
C841 C842 1.415 . S
C842 H818 0.950 . S
C842 C837 1.363 . S
C842 C841 1.415 . S
C843 H819 0.951 . S
C843 C844 1.366 . S
C843 C845 1.388 . S
C844 C843 1.366 . S
C844 C848 1.385 . S
C845 H820 0.951 . S
C845 C843 1.388 . S
C845 C846 1.366 . S
C846 C845 1.366 . S
C846 C847 1.414 . S
C846 C849 1.499 . S
C847 H821 0.950 . S
C847 C846 1.414 . S
C847 C848 1.374 . S
C848 H822 0.950 . S
C848 C844 1.385 . S
C848 C847 1.374 . S
C849 C846 1.499 . S
C849 C850 1.373 . S
C849 C851 1.389 . S
C850 H823 0.950 . S
C850 C836 1.377 . S
C850 C849 1.373 . S
C851 C835 1.377 . S
C851 C849 1.389 . S
C851 C852 1.524 . S
C852 C851 1.524 . S
C852 C853 1.397 . S
C852 C857 1.363 . S
C853 H824 0.950 . S
C853 C852 1.397 . S
C853 C854 1.334 . S
C854 H825 0.950 . S
C854 C853 1.334 . S
C854 C855 1.287 . S
C855 C854 1.287 . S
C855 C856 1.524 . S
C855 H858 0.999 . S
C856 H826 0.950 . S
C856 C855 1.524 . S
C856 C857 1.415 . S
C857 H827 0.950 . S
C857 C852 1.363 . S
C857 C856 1.415 . S
H858 C855 0.999 . S
H859 C840 0.913 . S
H860 C878 0.951 . S
H861 C880 0.951 . S
H862 C882 0.950 . S
H863 C883 0.950 . S
H864 C885 0.950 . S
H865 C888 0.950 . S
H866 C889 0.950 . S
H867 C891 0.950 . S
H868 C892 0.950 . S
H869 C893 0.951 . S
H870 C895 0.951 . S
H871 C897 0.950 . S
H872 C898 0.950 . S
H873 C900 0.950 . S
H874 C903 0.950 . S
H875 C904 0.950 . S
H876 C906 0.950 . S
H877 C907 0.950 . S
C878 H860 0.951 . S
C878 C879 1.366 . S
C878 C880 1.388 . S
C879 C878 1.366 . S
C879 C883 1.385 . S
C880 H861 0.951 . S
C880 C878 1.388 . S
C880 C881 1.366 . S
C881 C880 1.366 . S
C881 C882 1.414 . S
C881 C884 1.499 . S
C882 H862 0.950 . S
C882 C881 1.414 . S
C882 C883 1.374 . S
C883 H863 0.950 . S
C883 C879 1.385 . S
C883 C882 1.374 . S
C884 C881 1.499 . S
C884 C885 1.373 . S
C884 C886 1.389 . S
C885 H864 0.950 . S
C885 C884 1.373 . S
C885 C901 1.377 . S
C886 C884 1.389 . S
C886 C887 1.524 . S
C886 C900 1.377 . S
C887 C886 1.524 . S
C887 C888 1.397 . S
C887 C892 1.363 . S
C888 H865 0.950 . S
C888 C887 1.397 . S
C888 C889 1.334 . S
C889 H866 0.950 . S
C889 C888 1.334 . S
C889 C890 1.287 . S
C890 C889 1.287 . S
C890 C891 1.524 . S
C890 H909 0.913 . S
C891 H867 0.950 . S
C891 C890 1.524 . S
C891 C892 1.415 . S
C892 H868 0.950 . S
C892 C887 1.363 . S
C892 C891 1.415 . S
C893 H869 0.951 . S
C893 C894 1.366 . S
C893 C895 1.388 . S
C894 C893 1.366 . S
C894 C898 1.385 . S
C895 H870 0.951 . S
C895 C893 1.388 . S
C895 C896 1.366 . S
C896 C895 1.366 . S
C896 C897 1.414 . S
C896 C899 1.499 . S
C897 H871 0.950 . S
C897 C896 1.414 . S
C897 C898 1.374 . S
C898 H872 0.950 . S
C898 C894 1.385 . S
C898 C897 1.374 . S
C899 C896 1.499 . S
C899 C900 1.373 . S
C899 C901 1.389 . S
C900 H873 0.950 . S
C900 C886 1.377 . S
C900 C899 1.373 . S
C901 C885 1.377 . S
C901 C899 1.389 . S
C901 C902 1.524 . S
C902 C901 1.524 . S
C902 C903 1.397 . S
C902 C907 1.363 . S
C903 H874 0.950 . S
C903 C902 1.397 . S
C903 C904 1.334 . S
C904 H875 0.950 . S
C904 C903 1.334 . S
C904 C905 1.287 . S
C905 C904 1.287 . S
C905 C906 1.524 . S
C905 H908 0.999 . S
C906 H876 0.950 . S
C906 C905 1.524 . S
C906 C907 1.415 . S
C907 H877 0.950 . S
C907 C902 1.363 . S
C907 C906 1.415 . S
H908 C905 0.999 . S
H909 C890 0.913 . S
H910 C928 0.951 . S
H911 C930 0.951 . S
H912 C932 0.950 . S
H913 C933 0.950 . S
H914 C935 0.950 . S
H915 C938 0.950 . S
H916 C939 0.950 . S
H917 C941 0.950 . S
H918 C942 0.950 . S
H919 C943 0.951 . S
H920 C945 0.951 . S
H921 C947 0.950 . S
H922 C948 0.950 . S
H923 C950 0.950 . S
H924 C953 0.950 . S
H925 C954 0.950 . S
H926 C956 0.950 . S
H927 C957 0.950 . S
C928 H910 0.951 . S
C928 C929 1.366 . S
C928 C930 1.388 . S
C929 C928 1.366 . S
C929 C933 1.385 . S
C930 H911 0.951 . S
C930 C928 1.388 . S
C930 C931 1.366 . S
C931 C930 1.366 . S
C931 C932 1.414 . S
C931 C934 1.499 . S
C932 H912 0.950 . S
C932 C931 1.414 . S
C932 C933 1.374 . S
C933 H913 0.950 . S
C933 C929 1.385 . S
C933 C932 1.374 . S
C934 C931 1.499 . S
C934 C935 1.373 . S
C934 C936 1.389 . S
C935 H914 0.950 . S
C935 C934 1.373 . S
C935 C951 1.377 . S
C936 C934 1.389 . S
C936 C937 1.524 . S
C936 C950 1.377 . S
C937 C936 1.524 . S
C937 C938 1.397 . S
C937 C942 1.363 . S
C938 H915 0.950 . S
C938 C937 1.397 . S
C938 C939 1.334 . S
C939 H916 0.950 . S
C939 C938 1.334 . S
C939 C940 1.287 . S
C940 C939 1.287 . S
C940 C941 1.524 . S
C940 H959 0.913 . S
C941 H917 0.950 . S
C941 C940 1.524 . S
C941 C942 1.415 . S
C942 H918 0.950 . S
C942 C937 1.363 . S
C942 C941 1.415 . S
C943 H919 0.951 . S
C943 C944 1.366 . S
C943 C945 1.388 . S
C944 C943 1.366 . S
C944 C948 1.385 . S
C945 H920 0.951 . S
C945 C943 1.388 . S
C945 C946 1.366 . S
C946 C945 1.366 . S
C946 C947 1.414 . S
C946 C949 1.499 . S
C947 H921 0.950 . S
C947 C946 1.414 . S
C947 C948 1.374 . S
C948 H922 0.950 . S
C948 C944 1.385 . S
C948 C947 1.374 . S
C949 C946 1.499 . S
C949 C950 1.373 . S
C949 C951 1.389 . S
C950 H923 0.950 . S
C950 C936 1.377 . S
C950 C949 1.373 . S
C951 C935 1.377 . S
C951 C949 1.389 . S
C951 C952 1.524 . S
C952 C951 1.524 . S
C952 C953 1.397 . S
C952 C957 1.363 . S
C953 H924 0.950 . S
C953 C952 1.397 . S
C953 C954 1.334 . S
C954 H925 0.950 . S
C954 C953 1.334 . S
C954 C955 1.287 . S
C955 C954 1.287 . S
C955 C956 1.524 . S
C955 H958 0.999 . S
C956 H926 0.950 . S
C956 C955 1.524 . S
C956 C957 1.415 . S
C957 H927 0.950 . S
C957 C952 1.363 . S
C957 C956 1.415 . S
H958 C955 0.999 . S
H959 C940 0.913 . S
H960 C978 0.951 . S
H961 C980 0.951 . S
H962 C982 0.950 . S
H963 C983 0.950 . S
H964 C985 0.950 . S
H965 C988 0.950 . S
H966 C989 0.950 . S
H967 C991 0.950 . S
H968 C992 0.950 . S
H969 C993 0.951 . S
H970 C995 0.951 . S
H971 C997 0.950 . S
H972 C998 0.950 . S
H973 C1000 0.950 . S
H974 C1003 0.950 . S
H975 C1004 0.950 . S
H976 C1006 0.950 . S
H977 C1007 0.950 . S
C978 H960 0.951 . S
C978 C979 1.366 . S
C978 C980 1.388 . S
C979 C978 1.366 . S
C979 C983 1.385 . S
C980 H961 0.951 . S
C980 C978 1.388 . S
C980 C981 1.366 . S
C981 C980 1.366 . S
C981 C982 1.414 . S
C981 C984 1.499 . S
C982 H962 0.950 . S
C982 C981 1.414 . S
C982 C983 1.374 . S
C983 H963 0.950 . S
C983 C979 1.385 . S
C983 C982 1.374 . S
C984 C981 1.499 . S
C984 C985 1.373 . S
C984 C986 1.389 . S
C985 H964 0.950 . S
C985 C984 1.373 . S
C985 C1001 1.377 . S
C986 C984 1.389 . S
C986 C987 1.524 . S
C986 C1000 1.377 . S
C987 C986 1.524 . S
C987 C988 1.397 . S
C987 C992 1.363 . S
C988 H965 0.950 . S
C988 C987 1.397 . S
C988 C989 1.334 . S
C989 H966 0.950 . S
C989 C988 1.334 . S
C989 C990 1.287 . S
C990 C989 1.287 . S
C990 C991 1.524 . S
C990 H1009 0.913 . S
C991 H967 0.950 . S
C991 C990 1.524 . S
C991 C992 1.415 . S
C992 H968 0.950 . S
C992 C987 1.363 . S
C992 C991 1.415 . S
C993 H969 0.951 . S
C993 C994 1.366 . S
C993 C995 1.388 . S
C994 C993 1.366 . S
C994 C998 1.385 . S
C995 H970 0.951 . S
C995 C993 1.388 . S
C995 C996 1.366 . S
C996 C995 1.366 . S
C996 C997 1.414 . S
C996 C999 1.499 . S
C997 H971 0.950 . S
C997 C996 1.414 . S
C997 C998 1.374 . S
C998 H972 0.950 . S
C998 C994 1.385 . S
C998 C997 1.374 . S
C999 C996 1.499 . S
C999 C1000 1.373 . S
C999 C1001 1.389 . S
C1000 H973 0.950 . S
C1000 C986 1.377 . S
C1000 C999 1.373 . S
C1001 C985 1.377 . S
C1001 C999 1.389 . S
C1001 C1002 1.524 . S
C1002 C1001 1.524 . S
C1002 C1003 1.397 . S
C1002 C1007 1.363 . S
C1003 H974 0.950 . S
C1003 C1002 1.397 . S
C1003 C1004 1.334 . S
C1004 H975 0.950 . S
C1004 C1003 1.334 . S
C1004 C1005 1.287 . S
C1005 C1004 1.287 . S
C1005 C1006 1.524 . S
C1005 H1008 0.999 . S
C1006 H976 0.950 . S
C1006 C1005 1.524 . S
C1006 C1007 1.415 . S
C1007 H977 0.950 . S
C1007 C1002 1.363 . S
C1007 C1006 1.415 . S
H1008 C1005 0.999 . S
H1009 C990 0.913 . S
H1010 C1028 0.951 . S
H1011 C1030 0.951 . S
H1012 C1032 0.950 . S
H1013 C1033 0.950 . S
H1014 C1035 0.950 . S
H1015 C1038 0.950 . S
H1016 C1039 0.943 1_655 S
H1017 C1041 0.950 . S
H1018 C1042 0.950 . S
H1019 C1043 0.951 . S
H1020 C1045 0.951 . S
H1021 C1047 0.950 . S
H1022 C1048 0.950 . S
H1023 C1050 0.950 . S
H1024 C1053 0.950 . S
H1025 C1054 0.950 . S
H1026 C1056 0.950 . S
H1027 C1057 0.950 . S
C1028 H1010 0.951 . S
C1028 C1029 1.366 . S
C1028 C1030 1.388 . S
C1029 C1028 1.366 . S
C1029 C1033 1.385 . S
C1030 H1011 0.951 . S
C1030 C1028 1.388 . S
C1030 C1031 1.366 . S
C1031 C1030 1.366 . S
C1031 C1032 1.414 . S
C1031 C1034 1.499 . S
C1032 H1012 0.950 . S
C1032 C1031 1.414 . S
C1032 C1033 1.374 . S
C1033 H1013 0.950 . S
C1033 C1029 1.385 . S
C1033 C1032 1.374 . S
C1034 C1031 1.499 . S
C1034 C1035 1.373 . S
C1034 C1036 1.389 . S
C1035 H1014 0.950 . S
C1035 C1034 1.373 . S
C1035 C1051 1.377 . S
C1036 C1034 1.389 . S
C1036 C1037 1.524 . S
C1036 C1050 1.377 . S
C1037 C1036 1.524 . S
C1037 C1038 1.397 . S
C1037 C1042 1.363 . S
C1038 H1015 0.950 . S
C1038 C1037 1.397 . S
C1038 C1039 1.334 . S
C1039 H1016 0.943 1_455 S
C1039 C1038 1.334 . S
C1039 C1040 1.287 1_455 S
C1040 C1039 1.287 1_655 S
C1040 C1041 1.524 . S
C1040 H1059 0.913 . S
C1041 H1017 0.950 . S
C1041 C1040 1.524 . S
C1041 C1042 1.415 1_655 S
C1042 H1018 0.950 . S
C1042 C1037 1.363 . S
C1042 C1041 1.415 1_455 S
C1043 H1019 0.951 . S
C1043 C1044 1.366 . S
C1043 C1045 1.388 . S
C1044 C1043 1.366 . S
C1044 C1048 1.385 . S
C1045 H1020 0.951 . S
C1045 C1043 1.388 . S
C1045 C1046 1.366 . S
C1046 C1045 1.366 . S
C1046 C1047 1.414 . S
C1046 C1049 1.499 . S
C1047 H1021 0.950 . S
C1047 C1046 1.414 . S
C1047 C1048 1.374 . S
C1048 H1022 0.950 . S
C1048 C1044 1.385 . S
C1048 C1047 1.374 . S
C1049 C1046 1.499 . S
C1049 C1050 1.373 . S
C1049 C1051 1.389 . S
C1050 H1023 0.950 . S
C1050 C1036 1.377 . S
C1050 C1049 1.373 . S
C1051 C1035 1.377 . S
C1051 C1049 1.389 . S
C1051 C1052 1.524 . S
C1052 C1051 1.524 . S
C1052 C1053 1.397 . S
C1052 C1057 1.363 . S
C1053 H1024 0.950 . S
C1053 C1052 1.397 . S
C1053 C1054 1.334 . S
C1054 H1025 0.950 . S
C1054 C1053 1.334 . S
C1054 C1055 1.287 . S
C1055 C1054 1.287 . S
C1055 C1056 1.524 . S
C1055 H1058 0.999 . S
C1056 H1026 0.950 . S
C1056 C1055 1.524 . S
C1056 C1057 1.415 . S
C1057 H1027 0.950 . S
C1057 C1052 1.363 . S
C1057 C1056 1.415 . S
H1058 C1055 0.999 . S
H1059 C1040 0.913 . S
H1060 C1078 0.951 . S
H1061 C1080 0.951 . S
H1062 C1082 0.950 . S
H1063 C1083 0.950 . S
H1064 C1085 0.950 . S
H1065 C1088 0.950 . S
H1066 C1089 0.950 . S
H1067 C1091 0.950 . S
H1068 C1092 0.950 . S
H1069 C1093 0.951 . S
H1070 C1095 0.951 . S
H1071 C1097 0.950 . S
H1072 C1098 0.950 . S
H1073 C1100 0.950 . S
H1074 C1103 0.950 . S
H1075 C1104 0.950 . S
H1076 C1106 0.950 . S
H1077 C1107 0.950 . S
C1078 H1060 0.951 . S
C1078 C1079 1.366 . S
C1078 C1080 1.388 . S
C1079 C1078 1.366 . S
C1079 C1083 1.385 . S
C1080 H1061 0.951 . S
C1080 C1078 1.388 . S
C1080 C1081 1.366 . S
C1081 C1080 1.366 . S
C1081 C1082 1.414 . S
C1081 C1084 1.499 . S
C1082 H1062 0.950 . S
C1082 C1081 1.414 . S
C1082 C1083 1.374 . S
C1083 H1063 0.950 . S
C1083 C1079 1.385 . S
C1083 C1082 1.374 . S
C1084 C1081 1.499 . S
C1084 C1085 1.373 . S
C1084 C1086 1.389 . S
C1085 H1064 0.950 . S
C1085 C1084 1.373 . S
C1085 C1101 1.377 . S
C1086 C1084 1.389 . S
C1086 C1087 1.524 . S
C1086 C1100 1.377 . S
C1087 C1086 1.524 . S
C1087 C1088 1.397 . S
C1087 C1092 1.363 . S
C1088 H1065 0.950 . S
C1088 C1087 1.397 . S
C1088 C1089 1.334 . S
C1089 H1066 0.950 . S
C1089 C1088 1.334 . S
C1089 C1090 1.287 . S
C1090 C1089 1.287 . S
C1090 C1091 1.524 . S
C1090 H1109 0.913 . S
C1091 H1067 0.950 . S
C1091 C1090 1.524 . S
C1091 C1092 1.415 . S
C1092 H1068 0.950 . S
C1092 C1087 1.363 . S
C1092 C1091 1.415 . S
C1093 H1069 0.951 . S
C1093 C1094 1.366 . S
C1093 C1095 1.388 . S
C1094 C1093 1.366 . S
C1094 C1098 1.385 . S
C1095 H1070 0.951 . S
C1095 C1093 1.388 . S
C1095 C1096 1.366 . S
C1096 C1095 1.366 . S
C1096 C1097 1.414 . S
C1096 C1099 1.499 . S
C1097 H1071 0.950 . S
C1097 C1096 1.414 . S
C1097 C1098 1.374 . S
C1098 H1072 0.950 . S
C1098 C1094 1.385 . S
C1098 C1097 1.374 . S
C1099 C1096 1.499 . S
C1099 C1100 1.373 . S
C1099 C1101 1.389 . S
C1100 H1073 0.950 . S
C1100 C1086 1.377 . S
C1100 C1099 1.373 . S
C1101 C1085 1.377 . S
C1101 C1099 1.389 . S
C1101 C1102 1.524 . S
C1102 C1101 1.524 . S
C1102 C1103 1.397 . S
C1102 C1107 1.363 . S
C1103 H1074 0.950 . S
C1103 C1102 1.397 . S
C1103 C1104 1.334 . S
C1104 H1075 0.950 . S
C1104 C1103 1.334 . S
C1104 C1105 1.287 . S
C1105 C1104 1.287 . S
C1105 C1106 1.524 . S
C1105 H1108 0.999 . S
C1106 H1076 0.950 . S
C1106 C1105 1.524 . S
C1106 C1107 1.415 . S
C1107 H1077 0.950 . S
C1107 C1102 1.363 . S
C1107 C1106 1.415 . S
H1108 C1105 0.999 . S
H1109 C1090 0.913 . S
H1110 C1128 0.951 . S
H1111 C1130 0.951 . S
H1112 C1132 0.950 1_455 S
H1113 C1133 0.950 1_455 S
H1114 C1135 0.950 . S
H1115 C1138 0.950 1_455 S
H1116 C1139 0.950 1_455 S
H1117 C1141 0.950 . S
H1118 C1142 0.950 . S
H1119 C1143 0.951 . S
H1120 C1145 0.951 . S
H1121 C1147 0.950 . S
H1122 C1148 0.950 . S
H1123 C1150 0.950 . S
H1124 C1153 0.950 . S
H1125 C1154 0.950 . S
H1126 C1156 0.950 . S
H1127 C1157 0.950 . S
C1128 H1110 0.951 . S
C1128 C1129 1.366 . S
C1128 C1130 1.388 . S
C1129 C1128 1.366 . S
C1129 C1133 1.385 . S
C1130 H1111 0.951 . S
C1130 C1128 1.388 . S
C1130 C1131 1.366 . S
C1131 C1130 1.366 . S
C1131 C1132 1.414 . S
C1131 C1134 1.499 . S
C1132 H1112 0.950 1_655 S
C1132 C1131 1.414 . S
C1132 C1133 1.374 . S
C1133 H1113 0.950 1_655 S
C1133 C1129 1.385 . S
C1133 C1132 1.374 . S
C1134 C1131 1.499 . S
C1134 C1135 1.373 . S
C1134 C1136 1.389 . S
C1135 H1114 0.950 . S
C1135 C1134 1.373 . S
C1135 C1151 1.377 . S
C1136 C1134 1.389 . S
C1136 C1137 1.524 . S
C1136 C1150 1.377 . S
C1137 C1136 1.524 . S
C1137 C1138 1.397 . S
C1137 C1142 1.363 . S
C1138 H1115 0.950 1_655 S
C1138 C1137 1.397 . S
C1138 C1139 1.334 . S
C1139 H1116 0.950 1_655 S
C1139 C1138 1.334 . S
C1139 C1140 1.287 . S
C1140 C1139 1.287 . S
C1140 C1141 1.524 . S
C1140 H1159 0.913 . S
C1141 H1117 0.950 . S
C1141 C1140 1.524 . S
C1141 C1142 1.415 . S
C1142 H1118 0.950 . S
C1142 C1137 1.363 . S
C1142 C1141 1.415 . S
C1143 H1119 0.951 . S
C1143 C1144 1.366 . S
C1143 C1145 1.388 . S
C1144 C1143 1.366 . S
C1144 C1148 1.385 1_455 S
C1145 H1120 0.951 . S
C1145 C1143 1.388 . S
C1145 C1146 1.366 1_455 S
C1146 C1145 1.366 1_655 S
C1146 C1147 1.414 . S
C1146 C1149 1.499 . S
C1147 H1121 0.950 . S
C1147 C1146 1.414 . S
C1147 C1148 1.374 . S
C1148 H1122 0.950 . S
C1148 C1144 1.385 1_655 S
C1148 C1147 1.374 . S
C1149 C1146 1.499 . S
C1149 C1150 1.373 . S
C1149 C1151 1.389 . S
C1150 H1123 0.950 . S
C1150 C1136 1.377 . S
C1150 C1149 1.373 . S
C1151 C1135 1.377 . S
C1151 C1149 1.389 . S
C1151 C1152 1.525 . S
C1152 C1151 1.525 . S
C1152 C1153 1.403 . S
C1152 C1157 1.357 1_655 S
C1153 H1124 0.950 . S
C1153 C1152 1.403 . S
C1153 C1154 1.334 . S
C1154 H1125 0.950 . S
C1154 C1153 1.334 . S
C1154 C1155 1.287 1_655 S
C1155 C1154 1.287 1_455 S
C1155 C1156 1.524 . S
C1155 H1158 0.999 . S
C1156 H1126 0.950 . S
C1156 C1155 1.524 . S
C1156 C1157 1.415 . S
C1157 H1127 0.950 . S
C1157 C1152 1.357 1_455 S
C1157 C1156 1.415 . S
H1158 C1155 0.999 . S
H1159 C1140 0.913 . S
H1160 C1178 0.951 . S
H1161 C1180 0.951 . S
H1162 C1182 0.950 . S
H1163 C1183 0.950 . S
H1164 C1185 0.950 . S
H1165 C1188 0.950 . S
H1166 C1189 0.950 . S
H1167 C1191 0.950 . S
H1168 C1192 0.950 . S
H1169 C1193 0.951 . S
H1170 C1195 0.951 . S
H1171 C1197 0.950 . S
H1172 C1198 0.950 . S
H1173 C1200 0.950 . S
H1174 C1203 0.950 . S
H1175 C1204 0.950 . S
H1176 C1206 0.950 . S
H1177 C1207 0.950 . S
C1178 H1160 0.951 . S
C1178 C1179 1.366 . S
C1178 C1180 1.388 . S
C1179 C1178 1.366 . S
C1179 C1183 1.385 . S
C1180 H1161 0.951 . S
C1180 C1178 1.388 . S
C1180 C1181 1.366 . S
C1181 C1180 1.366 . S
C1181 C1182 1.414 . S
C1181 C1184 1.499 . S
C1182 H1162 0.950 . S
C1182 C1181 1.414 . S
C1182 C1183 1.374 . S
C1183 H1163 0.950 . S
C1183 C1179 1.385 . S
C1183 C1182 1.374 . S
C1184 C1181 1.499 . S
C1184 C1185 1.373 . S
C1184 C1186 1.389 . S
C1185 H1164 0.950 . S
C1185 C1184 1.373 . S
C1185 C1201 1.377 . S
C1186 C1184 1.389 . S
C1186 C1187 1.524 . S
C1186 C1200 1.377 . S
C1187 C1186 1.524 . S
C1187 C1188 1.397 . S
C1187 C1192 1.363 . S
C1188 H1165 0.950 . S
C1188 C1187 1.397 . S
C1188 C1189 1.334 . S
C1189 H1166 0.950 . S
C1189 C1188 1.334 . S
C1189 C1190 1.287 . S
C1190 C1189 1.287 . S
C1190 C1191 1.524 . S
C1190 H1209 0.913 . S
C1191 H1167 0.950 . S
C1191 C1190 1.524 . S
C1191 C1192 1.415 . S
C1192 H1168 0.950 . S
C1192 C1187 1.363 . S
C1192 C1191 1.415 . S
C1193 H1169 0.951 . S
C1193 C1194 1.366 . S
C1193 C1195 1.388 . S
C1194 C1193 1.366 . S
C1194 C1198 1.385 . S
C1195 H1170 0.951 . S
C1195 C1193 1.388 . S
C1195 C1196 1.366 . S
C1196 C1195 1.366 . S
C1196 C1197 1.414 . S
C1196 C1199 1.499 . S
C1197 H1171 0.950 . S
C1197 C1196 1.414 . S
C1197 C1198 1.374 . S
C1198 H1172 0.950 . S
C1198 C1194 1.385 . S
C1198 C1197 1.374 . S
C1199 C1196 1.499 . S
C1199 C1200 1.373 . S
C1199 C1201 1.389 . S
C1200 H1173 0.950 . S
C1200 C1186 1.377 . S
C1200 C1199 1.373 . S
C1201 C1185 1.377 . S
C1201 C1199 1.389 . S
C1201 C1202 1.524 . S
C1202 C1201 1.524 . S
C1202 C1203 1.397 . S
C1202 C1207 1.363 . S
C1203 H1174 0.950 . S
C1203 C1202 1.397 . S
C1203 C1204 1.334 . S
C1204 H1175 0.950 . S
C1204 C1203 1.334 . S
C1204 C1205 1.287 . S
C1205 C1204 1.287 . S
C1205 C1206 1.524 . S
C1205 H1208 0.999 . S
C1206 H1176 0.950 . S
C1206 C1205 1.524 . S
C1206 C1207 1.415 . S
C1207 H1177 0.950 . S
C1207 C1202 1.363 . S
C1207 C1206 1.415 . S
H1208 C1205 0.999 . S
H1209 C1190 0.913 . S
H1210 C1228 0.951 . S
H1211 C1230 0.951 . S
H1212 C1232 0.950 . S
H1213 C1233 0.950 . S
H1214 C1235 0.950 . S
H1215 C1238 0.950 . S
H1216 C1239 0.950 . S
H1217 C1241 0.950 . S
H1218 C1242 0.950 . S
H1219 C1243 0.951 . S
H1220 C1245 0.951 . S
H1221 C1247 0.950 . S
H1222 C1248 0.950 . S
H1223 C1250 0.950 . S
H1224 C1253 0.950 . S
H1225 C1254 0.950 . S
H1226 C1256 0.950 . S
H1227 C1257 0.950 . S
C1228 H1210 0.951 . S
C1228 C1229 1.366 . S
C1228 C1230 1.388 . S
C1229 C1228 1.366 . S
C1229 C1233 1.385 . S
C1230 H1211 0.951 . S
C1230 C1228 1.388 . S
C1230 C1231 1.366 . S
C1231 C1230 1.366 . S
C1231 C1232 1.414 . S
C1231 C1234 1.499 . S
C1232 H1212 0.950 . S
C1232 C1231 1.414 . S
C1232 C1233 1.374 . S
C1233 H1213 0.950 . S
C1233 C1229 1.385 . S
C1233 C1232 1.374 . S
C1234 C1231 1.499 . S
C1234 C1235 1.373 . S
C1234 C1236 1.389 . S
C1235 H1214 0.950 . S
C1235 C1234 1.373 . S
C1235 C1251 1.377 . S
C1236 C1234 1.389 . S
C1236 C1237 1.524 . S
C1236 C1250 1.377 . S
C1237 C1236 1.524 . S
C1237 C1238 1.397 . S
C1237 C1242 1.363 . S
C1238 H1215 0.950 . S
C1238 C1237 1.397 . S
C1238 C1239 1.334 . S
C1239 H1216 0.950 . S
C1239 C1238 1.334 . S
C1239 C1240 1.287 . S
C1240 C1239 1.287 . S
C1240 C1241 1.524 . S
C1240 H1259 0.913 . S
C1241 H1217 0.950 . S
C1241 C1240 1.524 . S
C1241 C1242 1.415 . S
C1242 H1218 0.950 . S
C1242 C1237 1.363 . S
C1242 C1241 1.415 . S
C1243 H1219 0.951 . S
C1243 C1244 1.366 . S
C1243 C1245 1.388 . S
C1244 C1243 1.366 . S
C1244 C1248 1.385 . S
C1245 H1220 0.951 . S
C1245 C1243 1.388 . S
C1245 C1246 1.366 . S
C1246 C1245 1.366 . S
C1246 C1247 1.414 . S
C1246 C1249 1.499 . S
C1247 H1221 0.950 . S
C1247 C1246 1.414 . S
C1247 C1248 1.374 . S
C1248 H1222 0.950 . S
C1248 C1244 1.385 . S
C1248 C1247 1.374 . S
C1249 C1246 1.499 . S
C1249 C1250 1.373 . S
C1249 C1251 1.389 . S
C1250 H1223 0.950 . S
C1250 C1236 1.377 . S
C1250 C1249 1.373 . S
C1251 C1235 1.377 . S
C1251 C1249 1.389 . S
C1251 C1252 1.524 . S
C1252 C1251 1.524 . S
C1252 C1253 1.397 . S
C1252 C1257 1.363 . S
C1253 H1224 0.950 . S
C1253 C1252 1.397 . S
C1253 C1254 1.334 . S
C1254 H1225 0.950 . S
C1254 C1253 1.334 . S
C1254 C1255 1.287 . S
C1255 C1254 1.287 . S
C1255 C1256 1.524 . S
C1255 H1258 0.999 . S
C1256 H1226 0.950 . S
C1256 C1255 1.524 . S
C1256 C1257 1.415 . S
C1257 H1227 0.950 . S
C1257 C1252 1.363 . S
C1257 C1256 1.415 . S
H1258 C1255 0.999 . S
H1259 C1240 0.913 . S
H1260 C1278 0.951 . S
H1261 C1280 0.951 . S
H1262 C1282 0.950 . S
H1263 C1283 0.950 . S
H1264 C1285 0.950 1_545 S
H1265 C1288 0.950 . S
H1266 C1289 0.950 . S
H1267 C1291 0.950 . S
H1268 C1292 0.950 . S
H1269 C1293 0.951 . S
H1270 C1295 0.952 1_554 S
H1271 C1297 0.950 . S
H1272 C1298 0.950 . S
H1273 C1300 0.950 . S
H1274 C1303 0.950 . S
H1275 C1304 0.950 . S
H1276 C1306 0.950 . S
H1277 C1307 0.967 . S
C1278 H1260 0.951 . S
C1278 C1279 1.366 . S
C1278 C1280 1.388 1_545 S
C1279 C1278 1.366 . S
C1279 C1283 1.385 . S
C1280 H1261 0.951 . S
C1280 C1278 1.388 1_565 S
C1280 C1281 1.366 1_565 S
C1281 C1280 1.366 1_545 S
C1281 C1282 1.414 . S
C1281 C1284 1.499 1_545 S
C1282 H1262 0.950 . S
C1282 C1281 1.414 . S
C1282 C1283 1.374 . S
C1283 H1263 0.950 . S
C1283 C1279 1.385 . S
C1283 C1282 1.374 . S
C1284 C1281 1.499 1_565 S
C1284 C1285 1.373 . S
C1284 C1286 1.389 . S
C1285 H1264 0.950 1_565 S
C1285 C1284 1.373 . S
C1285 C1301 1.377 . S
C1286 C1284 1.389 . S
C1286 C1287 1.524 . S
C1286 C1300 1.377 . S
C1287 C1286 1.524 . S
C1287 C1288 1.397 . S
C1287 C1292 1.363 . S
C1288 H1265 0.950 . S
C1288 C1287 1.397 . S
C1288 C1289 1.334 . S
C1289 H1266 0.950 . S
C1289 C1288 1.334 . S
C1289 C1290 1.287 . S
C1290 C1289 1.287 . S
C1290 C1291 1.524 . S
C1290 H1309 0.913 . S
C1291 H1267 0.950 . S
C1291 C1290 1.524 . S
C1291 C1292 1.415 . S
C1292 H1268 0.950 . S
C1292 C1287 1.363 . S
C1292 C1291 1.415 . S
C1293 H1269 0.951 . S
C1293 C1294 1.366 . S
C1293 C1295 1.361 1_554 S
C1294 C1293 1.366 . S
C1294 C1298 1.385 1_554 S
C1295 H1270 0.952 1_556 S
C1295 C1293 1.361 1_556 S
C1295 C1296 1.396 . S
C1296 C1295 1.396 . S
C1296 C1297 1.414 . S
C1296 C1299 1.499 . S
C1297 H1271 0.950 . S
C1297 C1296 1.414 . S
C1297 C1298 1.374 . S
C1298 H1272 0.950 . S
C1298 C1294 1.385 1_556 S
C1298 C1297 1.374 . S
C1299 C1296 1.499 . S
C1299 C1300 1.373 . S
C1299 C1301 1.389 . S
C1300 H1273 0.950 . S
C1300 C1286 1.377 . S
C1300 C1299 1.373 . S
C1301 C1285 1.377 . S
C1301 C1299 1.389 . S
C1301 C1302 1.524 1_556 S
C1302 C1301 1.524 1_554 S
C1302 C1303 1.397 . S
C1302 C1307 1.343 1_565 S
C1303 H1274 0.950 . S
C1303 C1302 1.397 . S
C1303 C1304 1.334 . S
C1304 H1275 0.950 . S
C1304 C1303 1.334 . S
C1304 C1305 1.287 . S
C1305 C1304 1.287 . S
C1305 C1306 1.524 1_565 S
C1305 H1308 0.999 . S
C1306 H1276 0.950 . S
C1306 C1305 1.524 1_545 S
C1306 C1307 1.418 . S
C1307 H1277 0.967 . S
C1307 C1302 1.343 1_545 S
C1307 C1306 1.418 . S
H1308 C1305 0.999 . S
H1309 C1290 0.913 . S
H1310 C1328 0.951 . S
H1311 C1330 0.951 . S
H1312 C1332 0.950 . S
H1313 C1333 0.950 . S
H1314 C1335 0.950 . S
H1315 C1338 0.950 . S
H1316 C1339 0.950 . S
H1317 C1341 0.950 . S
H1318 C1342 0.950 . S
H1319 C1343 0.951 . S
H1320 C1345 0.951 . S
H1321 C1347 0.950 . S
H1322 C1348 0.950 . S
H1323 C1350 0.950 . S
H1324 C1353 0.950 . S
H1325 C1354 0.950 . S
H1326 C1356 0.950 . S
H1327 C1357 0.950 . S
C1328 H1310 0.951 . S
C1328 C1329 1.366 . S
C1328 C1330 1.388 . S
C1329 C1328 1.366 . S
C1329 C1333 1.385 . S
C1330 H1311 0.951 . S
C1330 C1328 1.388 . S
C1330 C1331 1.366 . S
C1331 C1330 1.366 . S
C1331 C1332 1.414 . S
C1331 C1334 1.499 . S
C1332 H1312 0.950 . S
C1332 C1331 1.414 . S
C1332 C1333 1.374 . S
C1333 H1313 0.950 . S
C1333 C1329 1.385 . S
C1333 C1332 1.374 . S
C1334 C1331 1.499 . S
C1334 C1335 1.373 . S
C1334 C1336 1.389 . S
C1335 H1314 0.950 . S
C1335 C1334 1.373 . S
C1335 C1351 1.377 . S
C1336 C1334 1.389 . S
C1336 C1337 1.524 . S
C1336 C1350 1.377 . S
C1337 C1336 1.524 . S
C1337 C1338 1.397 . S
C1337 C1342 1.363 . S
C1338 H1315 0.950 . S
C1338 C1337 1.397 . S
C1338 C1339 1.334 . S
C1339 H1316 0.950 . S
C1339 C1338 1.334 . S
C1339 C1340 1.287 . S
C1340 C1339 1.287 . S
C1340 C1341 1.524 . S
C1340 H1359 0.913 . S
C1341 H1317 0.950 . S
C1341 C1340 1.524 . S
C1341 C1342 1.415 . S
C1342 H1318 0.950 . S
C1342 C1337 1.363 . S
C1342 C1341 1.415 . S
C1343 H1319 0.951 . S
C1343 C1344 1.366 . S
C1343 C1345 1.388 . S
C1344 C1343 1.366 . S
C1344 C1348 1.385 . S
C1345 H1320 0.951 . S
C1345 C1343 1.388 . S
C1345 C1346 1.366 . S
C1346 C1345 1.366 . S
C1346 C1347 1.414 . S
C1346 C1349 1.499 . S
C1347 H1321 0.950 . S
C1347 C1346 1.414 . S
C1347 C1348 1.374 . S
C1348 H1322 0.950 . S
C1348 C1344 1.385 . S
C1348 C1347 1.374 . S
C1349 C1346 1.499 . S
C1349 C1350 1.373 . S
C1349 C1351 1.389 . S
C1350 H1323 0.950 . S
C1350 C1336 1.377 . S
C1350 C1349 1.373 . S
C1351 C1335 1.377 . S
C1351 C1349 1.389 . S
C1351 C1352 1.524 . S
C1352 C1351 1.524 . S
C1352 C1353 1.397 . S
C1352 C1357 1.363 . S
C1353 H1324 0.950 . S
C1353 C1352 1.397 . S
C1353 C1354 1.334 . S
C1354 H1325 0.950 . S
C1354 C1353 1.334 . S
C1354 C1355 1.287 . S
C1355 C1354 1.287 . S
C1355 C1356 1.524 . S
C1355 H1358 0.999 . S
C1356 H1326 0.950 . S
C1356 C1355 1.524 . S
C1356 C1357 1.415 . S
C1357 H1327 0.950 . S
C1357 C1352 1.363 . S
C1357 C1356 1.415 . S
H1358 C1355 0.999 . S
H1359 C1340 0.913 . S
H1360 C1378 0.951 . S
H1361 C1380 0.951 . S
H1362 C1382 0.950 . S
H1363 C1383 0.951 . S
H1364 C1385 0.950 . S
H1365 C1388 0.950 . S
H1366 C1389 0.950 . S
H1367 C1391 0.950 . S
H1368 C1392 0.950 . S
H1369 C1393 0.951 . S
H1370 C1395 0.951 . S
H1371 C1397 0.950 . S
H1372 C1398 0.950 . S
H1373 C1400 0.950 . S
H1374 C1403 0.950 . S
H1375 C1404 0.950 . S
H1376 C1406 0.950 . S
H1377 C1407 0.950 . S
C1378 H1360 0.951 . S
C1378 C1379 1.366 . S
C1378 C1380 1.388 1_565 S
C1379 C1378 1.366 . S
C1379 C1383 1.387 . S
C1380 H1361 0.951 . S
C1380 C1378 1.388 1_545 S
C1380 C1381 1.366 . S
C1381 C1380 1.366 . S
C1381 C1382 1.414 . S
C1381 C1384 1.499 . S
C1382 H1362 0.950 . S
C1382 C1381 1.414 . S
C1382 C1383 1.370 1_545 S
C1383 H1363 0.951 . S
C1383 C1379 1.387 . S
C1383 C1382 1.370 1_565 S
C1384 C1381 1.499 . S
C1384 C1385 1.373 . S
C1384 C1386 1.389 . S
C1385 H1364 0.950 . S
C1385 C1384 1.373 . S
C1385 C1401 1.377 . S
C1386 C1384 1.389 . S
C1386 C1387 1.524 . S
C1386 C1400 1.377 . S
C1387 C1386 1.524 . S
C1387 C1388 1.397 . S
C1387 C1392 1.363 . S
C1388 H1365 0.950 . S
C1388 C1387 1.397 . S
C1388 C1389 1.334 . S
C1389 H1366 0.950 . S
C1389 C1388 1.334 . S
C1389 C1390 1.287 . S
C1390 C1389 1.287 . S
C1390 C1391 1.524 . S
C1390 H1409 0.913 . S
C1391 H1367 0.950 . S
C1391 C1390 1.524 . S
C1391 C1392 1.415 . S
C1392 H1368 0.950 . S
C1392 C1387 1.363 . S
C1392 C1391 1.415 . S
C1393 H1369 0.951 . S
C1393 C1394 1.366 . S
C1393 C1395 1.388 . S
C1394 C1393 1.366 . S
C1394 C1398 1.385 . S
C1395 H1370 0.951 . S
C1395 C1393 1.388 . S
C1395 C1396 1.366 . S
C1396 C1395 1.366 . S
C1396 C1397 1.414 . S
C1396 C1399 1.499 . S
C1397 H1371 0.950 . S
C1397 C1396 1.414 . S
C1397 C1398 1.374 . S
C1398 H1372 0.950 . S
C1398 C1394 1.385 . S
C1398 C1397 1.374 . S
C1399 C1396 1.499 . S
C1399 C1400 1.373 . S
C1399 C1401 1.389 . S
C1400 H1373 0.950 . S
C1400 C1386 1.377 . S
C1400 C1399 1.373 . S
C1401 C1385 1.377 . S
C1401 C1399 1.389 . S
C1401 C1402 1.524 . S
C1402 C1401 1.524 . S
C1402 C1403 1.397 . S
C1402 C1407 1.363 . S
C1403 H1374 0.950 . S
C1403 C1402 1.397 . S
C1403 C1404 1.334 . S
C1404 H1375 0.950 . S
C1404 C1403 1.334 . S
C1404 C1405 1.287 . S
C1405 C1404 1.287 . S
C1405 C1406 1.524 . S
C1405 H1408 0.999 . S
C1406 H1376 0.950 . S
C1406 C1405 1.524 . S
C1406 C1407 1.415 . S
C1407 H1377 0.950 . S
C1407 C1402 1.363 . S
C1407 C1406 1.415 . S
H1408 C1405 0.999 . S
H1409 C1390 0.913 . S
H1410 C1428 0.951 . S
H1411 C1430 0.951 . S
H1412 C1432 0.950 . S
H1413 C1433 0.950 . S
H1414 C1435 0.950 . S
H1415 C1438 0.950 . S
H1416 C1439 0.950 . S
H1417 C1441 0.950 . S
H1418 C1442 0.950 . S
H1419 C1443 0.951 . S
H1420 C1445 0.951 . S
H1421 C1447 0.950 . S
H1422 C1448 0.950 . S
H1423 C1450 0.950 . S
H1424 C1453 0.950 . S
H1425 C1454 0.950 . S
H1426 C1456 0.950 . S
H1427 C1457 0.950 . S
C1428 H1410 0.951 . S
C1428 C1429 1.366 . S
C1428 C1430 1.388 . S
C1429 C1428 1.366 . S
C1429 C1433 1.385 . S
C1430 H1411 0.951 . S
C1430 C1428 1.388 . S
C1430 C1431 1.366 . S
C1431 C1430 1.366 . S
C1431 C1432 1.414 . S
C1431 C1434 1.499 . S
C1432 H1412 0.950 . S
C1432 C1431 1.414 . S
C1432 C1433 1.374 . S
C1433 H1413 0.950 . S
C1433 C1429 1.385 . S
C1433 C1432 1.374 . S
C1434 C1431 1.499 . S
C1434 C1435 1.373 . S
C1434 C1436 1.389 . S
C1435 H1414 0.950 . S
C1435 C1434 1.373 . S
C1435 C1451 1.377 . S
C1436 C1434 1.389 . S
C1436 C1437 1.524 . S
C1436 C1450 1.377 . S
C1437 C1436 1.524 . S
C1437 C1438 1.397 . S
C1437 C1442 1.363 . S
C1438 H1415 0.950 . S
C1438 C1437 1.397 . S
C1438 C1439 1.334 . S
C1439 H1416 0.950 . S
C1439 C1438 1.334 . S
C1439 C1440 1.287 . S
C1440 C1439 1.287 . S
C1440 C1441 1.524 . S
C1440 H1459 0.913 . S
C1441 H1417 0.950 . S
C1441 C1440 1.524 . S
C1441 C1442 1.415 . S
C1442 H1418 0.950 . S
C1442 C1437 1.363 . S
C1442 C1441 1.415 . S
C1443 H1419 0.951 . S
C1443 C1444 1.366 . S
C1443 C1445 1.388 . S
C1444 C1443 1.366 . S
C1444 C1448 1.385 . S
C1445 H1420 0.951 . S
C1445 C1443 1.388 . S
C1445 C1446 1.366 . S
C1446 C1445 1.366 . S
C1446 C1447 1.414 . S
C1446 C1449 1.499 . S
C1447 H1421 0.950 . S
C1447 C1446 1.414 . S
C1447 C1448 1.374 . S
C1448 H1422 0.950 . S
C1448 C1444 1.385 . S
C1448 C1447 1.374 . S
C1449 C1446 1.499 . S
C1449 C1450 1.373 . S
C1449 C1451 1.389 . S
C1450 H1423 0.950 . S
C1450 C1436 1.377 . S
C1450 C1449 1.373 . S
C1451 C1435 1.377 . S
C1451 C1449 1.389 . S
C1451 C1452 1.524 . S
C1452 C1451 1.524 . S
C1452 C1453 1.397 . S
C1452 C1457 1.363 . S
C1453 H1424 0.950 . S
C1453 C1452 1.397 . S
C1453 C1454 1.334 . S
C1454 H1425 0.950 . S
C1454 C1453 1.334 . S
C1454 C1455 1.287 . S
C1455 C1454 1.287 . S
C1455 C1456 1.524 . S
C1455 H1458 0.999 . S
C1456 H1426 0.950 . S
C1456 C1455 1.524 . S
C1456 C1457 1.415 . S
C1457 H1427 0.950 . S
C1457 C1452 1.363 . S
C1457 C1456 1.415 . S
H1458 C1455 0.999 . S
H1459 C1440 0.913 . S
H1460 C1478 0.984 . S
H1461 C1480 0.951 . S
H1462 C1482 0.950 . S
H1463 C1483 0.950 . S
H1464 C1485 0.950 . S
H1465 C1488 0.950 . S
H1466 C1489 0.950 . S
H1467 C1491 0.950 . S
H1468 C1492 0.950 . S
H1469 C1493 0.951 . S
H1470 C1495 0.951 . S
H1471 C1497 0.950 . S
H1472 C1498 0.950 . S
H1473 C1500 0.950 . S
H1474 C1503 0.950 . S
H1475 C1504 0.950 . S
H1476 C1506 0.950 . S
H1477 C1507 0.950 . S
C1478 H1460 0.984 . S
C1478 C1479 1.366 . S
C1478 C1480 1.350 1_565 S
C1479 C1478 1.366 . S
C1479 C1483 1.354 1_565 S
C1480 H1461 0.951 . S
C1480 C1478 1.350 1_545 S
C1480 C1481 1.366 . S
C1481 C1480 1.366 . S
C1481 C1482 1.414 . S
C1481 C1484 1.499 . S
C1482 H1462 0.950 . S
C1482 C1481 1.414 . S
C1482 C1483 1.374 . S
C1483 H1463 0.950 . S
C1483 C1479 1.354 1_545 S
C1483 C1482 1.374 . S
C1484 C1481 1.499 . S
C1484 C1485 1.373 . S
C1484 C1486 1.389 . S
C1485 H1464 0.950 . S
C1485 C1484 1.373 . S
C1485 C1501 1.377 . S
C1486 C1484 1.389 . S
C1486 C1487 1.524 . S
C1486 C1500 1.377 . S
C1487 C1486 1.524 . S
C1487 C1488 1.397 . S
C1487 C1492 1.363 . S
C1488 H1465 0.950 . S
C1488 C1487 1.397 . S
C1488 C1489 1.334 . S
C1489 H1466 0.950 . S
C1489 C1488 1.334 . S
C1489 C1490 1.287 . S
C1490 C1489 1.287 . S
C1490 C1491 1.524 . S
C1490 H1509 0.913 . S
C1491 H1467 0.950 . S
C1491 C1490 1.524 . S
C1491 C1492 1.415 . S
C1492 H1468 0.950 . S
C1492 C1487 1.363 . S
C1492 C1491 1.415 . S
C1493 H1469 0.951 . S
C1493 C1494 1.366 . S
C1493 C1495 1.388 . S
C1494 C1493 1.366 . S
C1494 C1498 1.385 . S
C1495 H1470 0.951 . S
C1495 C1493 1.388 . S
C1495 C1496 1.366 . S
C1496 C1495 1.366 . S
C1496 C1497 1.414 . S
C1496 C1499 1.499 . S
C1497 H1471 0.950 . S
C1497 C1496 1.414 . S
C1497 C1498 1.374 . S
C1498 H1472 0.950 . S
C1498 C1494 1.385 . S
C1498 C1497 1.374 . S
C1499 C1496 1.499 . S
C1499 C1500 1.373 . S
C1499 C1501 1.389 . S
C1500 H1473 0.950 . S
C1500 C1486 1.377 . S
C1500 C1499 1.373 . S
C1501 C1485 1.377 . S
C1501 C1499 1.389 . S
C1501 C1502 1.524 . S
C1502 C1501 1.524 . S
C1502 C1503 1.397 . S
C1502 C1507 1.363 . S
C1503 H1474 0.950 . S
C1503 C1502 1.397 . S
C1503 C1504 1.334 . S
C1504 H1475 0.950 . S
C1504 C1503 1.334 . S
C1504 C1505 1.287 . S
C1505 C1504 1.287 . S
C1505 C1506 1.524 . S
C1505 H1508 0.999 . S
C1506 H1476 0.950 . S
C1506 C1505 1.524 . S
C1506 C1507 1.415 . S
C1507 H1477 0.950 . S
C1507 C1502 1.363 . S
C1507 C1506 1.415 . S
H1508 C1505 0.999 . S
H1509 C1490 0.913 . S
H1510 C1528 0.951 . S
H1511 C1530 0.951 . S
H1512 C1532 0.950 . S
H1513 C1533 0.950 . S
H1514 C1535 0.950 . S
H1515 C1538 0.950 . S
H1516 C1539 0.950 . S
H1517 C1541 0.950 . S
H1518 C1542 0.950 . S
H1519 C1543 0.951 . S
H1520 C1545 0.951 . S
H1521 C1547 0.950 . S
H1522 C1548 0.950 . S
H1523 C1550 0.950 . S
H1524 C1553 0.950 . S
H1525 C1554 0.950 . S
H1526 C1556 0.950 . S
H1527 C1557 0.950 . S
C1528 H1510 0.951 . S
C1528 C1529 1.366 . S
C1528 C1530 1.388 . S
C1529 C1528 1.366 . S
C1529 C1533 1.385 . S
C1530 H1511 0.951 . S
C1530 C1528 1.388 . S
C1530 C1531 1.366 . S
C1531 C1530 1.366 . S
C1531 C1532 1.414 . S
C1531 C1534 1.499 . S
C1532 H1512 0.950 . S
C1532 C1531 1.414 . S
C1532 C1533 1.374 . S
C1533 H1513 0.950 . S
C1533 C1529 1.385 . S
C1533 C1532 1.374 . S
C1534 C1531 1.499 . S
C1534 C1535 1.373 . S
C1534 C1536 1.389 . S
C1535 H1514 0.950 . S
C1535 C1534 1.373 . S
C1535 C1551 1.377 . S
C1536 C1534 1.389 . S
C1536 C1537 1.524 . S
C1536 C1550 1.377 . S
C1537 C1536 1.524 . S
C1537 C1538 1.397 . S
C1537 C1542 1.363 . S
C1538 H1515 0.950 . S
C1538 C1537 1.397 . S
C1538 C1539 1.334 . S
C1539 H1516 0.950 . S
C1539 C1538 1.334 . S
C1539 C1540 1.287 . S
C1540 C1539 1.287 . S
C1540 C1541 1.524 . S
C1540 H1559 0.913 . S
C1541 H1517 0.950 . S
C1541 C1540 1.524 . S
C1541 C1542 1.415 . S
C1542 H1518 0.950 . S
C1542 C1537 1.363 . S
C1542 C1541 1.415 . S
C1543 H1519 0.951 . S
C1543 C1544 1.366 . S
C1543 C1545 1.388 . S
C1544 C1543 1.366 . S
C1544 C1548 1.385 . S
C1545 H1520 0.951 . S
C1545 C1543 1.388 . S
C1545 C1546 1.366 . S
C1546 C1545 1.366 . S
C1546 C1547 1.414 . S
C1546 C1549 1.499 . S
C1547 H1521 0.950 . S
C1547 C1546 1.414 . S
C1547 C1548 1.374 . S
C1548 H1522 0.950 . S
C1548 C1544 1.385 . S
C1548 C1547 1.374 . S
C1549 C1546 1.499 . S
C1549 C1550 1.373 . S
C1549 C1551 1.389 . S
C1550 H1523 0.950 . S
C1550 C1536 1.377 . S
C1550 C1549 1.373 . S
C1551 C1535 1.377 . S
C1551 C1549 1.389 . S
C1551 C1552 1.524 . S
C1552 C1551 1.524 . S
C1552 C1553 1.397 . S
C1552 C1557 1.363 . S
C1553 H1524 0.950 . S
C1553 C1552 1.397 . S
C1553 C1554 1.334 . S
C1554 H1525 0.950 . S
C1554 C1553 1.334 . S
C1554 C1555 1.287 . S
C1555 C1554 1.287 . S
C1555 C1556 1.524 . S
C1555 H1558 0.999 . S
C1556 H1526 0.950 . S
C1556 C1555 1.524 . S
C1556 C1557 1.415 . S
C1557 H1527 0.950 . S
C1557 C1552 1.363 . S
C1557 C1556 1.415 . S
H1558 C1555 0.999 . S
H1559 C1540 0.913 . S
H1560 C1578 0.951 . S
H1561 C1580 0.951 . S
H1562 C1582 0.950 . S
H1563 C1583 0.950 . S
H1564 C1585 0.950 . S
H1565 C1588 0.950 . S
H1566 C1589 0.950 . S
H1567 C1591 0.950 . S
H1568 C1592 0.950 . S
H1569 C1593 0.951 . S
H1570 C1595 0.951 . S
H1571 C1597 0.950 . S
H1572 C1598 0.950 . S
H1573 C1600 0.950 . S
H1574 C1603 0.950 . S
H1575 C1604 0.950 . S
H1576 C1606 0.950 . S
H1577 C1607 0.950 . S
C1578 H1560 0.951 . S
C1578 C1579 1.366 . S
C1578 C1580 1.388 . S
C1579 C1578 1.366 . S
C1579 C1583 1.385 . S
C1580 H1561 0.951 . S
C1580 C1578 1.388 . S
C1580 C1581 1.366 . S
C1581 C1580 1.366 . S
C1581 C1582 1.414 . S
C1581 C1584 1.499 . S
C1582 H1562 0.950 . S
C1582 C1581 1.414 . S
C1582 C1583 1.374 . S
C1583 H1563 0.950 . S
C1583 C1579 1.385 . S
C1583 C1582 1.374 . S
C1584 C1581 1.499 . S
C1584 C1585 1.373 . S
C1584 C1586 1.389 . S
C1585 H1564 0.950 . S
C1585 C1584 1.373 . S
C1585 C1601 1.377 . S
C1586 C1584 1.389 . S
C1586 C1587 1.524 . S
C1586 C1600 1.377 . S
C1587 C1586 1.524 . S
C1587 C1588 1.397 . S
C1587 C1592 1.363 . S
C1588 H1565 0.950 . S
C1588 C1587 1.397 . S
C1588 C1589 1.334 . S
C1589 H1566 0.950 . S
C1589 C1588 1.334 . S
C1589 C1590 1.287 . S
C1590 C1589 1.287 . S
C1590 C1591 1.524 . S
C1590 H1609 0.913 . S
C1591 H1567 0.950 . S
C1591 C1590 1.524 . S
C1591 C1592 1.415 . S
C1592 H1568 0.950 . S
C1592 C1587 1.363 . S
C1592 C1591 1.415 . S
C1593 H1569 0.951 . S
C1593 C1594 1.366 . S
C1593 C1595 1.388 . S
C1594 C1593 1.366 . S
C1594 C1598 1.385 . S
C1595 H1570 0.951 . S
C1595 C1593 1.388 . S
C1595 C1596 1.366 . S
C1596 C1595 1.366 . S
C1596 C1597 1.414 . S
C1596 C1599 1.499 . S
C1597 H1571 0.950 . S
C1597 C1596 1.414 . S
C1597 C1598 1.374 . S
C1598 H1572 0.950 . S
C1598 C1594 1.385 . S
C1598 C1597 1.374 . S
C1599 C1596 1.499 . S
C1599 C1600 1.373 . S
C1599 C1601 1.389 . S
C1600 H1573 0.950 . S
C1600 C1586 1.377 . S
C1600 C1599 1.373 . S
C1601 C1585 1.377 . S
C1601 C1599 1.389 . S
C1601 C1602 1.524 . S
C1602 C1601 1.524 . S
C1602 C1603 1.397 . S
C1602 C1607 1.363 . S
C1603 H1574 0.950 . S
C1603 C1602 1.397 . S
C1603 C1604 1.334 . S
C1604 H1575 0.950 . S
C1604 C1603 1.334 . S
C1604 C1605 1.287 . S
C1605 C1604 1.287 . S
C1605 C1606 1.524 . S
C1605 H1608 0.999 . S
C1606 H1576 0.950 . S
C1606 C1605 1.524 . S
C1606 C1607 1.415 . S
C1607 H1577 0.950 . S
C1607 C1602 1.363 . S
C1607 C1606 1.415 . S
H1608 C1605 0.999 . S
H1609 C1590 0.913 . S
H1610 C1628 0.951 . S
H1611 C1630 0.951 . S
H1612 C1632 0.950 . S
H1613 C1633 0.950 . S
H1614 C1635 0.950 . S
H1615 C1638 0.950 . S
H1616 C1639 0.950 . S
H1617 C1641 0.950 . S
H1618 C1642 0.950 . S
H1619 C1643 0.951 . S
H1620 C1645 0.951 1_565 S
H1621 C1647 0.950 . S
H1622 C1648 0.950 . S
H1623 C1650 0.950 . S
H1624 C1653 0.952 . S
H1625 C1654 0.950 . S
H1626 C1656 0.950 . S
H1627 C1657 0.950 . S
C1628 H1610 0.951 . S
C1628 C1629 1.366 . S
C1628 C1630 1.388 . S
C1629 C1628 1.366 . S
C1629 C1633 1.385 . S
C1630 H1611 0.951 . S
C1630 C1628 1.388 . S
C1630 C1631 1.366 . S
C1631 C1630 1.366 . S
C1631 C1632 1.414 . S
C1631 C1634 1.499 . S
C1632 H1612 0.950 . S
C1632 C1631 1.414 . S
C1632 C1633 1.374 . S
C1633 H1613 0.950 . S
C1633 C1629 1.385 . S
C1633 C1632 1.374 . S
C1634 C1631 1.499 . S
C1634 C1635 1.373 . S
C1634 C1636 1.389 . S
C1635 H1614 0.950 . S
C1635 C1634 1.373 . S
C1635 C1651 1.377 . S
C1636 C1634 1.389 . S
C1636 C1637 1.524 . S
C1636 C1650 1.377 . S
C1637 C1636 1.524 . S
C1637 C1638 1.397 . S
C1637 C1642 1.363 . S
C1638 H1615 0.950 . S
C1638 C1637 1.397 . S
C1638 C1639 1.334 . S
C1639 H1616 0.950 . S
C1639 C1638 1.334 . S
C1639 C1640 1.287 . S
C1640 C1639 1.287 . S
C1640 C1641 1.524 . S
C1640 H1659 0.913 . S
C1641 H1617 0.950 . S
C1641 C1640 1.524 . S
C1641 C1642 1.415 . S
C1642 H1618 0.950 . S
C1642 C1637 1.363 . S
C1642 C1641 1.415 . S
C1643 H1619 0.951 . S
C1643 C1644 1.366 1_565 S
C1643 C1645 1.388 1_565 S
C1644 C1643 1.366 1_545 S
C1644 C1648 1.385 . S
C1645 H1620 0.951 1_545 S
C1645 C1643 1.388 1_545 S
C1645 C1646 1.366 . S
C1646 C1645 1.366 . S
C1646 C1647 1.414 . S
C1646 C1649 1.499 . S
C1647 H1621 0.950 . S
C1647 C1646 1.414 . S
C1647 C1648 1.374 . S
C1648 H1622 0.950 . S
C1648 C1644 1.385 . S
C1648 C1647 1.374 . S
C1649 C1646 1.499 . S
C1649 C1650 1.373 . S
C1649 C1651 1.389 . S
C1650 H1623 0.950 . S
C1650 C1636 1.377 . S
C1650 C1649 1.373 . S
C1651 C1635 1.377 . S
C1651 C1649 1.389 . S
C1651 C1652 1.524 1_545 S
C1652 C1651 1.524 1_565 S
C1652 C1653 1.397 . S
C1652 C1657 1.363 . S
C1653 H1624 0.952 . S
C1653 C1652 1.397 . S
C1653 C1654 1.334 . S
C1654 H1625 0.950 . S
C1654 C1653 1.334 . S
C1654 C1655 1.287 . S
C1655 C1654 1.287 . S
C1655 C1656 1.524 . S
C1655 H1658 0.999 . S
C1656 H1626 0.950 . S
C1656 C1655 1.524 . S
C1656 C1657 1.415 . S
C1657 H1627 0.950 . S
C1657 C1652 1.363 . S
C1657 C1656 1.415 . S
H1658 C1655 0.999 . S
H1659 C1640 0.913 . S
H1660 C1678 0.951 . S
H1661 C1680 0.951 . S
H1662 C1682 0.950 . S
H1663 C1683 0.950 . S
H1664 C1685 0.950 . S
H1665 C1688 0.950 . S
H1666 C1689 0.950 . S
H1667 C1691 0.950 . S
H1668 C1692 0.950 . S
H1669 C1693 0.951 . S
H1670 C1695 0.951 . S
H1671 C1697 0.950 . S
H1672 C1698 0.950 . S
H1673 C1700 0.950 . S
H1674 C1703 0.950 . S
H1675 C1704 0.950 . S
H1676 C1706 0.950 . S
H1677 C1707 0.950 . S
C1678 H1660 0.951 . S
C1678 C1679 1.366 . S
C1678 C1680 1.388 . S
C1679 C1678 1.366 . S
C1679 C1683 1.385 . S
C1680 H1661 0.951 . S
C1680 C1678 1.388 . S
C1680 C1681 1.366 . S
C1681 C1680 1.366 . S
C1681 C1682 1.414 . S
C1681 C1684 1.499 . S
C1682 H1662 0.950 . S
C1682 C1681 1.414 . S
C1682 C1683 1.374 . S
C1683 H1663 0.950 . S
C1683 C1679 1.385 . S
C1683 C1682 1.374 . S
C1684 C1681 1.499 . S
C1684 C1685 1.373 . S
C1684 C1686 1.389 . S
C1685 H1664 0.950 . S
C1685 C1684 1.373 . S
C1685 C1701 1.377 . S
C1686 C1684 1.389 . S
C1686 C1687 1.524 . S
C1686 C1700 1.377 . S
C1687 C1686 1.524 . S
C1687 C1688 1.397 . S
C1687 C1692 1.363 . S
C1688 H1665 0.950 . S
C1688 C1687 1.397 . S
C1688 C1689 1.334 . S
C1689 H1666 0.950 . S
C1689 C1688 1.334 . S
C1689 C1690 1.287 . S
C1690 C1689 1.287 . S
C1690 C1691 1.524 . S
C1690 H1709 0.913 . S
C1691 H1667 0.950 . S
C1691 C1690 1.524 . S
C1691 C1692 1.415 . S
C1692 H1668 0.950 . S
C1692 C1687 1.363 . S
C1692 C1691 1.415 . S
C1693 H1669 0.951 . S
C1693 C1694 1.366 . S
C1693 C1695 1.388 . S
C1694 C1693 1.366 . S
C1694 C1698 1.385 . S
C1695 H1670 0.951 . S
C1695 C1693 1.388 . S
C1695 C1696 1.366 . S
C1696 C1695 1.366 . S
C1696 C1697 1.414 . S
C1696 C1699 1.499 . S
C1697 H1671 0.950 . S
C1697 C1696 1.414 . S
C1697 C1698 1.374 . S
C1698 H1672 0.950 . S
C1698 C1694 1.385 . S
C1698 C1697 1.374 . S
C1699 C1696 1.499 . S
C1699 C1700 1.373 . S
C1699 C1701 1.389 . S
C1700 H1673 0.950 . S
C1700 C1686 1.377 . S
C1700 C1699 1.373 . S
C1701 C1685 1.377 . S
C1701 C1699 1.389 . S
C1701 C1702 1.524 . S
C1702 C1701 1.524 . S
C1702 C1703 1.397 . S
C1702 C1707 1.363 . S
C1703 H1674 0.950 . S
C1703 C1702 1.397 . S
C1703 C1704 1.334 . S
C1704 H1675 0.950 . S
C1704 C1703 1.334 . S
C1704 C1705 1.287 . S
C1705 C1704 1.287 . S
C1705 C1706 1.524 . S
C1705 H1708 0.999 . S
C1706 H1676 0.950 . S
C1706 C1705 1.524 . S
C1706 C1707 1.415 . S
C1707 H1677 0.950 . S
C1707 C1702 1.363 . S
C1707 C1706 1.415 . S
H1708 C1705 0.999 . S
H1709 C1690 0.913 . S
H1710 C1728 0.951 . S
H1711 C1730 0.951 . S
H1712 C1732 0.950 . S
H1713 C1733 0.950 . S
H1714 C1735 0.950 . S
H1715 C1738 0.950 . S
H1716 C1739 0.950 . S
H1717 C1741 0.950 . S
H1718 C1742 0.950 . S
H1719 C1743 0.951 . S
H1720 C1745 0.951 . S
H1721 C1747 0.950 . S
H1722 C1748 0.950 . S
H1723 C1750 0.950 . S
H1724 C1753 0.950 . S
H1725 C1754 0.950 . S
H1726 C1756 0.950 . S
H1727 C1757 0.950 . S
C1728 H1710 0.951 . S
C1728 C1729 1.366 . S
C1728 C1730 1.388 . S
C1729 C1728 1.366 . S
C1729 C1733 1.385 . S
C1730 H1711 0.951 . S
C1730 C1728 1.388 . S
C1730 C1731 1.366 . S
C1731 C1730 1.366 . S
C1731 C1732 1.414 . S
C1731 C1734 1.499 . S
C1732 H1712 0.950 . S
C1732 C1731 1.414 . S
C1732 C1733 1.374 . S
C1733 H1713 0.950 . S
C1733 C1729 1.385 . S
C1733 C1732 1.374 . S
C1734 C1731 1.499 . S
C1734 C1735 1.373 . S
C1734 C1736 1.389 . S
C1735 H1714 0.950 . S
C1735 C1734 1.373 . S
C1735 C1751 1.377 . S
C1736 C1734 1.389 . S
C1736 C1737 1.524 . S
C1736 C1750 1.377 . S
C1737 C1736 1.524 . S
C1737 C1738 1.397 . S
C1737 C1742 1.363 . S
C1738 H1715 0.950 . S
C1738 C1737 1.397 . S
C1738 C1739 1.334 . S
C1739 H1716 0.950 . S
C1739 C1738 1.334 . S
C1739 C1740 1.287 . S
C1740 C1739 1.287 . S
C1740 C1741 1.524 . S
C1740 H1759 0.913 . S
C1741 H1717 0.950 . S
C1741 C1740 1.524 . S
C1741 C1742 1.415 . S
C1742 H1718 0.950 . S
C1742 C1737 1.363 . S
C1742 C1741 1.415 . S
C1743 H1719 0.951 . S
C1743 C1744 1.366 . S
C1743 C1745 1.388 . S
C1744 C1743 1.366 . S
C1744 C1748 1.385 . S
C1745 H1720 0.951 . S
C1745 C1743 1.388 . S
C1745 C1746 1.366 . S
C1746 C1745 1.366 . S
C1746 C1747 1.414 . S
C1746 C1749 1.499 . S
C1747 H1721 0.950 . S
C1747 C1746 1.414 . S
C1747 C1748 1.374 . S
C1748 H1722 0.950 . S
C1748 C1744 1.385 . S
C1748 C1747 1.374 . S
C1749 C1746 1.499 . S
C1749 C1750 1.373 . S
C1749 C1751 1.389 . S
C1750 H1723 0.950 . S
C1750 C1736 1.377 . S
C1750 C1749 1.373 . S
C1751 C1735 1.377 . S
C1751 C1749 1.389 . S
C1751 C1752 1.524 . S
C1752 C1751 1.524 . S
C1752 C1753 1.397 . S
C1752 C1757 1.363 . S
C1753 H1724 0.950 . S
C1753 C1752 1.397 . S
C1753 C1754 1.334 . S
C1754 H1725 0.950 . S
C1754 C1753 1.334 . S
C1754 C1755 1.287 . S
C1755 C1754 1.287 . S
C1755 C1756 1.524 . S
C1755 H1758 0.999 . S
C1756 H1726 0.950 . S
C1756 C1755 1.524 . S
C1756 C1757 1.415 . S
C1757 H1727 0.950 . S
C1757 C1752 1.363 . S
C1757 C1756 1.415 . S
H1758 C1755 0.999 . S
H1759 C1740 0.913 . S
H1760 C1778 0.951 . S
H1761 C1780 0.951 . S
H1762 C1782 0.950 . S
H1763 C1783 0.950 . S
H1764 C1785 0.950 . S
H1765 C1788 0.950 . S
H1766 C1789 0.950 . S
H1767 C1791 0.950 . S
H1768 C1792 0.950 . S
H1769 C1793 0.951 . S
H1770 C1795 0.951 . S
H1771 C1797 0.950 . S
H1772 C1798 0.950 . S
H1773 C1800 0.950 . S
H1774 C1803 0.950 . S
H1775 C1804 0.950 . S
H1776 C1806 0.950 . S
H1777 C1807 0.950 . S
C1778 H1760 0.951 . S
C1778 C1779 1.366 . S
C1778 C1780 1.388 . S
C1779 C1778 1.366 . S
C1779 C1783 1.385 . S
C1780 H1761 0.951 . S
C1780 C1778 1.388 . S
C1780 C1781 1.366 . S
C1781 C1780 1.366 . S
C1781 C1782 1.414 . S
C1781 C1784 1.499 . S
C1782 H1762 0.950 . S
C1782 C1781 1.414 . S
C1782 C1783 1.374 . S
C1783 H1763 0.950 . S
C1783 C1779 1.385 . S
C1783 C1782 1.374 . S
C1784 C1781 1.499 . S
C1784 C1785 1.373 . S
C1784 C1786 1.389 . S
C1785 H1764 0.950 . S
C1785 C1784 1.373 . S
C1785 C1801 1.377 . S
C1786 C1784 1.389 . S
C1786 C1787 1.524 . S
C1786 C1800 1.377 . S
C1787 C1786 1.524 . S
C1787 C1788 1.397 . S
C1787 C1792 1.363 . S
C1788 H1765 0.950 . S
C1788 C1787 1.397 . S
C1788 C1789 1.334 . S
C1789 H1766 0.950 . S
C1789 C1788 1.334 . S
C1789 C1790 1.287 . S
C1790 C1789 1.287 . S
C1790 C1791 1.524 . S
C1790 H1809 0.913 . S
C1791 H1767 0.950 . S
C1791 C1790 1.524 . S
C1791 C1792 1.415 . S
C1792 H1768 0.950 . S
C1792 C1787 1.363 . S
C1792 C1791 1.415 . S
C1793 H1769 0.951 . S
C1793 C1794 1.366 . S
C1793 C1795 1.388 . S
C1794 C1793 1.366 . S
C1794 C1798 1.385 . S
C1795 H1770 0.951 . S
C1795 C1793 1.388 . S
C1795 C1796 1.366 . S
C1796 C1795 1.366 . S
C1796 C1797 1.414 . S
C1796 C1799 1.499 . S
C1797 H1771 0.950 . S
C1797 C1796 1.414 . S
C1797 C1798 1.374 . S
C1798 H1772 0.950 . S
C1798 C1794 1.385 . S
C1798 C1797 1.374 . S
C1799 C1796 1.499 . S
C1799 C1800 1.373 . S
C1799 C1801 1.389 . S
C1800 H1773 0.950 . S
C1800 C1786 1.377 . S
C1800 C1799 1.373 . S
C1801 C1785 1.377 . S
C1801 C1799 1.389 . S
C1801 C1802 1.524 . S
C1802 C1801 1.524 . S
C1802 C1803 1.397 . S
C1802 C1807 1.363 . S
C1803 H1774 0.950 . S
C1803 C1802 1.397 . S
C1803 C1804 1.334 . S
C1804 H1775 0.950 . S
C1804 C1803 1.334 . S
C1804 C1805 1.287 . S
C1805 C1804 1.287 . S
C1805 C1806 1.524 . S
C1805 H1808 0.999 . S
C1806 H1776 0.950 . S
C1806 C1805 1.524 . S
C1806 C1807 1.415 . S
C1807 H1777 0.950 . S
C1807 C1802 1.363 . S
C1807 C1806 1.415 . S
H1808 C1805 0.999 . S
H1809 C1790 0.913 . S
H1810 C1828 0.951 . S
H1811 C1830 0.951 . S
H1812 C1832 0.950 . S
H1813 C1833 0.950 . S
H1814 C1835 0.950 . S
H1815 C1838 0.950 1_565 S
H1816 C1839 0.950 . S
H1817 C1841 0.950 . S
H1818 C1842 0.950 . S
H1819 C1843 0.951 . S
H1820 C1845 0.951 . S
H1821 C1847 0.950 1_455 S
H1822 C1848 0.950 . S
H1823 C1850 0.950 . S
H1824 C1853 0.950 . S
H1825 C1854 0.950 . S
H1826 C1856 0.950 . S
H1827 C1857 0.950 . S
C1828 H1810 0.951 . S
C1828 C1829 1.366 . S
C1828 C1830 1.388 . S
C1829 C1828 1.366 . S
C1829 C1833 1.385 . S
C1830 H1811 0.951 . S
C1830 C1828 1.388 . S
C1830 C1831 1.366 . S
C1831 C1830 1.366 . S
C1831 C1832 1.414 . S
C1831 C1834 1.499 . S
C1832 H1812 0.950 . S
C1832 C1831 1.414 . S
C1832 C1833 1.374 . S
C1833 H1813 0.950 . S
C1833 C1829 1.385 . S
C1833 C1832 1.374 . S
C1834 C1831 1.499 . S
C1834 C1835 1.373 1_455 S
C1834 C1836 1.389 . S
C1835 H1814 0.950 . S
C1835 C1834 1.373 1_655 S
C1835 C1851 1.377 . S
C1836 C1834 1.389 . S
C1836 C1837 1.524 . S
C1836 C1850 1.377 . S
C1837 C1836 1.524 . S
C1837 C1838 1.397 . S
C1837 C1842 1.363 . S
C1838 H1815 0.950 1_545 S
C1838 C1837 1.397 . S
C1838 C1839 1.334 1_545 S
C1839 H1816 0.950 . S
C1839 C1838 1.334 1_565 S
C1839 C1840 1.287 1_565 S
C1840 C1839 1.287 1_545 S
C1840 C1841 1.524 . S
C1840 H1859 0.913 . S
C1841 H1817 0.950 . S
C1841 C1840 1.524 . S
C1841 C1842 1.415 . S
C1842 H1818 0.950 . S
C1842 C1837 1.363 . S
C1842 C1841 1.415 . S
C1843 H1819 0.951 . S
C1843 C1844 1.366 . S
C1843 C1845 1.388 . S
C1844 C1843 1.366 . S
C1844 C1848 1.385 . S
C1845 H1820 0.951 . S
C1845 C1843 1.388 . S
C1845 C1846 1.366 . S
C1846 C1845 1.366 . S
C1846 C1847 1.414 . S
C1846 C1849 1.499 . S
C1847 H1821 0.950 1_655 S
C1847 C1846 1.414 . S
C1847 C1848 1.374 . S
C1848 H1822 0.950 . S
C1848 C1844 1.385 . S
C1848 C1847 1.374 . S
C1849 C1846 1.499 . S
C1849 C1850 1.373 1_655 S
C1849 C1851 1.389 . S
C1850 H1823 0.950 . S
C1850 C1836 1.377 . S
C1850 C1849 1.373 1_455 S
C1851 C1835 1.377 . S
C1851 C1849 1.389 . S
C1851 C1852 1.524 . S
C1852 C1851 1.524 . S
C1852 C1853 1.397 . S
C1852 C1857 1.363 . S
C1853 H1824 0.950 . S
C1853 C1852 1.397 . S
C1853 C1854 1.334 . S
C1854 H1825 0.950 . S
C1854 C1853 1.334 . S
C1854 C1855 1.287 . S
C1855 C1854 1.287 . S
C1855 C1856 1.524 . S
C1855 H1858 0.999 . S
C1856 H1826 0.950 . S
C1856 C1855 1.524 . S
C1856 C1857 1.415 . S
C1857 H1827 0.950 . S
C1857 C1852 1.363 . S
C1857 C1856 1.415 . S
H1858 C1855 0.999 . S
H1859 C1840 0.913 . S
H1860 C1878 0.951 . S
H1861 C1880 0.951 . S
H1862 C1882 0.950 . S
H1863 C1883 0.950 . S
H1864 C1885 0.950 . S
H1865 C1888 0.950 . S
H1866 C1889 0.950 . S
H1867 C1891 0.950 . S
H1868 C1892 0.950 . S
H1869 C1893 0.951 . S
H1870 C1895 0.951 . S
H1871 C1897 0.950 . S
H1872 C1898 0.950 . S
H1873 C1900 0.950 . S
H1874 C1903 0.950 . S
H1875 C1904 0.950 . S
H1876 C1906 0.950 . S
H1877 C1907 0.950 . S
C1878 H1860 0.951 . S
C1878 C1879 1.366 . S
C1878 C1880 1.388 . S
C1879 C1878 1.366 . S
C1879 C1883 1.385 . S
C1880 H1861 0.951 . S
C1880 C1878 1.388 . S
C1880 C1881 1.366 . S
C1881 C1880 1.366 . S
C1881 C1882 1.414 . S
C1881 C1884 1.499 . S
C1882 H1862 0.950 . S
C1882 C1881 1.414 . S
C1882 C1883 1.374 . S
C1883 H1863 0.950 . S
C1883 C1879 1.385 . S
C1883 C1882 1.374 . S
C1884 C1881 1.499 . S
C1884 C1885 1.373 . S
C1884 C1886 1.389 . S
C1885 H1864 0.950 . S
C1885 C1884 1.373 . S
C1885 C1901 1.377 . S
C1886 C1884 1.389 . S
C1886 C1887 1.524 . S
C1886 C1900 1.377 . S
C1887 C1886 1.524 . S
C1887 C1888 1.397 . S
C1887 C1892 1.363 . S
C1888 H1865 0.950 . S
C1888 C1887 1.397 . S
C1888 C1889 1.334 . S
C1889 H1866 0.950 . S
C1889 C1888 1.334 . S
C1889 C1890 1.287 . S
C1890 C1889 1.287 . S
C1890 C1891 1.524 . S
C1890 H1909 0.913 . S
C1891 H1867 0.950 . S
C1891 C1890 1.524 . S
C1891 C1892 1.415 . S
C1892 H1868 0.950 . S
C1892 C1887 1.363 . S
C1892 C1891 1.415 . S
C1893 H1869 0.951 . S
C1893 C1894 1.366 . S
C1893 C1895 1.388 . S
C1894 C1893 1.366 . S
C1894 C1898 1.385 . S
C1895 H1870 0.951 . S
C1895 C1893 1.388 . S
C1895 C1896 1.366 . S
C1896 C1895 1.366 . S
C1896 C1897 1.414 . S
C1896 C1899 1.499 . S
C1897 H1871 0.950 . S
C1897 C1896 1.414 . S
C1897 C1898 1.374 . S
C1898 H1872 0.950 . S
C1898 C1894 1.385 . S
C1898 C1897 1.374 . S
C1899 C1896 1.499 . S
C1899 C1900 1.373 . S
C1899 C1901 1.389 . S
C1900 H1873 0.950 . S
C1900 C1886 1.377 . S
C1900 C1899 1.373 . S
C1901 C1885 1.377 . S
C1901 C1899 1.389 . S
C1901 C1902 1.524 . S
C1902 C1901 1.524 . S
C1902 C1903 1.397 . S
C1902 C1907 1.363 . S
C1903 H1874 0.950 . S
C1903 C1902 1.397 . S
C1903 C1904 1.334 . S
C1904 H1875 0.950 . S
C1904 C1903 1.334 . S
C1904 C1905 1.287 . S
C1905 C1904 1.287 . S
C1905 C1906 1.524 . S
C1905 H1908 0.999 . S
C1906 H1876 0.950 . S
C1906 C1905 1.524 . S
C1906 C1907 1.415 . S
C1907 H1877 0.950 . S
C1907 C1902 1.363 . S
C1907 C1906 1.415 . S
H1908 C1905 0.999 . S
H1909 C1890 0.913 . S
H1910 C1928 0.951 . S
H1911 C1930 0.951 . S
H1912 C1932 0.950 . S
H1913 C1933 0.950 . S
H1914 C1935 0.950 . S
H1915 C1938 0.950 . S
H1916 C1939 0.950 . S
H1917 C1941 0.950 . S
H1918 C1942 0.950 . S
H1919 C1943 0.951 . S
H1920 C1945 0.951 . S
H1921 C1947 0.950 . S
H1922 C1948 0.950 . S
H1923 C1950 0.950 . S
H1924 C1953 0.950 . S
H1925 C1954 0.950 . S
H1926 C1956 0.950 1_655 S
H1927 C1957 0.950 . S
C1928 H1910 0.951 . S
C1928 C1929 1.366 1_455 S
C1928 C1930 1.388 . S
C1929 C1928 1.366 1_655 S
C1929 C1933 1.385 . S
C1930 H1911 0.951 . S
C1930 C1928 1.388 . S
C1930 C1931 1.366 . S
C1931 C1930 1.366 . S
C1931 C1932 1.414 1_455 S
C1931 C1934 1.499 . S
C1932 H1912 0.950 . S
C1932 C1931 1.414 1_655 S
C1932 C1933 1.374 . S
C1933 H1913 0.950 . S
C1933 C1929 1.385 . S
C1933 C1932 1.374 . S
C1934 C1931 1.499 . S
C1934 C1935 1.373 . S
C1934 C1936 1.389 . S
C1935 H1914 0.950 . S
C1935 C1934 1.373 . S
C1935 C1951 1.377 . S
C1936 C1934 1.389 . S
C1936 C1937 1.524 . S
C1936 C1950 1.377 . S
C1937 C1936 1.524 . S
C1937 C1938 1.397 . S
C1937 C1942 1.363 . S
C1938 H1915 0.950 . S
C1938 C1937 1.397 . S
C1938 C1939 1.334 . S
C1939 H1916 0.950 . S
C1939 C1938 1.334 . S
C1939 C1940 1.287 . S
C1940 C1939 1.287 . S
C1940 C1941 1.524 . S
C1940 H1959 0.913 . S
C1941 H1917 0.950 . S
C1941 C1940 1.524 . S
C1941 C1942 1.415 . S
C1942 H1918 0.950 . S
C1942 C1937 1.363 . S
C1942 C1941 1.415 . S
C1943 H1919 0.951 . S
C1943 C1944 1.366 . S
C1943 C1945 1.388 . S
C1944 C1943 1.366 . S
C1944 C1948 1.385 . S
C1945 H1920 0.951 . S
C1945 C1943 1.388 . S
C1945 C1946 1.366 . S
C1946 C1945 1.366 . S
C1946 C1947 1.414 . S
C1946 C1949 1.499 . S
C1947 H1921 0.950 . S
C1947 C1946 1.414 . S
C1947 C1948 1.374 . S
C1948 H1922 0.950 . S
C1948 C1944 1.385 . S
C1948 C1947 1.374 . S
C1949 C1946 1.499 . S
C1949 C1950 1.373 . S
C1949 C1951 1.389 . S
C1950 H1923 0.950 . S
C1950 C1936 1.377 . S
C1950 C1949 1.373 . S
C1951 C1935 1.377 . S
C1951 C1949 1.389 . S
C1951 C1952 1.524 . S
C1952 C1951 1.524 . S
C1952 C1953 1.397 . S
C1952 C1957 1.363 . S
C1953 H1924 0.950 . S
C1953 C1952 1.397 . S
C1953 C1954 1.334 . S
C1954 H1925 0.950 . S
C1954 C1953 1.334 . S
C1954 C1955 1.287 . S
C1955 C1954 1.287 . S
C1955 C1956 1.524 . S
C1955 H1958 0.999 . S
C1956 H1926 0.950 1_455 S
C1956 C1955 1.524 . S
C1956 C1957 1.415 . S
C1957 H1927 0.950 . S
C1957 C1952 1.363 . S
C1957 C1956 1.415 . S
H1958 C1955 0.999 . S
H1959 C1940 0.913 . S
H1960 C1978 0.951 . S
H1961 C1980 0.951 . S
H1962 C1982 0.950 . S
H1963 C1983 0.950 . S
H1964 C1985 0.950 . S
H1965 C1988 0.950 . S
H1966 C1989 0.950 . S
H1967 C1991 0.950 . S
H1968 C1992 0.950 . S
H1969 C1993 0.951 . S
H1970 C1995 0.951 . S
H1971 C1997 0.950 . S
H1972 C1998 0.950 . S
H1973 C2000 0.950 . S
H1974 C2003 0.950 . S
H1975 C2004 0.950 . S
H1976 C2006 0.950 . S
H1977 C2007 0.950 . S
C1978 H1960 0.951 . S
C1978 C1979 1.366 . S
C1978 C1980 1.388 . S
C1979 C1978 1.366 . S
C1979 C1983 1.385 . S
C1980 H1961 0.951 . S
C1980 C1978 1.388 . S
C1980 C1981 1.366 . S
C1981 C1980 1.366 . S
C1981 C1982 1.414 . S
C1981 C1984 1.499 . S
C1982 H1962 0.950 . S
C1982 C1981 1.414 . S
C1982 C1983 1.374 . S
C1983 H1963 0.950 . S
C1983 C1979 1.385 . S
C1983 C1982 1.374 . S
C1984 C1981 1.499 . S
C1984 C1985 1.373 . S
C1984 C1986 1.389 . S
C1985 H1964 0.950 . S
C1985 C1984 1.373 . S
C1985 C2001 1.377 . S
C1986 C1984 1.389 . S
C1986 C1987 1.524 . S
C1986 C2000 1.377 . S
C1987 C1986 1.524 . S
C1987 C1988 1.397 . S
C1987 C1992 1.363 . S
C1988 H1965 0.950 . S
C1988 C1987 1.397 . S
C1988 C1989 1.334 . S
C1989 H1966 0.950 . S
C1989 C1988 1.334 . S
C1989 C1990 1.287 . S
C1990 C1989 1.287 . S
C1990 C1991 1.524 . S
C1990 H2009 0.913 . S
C1991 H1967 0.950 . S
C1991 C1990 1.524 . S
C1991 C1992 1.415 . S
C1992 H1968 0.950 . S
C1992 C1987 1.363 . S
C1992 C1991 1.415 . S
C1993 H1969 0.951 . S
C1993 C1994 1.366 . S
C1993 C1995 1.388 . S
C1994 C1993 1.366 . S
C1994 C1998 1.385 . S
C1995 H1970 0.951 . S
C1995 C1993 1.388 . S
C1995 C1996 1.366 . S
C1996 C1995 1.366 . S
C1996 C1997 1.414 . S
C1996 C1999 1.499 . S
C1997 H1971 0.950 . S
C1997 C1996 1.414 . S
C1997 C1998 1.374 . S
C1998 H1972 0.950 . S
C1998 C1994 1.385 . S
C1998 C1997 1.374 . S
C1999 C1996 1.499 . S
C1999 C2000 1.373 . S
C1999 C2001 1.389 . S
C2000 H1973 0.950 . S
C2000 C1986 1.377 . S
C2000 C1999 1.373 . S
C2001 C1985 1.377 . S
C2001 C1999 1.389 . S
C2001 C2002 1.524 . S
C2002 C2001 1.524 . S
C2002 C2003 1.397 . S
C2002 C2007 1.363 . S
C2003 H1974 0.950 . S
C2003 C2002 1.397 . S
C2003 C2004 1.334 . S
C2004 H1975 0.950 . S
C2004 C2003 1.334 . S
C2004 C2005 1.287 . S
C2005 C2004 1.287 . S
C2005 C2006 1.524 . S
C2005 H2008 0.999 . S
C2006 H1976 0.950 . S
C2006 C2005 1.524 . S
C2006 C2007 1.415 . S
C2007 H1977 0.950 . S
C2007 C2002 1.363 . S
C2007 C2006 1.415 . S
H2008 C2005 0.999 . S
H2009 C1990 0.913 . S
H2010 C2028 0.951 . S
H2011 C2030 0.951 . S
H2012 C2032 0.950 . S
H2013 C2033 0.950 . S
H2014 C2035 0.950 1_455 S
H2015 C2038 0.950 . S
H2016 C2039 0.950 . S
H2017 C2041 0.950 . S
H2018 C2042 0.950 . S
H2019 C2043 0.951 . S
H2020 C2045 0.946 1_455 S
H2021 C2047 0.950 . S
H2022 C2048 0.950 . S
H2023 C2050 0.950 . S
H2024 C2053 0.950 . S
H2025 C2054 0.950 . S
H2026 C2056 0.950 . S
H2027 C2057 0.950 . S
C2028 H2010 0.951 . S
C2028 C2029 1.366 1_556 S
C2028 C2030 1.388 . S
C2029 C2028 1.366 1_554 S
C2029 C2033 1.385 . S
C2030 H2011 0.951 . S
C2030 C2028 1.388 . S
C2030 C2031 1.366 . S
C2031 C2030 1.366 . S
C2031 C2032 1.414 1_556 S
C2031 C2034 1.499 . S
C2032 H2012 0.950 . S
C2032 C2031 1.414 1_554 S
C2032 C2033 1.374 . S
C2033 H2013 0.950 . S
C2033 C2029 1.385 . S
C2033 C2032 1.374 . S
C2034 C2031 1.499 . S
C2034 C2035 1.373 . S
C2034 C2036 1.389 . S
C2035 H2014 0.950 1_655 S
C2035 C2034 1.373 . S
C2035 C2051 1.377 1_655 S
C2036 C2034 1.389 . S
C2036 C2037 1.524 . S
C2036 C2050 1.377 . S
C2037 C2036 1.524 . S
C2037 C2038 1.397 . S
C2037 C2042 1.363 . S
C2038 H2015 0.950 . S
C2038 C2037 1.397 . S
C2038 C2039 1.334 . S
C2039 H2016 0.950 . S
C2039 C2038 1.334 . S
C2039 C2040 1.287 . S
C2040 C2039 1.287 . S
C2040 C2041 1.524 . S
C2040 H2059 0.913 . S
C2041 H2017 0.950 . S
C2041 C2040 1.524 . S
C2041 C2042 1.415 . S
C2042 H2018 0.950 . S
C2042 C2037 1.363 . S
C2042 C2041 1.415 . S
C2043 H2019 0.951 . S
C2043 C2044 1.366 1_455 S
C2043 C2045 1.375 1_455 S
C2044 C2043 1.366 1_655 S
C2044 C2048 1.385 . S
C2045 H2020 0.946 1_655 S
C2045 C2043 1.375 1_655 S
C2045 C2046 1.386 . S
C2046 C2045 1.386 . S
C2046 C2047 1.414 . S
C2046 C2049 1.499 . S
C2047 H2021 0.950 . S
C2047 C2046 1.414 . S
C2047 C2048 1.374 . S
C2048 H2022 0.950 . S
C2048 C2044 1.385 . S
C2048 C2047 1.374 . S
C2049 C2046 1.499 . S
C2049 C2050 1.373 . S
C2049 C2051 1.389 1_655 S
C2050 H2023 0.950 . S
C2050 C2036 1.377 . S
C2050 C2049 1.373 . S
C2051 C2035 1.377 1_455 S
C2051 C2049 1.389 1_455 S
C2051 C2052 1.524 . S
C2052 C2051 1.524 . S
C2052 C2053 1.397 . S
C2052 C2057 1.363 . S
C2053 H2024 0.950 . S
C2053 C2052 1.397 . S
C2053 C2054 1.334 . S
C2054 H2025 0.950 . S
C2054 C2053 1.334 . S
C2054 C2055 1.287 . S
C2055 C2054 1.287 . S
C2055 C2056 1.524 . S
C2055 H2058 0.999 . S
C2056 H2026 0.950 . S
C2056 C2055 1.524 . S
C2056 C2057 1.415 . S
C2057 H2027 0.950 . S
C2057 C2052 1.363 . S
C2057 C2056 1.415 . S
H2058 C2055 0.999 . S
H2059 C2040 0.913 . S
H2060 C2078 0.951 . S
H2061 C2080 0.951 . S
H2062 C2082 0.950 . S
H2063 C2083 0.950 . S
H2064 C2085 0.950 . S
H2065 C2088 0.950 . S
H2066 C2089 0.950 . S
H2067 C2091 0.950 . S
H2068 C2092 0.950 . S
H2069 C2093 0.951 . S
H2070 C2095 0.951 . S
H2071 C2097 0.950 . S
H2072 C2098 0.950 . S
H2073 C2100 0.950 . S
H2074 C2103 0.950 . S
H2075 C2104 0.950 . S
H2076 C2106 0.950 . S
H2077 C2107 0.950 . S
C2078 H2060 0.951 . S
C2078 C2079 1.366 . S
C2078 C2080 1.388 . S
C2079 C2078 1.366 . S
C2079 C2083 1.385 . S
C2080 H2061 0.951 . S
C2080 C2078 1.388 . S
C2080 C2081 1.366 . S
C2081 C2080 1.366 . S
C2081 C2082 1.414 . S
C2081 C2084 1.499 . S
C2082 H2062 0.950 . S
C2082 C2081 1.414 . S
C2082 C2083 1.374 . S
C2083 H2063 0.950 . S
C2083 C2079 1.385 . S
C2083 C2082 1.374 . S
C2084 C2081 1.499 . S
C2084 C2085 1.373 . S
C2084 C2086 1.389 . S
C2085 H2064 0.950 . S
C2085 C2084 1.373 . S
C2085 C2101 1.377 . S
C2086 C2084 1.389 . S
C2086 C2087 1.524 . S
C2086 C2100 1.377 . S
C2087 C2086 1.524 . S
C2087 C2088 1.397 . S
C2087 C2092 1.363 . S
C2088 H2065 0.950 . S
C2088 C2087 1.397 . S
C2088 C2089 1.334 . S
C2089 H2066 0.950 . S
C2089 C2088 1.334 . S
C2089 C2090 1.287 . S
C2090 C2089 1.287 . S
C2090 C2091 1.524 . S
C2090 H2109 0.913 . S
C2091 H2067 0.950 . S
C2091 C2090 1.524 . S
C2091 C2092 1.415 . S
C2092 H2068 0.950 . S
C2092 C2087 1.363 . S
C2092 C2091 1.415 . S
C2093 H2069 0.951 . S
C2093 C2094 1.366 . S
C2093 C2095 1.388 . S
C2094 C2093 1.366 . S
C2094 C2098 1.385 . S
C2095 H2070 0.951 . S
C2095 C2093 1.388 . S
C2095 C2096 1.366 . S
C2096 C2095 1.366 . S
C2096 C2097 1.414 . S
C2096 C2099 1.499 . S
C2097 H2071 0.950 . S
C2097 C2096 1.414 . S
C2097 C2098 1.374 . S
C2098 H2072 0.950 . S
C2098 C2094 1.385 . S
C2098 C2097 1.374 . S
C2099 C2096 1.499 . S
C2099 C2100 1.373 . S
C2099 C2101 1.389 . S
C2100 H2073 0.950 . S
C2100 C2086 1.377 . S
C2100 C2099 1.373 . S
C2101 C2085 1.377 . S
C2101 C2099 1.389 . S
C2101 C2102 1.524 . S
C2102 C2101 1.524 . S
C2102 C2103 1.397 . S
C2102 C2107 1.363 . S
C2103 H2074 0.950 . S
C2103 C2102 1.397 . S
C2103 C2104 1.334 . S
C2104 H2075 0.950 . S
C2104 C2103 1.334 . S
C2104 C2105 1.287 . S
C2105 C2104 1.287 . S
C2105 C2106 1.524 . S
C2105 H2108 0.999 . S
C2106 H2076 0.950 . S
C2106 C2105 1.524 . S
C2106 C2107 1.415 . S
C2107 H2077 0.950 . S
C2107 C2102 1.363 . S
C2107 C2106 1.415 . S
H2108 C2105 0.999 . S
H2109 C2090 0.913 . S
H2110 C2128 0.951 . S
H2111 C2130 0.951 . S
H2112 C2132 0.950 . S
H2113 C2133 0.950 . S
H2114 C2135 0.950 . S
H2115 C2138 0.950 . S
H2116 C2139 0.950 . S
H2117 C2141 0.950 . S
H2118 C2142 0.950 . S
H2119 C2143 0.951 . S
H2120 C2145 0.951 . S
H2121 C2147 0.950 . S
H2122 C2148 0.950 . S
H2123 C2150 0.950 . S
H2124 C2153 0.978 . S
H2125 C2154 0.950 1_655 S
H2126 C2156 0.977 . S
H2127 C2157 0.950 . S
C2128 H2110 0.951 . S
C2128 C2129 1.366 1_556 S
C2128 C2130 1.388 . S
C2129 C2128 1.366 1_554 S
C2129 C2133 1.385 . S
C2130 H2111 0.951 . S
C2130 C2128 1.388 . S
C2130 C2131 1.366 . S
C2131 C2130 1.366 . S
C2131 C2132 1.414 . S
C2131 C2134 1.499 . S
C2132 H2112 0.950 . S
C2132 C2131 1.414 . S
C2132 C2133 1.374 1_556 S
C2133 H2113 0.950 . S
C2133 C2129 1.385 . S
C2133 C2132 1.374 1_554 S
C2134 C2131 1.499 . S
C2134 C2135 1.373 . S
C2134 C2136 1.389 . S
C2135 H2114 0.950 . S
C2135 C2134 1.373 . S
C2135 C2151 1.377 . S
C2136 C2134 1.389 . S
C2136 C2137 1.524 . S
C2136 C2150 1.377 . S
C2137 C2136 1.524 . S
C2137 C2138 1.397 . S
C2137 C2142 1.363 . S
C2138 H2115 0.950 . S
C2138 C2137 1.397 . S
C2138 C2139 1.334 . S
C2139 H2116 0.950 . S
C2139 C2138 1.334 . S
C2139 C2140 1.287 . S
C2140 C2139 1.287 . S
C2140 C2141 1.524 . S
C2140 H2159 0.913 . S
C2141 H2117 0.950 . S
C2141 C2140 1.524 . S
C2141 C2142 1.415 . S
C2142 H2118 0.950 . S
C2142 C2137 1.363 . S
C2142 C2141 1.415 . S
C2143 H2119 0.951 . S
C2143 C2144 1.366 . S
C2143 C2145 1.388 . S
C2144 C2143 1.366 . S
C2144 C2148 1.385 . S
C2145 H2120 0.951 . S
C2145 C2143 1.388 . S
C2145 C2146 1.366 . S
C2146 C2145 1.366 . S
C2146 C2147 1.414 . S
C2146 C2149 1.499 . S
C2147 H2121 0.950 . S
C2147 C2146 1.414 . S
C2147 C2148 1.374 . S
C2148 H2122 0.950 . S
C2148 C2144 1.385 . S
C2148 C2147 1.374 . S
C2149 C2146 1.499 . S
C2149 C2150 1.373 . S
C2149 C2151 1.389 . S
C2150 H2123 0.950 . S
C2150 C2136 1.377 . S
C2150 C2149 1.373 . S
C2151 C2135 1.377 . S
C2151 C2149 1.389 . S
C2151 C2152 1.524 . S
C2152 C2151 1.524 . S
C2152 C2153 1.397 . S
C2152 C2157 1.363 . S
C2153 H2124 0.978 . S
C2153 C2152 1.397 . S
C2153 C2154 1.334 . S
C2154 H2125 0.950 1_455 S
C2154 C2153 1.334 . S
C2154 C2155 1.287 . S
C2155 C2154 1.287 . S
C2155 C2156 1.524 . S
C2155 H2158 0.999 . S
C2156 H2126 0.977 . S
C2156 C2155 1.524 . S
C2156 C2157 1.415 . S
C2157 H2127 0.950 . S
C2157 C2152 1.363 . S
C2157 C2156 1.415 . S
H2158 C2155 0.999 . S
H2159 C2140 0.913 . S
H2160 C2178 0.951 . S
H2161 C2180 0.951 . S
H2162 C2182 0.950 . S
H2163 C2183 0.950 . S
H2164 C2185 0.950 . S
H2165 C2188 0.950 . S
H2166 C2189 0.950 . S
H2167 C2191 0.950 . S
H2168 C2192 0.950 . S
H2169 C2193 0.951 . S
H2170 C2195 0.951 . S
H2171 C2197 0.950 . S
H2172 C2198 0.950 . S
H2173 C2200 0.950 . S
H2174 C2203 0.950 . S
H2175 C2204 0.950 . S
H2176 C2206 0.950 . S
H2177 C2207 0.950 . S
C2178 H2160 0.951 . S
C2178 C2179 1.366 . S
C2178 C2180 1.388 . S
C2179 C2178 1.366 . S
C2179 C2183 1.385 . S
C2180 H2161 0.951 . S
C2180 C2178 1.388 . S
C2180 C2181 1.366 . S
C2181 C2180 1.366 . S
C2181 C2182 1.414 . S
C2181 C2184 1.499 . S
C2182 H2162 0.950 . S
C2182 C2181 1.414 . S
C2182 C2183 1.374 . S
C2183 H2163 0.950 . S
C2183 C2179 1.385 . S
C2183 C2182 1.374 . S
C2184 C2181 1.499 . S
C2184 C2185 1.373 . S
C2184 C2186 1.389 . S
C2185 H2164 0.950 . S
C2185 C2184 1.373 . S
C2185 C2201 1.377 . S
C2186 C2184 1.389 . S
C2186 C2187 1.524 . S
C2186 C2200 1.377 . S
C2187 C2186 1.524 . S
C2187 C2188 1.397 . S
C2187 C2192 1.363 . S
C2188 H2165 0.950 . S
C2188 C2187 1.397 . S
C2188 C2189 1.334 . S
C2189 H2166 0.950 . S
C2189 C2188 1.334 . S
C2189 C2190 1.287 . S
C2190 C2189 1.287 . S
C2190 C2191 1.524 . S
C2190 H2209 0.913 . S
C2191 H2167 0.950 . S
C2191 C2190 1.524 . S
C2191 C2192 1.415 . S
C2192 H2168 0.950 . S
C2192 C2187 1.363 . S
C2192 C2191 1.415 . S
C2193 H2169 0.951 . S
C2193 C2194 1.366 . S
C2193 C2195 1.388 . S
C2194 C2193 1.366 . S
C2194 C2198 1.385 . S
C2195 H2170 0.951 . S
C2195 C2193 1.388 . S
C2195 C2196 1.366 . S
C2196 C2195 1.366 . S
C2196 C2197 1.414 . S
C2196 C2199 1.499 . S
C2197 H2171 0.950 . S
C2197 C2196 1.414 . S
C2197 C2198 1.374 . S
C2198 H2172 0.950 . S
C2198 C2194 1.385 . S
C2198 C2197 1.374 . S
C2199 C2196 1.499 . S
C2199 C2200 1.373 . S
C2199 C2201 1.389 . S
C2200 H2173 0.950 . S
C2200 C2186 1.377 . S
C2200 C2199 1.373 . S
C2201 C2185 1.377 . S
C2201 C2199 1.389 . S
C2201 C2202 1.524 . S
C2202 C2201 1.524 . S
C2202 C2203 1.397 . S
C2202 C2207 1.363 . S
C2203 H2174 0.950 . S
C2203 C2202 1.397 . S
C2203 C2204 1.334 . S
C2204 H2175 0.950 . S
C2204 C2203 1.334 . S
C2204 C2205 1.287 . S
C2205 C2204 1.287 . S
C2205 C2206 1.524 . S
C2205 H2208 0.999 . S
C2206 H2176 0.950 . S
C2206 C2205 1.524 . S
C2206 C2207 1.415 . S
C2207 H2177 0.950 . S
C2207 C2202 1.363 . S
C2207 C2206 1.415 . S
H2208 C2205 0.999 . S
H2209 C2190 0.913 . S
H2210 C2228 0.951 . S
H2211 C2230 0.951 . S
H2212 C2232 0.950 . S
H2213 C2233 0.950 . S
H2214 C2235 0.950 . S
H2215 C2238 0.950 . S
H2216 C2239 0.950 . S
H2217 C2241 0.950 . S
H2218 C2242 0.950 . S
H2219 C2243 0.951 . S
H2220 C2245 0.951 . S
H2221 C2247 0.950 . S
H2222 C2248 0.950 . S
H2223 C2250 0.950 . S
H2224 C2253 0.950 . S
H2225 C2254 0.950 . S
H2226 C2256 0.950 . S
H2227 C2257 0.950 . S
C2228 H2210 0.951 . S
C2228 C2229 1.366 1_556 S
C2228 C2230 1.388 1_556 S
C2229 C2228 1.366 1_554 S
C2229 C2233 1.385 . S
C2230 H2211 0.951 . S
C2230 C2228 1.388 1_554 S
C2230 C2231 1.366 . S
C2231 C2230 1.366 . S
C2231 C2232 1.414 . S
C2231 C2234 1.499 . S
C2232 H2212 0.950 . S
C2232 C2231 1.414 . S
C2232 C2233 1.374 . S
C2233 H2213 0.950 . S
C2233 C2229 1.385 . S
C2233 C2232 1.374 . S
C2234 C2231 1.499 . S
C2234 C2235 1.373 . S
C2234 C2236 1.389 . S
C2235 H2214 0.950 . S
C2235 C2234 1.373 . S
C2235 C2251 1.377 . S
C2236 C2234 1.389 . S
C2236 C2237 1.524 . S
C2236 C2250 1.377 . S
C2237 C2236 1.524 . S
C2237 C2238 1.397 . S
C2237 C2242 1.363 . S
C2238 H2215 0.950 . S
C2238 C2237 1.397 . S
C2238 C2239 1.334 . S
C2239 H2216 0.950 . S
C2239 C2238 1.334 . S
C2239 C2240 1.287 . S
C2240 C2239 1.287 . S
C2240 C2241 1.524 . S
C2240 H2259 0.913 . S
C2241 H2217 0.950 . S
C2241 C2240 1.524 . S
C2241 C2242 1.415 . S
C2242 H2218 0.950 . S
C2242 C2237 1.363 . S
C2242 C2241 1.415 . S
C2243 H2219 0.951 . S
C2243 C2244 1.366 . S
C2243 C2245 1.388 . S
C2244 C2243 1.366 . S
C2244 C2248 1.385 . S
C2245 H2220 0.951 . S
C2245 C2243 1.388 . S
C2245 C2246 1.366 . S
C2246 C2245 1.366 . S
C2246 C2247 1.414 . S
C2246 C2249 1.499 . S
C2247 H2221 0.950 . S
C2247 C2246 1.414 . S
C2247 C2248 1.374 . S
C2248 H2222 0.950 . S
C2248 C2244 1.385 . S
C2248 C2247 1.374 . S
C2249 C2246 1.499 . S
C2249 C2250 1.373 . S
C2249 C2251 1.389 . S
C2250 H2223 0.950 . S
C2250 C2236 1.377 . S
C2250 C2249 1.373 . S
C2251 C2235 1.377 . S
C2251 C2249 1.389 . S
C2251 C2252 1.524 . S
C2252 C2251 1.524 . S
C2252 C2253 1.397 . S
C2252 C2257 1.363 . S
C2253 H2224 0.950 . S
C2253 C2252 1.397 . S
C2253 C2254 1.334 . S
C2254 H2225 0.950 . S
C2254 C2253 1.334 . S
C2254 C2255 1.287 . S
C2255 C2254 1.287 . S
C2255 C2256 1.524 . S
C2255 H2258 0.999 . S
C2256 H2226 0.950 . S
C2256 C2255 1.524 . S
C2256 C2257 1.415 . S
C2257 H2227 0.950 . S
C2257 C2252 1.363 . S
C2257 C2256 1.415 . S
H2258 C2255 0.999 . S
H2259 C2240 0.913 . S
H2260 C2278 0.951 . S
H2261 C2280 0.951 . S
H2262 C2282 0.950 . S
H2263 C2283 0.950 . S
H2264 C2285 0.950 . S
H2265 C2288 0.950 . S
H2266 C2289 0.950 . S
H2267 C2291 0.950 . S
H2268 C2292 0.950 . S
H2269 C2293 0.951 . S
H2270 C2295 0.951 . S
H2271 C2297 0.950 . S
H2272 C2298 0.950 . S
H2273 C2300 0.950 . S
H2274 C2303 0.950 . S
H2275 C2304 0.950 . S
H2276 C2306 0.950 . S
H2277 C2307 0.950 . S
C2278 H2260 0.951 . S
C2278 C2279 1.366 . S
C2278 C2280 1.388 . S
C2279 C2278 1.366 . S
C2279 C2283 1.385 . S
C2280 H2261 0.951 . S
C2280 C2278 1.388 . S
C2280 C2281 1.366 . S
C2281 C2280 1.366 . S
C2281 C2282 1.414 . S
C2281 C2284 1.499 . S
C2282 H2262 0.950 . S
C2282 C2281 1.414 . S
C2282 C2283 1.374 . S
C2283 H2263 0.950 . S
C2283 C2279 1.385 . S
C2283 C2282 1.374 . S
C2284 C2281 1.499 . S
C2284 C2285 1.373 . S
C2284 C2286 1.389 . S
C2285 H2264 0.950 . S
C2285 C2284 1.373 . S
C2285 C2301 1.377 . S
C2286 C2284 1.389 . S
C2286 C2287 1.524 . S
C2286 C2300 1.377 . S
C2287 C2286 1.524 . S
C2287 C2288 1.397 . S
C2287 C2292 1.363 . S
C2288 H2265 0.950 . S
C2288 C2287 1.397 . S
C2288 C2289 1.334 . S
C2289 H2266 0.950 . S
C2289 C2288 1.334 . S
C2289 C2290 1.287 . S
C2290 C2289 1.287 . S
C2290 C2291 1.524 . S
C2290 H2309 0.913 . S
C2291 H2267 0.950 . S
C2291 C2290 1.524 . S
C2291 C2292 1.415 . S
C2292 H2268 0.950 . S
C2292 C2287 1.363 . S
C2292 C2291 1.415 . S
C2293 H2269 0.951 . S
C2293 C2294 1.366 . S
C2293 C2295 1.388 . S
C2294 C2293 1.366 . S
C2294 C2298 1.385 . S
C2295 H2270 0.951 . S
C2295 C2293 1.388 . S
C2295 C2296 1.366 . S
C2296 C2295 1.366 . S
C2296 C2297 1.414 . S
C2296 C2299 1.499 . S
C2297 H2271 0.950 . S
C2297 C2296 1.414 . S
C2297 C2298 1.374 . S
C2298 H2272 0.950 . S
C2298 C2294 1.385 . S
C2298 C2297 1.374 . S
C2299 C2296 1.499 . S
C2299 C2300 1.373 . S
C2299 C2301 1.389 . S
C2300 H2273 0.950 . S
C2300 C2286 1.377 . S
C2300 C2299 1.373 . S
C2301 C2285 1.377 . S
C2301 C2299 1.389 . S
C2301 C2302 1.524 . S
C2302 C2301 1.524 . S
C2302 C2303 1.397 . S
C2302 C2307 1.363 . S
C2303 H2274 0.950 . S
C2303 C2302 1.397 . S
C2303 C2304 1.334 . S
C2304 H2275 0.950 . S
C2304 C2303 1.334 . S
C2304 C2305 1.287 . S
C2305 C2304 1.287 . S
C2305 C2306 1.524 . S
C2305 H2308 0.999 . S
C2306 H2276 0.950 . S
C2306 C2305 1.524 . S
C2306 C2307 1.415 . S
C2307 H2277 0.950 . S
C2307 C2302 1.363 . S
C2307 C2306 1.415 . S
H2308 C2305 0.999 . S
H2309 C2290 0.913 . S
H2310 C2328 0.951 . S
H2311 C2330 0.951 1_554 S
H2312 C2332 0.950 . S
H2313 C2333 0.950 . S
H2314 C2335 0.950 . S
H2315 C2338 0.950 . S
H2316 C2339 0.950 . S
H2317 C2341 0.950 . S
H2318 C2342 0.950 . S
H2319 C2343 0.951 . S
H2320 C2345 0.951 . S
H2321 C2347 0.950 . S
H2322 C2348 0.950 . S
H2323 C2350 0.950 . S
H2324 C2353 0.950 . S
H2325 C2354 0.950 . S
H2326 C2356 0.950 . S
H2327 C2357 0.950 . S
C2328 H2310 0.951 . S
C2328 C2329 1.366 . S
C2328 C2330 1.388 . S
C2329 C2328 1.366 . S
C2329 C2333 1.385 . S
C2330 H2311 0.951 1_556 S
C2330 C2328 1.388 . S
C2330 C2331 1.366 1_556 S
C2331 C2330 1.366 1_554 S
C2331 C2332 1.414 1_554 S
C2331 C2334 1.499 . S
C2332 H2312 0.950 . S
C2332 C2331 1.414 1_556 S
C2332 C2333 1.374 . S
C2333 H2313 0.950 . S
C2333 C2329 1.385 . S
C2333 C2332 1.374 . S
C2334 C2331 1.499 . S
C2334 C2335 1.373 . S
C2334 C2336 1.389 . S
C2335 H2314 0.950 . S
C2335 C2334 1.373 . S
C2335 C2351 1.377 . S
C2336 C2334 1.389 . S
C2336 C2337 1.524 . S
C2336 C2350 1.377 . S
C2337 C2336 1.524 . S
C2337 C2338 1.397 1_554 S
C2337 C2342 1.363 . S
C2338 H2315 0.950 . S
C2338 C2337 1.397 1_556 S
C2338 C2339 1.334 . S
C2339 H2316 0.950 . S
C2339 C2338 1.334 . S
C2339 C2340 1.287 . S
C2340 C2339 1.287 . S
C2340 C2341 1.524 1_556 S
C2340 H2359 0.913 . S
C2341 H2317 0.950 . S
C2341 C2340 1.524 1_554 S
C2341 C2342 1.415 . S
C2342 H2318 0.950 . S
C2342 C2337 1.363 . S
C2342 C2341 1.415 . S
C2343 H2319 0.951 . S
C2343 C2344 1.366 . S
C2343 C2345 1.388 . S
C2344 C2343 1.366 . S
C2344 C2348 1.385 . S
C2345 H2320 0.951 . S
C2345 C2343 1.388 . S
C2345 C2346 1.366 . S
C2346 C2345 1.366 . S
C2346 C2347 1.414 . S
C2346 C2349 1.499 . S
C2347 H2321 0.950 . S
C2347 C2346 1.414 . S
C2347 C2348 1.374 . S
C2348 H2322 0.950 . S
C2348 C2344 1.385 . S
C2348 C2347 1.374 . S
C2349 C2346 1.499 . S
C2349 C2350 1.373 . S
C2349 C2351 1.389 . S
C2350 H2323 0.950 . S
C2350 C2336 1.377 . S
C2350 C2349 1.373 . S
C2351 C2335 1.377 . S
C2351 C2349 1.389 . S
C2351 C2352 1.524 . S
C2352 C2351 1.524 . S
C2352 C2353 1.397 . S
C2352 C2357 1.363 . S
C2353 H2324 0.950 . S
C2353 C2352 1.397 . S
C2353 C2354 1.334 . S
C2354 H2325 0.950 . S
C2354 C2353 1.334 . S
C2354 C2355 1.287 . S
C2355 C2354 1.287 . S
C2355 C2356 1.524 . S
C2355 H2358 0.999 . S
C2356 H2326 0.950 . S
C2356 C2355 1.524 . S
C2356 C2357 1.415 . S
C2357 H2327 0.950 . S
C2357 C2352 1.363 . S
C2357 C2356 1.415 . S
H2358 C2355 0.999 . S
H2359 C2340 0.913 . S
H2360 C2378 0.951 . S
H2361 C2380 0.951 . S
H2362 C2382 0.950 . S
H2363 C2383 0.950 . S
H2364 C2385 0.950 . S
H2365 C2388 0.950 . S
H2366 C2389 0.950 . S
H2367 C2391 0.950 . S
H2368 C2392 0.950 . S
H2369 C2393 0.951 . S
H2370 C2395 0.951 . S
H2371 C2397 0.950 . S
H2372 C2398 0.950 . S
H2373 C2400 0.950 . S
H2374 C2403 0.950 . S
H2375 C2404 0.950 . S
H2376 C2406 0.950 . S
H2377 C2407 0.950 . S
C2378 H2360 0.951 . S
C2378 C2379 1.366 . S
C2378 C2380 1.388 . S
C2379 C2378 1.366 . S
C2379 C2383 1.385 . S
C2380 H2361 0.951 . S
C2380 C2378 1.388 . S
C2380 C2381 1.366 . S
C2381 C2380 1.366 . S
C2381 C2382 1.414 . S
C2381 C2384 1.499 . S
C2382 H2362 0.950 . S
C2382 C2381 1.414 . S
C2382 C2383 1.374 . S
C2383 H2363 0.950 . S
C2383 C2379 1.385 . S
C2383 C2382 1.374 . S
C2384 C2381 1.499 . S
C2384 C2385 1.373 . S
C2384 C2386 1.389 . S
C2385 H2364 0.950 . S
C2385 C2384 1.373 . S
C2385 C2401 1.377 . S
C2386 C2384 1.389 . S
C2386 C2387 1.524 . S
C2386 C2400 1.377 . S
C2387 C2386 1.524 . S
C2387 C2388 1.397 . S
C2387 C2392 1.363 . S
C2388 H2365 0.950 . S
C2388 C2387 1.397 . S
C2388 C2389 1.334 . S
C2389 H2366 0.950 . S
C2389 C2388 1.334 . S
C2389 C2390 1.287 . S
C2390 C2389 1.287 . S
C2390 C2391 1.524 . S
C2390 H2409 0.913 . S
C2391 H2367 0.950 . S
C2391 C2390 1.524 . S
C2391 C2392 1.415 . S
C2392 H2368 0.950 . S
C2392 C2387 1.363 . S
C2392 C2391 1.415 . S
C2393 H2369 0.951 . S
C2393 C2394 1.366 . S
C2393 C2395 1.388 . S
C2394 C2393 1.366 . S
C2394 C2398 1.385 . S
C2395 H2370 0.951 . S
C2395 C2393 1.388 . S
C2395 C2396 1.366 . S
C2396 C2395 1.366 . S
C2396 C2397 1.414 . S
C2396 C2399 1.499 . S
C2397 H2371 0.950 . S
C2397 C2396 1.414 . S
C2397 C2398 1.374 . S
C2398 H2372 0.950 . S
C2398 C2394 1.385 . S
C2398 C2397 1.374 . S
C2399 C2396 1.499 . S
C2399 C2400 1.373 . S
C2399 C2401 1.389 . S
C2400 H2373 0.950 . S
C2400 C2386 1.377 . S
C2400 C2399 1.373 . S
C2401 C2385 1.377 . S
C2401 C2399 1.389 . S
C2401 C2402 1.524 . S
C2402 C2401 1.524 . S
C2402 C2403 1.397 . S
C2402 C2407 1.363 . S
C2403 H2374 0.950 . S
C2403 C2402 1.397 . S
C2403 C2404 1.334 . S
C2404 H2375 0.950 . S
C2404 C2403 1.334 . S
C2404 C2405 1.287 . S
C2405 C2404 1.287 . S
C2405 C2406 1.524 . S
C2405 H2408 0.999 . S
C2406 H2376 0.950 . S
C2406 C2405 1.524 . S
C2406 C2407 1.415 . S
C2407 H2377 0.950 . S
C2407 C2402 1.363 . S
C2407 C2406 1.415 . S
H2408 C2405 0.999 . S
H2409 C2390 0.913 . S
H2410 C2428 0.951 . S
H2411 C2430 0.951 . S
H2412 C2432 0.950 . S
H2413 C2433 0.950 . S
H2414 C2435 0.950 . S
H2415 C2438 0.950 . S
H2416 C2439 0.950 . S
H2417 C2441 0.950 . S
H2418 C2442 0.950 . S
H2419 C2443 0.951 . S
H2420 C2445 0.951 . S
H2421 C2447 0.950 . S
H2422 C2448 0.950 . S
H2423 C2450 0.950 . S
H2424 C2453 0.950 . S
H2425 C2454 0.950 . S
H2426 C2456 0.950 . S
H2427 C2457 0.950 . S
C2428 H2410 0.951 . S
C2428 C2429 1.366 . S
C2428 C2430 1.388 . S
C2429 C2428 1.366 . S
C2429 C2433 1.385 . S
C2430 H2411 0.951 . S
C2430 C2428 1.388 . S
C2430 C2431 1.366 . S
C2431 C2430 1.366 . S
C2431 C2432 1.414 . S
C2431 C2434 1.499 . S
C2432 H2412 0.950 . S
C2432 C2431 1.414 . S
C2432 C2433 1.374 . S
C2433 H2413 0.950 . S
C2433 C2429 1.385 . S
C2433 C2432 1.374 . S
C2434 C2431 1.499 . S
C2434 C2435 1.373 . S
C2434 C2436 1.389 . S
C2435 H2414 0.950 . S
C2435 C2434 1.373 . S
C2435 C2451 1.377 . S
C2436 C2434 1.389 . S
C2436 C2437 1.524 . S
C2436 C2450 1.377 . S
C2437 C2436 1.524 . S
C2437 C2438 1.397 . S
C2437 C2442 1.363 . S
C2438 H2415 0.950 . S
C2438 C2437 1.397 . S
C2438 C2439 1.334 . S
C2439 H2416 0.950 . S
C2439 C2438 1.334 . S
C2439 C2440 1.287 . S
C2440 C2439 1.287 . S
C2440 C2441 1.524 . S
C2440 H2459 0.913 . S
C2441 H2417 0.950 . S
C2441 C2440 1.524 . S
C2441 C2442 1.415 . S
C2442 H2418 0.950 . S
C2442 C2437 1.363 . S
C2442 C2441 1.415 . S
C2443 H2419 0.951 . S
C2443 C2444 1.366 . S
C2443 C2445 1.388 . S
C2444 C2443 1.366 . S
C2444 C2448 1.385 . S
C2445 H2420 0.951 . S
C2445 C2443 1.388 . S
C2445 C2446 1.366 . S
C2446 C2445 1.366 . S
C2446 C2447 1.414 . S
C2446 C2449 1.499 . S
C2447 H2421 0.950 . S
C2447 C2446 1.414 . S
C2447 C2448 1.374 . S
C2448 H2422 0.950 . S
C2448 C2444 1.385 . S
C2448 C2447 1.374 . S
C2449 C2446 1.499 . S
C2449 C2450 1.373 . S
C2449 C2451 1.389 . S
C2450 H2423 0.950 . S
C2450 C2436 1.377 . S
C2450 C2449 1.373 . S
C2451 C2435 1.377 . S
C2451 C2449 1.389 . S
C2451 C2452 1.524 . S
C2452 C2451 1.524 . S
C2452 C2453 1.397 . S
C2452 C2457 1.363 . S
C2453 H2424 0.950 . S
C2453 C2452 1.397 . S
C2453 C2454 1.334 . S
C2454 H2425 0.950 . S
C2454 C2453 1.334 . S
C2454 C2455 1.287 . S
C2455 C2454 1.287 . S
C2455 C2456 1.524 . S
C2455 H2458 0.999 . S
C2456 H2426 0.950 . S
C2456 C2455 1.524 . S
C2456 C2457 1.415 . S
C2457 H2427 0.950 . S
C2457 C2452 1.363 . S
C2457 C2456 1.415 . S
H2458 C2455 0.999 . S
H2459 C2440 0.913 . S
H2460 C2478 0.951 . S
H2461 C2480 0.951 . S
H2462 C2482 0.950 . S
H2463 C2483 0.950 . S
H2464 C2485 0.950 . S
H2465 C2488 0.950 . S
H2466 C2489 0.950 . S
H2467 C2491 0.950 . S
H2468 C2492 0.950 . S
H2469 C2493 0.951 . S
H2470 C2495 0.951 . S
H2471 C2497 0.950 . S
H2472 C2498 0.950 . S
H2473 C2500 0.950 . S
H2474 C2503 0.950 . S
H2475 C2504 0.950 . S
H2476 C2506 0.950 . S
H2477 C2507 0.950 . S
C2478 H2460 0.951 . S
C2478 C2479 1.366 . S
C2478 C2480 1.388 . S
C2479 C2478 1.366 . S
C2479 C2483 1.385 . S
C2480 H2461 0.951 . S
C2480 C2478 1.388 . S
C2480 C2481 1.366 . S
C2481 C2480 1.366 . S
C2481 C2482 1.414 . S
C2481 C2484 1.499 . S
C2482 H2462 0.950 . S
C2482 C2481 1.414 . S
C2482 C2483 1.374 . S
C2483 H2463 0.950 . S
C2483 C2479 1.385 . S
C2483 C2482 1.374 . S
C2484 C2481 1.499 . S
C2484 C2485 1.373 . S
C2484 C2486 1.389 . S
C2485 H2464 0.950 . S
C2485 C2484 1.373 . S
C2485 C2501 1.377 . S
C2486 C2484 1.389 . S
C2486 C2487 1.524 . S
C2486 C2500 1.377 . S
C2487 C2486 1.524 . S
C2487 C2488 1.397 . S
C2487 C2492 1.363 . S
C2488 H2465 0.950 . S
C2488 C2487 1.397 . S
C2488 C2489 1.334 . S
C2489 H2466 0.950 . S
C2489 C2488 1.334 . S
C2489 C2490 1.287 . S
C2490 C2489 1.287 . S
C2490 C2491 1.524 . S
C2490 H2509 0.913 . S
C2491 H2467 0.950 . S
C2491 C2490 1.524 . S
C2491 C2492 1.415 . S
C2492 H2468 0.950 . S
C2492 C2487 1.363 . S
C2492 C2491 1.415 . S
C2493 H2469 0.951 . S
C2493 C2494 1.366 . S
C2493 C2495 1.388 . S
C2494 C2493 1.366 . S
C2494 C2498 1.385 . S
C2495 H2470 0.951 . S
C2495 C2493 1.388 . S
C2495 C2496 1.366 . S
C2496 C2495 1.366 . S
C2496 C2497 1.414 . S
C2496 C2499 1.499 . S
C2497 H2471 0.950 . S
C2497 C2496 1.414 . S
C2497 C2498 1.374 . S
C2498 H2472 0.950 . S
C2498 C2494 1.385 . S
C2498 C2497 1.374 . S
C2499 C2496 1.499 . S
C2499 C2500 1.373 . S
C2499 C2501 1.389 . S
C2500 H2473 0.950 . S
C2500 C2486 1.377 . S
C2500 C2499 1.373 . S
C2501 C2485 1.377 . S
C2501 C2499 1.389 . S
C2501 C2502 1.524 . S
C2502 C2501 1.524 . S
C2502 C2503 1.397 . S
C2502 C2507 1.363 . S
C2503 H2474 0.950 . S
C2503 C2502 1.397 . S
C2503 C2504 1.334 . S
C2504 H2475 0.950 . S
C2504 C2503 1.334 . S
C2504 C2505 1.287 . S
C2505 C2504 1.287 . S
C2505 C2506 1.524 . S
C2505 H2508 0.999 . S
C2506 H2476 0.950 . S
C2506 C2505 1.524 . S
C2506 C2507 1.415 . S
C2507 H2477 0.950 . S
C2507 C2502 1.363 . S
C2507 C2506 1.415 . S
H2508 C2505 0.999 . S
H2509 C2490 0.913 . S
H2510 C2528 0.951 . S
H2511 C2530 0.951 . S
H2512 C2532 0.950 . S
H2513 C2533 0.950 . S
H2514 C2535 0.950 . S
H2515 C2538 0.950 . S
H2516 C2539 0.950 . S
H2517 C2541 0.950 . S
H2518 C2542 0.950 . S
H2519 C2543 0.951 . S
H2520 C2545 0.951 . S
H2521 C2547 0.950 . S
H2522 C2548 0.950 . S
H2523 C2550 0.950 . S
H2524 C2553 0.950 . S
H2525 C2554 0.950 . S
H2526 C2556 0.950 . S
H2527 C2557 0.950 . S
C2528 H2510 0.951 . S
C2528 C2529 1.366 . S
C2528 C2530 1.388 . S
C2529 C2528 1.366 . S
C2529 C2533 1.385 . S
C2530 H2511 0.951 . S
C2530 C2528 1.388 . S
C2530 C2531 1.366 . S
C2531 C2530 1.366 . S
C2531 C2532 1.414 . S
C2531 C2534 1.499 . S
C2532 H2512 0.950 . S
C2532 C2531 1.414 . S
C2532 C2533 1.374 . S
C2533 H2513 0.950 . S
C2533 C2529 1.385 . S
C2533 C2532 1.374 . S
C2534 C2531 1.499 . S
C2534 C2535 1.373 . S
C2534 C2536 1.389 . S
C2535 H2514 0.950 . S
C2535 C2534 1.373 . S
C2535 C2551 1.377 . S
C2536 C2534 1.389 . S
C2536 C2537 1.524 . S
C2536 C2550 1.377 . S
C2537 C2536 1.524 . S
C2537 C2538 1.397 . S
C2537 C2542 1.363 . S
C2538 H2515 0.950 . S
C2538 C2537 1.397 . S
C2538 C2539 1.334 . S
C2539 H2516 0.950 . S
C2539 C2538 1.334 . S
C2539 C2540 1.287 . S
C2540 C2539 1.287 . S
C2540 C2541 1.524 . S
C2540 H2559 0.913 . S
C2541 H2517 0.950 . S
C2541 C2540 1.524 . S
C2541 C2542 1.415 . S
C2542 H2518 0.950 . S
C2542 C2537 1.363 . S
C2542 C2541 1.415 . S
C2543 H2519 0.951 . S
C2543 C2544 1.366 . S
C2543 C2545 1.388 . S
C2544 C2543 1.366 . S
C2544 C2548 1.385 . S
C2545 H2520 0.951 . S
C2545 C2543 1.388 . S
C2545 C2546 1.366 . S
C2546 C2545 1.366 . S
C2546 C2547 1.414 . S
C2546 C2549 1.499 . S
C2547 H2521 0.950 . S
C2547 C2546 1.414 . S
C2547 C2548 1.374 . S
C2548 H2522 0.950 . S
C2548 C2544 1.385 . S
C2548 C2547 1.374 . S
C2549 C2546 1.499 . S
C2549 C2550 1.373 . S
C2549 C2551 1.389 . S
C2550 H2523 0.950 . S
C2550 C2536 1.377 . S
C2550 C2549 1.373 . S
C2551 C2535 1.377 . S
C2551 C2549 1.389 . S
C2551 C2552 1.524 . S
C2552 C2551 1.524 . S
C2552 C2553 1.397 . S
C2552 C2557 1.363 . S
C2553 H2524 0.950 . S
C2553 C2552 1.397 . S
C2553 C2554 1.334 . S
C2554 H2525 0.950 . S
C2554 C2553 1.334 . S
C2554 C2555 1.287 . S
C2555 C2554 1.287 . S
C2555 C2556 1.524 . S
C2555 H2558 0.999 . S
C2556 H2526 0.950 . S
C2556 C2555 1.524 . S
C2556 C2557 1.415 . S
C2557 H2527 0.950 . S
C2557 C2552 1.363 . S
C2557 C2556 1.415 . S
H2558 C2555 0.999 . S
H2559 C2540 0.913 . S
H2560 C2578 0.951 . S
H2561 C2580 0.951 . S
H2562 C2582 0.950 1_554 S
H2563 C2583 0.950 . S
H2564 C2585 0.950 . S
H2565 C2588 0.950 . S
H2566 C2589 0.950 . S
H2567 C2591 0.950 . S
H2568 C2592 0.950 . S
H2569 C2593 0.951 . S
H2570 C2595 0.951 . S
H2571 C2597 0.950 . S
H2572 C2598 0.950 . S
H2573 C2600 0.950 . S
H2574 C2603 0.950 . S
H2575 C2604 0.950 . S
H2576 C2606 0.950 . S
H2577 C2607 0.950 . S
C2578 H2560 0.951 . S
C2578 C2579 1.366 . S
C2578 C2580 1.388 . S
C2579 C2578 1.366 . S
C2579 C2583 1.385 . S
C2580 H2561 0.951 . S
C2580 C2578 1.388 . S
C2580 C2581 1.366 . S
C2581 C2580 1.366 . S
C2581 C2582 1.414 . S
C2581 C2584 1.499 . S
C2582 H2562 0.950 1_556 S
C2582 C2581 1.414 . S
C2582 C2583 1.374 . S
C2583 H2563 0.950 . S
C2583 C2579 1.385 . S
C2583 C2582 1.374 . S
C2584 C2581 1.499 . S
C2584 C2585 1.373 . S
C2584 C2586 1.389 . S
C2585 H2564 0.950 . S
C2585 C2584 1.373 . S
C2585 C2601 1.377 . S
C2586 C2584 1.389 . S
C2586 C2587 1.524 . S
C2586 C2600 1.377 . S
C2587 C2586 1.524 . S
C2587 C2588 1.397 . S
C2587 C2592 1.363 . S
C2588 H2565 0.950 . S
C2588 C2587 1.397 . S
C2588 C2589 1.334 . S
C2589 H2566 0.950 . S
C2589 C2588 1.334 . S
C2589 C2590 1.287 . S
C2590 C2589 1.287 . S
C2590 C2591 1.524 . S
C2590 H2609 0.913 . S
C2591 H2567 0.950 . S
C2591 C2590 1.524 . S
C2591 C2592 1.415 . S
C2592 H2568 0.950 . S
C2592 C2587 1.363 . S
C2592 C2591 1.415 . S
C2593 H2569 0.951 . S
C2593 C2594 1.366 1_554 S
C2593 C2595 1.388 . S
C2594 C2593 1.366 1_556 S
C2594 C2598 1.385 . S
C2595 H2570 0.951 . S
C2595 C2593 1.388 . S
C2595 C2596 1.366 1_554 S
C2596 C2595 1.366 1_556 S
C2596 C2597 1.414 . S
C2596 C2599 1.499 . S
C2597 H2571 0.950 . S
C2597 C2596 1.414 . S
C2597 C2598 1.374 . S
C2598 H2572 0.950 . S
C2598 C2594 1.385 . S
C2598 C2597 1.374 . S
C2599 C2596 1.499 . S
C2599 C2600 1.373 . S
C2599 C2601 1.389 . S
C2600 H2573 0.950 . S
C2600 C2586 1.377 . S
C2600 C2599 1.373 . S
C2601 C2585 1.377 . S
C2601 C2599 1.389 . S
C2601 C2602 1.524 1_556 S
C2602 C2601 1.524 1_554 S
C2602 C2603 1.397 1_554 S
C2602 C2607 1.363 . S
C2603 H2574 0.950 . S
C2603 C2602 1.397 1_556 S
C2603 C2604 1.334 1_556 S
C2604 H2575 0.950 . S
C2604 C2603 1.334 1_554 S
C2604 C2605 1.287 . S
C2605 C2604 1.287 . S
C2605 C2606 1.524 . S
C2605 H2608 0.999 . S
C2606 H2576 0.950 . S
C2606 C2605 1.524 . S
C2606 C2607 1.415 . S
C2607 H2577 0.950 . S
C2607 C2602 1.363 . S
C2607 C2606 1.415 . S
H2608 C2605 0.999 . S
H2609 C2590 0.913 . S
H2610 C2628 0.951 . S
H2611 C2630 0.951 . S
H2612 C2632 0.950 . S
H2613 C2633 0.950 . S
H2614 C2635 0.950 . S
H2615 C2638 0.950 . S
H2616 C2639 0.950 . S
H2617 C2641 0.950 . S
H2618 C2642 0.950 . S
H2619 C2643 0.951 . S
H2620 C2645 0.951 . S
H2621 C2647 0.950 . S
H2622 C2648 0.950 . S
H2623 C2650 0.950 . S
H2624 C2653 0.950 . S
H2625 C2654 0.950 . S
H2626 C2656 0.950 . S
H2627 C2657 0.950 . S
C2628 H2610 0.951 . S
C2628 C2629 1.366 . S
C2628 C2630 1.388 . S
C2629 C2628 1.366 . S
C2629 C2633 1.385 . S
C2630 H2611 0.951 . S
C2630 C2628 1.388 . S
C2630 C2631 1.366 . S
C2631 C2630 1.366 . S
C2631 C2632 1.414 . S
C2631 C2634 1.499 . S
C2632 H2612 0.950 . S
C2632 C2631 1.414 . S
C2632 C2633 1.374 . S
C2633 H2613 0.950 . S
C2633 C2629 1.385 . S
C2633 C2632 1.374 . S
C2634 C2631 1.499 . S
C2634 C2635 1.373 . S
C2634 C2636 1.389 . S
C2635 H2614 0.950 . S
C2635 C2634 1.373 . S
C2635 C2651 1.377 . S
C2636 C2634 1.389 . S
C2636 C2637 1.524 . S
C2636 C2650 1.377 . S
C2637 C2636 1.524 . S
C2637 C2638 1.397 . S
C2637 C2642 1.363 . S
C2638 H2615 0.950 . S
C2638 C2637 1.397 . S
C2638 C2639 1.334 . S
C2639 H2616 0.950 . S
C2639 C2638 1.334 . S
C2639 C2640 1.287 . S
C2640 C2639 1.287 . S
C2640 C2641 1.524 . S
C2640 H2659 0.913 . S
C2641 H2617 0.950 . S
C2641 C2640 1.524 . S
C2641 C2642 1.415 . S
C2642 H2618 0.950 . S
C2642 C2637 1.363 . S
C2642 C2641 1.415 . S
C2643 H2619 0.951 . S
C2643 C2644 1.366 . S
C2643 C2645 1.388 . S
C2644 C2643 1.366 . S
C2644 C2648 1.385 . S
C2645 H2620 0.951 . S
C2645 C2643 1.388 . S
C2645 C2646 1.366 . S
C2646 C2645 1.366 . S
C2646 C2647 1.414 . S
C2646 C2649 1.499 . S
C2647 H2621 0.950 . S
C2647 C2646 1.414 . S
C2647 C2648 1.374 . S
C2648 H2622 0.950 . S
C2648 C2644 1.385 . S
C2648 C2647 1.374 . S
C2649 C2646 1.499 . S
C2649 C2650 1.373 . S
C2649 C2651 1.389 . S
C2650 H2623 0.950 . S
C2650 C2636 1.377 . S
C2650 C2649 1.373 . S
C2651 C2635 1.377 . S
C2651 C2649 1.389 . S
C2651 C2652 1.524 . S
C2652 C2651 1.524 . S
C2652 C2653 1.397 . S
C2652 C2657 1.363 . S
C2653 H2624 0.950 . S
C2653 C2652 1.397 . S
C2653 C2654 1.334 . S
C2654 H2625 0.950 . S
C2654 C2653 1.334 . S
C2654 C2655 1.287 . S
C2655 C2654 1.287 . S
C2655 C2656 1.524 . S
C2655 H2658 0.999 . S
C2656 H2626 0.950 . S
C2656 C2655 1.524 . S
C2656 C2657 1.415 . S
C2657 H2627 0.950 . S
C2657 C2652 1.363 . S
C2657 C2656 1.415 . S
H2658 C2655 0.999 . S
H2659 C2640 0.913 . S
H2660 C2678 0.951 . S
H2661 C2680 0.951 . S
H2662 C2682 0.950 . S
H2663 C2683 0.950 . S
H2664 C2685 0.950 . S
H2665 C2688 0.950 . S
H2666 C2689 0.950 . S
H2667 C2691 0.950 . S
H2668 C2692 0.950 . S
H2669 C2693 0.951 1_556 S
H2670 C2695 0.960 . S
H2671 C2697 0.950 . S
H2672 C2698 0.950 . S
H2673 C2700 0.950 . S
H2674 C2703 0.950 . S
H2675 C2704 0.950 . S
H2676 C2706 0.904 1_556 S
H2677 C2707 0.950 . S
C2678 H2660 0.951 . S
C2678 C2679 1.366 . S
C2678 C2680 1.388 . S
C2679 C2678 1.366 . S
C2679 C2683 1.385 . S
C2680 H2661 0.951 . S
C2680 C2678 1.388 . S
C2680 C2681 1.366 . S
C2681 C2680 1.366 . S
C2681 C2682 1.414 . S
C2681 C2684 1.499 . S
C2682 H2662 0.950 . S
C2682 C2681 1.414 . S
C2682 C2683 1.374 . S
C2683 H2663 0.950 . S
C2683 C2679 1.385 . S
C2683 C2682 1.374 . S
C2684 C2681 1.499 . S
C2684 C2685 1.373 . S
C2684 C2686 1.389 . S
C2685 H2664 0.950 . S
C2685 C2684 1.373 . S
C2685 C2701 1.377 . S
C2686 C2684 1.389 . S
C2686 C2687 1.524 . S
C2686 C2700 1.377 . S
C2687 C2686 1.524 . S
C2687 C2688 1.397 . S
C2687 C2692 1.363 . S
C2688 H2665 0.950 . S
C2688 C2687 1.397 . S
C2688 C2689 1.334 . S
C2689 H2666 0.950 . S
C2689 C2688 1.334 . S
C2689 C2690 1.287 . S
C2690 C2689 1.287 . S
C2690 C2691 1.524 . S
C2690 H2709 0.913 . S
C2691 H2667 0.950 . S
C2691 C2690 1.524 . S
C2691 C2692 1.415 . S
C2692 H2668 0.950 . S
C2692 C2687 1.363 . S
C2692 C2691 1.415 . S
C2693 H2669 0.951 1_554 S
C2693 C2694 1.366 . S
C2693 C2695 1.388 . S
C2694 C2693 1.366 . S
C2694 C2698 1.385 . S
C2695 H2670 0.960 . S
C2695 C2693 1.388 . S
C2695 C2696 1.366 . S
C2696 C2695 1.366 . S
C2696 C2697 1.414 . S
C2696 C2699 1.499 . S
C2697 H2671 0.950 . S
C2697 C2696 1.414 . S
C2697 C2698 1.374 . S
C2698 H2672 0.950 . S
C2698 C2694 1.385 . S
C2698 C2697 1.374 . S
C2699 C2696 1.499 . S
C2699 C2700 1.373 . S
C2699 C2701 1.389 . S
C2700 H2673 0.950 . S
C2700 C2686 1.377 . S
C2700 C2699 1.373 . S
C2701 C2685 1.377 . S
C2701 C2699 1.389 . S
C2701 C2702 1.524 . S
C2702 C2701 1.524 . S
C2702 C2703 1.397 . S
C2702 C2707 1.363 . S
C2703 H2674 0.950 . S
C2703 C2702 1.397 . S
C2703 C2704 1.334 . S
C2704 H2675 0.950 . S
C2704 C2703 1.334 . S
C2704 C2705 1.287 . S
C2705 C2704 1.287 . S
C2705 C2706 1.524 . S
C2705 H2708 0.999 . S
C2706 H2676 0.904 1_554 S
C2706 C2705 1.524 . S
C2706 C2707 1.415 . S
C2707 H2677 0.950 . S
C2707 C2702 1.363 . S
C2707 C2706 1.415 . S
H2708 C2705 0.999 . S
H2709 C2690 0.913 . S
H2710 C2728 0.951 . S
H2711 C2730 0.951 . S
H2712 C2732 0.950 . S
H2713 C2733 0.950 . S
H2714 C2735 0.950 . S
H2715 C2738 0.950 . S
H2716 C2739 0.950 . S
H2717 C2741 0.950 . S
H2718 C2742 0.950 . S
H2719 C2743 0.903 1_556 S
H2720 C2745 0.951 . S
H2721 C2747 0.950 . S
H2722 C2748 0.950 . S
H2723 C2750 0.950 . S
H2724 C2753 0.950 . S
H2725 C2754 0.950 . S
H2726 C2756 0.950 1_556 S
H2727 C2757 0.979 . S
C2728 H2710 0.951 . S
C2728 C2729 1.366 . S
C2728 C2730 1.388 . S
C2729 C2728 1.366 . S
C2729 C2733 1.385 . S
C2730 H2711 0.951 . S
C2730 C2728 1.388 . S
C2730 C2731 1.366 1_545 S
C2731 C2730 1.366 1_565 S
C2731 C2732 1.414 . S
C2731 C2734 1.499 . S
C2732 H2712 0.950 . S
C2732 C2731 1.414 . S
C2732 C2733 1.374 1_565 S
C2733 H2713 0.950 . S
C2733 C2729 1.385 . S
C2733 C2732 1.374 1_545 S
C2734 C2731 1.499 . S
C2734 C2735 1.373 . S
C2734 C2736 1.389 . S
C2735 H2714 0.950 . S
C2735 C2734 1.373 . S
C2735 C2751 1.377 . S
C2736 C2734 1.389 . S
C2736 C2737 1.524 1_565 S
C2736 C2750 1.377 . S
C2737 C2736 1.524 1_545 S
C2737 C2738 1.397 . S
C2737 C2742 1.363 . S
C2738 H2715 0.950 . S
C2738 C2737 1.397 . S
C2738 C2739 1.334 . S
C2739 H2716 0.950 . S
C2739 C2738 1.334 . S
C2739 C2740 1.287 . S
C2740 C2739 1.287 . S
C2740 C2741 1.524 . S
C2740 H2759 0.913 . S
C2741 H2717 0.950 . S
C2741 C2740 1.524 . S
C2741 C2742 1.415 . S
C2742 H2718 0.950 . S
C2742 C2737 1.363 . S
C2742 C2741 1.415 . S
C2743 H2719 0.903 1_554 S
C2743 C2744 1.366 . S
C2743 C2745 1.388 . S
C2744 C2743 1.366 . S
C2744 C2748 1.385 . S
C2745 H2720 0.951 . S
C2745 C2743 1.388 . S
C2745 C2746 1.366 . S
C2746 C2745 1.366 . S
C2746 C2747 1.414 . S
C2746 C2749 1.499 . S
C2747 H2721 0.950 . S
C2747 C2746 1.414 . S
C2747 C2748 1.374 . S
C2748 H2722 0.950 . S
C2748 C2744 1.385 . S
C2748 C2747 1.374 . S
C2749 C2746 1.499 . S
C2749 C2750 1.373 . S
C2749 C2751 1.389 . S
C2750 H2723 0.950 . S
C2750 C2736 1.377 . S
C2750 C2749 1.373 . S
C2751 C2735 1.377 . S
C2751 C2749 1.389 . S
C2751 C2752 1.524 . S
C2752 C2751 1.524 . S
C2752 C2753 1.397 . S
C2752 C2757 1.363 . S
C2753 H2724 0.950 . S
C2753 C2752 1.397 . S
C2753 C2754 1.334 . S
C2754 H2725 0.950 . S
C2754 C2753 1.334 . S
C2754 C2755 1.287 . S
C2755 C2754 1.287 . S
C2755 C2756 1.524 . S
C2755 H2758 0.999 . S
C2756 H2726 0.950 1_554 S
C2756 C2755 1.524 . S
C2756 C2757 1.415 . S
C2757 H2727 0.979 . S
C2757 C2752 1.363 . S
C2757 C2756 1.415 . S
H2758 C2755 0.999 . S
H2759 C2740 0.913 . S
C394 C200 1.754 . S
C379 C66 1.805 . S
C444 C213 1.027 . S
C429 C76 1.028 1_455 S
C479 C93 2.033 . S
C494 C233 1.870 . S
C544 C247 1.289 . S
C529 C54 1.396 . S
C594 C259 1.528 . S
C579 C126 1.542 . S
C644 C273 1.774 . S
C629 C150 1.783 . S
C679 C136 1.032 . S
C694 C283 1.034 . S
C744 C298 1.824 . S
C729 C117 1.848 . S
C779 C141 1.228 . S
C794 C312 1.201 . S
C844 C331 1.180 . S
C829 C112 1.232 . S
C879 C124 1.560 . S
C894 C311 1.548 . S
C944 C329 1.162 . S
C929 C148 1.159 . S
C979 C88 1.418 . S
C994 C345 1.350 . S
C1029 C52 1.625 . S
C1044 C339 1.622 . S
C1079 C64 1.240 . S
C1094 C343 1.239 . S
C1129 C78 1.163 . S
C1144 C340 1.143 . S
C1179 C45 1.776 . S
C1194 C242 1.754 . S
C1229 C177 1.882 . S
C1244 C241 1.866 . S
C1294 C205 1.224 . S
C1279 C189 1.278 . S
C1344 C219 1.663 . S
C1329 C102 1.779 . S
C1379 C57 1.779 . S
C1394 C256 1.763 . S
C1444 C301 1.481 . S
C1429 C138 1.483 . S
C1494 C255 1.780 . S
C1479 C114 1.831 . S
C1544 C287 1.668 . S
C1529 C153 1.670 . S
C1594 C284 1.754 . S
C1579 C174 1.805 . S
C1629 C184 1.028 . S
C1644 C297 1.027 . S
C1679 C105 2.032 . S
C1694 C261 1.869 . S
C1744 C275 1.288 . S
C1729 C162 1.396 . S
C1779 C42 1.542 . S
C1794 C231 1.527 . S
C1844 C245 1.774 . S
C1829 C6 1.783 . S
C1894 C199 1.034 . S
C1879 C16 1.032 . S
C1944 C214 1.824 . S
C1929 C33 1.848 . S
C1979 C21 1.229 . S
C1994 C326 1.201 . S
C2029 C28 1.232 . S
C2044 C317 1.180 1_655 S
C2079 C40 1.561 . S
C2094 C325 1.548 . S
C2129 C4 1.160 . S
C2144 C315 1.163 . S
C2194 C359 1.351 . S
C2179 C100 1.418 . S
C2244 C353 1.622 . S
C2229 C160 1.625 1_554 S
C2294 C357 1.240 . S
C2279 C172 1.240 . S
C2329 C186 1.164 . S
C2344 C354 1.143 . S
C2379 C129 1.777 . S
C2394 C270 1.755 . S
C2444 C269 1.866 . S
C2429 C69 1.882 . S
C2494 C289 1.225 . S
C2479 C81 1.279 . S
C2544 C303 1.663 . S
C2529 C90 1.779 . S
C2579 C165 1.779 . S
C2594 C228 1.763 . S
C2644 C217 1.481 . S
C2629 C18 1.483 . S
C2679 C30 1.796 . S
C2694 C227 1.780 . S
C2744 C203 1.669 . S
C2729 C9 1.670 . S
