# Generated by pormake.
# Topology eea, (3,6)-cn, num edge types: 1
# Building blocks:
#     Node 0, Type 0, BuildingBlock: ESEHIV_clean_linker_0, # of connection points: 3
#     Node 1, Type 0, BuildingBlock: ESEHIV_clean_linker_0, # of connection points: 3
#     Node 2, Type 0, BuildingBlock: ESEHIV_clean_linker_0, # of connection points: 3
#     Node 3, Type 0, BuildingBlock: ESEHIV_clean_linker_0, # of connection points: 3
#     Node 4, Type 0, BuildingBlock: ESEHIV_clean_linker_0, # of connection points: 3
#     Node 5, Type 0, BuildingBlock: ESEHIV_clean_linker_0, # of connection points: 3
#     Node 6, Type 0, BuildingBlock: ESEHIV_clean_linker_0, # of connection points: 3
#     Node 7, Type 0, BuildingBlock: ESEHIV_clean_linker_0, # of connection points: 3
#     Node 8, Type 0, BuildingBlock: ESEHIV_clean_linker_0, # of connection points: 3
#     Node 9, Type 0, BuildingBlock: ESEHIV_clean_linker_0, # of connection points: 3
#     Node 10, Type 0, BuildingBlock: ESEHIV_clean_linker_0, # of connection points: 3
#     Node 11, Type 0, BuildingBlock: ESEHIV_clean_linker_0, # of connection points: 3
#     Node 12, Type 0, BuildingBlock: ESEHIV_clean_linker_0, # of connection points: 3
#     Node 13, Type 0, BuildingBlock: ESEHIV_clean_linker_0, # of connection points: 3
#     Node 14, Type 0, BuildingBlock: ESEHIV_clean_linker_0, # of connection points: 3
#     Node 15, Type 0, BuildingBlock: ESEHIV_clean_linker_0, # of connection points: 3
#     Node 16, Type 0, BuildingBlock: ESEHIV_clean_linker_0, # of connection points: 3
#     Node 17, Type 0, BuildingBlock: ESEHIV_clean_linker_0, # of connection points: 3
#     Node 18, Type 1, BuildingBlock: CUKXOW_clean_sbu_0, # of connection points: 6
#     Node 19, Type 1, BuildingBlock: CUKXOW_clean_sbu_0, # of connection points: 6
#     Node 20, Type 1, BuildingBlock: CUKXOW_clean_sbu_0, # of connection points: 6
#     Node 21, Type 1, BuildingBlock: CUKXOW_clean_sbu_0, # of connection points: 6
#     Node 22, Type 1, BuildingBlock: CUKXOW_clean_sbu_0, # of connection points: 6
#     Node 23, Type 1, BuildingBlock: CUKXOW_clean_sbu_0, # of connection points: 6
#     Node 24, Type 1, BuildingBlock: CUKXOW_clean_sbu_0, # of connection points: 6
#     Node 25, Type 1, BuildingBlock: CUKXOW_clean_sbu_0, # of connection points: 6
#     Node 26, Type 1, BuildingBlock: CUKXOW_clean_sbu_0, # of connection points: 6
#     Edge 27, Type (0, 1), BuildingBlock: OJICUG_clean_linker_0, # of connection points: 2
#     Edge 28, Type (0, 1), BuildingBlock: OJICUG_clean_linker_0, # of connection points: 2
#     Edge 29, Type (0, 1), BuildingBlock: OJICUG_clean_linker_0, # of connection points: 2
#     Edge 30, Type (0, 1), BuildingBlock: OJICUG_clean_linker_0, # of connection points: 2
#     Edge 31, Type (0, 1), BuildingBlock: OJICUG_clean_linker_0, # of connection points: 2
#     Edge 32, Type (0, 1), BuildingBlock: OJICUG_clean_linker_0, # of connection points: 2
#     Edge 33, Type (0, 1), BuildingBlock: OJICUG_clean_linker_0, # of connection points: 2
#     Edge 34, Type (0, 1), BuildingBlock: OJICUG_clean_linker_0, # of connection points: 2
#     Edge 35, Type (0, 1), BuildingBlock: OJICUG_clean_linker_0, # of connection points: 2
#     Edge 36, Type (0, 1), BuildingBlock: OJICUG_clean_linker_0, # of connection points: 2
#     Edge 37, Type (0, 1), BuildingBlock: OJICUG_clean_linker_0, # of connection points: 2
#     Edge 38, Type (0, 1), BuildingBlock: OJICUG_clean_linker_0, # of connection points: 2
#     Edge 39, Type (0, 1), BuildingBlock: OJICUG_clean_linker_0, # of connection points: 2
#     Edge 40, Type (0, 1), BuildingBlock: OJICUG_clean_linker_0, # of connection points: 2
#     Edge 41, Type (0, 1), BuildingBlock: OJICUG_clean_linker_0, # of connection points: 2
#     Edge 42, Type (0, 1), BuildingBlock: OJICUG_clean_linker_0, # of connection points: 2
#     Edge 43, Type (0, 1), BuildingBlock: OJICUG_clean_linker_0, # of connection points: 2
#     Edge 44, Type (0, 1), BuildingBlock: OJICUG_clean_linker_0, # of connection points: 2
#     Edge 45, Type (0, 1), BuildingBlock: OJICUG_clean_linker_0, # of connection points: 2
#     Edge 46, Type (0, 1), BuildingBlock: OJICUG_clean_linker_0, # of connection points: 2
#     Edge 47, Type (0, 1), BuildingBlock: OJICUG_clean_linker_0, # of connection points: 2
#     Edge 48, Type (0, 1), BuildingBlock: OJICUG_clean_linker_0, # of connection points: 2
#     Edge 49, Type (0, 1), BuildingBlock: OJICUG_clean_linker_0, # of connection points: 2
#     Edge 50, Type (0, 1), BuildingBlock: OJICUG_clean_linker_0, # of connection points: 2
#     Edge 51, Type (0, 1), BuildingBlock: OJICUG_clean_linker_0, # of connection points: 2
#     Edge 52, Type (0, 1), BuildingBlock: OJICUG_clean_linker_0, # of connection points: 2
#     Edge 53, Type (0, 1), BuildingBlock: OJICUG_clean_linker_0, # of connection points: 2
#     Edge 54, Type (0, 1), BuildingBlock: OJICUG_clean_linker_0, # of connection points: 2
#     Edge 55, Type (0, 1), BuildingBlock: OJICUG_clean_linker_0, # of connection points: 2
#     Edge 56, Type (0, 1), BuildingBlock: OJICUG_clean_linker_0, # of connection points: 2
#     Edge 57, Type (0, 1), BuildingBlock: OJICUG_clean_linker_0, # of connection points: 2
#     Edge 58, Type (0, 1), BuildingBlock: OJICUG_clean_linker_0, # of connection points: 2
#     Edge 59, Type (0, 1), BuildingBlock: OJICUG_clean_linker_0, # of connection points: 2
#     Edge 60, Type (0, 1), BuildingBlock: OJICUG_clean_linker_0, # of connection points: 2
#     Edge 61, Type (0, 1), BuildingBlock: OJICUG_clean_linker_0, # of connection points: 2
#     Edge 62, Type (0, 1), BuildingBlock: OJICUG_clean_linker_0, # of connection points: 2
#     Edge 63, Type (0, 1), BuildingBlock: OJICUG_clean_linker_0, # of connection points: 2
#     Edge 64, Type (0, 1), BuildingBlock: OJICUG_clean_linker_0, # of connection points: 2
#     Edge 65, Type (0, 1), BuildingBlock: OJICUG_clean_linker_0, # of connection points: 2
#     Edge 66, Type (0, 1), BuildingBlock: OJICUG_clean_linker_0, # of connection points: 2
#     Edge 67, Type (0, 1), BuildingBlock: OJICUG_clean_linker_0, # of connection points: 2
#     Edge 68, Type (0, 1), BuildingBlock: OJICUG_clean_linker_0, # of connection points: 2
#     Edge 69, Type (0, 1), BuildingBlock: OJICUG_clean_linker_0, # of connection points: 2
#     Edge 70, Type (0, 1), BuildingBlock: OJICUG_clean_linker_0, # of connection points: 2
#     Edge 71, Type (0, 1), BuildingBlock: OJICUG_clean_linker_0, # of connection points: 2
#     Edge 72, Type (0, 1), BuildingBlock: OJICUG_clean_linker_0, # of connection points: 2
#     Edge 73, Type (0, 1), BuildingBlock: OJICUG_clean_linker_0, # of connection points: 2
#     Edge 74, Type (0, 1), BuildingBlock: OJICUG_clean_linker_0, # of connection points: 2
#     Edge 75, Type (0, 1), BuildingBlock: OJICUG_clean_linker_0, # of connection points: 2
#     Edge 76, Type (0, 1), BuildingBlock: OJICUG_clean_linker_0, # of connection points: 2
#     Edge 77, Type (0, 1), BuildingBlock: OJICUG_clean_linker_0, # of connection points: 2
#     Edge 78, Type (0, 1), BuildingBlock: OJICUG_clean_linker_0, # of connection points: 2
#     Edge 79, Type (0, 1), BuildingBlock: OJICUG_clean_linker_0, # of connection points: 2
#     Edge 80, Type (0, 1), BuildingBlock: OJICUG_clean_linker_0, # of connection points: 2
# Relax obj value: 0.018
# Max RMSD: 0.122
# Mean RMSD: 0.066
data_MOF--net-eea--node1-CUKXOW_clean_sbu_0--node2-ESEHIV_clean_linker_0--edge1-OJICUG_clean_linker_0
_symmetry_space_group_name_H-M    P1
_symmetry_Int_Tables_number       1
_symmetry_cell_setting            triclinic
loop_
_symmetry_equiv_pos_as_xyz
'x, y, z'
_cell_length_a     38.655697
_cell_length_b     34.8469
_cell_length_c     38.790239
_cell_angle_alpha  92.989154
_cell_angle_beta   92.782867
_cell_angle_gamma 120.05211
loop_
_atom_site_label
_atom_site_type_symbol
_atom_site_fract_x
_atom_site_fract_y
_atom_site_fract_z
_atom_type_partial_charge
H0 H 0.26302 0.20421 0.49307 0.0
H1 H 0.26248 0.08056 0.4746 0.0
H2 H 0.20279 0.11857 0.39975 0.0
C3 C 0.25476 0.17399 0.47704 0.0
C4 C 0.23281 0.16558 0.44471 0.0
C5 C 0.26465 0.14274 0.48892 0.0
C6 C 0.25368 0.10415 0.46702 0.0
C7 C 0.23091 0.09494 0.43532 0.0
C8 C 0.22005 0.12542 0.42447 0.0
H9 H 0.80326 0.08378 0.47725 0.0
H10 H 0.92318 0.19606 0.50091 0.0
H11 H 0.89233 0.1115 0.40622 0.0
C12 C 0.83383 0.10446 0.47079 0.0
C13 C 0.84504 0.09337 0.4398 0.0
C14 C 0.86184 0.14063 0.49385 0.0
C15 C 0.90097 0.1679 0.4838 0.0
C16 C 0.912 0.15755 0.45205 0.0
C17 C 0.884 0.11988 0.43059 0.0
H18 H 0.81735 0.72338 0.49614 0.0
H19 H 0.91559 0.69823 0.49233 0.0
H20 H 0.8943 0.76827 0.41379 0.0
C21 C 0.84213 0.7249 0.48319 0.0
C22 C 0.85199 0.74599 0.45246 0.0
C23 C 0.86384 0.70616 0.49751 0.0
C24 C 0.89827 0.71223 0.48188 0.0
C25 C 0.90981 0.73539 0.45194 0.0
C26 C 0.8861 0.75144 0.43727 0.0
H27 H 0.08741 0.30455 0.53447 0.0
H28 H 0.19629 0.29839 0.5387 0.0
H29 H 0.11177 0.23719 0.61351 0.0
C30 C 0.10687 0.29413 0.54642 0.0
C31 C 0.09451 0.2684 0.57505 0.0
C32 C 0.144 0.30584 0.53307 0.0
C33 C 0.16833 0.29115 0.54898 0.0
C34 C 0.15705 0.26684 0.5781 0.0
C35 C 0.12038 0.25596 0.59098 0.0
H36 H 0.74084 0.92954 0.55581 0.0
H37 H 0.74315 0.80757 0.5362 0.0
H38 H 0.80214 0.89267 0.62986 0.0
C39 C 0.75022 0.9063 0.56301 0.0
C40 C 0.7732 0.91568 0.59459 0.0
C41 C 0.74006 0.86823 0.5407 0.0
C42 C 0.7507 0.83742 0.55239 0.0
C43 C 0.77255 0.84579 0.58477 0.0
C44 C 0.78472 0.88565 0.6052 0.0
H45 H 0.08368 0.81369 0.52974 0.0
H46 H 0.20355 0.92587 0.55366 0.0
H47 H 0.11486 0.89669 0.62541 0.0
C48 C 0.10589 0.84155 0.5471 0.0
C49 C 0.09486 0.85154 0.57902 0.0
C50 C 0.14506 0.86892 0.53714 0.0
C51 C 0.17309 0.90494 0.56032 0.0
C52 C 0.16203 0.91548 0.59164 0.0
C53 C 0.12307 0.88873 0.60083 0.0
H54 H 0.92852 0.53814 0.8279 0.0
H55 H 0.93071 0.41621 0.80871 0.0
H56 H 0.8712 0.45393 0.73341 0.0
C57 C 0.92106 0.50838 0.81159 0.0
C58 C 0.89972 0.50023 0.77899 0.0
C59 C 0.93141 0.47745 0.82335 0.0
C60 C 0.92156 0.43952 0.80111 0.0
C61 C 0.89941 0.43052 0.76913 0.0
C62 C 0.88802 0.46062 0.75835 0.0
H63 H 0.46876 0.41489 0.80781 0.0
H64 H 0.58731 0.52923 0.83229 0.0
H65 H 0.55897 0.44561 0.73737 0.0
C66 C 0.49925 0.43632 0.80145 0.0
C67 C 0.51116 0.42597 0.77052 0.0
C68 C 0.52651 0.47291 0.82457 0.0
C69 C 0.56569 0.50094 0.81495 0.0
C70 C 0.57755 0.49114 0.78344 0.0
C71 C 0.55015 0.4534 0.76169 0.0
H72 H 0.47538 0.0369 0.81722 0.0
H73 H 0.59059 0.04581 0.83366 0.0
H74 H 0.56576 0.105 0.74859 0.0
C75 C 0.50583 0.04911 0.8107 0.0
C76 C 0.51817 0.07364 0.78185 0.0
C77 C 0.53206 0.04056 0.83103 0.0
C78 C 0.56996 0.05271 0.81921 0.0
C79 C 0.58121 0.07373 0.78825 0.0
C80 C 0.55581 0.08566 0.77076 0.0
H81 H 0.75653 0.64562 0.87112 0.0
H82 H 0.85766 0.62481 0.87046 0.0
H83 H 0.77139 0.56566 0.94441 0.0
C84 C 0.7733 0.63078 0.88116 0.0
C85 C 0.7599 0.60491 0.90954 0.0
C86 C 0.80883 0.63846 0.86662 0.0
C87 C 0.83057 0.6198 0.88124 0.0
C88 C 0.81797 0.59481 0.90994 0.0
C89 C 0.78219 0.58672 0.92327 0.0
H90 H 0.40943 0.26204 0.88613 0.0
H91 H 0.41247 0.14017 0.86969 0.0
H92 H 0.46904 0.22689 0.96318 0.0
C93 C 0.4187 0.23906 0.89433 0.0
C94 C 0.44083 0.24897 0.92643 0.0
C95 C 0.40914 0.20066 0.87273 0.0
C96 C 0.41968 0.17023 0.88544 0.0
C97 C 0.44103 0.17943 0.91823 0.0
C98 C 0.45234 0.21941 0.93808 0.0
H99 H 0.75322 0.14189 0.86573 0.0
H100 H 0.86973 0.2602 0.88767 0.0
H101 H 0.7825 0.22433 0.96155 0.0
C102 C 0.77449 0.17084 0.88266 0.0
C103 C 0.76383 0.17848 0.91556 0.0
C104 C 0.81269 0.20065 0.87189 0.0
C105 C 0.83985 0.23754 0.89479 0.0
C106 C 0.82879 0.24642 0.92667 0.0
C107 C 0.79086 0.21709 0.93679 0.0
H108 H 0.59367 0.86884 0.16109 0.0
H109 H 0.59644 0.74723 0.14071 0.0
H110 H 0.53458 0.78427 0.06732 0.0
C111 C 0.58605 0.83899 0.14487 0.0
C112 C 0.56404 0.83063 0.11262 0.0
C113 C 0.59706 0.80836 0.15622 0.0
C114 C 0.58683 0.77035 0.13377 0.0
C115 C 0.56367 0.76108 0.10227 0.0
C116 C 0.55196 0.79104 0.09197 0.0
H117 H 0.1328 0.74975 0.13977 0.0
H118 H 0.25284 0.86134 0.16465 0.0
H119 H 0.22203 0.77959 0.06848 0.0
C120 C 0.16335 0.7707 0.13337 0.0
C121 C 0.1746 0.76043 0.10204 0.0
C122 C 0.19134 0.80634 0.15688 0.0
C123 C 0.23059 0.83377 0.14711 0.0
C124 C 0.24172 0.82422 0.11512 0.0
C125 C 0.21362 0.7873 0.09305 0.0
H126 H 0.14757 0.38667 0.16007 0.0
H127 H 0.24834 0.36527 0.15846 0.0
H128 H 0.23293 0.44508 0.08534 0.0
C129 C 0.1745 0.3915 0.14906 0.0
C130 C 0.18679 0.41625 0.12023 0.0
C131 C 0.19622 0.37269 0.16342 0.0
C132 C 0.23157 0.3802 0.1486 0.0
C133 C 0.24471 0.40594 0.12011 0.0
C134 C 0.22237 0.4242 0.10662 0.0
H135 H 0.41891 0.97193 0.20119 0.0
H136 H 0.52497 0.96061 0.20336 0.0
H137 H 0.44657 0.91244 0.28441 0.0
C138 C 0.43852 0.96197 0.21351 0.0
C139 C 0.42699 0.93813 0.24319 0.0
C140 C 0.47508 0.97229 0.19964 0.0
C141 C 0.49886 0.95683 0.21535 0.0
C142 C 0.48902 0.93549 0.24596 0.0
C143 C 0.45358 0.92734 0.26003 0.0
H144 H 0.07626 0.5956 0.21905 0.0
H145 H 0.07865 0.47348 0.20138 0.0
H146 H 0.13068 0.55603 0.29739 0.0
C147 C 0.0848 0.57202 0.22721 0.0
C148 C 0.10545 0.58053 0.25986 0.0
C149 C 0.0754 0.53398 0.20523 0.0
C150 C 0.08569 0.50319 0.21755 0.0
C151 C 0.1047 0.51041 0.25117 0.0
C152 C 0.1152 0.54966 0.27183 0.0
H153 H 0.41582 0.48123 0.19577 0.0
H154 H 0.5352 0.59453 0.2183 0.0
H155 H 0.44721 0.56598 0.29063 0.0
C156 C 0.43794 0.50951 0.21285 0.0
C157 C 0.42704 0.51983 0.24474 0.0
C158 C 0.47685 0.53706 0.20252 0.0
C159 C 0.50488 0.57352 0.22527 0.0
C160 C 0.49401 0.58443 0.25651 0.0
C161 C 0.45522 0.55764 0.26609 0.0
Tb162 Tb 0.54637 0.03344 1.00744 0.0
C163 C 0.52341 0.9497 0.04746 0.0
Tb164 Tb 0.45716 0.9722 0.02165 0.0
O165 O 0.56476 0.05873 0.06215 0.0
O166 O 0.50614 0.03402 0.04228 0.0
O167 O 0.54728 0.97534 0.02465 0.0
C168 C 0.38885 0.92557 0.0515 0.0
O169 O 0.48946 0.94852 0.05386 0.0
C170 C 0.47581 0.96008 0.95908 0.0
C171 C 0.48146 0.0609 0.98544 0.0
O172 O 0.41048 0.9099 0.03948 0.0
O173 O 0.4049 0.96708 0.04563 0.0
O174 O 0.43977 0.94894 0.96675 0.0
O175 O 0.49752 0.97126 0.98719 0.0
O176 O 0.45327 0.0273 1.00091 0.0
O177 O 0.51881 0.06875 0.98448 0.0
C178 C 0.61402 0.07442 0.97562 0.0
O179 O 0.61184 0.07114 1.00871 0.0
O180 O 0.57801 0.0551 0.96035 0.0
C181 C 0.52861 0.04666 0.07007 0.0
Tb182 Tb 0.97109 0.51975 1.00877 0.0
C183 C 0.06028 0.59117 0.03112 0.0
Tb184 Tb 0.03095 0.48723 0.0211 0.0
O185 O 0.97717 0.53973 0.06411 0.0
O186 O 0.98394 0.48638 0.04686 0.0
O187 O 0.0257 0.58408 0.0162 0.0
C188 C 0.0829 0.46862 0.05229 0.0
O189 O 0.06776 0.55858 0.03673 0.0
C190 C 0.01553 0.49666 0.95666 0.0
C191 C 0.94178 0.41583 0.99842 0.0
O192 O 0.05682 0.47488 0.06747 0.0
O193 O 0.07973 0.47261 0.01935 0.0
O194 O 0.02512 0.46754 0.96571 0.0
O195 O 0.01829 0.52078 0.98318 0.0
O196 O 0.97632 0.42292 0.01347 0.0
O197 O 0.93427 0.44842 0.99287 0.0
C198 C 0.91963 0.53913 0.97759 0.0
O199 O 0.94572 0.53282 0.96244 0.0
O200 O 0.92244 0.5346 1.01047 0.0
C201 C 0.98688 0.51075 0.07331 0.0
Tb202 Tb 0.45713 0.48592 0.02148 0.0
C203 C 0.48467 0.41955 0.99519 0.0
Tb204 Tb 0.54563 0.5246 1.00529 0.0
O205 O 0.43757 0.46564 0.96647 0.0
O206 O 0.49351 0.52087 0.98212 0.0
O207 O 0.45778 0.42429 0.01212 0.0
C208 C 0.61322 0.55258 0.97407 0.0
O209 O 0.51962 0.4538 0.9883 0.0
C210 C 0.53117 0.51436 0.07061 0.0
C211 C 0.51813 0.59104 0.03144 0.0
O212 O 0.57939 0.54533 0.95943 0.0
O213 O 0.60888 0.54352 1.00617 0.0
O214 O 0.5649 0.54477 0.0604 0.0
O215 O 0.50921 0.48954 0.0445 0.0
O216 O 0.54494 0.58622 0.01442 0.0
O217 O 0.48321 0.55679 0.0384 0.0
C218 C 0.39002 0.45784 0.05348 0.0
O219 O 0.42405 0.46519 0.06769 0.0
O220 O 0.39386 0.46686 0.02134 0.0
C221 C 0.47133 0.49584 0.95615 0.0
Tb222 Tb 0.21293 0.36923 0.33981 0.0
C223 C 0.19301 0.28674 0.38136 0.0
Tb224 Tb 0.12431 0.30593 0.35479 0.0
O225 O 0.23185 0.39343 0.39476 0.0
O226 O 0.17293 0.36814 0.37559 0.0
O227 O 0.21832 0.31528 0.36073 0.0
C228 C 0.05685 0.25893 0.38566 0.0
O229 O 0.15747 0.28248 0.38604 0.0
C230 C 0.14154 0.29447 0.29149 0.0
C231 C 0.14431 0.38891 0.31453 0.0
O232 O 0.07968 0.24422 0.37492 0.0
O233 O 0.0712 0.2996 0.37794 0.0
O234 O 0.10545 0.2819 0.29985 0.0
O235 O 0.16425 0.30689 0.31911 0.0
O236 O 0.12048 0.3619 0.33667 0.0
O237 O 0.17903 0.39188 0.30819 0.0
C238 C 0.28043 0.4165 0.30903 0.0
O239 O 0.25943 0.43212 0.32257 0.0
O240 O 0.26414 0.37462 0.31381 0.0
C241 C 0.19573 0.38064 0.40316 0.0
Tb242 Tb 0.64089 0.85668 0.34178 0.0
C243 C 0.72935 0.92488 0.36853 0.0
Tb244 Tb 0.69898 0.82146 0.35402 0.0
O245 O 0.64569 0.87612 0.39723 0.0
O246 O 0.65331 0.82343 0.38025 0.0
O247 O 0.69623 0.91967 0.35208 0.0
C248 C 0.74788 0.7979 0.38397 0.0
O249 O 0.73485 0.89109 0.37475 0.0
C250 C 0.68386 0.83047 0.28919 0.0
C251 C 0.61044 0.75325 0.32714 0.0
O252 O 0.757 0.82466 0.35953 0.0
O253 O 0.71132 0.78418 0.39118 0.0
O254 O 0.69424 0.80206 0.29855 0.0
O255 O 0.68653 0.85462 0.31563 0.0
O256 O 0.64361 0.75842 0.34354 0.0
O257 O 0.60493 0.78706 0.32099 0.0
C258 C 0.59252 0.88141 0.31253 0.0
O259 O 0.58311 0.854 0.33652 0.0
O260 O 0.62899 0.89488 0.30519 0.0
C261 C 0.65593 0.84764 0.40662 0.0
Tb262 Tb 0.12383 0.81847 0.35531 0.0
C263 C 0.15 0.75208 0.32731 0.0
Tb264 Tb 0.21225 0.85651 0.3391 0.0
O265 O 0.10409 0.7983 0.30019 0.0
O266 O 0.16028 0.85284 0.3158 0.0
O267 O 0.12464 0.75685 0.3465 0.0
C268 C 0.27884 0.88263 0.30686 0.0
O269 O 0.18358 0.78654 0.3184 0.0
C270 C 0.19828 0.84613 0.40447 0.0
C271 C 0.18561 0.9235 0.36675 0.0
O272 O 0.26697 0.85475 0.33058 0.0
O273 O 0.25343 0.8961 0.30148 0.0
O274 O 0.2325 0.87556 0.39424 0.0
O275 O 0.17588 0.82186 0.37836 0.0
O276 O 0.21328 0.91861 0.3513 0.0
O277 O 0.14975 0.88943 0.372 0.0
C278 C 0.05634 0.78986 0.38677 0.0
O279 O 0.09072 0.7991 0.4016 0.0
O280 O 0.06008 0.79745 0.35436 0.0
C281 C 0.13801 0.82809 0.28983 0.0
Tb282 Tb 0.88119 0.70504 0.67531 0.0
C283 C 0.86014 0.62189 0.71634 0.0
Tb284 Tb 0.79205 0.64212 0.68951 0.0
O285 O 0.89975 0.72893 0.7302 0.0
O286 O 0.84089 0.7041 0.71068 0.0
O287 O 0.88598 0.65084 0.69628 0.0
C288 C 0.72438 0.59511 0.72005 0.0
O289 O 0.82444 0.61748 0.72052 0.0
C290 C 0.80988 0.63071 0.62655 0.0
C291 C 0.81291 0.72508 0.64831 0.0
O292 O 0.74532 0.57938 0.70661 0.0
O293 O 0.74077 0.63699 0.71526 0.0
O294 O 0.77366 0.61812 0.63461 0.0
O295 O 0.83238 0.64308 0.65431 0.0
O296 O 0.78705 0.69609 0.66834 0.0
O297 O 0.84874 0.72969 0.64432 0.0
C298 C 0.94871 0.75101 0.64427 0.0
O299 O 0.92819 0.76732 0.65769 0.0
O300 O 0.93203 0.70922 0.64943 0.0
C301 C 0.86356 0.71629 0.73837 0.0
Tb302 Tb 0.30886 0.18802 0.67423 0.0
C303 C 0.39841 0.25764 0.69705 0.0
Tb304 Tb 0.36739 0.15355 0.6856 0.0
O305 O 0.31558 0.20812 0.72957 0.0
O306 O 0.32137 0.15411 0.71216 0.0
O307 O 0.36432 0.25142 0.68173 0.0
C308 C 0.41715 0.13071 0.71513 0.0
O309 O 0.40512 0.22446 0.70253 0.0
C310 C 0.35128 0.16303 0.62129 0.0
C311 C 0.27756 0.08383 0.66331 0.0
O312 O 0.41625 0.13907 0.68296 0.0
O313 O 0.3903 0.13538 0.73048 0.0
O314 O 0.36025 0.13339 0.63019 0.0
O315 O 0.35501 0.1876 0.64787 0.0
O316 O 0.31197 0.09005 0.67788 0.0
O317 O 0.27073 0.11699 0.65818 0.0
C318 C 0.25898 0.21039 0.64413 0.0
O319 O 0.28464 0.20368 0.62861 0.0
O320 O 0.26119 0.20438 0.67675 0.0
C321 C 0.3249 0.17879 0.73863 0.0
Tb322 Tb 0.79469 0.15428 0.69143 0.0
C323 C 0.82008 0.08753 0.66304 0.0
Tb324 Tb 0.88288 0.1918 0.6748 0.0
O325 O 0.77441 0.13532 0.63631 0.0
O326 O 0.83104 0.18889 0.65202 0.0
O327 O 0.7954 0.09255 0.68299 0.0
C328 C 0.94875 0.21673 0.64165 0.0
O329 O 0.8534 0.1219 0.65365 0.0
C330 C 0.86884 0.1805 0.7401 0.0
C331 C 0.85658 0.25935 0.70201 0.0
O332 O 0.93679 0.18868 0.66525 0.0
O333 O 0.92396 0.23119 0.63705 0.0
O334 O 0.90306 0.21023 0.73005 0.0
O335 O 0.8465 0.15666 0.71386 0.0
O336 O 0.88452 0.25425 0.68727 0.0
O337 O 0.82051 0.22546 0.70693 0.0
C338 C 0.72807 0.12738 0.72388 0.0
O339 O 0.76354 0.14161 0.73895 0.0
O340 O 0.73024 0.12894 0.69065 0.0
C341 C 0.80849 0.16478 0.62597 0.0
C342 C 0.29852 0.89771 0.10145 0.0
C343 C 0.28244 0.8519 0.10379 0.0
H344 H 0.34487 0.95706 0.08243 0.0
C345 C 0.30306 0.83131 0.09083 0.0
H346 H 0.28299 0.91422 0.11101 0.0
C347 C 0.33805 0.85553 0.07437 0.0
C348 C 0.35301 0.90078 0.07042 0.0
H349 H 0.29135 0.79603 0.09251 0.0
H350 H 0.35282 0.83856 0.064 0.0
C351 C 0.33355 0.92199 0.08477 0.0
C352 C 0.15673 0.42939 0.06667 0.0
C353 C 0.16151 0.43193 0.10308 0.0
H354 H 0.12832 0.43947 0.02211 0.0
C355 C 0.14093 0.44796 0.12261 0.0
H356 H 0.17149 0.4164 0.0508 0.0
C357 C 0.11553 0.46027 0.10603 0.0
C358 C 0.1107 0.45727 0.06971 0.0
H359 H 0.1444 0.45101 0.15066 0.0
H360 H 0.09965 0.47206 0.12163 0.0
C361 C 0.1318 0.44227 0.05017 0.0
C362 C 0.58091 0.71064 0.06901 0.0
C363 C 0.55161 0.71955 0.08051 0.0
H364 H 0.59321 0.66331 0.04377 0.0
C365 C 0.51091 0.68721 0.07345 0.0
H366 H 0.61248 0.73517 0.07426 0.0
C367 C 0.49975 0.6457 0.05647 0.0
C368 C 0.52914 0.6363 0.04568 0.0
H369 H 0.48787 0.6934 0.08234 0.0
H370 H 0.46821 0.62071 0.05244 0.0
C371 C 0.56979 0.66959 0.05144 0.0
C372 C 0.84414 0.31771 0.95894 0.0
C373 C 0.8565 0.28755 0.9487 0.0
H374 H 0.86163 0.3823 0.98287 0.0
C375 C 0.89609 0.29819 0.9577 0.0
H376 H 0.81375 0.31021 0.95208 0.0
C377 C 0.92331 0.33904 0.97576 0.0
C378 C 0.91153 0.37022 0.98452 0.0
H379 H 0.90614 0.27524 0.95014 0.0
H380 H 0.95403 0.34699 0.98135 0.0
C381 C 0.87153 0.3589 0.97645 0.0
C382 C 0.72252 0.59747 0.96195 0.0
C383 C 0.72285 0.59635 0.92565 0.0
H384 H 0.68751 0.58391 1.00549 0.0
C385 C 0.68698 0.58339 0.90533 0.0
H386 H 0.74981 0.60821 0.97838 0.0
C387 C 0.65121 0.56995 0.92105 0.0
C388 C 0.65085 0.56905 0.95723 0.0
H389 H 0.68624 0.58196 0.87732 0.0
H390 H 0.62369 0.55904 0.90488 0.0
C391 C 0.68688 0.58361 0.97752 0.0
C392 C 0.42129 0.10449 0.93842 0.0
C393 C 0.45146 0.14758 0.93264 0.0
H394 H 0.40696 0.04351 0.96042 0.0
C395 C 0.49144 0.16169 0.94386 0.0
H396 H 0.39019 0.09307 0.9303 0.0
C397 C 0.50111 0.13343 0.96081 0.0
C398 C 0.47088 0.09074 0.9676 0.0
H399 H 0.51521 0.19486 0.93981 0.0
H400 H 0.53225 0.14541 0.96918 0.0
C401 C 0.43086 0.07645 0.95604 0.0
C402 C 0.72444 0.13665 0.96346 0.0
C403 C 0.72497 0.1469 0.92883 0.0
H404 H 0.68906 0.10614 1.00524 0.0
C405 C 0.6883 0.12999 0.90863 0.0
H406 H 0.75219 0.14844 0.97952 0.0
C407 C 0.65184 0.10519 0.92343 0.0
C408 C 0.6517 0.09722 0.95862 0.0
H409 H 0.68781 0.13754 0.88195 0.0
H410 H 0.6239 0.0935 0.9077 0.0
C411 C 0.68829 0.11237 0.97822 0.0
C412 C 0.86337 0.56249 0.90744 0.0
C413 C 0.84286 0.57858 0.92703 0.0
H414 H 0.90395 0.53744 0.90828 0.0
C415 C 0.84713 0.5803 0.96343 0.0
H416 H 0.86027 0.56003 0.8794 0.0
C417 C 0.87143 0.56652 0.97984 0.0
C418 C 0.89241 0.55138 0.96024 0.0
H419 H 0.83241 0.59328 0.97936 0.0
H420 H 0.87451 0.56868 1.00789 0.0
C421 C 0.88814 0.54927 0.92394 0.0
C422 C 0.42262 0.30001 0.95743 0.0
C423 C 0.45228 0.29087 0.94736 0.0
H424 H 0.4097 0.34766 0.98116 0.0
C425 C 0.49287 0.32315 0.95525 0.0
H426 H 0.39114 0.27552 0.95152 0.0
C427 C 0.50362 0.36477 0.9717 0.0
C428 C 0.47391 0.37433 0.98118 0.0
H429 H 0.51619 0.31676 0.94747 0.0
H430 H 0.53512 0.38968 0.97647 0.0
C431 C 0.43331 0.34119 0.97451 0.0
C432 C 0.15825 0.68871 0.0701 0.0
C433 C 0.14643 0.71946 0.08004 0.0
H434 H 0.14014 0.62383 0.0466 0.0
C435 C 0.10702 0.70937 0.07089 0.0
H436 H 0.18845 0.69566 0.07711 0.0
C437 C 0.07946 0.66848 0.05305 0.0
C438 C 0.09076 0.6368 0.04464 0.0
H439 H 0.09736 0.73274 0.0782 0.0
H440 H 0.04886 0.6609 0.04737 0.0
C441 C 0.13059 0.64761 0.05276 0.0
C442 C 0.28102 0.41262 0.06713 0.0
C443 C 0.28138 0.41414 0.10349 0.0
H444 H 0.31519 0.42588 0.02304 0.0
C445 C 0.3176 0.42738 0.12333 0.0
H446 H 0.25344 0.40166 0.05106 0.0
C447 C 0.35304 0.44077 0.10708 0.0
C448 C 0.35272 0.44135 0.07084 0.0
H449 H 0.31885 0.4291 0.15136 0.0
H450 H 0.38084 0.45193 0.12288 0.0
C451 C 0.31634 0.42645 0.05103 0.0
C452 C 0.58432 0.90219 0.08666 0.0
C453 C 0.55435 0.86345 0.09943 0.0
H454 H 0.59796 0.95971 0.05968 0.0
C455 C 0.51448 0.85394 0.0961 0.0
H456 H 0.6152 0.90979 0.08866 0.0
C457 C 0.50462 0.88259 0.07995 0.0
C458 C 0.53434 0.92069 0.06605 0.0
H459 H 0.4909 0.82393 0.10547 0.0
H460 H 0.47351 0.87414 0.07744 0.0
C461 C 0.57437 0.93042 0.06984 0.0
C462 C 0.96708 0.23082 0.43636 0.0
C463 C 0.95232 0.18551 0.44016 0.0
H464 H 0.01176 0.28963 0.41545 0.0
C465 C 0.97367 0.16545 0.42791 0.0
H466 H 0.95093 0.24686 0.44532 0.0
C467 C 0.0081 0.18965 0.41076 0.0
C468 C 0.02168 0.23427 0.40532 0.0
H469 H 0.9629 0.13055 0.43066 0.0
H470 H 0.02347 0.17308 0.40095 0.0
C471 C 0.00148 0.25501 0.41893 0.0
C472 C 0.78374 0.73499 0.43659 0.0
C473 C 0.82562 0.76052 0.43554 0.0
H474 H 0.72651 0.72727 0.42135 0.0
C475 C 0.84165 0.79889 0.41728 0.0
H476 H 0.77011 0.7047 0.44964 0.0
C477 C 0.81635 0.81085 0.40003 0.0
C478 C 0.77472 0.78527 0.40141 0.0
H479 H 0.87372 0.81988 0.41642 0.0
H480 H 0.82936 0.84041 0.38605 0.0
C481 C 0.75863 0.74757 0.42007 0.0
C482 C 0.17808 0.02051 0.40709 0.0
C483 C 0.21876 0.05304 0.41397 0.0
H484 H 0.13549 0.95355 0.38691 0.0
C485 C 0.24811 0.04379 0.40314 0.0
H486 H 0.15499 0.02691 0.41553 0.0
C487 C 0.2371 1.00233 0.38644 0.0
C488 C 0.19648 0.96888 0.38078 0.0
H489 H 0.27966 0.06841 0.40832 0.0
H490 H 0.26062 0.99598 0.37923 0.0
C491 C 0.16702 0.97858 0.3909 0.0
C492 C 0.56157 0.63462 0.28768 0.0
C493 C 0.52263 0.62567 0.27794 0.0
H494 H 0.61986 0.682 0.3116 0.0
C495 C 0.5119 0.65769 0.28663 0.0
H496 H 0.57038 0.61028 0.28122 0.0
C497 C 0.54021 0.69884 0.30357 0.0
C498 C 0.57949 0.70831 0.3126 0.0
H499 H 0.48208 0.65154 0.27909 0.0
H500 H 0.53152 0.72351 0.30902 0.0
C501 C 0.5897 0.67549 0.30518 0.0
C502 C 0.36749 0.88204 0.27156 0.0
C503 C 0.3872 0.92315 0.25693 0.0
H504 H 0.31851 0.83777 0.29938 0.0
C505 C 0.36923 0.94969 0.25698 0.0
H506 H 0.37945 0.8598 0.27093 0.0
C507 C 0.33326 0.93606 0.27245 0.0
C508 C 0.31519 0.89617 0.28863 0.0
H509 H 0.38346 0.9815 0.24607 0.0
H510 H 0.3203 0.95734 0.27274 0.0
C511 C 0.33235 0.86911 0.2877 0.0
C512 C 0.13659 0.46267 0.24927 0.0
C513 C 0.11272 0.47675 0.26565 0.0
H514 H 0.16581 0.42412 0.25217 0.0
C515 C 0.09793 0.46018 0.29725 0.0
H516 H 0.14838 0.47503 0.22491 0.0
C517 C 0.10727 0.43067 0.31254 0.0
C518 C 0.13237 0.4178 0.29694 0.0
H519 H 0.07931 0.47041 0.3103 0.0
H520 H 0.09578 0.41898 0.33713 0.0
C521 C 0.14671 0.43381 0.26498 0.0
C522 C 0.3662 0.51216 0.27074 0.0
C523 C 0.3866 0.49187 0.25668 0.0
H524 H 0.31676 0.50417 0.29845 0.0
C525 C 0.3703 0.44583 0.25796 0.0
H526 H 0.3779 0.54754 0.26979 0.0
C527 C 0.33535 0.42103 0.27463 0.0
C528 C 0.31614 0.4419 0.29006 0.0
H529 H 0.38555 0.42946 0.24751 0.0
H530 H 0.32388 0.38578 0.2761 0.0
C531 C 0.33132 0.48742 0.28723 0.0
C532 C 0.49937 0.8821 0.28025 0.0
C533 C 0.51561 0.92141 0.26314 0.0
H534 H 0.5112 0.83904 0.30986 0.0
C535 C 0.55754 0.94727 0.26266 0.0
H536 H 0.46725 0.86076 0.28055 0.0
C537 C 0.58246 0.93392 0.2785 0.0
C538 C 0.56608 0.89511 0.29589 0.0
H539 H 0.57126 0.97816 0.25039 0.0
H540 H 0.61463 0.95436 0.27762 0.0
C541 C 0.52443 0.8694 0.29685 0.0
C542 C 0.08788 0.63094 0.29282 0.0
C543 C 0.11729 0.62249 0.28087 0.0
H544 H 0.0753 0.67844 0.31754 0.0
C545 C 0.1578 0.65592 0.2861 0.0
H546 H 0.05643 0.60562 0.28873 0.0
C547 C 0.16864 0.6979 0.30192 0.0
C548 C 0.13916 0.70676 0.31336 0.0
H549 H 0.18086 0.65011 0.27669 0.0
H550 H 0.20001 0.72358 0.30471 0.0
C551 C 0.09875 0.67255 0.30929 0.0
C552 C 0.82744 0.02023 0.40976 0.0
C553 C 0.81661 0.05222 0.41824 0.0
H554 H 0.80808 0.95452 0.38733 0.0
C555 C 0.77781 0.04337 0.40806 0.0
H556 H 0.85718 0.02633 0.41763 0.0
C557 C 0.74987 1.00258 0.39037 0.0
C558 C 0.76016 0.96978 0.38317 0.0
H559 H 0.76895 0.06772 0.41432 0.0
H560 H 0.71979 0.99611 0.38362 0.0
C561 C 0.79934 0.97918 0.3926 0.0
C562 C 0.98322 0.75954 0.4559 0.0
C563 C 0.94676 0.74393 0.43565 0.0
H564 H 0.04686 0.7866 0.45614 0.0
C565 C 0.94658 0.74076 0.39932 0.0
H566 H 0.98439 0.76264 0.48392 0.0
C567 C 0.98223 0.75535 0.38357 0.0
C568 C 0.01876 0.77264 0.40376 0.0
H569 H 0.91889 0.72793 0.38297 0.0
H570 H 0.98121 0.75351 0.35554 0.0
C571 C 0.01896 0.77363 0.44004 0.0
C572 C 0.25369 0.23955 0.42212 0.0
C573 C 0.22317 0.19853 0.43148 0.0
H574 H 0.26816 0.29955 0.39833 0.0
C575 C 0.18306 0.1875 0.42541 0.0
H576 H 0.28485 0.24851 0.42634 0.0
C577 C 0.17351 0.21677 0.40995 0.0
C578 C 0.20387 0.25725 0.39943 0.0
H579 H 0.15905 0.15592 0.43226 0.0
H580 H 0.1422 0.207 0.40531 0.0
C581 C 0.24411 0.2685 0.4059 0.0
C582 C 0.63938 0.49969 0.75907 0.0
C583 C 0.61823 0.51955 0.77221 0.0
H584 H 0.68938 0.50807 0.73209 0.0
C585 C 0.63385 0.56538 0.77026 0.0
H586 H 0.62816 0.46447 0.76054 0.0
C587 C 0.66887 0.59033 0.75372 0.0
C588 C 0.68873 0.56978 0.73906 0.0
H589 H 0.61798 0.58138 0.78 0.0
H590 H 0.67981 0.62538 0.75165 0.0
C591 C 0.67427 0.52455 0.74267 0.0
C592 C 0.48967 0.08901 0.72804 0.0
C593 C 0.49219 0.08811 0.76427 0.0
H594 H 0.464 0.10369 0.68399 0.0
C595 C 0.47025 0.1021 0.78398 0.0
H596 H 0.50582 0.07802 0.71208 0.0
C597 C 0.44593 0.116 0.76785 0.0
C598 C 0.44351 0.11684 0.73176 0.0
H599 H 0.47218 0.10283 0.81198 0.0
H600 H 0.42925 0.12641 0.7837 0.0
C601 C 0.46567 0.10353 0.71193 0.0
C602 C 0.8476 0.35638 0.73986 0.0
C603 C 0.8881 0.38899 0.74763 0.0
H604 H 0.80568 0.28934 0.71949 0.0
C605 C 0.91793 0.37989 0.73794 0.0
H606 H 0.82413 0.36264 0.74742 0.0
C607 C 0.90753 0.33839 0.72168 0.0
C608 C 0.86704 0.30482 0.71533 0.0
H609 H 0.94937 0.40457 0.74382 0.0
H610 H 0.93135 0.33207 0.71545 0.0
C611 C 0.83713 0.31445 0.7241 0.0
C612 C 0.17912 0.98755 0.62354 0.0
C613 C 0.19045 0.95637 0.61361 0.0
H614 H 0.19792 0.05253 0.64728 0.0
C615 C 0.22962 0.96578 0.6229 0.0
H616 H 0.14909 0.98107 0.61644 0.0
C617 C 0.25743 0.0064 0.64094 0.0
C618 C 0.24666 0.03852 0.64942 0.0
H619 H 0.23889 0.94206 0.61561 0.0
H620 H 0.28784 0.01339 0.64677 0.0
C621 C 0.20706 0.02842 0.64109 0.0
C622 C 0.03396 0.21221 0.60248 0.0
C623 C 0.05487 0.25397 0.58896 0.0
H624 H 0.9848 0.16846 0.63043 0.0
C625 C 0.03867 0.28222 0.59092 0.0
H626 H 0.0445 0.18872 0.60036 0.0
C627 C 0.0034 0.26966 0.60725 0.0
C628 C 0.9843 0.22915 0.62249 0.0
H629 H 0.05388 0.31462 0.58097 0.0
H630 H 0.99188 0.29229 0.60904 0.0
C631 C 0.99955 0.20033 0.61956 0.0
C632 C 0.82282 0.82497 0.60523 0.0
C633 C 0.78261 0.81306 0.59791 0.0
H634 H 0.86386 0.80623 0.62637 0.0
C635 C 0.75217 0.77125 0.60603 0.0
H636 H 0.84677 0.85715 0.59934 0.0
C637 C 0.76185 0.74241 0.6223 0.0
C638 C 0.80216 0.75455 0.63006 0.0
H639 H 0.72093 0.76156 0.60085 0.0
H640 H 0.73781 0.71074 0.62892 0.0
C641 C 0.83251 0.79581 0.62073 0.0
C642 C 0.03402 0.84486 0.60413 0.0
C643 C 0.0542 0.82402 0.59061 0.0
H644 H 0.985 0.83807 0.63189 0.0
C645 C 0.03779 0.7781 0.59268 0.0
H646 H 0.0459 0.88019 0.60262 0.0
C647 C 0.003 0.75402 0.60974 0.0
C648 C 0.98413 0.77553 0.62477 0.0
H649 H 0.05291 0.76135 0.58267 0.0
H650 H 0.99145 0.71887 0.61188 0.0
C651 C 0.99933 0.82086 0.62103 0.0
C652 C 0.20367 0.23635 0.57506 0.0
C653 C 0.18335 0.25232 0.59503 0.0
H654 H 0.24371 0.21062 0.57513 0.0
C655 C 0.18799 0.25392 0.63138 0.0
H656 H 0.20022 0.23392 0.54702 0.0
C657 C 0.21214 0.23962 0.64737 0.0
C658 C 0.23257 0.22412 0.62735 0.0
H659 H 0.17332 0.26672 0.64756 0.0
H660 H 0.2153 0.24135 0.6754 0.0
C661 C 0.22828 0.22266 0.5911 0.0
C662 C 0.82638 0.99097 0.62054 0.0
C663 C 0.78575 0.95777 0.61576 0.0
H664 H 0.86919 0.0585 0.63903 0.0
C665 C 0.75682 0.96654 0.62849 0.0
H666 H 0.8491 0.98495 0.61057 0.0
C667 C 0.76824 0.00817 0.64524 0.0
C668 C 0.80874 0.04213 0.64884 0.0
H669 H 0.72529 0.94141 0.62483 0.0
H670 H 0.74514 0.01428 0.65408 0.0
C671 C 0.83777 0.03299 0.63663 0.0
C672 C 0.49543 0.35406 0.73915 0.0
C673 C 0.48348 0.3849 0.74842 0.0
H674 H 0.47775 0.28935 0.71542 0.0
C675 C 0.44447 0.37519 0.73808 0.0
H676 H 0.52537 0.36081 0.74707 0.0
C677 C 0.41741 0.33465 0.71954 0.0
C678 C 0.42876 0.30288 0.7116 0.0
H679 H 0.43474 0.39866 0.74485 0.0
H680 H 0.38709 0.32747 0.71284 0.0
C681 C 0.4682 0.31322 0.72112 0.0
C682 C 0.61847 0.07587 0.73705 0.0
C683 C 0.61904 0.08356 0.7731 0.0
H684 H 0.6525 0.08425 0.69343 0.0
C685 C 0.65591 0.10335 0.79338 0.0
H686 H 0.59045 0.05979 0.7208 0.0
C687 C 0.69168 0.11699 0.77756 0.0
C688 C 0.69089 0.11114 0.74132 0.0
H689 H 0.65723 0.10975 0.82115 0.0
H690 H 0.71992 0.13312 0.79352 0.0
C691 C 0.65398 0.08982 0.72134 0.0
C692 C 0.84968 0.5213 0.7585 0.0
C693 C 0.88984 0.53305 0.76586 0.0
H694 H 0.80888 0.54049 0.73761 0.0
C695 C 0.92043 0.57494 0.75805 0.0
H696 H 0.82565 0.48906 0.76419 0.0
C697 C 0.91094 0.60407 0.74205 0.0
C698 C 0.87069 0.59212 0.73429 0.0
H699 H 0.95162 0.5845 0.76331 0.0
H700 H 0.93507 0.63583 0.73566 0.0
C701 C 0.84019 0.55075 0.74329 0.0
C702 C 0.52995 0.0232 0.16371 0.0
C703 C 0.48864 0.99763 0.16827 0.0
H704 H 0.57482 0.05784 0.12899 0.0
C705 C 0.4611 0.99499 0.14178 0.0
H706 H 0.5525 0.02853 0.18403 0.0
C707 C 0.47454 0.01458 0.1109 0.0
C708 C 0.51523 0.03509 0.10504 0.0
H709 H 0.42912 0.97646 0.14408 0.0
H710 H 0.45309 0.01267 0.09123 0.0
C711 C 0.543 0.04088 0.13228 0.0
C712 C 0.06113 0.5639 0.15192 0.0
C713 C 0.05435 0.52699 0.17001 0.0
H714 H 0.0442 0.58759 0.10807 0.0
C715 C 0.02596 0.48408 0.15482 0.0
H716 H 0.08371 0.59742 0.16174 0.0
C717 C 0.00433 0.47854 0.12302 0.0
C718 C 0.01004 0.51575 0.10624 0.0
H719 H 0.01957 0.45478 0.16784 0.0
H720 H 0.98247 0.44527 0.11196 0.0
C721 C 0.03869 0.55838 0.12088 0.0
C722 C 0.47606 0.48707 0.15222 0.0
C723 C 0.48865 0.52997 0.16774 0.0
H724 H 0.47993 0.44841 0.10901 0.0
C725 C 0.51429 0.56705 0.15024 0.0
H726 H 0.45644 0.4578 0.16492 0.0
C727 C 0.52849 0.56164 0.11913 0.0
C728 C 0.51637 0.51901 0.10394 0.0
H729 H 0.52359 0.60059 0.1606 0.0
H730 H 0.54851 0.59097 0.10663 0.0
C731 C 0.48973 0.48167 0.12045 0.0
C732 C 0.94422 0.44595 0.87626 0.0
C733 C 0.95187 0.4835 0.85865 0.0
H734 H 0.95921 0.42087 0.92025 0.0
C735 C 0.97982 0.52603 0.87476 0.0
H736 H 0.92181 0.41268 0.86575 0.0
C737 C 1.00017 0.53059 0.90704 0.0
C738 C 0.99359 0.49276 0.92336 0.0
H739 H 0.98676 0.55576 0.86217 0.0
H740 H 0.02172 0.56356 0.91885 0.0
C741 C 0.96539 0.45051 0.90778 0.0
C742 C 0.48735 0.44281 0.87612 0.0
C743 C 0.5138 0.47987 0.859 0.0
H744 H 0.45261 0.41904 0.91949 0.0
C745 C 0.52683 0.5228 0.87475 0.0
H746 H 0.47765 0.40921 0.86566 0.0
C747 C 0.5131 0.52829 0.90646 0.0
C748 C 0.48587 0.49102 0.92269 0.0
H749 H 0.547 0.55211 0.86236 0.0
H750 H 0.52341 0.56158 0.91811 0.0
C751 C 0.47308 0.44834 0.9072 0.0
C752 C 0.53408 0.99433 0.87929 0.0
C753 C 0.51918 0.02 0.86453 0.0
H754 H 0.53255 0.9557 0.92149 0.0
C755 C 0.49064 0.0256 0.88201 0.0
H756 H 0.55586 0.9888 0.86689 0.0
C757 C 0.47549 0.00407 0.91145 0.0
C758 C 0.49064 0.97923 0.9263 0.0
H759 H 0.47966 0.04684 0.87329 0.0
H760 H 0.45248 0.00801 0.92316 0.0
C761 C 0.52039 0.97476 0.91031 0.0
C762 C 0.12917 0.3273 0.47507 0.0
C763 C 0.15719 0.33143 0.50175 0.0
H764 H 0.12011 0.34335 0.42421 0.0
C765 C 0.19838 0.35814 0.49711 0.0
H766 H 0.09723 0.3076 0.47729 0.0
C767 C 0.21095 0.37578 0.46552 0.0
C768 C 0.18276 0.36872 0.43821 0.0
H769 H 0.22121 0.36449 0.51747 0.0
H770 H 0.24276 0.39378 0.46218 0.0
C771 C 0.14204 0.34673 0.44406 0.0
C772 C 0.72505 0.89936 0.48836 0.0
C773 C 0.71926 0.86198 0.50537 0.0
H774 H 0.7086 0.92388 0.4448 0.0
C775 C 0.69323 0.81933 0.48835 0.0
H776 H 0.7461 0.93291 0.49927 0.0
C777 C 0.6732 0.81445 0.4558 0.0
C778 C 0.6778 0.85197 0.44016 0.0
H779 H 0.68754 0.78958 0.50031 0.0
H780 H 0.65325 0.78136 0.44333 0.0
C781 C 0.7039 0.89436 0.45669 0.0
C782 C 0.14321 0.81912 0.48612 0.0
C783 C 0.15704 0.86201 0.50233 0.0
H784 H 0.14563 0.7804 0.44219 0.0
C785 C 0.18374 0.8991 0.48535 0.0
H786 H 0.12279 0.7898 0.49837 0.0
C787 C 0.19758 0.8936 0.45402 0.0
C788 C 0.18408 0.85094 0.43812 0.0
H789 H 0.19403 0.93272 0.49616 0.0
H790 H 0.21831 0.9229 0.44186 0.0
C791 C 0.1565 0.81367 0.45416 0.0
C792 C 0.64463 0.85774 0.20804 0.0
C793 C 0.61862 0.81493 0.19124 0.0
H794 H 0.68521 0.89619 0.25263 0.0
C795 C 0.61365 0.77779 0.20814 0.0
H796 H 0.64978 0.88734 0.19612 0.0
C797 C 0.63547 0.78319 0.23951 0.0
C798 C 0.66145 0.82573 0.25586 0.0
H799 H 0.59271 0.74413 0.19739 0.0
H800 H 0.63136 0.75385 0.25133 0.0
C801 C 0.66533 0.86299 0.24031 0.0
C802 C 0.19451 0.85554 0.20902 0.0
C803 C 0.17931 0.81286 0.19181 0.0
H804 H 0.19333 0.89386 0.25383 0.0
C805 C 0.15142 0.77568 0.20805 0.0
H806 H 0.21587 0.88499 0.19745 0.0
C807 C 0.13759 0.781 0.23942 0.0
C808 C 0.15236 0.82348 0.25622 0.0
H809 H 0.14016 0.74209 0.19666 0.0
H810 H 0.11586 0.75164 0.25092 0.0
C811 C 0.18141 0.86073 0.24114 0.0
C812 C 0.2087 0.34568 0.21954 0.0
C813 C 0.18169 0.34604 0.19402 0.0
H814 H 0.21605 0.3248 0.26899 0.0
C815 C 0.14042 0.32263 0.1991 0.0
H816 H 0.2406 0.36252 0.21675 0.0
C817 C 0.1272 0.30408 0.23023 0.0
C818 C 0.15465 0.30691 0.25659 0.0
H819 H 0.11812 0.31959 0.17947 0.0
H820 H 0.09557 0.28884 0.23403 0.0
C821 C 0.19501 0.32528 0.25008 0.0
C822 C 0.86462 0.68853 0.83092 0.0
C823 C 0.82335 0.66495 0.83593 0.0
H824 H 0.9095 0.72242 0.79603 0.0
C825 C 0.79628 0.66492 0.81024 0.0
H826 H 0.88693 0.69179 0.85064 0.0
C827 C 0.80995 0.68517 0.77964 0.0
C828 C 0.85036 0.70382 0.77325 0.0
H829 H 0.76437 0.64788 0.81294 0.0
H830 H 0.78885 0.68532 0.76062 0.0
C831 C 0.87784 0.70698 0.79975 0.0
C832 C 0.39637 0.23087 0.81896 0.0
C833 C 0.38894 0.19377 0.83709 0.0
H834 H 0.38115 0.25503 0.77452 0.0
C835 C 0.36144 0.15095 0.82114 0.0
H836 H 0.41848 0.26437 0.82925 0.0
C837 C 0.34117 0.14571 0.78861 0.0
C838 C 0.34736 0.18314 0.77186 0.0
H839 H 0.35471 0.1215 0.83407 0.0
H840 H 0.31981 0.11253 0.77705 0.0
C841 C 0.37526 0.22564 0.78724 0.0
C842 C 0.85064 0.23191 0.81986 0.0
C843 C 0.82507 0.19444 0.83707 0.0
H844 H 0.88544 0.25672 0.7766 0.0
C845 C 0.81332 0.15184 0.82136 0.0
H846 H 0.85932 0.26524 0.83025 0.0
C847 C 0.82753 0.1471 0.78973 0.0
C848 C 0.85416 0.18481 0.77359 0.0
H849 H 0.7939 0.12223 0.83378 0.0
H850 H 0.81811 0.11404 0.77807 0.0
C851 C 0.86558 0.22716 0.78892 0.0
C852 C 0.31434 0.19177 0.53961 0.0
C853 C 0.28579 0.14915 0.52401 0.0
H854 H 0.35727 0.22964 0.58306 0.0
C855 C 0.27814 0.11184 0.54194 0.0
H856 H 0.32134 0.22135 0.52678 0.0
C857 C 0.29984 0.11666 0.57322 0.0
C858 C 0.32861 0.15897 0.58831 0.0
H859 H 0.25533 0.07853 0.53188 0.0
H860 H 0.29366 0.08714 0.58588 0.0
C861 C 0.33524 0.19661 0.57168 0.0
C862 C 0.82197 0.11102 0.54514 0.0
C863 C 0.84984 0.14785 0.52857 0.0
H864 H 0.78626 0.08779 0.58797 0.0
C865 C 0.86497 0.19081 0.54522 0.0
H866 H 0.81081 0.07725 0.53422 0.0
C867 C 0.8518 0.19658 0.57714 0.0
C868 C 0.82272 0.15964 0.59248 0.0
H869 H 0.88632 0.22001 0.53339 0.0
H870 H 0.8637 0.22988 0.58947 0.0
C871 C 0.80799 0.11691 0.57623 0.0
C872 C 0.87698 0.68071 0.55424 0.0
C873 C 0.84983 0.68071 0.52869 0.0
H874 H 0.88448 0.66062 0.604 0.0
C875 C 0.80863 0.65764 0.53395 0.0
H876 H 0.9088 0.69723 0.55118 0.0
C877 C 0.79555 0.63968 0.56524 0.0
C878 C 0.82309 0.64284 0.59166 0.0
H879 H 0.78629 0.65445 0.51428 0.0
H880 H 0.76395 0.62462 0.56911 0.0
C881 C 0.86341 0.66096 0.58506 0.0
loop_
_geom_bond_atom_site_label_1
_geom_bond_atom_site_label_2
_geom_bond_distance
_geom_bond_site_symmetry_2
_ccdc_geom_bond_type
H0 C3 0.931 . S
H1 C6 0.928 . S
H2 C8 0.930 . S
C3 H0 0.931 . S
C3 C4 1.413 . S
C3 C5 1.360 . S
C4 C3 1.413 . S
C4 C8 1.429 . S
C5 C3 1.360 . S
C5 C6 1.372 . S
C6 H1 0.928 . S
C6 C5 1.372 . S
C6 C7 1.404 . S
C7 C6 1.404 . S
C7 C8 1.391 . S
C8 H2 0.930 . S
C8 C4 1.429 . S
C8 C7 1.391 . S
H9 C12 0.931 . S
H10 C15 0.928 . S
H11 C17 0.930 . S
C12 H9 0.931 . S
C12 C13 1.413 . S
C12 C14 1.360 . S
C13 C12 1.413 . S
C13 C17 1.429 . S
C14 C12 1.360 . S
C14 C15 1.372 . S
C15 H10 0.928 . S
C15 C14 1.372 . S
C15 C16 1.404 . S
C16 C15 1.404 . S
C16 C17 1.391 . S
C17 H11 0.930 . S
C17 C13 1.429 . S
C17 C16 1.391 . S
H18 C21 0.931 . S
H19 C24 0.928 . S
H20 C26 0.930 . S
C21 H18 0.931 . S
C21 C22 1.413 . S
C21 C23 1.360 . S
C22 C21 1.413 . S
C22 C26 1.429 . S
C23 C21 1.360 . S
C23 C24 1.372 . S
C24 H19 0.928 . S
C24 C23 1.372 . S
C24 C25 1.404 . S
C25 C24 1.404 . S
C25 C26 1.391 . S
C26 H20 0.930 . S
C26 C22 1.429 . S
C26 C25 1.391 . S
H27 C30 0.931 . S
H28 C33 0.928 . S
H29 C35 0.930 . S
C30 H27 0.931 . S
C30 C31 1.413 . S
C30 C32 1.360 . S
C31 C30 1.413 . S
C31 C35 1.429 . S
C32 C30 1.360 . S
C32 C33 1.372 . S
C33 H28 0.928 . S
C33 C32 1.372 . S
C33 C34 1.404 . S
C34 C33 1.404 . S
C34 C35 1.391 . S
C35 H29 0.930 . S
C35 C31 1.429 . S
C35 C34 1.391 . S
H36 C39 0.931 . S
H37 C42 0.928 . S
H38 C44 0.930 . S
C39 H36 0.931 . S
C39 C40 1.413 . S
C39 C41 1.360 . S
C40 C39 1.413 . S
C40 C44 1.429 . S
C41 C39 1.360 . S
C41 C42 1.372 . S
C42 H37 0.928 . S
C42 C41 1.372 . S
C42 C43 1.404 . S
C43 C42 1.404 . S
C43 C44 1.391 . S
C44 H38 0.930 . S
C44 C40 1.429 . S
C44 C43 1.391 . S
H45 C48 0.931 . S
H46 C51 0.928 . S
H47 C53 0.930 . S
C48 H45 0.931 . S
C48 C49 1.413 . S
C48 C50 1.360 . S
C49 C48 1.413 . S
C49 C53 1.429 . S
C50 C48 1.360 . S
C50 C51 1.372 . S
C51 H46 0.928 . S
C51 C50 1.372 . S
C51 C52 1.404 . S
C52 C51 1.404 . S
C52 C53 1.391 . S
C53 H47 0.930 . S
C53 C49 1.429 . S
C53 C52 1.391 . S
H54 C57 0.931 . S
H55 C60 0.928 . S
H56 C62 0.930 . S
C57 H54 0.931 . S
C57 C58 1.413 . S
C57 C59 1.360 . S
C58 C57 1.413 . S
C58 C62 1.429 . S
C59 C57 1.360 . S
C59 C60 1.372 . S
C60 H55 0.928 . S
C60 C59 1.372 . S
C60 C61 1.404 . S
C61 C60 1.404 . S
C61 C62 1.391 . S
C62 H56 0.930 . S
C62 C58 1.429 . S
C62 C61 1.391 . S
H63 C66 0.931 . S
H64 C69 0.928 . S
H65 C71 0.930 . S
C66 H63 0.931 . S
C66 C67 1.413 . S
C66 C68 1.360 . S
C67 C66 1.413 . S
C67 C71 1.429 . S
C68 C66 1.360 . S
C68 C69 1.372 . S
C69 H64 0.928 . S
C69 C68 1.372 . S
C69 C70 1.404 . S
C70 C69 1.404 . S
C70 C71 1.391 . S
C71 H65 0.930 . S
C71 C67 1.429 . S
C71 C70 1.391 . S
H72 C75 0.931 . S
H73 C78 0.928 . S
H74 C80 0.930 . S
C75 H72 0.931 . S
C75 C76 1.413 . S
C75 C77 1.360 . S
C76 C75 1.413 . S
C76 C80 1.429 . S
C77 C75 1.360 . S
C77 C78 1.372 . S
C78 H73 0.928 . S
C78 C77 1.372 . S
C78 C79 1.404 . S
C79 C78 1.404 . S
C79 C80 1.391 . S
C80 H74 0.930 . S
C80 C76 1.429 . S
C80 C79 1.391 . S
H81 C84 0.931 . S
H82 C87 0.928 . S
H83 C89 0.930 . S
C84 H81 0.931 . S
C84 C85 1.413 . S
C84 C86 1.360 . S
C85 C84 1.413 . S
C85 C89 1.429 . S
C86 C84 1.360 . S
C86 C87 1.372 . S
C87 H82 0.928 . S
C87 C86 1.372 . S
C87 C88 1.404 . S
C88 C87 1.404 . S
C88 C89 1.391 . S
C89 H83 0.930 . S
C89 C85 1.429 . S
C89 C88 1.391 . S
H90 C93 0.931 . S
H91 C96 0.928 . S
H92 C98 0.930 . S
C93 H90 0.931 . S
C93 C94 1.413 . S
C93 C95 1.360 . S
C94 C93 1.413 . S
C94 C98 1.429 . S
C95 C93 1.360 . S
C95 C96 1.372 . S
C96 H91 0.928 . S
C96 C95 1.372 . S
C96 C97 1.404 . S
C97 C96 1.404 . S
C97 C98 1.391 . S
C98 H92 0.930 . S
C98 C94 1.429 . S
C98 C97 1.391 . S
H99 C102 0.931 . S
H100 C105 0.928 . S
H101 C107 0.930 . S
C102 H99 0.931 . S
C102 C103 1.413 . S
C102 C104 1.360 . S
C103 C102 1.413 . S
C103 C107 1.429 . S
C104 C102 1.360 . S
C104 C105 1.372 . S
C105 H100 0.928 . S
C105 C104 1.372 . S
C105 C106 1.404 . S
C106 C105 1.404 . S
C106 C107 1.391 . S
C107 H101 0.930 . S
C107 C103 1.429 . S
C107 C106 1.391 . S
H108 C111 0.931 . S
H109 C114 0.928 . S
H110 C116 0.930 . S
C111 H108 0.931 . S
C111 C112 1.413 . S
C111 C113 1.360 . S
C112 C111 1.413 . S
C112 C116 1.429 . S
C113 C111 1.360 . S
C113 C114 1.372 . S
C114 H109 0.928 . S
C114 C113 1.372 . S
C114 C115 1.404 . S
C115 C114 1.404 . S
C115 C116 1.391 . S
C116 H110 0.930 . S
C116 C112 1.429 . S
C116 C115 1.391 . S
H117 C120 0.931 . S
H118 C123 0.928 . S
H119 C125 0.930 . S
C120 H117 0.931 . S
C120 C121 1.413 . S
C120 C122 1.360 . S
C121 C120 1.413 . S
C121 C125 1.429 . S
C122 C120 1.360 . S
C122 C123 1.372 . S
C123 H118 0.928 . S
C123 C122 1.372 . S
C123 C124 1.404 . S
C124 C123 1.404 . S
C124 C125 1.391 . S
C125 H119 0.930 . S
C125 C121 1.429 . S
C125 C124 1.391 . S
H126 C129 0.931 . S
H127 C132 0.928 . S
H128 C134 0.930 . S
C129 H126 0.931 . S
C129 C130 1.413 . S
C129 C131 1.360 . S
C130 C129 1.413 . S
C130 C134 1.429 . S
C131 C129 1.360 . S
C131 C132 1.372 . S
C132 H127 0.928 . S
C132 C131 1.372 . S
C132 C133 1.404 . S
C133 C132 1.404 . S
C133 C134 1.391 . S
C134 H128 0.930 . S
C134 C130 1.429 . S
C134 C133 1.391 . S
H135 C138 0.931 . S
H136 C141 0.928 . S
H137 C143 0.930 . S
C138 H135 0.931 . S
C138 C139 1.413 . S
C138 C140 1.360 . S
C139 C138 1.413 . S
C139 C143 1.429 . S
C140 C138 1.360 . S
C140 C141 1.372 . S
C141 H136 0.928 . S
C141 C140 1.372 . S
C141 C142 1.404 . S
C142 C141 1.404 . S
C142 C143 1.391 . S
C143 H137 0.930 . S
C143 C139 1.429 . S
C143 C142 1.391 . S
H144 C147 0.931 . S
H145 C150 0.928 . S
H146 C152 0.930 . S
C147 H144 0.931 . S
C147 C148 1.413 . S
C147 C149 1.360 . S
C148 C147 1.413 . S
C148 C152 1.429 . S
C149 C147 1.360 . S
C149 C150 1.372 . S
C150 H145 0.928 . S
C150 C149 1.372 . S
C150 C151 1.404 . S
C151 C150 1.404 . S
C151 C152 1.391 . S
C152 H146 0.930 . S
C152 C148 1.429 . S
C152 C151 1.391 . S
H153 C156 0.931 . S
H154 C159 0.928 . S
H155 C161 0.930 . S
C156 H153 0.931 . S
C156 C157 1.413 . S
C156 C158 1.360 . S
C157 C156 1.413 . S
C157 C161 1.429 . S
C158 C156 1.360 . S
C158 C159 1.372 . S
C159 H154 0.928 . S
C159 C158 1.372 . S
C159 C160 1.404 . S
C160 C159 1.404 . S
C160 C161 1.391 . S
C161 H155 0.930 . S
C161 C157 1.429 . S
C161 C160 1.391 . S
Tb162 O165 2.453 . S
Tb162 O166 2.596 1_545 S
Tb162 O167 2.374 1_545 S
Tb162 O175 2.343 1_554 S
Tb162 O177 2.353 . S
Tb162 O179 2.427 1_554 S
Tb162 O180 2.513 1_554 S
C163 O167 1.251 . S
C163 O169 1.249 1_554 S
Tb164 O166 2.343 1_556 S
Tb164 O169 2.360 . S
Tb164 O172 2.427 1_556 S
Tb164 O173 2.513 1_556 S
Tb164 O174 2.453 . S
Tb164 O175 2.596 1_565 S
Tb164 O176 2.374 1_565 S
O165 Tb162 2.453 . S
O165 C181 1.245 . S
O166 Tb162 2.596 1_565 S
O166 Tb164 2.343 1_554 S
O166 C181 1.259 1_565 S
O167 Tb162 2.374 1_565 S
O167 C163 1.251 . S
C168 O172 1.275 . S
C168 O173 1.246 . S
O169 C163 1.249 1_556 S
O169 Tb164 2.360 . S
C170 O174 1.245 . S
C170 O175 1.259 1_565 S
C171 O176 1.250 . S
C171 O177 1.263 1_556 S
O172 Tb164 2.427 1_554 S
O172 C168 1.275 . S
O173 Tb164 2.513 1_554 S
O173 C168 1.246 . S
O174 Tb164 2.453 . S
O174 C170 1.245 . S
O175 Tb162 2.343 1_556 S
O175 Tb164 2.596 1_545 S
O175 C170 1.259 1_545 S
O176 Tb164 2.374 1_545 S
O176 C171 1.250 . S
O177 Tb162 2.353 . S
O177 C171 1.263 1_554 S
C178 O179 1.275 . S
C178 O180 1.246 . S
O179 Tb162 2.427 1_556 S
O179 C178 1.275 . S
O180 Tb162 2.513 1_556 S
O180 C178 1.246 . S
C181 O165 1.245 . S
C181 O166 1.259 1_545 S
Tb182 O185 2.453 . S
Tb182 O186 2.596 1_655 S
Tb182 O187 2.374 1_655 S
Tb182 O195 2.343 1_554 S
Tb182 O197 2.359 . S
Tb182 O199 2.427 1_554 S
Tb182 O200 2.513 1_554 S
C183 O187 1.251 . S
C183 O189 1.263 . S
Tb184 O186 2.343 1_556 S
Tb184 O189 2.353 1_556 S
Tb184 O192 2.427 1_556 S
Tb184 O193 2.513 1_556 S
Tb184 O194 2.453 . S
Tb184 O195 2.596 1_455 S
Tb184 O196 2.374 1_455 S
O185 Tb182 2.453 . S
O185 C201 1.245 1_655 S
O186 Tb182 2.596 1_455 S
O186 Tb184 2.343 1_554 S
O186 C201 1.259 . S
O187 Tb182 2.374 1_455 S
O187 C183 1.251 . S
C188 O192 1.275 . S
C188 O193 1.246 . S
O189 C183 1.263 . S
O189 Tb184 2.353 1_554 S
C190 O194 1.245 1_655 S
C190 O195 1.259 . S
C191 O196 1.250 . S
C191 O197 1.245 1_556 S
O192 Tb184 2.427 1_554 S
O192 C188 1.275 . S
O193 Tb184 2.513 1_554 S
O193 C188 1.246 . S
O194 Tb184 2.453 . S
O194 C190 1.245 1_455 S
O195 Tb182 2.343 1_556 S
O195 Tb184 2.596 1_655 S
O195 C190 1.259 . S
O196 Tb184 2.374 1_655 S
O196 C191 1.250 . S
O197 Tb182 2.359 . S
O197 C191 1.245 1_554 S
C198 O199 1.275 . S
C198 O200 1.246 . S
O199 Tb182 2.427 1_556 S
O199 C198 1.275 . S
O200 Tb182 2.513 1_556 S
O200 C198 1.246 . S
C201 O185 1.245 1_455 S
C201 O186 1.259 . S
Tb202 O205 2.453 . S
Tb202 O206 2.596 . S
Tb202 O207 2.374 . S
Tb202 O215 2.343 1_556 S
Tb202 O217 2.353 1_556 S
Tb202 O219 2.427 1_556 S
Tb202 O220 2.513 1_556 S
C203 O207 1.251 . S
C203 O209 1.263 1_556 S
Tb204 O206 2.343 1_554 S
Tb204 O209 2.353 . S
Tb204 O212 2.427 1_554 S
Tb204 O213 2.513 1_554 S
Tb204 O214 2.453 . S
Tb204 O215 2.596 . S
Tb204 O216 2.374 . S
O205 Tb202 2.453 . S
O205 C221 1.245 . S
O206 Tb202 2.596 . S
O206 Tb204 2.343 1_556 S
O206 C221 1.259 . S
O207 Tb202 2.374 . S
O207 C203 1.251 . S
C208 O212 1.275 . S
C208 O213 1.246 . S
O209 C203 1.263 1_554 S
O209 Tb204 2.353 . S
C210 O214 1.245 . S
C210 O215 1.259 . S
C211 O216 1.250 . S
C211 O217 1.263 . S
O212 Tb204 2.427 1_556 S
O212 C208 1.275 . S
O213 Tb204 2.513 1_556 S
O213 C208 1.246 . S
O214 Tb204 2.453 . S
O214 C210 1.245 . S
O215 Tb202 2.343 1_554 S
O215 Tb204 2.596 . S
O215 C210 1.259 . S
O216 Tb204 2.374 . S
O216 C211 1.250 . S
O217 Tb202 2.353 1_554 S
O217 C211 1.263 . S
C218 O219 1.275 . S
C218 O220 1.246 . S
O219 Tb202 2.427 1_554 S
O219 C218 1.275 . S
O220 Tb202 2.513 1_554 S
O220 C218 1.246 . S
C221 O205 1.245 . S
C221 O206 1.259 . S
Tb222 O225 2.453 . S
Tb222 O226 2.596 . S
Tb222 O227 2.374 . S
Tb222 O235 2.343 . S
Tb222 O237 2.353 . S
Tb222 O239 2.427 . S
Tb222 O240 2.513 . S
C223 O227 1.251 . S
C223 O229 1.263 . S
Tb224 O226 2.343 . S
Tb224 O229 2.353 . S
Tb224 O232 2.427 . S
Tb224 O233 2.513 . S
Tb224 O234 2.453 . S
Tb224 O235 2.596 . S
Tb224 O236 2.374 . S
O225 Tb222 2.453 . S
O225 C241 1.245 . S
O226 Tb222 2.596 . S
O226 Tb224 2.343 . S
O226 C241 1.259 . S
O227 Tb222 2.374 . S
O227 C223 1.251 . S
C228 O232 1.275 . S
C228 O233 1.246 . S
O229 C223 1.263 . S
O229 Tb224 2.353 . S
C230 O234 1.245 . S
C230 O235 1.259 . S
C231 O236 1.250 . S
C231 O237 1.263 . S
O232 Tb224 2.427 . S
O232 C228 1.275 . S
O233 Tb224 2.513 . S
O233 C228 1.246 . S
O234 Tb224 2.453 . S
O234 C230 1.245 . S
O235 Tb222 2.343 . S
O235 Tb224 2.596 . S
O235 C230 1.259 . S
O236 Tb224 2.374 . S
O236 C231 1.250 . S
O237 Tb222 2.353 . S
O237 C231 1.263 . S
C238 O239 1.275 . S
C238 O240 1.246 . S
O239 Tb222 2.427 . S
O239 C238 1.275 . S
O240 Tb222 2.513 . S
O240 C238 1.246 . S
C241 O225 1.245 . S
C241 O226 1.259 . S
Tb242 O245 2.453 . S
Tb242 O246 2.596 . S
Tb242 O247 2.374 . S
Tb242 O255 2.343 . S
Tb242 O257 2.353 . S
Tb242 O259 2.427 . S
Tb242 O260 2.513 . S
C243 O247 1.251 . S
C243 O249 1.263 . S
Tb244 O246 2.343 . S
Tb244 O249 2.353 . S
Tb244 O252 2.427 . S
Tb244 O253 2.513 . S
Tb244 O254 2.453 . S
Tb244 O255 2.596 . S
Tb244 O256 2.374 . S
O245 Tb242 2.453 . S
O245 C261 1.245 . S
O246 Tb242 2.596 . S
O246 Tb244 2.343 . S
O246 C261 1.259 . S
O247 Tb242 2.374 . S
O247 C243 1.251 . S
C248 O252 1.275 . S
C248 O253 1.246 . S
O249 C243 1.263 . S
O249 Tb244 2.353 . S
C250 O254 1.245 . S
C250 O255 1.259 . S
C251 O256 1.250 . S
C251 O257 1.263 . S
O252 Tb244 2.427 . S
O252 C248 1.275 . S
O253 Tb244 2.513 . S
O253 C248 1.246 . S
O254 Tb244 2.453 . S
O254 C250 1.245 . S
O255 Tb242 2.343 . S
O255 Tb244 2.596 . S
O255 C250 1.259 . S
O256 Tb244 2.374 . S
O256 C251 1.250 . S
O257 Tb242 2.353 . S
O257 C251 1.263 . S
C258 O259 1.275 . S
C258 O260 1.246 . S
O259 Tb242 2.427 . S
O259 C258 1.275 . S
O260 Tb242 2.513 . S
O260 C258 1.246 . S
C261 O245 1.245 . S
C261 O246 1.259 . S
Tb262 O265 2.453 . S
Tb262 O266 2.596 . S
Tb262 O267 2.374 . S
Tb262 O275 2.343 . S
Tb262 O277 2.353 . S
Tb262 O279 2.427 . S
Tb262 O280 2.513 . S
C263 O267 1.251 . S
C263 O269 1.263 . S
Tb264 O266 2.343 . S
Tb264 O269 2.353 . S
Tb264 O272 2.427 . S
Tb264 O273 2.513 . S
Tb264 O274 2.453 . S
Tb264 O275 2.596 . S
Tb264 O276 2.374 . S
O265 Tb262 2.453 . S
O265 C281 1.245 . S
O266 Tb262 2.596 . S
O266 Tb264 2.343 . S
O266 C281 1.259 . S
O267 Tb262 2.374 . S
O267 C263 1.251 . S
C268 O272 1.275 . S
C268 O273 1.246 . S
O269 C263 1.263 . S
O269 Tb264 2.353 . S
C270 O274 1.245 . S
C270 O275 1.259 . S
C271 O276 1.250 . S
C271 O277 1.263 . S
O272 Tb264 2.427 . S
O272 C268 1.275 . S
O273 Tb264 2.513 . S
O273 C268 1.246 . S
O274 Tb264 2.453 . S
O274 C270 1.245 . S
O275 Tb262 2.343 . S
O275 Tb264 2.596 . S
O275 C270 1.259 . S
O276 Tb264 2.374 . S
O276 C271 1.250 . S
O277 Tb262 2.353 . S
O277 C271 1.263 . S
C278 O279 1.275 . S
C278 O280 1.246 . S
O279 Tb262 2.427 . S
O279 C278 1.275 . S
O280 Tb262 2.513 . S
O280 C278 1.246 . S
C281 O265 1.245 . S
C281 O266 1.259 . S
Tb282 O285 2.453 . S
Tb282 O286 2.596 . S
Tb282 O287 2.374 . S
Tb282 O295 2.343 . S
Tb282 O297 2.353 . S
Tb282 O299 2.427 . S
Tb282 O300 2.513 . S
C283 O287 1.251 . S
C283 O289 1.263 . S
Tb284 O286 2.343 . S
Tb284 O289 2.353 . S
Tb284 O292 2.427 . S
Tb284 O293 2.513 . S
Tb284 O294 2.453 . S
Tb284 O295 2.596 . S
Tb284 O296 2.374 . S
O285 Tb282 2.453 . S
O285 C301 1.245 . S
O286 Tb282 2.596 . S
O286 Tb284 2.343 . S
O286 C301 1.259 . S
O287 Tb282 2.374 . S
O287 C283 1.251 . S
C288 O292 1.275 . S
C288 O293 1.246 . S
O289 C283 1.263 . S
O289 Tb284 2.353 . S
C290 O294 1.245 . S
C290 O295 1.259 . S
C291 O296 1.250 . S
C291 O297 1.263 . S
O292 Tb284 2.427 . S
O292 C288 1.275 . S
O293 Tb284 2.513 . S
O293 C288 1.246 . S
O294 Tb284 2.453 . S
O294 C290 1.245 . S
O295 Tb282 2.343 . S
O295 Tb284 2.596 . S
O295 C290 1.259 . S
O296 Tb284 2.374 . S
O296 C291 1.250 . S
O297 Tb282 2.353 . S
O297 C291 1.263 . S
C298 O299 1.275 . S
C298 O300 1.246 . S
O299 Tb282 2.427 . S
O299 C298 1.275 . S
O300 Tb282 2.513 . S
O300 C298 1.246 . S
C301 O285 1.245 . S
C301 O286 1.259 . S
Tb302 O305 2.453 . S
Tb302 O306 2.596 . S
Tb302 O307 2.374 . S
Tb302 O315 2.343 . S
Tb302 O317 2.353 . S
Tb302 O319 2.427 . S
Tb302 O320 2.513 . S
C303 O307 1.251 . S
C303 O309 1.263 . S
Tb304 O306 2.343 . S
Tb304 O309 2.353 . S
Tb304 O312 2.427 . S
Tb304 O313 2.513 . S
Tb304 O314 2.453 . S
Tb304 O315 2.596 . S
Tb304 O316 2.374 . S
O305 Tb302 2.453 . S
O305 C321 1.245 . S
O306 Tb302 2.596 . S
O306 Tb304 2.343 . S
O306 C321 1.259 . S
O307 Tb302 2.374 . S
O307 C303 1.251 . S
C308 O312 1.275 . S
C308 O313 1.246 . S
O309 C303 1.263 . S
O309 Tb304 2.353 . S
C310 O314 1.245 . S
C310 O315 1.259 . S
C311 O316 1.250 . S
C311 O317 1.263 . S
O312 Tb304 2.427 . S
O312 C308 1.275 . S
O313 Tb304 2.513 . S
O313 C308 1.246 . S
O314 Tb304 2.453 . S
O314 C310 1.245 . S
O315 Tb302 2.343 . S
O315 Tb304 2.596 . S
O315 C310 1.259 . S
O316 Tb304 2.374 . S
O316 C311 1.250 . S
O317 Tb302 2.353 . S
O317 C311 1.263 . S
C318 O319 1.275 . S
C318 O320 1.246 . S
O319 Tb302 2.427 . S
O319 C318 1.275 . S
O320 Tb302 2.513 . S
O320 C318 1.246 . S
C321 O305 1.245 . S
C321 O306 1.259 . S
Tb322 O325 2.453 . S
Tb322 O326 2.596 . S
Tb322 O327 2.374 . S
Tb322 O335 2.343 . S
Tb322 O337 2.353 . S
Tb322 O339 2.427 . S
Tb322 O340 2.513 . S
C323 O327 1.251 . S
C323 O329 1.263 . S
Tb324 O326 2.343 . S
Tb324 O329 2.353 . S
Tb324 O332 2.427 . S
Tb324 O333 2.513 . S
Tb324 O334 2.453 . S
Tb324 O335 2.596 . S
Tb324 O336 2.374 . S
O325 Tb322 2.453 . S
O325 C341 1.245 . S
O326 Tb322 2.596 . S
O326 Tb324 2.343 . S
O326 C341 1.259 . S
O327 Tb322 2.374 . S
O327 C323 1.251 . S
C328 O332 1.275 . S
C328 O333 1.246 . S
O329 C323 1.263 . S
O329 Tb324 2.353 . S
C330 O334 1.245 . S
C330 O335 1.259 . S
C331 O336 1.250 . S
C331 O337 1.263 . S
O332 Tb324 2.427 . S
O332 C328 1.275 . S
O333 Tb324 2.513 . S
O333 C328 1.246 . S
O334 Tb324 2.453 . S
O334 C330 1.245 . S
O335 Tb322 2.343 . S
O335 Tb324 2.596 . S
O335 C330 1.259 . S
O336 Tb324 2.374 . S
O336 C331 1.250 . S
O337 Tb322 2.353 . S
O337 C331 1.263 . S
C338 O339 1.275 . S
C338 O340 1.246 . S
O339 Tb322 2.427 . S
O339 C338 1.275 . S
O340 Tb322 2.513 . S
O340 C338 1.246 . S
C341 O325 1.245 . S
C341 O326 1.259 . S
C342 C343 1.387 . S
C342 H346 0.950 . S
C342 C351 1.390 . S
C343 C342 1.387 . S
C343 C345 1.387 . S
H344 C351 0.950 . S
C345 C343 1.387 . S
C345 C347 1.390 . S
C345 H349 0.950 . S
H346 C342 0.950 . S
C347 C345 1.390 . S
C347 C348 1.387 . S
C347 H350 0.950 . S
C348 C347 1.387 . S
C348 C351 1.387 . S
H349 C345 0.950 . S
H350 C347 0.950 . S
C351 C342 1.390 . S
C351 H344 0.950 . S
C351 C348 1.387 . S
C352 C353 1.387 . S
C352 H356 0.950 . S
C352 C361 1.390 . S
C353 C352 1.387 . S
C353 C355 1.387 . S
H354 C361 0.950 . S
C355 C353 1.387 . S
C355 C357 1.390 . S
C355 H359 0.950 . S
H356 C352 0.950 . S
C357 C355 1.390 . S
C357 C358 1.387 . S
C357 H360 0.950 . S
C358 C357 1.387 . S
C358 C361 1.387 . S
H359 C355 0.950 . S
H360 C357 0.950 . S
C361 C352 1.390 . S
C361 H354 0.950 . S
C361 C358 1.387 . S
C362 C363 1.387 . S
C362 H366 0.950 . S
C362 C371 1.390 . S
C363 C362 1.387 . S
C363 C365 1.387 . S
H364 C371 0.950 . S
C365 C363 1.387 . S
C365 C367 1.390 . S
C365 H369 0.950 . S
H366 C362 0.950 . S
C367 C365 1.390 . S
C367 C368 1.387 . S
C367 H370 0.950 . S
C368 C367 1.387 . S
C368 C371 1.387 . S
H369 C365 0.950 . S
H370 C367 0.950 . S
C371 C362 1.390 . S
C371 H364 0.950 . S
C371 C368 1.387 . S
C372 C373 1.387 . S
C372 H376 0.950 . S
C372 C381 1.390 . S
C373 C372 1.387 . S
C373 C375 1.387 . S
H374 C381 0.950 . S
C375 C373 1.387 . S
C375 C377 1.390 . S
C375 H379 0.950 . S
H376 C372 0.950 . S
C377 C375 1.390 . S
C377 C378 1.387 . S
C377 H380 0.950 . S
C378 C377 1.387 . S
C378 C381 1.387 . S
H379 C375 0.950 . S
H380 C377 0.950 . S
C381 C372 1.390 . S
C381 H374 0.950 . S
C381 C378 1.387 . S
C382 C383 1.387 . S
C382 H386 0.950 . S
C382 C391 1.390 . S
C383 C382 1.387 . S
C383 C385 1.387 . S
H384 C391 0.950 . S
C385 C383 1.387 . S
C385 C387 1.390 . S
C385 H389 0.950 . S
H386 C382 0.950 . S
C387 C385 1.390 . S
C387 C388 1.387 . S
C387 H390 0.950 . S
C388 C387 1.387 . S
C388 C391 1.387 . S
H389 C385 0.950 . S
H390 C387 0.950 . S
C391 C382 1.390 . S
C391 H384 0.950 . S
C391 C388 1.387 . S
C392 C393 1.387 . S
C392 H396 0.950 . S
C392 C401 1.390 . S
C393 C392 1.387 . S
C393 C395 1.387 . S
H394 C401 0.950 . S
C395 C393 1.387 . S
C395 C397 1.390 . S
C395 H399 0.950 . S
H396 C392 0.950 . S
C397 C395 1.390 . S
C397 C398 1.387 . S
C397 H400 0.950 1_556 S
C398 C397 1.387 . S
C398 C401 1.387 . S
H399 C395 0.950 . S
H400 C397 0.950 1_554 S
C401 C392 1.390 . S
C401 H394 0.950 . S
C401 C398 1.387 . S
C402 C403 1.387 . S
C402 H406 0.950 . S
C402 C411 1.390 . S
C403 C402 1.387 . S
C403 C405 1.387 . S
H404 C411 0.950 1_554 S
C405 C403 1.387 . S
C405 C407 1.390 . S
C405 H409 0.950 . S
H406 C402 0.950 . S
C407 C405 1.390 . S
C407 C408 1.387 . S
C407 H410 0.950 . S
C408 C407 1.387 . S
C408 C411 1.387 . S
H409 C405 0.950 . S
H410 C407 0.950 . S
C411 C402 1.390 . S
C411 H404 0.950 1_556 S
C411 C408 1.387 . S
C412 C413 1.387 . S
C412 H416 0.950 . S
C412 C421 1.390 . S
C413 C412 1.387 . S
C413 C415 1.387 . S
H414 C421 0.950 . S
C415 C413 1.387 . S
C415 C417 1.390 . S
C415 H419 0.950 . S
H416 C412 0.950 . S
C417 C415 1.390 . S
C417 C418 1.387 . S
C417 H420 0.950 . S
C418 C417 1.387 . S
C418 C421 1.387 . S
H419 C415 0.950 . S
H420 C417 0.950 . S
C421 C412 1.390 . S
C421 H414 0.950 . S
C421 C418 1.387 . S
C422 C423 1.387 . S
C422 H426 0.950 . S
C422 C431 1.390 . S
C423 C422 1.387 . S
C423 C425 1.387 . S
H424 C431 0.950 . S
C425 C423 1.387 . S
C425 C427 1.390 . S
C425 H429 0.950 . S
H426 C422 0.950 . S
C427 C425 1.390 . S
C427 C428 1.387 . S
C427 H430 0.950 1_556 S
C428 C427 1.387 . S
C428 C431 1.387 . S
H429 C425 0.950 . S
H430 C427 0.950 1_554 S
C431 C422 1.390 . S
C431 H424 0.950 . S
C431 C428 1.387 . S
C432 C433 1.387 . S
C432 H436 0.950 . S
C432 C441 1.390 . S
C433 C432 1.387 . S
C433 C435 1.387 . S
H434 C441 0.932 1_556 S
C435 C433 1.387 . S
C435 C437 1.390 . S
C435 H439 0.950 . S
H436 C432 0.950 . S
C437 C435 1.390 . S
C437 C438 1.387 . S
C437 H440 0.950 . S
C438 C437 1.387 . S
C438 C441 1.387 . S
H439 C435 0.950 . S
H440 C437 0.950 . S
C441 C432 1.390 . S
C441 H434 0.932 1_554 S
C441 C438 1.387 . S
C442 C443 1.387 . S
C442 H446 0.950 . S
C442 C451 1.390 . S
C443 C442 1.387 . S
C443 C445 1.387 . S
H444 C451 0.950 . S
C445 C443 1.387 . S
C445 C447 1.390 . S
C445 H449 0.950 . S
H446 C442 0.950 . S
C447 C445 1.390 . S
C447 C448 1.387 . S
C447 H450 0.950 . S
C448 C447 1.387 . S
C448 C451 1.387 . S
H449 C445 0.950 . S
H450 C447 0.950 . S
C451 C442 1.390 . S
C451 H444 0.950 . S
C451 C448 1.387 . S
C452 C453 1.387 . S
C452 H456 0.950 . S
C452 C461 1.390 . S
C453 C452 1.387 . S
C453 C455 1.387 . S
H454 C461 0.950 . S
C455 C453 1.387 . S
C455 C457 1.390 . S
C455 H459 0.950 . S
H456 C452 0.950 . S
C457 C455 1.390 . S
C457 C458 1.387 . S
C457 H460 0.950 . S
C458 C457 1.387 . S
C458 C461 1.387 . S
H459 C455 0.950 . S
H460 C457 0.950 . S
C461 C452 1.390 . S
C461 H454 0.950 . S
C461 C458 1.387 . S
C462 C463 1.387 . S
C462 H466 0.950 . S
C462 C471 1.390 1_655 S
C463 C462 1.387 . S
C463 C465 1.387 . S
H464 C471 0.950 . S
C465 C463 1.387 . S
C465 C467 1.390 . S
C465 H469 0.950 . S
H466 C462 0.950 . S
C467 C465 1.390 . S
C467 C468 1.387 1_655 S
C467 H470 0.950 . S
C468 C467 1.387 1_455 S
C468 C471 1.387 . S
H469 C465 0.950 . S
H470 C467 0.950 . S
C471 C462 1.390 1_455 S
C471 H464 0.950 . S
C471 C468 1.387 . S
C472 C473 1.387 . S
C472 H476 0.950 . S
C472 C481 1.390 . S
C473 C472 1.387 . S
C473 C475 1.387 . S
H474 C481 0.950 . S
C475 C473 1.387 . S
C475 C477 1.390 . S
C475 H479 0.950 . S
H476 C472 0.950 . S
C477 C475 1.390 . S
C477 C478 1.387 . S
C477 H480 0.950 . S
C478 C477 1.387 . S
C478 C481 1.387 . S
H479 C475 0.950 . S
H480 C477 0.950 . S
C481 C472 1.390 . S
C481 H474 0.950 . S
C481 C478 1.387 . S
C482 C483 1.387 . S
C482 H486 0.950 . S
C482 C491 1.390 1_545 S
C483 C482 1.387 . S
C483 C485 1.387 . S
H484 C491 0.950 . S
C485 C483 1.387 . S
C485 C487 1.372 1_545 S
C485 H489 0.950 . S
H486 C482 0.950 . S
C487 C485 1.372 1_565 S
C487 C488 1.396 . S
C487 H490 0.960 . S
C488 C487 1.396 . S
C488 C491 1.387 . S
H489 C485 0.950 . S
H490 C487 0.960 . S
C491 C482 1.390 1_565 S
C491 H484 0.950 . S
C491 C488 1.387 . S
C492 C493 1.387 . S
C492 H496 0.950 . S
C492 C501 1.390 . S
C493 C492 1.387 . S
C493 C495 1.387 . S
H494 C501 0.950 . S
C495 C493 1.387 . S
C495 C497 1.390 . S
C495 H499 0.950 . S
H496 C492 0.950 . S
C497 C495 1.390 . S
C497 C498 1.387 . S
C497 H500 0.950 . S
C498 C497 1.387 . S
C498 C501 1.387 . S
H499 C495 0.950 . S
H500 C497 0.950 . S
C501 C492 1.390 . S
C501 H494 0.950 . S
C501 C498 1.387 . S
C502 C503 1.387 . S
C502 H506 0.950 . S
C502 C511 1.390 . S
C503 C502 1.387 . S
C503 C505 1.387 . S
H504 C511 0.950 . S
C505 C503 1.387 . S
C505 C507 1.390 . S
C505 H509 0.950 . S
H506 C502 0.950 . S
C507 C505 1.390 . S
C507 C508 1.387 . S
C507 H510 0.950 . S
C508 C507 1.387 . S
C508 C511 1.387 . S
H509 C505 0.950 . S
H510 C507 0.950 . S
C511 C502 1.390 . S
C511 H504 0.950 . S
C511 C508 1.387 . S
C512 C513 1.387 . S
C512 H516 0.950 . S
C512 C521 1.390 . S
C513 C512 1.387 . S
C513 C515 1.387 . S
H514 C521 0.950 . S
C515 C513 1.387 . S
C515 C517 1.390 . S
C515 H519 0.950 . S
H516 C512 0.950 . S
C517 C515 1.390 . S
C517 C518 1.387 . S
C517 H520 0.950 . S
C518 C517 1.387 . S
C518 C521 1.387 . S
H519 C515 0.950 . S
H520 C517 0.950 . S
C521 C512 1.390 . S
C521 H514 0.950 . S
C521 C518 1.387 . S
C522 C523 1.387 . S
C522 H526 0.950 . S
C522 C531 1.390 . S
C523 C522 1.387 . S
C523 C525 1.387 . S
H524 C531 0.950 . S
C525 C523 1.387 . S
C525 C527 1.390 . S
C525 H529 0.950 . S
H526 C522 0.950 . S
C527 C525 1.390 . S
C527 C528 1.387 . S
C527 H530 0.950 . S
C528 C527 1.387 . S
C528 C531 1.387 . S
H529 C525 0.950 . S
H530 C527 0.950 . S
C531 C522 1.390 . S
C531 H524 0.950 . S
C531 C528 1.387 . S
C532 C533 1.387 . S
C532 H536 0.950 . S
C532 C541 1.390 . S
C533 C532 1.387 . S
C533 C535 1.387 . S
H534 C541 0.950 . S
C535 C533 1.387 . S
C535 C537 1.390 . S
C535 H539 0.950 . S
H536 C532 0.950 . S
C537 C535 1.390 . S
C537 C538 1.387 . S
C537 H540 0.950 . S
C538 C537 1.387 . S
C538 C541 1.387 . S
H539 C535 0.950 . S
H540 C537 0.950 . S
C541 C532 1.390 . S
C541 H534 0.950 . S
C541 C538 1.387 . S
C542 C543 1.387 . S
C542 H546 0.950 . S
C542 C551 1.390 . S
C543 C542 1.387 . S
C543 C545 1.387 . S
H544 C551 0.950 . S
C545 C543 1.387 . S
C545 C547 1.390 . S
C545 H549 0.950 . S
H546 C542 0.950 . S
C547 C545 1.390 . S
C547 C548 1.387 . S
C547 H550 0.950 . S
C548 C547 1.387 . S
C548 C551 1.387 . S
H549 C545 0.950 . S
H550 C547 0.950 . S
C551 C542 1.390 . S
C551 H544 0.950 . S
C551 C548 1.387 . S
C552 C553 1.387 . S
C552 H556 0.950 . S
C552 C561 1.390 1_545 S
C553 C552 1.387 . S
C553 C555 1.387 . S
H554 C561 0.950 . S
C555 C553 1.387 . S
C555 C557 1.390 1_545 S
C555 H559 0.950 . S
H556 C552 0.950 . S
C557 C555 1.390 1_565 S
C557 C558 1.387 . S
C557 H560 0.950 . S
C558 C557 1.387 . S
C558 C561 1.387 . S
H559 C555 0.950 . S
H560 C557 0.950 . S
C561 C552 1.390 1_565 S
C561 H554 0.950 . S
C561 C558 1.387 . S
C562 C563 1.387 . S
C562 H566 0.950 . S
C562 C571 1.390 1_655 S
C563 C562 1.387 . S
C563 C565 1.387 . S
H564 C571 0.950 . S
C565 C563 1.387 . S
C565 C567 1.390 . S
C565 H569 0.950 . S
H566 C562 0.950 . S
C567 C565 1.390 . S
C567 C568 1.387 1_655 S
C567 H570 0.950 . S
C568 C567 1.387 1_455 S
C568 C571 1.387 . S
H569 C565 0.950 . S
H570 C567 0.950 . S
C571 C562 1.390 1_455 S
C571 H564 0.950 . S
C571 C568 1.387 . S
C572 C573 1.387 . S
C572 H576 0.950 . S
C572 C581 1.390 . S
C573 C572 1.387 . S
C573 C575 1.387 . S
H574 C581 0.950 . S
C575 C573 1.387 . S
C575 C577 1.390 . S
C575 H579 0.950 . S
H576 C572 0.950 . S
C577 C575 1.390 . S
C577 C578 1.387 . S
C577 H580 0.950 . S
C578 C577 1.387 . S
C578 C581 1.387 . S
H579 C575 0.950 . S
H580 C577 0.950 . S
C581 C572 1.390 . S
C581 H574 0.950 . S
C581 C578 1.387 . S
C582 C583 1.387 . S
C582 H586 0.950 . S
C582 C591 1.390 . S
C583 C582 1.387 . S
C583 C585 1.387 . S
H584 C591 0.950 . S
C585 C583 1.387 . S
C585 C587 1.390 . S
C585 H589 0.950 . S
H586 C582 0.950 . S
C587 C585 1.390 . S
C587 C588 1.387 . S
C587 H590 0.950 . S
C588 C587 1.387 . S
C588 C591 1.387 . S
H589 C585 0.950 . S
H590 C587 0.950 . S
C591 C582 1.390 . S
C591 H584 0.950 . S
C591 C588 1.387 . S
C592 C593 1.387 . S
C592 H596 0.950 . S
C592 C601 1.390 . S
C593 C592 1.387 . S
C593 C595 1.387 . S
H594 C601 0.950 . S
C595 C593 1.387 . S
C595 C597 1.390 . S
C595 H599 0.950 . S
H596 C592 0.950 . S
C597 C595 1.390 . S
C597 C598 1.387 . S
C597 H600 0.950 . S
C598 C597 1.387 . S
C598 C601 1.387 . S
H599 C595 0.950 . S
H600 C597 0.950 . S
C601 C592 1.390 . S
C601 H594 0.950 . S
C601 C598 1.387 . S
C602 C603 1.387 . S
C602 H606 0.950 . S
C602 C611 1.390 . S
C603 C602 1.387 . S
C603 C605 1.387 . S
H604 C611 0.950 . S
C605 C603 1.387 . S
C605 C607 1.390 . S
C605 H609 0.950 . S
H606 C602 0.950 . S
C607 C605 1.390 . S
C607 C608 1.387 . S
C607 H610 0.950 . S
C608 C607 1.387 . S
C608 C611 1.387 . S
H609 C605 0.950 . S
H610 C607 0.950 . S
C611 C602 1.390 . S
C611 H604 0.950 . S
C611 C608 1.387 . S
C612 C613 1.387 . S
C612 H616 0.950 . S
C612 C621 1.390 1_565 S
C613 C612 1.387 . S
C613 C615 1.387 . S
H614 C621 0.950 . S
C615 C613 1.387 . S
C615 C617 1.390 1_565 S
C615 H619 0.950 . S
H616 C612 0.950 . S
C617 C615 1.390 1_545 S
C617 C618 1.387 . S
C617 H620 0.950 . S
C618 C617 1.387 . S
C618 C621 1.387 . S
H619 C615 0.950 . S
H620 C617 0.950 . S
C621 C612 1.390 1_545 S
C621 H614 0.950 . S
C621 C618 1.387 . S
C622 C623 1.387 . S
C622 H626 0.950 . S
C622 C631 1.390 1_455 S
C623 C622 1.387 . S
C623 C625 1.387 . S
H624 C631 0.950 . S
C625 C623 1.387 . S
C625 C627 1.381 1_455 S
C625 H629 0.950 . S
H626 C622 0.950 . S
C627 C625 1.381 1_655 S
C627 C628 1.388 . S
C627 H630 0.959 . S
C628 C627 1.388 . S
C628 C631 1.387 . S
H629 C625 0.950 . S
H630 C627 0.959 . S
C631 C622 1.390 1_655 S
C631 H624 0.950 . S
C631 C628 1.387 . S
C632 C633 1.387 . S
C632 H636 0.950 . S
C632 C641 1.390 . S
C633 C632 1.387 . S
C633 C635 1.387 . S
H634 C641 0.950 . S
C635 C633 1.387 . S
C635 C637 1.390 . S
C635 H639 0.950 . S
H636 C632 0.950 . S
C637 C635 1.390 . S
C637 C638 1.387 . S
C637 H640 0.950 . S
C638 C637 1.387 . S
C638 C641 1.387 . S
H639 C635 0.950 . S
H640 C637 0.950 . S
C641 C632 1.390 . S
C641 H634 0.950 . S
C641 C638 1.387 . S
C642 C643 1.387 . S
C642 H646 0.950 . S
C642 C651 1.390 . S
C643 C642 1.387 . S
C643 C645 1.387 . S
H644 C651 0.950 . S
C645 C643 1.387 . S
C645 C647 1.390 1_455 S
C645 H649 0.950 . S
H646 C642 0.950 . S
C647 C645 1.390 1_655 S
C647 C648 1.387 . S
C647 H650 0.950 . S
C648 C647 1.387 . S
C648 C651 1.387 1_655 S
H649 C645 0.950 . S
H650 C647 0.950 . S
C651 C642 1.390 . S
C651 H644 0.950 . S
C651 C648 1.387 1_455 S
C652 C653 1.387 . S
C652 H656 0.950 . S
C652 C661 1.390 . S
C653 C652 1.387 . S
C653 C655 1.387 . S
H654 C661 0.950 . S
C655 C653 1.387 . S
C655 C657 1.390 . S
C655 H659 0.950 . S
H656 C652 0.950 . S
C657 C655 1.390 . S
C657 C658 1.387 . S
C657 H660 0.950 . S
C658 C657 1.387 . S
C658 C661 1.387 . S
H659 C655 0.950 . S
H660 C657 0.950 . S
C661 C652 1.390 . S
C661 H654 0.950 . S
C661 C658 1.387 . S
C662 C663 1.387 . S
C662 H666 0.950 . S
C662 C671 1.390 1_565 S
C663 C662 1.387 . S
C663 C665 1.387 . S
H664 C671 0.950 . S
C665 C663 1.387 . S
C665 C667 1.390 1_565 S
C665 H669 0.950 . S
H666 C662 0.950 . S
C667 C665 1.390 1_545 S
C667 C668 1.387 . S
C667 H670 0.950 . S
C668 C667 1.387 . S
C668 C671 1.387 . S
H669 C665 0.950 . S
H670 C667 0.950 . S
C671 C662 1.390 1_545 S
C671 H664 0.950 . S
C671 C668 1.387 . S
C672 C673 1.387 . S
C672 H676 0.950 . S
C672 C681 1.390 . S
C673 C672 1.387 . S
C673 C675 1.387 . S
H674 C681 0.950 . S
C675 C673 1.387 . S
C675 C677 1.390 . S
C675 H679 0.950 . S
H676 C672 0.950 . S
C677 C675 1.390 . S
C677 C678 1.387 . S
C677 H680 0.950 . S
C678 C677 1.387 . S
C678 C681 1.387 . S
H679 C675 0.950 . S
H680 C677 0.950 . S
C681 C672 1.390 . S
C681 H674 0.950 . S
C681 C678 1.387 . S
C682 C683 1.387 . S
C682 H686 0.950 . S
C682 C691 1.390 . S
C683 C682 1.387 . S
C683 C685 1.387 . S
H684 C691 0.950 . S
C685 C683 1.387 . S
C685 C687 1.390 . S
C685 H689 0.950 . S
H686 C682 0.950 . S
C687 C685 1.390 . S
C687 C688 1.387 . S
C687 H690 0.950 . S
C688 C687 1.387 . S
C688 C691 1.387 . S
H689 C685 0.950 . S
H690 C687 0.950 . S
C691 C682 1.390 . S
C691 H684 0.950 . S
C691 C688 1.387 . S
C692 C693 1.387 . S
C692 H696 0.950 . S
C692 C701 1.390 . S
C693 C692 1.387 . S
C693 C695 1.387 . S
H694 C701 0.950 . S
C695 C693 1.387 . S
C695 C697 1.390 . S
C695 H699 0.950 . S
H696 C692 0.950 . S
C697 C695 1.390 . S
C697 C698 1.387 . S
C697 H700 0.950 . S
C698 C697 1.387 . S
C698 C701 1.387 . S
H699 C695 0.950 . S
H700 C697 0.950 . S
C701 C692 1.390 . S
C701 H694 0.950 . S
C701 C698 1.387 . S
C702 C703 1.387 1_545 S
C702 H706 0.950 . S
C702 C711 1.390 . S
C703 C702 1.387 1_565 S
C703 C705 1.387 . S
H704 C711 0.950 . S
C705 C703 1.387 . S
C705 C707 1.390 . S
C705 H709 0.950 . S
H706 C702 0.950 . S
C707 C705 1.390 . S
C707 C708 1.387 . S
C707 H710 0.950 . S
C708 C707 1.387 . S
C708 C711 1.387 1_565 S
H709 C705 0.950 . S
H710 C707 0.950 . S
C711 C702 1.390 . S
C711 H704 0.950 . S
C711 C708 1.387 1_545 S
C712 C713 1.387 . S
C712 H716 0.950 . S
C712 C721 1.390 . S
C713 C712 1.387 . S
C713 C715 1.387 . S
H714 C721 0.950 . S
C715 C713 1.387 . S
C715 C717 1.390 . S
C715 H719 0.950 . S
H716 C712 0.950 . S
C717 C715 1.390 . S
C717 C718 1.387 . S
C717 H720 0.950 1_455 S
C718 C717 1.387 . S
C718 C721 1.387 . S
H719 C715 0.950 . S
H720 C717 0.950 1_655 S
C721 C712 1.390 . S
C721 H714 0.950 . S
C721 C718 1.387 . S
C722 C723 1.387 . S
C722 H726 0.950 . S
C722 C731 1.390 . S
C723 C722 1.387 . S
C723 C725 1.387 . S
H724 C731 0.950 . S
C725 C723 1.387 . S
C725 C727 1.390 . S
C725 H729 0.950 . S
H726 C722 0.950 . S
C727 C725 1.390 . S
C727 C728 1.387 . S
C727 H730 0.950 . S
C728 C727 1.387 . S
C728 C731 1.387 . S
H729 C725 0.950 . S
H730 C727 0.950 . S
C731 C722 1.390 . S
C731 H724 0.950 . S
C731 C728 1.387 . S
C732 C733 1.387 . S
C732 H736 0.950 . S
C732 C741 1.390 . S
C733 C732 1.387 . S
C733 C735 1.387 . S
H734 C741 0.950 . S
C735 C733 1.387 . S
C735 C737 1.390 . S
C735 H739 0.950 . S
H736 C732 0.950 . S
C737 C735 1.390 . S
C737 C738 1.387 . S
C737 H740 0.950 . S
C738 C737 1.387 . S
C738 C741 1.387 . S
H739 C735 0.950 . S
H740 C737 0.950 . S
C741 C732 1.390 . S
C741 H734 0.950 . S
C741 C738 1.387 . S
C742 C743 1.387 . S
C742 H746 0.950 . S
C742 C751 1.390 . S
C743 C742 1.387 . S
C743 C745 1.387 . S
H744 C751 0.950 . S
C745 C743 1.387 . S
C745 C747 1.390 . S
C745 H749 0.950 . S
H746 C742 0.950 . S
C747 C745 1.390 . S
C747 C748 1.387 . S
C747 H750 0.950 . S
C748 C747 1.387 . S
C748 C751 1.387 . S
H749 C745 0.950 . S
H750 C747 0.950 . S
C751 C742 1.390 . S
C751 H744 0.950 . S
C751 C748 1.387 . S
C752 C753 1.387 . S
C752 H756 0.950 . S
C752 C761 1.390 . S
C753 C752 1.387 . S
C753 C755 1.387 . S
H754 C761 0.950 . S
C755 C753 1.387 . S
C755 C757 1.390 . S
C755 H759 0.950 . S
H756 C752 0.950 . S
C757 C755 1.390 . S
C757 C758 1.387 . S
C757 H760 0.950 . S
C758 C757 1.387 . S
C758 C761 1.387 . S
H759 C755 0.950 . S
H760 C757 0.950 . S
C761 C752 1.390 . S
C761 H754 0.950 . S
C761 C758 1.387 . S
C762 C763 1.387 . S
C762 H766 0.950 . S
C762 C771 1.390 . S
C763 C762 1.387 . S
C763 C765 1.387 . S
H764 C771 0.950 . S
C765 C763 1.387 . S
C765 C767 1.390 . S
C765 H769 0.950 . S
H766 C762 0.950 . S
C767 C765 1.390 . S
C767 C768 1.387 . S
C767 H770 0.950 . S
C768 C767 1.387 . S
C768 C771 1.387 . S
H769 C765 0.950 . S
H770 C767 0.950 . S
C771 C762 1.390 . S
C771 H764 0.950 . S
C771 C768 1.387 . S
C772 C773 1.387 . S
C772 H776 0.950 . S
C772 C781 1.390 . S
C773 C772 1.387 . S
C773 C775 1.387 . S
H774 C781 0.950 . S
C775 C773 1.387 . S
C775 C777 1.390 . S
C775 H779 0.950 . S
H776 C772 0.950 . S
C777 C775 1.390 . S
C777 C778 1.387 . S
C777 H780 0.950 . S
C778 C777 1.387 . S
C778 C781 1.387 . S
H779 C775 0.950 . S
H780 C777 0.950 . S
C781 C772 1.390 . S
C781 H774 0.950 . S
C781 C778 1.387 . S
C782 C783 1.387 . S
C782 H786 0.950 . S
C782 C791 1.390 . S
C783 C782 1.387 . S
C783 C785 1.387 . S
H784 C791 0.950 . S
C785 C783 1.387 . S
C785 C787 1.390 . S
C785 H789 0.950 . S
H786 C782 0.950 . S
C787 C785 1.390 . S
C787 C788 1.387 . S
C787 H790 0.950 . S
C788 C787 1.387 . S
C788 C791 1.387 . S
H789 C785 0.950 . S
H790 C787 0.950 . S
C791 C782 1.390 . S
C791 H784 0.950 . S
C791 C788 1.387 . S
C792 C793 1.387 . S
C792 H796 0.950 . S
C792 C801 1.390 . S
C793 C792 1.387 . S
C793 C795 1.387 . S
H794 C801 0.950 . S
C795 C793 1.387 . S
C795 C797 1.390 . S
C795 H799 0.950 . S
H796 C792 0.950 . S
C797 C795 1.390 . S
C797 C798 1.387 . S
C797 H800 0.950 . S
C798 C797 1.387 . S
C798 C801 1.387 . S
H799 C795 0.950 . S
H800 C797 0.950 . S
C801 C792 1.390 . S
C801 H794 0.950 . S
C801 C798 1.387 . S
C802 C803 1.387 . S
C802 H806 0.950 . S
C802 C811 1.390 . S
C803 C802 1.387 . S
C803 C805 1.387 . S
H804 C811 0.950 . S
C805 C803 1.387 . S
C805 C807 1.390 . S
C805 H809 0.950 . S
H806 C802 0.950 . S
C807 C805 1.390 . S
C807 C808 1.387 . S
C807 H810 0.950 . S
C808 C807 1.387 . S
C808 C811 1.387 . S
H809 C805 0.950 . S
H810 C807 0.950 . S
C811 C802 1.390 . S
C811 H804 0.950 . S
C811 C808 1.387 . S
C812 C813 1.387 . S
C812 H816 0.950 . S
C812 C821 1.390 . S
C813 C812 1.387 . S
C813 C815 1.387 . S
H814 C821 0.950 . S
C815 C813 1.387 . S
C815 C817 1.390 . S
C815 H819 0.950 . S
H816 C812 0.950 . S
C817 C815 1.390 . S
C817 C818 1.387 . S
C817 H820 0.950 . S
C818 C817 1.387 . S
C818 C821 1.387 . S
H819 C815 0.950 . S
H820 C817 0.950 . S
C821 C812 1.390 . S
C821 H814 0.950 . S
C821 C818 1.387 . S
C822 C823 1.387 . S
C822 H826 0.950 . S
C822 C831 1.390 . S
C823 C822 1.387 . S
C823 C825 1.387 . S
H824 C831 0.950 . S
C825 C823 1.387 . S
C825 C827 1.390 . S
C825 H829 0.950 . S
H826 C822 0.950 . S
C827 C825 1.390 . S
C827 C828 1.387 . S
C827 H830 0.950 . S
C828 C827 1.387 . S
C828 C831 1.387 . S
H829 C825 0.950 . S
H830 C827 0.950 . S
C831 C822 1.390 . S
C831 H824 0.950 . S
C831 C828 1.387 . S
C832 C833 1.387 . S
C832 H836 0.950 . S
C832 C841 1.390 . S
C833 C832 1.387 . S
C833 C835 1.387 . S
H834 C841 0.950 . S
C835 C833 1.387 . S
C835 C837 1.390 . S
C835 H839 0.950 . S
H836 C832 0.950 . S
C837 C835 1.390 . S
C837 C838 1.387 . S
C837 H840 0.950 . S
C838 C837 1.387 . S
C838 C841 1.387 . S
H839 C835 0.950 . S
H840 C837 0.950 . S
C841 C832 1.390 . S
C841 H834 0.950 . S
C841 C838 1.387 . S
C842 C843 1.387 . S
C842 H846 0.950 . S
C842 C851 1.390 . S
C843 C842 1.387 . S
C843 C845 1.387 . S
H844 C851 0.950 . S
C845 C843 1.387 . S
C845 C847 1.390 . S
C845 H849 0.950 . S
H846 C842 0.950 . S
C847 C845 1.390 . S
C847 C848 1.387 . S
C847 H850 0.950 . S
C848 C847 1.387 . S
C848 C851 1.387 . S
H849 C845 0.950 . S
H850 C847 0.950 . S
C851 C842 1.390 . S
C851 H844 0.950 . S
C851 C848 1.387 . S
C852 C853 1.387 . S
C852 H856 0.950 . S
C852 C861 1.390 . S
C853 C852 1.387 . S
C853 C855 1.387 . S
H854 C861 0.950 . S
C855 C853 1.387 . S
C855 C857 1.390 . S
C855 H859 0.950 . S
H856 C852 0.950 . S
C857 C855 1.390 . S
C857 C858 1.387 . S
C857 H860 0.950 . S
C858 C857 1.387 . S
C858 C861 1.387 . S
H859 C855 0.950 . S
H860 C857 0.950 . S
C861 C852 1.390 . S
C861 H854 0.950 . S
C861 C858 1.387 . S
C862 C863 1.387 . S
C862 H866 0.950 . S
C862 C871 1.390 . S
C863 C862 1.387 . S
C863 C865 1.387 . S
H864 C871 0.950 . S
C865 C863 1.387 . S
C865 C867 1.390 . S
C865 H869 0.950 . S
H866 C862 0.950 . S
C867 C865 1.390 . S
C867 C868 1.387 . S
C867 H870 0.950 . S
C868 C867 1.387 . S
C868 C871 1.387 . S
H869 C865 0.950 . S
H870 C867 0.950 . S
C871 C862 1.390 . S
C871 H864 0.950 . S
C871 C868 1.387 . S
C872 C873 1.387 . S
C872 H876 0.950 . S
C872 C881 1.390 . S
C873 C872 1.387 . S
C873 C875 1.387 . S
H874 C881 0.950 . S
C875 C873 1.387 . S
C875 C877 1.390 . S
C875 H879 0.950 . S
H876 C872 0.950 . S
C877 C875 1.390 . S
C877 C878 1.387 . S
C877 H880 0.950 . S
C878 C877 1.387 . S
C878 C881 1.387 . S
H879 C875 0.950 . S
H880 C877 0.950 . S
C881 C872 1.390 . S
C881 H874 0.950 . S
C881 C878 1.387 . S
C343 C124 1.533 . S
C348 C168 1.514 . S
C353 C130 1.477 . S
C358 C188 1.454 . S
C363 C115 1.502 . S
C368 C211 1.498 . S
C373 C106 1.462 . S
C378 C191 1.459 . S
C388 C208 1.464 . S
C383 C85 1.475 . S
C393 C97 1.502 . S
C398 C171 1.495 . S
C408 C178 1.527 . S
C403 C103 1.545 . S
C418 C198 1.443 . S
C413 C88 1.464 . S
C423 C94 1.500 . S
C428 C203 1.495 . S
C433 C121 1.462 . S
C438 C183 1.458 . S
C443 C133 1.463 . S
C448 C218 1.450 . S
C458 C163 1.509 . S
C453 C112 1.515 . S
C468 C228 1.514 . S
C463 C16 1.533 . S
C473 C22 1.478 . S
C478 C248 1.455 . S
C483 C7 1.501 . S
C488 C271 1.497 . S
C493 C160 1.463 . S
C498 C251 1.460 . S
C503 C139 1.475 . S
C508 C268 1.462 . S
C513 C151 1.502 . S
C518 C231 1.495 . S
C523 C157 1.544 . S
C528 C238 1.528 . S
C533 C142 1.465 . S
C538 C258 1.444 . S
C548 C263 1.495 . S
C543 C148 1.501 . S
C553 C13 1.463 . S
C558 C243 1.459 . S
C568 C278 1.450 . S
C563 C25 1.462 . S
C573 C4 1.515 . S
C578 C223 1.509 . S
C588 C288 1.512 . S
C583 C70 1.532 . S
C593 C76 1.477 . S
C598 C308 1.454 . S
C608 C331 1.496 . S
C603 C61 1.501 . S
C618 C311 1.459 . S
C613 C52 1.463 . S
C628 C328 1.462 . S
C623 C31 1.475 . S
C633 C43 1.502 . S
C638 C291 1.494 . S
C643 C49 1.544 . S
C648 C298 1.528 . S
C653 C34 1.464 . S
C658 C318 1.443 . S
C668 C323 1.496 . S
C663 C40 1.502 . S
C673 C67 1.462 . S
C678 C303 1.458 . S
C683 C79 1.463 . S
C688 C338 1.450 . S
C693 C58 1.516 . S
C698 C283 1.511 . S
C703 C140 1.372 . S
C708 C181 1.343 1_565 S
C718 C201 1.521 . S
C713 C149 1.571 . S
C723 C158 1.493 . S
C728 C210 1.456 . S
C733 C59 1.585 . S
C738 C190 1.534 . S
C743 C68 1.476 . S
C748 C221 1.439 . S
C758 C170 1.342 1_545 S
C753 C77 1.371 . S
C763 C32 1.371 . S
C768 C241 1.343 . S
C773 C41 1.570 . S
C778 C261 1.521 . S
C783 C50 1.493 . S
C788 C270 1.455 . S
C793 C113 1.586 . S
C798 C250 1.537 . S
C808 C281 1.436 . S
C803 C122 1.476 . S
C813 C131 1.371 . S
C818 C230 1.341 . S
C823 C86 1.372 . S
C828 C301 1.343 . S
C833 C95 1.570 . S
C838 C321 1.521 . S
C848 C330 1.453 . S
C843 C104 1.492 . S
C853 C5 1.586 . S
C858 C310 1.537 . S
C863 C14 1.476 . S
C868 C341 1.439 . S
C873 C23 1.371 . S
C878 C290 1.342 . S
