# Generated by pormake.
# Topology anh, (6,3)-cn, num edge types: 1
# Building blocks:
#     Node 0, Type 0, BuildingBlock: PAMTOO_clean_sbu_0, # of connection points: 6
#     Node 1, Type 0, BuildingBlock: PAMTOO_clean_sbu_0, # of connection points: 6
#     Node 2, Type 0, BuildingBlock: PAMTOO_clean_sbu_0, # of connection points: 6
#     Node 3, Type 1, BuildingBlock: MIDCAF_clean_linker_0, # of connection points: 3
#     Node 4, Type 1, BuildingBlock: MIDCAF_clean_linker_0, # of connection points: 3
#     Node 5, Type 1, BuildingBlock: MIDCAF_clean_linker_0, # of connection points: 3
#     Node 6, Type 1, BuildingBlock: MIDCAF_clean_linker_0, # of connection points: 3
#     Node 7, Type 1, BuildingBlock: MIDCAF_clean_linker_0, # of connection points: 3
#     Node 8, Type 1, BuildingBlock: MIDCAF_clean_linker_0, # of connection points: 3
#     Edge 9, Type (0, 1), BuildingBlock: OJICUG_clean_linker_0, # of connection points: 2
#     Edge 10, Type (0, 1), BuildingBlock: OJICUG_clean_linker_0, # of connection points: 2
#     Edge 11, Type (0, 1), BuildingBlock: OJICUG_clean_linker_0, # of connection points: 2
#     Edge 12, Type (0, 1), BuildingBlock: OJICUG_clean_linker_0, # of connection points: 2
#     Edge 13, Type (0, 1), BuildingBlock: OJICUG_clean_linker_0, # of connection points: 2
#     Edge 14, Type (0, 1), BuildingBlock: OJICUG_clean_linker_0, # of connection points: 2
#     Edge 15, Type (0, 1), BuildingBlock: OJICUG_clean_linker_0, # of connection points: 2
#     Edge 16, Type (0, 1), BuildingBlock: OJICUG_clean_linker_0, # of connection points: 2
#     Edge 17, Type (0, 1), BuildingBlock: OJICUG_clean_linker_0, # of connection points: 2
#     Edge 18, Type (0, 1), BuildingBlock: OJICUG_clean_linker_0, # of connection points: 2
#     Edge 19, Type (0, 1), BuildingBlock: OJICUG_clean_linker_0, # of connection points: 2
#     Edge 20, Type (0, 1), BuildingBlock: OJICUG_clean_linker_0, # of connection points: 2
#     Edge 21, Type (0, 1), BuildingBlock: OJICUG_clean_linker_0, # of connection points: 2
#     Edge 22, Type (0, 1), BuildingBlock: OJICUG_clean_linker_0, # of connection points: 2
#     Edge 23, Type (0, 1), BuildingBlock: OJICUG_clean_linker_0, # of connection points: 2
#     Edge 24, Type (0, 1), BuildingBlock: OJICUG_clean_linker_0, # of connection points: 2
#     Edge 25, Type (0, 1), BuildingBlock: OJICUG_clean_linker_0, # of connection points: 2
#     Edge 26, Type (0, 1), BuildingBlock: OJICUG_clean_linker_0, # of connection points: 2
# Relax obj value: 0.214
# Max RMSD: 0.209
# Mean RMSD: 0.165
data_MOF--net-anh--node1-PAMTOO_clean_sbu_0--node2-MIDCAF_clean_linker_0--edge1-OJICUG_clean_linker_0
_symmetry_space_group_name_H-M    P1
_symmetry_Int_Tables_number       1
_symmetry_cell_setting            triclinic
loop_
_symmetry_equiv_pos_as_xyz
'x, y, z'
_cell_length_a     28.276856
_cell_length_b     27.514535
_cell_length_c     52.344521
_cell_angle_alpha  90.722148
_cell_angle_beta   94.217658
_cell_angle_gamma 101.46748
loop_
_atom_site_label
_atom_site_type_symbol
_atom_site_fract_x
_atom_site_fract_y
_atom_site_fract_z
_atom_type_partial_charge
Dy0 Dy 0.0894 0.60211 0.14408 0.0
Dy1 Dy 1.06075 0.48037 0.13785 0.0
C2 C 1.07295 0.54863 0.08976 0.0
O3 O 1.00919 0.58516 0.14979 0.0
O4 O 0.98882 0.50466 0.13401 0.0
O5 O 0.11894 0.67189 0.1274 0.0
O6 O 0.09346 0.67064 0.16551 0.0
O7 O 1.05108 0.50037 0.17819 0.0
O8 O 0.10876 0.57142 0.18163 0.0
O9 O 0.14242 0.49577 0.1448 0.0
O10 O 0.16083 0.57989 0.13843 0.0
O11 O 1.0661 0.40776 0.15132 0.0
O12 O 1.02095 0.415 0.11681 0.0
C13 C 0.97626 0.54541 0.14233 0.0
O14 O 1.06096 0.58341 0.1037 0.0
O15 O 0.08369 0.5087 0.10009 0.0
C16 C 0.16359 0.72979 0.15762 0.0
C17 C 0.25569 0.78858 0.17194 0.0
C18 C 0.22537 0.80324 0.1522 0.0
C19 C 0.17973 0.7741 0.14515 0.0
C20 C 0.19348 0.7151 0.17741 0.0
C21 C 0.23891 0.74437 0.18462 0.0
C22 C 0.1175 0.69728 0.14842 0.0
C23 C 0.08155 0.53411 0.1922 0.0
C24 C 0.1744 0.53709 0.14197 0.0
C25 C 0.99147 0.35125 0.14443 0.0
C26 C 0.90947 0.28906 0.1624 0.0
C27 C 0.93435 0.3309 0.177 0.0
C28 C 0.97466 0.36183 0.16804 0.0
C29 C 0.96721 0.30942 0.12986 0.0
C30 C 0.92652 0.27858 0.13874 0.0
C31 C 1.03248 0.38519 0.13434 0.0
H32 H 0.2373 0.83663 0.14177 0.0
H33 H 0.15742 0.78563 0.12957 0.0
H34 H 0.18202 0.68066 0.1871 0.0
H35 H 0.26082 0.73229 0.20018 0.0
H36 H 0.92289 0.33971 0.1955 0.0
H37 H 0.99252 0.39423 0.17953 0.0
H38 H 0.97932 0.30101 0.11145 0.0
H39 H 0.90794 0.24709 0.12683 0.0
Dy40 Dy 0.56695 0.02188 0.52538 0.0
Dy41 Dy 0.68636 0.05082 0.5305 0.0
C42 C 0.62642 0.03476 0.579 0.0
O43 O 0.58367 0.10292 0.51767 0.0
O44 O 0.66224 0.12309 0.53521 0.0
O45 O 0.50159 0.98906 0.54271 0.0
O46 O 0.4975 0.0232 0.50569 0.0
O47 O 0.66182 0.06274 0.48998 0.0
O48 O 0.5912 0.00494 0.48738 0.0
O49 O 0.67075 0.96836 0.52428 0.0
O50 O 0.58927 0.94879 0.53048 0.0
O51 O 0.75554 0.04734 0.5166 0.0
O52 O 0.75198 0.089 0.55165 0.0
C53 C 0.62219 0.13601 0.52587 0.0
O54 O 0.59145 0.04929 0.56527 0.0
O55 O 0.66307 0.02296 0.56823 0.0
C56 C 0.44012 0.95071 0.51247 0.0
C57 C 0.378 0.8616 0.49539 0.0
C58 C 0.36646 0.88936 0.51592 0.0
C59 C 0.3973 0.93375 0.52434 0.0
C60 C 0.4519 0.92287 0.49208 0.0
C61 C 0.42091 0.87883 0.4835 0.0
C62 C 0.47387 0.9955 0.52253 0.0
C63 C 0.62649 0.03323 0.47639 0.0
C64 C 0.63075 0.93572 0.52715 0.0
C65 C 0.81126 0.12279 0.52435 0.0
C66 C 0.87035 0.20929 0.5074 0.0
C67 C 0.82709 0.18729 0.49314 0.0
C68 C 0.79768 0.14469 0.50163 0.0
C69 C 0.85437 0.14429 0.53861 0.0
C70 C 0.8837 0.18725 0.53023 0.0
C71 C 0.77922 0.07938 0.53395 0.0
H72 H 0.33344 0.87694 0.52528 0.0
H73 H 0.38802 0.95457 0.54029 0.0
H74 H 0.48532 0.93486 0.48299 0.0
H75 H 0.43092 0.85776 0.46787 0.0
H76 H 0.81607 0.20271 0.47526 0.0
H77 H 0.76419 0.12898 0.49047 0.0
H78 H 0.86501 0.1282 0.55639 0.0
H79 H 0.91642 0.20359 0.54185 0.0
Dy80 Dy 0.61928 0.51855 0.84263 0.0
Dy81 Dy 0.50275 0.50388 0.83593 0.0
C82 C 0.56523 0.51191 0.78899 0.0
O83 O 0.60582 0.59568 0.83636 0.0
O84 O 0.52732 0.58375 0.84714 0.0
O85 O 0.68789 0.55016 0.82845 0.0
O86 O 0.68501 0.50314 0.86158 0.0
O87 O 0.52173 0.48783 0.8768 0.0
O88 O 0.59687 0.53815 0.88056 0.0
O89 O 0.51543 0.42683 0.83038 0.0
O90 O 0.59233 0.43817 0.84993 0.0
O91 O 0.43344 0.5064 0.84993 0.0
O92 O 0.43807 0.48701 0.81005 0.0
C93 C 0.56781 0.61331 0.84216 0.0
O94 O 0.59406 0.48991 0.80314 0.0
O95 O 0.53424 0.53312 0.79995 0.0
C96 C 0.74038 0.49303 0.83129 0.0
C97 C 0.80154 0.43883 0.80842 0.0
C98 C 0.76861 0.46011 0.79311 0.0
C99 C 0.73805 0.48675 0.80444 0.0
C100 C 0.77125 0.46941 0.84656 0.0
C101 C 0.80136 0.44237 0.83526 0.0
C102 C 0.71107 0.52398 0.84361 0.0
C103 C 0.55879 0.5136 0.89099 0.0
C104 C 0.55222 0.40891 0.8404 0.0
C105 C 0.39006 0.54543 0.81868 0.0
C106 C 0.35374 0.62956 0.80252 0.0
C107 C 0.3724 0.62643 0.82798 0.0
C108 C 0.39029 0.58502 0.83594 0.0
C109 C 0.37242 0.54879 0.79308 0.0
C110 C 0.35454 0.59048 0.78506 0.0
C111 C 0.41236 0.50323 0.82674 0.0
H112 H 0.76819 0.45815 0.77241 0.0
H113 H 0.71381 0.50373 0.79212 0.0
H114 H 0.7733 0.47329 0.86726 0.0
H115 H 0.82702 0.4273 0.84762 0.0
H116 H 0.37128 0.65499 0.84222 0.0
H117 H 0.40409 0.58415 0.85575 0.0
H118 H 0.37252 0.51919 0.77925 0.0
H119 H 0.34048 0.59166 0.76532 0.0
C120 C 0.4639 0.89331 0.23015 0.0
C121 C 0.44325 0.90629 0.20665 0.0
C122 C 0.46623 0.94899 0.19459 0.0
C123 C 0.50867 0.97865 0.2061 0.0
H124 H 0.65809 0.06005 0.1936 0.0
H125 H 0.72077 0.11502 0.17192 0.0
H126 H 0.76325 0.20265 0.24186 0.0
H127 H 0.70104 0.14807 0.26354 0.0
H128 H 0.66271 0.10417 0.31644 0.0
H129 H 0.66685 0.10459 0.3631 0.0
H130 H 0.57813 0.95695 0.36037 0.0
H131 H 0.57244 0.95738 0.31386 0.0
H132 H 0.52005 0.91275 0.26024 0.0
H133 H 0.44675 0.86085 0.23997 0.0
H134 H 0.45113 0.95963 0.17638 0.0
H135 H 0.52512 0.01188 0.19665 0.0
N136 N 0.60172 0.03295 0.231 0.0
N137 N 0.64354 0.06408 0.27012 0.0
N138 N 0.57567 0.99958 0.26978 0.0
C139 C 0.63884 0.06485 0.2441 0.0
C140 C 0.61218 0.03142 0.28308 0.0
C141 C 0.56996 1.00022 0.24383 0.0
C142 C 0.67464 0.09954 0.23033 0.0
C143 C 0.68053 0.09128 0.20428 0.0
C144 C 0.71656 0.12252 0.19191 0.0
C145 C 0.74684 0.16304 0.20522 0.0
C146 C 0.74016 0.17196 0.23105 0.0
C147 C 0.70467 0.14044 0.2435 0.0
C148 C 0.61698 0.03089 0.31142 0.0
C149 C 0.64424 0.07174 0.32582 0.0
C150 C 0.6468 0.07186 0.3526 0.0
C151 C 0.62261 0.0309 0.36558 0.0
C152 C 0.59633 0.98961 0.35109 0.0
C153 C 0.59329 0.98973 0.32436 0.0
C154 C 0.52827 0.96657 0.2301 0.0
C155 C 0.50574 0.92325 0.24181 0.0
C156 C 0.56874 0.35375 0.54336 0.0
C157 C 0.60845 0.34386 0.53103 0.0
C158 C 0.6446 0.38423 0.52484 0.0
C159 C 0.64215 0.43306 0.53202 0.0
H160 H 0.58106 0.60885 0.51777 0.0
H161 H 0.58597 0.69537 0.50496 0.0
H162 H 0.68799 0.74487 0.56999 0.0
H163 H 0.68252 0.65925 0.58279 0.0
H164 H 0.59798 0.60691 0.63255 0.0
H165 H 0.58748 0.60225 0.67837 0.0
H166 H 0.58086 0.44417 0.67438 0.0
H167 H 0.59169 0.44854 0.62875 0.0
H168 H 0.53703 0.40805 0.56164 0.0
H169 H 0.54051 0.32375 0.5487 0.0
H170 H 0.6755 0.3779 0.51518 0.0
H171 H 0.67169 0.46314 0.52831 0.0
N172 N 0.61776 0.53485 0.54817 0.0
N173 N 0.61428 0.57503 0.58783 0.0
N174 N 0.59948 0.48859 0.58495 0.0
C175 C 0.62134 0.57762 0.56245 0.0
C176 C 0.60322 0.53072 0.59921 0.0
C177 C 0.6068 0.49005 0.55963 0.0
C178 C 0.63154 0.6274 0.55121 0.0
C179 C 0.60549 0.63824 0.52883 0.0
C180 C 0.60793 0.68773 0.52169 0.0
C181 C 0.63725 0.72702 0.53653 0.0
C182 C 0.66541 0.71561 0.558 0.0
C183 C 0.66224 0.66652 0.56537 0.0
C184 C 0.59585 0.52814 0.62692 0.0
C185 C 0.59425 0.57113 0.6414 0.0
C186 C 0.58794 0.56847 0.66762 0.0
C187 C 0.58349 0.52288 0.67991 0.0
C188 C 0.58476 0.47991 0.66545 0.0
C189 C 0.59072 0.48246 0.63925 0.0
C190 C 0.60391 0.44215 0.54583 0.0
C191 C 0.5667 0.40214 0.5508 0.0
C192 C 0.99747 0.43825 0.83867 0.0
C193 C 0.99128 0.44465 0.81202 0.0
C194 C 1.02566 0.48057 0.8008 0.0
C195 C 1.05887 0.51521 0.81622 0.0
H196 H 0.09689 0.67809 0.81694 0.0
H197 H 0.15789 0.72051 0.79001 0.0
H198 H 0.26198 0.74529 0.85597 0.0
H199 H 0.20066 0.70569 0.88271 0.0
H200 H 0.08417 0.66221 0.93504 0.0
H201 H 1.07547 0.65117 0.98068 0.0
H202 H 0.11561 0.50776 0.9747 0.0
H203 H 0.12045 0.5177 0.92886 0.0
H204 H 1.0315 0.46872 0.87459 0.0
H205 H 0.97265 0.41083 0.84835 0.0
H206 H 1.02365 0.48526 0.78027 0.0
H207 H 0.08157 0.54542 0.80711 0.0
N208 N 0.10035 0.60087 0.84885 0.0
N209 N 0.12036 0.63881 0.88972 0.0
N210 N 0.0846 0.55412 0.88535 0.0
C211 C 0.11898 0.64196 0.86377 0.0
C212 C 0.10283 0.59484 0.90054 0.0
C213 C 0.08325 0.55679 0.85947 0.0
C214 C 0.14508 0.68625 0.85153 0.0
C215 C 0.13221 0.69512 0.82584 0.0
C216 C 0.16727 0.71946 0.81041 0.0
C217 C 0.21588 0.73248 0.82031 0.0
C218 C 0.2255 0.73396 0.84719 0.0
C219 C 0.19015 0.71078 0.86275 0.0
C220 C 0.10274 0.59073 0.92854 0.0
C221 C 0.09135 0.62856 0.94366 0.0
C222 C 0.0866 0.62217 0.96987 0.0
C223 C 0.09445 0.5783 0.98162 0.0
C224 C 0.10777 0.54139 0.96641 0.0
C225 C 0.11114 0.54725 0.94014 0.0
C226 C 1.05921 0.51342 0.84306 0.0
C227 C 1.03111 0.47225 0.854 0.0
C228 C 0.26308 0.65536 0.43536 0.0
C229 C 0.25411 0.67725 0.45845 0.0
C230 C 0.21366 0.65491 0.47128 0.0
C231 C 0.18168 0.61299 0.46057 0.0
H232 H 0.09662 0.46247 0.47435 0.0
H233 H 1.04357 0.39892 0.49692 0.0
H234 H 0.94579 0.36752 0.42877 0.0
H235 H 0.99851 0.43073 0.40614 0.0
H236 H 1.03518 0.4738 0.3524 0.0
H237 H 1.0269 0.47706 0.30578 0.0
H238 H 0.17485 0.55738 0.30638 0.0
H239 H 0.18257 0.55564 0.35283 0.0
H240 H 0.23814 0.59901 0.40633 0.0
H241 H 0.29462 0.67071 0.42535 0.0
H242 H 0.20554 0.67097 0.48902 0.0
H243 H 0.14983 0.59769 0.47036 0.0
N244 N 0.12072 0.52188 0.43674 0.0
N245 N 0.08191 0.48496 0.39802 0.0
N246 N 0.14886 0.55031 0.39751 0.0
C247 C 0.08547 0.48724 0.42408 0.0
C248 C 0.11365 0.51632 0.38464 0.0
C249 C 0.15252 0.55352 0.42347 0.0
C250 C 1.05191 0.45145 0.4384 0.0
C251 C 1.06357 0.44238 0.46425 0.0
C252 C 1.03341 0.40588 0.47715 0.0
C253 C 0.99073 0.37837 0.46455 0.0
C254 C 0.97831 0.3885 0.43898 0.0
C255 C 1.00871 0.42447 0.426 0.0
C256 C 0.10938 0.51484 0.35633 0.0
C257 C 1.066 0.49189 0.34254 0.0
C258 C 1.06132 0.4936 0.31581 0.0
C259 C 0.10007 0.51789 0.30234 0.0
C260 C 0.14389 0.53941 0.31616 0.0
C261 C 0.14841 0.53815 0.34282 0.0
C262 C 0.18932 0.59311 0.43673 0.0
C263 C 0.23088 0.61404 0.42454 0.0
C264 C 0.52987 0.17766 0.80497 0.0
C265 C 0.54846 0.19804 0.82924 0.0
C266 C 0.57094 0.16874 0.84634 0.0
C267 C 0.5759 0.12074 0.83891 0.0
H268 H 0.50076 0.89178 0.79678 0.0
H269 H 0.49914 0.80651 0.80954 0.0
H270 H 0.63455 0.8546 0.85511 0.0
H271 H 0.63575 0.94042 0.84215 0.0
H272 H 0.56255 0.93716 0.73198 0.0
H273 H 0.57389 0.94073 0.68597 0.0
H274 H 0.65142 0.09223 0.69617 0.0
H275 H 0.639 0.08942 0.74198 0.0
H276 H 0.52191 0.11678 0.7783 0.0
H277 H 0.51297 0.19913 0.79115 0.0
H278 H 0.58542 0.18326 0.86525 0.0
H279 H 0.59471 0.09957 0.85203 0.0
N280 N 0.56701 0.01294 0.81748 0.0
N281 N 0.58442 0.97054 0.78096 0.0
N282 N 0.58197 0.05473 0.77906 0.0
C283 C 0.57401 0.97036 0.80587 0.0
C284 C 0.58919 0.0128 0.7676 0.0
C285 C 0.57058 0.05534 0.80377 0.0
C286 C 0.5678 0.92262 0.81895 0.0
C287 C 0.52923 0.88427 0.81026 0.0
C288 C 0.52849 0.83541 0.81751 0.0
C289 C 0.56684 0.82356 0.83329 0.0
C290 C 0.60464 0.86241 0.84279 0.0
C291 C 0.60503 0.91157 0.83572 0.0
C292 C 0.59975 0.01309 0.74044 0.0
C293 C 0.58246 0.971 0.72443 0.0
C294 C 0.58875 0.97303 0.6982 0.0
C295 C 0.61351 0.01672 0.6878 0.0
C296 C 0.63242 0.05814 0.70392 0.0
C297 C 0.62512 0.05654 0.73 0.0
C298 C 0.55924 0.10177 0.81412 0.0
C299 C 0.53535 0.13042 0.79752 0.0
C300 C 0.73282 0.50569 0.14989 0.0
C301 C 0.76746 0.54761 0.14366 0.0
C302 C 0.74974 0.58953 0.13511 0.0
C303 C 0.69964 0.58848 0.13138 0.0
H304 H 0.49725 0.5997 0.15238 0.0
H305 H 0.41266 0.60131 0.15992 0.0
H306 H 0.36728 0.45735 0.1222 0.0
H307 H 0.45102 0.45589 0.11523 0.0
H308 H 0.48816 0.52227 0.05013 0.0
H309 H 0.48473 0.51788 0.00349 0.0
H310 H 0.6378 0.51756 0.00712 0.0
H311 H 0.64167 0.52308 0.05359 0.0
H312 H 0.65733 0.47076 0.14954 0.0
H313 H 0.74443 0.47271 0.15682 0.0
H314 H 0.77449 0.6224 0.1297 0.0
H315 H 0.68777 0.62013 0.12285 0.0
N316 N 0.57351 0.53748 0.13631 0.0
N317 N 0.5274 0.52574 0.09645 0.0
N318 N 0.61139 0.53489 0.09775 0.0
C319 C 0.52918 0.53057 0.12236 0.0
C320 C 0.56804 0.52799 0.08401 0.0
C321 C 0.61501 0.53945 0.12367 0.0
C322 C 0.48139 0.52711 0.13375 0.0
C323 C 0.46932 0.56765 0.14665 0.0
C324 C 0.42045 0.56889 0.15048 0.0
C325 C 0.38213 0.52956 0.14158 0.0
C326 C 0.39496 0.48819 0.12977 0.0
C327 C 0.44342 0.48719 0.12582 0.0
C328 C 0.56528 0.5234 0.05568 0.0
C329 C 0.52111 0.52115 0.04102 0.0
C330 C 0.51903 0.51835 0.01426 0.0
C331 C 0.56103 0.51767 0.00161 0.0
C332 C 0.60495 0.51895 0.01628 0.0
C333 C 0.60708 0.52188 0.04297 0.0
C334 C 0.66516 0.54593 0.13649 0.0
C335 C 0.68257 0.50484 0.14629 0.0
C336 C 0.26314 0.57881 0.13997 0.0
C337 C 0.22772 0.5355 0.14273 0.0
H338 H 0.33827 0.61125 0.13734 0.0
C339 C 0.24406 0.49066 0.14619 0.0
H340 H 0.25251 0.61423 0.13733 0.0
C341 C 0.29366 0.48901 0.14643 0.0
C342 C 0.32913 0.53213 0.1432 0.0
H343 H 0.21843 0.45645 0.14862 0.0
H344 H 0.30414 0.45358 0.14922 0.0
C345 C 0.3128 0.57717 0.14021 0.0
C346 C 0.88068 0.29168 0.48619 0.0
C347 C 0.9015 0.25462 0.49818 0.0
H348 H 0.89271 0.36009 0.46632 0.0
C349 C 0.95219 0.26042 0.50042 0.0
H350 H 0.84184 0.289 0.48466 0.0
C351 C 0.98127 0.30156 0.49026 0.0
C352 C 0.96024 0.33749 0.47747 0.0
H353 H 0.96942 0.23234 0.50925 0.0
H354 H 1.02013 0.3043 0.49154 0.0
C355 C 0.90974 0.33252 0.47581 0.0
C356 C 0.52657 0.68587 0.84496 0.0
C357 C 0.56911 0.66772 0.84199 0.0
H358 H 0.49265 0.74887 0.84494 0.0
C359 C 0.61177 0.70189 0.83785 0.0
H360 H 0.49295 0.66087 0.84824 0.0
C361 C 0.61153 0.75271 0.83604 0.0
C362 C 0.56855 0.77051 0.83814 0.0
H363 H 0.64518 0.68932 0.83551 0.0
H364 H 0.64463 0.7778 0.83202 0.0
C365 C 0.52628 0.73647 0.84298 0.0
C366 C 0.90689 0.58935 0.15033 0.0
C367 C 0.92297 0.54607 0.14327 0.0
H368 H 0.84665 0.62391 0.15642 0.0
C369 C 0.88725 0.50304 0.13709 0.0
H370 H 0.93285 0.62327 0.15537 0.0
C371 C 0.83749 0.50336 0.13771 0.0
C372 C 0.82123 0.54677 0.14445 0.0
H373 H 0.89764 0.46879 0.13159 0.0
H374 H 0.81169 0.46957 0.13224 0.0
C375 C 0.85705 0.58973 0.15084 0.0
C376 C 0.33314 0.80585 0.45992 0.0
C377 C 0.34547 0.81477 0.48623 0.0
H378 H 0.29374 0.75622 0.43063 0.0
C379 C 0.3272 0.7785 0.50357 0.0
H380 H 0.34617 0.83354 0.44619 0.0
C381 C 0.29765 0.73369 0.49466 0.0
C382 C 0.28556 0.72456 0.46825 0.0
H383 H 0.33658 0.7844 0.52397 0.0
H384 H 0.28494 0.70595 0.50841 0.0
C385 C 0.30332 0.7614 0.45103 0.0
C386 C 0.58953 0.33427 0.84906 0.0
C387 C 0.54942 0.35426 0.8401 0.0
H388 H 0.62066 0.26947 0.85278 0.0
C389 C 0.5074 0.32158 0.82988 0.0
H390 H 0.62251 0.3582 0.85714 0.0
C391 C 0.50627 0.27059 0.8276 0.0
C392 C 0.54714 0.25087 0.83544 0.0
H393 H 0.47563 0.33543 0.82303 0.0
H394 H 0.47363 0.24667 0.81912 0.0
C395 C 0.58839 0.28322 0.84677 0.0
C396 C 0.67722 0.86662 0.53058 0.0
C397 C 0.63264 0.88201 0.52738 0.0
H398 H 0.71367 0.8057 0.53577 0.0
C399 C 0.58977 0.84553 0.52523 0.0
H400 H 0.71097 0.89358 0.53225 0.0
C401 C 0.59142 0.79508 0.52696 0.0
C402 C 0.63591 0.77989 0.5312 0.0
H403 H 0.55479 0.85593 0.52257 0.0
H404 H 0.5577 0.7681 0.52603 0.0
C405 C 0.67881 0.81623 0.53264 0.0
C406 C 0.86197 0.38378 0.80764 0.0
C407 C 0.84316 0.42351 0.79735 0.0
H408 H 0.92605 0.3565 0.8184 0.0
C409 C 0.87218 0.45755 0.78244 0.0
H410 H 0.83976 0.35591 0.81845 0.0
C411 C 0.92172 0.45874 0.78297 0.0
C412 C 0.94259 0.42586 0.79849 0.0
H413 H 0.85847 0.48803 0.77374 0.0
H414 H 0.94374 0.4904 0.77464 0.0
C415 C 0.91152 0.3844 0.80772 0.0
C416 C 0.31263 0.87117 0.17968 0.0
C417 C 0.30465 0.819 0.17926 0.0
H418 H 0.36283 0.93961 0.18856 0.0
C419 C 0.34371 0.79604 0.18638 0.0
H420 H 0.28334 0.89015 0.17461 0.0
C421 C 0.38903 0.82442 0.19462 0.0
C422 C 0.39655 0.87642 0.19563 0.0
H423 H 0.3393 0.75603 0.1857 0.0
H424 H 0.4182 0.80567 0.20037 0.0
C425 C 0.35816 0.89956 0.18767 0.0
C426 C 0.66084 0.2266 0.53252 0.0
C427 C 0.61982 0.18962 0.5252 0.0
H428 H 0.68956 0.3041 0.53991 0.0
C429 C 0.57606 0.20441 0.51779 0.0
H430 H 0.69526 0.21673 0.53819 0.0
C431 C 0.57291 0.25454 0.51865 0.0
C432 C 0.61346 0.29137 0.52682 0.0
H433 H 0.54377 0.17717 0.51183 0.0
H434 H 0.53838 0.26443 0.51329 0.0
C435 C 0.65772 0.27684 0.53326 0.0
C436 C 0.33916 0.71608 0.80824 0.0
C437 C 0.32604 0.66892 0.79604 0.0
H438 H 0.31349 0.7769 0.82438 0.0
C439 C 0.28009 0.65556 0.78292 0.0
H440 H 0.3752 0.72865 0.81744 0.0
C441 C 0.24493 0.68335 0.7867 0.0
C442 C 0.25505 0.72434 0.8041 0.0
H443 H 0.26886 0.62015 0.77275 0.0
H444 H 0.20832 0.66753 0.77925 0.0
C445 C 0.30381 0.74392 0.81209 0.0
C446 C 0.85768 0.20482 0.16837 0.0
C447 C 0.86604 0.25669 0.17196 0.0
H448 H 0.81338 0.13458 0.17606 0.0
C449 C 0.83316 0.27744 0.18538 0.0
H450 H 0.88249 0.18748 0.1584 0.0
C451 C 0.79397 0.24708 0.19571 0.0
C452 C 0.78635 0.19528 0.19263 0.0
H453 H 0.83771 0.31725 0.18799 0.0
H454 H 0.76962 0.26414 0.2062 0.0
C455 C 0.81813 0.17446 0.17851 0.0
C456 C 0.09213 0.60395 0.05307 0.0
C457 C 1.07697 0.55605 0.06215 0.0
H458 H 0.11185 0.64844 0.02099 0.0
C459 C 1.06716 0.51549 0.04479 0.0
H460 H 0.10058 0.6358 0.06619 0.0
C461 C 1.07199 0.52277 0.01867 0.0
C462 C 0.08819 0.57068 0.00944 0.0
H463 H 1.05508 0.47821 0.05136 0.0
H464 H 1.06253 0.49071 0.00576 0.0
C465 C 0.09831 0.61115 0.02708 0.0
C466 C 0.58371 0.01009 0.43314 0.0
C467 C 0.62582 0.03248 0.44813 0.0
H468 H 0.5492 0.99329 0.39553 0.0
C469 C 0.66702 0.05439 0.43585 0.0
H470 H 0.55119 0.99327 0.44201 0.0
C471 C 0.66617 0.05366 0.40911 0.0
C472 C 0.62393 0.03144 0.39406 0.0
H473 H 0.70014 0.07173 0.44688 0.0
H474 H 0.69883 0.07001 0.40027 0.0
C475 C 0.58268 0.00984 0.40645 0.0
C476 C 0.60132 0.48969 0.74941 0.0
C477 C 0.56924 0.51442 0.76106 0.0
H478 H 0.63115 0.47333 0.71468 0.0
C479 C 0.54174 0.54202 0.74583 0.0
H480 H 0.62317 0.46825 0.76062 0.0
C481 C 0.54645 0.54498 0.71947 0.0
C482 C 0.57844 0.52009 0.70785 0.0
H483 H 0.51674 0.56151 0.75427 0.0
H484 H 0.52465 0.56626 0.70813 0.0
C485 C 0.60577 0.49239 0.72308 0.0
C486 C 0.57817 0.0207 0.61715 0.0
C487 C 0.62351 0.03019 0.60687 0.0
H488 H 0.53972 0.00785 0.65102 0.0
C489 C 0.66571 0.03444 0.62338 0.0
H490 H 0.54508 0.01687 0.60481 0.0
C491 C 0.66257 0.03014 0.64981 0.0
C492 C 0.61719 0.02019 0.65996 0.0
H493 H 0.70108 0.04183 0.6159 0.0
H494 H 0.69547 0.03423 0.66232 0.0
C495 C 0.57504 0.01519 0.64346 0.0
C496 C 0.52046 0.48589 0.93152 0.0
C497 C 0.55834 0.51494 0.91921 0.0
H498 H 0.49186 0.46341 0.96728 0.0
C499 C 0.59649 0.54529 0.93417 0.0
H500 H 0.49058 0.46206 0.92054 0.0
C501 C 0.59703 0.54631 0.96081 0.0
C502 C 0.55956 0.51686 0.9732 0.0
H503 H 0.62609 0.56847 0.92534 0.0
H504 H 0.62672 0.57058 0.97172 0.0
C505 C 0.52108 0.48683 0.95828 0.0
C506 C 0.1115 0.56979 0.23585 0.0
C507 C 0.08559 0.52995 0.22031 0.0
H508 H 0.13527 0.5977 0.27384 0.0
C509 C 1.06395 0.48612 0.23189 0.0
H510 H 0.12824 0.60423 0.22753 0.0
C511 C 1.06862 0.48207 0.2585 0.0
C512 C 0.09471 0.52191 0.27406 0.0
H513 H 1.04393 0.45466 0.2204 0.0
H514 H 1.05241 0.44746 0.26681 0.0
C515 C 0.11579 0.56591 0.26242 0.0
loop_
_geom_bond_atom_site_label_1
_geom_bond_atom_site_label_2
_geom_bond_distance
_geom_bond_site_symmetry_2
_ccdc_geom_bond_type
Dy0 O3 2.307 1_455 S
Dy0 O5 2.395 . S
Dy0 O6 2.379 . S
Dy0 O8 2.339 . S
Dy0 O10 2.298 . S
Dy0 O14 2.275 . S
Dy0 C22 2.738 . S
Dy1 O4 2.298 . S
Dy1 O7 2.275 1_655 S
Dy1 O9 2.307 1_655 S
Dy1 O11 2.395 . S
Dy1 O12 2.379 . S
Dy1 O15 2.339 . S
Dy1 C31 2.738 . S
C2 O14 1.254 . S
C2 O15 1.257 1_455 S
O3 Dy0 2.307 1_655 S
O3 C13 1.266 . S
O4 Dy1 2.298 . S
O4 C13 1.236 . S
O5 Dy0 2.395 . S
O5 C22 1.255 . S
O6 Dy0 2.379 . S
O6 C22 1.249 . S
O7 Dy1 2.275 1_455 S
O7 C23 1.254 . S
O8 Dy0 2.339 . S
O8 C23 1.257 . S
O9 Dy1 2.307 1_455 S
O9 C24 1.266 . S
O10 Dy0 2.298 . S
O10 C24 1.236 . S
O11 Dy1 2.395 . S
O11 C31 1.255 . S
O12 Dy1 2.379 . S
O12 C31 1.249 . S
C13 O3 1.266 . S
C13 O4 1.236 . S
O14 Dy0 2.275 . S
O14 C2 1.254 . S
O15 Dy1 2.339 . S
O15 C2 1.257 1_655 S
C16 C19 1.344 . S
C16 C20 1.328 . S
C16 C22 1.516 . S
C17 C18 1.304 . S
C17 C21 1.323 . S
C18 C17 1.304 . S
C18 C19 1.371 . S
C18 H32 0.930 . S
C19 C16 1.344 . S
C19 C18 1.371 . S
C19 H33 0.931 . S
C20 C16 1.328 . S
C20 C21 1.433 . S
C20 H34 0.931 . S
C21 C17 1.323 . S
C21 C20 1.433 . S
C21 H35 0.933 . S
C22 Dy0 2.738 . S
C22 O5 1.255 . S
C22 O6 1.249 . S
C22 C16 1.516 . S
C23 O7 1.254 . S
C23 O8 1.257 . S
C24 O9 1.266 . S
C24 O10 1.236 . S
C25 C28 1.344 . S
C25 C29 1.328 . S
C25 C31 1.516 . S
C26 C27 1.304 . S
C26 C30 1.323 . S
C27 C26 1.304 . S
C27 C28 1.371 . S
C27 H36 0.930 . S
C28 C25 1.344 . S
C28 C27 1.371 . S
C28 H37 0.931 . S
C29 C25 1.328 . S
C29 C30 1.433 . S
C29 H38 0.931 . S
C30 C26 1.323 . S
C30 C29 1.433 . S
C30 H39 0.933 . S
C31 Dy1 2.738 . S
C31 O11 1.255 . S
C31 O12 1.249 . S
C31 C25 1.516 . S
H32 C18 0.930 . S
H33 C19 0.931 . S
H34 C20 0.931 . S
H35 C21 0.933 . S
H36 C27 0.930 . S
H37 C28 0.931 . S
H38 C29 0.931 . S
H39 C30 0.933 . S
Dy40 O43 2.307 1_565 S
Dy40 O45 2.395 . S
Dy40 O46 2.379 . S
Dy40 O48 2.339 1_565 S
Dy40 O50 2.298 . S
Dy40 O54 2.275 1_565 S
Dy40 C62 2.738 . S
Dy41 O44 2.298 . S
Dy41 O47 2.275 . S
Dy41 O49 2.307 1_545 S
Dy41 O51 2.395 . S
Dy41 O52 2.379 . S
Dy41 O55 2.339 . S
Dy41 C71 2.738 . S
C42 O54 1.254 . S
C42 O55 1.257 . S
O43 Dy40 2.307 1_545 S
O43 C53 1.266 . S
O44 Dy41 2.298 . S
O44 C53 1.236 . S
O45 Dy40 2.395 . S
O45 C62 1.255 . S
O46 Dy40 2.379 . S
O46 C62 1.249 . S
O47 Dy41 2.275 . S
O47 C63 1.254 . S
O48 Dy40 2.339 1_545 S
O48 C63 1.257 . S
O49 Dy41 2.307 1_565 S
O49 C64 1.266 . S
O50 Dy40 2.298 . S
O50 C64 1.236 . S
O51 Dy41 2.395 . S
O51 C71 1.255 . S
O52 Dy41 2.379 . S
O52 C71 1.249 . S
C53 O43 1.266 . S
C53 O44 1.236 . S
O54 Dy40 2.275 1_545 S
O54 C42 1.254 . S
O55 Dy41 2.339 . S
O55 C42 1.257 . S
C56 C59 1.344 . S
C56 C60 1.328 . S
C56 C62 1.516 . S
C57 C58 1.304 . S
C57 C61 1.323 . S
C58 C57 1.304 . S
C58 C59 1.371 . S
C58 H72 0.930 . S
C59 C56 1.344 . S
C59 C58 1.371 . S
C59 H73 0.931 . S
C60 C56 1.328 . S
C60 C61 1.433 . S
C60 H74 0.931 . S
C61 C57 1.323 . S
C61 C60 1.433 . S
C61 H75 0.933 . S
C62 Dy40 2.738 . S
C62 O45 1.255 . S
C62 O46 1.249 . S
C62 C56 1.516 . S
C63 O47 1.254 . S
C63 O48 1.257 . S
C64 O49 1.266 . S
C64 O50 1.236 . S
C65 C68 1.344 . S
C65 C69 1.328 . S
C65 C71 1.516 . S
C66 C67 1.304 . S
C66 C70 1.323 . S
C67 C66 1.304 . S
C67 C68 1.371 . S
C67 H76 0.930 . S
C68 C65 1.344 . S
C68 C67 1.371 . S
C68 H77 0.931 . S
C69 C65 1.328 . S
C69 C70 1.433 . S
C69 H78 0.931 . S
C70 C66 1.323 . S
C70 C69 1.433 . S
C70 H79 0.933 . S
C71 Dy41 2.738 . S
C71 O51 1.255 . S
C71 O52 1.249 . S
C71 C65 1.516 . S
H72 C58 0.930 . S
H73 C59 0.931 . S
H74 C60 0.931 . S
H75 C61 0.933 . S
H76 C67 0.930 . S
H77 C68 0.931 . S
H78 C69 0.931 . S
H79 C70 0.933 . S
Dy80 O83 2.307 . S
Dy80 O85 2.395 . S
Dy80 O86 2.379 . S
Dy80 O88 2.339 . S
Dy80 O90 2.298 . S
Dy80 O94 2.275 . S
Dy80 C102 2.738 . S
Dy81 O84 2.298 . S
Dy81 O87 2.275 . S
Dy81 O89 2.307 . S
Dy81 O91 2.395 . S
Dy81 O92 2.379 . S
Dy81 O95 2.339 . S
Dy81 C111 2.738 . S
C82 O94 1.254 . S
C82 O95 1.257 . S
O83 Dy80 2.307 . S
O83 C93 1.266 . S
O84 Dy81 2.298 . S
O84 C93 1.236 . S
O85 Dy80 2.395 . S
O85 C102 1.255 . S
O86 Dy80 2.379 . S
O86 C102 1.249 . S
O87 Dy81 2.275 . S
O87 C103 1.254 . S
O88 Dy80 2.339 . S
O88 C103 1.257 . S
O89 Dy81 2.307 . S
O89 C104 1.266 . S
O90 Dy80 2.298 . S
O90 C104 1.236 . S
O91 Dy81 2.395 . S
O91 C111 1.255 . S
O92 Dy81 2.379 . S
O92 C111 1.249 . S
C93 O83 1.266 . S
C93 O84 1.236 . S
O94 Dy80 2.275 . S
O94 C82 1.254 . S
O95 Dy81 2.339 . S
O95 C82 1.257 . S
C96 C99 1.344 . S
C96 C100 1.328 . S
C96 C102 1.516 . S
C97 C98 1.304 . S
C97 C101 1.323 . S
C98 C97 1.304 . S
C98 C99 1.371 . S
C98 H112 0.930 . S
C99 C96 1.344 . S
C99 C98 1.371 . S
C99 H113 0.931 . S
C100 C96 1.328 . S
C100 C101 1.433 . S
C100 H114 0.931 . S
C101 C97 1.323 . S
C101 C100 1.433 . S
C101 H115 0.933 . S
C102 Dy80 2.738 . S
C102 O85 1.255 . S
C102 O86 1.249 . S
C102 C96 1.516 . S
C103 O87 1.254 . S
C103 O88 1.257 . S
C104 O89 1.266 . S
C104 O90 1.236 . S
C105 C108 1.344 . S
C105 C109 1.328 . S
C105 C111 1.516 . S
C106 C107 1.304 . S
C106 C110 1.323 . S
C107 C106 1.304 . S
C107 C108 1.371 . S
C107 H116 0.930 . S
C108 C105 1.344 . S
C108 C107 1.371 . S
C108 H117 0.931 . S
C109 C105 1.328 . S
C109 C110 1.433 . S
C109 H118 0.931 . S
C110 C106 1.323 . S
C110 C109 1.433 . S
C110 H119 0.933 . S
C111 Dy81 2.738 . S
C111 O91 1.255 . S
C111 O92 1.249 . S
C111 C105 1.516 . S
H112 C98 0.930 . S
H113 C99 0.931 . S
H114 C100 0.931 . S
H115 C101 0.933 . S
H116 C107 0.930 . S
H117 C108 0.931 . S
H118 C109 0.931 . S
H119 C110 0.933 . S
C120 C121 1.384 . S
C120 H133 0.947 . S
C120 C155 1.382 . S
C121 C120 1.384 . S
C121 C122 1.378 . S
C122 C121 1.378 . S
C122 C123 1.378 . S
C122 H134 0.952 . S
C123 C122 1.378 . S
C123 H135 0.950 . S
C123 C154 1.383 . S
H124 C143 0.947 . S
H125 C144 0.946 . S
H126 C146 0.953 . S
H127 C147 0.945 . S
H128 C149 0.952 . S
H129 C150 0.949 . S
H130 C152 0.950 1_565 S
H131 C153 0.948 1_565 S
H132 C155 0.951 . S
H133 C120 0.947 . S
H134 C122 0.952 . S
H135 C123 0.950 . S
N136 C139 1.382 . S
N136 C141 1.363 . S
N137 C139 1.371 . S
N137 C140 1.372 . S
N138 C140 1.361 . S
N138 C141 1.377 . S
C139 N136 1.382 . S
C139 N137 1.371 . S
C139 C142 1.480 . S
C140 N137 1.372 . S
C140 N138 1.361 . S
C140 C148 1.457 . S
C141 N136 1.363 . S
C141 N138 1.377 . S
C141 C154 1.479 1_545 S
C142 C139 1.480 . S
C142 C143 1.383 . S
C142 C147 1.385 . S
C143 H124 0.947 . S
C143 C142 1.383 . S
C143 C144 1.388 . S
C144 H125 0.946 . S
C144 C143 1.388 . S
C144 C145 1.384 . S
C145 C144 1.384 . S
C145 C146 1.377 . S
C146 H126 0.953 . S
C146 C145 1.377 . S
C146 C147 1.369 . S
C147 H127 0.945 . S
C147 C142 1.385 . S
C147 C146 1.369 . S
C148 C140 1.457 . S
C148 C149 1.372 . S
C148 C153 1.364 . S
C149 H128 0.952 . S
C149 C148 1.372 . S
C149 C150 1.389 . S
C150 H129 0.949 . S
C150 C149 1.389 . S
C150 C151 1.387 . S
C151 C150 1.387 . S
C151 C152 1.372 . S
C152 H130 0.950 1_545 S
C152 C151 1.372 . S
C152 C153 1.379 . S
C153 H131 0.948 1_545 S
C153 C148 1.364 . S
C153 C152 1.379 . S
C154 C123 1.383 . S
C154 C141 1.479 1_565 S
C154 C155 1.398 . S
C155 C120 1.382 . S
C155 H132 0.951 . S
C155 C154 1.398 . S
C156 C157 1.384 . S
C156 H169 0.947 . S
C156 C191 1.382 . S
C157 C156 1.384 . S
C157 C158 1.378 . S
C158 C157 1.378 . S
C158 C159 1.378 . S
C158 H170 0.952 . S
C159 C158 1.378 . S
C159 H171 0.950 . S
C159 C190 1.383 . S
H160 C179 0.947 . S
H161 C180 0.946 . S
H162 C182 0.953 . S
H163 C183 0.945 . S
H164 C185 0.952 . S
H165 C186 0.949 . S
H166 C188 0.950 . S
H167 C189 0.948 . S
H168 C191 0.951 . S
H169 C156 0.947 . S
H170 C158 0.952 . S
H171 C159 0.950 . S
N172 C175 1.382 . S
N172 C177 1.363 . S
N173 C175 1.371 . S
N173 C176 1.372 . S
N174 C176 1.361 . S
N174 C177 1.377 . S
C175 N172 1.382 . S
C175 N173 1.371 . S
C175 C178 1.480 . S
C176 N173 1.372 . S
C176 N174 1.361 . S
C176 C184 1.457 . S
C177 N172 1.363 . S
C177 N174 1.377 . S
C177 C190 1.479 . S
C178 C175 1.480 . S
C178 C179 1.383 . S
C178 C183 1.385 . S
C179 H160 0.947 . S
C179 C178 1.383 . S
C179 C180 1.388 . S
C180 H161 0.946 . S
C180 C179 1.388 . S
C180 C181 1.384 . S
C181 C180 1.384 . S
C181 C182 1.377 . S
C182 H162 0.953 . S
C182 C181 1.377 . S
C182 C183 1.369 . S
C183 H163 0.945 . S
C183 C178 1.385 . S
C183 C182 1.369 . S
C184 C176 1.457 . S
C184 C185 1.372 . S
C184 C189 1.364 . S
C185 H164 0.952 . S
C185 C184 1.372 . S
C185 C186 1.389 . S
C186 H165 0.949 . S
C186 C185 1.389 . S
C186 C187 1.387 . S
C187 C186 1.387 . S
C187 C188 1.372 . S
C188 H166 0.950 . S
C188 C187 1.372 . S
C188 C189 1.379 . S
C189 H167 0.948 . S
C189 C184 1.364 . S
C189 C188 1.379 . S
C190 C159 1.383 . S
C190 C177 1.479 . S
C190 C191 1.398 . S
C191 C156 1.382 . S
C191 H168 0.951 . S
C191 C190 1.398 . S
C192 C193 1.384 . S
C192 H205 0.947 . S
C192 C227 1.382 . S
C193 C192 1.384 . S
C193 C194 1.378 . S
C194 C193 1.378 . S
C194 C195 1.378 . S
C194 H206 0.952 . S
C195 C194 1.378 . S
C195 H207 0.950 . S
C195 C226 1.383 . S
H196 C215 0.947 . S
H197 C216 0.946 . S
H198 C218 0.953 . S
H199 C219 0.945 . S
H200 C221 0.952 . S
H201 C222 0.949 . S
H202 C224 0.950 . S
H203 C225 0.948 . S
H204 C227 0.951 . S
H205 C192 0.947 . S
H206 C194 0.952 . S
H207 C195 0.950 . S
N208 C211 1.382 . S
N208 C213 1.363 1_455 S
N209 C211 1.371 . S
N209 C212 1.372 . S
N210 C212 1.361 1_655 S
N210 C213 1.377 . S
C211 N208 1.382 . S
C211 N209 1.371 . S
C211 C214 1.480 . S
C212 N209 1.372 . S
C212 N210 1.361 1_455 S
C212 C220 1.457 . S
C213 N208 1.363 1_655 S
C213 N210 1.377 . S
C213 C226 1.479 . S
C214 C211 1.480 . S
C214 C215 1.383 . S
C214 C219 1.385 . S
C215 H196 0.947 . S
C215 C214 1.383 . S
C215 C216 1.388 . S
C216 H197 0.946 . S
C216 C215 1.388 . S
C216 C217 1.384 . S
C217 C216 1.384 . S
C217 C218 1.377 . S
C218 H198 0.953 . S
C218 C217 1.377 . S
C218 C219 1.369 . S
C219 H199 0.945 . S
C219 C214 1.385 . S
C219 C218 1.369 . S
C220 C212 1.457 . S
C220 C221 1.372 . S
C220 C225 1.364 1_455 S
C221 H200 0.952 . S
C221 C220 1.372 . S
C221 C222 1.389 1_556 S
C222 H201 0.949 . S
C222 C221 1.389 1_554 S
C222 C223 1.387 . S
C223 C222 1.387 . S
C223 C224 1.372 1_455 S
C224 H202 0.950 . S
C224 C223 1.372 1_655 S
C224 C225 1.379 1_554 S
C225 H203 0.948 . S
C225 C220 1.364 1_655 S
C225 C224 1.379 1_556 S
C226 C195 1.383 . S
C226 C213 1.479 . S
C226 C227 1.398 . S
C227 C192 1.382 . S
C227 H204 0.951 . S
C227 C226 1.398 . S
C228 C229 1.384 . S
C228 H241 0.947 . S
C228 C263 1.382 . S
C229 C228 1.384 . S
C229 C230 1.378 . S
C230 C229 1.378 . S
C230 C231 1.378 . S
C230 H242 0.952 . S
C231 C230 1.378 . S
C231 H243 0.950 . S
C231 C262 1.383 . S
H232 C251 0.947 . S
H233 C252 0.946 . S
H234 C254 0.953 . S
H235 C255 0.945 . S
H236 C257 0.952 . S
H237 C258 0.949 . S
H238 C260 0.950 . S
H239 C261 0.948 . S
H240 C263 0.951 . S
H241 C228 0.947 . S
H242 C230 0.952 . S
H243 C231 0.950 . S
N244 C247 1.382 1_455 S
N244 C249 1.363 . S
N245 C247 1.371 . S
N245 C248 1.372 1_655 S
N246 C248 1.361 . S
N246 C249 1.377 . S
C247 N244 1.382 1_655 S
C247 N245 1.371 . S
C247 C250 1.480 . S
C248 N245 1.372 1_455 S
C248 N246 1.361 . S
C248 C256 1.457 . S
C249 N244 1.363 . S
C249 N246 1.377 . S
C249 C262 1.479 . S
C250 C247 1.480 . S
C250 C251 1.383 . S
C250 C255 1.385 . S
C251 H232 0.947 . S
C251 C250 1.383 . S
C251 C252 1.388 . S
C252 H233 0.946 . S
C252 C251 1.388 . S
C252 C253 1.384 . S
C253 C252 1.384 . S
C253 C254 1.377 . S
C254 H234 0.953 . S
C254 C253 1.377 . S
C254 C255 1.369 . S
C255 H235 0.945 . S
C255 C250 1.385 . S
C255 C254 1.369 . S
C256 C248 1.457 . S
C256 C257 1.372 1_455 S
C256 C261 1.364 . S
C257 H236 0.952 . S
C257 C256 1.372 1_655 S
C257 C258 1.389 . S
C258 H237 0.949 . S
C258 C257 1.389 . S
C258 C259 1.387 . S
C259 C258 1.387 . S
C259 C260 1.372 1_655 S
C260 H238 0.950 . S
C260 C259 1.372 1_455 S
C260 C261 1.379 . S
C261 H239 0.948 . S
C261 C256 1.364 . S
C261 C260 1.379 . S
C262 C231 1.383 . S
C262 C249 1.479 . S
C262 C263 1.398 . S
C263 C228 1.382 . S
C263 H240 0.951 . S
C263 C262 1.398 . S
C264 C265 1.384 . S
C264 H277 0.947 . S
C264 C299 1.382 . S
C265 C264 1.384 . S
C265 C266 1.378 . S
C266 C265 1.378 . S
C266 C267 1.378 . S
C266 H278 0.952 . S
C267 C266 1.378 . S
C267 H279 0.950 . S
C267 C298 1.383 . S
H268 C287 0.947 . S
H269 C288 0.946 . S
H270 C290 0.953 . S
H271 C291 0.945 . S
H272 C293 0.952 . S
H273 C294 0.949 . S
H274 C296 0.950 . S
H275 C297 0.948 . S
H276 C299 0.951 . S
H277 C264 0.947 . S
H278 C266 0.952 . S
H279 C267 0.950 . S
N280 C283 1.382 1_545 S
N280 C285 1.363 . S
N281 C283 1.371 . S
N281 C284 1.372 1_565 S
N282 C284 1.361 . S
N282 C285 1.377 . S
C283 N280 1.382 1_565 S
C283 N281 1.371 . S
C283 C286 1.480 . S
C284 N281 1.372 1_545 S
C284 N282 1.361 . S
C284 C292 1.457 . S
C285 N280 1.363 . S
C285 N282 1.377 . S
C285 C298 1.479 . S
C286 C283 1.480 . S
C286 C287 1.383 . S
C286 C291 1.385 . S
C287 H268 0.947 . S
C287 C286 1.383 . S
C287 C288 1.388 . S
C288 H269 0.946 . S
C288 C287 1.388 . S
C288 C289 1.384 . S
C289 C288 1.384 . S
C289 C290 1.377 . S
C290 H270 0.953 . S
C290 C289 1.377 . S
C290 C291 1.369 . S
C291 H271 0.945 . S
C291 C286 1.385 . S
C291 C290 1.369 . S
C292 C284 1.457 . S
C292 C293 1.372 1_545 S
C292 C297 1.364 . S
C293 H272 0.952 . S
C293 C292 1.372 1_565 S
C293 C294 1.389 . S
C294 H273 0.949 . S
C294 C293 1.389 . S
C294 C295 1.387 1_565 S
C295 C294 1.387 1_545 S
C295 C296 1.372 . S
C296 H274 0.950 . S
C296 C295 1.372 . S
C296 C297 1.379 . S
C297 H275 0.948 . S
C297 C292 1.364 . S
C297 C296 1.379 . S
C298 C267 1.383 . S
C298 C285 1.479 . S
C298 C299 1.398 . S
C299 C264 1.382 . S
C299 H276 0.951 . S
C299 C298 1.398 . S
C300 C301 1.384 . S
C300 H313 0.947 . S
C300 C335 1.382 . S
C301 C300 1.384 . S
C301 C302 1.378 . S
C302 C301 1.378 . S
C302 C303 1.378 . S
C302 H314 0.952 . S
C303 C302 1.378 . S
C303 H315 0.950 . S
C303 C334 1.383 . S
H304 C323 0.947 . S
H305 C324 0.946 . S
H306 C326 0.953 . S
H307 C327 0.945 . S
H308 C329 0.952 . S
H309 C330 0.949 1_556 S
H310 C332 0.950 . S
H311 C333 0.948 . S
H312 C335 0.951 . S
H313 C300 0.947 . S
H314 C302 0.952 . S
H315 C303 0.950 . S
N316 C319 1.382 . S
N316 C321 1.363 . S
N317 C319 1.371 . S
N317 C320 1.372 . S
N318 C320 1.361 . S
N318 C321 1.377 . S
C319 N316 1.382 . S
C319 N317 1.371 . S
C319 C322 1.480 . S
C320 N317 1.372 . S
C320 N318 1.361 . S
C320 C328 1.457 . S
C321 N316 1.363 . S
C321 N318 1.377 . S
C321 C334 1.479 . S
C322 C319 1.480 . S
C322 C323 1.383 . S
C322 C327 1.385 . S
C323 H304 0.947 . S
C323 C322 1.383 . S
C323 C324 1.388 . S
C324 H305 0.946 . S
C324 C323 1.388 . S
C324 C325 1.384 . S
C325 C324 1.384 . S
C325 C326 1.377 . S
C326 H306 0.953 . S
C326 C325 1.377 . S
C326 C327 1.369 . S
C327 H307 0.945 . S
C327 C322 1.385 . S
C327 C326 1.369 . S
C328 C320 1.457 . S
C328 C329 1.372 . S
C328 C333 1.364 . S
C329 H308 0.952 . S
C329 C328 1.372 . S
C329 C330 1.389 . S
C330 H309 0.949 1_554 S
C330 C329 1.389 . S
C330 C331 1.387 1_554 S
C331 C330 1.387 1_556 S
C331 C332 1.372 1_556 S
C332 H310 0.950 . S
C332 C331 1.372 1_554 S
C332 C333 1.379 . S
C333 H311 0.948 . S
C333 C328 1.364 . S
C333 C332 1.379 . S
C334 C303 1.383 . S
C334 C321 1.479 . S
C334 C335 1.398 . S
C335 C300 1.382 . S
C335 H312 0.951 . S
C335 C334 1.398 . S
C336 C337 1.387 . S
C336 H340 0.950 . S
C336 C345 1.390 . S
C337 C336 1.387 . S
C337 C339 1.387 . S
H338 C345 0.950 . S
C339 C337 1.387 . S
C339 C341 1.390 . S
C339 H343 0.950 . S
H340 C336 0.950 . S
C341 C339 1.390 . S
C341 C342 1.387 . S
C341 H344 0.950 . S
C342 C341 1.387 . S
C342 C345 1.387 . S
H343 C339 0.950 . S
H344 C341 0.950 . S
C345 C336 1.390 . S
C345 H338 0.950 . S
C345 C342 1.387 . S
C346 C347 1.387 . S
C346 H350 0.950 . S
C346 C355 1.390 . S
C347 C346 1.387 . S
C347 C349 1.387 . S
H348 C355 0.950 . S
C349 C347 1.387 . S
C349 C351 1.390 . S
C349 H353 0.950 . S
H350 C346 0.950 . S
C351 C349 1.390 . S
C351 C352 1.387 . S
C351 H354 0.950 . S
C352 C351 1.387 . S
C352 C355 1.387 . S
H353 C349 0.950 . S
H354 C351 0.950 . S
C355 C346 1.390 . S
C355 H348 0.950 . S
C355 C352 1.387 . S
C356 C357 1.387 . S
C356 H360 0.950 . S
C356 C365 1.390 . S
C357 C356 1.387 . S
C357 C359 1.387 . S
H358 C365 0.950 . S
C359 C357 1.387 . S
C359 C361 1.390 . S
C359 H363 0.950 . S
H360 C356 0.950 . S
C361 C359 1.390 . S
C361 C362 1.387 . S
C361 H364 0.950 . S
C362 C361 1.387 . S
C362 C365 1.387 . S
H363 C359 0.950 . S
H364 C361 0.950 . S
C365 C356 1.390 . S
C365 H358 0.950 . S
C365 C362 1.387 . S
C366 C367 1.387 . S
C366 H370 0.950 . S
C366 C375 1.390 . S
C367 C366 1.387 . S
C367 C369 1.387 . S
H368 C375 0.950 . S
C369 C367 1.387 . S
C369 C371 1.390 . S
C369 H373 0.950 . S
H370 C366 0.950 . S
C371 C369 1.390 . S
C371 C372 1.387 . S
C371 H374 0.950 . S
C372 C371 1.387 . S
C372 C375 1.387 . S
H373 C369 0.950 . S
H374 C371 0.950 . S
C375 C366 1.390 . S
C375 H368 0.950 . S
C375 C372 1.387 . S
C376 C377 1.387 . S
C376 H380 0.950 . S
C376 C385 1.390 . S
C377 C376 1.387 . S
C377 C379 1.387 . S
H378 C385 0.950 . S
C379 C377 1.387 . S
C379 C381 1.390 . S
C379 H383 0.950 . S
H380 C376 0.950 . S
C381 C379 1.390 . S
C381 C382 1.387 . S
C381 H384 0.950 . S
C382 C381 1.387 . S
C382 C385 1.387 . S
H383 C379 0.950 . S
H384 C381 0.950 . S
C385 C376 1.390 . S
C385 H378 0.950 . S
C385 C382 1.387 . S
C386 C387 1.387 . S
C386 H390 0.950 . S
C386 C395 1.390 . S
C387 C386 1.387 . S
C387 C389 1.387 . S
H388 C395 0.950 . S
C389 C387 1.387 . S
C389 C391 1.390 . S
C389 H393 0.950 . S
H390 C386 0.950 . S
C391 C389 1.390 . S
C391 C392 1.387 . S
C391 H394 0.950 . S
C392 C391 1.387 . S
C392 C395 1.387 . S
H393 C389 0.950 . S
H394 C391 0.950 . S
C395 C386 1.390 . S
C395 H388 0.950 . S
C395 C392 1.387 . S
C396 C397 1.387 . S
C396 H400 0.950 . S
C396 C405 1.390 . S
C397 C396 1.387 . S
C397 C399 1.387 . S
H398 C405 0.950 . S
C399 C397 1.387 . S
C399 C401 1.390 . S
C399 H403 0.950 . S
H400 C396 0.950 . S
C401 C399 1.390 . S
C401 C402 1.387 . S
C401 H404 0.950 . S
C402 C401 1.387 . S
C402 C405 1.387 . S
H403 C399 0.950 . S
H404 C401 0.950 . S
C405 C396 1.390 . S
C405 H398 0.950 . S
C405 C402 1.387 . S
C406 C407 1.387 . S
C406 H410 0.950 . S
C406 C415 1.390 . S
C407 C406 1.387 . S
C407 C409 1.387 . S
H408 C415 0.950 . S
C409 C407 1.387 . S
C409 C411 1.390 . S
C409 H413 0.950 . S
H410 C406 0.950 . S
C411 C409 1.390 . S
C411 C412 1.387 . S
C411 H414 0.950 . S
C412 C411 1.387 . S
C412 C415 1.387 . S
H413 C409 0.950 . S
H414 C411 0.950 . S
C415 C406 1.390 . S
C415 H408 0.950 . S
C415 C412 1.387 . S
C416 C417 1.387 . S
C416 H420 0.950 . S
C416 C425 1.390 . S
C417 C416 1.387 . S
C417 C419 1.387 . S
H418 C425 0.950 . S
C419 C417 1.387 . S
C419 C421 1.390 . S
C419 H423 0.950 . S
H420 C416 0.950 . S
C421 C419 1.390 . S
C421 C422 1.387 . S
C421 H424 0.950 . S
C422 C421 1.387 . S
C422 C425 1.387 . S
H423 C419 0.950 . S
H424 C421 0.950 . S
C425 C416 1.390 . S
C425 H418 0.950 . S
C425 C422 1.387 . S
C426 C427 1.387 . S
C426 H430 0.950 . S
C426 C435 1.390 . S
C427 C426 1.387 . S
C427 C429 1.387 . S
H428 C435 0.950 . S
C429 C427 1.387 . S
C429 C431 1.390 . S
C429 H433 0.950 . S
H430 C426 0.950 . S
C431 C429 1.390 . S
C431 C432 1.387 . S
C431 H434 0.950 . S
C432 C431 1.387 . S
C432 C435 1.387 . S
H433 C429 0.950 . S
H434 C431 0.950 . S
C435 C426 1.390 . S
C435 H428 0.950 . S
C435 C432 1.387 . S
C436 C437 1.387 . S
C436 H440 0.950 . S
C436 C445 1.390 . S
C437 C436 1.387 . S
C437 C439 1.387 . S
H438 C445 0.950 . S
C439 C437 1.387 . S
C439 C441 1.390 . S
C439 H443 0.950 . S
H440 C436 0.950 . S
C441 C439 1.390 . S
C441 C442 1.387 . S
C441 H444 0.950 . S
C442 C441 1.387 . S
C442 C445 1.387 . S
H443 C439 0.950 . S
H444 C441 0.950 . S
C445 C436 1.390 . S
C445 H438 0.950 . S
C445 C442 1.387 . S
C446 C447 1.387 . S
C446 H450 0.950 . S
C446 C455 1.390 . S
C447 C446 1.387 . S
C447 C449 1.387 . S
H448 C455 0.950 . S
C449 C447 1.387 . S
C449 C451 1.390 . S
C449 H453 0.950 . S
H450 C446 0.950 . S
C451 C449 1.390 . S
C451 C452 1.387 . S
C451 H454 0.950 . S
C452 C451 1.387 . S
C452 C455 1.387 . S
H453 C449 0.950 . S
H454 C451 0.950 . S
C455 C446 1.390 . S
C455 H448 0.950 . S
C455 C452 1.387 . S
C456 C457 1.387 . S
C456 H460 0.950 . S
C456 C465 1.390 . S
C457 C456 1.387 . S
C457 C459 1.387 1_455 S
H458 C465 0.950 . S
C459 C457 1.387 1_655 S
C459 C461 1.390 . S
C459 H463 0.950 . S
H460 C456 0.950 . S
C461 C459 1.390 . S
C461 C462 1.387 1_655 S
C461 H464 0.950 . S
C462 C461 1.387 1_455 S
C462 C465 1.387 . S
H463 C459 0.950 . S
H464 C461 0.950 . S
C465 C456 1.390 . S
C465 H458 0.950 . S
C465 C462 1.387 . S
C466 C467 1.387 . S
C466 H470 0.950 1_545 S
C466 C475 1.390 . S
C467 C466 1.387 . S
C467 C469 1.387 . S
H468 C475 0.950 . S
C469 C467 1.387 . S
C469 C471 1.390 . S
C469 H473 0.950 . S
H470 C466 0.950 1_565 S
C471 C469 1.390 . S
C471 C472 1.387 . S
C471 H474 0.950 . S
C472 C471 1.387 . S
C472 C475 1.387 . S
H473 C469 0.950 . S
H474 C471 0.950 . S
C475 C466 1.390 . S
C475 H468 0.950 . S
C475 C472 1.387 . S
C476 C477 1.387 . S
C476 H480 0.950 . S
C476 C485 1.390 . S
C477 C476 1.387 . S
C477 C479 1.387 . S
H478 C485 0.950 . S
C479 C477 1.387 . S
C479 C481 1.390 . S
C479 H483 0.950 . S
H480 C476 0.950 . S
C481 C479 1.390 . S
C481 C482 1.387 . S
C481 H484 0.950 . S
C482 C481 1.387 . S
C482 C485 1.387 . S
H483 C479 0.950 . S
H484 C481 0.950 . S
C485 C476 1.390 . S
C485 H478 0.950 . S
C485 C482 1.387 . S
C486 C487 1.387 1_565 S
C486 H490 0.950 . S
C486 C495 1.390 . S
C487 C486 1.387 1_545 S
C487 C489 1.387 . S
H488 C495 0.950 . S
C489 C487 1.387 . S
C489 C491 1.390 . S
C489 H493 0.950 . S
H490 C486 0.950 . S
C491 C489 1.390 . S
C491 C492 1.387 . S
C491 H494 0.950 . S
C492 C491 1.387 . S
C492 C495 1.387 1_545 S
H493 C489 0.950 . S
H494 C491 0.950 . S
C495 C486 1.390 . S
C495 H488 0.950 . S
C495 C492 1.387 1_565 S
C496 C497 1.387 . S
C496 H500 0.950 . S
C496 C505 1.390 . S
C497 C496 1.387 . S
C497 C499 1.387 . S
H498 C505 0.950 . S
C499 C497 1.387 . S
C499 C501 1.390 . S
C499 H503 0.950 . S
H500 C496 0.950 . S
C501 C499 1.390 . S
C501 C502 1.387 . S
C501 H504 0.950 . S
C502 C501 1.387 . S
C502 C505 1.387 . S
H503 C499 0.950 . S
H504 C501 0.950 . S
C505 C496 1.390 . S
C505 H498 0.950 . S
C505 C502 1.387 . S
C506 C507 1.386 . S
C506 H510 0.950 . S
C506 C515 1.390 . S
C507 C506 1.386 . S
C507 C509 1.387 1_455 S
H508 C515 0.950 . S
C509 C507 1.387 1_655 S
C509 C511 1.390 . S
C509 H513 0.950 . S
H510 C506 0.950 . S
C511 C509 1.390 . S
C511 C512 1.387 . S
C511 H514 0.950 . S
C512 C511 1.387 . S
C512 C515 1.387 1_655 S
H513 C509 0.950 . S
H514 C511 0.950 . S
C515 C506 1.390 . S
C515 H508 0.950 . S
C515 C512 1.387 1_455 S
C337 C24 3.052 . S
C342 C325 2.961 . S
C347 C66 1.251 . S
C352 C253 1.314 . S
C357 C93 1.990 . S
C362 C289 1.873 . S
C367 C13 3.190 . S
C372 C301 3.123 . S
C382 C229 1.367 . S
C377 C57 1.360 . S
C392 C265 2.024 . S
C387 C104 2.089 . S
C397 C64 2.061 . S
C402 C181 1.947 . S
C407 C97 0.873 . S
C412 C193 0.884 . S
C417 C17 1.406 . S
C422 C121 1.463 . S
C432 C157 1.926 . S
C427 C53 2.000 . S
C442 C217 0.503 . S
C437 C106 0.636 . S
C447 C26 1.279 . S
C452 C145 1.328 . S
C462 C223 1.042 . S
C457 C2 1.067 . S
C467 C63 1.455 . S
C472 C151 1.487 . S
C477 C82 1.364 . S
C482 C187 1.377 . S
C492 C295 1.390 . S
C487 C42 1.385 . S
C502 C331 1.800 . S
C497 C103 1.761 . S
C507 C23 1.484 . S
C512 C259 1.495 . S
