# Generated by pormake.
# Topology pyr, (3,6)-cn, num edge types: 1
# Building blocks:
#     Node 0, Type 0, BuildingBlock: CUQRIR_clean_linker_1, # of connection points: 3
#     Node 1, Type 0, BuildingBlock: CUQRIR_clean_linker_1, # of connection points: 3
#     Node 2, Type 0, BuildingBlock: CUQRIR_clean_linker_1, # of connection points: 3
#     Node 3, Type 0, BuildingBlock: CUQRIR_clean_linker_1, # of connection points: 3
#     Node 4, Type 0, BuildingBlock: CUQRIR_clean_linker_1, # of connection points: 3
#     Node 5, Type 0, BuildingBlock: CUQRIR_clean_linker_1, # of connection points: 3
#     Node 6, Type 0, BuildingBlock: CUQRIR_clean_linker_1, # of connection points: 3
#     Node 7, Type 0, BuildingBlock: CUQRIR_clean_linker_1, # of connection points: 3
#     Node 8, Type 1, BuildingBlock: PAMTUU_clean_sbu_0, # of connection points: 6
#     Node 9, Type 1, BuildingBlock: PAMTUU_clean_sbu_0, # of connection points: 6
#     Node 10, Type 1, BuildingBlock: PAMTUU_clean_sbu_0, # of connection points: 6
#     Node 11, Type 1, BuildingBlock: PAMTUU_clean_sbu_0, # of connection points: 6
#     Edge 12, Type (0, 1), BuildingBlock: OJICUG_clean_linker_0, # of connection points: 2
#     Edge 13, Type (0, 1), BuildingBlock: OJICUG_clean_linker_0, # of connection points: 2
#     Edge 14, Type (0, 1), BuildingBlock: OJICUG_clean_linker_0, # of connection points: 2
#     Edge 15, Type (0, 1), BuildingBlock: OJICUG_clean_linker_0, # of connection points: 2
#     Edge 16, Type (0, 1), BuildingBlock: OJICUG_clean_linker_0, # of connection points: 2
#     Edge 17, Type (0, 1), BuildingBlock: OJICUG_clean_linker_0, # of connection points: 2
#     Edge 18, Type (0, 1), BuildingBlock: OJICUG_clean_linker_0, # of connection points: 2
#     Edge 19, Type (0, 1), BuildingBlock: OJICUG_clean_linker_0, # of connection points: 2
#     Edge 20, Type (0, 1), BuildingBlock: OJICUG_clean_linker_0, # of connection points: 2
#     Edge 21, Type (0, 1), BuildingBlock: OJICUG_clean_linker_0, # of connection points: 2
#     Edge 22, Type (0, 1), BuildingBlock: OJICUG_clean_linker_0, # of connection points: 2
#     Edge 23, Type (0, 1), BuildingBlock: OJICUG_clean_linker_0, # of connection points: 2
#     Edge 24, Type (0, 1), BuildingBlock: OJICUG_clean_linker_0, # of connection points: 2
#     Edge 25, Type (0, 1), BuildingBlock: OJICUG_clean_linker_0, # of connection points: 2
#     Edge 26, Type (0, 1), BuildingBlock: OJICUG_clean_linker_0, # of connection points: 2
#     Edge 27, Type (0, 1), BuildingBlock: OJICUG_clean_linker_0, # of connection points: 2
#     Edge 28, Type (0, 1), BuildingBlock: OJICUG_clean_linker_0, # of connection points: 2
#     Edge 29, Type (0, 1), BuildingBlock: OJICUG_clean_linker_0, # of connection points: 2
#     Edge 30, Type (0, 1), BuildingBlock: OJICUG_clean_linker_0, # of connection points: 2
#     Edge 31, Type (0, 1), BuildingBlock: OJICUG_clean_linker_0, # of connection points: 2
#     Edge 32, Type (0, 1), BuildingBlock: OJICUG_clean_linker_0, # of connection points: 2
#     Edge 33, Type (0, 1), BuildingBlock: OJICUG_clean_linker_0, # of connection points: 2
#     Edge 34, Type (0, 1), BuildingBlock: OJICUG_clean_linker_0, # of connection points: 2
#     Edge 35, Type (0, 1), BuildingBlock: OJICUG_clean_linker_0, # of connection points: 2
# Relax obj value: 0.300
# Max RMSD: 0.269
# Mean RMSD: 0.173
data_MOF--net-pyr--node1-PAMTUU_clean_sbu_0--node2-CUQRIR_clean_linker_1--edge1-OJICUG_clean_linker_0
_symmetry_space_group_name_H-M    P1
_symmetry_Int_Tables_number       1
_symmetry_cell_setting            triclinic
loop_
_symmetry_equiv_pos_as_xyz
'x, y, z'
_cell_length_a     25.230362
_cell_length_b     25.419302
_cell_length_c     23.72267
_cell_angle_alpha  89.043052
_cell_angle_beta   90.058579
_cell_angle_gamma 108.31212
loop_
_atom_site_label
_atom_site_type_symbol
_atom_site_fract_x
_atom_site_fract_y
_atom_site_fract_z
_atom_type_partial_charge
C0 C 0.42318 0.42978 0.29966 0.0
N1 N 0.45741 0.39807 0.30417 0.0
N2 N 0.41171 0.43786 0.24498 0.0
C3 C 0.39136 0.44244 0.34882 0.0
C4 C 0.44162 0.41103 0.21625 0.0
N5 N 0.46965 0.38702 0.25199 0.0
C6 C 0.43949 0.40488 0.15335 0.0
H7 H 0.36233 0.40321 0.36638 0.0
H8 H 0.36706 0.47034 0.33691 0.0
H9 H 0.42085 0.46256 0.38255 0.0
H10 H 0.43573 0.44311 0.13281 0.0
H11 H 0.40203 0.37007 0.14198 0.0
H12 H 0.47728 0.39637 0.13743 0.0
C13 C 0.1207 0.82848 0.7725 0.0
N14 N 0.11138 0.87029 0.80128 0.0
N15 N 0.14985 0.80199 0.80372 0.0
C16 C 0.10831 0.81828 0.71083 0.0
C17 C 0.15313 0.82624 0.85462 0.0
N18 N 0.13156 0.86883 0.85283 0.0
C19 C 0.18963 0.81716 0.90183 0.0
H20 H 0.06882 0.82646 0.69976 0.0
H21 H 0.10513 0.77495 0.70056 0.0
H22 H 0.14232 0.84656 0.68494 0.0
H23 H 0.23362 0.84224 0.89314 0.0
H24 H 0.18724 0.77292 0.90503 0.0
H25 H 0.17687 0.82963 0.9429 0.0
C26 C 0.63484 0.42116 0.91477 0.0
N27 N 0.66567 0.41584 0.96062 0.0
N28 N 0.65573 0.47199 0.88944 0.0
C29 C 0.58224 0.37755 0.89693 0.0
C30 C 0.70058 0.4975 0.92195 0.0
N31 N 0.70691 0.46389 0.96533 0.0
C32 C 0.73968 0.55481 0.90944 0.0
H33 H 0.58716 0.33579 0.90125 0.0
H34 H 0.5708 0.38441 0.85295 0.0
H35 H 0.54759 0.37877 0.92511 0.0
H36 H 0.72546 0.58542 0.93279 0.0
H37 H 0.73979 0.56503 0.86378 0.0
H38 H 0.78287 0.55856 0.92278 0.0
C39 C 0.86605 0.73437 0.43263 0.0
N40 N 0.9142 0.77127 0.41174 0.0
N41 N 0.83584 0.75991 0.46285 0.0
C42 C 0.84827 0.67285 0.42284 0.0
C43 C 0.86652 0.81397 0.45882 0.0
N44 N 0.91468 0.82179 0.42898 0.0
C45 C 0.84991 0.85995 0.48553 0.0
H46 H 0.83447 0.66475 0.37849 0.0
H47 H 0.81389 0.64966 0.45147 0.0
H48 H 0.88387 0.65679 0.4297 0.0
H49 H 0.86754 0.86692 0.52865 0.0
H50 H 0.80384 0.84911 0.48863 0.0
H51 H 0.86625 0.89914 0.46081 0.0
C52 C 0.60041 0.82536 0.98915 0.0
N53 N 0.63534 0.8141 0.9513 0.0
N54 N 0.57318 0.85885 0.9664 0.0
C55 C 0.59736 0.80944 1.05071 0.0
C56 C 0.59005 0.86409 0.91183 0.0
N57 N 0.62852 0.83806 0.90276 0.0
C58 C 0.57901 0.90554 0.8711 0.0
H59 H 0.61019 0.7719 1.0577 0.0
H60 H 0.55417 0.80178 1.06659 0.0
H61 H 0.62521 0.84403 1.07512 0.0
H62 H 0.61586 0.94351 0.86966 0.0
H63 H 0.54179 0.91684 0.88397 0.0
H64 H 0.57219 0.88826 0.82811 0.0
C65 C 0.93317 0.40274 0.52026 0.0
N66 N 0.96188 0.37871 0.48624 0.0
N67 N 0.90264 0.42826 0.4897 0.0
C68 C 0.93103 0.3979 0.58348 0.0
C69 C 0.91444 0.41946 0.43565 0.0
N70 N 0.94962 0.38864 0.43329 0.0
C71 C 0.88231 0.43079 0.38558 0.0
H72 H 0.89392 0.36294 0.59651 0.0
H73 H 0.9266 0.43627 0.60166 0.0
H74 H 0.96913 0.39042 0.60035 0.0
H75 H 0.91183 0.45284 0.35196 0.0
H76 H 0.85573 0.45654 0.39639 0.0
H77 H 0.85547 0.39097 0.36837 0.0
C78 C 0.34511 0.72935 0.32094 0.0
N79 N 0.39559 0.76323 0.33889 0.0
N80 N 0.32675 0.751 0.27505 0.0
C81 C 0.31185 0.67632 0.3504 0.0
C82 C 0.36785 0.79917 0.26501 0.0
N83 N 0.40951 0.80762 0.30366 0.0
C84 C 0.3678 0.8381 0.21624 0.0
H85 H 0.32242 0.64116 0.33162 0.0
H86 H 0.26639 0.6689 0.34513 0.0
H87 H 0.32164 0.67743 0.39606 0.0
H88 H 0.35053 0.87071 0.23068 0.0
H89 H 0.34194 0.81582 0.18094 0.0
H90 H 0.41068 0.85864 0.20017 0.0
C91 C 0.12704 0.42881 0.82488 0.0
N92 N 0.16103 0.42284 0.78205 0.0
N93 N 0.14758 0.47905 0.85016 0.0
C94 C 0.07348 0.3854 0.84234 0.0
C95 C 0.19573 0.50333 0.82087 0.0
N96 N 0.20401 0.47003 0.77929 0.0
C97 C 0.23735 0.55806 0.83618 0.0
H98 H 0.05375 0.35862 0.80686 0.0
H99 H 0.04339 0.4049 0.85945 0.0
H100 H 0.08276 0.35862 0.87582 0.0
H101 H 0.23496 0.56614 0.88176 0.0
H102 H 0.22789 0.59163 0.81188 0.0
H103 H 0.28055 0.55909 0.82587 0.0
Tb104 Tb 0.1259 0.13397 0.57083 0.0
Tb105 Tb 0.9998 0.10675 0.61736 0.0
C106 C 1.03028 1.02717 0.53124 0.0
C107 C 0.27924 0.18901 0.53276 0.0
C108 C 0.37924 0.26396 0.49318 0.0
C109 C 0.3756 0.20854 0.50412 0.0
C110 C 0.32567 0.17119 0.52377 0.0
C111 C 0.28485 0.24555 0.52882 0.0
C112 C 0.33499 0.28307 0.50937 0.0
C113 C 0.22469 0.14709 0.53979 0.0
O114 O 0.09931 0.2034 0.54041 0.0
O115 O 1.00939 0.14923 0.53632 0.0
O116 O 0.04268 0.19169 0.64711 0.0
O117 O 0.13388 0.19243 0.64079 0.0
O118 O 0.91529 1.07535 0.59476 0.0
O119 O 0.93969 0.11047 0.67666 0.0
O120 O 0.03903 1.07116 0.68269 0.0
O121 O 0.10948 1.06234 0.6269 0.0
O122 O 0.07211 1.07052 0.5142 0.0
O123 O 1.00381 1.0297 0.57853 0.0
C124 C 0.04732 0.19716 0.52699 0.0
O125 O 0.20702 0.13508 0.5914 0.0
O126 O 0.18509 0.15026 0.50558 0.0
C127 C 0.09627 0.21483 0.65854 0.0
C128 C 0.85937 1.03318 0.67187 0.0
C129 C 0.785 0.94563 0.73309 0.0
C130 C 0.84246 0.95268 0.73369 0.0
C131 C 0.87941 0.99597 0.70291 0.0
C132 C 0.80183 1.02429 0.66842 0.0
C133 C 0.76471 0.98051 0.69871 0.0
C134 C 0.89848 1.0824 0.64509 0.0
C135 C 0.07979 1.05073 0.67342 0.0
H136 H 0.40902 0.19296 0.49131 0.0
H137 H 0.32196 0.12761 0.52741 0.0
H138 H 0.24935 0.25988 0.53637 0.0
H139 H 0.3367 0.32554 0.50048 0.0
H140 H 0.85891 0.92625 0.76002 0.0
H141 H 0.92378 1.00182 0.70521 0.0
H142 H 0.78581 1.05243 0.64414 0.0
H143 H 0.7206 0.9762 0.69823 0.0
Tb144 Tb 0.61731 0.12947 0.18322 0.0
Tb145 Tb 0.48686 0.11243 0.14672 0.0
C146 C 0.55429 1.04361 0.08955 0.0
C147 C 0.7718 0.17966 0.21344 0.0
C148 C 0.87264 0.25402 0.2499 0.0
C149 C 0.86819 0.1983 0.24131 0.0
C150 C 0.81785 0.16126 0.22327 0.0
C151 C 0.77819 0.2364 0.21501 0.0
C152 C 0.8287 0.27359 0.2329 0.0
C153 C 0.71667 0.13834 0.20874 0.0
O154 O 0.62506 0.18485 0.10955 0.0
O155 O 0.53728 0.19379 0.11123 0.0
O156 O 0.50712 0.15143 0.22747 0.0
O157 O 0.59685 0.20185 0.21352 0.0
O158 O 0.43112 0.1368 0.09521 0.0
O159 O 0.4012 0.08376 0.16769 0.0
O160 O 0.48329 1.03425 0.19046 0.0
O161 O 0.56558 1.06382 0.24044 0.0
O162 O 0.59149 1.05777 0.12989 0.0
O163 O 0.51389 1.06557 1.08332 0.0
C164 C 0.58993 0.2114 0.09443 0.0
O165 O 0.67893 0.14134 0.24521 0.0
O166 O 0.69659 0.12824 0.15805 0.0
C167 C 0.5468 0.19869 0.2314 0.0
C168 C 0.34276 1.0716 0.08803 0.0
C169 C 0.26107 1.01472 1.01097 0.0
C170 C 0.24816 1.04814 1.05186 0.0
C171 C 0.28905 1.07681 0.08998 0.0
C172 C 0.35484 1.03622 1.04896 0.0
C173 C 0.31437 1.00815 1.01064 0.0
C174 C 0.38734 0.10681 0.12303 0.0
C175 C 0.51675 1.02642 0.2304 0.0
H176 H 0.90136 0.18233 0.25467 0.0
H177 H 0.81355 0.11753 0.22157 0.0
H178 H 0.74298 0.25118 0.20692 0.0
H179 H 0.83094 0.31625 0.23992 0.0
H180 H 0.20727 1.05354 1.05301 0.0
H181 H 0.27926 0.10418 0.1199 0.0
H182 H 0.39607 1.03163 1.04702 0.0
H183 H 0.32494 0.98169 0.98019 0.0
Tb184 Tb 0.51393 0.55787 0.57825 0.0
Tb185 Tb 0.52034 0.66367 0.65386 0.0
C186 C 0.47844 0.65971 0.52619 0.0
C187 C 0.57741 0.46407 0.51614 0.0
C188 C 0.68543 0.45172 0.51495 0.0
C189 C 0.67222 0.48992 0.47836 0.0
C190 C 0.61899 0.49603 0.47894 0.0
C191 C 0.58976 0.42411 0.55086 0.0
C192 C 0.6431 0.41815 0.55045 0.0
C193 C 0.52463 0.47741 0.52454 0.0
O194 O 0.58795 0.62186 0.54924 0.0
O195 O 0.60728 0.68109 0.62372 0.0
O196 O 0.53965 0.60436 0.71192 0.0
O197 O 0.57143 0.55576 0.64792 0.0
O198 O 0.53303 0.74872 0.66556 0.0
O199 O 0.50924 0.6905 0.73491 0.0
O200 O 0.43117 0.61477 0.65023 0.0
O201 O 0.4385 0.52963 0.63097 0.0
O202 O 0.47092 0.6055 0.52573 0.0
O203 O 0.5014 0.68964 0.56977 0.0
C204 C 0.62201 0.66366 0.57576 0.0
O205 O 0.50607 0.47299 0.57617 0.0
O206 O 0.5213 0.52255 0.50013 0.0
C207 C 0.56653 0.56921 0.70056 0.0
C208 C 0.46152 0.75542 0.72735 0.0
C209 C 0.35452 0.76471 0.74619 0.0
C210 C 0.38532 0.75278 0.79123 0.0
C211 C 0.43854 0.74854 0.78192 0.0
C212 C 0.43109 0.76855 0.68253 0.0
C213 C 0.3783 0.77351 0.69198 0.0
C214 C 0.51208 0.73971 0.71635 0.0
C215 C 0.4098 0.56033 0.65099 0.0
H216 H 0.70315 0.51549 0.44935 0.0
H217 H 0.61112 0.52714 0.4514 0.0
H218 H 0.55878 0.3989 0.58009 0.0
H219 H 0.65159 0.3884 0.57935 0.0
H220 H 0.36825 0.74677 0.8336 0.0
H221 H 0.46092 0.73784 0.81703 0.0
H222 H 0.44711 0.77318 0.63977 0.0
H223 H 0.35539 0.78281 0.65658 0.0
Tb224 Tb 1.01136 0.66737 0.08861 0.0
Tb225 Tb 1.01291 0.56171 0.16639 0.0
C226 C 0.05612 0.57307 1.03823 0.0
C227 C 0.9468 0.7533 1.00803 0.0
C228 C 0.84298 0.77008 0.98658 0.0
C229 C 0.89135 0.81538 0.99584 0.0
C230 C 0.94274 0.80702 1.00653 0.0
C231 C 0.89889 0.70815 0.99714 0.0
C232 C 0.84762 0.71645 0.98641 0.0
C233 C 0.99926 0.74389 1.02591 0.0
O234 O 0.93217 0.60305 1.07186 0.0
O235 O 0.92475 0.537 0.1418 0.0
O236 O 1.00076 0.62423 0.22591 0.0
O237 O 0.96799 0.6781 0.16598 0.0
O238 O 1.0061 0.47748 0.17898 0.0
O239 O 0.03515 0.53605 0.24514 0.0
O240 O 0.09887 0.61069 0.15024 0.0
O241 O 0.08808 0.69573 0.13898 0.0
O242 O 0.06082 0.62638 1.03863 0.0
O243 O 1.03164 0.54018 1.08062 0.0
C244 C 0.90383 0.5571 0.09862 0.0
O245 O 1.01047 0.74977 1.07944 0.0
O246 O 1.00765 0.69939 1.007 0.0
C247 C 0.97885 0.66478 0.21767 0.0
C248 C 0.08743 0.47505 0.22864 0.0
C249 C 0.19574 0.46378 0.22261 0.0
C250 C 0.18324 0.49845 0.2626 0.0
C251 C 0.12982 0.50381 0.26574 0.0
C252 C 0.09934 0.43891 0.18989 0.0
C253 C 0.15281 0.43334 0.18694 0.0
C254 C 1.0338 0.48792 0.22607 0.0
C255 C 0.11843 0.66446 0.15499 0.0
H256 H 0.88937 0.85733 0.99535 0.0
H257 H 0.97903 0.84238 1.01492 0.0
H258 H 0.9006 0.66615 0.99824 0.0
H259 H 0.81124 0.68065 0.97994 0.0
H260 H 0.21481 0.52153 0.29169 0.0
H261 H 0.12223 0.53181 0.29635 0.0
H262 H 0.06782 0.41613 0.1606 0.0
H263 H 0.16089 0.40625 0.15563 0.0
C264 C 0.42308 0.30532 0.34649 0.0
C265 C 0.45441 0.3613 0.35175 0.0
H266 H 0.37791 0.22996 0.38805 0.0
C267 C 0.47092 0.3823 0.40566 0.0
H268 H 0.40674 0.28871 0.30621 0.0
C269 C 0.45066 0.34921 0.4537 0.0
C270 C 0.41627 0.29427 0.44766 0.0
H271 H 0.4948 0.42552 0.41047 0.0
H272 H 0.45846 0.36727 0.49508 0.0
C273 C 0.40566 0.27178 0.3938 0.0
C274 C 0.13379 0.91617 0.94276 0.0
C275 C 0.1535 0.91655 0.88742 0.0
H276 H 0.15311 0.94775 1.02632 0.0
C277 C 0.2041 0.95594 0.87131 0.0
H278 H 0.09534 0.88516 0.956 0.0
C279 C 0.23709 0.991 0.91099 0.0
C280 C 0.22016 0.98705 0.96763 0.0
H281 H 0.22074 0.95566 0.82934 0.0
H282 H 0.27768 1.01856 0.89819 0.0
C283 C 0.16696 0.95148 0.98281 0.0
C284 C 0.63105 0.47447 0.78712 0.0
C285 C 0.63335 0.49573 0.84192 0.0
H286 H 0.60912 0.48065 0.69986 0.0
C287 C 0.61485 0.54194 0.84927 0.0
H288 H 0.64561 0.43938 0.7798 0.0
C289 C 0.59367 0.56553 0.80368 0.0
C290 C 0.59096 0.54432 0.74867 0.0
H291 H 0.61636 0.55958 0.89071 0.0
H292 H 0.57946 0.60073 0.81171 0.0
C293 C 0.6104 0.49847 0.74118 0.0
C294 C 0.92722 0.76636 0.30754 0.0
C295 C 0.94324 0.75738 0.36305 0.0
H296 H 0.92495 0.74527 0.21959 0.0
C297 C 0.97368 0.71946 0.36937 0.0
H298 H 0.90202 0.79336 0.30064 0.0
C299 C 0.98547 0.69018 0.32295 0.0
C300 C 0.96751 0.69747 0.26769 0.0
H301 H 0.98544 0.70981 0.41125 0.0
H302 H 1.00768 0.66064 0.33081 0.0
C303 C 0.93943 0.73749 0.26092 0.0
C304 C 0.46297 0.29715 0.20981 0.0
C305 C 0.49428 0.34431 0.23885 0.0
H306 H 0.45404 0.21404 0.18692 0.0
C307 C 0.54513 0.34454 0.26353 0.0
H308 H 0.4228 0.29489 0.19211 0.0
C309 C 0.5636 0.2979 0.26025 0.0
C310 C 0.5303 0.24966 0.23408 0.0
H311 H 0.56952 0.38021 0.28685 0.0
H312 H 0.60259 0.29876 0.27997 0.0
C313 C 0.48031 0.25025 0.20818 0.0
C314 C 0.05694 0.93467 0.78316 0.0
C315 C 0.10491 0.91914 0.77451 0.0
H316 H 1.0109 0.98931 0.75776 0.0
C317 C 0.14618 0.95019 0.73701 0.0
H318 H 1.02491 0.91118 0.81231 0.0
C319 C 0.13865 0.99429 0.70628 0.0
C320 C 0.08949 1.00853 0.71226 0.0
H321 H 0.18387 0.93929 0.73056 0.0
H322 H 0.17097 1.01637 0.67667 0.0
C323 C 0.04917 0.97924 0.75212 0.0
C324 C 0.75814 0.52998 1.03788 0.0
C325 C 0.74942 0.47982 1.00921 0.0
H326 H 0.81372 0.59395 0.08762 0.0
C327 C 0.78908 0.45178 1.01698 0.0
H328 H 0.72872 0.55285 1.03282 0.0
C329 C 0.83707 0.47447 1.05036 0.0
C330 C 0.84738 0.5265 1.07564 0.0
H331 H 0.78525 0.41441 0.99412 0.0
H332 H 0.86816 0.45328 1.05289 0.0
C333 C 0.80679 0.55347 1.06958 0.0
C334 C 0.77612 0.74703 0.54933 0.0
C335 C 0.78277 0.73598 0.49206 0.0
H336 H 0.72047 0.73386 0.62098 0.0
C337 C 0.73618 0.70267 0.46313 0.0
H338 H 0.8114 0.77253 0.57282 0.0
C339 C 0.6847 0.68013 0.49061 0.0
C340 C 0.6776 0.69072 0.54798 0.0
H341 H 0.73961 0.69429 0.41891 0.0
H342 H 0.65013 0.65439 0.46635 0.0
C343 C 0.72405 0.72495 0.57693 0.0
C344 C 0.35397 0.49914 0.22979 0.0
C345 C 0.36054 0.44651 0.22666 0.0
H346 H 0.29672 0.54612 0.23054 0.0
C347 C 0.31353 0.40048 0.21652 0.0
H348 H 0.38966 0.53496 0.23841 0.0
C349 C 0.26034 0.4064 0.21274 0.0
C350 C 0.25299 0.45858 0.21939 0.0
H351 H 0.31765 0.35937 0.21524 0.0
H352 H 0.22469 0.36958 0.20789 0.0
C353 C 0.30071 0.50517 0.22623 0.0
C354 C 0.60331 0.35611 1.03347 0.0
C355 C 0.65156 0.36833 0.99952 0.0
H356 H 0.5459 0.29779 0.08911 0.0
C357 C 0.67942 0.32833 0.99703 0.0
H358 H 0.58003 0.38531 1.03512 0.0
C359 C 0.66026 0.27813 1.0284 0.0
C360 C 0.61133 0.2654 1.06162 0.0
H361 H 0.71486 0.33493 0.96911 0.0
H362 H 0.68285 0.24844 1.02516 0.0
C363 C 0.58339 0.3055 1.06384 0.0
C364 C 0.98492 0.87184 0.49795 0.0
C365 C 0.96301 0.86944 0.44281 0.0
H366 H 1.02036 0.92208 0.56931 0.0
C367 C 0.97162 0.92072 0.41421 0.0
H368 H 0.97755 0.83378 0.5223 0.0
C369 C 0.99705 0.97201 0.44118 0.0
C370 C 1.01324 0.97378 0.49831 0.0
H371 H 0.95371 0.92118 0.37278 0.0
H372 H 0.9999 1.01022 0.41867 0.0
C373 C 1.00832 0.92277 0.52552 0.0
C374 C 0.20641 0.73824 0.79983 0.0
C375 C 0.19594 0.78673 0.7813 0.0
H376 H 0.26585 0.69351 0.80387 0.0
C377 C 0.23648 0.82574 0.74837 0.0
H378 H 0.17606 0.70803 0.82584 0.0
C379 C 0.2869 0.81731 0.7353 0.0
C380 C 0.29863 0.77025 0.75597 0.0
H381 H 0.23044 0.86446 0.7354 0.0
H382 H 0.31792 0.8491 0.71145 0.0
C383 C 0.25769 0.73027 0.78767 0.0
C384 C 0.65792 0.84472 0.80298 0.0
C385 C 0.67091 0.85618 0.85991 0.0
H386 H 0.6845 0.86473 0.71699 0.0
C387 C 0.72329 0.89269 0.87432 0.0
H388 H 0.61725 0.81727 0.7913 0.0
C389 C 0.76183 0.9183 0.83267 0.0
C390 C 0.74797 0.90939 0.77562 0.0
H391 H 0.73313 0.90403 0.91773 0.0
H392 H 0.801 0.94817 0.84504 0.0
C393 C 0.69609 0.87172 0.76087 0.0
C394 C 0.96376 0.37347 0.33246 0.0
C395 C 0.94859 0.35208 0.38724 0.0
H396 H 0.95006 0.3588 0.24372 0.0
C397 C 0.91957 0.2955 0.39451 0.0
H398 H 0.98611 0.41706 0.32608 0.0
C399 C 0.90227 0.26188 0.34834 0.0
C400 C 0.91072 0.28473 0.29367 0.0
H401 H 0.90447 0.27826 0.4355 0.0
H402 H 0.8759 0.21955 0.35576 0.0
C403 C 0.94358 0.34027 0.28563 0.0
C404 C 0.44045 0.6954 0.37552 0.0
C405 C 0.42898 0.74606 0.38186 0.0
H406 H 0.46273 0.62807 0.41452 0.0
C407 C 0.43635 0.76907 0.43599 0.0
H408 H 0.43398 0.67555 0.33493 0.0
C409 C 0.45316 0.74168 0.48209 0.0
C410 C 0.46172 0.68945 0.4762 0.0
H411 H 0.42625 0.80676 0.44333 0.0
H412 H 0.45739 0.76062 0.5231 0.0
C413 C 0.45591 0.66742 0.42164 0.0
C414 C 0.12039 0.55661 0.89381 0.0
C415 C 0.12399 0.50223 0.89691 0.0
H416 H 0.09721 0.62146 0.93452 0.0
C417 C 0.10506 0.47174 0.94724 0.0
H418 H 0.13384 0.58146 0.85587 0.0
C419 C 0.08319 0.4945 0.99237 0.0
C420 C 0.07981 0.54901 0.98944 0.0
H421 H 0.10788 0.43031 0.95214 0.0
H422 H 0.06936 0.46925 1.03003 0.0
C423 C 0.09905 0.57961 0.93917 0.0
C424 C 0.61403 0.94465 1.01728 0.0
C425 C 0.56632 0.90487 0.9966 0.0
H426 H 0.64744 1.01982 1.06179 0.0
C427 C 0.51402 0.91279 1.00254 0.0
H428 H 0.65486 0.93985 1.01159 0.0
C429 C 0.50959 0.95947 1.03074 0.0
C430 C 0.55752 0.9982 1.0532 0.0
H431 H 0.47701 0.88288 0.98575 0.0
H432 H 0.46881 0.96434 1.0365 0.0
C433 C 0.60971 0.99051 1.04547 0.0
C434 C 0.03939 0.3385 0.47936 0.0
C435 C 0.98763 0.33727 0.50246 0.0
H436 H 0.09988 0.29529 0.46951 0.0
C437 C 0.95732 0.29076 0.5346 0.0
H438 H 0.06305 0.37368 0.45375 0.0
C439 C 0.97698 0.24561 0.54161 0.0
C440 C 1.02814 0.24607 0.51773 0.0
H441 H 0.91655 0.28772 0.55124 0.0
H442 H 0.95175 0.21003 0.56581 0.0
C443 C 0.06005 0.29361 0.4878 0.0
C444 C 0.24042 0.76285 0.23403 0.0
C445 C 0.27464 0.72942 0.2447 0.0
H446 H 0.16517 0.76937 0.19645 0.0
C447 C 0.25796 0.67532 0.22394 0.0
H448 H 0.25191 0.80449 0.25014 0.0
C449 C 0.20813 0.65498 0.19361 0.0
C450 C 0.1738 0.68841 0.18271 0.0
H451 H 0.2837 0.64888 0.23097 0.0
H452 H 0.19636 0.61273 0.17899 0.0
C453 C 0.19083 0.74277 0.2031 0.0
C454 C 0.28918 0.45755 0.73426 0.0
C455 C 0.24992 0.48634 0.73829 0.0
H456 H 0.3693 0.45738 0.70301 0.0
C457 C 0.26215 0.53771 0.70915 0.0
H458 H 0.28278 0.41921 0.75756 0.0
C459 C 0.31304 0.56104 0.67999 0.0
C460 C 0.35304 0.53305 0.67728 0.0
H461 H 0.23321 0.56131 0.71141 0.0
H462 H 0.32149 0.60166 0.6604 0.0
C463 C 0.3395 0.48012 0.70351 0.0
C464 C 0.69799 0.75886 0.93142 0.0
C465 C 0.68389 0.79772 0.96458 0.0
H466 H 0.7595 0.71966 0.91199 0.0
C467 C 0.72172 0.82628 1.00567 0.0
H468 H 0.66992 0.73731 0.89873 0.0
C469 C 0.7728 0.81673 1.0131 0.0
C470 C 0.78761 0.7786 0.97936 0.0
H471 H 0.71305 0.85816 1.03016 0.0
H472 H 0.801 0.83972 1.045 0.0
C473 C 0.74923 0.74907 0.93895 0.0
C474 C 0.49883 0.87553 0.27309 0.0
C475 C 0.45145 0.86185 0.30866 0.0
H476 H 0.5563 0.93773 0.22035 0.0
C477 C 0.43295 0.90612 0.32593 0.0
H478 H 0.51315 0.8427 0.25705 0.0
C479 C 0.45579 0.96009 0.30276 0.0
C480 C 0.4996 0.97233 0.26318 0.0
H481 H 0.39558 0.89719 0.35157 0.0
H482 H 0.43689 0.99149 0.31331 0.0
C483 C 0.52268 0.92996 0.25085 0.0
C484 C 0.17751 0.33434 0.75471 0.0
C485 C 0.15025 0.37443 0.74578 0.0
H486 H 0.18326 0.25395 0.73384 0.0
C487 C 0.10554 0.36152 0.70726 0.0
H488 H 0.21023 0.34137 0.78586 0.0
C489 C 0.08798 0.31004 0.67959 0.0
C490 C 0.11531 0.26992 0.68838 0.0
H491 H 0.0827 0.39066 0.70024 0.0
H492 H 0.05285 0.30168 0.65107 0.0
C493 C 0.1612 0.28356 0.72556 0.0
C494 C 0.80411 0.38915 0.51722 0.0
C495 C 0.85088 0.43582 0.50714 0.0
H496 H 0.7154 0.35719 0.52645 0.0
C497 C 0.84384 0.48832 0.50385 0.0
H498 H 0.80868 0.34818 0.51851 0.0
C499 C 0.79041 0.49379 0.50821 0.0
C500 C 0.74291 0.4467 0.51556 0.0
H501 H 0.87938 0.52464 0.49517 0.0
H502 H 0.78624 0.53483 0.50457 0.0
C503 C 0.75074 0.39445 0.52142 0.0
loop_
_geom_bond_atom_site_label_1
_geom_bond_atom_site_label_2
_geom_bond_distance
_geom_bond_site_symmetry_2
_ccdc_geom_bond_type
C0 N1 1.317 . S
C0 N2 1.348 . S
C0 C3 1.485 . S
N1 C0 1.317 . S
N1 N5 1.370 . S
N2 C0 1.348 . S
N2 C4 1.346 . S
C3 C0 1.485 . S
C3 H7 0.960 . S
C3 H8 0.961 . S
C3 H9 0.960 . S
C4 N2 1.346 . S
C4 N5 1.307 . S
C4 C6 1.486 . S
N5 N1 1.370 . S
N5 C4 1.307 . S
C6 C4 1.486 . S
C6 H10 0.960 . S
C6 H11 0.960 . S
C6 H12 0.959 . S
H7 C3 0.960 . S
H8 C3 0.961 . S
H9 C3 0.960 . S
H10 C6 0.960 . S
H11 C6 0.960 . S
H12 C6 0.959 . S
C13 N14 1.317 . S
C13 N15 1.348 . S
C13 C16 1.485 . S
N14 C13 1.317 . S
N14 N18 1.370 . S
N15 C13 1.348 . S
N15 C17 1.346 . S
C16 C13 1.485 . S
C16 H20 0.960 . S
C16 H21 0.961 . S
C16 H22 0.960 . S
C17 N15 1.346 . S
C17 N18 1.307 . S
C17 C19 1.486 . S
N18 N14 1.370 . S
N18 C17 1.307 . S
C19 C17 1.486 . S
C19 H23 0.960 . S
C19 H24 0.960 . S
C19 H25 0.959 . S
H20 C16 0.960 . S
H21 C16 0.961 . S
H22 C16 0.960 . S
H23 C19 0.960 . S
H24 C19 0.960 . S
H25 C19 0.959 . S
C26 N27 1.317 . S
C26 N28 1.348 . S
C26 C29 1.485 . S
N27 C26 1.317 . S
N27 N31 1.370 . S
N28 C26 1.348 . S
N28 C30 1.346 . S
C29 C26 1.485 . S
C29 H33 0.960 . S
C29 H34 0.961 . S
C29 H35 0.960 . S
C30 N28 1.346 . S
C30 N31 1.307 . S
C30 C32 1.486 . S
N31 N27 1.370 . S
N31 C30 1.307 . S
C32 C30 1.486 . S
C32 H36 0.960 . S
C32 H37 0.960 . S
C32 H38 0.959 . S
H33 C29 0.960 . S
H34 C29 0.961 . S
H35 C29 0.960 . S
H36 C32 0.960 . S
H37 C32 0.960 . S
H38 C32 0.959 . S
C39 N40 1.317 . S
C39 N41 1.348 . S
C39 C42 1.485 . S
N40 C39 1.317 . S
N40 N44 1.370 . S
N41 C39 1.348 . S
N41 C43 1.346 . S
C42 C39 1.485 . S
C42 H46 0.960 . S
C42 H47 0.961 . S
C42 H48 0.960 . S
C43 N41 1.346 . S
C43 N44 1.307 . S
C43 C45 1.486 . S
N44 N40 1.370 . S
N44 C43 1.307 . S
C45 C43 1.486 . S
C45 H49 0.960 . S
C45 H50 0.960 . S
C45 H51 0.959 . S
H46 C42 0.960 . S
H47 C42 0.961 . S
H48 C42 0.960 . S
H49 C45 0.960 . S
H50 C45 0.960 . S
H51 C45 0.959 . S
C52 N53 1.317 . S
C52 N54 1.348 . S
C52 C55 1.485 . S
N53 C52 1.317 . S
N53 N57 1.370 . S
N54 C52 1.348 . S
N54 C56 1.346 . S
C55 C52 1.485 . S
C55 H59 0.960 . S
C55 H60 0.961 1_556 S
C55 H61 0.960 . S
C56 N54 1.346 . S
C56 N57 1.307 . S
C56 C58 1.486 . S
N57 N53 1.370 . S
N57 C56 1.307 . S
C58 C56 1.486 . S
C58 H62 0.960 . S
C58 H63 0.960 . S
C58 H64 0.959 . S
H59 C55 0.960 . S
H60 C55 0.961 1_554 S
H61 C55 0.960 . S
H62 C58 0.960 . S
H63 C58 0.960 . S
H64 C58 0.959 . S
C65 N66 1.317 . S
C65 N67 1.348 . S
C65 C68 1.485 . S
N66 C65 1.317 . S
N66 N70 1.370 . S
N67 C65 1.348 . S
N67 C69 1.346 . S
C68 C65 1.485 . S
C68 H72 0.960 . S
C68 H73 0.961 . S
C68 H74 0.960 . S
C69 N67 1.346 . S
C69 N70 1.307 . S
C69 C71 1.486 . S
N70 N66 1.370 . S
N70 C69 1.307 . S
C71 C69 1.486 . S
C71 H75 0.960 . S
C71 H76 0.960 . S
C71 H77 0.959 . S
H72 C68 0.960 . S
H73 C68 0.961 . S
H74 C68 0.960 . S
H75 C71 0.960 . S
H76 C71 0.960 . S
H77 C71 0.959 . S
C78 N79 1.317 . S
C78 N80 1.348 . S
C78 C81 1.485 . S
N79 C78 1.317 . S
N79 N83 1.370 . S
N80 C78 1.348 . S
N80 C82 1.346 . S
C81 C78 1.485 . S
C81 H85 0.960 . S
C81 H86 0.961 . S
C81 H87 0.960 . S
C82 N80 1.346 . S
C82 N83 1.307 . S
C82 C84 1.486 . S
N83 N79 1.370 . S
N83 C82 1.307 . S
C84 C82 1.486 . S
C84 H88 0.960 . S
C84 H89 0.960 . S
C84 H90 0.959 . S
H85 C81 0.960 . S
H86 C81 0.961 . S
H87 C81 0.960 . S
H88 C84 0.960 . S
H89 C84 0.960 . S
H90 C84 0.959 . S
C91 N92 1.317 . S
C91 N93 1.348 . S
C91 C94 1.485 . S
N92 C91 1.317 . S
N92 N96 1.370 . S
N93 C91 1.348 . S
N93 C95 1.346 . S
C94 C91 1.485 . S
C94 H98 0.960 . S
C94 H99 0.961 . S
C94 H100 0.960 . S
C95 N93 1.346 . S
C95 N96 1.307 . S
C95 C97 1.486 . S
N96 N92 1.370 . S
N96 C95 1.307 . S
C97 C95 1.486 . S
C97 H101 0.960 . S
C97 H102 0.960 . S
C97 H103 0.959 . S
H98 C94 0.960 . S
H99 C94 0.961 . S
H100 C94 0.960 . S
H101 C97 0.960 . S
H102 C97 0.960 . S
H103 C97 0.959 . S
Tb104 C113 2.764 . S
Tb104 O114 2.325 . S
Tb104 O117 2.303 . S
Tb104 O121 2.322 1_545 S
Tb104 O122 2.349 1_545 S
Tb104 O125 2.415 . S
Tb104 O126 2.399 . S
Tb105 O115 2.322 . S
Tb105 O116 2.349 1_655 S
Tb105 O118 2.415 1_545 S
Tb105 O119 2.399 1_545 S
Tb105 O120 2.325 1_645 S
Tb105 O123 2.303 1_545 S
Tb105 C134 2.764 1_545 S
C106 O122 1.261 . S
C106 O123 1.257 1_455 S
C107 C110 1.358 . S
C107 C111 1.332 . S
C107 C113 1.504 . S
C108 C109 1.373 . S
C108 C112 1.308 . S
C109 C108 1.373 . S
C109 C110 1.429 . S
C109 H136 0.932 . S
C110 C107 1.358 . S
C110 C109 1.429 . S
C110 H137 0.930 . S
C111 C107 1.332 . S
C111 C112 1.394 . S
C111 H138 0.932 . S
C112 C108 1.308 . S
C112 C111 1.394 . S
C112 H139 0.929 . S
C113 Tb104 2.764 . S
C113 C107 1.504 . S
C113 O125 1.239 . S
C113 O126 1.263 . S
O114 Tb104 2.325 . S
O114 C124 1.236 . S
O115 Tb105 2.322 . S
O115 C124 1.257 1_655 S
O116 Tb105 2.349 1_455 S
O116 C127 1.261 . S
O117 Tb104 2.303 . S
O117 C127 1.257 . S
O118 Tb105 2.415 1_565 S
O118 C134 1.239 . S
O119 Tb105 2.399 1_565 S
O119 C134 1.263 . S
O120 Tb105 2.325 1_465 S
O120 C135 1.236 . S
O121 Tb104 2.322 1_565 S
O121 C135 1.257 . S
O122 Tb104 2.349 1_565 S
O122 C106 1.261 . S
O123 Tb105 2.303 1_565 S
O123 C106 1.257 1_655 S
C124 O114 1.236 . S
C124 O115 1.257 1_455 S
O125 Tb104 2.415 . S
O125 C113 1.239 . S
O126 Tb104 2.399 . S
O126 C113 1.263 . S
C127 O116 1.261 . S
C127 O117 1.257 . S
C128 C131 1.358 . S
C128 C132 1.332 . S
C128 C134 1.504 . S
C129 C130 1.373 . S
C129 C133 1.308 . S
C130 C129 1.373 . S
C130 C131 1.429 . S
C130 H140 0.932 . S
C131 C128 1.358 . S
C131 C130 1.429 . S
C131 H141 0.930 . S
C132 C128 1.332 . S
C132 C133 1.394 . S
C132 H142 0.932 . S
C133 C129 1.308 . S
C133 C132 1.394 . S
C133 H143 0.929 . S
C134 Tb105 2.764 1_565 S
C134 O118 1.239 . S
C134 O119 1.263 . S
C134 C128 1.504 . S
C135 O120 1.236 . S
C135 O121 1.257 . S
H136 C109 0.932 . S
H137 C110 0.930 . S
H138 C111 0.932 . S
H139 C112 0.929 . S
H140 C130 0.932 . S
H141 C131 0.930 . S
H142 C132 0.932 . S
H143 C133 0.929 . S
Tb144 C153 2.764 . S
Tb144 O154 2.325 . S
Tb144 O157 2.303 . S
Tb144 O161 2.322 1_545 S
Tb144 O162 2.349 1_545 S
Tb144 O165 2.415 . S
Tb144 O166 2.399 . S
Tb145 O155 2.322 . S
Tb145 O156 2.349 . S
Tb145 O158 2.415 1_544 S
Tb145 O159 2.399 1_545 S
Tb145 O160 2.325 1_545 S
Tb145 O163 2.303 . S
Tb145 C174 2.764 1_544 S
C146 O162 1.261 . S
C146 O163 1.257 1_565 S
C147 C150 1.358 . S
C147 C151 1.332 . S
C147 C153 1.504 . S
C148 C149 1.373 . S
C148 C152 1.308 . S
C149 C148 1.373 . S
C149 C150 1.429 . S
C149 H176 0.932 . S
C150 C147 1.358 . S
C150 C149 1.429 . S
C150 H177 0.930 . S
C151 C147 1.332 . S
C151 C152 1.394 . S
C151 H178 0.932 . S
C152 C148 1.308 . S
C152 C151 1.394 . S
C152 H179 0.929 . S
C153 Tb144 2.764 . S
C153 C147 1.504 . S
C153 O165 1.239 . S
C153 O166 1.263 . S
O154 Tb144 2.325 . S
O154 C164 1.236 . S
O155 Tb145 2.322 . S
O155 C164 1.257 . S
O156 Tb145 2.349 . S
O156 C167 1.261 . S
O157 Tb144 2.303 . S
O157 C167 1.257 . S
O158 Tb145 2.415 1_566 S
O158 C174 1.239 . S
O159 Tb145 2.399 1_565 S
O159 C174 1.263 1_554 S
O160 Tb145 2.325 1_565 S
O160 C175 1.236 . S
O161 Tb144 2.322 1_565 S
O161 C175 1.257 . S
O162 Tb144 2.349 1_565 S
O162 C146 1.261 . S
O163 Tb145 2.303 . S
O163 C146 1.257 1_545 S
C164 O154 1.236 . S
C164 O155 1.257 . S
O165 Tb144 2.415 . S
O165 C153 1.239 . S
O166 Tb144 2.399 . S
O166 C153 1.263 . S
C167 O156 1.261 . S
C167 O157 1.257 . S
C168 C171 1.358 . S
C168 C172 1.332 . S
C168 C174 1.504 . S
C169 C170 1.373 . S
C169 C173 1.308 . S
C170 C169 1.373 . S
C170 C171 1.429 . S
C170 H180 0.932 . S
C171 C168 1.358 . S
C171 C170 1.429 . S
C171 H181 0.930 . S
C172 C168 1.332 . S
C172 C173 1.394 . S
C172 H182 0.932 . S
C173 C169 1.308 . S
C173 C172 1.394 . S
C173 H183 0.929 . S
C174 Tb145 2.764 1_566 S
C174 O158 1.239 . S
C174 O159 1.263 1_556 S
C174 C168 1.504 . S
C175 O160 1.236 . S
C175 O161 1.257 . S
H176 C149 0.932 . S
H177 C150 0.930 . S
H178 C151 0.932 . S
H179 C152 0.929 . S
H180 C170 0.932 . S
H181 C171 0.930 . S
H182 C172 0.932 . S
H183 C173 0.929 . S
Tb184 C193 2.764 . S
Tb184 O194 2.325 . S
Tb184 O197 2.303 . S
Tb184 O201 2.322 . S
Tb184 O202 2.349 . S
Tb184 O205 2.415 . S
Tb184 O206 2.399 . S
Tb185 O195 2.322 . S
Tb185 O196 2.349 . S
Tb185 O198 2.415 . S
Tb185 O199 2.399 . S
Tb185 O200 2.325 . S
Tb185 O203 2.303 . S
Tb185 C214 2.764 . S
C186 O202 1.261 . S
C186 O203 1.257 . S
C187 C190 1.358 . S
C187 C191 1.332 . S
C187 C193 1.504 . S
C188 C189 1.373 . S
C188 C192 1.308 . S
C189 C188 1.373 . S
C189 C190 1.429 . S
C189 H216 0.932 . S
C190 C187 1.358 . S
C190 C189 1.429 . S
C190 H217 0.930 . S
C191 C187 1.332 . S
C191 C192 1.394 . S
C191 H218 0.932 . S
C192 C188 1.308 . S
C192 C191 1.394 . S
C192 H219 0.929 . S
C193 Tb184 2.764 . S
C193 C187 1.504 . S
C193 O205 1.239 . S
C193 O206 1.263 . S
O194 Tb184 2.325 . S
O194 C204 1.236 . S
O195 Tb185 2.322 . S
O195 C204 1.257 . S
O196 Tb185 2.349 . S
O196 C207 1.261 . S
O197 Tb184 2.303 . S
O197 C207 1.257 . S
O198 Tb185 2.415 . S
O198 C214 1.239 . S
O199 Tb185 2.399 . S
O199 C214 1.263 . S
O200 Tb185 2.325 . S
O200 C215 1.236 . S
O201 Tb184 2.322 . S
O201 C215 1.257 . S
O202 Tb184 2.349 . S
O202 C186 1.261 . S
O203 Tb185 2.303 . S
O203 C186 1.257 . S
C204 O194 1.236 . S
C204 O195 1.257 . S
O205 Tb184 2.415 . S
O205 C193 1.239 . S
O206 Tb184 2.399 . S
O206 C193 1.263 . S
C207 O196 1.261 . S
C207 O197 1.257 . S
C208 C211 1.358 . S
C208 C212 1.332 . S
C208 C214 1.504 . S
C209 C210 1.373 . S
C209 C213 1.308 . S
C210 C209 1.373 . S
C210 C211 1.429 . S
C210 H220 0.932 . S
C211 C208 1.358 . S
C211 C210 1.429 . S
C211 H221 0.930 . S
C212 C208 1.332 . S
C212 C213 1.394 . S
C212 H222 0.932 . S
C213 C209 1.308 . S
C213 C212 1.394 . S
C213 H223 0.929 . S
C214 Tb185 2.764 . S
C214 O198 1.239 . S
C214 O199 1.263 . S
C214 C208 1.504 . S
C215 O200 1.236 . S
C215 O201 1.257 . S
H216 C189 0.932 . S
H217 C190 0.930 . S
H218 C191 0.932 . S
H219 C192 0.929 . S
H220 C210 0.932 . S
H221 C211 0.930 . S
H222 C212 0.932 . S
H223 C213 0.929 . S
Tb224 C233 2.764 . S
Tb224 O234 2.325 . S
Tb224 O237 2.303 1_556 S
Tb224 O241 2.322 1_656 S
Tb224 O242 2.349 1_655 S
Tb224 O245 2.415 . S
Tb224 O246 2.399 . S
Tb225 O235 2.322 1_455 S
Tb225 O236 2.349 1_455 S
Tb225 O238 2.415 . S
Tb225 O239 2.399 . S
Tb225 O240 2.325 . S
Tb225 O243 2.303 1_554 S
Tb225 C254 2.764 . S
C226 O242 1.261 . S
C226 O243 1.257 . S
C227 C230 1.358 . S
C227 C231 1.332 . S
C227 C233 1.504 . S
C228 C229 1.373 . S
C228 C232 1.308 . S
C229 C228 1.373 . S
C229 C230 1.429 . S
C229 H256 0.932 . S
C230 C227 1.358 . S
C230 C229 1.429 . S
C230 H257 0.930 . S
C231 C227 1.332 . S
C231 C232 1.394 . S
C231 H258 0.932 . S
C232 C228 1.308 . S
C232 C231 1.394 . S
C232 H259 0.929 . S
C233 Tb224 2.764 . S
C233 C227 1.504 . S
C233 O245 1.239 . S
C233 O246 1.263 . S
O234 Tb224 2.325 . S
O234 C244 1.236 . S
O235 Tb225 2.322 1_655 S
O235 C244 1.257 1_554 S
O236 Tb225 2.349 1_655 S
O236 C247 1.261 . S
O237 Tb224 2.303 1_554 S
O237 C247 1.257 . S
O238 Tb225 2.415 . S
O238 C254 1.239 . S
O239 Tb225 2.399 . S
O239 C254 1.263 . S
O240 Tb225 2.325 . S
O240 C255 1.236 . S
O241 Tb224 2.322 1_454 S
O241 C255 1.257 . S
O242 Tb224 2.349 1_455 S
O242 C226 1.261 . S
O243 Tb225 2.303 1_556 S
O243 C226 1.257 . S
C244 O234 1.236 . S
C244 O235 1.257 1_556 S
O245 Tb224 2.415 . S
O245 C233 1.239 . S
O246 Tb224 2.399 . S
O246 C233 1.263 . S
C247 O236 1.261 . S
C247 O237 1.257 . S
C248 C251 1.358 . S
C248 C252 1.332 . S
C248 C254 1.504 . S
C249 C250 1.373 . S
C249 C253 1.308 . S
C250 C249 1.373 . S
C250 C251 1.429 . S
C250 H260 0.932 . S
C251 C248 1.358 . S
C251 C250 1.429 . S
C251 H261 0.930 . S
C252 C248 1.332 . S
C252 C253 1.394 . S
C252 H262 0.932 . S
C253 C249 1.308 . S
C253 C252 1.394 . S
C253 H263 0.929 . S
C254 Tb225 2.764 . S
C254 O238 1.239 . S
C254 O239 1.263 . S
C254 C248 1.504 . S
C255 O240 1.236 . S
C255 O241 1.257 . S
H256 C229 0.932 . S
H257 C230 0.930 . S
H258 C231 0.932 . S
H259 C232 0.929 . S
H260 C250 0.932 . S
H261 C251 0.930 . S
H262 C252 0.932 . S
H263 C253 0.929 . S
C264 C265 1.387 . S
C264 H268 0.950 . S
C264 C273 1.390 . S
C265 C264 1.387 . S
C265 C267 1.387 . S
H266 C273 0.950 . S
C267 C265 1.387 . S
C267 C269 1.390 . S
C267 H271 0.950 . S
H268 C264 0.950 . S
C269 C267 1.390 . S
C269 C270 1.387 . S
C269 H272 0.950 . S
C270 C269 1.387 . S
C270 C273 1.387 . S
H271 C267 0.950 . S
H272 C269 0.950 . S
C273 C264 1.390 . S
C273 H266 0.950 . S
C273 C270 1.387 . S
C274 C275 1.387 . S
C274 H278 0.950 . S
C274 C283 1.390 . S
C275 C274 1.387 . S
C275 C277 1.387 . S
H276 C283 0.950 . S
C277 C275 1.387 . S
C277 C279 1.390 . S
C277 H281 0.950 . S
H278 C274 0.950 . S
C279 C277 1.390 . S
C279 C280 1.387 . S
C279 H282 0.950 . S
C280 C279 1.387 . S
C280 C283 1.387 . S
H281 C277 0.950 . S
H282 C279 0.950 . S
C283 C274 1.390 . S
C283 H276 0.950 . S
C283 C280 1.387 . S
C284 C285 1.387 . S
C284 H288 0.950 . S
C284 C293 1.390 . S
C285 C284 1.387 . S
C285 C287 1.387 . S
H286 C293 0.950 . S
C287 C285 1.387 . S
C287 C289 1.390 . S
C287 H291 0.950 . S
H288 C284 0.950 . S
C289 C287 1.390 . S
C289 C290 1.387 . S
C289 H292 0.950 . S
C290 C289 1.387 . S
C290 C293 1.387 . S
H291 C287 0.950 . S
H292 C289 0.950 . S
C293 C284 1.390 . S
C293 H286 0.950 . S
C293 C290 1.387 . S
C294 C295 1.387 . S
C294 H298 0.950 . S
C294 C303 1.390 . S
C295 C294 1.387 . S
C295 C297 1.387 . S
H296 C303 0.950 . S
C297 C295 1.387 . S
C297 C299 1.390 . S
C297 H301 0.950 . S
H298 C294 0.950 . S
C299 C297 1.390 . S
C299 C300 1.387 . S
C299 H302 0.950 . S
C300 C299 1.387 . S
C300 C303 1.387 . S
H301 C297 0.950 . S
H302 C299 0.950 . S
C303 C294 1.390 . S
C303 H296 0.950 . S
C303 C300 1.387 . S
C304 C305 1.387 . S
C304 H308 0.950 . S
C304 C313 1.390 . S
C305 C304 1.387 . S
C305 C307 1.387 . S
H306 C313 0.950 . S
C307 C305 1.387 . S
C307 C309 1.390 . S
C307 H311 0.950 . S
H308 C304 0.950 . S
C309 C307 1.390 . S
C309 C310 1.387 . S
C309 H312 0.950 . S
C310 C309 1.387 . S
C310 C313 1.387 . S
H311 C307 0.950 . S
H312 C309 0.950 . S
C313 C304 1.390 . S
C313 H306 0.950 . S
C313 C310 1.387 . S
C314 C315 1.387 . S
C314 H318 0.950 1_455 S
C314 C323 1.390 . S
C315 C314 1.387 . S
C315 C317 1.387 . S
H316 C323 0.966 . S
C317 C315 1.387 . S
C317 C319 1.390 . S
C317 H321 0.950 . S
H318 C314 0.950 1_655 S
C319 C317 1.390 . S
C319 C320 1.387 . S
C319 H322 0.950 . S
C320 C319 1.387 . S
C320 C323 1.387 . S
H321 C317 0.950 . S
H322 C319 0.950 . S
C323 C314 1.390 . S
C323 H316 0.966 . S
C323 C320 1.387 . S
C324 C325 1.387 . S
C324 H328 0.950 . S
C324 C333 1.390 . S
C325 C324 1.387 . S
C325 C327 1.387 . S
H326 C333 0.950 . S
C327 C325 1.387 . S
C327 C329 1.390 . S
C327 H331 0.950 . S
H328 C324 0.950 . S
C329 C327 1.390 . S
C329 C330 1.387 . S
C329 H332 0.947 1_556 S
C330 C329 1.387 . S
C330 C333 1.387 . S
H331 C327 0.950 . S
H332 C329 0.947 1_554 S
C333 C324 1.390 . S
C333 H326 0.950 . S
C333 C330 1.387 . S
C334 C335 1.387 . S
C334 H338 0.950 . S
C334 C343 1.390 . S
C335 C334 1.387 . S
C335 C337 1.387 . S
H336 C343 0.950 . S
C337 C335 1.387 . S
C337 C339 1.390 . S
C337 H341 0.950 . S
H338 C334 0.950 . S
C339 C337 1.390 . S
C339 C340 1.387 . S
C339 H342 0.950 . S
C340 C339 1.387 . S
C340 C343 1.387 . S
H341 C337 0.950 . S
H342 C339 0.950 . S
C343 C334 1.390 . S
C343 H336 0.950 . S
C343 C340 1.387 . S
C344 C345 1.387 . S
C344 H348 0.950 . S
C344 C353 1.390 . S
C345 C344 1.387 . S
C345 C347 1.387 . S
H346 C353 0.950 . S
C347 C345 1.387 . S
C347 C349 1.390 . S
C347 H351 0.950 . S
H348 C344 0.950 . S
C349 C347 1.390 . S
C349 C350 1.387 . S
C349 H352 0.950 . S
C350 C349 1.387 . S
C350 C353 1.387 . S
H351 C347 0.950 . S
H352 C349 0.950 . S
C353 C344 1.390 . S
C353 H346 0.950 . S
C353 C350 1.387 . S
C354 C355 1.387 . S
C354 H358 0.950 . S
C354 C363 1.390 . S
C355 C354 1.387 . S
C355 C357 1.387 . S
H356 C363 0.950 . S
C357 C355 1.387 . S
C357 C359 1.390 . S
C357 H361 0.950 . S
H358 C354 0.950 . S
C359 C357 1.390 . S
C359 C360 1.387 . S
C359 H362 0.950 1_556 S
C360 C359 1.387 . S
C360 C363 1.387 . S
H361 C357 0.950 . S
H362 C359 0.950 1_554 S
C363 C354 1.390 . S
C363 H356 0.950 . S
C363 C360 1.387 . S
C364 C365 1.387 . S
C364 H368 0.950 . S
C364 C373 1.390 . S
C365 C364 1.387 . S
C365 C367 1.387 . S
H366 C373 0.950 . S
C367 C365 1.387 . S
C367 C369 1.390 . S
C367 H371 0.950 . S
H368 C364 0.950 . S
C369 C367 1.390 . S
C369 C370 1.387 . S
C369 H372 0.950 . S
C370 C369 1.387 . S
C370 C373 1.387 . S
H371 C367 0.950 . S
H372 C369 0.950 . S
C373 C364 1.390 . S
C373 H366 0.950 . S
C373 C370 1.387 . S
C374 C375 1.387 . S
C374 H378 0.950 . S
C374 C383 1.390 . S
C375 C374 1.387 . S
C375 C377 1.387 . S
H376 C383 0.950 . S
C377 C375 1.387 . S
C377 C379 1.390 . S
C377 H381 0.950 . S
H378 C374 0.950 . S
C379 C377 1.390 . S
C379 C380 1.387 . S
C379 H382 0.950 . S
C380 C379 1.387 . S
C380 C383 1.387 . S
H381 C377 0.950 . S
H382 C379 0.950 . S
C383 C374 1.390 . S
C383 H376 0.950 . S
C383 C380 1.387 . S
C384 C385 1.387 . S
C384 H388 0.950 . S
C384 C393 1.390 . S
C385 C384 1.387 . S
C385 C387 1.387 . S
H386 C393 0.950 . S
C387 C385 1.387 . S
C387 C389 1.390 . S
C387 H391 0.950 . S
H388 C384 0.950 . S
C389 C387 1.390 . S
C389 C390 1.387 . S
C389 H392 0.950 . S
C390 C389 1.387 . S
C390 C393 1.387 . S
H391 C387 0.950 . S
H392 C389 0.950 . S
C393 C384 1.390 . S
C393 H386 0.950 . S
C393 C390 1.387 . S
C394 C395 1.387 . S
C394 H398 0.950 . S
C394 C403 1.390 . S
C395 C394 1.387 . S
C395 C397 1.387 . S
H396 C403 0.950 . S
C397 C395 1.387 . S
C397 C399 1.390 . S
C397 H401 0.950 . S
H398 C394 0.950 . S
C399 C397 1.390 . S
C399 C400 1.387 . S
C399 H402 0.950 . S
C400 C399 1.387 . S
C400 C403 1.387 . S
H401 C397 0.950 . S
H402 C399 0.950 . S
C403 C394 1.390 . S
C403 H396 0.950 . S
C403 C400 1.387 . S
C404 C405 1.387 . S
C404 H408 0.950 . S
C404 C413 1.390 . S
C405 C404 1.387 . S
C405 C407 1.387 . S
H406 C413 0.950 . S
C407 C405 1.387 . S
C407 C409 1.390 . S
C407 H411 0.950 . S
H408 C404 0.950 . S
C409 C407 1.390 . S
C409 C410 1.387 . S
C409 H412 0.950 . S
C410 C409 1.387 . S
C410 C413 1.387 . S
H411 C407 0.950 . S
H412 C409 0.950 . S
C413 C404 1.390 . S
C413 H406 0.950 . S
C413 C410 1.387 . S
C414 C415 1.387 . S
C414 H418 0.950 . S
C414 C423 1.390 . S
C415 C414 1.387 . S
C415 C417 1.387 . S
H416 C423 0.950 . S
C417 C415 1.387 . S
C417 C419 1.390 . S
C417 H421 0.950 . S
H418 C414 0.950 . S
C419 C417 1.390 . S
C419 C420 1.387 . S
C419 H422 0.950 . S
C420 C419 1.387 . S
C420 C423 1.387 . S
H421 C417 0.950 . S
H422 C419 0.950 . S
C423 C414 1.390 . S
C423 H416 0.950 . S
C423 C420 1.387 . S
C424 C425 1.387 . S
C424 H428 0.950 . S
C424 C433 1.390 . S
C425 C424 1.387 . S
C425 C427 1.387 . S
H426 C433 0.950 . S
C427 C425 1.387 . S
C427 C429 1.390 . S
C427 H431 0.950 . S
H428 C424 0.950 . S
C429 C427 1.390 . S
C429 C430 1.387 1_556 S
C429 H432 0.950 1_556 S
C430 C429 1.387 1_554 S
C430 C433 1.387 1_554 S
H431 C427 0.950 . S
H432 C429 0.950 1_554 S
C433 C424 1.390 . S
C433 H426 0.950 . S
C433 C430 1.387 1_556 S
C434 C435 1.387 . S
C434 H438 0.950 . S
C434 C443 1.390 . S
C435 C434 1.387 . S
C435 C437 1.387 . S
H436 C443 0.950 . S
C437 C435 1.387 . S
C437 C439 1.390 . S
C437 H441 0.950 . S
H438 C434 0.950 . S
C439 C437 1.390 . S
C439 C440 1.387 . S
C439 H442 0.950 1_655 S
C440 C439 1.387 . S
C440 C443 1.387 . S
H441 C437 0.950 . S
H442 C439 0.950 1_455 S
C443 C434 1.390 . S
C443 H436 0.950 . S
C443 C440 1.387 . S
C444 C445 1.387 . S
C444 H448 0.950 . S
C444 C453 1.390 . S
C445 C444 1.387 . S
C445 C447 1.387 . S
H446 C453 0.950 . S
C447 C445 1.387 . S
C447 C449 1.390 . S
C447 H451 0.950 . S
H448 C444 0.950 . S
C449 C447 1.390 . S
C449 C450 1.387 . S
C449 H452 0.950 . S
C450 C449 1.387 . S
C450 C453 1.387 . S
H451 C447 0.950 . S
H452 C449 0.950 . S
C453 C444 1.390 . S
C453 H446 0.950 . S
C453 C450 1.387 . S
C454 C455 1.387 . S
C454 H458 0.950 . S
C454 C463 1.390 . S
C455 C454 1.387 . S
C455 C457 1.387 . S
H456 C463 0.950 . S
C457 C455 1.387 . S
C457 C459 1.390 . S
C457 H461 0.950 . S
H458 C454 0.950 . S
C459 C457 1.390 . S
C459 C460 1.387 . S
C459 H462 0.950 . S
C460 C459 1.387 . S
C460 C463 1.387 . S
H461 C457 0.950 . S
H462 C459 0.950 . S
C463 C454 1.390 . S
C463 H456 0.950 . S
C463 C460 1.387 . S
C464 C465 1.387 . S
C464 H468 0.950 . S
C464 C473 1.390 . S
C465 C464 1.387 . S
C465 C467 1.387 . S
H466 C473 0.950 . S
C467 C465 1.387 . S
C467 C469 1.390 . S
C467 H471 0.950 . S
H468 C464 0.950 . S
C469 C467 1.390 . S
C469 C470 1.387 . S
C469 H472 0.950 . S
C470 C469 1.387 . S
C470 C473 1.387 . S
H471 C467 0.950 . S
H472 C469 0.950 . S
C473 C464 1.390 . S
C473 H466 0.950 . S
C473 C470 1.387 . S
C474 C475 1.387 . S
C474 H478 0.950 . S
C474 C483 1.390 . S
C475 C474 1.387 . S
C475 C477 1.387 . S
H476 C483 0.950 . S
C477 C475 1.387 . S
C477 C479 1.390 . S
C477 H481 0.950 . S
H478 C474 0.950 . S
C479 C477 1.390 . S
C479 C480 1.387 . S
C479 H482 0.950 . S
C480 C479 1.387 . S
C480 C483 1.387 . S
H481 C477 0.950 . S
H482 C479 0.950 . S
C483 C474 1.390 . S
C483 H476 0.950 . S
C483 C480 1.387 . S
C484 C485 1.387 . S
C484 H488 0.950 . S
C484 C493 1.390 . S
C485 C484 1.387 . S
C485 C487 1.387 . S
H486 C493 0.950 . S
C487 C485 1.387 . S
C487 C489 1.390 . S
C487 H491 0.950 . S
H488 C484 0.950 . S
C489 C487 1.390 . S
C489 C490 1.387 . S
C489 H492 0.950 . S
C490 C489 1.387 . S
C490 C493 1.387 . S
H491 C487 0.950 . S
H492 C489 0.950 . S
C493 C484 1.390 . S
C493 H486 0.950 . S
C493 C490 1.387 . S
C494 C495 1.387 . S
C494 H498 0.950 . S
C494 C503 1.390 . S
C495 C494 1.387 . S
C495 C497 1.387 . S
H496 C503 0.950 . S
C497 C495 1.387 . S
C497 C499 1.390 . S
C497 H501 0.950 . S
H498 C494 0.950 . S
C499 C497 1.390 . S
C499 C500 1.387 . S
C499 H502 0.950 . S
C500 C499 1.387 . S
C500 C503 1.387 . S
H501 C497 0.950 . S
H502 C499 0.950 . S
C503 C494 1.390 . S
C503 H496 0.950 . S
C503 C500 1.387 . S
C265 N1 0.843 . S
C270 C108 0.856 . S
C275 N18 1.208 . S
C280 C169 1.223 . S
C290 C207 2.215 . S
C285 N28 2.278 . S
C295 N40 2.660 . S
C300 C247 2.688 . S
C310 C167 1.469 . S
C305 N5 1.460 . S
C320 C135 1.660 . S
C315 N14 1.499 . S
C330 C244 1.907 . S
C325 N31 1.902 . S
C340 C204 1.747 . S
C335 N41 1.772 . S
C345 N2 1.119 . S
C350 C249 1.156 . S
C360 C164 2.566 1_556 S
C355 N27 2.560 . S
C365 N44 2.428 . S
C370 C106 2.464 1_655 S
C375 N15 1.154 . S
C380 C209 1.214 . S
C390 C129 1.341 . S
C385 N57 1.357 . S
C395 N70 0.904 . S
C400 C148 0.967 . S
C405 N79 2.456 . S
C410 C186 2.480 . S
C415 N93 2.448 . S
C420 C226 2.429 . S
C425 N54 1.227 . S
C430 C146 1.345 . S
C440 C124 2.165 1_655 S
C435 N66 2.112 . S
C450 C255 1.534 . S
C445 N80 1.582 . S
C460 C215 1.960 . S
C455 N96 1.976 . S
C465 N53 1.420 . S
C470 C228 1.382 . S
C480 C175 2.216 . S
C475 N83 2.123 . S
C490 C127 2.485 . S
C485 N92 2.549 . S
C495 N67 1.379 . S
C500 C188 1.436 . S
