# Generated by pormake.
# Topology pyr, (3,6)-cn, num edge types: 1
# Building blocks:
#     Node 0, Type 0, BuildingBlock: KAKCAD_clean_linker_0, # of connection points: 3
#     Node 1, Type 0, BuildingBlock: KAKCAD_clean_linker_0, # of connection points: 3
#     Node 2, Type 0, BuildingBlock: KAKCAD_clean_linker_0, # of connection points: 3
#     Node 3, Type 0, BuildingBlock: KAKCAD_clean_linker_0, # of connection points: 3
#     Node 4, Type 0, BuildingBlock: KAKCAD_clean_linker_0, # of connection points: 3
#     Node 5, Type 0, BuildingBlock: KAKCAD_clean_linker_0, # of connection points: 3
#     Node 6, Type 0, BuildingBlock: KAKCAD_clean_linker_0, # of connection points: 3
#     Node 7, Type 0, BuildingBlock: KAKCAD_clean_linker_0, # of connection points: 3
#     Node 8, Type 1, BuildingBlock: MIFKUJ_clean_sbu_0, # of connection points: 6
#     Node 9, Type 1, BuildingBlock: MIFKUJ_clean_sbu_0, # of connection points: 6
#     Node 10, Type 1, BuildingBlock: MIFKUJ_clean_sbu_0, # of connection points: 6
#     Node 11, Type 1, BuildingBlock: MIFKUJ_clean_sbu_0, # of connection points: 6
#     Edge 12, Type (0, 1), BuildingBlock: OJICUG_clean_linker_0, # of connection points: 2
#     Edge 13, Type (0, 1), BuildingBlock: OJICUG_clean_linker_0, # of connection points: 2
#     Edge 14, Type (0, 1), BuildingBlock: OJICUG_clean_linker_0, # of connection points: 2
#     Edge 15, Type (0, 1), BuildingBlock: OJICUG_clean_linker_0, # of connection points: 2
#     Edge 16, Type (0, 1), BuildingBlock: OJICUG_clean_linker_0, # of connection points: 2
#     Edge 17, Type (0, 1), BuildingBlock: OJICUG_clean_linker_0, # of connection points: 2
#     Edge 18, Type (0, 1), BuildingBlock: OJICUG_clean_linker_0, # of connection points: 2
#     Edge 19, Type (0, 1), BuildingBlock: OJICUG_clean_linker_0, # of connection points: 2
#     Edge 20, Type (0, 1), BuildingBlock: OJICUG_clean_linker_0, # of connection points: 2
#     Edge 21, Type (0, 1), BuildingBlock: OJICUG_clean_linker_0, # of connection points: 2
#     Edge 22, Type (0, 1), BuildingBlock: OJICUG_clean_linker_0, # of connection points: 2
#     Edge 23, Type (0, 1), BuildingBlock: OJICUG_clean_linker_0, # of connection points: 2
#     Edge 24, Type (0, 1), BuildingBlock: OJICUG_clean_linker_0, # of connection points: 2
#     Edge 25, Type (0, 1), BuildingBlock: OJICUG_clean_linker_0, # of connection points: 2
#     Edge 26, Type (0, 1), BuildingBlock: OJICUG_clean_linker_0, # of connection points: 2
#     Edge 27, Type (0, 1), BuildingBlock: OJICUG_clean_linker_0, # of connection points: 2
#     Edge 28, Type (0, 1), BuildingBlock: OJICUG_clean_linker_0, # of connection points: 2
#     Edge 29, Type (0, 1), BuildingBlock: OJICUG_clean_linker_0, # of connection points: 2
#     Edge 30, Type (0, 1), BuildingBlock: OJICUG_clean_linker_0, # of connection points: 2
#     Edge 31, Type (0, 1), BuildingBlock: OJICUG_clean_linker_0, # of connection points: 2
#     Edge 32, Type (0, 1), BuildingBlock: OJICUG_clean_linker_0, # of connection points: 2
#     Edge 33, Type (0, 1), BuildingBlock: OJICUG_clean_linker_0, # of connection points: 2
#     Edge 34, Type (0, 1), BuildingBlock: OJICUG_clean_linker_0, # of connection points: 2
#     Edge 35, Type (0, 1), BuildingBlock: OJICUG_clean_linker_0, # of connection points: 2
# Relax obj value: 0.030
# Max RMSD: 0.082
# Mean RMSD: 0.049
data_MOF--net-pyr--node1-MIFKUJ_clean_sbu_0--node2-KAKCAD_clean_linker_0--edge1-OJICUG_clean_linker_0
_symmetry_space_group_name_H-M    P1
_symmetry_Int_Tables_number       1
_symmetry_cell_setting            triclinic
loop_
_symmetry_equiv_pos_as_xyz
'x, y, z'
_cell_length_a     38.255629
_cell_length_b     34.202075
_cell_length_c     36.580413
_cell_angle_alpha  86.342863
_cell_angle_beta   88.090841
_cell_angle_gamma 96.163365
loop_
_atom_site_label
_atom_site_type_symbol
_atom_site_fract_x
_atom_site_fract_y
_atom_site_fract_z
_atom_type_partial_charge
C0 C 0.10992 0.12155 0.30227 0.0
C1 C 0.12771 0.1034 0.33051 0.0
C2 C 0.12853 0.14106 0.27191 0.0
C3 C 0.16541 0.14321 0.26921 0.0
C4 C 0.18333 0.12559 0.29769 0.0
C5 C 0.16464 0.10583 0.32807 0.0
C6 C 0.18468 0.16247 0.23595 0.0
C7 C 0.17395 0.19697 0.21915 0.0
C8 C 0.18885 0.21279 0.18509 0.0
C9 C 0.21605 0.1946 0.16873 0.0
C10 C 0.22811 0.16106 0.186 0.0
C11 C 0.21217 0.14501 0.21947 0.0
C12 C 0.25663 0.14197 0.16855 0.0
C13 C 0.25641 0.13553 0.13103 0.0
C14 C 0.28413 0.12982 0.18945 0.0
C15 C 0.31095 0.11157 0.17312 0.0
C16 C 0.31071 0.10499 0.1356 0.0
C17 C 0.17497 0.24722 0.16605 0.0
C18 C 0.13885 0.2516 0.16872 0.0
C19 C 0.19743 0.27554 0.14454 0.0
C20 C 0.18404 0.30709 0.12579 0.0
C21 C 0.14796 0.31166 0.12875 0.0
C22 C 0.12561 0.28364 0.1507 0.0
C23 C 0.28318 0.11717 0.11471 0.0
H24 H 0.08152 0.12077 0.30363 0.0
H25 H 0.11388 0.1538 0.25019 0.0
H26 H 0.21177 0.12703 0.29649 0.0
H27 H 0.17906 0.09191 0.34932 0.0
H28 H 0.15368 0.21133 0.23264 0.0
H29 H 0.2202 0.11791 0.23184 0.0
H30 H 0.2277 0.20618 0.14233 0.0
H31 H 0.23521 0.14408 0.11441 0.0
H32 H 0.28511 0.13488 0.21836 0.0
H33 H 0.33212 0.10307 0.18979 0.0
H34 H 0.12054 0.23004 0.18441 0.0
H35 H 0.22546 0.2735 0.14219 0.0
H36 H 0.28203 0.11197 0.08585 0.0
H37 H 0.0978 0.28643 0.15424 0.0
H38 H 0.20206 0.32764 0.10868 0.0
C39 C 0.36905 0.87719 0.81587 0.0
C40 C 0.40458 0.89289 0.81513 0.0
C41 C 0.35322 0.86611 0.78358 0.0
C42 C 0.37285 0.86978 0.75015 0.0
C43 C 0.40833 0.88559 0.74942 0.0
C44 C 0.42395 0.89735 0.78154 0.0
C45 C 0.35668 0.85639 0.71617 0.0
C46 C 0.3247 0.86912 0.70522 0.0
C47 C 0.30965 0.85708 0.67264 0.0
C48 C 0.32667 0.83128 0.65146 0.0
C49 C 0.35838 0.81757 0.66241 0.0
C50 C 0.37334 0.83071 0.69464 0.0
C51 C 0.37534 0.78867 0.64087 0.0
C52 C 0.35481 0.75716 0.62642 0.0
C53 C 0.41216 0.79165 0.63541 0.0
C54 C 0.42802 0.76365 0.61622 0.0
C55 C 0.40744 0.73206 0.60193 0.0
C56 C 0.27644 0.87189 0.6605 0.0
C57 C 0.24804 0.8732 0.68559 0.0
C58 C 0.27312 0.88542 0.62381 0.0
C59 C 0.24232 0.90051 0.6126 0.0
C60 C 0.21395 0.90221 0.63775 0.0
C61 C 0.21713 0.88801 0.67434 0.0
C62 C 0.37064 0.72925 0.60721 0.0
H63 H 0.35353 0.87355 0.84141 0.0
H64 H 0.32586 0.85383 0.78487 0.0
H65 H 0.42397 0.8889 0.72395 0.0
H66 H 0.45146 0.90906 0.78026 0.0
H67 H 0.31209 0.88939 0.72154 0.0
H68 H 0.39748 0.81999 0.70373 0.0
H69 H 0.31509 0.82173 0.62645 0.0
H70 H 0.32647 0.75349 0.63068 0.0
H71 H 0.42875 0.81582 0.64577 0.0
H72 H 0.45639 0.76696 0.61227 0.0
H73 H 0.2496 0.86246 0.71393 0.0
H74 H 0.2947 0.88526 0.60391 0.0
H75 H 0.35401 0.70491 0.59719 0.0
H76 H 0.19565 0.88812 0.69436 0.0
H77 H 0.24116 0.91177 0.58438 0.0
C78 C 0.77303 0.41883 0.84244 0.0
C79 C 0.79581 0.39268 0.85675 0.0
C80 C 0.74008 0.40461 0.83047 0.0
C81 C 0.72939 0.36385 0.83206 0.0
C82 C 0.75275 0.33771 0.84554 0.0
C83 C 0.78546 0.35201 0.8581 0.0
C84 C 0.69355 0.3488 0.82106 0.0
C85 C 0.67771 0.36726 0.79142 0.0
C86 C 0.64325 0.35406 0.78191 0.0
C87 C 0.62493 0.3214 0.80228 0.0
C88 C 0.64093 0.30174 0.83093 0.0
C89 C 0.67486 0.31601 0.84053 0.0
C90 C 0.62295 0.26535 0.85024 0.0
C91 C 0.58801 0.26363 0.86381 0.0
C92 C 0.6411 0.232 0.8554 0.0
C93 C 0.62489 0.19775 0.8742 0.0
C94 C 0.59019 0.19612 0.88864 0.0
C95 C 0.62694 0.3735 0.75004 0.0
C96 C 0.6341 0.41434 0.74127 0.0
C97 C 0.60446 0.35119 0.72766 0.0
C98 C 0.58967 0.36908 0.69744 0.0
C99 C 0.59756 0.4097 0.68803 0.0
C100 C 0.61985 0.43213 0.71051 0.0
C101 C 0.57182 0.22938 0.88299 0.0
H102 H 0.78033 0.45039 0.84148 0.0
H103 H 0.72266 0.42567 0.82088 0.0
H104 H 0.74582 0.30612 0.84644 0.0
H105 H 0.80279 0.33129 0.86866 0.0
H106 H 0.69265 0.39133 0.77515 0.0
H107 H 0.6864 0.30172 0.86376 0.0
H108 H 0.5984 0.3107 0.79558 0.0
H109 H 0.57353 0.28905 0.86033 0.0
H110 H 0.66787 0.23233 0.84462 0.0
H111 H 0.63955 0.17244 0.87721 0.0
H112 H 0.65077 0.43272 0.75813 0.0
H113 H 0.59863 0.31963 0.73298 0.0
H114 H 0.54521 0.22929 0.89406 0.0
H115 H 0.62687 0.46338 0.70411 0.0
H116 H 0.57199 0.35082 0.68145 0.0
C117 C 0.86307 0.57115 0.17941 0.0
C118 C 0.89996 0.5746 0.17493 0.0
C119 C 0.84687 0.58716 0.20894 0.0
C120 C 0.86709 0.60676 0.23507 0.0
C121 C 0.90398 0.61034 0.23055 0.0
C122 C 0.92018 0.59461 0.20083 0.0
C123 C 0.84979 0.62275 0.26722 0.0
C124 C 0.81927 0.60203 0.28456 0.0
C125 C 0.80296 0.6165 0.31502 0.0
C126 C 0.81751 0.65178 0.32852 0.0
C127 C 0.84736 0.6737 0.31118 0.0
C128 C 0.86348 0.6588 0.28062 0.0
C129 C 0.86066 0.71255 0.32469 0.0
C130 C 0.83681 0.73744 0.3378 0.0
C131 C 0.89692 0.72474 0.32559 0.0
C132 C 0.90893 0.76055 0.33999 0.0
C133 C 0.88496 0.78486 0.35407 0.0
C134 C 0.76968 0.59599 0.33193 0.0
C135 C 0.7412 0.58553 0.31001 0.0
C136 C 0.76542 0.58898 0.37015 0.0
C137 C 0.73317 0.57213 0.38619 0.0
C138 C 0.70431 0.56237 0.36438 0.0
C139 C 0.70883 0.56916 0.32604 0.0
C140 C 0.84874 0.77273 0.35264 0.0
H141 H 0.84657 0.55564 0.16031 0.0
H142 H 0.8184 0.58431 0.21112 0.0
H143 H 0.92045 0.62485 0.25027 0.0
H144 H 0.94863 0.59847 0.19804 0.0
H145 H 0.8084 0.57418 0.27487 0.0
H146 H 0.88602 0.67587 0.26656 0.0
H147 H 0.80496 0.66255 0.3523 0.0
H148 H 0.80868 0.72962 0.33683 0.0
H149 H 0.91608 0.70628 0.31589 0.0
H150 H 0.937 0.76908 0.3401 0.0
H151 H 0.74364 0.5912 0.28051 0.0
H152 H 0.78709 0.59656 0.38763 0.0
H153 H 0.82931 0.79004 0.3637 0.0
H154 H 0.68712 0.56271 0.30834 0.0
H155 H 0.73098 0.56662 0.4157 0.0
C156 C 0.87321 0.86428 0.67862 0.0
C157 C 0.88219 0.90526 0.675 0.0
C158 C 0.85651 0.84647 0.71086 0.0
C159 C 0.84818 0.86946 0.7397 0.0
C160 C 0.85593 0.91058 0.7355 0.0
C161 C 0.87301 0.92834 0.70346 0.0
C162 C 0.83328 0.85049 0.77493 0.0
C163 C 0.8493 0.81977 0.79221 0.0
C164 C 0.83654 0.80262 0.8266 0.0
C165 C 0.80722 0.81653 0.84357 0.0
C166 C 0.79109 0.84751 0.82656 0.0
C167 C 0.80423 0.86422 0.79215 0.0
C168 C 0.76094 0.86309 0.84482 0.0
C169 C 0.73338 0.83744 0.86226 0.0
C170 C 0.75936 0.90396 0.84435 0.0
C171 C 0.7305 0.9189 0.86035 0.0
C172 C 0.70267 0.8933 0.87726 0.0
C173 C 0.85464 0.77107 0.84498 0.0
C174 C 0.86744 0.74188 0.8245 0.0
C175 C 0.86023 0.77054 0.88278 0.0
C176 C 0.87827 0.74142 0.89971 0.0
C177 C 0.89123 0.71236 0.87914 0.0
C178 C 0.8857 0.71303 0.84133 0.0
C179 C 0.70449 0.85243 0.87839 0.0
H180 H 0.88025 0.84591 0.65707 0.0
H181 H 0.85056 0.8147 0.7135 0.0
H182 H 0.84991 0.92885 0.75751 0.0
H183 H 0.87952 0.96004 0.70109 0.0
H184 H 0.87262 0.81027 0.77938 0.0
H185 H 0.79166 0.88775 0.77851 0.0
H186 H 0.7972 0.80356 0.87017 0.0
H187 H 0.73377 0.8058 0.86271 0.0
H188 H 0.78056 0.92446 0.83173 0.0
H189 H 0.73006 0.95056 0.85968 0.0
H190 H 0.86325 0.74121 0.7954 0.0
H191 H 0.85111 0.79294 0.89923 0.0
H192 H 0.68321 0.83205 0.891 0.0
H193 H 0.89569 0.69137 0.82459 0.0
H194 H 0.88169 0.74142 0.92898 0.0
C195 C 0.62642 0.08057 0.20789 0.0
C196 C 0.6089 0.10708 0.18607 0.0
C197 C 0.64276 0.09244 0.23968 0.0
C198 C 0.64219 0.13118 0.25034 0.0
C199 C 0.62545 0.15789 0.22799 0.0
C200 C 0.60885 0.14596 0.19652 0.0
C201 C 0.65802 0.14362 0.28506 0.0
C202 C 0.68971 0.13039 0.29655 0.0
C203 C 0.70455 0.14196 0.32948 0.0
C204 C 0.68746 0.16791 0.35054 0.0
C205 C 0.65607 0.18203 0.33917 0.0
C206 C 0.64135 0.1691 0.30682 0.0
C207 C 0.63885 0.21096 0.36043 0.0
C208 C 0.63674 0.20756 0.39898 0.0
C209 C 0.62445 0.24252 0.34205 0.0
C210 C 0.60842 0.26997 0.36163 0.0
C211 C 0.6065 0.26675 0.40015 0.0
C212 C 0.7379 0.12704 0.34166 0.0
C213 C 0.74469 0.08827 0.33561 0.0
C214 C 0.76324 0.15125 0.35944 0.0
C215 C 0.79434 0.137 0.37094 0.0
C216 C 0.8011 0.09843 0.36446 0.0
C217 C 0.77596 0.07426 0.34664 0.0
C218 C 0.62079 0.23517 0.41861 0.0
H219 H 0.62746 0.05055 0.20052 0.0
H220 H 0.65518 0.07096 0.25631 0.0
H221 H 0.62498 0.18817 0.23488 0.0
H222 H 0.59526 0.16717 0.18087 0.0
H223 H 0.70328 0.11177 0.27932 0.0
H224 H 0.61639 0.17853 0.29885 0.0
H225 H 0.69864 0.17734 0.37575 0.0
H226 H 0.6471 0.18333 0.41401 0.0
H227 H 0.62616 0.24651 0.31241 0.0
H228 H 0.59831 0.29435 0.34656 0.0
H229 H 0.72561 0.06841 0.32276 0.0
H230 H 0.75937 0.18147 0.36404 0.0
H231 H 0.61945 0.23166 0.44828 0.0
H232 H 0.78023 0.04419 0.34176 0.0
H233 H 0.8134 0.15639 0.38433 0.0
C234 C 0.22344 0.60236 0.18344 0.0
C235 C 0.21989 0.59666 0.14587 0.0
C236 C 0.25635 0.61436 0.19704 0.0
C237 C 0.28622 0.62136 0.17327 0.0
C238 C 0.28286 0.6152 0.13593 0.0
C239 C 0.25015 0.60275 0.12242 0.0
C240 C 0.32055 0.63739 0.18668 0.0
C241 C 0.33529 0.61929 0.21712 0.0
C242 C 0.36829 0.63458 0.22914 0.0
C243 C 0.38608 0.66864 0.21037 0.0
C244 C 0.37155 0.68696 0.17986 0.0
C245 C 0.3387 0.67114 0.16843 0.0
C246 C 0.39028 0.72271 0.15976 0.0
C247 C 0.40822 0.7528 0.17868 0.0
C248 C 0.38924 0.72757 0.12134 0.0
C249 C 0.4046 0.76218 0.10244 0.0
C250 C 0.42181 0.79249 0.12143 0.0
C251 C 0.38443 0.61503 0.261 0.0
C252 C 0.36358 0.59843 0.29172 0.0
C253 C 0.42103 0.61336 0.26117 0.0
C254 C 0.43647 0.59666 0.29161 0.0
C255 C 0.41566 0.58064 0.32239 0.0
C256 C 0.37903 0.58119 0.32199 0.0
C257 C 0.42401 0.7873 0.15964 0.0
H258 H 0.2007 0.59838 0.20227 0.0
H259 H 0.25828 0.61934 0.22589 0.0
H260 H 0.30564 0.62006 0.11713 0.0
H261 H 0.2487 0.59767 0.09357 0.0
H262 H 0.32146 0.5927 0.23066 0.0
H263 H 0.32667 0.68561 0.14561 0.0
H264 H 0.41134 0.68092 0.21944 0.0
H265 H 0.4092 0.75023 0.20828 0.0
H266 H 0.37641 0.70463 0.10579 0.0
H267 H 0.40308 0.76523 0.07289 0.0
H268 H 0.33539 0.59956 0.29281 0.0
H269 H 0.43788 0.62487 0.23772 0.0
H270 H 0.43701 0.8104 0.17489 0.0
H271 H 0.36243 0.56932 0.34554 0.0
H272 H 0.46474 0.5961 0.29102 0.0
C273 C 0.16121 0.22307 0.65488 0.0
C274 C 0.12648 0.21781 0.64323 0.0
C275 C 0.17348 0.25684 0.67202 0.0
C276 C 0.15131 0.28615 0.67811 0.0
C277 C 0.11603 0.28008 0.66834 0.0
C278 C 0.10371 0.2462 0.65097 0.0
C279 C 0.16609 0.32405 0.69192 0.0
C280 C 0.19776 0.34311 0.67603 0.0
C281 C 0.21328 0.37842 0.68879 0.0
C282 C 0.19614 0.39517 0.71757 0.0
C283 C 0.16413 0.37677 0.73384 0.0
C284 C 0.14924 0.34111 0.72064 0.0
C285 C 0.14671 0.39457 0.7649 0.0
C286 C 0.16688 0.41359 0.79141 0.0
C287 C 0.10983 0.3929 0.76829 0.0
C288 C 0.09361 0.40962 0.79743 0.0
C289 C 0.11381 0.42887 0.82381 0.0
C290 C 0.24751 0.39735 0.67208 0.0
C291 C 0.27371 0.37408 0.6611 0.0
C292 C 0.25422 0.4386 0.66661 0.0
C293 C 0.28631 0.45607 0.65064 0.0
C294 C 0.31218 0.43268 0.63938 0.0
C295 C 0.30554 0.39154 0.64467 0.0
C296 C 0.15069 0.43073 0.82025 0.0
H297 H 0.17916 0.2013 0.65022 0.0
H298 H 0.20063 0.26042 0.6799 0.0
H299 H 0.09844 0.30231 0.67263 0.0
H300 H 0.07684 0.24305 0.64226 0.0
H301 H 0.21007 0.33056 0.65306 0.0
H302 H 0.12514 0.32591 0.73334 0.0
H303 H 0.20788 0.42254 0.72743 0.0
H304 H 0.1953 0.41498 0.79019 0.0
H305 H 0.09339 0.37893 0.74826 0.0
H306 H 0.06515 0.40696 0.79946 0.0
H307 H 0.26986 0.34228 0.66557 0.0
H308 H 0.23452 0.45744 0.67413 0.0
H309 H 0.16724 0.44567 0.83965 0.0
H310 H 0.32527 0.37288 0.63672 0.0
H311 H 0.29072 0.48789 0.6466 0.0
Zn312 Zn 0.04697 0.0125 0.53962 0.0
Zn313 Zn 0.96502 0.98712 0.46418 0.0
C314 C 0.08502 0.08249 0.5607 0.0
O315 O 0.10815 0.07006 0.53805 0.0
C316 C 0.92452 0.92552 0.4298 0.0
O317 O 0.89898 0.9454 0.44062 0.0
O318 O 0.08341 0.97746 0.55747 0.0
O319 O 0.99862 0.98666 0.55403 0.0
O320 O 0.95437 0.97221 0.51749 0.0
C321 C 0.0921 0.97705 0.59077 0.0
O322 O 0.07573 0.9978 0.61354 0.0
O323 O 0.05506 0.06259 0.56594 0.0
C324 C 0.92523 0.03002 0.41269 0.0
O325 O 0.94526 0.01414 0.38918 0.0
O326 O 0.92969 0.02391 0.44682 0.0
O327 O 0.01345 0.01281 0.44963 0.0
O328 O 0.05756 0.02708 0.48632 0.0
O329 O 0.95602 0.93716 0.43728 0.0
C330 C 0.96718 0.97255 0.54908 0.0
C331 C 0.04493 0.02678 0.45467 0.0
Zn332 Zn 0.53019 0.97323 0.98908 0.0
Zn333 Zn 0.47683 0.01633 0.02044 0.0
C334 C 0.48127 0.92825 0.94465 0.0
O335 O 0.4899 0.89861 0.96584 0.0
C336 C 0.52459 0.06282 0.06353 0.0
O337 O 0.51348 0.09123 0.0426 0.0
O338 O 0.57131 0.94735 0.97202 0.0
O339 O 0.54718 0.03104 0.98625 0.0
O340 O 0.49447 0.04454 0.97212 0.0
C341 C 0.58326 0.95852 0.93983 0.0
O342 O 0.56833 0.98573 0.92096 0.0
O343 O 0.49419 0.96311 0.95022 0.0
C344 C 0.42312 0.03047 0.06952 0.0
O345 O 0.43719 0.00236 0.08808 0.0
O346 O 0.43572 0.04217 0.03767 0.0
O347 O 0.46004 0.95828 0.02366 0.0
O348 O 0.51299 0.94555 0.03756 0.0
O349 O 0.51312 0.02725 0.05884 0.0
C350 C 0.52758 0.05345 0.96971 0.0
C351 C 0.47995 0.93644 0.04045 0.0
Zn352 Zn 0.51876 0.46192 0.48394 0.0
Zn353 Zn 0.49888 0.53631 0.52445 0.0
C354 C 0.56996 0.49387 0.43052 0.0
O355 O 0.54835 0.47169 0.41128 0.0
C356 C 0.4455 0.5056 0.57567 0.0
O357 O 0.46611 0.52839 0.59537 0.0
O358 O 0.52533 0.40894 0.46435 0.0
O359 O 0.51997 0.45353 0.53867 0.0
O360 O 0.53872 0.51437 0.551 0.0
C361 C 0.55351 0.39481 0.47341 0.0
O362 O 0.57434 0.41405 0.49562 0.0
O363 O 0.56234 0.49658 0.46432 0.0
C364 C 0.46483 0.60493 0.5309 0.0
O365 O 0.44594 0.58669 0.50647 0.0
O366 O 0.49166 0.5898 0.54262 0.0
O367 O 0.50075 0.54325 0.46909 0.0
O368 O 0.47663 0.48321 0.46142 0.0
O369 O 0.45444 0.50227 0.54229 0.0
C370 C 0.53671 0.47739 0.55881 0.0
C371 C 0.48112 0.51967 0.45113 0.0
Zn372 Zn 0.96347 0.50321 0.96704 0.0
Zn373 Zn 0.04957 0.49929 0.03133 0.0
C374 C 0.9233 0.46346 0.91617 0.0
O375 O 0.94574 0.48742 0.89509 0.0
C376 C 0.08915 0.53679 0.08426 0.0
O377 O 0.06609 0.51257 0.10436 0.0
O378 O 0.95194 0.55252 0.94066 0.0
O379 O 0.95499 0.51179 0.02042 0.0
O380 O 0.00309 0.51126 0.05247 0.0
C381 C 0.95836 0.58702 0.95135 0.0
O382 O 0.97589 0.59243 0.98122 0.0
O383 O 0.92637 0.46257 0.95072 0.0
C384 C 0.09337 0.44348 0.05252 0.0
O385 O 0.11531 0.47057 0.03426 0.0
O386 O 0.06089 0.44814 0.05507 0.0
O387 O 0.05835 0.49264 0.97768 0.0
O388 O 0.01004 0.49167 0.94579 0.0
O389 O 0.08647 0.53917 0.04963 0.0
C390 C 0.97064 0.51542 0.05028 0.0
C391 C 0.04267 0.48849 0.9479 0.0
C392 C 0.07581 0.0587 0.35713 0.0
C393 C 0.10756 0.08205 0.36228 0.0
H394 H 0.03116 0.0229 0.38219 0.0
C395 C 0.11934 0.08567 0.39799 0.0
H396 H 0.06639 0.0547 0.32987 0.0
C397 C 0.09935 0.06703 0.428 0.0
C398 C 0.0671 0.04459 0.42287 0.0
H399 H 0.14353 0.10376 0.40286 0.0
H400 H 0.10882 0.07099 0.45524 0.0
C401 C 0.05571 0.0403 0.3871 0.0
C402 C 0.41959 0.87601 0.88 0.0
C403 C 0.42192 0.90331 0.84941 0.0
H404 H 0.43675 0.86243 0.93406 0.0
C405 C 0.44228 0.93981 0.8512 0.0
H406 H 0.40424 0.84757 0.87925 0.0
C407 C 0.46048 0.94857 0.88273 0.0
C408 C 0.45923 0.92067 0.91281 0.0
H409 H 0.44433 0.96145 0.82806 0.0
H410 H 0.47645 0.97668 0.88305 0.0
C411 C 0.43831 0.88447 0.91126 0.0
C412 C 0.57767 0.40647 0.62339 0.0
C413 C 0.583 0.42811 0.65455 0.0
H414 H 0.55854 0.40482 0.56931 0.0
C415 C 0.57403 0.46709 0.65334 0.0
H416 H 0.58514 0.37688 0.62263 0.0
C417 C 0.55975 0.48367 0.62194 0.0
C418 C 0.55354 0.46137 0.59143 0.0
H419 H 0.57729 0.4846 0.67686 0.0
H420 H 0.55268 0.5135 0.62193 0.0
C421 C 0.56272 0.42267 0.59251 0.0
C422 C 0.949 0.5408 0.14739 0.0
C423 C 0.91727 0.5577 0.14329 0.0
H424 H 0.99054 0.51402 0.12151 0.0
C425 C 0.90248 0.55876 0.10856 0.0
H426 H 0.96086 0.53868 0.17381 0.0
C427 C 0.91922 0.54391 0.07867 0.0
C428 C 0.95137 0.52797 0.08263 0.0
H429 H 0.87838 0.57202 0.10412 0.0
H430 H 0.90742 0.54602 0.05221 0.0
C431 C 0.96592 0.52632 0.11742 0.0
C432 C 0.35368 0.09937 0.08355 0.0
C433 C 0.33912 0.08548 0.11833 0.0
H434 H 0.39168 0.09287 0.04079 0.0
C435 C 0.35202 0.05296 0.13663 0.0
H436 H 0.34457 0.12468 0.06898 0.0
C437 C 0.37915 0.03491 0.12062 0.0
C438 C 0.39386 0.04897 0.08596 0.0
H439 H 0.34096 0.04124 0.16323 0.0
H440 H 0.38859 0.00997 0.13547 0.0
C441 C 0.38077 0.08126 0.06749 0.0
C442 C 0.16433 0.94312 0.64965 0.0
C443 C 0.18165 0.9198 0.62612 0.0
H444 H 0.12262 0.97912 0.65712 0.0
C445 C 0.16835 0.91433 0.59115 0.0
H446 H 0.17404 0.94859 0.67653 0.0
C447 C 0.13896 0.93234 0.57981 0.0
C448 C 0.12203 0.95606 0.60323 0.0
H449 H 0.1806 0.89607 0.57248 0.0
H450 H 0.12968 0.92786 0.55258 0.0
C451 C 0.13486 0.96088 0.63841 0.0
C452 C 0.83923 0.39616 0.90649 0.0
C453 C 0.82992 0.4081 0.87099 0.0
H454 H 0.87616 0.40452 0.94888 0.0
C455 C 0.85263 0.43627 0.84975 0.0
H456 H 0.82201 0.37456 0.92343 0.0
C457 C 0.8837 0.45297 0.86403 0.0
C458 C 0.89241 0.4423 0.90008 0.0
H459 H 0.84612 0.44569 0.8222 0.0
H460 H 0.90029 0.47522 0.84715 0.0
C461 C 0.87011 0.41335 0.92105 0.0
C462 C 0.65742 0.55745 0.41518 0.0
C463 C 0.66964 0.54525 0.38143 0.0
H464 H 0.61635 0.55086 0.45722 0.0
C465 C 0.64839 0.51651 0.36399 0.0
H466 H 0.67274 0.58 0.42914 0.0
C467 C 0.61583 0.50052 0.37972 0.0
C468 C 0.60383 0.51242 0.41355 0.0
H469 H 0.6571 0.50577 0.3384 0.0
H470 H 0.60036 0.4782 0.3656 0.0
C471 C 0.62496 0.54102 0.43117 0.0
C472 C 0.09965 0.34138 0.09534 0.0
C473 C 0.13372 0.34551 0.10911 0.0
H474 H 0.05995 0.36948 0.06699 0.0
C475 C 0.15408 0.38236 0.10403 0.0
H476 H 0.08342 0.31333 0.09801 0.0
C477 C 0.14098 0.41398 0.08519 0.0
C478 C 0.10695 0.40975 0.07185 0.0
H479 H 0.18002 0.38708 0.11499 0.0
H480 H 0.15725 0.44202 0.08173 0.0
C481 C 0.08623 0.37338 0.07731 0.0
C482 C 0.53795 0.14644 0.90636 0.0
C483 C 0.57365 0.15994 0.90987 0.0
H484 H 0.49533 0.10216 0.9225 0.0
C485 C 0.59374 0.13834 0.93368 0.0
H486 H 0.52181 0.16209 0.88798 0.0
C487 C 0.57873 0.10379 0.95297 0.0
C488 C 0.54315 0.09019 0.94927 0.0
H489 H 0.6211 0.14828 0.9377 0.0
H490 H 0.59502 0.08791 0.97101 0.0
C491 C 0.52282 0.11198 0.92597 0.0
C492 C 0.92772 0.82537 0.39171 0.0
C493 C 0.89719 0.82221 0.37108 0.0
H494 H 0.96057 0.86077 0.42623 0.0
C495 C 0.87728 0.85452 0.36837 0.0
H496 H 0.94358 0.80109 0.39483 0.0
C497 C 0.88647 0.88804 0.38724 0.0
C498 C 0.91634 0.89067 0.40854 0.0
H499 H 0.85428 0.85391 0.35187 0.0
H500 H 0.87013 0.91202 0.3851 0.0
C501 C 0.93739 0.85945 0.40995 0.0
C502 C 0.40875 0.68642 0.55087 0.0
C503 C 0.42408 0.70166 0.5821 0.0
H504 H 0.40978 0.64448 0.51008 0.0
C505 C 0.45456 0.68654 0.59493 0.0
H506 H 0.38567 0.69786 0.53984 0.0
C507 C 0.46861 0.65597 0.57766 0.0
C508 C 0.45249 0.63989 0.54718 0.0
H509 H 0.46689 0.6974 0.61908 0.0
H510 H 0.49148 0.64421 0.58884 0.0
C511 C 0.42275 0.65594 0.53366 0.0
C512 C 0.9337 0.94888 0.64708 0.0
C513 C 0.90299 0.92359 0.64256 0.0
H514 H 0.97827 0.98395 0.62102 0.0
C515 C 0.89313 0.91486 0.60714 0.0
H516 H 0.942 0.95566 0.67421 0.0
C517 C 0.91374 0.9312 0.57663 0.0
C518 C 0.94482 0.95605 0.58115 0.0
H519 H 0.86946 0.89547 0.60309 0.0
H520 H 0.90561 0.92389 0.54958 0.0
C521 C 0.95455 0.96479 0.61666 0.0
C522 C 0.57129 0.05633 0.15318 0.0
C523 C 0.58975 0.09425 0.15322 0.0
H524 H 0.53647 0.0165 0.12469 0.0
C525 C 0.58833 0.12055 0.12223 0.0
H526 H 0.57135 0.03537 0.17664 0.0
C527 C 0.56775 0.10995 0.09284 0.0
C528 C 0.54853 0.07255 0.09337 0.0
H529 H 0.60286 0.14961 0.12074 0.0
H530 H 0.56668 0.13125 0.06979 0.0
C531 C 0.5511 0.04552 0.12346 0.0
C532 C 0.4199 0.52743 0.37211 0.0
C533 C 0.43238 0.56457 0.35521 0.0
H534 H 0.42588 0.48372 0.41548 0.0
C535 C 0.461 0.58662 0.36994 0.0
H536 H 0.39795 0.5098 0.36115 0.0
C537 C 0.47669 0.572 0.40112 0.0
C538 C 0.46443 0.53474 0.41796 0.0
H539 H 0.47095 0.61548 0.35762 0.0
H540 H 0.49858 0.58986 0.41192 0.0
C541 C 0.43598 0.51248 0.40303 0.0
C542 C 0.06509 0.46373 0.85079 0.0
C543 C 0.09651 0.44627 0.8552 0.0
H544 H 0.02359 0.49089 0.87636 0.0
C545 C 0.11093 0.44489 0.89012 0.0
H546 H 0.05352 0.46615 0.82424 0.0
C547 C 0.09414 0.45992 0.91985 0.0
C548 C 0.06221 0.47625 0.9156 0.0
H549 H 0.13473 0.43116 0.89489 0.0
H550 H 0.10562 0.4575 0.94646 0.0
C551 C 0.04804 0.47829 0.88064 0.0
C552 C 0.65721 0.89486 0.92782 0.0
C553 C 0.67168 0.90938 0.89319 0.0
H554 H 0.61791 0.89921 0.96991 0.0
C555 C 0.65661 0.93974 0.87388 0.0
H556 H 0.66852 0.87166 0.94338 0.0
C557 C 0.62777 0.95554 0.88901 0.0
C558 C 0.61349 0.94136 0.9238 0.0
H559 H 0.66697 0.9511 0.84691 0.0
H560 H 0.61678 0.97897 0.87345 0.0
C561 C 0.6284 0.91078 0.94304 0.0
C562 C 0.85381 0.0628 0.35221 0.0
C563 C 0.83415 0.08316 0.3763 0.0
H564 H 0.89822 0.03073 0.34458 0.0
C565 C 0.84573 0.08775 0.41201 0.0
H566 H 0.84571 0.05916 0.32442 0.0
C567 C 0.87572 0.07117 0.42373 0.0
C568 C 0.89503 0.0502 0.39979 0.0
H569 H 0.83099 0.10314 0.43122 0.0
H570 H 0.88351 0.07437 0.45168 0.0
C571 C 0.88403 0.04675 0.36373 0.0
C572 C 0.16066 0.55661 0.15162 0.0
C573 C 0.18501 0.58385 0.13112 0.0
H574 H 0.11121 0.5209 0.1531 0.0
C575 C 0.17621 0.5977 0.09588 0.0
H576 H 0.16662 0.54489 0.17862 0.0
C577 C 0.14456 0.5834 0.08095 0.0
C578 C 0.12079 0.55535 0.10113 0.0
H579 H 0.19393 0.61937 0.0796 0.0
H580 H 0.13898 0.59386 0.05341 0.0
C581 C 0.12886 0.54272 0.13689 0.0
C582 C 0.36016 0.43809 0.59024 0.0
C583 C 0.3463 0.45116 0.6228 0.0
H584 H 0.40237 0.44536 0.54943 0.0
C585 C 0.36538 0.48186 0.63975 0.0
H586 H 0.34582 0.41455 0.57657 0.0
C587 C 0.39779 0.49906 0.62457 0.0
C588 C 0.41157 0.48633 0.59181 0.0
H589 H 0.35543 0.49223 0.66503 0.0
H590 H 0.41185 0.52269 0.63835 0.0
C591 C 0.39239 0.45576 0.57468 0.0
C592 C 0.9032 0.64197 0.88657 0.0
C593 C 0.90961 0.68078 0.89709 0.0
H594 H 0.9138 0.58226 0.89508 0.0
C595 C 0.93323 0.68887 0.925 0.0
H596 H 0.88472 0.63455 0.86564 0.0
C597 C 0.9497 0.6586 0.94237 0.0
C598 C 0.94295 0.61978 0.93195 0.0
H599 H 0.93908 0.7186 0.93337 0.0
H600 H 0.96747 0.66555 0.96405 0.0
C601 C 0.9198 0.6119 0.90364 0.0
C602 C 0.47126 0.84593 0.10669 0.0
C603 C 0.43667 0.82976 0.10131 0.0
H604 H 0.51228 0.89228 0.09126 0.0
C605 C 0.41626 0.84918 0.07624 0.0
H606 H 0.48754 0.83137 0.12576 0.0
C607 C 0.4302 0.88412 0.05681 0.0
C608 C 0.465 0.90002 0.06171 0.0
H609 H 0.38939 0.83744 0.07186 0.0
H610 H 0.41386 0.89838 0.03761 0.0
C611 C 0.48541 0.88061 0.08684 0.0
C612 C 0.08148 0.16247 0.62782 0.0
C613 C 0.11493 0.18372 0.62158 0.0
H614 H 0.04571 0.11367 0.61355 0.0
C615 C 0.13773 0.17215 0.59434 0.0
H616 H 0.06338 0.17055 0.64871 0.0
C617 C 0.12773 0.13966 0.57437 0.0
C618 C 0.09461 0.11792 0.58101 0.0
H619 H 0.16339 0.18836 0.58826 0.0
H620 H 0.14615 0.13151 0.55382 0.0
C621 C 0.07143 0.12984 0.60776 0.0
C622 C 0.6078 0.31246 0.45121 0.0
C623 C 0.59097 0.29725 0.42079 0.0
H624 H 0.6091 0.35496 0.49167 0.0
C625 C 0.56023 0.31277 0.40923 0.0
H626 H 0.63169 0.30147 0.46061 0.0
C627 C 0.54722 0.34356 0.42706 0.0
C628 C 0.56482 0.35965 0.45668 0.0
H629 H 0.5464 0.30135 0.38615 0.0
H630 H 0.52395 0.35544 0.41701 0.0
C631 C 0.59493 0.34333 0.46888 0.0
loop_
_geom_bond_atom_site_label_1
_geom_bond_atom_site_label_2
_geom_bond_distance
_geom_bond_site_symmetry_2
_ccdc_geom_bond_type
C0 C1 1.386 . S
C0 C2 1.397 . S
C0 H24 0.931 . S
C1 C0 1.386 . S
C1 C5 1.397 . S
C2 C0 1.397 . S
C2 C3 1.384 . S
C2 H25 0.930 . S
C3 C2 1.384 . S
C3 C4 1.377 . S
C3 C6 1.481 . S
C4 C3 1.377 . S
C4 C5 1.389 . S
C4 H26 0.929 . S
C5 C1 1.397 . S
C5 C4 1.389 . S
C5 H27 0.931 . S
C6 C3 1.481 . S
C6 C7 1.387 . S
C6 C11 1.390 . S
C7 C6 1.387 . S
C7 C8 1.401 . S
C7 H28 0.930 . S
C8 C7 1.401 . S
C8 C9 1.376 . S
C8 C17 1.511 . S
C9 C8 1.376 . S
C9 C10 1.392 . S
C9 H30 0.931 . S
C10 C9 1.392 . S
C10 C11 1.361 . S
C10 C12 1.500 . S
C11 C6 1.390 . S
C11 C10 1.361 . S
C11 H29 0.931 . S
C12 C10 1.500 . S
C12 C13 1.371 . S
C12 C14 1.365 . S
C13 C12 1.371 . S
C13 C23 1.386 . S
C13 H31 0.931 . S
C14 C12 1.365 . S
C14 C15 1.409 . S
C14 H32 0.929 . S
C15 C14 1.409 . S
C15 C16 1.380 . S
C15 H33 0.930 . S
C16 C15 1.380 . S
C16 C23 1.357 . S
C17 C8 1.511 . S
C17 C18 1.341 . S
C17 C19 1.371 . S
C18 C17 1.341 . S
C18 C22 1.394 . S
C18 H34 0.930 . S
C19 C17 1.371 . S
C19 C20 1.392 . S
C19 H35 0.931 . S
C20 C19 1.392 . S
C20 C21 1.331 . S
C20 H38 0.932 . S
C21 C20 1.331 . S
C21 C22 1.336 . S
C22 C18 1.394 . S
C22 C21 1.336 . S
C22 H37 0.929 . S
C23 C13 1.386 . S
C23 C16 1.357 . S
C23 H36 0.928 . S
H24 C0 0.931 . S
H25 C2 0.930 . S
H26 C4 0.929 . S
H27 C5 0.931 . S
H28 C7 0.930 . S
H29 C11 0.931 . S
H30 C9 0.931 . S
H31 C13 0.931 . S
H32 C14 0.929 . S
H33 C15 0.930 . S
H34 C18 0.930 . S
H35 C19 0.931 . S
H36 C23 0.928 . S
H37 C22 0.929 . S
H38 C20 0.932 . S
C39 C40 1.386 . S
C39 C41 1.397 . S
C39 H63 0.931 . S
C40 C39 1.386 . S
C40 C44 1.397 . S
C41 C39 1.397 . S
C41 C42 1.384 . S
C41 H64 0.930 . S
C42 C41 1.384 . S
C42 C43 1.377 . S
C42 C45 1.481 . S
C43 C42 1.377 . S
C43 C44 1.389 . S
C43 H65 0.929 . S
C44 C40 1.397 . S
C44 C43 1.389 . S
C44 H66 0.931 . S
C45 C42 1.481 . S
C45 C46 1.387 . S
C45 C50 1.390 . S
C46 C45 1.387 . S
C46 C47 1.401 . S
C46 H67 0.930 . S
C47 C46 1.401 . S
C47 C48 1.376 . S
C47 C56 1.511 . S
C48 C47 1.376 . S
C48 C49 1.392 . S
C48 H69 0.931 . S
C49 C48 1.392 . S
C49 C50 1.361 . S
C49 C51 1.500 . S
C50 C45 1.390 . S
C50 C49 1.361 . S
C50 H68 0.931 . S
C51 C49 1.500 . S
C51 C52 1.371 . S
C51 C53 1.365 . S
C52 C51 1.371 . S
C52 C62 1.386 . S
C52 H70 0.931 . S
C53 C51 1.365 . S
C53 C54 1.409 . S
C53 H71 0.929 . S
C54 C53 1.409 . S
C54 C55 1.380 . S
C54 H72 0.930 . S
C55 C54 1.380 . S
C55 C62 1.357 . S
C56 C47 1.511 . S
C56 C57 1.341 . S
C56 C58 1.371 . S
C57 C56 1.341 . S
C57 C61 1.394 . S
C57 H73 0.930 . S
C58 C56 1.371 . S
C58 C59 1.392 . S
C58 H74 0.931 . S
C59 C58 1.392 . S
C59 C60 1.331 . S
C59 H77 0.932 . S
C60 C59 1.331 . S
C60 C61 1.336 . S
C61 C57 1.394 . S
C61 C60 1.336 . S
C61 H76 0.929 . S
C62 C52 1.386 . S
C62 C55 1.357 . S
C62 H75 0.928 . S
H63 C39 0.931 . S
H64 C41 0.930 . S
H65 C43 0.929 . S
H66 C44 0.931 . S
H67 C46 0.930 . S
H68 C50 0.931 . S
H69 C48 0.931 . S
H70 C52 0.931 . S
H71 C53 0.929 . S
H72 C54 0.930 . S
H73 C57 0.930 . S
H74 C58 0.931 . S
H75 C62 0.928 . S
H76 C61 0.929 . S
H77 C59 0.932 . S
C78 C79 1.386 . S
C78 C80 1.397 . S
C78 H102 0.931 . S
C79 C78 1.386 . S
C79 C83 1.397 . S
C80 C78 1.397 . S
C80 C81 1.384 . S
C80 H103 0.930 . S
C81 C80 1.384 . S
C81 C82 1.377 . S
C81 C84 1.481 . S
C82 C81 1.377 . S
C82 C83 1.389 . S
C82 H104 0.929 . S
C83 C79 1.397 . S
C83 C82 1.389 . S
C83 H105 0.931 . S
C84 C81 1.481 . S
C84 C85 1.387 . S
C84 C89 1.390 . S
C85 C84 1.387 . S
C85 C86 1.401 . S
C85 H106 0.930 . S
C86 C85 1.401 . S
C86 C87 1.376 . S
C86 C95 1.511 . S
C87 C86 1.376 . S
C87 C88 1.392 . S
C87 H108 0.931 . S
C88 C87 1.392 . S
C88 C89 1.361 . S
C88 C90 1.500 . S
C89 C84 1.390 . S
C89 C88 1.361 . S
C89 H107 0.931 . S
C90 C88 1.500 . S
C90 C91 1.371 . S
C90 C92 1.365 . S
C91 C90 1.371 . S
C91 C101 1.386 . S
C91 H109 0.931 . S
C92 C90 1.365 . S
C92 C93 1.409 . S
C92 H110 0.929 . S
C93 C92 1.409 . S
C93 C94 1.380 . S
C93 H111 0.930 . S
C94 C93 1.380 . S
C94 C101 1.357 . S
C95 C86 1.511 . S
C95 C96 1.341 . S
C95 C97 1.371 . S
C96 C95 1.341 . S
C96 C100 1.394 . S
C96 H112 0.930 . S
C97 C95 1.371 . S
C97 C98 1.392 . S
C97 H113 0.931 . S
C98 C97 1.392 . S
C98 C99 1.331 . S
C98 H116 0.932 . S
C99 C98 1.331 . S
C99 C100 1.336 . S
C100 C96 1.394 . S
C100 C99 1.336 . S
C100 H115 0.929 . S
C101 C91 1.386 . S
C101 C94 1.357 . S
C101 H114 0.928 . S
H102 C78 0.931 . S
H103 C80 0.930 . S
H104 C82 0.929 . S
H105 C83 0.931 . S
H106 C85 0.930 . S
H107 C89 0.931 . S
H108 C87 0.931 . S
H109 C91 0.931 . S
H110 C92 0.929 . S
H111 C93 0.930 . S
H112 C96 0.930 . S
H113 C97 0.931 . S
H114 C101 0.928 . S
H115 C100 0.929 . S
H116 C98 0.932 . S
C117 C118 1.386 . S
C117 C119 1.397 . S
C117 H141 0.931 . S
C118 C117 1.386 . S
C118 C122 1.397 . S
C119 C117 1.397 . S
C119 C120 1.384 . S
C119 H142 0.930 . S
C120 C119 1.384 . S
C120 C121 1.377 . S
C120 C123 1.481 . S
C121 C120 1.377 . S
C121 C122 1.389 . S
C121 H143 0.929 . S
C122 C118 1.397 . S
C122 C121 1.389 . S
C122 H144 0.931 . S
C123 C120 1.481 . S
C123 C124 1.387 . S
C123 C128 1.390 . S
C124 C123 1.387 . S
C124 C125 1.401 . S
C124 H145 0.930 . S
C125 C124 1.401 . S
C125 C126 1.376 . S
C125 C134 1.511 . S
C126 C125 1.376 . S
C126 C127 1.392 . S
C126 H147 0.931 . S
C127 C126 1.392 . S
C127 C128 1.361 . S
C127 C129 1.500 . S
C128 C123 1.390 . S
C128 C127 1.361 . S
C128 H146 0.931 . S
C129 C127 1.500 . S
C129 C130 1.371 . S
C129 C131 1.365 . S
C130 C129 1.371 . S
C130 C140 1.386 . S
C130 H148 0.931 . S
C131 C129 1.365 . S
C131 C132 1.409 . S
C131 H149 0.929 . S
C132 C131 1.409 . S
C132 C133 1.380 . S
C132 H150 0.930 . S
C133 C132 1.380 . S
C133 C140 1.357 . S
C134 C125 1.511 . S
C134 C135 1.341 . S
C134 C136 1.371 . S
C135 C134 1.341 . S
C135 C139 1.394 . S
C135 H151 0.930 . S
C136 C134 1.371 . S
C136 C137 1.392 . S
C136 H152 0.931 . S
C137 C136 1.392 . S
C137 C138 1.331 . S
C137 H155 0.932 . S
C138 C137 1.331 . S
C138 C139 1.336 . S
C139 C135 1.394 . S
C139 C138 1.336 . S
C139 H154 0.929 . S
C140 C130 1.386 . S
C140 C133 1.357 . S
C140 H153 0.928 . S
H141 C117 0.931 . S
H142 C119 0.930 . S
H143 C121 0.929 . S
H144 C122 0.931 . S
H145 C124 0.930 . S
H146 C128 0.931 . S
H147 C126 0.931 . S
H148 C130 0.931 . S
H149 C131 0.929 . S
H150 C132 0.930 . S
H151 C135 0.930 . S
H152 C136 0.931 . S
H153 C140 0.928 . S
H154 C139 0.929 . S
H155 C137 0.932 . S
C156 C157 1.386 . S
C156 C158 1.397 . S
C156 H180 0.931 . S
C157 C156 1.386 . S
C157 C161 1.397 . S
C158 C156 1.397 . S
C158 C159 1.384 . S
C158 H181 0.930 . S
C159 C158 1.384 . S
C159 C160 1.377 . S
C159 C162 1.481 . S
C160 C159 1.377 . S
C160 C161 1.389 . S
C160 H182 0.929 . S
C161 C157 1.397 . S
C161 C160 1.389 . S
C161 H183 0.931 . S
C162 C159 1.481 . S
C162 C163 1.387 . S
C162 C167 1.390 . S
C163 C162 1.387 . S
C163 C164 1.401 . S
C163 H184 0.930 . S
C164 C163 1.401 . S
C164 C165 1.376 . S
C164 C173 1.511 . S
C165 C164 1.376 . S
C165 C166 1.392 . S
C165 H186 0.931 . S
C166 C165 1.392 . S
C166 C167 1.361 . S
C166 C168 1.500 . S
C167 C162 1.390 . S
C167 C166 1.361 . S
C167 H185 0.931 . S
C168 C166 1.500 . S
C168 C169 1.371 . S
C168 C170 1.365 . S
C169 C168 1.371 . S
C169 C179 1.386 . S
C169 H187 0.931 . S
C170 C168 1.365 . S
C170 C171 1.409 . S
C170 H188 0.929 . S
C171 C170 1.409 . S
C171 C172 1.380 . S
C171 H189 0.930 . S
C172 C171 1.380 . S
C172 C179 1.357 . S
C173 C164 1.511 . S
C173 C174 1.341 . S
C173 C175 1.371 . S
C174 C173 1.341 . S
C174 C178 1.394 . S
C174 H190 0.930 . S
C175 C173 1.371 . S
C175 C176 1.392 . S
C175 H191 0.931 . S
C176 C175 1.392 . S
C176 C177 1.331 . S
C176 H194 0.932 . S
C177 C176 1.331 . S
C177 C178 1.336 . S
C178 C174 1.394 . S
C178 C177 1.336 . S
C178 H193 0.929 . S
C179 C169 1.386 . S
C179 C172 1.357 . S
C179 H192 0.928 . S
H180 C156 0.931 . S
H181 C158 0.930 . S
H182 C160 0.929 . S
H183 C161 0.931 . S
H184 C163 0.930 . S
H185 C167 0.931 . S
H186 C165 0.931 . S
H187 C169 0.931 . S
H188 C170 0.929 . S
H189 C171 0.930 . S
H190 C174 0.930 . S
H191 C175 0.931 . S
H192 C179 0.928 . S
H193 C178 0.929 . S
H194 C176 0.932 . S
C195 C196 1.386 . S
C195 C197 1.397 . S
C195 H219 0.931 . S
C196 C195 1.386 . S
C196 C200 1.397 . S
C197 C195 1.397 . S
C197 C198 1.384 . S
C197 H220 0.930 . S
C198 C197 1.384 . S
C198 C199 1.377 . S
C198 C201 1.481 . S
C199 C198 1.377 . S
C199 C200 1.389 . S
C199 H221 0.929 . S
C200 C196 1.397 . S
C200 C199 1.389 . S
C200 H222 0.931 . S
C201 C198 1.481 . S
C201 C202 1.387 . S
C201 C206 1.390 . S
C202 C201 1.387 . S
C202 C203 1.401 . S
C202 H223 0.930 . S
C203 C202 1.401 . S
C203 C204 1.376 . S
C203 C212 1.511 . S
C204 C203 1.376 . S
C204 C205 1.392 . S
C204 H225 0.931 . S
C205 C204 1.392 . S
C205 C206 1.361 . S
C205 C207 1.500 . S
C206 C201 1.390 . S
C206 C205 1.361 . S
C206 H224 0.931 . S
C207 C205 1.500 . S
C207 C208 1.371 . S
C207 C209 1.365 . S
C208 C207 1.371 . S
C208 C218 1.386 . S
C208 H226 0.931 . S
C209 C207 1.365 . S
C209 C210 1.409 . S
C209 H227 0.929 . S
C210 C209 1.409 . S
C210 C211 1.380 . S
C210 H228 0.930 . S
C211 C210 1.380 . S
C211 C218 1.357 . S
C212 C203 1.511 . S
C212 C213 1.341 . S
C212 C214 1.371 . S
C213 C212 1.341 . S
C213 C217 1.394 . S
C213 H229 0.930 . S
C214 C212 1.371 . S
C214 C215 1.392 . S
C214 H230 0.931 . S
C215 C214 1.392 . S
C215 C216 1.331 . S
C215 H233 0.932 . S
C216 C215 1.331 . S
C216 C217 1.336 . S
C217 C213 1.394 . S
C217 C216 1.336 . S
C217 H232 0.929 . S
C218 C208 1.386 . S
C218 C211 1.357 . S
C218 H231 0.928 . S
H219 C195 0.931 . S
H220 C197 0.930 . S
H221 C199 0.929 . S
H222 C200 0.931 . S
H223 C202 0.930 . S
H224 C206 0.931 . S
H225 C204 0.931 . S
H226 C208 0.931 . S
H227 C209 0.929 . S
H228 C210 0.930 . S
H229 C213 0.930 . S
H230 C214 0.931 . S
H231 C218 0.928 . S
H232 C217 0.929 . S
H233 C215 0.932 . S
C234 C235 1.386 . S
C234 C236 1.397 . S
C234 H258 0.931 . S
C235 C234 1.386 . S
C235 C239 1.397 . S
C236 C234 1.397 . S
C236 C237 1.384 . S
C236 H259 0.930 . S
C237 C236 1.384 . S
C237 C238 1.377 . S
C237 C240 1.481 . S
C238 C237 1.377 . S
C238 C239 1.389 . S
C238 H260 0.929 . S
C239 C235 1.397 . S
C239 C238 1.389 . S
C239 H261 0.931 . S
C240 C237 1.481 . S
C240 C241 1.387 . S
C240 C245 1.390 . S
C241 C240 1.387 . S
C241 C242 1.401 . S
C241 H262 0.930 . S
C242 C241 1.401 . S
C242 C243 1.376 . S
C242 C251 1.511 . S
C243 C242 1.376 . S
C243 C244 1.392 . S
C243 H264 0.931 . S
C244 C243 1.392 . S
C244 C245 1.361 . S
C244 C246 1.500 . S
C245 C240 1.390 . S
C245 C244 1.361 . S
C245 H263 0.931 . S
C246 C244 1.500 . S
C246 C247 1.371 . S
C246 C248 1.365 . S
C247 C246 1.371 . S
C247 C257 1.386 . S
C247 H265 0.931 . S
C248 C246 1.365 . S
C248 C249 1.409 . S
C248 H266 0.929 . S
C249 C248 1.409 . S
C249 C250 1.380 . S
C249 H267 0.930 . S
C250 C249 1.380 . S
C250 C257 1.357 . S
C251 C242 1.511 . S
C251 C252 1.341 . S
C251 C253 1.371 . S
C252 C251 1.341 . S
C252 C256 1.394 . S
C252 H268 0.930 . S
C253 C251 1.371 . S
C253 C254 1.392 . S
C253 H269 0.931 . S
C254 C253 1.392 . S
C254 C255 1.331 . S
C254 H272 0.932 . S
C255 C254 1.331 . S
C255 C256 1.336 . S
C256 C252 1.394 . S
C256 C255 1.336 . S
C256 H271 0.929 . S
C257 C247 1.386 . S
C257 C250 1.357 . S
C257 H270 0.928 . S
H258 C234 0.931 . S
H259 C236 0.930 . S
H260 C238 0.929 . S
H261 C239 0.931 . S
H262 C241 0.930 . S
H263 C245 0.931 . S
H264 C243 0.931 . S
H265 C247 0.931 . S
H266 C248 0.929 . S
H267 C249 0.930 . S
H268 C252 0.930 . S
H269 C253 0.931 . S
H270 C257 0.928 . S
H271 C256 0.929 . S
H272 C254 0.932 . S
C273 C274 1.386 . S
C273 C275 1.397 . S
C273 H297 0.931 . S
C274 C273 1.386 . S
C274 C278 1.397 . S
C275 C273 1.397 . S
C275 C276 1.384 . S
C275 H298 0.930 . S
C276 C275 1.384 . S
C276 C277 1.377 . S
C276 C279 1.481 . S
C277 C276 1.377 . S
C277 C278 1.389 . S
C277 H299 0.929 . S
C278 C274 1.397 . S
C278 C277 1.389 . S
C278 H300 0.931 . S
C279 C276 1.481 . S
C279 C280 1.387 . S
C279 C284 1.390 . S
C280 C279 1.387 . S
C280 C281 1.401 . S
C280 H301 0.930 . S
C281 C280 1.401 . S
C281 C282 1.376 . S
C281 C290 1.511 . S
C282 C281 1.376 . S
C282 C283 1.392 . S
C282 H303 0.931 . S
C283 C282 1.392 . S
C283 C284 1.361 . S
C283 C285 1.500 . S
C284 C279 1.390 . S
C284 C283 1.361 . S
C284 H302 0.931 . S
C285 C283 1.500 . S
C285 C286 1.371 . S
C285 C287 1.365 . S
C286 C285 1.371 . S
C286 C296 1.386 . S
C286 H304 0.931 . S
C287 C285 1.365 . S
C287 C288 1.409 . S
C287 H305 0.929 . S
C288 C287 1.409 . S
C288 C289 1.380 . S
C288 H306 0.930 . S
C289 C288 1.380 . S
C289 C296 1.357 . S
C290 C281 1.511 . S
C290 C291 1.341 . S
C290 C292 1.371 . S
C291 C290 1.341 . S
C291 C295 1.394 . S
C291 H307 0.930 . S
C292 C290 1.371 . S
C292 C293 1.392 . S
C292 H308 0.931 . S
C293 C292 1.392 . S
C293 C294 1.331 . S
C293 H311 0.932 . S
C294 C293 1.331 . S
C294 C295 1.336 . S
C295 C291 1.394 . S
C295 C294 1.336 . S
C295 H310 0.929 . S
C296 C286 1.386 . S
C296 C289 1.357 . S
C296 H309 0.928 . S
H297 C273 0.931 . S
H298 C275 0.930 . S
H299 C277 0.929 . S
H300 C278 0.931 . S
H301 C280 0.930 . S
H302 C284 0.931 . S
H303 C282 0.931 . S
H304 C286 0.931 . S
H305 C287 0.929 . S
H306 C288 0.930 . S
H307 C291 0.930 . S
H308 C292 0.931 . S
H309 C296 0.928 . S
H310 C295 0.929 . S
H311 C293 0.932 . S
Zn312 O318 1.969 1_545 S
Zn312 O319 1.965 1_545 S
Zn312 O323 2.024 . S
Zn312 O328 1.969 . S
Zn313 O320 1.969 . S
Zn313 O326 1.969 1_565 S
Zn313 O327 1.965 1_665 S
Zn313 O329 2.024 . S
C314 O315 1.229 . S
C314 O323 1.058 . S
O315 C314 1.229 . S
C316 O317 1.229 . S
C316 O329 1.058 . S
O317 C316 1.229 . S
O318 Zn312 1.969 1_565 S
O318 C321 1.267 . S
O319 Zn312 1.965 1_565 S
O319 C330 1.260 1_455 S
O320 Zn313 1.969 . S
O320 C330 1.258 . S
C321 O318 1.267 . S
C321 O322 1.228 . S
O322 C321 1.228 . S
O323 Zn312 2.024 . S
O323 C314 1.058 . S
C324 O325 1.228 . S
C324 O326 1.267 . S
O325 C324 1.228 . S
O326 Zn313 1.969 1_545 S
O326 C324 1.267 . S
O327 Zn313 1.965 1_445 S
O327 C331 1.260 . S
O328 Zn312 1.969 . S
O328 C331 1.258 . S
O329 Zn313 2.024 . S
O329 C316 1.058 . S
C330 O319 1.260 1_655 S
C330 O320 1.258 . S
C331 O327 1.260 . S
C331 O328 1.258 . S
Zn332 O338 1.969 . S
Zn332 O339 1.965 1_565 S
Zn332 O343 2.024 . S
Zn332 O348 1.969 1_556 S
Zn333 O340 1.969 . S
Zn333 O346 1.969 . S
Zn333 O347 1.965 1_545 S
Zn333 O349 2.024 . S
C334 O335 1.229 . S
C334 O343 1.058 . S
O335 C334 1.229 . S
C336 O337 1.229 . S
C336 O349 1.058 . S
O337 C336 1.229 . S
O338 Zn332 1.969 . S
O338 C341 1.267 . S
O339 Zn332 1.965 1_545 S
O339 C350 1.260 . S
O340 Zn333 1.969 . S
O340 C350 1.258 1_554 S
C341 O338 1.267 . S
C341 O342 1.228 . S
O342 C341 1.228 . S
O343 Zn332 2.024 . S
O343 C334 1.058 . S
C344 O345 1.228 . S
C344 O346 1.267 . S
O345 C344 1.228 . S
O346 Zn333 1.969 . S
O346 C344 1.267 . S
O347 Zn333 1.965 1_565 S
O347 C351 1.260 . S
O348 Zn332 1.969 1_554 S
O348 C351 1.258 . S
O349 Zn333 2.024 . S
O349 C336 1.058 . S
C350 O339 1.260 . S
C350 O340 1.258 1_556 S
C351 O347 1.260 . S
C351 O348 1.258 . S
Zn352 O358 1.969 . S
Zn352 O359 1.965 . S
Zn352 O363 2.024 . S
Zn352 O368 1.969 . S
Zn353 O360 1.969 . S
Zn353 O366 1.969 . S
Zn353 O367 1.965 . S
Zn353 O369 2.024 . S
C354 O355 1.229 . S
C354 O363 1.058 . S
O355 C354 1.229 . S
C356 O357 1.229 . S
C356 O369 1.058 . S
O357 C356 1.229 . S
O358 Zn352 1.969 . S
O358 C361 1.267 . S
O359 Zn352 1.965 . S
O359 C370 1.260 . S
O360 Zn353 1.969 . S
O360 C370 1.258 . S
C361 O358 1.267 . S
C361 O362 1.228 . S
O362 C361 1.228 . S
O363 Zn352 2.024 . S
O363 C354 1.058 . S
C364 O365 1.228 . S
C364 O366 1.267 . S
O365 C364 1.228 . S
O366 Zn353 1.969 . S
O366 C364 1.267 . S
O367 Zn353 1.965 . S
O367 C371 1.260 . S
O368 Zn352 1.969 . S
O368 C371 1.258 . S
O369 Zn353 2.024 . S
O369 C356 1.058 . S
C370 O359 1.260 . S
C370 O360 1.258 . S
C371 O367 1.260 . S
C371 O368 1.258 . S
Zn372 O378 1.969 . S
Zn372 O379 1.965 1_556 S
Zn372 O383 2.024 . S
Zn372 O388 1.969 1_655 S
Zn373 O380 1.969 . S
Zn373 O386 1.969 . S
Zn373 O387 1.965 1_554 S
Zn373 O389 2.024 . S
C374 O375 1.229 . S
C374 O383 1.058 . S
O375 C374 1.229 . S
C376 O377 1.229 . S
C376 O389 1.058 . S
O377 C376 1.229 . S
O378 Zn372 1.969 . S
O378 C381 1.267 . S
O379 Zn372 1.965 1_554 S
O379 C390 1.260 . S
O380 Zn373 1.969 . S
O380 C390 1.258 1_455 S
C381 O378 1.267 . S
C381 O382 1.228 . S
O382 C381 1.228 . S
O383 Zn372 2.024 . S
O383 C374 1.058 . S
C384 O385 1.228 . S
C384 O386 1.267 . S
O385 C384 1.228 . S
O386 Zn373 1.969 . S
O386 C384 1.267 . S
O387 Zn373 1.965 1_556 S
O387 C391 1.260 . S
O388 Zn372 1.969 1_455 S
O388 C391 1.258 . S
O389 Zn373 2.024 . S
O389 C376 1.058 . S
C390 O379 1.260 . S
C390 O380 1.258 1_655 S
C391 O387 1.260 . S
C391 O388 1.258 . S
C392 C393 1.387 . S
C392 H396 0.950 . S
C392 C401 1.390 . S
C393 C392 1.387 . S
C393 C395 1.387 . S
H394 C401 0.950 . S
C395 C393 1.387 . S
C395 C397 1.390 . S
C395 H399 0.950 . S
H396 C392 0.950 . S
C397 C395 1.390 . S
C397 C398 1.387 . S
C397 H400 0.950 . S
C398 C397 1.387 . S
C398 C401 1.387 . S
H399 C395 0.950 . S
H400 C397 0.950 . S
C401 C392 1.390 . S
C401 H394 0.950 . S
C401 C398 1.387 . S
C402 C403 1.387 . S
C402 H406 0.950 . S
C402 C411 1.390 . S
C403 C402 1.387 . S
C403 C405 1.387 . S
H404 C411 0.950 . S
C405 C403 1.387 . S
C405 C407 1.390 . S
C405 H409 0.950 . S
H406 C402 0.950 . S
C407 C405 1.390 . S
C407 C408 1.387 . S
C407 H410 0.950 . S
C408 C407 1.387 . S
C408 C411 1.387 . S
H409 C405 0.950 . S
H410 C407 0.950 . S
C411 C402 1.390 . S
C411 H404 0.950 . S
C411 C408 1.387 . S
C412 C413 1.387 . S
C412 H416 0.950 . S
C412 C421 1.390 . S
C413 C412 1.387 . S
C413 C415 1.387 . S
H414 C421 0.950 . S
C415 C413 1.387 . S
C415 C417 1.390 . S
C415 H419 0.950 . S
H416 C412 0.950 . S
C417 C415 1.390 . S
C417 C418 1.387 . S
C417 H420 0.950 . S
C418 C417 1.387 . S
C418 C421 1.387 . S
H419 C415 0.950 . S
H420 C417 0.950 . S
C421 C412 1.390 . S
C421 H414 0.950 . S
C421 C418 1.387 . S
C422 C423 1.387 . S
C422 H426 0.950 . S
C422 C431 1.390 . S
C423 C422 1.387 . S
C423 C425 1.387 . S
H424 C431 0.950 . S
C425 C423 1.387 . S
C425 C427 1.390 . S
C425 H429 0.950 . S
H426 C422 0.950 . S
C427 C425 1.390 . S
C427 C428 1.387 . S
C427 H430 0.950 . S
C428 C427 1.387 . S
C428 C431 1.387 . S
H429 C425 0.950 . S
H430 C427 0.950 . S
C431 C422 1.390 . S
C431 H424 0.950 . S
C431 C428 1.387 . S
C432 C433 1.387 . S
C432 H436 0.950 . S
C432 C441 1.390 . S
C433 C432 1.387 . S
C433 C435 1.387 . S
H434 C441 0.950 . S
C435 C433 1.387 . S
C435 C437 1.390 . S
C435 H439 0.950 . S
H436 C432 0.950 . S
C437 C435 1.390 . S
C437 C438 1.387 . S
C437 H440 0.950 . S
C438 C437 1.387 . S
C438 C441 1.387 . S
H439 C435 0.950 . S
H440 C437 0.950 . S
C441 C432 1.390 . S
C441 H434 0.950 . S
C441 C438 1.387 . S
C442 C443 1.387 . S
C442 H446 0.950 . S
C442 C451 1.390 . S
C443 C442 1.387 . S
C443 C445 1.387 . S
H444 C451 0.950 . S
C445 C443 1.387 . S
C445 C447 1.390 . S
C445 H449 0.950 . S
H446 C442 0.950 . S
C447 C445 1.390 . S
C447 C448 1.387 . S
C447 H450 0.950 . S
C448 C447 1.387 . S
C448 C451 1.387 . S
H449 C445 0.950 . S
H450 C447 0.950 . S
C451 C442 1.390 . S
C451 H444 0.950 . S
C451 C448 1.387 . S
C452 C453 1.387 . S
C452 H456 0.950 . S
C452 C461 1.390 . S
C453 C452 1.387 . S
C453 C455 1.387 . S
H454 C461 0.950 . S
C455 C453 1.387 . S
C455 C457 1.390 . S
C455 H459 0.950 . S
H456 C452 0.950 . S
C457 C455 1.390 . S
C457 C458 1.387 . S
C457 H460 0.950 . S
C458 C457 1.387 . S
C458 C461 1.387 . S
H459 C455 0.950 . S
H460 C457 0.950 . S
C461 C452 1.390 . S
C461 H454 0.950 . S
C461 C458 1.387 . S
C462 C463 1.387 . S
C462 H466 0.950 . S
C462 C471 1.390 . S
C463 C462 1.387 . S
C463 C465 1.387 . S
H464 C471 0.950 . S
C465 C463 1.387 . S
C465 C467 1.390 . S
C465 H469 0.950 . S
H466 C462 0.950 . S
C467 C465 1.390 . S
C467 C468 1.387 . S
C467 H470 0.950 . S
C468 C467 1.387 . S
C468 C471 1.387 . S
H469 C465 0.950 . S
H470 C467 0.950 . S
C471 C462 1.390 . S
C471 H464 0.950 . S
C471 C468 1.387 . S
C472 C473 1.387 . S
C472 H476 0.950 . S
C472 C481 1.390 . S
C473 C472 1.387 . S
C473 C475 1.387 . S
H474 C481 0.950 . S
C475 C473 1.387 . S
C475 C477 1.390 . S
C475 H479 0.950 . S
H476 C472 0.950 . S
C477 C475 1.390 . S
C477 C478 1.387 . S
C477 H480 0.950 . S
C478 C477 1.387 . S
C478 C481 1.387 . S
H479 C475 0.950 . S
H480 C477 0.950 . S
C481 C472 1.390 . S
C481 H474 0.950 . S
C481 C478 1.387 . S
C482 C483 1.387 . S
C482 H486 0.950 . S
C482 C491 1.390 . S
C483 C482 1.387 . S
C483 C485 1.387 . S
H484 C491 0.950 . S
C485 C483 1.387 . S
C485 C487 1.390 . S
C485 H489 0.950 . S
H486 C482 0.950 . S
C487 C485 1.390 . S
C487 C488 1.387 . S
C487 H490 0.950 . S
C488 C487 1.387 . S
C488 C491 1.387 . S
H489 C485 0.950 . S
H490 C487 0.950 . S
C491 C482 1.390 . S
C491 H484 0.950 . S
C491 C488 1.387 . S
C492 C493 1.387 . S
C492 H496 0.950 . S
C492 C501 1.390 . S
C493 C492 1.387 . S
C493 C495 1.387 . S
H494 C501 0.950 . S
C495 C493 1.387 . S
C495 C497 1.390 . S
C495 H499 0.950 . S
H496 C492 0.950 . S
C497 C495 1.390 . S
C497 C498 1.387 . S
C497 H500 0.950 . S
C498 C497 1.387 . S
C498 C501 1.387 . S
H499 C495 0.950 . S
H500 C497 0.950 . S
C501 C492 1.390 . S
C501 H494 0.950 . S
C501 C498 1.387 . S
C502 C503 1.387 . S
C502 H506 0.950 . S
C502 C511 1.390 . S
C503 C502 1.387 . S
C503 C505 1.387 . S
H504 C511 0.950 . S
C505 C503 1.387 . S
C505 C507 1.390 . S
C505 H509 0.950 . S
H506 C502 0.950 . S
C507 C505 1.390 . S
C507 C508 1.387 . S
C507 H510 0.950 . S
C508 C507 1.387 . S
C508 C511 1.387 . S
H509 C505 0.950 . S
H510 C507 0.950 . S
C511 C502 1.390 . S
C511 H504 0.950 . S
C511 C508 1.387 . S
C512 C513 1.387 . S
C512 H516 0.950 . S
C512 C521 1.390 . S
C513 C512 1.387 . S
C513 C515 1.387 . S
H514 C521 0.950 . S
C515 C513 1.387 . S
C515 C517 1.390 . S
C515 H519 0.950 . S
H516 C512 0.950 . S
C517 C515 1.390 . S
C517 C518 1.387 . S
C517 H520 0.950 . S
C518 C517 1.387 . S
C518 C521 1.387 . S
H519 C515 0.950 . S
H520 C517 0.950 . S
C521 C512 1.390 . S
C521 H514 0.950 . S
C521 C518 1.387 . S
C522 C523 1.387 . S
C522 H526 0.950 . S
C522 C531 1.390 . S
C523 C522 1.387 . S
C523 C525 1.387 . S
H524 C531 0.950 . S
C525 C523 1.387 . S
C525 C527 1.390 . S
C525 H529 0.950 . S
H526 C522 0.950 . S
C527 C525 1.390 . S
C527 C528 1.387 . S
C527 H530 0.950 . S
C528 C527 1.387 . S
C528 C531 1.387 . S
H529 C525 0.950 . S
H530 C527 0.950 . S
C531 C522 1.390 . S
C531 H524 0.950 . S
C531 C528 1.387 . S
C532 C533 1.387 . S
C532 H536 0.950 . S
C532 C541 1.390 . S
C533 C532 1.387 . S
C533 C535 1.387 . S
H534 C541 0.950 . S
C535 C533 1.387 . S
C535 C537 1.390 . S
C535 H539 0.950 . S
H536 C532 0.950 . S
C537 C535 1.390 . S
C537 C538 1.387 . S
C537 H540 0.950 . S
C538 C537 1.387 . S
C538 C541 1.387 . S
H539 C535 0.950 . S
H540 C537 0.950 . S
C541 C532 1.390 . S
C541 H534 0.950 . S
C541 C538 1.387 . S
C542 C543 1.387 . S
C542 H546 0.950 . S
C542 C551 1.390 . S
C543 C542 1.387 . S
C543 C545 1.387 . S
H544 C551 0.950 . S
C545 C543 1.387 . S
C545 C547 1.390 . S
C545 H549 0.950 . S
H546 C542 0.950 . S
C547 C545 1.390 . S
C547 C548 1.387 . S
C547 H550 0.950 . S
C548 C547 1.387 . S
C548 C551 1.387 . S
H549 C545 0.950 . S
H550 C547 0.950 . S
C551 C542 1.390 . S
C551 H544 0.950 . S
C551 C548 1.387 . S
C552 C553 1.387 . S
C552 H556 0.950 . S
C552 C561 1.390 . S
C553 C552 1.387 . S
C553 C555 1.387 . S
H554 C561 0.950 . S
C555 C553 1.387 . S
C555 C557 1.390 . S
C555 H559 0.950 . S
H556 C552 0.950 . S
C557 C555 1.390 . S
C557 C558 1.387 . S
C557 H560 0.950 . S
C558 C557 1.387 . S
C558 C561 1.387 . S
H559 C555 0.950 . S
H560 C557 0.950 . S
C561 C552 1.390 . S
C561 H554 0.950 . S
C561 C558 1.387 . S
C562 C563 1.387 . S
C562 H566 0.950 . S
C562 C571 1.390 . S
C563 C562 1.387 . S
C563 C565 1.387 . S
H564 C571 0.950 . S
C565 C563 1.387 . S
C565 C567 1.390 . S
C565 H569 0.950 . S
H566 C562 0.950 . S
C567 C565 1.390 . S
C567 C568 1.387 . S
C567 H570 0.950 . S
C568 C567 1.387 . S
C568 C571 1.387 . S
H569 C565 0.950 . S
H570 C567 0.950 . S
C571 C562 1.390 . S
C571 H564 0.950 . S
C571 C568 1.387 . S
C572 C573 1.387 . S
C572 H576 0.950 . S
C572 C581 1.390 . S
C573 C572 1.387 . S
C573 C575 1.387 . S
H574 C581 0.950 . S
C575 C573 1.387 . S
C575 C577 1.390 . S
C575 H579 0.950 . S
H576 C572 0.950 . S
C577 C575 1.390 . S
C577 C578 1.387 . S
C577 H580 0.950 . S
C578 C577 1.387 . S
C578 C581 1.387 . S
H579 C575 0.950 . S
H580 C577 0.950 . S
C581 C572 1.390 . S
C581 H574 0.950 . S
C581 C578 1.387 . S
C582 C583 1.387 . S
C582 H586 0.950 . S
C582 C591 1.390 . S
C583 C582 1.387 . S
C583 C585 1.387 . S
H584 C591 0.950 . S
C585 C583 1.387 . S
C585 C587 1.390 . S
C585 H589 0.950 . S
H586 C582 0.950 . S
C587 C585 1.390 . S
C587 C588 1.387 . S
C587 H590 0.950 . S
C588 C587 1.387 . S
C588 C591 1.387 . S
H589 C585 0.950 . S
H590 C587 0.950 . S
C591 C582 1.390 . S
C591 H584 0.950 . S
C591 C588 1.387 . S
C592 C593 1.387 . S
C592 H596 0.950 . S
C592 C601 1.390 . S
C593 C592 1.387 . S
C593 C595 1.387 . S
H594 C601 0.950 . S
C595 C593 1.387 . S
C595 C597 1.390 . S
C595 H599 0.950 . S
H596 C592 0.950 . S
C597 C595 1.390 . S
C597 C598 1.387 . S
C597 H600 0.950 . S
C598 C597 1.387 . S
C598 C601 1.387 . S
H599 C595 0.950 . S
H600 C597 0.950 . S
C601 C592 1.390 . S
C601 H594 0.950 . S
C601 C598 1.387 . S
C602 C603 1.387 . S
C602 H606 0.950 . S
C602 C611 1.390 . S
C603 C602 1.387 . S
C603 C605 1.387 . S
H604 C611 0.950 . S
C605 C603 1.387 . S
C605 C607 1.390 . S
C605 H609 0.950 . S
H606 C602 0.950 . S
C607 C605 1.390 . S
C607 C608 1.387 . S
C607 H610 0.950 . S
C608 C607 1.387 . S
C608 C611 1.387 . S
H609 C605 0.950 . S
H610 C607 0.950 . S
C611 C602 1.390 . S
C611 H604 0.950 . S
C611 C608 1.387 . S
C612 C613 1.387 . S
C612 H616 0.950 . S
C612 C621 1.390 . S
C613 C612 1.387 . S
C613 C615 1.387 . S
H614 C621 0.950 . S
C615 C613 1.387 . S
C615 C617 1.390 . S
C615 H619 0.950 . S
H616 C612 0.950 . S
C617 C615 1.390 . S
C617 C618 1.387 . S
C617 H620 0.950 . S
C618 C617 1.387 . S
C618 C621 1.387 . S
H619 C615 0.950 . S
H620 C617 0.950 . S
C621 C612 1.390 . S
C621 H614 0.950 . S
C621 C618 1.387 . S
C622 C623 1.387 . S
C622 H626 0.950 . S
C622 C631 1.390 . S
C623 C622 1.387 . S
C623 C625 1.387 . S
H624 C631 0.950 . S
C625 C623 1.387 . S
C625 C627 1.390 . S
C625 H629 0.950 . S
H626 C622 0.950 . S
C627 C625 1.390 . S
C627 C628 1.387 . S
C627 H630 0.950 . S
C628 C627 1.387 . S
C628 C631 1.387 . S
H629 C625 0.950 . S
H630 C627 0.950 . S
C631 C622 1.390 . S
C631 H624 0.950 . S
C631 C628 1.387 . S
C393 C1 1.546 . S
C398 C331 1.511 . S
C403 C40 1.296 . S
C408 C334 1.260 . S
C418 C370 1.793 . S
C413 C99 1.808 . S
C423 C118 1.700 . S
C428 C390 1.684 . S
C438 C344 1.653 . S
C433 C16 1.692 . S
C448 C321 1.475 . S
C443 C60 1.494 . S
C458 C374 1.573 . S
C453 C79 1.721 . S
C468 C354 1.408 . S
C463 C138 1.508 . S
C473 C21 1.398 . S
C478 C384 1.333 . S
C488 C350 1.663 . S
C483 C94 1.680 . S
C493 C133 1.655 . S
C498 C316 1.618 . S
C503 C55 1.334 . S
C508 C364 1.303 . S
C518 C330 1.515 . S
C513 C157 1.558 . S
C523 C196 1.295 . S
C528 C336 1.261 . S
C533 C255 1.809 . S
C538 C371 1.792 . S
C543 C289 1.694 . S
C548 C391 1.678 . S
C553 C172 1.689 . S
C558 C341 1.653 . S
C568 C324 1.474 . S
C563 C216 1.494 . S
C578 C376 1.575 . S
C573 C235 1.724 . S
C588 C356 1.406 . S
C583 C294 1.514 . S
C593 C177 1.408 . S
C598 C381 1.334 . S
C608 C351 1.664 . S
C603 C250 1.680 . S
C618 C314 1.620 . S
C613 C274 1.660 . S
C623 C211 1.331 . S
C628 C361 1.299 . S
