# Generated by pormake.
# Topology zzz, (3,6)-cn, num edge types: 1
# Building blocks:
#     Node 0, Type 0, BuildingBlock: BETDIP_clean_linker_0, # of connection points: 3
#     Node 1, Type 0, BuildingBlock: BETDIP_clean_linker_0, # of connection points: 3
#     Node 2, Type 0, BuildingBlock: BETDIP_clean_linker_0, # of connection points: 3
#     Node 3, Type 0, BuildingBlock: BETDIP_clean_linker_0, # of connection points: 3
#     Node 4, Type 0, BuildingBlock: BETDIP_clean_linker_0, # of connection points: 3
#     Node 5, Type 0, BuildingBlock: BETDIP_clean_linker_0, # of connection points: 3
#     Node 6, Type 0, BuildingBlock: BETDIP_clean_linker_0, # of connection points: 3
#     Node 7, Type 0, BuildingBlock: BETDIP_clean_linker_0, # of connection points: 3
#     Node 8, Type 1, BuildingBlock: BETDIP_clean_sbu_0, # of connection points: 6
#     Node 9, Type 1, BuildingBlock: BETDIP_clean_sbu_0, # of connection points: 6
#     Node 10, Type 1, BuildingBlock: BETDIP_clean_sbu_0, # of connection points: 6
#     Node 11, Type 1, BuildingBlock: BETDIP_clean_sbu_0, # of connection points: 6
#     Edge 12, Type (0, 1), BuildingBlock: XIVTED_clean_linker_0, # of connection points: 2
#     Edge 13, Type (0, 1), BuildingBlock: XIVTED_clean_linker_0, # of connection points: 2
#     Edge 14, Type (0, 1), BuildingBlock: XIVTED_clean_linker_0, # of connection points: 2
#     Edge 15, Type (0, 1), BuildingBlock: XIVTED_clean_linker_0, # of connection points: 2
#     Edge 16, Type (0, 1), BuildingBlock: XIVTED_clean_linker_0, # of connection points: 2
#     Edge 17, Type (0, 1), BuildingBlock: XIVTED_clean_linker_0, # of connection points: 2
#     Edge 18, Type (0, 1), BuildingBlock: XIVTED_clean_linker_0, # of connection points: 2
#     Edge 19, Type (0, 1), BuildingBlock: XIVTED_clean_linker_0, # of connection points: 2
#     Edge 20, Type (0, 1), BuildingBlock: XIVTED_clean_linker_0, # of connection points: 2
#     Edge 21, Type (0, 1), BuildingBlock: XIVTED_clean_linker_0, # of connection points: 2
#     Edge 22, Type (0, 1), BuildingBlock: XIVTED_clean_linker_0, # of connection points: 2
#     Edge 23, Type (0, 1), BuildingBlock: XIVTED_clean_linker_0, # of connection points: 2
#     Edge 24, Type (0, 1), BuildingBlock: XIVTED_clean_linker_0, # of connection points: 2
#     Edge 25, Type (0, 1), BuildingBlock: XIVTED_clean_linker_0, # of connection points: 2
#     Edge 26, Type (0, 1), BuildingBlock: XIVTED_clean_linker_0, # of connection points: 2
#     Edge 27, Type (0, 1), BuildingBlock: XIVTED_clean_linker_0, # of connection points: 2
#     Edge 28, Type (0, 1), BuildingBlock: XIVTED_clean_linker_0, # of connection points: 2
#     Edge 29, Type (0, 1), BuildingBlock: XIVTED_clean_linker_0, # of connection points: 2
#     Edge 30, Type (0, 1), BuildingBlock: XIVTED_clean_linker_0, # of connection points: 2
#     Edge 31, Type (0, 1), BuildingBlock: XIVTED_clean_linker_0, # of connection points: 2
#     Edge 32, Type (0, 1), BuildingBlock: XIVTED_clean_linker_0, # of connection points: 2
#     Edge 33, Type (0, 1), BuildingBlock: XIVTED_clean_linker_0, # of connection points: 2
#     Edge 34, Type (0, 1), BuildingBlock: XIVTED_clean_linker_0, # of connection points: 2
#     Edge 35, Type (0, 1), BuildingBlock: XIVTED_clean_linker_0, # of connection points: 2
# Relax obj value: 0.267
# Max RMSD: 0.167
# Mean RMSD: 0.147
data_MOF--net-zzz--node1-BETDIP_clean_sbu_0--node2-BETDIP_clean_linker_0--edge1-XIVTED_clean_linker_0
_symmetry_space_group_name_H-M    P1
_symmetry_Int_Tables_number       1
_symmetry_cell_setting            triclinic
loop_
_symmetry_equiv_pos_as_xyz
'x, y, z'
_cell_length_a     52.291917
_cell_length_b     52.405518
_cell_length_c     13.565782
_cell_angle_alpha  89.807503
_cell_angle_beta   90.116492
_cell_angle_gamma 90.210266
loop_
_atom_site_label
_atom_site_type_symbol
_atom_site_fract_x
_atom_site_fract_y
_atom_site_fract_z
_atom_type_partial_charge
H0 H 0.75877 0.50968 0.49747 0.0
H1 H 0.73223 0.55649 0.25627 0.0
H2 H 0.81077 0.56009 0.34777 0.0
H3 H 0.69406 0.55579 0.39885 0.0
C4 C 0.6944 0.53633 0.37139 0.0
C5 C 0.76223 0.5246 0.44363 0.0
C6 C 0.78709 0.53509 0.43316 0.0
C7 C 0.74194 0.5332 0.38233 0.0
C8 C 0.7471 0.55134 0.30839 0.0
C9 C 0.77187 0.56086 0.29454 0.0
C10 C 0.79135 0.55344 0.35988 0.0
N11 N 0.71713 0.52172 0.3865 0.0
H12 H 0.99849 0.75636 0.4267 0.0
H13 H 0.0604 0.74018 0.22678 0.0
H14 H 0.06243 0.80778 0.40468 0.0
H15 H 1.01289 0.7354 0.13949 0.0
C16 C 1.01224 0.71871 0.18738 0.0
C17 C 0.01715 0.76102 0.39706 0.0
C18 C 0.0297 0.78375 0.42632 0.0
C19 C 0.02844 0.74496 0.3255 0.0
C20 C 0.05207 0.75198 0.28371 0.0
C21 C 0.06464 0.7744 0.31287 0.0
C22 C 0.0535 0.78974 0.38534 0.0
N23 N 1.01563 0.7226 0.29066 0.0
H24 H 0.77377 0.99877 0.47007 0.0
H25 H 0.79419 0.04755 0.22544 0.0
H26 H 0.723 0.05855 0.37618 0.0
H27 H 0.80446 0.99259 0.1938 0.0
C28 C 0.819 0.99963 0.24435 0.0
C29 C 0.76958 1.01487 0.42251 0.0
C30 C 0.74622 0.02813 0.43279 0.0
C31 C 0.78719 0.02212 0.34814 0.0
C32 C 0.78109 0.04232 0.28402 0.0
C33 C 0.75829 0.05588 0.2955 0.0
C34 C 0.74125 0.04887 0.37055 0.0
N35 N 0.81107 1.00941 0.33734 0.0
H36 H 0.52721 0.7665 0.4791 0.0
H37 H 0.47268 0.78528 0.25132 0.0
H38 H 0.46446 0.71579 0.41656 0.0
H39 H 0.52384 0.79176 0.1923 0.0
C40 C 0.52157 0.80767 0.24278 0.0
C41 C 0.50974 0.76224 0.43934 0.0
C42 C 0.49634 0.73925 0.45861 0.0
C43 C 0.50092 0.77922 0.36527 0.0
C44 C 0.479 0.77282 0.31038 0.0
C45 C 0.46554 0.75021 0.32969 0.0
C46 C 0.47405 0.73395 0.405 0.0
N47 N 0.51448 0.80214 0.34209 0.0
H48 H 0.27214 0.49731 0.07516 0.0
H49 H 0.29514 0.5647 0.23546 0.0
H50 H 0.22265 0.56239 0.0869 0.0
H51 H 0.33584 0.55041 0.14968 0.0
C52 C 0.33422 0.53251 0.19003 0.0
C53 C 0.26865 0.51679 0.09763 0.0
C54 C 0.24545 0.5289 0.07103 0.0
C55 C 0.2874 0.53019 0.15322 0.0
C56 C 0.28188 0.555 0.18672 0.0
C57 C 0.25859 0.56671 0.16323 0.0
C58 C 0.24108 0.55382 0.10274 0.0
N59 N 0.31092 0.51827 0.18147 0.0
H60 H 0.04089 0.25874 0.1113 0.0
H61 H 0.9753 0.27847 0.28791 0.0
H62 H 0.97646 0.2078 0.12915 0.0
H63 H 0.98842 0.31994 0.18996 0.0
C64 C 1.00616 0.31883 0.23176 0.0
C65 C 0.02182 0.25448 0.13776 0.0
C66 C 1.00962 0.23142 0.11021 0.0
C67 C 1.00893 0.27221 0.19865 0.0
C68 C 0.98462 0.26584 0.23622 0.0
C69 C 0.97284 0.24268 0.21136 0.0
C70 C 0.98517 0.22609 0.14637 0.0
N71 N 0.02068 0.29583 0.22619 0.0
H72 H 0.26053 0.02076 0.0517 0.0
H73 H 0.23889 0.96033 0.25245 0.0
H74 H 0.31374 0.96119 0.12348 0.0
H75 H 0.19989 0.9675 0.13278 0.0
C76 C 0.19905 0.98624 0.1668 0.0
C77 C 0.2649 1.00306 0.08947 0.0
C78 C 0.28923 0.99173 0.07812 0.0
C79 C 0.24613 0.99112 0.14945 0.0
C80 C 0.25252 0.96874 0.20166 0.0
C81 C 0.2768 0.95785 0.19241 0.0
C82 C 0.29464 0.96911 0.12872 0.0
N83 N 0.22133 1.00205 0.16166 0.0
H84 H 0.50646 0.2562 0.08381 0.0
H85 H 0.57087 0.23713 0.26925 0.0
H86 H 0.56866 0.30917 0.11829 0.0
H87 H 0.56069 0.19588 0.17352 0.0
C88 C 0.54191 0.19626 0.20777 0.0
C89 C 0.52516 0.26079 0.11341 0.0
C90 C 0.53671 0.28453 0.09086 0.0
C91 C 0.53811 0.24291 0.17396 0.0
C92 C 0.56173 0.24981 0.21682 0.0
C93 C 0.57283 0.27366 0.1969 0.0
C94 C 0.5606 0.29034 0.1314 0.0
N95 N 0.52679 0.21875 0.19695 0.0
Tb96 Tb 0.03699 0.99984 0.8367 0.0
Tb97 Tb 1.00214 0.01646 0.68787 0.0
C98 C 0.06476 0.99028 0.98383 0.0
C99 C 0.08266 0.96948 0.00628 0.0
C100 C 0.08519 0.96068 0.10334 0.0
C101 C 0.0991 0.93854 0.12335 0.0
C102 C 0.11071 0.92483 0.04635 0.0
C103 C 0.10966 0.93482 0.95018 0.0
C104 C 0.09566 0.95688 0.93024 0.0
C105 C 0.05738 0.99917 0.6581 0.0
C106 C 1.01263 0.9568 0.71341 0.0
C107 C 0.97455 0.02666 0.54093 0.0
C108 C 0.9572 0.04798 0.51914 0.0
C109 C 0.94399 0.06036 0.59522 0.0
C110 C 0.9303 0.08267 0.57596 0.0
C111 C 0.92977 0.09315 0.48046 0.0
C112 C 0.94184 0.07982 0.40349 0.0
C113 C 0.95543 0.05744 0.42279 0.0
C114 C 0.9814 1.01575 0.8671 0.0
C115 C 0.02612 0.05939 0.81229 0.0
O116 O 0.04066 0.98366 0.97796 0.0
O117 O 0.07149 1.00562 0.91226 0.0
O118 O 0.04316 0.01653 0.69201 0.0
O119 O 0.06106 0.98221 0.72556 0.0
O120 O 0.02264 0.96197 0.80048 0.0
O121 O 1.00644 0.97557 0.65235 0.0
O122 O 0.99881 0.03263 0.54647 0.0
O123 O 0.96752 1.01139 0.61225 0.0
O124 O 0.99599 0.99908 0.83086 0.0
O125 O 0.97791 0.03325 0.80137 0.0
O126 O 1.01632 0.05429 0.72494 0.0
O127 O 0.03219 0.04057 0.87313 0.0
H128 H 0.07537 0.97021 0.163 0.0
H129 H 0.09926 0.93129 0.1982 0.0
H130 H 0.11865 0.92493 0.88952 0.0
H131 H 0.09418 0.96344 0.85474 0.0
H132 H 0.94497 0.05335 0.67026 0.0
H133 H 0.92097 0.09224 0.63662 0.0
H134 H 0.94221 0.08747 0.32926 0.0
H135 H 0.96552 0.04817 0.36321 0.0
Tb136 Tb 0.52358 0.02799 0.84772 0.0
Tb137 Tb 0.51378 0.99394 0.69233 0.0
C138 C 0.54216 0.05308 0.98841 0.0
C139 C 0.56478 0.06963 0.99178 0.0
C140 C 0.5756 0.07634 0.08237 0.0
C141 C 0.59907 0.08913 0.08524 0.0
C142 C 0.6121 0.09527 0.99734 0.0
C143 C 0.60032 0.08982 0.90659 0.0
C144 C 0.57684 0.07709 0.90386 0.0
C145 C 0.51005 0.05188 0.68202 0.0
C146 C 0.57015 1.01078 0.70896 0.0
C147 C 0.49504 0.9693 0.55057 0.0
C148 C 0.46985 0.95724 0.53485 0.0
C149 C 0.44722 0.9711 0.54826 0.0
C150 C 0.4235 0.95912 0.53898 0.0
C151 C 0.42182 0.93301 0.51595 0.0
C152 C 0.4445 0.91915 0.50224 0.0
C153 C 0.46831 0.93118 0.5118 0.0
C154 C 0.52926 0.97024 0.85465 0.0
C155 C 0.46765 1.01102 0.83241 0.0
O156 O 0.54689 0.0289 0.97381 0.0
O157 O 0.52351 0.06128 0.9329 0.0
O158 O 0.52502 0.03317 0.68957 0.0
O159 O 0.5022 0.05757 0.76924 0.0
O160 O 0.56291 0.01998 0.79534 0.0
O161 O 0.55284 1.00207 0.6466 0.0
O162 O 0.49572 0.99425 0.55404 0.0
O163 O 0.50891 0.95895 0.61979 0.0
O164 O 0.51321 0.98828 0.85098 0.0
O165 O 0.53713 0.96562 0.76641 0.0
O166 O 0.4746 1.00322 0.74369 0.0
O167 O 0.48528 0.01815 0.89611 0.0
H168 H 0.5665 0.07071 0.1508 0.0
H169 H 0.60774 0.09267 0.15648 0.0
H170 H 0.60975 0.09445 0.83775 0.0
H171 H 0.5686 0.07216 0.83305 0.0
H172 H 0.44776 0.99122 0.56604 0.0
H173 H 0.40645 0.97057 0.54747 0.0
H174 H 0.44385 0.89904 0.48431 0.0
H175 H 0.48555 0.92009 0.50182 0.0
Tb176 Tb 0.49642 0.51663 0.8628 0.0
Tb177 Tb 0.53137 0.5058 0.69088 0.0
C178 C 0.47348 0.534 0.01026 0.0
C179 C 0.45666 0.55614 0.01999 0.0
C180 C 0.45095 0.56584 0.11322 0.0
C181 C 0.43742 0.58866 0.12184 0.0
C182 C 0.42946 0.60214 0.0371 0.0
C183 C 0.43399 0.59146 0.94387 0.0
C184 C 0.44753 0.56867 0.93541 0.0
C185 C 0.47278 0.50418 0.69564 0.0
C186 C 0.51637 0.56338 0.72819 0.0
C187 C 0.5478 0.49012 0.52913 0.0
C188 C 0.56573 0.46932 0.5088 0.0
C189 C 0.57821 0.45701 0.58726 0.0
C190 C 0.59312 0.43546 0.5704 0.0
C191 C 0.59552 0.42551 0.47481 0.0
C192 C 0.58383 0.4386 0.39571 0.0
C193 C 0.56906 0.46035 0.41269 0.0
C194 C 0.55983 0.50791 0.8548 0.0
C195 C 0.51437 0.46086 0.83589 0.0
O196 O 0.49737 0.53934 0.98986 0.0
O197 O 0.46449 0.51554 0.95565 0.0
O198 O 0.49239 0.51817 0.70443 0.0
O199 O 0.46569 0.49726 0.78292 0.0
O200 O 0.50323 0.55559 0.80651 0.0
O201 O 0.52802 0.54703 0.66916 0.0
O202 O 0.52587 0.48277 0.56676 0.0
O203 O 0.5576 0.50983 0.57531 0.0
O204 O 0.53601 0.51076 0.84627 0.0
O205 O 0.56851 0.50386 0.76733 0.0
O206 O 0.52039 0.46753 0.74439 0.0
O207 O 0.50839 0.47823 0.90239 0.0
H208 H 0.45783 0.55634 0.17915 0.0
H209 H 0.43462 0.59646 0.19482 0.0
H210 H 0.42791 0.60118 0.87731 0.0
H211 H 0.45164 0.56128 0.86266 0.0
H212 H 0.57571 0.46351 0.6622 0.0
H213 H 0.60205 0.42609 0.6328 0.0
H214 H 0.58488 0.43128 0.32129 0.0
H215 H 0.55945 0.46955 0.35138 0.0
Tb216 Tb 1.01016 0.50003 0.83301 0.0
Tb217 Tb 0.02655 0.52479 0.63638 0.0
C218 C 0.98482 0.49137 0.98453 0.0
C219 C 0.95818 0.49959 1.00123 0.0
C220 C 0.95323 0.52006 0.06467 0.0
C221 C 0.92959 0.53235 0.062 0.0
C222 C 0.91041 0.52449 0.99552 0.0
C223 C 0.91478 0.50278 0.93751 0.0
C224 C 0.93835 0.49046 0.94038 0.0
C225 C 0.02427 0.46809 0.69182 0.0
C226 C 0.96809 0.51691 0.67193 0.0
C227 C 0.04647 0.53377 0.47304 0.0
C228 C 0.06723 0.55186 0.45207 0.0
C229 C 0.07648 0.55531 0.35627 0.0
C230 C 0.09721 0.57172 0.3392 0.0
C231 C 0.1089 0.58493 0.41787 0.0
C232 C 0.09881 0.58206 0.51313 0.0
C233 C 0.07829 0.56559 0.53007 0.0
C234 C 0.01998 0.56061 0.77487 0.0
C235 C 0.0684 0.51061 0.8047 0.0
O236 O 1.00165 0.50997 0.97893 0.0
O237 O 0.98809 0.47427 0.91537 0.0
O238 O 1.01175 0.48847 0.68117 0.0
O239 O 0.0282 0.4644 0.78539 0.0
O240 O 0.97394 0.51344 0.7663 0.0
O241 O 0.9861 0.51815 0.60345 0.0
O242 O 0.05303 0.51423 0.52849 0.0
O243 O 0.02504 0.54435 0.50172 0.0
O244 O 0.01832 0.53678 0.78104 0.0
O245 O 0.02544 0.56518 0.6837 0.0
O246 O 0.06319 0.51566 0.71045 0.0
O247 O 0.05014 0.50622 0.87035 0.0
H248 H 0.96811 0.52741 0.11262 0.0
H249 H 0.92657 0.54833 0.11093 0.0
H250 H 0.90057 0.49605 0.88554 0.0
H251 H 0.94142 0.47476 0.89014 0.0
H252 H 0.06814 0.54487 0.29529 0.0
H253 H 0.10478 0.57314 0.26513 0.0
H254 H 0.10717 0.59206 0.57512 0.0
H255 H 0.07141 0.56314 0.60472 0.0
H256 H 0.18873 0.02865 0.28425 0.0
H257 H 0.06987 0.96009 0.53979 0.0
H258 H 0.15669 0.95718 0.1861 0.0
H259 H 0.08322 0.0406 0.57783 0.0
H260 H 0.10204 0.95938 0.4097 0.0
H261 H 0.15124 0.03445 0.3922 0.0
C262 C 0.17374 1.01435 0.28455 0.0
C263 C 0.17593 0.99229 0.22652 0.0
C264 C 0.09782 0.97735 0.44523 0.0
C265 C 0.13322 0.99868 0.35014 0.0
C266 C 0.07936 0.97775 0.51937 0.0
C267 C 0.07373 1.00045 0.56896 0.0
C268 C 0.1115 0.9997 0.42182 0.0
C269 C 0.08679 0.02276 0.54036 0.0
C270 C 0.15234 0.01767 0.34605 0.0
C271 C 0.15591 0.9744 0.22996 0.0
N272 N 0.10539 0.02177 0.46964 0.0
N273 N 0.13566 0.97785 0.29111 0.0
H274 H 0.56479 0.15005 0.21299 0.0
H275 H 0.4825 0.09591 0.66549 0.0
H276 H 0.50132 0.19084 0.3383 0.0
H277 H 0.54018 0.05217 0.51579 0.0
H278 H 0.48761 0.12997 0.54282 0.0
H279 H 0.55475 0.11346 0.3185 0.0
C280 C 0.54856 0.15121 0.26233 0.0
C281 C 0.53389 0.17356 0.26676 0.0
C282 C 0.499 0.11286 0.53609 0.0
C283 C 0.52241 0.13168 0.38957 0.0
C284 C 0.49606 0.09335 0.60611 0.0
C285 C 0.511 0.07116 0.60123 0.0
C286 C 0.51718 0.11034 0.46061 0.0
C287 C 0.52826 0.06892 0.52255 0.0
C288 C 0.54285 0.13028 0.32272 0.0
C289 C 0.51311 0.17399 0.33215 0.0
N290 N 0.53102 0.08832 0.45604 0.0
N291 N 0.50813 0.15346 0.39154 0.0
H292 H 0.38112 0.55457 0.19779 0.0
H293 H 0.42841 0.47721 0.67503 0.0
H294 H 0.33707 0.49415 0.33211 0.0
H295 H 0.47502 0.53301 0.52478 0.0
H296 H 0.39581 0.48161 0.54639 0.0
H297 H 0.4163 0.54561 0.31176 0.0
C298 C 0.37893 0.53923 0.25092 0.0
C299 C 0.35606 0.5251 0.25522 0.0
C300 C 0.41323 0.49276 0.54081 0.0
C301 C 0.3964 0.51485 0.38765 0.0
C302 C 0.43192 0.49022 0.61429 0.0
C303 C 0.45452 0.50481 0.61105 0.0
C304 C 0.41692 0.51019 0.46315 0.0
C305 C 0.45795 0.52135 0.53038 0.0
C306 C 0.39907 0.53413 0.31616 0.0
C307 C 0.35434 0.50549 0.32576 0.0
N308 N 0.4393 0.52373 0.46028 0.0
N309 N 0.37413 0.50108 0.38953 0.0
H310 H 0.04169 0.32244 0.38448 0.0
H311 H 1.00524 0.46839 0.50335 0.0
H312 H 0.98627 0.36623 0.22106 0.0
H313 H 0.04601 0.42062 0.70925 0.0
H314 H 1.00383 0.43281 0.38675 0.0
H315 H 0.04899 0.35961 0.49227 0.0
C316 C 0.03134 0.33994 0.37041 0.0
C317 C 1.01335 0.34126 0.29353 0.0
C318 C 1.01324 0.4301 0.45717 0.0
C319 C 0.02157 0.38381 0.4163 0.0
C320 C 1.01413 0.45048 0.52369 0.0
C321 C 0.02561 0.44747 0.61658 0.0
C322 C 0.02404 0.40642 0.48303 0.0
C323 C 0.03685 0.42376 0.63864 0.0
C324 C 0.0354 0.36111 0.43223 0.0
C325 C 1.0003 0.36437 0.27942 0.0
N326 N 0.03571 0.40416 0.57269 0.0
N327 N 1.00465 0.38461 0.33985 0.0
H328 H 0.85864 0.03191 0.29776 0.0
H329 H 0.96025 0.97007 0.92642 0.0
H330 H 0.84061 0.96789 0.11128 0.0
H331 H 0.95759 0.05096 0.9813 0.0
H332 H 0.92277 0.96431 0.03405 0.0
H333 H 0.90133 0.0344 0.22103 0.0
C334 C 0.86386 0.01804 0.24237 0.0
C335 C 0.84611 0.99961 0.21084 0.0
C336 C 0.93071 0.98325 0.02378 0.0
C337 C 0.8948 1.00221 0.12375 0.0
C338 C 0.95219 0.98651 0.96307 0.0
C339 C 0.962 1.01104 0.94495 0.0
C340 C 0.91933 1.00458 0.06836 0.0
C341 C 0.95057 0.03173 0.99335 0.0
C342 C 0.88811 0.01958 0.1982 0.0
C343 C 0.85375 0.98237 0.13768 0.0
N344 N 0.92987 0.02807 0.05277 0.0
N345 N 0.87748 0.98402 0.09685 0.0
H346 H 0.54961 0.82032 0.08409 0.0
H347 H 0.49853 0.96251 0.01976 0.0
H348 H 0.50247 0.85434 0.3077 0.0
H349 H 0.56322 0.93161 0.86467 0.0
H350 H 0.49865 0.92453 0.12852 0.0
H351 H 0.55372 0.86172 1.00358 0.0
C352 C 0.54036 0.83668 0.11695 0.0
C353 C 0.52588 0.83388 0.20307 0.0
C354 C 0.51301 0.92632 0.0715 0.0
C355 C 0.52993 0.88171 0.10942 0.0
C356 C 0.513 0.94802 0.00969 0.0
C357 C 0.53077 0.95014 0.93236 0.0
C358 C 0.53078 0.90664 0.05507 0.0
C359 C 0.54899 0.93072 0.92249 0.0
C360 C 0.54267 0.8604 0.07085 0.0
C361 C 0.51407 0.85573 0.24192 0.0
N362 N 0.54834 0.90983 0.98199 0.0
N363 N 0.51608 0.87872 0.19411 0.0
H364 H 0.69155 0.4954 0.24261 0.0
H365 H 0.5513 0.53118 0.03605 0.0
H366 H 0.64765 0.55835 0.35474 0.0
H367 H 0.60641 0.48659 0.87626 0.0
H368 H 0.58247 0.5353 0.17247 0.0
H369 H 0.65657 0.48573 0.12707 0.0
C370 C 0.67441 0.50693 0.24407 0.0
C371 C 0.67255 0.52776 0.30835 0.0
C372 C 0.58757 0.52441 0.10778 0.0
C373 C 0.63238 0.51685 0.17603 0.0
C374 C 0.56973 0.52195 0.03032 0.0
C375 C 0.57631 0.50865 0.94445 0.0
C376 C 0.61194 0.51313 0.09973 0.0
C377 C 0.60057 0.49719 0.94074 0.0
C378 C 0.65447 0.50151 0.17771 0.0
C379 C 0.64989 0.54215 0.30624 0.0
N380 N 0.6174 0.49969 0.01673 0.0
N381 N 0.63077 0.5365 0.24124 0.0
H382 H 0.99542 0.71046 1.00347 0.0
H383 H 0.02277 0.55956 0.98104 0.0
H384 H 0.02159 0.6694 0.25996 0.0
H385 H 1.00453 0.60822 0.73425 0.0
H386 H 0.01776 0.59672 0.09209 0.0
H387 H 0.99347 0.67072 0.91238 0.0
C388 C 1.00055 0.69292 0.04102 0.0
C389 C 1.00869 0.69334 0.1394 0.0
C390 C 1.01459 0.59907 0.0137 0.0
C391 C 1.00705 0.64714 0.03399 0.0
C392 C 0.01725 0.57785 0.95054 0.0
C393 C 1.01406 0.5808 0.84815 0.0
C394 C 1.00847 0.6232 0.97378 0.0
C395 C 1.0073 0.60499 0.81243 0.0
C396 C 0.99954 0.67011 0.98871 0.0
C397 C 1.0151 0.66993 0.18418 0.0
N398 N 1.00481 0.62504 0.87463 0.0
N399 N 1.01439 0.64775 0.13082 0.0
H400 H 0.92924 0.2211 0.13579 0.0
H401 H 0.93457 0.13467 0.6016 0.0
H402 H 0.96587 0.24078 0.41014 0.0
H403 H 0.90353 0.11208 0.3198 0.0
H404 H 0.9298 0.17913 0.55415 0.0
H405 H 0.90366 0.18906 0.22249 0.0
C406 C 0.9311 0.21939 0.2151 0.0
C407 C 0.95027 0.23291 0.26549 0.0
C408 C 0.9234 0.1645 0.5035 0.0
C409 C 0.92173 0.19594 0.36442 0.0
C410 C 0.92597 0.13896 0.53082 0.0
C411 C 0.92023 0.11949 0.46324 0.0
C412 C 0.91547 0.17062 0.40737 0.0
C413 C 0.90914 0.12646 0.37278 0.0
C414 C 0.91663 0.20098 0.26454 0.0
C415 C 0.95163 0.23037 0.36823 0.0
N416 N 0.90773 0.15145 0.34646 0.0
N417 N 0.93816 0.21158 0.41398 0.0
H418 H 0.27291 0.95681 0.39272 0.0
H419 H 0.40809 0.89956 0.36988 0.0
H420 H 0.3024 0.91387 0.1479 0.0
H421 H 0.37739 0.93966 0.62025 0.0
H422 H 0.36472 0.89008 0.31535 0.0
H423 H 0.30358 0.93582 0.50117 0.0
C424 C 0.28507 0.94209 0.36255 0.0
C425 C 0.28587 0.93773 0.2607 0.0
C426 C 0.3674 0.90042 0.38361 0.0
C427 C 0.32166 0.91447 0.38321 0.0
C428 C 0.39225 0.90576 0.41509 0.0
C429 C 0.39637 0.92129 0.49772 0.0
C430 C 0.34658 0.91111 0.43403 0.0
C431 C 0.37505 0.92855 0.55368 0.0
C432 C 0.30283 0.93027 0.4244 0.0
C433 C 0.30184 0.91833 0.22576 0.0
N434 N 0.35106 0.92399 0.51942 0.0
N435 N 0.31974 0.908 0.2863 0.0
H436 H 0.61657 0.29792 0.13594 0.0
H437 H 0.59225 0.38326 0.59406 0.0
H438 H 0.57577 0.27478 0.39711 0.0
H439 H 0.62516 0.4092 0.31958 0.0
H440 H 0.60257 0.33961 0.55002 0.0
H441 H 0.63674 0.33232 0.2294 0.0
C442 C 0.61281 0.29935 0.21424 0.0
C443 C 0.59378 0.28417 0.25815 0.0
C444 C 0.60812 0.35488 0.50036 0.0
C445 C 0.61608 0.32377 0.36442 0.0
C446 C 0.60233 0.37995 0.52568 0.0
C447 C 0.60716 0.39999 0.45906 0.0
C448 C 0.61839 0.34969 0.40707 0.0
C449 C 0.62022 0.39428 0.3716 0.0
C450 C 0.62412 0.31915 0.26739 0.0
C451 C 0.58991 0.28646 0.35992 0.0
N452 N 0.62485 0.36961 0.3471 0.0
N453 N 0.60027 0.30654 0.40903 0.0
H454 H 0.26027 0.57495 0.36149 0.0
H455 H 0.12256 0.61624 0.26307 0.0
H456 H 0.23452 0.60936 0.09022 0.0
H457 H 0.15107 0.58563 0.53769 0.0
H458 H 0.16595 0.62981 0.22114 0.0
H459 H 0.22623 0.59666 0.44893 0.0
C460 C 0.24824 0.58809 0.32084 0.0
C461 C 0.2493 0.58932 0.21767 0.0
C462 C 0.16262 0.62076 0.29187 0.0
C463 C 0.20951 0.6131 0.31626 0.0
C464 C 0.13785 0.61281 0.3154 0.0
C465 C 0.13329 0.59897 0.40238 0.0
C466 C 0.18301 0.61433 0.35488 0.0
C467 C 0.15365 0.59588 0.46903 0.0
C468 C 0.22846 0.60027 0.37076 0.0
C469 C 0.23353 0.60706 0.16948 0.0
N470 N 0.17769 0.6029 0.44277 0.0
N471 N 0.2135 0.61743 0.21842 0.0
H472 H 0.07077 0.77659 0.11297 0.0
H473 H 0.13809 0.90607 0.20444 0.0
H474 H 0.10832 0.7968 0.38515 0.0
H475 H 0.10357 0.88302 0.92931 0.0
H476 H 0.14101 0.86121 0.25273 0.0
H477 H 0.09679 0.80809 0.02674 0.0
C478 C 0.08522 0.78693 0.15409 0.0
C479 C 0.08671 0.78481 0.25702 0.0
C480 C 0.13346 0.86592 0.18057 0.0
C481 C 0.11579 0.82168 0.15955 0.0
C482 C 0.13169 0.89157 0.15321 0.0
C483 C 0.1198 0.89839 0.06414 0.0
C484 C 0.12288 0.84706 0.11906 0.0
C485 C 0.11258 0.87878 0.99932 0.0
C486 C 0.09996 0.80518 0.10488 0.0
C487 C 0.10596 0.79857 0.30611 0.0
N488 N 0.11363 0.85407 0.02913 0.0
N489 N 0.11917 0.81706 0.25755 0.0
H490 H 0.74076 0.10415 0.32806 0.0
H491 H 0.65167 0.07902 0.88184 0.0
H492 H 0.75535 0.05013 0.09636 0.0
H493 H 0.63478 0.12965 0.12326 0.0
H494 H 0.69692 0.08215 0.92175 0.0
H495 H 0.7115 0.12699 0.21874 0.0
C496 C 0.7385 0.0977 0.25272 0.0
C497 C 0.74976 0.07486 0.2218 0.0
C498 C 0.68343 0.09317 0.96445 0.0
C499 C 0.7158 0.10022 0.09779 0.0
C500 C 0.65749 0.09153 0.94128 0.0
C501 C 0.63929 0.1034 1.0016 0.0
C502 C 0.69113 0.10638 0.04946 0.0
C503 C 0.64811 0.11939 0.07722 0.0
C504 C 0.72171 0.11064 0.19041 0.0
C505 C 0.74663 0.06745 0.12339 0.0
N506 N 0.67336 0.11988 0.10068 0.0
N507 N 0.72928 0.07966 0.06562 0.0
H508 H 0.41879 0.72958 0.3751 0.0
H509 H 0.44131 0.64326 0.92031 0.0
H510 H 0.46761 0.74799 0.12915 0.0
H511 H 0.39668 0.62206 0.1754 0.0
H512 H 0.43617 0.68791 0.96317 0.0
H513 H 0.39608 0.69871 0.2723 0.0
C514 C 0.42406 0.7278 0.29824 0.0
C515 C 0.44563 0.74062 0.26135 0.0
C516 C 0.42691 0.67357 0.00851 0.0
C517 C 0.42031 0.70499 0.14441 0.0
C518 C 0.4297 0.64794 0.98369 0.0
C519 C 0.42014 0.62877 0.04635 0.0
C520 C 0.41493 0.68004 0.09749 0.0
C521 C 0.40524 0.63619 0.12718 0.0
C522 C 0.41119 0.7101 0.23964 0.0
C523 C 0.45139 0.73809 0.161 0.0
N524 N 0.40365 0.66123 0.15193 0.0
N525 N 0.43932 0.71995 0.10671 0.0
H526 H 0.75949 0.54435 0.11044 0.0
H527 H 0.90248 0.57625 0.01271 0.0
H528 H 0.80279 0.60265 0.26041 0.0
H529 H 0.86225 0.50557 0.95684 0.0
H530 H 0.86134 0.59775 0.03042 0.0
H531 H 0.79016 0.54555 0.97619 0.0
C532 C 0.77466 0.55847 0.11291 0.0
C533 C 0.77954 0.57238 0.1992 0.0
C534 C 0.86165 0.57769 0.01141 0.0
C535 C 0.81503 0.57309 0.0479 0.0
C536 C 0.88509 0.56525 1.00309 0.0
C537 C 0.88593 0.53873 0.98779 0.0
C538 C 0.83892 0.56354 1.00381 0.0
C539 C 0.86276 0.52588 0.97047 0.0
C540 C 0.79239 0.55891 0.03641 0.0
C541 C 0.79914 0.59073 0.19684 0.0
N542 N 0.84024 0.53831 0.98083 0.0
N543 N 0.81693 0.58981 0.12423 0.0
H544 H 0.04465 0.19597 0.16942 0.0
H545 H 1.00999 0.10309 0.71767 0.0
H546 H 0.99925 0.21877 0.91958 0.0
H547 H 0.04733 0.07776 0.98428 0.0
H548 H 1.01162 0.14698 0.77878 0.0
H549 H 0.0525 0.15468 0.08975 0.0
C550 C 0.03727 0.19269 0.09584 0.0
C551 C 0.02178 0.21108 0.05003 0.0
C552 C 0.01964 0.13186 0.82369 0.0
C553 C 0.02969 0.16339 0.95989 0.0
C554 C 0.01873 0.10671 0.78873 0.0
C555 C 0.02841 0.08649 0.84591 0.0
C556 C 0.03039 0.13707 0.91668 0.0
C557 C 0.03949 0.09259 0.93758 0.0
C558 C 0.04136 0.16893 0.05103 0.0
C559 C 1.01179 0.20537 0.95639 0.0
N560 N 0.04007 0.1172 0.9701 0.0
N561 N 1.01571 0.18204 0.91493 0.0
H562 H 0.30485 0.97955 0.89249 0.0
H563 H 0.44634 0.03139 0.9993 0.0
H564 H 0.32416 0.02686 0.14045 0.0
H565 H 0.42571 0.99203 0.73194 0.0
H566 H 0.40129 0.03185 0.04704 0.0
H567 H 0.34775 0.98692 0.82453 0.0
C568 C 0.31779 0.9924 0.93042 0.0
C569 C 0.31067 1.0032 0.02086 0.0
C570 C 0.40654 0.02323 0.97758 0.0
C571 C 0.36042 1.01064 0.94644 0.0
C572 C 0.43237 0.02284 0.95034 0.0
C573 C 0.44005 1.01155 0.86132 0.0
C574 C 0.38798 1.01208 0.91597 0.0
C575 C 0.42085 1.00094 0.80108 0.0
C576 C 0.34245 0.99628 0.89249 0.0
C577 C 0.32861 0.01878 0.0692 0.0
N578 N 0.39583 1.00132 0.8297 0.0
N579 N 0.35267 0.02177 0.03214 0.0
H580 H 0.49975 0.31712 0.15401 0.0
H581 H 0.53219 0.4198 0.73033 0.0
H582 H 0.54786 0.30102 0.90504 0.0
H583 H 0.49602 0.43874 0.00607 0.0
H584 H 0.53221 0.37478 0.77977 0.0
H585 H 0.4911 0.35963 0.08506 0.0
C586 C 0.50755 0.32213 0.08256 0.0
C587 C 0.52407 0.30529 0.03404 0.0
C588 C 0.52414 0.38877 0.82925 0.0
C589 C 0.51523 0.35437 0.95651 0.0
C590 C 0.52413 0.41455 0.80109 0.0
C591 C 0.51421 0.43328 0.86423 0.0
C592 C 0.51398 0.38146 0.9211 0.0
C593 C 0.50406 0.42512 0.95507 0.0
C594 C 0.50302 0.34659 0.04406 0.0
C595 C 0.53455 0.3132 0.9436 0.0
N596 N 0.50423 0.39993 0.98066 0.0
N597 N 0.53015 0.33718 0.90826 0.0
H598 H 0.20911 0.49713 0.14803 0.0
H599 H 0.11167 0.52363 0.69958 0.0
H600 H 0.23073 0.53529 0.87943 0.0
H601 H 0.08809 0.49532 0.98442 0.0
H602 H 0.15623 0.52259 0.75529 0.0
H603 H 0.16625 0.48965 0.079 0.0
C604 C 0.20518 0.5029 0.07276 0.0
C605 C 0.2238 0.51622 0.01843 0.0
C606 C 0.14134 0.51647 0.80552 0.0
C607 C 0.17427 0.50883 0.94014 0.0
C608 C 0.11578 0.51707 0.77372 0.0
C609 C 0.09583 0.50965 0.83727 0.0
C610 C 0.14729 0.50825 0.90171 0.0
C611 C 0.10264 0.50137 0.93264 0.0
C612 C 0.18053 0.49908 0.03396 0.0
C613 C 0.21721 0.52433 0.92281 0.0
N614 N 0.12765 0.50093 0.96177 0.0
N615 N 0.19305 0.5207 0.88715 0.0
H616 H 0.04244 0.79634 0.61513 0.0
H617 H 0.99001 0.93828 0.54458 0.0
H618 H 0.99328 0.81853 0.37528 0.0
H619 H 0.02988 0.91319 0.80599 0.0
H620 H 0.98847 0.89405 0.48713 0.0
H621 H 0.03462 0.83759 0.69424 0.0
C622 C 0.0291 0.80951 0.58126 0.0
C623 C 0.01798 0.8037 0.48967 0.0
C624 C 0.99736 0.89815 0.5575 0.0
C625 C 1.00999 0.85173 0.57709 0.0
C626 C 0.99831 0.92349 0.59037 0.0
C627 C 1.01018 0.92967 0.68035 0.0
C628 C 1.00855 0.87864 0.61431 0.0
C629 C 0.02053 0.9095 0.73619 0.0
C630 C 0.02494 0.83326 0.62563 0.0
C631 C 1.00169 0.82194 0.44706 0.0
N632 N 0.01966 0.88504 0.70199 0.0
N633 N 0.99849 0.8452 0.49025 0.0
H634 H 0.71623 0.98555 0.41726 0.0
H635 H 0.6101 0.03685 0.79603 0.0
H636 H 0.72644 0.05338 0.59118 0.0
H637 H 0.59343 0.9852 0.55726 0.0
H638 H 0.65506 0.0378 0.74449 0.0
H639 H 0.67407 0.97908 0.49358 0.0
C640 C 0.71001 0.99851 0.47438 0.0
C641 C 0.72507 0.01976 0.49924 0.0
C642 C 0.64158 0.02616 0.70371 0.0
C643 C 0.67647 1.013 0.58484 0.0
C644 C 0.61586 0.02559 0.73311 0.0
C645 C 0.59777 1.01106 0.68058 0.0
C646 C 0.64951 1.01177 0.62196 0.0
C647 C 0.60654 0.99686 0.59965 0.0
C648 C 0.68576 0.99508 0.51675 0.0
C649 C 0.71564 0.0365 0.57125 0.0
N650 N 0.63168 0.99754 0.57306 0.0
N651 N 0.69196 0.03285 0.61108 0.0
H652 H 0.53919 0.71008 0.43541 0.0
H653 H 0.48868 0.60233 0.81205 0.0
H654 H 0.47376 0.71955 0.62366 0.0
H655 H 0.54448 0.58817 0.58494 0.0
H656 H 0.48782 0.64732 0.76318 0.0
H657 H 0.54692 0.66811 0.51125 0.0
C658 C 0.52707 0.70377 0.49548 0.0
C659 C 0.50604 0.71853 0.52432 0.0
C660 C 0.50038 0.63442 0.72439 0.0
C661 C 0.51418 0.67008 0.6093 0.0
C662 C 0.5009 0.60863 0.75233 0.0
C663 C 0.51656 0.59118 0.70229 0.0
C664 C 0.51576 0.6431 0.64606 0.0
C665 C 0.53196 0.60074 0.62544 0.0
C666 C 0.53121 0.67961 0.53766 0.0
C667 C 0.49042 0.70897 0.6003 0.0
N668 N 0.53112 0.62593 0.59967 0.0
N669 N 0.49467 0.68536 0.63945 0.0
H670 H 0.82217 0.50117 0.3672 0.0
H671 H 0.92773 0.53538 0.77912 0.0
H672 H 0.80609 0.55001 0.61356 0.0
H673 H 0.9455 0.50207 0.49781 0.0
H674 H 0.88223 0.536 0.73305 0.0
H675 H 0.86586 0.49537 0.42902 0.0
C676 C 0.82758 0.5099 0.43651 0.0
C677 C 0.81019 0.52555 0.48663 0.0
C678 C 0.89604 0.52848 0.68143 0.0
C679 C 0.86077 0.51984 0.55635 0.0
C680 C 0.92203 0.52797 0.70799 0.0
C681 C 0.94051 0.5184 0.64282 0.0
C682 C 0.88829 0.51919 0.58883 0.0
C683 C 0.93202 0.50968 0.55047 0.0
C684 C 0.8527 0.50694 0.47098 0.0
C685 C 0.81863 0.53724 0.57405 0.0
N686 N 0.90664 0.51017 0.52659 0.0
N687 N 0.84328 0.53425 0.60589 0.0
loop_
_geom_bond_atom_site_label_1
_geom_bond_atom_site_label_2
_geom_bond_distance
_geom_bond_site_symmetry_2
_ccdc_geom_bond_type
H0 C5 0.930 . S
H1 C8 0.930 . S
H2 C10 0.930 . S
H3 C4 1.016 . S
C4 H3 1.016 . S
C4 N11 1.286 . S
C5 H0 0.930 . S
C5 C6 1.397 . S
C5 C7 1.361 . S
C6 C5 1.397 . S
C6 C10 1.390 . S
C7 C5 1.361 . S
C7 C8 1.393 . S
C7 N11 1.413 . S
C8 H1 0.930 . S
C8 C7 1.393 . S
C8 C9 1.399 . S
C9 C8 1.399 . S
C9 C10 1.381 . S
C10 H2 0.930 . S
C10 C6 1.390 . S
C10 C9 1.381 . S
N11 C4 1.286 . S
N11 C7 1.413 . S
H12 C17 0.930 . S
H13 C20 0.930 . S
H14 C22 0.930 . S
H15 C16 1.029 . S
C16 H15 1.029 . S
C16 N23 1.268 1_655 S
C17 H12 0.930 . S
C17 C18 1.397 . S
C17 C19 1.361 . S
C18 C17 1.397 . S
C18 C22 1.390 1_455 S
C19 C17 1.361 . S
C19 C20 1.393 . S
C19 N23 1.413 . S
C20 H13 0.930 . S
C20 C19 1.393 . S
C20 C21 1.402 . S
C21 C20 1.402 . S
C21 C22 1.379 1_455 S
C22 H14 0.930 . S
C22 C18 1.390 1_655 S
C22 C21 1.379 1_655 S
N23 C16 1.268 1_455 S
N23 C19 1.413 . S
H24 C29 0.930 . S
H25 C32 0.930 . S
H26 C34 0.930 . S
H27 C28 1.030 . S
C28 H27 1.030 . S
C28 N35 1.268 1_565 S
C29 H24 0.930 . S
C29 C30 1.397 . S
C29 C31 1.361 . S
C30 C29 1.397 . S
C30 C34 1.390 1_545 S
C31 C29 1.361 . S
C31 C32 1.393 . S
C31 N35 1.413 . S
C32 H25 0.930 . S
C32 C31 1.393 . S
C32 C33 1.402 . S
C33 C32 1.402 . S
C33 C34 1.379 1_545 S
C34 H26 0.930 . S
C34 C30 1.390 1_565 S
C34 C33 1.379 1_565 S
N35 C28 1.268 1_545 S
N35 C31 1.413 . S
H36 C41 0.930 . S
H37 C44 0.930 . S
H38 C46 0.930 . S
H39 C40 1.016 . S
C40 H39 1.016 . S
C40 N47 1.286 . S
C41 H36 0.930 . S
C41 C42 1.397 . S
C41 C43 1.361 . S
C42 C41 1.397 . S
C42 C46 1.390 . S
C43 C41 1.361 . S
C43 C44 1.393 . S
C43 N47 1.413 . S
C44 H37 0.930 . S
C44 C43 1.393 . S
C44 C45 1.399 . S
C45 C44 1.399 . S
C45 C46 1.381 . S
C46 H38 0.930 . S
C46 C42 1.390 . S
C46 C45 1.381 . S
N47 C40 1.286 . S
N47 C43 1.413 . S
H48 C53 0.930 . S
H49 C56 0.930 . S
H50 C58 0.930 . S
H51 C52 1.016 . S
C52 H51 1.016 . S
C52 N59 1.286 . S
C53 H48 0.930 . S
C53 C54 1.397 . S
C53 C55 1.361 1_556 S
C54 C53 1.397 . S
C54 C58 1.390 1_556 S
C55 C53 1.361 1_554 S
C55 C56 1.393 . S
C55 N59 1.413 . S
C56 H49 0.930 . S
C56 C55 1.393 . S
C56 C57 1.399 . S
C57 C56 1.399 . S
C57 C58 1.381 . S
C58 H50 0.930 . S
C58 C54 1.390 1_554 S
C58 C57 1.381 . S
N59 C52 1.286 . S
N59 C55 1.413 . S
H60 C65 0.930 . S
H61 C68 0.930 . S
H62 C70 0.930 . S
H63 C64 1.026 . S
C64 H63 1.026 . S
C64 N71 1.273 1_655 S
C65 H60 0.930 . S
C65 C66 1.397 . S
C65 C67 1.361 1_556 S
C66 C65 1.397 . S
C66 C70 1.390 1_456 S
C67 C65 1.361 1_554 S
C67 C68 1.393 . S
C67 N71 1.413 . S
C68 H61 0.930 . S
C68 C67 1.393 . S
C68 C69 1.404 . S
C69 C68 1.404 . S
C69 C70 1.378 1_455 S
C70 H62 0.930 . S
C70 C66 1.390 1_654 S
C70 C69 1.378 1_655 S
N71 C64 1.273 1_455 S
N71 C67 1.413 . S
H72 C77 0.930 . S
H73 C80 0.930 . S
H74 C82 0.930 . S
H75 C76 1.025 . S
C76 H75 1.025 . S
C76 N83 1.273 1_565 S
C77 H72 0.930 . S
C77 C78 1.397 . S
C77 C79 1.361 1_556 S
C78 C77 1.397 . S
C78 C82 1.390 1_546 S
C79 C77 1.361 1_554 S
C79 C80 1.393 . S
C79 N83 1.413 . S
C80 H73 0.930 . S
C80 C79 1.393 . S
C80 C81 1.404 . S
C81 C80 1.404 . S
C81 C82 1.378 1_545 S
C82 H74 0.930 . S
C82 C78 1.390 1_564 S
C82 C81 1.378 1_565 S
N83 C76 1.273 1_545 S
N83 C79 1.413 . S
H84 C89 0.930 . S
H85 C92 0.930 . S
H86 C94 0.930 . S
H87 C88 1.016 . S
C88 H87 1.016 . S
C88 N95 1.286 . S
C89 H84 0.930 . S
C89 C90 1.397 . S
C89 C91 1.361 1_556 S
C90 C89 1.397 . S
C90 C94 1.390 1_556 S
C91 C89 1.361 1_554 S
C91 C92 1.393 . S
C91 N95 1.413 . S
C92 H85 0.930 . S
C92 C91 1.393 . S
C92 C93 1.399 . S
C93 C92 1.399 . S
C93 C94 1.381 . S
C94 H86 0.930 . S
C94 C90 1.390 1_554 S
C94 C93 1.381 . S
N95 C88 1.286 . S
N95 C91 1.413 . S
Tb96 C98 2.809 . S
Tb96 O116 2.484 . S
Tb96 O117 2.440 . S
Tb96 O118 2.658 1_565 S
Tb96 O119 2.409 . S
Tb96 O120 2.378 . S
Tb96 O124 2.325 1_455 S
Tb96 O127 2.341 1_565 S
Tb97 C107 2.809 . S
Tb97 O118 2.325 1_655 S
Tb97 O121 2.341 1_545 S
Tb97 O122 2.484 . S
Tb97 O123 2.440 . S
Tb97 O124 2.658 1_545 S
Tb97 O125 2.409 . S
Tb97 O126 2.378 . S
C98 Tb96 2.809 . S
C98 C99 1.514 . S
C98 O116 1.248 . S
C98 O117 1.266 . S
C99 C98 1.514 . S
C99 C100 1.359 1_556 S
C99 C104 1.348 1_556 S
C100 C99 1.359 1_554 S
C100 C101 1.380 . S
C100 H128 0.929 1_455 S
C101 C100 1.380 . S
C101 C102 1.347 . S
C101 H129 0.931 1_455 S
C102 C101 1.347 . S
C102 C103 1.369 . S
C103 C102 1.369 . S
C103 C104 1.408 . S
C103 H130 0.930 . S
C104 C99 1.348 1_554 S
C104 C103 1.408 . S
C104 H131 0.930 1_554 S
C105 O118 1.281 1_565 S
C105 O119 1.254 . S
C106 O120 1.236 1_655 S
C106 O121 1.266 . S
C107 Tb97 2.809 . S
C107 C108 1.514 . S
C107 O122 1.248 . S
C107 O123 1.266 . S
C108 C107 1.514 . S
C108 C109 1.359 . S
C108 C113 1.348 . S
C109 C108 1.359 . S
C109 C110 1.380 . S
C109 H132 0.929 1_655 S
C110 C109 1.380 . S
C110 C111 1.347 . S
C110 H133 0.931 1_655 S
C111 C110 1.347 . S
C111 C112 1.369 . S
C112 C111 1.369 . S
C112 C113 1.408 . S
C112 H134 0.930 . S
C113 C108 1.348 . S
C113 C112 1.408 . S
C113 H135 0.930 . S
C114 O124 1.281 1_545 S
C114 O125 1.254 . S
C115 O126 1.236 1_455 S
C115 O127 1.266 . S
O116 Tb96 2.484 . S
O116 C98 1.248 . S
O117 Tb96 2.440 . S
O117 C98 1.266 . S
O118 Tb96 2.658 1_545 S
O118 Tb97 2.325 1_455 S
O118 C105 1.281 1_545 S
O119 Tb96 2.409 . S
O119 C105 1.254 . S
O120 Tb96 2.378 . S
O120 C106 1.236 1_455 S
O121 Tb97 2.341 1_565 S
O121 C106 1.266 . S
O122 Tb97 2.484 . S
O122 C107 1.248 . S
O123 Tb97 2.440 . S
O123 C107 1.266 . S
O124 Tb96 2.325 1_655 S
O124 Tb97 2.658 1_565 S
O124 C114 1.281 1_565 S
O125 Tb97 2.409 . S
O125 C114 1.254 . S
O126 Tb97 2.378 . S
O126 C115 1.236 1_655 S
O127 Tb96 2.341 1_545 S
O127 C115 1.266 . S
H128 C100 0.929 1_655 S
H129 C101 0.931 1_655 S
H130 C103 0.930 . S
H131 C104 0.930 1_556 S
H132 C109 0.929 1_455 S
H133 C110 0.931 1_455 S
H134 C112 0.930 . S
H135 C113 0.930 . S
Tb136 C138 2.809 . S
Tb136 O156 2.502 . S
Tb136 O157 2.440 . S
Tb136 O158 2.658 . S
Tb136 O159 2.409 . S
Tb136 O160 2.378 . S
Tb136 O164 2.325 1_545 S
Tb136 O167 2.341 . S
Tb137 C147 2.809 . S
Tb137 O158 2.325 1_565 S
Tb137 O161 2.341 . S
Tb137 O162 2.498 . S
Tb137 O163 2.440 . S
Tb137 O164 2.658 . S
Tb137 O165 2.409 . S
Tb137 O166 2.378 . S
C138 Tb136 2.809 . S
C138 C139 1.516 . S
C138 O156 1.288 . S
C138 O157 1.266 . S
C139 C138 1.516 . S
C139 C140 1.356 1_556 S
C139 C144 1.348 1_556 S
C140 C139 1.356 1_554 S
C140 C141 1.380 . S
C140 H168 0.929 1_545 S
C141 C140 1.380 . S
C141 C142 1.347 . S
C141 H169 0.931 1_545 S
C142 C141 1.347 . S
C142 C143 1.369 . S
C143 C142 1.369 . S
C143 C144 1.408 . S
C143 H170 0.930 . S
C144 C139 1.348 1_554 S
C144 C143 1.408 . S
C144 H171 0.930 1_554 S
C145 O158 1.281 . S
C145 O159 1.254 . S
C146 O160 1.236 1_565 S
C146 O161 1.266 . S
C147 Tb137 2.809 . S
C147 C148 1.514 . S
C147 O162 1.279 . S
C147 O163 1.266 . S
C148 C147 1.514 . S
C148 C149 1.359 . S
C148 C153 1.348 . S
C149 C148 1.359 . S
C149 C150 1.380 . S
C149 H172 0.929 1_565 S
C150 C149 1.380 . S
C150 C151 1.347 . S
C150 H173 0.931 1_565 S
C151 C150 1.347 . S
C151 C152 1.369 . S
C152 C151 1.369 . S
C152 C153 1.408 . S
C152 H174 0.930 . S
C153 C148 1.348 . S
C153 C152 1.408 . S
C153 H175 0.930 . S
C154 O164 1.281 . S
C154 O165 1.254 . S
C155 O166 1.236 1_545 S
C155 O167 1.266 . S
O156 Tb136 2.502 . S
O156 C138 1.288 . S
O157 Tb136 2.440 . S
O157 C138 1.266 . S
O158 Tb136 2.658 . S
O158 Tb137 2.325 1_545 S
O158 C145 1.281 . S
O159 Tb136 2.409 . S
O159 C145 1.254 . S
O160 Tb136 2.378 . S
O160 C146 1.236 1_545 S
O161 Tb137 2.341 . S
O161 C146 1.266 . S
O162 Tb137 2.498 . S
O162 C147 1.279 . S
O163 Tb137 2.440 . S
O163 C147 1.266 . S
O164 Tb136 2.325 1_565 S
O164 Tb137 2.658 . S
O164 C154 1.281 . S
O165 Tb137 2.409 . S
O165 C154 1.254 . S
O166 Tb137 2.378 . S
O166 C155 1.236 1_565 S
O167 Tb136 2.341 . S
O167 C155 1.266 . S
H168 C140 0.929 1_565 S
H169 C141 0.931 1_565 S
H170 C143 0.930 . S
H171 C144 0.930 1_556 S
H172 C149 0.929 1_545 S
H173 C150 0.931 1_545 S
H174 C152 0.930 . S
H175 C153 0.930 . S
Tb176 C178 2.809 . S
Tb176 O196 2.484 . S
Tb176 O197 2.440 . S
Tb176 O198 2.658 . S
Tb176 O199 2.409 . S
Tb176 O200 2.378 . S
Tb176 O204 2.325 . S
Tb176 O207 2.341 . S
Tb177 C187 2.809 . S
Tb177 O198 2.325 . S
Tb177 O201 2.341 . S
Tb177 O202 2.484 . S
Tb177 O203 2.440 . S
Tb177 O204 2.658 . S
Tb177 O205 2.409 . S
Tb177 O206 2.378 . S
C178 Tb176 2.809 . S
C178 C179 1.514 1_556 S
C178 O196 1.248 . S
C178 O197 1.266 . S
C179 C178 1.514 1_554 S
C179 C180 1.359 . S
C179 C184 1.348 . S
C180 C179 1.359 . S
C180 C181 1.380 . S
C180 H208 0.929 . S
C181 C180 1.380 . S
C181 C182 1.347 . S
C181 H209 0.931 . S
C182 C181 1.347 . S
C182 C183 1.369 . S
C183 C182 1.369 . S
C183 C184 1.408 . S
C183 H210 0.930 . S
C184 C179 1.348 . S
C184 C183 1.408 . S
C184 H211 0.930 1_554 S
C185 O198 1.281 . S
C185 O199 1.254 . S
C186 O200 1.236 . S
C186 O201 1.266 . S
C187 Tb177 2.809 . S
C187 C188 1.514 . S
C187 O202 1.248 . S
C187 O203 1.266 . S
C188 C187 1.514 . S
C188 C189 1.359 . S
C188 C193 1.348 . S
C189 C188 1.359 . S
C189 C190 1.380 . S
C189 H212 0.929 . S
C190 C189 1.380 . S
C190 C191 1.347 . S
C190 H213 0.931 . S
C191 C190 1.347 . S
C191 C192 1.369 . S
C192 C191 1.369 . S
C192 C193 1.408 . S
C192 H214 0.930 . S
C193 C188 1.348 . S
C193 C192 1.408 . S
C193 H215 0.930 . S
C194 O204 1.281 . S
C194 O205 1.254 . S
C195 O206 1.236 . S
C195 O207 1.266 . S
O196 Tb176 2.484 . S
O196 C178 1.248 . S
O197 Tb176 2.440 . S
O197 C178 1.266 . S
O198 Tb176 2.658 . S
O198 Tb177 2.325 . S
O198 C185 1.281 . S
O199 Tb176 2.409 . S
O199 C185 1.254 . S
O200 Tb176 2.378 . S
O200 C186 1.236 . S
O201 Tb177 2.341 . S
O201 C186 1.266 . S
O202 Tb177 2.484 . S
O202 C187 1.248 . S
O203 Tb177 2.440 . S
O203 C187 1.266 . S
O204 Tb176 2.325 . S
O204 Tb177 2.658 . S
O204 C194 1.281 . S
O205 Tb177 2.409 . S
O205 C194 1.254 . S
O206 Tb177 2.378 . S
O206 C195 1.236 . S
O207 Tb176 2.341 . S
O207 C195 1.266 . S
H208 C180 0.929 . S
H209 C181 0.931 . S
H210 C183 0.930 . S
H211 C184 0.930 1_556 S
H212 C189 0.929 . S
H213 C190 0.931 . S
H214 C192 0.930 . S
H215 C193 0.930 . S
Tb216 C218 2.809 . S
Tb216 O236 2.484 . S
Tb216 O237 2.440 . S
Tb216 O238 2.658 1_655 S
Tb216 O239 2.409 . S
Tb216 O240 2.378 . S
Tb216 O244 2.325 . S
Tb216 O247 2.341 1_655 S
Tb217 C227 2.809 . S
Tb217 O238 2.325 . S
Tb217 O241 2.341 1_455 S
Tb217 O242 2.484 . S
Tb217 O243 2.440 . S
Tb217 O244 2.658 1_455 S
Tb217 O245 2.409 . S
Tb217 O246 2.378 . S
C218 Tb216 2.809 . S
C218 C219 1.509 1_556 S
C218 O236 1.248 . S
C218 O237 1.266 . S
C219 C218 1.509 1_554 S
C219 C220 1.363 . S
C219 C224 1.349 . S
C220 C219 1.363 . S
C220 C221 1.380 . S
C220 H248 0.929 . S
C221 C220 1.380 . S
C221 C222 1.347 . S
C221 H249 0.931 . S
C222 C221 1.347 . S
C222 C223 1.369 . S
C223 C222 1.369 . S
C223 C224 1.408 . S
C223 H250 0.930 . S
C224 C219 1.349 . S
C224 C223 1.408 . S
C224 H251 0.930 1_554 S
C225 O238 1.273 1_655 S
C225 O239 1.264 . S
C226 O240 1.236 . S
C226 O241 1.266 . S
C227 Tb217 2.809 . S
C227 C228 1.514 . S
C227 O242 1.248 . S
C227 O243 1.266 . S
C228 C227 1.514 . S
C228 C229 1.359 . S
C228 C233 1.348 . S
C229 C228 1.359 . S
C229 C230 1.380 . S
C229 H252 0.929 . S
C230 C229 1.380 . S
C230 C231 1.347 . S
C230 H253 0.931 . S
C231 C230 1.347 . S
C231 C232 1.369 . S
C232 C231 1.369 . S
C232 C233 1.408 . S
C232 H254 0.930 . S
C233 C228 1.348 . S
C233 C232 1.408 . S
C233 H255 0.930 . S
C234 O244 1.270 1_455 S
C234 O245 1.269 . S
C235 O246 1.236 . S
C235 O247 1.266 . S
O236 Tb216 2.484 . S
O236 C218 1.248 . S
O237 Tb216 2.440 . S
O237 C218 1.266 . S
O238 Tb216 2.658 1_455 S
O238 Tb217 2.325 . S
O238 C225 1.273 1_455 S
O239 Tb216 2.409 . S
O239 C225 1.264 . S
O240 Tb216 2.378 . S
O240 C226 1.236 . S
O241 Tb217 2.341 1_655 S
O241 C226 1.266 . S
O242 Tb217 2.484 . S
O242 C227 1.248 . S
O243 Tb217 2.440 . S
O243 C227 1.266 . S
O244 Tb216 2.325 . S
O244 Tb217 2.658 1_655 S
O244 C234 1.270 1_655 S
O245 Tb217 2.409 . S
O245 C234 1.269 . S
O246 Tb217 2.378 . S
O246 C235 1.236 . S
O247 Tb216 2.341 1_455 S
O247 C235 1.266 . S
H248 C220 0.929 . S
H249 C221 0.931 . S
H250 C223 0.930 . S
H251 C224 0.930 1_556 S
H252 C229 0.929 . S
H253 C230 0.931 . S
H254 C232 0.930 . S
H255 C233 0.930 . S
H256 C262 0.930 . S
H257 C266 0.930 . S
H258 C271 0.929 . S
H259 C269 0.929 . S
H260 C264 0.929 . S
H261 C270 0.929 . S
C262 H256 0.930 . S
C262 C263 1.387 . S
C262 C270 1.378 . S
C263 C262 1.387 . S
C263 C271 1.413 1_545 S
C264 H260 0.929 . S
C264 C266 1.378 . S
C264 C268 1.370 . S
C265 C268 1.461 1_545 S
C265 C270 1.380 . S
C265 N273 1.397 1_545 S
C266 H257 0.930 . S
C266 C264 1.378 . S
C266 C267 1.377 . S
C267 C266 1.377 . S
C267 C269 1.423 1_565 S
C268 C264 1.370 . S
C268 C265 1.461 1_565 S
C268 N272 1.407 1_565 S
C269 H259 0.929 . S
C269 C267 1.423 1_545 S
C269 N272 1.384 . S
C270 H261 0.929 . S
C270 C262 1.378 . S
C270 C265 1.380 . S
C271 H258 0.929 . S
C271 C263 1.413 1_565 S
C271 N273 1.384 . S
N272 C268 1.407 1_545 S
N272 C269 1.384 . S
N273 C265 1.397 1_565 S
N273 C271 1.384 . S
H274 C280 0.930 . S
H275 C284 0.930 . S
H276 C289 0.929 . S
H277 C287 0.929 . S
H278 C282 0.929 . S
H279 C288 0.929 . S
C280 H274 0.930 . S
C280 C281 1.367 . S
C280 C288 1.378 . S
C281 C280 1.367 . S
C281 C289 1.433 . S
C282 H278 0.929 . S
C282 C284 1.378 . S
C282 C286 1.350 . S
C283 C286 1.463 . S
C283 C288 1.350 . S
C283 N291 1.427 . S
C284 H275 0.930 . S
C284 C282 1.378 . S
C284 C285 1.367 . S
C285 C284 1.367 . S
C285 C287 1.433 . S
C286 C282 1.350 . S
C286 C283 1.463 . S
C286 N290 1.427 . S
C287 H277 0.929 . S
C287 C285 1.433 . S
C287 N290 1.384 . S
C288 H279 0.929 . S
C288 C280 1.378 . S
C288 C283 1.350 . S
C289 H276 0.929 . S
C289 C281 1.433 . S
C289 N291 1.384 . S
N290 C286 1.427 . S
N290 C287 1.384 . S
N291 C283 1.427 . S
N291 C289 1.384 . S
H292 C298 0.930 . S
H293 C302 0.930 . S
H294 C307 0.929 . S
H295 C305 0.929 . S
H296 C300 0.929 . S
H297 C306 0.929 . S
C298 H292 0.930 . S
C298 C299 1.367 . S
C298 C306 1.378 . S
C299 C298 1.367 . S
C299 C307 1.433 . S
C300 H296 0.929 . S
C300 C302 1.378 . S
C300 C304 1.350 . S
C301 C304 1.463 . S
C301 C306 1.350 . S
C301 N309 1.427 . S
C302 H293 0.930 . S
C302 C300 1.378 . S
C302 C303 1.367 . S
C303 C302 1.367 . S
C303 C305 1.433 . S
C304 C300 1.350 . S
C304 C301 1.463 . S
C304 N308 1.427 . S
C305 H295 0.929 . S
C305 C303 1.433 . S
C305 N308 1.384 . S
C306 H297 0.929 . S
C306 C298 1.378 . S
C306 C301 1.350 . S
C307 H294 0.929 . S
C307 C299 1.433 . S
C307 N309 1.384 . S
N308 C304 1.427 . S
N308 C305 1.384 . S
N309 C301 1.427 . S
N309 C307 1.384 . S
H310 C316 0.930 . S
H311 C320 0.930 . S
H312 C325 0.929 . S
H313 C323 0.929 . S
H314 C318 0.929 . S
H315 C324 0.929 . S
C316 H310 0.930 . S
C316 C317 1.391 . S
C316 C324 1.378 . S
C317 C316 1.391 . S
C317 C325 1.409 1_455 S
C318 H314 0.929 . S
C318 C320 1.378 . S
C318 C322 1.346 . S
C319 C322 1.463 1_455 S
C319 C324 1.350 . S
C319 N327 1.427 1_455 S
C320 H311 0.930 . S
C320 C318 1.378 . S
C320 C321 1.351 1_655 S
C321 C320 1.351 1_455 S
C321 C323 1.450 . S
C322 C318 1.346 . S
C322 C319 1.463 1_655 S
C322 N326 1.431 1_655 S
C323 H313 0.929 . S
C323 C321 1.450 . S
C323 N326 1.384 . S
C324 H315 0.929 . S
C324 C316 1.378 . S
C324 C319 1.350 . S
C325 H312 0.929 . S
C325 C317 1.409 1_655 S
C325 N327 1.384 . S
N326 C322 1.431 1_455 S
N326 C323 1.384 . S
N327 C319 1.427 1_655 S
N327 C325 1.384 . S
H328 C334 0.930 . S
H329 C338 0.930 . S
H330 C343 0.929 . S
H331 C341 0.929 . S
H332 C336 0.929 . S
H333 C342 0.929 . S
C334 H328 0.930 . S
C334 C335 1.391 . S
C334 C342 1.378 . S
C335 C334 1.391 . S
C335 C343 1.409 1_545 S
C336 H332 0.929 . S
C336 C338 1.378 1_554 S
C336 C340 1.377 . S
C337 C340 1.460 1_545 S
C337 C342 1.385 . S
C337 N345 1.392 1_545 S
C338 H329 0.930 . S
C338 C336 1.378 1_556 S
C338 C339 1.383 . S
C339 C338 1.383 . S
C339 C341 1.417 1_565 S
C340 C336 1.377 . S
C340 C337 1.460 1_565 S
C340 N344 1.400 1_565 S
C341 H331 0.929 . S
C341 C339 1.417 1_545 S
C341 N344 1.384 1_556 S
C342 H333 0.929 . S
C342 C334 1.378 . S
C342 C337 1.385 . S
C343 H330 0.929 . S
C343 C335 1.409 1_565 S
C343 N345 1.384 . S
N344 C340 1.400 1_545 S
N344 C341 1.384 1_554 S
N345 C337 1.392 1_565 S
N345 C343 1.384 . S
H346 C352 0.930 . S
H347 C356 0.930 . S
H348 C361 0.929 . S
H349 C359 0.929 . S
H350 C354 0.929 . S
H351 C360 0.929 . S
C352 H346 0.930 . S
C352 C353 1.367 . S
C352 C360 1.378 . S
C353 C352 1.367 . S
C353 C361 1.433 . S
C354 H350 0.929 . S
C354 C356 1.378 . S
C354 C358 1.350 . S
C355 C358 1.463 . S
C355 C360 1.350 . S
C355 N363 1.427 . S
C356 H347 0.930 . S
C356 C354 1.378 . S
C356 C357 1.367 1_554 S
C357 C356 1.367 1_556 S
C357 C359 1.433 . S
C358 C354 1.350 . S
C358 C355 1.463 . S
C358 N362 1.427 . S
C359 H349 0.929 . S
C359 C357 1.433 . S
C359 N362 1.384 1_556 S
C360 H351 0.929 . S
C360 C352 1.378 . S
C360 C355 1.350 . S
C361 H348 0.929 . S
C361 C353 1.433 . S
C361 N363 1.384 . S
N362 C358 1.427 . S
N362 C359 1.384 1_554 S
N363 C355 1.427 . S
N363 C361 1.384 . S
H364 C370 0.930 . S
H365 C374 0.930 . S
H366 C379 0.929 . S
H367 C377 0.929 . S
H368 C372 0.929 . S
H369 C378 0.929 . S
C370 H364 0.930 . S
C370 C371 1.367 . S
C370 C378 1.378 . S
C371 C370 1.367 . S
C371 C379 1.433 . S
C372 H368 0.929 . S
C372 C374 1.378 1_554 S
C372 C376 1.350 . S
C373 C376 1.463 . S
C373 C378 1.350 . S
C373 N381 1.427 . S
C374 H365 0.930 . S
C374 C372 1.378 1_556 S
C374 C375 1.367 . S
C375 C374 1.367 . S
C375 C377 1.433 . S
C376 C372 1.350 . S
C376 C373 1.463 . S
C376 N380 1.427 . S
C377 H367 0.929 . S
C377 C375 1.433 . S
C377 N380 1.384 1_556 S
C378 H369 0.929 . S
C378 C370 1.378 . S
C378 C373 1.350 . S
C379 H366 0.929 . S
C379 C371 1.433 . S
C379 N381 1.384 . S
N380 C376 1.427 . S
N380 C377 1.384 1_554 S
N381 C373 1.427 . S
N381 C379 1.384 . S
H382 C388 0.930 . S
H383 C392 0.930 . S
H384 C397 0.929 . S
H385 C395 0.929 . S
H386 C390 0.929 . S
H387 C396 0.929 . S
C388 H382 0.930 . S
C388 C389 1.383 . S
C388 C396 1.378 . S
C389 C388 1.383 . S
C389 C397 1.417 1_655 S
C390 H386 0.929 . S
C390 C392 1.378 1_554 S
C390 C394 1.349 1_455 S
C391 C394 1.463 . S
C391 C396 1.350 . S
C391 N399 1.427 1_655 S
C392 H383 0.930 . S
C392 C390 1.378 1_556 S
C392 C393 1.351 1_455 S
C393 C392 1.351 1_655 S
C393 C395 1.449 1_556 S
C394 C390 1.349 1_655 S
C394 C391 1.463 . S
C394 N398 1.428 . S
C395 H385 0.929 . S
C395 C393 1.449 1_554 S
C395 N398 1.384 . S
C396 H387 0.929 . S
C396 C388 1.378 . S
C396 C391 1.350 . S
C397 H384 0.929 . S
C397 C389 1.417 1_455 S
C397 N399 1.384 . S
N398 C394 1.428 . S
N398 C395 1.384 . S
N399 C391 1.427 1_455 S
N399 C397 1.384 . S
H400 C406 0.930 . S
H401 C410 0.930 . S
H402 C415 0.929 . S
H403 C413 0.929 . S
H404 C408 0.925 1_455 S
H405 C414 0.929 . S
C406 H400 0.930 . S
C406 C407 1.367 1_655 S
C406 C414 1.378 . S
C407 C406 1.367 1_455 S
C407 C415 1.433 . S
C408 H404 0.925 1_655 S
C408 C410 1.378 . S
C408 C412 1.350 . S
C409 C412 1.463 . S
C409 C414 1.350 . S
C409 N417 1.427 1_655 S
C410 H401 0.930 . S
C410 C408 1.378 . S
C410 C411 1.367 . S
C411 C410 1.367 . S
C411 C413 1.433 . S
C412 C408 1.350 . S
C412 C409 1.463 . S
C412 N416 1.427 . S
C413 H403 0.929 . S
C413 C411 1.433 . S
C413 N416 1.384 . S
C414 H405 0.929 . S
C414 C406 1.378 . S
C414 C409 1.350 . S
C415 H402 0.929 . S
C415 C407 1.433 . S
C415 N417 1.384 . S
N416 C412 1.427 . S
N416 C413 1.384 . S
N417 C409 1.427 1_455 S
N417 C415 1.384 . S
H418 C424 0.930 . S
H419 C428 0.930 . S
H420 C433 0.929 . S
H421 C431 0.929 1_545 S
H422 C426 0.929 . S
H423 C432 0.929 . S
C424 H418 0.930 . S
C424 C425 1.367 . S
C424 C432 1.378 . S
C425 C424 1.367 . S
C425 C433 1.433 1_545 S
C426 H422 0.929 . S
C426 C428 1.378 . S
C426 C430 1.350 . S
C427 C430 1.463 . S
C427 C432 1.350 1_565 S
C427 N435 1.427 . S
C428 H419 0.930 . S
C428 C426 1.378 . S
C428 C429 1.367 . S
C429 C428 1.367 . S
C429 C431 1.433 . S
C430 C426 1.350 . S
C430 C427 1.463 . S
C430 N434 1.427 . S
C431 H421 0.929 1_565 S
C431 C429 1.433 . S
C431 N434 1.384 . S
C432 H423 0.929 . S
C432 C424 1.378 . S
C432 C427 1.350 1_545 S
C433 H420 0.929 . S
C433 C425 1.433 1_565 S
C433 N435 1.384 . S
N434 C430 1.427 . S
N434 C431 1.384 . S
N435 C427 1.427 . S
N435 C433 1.384 . S
H436 C442 0.930 . S
H437 C446 0.930 . S
H438 C451 0.929 . S
H439 C449 0.929 . S
H440 C444 0.929 . S
H441 C450 0.929 . S
C442 H436 0.930 . S
C442 C443 1.367 . S
C442 C450 1.378 . S
C443 C442 1.367 . S
C443 C451 1.433 . S
C444 H440 0.929 . S
C444 C446 1.378 . S
C444 C448 1.350 . S
C445 C448 1.463 . S
C445 C450 1.350 . S
C445 N453 1.427 . S
C446 H437 0.930 . S
C446 C444 1.378 . S
C446 C447 1.367 . S
C447 C446 1.367 . S
C447 C449 1.433 . S
C448 C444 1.350 . S
C448 C445 1.463 . S
C448 N452 1.427 . S
C449 H439 0.929 . S
C449 C447 1.433 . S
C449 N452 1.384 . S
C450 H441 0.929 . S
C450 C442 1.378 . S
C450 C445 1.350 . S
C451 H438 0.929 . S
C451 C443 1.433 . S
C451 N453 1.384 . S
N452 C448 1.427 . S
N452 C449 1.384 . S
N453 C445 1.427 . S
N453 C451 1.384 . S
H454 C460 0.930 . S
H455 C464 0.930 . S
H456 C469 0.929 . S
H457 C467 0.929 . S
H458 C462 0.929 . S
H459 C468 0.929 . S
C460 H454 0.930 . S
C460 C461 1.367 . S
C460 C468 1.378 . S
C461 C460 1.367 . S
C461 C469 1.433 . S
C462 H458 0.929 . S
C462 C464 1.378 . S
C462 C466 1.350 . S
C463 C466 1.463 . S
C463 C468 1.350 . S
C463 N471 1.427 . S
C464 H455 0.930 . S
C464 C462 1.378 . S
C464 C465 1.367 . S
C465 C464 1.367 . S
C465 C467 1.433 . S
C466 C462 1.350 . S
C466 C463 1.463 . S
C466 N470 1.427 . S
C467 H457 0.929 . S
C467 C465 1.433 . S
C467 N470 1.384 . S
C468 H459 0.929 . S
C468 C460 1.378 . S
C468 C463 1.350 . S
C469 H456 0.929 . S
C469 C461 1.433 . S
C469 N471 1.384 . S
N470 C466 1.427 . S
N470 C467 1.384 . S
N471 C463 1.427 . S
N471 C469 1.384 . S
H472 C478 0.930 . S
H473 C482 0.930 . S
H474 C487 0.929 . S
H475 C485 0.929 1_556 S
H476 C480 0.929 . S
H477 C486 0.929 . S
C478 H472 0.930 . S
C478 C479 1.367 . S
C478 C486 1.378 . S
C479 C478 1.367 . S
C479 C487 1.433 1_655 S
C480 H476 0.929 . S
C480 C482 1.378 . S
C480 C484 1.350 . S
C481 C484 1.463 . S
C481 C486 1.350 1_455 S
C481 N489 1.427 . S
C482 H473 0.930 . S
C482 C480 1.378 . S
C482 C483 1.367 . S
C483 C482 1.367 . S
C483 C485 1.433 . S
C484 C480 1.350 . S
C484 C481 1.463 . S
C484 N488 1.427 . S
C485 H475 0.929 1_554 S
C485 C483 1.433 . S
C485 N488 1.384 . S
C486 H477 0.929 . S
C486 C478 1.378 . S
C486 C481 1.350 1_655 S
C487 H474 0.929 . S
C487 C479 1.433 1_455 S
C487 N489 1.384 . S
N488 C484 1.427 . S
N488 C485 1.384 . S
N489 C481 1.427 . S
N489 C487 1.384 . S
H490 C496 0.930 . S
H491 C500 0.930 . S
H492 C505 0.929 . S
H493 C503 0.929 . S
H494 C498 0.929 1_565 S
H495 C504 0.929 . S
C496 H490 0.930 . S
C496 C497 1.331 1_545 S
C496 C504 1.378 . S
C497 C496 1.331 1_565 S
C497 C505 1.459 . S
C498 H494 0.929 1_545 S
C498 C500 1.378 . S
C498 C502 1.350 . S
C499 C502 1.463 . S
C499 C504 1.350 . S
C499 N507 1.427 1_545 S
C500 H491 0.930 . S
C500 C498 1.378 . S
C500 C501 1.367 . S
C501 C500 1.367 . S
C501 C503 1.433 . S
C502 C498 1.350 . S
C502 C499 1.463 . S
C502 N506 1.427 . S
C503 H493 0.929 . S
C503 C501 1.433 . S
C503 N506 1.384 . S
C504 H495 0.929 . S
C504 C496 1.378 . S
C504 C499 1.350 . S
C505 H492 0.929 . S
C505 C497 1.459 . S
C505 N507 1.384 . S
N506 C502 1.427 . S
N506 C503 1.384 . S
N507 C499 1.427 1_565 S
N507 C505 1.384 . S
H508 C514 0.930 . S
H509 C518 0.930 . S
H510 C523 0.929 . S
H511 C521 0.929 . S
H512 C516 0.929 . S
H513 C522 0.929 . S
C514 H508 0.930 . S
C514 C515 1.367 . S
C514 C522 1.378 . S
C515 C514 1.367 . S
C515 C523 1.433 . S
C516 H512 0.929 . S
C516 C518 1.378 . S
C516 C520 1.350 . S
C517 C520 1.463 . S
C517 C522 1.350 . S
C517 N525 1.427 . S
C518 H509 0.930 . S
C518 C516 1.378 . S
C518 C519 1.367 . S
C519 C518 1.367 . S
C519 C521 1.433 . S
C520 C516 1.350 . S
C520 C517 1.463 . S
C520 N524 1.427 . S
C521 H511 0.929 . S
C521 C519 1.433 . S
C521 N524 1.384 . S
C522 H513 0.929 . S
C522 C514 1.378 . S
C522 C517 1.350 . S
C523 H510 0.929 . S
C523 C515 1.433 . S
C523 N525 1.384 . S
N524 C520 1.427 . S
N524 C521 1.384 . S
N525 C517 1.427 . S
N525 C523 1.384 . S
H526 C532 0.930 . S
H527 C536 0.930 . S
H528 C541 0.929 . S
H529 C539 0.929 . S
H530 C534 0.929 . S
H531 C540 0.929 . S
C532 H526 0.930 . S
C532 C533 1.367 . S
C532 C540 1.378 . S
C533 C532 1.367 . S
C533 C541 1.433 . S
C534 H530 0.929 . S
C534 C536 1.378 . S
C534 C538 1.350 . S
C535 C538 1.463 . S
C535 C540 1.350 . S
C535 N543 1.427 . S
C536 H527 0.930 . S
C536 C534 1.378 . S
C536 C537 1.367 . S
C537 C536 1.367 . S
C537 C539 1.433 . S
C538 C534 1.350 . S
C538 C535 1.463 . S
C538 N542 1.427 . S
C539 H529 0.929 . S
C539 C537 1.433 . S
C539 N542 1.384 . S
C540 H531 0.929 . S
C540 C532 1.378 . S
C540 C535 1.350 . S
C541 H528 0.929 . S
C541 C533 1.433 . S
C541 N543 1.384 . S
N542 C538 1.427 . S
N542 C539 1.384 . S
N543 C535 1.427 . S
N543 C541 1.384 . S
H544 C550 0.930 1_554 S
H545 C554 0.930 . S
H546 C559 0.933 . S
H547 C557 0.929 . S
H548 C552 0.929 . S
H549 C558 0.929 1_554 S
C550 H544 0.930 1_556 S
C550 C551 1.367 . S
C550 C558 1.378 . S
C551 C550 1.367 . S
C551 C559 1.433 . S
C552 H548 0.929 . S
C552 C554 1.378 . S
C552 C556 1.350 . S
C553 C556 1.463 . S
C553 C558 1.350 . S
C553 N561 1.427 . S
C554 H545 0.930 . S
C554 C552 1.378 . S
C554 C555 1.367 . S
C555 C554 1.367 . S
C555 C557 1.433 . S
C556 C552 1.350 . S
C556 C553 1.463 . S
C556 N560 1.427 . S
C557 H547 0.929 . S
C557 C555 1.433 . S
C557 N560 1.384 . S
C558 H549 0.929 1_556 S
C558 C550 1.378 . S
C558 C553 1.350 . S
C559 H546 0.933 . S
C559 C551 1.433 . S
C559 N561 1.384 . S
N560 C556 1.427 . S
N560 C557 1.384 . S
N561 C553 1.427 . S
N561 C559 1.384 . S
H562 C568 0.930 . S
H563 C572 0.930 . S
H564 C577 0.929 . S
H565 C575 0.929 . S
H566 C570 0.929 . S
H567 C576 0.929 . S
C568 H562 0.930 . S
C568 C569 1.367 1_565 S
C568 C576 1.378 . S
C569 C568 1.367 1_545 S
C569 C577 1.433 . S
C570 H566 0.929 . S
C570 C572 1.378 . S
C570 C574 1.350 . S
C571 C574 1.463 . S
C571 C576 1.350 1_545 S
C571 N579 1.427 . S
C572 H563 0.930 . S
C572 C570 1.378 . S
C572 C573 1.367 . S
C573 C572 1.367 . S
C573 C575 1.433 1_545 S
C574 C570 1.350 . S
C574 C571 1.463 . S
C574 N578 1.427 1_545 S
C575 H565 0.929 . S
C575 C573 1.433 1_565 S
C575 N578 1.384 . S
C576 H567 0.929 . S
C576 C568 1.378 . S
C576 C571 1.350 1_565 S
C577 H564 0.929 . S
C577 C569 1.433 . S
C577 N579 1.384 . S
N578 C574 1.427 1_565 S
N578 C575 1.384 . S
N579 C571 1.427 . S
N579 C577 1.384 . S
H580 C586 0.930 1_554 S
H581 C590 0.930 . S
H582 C595 0.929 . S
H583 C593 0.929 . S
H584 C588 0.929 . S
H585 C594 0.929 . S
C586 H580 0.930 1_556 S
C586 C587 1.367 . S
C586 C594 1.378 . S
C587 C586 1.367 . S
C587 C595 1.433 . S
C588 H584 0.929 . S
C588 C590 1.378 . S
C588 C592 1.350 . S
C589 C592 1.463 . S
C589 C594 1.350 . S
C589 N597 1.427 . S
C590 H581 0.930 . S
C590 C588 1.378 . S
C590 C591 1.367 . S
C591 C590 1.367 . S
C591 C593 1.433 . S
C592 C588 1.350 . S
C592 C589 1.463 . S
C592 N596 1.427 . S
C593 H583 0.929 . S
C593 C591 1.433 . S
C593 N596 1.384 . S
C594 H585 0.929 . S
C594 C586 1.378 . S
C594 C589 1.350 . S
C595 H582 0.929 . S
C595 C587 1.433 . S
C595 N597 1.384 . S
N596 C592 1.427 . S
N596 C593 1.384 . S
N597 C589 1.427 . S
N597 C595 1.384 . S
H598 C604 0.930 . S
H599 C608 0.930 . S
H600 C613 0.929 . S
H601 C611 0.929 . S
H602 C606 0.929 . S
H603 C612 0.929 . S
C604 H598 0.930 . S
C604 C605 1.367 . S
C604 C612 1.378 . S
C605 C604 1.367 . S
C605 C613 1.433 . S
C606 H602 0.929 . S
C606 C608 1.378 . S
C606 C610 1.350 . S
C607 C610 1.463 . S
C607 C612 1.350 . S
C607 N615 1.427 . S
C608 H599 0.930 . S
C608 C606 1.378 . S
C608 C609 1.367 . S
C609 C608 1.367 . S
C609 C611 1.433 . S
C610 C606 1.350 . S
C610 C607 1.463 . S
C610 N614 1.427 . S
C611 H601 0.929 . S
C611 C609 1.433 . S
C611 N614 1.384 . S
C612 H603 0.929 . S
C612 C604 1.378 . S
C612 C607 1.350 . S
C613 H600 0.929 . S
C613 C605 1.433 . S
C613 N615 1.384 . S
N614 C610 1.427 . S
N614 C611 1.384 . S
N615 C607 1.427 . S
N615 C613 1.384 . S
H616 C622 0.930 . S
H617 C626 0.930 . S
H618 C631 0.929 . S
H619 C629 0.929 . S
H620 C624 0.929 . S
H621 C630 0.929 . S
C622 H616 0.930 . S
C622 C623 1.367 1_455 S
C622 C630 1.378 . S
C623 C622 1.367 1_655 S
C623 C631 1.433 . S
C624 H620 0.929 . S
C624 C626 1.378 . S
C624 C628 1.350 . S
C625 C628 1.463 . S
C625 C630 1.350 1_655 S
C625 N633 1.427 . S
C626 H617 0.930 . S
C626 C624 1.378 . S
C626 C627 1.367 . S
C627 C626 1.367 . S
C627 C629 1.433 1_655 S
C628 C624 1.350 . S
C628 C625 1.463 . S
C628 N632 1.427 1_655 S
C629 H619 0.929 . S
C629 C627 1.433 1_455 S
C629 N632 1.384 . S
C630 H621 0.929 . S
C630 C622 1.378 . S
C630 C625 1.350 1_455 S
C631 H618 0.929 . S
C631 C623 1.433 . S
C631 N633 1.384 . S
N632 C628 1.427 1_455 S
N632 C629 1.384 . S
N633 C625 1.427 . S
N633 C631 1.384 . S
H634 C640 0.930 . S
H635 C644 0.930 . S
H636 C649 0.929 . S
H637 C647 0.929 . S
H638 C642 0.929 . S
H639 C648 0.929 . S
C640 H634 0.930 . S
C640 C641 1.367 . S
C640 C648 1.378 . S
C641 C640 1.367 . S
C641 C649 1.433 1_565 S
C642 H638 0.929 . S
C642 C644 1.378 . S
C642 C646 1.350 1_545 S
C643 C646 1.463 . S
C643 C648 1.350 . S
C643 N651 1.427 1_565 S
C644 H635 0.930 . S
C644 C642 1.378 . S
C644 C645 1.367 1_545 S
C645 C644 1.367 1_565 S
C645 C647 1.433 . S
C646 C642 1.350 1_565 S
C646 C643 1.463 . S
C646 N650 1.427 . S
C647 H637 0.929 . S
C647 C645 1.433 . S
C647 N650 1.384 . S
C648 H639 0.929 . S
C648 C640 1.378 . S
C648 C643 1.350 . S
C649 H636 0.929 . S
C649 C641 1.433 1_545 S
C649 N651 1.384 . S
N650 C646 1.427 . S
N650 C647 1.384 . S
N651 C643 1.427 1_545 S
N651 C649 1.384 . S
H652 C658 0.930 . S
H653 C662 0.930 . S
H654 C667 0.929 . S
H655 C665 0.929 . S
H656 C660 0.929 . S
H657 C666 0.929 . S
C658 H652 0.930 . S
C658 C659 1.367 . S
C658 C666 1.378 . S
C659 C658 1.367 . S
C659 C667 1.433 . S
C660 H656 0.929 . S
C660 C662 1.378 . S
C660 C664 1.350 . S
C661 C664 1.463 . S
C661 C666 1.350 . S
C661 N669 1.427 . S
C662 H653 0.930 . S
C662 C660 1.378 . S
C662 C663 1.367 . S
C663 C662 1.367 . S
C663 C665 1.433 . S
C664 C660 1.350 . S
C664 C661 1.463 . S
C664 N668 1.427 . S
C665 H655 0.929 . S
C665 C663 1.433 . S
C665 N668 1.384 . S
C666 H657 0.929 . S
C666 C658 1.378 . S
C666 C661 1.350 . S
C667 H654 0.929 . S
C667 C659 1.433 . S
C667 N669 1.384 . S
N668 C664 1.427 . S
N668 C665 1.384 . S
N669 C661 1.427 . S
N669 C667 1.384 . S
H670 C676 0.930 . S
H671 C680 0.930 . S
H672 C685 0.929 . S
H673 C683 0.929 . S
H674 C678 0.929 . S
H675 C684 0.929 . S
C676 H670 0.930 . S
C676 C677 1.367 . S
C676 C684 1.378 . S
C677 C676 1.367 . S
C677 C685 1.433 . S
C678 H674 0.929 . S
C678 C680 1.378 . S
C678 C682 1.350 . S
C679 C682 1.463 . S
C679 C684 1.350 . S
C679 N687 1.427 . S
C680 H671 0.930 . S
C680 C678 1.378 . S
C680 C681 1.367 . S
C681 C680 1.367 . S
C681 C683 1.433 . S
C682 C678 1.350 . S
C682 C679 1.463 . S
C682 N686 1.427 . S
C683 H673 0.929 . S
C683 C681 1.433 . S
C683 N686 1.384 . S
C684 H675 0.929 . S
C684 C676 1.378 . S
C684 C679 1.350 . S
C685 H672 0.929 . S
C685 C677 1.433 . S
C685 N687 1.384 . S
N686 C682 1.427 . S
N686 C683 1.384 . S
N687 C679 1.427 . S
N687 C685 1.384 . S
C263 C76 1.811 1_545 S
C267 C105 1.961 . S
C285 C145 1.983 . S
C281 C88 1.822 . S
C303 C185 1.988 . S
C299 C52 1.844 . S
C321 C225 1.974 1_455 S
C317 C64 1.813 1_455 S
C339 C114 1.966 1_565 S
C335 C28 1.812 1_545 S
C353 C40 1.815 . S
C357 C154 1.986 . S
C371 C4 1.833 . S
C375 C194 1.992 . S
C389 C16 1.825 . S
C393 C234 1.972 1_655 S
C411 C111 0.465 . S
C407 C69 0.496 . S
C429 C151 0.504 . S
C425 C81 0.518 . S
C447 C191 0.490 . S
C443 C93 0.519 . S
C461 C57 0.509 . S
C465 C231 0.487 . S
C479 C21 0.511 1_655 S
C483 C102 0.483 . S
C501 C142 0.475 . S
C497 C33 0.480 1_565 S
C519 C182 0.482 . S
C515 C45 0.497 . S
C533 C9 0.483 . S
C537 C222 0.470 . S
C551 C66 2.069 . S
C555 C115 2.309 . S
C569 C78 2.043 . S
C573 C155 2.278 . S
C591 C195 2.256 . S
C587 C90 2.010 . S
C609 C235 2.293 . S
C605 C54 2.045 . S
C623 C18 2.089 1_655 S
C627 C106 2.325 . S
C645 C146 2.271 . S
C641 C30 2.040 1_565 S
C663 C186 2.251 . S
C659 C42 2.029 . S
C677 C6 2.058 . S
C681 C226 2.302 . S
