# Generated by pormake.
# Topology ssa, (4,4)-cn, num edge types: 1
# Building blocks:
#     Node 0, Type 0, BuildingBlock: KOZSID_clean_sbu_0, # of connection points: 4
#     Node 1, Type 0, BuildingBlock: KOZSID_clean_sbu_0, # of connection points: 4
#     Node 2, Type 0, BuildingBlock: KOZSID_clean_sbu_0, # of connection points: 4
#     Node 3, Type 0, BuildingBlock: KOZSID_clean_sbu_0, # of connection points: 4
#     Node 4, Type 0, BuildingBlock: KOZSID_clean_sbu_0, # of connection points: 4
#     Node 5, Type 0, BuildingBlock: KOZSID_clean_sbu_0, # of connection points: 4
#     Node 6, Type 1, BuildingBlock: NAHDIM_clean_linker_0, # of connection points: 4
#     Node 7, Type 1, BuildingBlock: NAHDIM_clean_linker_0, # of connection points: 4
#     Node 8, Type 1, BuildingBlock: NAHDIM_clean_linker_0, # of connection points: 4
#     Node 9, Type 1, BuildingBlock: NAHDIM_clean_linker_0, # of connection points: 4
#     Node 10, Type 1, BuildingBlock: NAHDIM_clean_linker_0, # of connection points: 4
#     Node 11, Type 1, BuildingBlock: NAHDIM_clean_linker_0, # of connection points: 4
#     Edge 12, Type (0, 1), BuildingBlock: XUDNAN_clean_linker_2, # of connection points: 2
#     Edge 13, Type (0, 1), BuildingBlock: XUDNAN_clean_linker_2, # of connection points: 2
#     Edge 14, Type (0, 1), BuildingBlock: XUDNAN_clean_linker_2, # of connection points: 2
#     Edge 15, Type (0, 1), BuildingBlock: XUDNAN_clean_linker_2, # of connection points: 2
#     Edge 16, Type (0, 1), BuildingBlock: XUDNAN_clean_linker_2, # of connection points: 2
#     Edge 17, Type (0, 1), BuildingBlock: XUDNAN_clean_linker_2, # of connection points: 2
#     Edge 18, Type (0, 1), BuildingBlock: XUDNAN_clean_linker_2, # of connection points: 2
#     Edge 19, Type (0, 1), BuildingBlock: XUDNAN_clean_linker_2, # of connection points: 2
#     Edge 20, Type (0, 1), BuildingBlock: XUDNAN_clean_linker_2, # of connection points: 2
#     Edge 21, Type (0, 1), BuildingBlock: XUDNAN_clean_linker_2, # of connection points: 2
#     Edge 22, Type (0, 1), BuildingBlock: XUDNAN_clean_linker_2, # of connection points: 2
#     Edge 23, Type (0, 1), BuildingBlock: XUDNAN_clean_linker_2, # of connection points: 2
#     Edge 24, Type (0, 1), BuildingBlock: XUDNAN_clean_linker_2, # of connection points: 2
#     Edge 25, Type (0, 1), BuildingBlock: XUDNAN_clean_linker_2, # of connection points: 2
#     Edge 26, Type (0, 1), BuildingBlock: XUDNAN_clean_linker_2, # of connection points: 2
#     Edge 27, Type (0, 1), BuildingBlock: XUDNAN_clean_linker_2, # of connection points: 2
#     Edge 28, Type (0, 1), BuildingBlock: XUDNAN_clean_linker_2, # of connection points: 2
#     Edge 29, Type (0, 1), BuildingBlock: XUDNAN_clean_linker_2, # of connection points: 2
#     Edge 30, Type (0, 1), BuildingBlock: XUDNAN_clean_linker_2, # of connection points: 2
#     Edge 31, Type (0, 1), BuildingBlock: XUDNAN_clean_linker_2, # of connection points: 2
#     Edge 32, Type (0, 1), BuildingBlock: XUDNAN_clean_linker_2, # of connection points: 2
#     Edge 33, Type (0, 1), BuildingBlock: XUDNAN_clean_linker_2, # of connection points: 2
#     Edge 34, Type (0, 1), BuildingBlock: XUDNAN_clean_linker_2, # of connection points: 2
#     Edge 35, Type (0, 1), BuildingBlock: XUDNAN_clean_linker_2, # of connection points: 2
# Relax obj value: 0.012
# Max RMSD: 0.050
# Mean RMSD: 0.032
data_MOF--net-ssa--node1-KOZSID_clean_sbu_0--node2-NAHDIM_clean_linker_0--edge1-XUDNAN_clean_linker_2
_symmetry_space_group_name_H-M    P1
_symmetry_Int_Tables_number       1
_symmetry_cell_setting            triclinic
loop_
_symmetry_equiv_pos_as_xyz
'x, y, z'
_cell_length_a     65.933987
_cell_length_b     67.231736
_cell_length_c     57.755778
_cell_angle_alpha  87.646847
_cell_angle_beta   90.44732
_cell_angle_gamma 122.04076
loop_
_atom_site_label
_atom_site_type_symbol
_atom_site_fract_x
_atom_site_fract_y
_atom_site_fract_z
_atom_type_partial_charge
C0 C 0.98953 0.52015 0.98414 0.0
C1 C 0.96719 0.51544 0.99094 0.0
C2 C 0.96084 0.50154 0.01073 0.0
C3 C 0.97953 0.49851 0.01486 0.0
N4 N 0.99749 0.50964 0.99892 0.0
Co5 Co 0.02816 0.51005 0.99854 0.0
N6 N 0.01829 0.48884 0.02715 0.0
C7 C 0.99707 0.47858 0.03869 0.0
C8 C 0.9955 0.46492 0.0577 0.0
C9 C 0.01708 0.46669 0.0585 0.0
C10 C 0.03062 0.48145 0.03987 0.0
N11 N 0.0592 0.51114 0.99866 0.0
C12 C 0.06793 0.50227 0.01456 0.0
C13 C 0.09083 0.508 0.00866 0.0
C14 C 0.09697 0.52124 0.98843 0.0
C15 C 0.07756 0.52285 0.98319 0.0
N16 N 0.03775 0.53067 0.9695 0.0
C17 C 0.05823 0.53941 0.95694 0.0
C18 C 0.05969 0.55278 0.93772 0.0
C19 C 0.03881 0.55239 0.93783 0.0
C20 C 0.02572 0.53868 0.95718 0.0
N21 N 0.04302 0.53808 0.01781 0.0
C22 C 0.06333 0.57845 0.04421 0.0
C23 C 0.0742 0.57845 0.02359 0.0
C24 C 0.06397 0.55819 0.01088 0.0
C25 C 0.04241 0.55776 0.05172 0.0
C26 C 0.03254 0.53797 0.03827 0.0
N27 N 0.01322 0.48197 0.97917 0.0
C28 C 0.01591 0.46068 0.94777 0.0
C29 C 0.99234 0.4421 0.95177 0.0
C30 C 0.97925 0.444 0.9695 0.0
C31 C 0.98995 0.46389 0.98289 0.0
C32 C 0.02587 0.48023 0.9615 0.0
H33 H 0.97904 0.46411 0.99622 0.0
H34 H 0.04387 0.49368 0.95744 0.0
H35 H 0.07329 0.5593 0.99546 0.0
H36 H 0.01631 0.52286 0.04467 0.0
C37 C 0.98 0.48404 0.03262 0.0
C38 C 0.00193 0.53375 0.96298 0.0
C39 C 0.05551 0.48895 0.03575 0.0
C40 C 0.07615 0.5355 0.96413 0.0
H41 H 0.95634 0.52108 0.9823 0.0
H42 H 0.94431 0.49409 0.02062 0.0
H43 H 0.98075 0.45548 0.06999 0.0
H44 H 0.02249 0.45855 0.07165 0.0
H45 H 0.10201 0.50331 0.01818 0.0
H46 H 0.11373 0.52907 0.97886 0.0
H47 H 0.07428 0.56185 0.92521 0.0
H48 H 0.03379 0.56124 0.92512 0.0
H49 H 0.09064 0.59403 0.0173 0.0
H50 H 0.03332 0.55703 0.06758 0.0
H51 H 0.0267 0.46025 0.93399 0.0
H52 H 0.96098 0.42998 0.97343 0.0
C53 C 0.54191 0.00809 0.5457 0.0
C54 C 0.54044 0.99635 0.5666 0.0
C55 C 0.51664 0.9802 0.5709 0.0
C56 C 0.50492 0.98292 0.55248 0.0
N57 N 0.51992 0.9996 0.53675 0.0
Co58 Co 0.51036 0.00954 0.50806 0.0
N59 N 0.4785 0.98013 0.50886 0.0
C60 C 0.46769 0.96559 0.52751 0.0
C61 C 0.44542 0.94675 0.52275 0.0
C62 C 0.44206 0.94972 0.49969 0.0
C63 C 0.4626 0.97027 0.49166 0.0
N64 N 0.50059 0.01944 0.47947 0.0
C65 C 0.4829 0.00622 0.46464 0.0
C66 C 0.4825 0.02005 0.44635 0.0
C67 C 0.5004 0.04276 0.45018 0.0
C68 C 0.5108 0.04152 0.47045 0.0
N69 N 0.54223 0.03906 0.50731 0.0
C70 C 0.54818 0.05909 0.49533 0.0
C71 C 0.57149 0.07679 0.49847 0.0
C72 C 0.58068 0.06735 0.51354 0.0
C73 C 0.56235 0.04434 0.51881 0.0
N74 N 0.52292 0.99472 0.48939 0.0
C75 C 0.53793 0.97199 0.4611 0.0
C76 C 0.54302 0.99454 0.45486 0.0
C77 C 0.53563 0.00572 0.46939 0.0
C78 C 0.52569 0.96127 0.48202 0.0
C79 C 0.51816 0.97283 0.4958 0.0
N80 N 0.49764 0.02426 0.52678 0.0
C81 C 0.50067 0.04662 0.55958 0.0
C82 C 0.47847 0.04357 0.55453 0.0
C83 C 0.46614 0.03102 0.53524 0.0
C84 C 0.47597 0.0214 0.52163 0.0
C85 C 0.51004 0.03697 0.54538 0.0
H86 H 0.46589 0.01143 0.50708 0.0
H87 H 0.52722 0.03961 0.54965 0.0
H88 H 0.53982 0.02311 0.46424 0.0
H89 H 0.50807 0.96384 0.51143 0.0
C90 C 0.48059 0.96806 0.54769 0.0
C91 C 0.56402 0.02882 0.53632 0.0
C92 C 0.4657 0.98089 0.46824 0.0
C93 C 0.53262 0.05948 0.47892 0.0
H94 H 0.55499 0.99945 0.5778 0.0
H95 H 0.50889 0.9676 0.58543 0.0
H96 H 0.43344 0.93212 0.53437 0.0
H97 H 0.42625 0.9382 0.48997 0.0
H98 H 0.47066 0.0144 0.4317 0.0
H99 H 0.50592 0.05811 0.43892 0.0
H100 H 0.5809 0.09424 0.4903 0.0
H101 H 0.59869 0.07646 0.52013 0.0
H102 H 0.55264 0.00346 0.43888 0.0
H103 H 0.52128 0.94376 0.48734 0.0
H104 H 0.51066 0.05634 0.5744 0.0
H105 H 0.44887 0.02836 0.53094 0.0
C106 C 0.54786 0.53575 0.97803 0.0
C107 C 0.5505 0.5498 0.95854 0.0
C108 C 0.52859 0.54686 0.95456 0.0
C109 C 0.51381 0.53123 0.97172 0.0
N110 N 0.52511 0.52444 0.98657 0.0
Co111 Co 0.50973 0.50101 0.01292 0.0
N112 N 0.48065 0.50289 0.01187 0.0
C113 C 0.47413 0.51191 0.99425 0.0
C114 C 0.45395 0.51216 0.99931 0.0
C115 C 0.4474 0.5027 0.02149 0.0
C116 C 0.46389 0.49697 0.02865 0.0
N117 N 0.49423 0.47743 0.03894 0.0
C118 C 0.47581 0.47296 0.05289 0.0
C119 C 0.46991 0.45443 0.06863 0.0
C120 C 0.48552 0.44733 0.06445 0.0
C121 C 0.49988 0.46176 0.04637 0.0
N122 N 0.53874 0.49904 0.01435 0.0
C123 C 0.54044 0.48201 0.02561 0.0
C124 C 0.56281 0.4854 0.02397 0.0
C125 C 0.57589 0.50552 0.01042 0.0
C126 C 0.56061 0.51316 0.00426 0.0
N127 N 0.52391 0.52616 0.03491 0.0
C128 C 0.54055 0.56006 0.06856 0.0
C129 C 0.54201 0.54009 0.07182 0.0
C130 C 0.53369 0.52346 0.05482 0.0
C131 C 0.5313 0.56307 0.0477 0.0
C132 C 0.52305 0.54592 0.03113 0.0
N133 N 0.49541 0.47563 0.99111 0.0
C134 C 0.50057 0.45528 0.96066 0.0
C135 C 0.47715 0.4363 0.96417 0.0
C136 C 0.46251 0.4378 0.98046 0.0
C137 C 0.47202 0.45764 0.99384 0.0
C138 C 0.50924 0.47488 0.97407 0.0
H139 H 0.46072 0.45797 0.00703 0.0
H140 H 0.52746 0.48899 0.97121 0.0
H141 H 0.53475 0.50815 0.05805 0.0
H142 H 0.51546 0.54839 0.01553 0.0
C143 C 0.49 0.52435 0.97574 0.0
C144 C 0.56628 0.531 0.98562 0.0
C145 C 0.46306 0.48532 0.05101 0.0
C146 C 0.52147 0.46449 0.03935 0.0
H147 H 0.56638 0.56047 0.94784 0.0
H148 H 0.52404 0.55521 0.94084 0.0
H149 H 0.44582 0.51966 0.98873 0.0
H150 H 0.43248 0.50072 0.03126 0.0
H151 H 0.45594 0.44696 0.08184 0.0
H152 H 0.48699 0.43407 0.07421 0.0
H153 H 0.56892 0.47462 0.03177 0.0
H154 H 0.59426 0.51309 0.00476 0.0
H155 H 0.54945 0.53724 0.08747 0.0
H156 H 0.52974 0.57818 0.04448 0.0
H157 H 0.51233 0.45468 0.94809 0.0
H158 H 0.44428 0.4233 0.98363 0.0
C159 C 0.96117 0.44801 0.52481 0.0
C160 C 0.93854 0.42978 0.51906 0.0
C161 C 0.93272 0.43685 0.49895 0.0
C162 C 0.95204 0.4589 0.49361 0.0
N163 N 0.96999 0.46624 0.50896 0.0
Co164 Co 0.00112 0.49741 0.50828 0.0
N165 N 0.99132 0.50897 0.48041 0.0
C166 C 0.97011 0.4974 0.46949 0.0
C167 C 0.96869 0.50981 0.45078 0.0
C168 C 0.99035 0.53049 0.44956 0.0
C169 C 0.00377 0.52943 0.46763 0.0
N170 N 0.0325 0.52829 0.5073 0.0
C171 C 0.0411 0.54676 0.49178 0.0
C172 C 0.0642 0.56454 0.49698 0.0
C173 C 0.07054 0.55695 0.51634 0.0
C174 C 0.05107 0.53507 0.52181 0.0
N175 N 0.01068 0.48613 0.53653 0.0
C176 C 0.03156 0.49794 0.54795 0.0
C177 C 0.0326 0.48593 0.5672 0.0
C178 C 0.0109 0.46537 0.56845 0.0
C179 C 0.99783 0.46611 0.54982 0.0
N180 N 0.01522 0.48456 0.48782 0.0
C181 C 0.03523 0.46629 0.45878 0.0
C182 C 0.04667 0.47755 0.47896 0.0
C183 C 0.0365 0.48651 0.49304 0.0
C184 C 0.0136 0.46441 0.45338 0.0
C185 C 0.00401 0.47355 0.46799 0.0
N186 N 0.98696 0.51013 0.52878 0.0
C187 C 0.98971 0.53233 0.5619 0.0
C188 C 0.96561 0.52497 0.56016 0.0
C189 C 0.95257 0.51071 0.54205 0.0
C190 C 0.96358 0.50379 0.52652 0.0
C191 C 0.99992 0.52464 0.54624 0.0
H192 H 0.95268 0.49301 0.51304 0.0
H193 H 0.01817 0.5303 0.5489 0.0
H194 H 0.04621 0.49491 0.50806 0.0
H195 H 0.98754 0.47156 0.46279 0.0
C196 C 0.95274 0.47415 0.47598 0.0
C197 C 0.97292 0.4479 0.54622 0.0
C198 C 0.02852 0.5479 0.47142 0.0
C199 C 0.04969 0.52048 0.54043 0.0
H200 H 0.92715 0.41338 0.52876 0.0
H201 H 0.91597 0.42746 0.48986 0.0
H202 H 0.95394 0.50421 0.43902 0.0
H203 H 0.99585 0.54458 0.43658 0.0
H204 H 0.07544 0.58117 0.48757 0.0
H205 H 0.08742 0.56617 0.52523 0.0
H206 H 0.04723 0.49163 0.57914 0.0
H207 H 0.00512 0.45158 0.58181 0.0
H208 H 0.06331 0.4792 0.48415 0.0
H209 H 0.00417 0.45615 0.43778 0.0
H210 H 1.00046 0.54333 0.57576 0.0
H211 H 0.9339 0.50487 0.53989 0.0
C212 C 0.47902 0.00892 0.04764 0.0
C213 C 0.47829 0.02123 0.06604 0.0
C214 C 0.50115 0.03981 0.06877 0.0
C215 C 0.51449 0.0379 0.05192 0.0
N216 N 0.50145 0.01939 0.03859 0.0
Co217 Co 0.51376 0.01022 0.0124 0.0
N218 N 0.54388 0.04168 0.01023 0.0
C219 C 0.55211 0.05803 0.02637 0.0
C220 C 0.57329 0.0782 0.02004 0.0
C221 C 0.57897 0.07422 0.99871 0.0
C222 C 0.56095 0.05166 0.99329 0.0
N223 N 0.52617 0.00091 0.98637 0.0
C224 C 0.54488 0.01424 0.97156 0.0
C225 C 0.54758 1.0003 0.95631 0.0
C226 C 0.53018 0.97751 0.962 0.0
C227 C 0.51785 0.97874 0.98033 0.0
N228 N 0.48361 0.97882 0.01457 0.0
C229 C 0.47997 0.95906 0.00552 0.0
C230 C 0.45746 0.93989 0.01013 0.0
C231 C 0.44626 0.94804 0.02307 0.0
C232 C 0.46267 0.97182 0.02562 0.0
N233 N 0.49899 0.02135 0.99022 0.0
C234 C 0.48221 0.03937 0.95584 0.0
C235 C 0.47951 0.01743 0.9538 0.0
C236 C 0.48772 0.00861 0.9713 0.0
C237 C 0.49253 0.05169 0.97588 0.0
C238 C 0.50098 0.04246 0.99278 0.0
N239 N 0.52874 0.99915 0.03447 0.0
C240 C 0.52721 0.97781 0.06965 0.0
C241 C 0.55078 0.98374 0.06575 0.0
C242 C 0.56291 0.9973 0.04577 0.0
C243 C 0.55164 0.00478 0.03043 0.0
C244 C 0.51656 0.98576 0.05385 0.0
H245 H 0.56159 0.01515 0.01529 0.0
H246 H 0.49851 0.98113 0.05741 0.0
H247 H 0.4855 0.99173 0.96918 0.0
H248 H 0.50971 0.05274 0.00759 0.0
C249 C 0.53808 0.05502 0.04575 0.0
C250 C 0.45853 0.98648 0.04054 0.0
C251 C 0.56232 0.03947 0.97341 0.0
C252 C 0.49675 0.95992 0.99025 0.0
H253 H 0.46289 0.01713 0.0765 0.0
H254 H 0.50714 0.05353 0.08104 0.0
H255 H 0.58317 0.09408 0.02956 0.0
H256 H 0.59488 0.08631 0.98854 0.0
H257 H 0.5611 0.00592 0.94285 0.0
H258 H 0.52669 0.96195 0.95352 0.0
H259 H 0.44987 0.92225 0.00428 0.0
H260 H 0.42823 0.9376 0.03014 0.0
H261 H 0.47136 0.00729 0.93864 0.0
H262 H 0.49494 0.06875 0.97801 0.0
H263 H 0.51722 0.96749 0.08498 0.0
H264 H 0.58101 0.002 0.04183 0.0
C265 C 0.52053 0.55413 0.50154 0.0
C266 C 0.51231 0.56886 0.50582 0.0
C267 C 0.49462 0.55753 0.5223 0.0
C268 C 0.49291 0.53654 0.52697 0.0
N269 N 0.50844 0.53376 0.5145 0.0
Co270 Co 0.51099 0.50528 0.51505 0.0
N271 N 0.48617 0.48935 0.54044 0.0
C272 C 0.47557 0.49868 0.55192 0.0
C273 C 0.46029 0.48418 0.5694 0.0
C274 C 0.46122 0.4644 0.56914 0.0
C275 C 0.4769 0.4679 0.55127 0.0
N276 N 0.5125 0.47625 0.51459 0.0
C277 C 0.49965 0.45546 0.52679 0.0
C278 C 0.50522 0.43934 0.5198 0.0
C279 C 0.52241 0.45044 0.50287 0.0
C280 C 0.52616 0.47248 0.50028 0.0
N281 N 0.53683 0.52175 0.49062 0.0
C282 C 0.54952 0.51354 0.48111 0.0
C283 C 0.5671 0.52923 0.46585 0.0
C284 C 0.56575 0.54878 0.46571 0.0
C285 C 0.54717 0.54375 0.48083 0.0
N286 N 0.53604 0.51868 0.53912 0.0
C287 C 0.57111 0.53742 0.5739 0.0
C288 C 0.57075 0.52218 0.55786 0.0
C289 C 0.55341 0.51331 0.54062 0.0
C290 C 0.55367 0.54322 0.57192 0.0
C291 C 0.53635 0.53354 0.55485 0.0
N292 N 0.48591 0.4919 0.49104 0.0
C293 C 0.47261 0.47601 0.45318 0.0
C294 C 0.44986 0.47209 0.45734 0.0
C295 C 0.44566 0.47862 0.47859 0.0
C296 C 0.46376 0.48846 0.49498 0.0
C297 C 0.49016 0.48575 0.47012 0.0
H298 H 0.45928 0.49294 0.51081 0.0
H299 H 0.50702 0.48804 0.46592 0.0
H300 H 0.55441 0.50208 0.52879 0.0
H301 H 0.52343 0.53845 0.55479 0.0
C302 C 0.47875 0.5202 0.54457 0.0
C303 C 0.5402 0.56052 0.48544 0.0
C304 C 0.48209 0.45019 0.54507 0.0
C305 C 0.54345 0.49051 0.48573 0.0
H306 H 0.51869 0.58617 0.49809 0.0
H307 H 0.48464 0.56408 0.53035 0.0
H308 H 0.44943 0.48743 0.5807 0.0
H309 H 0.45129 0.44904 0.58066 0.0
H310 H 0.49775 0.42142 0.52625 0.0
H311 H 0.5313 0.44336 0.4937 0.0
H312 H 0.57931 0.52669 0.45587 0.0
H313 H 0.57717 0.56489 0.45561 0.0
H314 H 0.58358 0.5168 0.55862 0.0
H315 H 0.55333 0.55542 0.58333 0.0
H316 H 0.47698 0.47163 0.43689 0.0
H317 H 0.42829 0.47568 0.4829 0.0
C318 C 0.13832 0.40587 0.39611 0.0
C319 C 0.13603 0.42222 0.37853 0.0
C320 C 0.14826 0.41583 0.34149 0.0
C321 C 0.16729 0.43838 0.33473 0.0
C322 C 0.18541 0.44141 0.31965 0.0
C323 C 0.18444 0.42145 0.31122 0.0
C324 C 0.16483 0.3987 0.31746 0.0
C325 C 0.14677 0.39621 0.3323 0.0
C326 C 0.20573 0.46593 0.31292 0.0
C327 C 0.16323 0.37704 0.30883 0.0
C328 C 0.34954 0.42769 0.36245 0.0
C329 C 0.32736 0.42053 0.34935 0.0
C330 C 0.30365 0.43586 0.33338 0.0
C331 C 0.28441 0.41388 0.32688 0.0
C332 C 0.26501 0.41203 0.31469 0.0
C333 C 0.26471 0.43252 0.3089 0.0
C334 C 0.28378 0.4546 0.31577 0.0
C335 C 0.303 0.45597 0.32794 0.0
C336 C 0.24483 0.38816 0.30787 0.0
C337 C 0.28388 0.47675 0.31008 0.0
C338 C 0.30464 0.44668 0.1581 0.0
C339 C 0.28956 0.42456 0.16896 0.0
C340 C 0.26884 0.41955 0.18104 0.0
C341 C 0.26373 0.43742 0.18297 0.0
C342 C 0.27878 0.45964 0.17154 0.0
C343 C 0.29887 0.46383 0.15888 0.0
C344 C 0.25267 0.39527 0.19196 0.0
C345 C 0.27396 0.47914 0.17305 0.0
C346 C 0.08288 0.40146 0.16628 0.0
C347 C 0.10768 0.42249 0.15936 0.0
C348 C 0.14187 0.41796 0.16178 0.0
C349 C 0.14533 0.39922 0.16425 0.0
C350 C 0.16514 0.40163 0.17612 0.0
C351 C 0.18219 0.42357 0.18515 0.0
C352 C 0.1794 0.44295 0.18157 0.0
C353 C 0.15916 0.43989 0.17005 0.0
C354 C 0.16764 0.38065 0.17939 0.0
C355 C 0.1977 0.46685 0.19008 0.0
C356 C 0.20447 0.42444 0.2967 0.0
C357 C 0.22458 0.42721 0.30804 0.0
C358 C 0.24441 0.43073 0.29562 0.0
C359 C 0.24437 0.43173 0.27109 0.0
C360 C 0.26425 0.4359 0.25802 0.0
C361 C 0.26401 0.43673 0.23391 0.0
C362 C 0.24368 0.43293 0.22189 0.0
C363 C 0.24305 0.43314 0.19736 0.0
C364 C 0.22268 0.42973 0.18603 0.0
C365 C 0.20284 0.42623 0.19845 0.0
C366 C 0.20305 0.42568 0.22299 0.0
C367 C 0.18332 0.42193 0.23609 0.0
C368 C 0.1838 0.42172 0.2602 0.0
C369 C 0.20388 0.42485 0.27219 0.0
C370 C 0.22392 0.42853 0.25935 0.0
C371 C 0.22353 0.429 0.23472 0.0
C372 C 0.3662 0.46301 0.14499 0.0
C373 C 0.34391 0.45292 0.15909 0.0
O374 O 0.13119 0.4126 0.35687 0.0
O375 O 0.12171 0.4144 0.1514 0.0
O376 O 0.32508 0.45189 0.1472 0.0
O377 O 0.32303 0.43836 0.34472 0.0
H378 H 0.15334 0.43943 0.37808 0.0
H379 H 0.15335 0.40394 0.39093 0.0
H380 H 0.12161 0.3882 0.397 0.0
H381 H 0.14205 0.41327 0.4136 0.0
H382 H 0.16795 0.4536 0.34119 0.0
H383 H 0.1318 0.37889 0.33742 0.0
H384 H 0.22266 0.46872 0.32017 0.0
H385 H 0.20285 0.47961 0.31935 0.0
H386 H 0.20795 0.46815 0.29376 0.0
H387 H 0.14721 0.36059 0.31586 0.0
H388 H 0.17949 0.37695 0.3138 0.0
H389 H 0.1625 0.37727 0.28962 0.0
H390 H 0.32477 0.40986 0.33404 0.0
H391 H 0.33671 0.40815 0.39469 0.0
H392 H 0.36071 0.44749 0.36111 0.0
H393 H 0.36135 0.42544 0.35023 0.0
H394 H 0.28437 0.39805 0.33126 0.0
H395 H 0.31777 0.47283 0.33311 0.0
H396 H 0.22767 0.38456 0.31534 0.0
H397 H 0.24759 0.37385 0.31384 0.0
H398 H 0.24315 0.38792 0.28873 0.0
H399 H 0.3 0.49259 0.31667 0.0
H400 H 0.26768 0.47522 0.31772 0.0
H401 H 0.28321 0.47912 0.291 0.0
H402 H 0.34618 0.45986 0.1768 0.0
H403 H 0.29398 0.41124 0.1679 0.0
H404 H 0.31066 0.48081 0.15023 0.0
H405 H 0.25553 0.39573 0.21093 0.0
H406 H 0.25634 0.38232 0.18494 0.0
H407 H 0.23359 0.38915 0.18909 0.0
H408 H 0.28887 0.49612 0.16552 0.0
H409 H 0.27106 0.48148 0.1914 0.0
H410 H 0.25741 0.47441 0.16354 0.0
H411 H 0.1152 0.43232 0.17545 0.0
H412 H 0.07114 0.40754 0.17219 0.0
H413 H 0.08453 0.39103 0.18076 0.0
H414 H 0.07434 0.3898 0.15156 0.0
H415 H 0.13203 0.38245 0.15748 0.0
H416 H 0.15687 0.45463 0.16738 0.0
H417 H 0.16956 0.3775 0.19808 0.0
H418 H 0.18407 0.38424 0.17026 0.0
H419 H 0.15206 0.36446 0.17264 0.0
H420 H 0.19434 0.48064 0.18364 0.0
H421 H 0.21595 0.47188 0.18445 0.0
H422 H 0.19727 0.46624 0.20931 0.0
H423 H 0.22479 0.42658 0.32685 0.0
H424 H 0.28031 0.4387 0.26629 0.0
H425 H 0.27996 0.44025 0.22484 0.0
H426 H 0.22236 0.43005 0.16723 0.0
H427 H 0.16728 0.41919 0.22784 0.0
H428 H 0.16816 0.4189 0.26935 0.0
H429 H 0.37155 0.43452 0.14284 0.0
H430 H 0.3794 0.47983 0.15345 0.0
H431 H 0.36399 0.47214 0.12923 0.0
C432 C 0.87824 0.27778 0.89275 0.0
C433 C 0.89445 0.29345 0.87243 0.0
C434 C 0.8658 0.27938 0.84051 0.0
C435 C 0.86634 0.25914 0.83645 0.0
C436 C 0.84988 0.24205 0.82167 0.0
C437 C 0.83214 0.24487 0.81101 0.0
C438 C 0.83174 0.26535 0.81468 0.0
C439 C 0.8488 0.28248 0.82914 0.0
C440 C 0.85116 0.22065 0.81786 0.0
C441 C 0.8129 0.26882 0.80381 0.0
C442 C 0.69154 0.07466 0.85055 0.0
C443 C 0.69921 0.09547 0.86595 0.0
C444 C 0.71878 0.13108 0.84016 0.0
C445 C 0.71666 0.14936 0.83076 0.0
C446 C 0.73513 0.16782 0.81721 0.0
C447 C 0.75624 0.16788 0.81286 0.0
C448 C 0.75851 0.14938 0.82214 0.0
C449 C 0.73977 0.13114 0.83568 0.0
C450 C 0.7321 0.18726 0.8075 0.0
C451 C 0.78076 0.14887 0.81767 0.0
C452 C 0.72493 0.12611 0.66461 0.0
C453 C 0.72149 0.14434 0.66985 0.0
C454 C 0.73914 0.16402 0.68135 0.0
C455 C 0.76071 0.16554 0.68758 0.0
C456 C 0.76455 0.14758 0.68158 0.0
C457 C 0.74665 0.12818 0.66996 0.0
C458 C 0.73474 0.18316 0.68697 0.0
C459 C 0.78743 0.14877 0.68774 0.0
C460 C 0.90517 0.3476 0.64466 0.0
C461 C 0.89902 0.32788 0.66151 0.0
C462 C 0.87035 0.28611 0.66149 0.0
C463 C 0.85021 0.28554 0.67007 0.0
C464 C 0.83166 0.26527 0.68162 0.0
C465 C 0.83355 0.24533 0.68495 0.0
C466 C 0.85332 0.24551 0.67529 0.0
C467 C 0.87136 0.26588 0.66335 0.0
C468 C 0.81032 0.26538 0.69071 0.0
C469 C 0.85573 0.22445 0.67818 0.0
C470 C 0.81309 0.22558 0.79744 0.0
C471 C 0.79396 0.20666 0.80981 0.0
C472 C 0.77591 0.18729 0.79851 0.0
C473 C 0.77675 0.18661 0.77413 0.0
C474 C 0.75906 0.1672 0.76228 0.0
C475 C 0.75991 0.16676 0.73825 0.0
C476 C 0.77836 0.18582 0.72512 0.0
C477 C 0.77911 0.18575 0.70065 0.0
C478 C 0.79739 0.20523 0.68809 0.0
C479 C 0.81534 0.22475 0.69935 0.0
C480 C 0.8153 0.22485 0.72386 0.0
C481 C 0.83356 0.24382 0.73582 0.0
C482 C 0.83301 0.24403 0.75991 0.0
C483 C 0.81411 0.22536 0.77297 0.0
C484 C 0.79579 0.20583 0.7613 0.0
C485 C 0.79651 0.20548 0.73675 0.0
C486 C 0.67743 0.07443 0.67685 0.0
C487 C 0.68363 0.09422 0.65877 0.0
O488 O 0.88096 0.29603 0.85537 0.0
O489 O 0.88925 0.30611 0.65193 0.0
O490 O 0.70802 0.10663 0.6539 0.0
O491 O 0.70014 0.11387 0.85321 0.0
H492 H 0.90361 0.28514 0.86522 0.0
H493 H 0.86517 0.25989 0.88692 0.0
H494 H 0.86816 0.28519 0.89996 0.0
H495 H 0.88907 0.27619 0.90669 0.0
H496 H 0.87938 0.2563 0.84474 0.0
H497 H 0.84848 0.29811 0.8322 0.0
H498 H 0.83568 0.20507 0.82674 0.0
H499 H 0.86787 0.22254 0.8247 0.0
H500 H 0.8501 0.21727 0.79909 0.0
H501 H 0.81458 0.28539 0.80889 0.0
H502 H 0.79481 0.25384 0.80903 0.0
H503 H 0.81434 0.26916 0.78465 0.0
H504 H 0.71712 0.1012 0.87314 0.0
H505 H 0.6905 0.05981 0.86086 0.0
H506 H 0.70474 0.07977 0.83622 0.0
H507 H 0.6738 0.06867 0.84287 0.0
H508 H 0.7004 0.14914 0.83419 0.0
H509 H 0.74169 0.11701 0.84249 0.0
H510 H 0.7331 0.18789 0.78828 0.0
H511 H 0.7469 0.20444 0.81338 0.0
H512 H 0.71478 0.18488 0.81285 0.0
H513 H 0.77955 0.13293 0.82559 0.0
H514 H 0.7965 0.16461 0.82484 0.0
H515 H 0.7839 0.14953 0.79872 0.0
H516 H 0.67818 0.10564 0.66636 0.0
H517 H 0.70526 0.14351 0.66469 0.0
H518 H 0.74932 0.11422 0.66545 0.0
H519 H 0.73458 0.18451 0.70605 0.0
H520 H 0.71749 0.17987 0.68009 0.0
H521 H 0.74949 0.20033 0.67964 0.0
H522 H 0.78754 0.13321 0.68213 0.0
H523 H 0.78994 0.14999 0.70678 0.0
H524 H 0.8029 0.16483 0.67943 0.0
H525 H 0.89027 0.32761 0.67811 0.0
H526 H 0.94329 0.36889 0.64575 0.0
H527 H 0.89334 0.35416 0.64973 0.0
H528 H 0.89514 0.33945 0.62835 0.0
H529 H 0.84911 0.30102 0.66788 0.0
H530 H 0.88686 0.26645 0.65632 0.0
H531 H 0.81113 0.2661 0.70988 0.0
H532 H 0.79345 0.24899 0.68632 0.0
H533 H 0.80976 0.28069 0.6836 0.0
H534 H 0.87288 0.2279 0.67083 0.0
H535 H 0.84074 0.20939 0.6694 0.0
H536 H 0.85459 0.21924 0.69685 0.0
H537 H 0.79324 0.20693 0.82855 0.0
H538 H 0.74434 0.15209 0.77145 0.0
H539 H 0.7458 0.15134 0.7301 0.0
H540 H 0.79755 0.20526 0.66931 0.0
H541 H 0.84849 0.25875 0.72668 0.0
H542 H 0.8475 0.2591 0.76817 0.0
H543 H 0.68297 0.06254 0.67067 0.0
H544 H 0.65787 0.06405 0.68063 0.0
H545 H 0.68689 0.082 0.69321 0.0
C546 C 0.63793 0.69948 0.36742 0.0
C547 C 0.62075 0.70274 0.38215 0.0
C548 C 0.60238 0.71803 0.3553 0.0
C549 C 0.58083 0.71283 0.34529 0.0
C550 C 0.5793 0.72968 0.33154 0.0
C551 C 0.60001 0.75225 0.32744 0.0
C552 C 0.622 0.7576 0.33724 0.0
C553 C 0.62298 0.74049 0.35113 0.0
C554 C 0.55552 0.72342 0.32151 0.0
C555 C 0.64446 0.78146 0.33306 0.0
C556 C 0.57776 0.85205 0.40701 0.0
C557 C 0.58357 0.87086 0.38766 0.0
C558 C 0.57864 0.84712 0.35417 0.0
C559 C 0.60164 0.85063 0.3538 0.0
C560 C 0.60678 0.83697 0.34012 0.0
C561 C 0.58843 0.81907 0.32695 0.0
C562 C 0.56521 0.81545 0.32742 0.0
C563 C 0.56083 0.8299 0.34061 0.0
C564 C 0.63182 0.8416 0.33989 0.0
C565 C 0.54486 0.79609 0.3143 0.0
C566 C 0.59662 0.86621 0.17916 0.0
C567 C 0.61847 0.87054 0.18803 0.0
C568 C 0.62011 0.8524 0.19891 0.0
C569 C 0.5994 0.82958 0.2014 0.0
C570 C 0.57759 0.82497 0.19175 0.0
C571 C 0.5766 0.84334 0.18046 0.0
C572 C 0.64389 0.85774 0.20817 0.0
C573 C 0.5552 0.80081 0.19394 0.0
C574 C 0.64066 0.7039 0.16698 0.0
C575 C 0.61405 0.69482 0.17022 0.0
C576 C 0.608 0.72682 0.17422 0.0
C577 C 0.62872 0.74837 0.17862 0.0
C578 C 0.62769 0.76466 0.19225 0.0
C579 C 0.60536 0.75929 0.20132 0.0
C580 C 0.58433 0.73757 0.19655 0.0
C581 C 0.58595 0.72153 0.18306 0.0
C582 C 0.65043 0.78761 0.19693 0.0
C583 C 0.56018 0.7314 0.20559 0.0
C584 C 0.59856 0.77047 0.31342 0.0
C585 C 0.59486 0.78608 0.32517 0.0
C586 C 0.5933 0.80373 0.31322 0.0
C587 C 0.59564 0.806 0.28876 0.0
C588 C 0.59477 0.82387 0.27617 0.0
C589 C 0.59623 0.82547 0.25209 0.0
C590 C 0.59898 0.80947 0.23962 0.0
C591 C 0.60032 0.8109 0.21511 0.0
C592 C 0.60259 0.79445 0.20326 0.0
C593 C 0.60385 0.77662 0.2152 0.0
C594 C 0.60311 0.77525 0.23975 0.0
C595 C 0.60501 0.75799 0.25238 0.0
C596 C 0.6038 0.75654 0.27651 0.0
C597 C 0.60044 0.77217 0.28893 0.0
C598 C 0.59887 0.78995 0.27657 0.0
C599 C 0.60038 0.7916 0.25196 0.0
C600 C 0.59779 0.90854 0.19975 0.0
C601 C 0.60629 0.90679 0.17572 0.0
O602 O 0.60236 0.70086 0.36866 0.0
O603 O 0.60917 0.7112 0.16111 0.0
O604 O 0.59408 0.88355 0.16946 0.0
O605 O 0.57273 0.85966 0.36743 0.0
H606 H 0.63086 0.72035 0.38974 0.0
H607 H 0.64625 0.71336 0.35338 0.0
H608 H 0.62829 0.68214 0.35934 0.0
H609 H 0.65246 0.70067 0.37833 0.0
H610 H 0.56506 0.69548 0.34851 0.0
H611 H 0.6399 0.74485 0.3585 0.0
H612 H 0.55075 0.73611 0.32692 0.0
H613 H 0.54089 0.70539 0.32704 0.0
H614 H 0.55687 0.72467 0.30229 0.0
H615 H 0.66048 0.78244 0.34067 0.0
H616 H 0.64218 0.79502 0.34077 0.0
H617 H 0.64765 0.78576 0.31415 0.0
H618 H 0.60326 0.88215 0.38502 0.0
H619 H 0.55844 0.84245 0.41184 0.0
H620 H 0.58863 0.85995 0.42258 0.0
H621 H 0.58203 0.83914 0.40117 0.0
H622 H 0.61575 0.86405 0.36396 0.0
H623 H 0.54316 0.82733 0.34097 0.0
H624 H 0.6319 0.82707 0.34965 0.0
H625 H 0.64484 0.85836 0.34796 0.0
H626 H 0.63788 0.84218 0.32185 0.0
H627 H 0.52723 0.79294 0.31976 0.0
H628 H 0.5445 0.77945 0.31688 0.0
H629 H 0.54742 0.80096 0.29549 0.0
H630 H 0.6258 0.91391 0.17622 0.0
H631 H 0.63438 0.88792 0.18646 0.0
H632 H 0.55991 0.84008 0.17331 0.0
H633 H 0.6432 0.85696 0.2274 0.0
H634 H 0.65886 0.87542 0.20217 0.0
H635 H 0.6477 0.84438 0.20269 0.0
H636 H 0.53943 0.80031 0.18631 0.0
H637 H 0.55124 0.79492 0.2125 0.0
H638 H 0.55805 0.78812 0.18508 0.0
H639 H 0.60997 0.69196 0.18922 0.0
H640 H 0.64439 0.69028 0.17309 0.0
H641 H 0.65161 0.71966 0.17728 0.0
H642 H 0.64619 0.70871 0.14845 0.0
H643 H 0.64565 0.7524 0.17136 0.0
H644 H 0.57004 0.70483 0.17933 0.0
H645 H 0.6524 0.79018 0.21587 0.0
H646 H 0.64949 0.80235 0.18879 0.0
H647 H 0.66656 0.78843 0.19003 0.0
H648 H 0.54541 0.71441 0.19928 0.0
H649 H 0.5568 0.74543 0.2002 0.0
H650 H 0.55995 0.73027 0.22482 0.0
H651 H 0.59299 0.78436 0.34392 0.0
H652 H 0.59279 0.83675 0.2848 0.0
H653 H 0.5951 0.83941 0.24338 0.0
H654 H 0.60333 0.79551 0.18445 0.0
H655 H 0.60743 0.74539 0.24373 0.0
H656 H 0.60533 0.74287 0.2853 0.0
H657 H 0.60721 0.92716 0.20467 0.0
H658 H 0.60175 0.89864 0.21296 0.0
H659 H 0.57819 0.90113 0.19992 0.0
C660 C 0.73109 0.59082 0.91296 0.0
C661 C 0.71366 0.58731 0.89344 0.0
C662 C 0.73351 0.57939 0.86209 0.0
C663 C 0.75294 0.60247 0.8578 0.0
C664 C 0.77212 0.60702 0.84331 0.0
C665 C 0.77186 0.58812 0.83302 0.0
C666 C 0.75213 0.56493 0.8371 0.0
C667 C 0.73311 0.56095 0.85137 0.0
C668 C 0.79278 0.63196 0.83911 0.0
C669 C 0.75132 0.54429 0.8267 0.0
C670 C 0.94138 0.61936 0.85371 0.0
C671 C 0.92342 0.60072 0.87142 0.0
C672 C 0.88498 0.58803 0.85202 0.0
C673 C 0.86625 0.56942 0.84055 0.0
C674 C 0.84818 0.57147 0.83007 0.0
C675 C 0.84919 0.59302 0.83063 0.0
C676 C 0.86769 0.61176 0.84287 0.0
C677 C 0.88528 0.609 0.85373 0.0
C678 C 0.82824 0.55066 0.81805 0.0
C679 C 0.8691 0.63483 0.84409 0.0
C680 C 0.88966 0.60312 0.68346 0.0
C681 C 0.87041 0.58163 0.69243 0.0
C682 C 0.85094 0.58049 0.70356 0.0
C683 C 0.85075 0.60129 0.70576 0.0
C684 C 0.86957 0.62277 0.69571 0.0
C685 C 0.8887 0.62334 0.68445 0.0
C686 C 0.83082 0.55713 0.71341 0.0
C687 C 0.86979 0.6452 0.6975 0.0
C688 C 0.67278 0.57859 0.66688 0.0
C689 C 0.69594 0.58872 0.67898 0.0
C690 C 0.72964 0.58377 0.68372 0.0
C691 C 0.73484 0.56619 0.68576 0.0
C692 C 0.75512 0.56982 0.69765 0.0
C693 C 0.77108 0.59199 0.70693 0.0
C694 C 0.7666 0.61032 0.70373 0.0
C695 C 0.74569 0.60588 0.69255 0.0
C696 C 0.75922 0.54981 0.70059 0.0
C697 C 0.78375 0.63454 0.71229 0.0
C698 C 0.79255 0.59244 0.81867 0.0
C699 C 0.81173 0.59323 0.8301 0.0
C700 C 0.83123 0.59589 0.81774 0.0
C701 C 0.83206 0.5986 0.79328 0.0
C702 C 0.85183 0.60223 0.78037 0.0
C703 C 0.85188 0.60336 0.75628 0.0
C704 C 0.83213 0.60084 0.74413 0.0
C705 C 0.83151 0.60067 0.71964 0.0
C706 C 0.81171 0.59839 0.70808 0.0
C707 C 0.79213 0.59577 0.72033 0.0
C708 C 0.79233 0.5956 0.74489 0.0
C709 C 0.77283 0.59255 0.75787 0.0
C710 C 0.7731 0.59213 0.782 0.0
C711 C 0.7926 0.59406 0.79414 0.0
C712 C 0.81246 0.59717 0.78142 0.0
C713 C 0.81241 0.59811 0.75678 0.0
C714 C 0.94485 0.61161 0.69194 0.0
C715 C 0.92048 0.59351 0.68215 0.0
O716 O 0.71483 0.57393 0.87643 0.0
O717 O 0.70898 0.5788 0.67335 0.0
O718 O 0.9093 0.60488 0.67375 0.0
O719 O 0.90228 0.58482 0.8608 0.0
H720 H 0.7182 0.60465 0.88572 0.0
H721 H 0.7498 0.60047 0.90627 0.0
H722 H 0.7268 0.57357 0.92068 0.0
H723 H 0.73003 0.60129 0.92676 0.0
H724 H 0.75327 0.61696 0.86568 0.0
H725 H 0.71796 0.54323 0.85469 0.0
H726 H 0.80932 0.63383 0.84639 0.0
H727 H 0.78965 0.64487 0.84714 0.0
H728 H 0.7959 0.63623 0.82019 0.0
H729 H 0.7352 0.52725 0.83243 0.0
H730 H 0.7675 0.54404 0.83162 0.0
H731 H 0.75136 0.54606 0.80751 0.0
H732 H 0.9196 0.60941 0.88524 0.0
H733 H 0.95858 0.63141 0.86224 0.0
H734 H 0.93458 0.63011 0.84614 0.0
H735 H 0.94479 0.61095 0.83934 0.0
H736 H 0.86597 0.5532 0.83964 0.0
H737 H 0.89927 0.62333 0.86318 0.0
H738 H 0.8309 0.55392 0.799 0.0
H739 H 0.81065 0.54811 0.82255 0.0
H740 H 0.82772 0.53419 0.8227 0.0
H741 H 0.88537 0.64819 0.85308 0.0
H742 H 0.85309 0.63202 0.85347 0.0
H743 H 0.86907 0.64181 0.82633 0.0
H744 H 0.91032 0.58128 0.69714 0.0
H745 H 0.87053 0.56572 0.69078 0.0
H746 H 0.90344 0.63976 0.67707 0.0
H747 H 0.8311 0.55722 0.73263 0.0
H748 H 0.83227 0.54226 0.70797 0.0
H749 H 0.81329 0.55414 0.70784 0.0
H750 H 0.88582 0.66051 0.68891 0.0
H751 H 0.86941 0.64883 0.71602 0.0
H752 H 0.8535 0.64318 0.68941 0.0
H753 H 0.69513 0.59067 0.698 0.0
H754 H 0.6769 0.6073 0.64571 0.0
H755 H 0.65873 0.56964 0.68104 0.0
H756 H 0.66895 0.56163 0.65955 0.0
H757 H 0.72247 0.54927 0.67869 0.0
H758 H 0.74205 0.61978 0.69057 0.0
H759 H 0.763 0.54761 0.71897 0.0
H760 H 0.77506 0.55385 0.69002 0.0
H761 H 0.74361 0.53293 0.69506 0.0
H762 H 0.78011 0.64777 0.7047 0.0
H763 H 0.80252 0.6402 0.70801 0.0
H764 H 0.78205 0.6342 0.73142 0.0
H765 H 0.81108 0.5909 0.84884 0.0
H766 H 0.86744 0.60405 0.78877 0.0
H767 H 0.86753 0.60599 0.74731 0.0
H768 H 0.8113 0.5981 0.68931 0.0
H769 H 0.75706 0.59039 0.74955 0.0
H770 H 0.75763 0.58984 0.79104 0.0
H771 H 0.95507 0.60326 0.69684 0.0
H772 H 0.94214 0.61891 0.70771 0.0
H773 H 0.95551 0.62648 0.67925 0.0
C774 C 0.14873 0.71368 0.40944 0.0
C775 C 0.13301 0.69987 0.38913 0.0
C776 C 0.16159 0.72225 0.35691 0.0
C777 C 0.15812 0.74116 0.35505 0.0
C778 C 0.17323 0.76113 0.3408 0.0
C779 C 0.19243 0.7624 0.32854 0.0
C780 C 0.19608 0.74347 0.33064 0.0
C781 C 0.18028 0.72347 0.34443 0.0
C782 C 0.16868 0.78089 0.33885 0.0
C783 C 0.21681 0.7444 0.31854 0.0
C784 C 0.29609 0.89156 0.41092 0.0
C785 C 0.31137 0.88807 0.39363 0.0
C786 C 0.29406 0.87853 0.35561 0.0
C787 C 0.29756 0.86051 0.34985 0.0
C788 C 0.28188 0.84307 0.33493 0.0
C789 C 0.26221 0.84364 0.32576 0.0
C790 C 0.25923 0.86239 0.33084 0.0
C791 C 0.27549 0.87985 0.34548 0.0
C792 C 0.28595 0.82368 0.32949 0.0
C793 C 0.23839 0.86349 0.3215 0.0
C794 C 0.2941 0.88452 0.1719 0.0
C795 C 0.29971 0.86831 0.18086 0.0
C796 C 0.28305 0.84865 0.19463 0.0
C797 C 0.26037 0.84522 0.19956 0.0
C798 C 0.25453 0.86129 0.19012 0.0
C799 C 0.27141 0.8806 0.17616 0.0
C800 C 0.28958 0.83146 0.2038 0.0
C801 C 0.23047 0.8581 0.19485 0.0
C802 C 0.09641 0.69081 0.17551 0.0
C803 C 0.11663 0.70236 0.15718 0.0
C804 C 0.15411 0.72572 0.17845 0.0
C805 C 0.17563 0.72766 0.18448 0.0
C806 C 0.19324 0.74686 0.19656 0.0
C807 C 0.18913 0.76456 0.20283 0.0
C808 C 0.16737 0.76274 0.19691 0.0
C809 C 0.15006 0.74334 0.18485 0.0
C810 C 0.21621 0.74822 0.20271 0.0
C811 C 0.16238 0.78127 0.20348 0.0
C812 C 0.20903 0.78369 0.31393 0.0
C813 C 0.22667 0.80348 0.32505 0.0
C814 C 0.24381 0.82368 0.31244 0.0
C815 C 0.24354 0.82422 0.28793 0.0
C816 C 0.26077 0.84403 0.27466 0.0
C817 C 0.2604 0.8443 0.25054 0.0
C818 C 0.24294 0.82467 0.23876 0.0
C819 C 0.24259 0.82462 0.21425 0.0
C820 C 0.22497 0.80477 0.20314 0.0
C821 C 0.20746 0.78487 0.21582 0.0
C822 C 0.20746 0.7846 0.24032 0.0
C823 C 0.19001 0.76491 0.25359 0.0
C824 C 0.19029 0.7647 0.27768 0.0
C825 C 0.20814 0.78407 0.28945 0.0
C826 C 0.22563 0.80431 0.27641 0.0
C827 C 0.22533 0.80454 0.25181 0.0
C828 C 0.33737 0.93977 0.17542 0.0
C829 C 0.33391 0.91866 0.16277 0.0
O830 O 0.1475 0.70255 0.37046 0.0
O831 O 0.13788 0.70662 0.16669 0.0
O832 O 0.30978 0.9036 0.15843 0.0
O833 O 0.30797 0.89435 0.37145 0.0
H834 H 0.12116 0.70639 0.38414 0.0
H835 H 0.16046 0.73258 0.40423 0.0
H836 H 0.1602 0.70688 0.41498 0.0
H837 H 0.13758 0.71238 0.42443 0.0
H838 H 0.14363 0.74044 0.36447 0.0
H839 H 0.18281 0.7088 0.34598 0.0
H840 H 0.18336 0.79649 0.3473 0.0
H841 H 0.15144 0.77608 0.34719 0.0
H842 H 0.16853 0.786 0.32034 0.0
H843 H 0.21925 0.72997 0.32479 0.0
H844 H 0.23366 0.76145 0.32122 0.0
H845 H 0.21359 0.74289 0.29963 0.0
H846 H 0.30472 0.86896 0.39522 0.0
H847 H 0.3002 0.88872 0.42901 0.0
H848 H 0.27684 0.87866 0.40793 0.0
H849 H 0.29907 0.90941 0.40868 0.0
H850 H 0.31239 0.85995 0.35727 0.0
H851 H 0.27313 0.89401 0.34992 0.0
H852 H 0.28476 0.82113 0.31054 0.0
H853 H 0.27178 0.80697 0.33815 0.0
H854 H 0.30364 0.82738 0.33548 0.0
H855 H 0.23825 0.87887 0.3276 0.0
H856 H 0.22132 0.84721 0.32695 0.0
H857 H 0.23916 0.8645 0.30228 0.0
H858 H 0.34075 0.90985 0.17419 0.0
H859 H 0.31686 0.87067 0.17671 0.0
H860 H 0.26713 0.893 0.16881 0.0
H861 H 0.28997 0.83143 0.22302 0.0
H862 H 0.30732 0.83579 0.1972 0.0
H863 H 0.2758 0.81342 0.19885 0.0
H864 H 0.22936 0.87307 0.18768 0.0
H865 H 0.22683 0.85613 0.21381 0.0
H866 H 0.21624 0.84177 0.187 0.0
H867 H 0.11857 0.71917 0.15094 0.0
H868 H 0.07907 0.68591 0.16749 0.0
H869 H 0.09992 0.70319 0.18933 0.0
H870 H 0.0949 0.67487 0.18378 0.0
H871 H 0.17863 0.71401 0.17961 0.0
H872 H 0.13344 0.74214 0.18071 0.0
H873 H 0.21842 0.7489 0.2218 0.0
H874 H 0.23166 0.76463 0.19487 0.0
H875 H 0.21668 0.733 0.19664 0.0
H876 H 0.14476 0.77755 0.19727 0.0
H877 H 0.17659 0.79869 0.19608 0.0
H878 H 0.16274 0.78239 0.22262 0.0
H879 H 0.22729 0.80303 0.34384 0.0
H880 H 0.27475 0.85955 0.28279 0.0
H881 H 0.27407 0.86007 0.24123 0.0
H882 H 0.22482 0.80486 0.18435 0.0
H883 H 0.17595 0.74941 0.24551 0.0
H884 H 0.17637 0.74908 0.28698 0.0
H885 H 0.33073 0.94928 0.16483 0.0
H886 H 0.35661 0.95206 0.1791 0.0
H887 H 0.32729 0.93373 0.19217 0.0
C888 C 0.38933 0.11994 0.61169 0.0
C889 C 0.41111 0.12656 0.62663 0.0
C890 C 0.4084 0.14148 0.66327 0.0
C891 C 0.43154 0.16095 0.66605 0.0
C892 C 0.4355 0.17928 0.68 0.0
C893 C 0.41581 0.17816 0.6911 0.0
C894 C 0.39244 0.15838 0.68838 0.0
C895 C 0.38913 0.14003 0.67484 0.0
C896 C 0.46069 0.19987 0.6828 0.0
C897 C 0.37092 0.15677 0.69946 0.0
C898 C 0.42162 0.32985 0.61754 0.0
C899 C 0.41643 0.30782 0.63001 0.0
C900 C 0.42978 0.29343 0.6623 0.0
C901 C 0.40755 0.2741 0.66998 0.0
C902 C 0.40618 0.25591 0.68409 0.0
C903 C 0.42746 0.257 0.69065 0.0
C904 C 0.44991 0.27668 0.68336 0.0
C905 C 0.45076 0.29482 0.66952 0.0
C906 C 0.38196 0.23544 0.69195 0.0
C907 C 0.47293 0.27836 0.68997 0.0
C908 C 0.44642 0.29547 0.8421 0.0
C909 C 0.42325 0.28089 0.83359 0.0
C910 C 0.41753 0.2611 0.82106 0.0
C911 C 0.43554 0.25629 0.81635 0.0
C912 C 0.45892 0.27113 0.82472 0.0
C913 C 0.46394 0.29037 0.83769 0.0
C914 C 0.39225 0.24532 0.81293 0.0
C915 C 0.47865 0.2667 0.82 0.0
C916 C 0.38626 0.07691 0.84202 0.0
C917 C 0.41113 0.09901 0.84417 0.0
C918 C 0.41281 0.13583 0.84271 0.0
C919 C 0.39446 0.14037 0.84176 0.0
C920 C 0.39732 0.15987 0.82882 0.0
C921 C 0.4194 0.17557 0.81722 0.0
C922 C 0.43844 0.17159 0.81916 0.0
C923 C 0.43478 0.15153 0.83162 0.0
C924 C 0.37664 0.1635 0.82726 0.0
C925 C 0.4626 0.18845 0.80801 0.0
C926 C 0.41963 0.19802 0.70493 0.0
C927 C 0.42238 0.21782 0.69293 0.0
C928 C 0.42605 0.23722 0.70465 0.0
C929 C 0.42728 0.23709 0.72911 0.0
C930 C 0.43139 0.25646 0.74145 0.0
C931 C 0.43262 0.25619 0.76551 0.0
C932 C 0.42922 0.23632 0.77824 0.0
C933 C 0.43007 0.23575 0.80274 0.0
C934 C 0.42666 0.2157 0.81481 0.0
C935 C 0.42256 0.1961 0.80314 0.0
C936 C 0.4217 0.19638 0.77862 0.0
C937 C 0.41762 0.17702 0.76625 0.0
C938 C 0.4173 0.17764 0.74213 0.0
C939 C 0.42037 0.19739 0.72944 0.0
C940 C 0.42425 0.21702 0.74155 0.0
C941 C 0.42502 0.21656 0.76616 0.0
C942 C 0.44857 0.3398 0.87938 0.0
C943 C 0.43892 0.32372 0.85983 0.0
O944 O 0.40434 0.12371 0.6498 0.0
O945 O 0.40897 0.11615 0.85431 0.0
O946 O 0.45268 0.31437 0.85489 0.0
O947 O 0.43157 0.31106 0.64827 0.0
H948 H 0.42507 0.14525 0.62217 0.0
H949 H 0.38227 0.13124 0.61557 0.0
H950 H 0.37495 0.10129 0.61531 0.0
H951 H 0.39433 0.12259 0.59298 0.0
H952 H 0.44648 0.16166 0.65747 0.0
H953 H 0.37136 0.12476 0.67268 0.0
H954 H 0.46252 0.21583 0.6742 0.0
H955 H 0.47423 0.19692 0.67513 0.0
H956 H 0.46456 0.20333 0.70146 0.0
H957 H 0.35382 0.1415 0.6936 0.0
H958 H 0.37095 0.17306 0.69534 0.0
H959 H 0.37175 0.15501 0.71857 0.0
H960 H 0.39711 0.29505 0.63389 0.0
H961 H 0.4052 0.33067 0.62037 0.0
H962 H 0.43328 0.32761 0.5839 0.0
H963 H 0.43315 0.34458 0.62936 0.0
H964 H 0.3912 0.27325 0.66536 0.0
H965 H 0.46784 0.30992 0.66376 0.0
H966 H 0.38139 0.23297 0.71112 0.0
H967 H 0.37889 0.21911 0.68451 0.0
H968 H 0.36717 0.23788 0.6866 0.0
H969 H 0.48891 0.29445 0.68231 0.0
H970 H 0.47275 0.26274 0.68411 0.0
H971 H 0.47452 0.27843 0.70912 0.0
H972 H 0.43391 0.33028 0.84414 0.0
H973 H 0.40953 0.28469 0.83684 0.0
H974 H 0.48173 0.3017 0.84439 0.0
H975 H 0.39184 0.24716 0.79378 0.0
H976 H 0.37971 0.24966 0.82056 0.0
H977 H 0.38581 0.22666 0.81753 0.0
H978 H 0.49639 0.28127 0.82554 0.0
H979 H 0.47966 0.2643 0.80122 0.0
H980 H 0.47464 0.25027 0.82946 0.0
H981 H 0.41871 0.10492 0.82623 0.0
H982 H 0.38757 0.06294 0.83385 0.0
H983 H 0.37495 0.081 0.83097 0.0
H984 H 0.3774 0.07023 0.85932 0.0
H985 H 0.37763 0.12816 0.85061 0.0
H986 H 0.44907 0.1481 0.83287 0.0
H987 H 0.37317 0.16599 0.80884 0.0
H988 H 0.38124 0.17965 0.83621 0.0
H989 H 0.35997 0.14848 0.8353 0.0
H990 H 0.47642 0.18488 0.81415 0.0
H991 H 0.46855 0.20684 0.81172 0.0
H992 H 0.46128 0.18689 0.78894 0.0
H993 H 0.42143 0.21804 0.67416 0.0
H994 H 0.43387 0.27214 0.73262 0.0
H995 H 0.43611 0.27173 0.77402 0.0
H996 H 0.42748 0.21546 0.83359 0.0
H997 H 0.41479 0.1612 0.77506 0.0
H998 H 0.41441 0.16234 0.73356 0.0
H999 H 0.42172 0.32233 0.90604 0.0
H1000 H 0.45386 0.35753 0.8714 0.0
H1001 H 0.46763 0.34464 0.88186 0.0
H1002 H 0.05862 0.45023 0.04303 0.0
H1003 H 0.08108 0.51791 0.07008 0.0
H1004 H 0.10044 0.50985 0.10301 0.0
H1005 H 0.04337 0.41874 0.09635 0.0
H1006 H 0.05397 0.39989 0.08919 0.0
H1007 H 0.04422 0.41203 0.06659 0.0
H1008 H 0.08516 0.43014 0.04537 0.0
H1009 H 0.09504 0.41799 0.06789 0.0
H1010 H 0.11231 0.44906 0.06063 0.0
H1011 H 0.11382 0.49288 0.13456 0.0
H1012 H 0.12046 0.46833 0.16274 0.0
H1013 H 0.09028 0.41183 0.11479 0.0
C1014 C 0.06807 0.46343 0.05572 0.0
C1015 C 0.06871 0.48474 0.05419 0.0
C1016 C 0.08074 0.5016 0.07109 0.0
C1017 C 0.09175 0.49717 0.08974 0.0
C1018 C 0.09062 0.47584 0.09103 0.0
C1019 C 0.07922 0.45929 0.0744 0.0
C1020 C 0.07936 0.43724 0.08059 0.0
C1021 C 0.05371 0.41571 0.08335 0.0
C1022 C 0.09384 0.43339 0.06255 0.0
C1023 C 0.09199 0.44368 0.10362 0.0
C1024 C 0.0985 0.4661 0.10921 0.0
C1025 C 0.10909 0.47543 0.13024 0.0
C1026 C 0.11278 0.46136 0.14614 0.0
C1027 C 0.10588 0.43819 0.14097 0.0
C1028 C 0.09582 0.42951 0.11917 0.0
H1029 H 0.57697 0.05952 0.57053 0.0
H1030 H 0.599 0.01865 0.53456 0.0
H1031 H 0.63381 0.0327 0.5606 0.0
H1032 H 0.63693 0.10965 0.58189 0.0
H1033 H 0.62834 0.11354 0.6101 0.0
H1034 H 0.60657 0.10161 0.58746 0.0
H1035 H 0.57894 0.06505 0.61416 0.0
H1036 H 0.60061 0.07678 0.63683 0.0
H1037 H 0.59036 0.04797 0.62668 0.0
H1038 H 0.66503 0.05005 0.59202 0.0
H1039 H 0.68958 0.06844 0.6265 0.0
H1040 H 0.64606 0.0971 0.64202 0.0
C1041 C 0.58946 0.05395 0.56796 0.0
C1042 C 0.58582 0.03841 0.55049 0.0
C1043 C 0.60193 0.03086 0.54775 0.0
C1044 C 0.62163 0.03873 0.56243 0.0
C1045 C 0.62473 0.05403 0.57968 0.0
C1046 C 0.60905 0.06155 0.58246 0.0
C1047 C 0.61553 0.07699 0.60298 0.0
C1048 C 0.62224 0.10193 0.59513 0.0
C1049 C 0.59515 0.06603 0.62124 0.0
C1050 C 0.63712 0.07677 0.6116 0.0
C1051 C 0.64232 0.06363 0.59784 0.0
C1052 C 0.66122 0.06051 0.60279 0.0
C1053 C 0.67504 0.07099 0.62236 0.0
C1054 C 0.66981 0.08431 0.6368 0.0
C1055 C 0.65063 0.08722 0.63119 0.0
H1056 H 0.56647 0.60844 0.06407 0.0
H1057 H 0.53159 0.55041 0.11512 0.0
H1058 H 0.54503 0.5785 0.14634 0.0
H1059 H 0.61772 0.64513 0.09719 0.0
H1060 H 0.61996 0.67212 0.0877 0.0
H1061 H 0.60672 0.64751 0.06918 0.0
H1062 H 0.56821 0.64887 0.06676 0.0
H1063 H 0.58136 0.67352 0.08527 0.0
H1064 H 0.55292 0.64749 0.09309 0.0
H1065 H 0.56359 0.61264 0.17215 0.0
H1066 H 0.58623 0.65074 0.19086 0.0
H1067 H 0.60849 0.68683 0.12327 0.0
C1068 C 0.56139 0.60166 0.08179 0.0
C1069 C 0.54807 0.5772 0.08715 0.0
C1070 C 0.54209 0.56905 0.11061 0.0
C1071 C 0.54948 0.58487 0.12846 0.0
C1072 C 0.56278 0.60883 0.12261 0.0
C1073 C 0.56866 0.61723 0.09987 0.0
C1074 C 0.58379 0.64385 0.09841 0.0
C1075 C 0.60851 0.65266 0.08748 0.0
C1076 C 0.57078 0.65403 0.08509 0.0
C1077 C 0.5857 0.64905 0.1239 0.0
C1078 C 0.57335 0.62859 0.13754 0.0
C1079 C 0.57313 0.6288 0.16165 0.0
C1080 C 0.586 0.65051 0.17212 0.0
C1081 C 0.59886 0.67173 0.15852 0.0
C1082 C 0.59855 0.6709 0.13407 0.0
H1083 H 0.98107 0.56863 0.57613 0.0
H1084 H 0.92391 0.49539 0.5839 0.0
H1085 H 0.90508 0.50523 0.61456 0.0
H1086 H 0.98651 0.58159 0.63542 0.0
H1087 H 0.99175 0.61062 0.63061 0.0
H1088 H 1.00014 0.59799 0.60862 0.0
H1089 H 0.97439 0.60445 0.57878 0.0
H1090 H 0.96596 0.61717 0.6007 0.0
H1091 H 0.94321 0.59259 0.58523 0.0
H1092 H 0.89412 0.5226 0.64615 0.0
H1093 H 0.89096 0.54649 0.67558 0.0
H1094 H 0.95382 0.60887 0.6455 0.0
C1095 C 0.96452 0.55473 0.58423 0.0
C1096 C 0.95388 0.53126 0.57769 0.0
C1097 C 0.93218 0.51351 0.58854 0.0
C1098 C 0.92142 0.51893 0.60599 0.0
C1099 C 0.93241 0.54222 0.61213 0.0
C1100 C 0.95334 0.55989 0.60142 0.0
C1101 C 0.96156 0.58346 0.61141 0.0
C1102 C 0.98646 0.59403 0.62216 0.0
C1103 C 0.96125 0.60042 0.59293 0.0
C1104 C 0.94235 0.57618 0.62983 0.0
C1105 C 0.92572 0.55233 0.62995 0.0
C1106 C 0.90694 0.54134 0.64611 0.0
C1107 C 0.90531 0.55504 0.66277 0.0
C1108 C 0.92237 0.57948 0.66326 0.0
C1109 C 0.94071 0.59021 0.64604 0.0
H1110 H 0.45153 0.96716 0.08415 0.0
H1111 H 0.41565 0.98082 0.02843 0.0
H1112 H 0.3787 0.96313 0.05288 0.0
H1113 H 0.40046 0.91144 0.10545 0.0
H1114 H 0.40859 0.91725 0.1354 0.0
H1115 H 0.43147 0.9299 0.11303 0.0
H1116 H 0.44696 0.97147 0.12765 0.0
H1117 H 0.42417 0.95898 0.15006 0.0
H1118 H 0.42653 0.98143 0.13006 0.0
H1119 H 0.34659 0.9458 0.08452 0.0
H1120 H 0.32171 0.92982 0.12035 0.0
H1121 H 0.37903 0.92753 0.15505 0.0
C1122 C 0.43576 0.96623 0.07715 0.0
C1123 C 0.43615 0.97529 0.05461 0.0
C1124 C 0.41544 0.97393 0.04577 0.0
C1125 C 0.3945 0.96393 0.05949 0.0
C1126 C 0.39473 0.95538 0.08188 0.0
C1127 C 0.41485 0.9564 0.0906 0.0
C1128 C 0.41083 0.94674 0.11538 0.0
C1129 C 0.41296 0.92504 0.11742 0.0
C1130 C 0.42815 0.96579 0.13175 0.0
C1131 C 0.38533 0.94019 0.11938 0.0
C1132 C 0.3763 0.94524 0.09987 0.0
C1133 C 0.35337 0.94147 0.09977 0.0
C1134 C 0.33934 0.93232 0.12015 0.0
C1135 C 0.34823 0.92686 0.14026 0.0
C1136 C 0.37157 0.93099 0.13977 0.0
H1137 H 0.49908 0.42892 0.57333 0.0
H1138 H 0.43464 0.41789 0.54125 0.0
H1139 H 0.41196 0.37701 0.5575 0.0
H1140 H 0.49236 0.37588 0.56151 0.0
H1141 H 0.50556 0.37335 0.58806 0.0
H1142 H 0.51404 0.40189 0.57597 0.0
H1143 H 0.50225 0.41208 0.61413 0.0
H1144 H 0.49404 0.38375 0.62678 0.0
H1145 H 0.47269 0.39275 0.62639 0.0
H1146 H 0.39101 0.3304 0.57045 0.0
H1147 H 0.38311 0.28629 0.58985 0.0
H1148 H 0.47116 0.33229 0.61618 0.0
C1149 C 0.48011 0.41772 0.57015 0.0
C1150 C 0.46837 0.42622 0.55628 0.0
C1151 C 0.44371 0.41152 0.55204 0.0
C1152 C 0.43078 0.38838 0.56117 0.0
C1153 C 0.44274 0.38014 0.57447 0.0
C1154 C 0.46735 0.39442 0.57909 0.0
C1155 C 0.47858 0.38247 0.59279 0.0
C1156 C 0.49883 0.38346 0.57875 0.0
C1157 C 0.48741 0.39341 0.61642 0.0
C1158 C 0.45792 0.35765 0.59596 0.0
C1159 C 0.43313 0.35658 0.58369 0.0
C1160 C 0.40509 0.32995 0.57969 0.0
C1161 C 0.40053 0.30234 0.59024 0.0
C1162 C 0.42504 0.30518 0.60909 0.0
C1163 C 0.45632 0.33163 0.60729 0.0
H1164 H 0.56269 0.95072 0.47198 0.0
H1165 H 0.52766 0.96436 0.41527 0.0
H1166 H 0.53618 0.94081 0.38979 0.0
H1167 H 0.61017 0.95397 0.43624 0.0
H1168 H 0.61062 0.93116 0.45331 0.0
H1169 H 0.60232 0.94965 0.46665 0.0
H1170 H 0.56232 0.91272 0.48093 0.0
H1171 H 0.57039 0.89414 0.46747 0.0
H1172 H 0.54267 0.89197 0.46022 0.0
H1173 H 0.54635 0.91361 0.3714 0.0
H1174 H 0.55933 0.88696 0.36068 0.0
H1175 H 0.59017 0.89342 0.42888 0.0
C1176 C 0.55698 0.94883 0.45415 0.0
C1177 C 0.5445 0.95925 0.44552 0.0
C1178 C 0.5374 0.95661 0.42209 0.0
C1179 C 0.54208 0.94322 0.40755 0.0
C1180 C 0.5542 0.93292 0.41666 0.0
C1181 C 0.56187 0.93588 0.43931 0.0
C1182 C 0.57466 0.9231 0.4448 0.0
C1183 C 0.60101 0.94051 0.45059 0.0
C1184 C 0.56173 0.90437 0.46452 0.0
C1185 C 0.57243 0.91197 0.4219 0.0
C1186 C 0.56053 0.91778 0.40591 0.0
C1187 C 0.55571 0.90896 0.3838 0.0
C1188 C 0.56308 0.89365 0.37794 0.0
C1189 C 0.57509 0.88713 0.39417 0.0
C1190 C 0.58032 0.89712 0.41622 0.0
H1191 H 0.60804 0.57328 0.97483 0.0
H1192 H 0.56748 0.49982 0.95829 0.0
H1193 H 0.59972 0.50656 0.93154 0.0
H1194 H 0.63273 0.59564 0.91567 0.0
H1195 H 0.66126 0.61875 0.92577 0.0
H1196 H 0.63455 0.60845 0.94302 0.0
H1197 H 0.65411 0.59981 0.97787 0.0
H1198 H 0.68082 0.61 0.96074 0.0
H1199 H 0.66552 0.58095 0.97439 0.0
H1200 H 0.63736 0.52007 0.90979 0.0
H1201 H 0.67734 0.54017 0.89159 0.0
H1202 H 0.69334 0.60599 0.91938 0.0
C1203 C 0.606 0.55878 0.96536 0.0
C1204 C 0.5855 0.536 0.9687 0.0
C1205 C 0.5832 0.51734 0.95602 0.0
C1206 C 0.60136 0.52101 0.94079 0.0
C1207 C 0.62155 0.54354 0.93811 0.0
C1208 C 0.62392 0.56221 0.94976 0.0
C1209 C 0.64769 0.58458 0.94374 0.0
C1210 C 0.64382 0.60294 0.93131 0.0
C1211 C 0.66293 0.5944 0.96548 0.0
C1212 C 0.65847 0.57536 0.92742 0.0
C1213 C 0.64304 0.55164 0.92448 0.0
C1214 C 0.64944 0.53877 0.91149 0.0
C1215 C 0.67226 0.55043 0.90114 0.0
C1216 C 0.68837 0.57491 0.90346 0.0
C1217 C 0.68122 0.58743 0.91681 0.0
H1218 H 0.03536 0.59168 0.46993 0.0
H1219 H 0.05261 0.54712 0.434 0.0
H1220 H 0.07953 0.58056 0.40703 0.0
H1221 H 0.03694 0.62725 0.41843 0.0
H1222 H 0.05034 0.65385 0.43417 0.0
H1223 H 0.03083 0.62586 0.44902 0.0
H1224 H 0.06426 0.63481 0.47838 0.0
H1225 H 0.08396 0.66268 0.46351 0.0
H1226 H 0.09312 0.64188 0.46788 0.0
H1227 H 0.10774 0.61968 0.3872 0.0
H1228 H 0.13344 0.66103 0.37387 0.0
H1229 H 0.09637 0.68013 0.4214 0.0
C1230 C 0.04439 0.58897 0.45596 0.0
C1231 C 0.0419 0.56701 0.45362 0.0
C1232 C 0.05425 0.56391 0.43566 0.0
C1233 C 0.06954 0.58276 0.42039 0.0
C1234 C 0.07207 0.60444 0.42336 0.0
C1235 C 0.05963 0.60759 0.44052 0.0
C1236 C 0.06648 0.63294 0.44073 0.0
C1237 C 0.04486 0.63509 0.43525 0.0
C1238 C 0.07761 0.64371 0.464 0.0
C1239 C 0.08495 0.64362 0.42123 0.0
C1240 C 0.08797 0.62692 0.41151 0.0
C1241 C 0.10524 0.63287 0.39436 0.0
C1242 C 0.11981 0.65652 0.38692 0.0
C1243 C 0.11688 0.67402 0.39645 0.0
C1244 C 0.09896 0.66723 0.41366 0.0
H1245 H 0.45172 0.05555 0.95697 0.0
H1246 H 0.49776 0.04654 0.91115 0.0
H1247 H 0.48682 0.06357 0.87827 0.0
H1248 H 0.40485 0.03883 0.91619 0.0
H1249 H 0.39722 0.0594 0.92535 0.0
H1250 H 0.41 0.04815 0.94562 0.0
H1251 H 0.44391 0.09065 0.95396 0.0
H1252 H 0.43126 0.10203 0.93363 0.0
H1253 H 0.46199 0.11036 0.93026 0.0
H1254 H 0.47 0.08012 0.85028 0.0
H1255 H 0.44667 0.09331 0.82826 0.0
H1256 H 0.41049 0.0908 0.89172 0.0
C1257 C 0.45963 0.05744 0.94003 0.0
C1258 C 0.47564 0.04987 0.93648 0.0
C1259 C 0.4854 0.0522 0.91409 0.0
C1260 C 0.47939 0.06194 0.89539 0.0
C1261 C 0.46345 0.06911 0.89936 0.0
C1262 C 0.45353 0.06683 0.92105 0.0
C1263 C 0.43568 0.07455 0.92022 0.0
C1264 C 0.41045 0.05401 0.92726 0.0
C1265 C 0.4437 0.09566 0.93542 0.0
C1266 C 0.43713 0.0815 0.89468 0.0
C1267 C 0.45341 0.07838 0.88304 0.0
C1268 C 0.45735 0.08283 0.85921 0.0
C1269 C 0.44408 0.09037 0.84687 0.0
C1270 C 0.42708 0.09344 0.85833 0.0
C1271 C 0.42371 0.08904 0.8826 0.0
H1272 H 0.41488 0.4814 0.44642 0.0
H1273 H 0.44058 0.43615 0.42965 0.0
H1274 H 0.40763 0.41564 0.40241 0.0
H1275 H 0.3542 0.43903 0.44913 0.0
H1276 H 0.34506 0.4584 0.4377 0.0
H1277 H 0.37269 0.47016 0.45311 0.0
H1278 H 0.39607 0.49819 0.41818 0.0
H1279 H 0.36857 0.48688 0.40253 0.0
H1280 H 0.3933 0.48646 0.39002 0.0
H1281 H 0.36608 0.38939 0.37871 0.0
H1282 H 0.31967 0.37251 0.35821 0.0
H1283 H 0.32044 0.44206 0.39432 0.0
C1284 C 0.41347 0.46716 0.43694 0.0
C1285 C 0.43043 0.4605 0.44007 0.0
C1286 C 0.42819 0.44196 0.42725 0.0
C1287 C 0.40942 0.43009 0.41181 0.0
C1288 C 0.39287 0.4368 0.4092 0.0
C1289 C 0.39447 0.45517 0.4216 0.0
C1290 C 0.37403 0.45981 0.41792 0.0
C1291 C 0.36072 0.45666 0.44082 0.0
C1292 C 0.38356 0.48428 0.40649 0.0
C1293 C 0.35796 0.44116 0.40171 0.0
C1294 C 0.37161 0.42574 0.39551 0.0
C1295 C 0.35726 0.39898 0.38047 0.0
C1296 C 0.32782 0.38749 0.36908 0.0
C1297 C 0.31697 0.4081 0.37027 0.0
C1298 C 0.32858 0.43197 0.39159 0.0
H1299 H 0.94673 0.41602 0.93428 0.0
H1300 H 0.01422 0.41931 0.93863 0.0
H1301 H 0.99724 0.38343 0.91652 0.0
H1302 H 0.90901 0.3539 0.94209 0.0
H1303 H 0.88675 0.35115 0.92192 0.0
H1304 H 0.90456 0.37795 0.9369 0.0
H1305 H 0.91813 0.40158 0.89758 0.0
H1306 H 0.9004 0.37481 0.88246 0.0
H1307 H 0.93192 0.39376 0.8759 0.0
H1308 H 0.97275 0.34635 0.89607 0.0
H1309 H 0.94192 0.30978 0.87854 0.0
H1310 H 0.88989 0.32988 0.88692 0.0
C1311 C 0.95793 0.40919 0.93056 0.0
C1312 C 0.98191 0.42063 0.93807 0.0
C1313 C 0.99598 0.41116 0.93273 0.0
C1314 C 0.98646 0.39072 0.92025 0.0
C1315 C 0.96284 0.37993 0.91311 0.0
C1316 C 0.94872 0.38878 0.91801 0.0
C1317 C 0.92364 0.37329 0.90881 0.0
C1318 C 0.90489 0.36349 0.92861 0.0
C1319 C 0.91821 0.38666 0.89007 0.0
C1320 C 0.92577 0.35407 0.89847 0.0
C1321 C 0.94862 0.35842 0.90102 0.0
C1322 C 0.95487 0.34287 0.89369 0.0
C1323 C 0.93724 0.32218 0.8837 0.0
C1324 C 0.91362 0.31716 0.88098 0.0
C1325 C 0.90791 0.33347 0.88838 0.0
H1326 H 0.99108 0.56756 0.96735 0.0
H1327 H 0.98495 0.51564 0.92101 0.0
H1328 H 0.96427 0.52712 0.89252 0.0
H1329 H 0.93321 0.55913 0.95542 0.0
H1330 H 0.94347 0.58979 0.95704 0.0
H1331 H 0.95804 0.5777 0.97357 0.0
H1332 H 0.99878 0.60907 0.95457 0.0
H1333 H 0.98434 0.62125 0.93798 0.0
H1334 H 0.00182 0.61195 0.92342 0.0
H1335 H 0.94488 0.54443 0.86915 0.0
H1336 H 0.92698 0.5659 0.85236 0.0
H1337 H 0.94478 0.60625 0.91415 0.0
C1338 C 0.9853 0.55868 0.95117 0.0
C1339 C 0.98946 0.54076 0.94617 0.0
C1340 C 0.98182 0.52942 0.92495 0.0
C1341 C 0.97011 0.53582 0.90876 0.0
C1342 C 0.96617 0.55352 0.91418 0.0
C1343 C 0.97346 0.56478 0.93487 0.0
C1344 C 0.96681 0.58309 0.93642 0.0
C1345 C 0.94934 0.57706 0.95682 0.0
C1346 C 0.98928 0.6078 0.93819 0.0
C1347 C 0.95468 0.5804 0.91335 0.0
C1348 C 0.95457 0.56327 0.9008 0.0
C1349 C 0.94468 0.55775 0.87887 0.0
C1350 C 0.9345 0.56997 0.86952 0.0
C1351 C 0.93405 0.58738 0.88216 0.0
C1352 C 0.94451 0.59276 0.90428 0.0
H1353 H 0.42953 0.98687 0.45443 0.0
H1354 H 0.45928 0.94375 0.44489 0.0
H1355 H 0.42483 0.91747 0.42057 0.0
H1356 H 0.371 0.94201 0.46134 0.0
H1357 H 0.35798 0.95637 0.44601 0.0
H1358 H 0.38652 0.97362 0.45954 0.0
H1359 H 0.40567 0.99592 0.42039 0.0
H1360 H 0.37707 0.9789 0.40673 0.0
H1361 H 0.4028 0.97958 0.39529 0.0
H1362 H 0.38494 0.89347 0.40181 0.0
H1363 H 0.34282 0.87358 0.3897 0.0
H1364 H 0.33992 0.93354 0.40985 0.0
C1365 C 0.42916 0.9724 0.44641 0.0
C1366 C 0.4472 0.96753 0.45085 0.0
C1367 C 0.44578 0.9479 0.44112 0.0
C1368 C 0.42633 0.93296 0.42734 0.0
C1369 C 0.40861 0.93806 0.42346 0.0
C1370 C 0.40999 0.95746 0.4325 0.0
C1371 C 0.38769 0.95796 0.42737 0.0
C1372 C 0.37506 0.95745 0.44991 0.0
C1373 C 0.39367 0.97936 0.41149 0.0
C1374 C 0.37312 0.9353 0.41486 0.0
C1375 C 0.38559 0.9242 0.41258 0.0
C1376 C 0.37513 0.90216 0.40323 0.0
C1377 C 0.35118 0.89096 0.39647 0.0
C1378 C 0.33781 0.90168 0.39928 0.0
C1379 C 0.34935 0.92458 0.40779 0.0
H1380 H 0.44339 0.41611 0.93065 0.0
H1381 H 0.49338 0.40741 0.97197 0.0
H1382 H 0.48121 0.37057 0.95284 0.0
H1383 H 0.39564 0.3567 0.92878 0.0
H1384 H 0.38811 0.35987 0.89934 0.0
H1385 H 0.40178 0.38479 0.91748 0.0
H1386 H 0.43563 0.40831 0.88718 0.0
H1387 H 0.42238 0.38362 0.86873 0.0
H1388 H 0.453 0.39657 0.8776 0.0
H1389 H 0.46429 0.32875 0.93173 0.0
H1390 H 0.44133 0.29176 0.89893 0.0
H1391 H 0.3988 0.33286 0.86622 0.0
C1392 C 0.45147 0.40613 0.93552 0.0
C1393 C 0.46913 0.41418 0.95268 0.0
C1394 C 0.4798 0.40129 0.95879 0.0
C1395 C 0.47301 0.38043 0.94807 0.0
C1396 C 0.45572 0.37281 0.93105 0.0
C1397 C 0.44482 0.38536 0.92439 0.0
C1398 C 0.42637 0.37497 0.90477 0.0
C1399 C 0.40151 0.36871 0.9131 0.0
C1400 C 0.43485 0.39187 0.88331 0.0
C1401 C 0.42614 0.35319 0.89963 0.0
C1402 C 0.44681 0.35225 0.91784 0.0
C1403 C 0.45201 0.32874 0.91921 0.0
C1404 C 0.43693 0.30509 0.89982 0.0
C1405 C 0.42058 0.31051 0.87623 0.0
C1406 C 0.40965 0.33097 0.87919 0.0
H1407 H 0.08267 0.48535 0.4475 0.0
H1408 H 0.01167 0.42495 0.43594 0.0
H1409 H 0.02933 0.40827 0.41178 0.0
H1410 H 0.10787 0.48926 0.39062 0.0
H1411 H 0.13671 0.49726 0.40184 0.0
H1412 H 0.11831 0.50516 0.41687 0.0
H1413 H 0.12045 0.48396 0.45447 0.0
H1414 H 0.13891 0.47608 0.4396 0.0
H1415 H 0.11154 0.45358 0.45388 0.0
H1416 H 0.05515 0.39707 0.39071 0.0
H1417 H 0.08706 0.39233 0.37478 0.0
H1418 H 0.14084 0.4597 0.40087 0.0
C1419 C 0.07078 0.46859 0.43994 0.0
C1420 C 0.04574 0.45651 0.44363 0.0
C1421 C 0.03087 0.43475 0.43312 0.0
C1422 C 0.04074 0.42507 0.41944 0.0
C1423 C 0.06551 0.43737 0.41636 0.0
C1424 C 0.08031 0.45867 0.42632 0.0
C1425 C 0.10639 0.46796 0.42113 0.0
C1426 C 0.118 0.49129 0.40676 0.0
C1427 C 0.12012 0.47054 0.44361 0.0
C1428 C 0.10401 0.4484 0.40699 0.0
C1429 C 0.0803 0.43097 0.40426 0.0
C1430 C 0.07376 0.41075 0.3925 0.0
C1431 C 0.09196 0.40823 0.38345 0.0
C1432 C 0.11638 0.42588 0.38617 0.0
C1433 C 0.12233 0.44617 0.3981 0.0
H1434 H 0.57346 0.05469 0.9278 0.0
H1435 H 0.60321 0.0458 0.99169 0.0
H1436 H 0.64189 0.06034 0.97154 0.0
H1437 H 0.60189 0.03515 0.89075 0.0
H1438 H 0.60714 0.05579 0.86713 0.0
H1439 H 0.58223 0.046 0.8868 0.0
H1440 H 0.59753 0.08918 0.89573 0.0
H1441 H 0.62245 0.09913 0.87601 0.0
H1442 H 0.62769 0.10788 0.90563 0.0
H1443 H 0.67652 0.07414 0.94431 0.0
H1444 H 0.70537 0.08693 0.91162 0.0
H1445 H 0.65327 0.08678 0.86516 0.0
C1446 C 0.58831 0.05618 0.93748 0.0
C1447 C 0.58573 0.0496 0.96127 0.0
C1448 C 0.60519 0.05119 0.97349 0.0
C1449 C 0.62711 0.05933 0.9622 0.0
C1450 C 0.62916 0.06566 0.93868 0.0
C1451 C 0.61034 0.06422 0.92643 0.0
C1452 C 0.61711 0.07138 0.9011 0.0
C1453 C 0.60114 0.05086 0.88553 0.0
C1454 C 0.61614 0.09319 0.89422 0.0
C1455 C 0.64261 0.07699 0.90105 0.0
C1456 C 0.64919 0.07359 0.92291 0.0
C1457 C 0.67167 0.07708 0.92713 0.0
C1458 C 0.68792 0.08434 0.9085 0.0
C1459 C 0.68166 0.08816 0.88597 0.0
C1460 C 0.65863 0.0843 0.88227 0.0
H1461 H 0.53972 0.57277 0.43987 0.0
H1462 H 0.57093 0.60161 0.5058 0.0
H1463 H 0.59445 0.6415 0.4869 0.0
H1464 H 0.59267 0.60931 0.40534 0.0
H1465 H 0.57704 0.61233 0.38104 0.0
H1466 H 0.56222 0.58638 0.39997 0.0
H1467 H 0.52793 0.59356 0.40748 0.0
H1468 H 0.54263 0.61952 0.38856 0.0
H1469 H 0.53497 0.6214 0.41794 0.0
H1470 H 0.61538 0.67783 0.46041 0.0
H1471 H 0.63177 0.70821 0.42847 0.0
H1472 H 0.58663 0.65547 0.37984 0.0
C1473 C 0.55145 0.58759 0.45023 0.0
C1474 C 0.55366 0.58441 0.47418 0.0
C1475 C 0.56911 0.60396 0.4874 0.0
C1476 C 0.58248 0.62655 0.47682 0.0
C1477 C 0.58008 0.62916 0.45306 0.0
C1478 C 0.56491 0.61021 0.43994 0.0
C1479 C 0.5659 0.61767 0.41467 0.0
C1480 C 0.575 0.60571 0.39936 0.0
C1481 C 0.5414 0.61275 0.4067 0.0
C1482 C 0.584 0.64377 0.41559 0.0
C1483 C 0.59199 0.65006 0.43788 0.0
C1484 C 0.60912 0.67315 0.44292 0.0
C1485 C 0.6183 0.69027 0.42471 0.0
C1486 C 0.61021 0.68424 0.40177 0.0
C1487 C 0.59289 0.66062 0.39725 0.0
H1488 H 0.47869 0.08395 0.54719 0.0
H1489 H 0.45459 0.02429 0.59538 0.0
H1490 H 0.43561 0.03944 0.62023 0.0
H1491 H 0.49249 0.12692 0.59071 0.0
H1492 H 0.48249 0.14278 0.57315 0.0
H1493 H 0.49437 0.12735 0.55955 0.0
H1494 H 0.45548 0.10416 0.53608 0.0
H1495 H 0.4435 0.11953 0.54958 0.0
H1496 H 0.42703 0.08788 0.55122 0.0
H1497 H 0.41731 0.06006 0.63833 0.0
H1498 H 0.40264 0.08541 0.64945 0.0
H1499 H 0.44059 0.13275 0.59039 0.0
C1500 C 0.46951 0.07425 0.56307 0.0
C1501 C 0.46795 0.05305 0.56957 0.0
C1502 C 0.45588 0.04063 0.59033 0.0
C1503 C 0.4451 0.04909 0.60446 0.0
C1504 C 0.44683 0.07008 0.59759 0.0
C1505 C 0.45889 0.08258 0.57747 0.0
C1506 C 0.45808 0.10458 0.57394 0.0
C1507 C 0.48336 0.12672 0.57437 0.0
C1508 C 0.44525 0.10399 0.55137 0.0
C1509 C 0.44344 0.10238 0.59505 0.0
C1510 C 0.43706 0.08234 0.60845 0.0
C1511 C 0.42255 0.07602 0.62821 0.0
C1512 C 0.41438 0.09059 0.63444 0.0
C1513 C 0.42106 0.11145 0.62114 0.0
C1514 C 0.43573 0.11725 0.60119 0.0
H1515 H 0.41415 0.46233 0.05085 0.0
H1516 H 0.47557 0.49965 0.09472 0.0
H1517 H 0.44881 0.48935 0.1288 0.0
H1518 H 0.37571 0.47896 0.07898 0.0
H1519 H 0.34922 0.45114 0.07286 0.0
H1520 H 0.3749 0.46383 0.05361 0.0
H1521 H 0.37535 0.42575 0.05822 0.0
H1522 H 0.35014 0.41296 0.07798 0.0
H1523 H 0.37757 0.41519 0.08673 0.0
H1524 H 0.41698 0.46867 0.1659 0.0
H1525 H 0.37294 0.44347 0.19334 0.0
H1526 H 0.32695 0.41976 0.11636 0.0
C1527 C 0.42171 0.46901 0.06756 0.0
C1528 C 0.44675 0.48224 0.07029 0.0
C1529 C 0.45637 0.48987 0.0924 0.0
C1530 C 0.44134 0.48404 0.11178 0.0
C1531 C 0.41669 0.47082 0.10878 0.0
C1532 C 0.40652 0.46348 0.08683 0.0
C1533 C 0.3789 0.44848 0.08616 0.0
C1534 C 0.3691 0.46137 0.07207 0.0
C1535 C 0.36999 0.42417 0.07672 0.0
C1536 C 0.372 0.44618 0.11118 0.0
C1537 C 0.39845 0.4617 0.12659 0.0
C1538 C 0.39983 0.45998 0.15751 0.0
C1539 C 0.37275 0.44312 0.17462 0.0
C1540 C 0.34477 0.43269 0.15769 0.0
C1541 C 0.34355 0.42863 0.12571 0.0
H1542 H 0.95983 0.40207 0.55044 0.0
H1543 H 0.95693 0.45613 0.58539 0.0
H1544 H 0.93967 0.42987 0.6204 0.0
H1545 H 0.90458 0.35019 0.57655 0.0
H1546 H 0.91802 0.33282 0.57616 0.0
H1547 H 0.92625 0.3559 0.5543 0.0
H1548 H 0.97058 0.37426 0.56489 0.0
H1549 H 0.96275 0.35189 0.58732 0.0
H1550 H 0.97972 0.38244 0.59425 0.0
H1551 H 0.93215 0.40409 0.66043 0.0
H1552 H 0.92591 0.3677 0.6938 0.0
H1553 H 0.93313 0.32451 0.62532 0.0
C1554 C 0.9548 0.40779 0.56542 0.0
C1555 C 0.95922 0.43072 0.5655 0.0
C1556 C 0.95321 0.43839 0.58518 0.0
C1557 C 0.94347 0.42364 0.60503 0.0
C1558 C 0.93972 0.40123 0.60491 0.0
C1559 C 0.94509 0.39289 0.58532 0.0
C1560 C 0.94165 0.36832 0.5883 0.0
C1561 C 0.92143 0.35077 0.57292 0.0
C1562 C 0.96506 0.36931 0.5834 0.0
C1563 C 0.93458 0.36202 0.61334 0.0
C1564 C 0.9328 0.38483 0.62439 0.0
C1565 C 0.93104 0.38846 0.65466 0.0
C1566 C 0.92895 0.3669 0.67558 0.0
C1567 C 0.92386 0.3396 0.6626 0.0
C1568 C 0.93278 0.33913 0.63197 0.0
H1569 H 0.53249 0.94047 0.08827 0.0
H1570 H 0.59665 0.01012 0.08096 0.0
H1571 H 0.61776 0.99766 0.10743 0.0
H1572 H 0.53899 0.93058 0.14918 0.0
H1573 H 0.52802 0.89986 0.1466 0.0
H1574 H 0.51788 0.91422 0.127 0.0
H1575 H 0.53166 0.90102 0.09207 0.0
H1576 H 0.54199 0.88675 0.11156 0.0
H1577 H 0.56224 0.90854 0.09024 0.0
H1578 H 0.63199 0.97798 0.1345 0.0
H1579 H 0.63833 0.95224 0.16127 0.0
H1580 H 0.56497 0.89537 0.1517 0.0
C1581 C 0.5509 0.95315 0.09243 0.0
C1582 C 0.56296 0.97625 0.08244 0.0
C1583 C 0.58715 0.99224 0.08812 0.0
C1584 C 0.59927 0.98536 0.10321 0.0
C1585 C 0.58697 0.96243 0.11253 0.0
C1586 C 0.56332 0.94655 0.10747 0.0
C1587 C 0.55437 0.92293 0.11985 0.0
C1588 C 0.53359 0.91653 0.13666 0.0
C1589 C 0.54714 0.90368 0.10239 0.0
C1590 C 0.57666 0.92811 0.13276 0.0
C1591 C 0.59526 0.95098 0.12819 0.0
C1592 C 0.61762 0.95999 0.13812 0.0
C1593 C 0.62108 0.94524 0.15321 0.0
C1594 C 0.60235 0.92169 0.15814 0.0
C1595 C 0.57977 0.91313 0.14787 0.0
H1596 H 0.61792 0.5486 0.57228 0.0
H1597 H 0.5659 0.54862 0.61786 0.0
H1598 H 0.59671 0.56817 0.64713 0.0
H1599 H 0.64838 0.5349 0.61698 0.0
H1600 H 0.67667 0.552 0.60166 0.0
H1601 H 0.64915 0.53796 0.5858 0.0
H1602 H 0.66106 0.57788 0.566 0.0
H1603 H 0.68846 0.59233 0.58193 0.0
H1604 H 0.66787 0.60218 0.58355 0.0
H1605 H 0.63486 0.59731 0.67455 0.0
H1606 H 0.68216 0.62222 0.69464 0.0
H1607 H 0.71168 0.59669 0.62583 0.0
C1608 C 0.61292 0.55228 0.58861 0.0
C1609 C 0.58948 0.54742 0.59243 0.0
C1610 C 0.58381 0.55279 0.614 0.0
C1611 C 0.60116 0.5637 0.63093 0.0
C1612 C 0.62411 0.56868 0.62655 0.0
C1613 C 0.63028 0.56275 0.60578 0.0
C1614 C 0.6565 0.56931 0.60338 0.0
C1615 C 0.65774 0.54723 0.60186 0.0
C1616 C 0.6692 0.58643 0.58248 0.0
C1617 C 0.66721 0.58118 0.62551 0.0
C1618 C 0.64447 0.58064 0.64128 0.0
C1619 C 0.64951 0.59708 0.66657 0.0
C1620 C 0.67906 0.61387 0.67826 0.0
C1621 C 0.70119 0.60825 0.66478 0.0
C1622 C 0.6976 0.59706 0.63491 0.0
H1623 H 0.07154 0.58336 0.09096 0.0
H1624 H 0.07747 0.62237 0.02699 0.0
H1625 H 0.09305 0.6585 0.04867 0.0
H1626 H 0.05239 0.61192 0.12739 0.0
H1627 H 0.06953 0.61223 0.152 0.0
H1628 H 0.05951 0.58957 0.1314 0.0
H1629 H 0.10319 0.60057 0.12494 0.0
H1630 H 0.11334 0.62324 0.14557 0.0
H1631 H 0.12595 0.63044 0.11663 0.0
H1632 H 0.10584 0.68975 0.07742 0.0
H1633 H 0.11636 0.71453 0.11124 0.0
H1634 H 0.10418 0.65584 0.15641 0.0
C1635 C 0.07616 0.59954 0.08157 0.0
C1636 C 0.07332 0.60014 0.05732 0.0
C1637 C 0.07973 0.62163 0.04554 0.0
C1638 C 0.08851 0.6422 0.0577 0.0
C1639 C 0.09104 0.64102 0.0816 0.0
C1640 C 0.08527 0.62033 0.09341 0.0
C1641 C 0.0897 0.6239 0.11913 0.0
C1642 C 0.06639 0.60849 0.13331 0.0
C1643 C 0.10921 0.61927 0.12703 0.0
C1644 C 0.09834 0.64972 0.11998 0.0
C1645 C 0.09896 0.65923 0.09814 0.0
C1646 C 0.10554 0.68254 0.0946 0.0
C1647 C 0.11144 0.69646 0.11392 0.0
C1648 C 0.11073 0.68706 0.13653 0.0
C1649 C 0.10455 0.66347 0.13943 0.0
loop_
_geom_bond_atom_site_label_1
_geom_bond_atom_site_label_2
_geom_bond_distance
_geom_bond_site_symmetry_2
_ccdc_geom_bond_type
C0 C1 1.443 . S
C0 N4 1.376 1_556 S
C0 C38 1.389 . S
C1 C0 1.443 . S
C1 C2 1.340 1_556 S
C1 H41 0.951 . S
C2 C1 1.340 1_554 S
C2 C3 1.439 . S
C2 H42 0.950 . S
C3 C2 1.439 . S
C3 N4 1.374 . S
C3 C37 1.395 . S
N4 C0 1.376 1_554 S
N4 C3 1.374 . S
N4 Co5 2.008 1_655 S
Co5 N4 2.008 1_455 S
Co5 N6 1.996 . S
Co5 N11 2.007 1_554 S
Co5 N16 1.994 1_554 S
Co5 N21 2.283 . S
Co5 N27 2.282 1_554 S
N6 Co5 1.996 . S
N6 C7 1.376 1_455 S
N6 C10 1.383 . S
C7 N6 1.376 1_655 S
C7 C8 1.446 . S
C7 C37 1.391 . S
C8 C7 1.446 . S
C8 C9 1.339 1_655 S
C8 H43 0.949 . S
C9 C8 1.339 1_455 S
C9 C10 1.439 . S
C9 H44 0.950 . S
C10 N6 1.383 . S
C10 C9 1.439 . S
C10 C39 1.392 . S
N11 Co5 2.007 1_556 S
N11 C12 1.347 1_556 S
N11 C15 1.401 . S
C12 N11 1.347 1_554 S
C12 C13 1.443 . S
C12 C39 1.389 . S
C13 C12 1.443 . S
C13 C14 1.340 1_554 S
C13 H45 0.951 . S
C14 C13 1.340 1_556 S
C14 C15 1.439 . S
C14 H46 0.950 . S
C15 N11 1.401 . S
C15 C14 1.439 . S
C15 C40 1.395 . S
N16 Co5 1.994 1_556 S
N16 C17 1.376 . S
N16 C20 1.383 . S
C17 N16 1.376 . S
C17 C18 1.446 . S
C17 C40 1.391 . S
C18 C17 1.446 . S
C18 C19 1.339 . S
C18 H47 0.949 . S
C19 C18 1.339 . S
C19 C20 1.439 . S
C19 H48 0.950 . S
C20 N16 1.383 . S
C20 C19 1.439 . S
C20 C38 1.392 1_455 S
N21 Co5 2.283 . S
N21 C24 1.332 . S
N21 C26 1.332 . S
C22 C23 1.386 . S
C22 C25 1.388 . S
C23 C22 1.386 . S
C23 C24 1.382 . S
C23 H49 0.950 . S
C24 N21 1.332 . S
C24 C23 1.382 . S
C24 H35 0.952 . S
C25 C22 1.388 . S
C25 C26 1.382 . S
C25 H50 0.950 . S
C26 N21 1.332 . S
C26 C25 1.382 . S
C26 H36 0.948 . S
N27 Co5 2.282 1_556 S
N27 C31 1.332 1_455 S
N27 C32 1.332 . S
C28 C29 1.388 . S
C28 C32 1.382 1_655 S
C28 H51 0.950 1_655 S
C29 C28 1.388 . S
C29 C30 1.386 . S
C30 C29 1.386 . S
C30 C31 1.382 . S
C30 H52 0.950 . S
C31 N27 1.332 1_655 S
C31 C30 1.382 . S
C31 H33 0.952 . S
C32 N27 1.332 . S
C32 C28 1.382 1_455 S
C32 H34 0.948 . S
H33 C31 0.952 . S
H34 C32 0.948 . S
H35 C24 0.952 . S
H36 C26 0.948 . S
C37 C3 1.395 . S
C37 C7 1.391 . S
C38 C0 1.389 . S
C38 C20 1.392 1_655 S
C39 C10 1.392 . S
C39 C12 1.389 . S
C40 C15 1.395 . S
C40 C17 1.391 . S
H41 C1 0.951 . S
H42 C2 0.950 . S
H43 C8 0.949 . S
H44 C9 0.950 . S
H45 C13 0.951 . S
H46 C14 0.950 . S
H47 C18 0.949 . S
H48 C19 0.950 . S
H49 C23 0.950 . S
H50 C25 0.950 . S
H51 C28 0.950 1_455 S
H52 C30 0.950 . S
C53 C54 1.443 . S
C53 N57 1.376 1_545 S
C53 C91 1.389 . S
C54 C53 1.443 . S
C54 C55 1.340 1_545 S
C54 H94 0.951 . S
C55 C54 1.340 1_565 S
C55 C56 1.439 . S
C55 H95 0.950 . S
C56 C55 1.439 . S
C56 N57 1.374 . S
C56 C90 1.395 . S
N57 C53 1.376 1_565 S
N57 C56 1.374 . S
N57 Co58 2.008 1_565 S
Co58 N57 2.008 1_545 S
Co58 N59 1.995 1_545 S
Co58 N64 2.008 . S
Co58 N69 1.995 . S
Co58 N74 2.282 1_545 S
Co58 N80 2.282 . S
N59 Co58 1.995 1_565 S
N59 C60 1.376 . S
N59 C63 1.383 . S
C60 N59 1.376 . S
C60 C61 1.446 . S
C60 C90 1.391 . S
C61 C60 1.446 . S
C61 C62 1.339 . S
C61 H96 0.949 . S
C62 C61 1.339 . S
C62 C63 1.439 . S
C62 H97 0.950 . S
C63 N59 1.383 . S
C63 C62 1.439 . S
C63 C92 1.392 . S
N64 Co58 2.008 . S
N64 C65 1.376 1_545 S
N64 C68 1.374 . S
C65 N64 1.376 1_565 S
C65 C66 1.443 1_565 S
C65 C92 1.389 . S
C66 C65 1.443 1_545 S
C66 C67 1.340 . S
C66 H98 0.951 . S
C67 C66 1.340 . S
C67 C68 1.439 . S
C67 H99 0.950 . S
C68 N64 1.374 . S
C68 C67 1.439 . S
C68 C93 1.395 . S
N69 Co58 1.995 . S
N69 C70 1.376 . S
N69 C73 1.383 . S
C70 N69 1.376 . S
C70 C71 1.446 . S
C70 C93 1.391 . S
C71 C70 1.446 . S
C71 C72 1.339 . S
C71 H100 0.949 . S
C72 C71 1.339 . S
C72 C73 1.439 . S
C72 H101 0.950 . S
C73 N69 1.383 . S
C73 C72 1.439 . S
C73 C91 1.392 . S
N74 Co58 2.282 1_565 S
N74 C77 1.332 . S
N74 C79 1.332 . S
C75 C76 1.386 . S
C75 C78 1.388 . S
C76 C75 1.386 . S
C76 C77 1.382 . S
C76 H102 0.950 . S
C77 N74 1.332 . S
C77 C76 1.382 . S
C77 H88 0.952 1_565 S
C78 C75 1.388 . S
C78 C79 1.382 . S
C78 H103 0.950 . S
C79 N74 1.332 . S
C79 C78 1.382 . S
C79 H89 0.948 . S
N80 Co58 2.282 . S
N80 C84 1.332 . S
N80 C85 1.332 . S
C81 C82 1.388 . S
C81 C85 1.382 . S
C81 H104 0.950 . S
C82 C81 1.388 . S
C82 C83 1.386 . S
C83 C82 1.386 . S
C83 C84 1.382 . S
C83 H105 0.950 . S
C84 N80 1.332 . S
C84 C83 1.382 . S
C84 H86 0.952 1_545 S
C85 N80 1.332 . S
C85 C81 1.382 . S
C85 H87 0.948 . S
H86 C84 0.952 1_565 S
H87 C85 0.948 . S
H88 C77 0.952 1_545 S
H89 C79 0.948 . S
C90 C56 1.395 . S
C90 C60 1.391 . S
C91 C53 1.389 . S
C91 C73 1.392 . S
C92 C63 1.392 . S
C92 C65 1.389 . S
C93 C68 1.395 . S
C93 C70 1.391 . S
H94 C54 0.951 . S
H95 C55 0.950 . S
H96 C61 0.949 . S
H97 C62 0.950 . S
H98 C66 0.951 . S
H99 C67 0.950 . S
H100 C71 0.949 . S
H101 C72 0.950 . S
H102 C76 0.950 . S
H103 C78 0.950 . S
H104 C81 0.950 . S
H105 C83 0.950 . S
C106 C107 1.443 . S
C106 N110 1.376 . S
C106 C144 1.389 . S
C107 C106 1.443 . S
C107 C108 1.340 . S
C107 H147 0.951 . S
C108 C107 1.340 . S
C108 C109 1.439 . S
C108 H148 0.950 . S
C109 C108 1.439 . S
C109 N110 1.374 . S
C109 C143 1.395 . S
N110 C106 1.376 . S
N110 C109 1.374 . S
N110 Co111 2.008 1_556 S
Co111 N110 2.008 1_554 S
Co111 N112 1.995 . S
Co111 N117 2.008 . S
Co111 N122 1.995 . S
Co111 N127 2.282 . S
Co111 N133 2.282 1_554 S
N112 Co111 1.995 . S
N112 C113 1.376 1_554 S
N112 C116 1.383 . S
C113 N112 1.376 1_556 S
C113 C114 1.446 . S
C113 C143 1.391 . S
C114 C113 1.446 . S
C114 C115 1.339 1_556 S
C114 H149 0.949 . S
C115 C114 1.339 1_554 S
C115 C116 1.439 . S
C115 H150 0.950 . S
C116 N112 1.383 . S
C116 C115 1.439 . S
C116 C145 1.392 . S
N117 Co111 2.008 . S
N117 C118 1.376 . S
N117 C121 1.374 . S
C118 N117 1.376 . S
C118 C119 1.443 . S
C118 C145 1.389 . S
C119 C118 1.443 . S
C119 C120 1.340 . S
C119 H151 0.951 . S
C120 C119 1.340 . S
C120 C121 1.439 . S
C120 H152 0.950 . S
C121 N117 1.374 . S
C121 C120 1.439 . S
C121 C146 1.395 . S
N122 Co111 1.995 . S
N122 C123 1.376 . S
N122 C126 1.383 1_554 S
C123 N122 1.376 . S
C123 C124 1.446 . S
C123 C146 1.391 . S
C124 C123 1.446 . S
C124 C125 1.339 . S
C124 H153 0.949 . S
C125 C124 1.339 . S
C125 C126 1.439 1_554 S
C125 H154 0.950 1_554 S
C126 N122 1.383 1_556 S
C126 C125 1.439 1_556 S
C126 C144 1.392 . S
N127 Co111 2.282 . S
N127 C130 1.332 . S
N127 C132 1.332 . S
C128 C129 1.386 . S
C128 C131 1.388 . S
C129 C128 1.386 . S
C129 C130 1.382 . S
C129 H155 0.950 . S
C130 N127 1.332 . S
C130 C129 1.382 . S
C130 H141 0.952 . S
C131 C128 1.388 . S
C131 C132 1.382 . S
C131 H156 0.950 . S
C132 N127 1.332 . S
C132 C131 1.382 . S
C132 H142 0.948 . S
N133 Co111 2.282 1_556 S
N133 C137 1.332 . S
N133 C138 1.332 . S
C134 C135 1.388 . S
C134 C138 1.382 . S
C134 H157 0.950 . S
C135 C134 1.388 . S
C135 C136 1.386 . S
C136 C135 1.386 . S
C136 C137 1.382 . S
C136 H158 0.950 . S
C137 N133 1.332 . S
C137 C136 1.382 . S
C137 H139 0.952 . S
C138 N133 1.332 . S
C138 C134 1.382 . S
C138 H140 0.948 1_556 S
H139 C137 0.952 . S
H140 C138 0.948 1_554 S
H141 C130 0.952 . S
H142 C132 0.948 . S
C143 C109 1.395 . S
C143 C113 1.391 . S
C144 C106 1.389 . S
C144 C126 1.392 . S
C145 C116 1.392 . S
C145 C118 1.389 . S
C146 C121 1.395 . S
C146 C123 1.391 . S
H147 C107 0.951 . S
H148 C108 0.950 . S
H149 C114 0.949 . S
H150 C115 0.950 . S
H151 C119 0.951 . S
H152 C120 0.950 . S
H153 C124 0.949 . S
H154 C125 0.950 1_556 S
H155 C129 0.950 . S
H156 C131 0.950 . S
H157 C134 0.950 . S
H158 C136 0.950 . S
C159 C160 1.443 . S
C159 N163 1.376 . S
C159 C197 1.389 . S
C160 C159 1.443 . S
C160 C161 1.340 . S
C160 H200 0.951 . S
C161 C160 1.340 . S
C161 C162 1.439 . S
C161 H201 0.950 . S
C162 C161 1.439 . S
C162 N163 1.374 . S
C162 C196 1.395 . S
N163 C159 1.376 . S
N163 C162 1.374 . S
N163 Co164 2.008 1_655 S
Co164 N163 2.008 1_455 S
Co164 N165 1.995 1_455 S
Co164 N170 2.008 . S
Co164 N175 1.995 . S
Co164 N180 2.282 . S
Co164 N186 2.282 1_455 S
N165 Co164 1.995 1_655 S
N165 C166 1.376 . S
N165 C169 1.383 1_655 S
C166 N165 1.376 . S
C166 C167 1.446 . S
C166 C196 1.391 . S
C167 C166 1.446 . S
C167 C168 1.361 . S
C167 H202 0.949 . S
C168 C167 1.361 . S
C168 C169 1.419 1_655 S
C168 H203 0.949 1_655 S
C169 N165 1.383 1_455 S
C169 C168 1.419 1_455 S
C169 C198 1.392 . S
N170 Co164 2.008 . S
N170 C171 1.376 . S
N170 C174 1.374 . S
C171 N170 1.376 . S
C171 C172 1.443 . S
C171 C198 1.389 . S
C172 C171 1.443 . S
C172 C173 1.340 . S
C172 H204 0.951 . S
C173 C172 1.340 . S
C173 C174 1.439 . S
C173 H205 0.950 . S
C174 N170 1.374 . S
C174 C173 1.439 . S
C174 C199 1.395 . S
N175 Co164 1.995 . S
N175 C176 1.376 . S
N175 C179 1.383 1_455 S
C176 N175 1.376 . S
C176 C177 1.446 . S
C176 C199 1.391 . S
C177 C176 1.446 . S
C177 C178 1.339 . S
C177 H206 0.949 . S
C178 C177 1.339 . S
C178 C179 1.439 1_455 S
C178 H207 0.950 1_455 S
C179 N175 1.383 1_655 S
C179 C178 1.439 1_655 S
C179 C197 1.392 . S
N180 Co164 2.282 . S
N180 C183 1.332 . S
N180 C185 1.332 . S
C181 C182 1.386 . S
C181 C184 1.388 . S
C182 C181 1.386 . S
C182 C183 1.382 . S
C182 H208 0.950 . S
C183 N180 1.332 . S
C183 C182 1.382 . S
C183 H194 0.952 . S
C184 C181 1.388 . S
C184 C185 1.382 . S
C184 H209 0.950 . S
C185 N180 1.332 . S
C185 C184 1.382 . S
C185 H195 0.948 1_455 S
N186 Co164 2.282 1_655 S
N186 C190 1.332 . S
N186 C191 1.332 . S
C187 C188 1.388 . S
C187 C191 1.382 . S
C187 H210 0.950 . S
C188 C187 1.388 . S
C188 C189 1.386 . S
C189 C188 1.386 . S
C189 C190 1.382 . S
C189 H211 0.950 . S
C190 N186 1.332 . S
C190 C189 1.382 . S
C190 H192 0.952 . S
C191 N186 1.332 . S
C191 C187 1.382 . S
C191 H193 0.948 1_655 S
H192 C190 0.952 . S
H193 C191 0.948 1_455 S
H194 C183 0.952 . S
H195 C185 0.948 1_655 S
C196 C162 1.395 . S
C196 C166 1.391 . S
C197 C159 1.389 . S
C197 C179 1.392 . S
C198 C169 1.392 . S
C198 C171 1.389 . S
C199 C174 1.395 . S
C199 C176 1.391 . S
H200 C160 0.951 . S
H201 C161 0.950 . S
H202 C167 0.949 . S
H203 C168 0.949 1_455 S
H204 C172 0.951 . S
H205 C173 0.950 . S
H206 C177 0.949 . S
H207 C178 0.950 1_655 S
H208 C182 0.950 . S
H209 C184 0.950 . S
H210 C187 0.950 . S
H211 C189 0.950 . S
C212 C213 1.443 1_565 S
C212 N216 1.376 1_565 S
C212 C250 1.389 . S
C213 C212 1.443 1_545 S
C213 C214 1.340 . S
C213 H253 0.951 . S
C214 C213 1.340 . S
C214 C215 1.439 . S
C214 H254 0.950 . S
C215 C214 1.439 . S
C215 N216 1.374 . S
C215 C249 1.395 . S
N216 C212 1.376 1_545 S
N216 C215 1.374 . S
N216 Co217 2.008 . S
Co217 N216 2.008 . S
Co217 N218 1.995 . S
Co217 N223 1.993 1_544 S
Co217 N228 1.995 1_545 S
Co217 N233 2.282 1_554 S
Co217 N239 2.282 1_545 S
N218 Co217 1.995 . S
N218 C219 1.376 . S
N218 C222 1.383 1_554 S
C219 N218 1.376 . S
C219 C220 1.446 . S
C219 C249 1.391 . S
C220 C219 1.446 . S
C220 C221 1.330 1_554 S
C220 H255 0.949 . S
C221 C220 1.330 1_556 S
C221 C222 1.441 . S
C221 H256 0.955 . S
C222 N218 1.383 1_556 S
C222 C221 1.441 . S
C222 C251 1.392 . S
N223 Co217 1.993 1_566 S
N223 C224 1.368 1_565 S
N223 C227 1.395 . S
C224 N223 1.368 1_545 S
C224 C225 1.443 . S
C224 C251 1.389 . S
C225 C224 1.443 . S
C225 C226 1.340 1_545 S
C225 H257 0.951 . S
C226 C225 1.340 1_565 S
C226 C227 1.439 . S
C226 H258 0.950 . S
C227 N223 1.395 . S
C227 C226 1.439 . S
C227 C252 1.395 . S
N228 Co217 1.995 1_565 S
N228 C229 1.376 1_554 S
N228 C232 1.383 . S
C229 N228 1.376 1_556 S
C229 C230 1.446 1_556 S
C229 C252 1.391 . S
C230 C229 1.446 1_554 S
C230 C231 1.339 . S
C230 H259 0.949 1_554 S
C231 C230 1.339 . S
C231 C232 1.439 . S
C231 H260 0.950 . S
C232 N228 1.383 . S
C232 C231 1.439 . S
C232 C250 1.392 . S
N233 Co217 2.282 1_556 S
N233 C236 1.332 . S
N233 C238 1.332 . S
C234 C235 1.386 . S
C234 C237 1.388 . S
C235 C234 1.386 . S
C235 C236 1.382 . S
C235 H261 0.950 . S
C236 N233 1.332 . S
C236 C235 1.382 . S
C236 H247 0.952 1_545 S
C237 C234 1.388 . S
C237 C238 1.382 . S
C237 H262 0.950 . S
C238 N233 1.332 . S
C238 C237 1.382 . S
C238 H248 0.948 1_556 S
N239 Co217 2.282 1_565 S
N239 C243 1.332 . S
N239 C244 1.332 . S
C240 C241 1.388 . S
C240 C244 1.382 . S
C240 H263 0.950 . S
C241 C240 1.388 . S
C241 C242 1.386 . S
C242 C241 1.386 . S
C242 C243 1.382 . S
C242 H264 0.950 . S
C243 N239 1.332 . S
C243 C242 1.382 . S
C243 H245 0.952 1_565 S
C244 N239 1.332 . S
C244 C240 1.382 . S
C244 H246 0.948 . S
H245 C243 0.952 1_545 S
H246 C244 0.948 . S
H247 C236 0.952 1_565 S
H248 C238 0.948 1_554 S
C249 C215 1.395 . S
C249 C219 1.391 . S
C250 C212 1.389 . S
C250 C232 1.392 . S
C251 C222 1.392 . S
C251 C224 1.389 . S
C252 C227 1.395 . S
C252 C229 1.391 . S
H253 C213 0.951 . S
H254 C214 0.950 . S
H255 C220 0.949 . S
H256 C221 0.955 . S
H257 C225 0.951 . S
H258 C226 0.950 . S
H259 C230 0.949 1_556 S
H260 C231 0.950 . S
H261 C235 0.950 . S
H262 C237 0.950 . S
H263 C240 0.950 . S
H264 C242 0.950 . S
C265 C266 1.443 . S
C265 N269 1.376 . S
C265 C303 1.389 . S
C266 C265 1.443 . S
C266 C267 1.340 . S
C266 H306 0.951 . S
C267 C266 1.340 . S
C267 C268 1.439 . S
C267 H307 0.950 . S
C268 C267 1.439 . S
C268 N269 1.374 . S
C268 C302 1.395 . S
N269 C265 1.376 . S
N269 C268 1.374 . S
N269 Co270 2.008 . S
Co270 N269 2.008 . S
Co270 N271 1.995 . S
Co270 N276 2.008 . S
Co270 N281 1.995 . S
Co270 N286 2.282 . S
Co270 N292 2.282 . S
N271 Co270 1.995 . S
N271 C272 1.376 . S
N271 C275 1.383 . S
C272 N271 1.376 . S
C272 C273 1.446 . S
C272 C302 1.391 . S
C273 C272 1.446 . S
C273 C274 1.339 . S
C273 H308 0.949 . S
C274 C273 1.339 . S
C274 C275 1.439 . S
C274 H309 0.950 . S
C275 N271 1.383 . S
C275 C274 1.439 . S
C275 C304 1.392 . S
N276 Co270 2.008 . S
N276 C277 1.376 . S
N276 C280 1.374 . S
C277 N276 1.376 . S
C277 C278 1.443 . S
C277 C304 1.389 . S
C278 C277 1.443 . S
C278 C279 1.340 . S
C278 H310 0.951 . S
C279 C278 1.340 . S
C279 C280 1.439 . S
C279 H311 0.950 . S
C280 N276 1.374 . S
C280 C279 1.439 . S
C280 C305 1.395 . S
N281 Co270 1.995 . S
N281 C282 1.376 . S
N281 C285 1.383 . S
C282 N281 1.376 . S
C282 C283 1.446 . S
C282 C305 1.391 . S
C283 C282 1.446 . S
C283 C284 1.339 . S
C283 H312 0.949 . S
C284 C283 1.339 . S
C284 C285 1.439 . S
C284 H313 0.950 . S
C285 N281 1.383 . S
C285 C284 1.439 . S
C285 C303 1.392 . S
N286 Co270 2.282 . S
N286 C289 1.332 . S
N286 C291 1.332 . S
C287 C288 1.386 . S
C287 C290 1.388 . S
C288 C287 1.386 . S
C288 C289 1.382 . S
C288 H314 0.950 . S
C289 N286 1.332 . S
C289 C288 1.382 . S
C289 H300 0.952 . S
C290 C287 1.388 . S
C290 C291 1.382 . S
C290 H315 0.950 . S
C291 N286 1.332 . S
C291 C290 1.382 . S
C291 H301 0.948 . S
N292 Co270 2.282 . S
N292 C296 1.332 . S
N292 C297 1.332 . S
C293 C294 1.388 . S
C293 C297 1.382 . S
C293 H316 0.950 . S
C294 C293 1.388 . S
C294 C295 1.386 . S
C295 C294 1.386 . S
C295 C296 1.382 . S
C295 H317 0.950 . S
C296 N292 1.332 . S
C296 C295 1.382 . S
C296 H298 0.952 . S
C297 N292 1.332 . S
C297 C293 1.382 . S
C297 H299 0.948 . S
H298 C296 0.952 . S
H299 C297 0.948 . S
H300 C289 0.952 . S
H301 C291 0.948 . S
C302 C268 1.395 . S
C302 C272 1.391 . S
C303 C265 1.389 . S
C303 C285 1.392 . S
C304 C275 1.392 . S
C304 C277 1.389 . S
C305 C280 1.395 . S
C305 C282 1.391 . S
H306 C266 0.951 . S
H307 C267 0.950 . S
H308 C273 0.949 . S
H309 C274 0.950 . S
H310 C278 0.951 . S
H311 C279 0.950 . S
H312 C283 0.949 . S
H313 C284 0.950 . S
H314 C288 0.950 . S
H315 C290 0.950 . S
H316 C293 0.950 . S
H317 C295 0.950 . S
C318 C319 1.560 . S
C318 H379 0.959 . S
C318 H380 0.959 . S
C318 H381 0.960 . S
C319 C318 1.560 . S
C319 O374 1.426 . S
C319 H378 0.980 . S
C320 C321 1.407 . S
C320 C325 1.418 . S
C320 O374 1.334 . S
C321 C320 1.407 . S
C321 C322 1.360 . S
C321 H382 0.929 . S
C322 C321 1.360 . S
C322 C323 1.401 . S
C322 C326 1.527 . S
C323 C322 1.401 . S
C323 C324 1.405 . S
C323 C356 1.587 . S
C324 C323 1.405 . S
C324 C325 1.332 . S
C324 C327 1.496 . S
C325 C320 1.418 . S
C325 C324 1.332 . S
C325 H383 0.929 . S
C326 C322 1.527 . S
C326 H384 0.959 . S
C326 H385 0.961 . S
C326 H386 0.961 . S
C327 C324 1.496 . S
C327 H387 0.960 . S
C327 H388 0.960 . S
C327 H389 0.961 . S
C328 C329 1.517 . S
C328 H391 0.961 . S
C328 H392 0.960 . S
C328 H393 0.959 . S
C329 C328 1.517 . S
C329 O377 1.468 . S
C329 H390 0.980 . S
C330 C331 1.349 . S
C330 C335 1.367 . S
C330 O377 1.408 . S
C331 C330 1.349 . S
C331 C332 1.407 . S
C331 H394 0.930 . S
C332 C331 1.407 . S
C332 C333 1.449 . S
C332 C336 1.535 . S
C333 C332 1.449 . S
C333 C334 1.384 . S
C333 C358 1.553 . S
C334 C333 1.384 . S
C334 C335 1.364 . S
C334 C337 1.450 . S
C335 C330 1.367 . S
C335 C334 1.364 . S
C335 H395 0.931 . S
C336 C332 1.535 . S
C336 H396 0.959 . S
C336 H397 0.961 . S
C336 H398 0.959 . S
C337 C334 1.450 . S
C337 H399 0.960 . S
C337 H400 0.960 . S
C337 H401 0.960 . S
C338 C339 1.309 . S
C338 C343 1.304 . S
C338 O376 1.435 . S
C339 C338 1.309 . S
C339 C340 1.476 . S
C339 H403 0.930 . S
C340 C339 1.476 . S
C340 C341 1.400 . S
C340 C344 1.567 . S
C341 C340 1.400 . S
C341 C342 1.373 . S
C341 C363 1.432 . S
C342 C341 1.373 . S
C342 C343 1.339 . S
C342 C345 1.530 . S
C343 C338 1.304 . S
C343 C342 1.339 . S
C343 H404 0.930 . S
C344 C340 1.567 . S
C344 H405 0.961 . S
C344 H406 0.960 . S
C344 H407 0.958 . S
C345 C342 1.530 . S
C345 H408 0.961 . S
C345 H409 0.960 . S
C345 H410 0.960 . S
C346 C347 1.530 . S
C346 H412 0.961 . S
C346 H413 0.961 . S
C346 H414 0.959 . S
C347 C346 1.530 . S
C347 O375 1.412 . S
C347 H411 0.980 . S
C348 C349 1.288 . S
C348 C353 1.377 . S
C348 O375 1.393 . S
C349 C348 1.288 . S
C349 C350 1.369 . S
C349 H415 0.932 . S
C350 C349 1.369 . S
C350 C351 1.398 . S
C350 C354 1.527 . S
C351 C350 1.398 . S
C351 C352 1.380 . S
C351 C365 1.497 . S
C352 C351 1.380 . S
C352 C353 1.383 . S
C352 C355 1.603 . S
C353 C348 1.377 . S
C353 C352 1.383 . S
C353 H416 0.929 . S
C354 C350 1.527 . S
C354 H417 0.961 . S
C354 H418 0.959 . S
C354 H419 0.959 . S
C355 C352 1.603 . S
C355 H420 0.960 . S
C355 H421 0.962 . S
C355 H422 0.961 . S
C356 C323 1.587 . S
C356 C357 1.360 . S
C356 C369 1.412 . S
C357 C356 1.360 . S
C357 C358 1.365 . S
C357 H423 0.929 . S
C358 C333 1.553 . S
C358 C357 1.365 . S
C358 C359 1.404 . S
C359 C358 1.404 . S
C359 C360 1.395 . S
C359 C370 1.451 . S
C360 C359 1.395 . S
C360 C361 1.322 . S
C360 H424 0.930 . S
C361 C360 1.322 . S
C361 C362 1.459 . S
C361 H425 0.929 . S
C362 C361 1.459 . S
C362 C363 1.445 . S
C362 C371 1.395 . S
C363 C341 1.432 . S
C363 C362 1.445 . S
C363 C364 1.370 . S
C364 C363 1.370 . S
C364 C365 1.438 . S
C364 H426 0.930 . S
C365 C351 1.497 . S
C365 C364 1.438 . S
C365 C366 1.360 . S
C366 C365 1.360 . S
C366 C367 1.401 . S
C366 C371 1.446 . S
C367 C366 1.401 . S
C367 C368 1.347 . S
C367 H427 0.929 . S
C368 C367 1.347 . S
C368 C369 1.455 . S
C368 H428 0.930 . S
C369 C356 1.412 . S
C369 C368 1.455 . S
C369 C370 1.331 . S
C370 C359 1.451 . S
C370 C369 1.331 . S
C370 C371 1.497 . S
C371 C362 1.395 . S
C371 C366 1.446 . S
C371 C370 1.497 . S
C372 C373 1.582 . S
C372 H429 0.962 . S
C372 H430 0.959 . S
C372 H431 0.958 . S
C373 C372 1.582 . S
C373 O376 1.458 . S
C373 H402 0.980 . S
O374 C319 1.426 . S
O374 C320 1.334 . S
O375 C347 1.412 . S
O375 C348 1.393 . S
O376 C338 1.435 . S
O376 C373 1.458 . S
O377 C329 1.468 . S
O377 C330 1.408 . S
H378 C319 0.980 . S
H379 C318 0.959 . S
H380 C318 0.959 . S
H381 C318 0.960 . S
H382 C321 0.929 . S
H383 C325 0.929 . S
H384 C326 0.959 . S
H385 C326 0.961 . S
H386 C326 0.961 . S
H387 C327 0.960 . S
H388 C327 0.960 . S
H389 C327 0.961 . S
H390 C329 0.980 . S
H391 C328 0.961 . S
H392 C328 0.960 . S
H393 C328 0.959 . S
H394 C331 0.930 . S
H395 C335 0.931 . S
H396 C336 0.959 . S
H397 C336 0.961 . S
H398 C336 0.959 . S
H399 C337 0.960 . S
H400 C337 0.960 . S
H401 C337 0.960 . S
H402 C373 0.980 . S
H403 C339 0.930 . S
H404 C343 0.930 . S
H405 C344 0.961 . S
H406 C344 0.960 . S
H407 C344 0.958 . S
H408 C345 0.961 . S
H409 C345 0.960 . S
H410 C345 0.960 . S
H411 C347 0.980 . S
H412 C346 0.961 . S
H413 C346 0.961 . S
H414 C346 0.959 . S
H415 C349 0.932 . S
H416 C353 0.929 . S
H417 C354 0.961 . S
H418 C354 0.959 . S
H419 C354 0.959 . S
H420 C355 0.960 . S
H421 C355 0.962 . S
H422 C355 0.961 . S
H423 C357 0.929 . S
H424 C360 0.930 . S
H425 C361 0.929 . S
H426 C364 0.930 . S
H427 C367 0.929 . S
H428 C368 0.930 . S
H429 C372 0.962 . S
H430 C372 0.959 . S
H431 C372 0.958 . S
C432 C433 1.560 . S
C432 H493 0.959 . S
C432 H494 0.959 . S
C432 H495 0.960 . S
C433 C432 1.560 . S
C433 O488 1.426 . S
C433 H492 0.980 . S
C434 C435 1.407 . S
C434 C439 1.418 . S
C434 O488 1.334 . S
C435 C434 1.407 . S
C435 C436 1.360 . S
C435 H496 0.929 . S
C436 C435 1.360 . S
C436 C437 1.401 . S
C436 C440 1.527 . S
C437 C436 1.401 . S
C437 C438 1.405 . S
C437 C470 1.587 . S
C438 C437 1.405 . S
C438 C439 1.332 . S
C438 C441 1.496 . S
C439 C434 1.418 . S
C439 C438 1.332 . S
C439 H497 0.929 . S
C440 C436 1.527 . S
C440 H498 0.959 . S
C440 H499 0.961 . S
C440 H500 0.961 . S
C441 C438 1.496 . S
C441 H501 0.960 . S
C441 H502 0.960 . S
C441 H503 0.961 . S
C442 C443 1.517 . S
C442 H505 0.961 . S
C442 H506 0.960 . S
C442 H507 0.959 . S
C443 C442 1.517 . S
C443 O491 1.468 . S
C443 H504 0.980 . S
C444 C445 1.349 . S
C444 C449 1.367 . S
C444 O491 1.408 . S
C445 C444 1.349 . S
C445 C446 1.407 . S
C445 H508 0.930 . S
C446 C445 1.407 . S
C446 C447 1.449 . S
C446 C450 1.535 . S
C447 C446 1.449 . S
C447 C448 1.384 . S
C447 C472 1.553 . S
C448 C447 1.384 . S
C448 C449 1.364 . S
C448 C451 1.450 . S
C449 C444 1.367 . S
C449 C448 1.364 . S
C449 H509 0.931 . S
C450 C446 1.535 . S
C450 H510 0.959 . S
C450 H511 0.961 . S
C450 H512 0.959 . S
C451 C448 1.450 . S
C451 H513 0.960 . S
C451 H514 0.960 . S
C451 H515 0.960 . S
C452 C453 1.309 . S
C452 C457 1.304 . S
C452 O490 1.435 . S
C453 C452 1.309 . S
C453 C454 1.476 . S
C453 H517 0.930 . S
C454 C453 1.476 . S
C454 C455 1.400 . S
C454 C458 1.567 . S
C455 C454 1.400 . S
C455 C456 1.373 . S
C455 C477 1.432 . S
C456 C455 1.373 . S
C456 C457 1.339 . S
C456 C459 1.530 . S
C457 C452 1.304 . S
C457 C456 1.339 . S
C457 H518 0.930 . S
C458 C454 1.567 . S
C458 H519 0.961 . S
C458 H520 0.960 . S
C458 H521 0.958 . S
C459 C456 1.530 . S
C459 H522 0.961 . S
C459 H523 0.960 . S
C459 H524 0.960 . S
C460 C461 1.530 . S
C460 H526 0.961 . S
C460 H527 0.961 . S
C460 H528 0.959 . S
C461 C460 1.530 . S
C461 O489 1.412 . S
C461 H525 0.980 . S
C462 C463 1.288 . S
C462 C467 1.377 . S
C462 O489 1.393 . S
C463 C462 1.288 . S
C463 C464 1.369 . S
C463 H529 0.932 . S
C464 C463 1.369 . S
C464 C465 1.398 . S
C464 C468 1.527 . S
C465 C464 1.398 . S
C465 C466 1.380 . S
C465 C479 1.497 . S
C466 C465 1.380 . S
C466 C467 1.383 . S
C466 C469 1.603 . S
C467 C462 1.377 . S
C467 C466 1.383 . S
C467 H530 0.929 . S
C468 C464 1.527 . S
C468 H531 0.961 . S
C468 H532 0.959 . S
C468 H533 0.959 . S
C469 C466 1.603 . S
C469 H534 0.960 . S
C469 H535 0.962 . S
C469 H536 0.961 . S
C470 C437 1.587 . S
C470 C471 1.360 . S
C470 C483 1.412 . S
C471 C470 1.360 . S
C471 C472 1.365 . S
C471 H537 0.929 . S
C472 C447 1.553 . S
C472 C471 1.365 . S
C472 C473 1.404 . S
C473 C472 1.404 . S
C473 C474 1.395 . S
C473 C484 1.451 . S
C474 C473 1.395 . S
C474 C475 1.322 . S
C474 H538 0.930 . S
C475 C474 1.322 . S
C475 C476 1.459 . S
C475 H539 0.929 . S
C476 C475 1.459 . S
C476 C477 1.445 . S
C476 C485 1.395 . S
C477 C455 1.432 . S
C477 C476 1.445 . S
C477 C478 1.370 . S
C478 C477 1.370 . S
C478 C479 1.438 . S
C478 H540 0.930 . S
C479 C465 1.497 . S
C479 C478 1.438 . S
C479 C480 1.360 . S
C480 C479 1.360 . S
C480 C481 1.401 . S
C480 C485 1.446 . S
C481 C480 1.401 . S
C481 C482 1.347 . S
C481 H541 0.929 . S
C482 C481 1.347 . S
C482 C483 1.455 . S
C482 H542 0.930 . S
C483 C470 1.412 . S
C483 C482 1.455 . S
C483 C484 1.331 . S
C484 C473 1.451 . S
C484 C483 1.331 . S
C484 C485 1.497 . S
C485 C476 1.395 . S
C485 C480 1.446 . S
C485 C484 1.497 . S
C486 C487 1.582 . S
C486 H543 0.962 . S
C486 H544 0.959 . S
C486 H545 0.958 . S
C487 C486 1.582 . S
C487 O490 1.458 . S
C487 H516 0.980 . S
O488 C433 1.426 . S
O488 C434 1.334 . S
O489 C461 1.412 . S
O489 C462 1.393 . S
O490 C452 1.435 . S
O490 C487 1.458 . S
O491 C443 1.468 . S
O491 C444 1.408 . S
H492 C433 0.980 . S
H493 C432 0.959 . S
H494 C432 0.959 . S
H495 C432 0.960 . S
H496 C435 0.929 . S
H497 C439 0.929 . S
H498 C440 0.959 . S
H499 C440 0.961 . S
H500 C440 0.961 . S
H501 C441 0.960 . S
H502 C441 0.960 . S
H503 C441 0.961 . S
H504 C443 0.980 . S
H505 C442 0.961 . S
H506 C442 0.960 . S
H507 C442 0.959 . S
H508 C445 0.930 . S
H509 C449 0.931 . S
H510 C450 0.959 . S
H511 C450 0.961 . S
H512 C450 0.959 . S
H513 C451 0.960 . S
H514 C451 0.960 . S
H515 C451 0.960 . S
H516 C487 0.980 . S
H517 C453 0.930 . S
H518 C457 0.930 . S
H519 C458 0.961 . S
H520 C458 0.960 . S
H521 C458 0.958 . S
H522 C459 0.961 . S
H523 C459 0.960 . S
H524 C459 0.960 . S
H525 C461 0.980 . S
H526 C460 0.961 . S
H527 C460 0.961 . S
H528 C460 0.959 . S
H529 C463 0.932 . S
H530 C467 0.929 . S
H531 C468 0.961 . S
H532 C468 0.959 . S
H533 C468 0.959 . S
H534 C469 0.960 . S
H535 C469 0.962 . S
H536 C469 0.961 . S
H537 C471 0.929 . S
H538 C474 0.930 . S
H539 C475 0.929 . S
H540 C478 0.930 . S
H541 C481 0.929 . S
H542 C482 0.930 . S
H543 C486 0.962 . S
H544 C486 0.959 . S
H545 C486 0.958 . S
C546 C547 1.560 . S
C546 H607 0.959 . S
C546 H608 0.959 . S
C546 H609 0.960 . S
C547 C546 1.560 . S
C547 O602 1.426 . S
C547 H606 0.980 . S
C548 C549 1.407 . S
C548 C553 1.418 . S
C548 O602 1.334 . S
C549 C548 1.407 . S
C549 C550 1.360 . S
C549 H610 0.929 . S
C550 C549 1.360 . S
C550 C551 1.401 . S
C550 C554 1.527 . S
C551 C550 1.401 . S
C551 C552 1.405 . S
C551 C584 1.587 . S
C552 C551 1.405 . S
C552 C553 1.332 . S
C552 C555 1.496 . S
C553 C548 1.418 . S
C553 C552 1.332 . S
C553 H611 0.929 . S
C554 C550 1.527 . S
C554 H612 0.959 . S
C554 H613 0.961 . S
C554 H614 0.961 . S
C555 C552 1.496 . S
C555 H615 0.960 . S
C555 H616 0.960 . S
C555 H617 0.961 . S
C556 C557 1.517 . S
C556 H619 0.961 . S
C556 H620 0.960 . S
C556 H621 0.959 . S
C557 C556 1.517 . S
C557 O605 1.468 . S
C557 H618 0.980 . S
C558 C559 1.349 . S
C558 C563 1.367 . S
C558 O605 1.408 . S
C559 C558 1.349 . S
C559 C560 1.407 . S
C559 H622 0.930 . S
C560 C559 1.407 . S
C560 C561 1.449 . S
C560 C564 1.535 . S
C561 C560 1.449 . S
C561 C562 1.384 . S
C561 C586 1.553 . S
C562 C561 1.384 . S
C562 C563 1.364 . S
C562 C565 1.450 . S
C563 C558 1.367 . S
C563 C562 1.364 . S
C563 H623 0.931 . S
C564 C560 1.535 . S
C564 H624 0.959 . S
C564 H625 0.961 . S
C564 H626 0.959 . S
C565 C562 1.450 . S
C565 H627 0.960 . S
C565 H628 0.960 . S
C565 H629 0.960 . S
C566 C567 1.309 . S
C566 C571 1.304 . S
C566 O604 1.435 . S
C567 C566 1.309 . S
C567 C568 1.476 . S
C567 H631 0.930 . S
C568 C567 1.476 . S
C568 C569 1.400 . S
C568 C572 1.567 . S
C569 C568 1.400 . S
C569 C570 1.373 . S
C569 C591 1.432 . S
C570 C569 1.373 . S
C570 C571 1.339 . S
C570 C573 1.530 . S
C571 C566 1.304 . S
C571 C570 1.339 . S
C571 H632 0.930 . S
C572 C568 1.567 . S
C572 H633 0.961 . S
C572 H634 0.960 . S
C572 H635 0.958 . S
C573 C570 1.530 . S
C573 H636 0.961 . S
C573 H637 0.960 . S
C573 H638 0.960 . S
C574 C575 1.530 . S
C574 H640 0.961 . S
C574 H641 0.961 . S
C574 H642 0.959 . S
C575 C574 1.530 . S
C575 O603 1.412 . S
C575 H639 0.980 . S
C576 C577 1.288 . S
C576 C581 1.377 . S
C576 O603 1.393 . S
C577 C576 1.288 . S
C577 C578 1.369 . S
C577 H643 0.932 . S
C578 C577 1.369 . S
C578 C579 1.398 . S
C578 C582 1.527 . S
C579 C578 1.398 . S
C579 C580 1.380 . S
C579 C593 1.497 . S
C580 C579 1.380 . S
C580 C581 1.383 . S
C580 C583 1.603 . S
C581 C576 1.377 . S
C581 C580 1.383 . S
C581 H644 0.929 . S
C582 C578 1.527 . S
C582 H645 0.961 . S
C582 H646 0.959 . S
C582 H647 0.959 . S
C583 C580 1.603 . S
C583 H648 0.960 . S
C583 H649 0.962 . S
C583 H650 0.961 . S
C584 C551 1.587 . S
C584 C585 1.360 . S
C584 C597 1.412 . S
C585 C584 1.360 . S
C585 C586 1.365 . S
C585 H651 0.929 . S
C586 C561 1.553 . S
C586 C585 1.365 . S
C586 C587 1.404 . S
C587 C586 1.404 . S
C587 C588 1.395 . S
C587 C598 1.451 . S
C588 C587 1.395 . S
C588 C589 1.322 . S
C588 H652 0.930 . S
C589 C588 1.322 . S
C589 C590 1.459 . S
C589 H653 0.929 . S
C590 C589 1.459 . S
C590 C591 1.445 . S
C590 C599 1.395 . S
C591 C569 1.432 . S
C591 C590 1.445 . S
C591 C592 1.370 . S
C592 C591 1.370 . S
C592 C593 1.438 . S
C592 H654 0.930 . S
C593 C579 1.497 . S
C593 C592 1.438 . S
C593 C594 1.360 . S
C594 C593 1.360 . S
C594 C595 1.401 . S
C594 C599 1.446 . S
C595 C594 1.401 . S
C595 C596 1.347 . S
C595 H655 0.929 . S
C596 C595 1.347 . S
C596 C597 1.455 . S
C596 H656 0.930 . S
C597 C584 1.412 . S
C597 C596 1.455 . S
C597 C598 1.331 . S
C598 C587 1.451 . S
C598 C597 1.331 . S
C598 C599 1.497 . S
C599 C590 1.395 . S
C599 C594 1.446 . S
C599 C598 1.497 . S
C600 C601 1.582 . S
C600 H657 0.962 . S
C600 H658 0.959 . S
C600 H659 0.958 . S
C601 C600 1.582 . S
C601 O604 1.458 . S
C601 H630 0.980 . S
O602 C547 1.426 . S
O602 C548 1.334 . S
O603 C575 1.412 . S
O603 C576 1.393 . S
O604 C566 1.435 . S
O604 C601 1.458 . S
O605 C557 1.468 . S
O605 C558 1.408 . S
H606 C547 0.980 . S
H607 C546 0.959 . S
H608 C546 0.959 . S
H609 C546 0.960 . S
H610 C549 0.929 . S
H611 C553 0.929 . S
H612 C554 0.959 . S
H613 C554 0.961 . S
H614 C554 0.961 . S
H615 C555 0.960 . S
H616 C555 0.960 . S
H617 C555 0.961 . S
H618 C557 0.980 . S
H619 C556 0.961 . S
H620 C556 0.960 . S
H621 C556 0.959 . S
H622 C559 0.930 . S
H623 C563 0.931 . S
H624 C564 0.959 . S
H625 C564 0.961 . S
H626 C564 0.959 . S
H627 C565 0.960 . S
H628 C565 0.960 . S
H629 C565 0.960 . S
H630 C601 0.980 . S
H631 C567 0.930 . S
H632 C571 0.930 . S
H633 C572 0.961 . S
H634 C572 0.960 . S
H635 C572 0.958 . S
H636 C573 0.961 . S
H637 C573 0.960 . S
H638 C573 0.960 . S
H639 C575 0.980 . S
H640 C574 0.961 . S
H641 C574 0.961 . S
H642 C574 0.959 . S
H643 C577 0.932 . S
H644 C581 0.929 . S
H645 C582 0.961 . S
H646 C582 0.959 . S
H647 C582 0.959 . S
H648 C583 0.960 . S
H649 C583 0.962 . S
H650 C583 0.961 . S
H651 C585 0.929 . S
H652 C588 0.930 . S
H653 C589 0.929 . S
H654 C592 0.930 . S
H655 C595 0.929 . S
H656 C596 0.930 . S
H657 C600 0.962 . S
H658 C600 0.959 . S
H659 C600 0.958 . S
C660 C661 1.560 . S
C660 H721 0.959 . S
C660 H722 0.959 . S
C660 H723 0.960 . S
C661 C660 1.560 . S
C661 O716 1.426 . S
C661 H720 0.980 . S
C662 C663 1.407 . S
C662 C667 1.418 . S
C662 O716 1.334 . S
C663 C662 1.407 . S
C663 C664 1.360 . S
C663 H724 0.929 . S
C664 C663 1.360 . S
C664 C665 1.401 . S
C664 C668 1.527 . S
C665 C664 1.401 . S
C665 C666 1.405 . S
C665 C698 1.587 . S
C666 C665 1.405 . S
C666 C667 1.332 . S
C666 C669 1.496 . S
C667 C662 1.418 . S
C667 C666 1.332 . S
C667 H725 0.929 . S
C668 C664 1.527 . S
C668 H726 0.959 . S
C668 H727 0.961 . S
C668 H728 0.961 . S
C669 C666 1.496 . S
C669 H729 0.960 . S
C669 H730 0.960 . S
C669 H731 0.961 . S
C670 C671 1.517 . S
C670 H733 0.961 . S
C670 H734 0.960 . S
C670 H735 0.959 . S
C671 C670 1.517 . S
C671 O719 1.468 . S
C671 H732 0.980 . S
C672 C673 1.349 . S
C672 C677 1.367 . S
C672 O719 1.408 . S
C673 C672 1.349 . S
C673 C674 1.407 . S
C673 H736 0.930 . S
C674 C673 1.407 . S
C674 C675 1.449 . S
C674 C678 1.535 . S
C675 C674 1.449 . S
C675 C676 1.384 . S
C675 C700 1.553 . S
C676 C675 1.384 . S
C676 C677 1.364 . S
C676 C679 1.450 . S
C677 C672 1.367 . S
C677 C676 1.364 . S
C677 H737 0.931 . S
C678 C674 1.535 . S
C678 H738 0.959 . S
C678 H739 0.961 . S
C678 H740 0.959 . S
C679 C676 1.450 . S
C679 H741 0.960 . S
C679 H742 0.960 . S
C679 H743 0.960 . S
C680 C681 1.309 . S
C680 C685 1.304 . S
C680 O718 1.435 . S
C681 C680 1.309 . S
C681 C682 1.476 . S
C681 H745 0.930 . S
C682 C681 1.476 . S
C682 C683 1.400 . S
C682 C686 1.567 . S
C683 C682 1.400 . S
C683 C684 1.373 . S
C683 C705 1.432 . S
C684 C683 1.373 . S
C684 C685 1.339 . S
C684 C687 1.530 . S
C685 C680 1.304 . S
C685 C684 1.339 . S
C685 H746 0.930 . S
C686 C682 1.567 . S
C686 H747 0.961 . S
C686 H748 0.960 . S
C686 H749 0.958 . S
C687 C684 1.530 . S
C687 H750 0.961 . S
C687 H751 0.960 . S
C687 H752 0.960 . S
C688 C689 1.530 . S
C688 H754 0.961 . S
C688 H755 0.961 . S
C688 H756 0.959 . S
C689 C688 1.530 . S
C689 O717 1.412 . S
C689 H753 0.980 . S
C690 C691 1.288 . S
C690 C695 1.377 . S
C690 O717 1.393 . S
C691 C690 1.288 . S
C691 C692 1.369 . S
C691 H757 0.932 . S
C692 C691 1.369 . S
C692 C693 1.398 . S
C692 C696 1.527 . S
C693 C692 1.398 . S
C693 C694 1.380 . S
C693 C707 1.497 . S
C694 C693 1.380 . S
C694 C695 1.383 . S
C694 C697 1.603 . S
C695 C690 1.377 . S
C695 C694 1.383 . S
C695 H758 0.929 . S
C696 C692 1.527 . S
C696 H759 0.961 . S
C696 H760 0.959 . S
C696 H761 0.959 . S
C697 C694 1.603 . S
C697 H762 0.960 . S
C697 H763 0.962 . S
C697 H764 0.961 . S
C698 C665 1.587 . S
C698 C699 1.360 . S
C698 C711 1.412 . S
C699 C698 1.360 . S
C699 C700 1.365 . S
C699 H765 0.929 . S
C700 C675 1.553 . S
C700 C699 1.365 . S
C700 C701 1.404 . S
C701 C700 1.404 . S
C701 C702 1.395 . S
C701 C712 1.451 . S
C702 C701 1.395 . S
C702 C703 1.322 . S
C702 H766 0.930 . S
C703 C702 1.322 . S
C703 C704 1.459 . S
C703 H767 0.929 . S
C704 C703 1.459 . S
C704 C705 1.445 . S
C704 C713 1.395 . S
C705 C683 1.432 . S
C705 C704 1.445 . S
C705 C706 1.370 . S
C706 C705 1.370 . S
C706 C707 1.438 . S
C706 H768 0.930 . S
C707 C693 1.497 . S
C707 C706 1.438 . S
C707 C708 1.360 . S
C708 C707 1.360 . S
C708 C709 1.401 . S
C708 C713 1.446 . S
C709 C708 1.401 . S
C709 C710 1.347 . S
C709 H769 0.929 . S
C710 C709 1.347 . S
C710 C711 1.455 . S
C710 H770 0.930 . S
C711 C698 1.412 . S
C711 C710 1.455 . S
C711 C712 1.331 . S
C712 C701 1.451 . S
C712 C711 1.331 . S
C712 C713 1.497 . S
C713 C704 1.395 . S
C713 C708 1.446 . S
C713 C712 1.497 . S
C714 C715 1.582 . S
C714 H771 0.962 . S
C714 H772 0.959 . S
C714 H773 0.958 . S
C715 C714 1.582 . S
C715 O718 1.458 . S
C715 H744 0.980 . S
O716 C661 1.426 . S
O716 C662 1.334 . S
O717 C689 1.412 . S
O717 C690 1.393 . S
O718 C680 1.435 . S
O718 C715 1.458 . S
O719 C671 1.468 . S
O719 C672 1.408 . S
H720 C661 0.980 . S
H721 C660 0.959 . S
H722 C660 0.959 . S
H723 C660 0.960 . S
H724 C663 0.929 . S
H725 C667 0.929 . S
H726 C668 0.959 . S
H727 C668 0.961 . S
H728 C668 0.961 . S
H729 C669 0.960 . S
H730 C669 0.960 . S
H731 C669 0.961 . S
H732 C671 0.980 . S
H733 C670 0.961 . S
H734 C670 0.960 . S
H735 C670 0.959 . S
H736 C673 0.930 . S
H737 C677 0.931 . S
H738 C678 0.959 . S
H739 C678 0.961 . S
H740 C678 0.959 . S
H741 C679 0.960 . S
H742 C679 0.960 . S
H743 C679 0.960 . S
H744 C715 0.980 . S
H745 C681 0.930 . S
H746 C685 0.930 . S
H747 C686 0.961 . S
H748 C686 0.960 . S
H749 C686 0.958 . S
H750 C687 0.961 . S
H751 C687 0.960 . S
H752 C687 0.960 . S
H753 C689 0.980 . S
H754 C688 0.961 . S
H755 C688 0.961 . S
H756 C688 0.959 . S
H757 C691 0.932 . S
H758 C695 0.929 . S
H759 C696 0.961 . S
H760 C696 0.959 . S
H761 C696 0.959 . S
H762 C697 0.960 . S
H763 C697 0.962 . S
H764 C697 0.961 . S
H765 C699 0.929 . S
H766 C702 0.930 . S
H767 C703 0.929 . S
H768 C706 0.930 . S
H769 C709 0.929 . S
H770 C710 0.930 . S
H771 C714 0.962 . S
H772 C714 0.959 . S
H773 C714 0.958 . S
C774 C775 1.560 . S
C774 H835 0.959 . S
C774 H836 0.959 . S
C774 H837 0.960 . S
C775 C774 1.560 . S
C775 O830 1.426 . S
C775 H834 0.980 . S
C776 C777 1.407 . S
C776 C781 1.418 . S
C776 O830 1.334 . S
C777 C776 1.407 . S
C777 C778 1.360 . S
C777 H838 0.929 . S
C778 C777 1.360 . S
C778 C779 1.401 . S
C778 C782 1.527 . S
C779 C778 1.401 . S
C779 C780 1.405 . S
C779 C812 1.587 . S
C780 C779 1.405 . S
C780 C781 1.332 . S
C780 C783 1.496 . S
C781 C776 1.418 . S
C781 C780 1.332 . S
C781 H839 0.929 . S
C782 C778 1.527 . S
C782 H840 0.959 . S
C782 H841 0.961 . S
C782 H842 0.961 . S
C783 C780 1.496 . S
C783 H843 0.960 . S
C783 H844 0.960 . S
C783 H845 0.961 . S
C784 C785 1.517 . S
C784 H847 0.961 . S
C784 H848 0.960 . S
C784 H849 0.959 . S
C785 C784 1.517 . S
C785 O833 1.468 . S
C785 H846 0.980 . S
C786 C787 1.349 . S
C786 C791 1.367 . S
C786 O833 1.408 . S
C787 C786 1.349 . S
C787 C788 1.407 . S
C787 H850 0.930 . S
C788 C787 1.407 . S
C788 C789 1.449 . S
C788 C792 1.535 . S
C789 C788 1.449 . S
C789 C790 1.384 . S
C789 C814 1.553 . S
C790 C789 1.384 . S
C790 C791 1.364 . S
C790 C793 1.450 . S
C791 C786 1.367 . S
C791 C790 1.364 . S
C791 H851 0.931 . S
C792 C788 1.535 . S
C792 H852 0.959 . S
C792 H853 0.961 . S
C792 H854 0.959 . S
C793 C790 1.450 . S
C793 H855 0.960 . S
C793 H856 0.960 . S
C793 H857 0.960 . S
C794 C795 1.309 . S
C794 C799 1.304 . S
C794 O832 1.435 . S
C795 C794 1.309 . S
C795 C796 1.476 . S
C795 H859 0.930 . S
C796 C795 1.476 . S
C796 C797 1.400 . S
C796 C800 1.567 . S
C797 C796 1.400 . S
C797 C798 1.373 . S
C797 C819 1.432 . S
C798 C797 1.373 . S
C798 C799 1.339 . S
C798 C801 1.530 . S
C799 C794 1.304 . S
C799 C798 1.339 . S
C799 H860 0.930 . S
C800 C796 1.567 . S
C800 H861 0.961 . S
C800 H862 0.960 . S
C800 H863 0.958 . S
C801 C798 1.530 . S
C801 H864 0.961 . S
C801 H865 0.960 . S
C801 H866 0.960 . S
C802 C803 1.530 . S
C802 H868 0.961 . S
C802 H869 0.961 . S
C802 H870 0.959 . S
C803 C802 1.530 . S
C803 O831 1.412 . S
C803 H867 0.980 . S
C804 C805 1.288 . S
C804 C809 1.377 . S
C804 O831 1.393 . S
C805 C804 1.288 . S
C805 C806 1.369 . S
C805 H871 0.932 . S
C806 C805 1.369 . S
C806 C807 1.398 . S
C806 C810 1.527 . S
C807 C806 1.398 . S
C807 C808 1.380 . S
C807 C821 1.497 . S
C808 C807 1.380 . S
C808 C809 1.383 . S
C808 C811 1.603 . S
C809 C804 1.377 . S
C809 C808 1.383 . S
C809 H872 0.929 . S
C810 C806 1.527 . S
C810 H873 0.961 . S
C810 H874 0.959 . S
C810 H875 0.959 . S
C811 C808 1.603 . S
C811 H876 0.960 . S
C811 H877 0.962 . S
C811 H878 0.961 . S
C812 C779 1.587 . S
C812 C813 1.360 . S
C812 C825 1.412 . S
C813 C812 1.360 . S
C813 C814 1.365 . S
C813 H879 0.929 . S
C814 C789 1.553 . S
C814 C813 1.365 . S
C814 C815 1.404 . S
C815 C814 1.404 . S
C815 C816 1.395 . S
C815 C826 1.451 . S
C816 C815 1.395 . S
C816 C817 1.322 . S
C816 H880 0.930 . S
C817 C816 1.322 . S
C817 C818 1.459 . S
C817 H881 0.929 . S
C818 C817 1.459 . S
C818 C819 1.445 . S
C818 C827 1.395 . S
C819 C797 1.432 . S
C819 C818 1.445 . S
C819 C820 1.370 . S
C820 C819 1.370 . S
C820 C821 1.438 . S
C820 H882 0.930 . S
C821 C807 1.497 . S
C821 C820 1.438 . S
C821 C822 1.360 . S
C822 C821 1.360 . S
C822 C823 1.401 . S
C822 C827 1.446 . S
C823 C822 1.401 . S
C823 C824 1.347 . S
C823 H883 0.929 . S
C824 C823 1.347 . S
C824 C825 1.455 . S
C824 H884 0.930 . S
C825 C812 1.412 . S
C825 C824 1.455 . S
C825 C826 1.331 . S
C826 C815 1.451 . S
C826 C825 1.331 . S
C826 C827 1.497 . S
C827 C818 1.395 . S
C827 C822 1.446 . S
C827 C826 1.497 . S
C828 C829 1.582 . S
C828 H885 0.962 . S
C828 H886 0.959 . S
C828 H887 0.958 . S
C829 C828 1.582 . S
C829 O832 1.458 . S
C829 H858 0.980 . S
O830 C775 1.426 . S
O830 C776 1.334 . S
O831 C803 1.412 . S
O831 C804 1.393 . S
O832 C794 1.435 . S
O832 C829 1.458 . S
O833 C785 1.468 . S
O833 C786 1.408 . S
H834 C775 0.980 . S
H835 C774 0.959 . S
H836 C774 0.959 . S
H837 C774 0.960 . S
H838 C777 0.929 . S
H839 C781 0.929 . S
H840 C782 0.959 . S
H841 C782 0.961 . S
H842 C782 0.961 . S
H843 C783 0.960 . S
H844 C783 0.960 . S
H845 C783 0.961 . S
H846 C785 0.980 . S
H847 C784 0.961 . S
H848 C784 0.960 . S
H849 C784 0.959 . S
H850 C787 0.930 . S
H851 C791 0.931 . S
H852 C792 0.959 . S
H853 C792 0.961 . S
H854 C792 0.959 . S
H855 C793 0.960 . S
H856 C793 0.960 . S
H857 C793 0.960 . S
H858 C829 0.980 . S
H859 C795 0.930 . S
H860 C799 0.930 . S
H861 C800 0.961 . S
H862 C800 0.960 . S
H863 C800 0.958 . S
H864 C801 0.961 . S
H865 C801 0.960 . S
H866 C801 0.960 . S
H867 C803 0.980 . S
H868 C802 0.961 . S
H869 C802 0.961 . S
H870 C802 0.959 . S
H871 C805 0.932 . S
H872 C809 0.929 . S
H873 C810 0.961 . S
H874 C810 0.959 . S
H875 C810 0.959 . S
H876 C811 0.960 . S
H877 C811 0.962 . S
H878 C811 0.961 . S
H879 C813 0.929 . S
H880 C816 0.930 . S
H881 C817 0.929 . S
H882 C820 0.930 . S
H883 C823 0.929 . S
H884 C824 0.930 . S
H885 C828 0.962 . S
H886 C828 0.959 . S
H887 C828 0.958 . S
C888 C889 1.560 . S
C888 H949 0.959 . S
C888 H950 0.959 . S
C888 H951 0.960 . S
C889 C888 1.560 . S
C889 O944 1.426 . S
C889 H948 0.980 . S
C890 C891 1.407 . S
C890 C895 1.418 . S
C890 O944 1.334 . S
C891 C890 1.407 . S
C891 C892 1.360 . S
C891 H952 0.929 . S
C892 C891 1.360 . S
C892 C893 1.401 . S
C892 C896 1.527 . S
C893 C892 1.401 . S
C893 C894 1.405 . S
C893 C926 1.587 . S
C894 C893 1.405 . S
C894 C895 1.332 . S
C894 C897 1.496 . S
C895 C890 1.418 . S
C895 C894 1.332 . S
C895 H953 0.929 . S
C896 C892 1.527 . S
C896 H954 0.959 . S
C896 H955 0.961 . S
C896 H956 0.961 . S
C897 C894 1.496 . S
C897 H957 0.960 . S
C897 H958 0.960 . S
C897 H959 0.961 . S
C898 C899 1.517 . S
C898 H961 0.961 . S
C898 H962 0.960 . S
C898 H963 0.959 . S
C899 C898 1.517 . S
C899 O947 1.468 . S
C899 H960 0.980 . S
C900 C901 1.349 . S
C900 C905 1.367 . S
C900 O947 1.408 . S
C901 C900 1.349 . S
C901 C902 1.407 . S
C901 H964 0.930 . S
C902 C901 1.407 . S
C902 C903 1.449 . S
C902 C906 1.535 . S
C903 C902 1.449 . S
C903 C904 1.384 . S
C903 C928 1.553 . S
C904 C903 1.384 . S
C904 C905 1.364 . S
C904 C907 1.450 . S
C905 C900 1.367 . S
C905 C904 1.364 . S
C905 H965 0.931 . S
C906 C902 1.535 . S
C906 H966 0.959 . S
C906 H967 0.961 . S
C906 H968 0.959 . S
C907 C904 1.450 . S
C907 H969 0.960 . S
C907 H970 0.960 . S
C907 H971 0.960 . S
C908 C909 1.309 . S
C908 C913 1.304 . S
C908 O946 1.435 . S
C909 C908 1.309 . S
C909 C910 1.476 . S
C909 H973 0.930 . S
C910 C909 1.476 . S
C910 C911 1.400 . S
C910 C914 1.567 . S
C911 C910 1.400 . S
C911 C912 1.373 . S
C911 C933 1.432 . S
C912 C911 1.373 . S
C912 C913 1.339 . S
C912 C915 1.530 . S
C913 C908 1.304 . S
C913 C912 1.339 . S
C913 H974 0.930 . S
C914 C910 1.567 . S
C914 H975 0.961 . S
C914 H976 0.960 . S
C914 H977 0.958 . S
C915 C912 1.530 . S
C915 H978 0.961 . S
C915 H979 0.960 . S
C915 H980 0.960 . S
C916 C917 1.530 . S
C916 H982 0.961 . S
C916 H983 0.961 . S
C916 H984 0.959 . S
C917 C916 1.530 . S
C917 O945 1.412 . S
C917 H981 0.980 . S
C918 C919 1.288 . S
C918 C923 1.377 . S
C918 O945 1.393 . S
C919 C918 1.288 . S
C919 C920 1.369 . S
C919 H985 0.932 . S
C920 C919 1.369 . S
C920 C921 1.398 . S
C920 C924 1.527 . S
C921 C920 1.398 . S
C921 C922 1.380 . S
C921 C935 1.497 . S
C922 C921 1.380 . S
C922 C923 1.383 . S
C922 C925 1.603 . S
C923 C918 1.377 . S
C923 C922 1.383 . S
C923 H986 0.929 . S
C924 C920 1.527 . S
C924 H987 0.961 . S
C924 H988 0.959 . S
C924 H989 0.959 . S
C925 C922 1.603 . S
C925 H990 0.960 . S
C925 H991 0.962 . S
C925 H992 0.961 . S
C926 C893 1.587 . S
C926 C927 1.360 . S
C926 C939 1.412 . S
C927 C926 1.360 . S
C927 C928 1.365 . S
C927 H993 0.929 . S
C928 C903 1.553 . S
C928 C927 1.365 . S
C928 C929 1.404 . S
C929 C928 1.404 . S
C929 C930 1.395 . S
C929 C940 1.451 . S
C930 C929 1.395 . S
C930 C931 1.322 . S
C930 H994 0.930 . S
C931 C930 1.322 . S
C931 C932 1.459 . S
C931 H995 0.929 . S
C932 C931 1.459 . S
C932 C933 1.445 . S
C932 C941 1.395 . S
C933 C911 1.432 . S
C933 C932 1.445 . S
C933 C934 1.370 . S
C934 C933 1.370 . S
C934 C935 1.438 . S
C934 H996 0.930 . S
C935 C921 1.497 . S
C935 C934 1.438 . S
C935 C936 1.360 . S
C936 C935 1.360 . S
C936 C937 1.401 . S
C936 C941 1.446 . S
C937 C936 1.401 . S
C937 C938 1.347 . S
C937 H997 0.929 . S
C938 C937 1.347 . S
C938 C939 1.455 . S
C938 H998 0.930 . S
C939 C926 1.412 . S
C939 C938 1.455 . S
C939 C940 1.331 . S
C940 C929 1.451 . S
C940 C939 1.331 . S
C940 C941 1.497 . S
C941 C932 1.395 . S
C941 C936 1.446 . S
C941 C940 1.497 . S
C942 C943 1.582 . S
C942 H999 0.962 . S
C942 H1000 0.959 . S
C942 H1001 0.958 . S
C943 C942 1.582 . S
C943 O946 1.458 . S
C943 H972 0.980 . S
O944 C889 1.426 . S
O944 C890 1.334 . S
O945 C917 1.412 . S
O945 C918 1.393 . S
O946 C908 1.435 . S
O946 C943 1.458 . S
O947 C899 1.468 . S
O947 C900 1.408 . S
H948 C889 0.980 . S
H949 C888 0.959 . S
H950 C888 0.959 . S
H951 C888 0.960 . S
H952 C891 0.929 . S
H953 C895 0.929 . S
H954 C896 0.959 . S
H955 C896 0.961 . S
H956 C896 0.961 . S
H957 C897 0.960 . S
H958 C897 0.960 . S
H959 C897 0.961 . S
H960 C899 0.980 . S
H961 C898 0.961 . S
H962 C898 0.960 . S
H963 C898 0.959 . S
H964 C901 0.930 . S
H965 C905 0.931 . S
H966 C906 0.959 . S
H967 C906 0.961 . S
H968 C906 0.959 . S
H969 C907 0.960 . S
H970 C907 0.960 . S
H971 C907 0.960 . S
H972 C943 0.980 . S
H973 C909 0.930 . S
H974 C913 0.930 . S
H975 C914 0.961 . S
H976 C914 0.960 . S
H977 C914 0.958 . S
H978 C915 0.961 . S
H979 C915 0.960 . S
H980 C915 0.960 . S
H981 C917 0.980 . S
H982 C916 0.961 . S
H983 C916 0.961 . S
H984 C916 0.959 . S
H985 C919 0.932 . S
H986 C923 0.929 . S
H987 C924 0.961 . S
H988 C924 0.959 . S
H989 C924 0.959 . S
H990 C925 0.960 . S
H991 C925 0.962 . S
H992 C925 0.961 . S
H993 C927 0.929 . S
H994 C930 0.930 . S
H995 C931 0.929 . S
H996 C934 0.930 . S
H997 C937 0.929 . S
H998 C938 0.930 . S
H999 C942 0.962 . S
H1000 C942 0.959 . S
H1001 C942 0.958 . S
H1002 C1014 0.930 . S
H1003 C1016 0.930 . S
H1004 C1017 0.930 . S
H1005 C1021 0.959 . S
H1006 C1021 0.959 . S
H1007 C1021 0.961 . S
H1008 C1022 0.960 . S
H1009 C1022 0.961 . S
H1010 C1022 0.959 . S
H1011 C1025 0.929 . S
H1012 C1026 0.931 . S
H1013 C1028 0.930 . S
C1014 H1002 0.930 . S
C1014 C1015 1.399 . S
C1014 C1019 1.399 . S
C1015 C1014 1.399 . S
C1015 C1016 1.376 . S
C1016 H1003 0.930 . S
C1016 C1015 1.376 . S
C1016 C1017 1.388 . S
C1017 H1004 0.930 . S
C1017 C1016 1.388 . S
C1017 C1018 1.390 . S
C1018 C1017 1.390 . S
C1018 C1019 1.394 . S
C1018 C1024 1.465 . S
C1019 C1014 1.399 . S
C1019 C1018 1.394 . S
C1019 C1020 1.516 . S
C1020 C1019 1.516 . S
C1020 C1021 1.502 . S
C1020 C1022 1.561 . S
C1020 C1023 1.526 . S
C1021 H1005 0.959 . S
C1021 H1006 0.959 . S
C1021 H1007 0.961 . S
C1021 C1020 1.502 . S
C1022 H1008 0.960 . S
C1022 H1009 0.961 . S
C1022 H1010 0.959 . S
C1022 C1020 1.561 . S
C1023 C1020 1.526 . S
C1023 C1024 1.396 . S
C1023 C1028 1.390 . S
C1024 C1018 1.465 . S
C1024 C1023 1.396 . S
C1024 C1025 1.399 . S
C1025 H1011 0.929 . S
C1025 C1024 1.399 . S
C1025 C1026 1.385 . S
C1026 H1012 0.931 . S
C1026 C1025 1.385 . S
C1026 C1027 1.389 . S
C1027 C1026 1.389 . S
C1027 C1028 1.387 . S
C1028 H1013 0.930 . S
C1028 C1023 1.390 . S
C1028 C1027 1.387 . S
H1029 C1041 0.930 . S
H1030 C1043 0.930 . S
H1031 C1044 0.930 . S
H1032 C1048 0.959 . S
H1033 C1048 0.959 . S
H1034 C1048 0.961 . S
H1035 C1049 0.960 . S
H1036 C1049 0.961 . S
H1037 C1049 0.959 . S
H1038 C1052 0.929 . S
H1039 C1053 0.931 . S
H1040 C1055 0.930 . S
C1041 H1029 0.930 . S
C1041 C1042 1.399 . S
C1041 C1046 1.399 . S
C1042 C1041 1.399 . S
C1042 C1043 1.376 . S
C1043 H1030 0.930 . S
C1043 C1042 1.376 . S
C1043 C1044 1.388 . S
C1044 H1031 0.930 . S
C1044 C1043 1.388 . S
C1044 C1045 1.390 . S
C1045 C1044 1.390 . S
C1045 C1046 1.394 . S
C1045 C1051 1.465 . S
C1046 C1041 1.399 . S
C1046 C1045 1.394 . S
C1046 C1047 1.516 . S
C1047 C1046 1.516 . S
C1047 C1048 1.502 . S
C1047 C1049 1.561 . S
C1047 C1050 1.526 . S
C1048 H1032 0.959 . S
C1048 H1033 0.959 . S
C1048 H1034 0.961 . S
C1048 C1047 1.502 . S
C1049 H1035 0.960 . S
C1049 H1036 0.961 . S
C1049 H1037 0.959 . S
C1049 C1047 1.561 . S
C1050 C1047 1.526 . S
C1050 C1051 1.396 . S
C1050 C1055 1.390 . S
C1051 C1045 1.465 . S
C1051 C1050 1.396 . S
C1051 C1052 1.399 . S
C1052 H1038 0.929 . S
C1052 C1051 1.399 . S
C1052 C1053 1.385 . S
C1053 H1039 0.931 . S
C1053 C1052 1.385 . S
C1053 C1054 1.389 . S
C1054 C1053 1.389 . S
C1054 C1055 1.387 . S
C1055 H1040 0.930 . S
C1055 C1050 1.390 . S
C1055 C1054 1.387 . S
H1056 C1068 0.930 . S
H1057 C1070 0.930 . S
H1058 C1071 0.930 . S
H1059 C1075 0.959 . S
H1060 C1075 0.959 . S
H1061 C1075 0.961 . S
H1062 C1076 0.960 . S
H1063 C1076 0.961 . S
H1064 C1076 0.959 . S
H1065 C1079 0.929 . S
H1066 C1080 0.931 . S
H1067 C1082 0.930 . S
C1068 H1056 0.930 . S
C1068 C1069 1.399 . S
C1068 C1073 1.399 . S
C1069 C1068 1.399 . S
C1069 C1070 1.376 . S
C1070 H1057 0.930 . S
C1070 C1069 1.376 . S
C1070 C1071 1.388 . S
C1071 H1058 0.930 . S
C1071 C1070 1.388 . S
C1071 C1072 1.390 . S
C1072 C1071 1.390 . S
C1072 C1073 1.394 . S
C1072 C1078 1.465 . S
C1073 C1068 1.399 . S
C1073 C1072 1.394 . S
C1073 C1074 1.516 . S
C1074 C1073 1.516 . S
C1074 C1075 1.502 . S
C1074 C1076 1.561 . S
C1074 C1077 1.526 . S
C1075 H1059 0.959 . S
C1075 H1060 0.959 . S
C1075 H1061 0.961 . S
C1075 C1074 1.502 . S
C1076 H1062 0.960 . S
C1076 H1063 0.961 . S
C1076 H1064 0.959 . S
C1076 C1074 1.561 . S
C1077 C1074 1.526 . S
C1077 C1078 1.396 . S
C1077 C1082 1.390 . S
C1078 C1072 1.465 . S
C1078 C1077 1.396 . S
C1078 C1079 1.399 . S
C1079 H1065 0.929 . S
C1079 C1078 1.399 . S
C1079 C1080 1.385 . S
C1080 H1066 0.931 . S
C1080 C1079 1.385 . S
C1080 C1081 1.389 . S
C1081 C1080 1.389 . S
C1081 C1082 1.387 . S
C1082 H1067 0.930 . S
C1082 C1077 1.390 . S
C1082 C1081 1.387 . S
H1083 C1095 0.930 . S
H1084 C1097 0.930 . S
H1085 C1098 0.930 . S
H1086 C1102 0.959 . S
H1087 C1102 0.959 . S
H1088 C1102 0.961 . S
H1089 C1103 0.960 . S
H1090 C1103 0.961 . S
H1091 C1103 0.959 . S
H1092 C1106 0.929 . S
H1093 C1107 0.931 . S
H1094 C1109 0.930 . S
C1095 H1083 0.930 . S
C1095 C1096 1.399 . S
C1095 C1100 1.399 . S
C1096 C1095 1.399 . S
C1096 C1097 1.376 . S
C1097 H1084 0.930 . S
C1097 C1096 1.376 . S
C1097 C1098 1.388 . S
C1098 H1085 0.930 . S
C1098 C1097 1.388 . S
C1098 C1099 1.390 . S
C1099 C1098 1.390 . S
C1099 C1100 1.394 . S
C1099 C1105 1.465 . S
C1100 C1095 1.399 . S
C1100 C1099 1.394 . S
C1100 C1101 1.516 . S
C1101 C1100 1.516 . S
C1101 C1102 1.502 . S
C1101 C1103 1.561 . S
C1101 C1104 1.526 . S
C1102 H1086 0.959 . S
C1102 H1087 0.959 . S
C1102 H1088 0.961 . S
C1102 C1101 1.502 . S
C1103 H1089 0.960 . S
C1103 H1090 0.961 . S
C1103 H1091 0.959 . S
C1103 C1101 1.561 . S
C1104 C1101 1.526 . S
C1104 C1105 1.396 . S
C1104 C1109 1.390 . S
C1105 C1099 1.465 . S
C1105 C1104 1.396 . S
C1105 C1106 1.399 . S
C1106 H1092 0.929 . S
C1106 C1105 1.399 . S
C1106 C1107 1.385 . S
C1107 H1093 0.931 . S
C1107 C1106 1.385 . S
C1107 C1108 1.389 . S
C1108 C1107 1.389 . S
C1108 C1109 1.387 . S
C1109 H1094 0.930 . S
C1109 C1104 1.390 . S
C1109 C1108 1.387 . S
H1110 C1122 0.930 . S
H1111 C1124 0.930 . S
H1112 C1125 0.930 . S
H1113 C1129 0.959 . S
H1114 C1129 0.959 . S
H1115 C1129 0.961 . S
H1116 C1130 0.960 . S
H1117 C1130 0.961 . S
H1118 C1130 0.959 . S
H1119 C1133 0.929 . S
H1120 C1134 0.931 . S
H1121 C1136 0.930 . S
C1122 H1110 0.930 . S
C1122 C1123 1.399 . S
C1122 C1127 1.399 . S
C1123 C1122 1.399 . S
C1123 C1124 1.376 . S
C1124 H1111 0.930 . S
C1124 C1123 1.376 . S
C1124 C1125 1.388 . S
C1125 H1112 0.930 . S
C1125 C1124 1.388 . S
C1125 C1126 1.390 . S
C1126 C1125 1.390 . S
C1126 C1127 1.394 . S
C1126 C1132 1.465 . S
C1127 C1122 1.399 . S
C1127 C1126 1.394 . S
C1127 C1128 1.516 . S
C1128 C1127 1.516 . S
C1128 C1129 1.502 . S
C1128 C1130 1.561 . S
C1128 C1131 1.526 . S
C1129 H1113 0.959 . S
C1129 H1114 0.959 . S
C1129 H1115 0.961 . S
C1129 C1128 1.502 . S
C1130 H1116 0.960 . S
C1130 H1117 0.961 . S
C1130 H1118 0.959 . S
C1130 C1128 1.561 . S
C1131 C1128 1.526 . S
C1131 C1132 1.396 . S
C1131 C1136 1.390 . S
C1132 C1126 1.465 . S
C1132 C1131 1.396 . S
C1132 C1133 1.399 . S
C1133 H1119 0.929 . S
C1133 C1132 1.399 . S
C1133 C1134 1.385 . S
C1134 H1120 0.931 . S
C1134 C1133 1.385 . S
C1134 C1135 1.389 . S
C1135 C1134 1.389 . S
C1135 C1136 1.387 . S
C1136 H1121 0.930 . S
C1136 C1131 1.390 . S
C1136 C1135 1.387 . S
H1137 C1149 0.930 . S
H1138 C1151 0.930 . S
H1139 C1152 0.930 . S
H1140 C1156 0.959 . S
H1141 C1156 0.959 . S
H1142 C1156 0.961 . S
H1143 C1157 0.960 . S
H1144 C1157 0.961 . S
H1145 C1157 0.959 . S
H1146 C1160 0.929 . S
H1147 C1161 0.931 . S
H1148 C1163 0.930 . S
C1149 H1137 0.930 . S
C1149 C1150 1.399 . S
C1149 C1154 1.399 . S
C1150 C1149 1.399 . S
C1150 C1151 1.376 . S
C1151 H1138 0.930 . S
C1151 C1150 1.376 . S
C1151 C1152 1.388 . S
C1152 H1139 0.930 . S
C1152 C1151 1.388 . S
C1152 C1153 1.390 . S
C1153 C1152 1.390 . S
C1153 C1154 1.394 . S
C1153 C1159 1.465 . S
C1154 C1149 1.399 . S
C1154 C1153 1.394 . S
C1154 C1155 1.516 . S
C1155 C1154 1.516 . S
C1155 C1156 1.502 . S
C1155 C1157 1.561 . S
C1155 C1158 1.526 . S
C1156 H1140 0.959 . S
C1156 H1141 0.959 . S
C1156 H1142 0.961 . S
C1156 C1155 1.502 . S
C1157 H1143 0.960 . S
C1157 H1144 0.961 . S
C1157 H1145 0.959 . S
C1157 C1155 1.561 . S
C1158 C1155 1.526 . S
C1158 C1159 1.396 . S
C1158 C1163 1.390 . S
C1159 C1153 1.465 . S
C1159 C1158 1.396 . S
C1159 C1160 1.399 . S
C1160 H1146 0.929 . S
C1160 C1159 1.399 . S
C1160 C1161 1.385 . S
C1161 H1147 0.931 . S
C1161 C1160 1.385 . S
C1161 C1162 1.389 . S
C1162 C1161 1.389 . S
C1162 C1163 1.387 . S
C1163 H1148 0.930 . S
C1163 C1158 1.390 . S
C1163 C1162 1.387 . S
H1164 C1176 0.930 . S
H1165 C1178 0.930 . S
H1166 C1179 0.930 . S
H1167 C1183 0.959 . S
H1168 C1183 0.959 . S
H1169 C1183 0.961 . S
H1170 C1184 0.960 . S
H1171 C1184 0.961 . S
H1172 C1184 0.959 . S
H1173 C1187 0.929 . S
H1174 C1188 0.931 . S
H1175 C1190 0.930 . S
C1176 H1164 0.930 . S
C1176 C1177 1.399 . S
C1176 C1181 1.399 . S
C1177 C1176 1.399 . S
C1177 C1178 1.376 . S
C1178 H1165 0.930 . S
C1178 C1177 1.376 . S
C1178 C1179 1.388 . S
C1179 H1166 0.930 . S
C1179 C1178 1.388 . S
C1179 C1180 1.390 . S
C1180 C1179 1.390 . S
C1180 C1181 1.394 . S
C1180 C1186 1.465 . S
C1181 C1176 1.399 . S
C1181 C1180 1.394 . S
C1181 C1182 1.516 . S
C1182 C1181 1.516 . S
C1182 C1183 1.502 . S
C1182 C1184 1.561 . S
C1182 C1185 1.526 . S
C1183 H1167 0.959 . S
C1183 H1168 0.959 . S
C1183 H1169 0.961 . S
C1183 C1182 1.502 . S
C1184 H1170 0.960 . S
C1184 H1171 0.961 . S
C1184 H1172 0.959 . S
C1184 C1182 1.561 . S
C1185 C1182 1.526 . S
C1185 C1186 1.396 . S
C1185 C1190 1.390 . S
C1186 C1180 1.465 . S
C1186 C1185 1.396 . S
C1186 C1187 1.399 . S
C1187 H1173 0.929 . S
C1187 C1186 1.399 . S
C1187 C1188 1.385 . S
C1188 H1174 0.931 . S
C1188 C1187 1.385 . S
C1188 C1189 1.389 . S
C1189 C1188 1.389 . S
C1189 C1190 1.387 . S
C1190 H1175 0.930 . S
C1190 C1185 1.390 . S
C1190 C1189 1.387 . S
H1191 C1203 0.930 . S
H1192 C1205 0.930 . S
H1193 C1206 0.930 . S
H1194 C1210 0.959 . S
H1195 C1210 0.959 . S
H1196 C1210 0.961 . S
H1197 C1211 0.960 . S
H1198 C1211 0.961 . S
H1199 C1211 0.959 . S
H1200 C1214 0.929 . S
H1201 C1215 0.931 . S
H1202 C1217 0.930 . S
C1203 H1191 0.930 . S
C1203 C1204 1.399 . S
C1203 C1208 1.399 . S
C1204 C1203 1.399 . S
C1204 C1205 1.376 . S
C1205 H1192 0.930 . S
C1205 C1204 1.376 . S
C1205 C1206 1.388 . S
C1206 H1193 0.930 . S
C1206 C1205 1.388 . S
C1206 C1207 1.390 . S
C1207 C1206 1.390 . S
C1207 C1208 1.394 . S
C1207 C1213 1.465 . S
C1208 C1203 1.399 . S
C1208 C1207 1.394 . S
C1208 C1209 1.516 . S
C1209 C1208 1.516 . S
C1209 C1210 1.502 . S
C1209 C1211 1.561 . S
C1209 C1212 1.526 . S
C1210 H1194 0.959 . S
C1210 H1195 0.959 . S
C1210 H1196 0.961 . S
C1210 C1209 1.502 . S
C1211 H1197 0.960 . S
C1211 H1198 0.961 . S
C1211 H1199 0.959 . S
C1211 C1209 1.561 . S
C1212 C1209 1.526 . S
C1212 C1213 1.396 . S
C1212 C1217 1.390 . S
C1213 C1207 1.465 . S
C1213 C1212 1.396 . S
C1213 C1214 1.399 . S
C1214 H1200 0.929 . S
C1214 C1213 1.399 . S
C1214 C1215 1.385 . S
C1215 H1201 0.931 . S
C1215 C1214 1.385 . S
C1215 C1216 1.389 . S
C1216 C1215 1.389 . S
C1216 C1217 1.387 . S
C1217 H1202 0.930 . S
C1217 C1212 1.390 . S
C1217 C1216 1.387 . S
H1218 C1230 0.930 . S
H1219 C1232 0.930 . S
H1220 C1233 0.930 . S
H1221 C1237 0.959 . S
H1222 C1237 0.959 . S
H1223 C1237 0.961 . S
H1224 C1238 0.960 . S
H1225 C1238 0.961 . S
H1226 C1238 0.959 . S
H1227 C1241 0.929 . S
H1228 C1242 0.931 . S
H1229 C1244 0.930 . S
C1230 H1218 0.930 . S
C1230 C1231 1.399 . S
C1230 C1235 1.399 . S
C1231 C1230 1.399 . S
C1231 C1232 1.376 . S
C1232 H1219 0.930 . S
C1232 C1231 1.376 . S
C1232 C1233 1.388 . S
C1233 H1220 0.930 . S
C1233 C1232 1.388 . S
C1233 C1234 1.390 . S
C1234 C1233 1.390 . S
C1234 C1235 1.394 . S
C1234 C1240 1.465 . S
C1235 C1230 1.399 . S
C1235 C1234 1.394 . S
C1235 C1236 1.516 . S
C1236 C1235 1.516 . S
C1236 C1237 1.502 . S
C1236 C1238 1.561 . S
C1236 C1239 1.526 . S
C1237 H1221 0.959 . S
C1237 H1222 0.959 . S
C1237 H1223 0.961 . S
C1237 C1236 1.502 . S
C1238 H1224 0.960 . S
C1238 H1225 0.961 . S
C1238 H1226 0.959 . S
C1238 C1236 1.561 . S
C1239 C1236 1.526 . S
C1239 C1240 1.396 . S
C1239 C1244 1.390 . S
C1240 C1234 1.465 . S
C1240 C1239 1.396 . S
C1240 C1241 1.399 . S
C1241 H1227 0.929 . S
C1241 C1240 1.399 . S
C1241 C1242 1.385 . S
C1242 H1228 0.931 . S
C1242 C1241 1.385 . S
C1242 C1243 1.389 . S
C1243 C1242 1.389 . S
C1243 C1244 1.387 . S
C1244 H1229 0.930 . S
C1244 C1239 1.390 . S
C1244 C1243 1.387 . S
H1245 C1257 0.930 . S
H1246 C1259 0.930 . S
H1247 C1260 0.930 . S
H1248 C1264 0.959 . S
H1249 C1264 0.959 . S
H1250 C1264 0.961 . S
H1251 C1265 0.960 . S
H1252 C1265 0.961 . S
H1253 C1265 0.959 . S
H1254 C1268 0.929 . S
H1255 C1269 0.931 . S
H1256 C1271 0.930 . S
C1257 H1245 0.930 . S
C1257 C1258 1.399 . S
C1257 C1262 1.399 . S
C1258 C1257 1.399 . S
C1258 C1259 1.376 . S
C1259 H1246 0.930 . S
C1259 C1258 1.376 . S
C1259 C1260 1.388 . S
C1260 H1247 0.930 . S
C1260 C1259 1.388 . S
C1260 C1261 1.390 . S
C1261 C1260 1.390 . S
C1261 C1262 1.394 . S
C1261 C1267 1.465 . S
C1262 C1257 1.399 . S
C1262 C1261 1.394 . S
C1262 C1263 1.516 . S
C1263 C1262 1.516 . S
C1263 C1264 1.502 . S
C1263 C1265 1.561 . S
C1263 C1266 1.526 . S
C1264 H1248 0.959 . S
C1264 H1249 0.959 . S
C1264 H1250 0.961 . S
C1264 C1263 1.502 . S
C1265 H1251 0.960 . S
C1265 H1252 0.961 . S
C1265 H1253 0.959 . S
C1265 C1263 1.561 . S
C1266 C1263 1.526 . S
C1266 C1267 1.396 . S
C1266 C1271 1.390 . S
C1267 C1261 1.465 . S
C1267 C1266 1.396 . S
C1267 C1268 1.399 . S
C1268 H1254 0.929 . S
C1268 C1267 1.399 . S
C1268 C1269 1.385 . S
C1269 H1255 0.931 . S
C1269 C1268 1.385 . S
C1269 C1270 1.389 . S
C1270 C1269 1.389 . S
C1270 C1271 1.387 . S
C1271 H1256 0.930 . S
C1271 C1266 1.390 . S
C1271 C1270 1.387 . S
H1272 C1284 0.930 . S
H1273 C1286 0.930 . S
H1274 C1287 0.930 . S
H1275 C1291 0.959 . S
H1276 C1291 0.959 . S
H1277 C1291 0.961 . S
H1278 C1292 0.960 . S
H1279 C1292 0.961 . S
H1280 C1292 0.959 . S
H1281 C1295 0.929 . S
H1282 C1296 0.931 . S
H1283 C1298 0.930 . S
C1284 H1272 0.930 . S
C1284 C1285 1.399 . S
C1284 C1289 1.399 . S
C1285 C1284 1.399 . S
C1285 C1286 1.376 . S
C1286 H1273 0.930 . S
C1286 C1285 1.376 . S
C1286 C1287 1.388 . S
C1287 H1274 0.930 . S
C1287 C1286 1.388 . S
C1287 C1288 1.390 . S
C1288 C1287 1.390 . S
C1288 C1289 1.394 . S
C1288 C1294 1.465 . S
C1289 C1284 1.399 . S
C1289 C1288 1.394 . S
C1289 C1290 1.516 . S
C1290 C1289 1.516 . S
C1290 C1291 1.502 . S
C1290 C1292 1.561 . S
C1290 C1293 1.526 . S
C1291 H1275 0.959 . S
C1291 H1276 0.959 . S
C1291 H1277 0.961 . S
C1291 C1290 1.502 . S
C1292 H1278 0.960 . S
C1292 H1279 0.961 . S
C1292 H1280 0.959 . S
C1292 C1290 1.561 . S
C1293 C1290 1.526 . S
C1293 C1294 1.396 . S
C1293 C1298 1.390 . S
C1294 C1288 1.465 . S
C1294 C1293 1.396 . S
C1294 C1295 1.399 . S
C1295 H1281 0.929 . S
C1295 C1294 1.399 . S
C1295 C1296 1.385 . S
C1296 H1282 0.931 . S
C1296 C1295 1.385 . S
C1296 C1297 1.389 . S
C1297 C1296 1.389 . S
C1297 C1298 1.387 . S
C1298 H1283 0.930 . S
C1298 C1293 1.390 . S
C1298 C1297 1.387 . S
H1299 C1311 0.930 . S
H1300 C1313 0.930 . S
H1301 C1314 0.930 . S
H1302 C1318 0.959 . S
H1303 C1318 0.959 . S
H1304 C1318 0.961 . S
H1305 C1319 0.960 . S
H1306 C1319 0.961 . S
H1307 C1319 0.959 . S
H1308 C1322 0.929 . S
H1309 C1323 0.931 . S
H1310 C1325 0.930 . S
C1311 H1299 0.930 . S
C1311 C1312 1.399 . S
C1311 C1316 1.399 . S
C1312 C1311 1.399 . S
C1312 C1313 1.376 . S
C1313 H1300 0.930 . S
C1313 C1312 1.376 . S
C1313 C1314 1.388 . S
C1314 H1301 0.930 . S
C1314 C1313 1.388 . S
C1314 C1315 1.390 . S
C1315 C1314 1.390 . S
C1315 C1316 1.394 . S
C1315 C1321 1.465 . S
C1316 C1311 1.399 . S
C1316 C1315 1.394 . S
C1316 C1317 1.516 . S
C1317 C1316 1.516 . S
C1317 C1318 1.502 . S
C1317 C1319 1.561 . S
C1317 C1320 1.526 . S
C1318 H1302 0.959 . S
C1318 H1303 0.959 . S
C1318 H1304 0.961 . S
C1318 C1317 1.502 . S
C1319 H1305 0.960 . S
C1319 H1306 0.961 . S
C1319 H1307 0.959 . S
C1319 C1317 1.561 . S
C1320 C1317 1.526 . S
C1320 C1321 1.396 . S
C1320 C1325 1.390 . S
C1321 C1315 1.465 . S
C1321 C1320 1.396 . S
C1321 C1322 1.399 . S
C1322 H1308 0.929 . S
C1322 C1321 1.399 . S
C1322 C1323 1.385 . S
C1323 H1309 0.931 . S
C1323 C1322 1.385 . S
C1323 C1324 1.389 . S
C1324 C1323 1.389 . S
C1324 C1325 1.387 . S
C1325 H1310 0.930 . S
C1325 C1320 1.390 . S
C1325 C1324 1.387 . S
H1326 C1338 0.930 . S
H1327 C1340 0.930 . S
H1328 C1341 0.930 . S
H1329 C1345 0.959 . S
H1330 C1345 0.959 . S
H1331 C1345 0.961 . S
H1332 C1346 0.960 . S
H1333 C1346 0.961 . S
H1334 C1346 0.959 . S
H1335 C1349 0.929 . S
H1336 C1350 0.931 . S
H1337 C1352 0.930 . S
C1338 H1326 0.930 . S
C1338 C1339 1.399 . S
C1338 C1343 1.399 . S
C1339 C1338 1.399 . S
C1339 C1340 1.376 . S
C1340 H1327 0.930 . S
C1340 C1339 1.376 . S
C1340 C1341 1.388 . S
C1341 H1328 0.930 . S
C1341 C1340 1.388 . S
C1341 C1342 1.390 . S
C1342 C1341 1.390 . S
C1342 C1343 1.394 . S
C1342 C1348 1.465 . S
C1343 C1338 1.399 . S
C1343 C1342 1.394 . S
C1343 C1344 1.516 . S
C1344 C1343 1.516 . S
C1344 C1345 1.502 . S
C1344 C1346 1.561 . S
C1344 C1347 1.526 . S
C1345 H1329 0.959 . S
C1345 H1330 0.959 . S
C1345 H1331 0.961 . S
C1345 C1344 1.502 . S
C1346 H1332 0.960 . S
C1346 H1333 0.961 . S
C1346 H1334 0.959 . S
C1346 C1344 1.561 . S
C1347 C1344 1.526 . S
C1347 C1348 1.396 . S
C1347 C1352 1.390 . S
C1348 C1342 1.465 . S
C1348 C1347 1.396 . S
C1348 C1349 1.399 . S
C1349 H1335 0.929 . S
C1349 C1348 1.399 . S
C1349 C1350 1.385 . S
C1350 H1336 0.931 . S
C1350 C1349 1.385 . S
C1350 C1351 1.389 . S
C1351 C1350 1.389 . S
C1351 C1352 1.387 . S
C1352 H1337 0.930 . S
C1352 C1347 1.390 . S
C1352 C1351 1.387 . S
H1353 C1365 0.930 . S
H1354 C1367 0.930 . S
H1355 C1368 0.930 . S
H1356 C1372 0.959 . S
H1357 C1372 0.959 . S
H1358 C1372 0.961 . S
H1359 C1373 0.960 . S
H1360 C1373 0.961 . S
H1361 C1373 0.959 . S
H1362 C1376 0.929 . S
H1363 C1377 0.931 . S
H1364 C1379 0.930 . S
C1365 H1353 0.930 . S
C1365 C1366 1.399 . S
C1365 C1370 1.399 . S
C1366 C1365 1.399 . S
C1366 C1367 1.376 . S
C1367 H1354 0.930 . S
C1367 C1366 1.376 . S
C1367 C1368 1.388 . S
C1368 H1355 0.930 . S
C1368 C1367 1.388 . S
C1368 C1369 1.390 . S
C1369 C1368 1.390 . S
C1369 C1370 1.394 . S
C1369 C1375 1.465 . S
C1370 C1365 1.399 . S
C1370 C1369 1.394 . S
C1370 C1371 1.516 . S
C1371 C1370 1.516 . S
C1371 C1372 1.502 . S
C1371 C1373 1.561 . S
C1371 C1374 1.526 . S
C1372 H1356 0.959 . S
C1372 H1357 0.959 . S
C1372 H1358 0.961 . S
C1372 C1371 1.502 . S
C1373 H1359 0.960 . S
C1373 H1360 0.961 . S
C1373 H1361 0.959 . S
C1373 C1371 1.561 . S
C1374 C1371 1.526 . S
C1374 C1375 1.396 . S
C1374 C1379 1.390 . S
C1375 C1369 1.465 . S
C1375 C1374 1.396 . S
C1375 C1376 1.399 . S
C1376 H1362 0.929 . S
C1376 C1375 1.399 . S
C1376 C1377 1.385 . S
C1377 H1363 0.931 . S
C1377 C1376 1.385 . S
C1377 C1378 1.389 . S
C1378 C1377 1.389 . S
C1378 C1379 1.387 . S
C1379 H1364 0.930 . S
C1379 C1374 1.390 . S
C1379 C1378 1.387 . S
H1380 C1392 0.930 . S
H1381 C1394 0.930 . S
H1382 C1395 0.930 . S
H1383 C1399 0.959 . S
H1384 C1399 0.959 . S
H1385 C1399 0.961 . S
H1386 C1400 0.960 . S
H1387 C1400 0.961 . S
H1388 C1400 0.959 . S
H1389 C1403 0.929 . S
H1390 C1404 0.931 . S
H1391 C1406 0.930 . S
C1392 H1380 0.930 . S
C1392 C1393 1.399 . S
C1392 C1397 1.399 . S
C1393 C1392 1.399 . S
C1393 C1394 1.376 . S
C1394 H1381 0.930 . S
C1394 C1393 1.376 . S
C1394 C1395 1.388 . S
C1395 H1382 0.930 . S
C1395 C1394 1.388 . S
C1395 C1396 1.390 . S
C1396 C1395 1.390 . S
C1396 C1397 1.394 . S
C1396 C1402 1.465 . S
C1397 C1392 1.399 . S
C1397 C1396 1.394 . S
C1397 C1398 1.516 . S
C1398 C1397 1.516 . S
C1398 C1399 1.502 . S
C1398 C1400 1.561 . S
C1398 C1401 1.526 . S
C1399 H1383 0.959 . S
C1399 H1384 0.959 . S
C1399 H1385 0.961 . S
C1399 C1398 1.502 . S
C1400 H1386 0.960 . S
C1400 H1387 0.961 . S
C1400 H1388 0.959 . S
C1400 C1398 1.561 . S
C1401 C1398 1.526 . S
C1401 C1402 1.396 . S
C1401 C1406 1.390 . S
C1402 C1396 1.465 . S
C1402 C1401 1.396 . S
C1402 C1403 1.399 . S
C1403 H1389 0.929 . S
C1403 C1402 1.399 . S
C1403 C1404 1.385 . S
C1404 H1390 0.931 . S
C1404 C1403 1.385 . S
C1404 C1405 1.389 . S
C1405 C1404 1.389 . S
C1405 C1406 1.387 . S
C1406 H1391 0.930 . S
C1406 C1401 1.390 . S
C1406 C1405 1.387 . S
H1407 C1419 0.930 . S
H1408 C1421 0.930 . S
H1409 C1422 0.930 . S
H1410 C1426 0.959 . S
H1411 C1426 0.959 . S
H1412 C1426 0.961 . S
H1413 C1427 0.960 . S
H1414 C1427 0.961 . S
H1415 C1427 0.959 . S
H1416 C1430 0.929 . S
H1417 C1431 0.931 . S
H1418 C1433 0.930 . S
C1419 H1407 0.930 . S
C1419 C1420 1.399 . S
C1419 C1424 1.399 . S
C1420 C1419 1.399 . S
C1420 C1421 1.376 . S
C1421 H1408 0.930 . S
C1421 C1420 1.376 . S
C1421 C1422 1.388 . S
C1422 H1409 0.930 . S
C1422 C1421 1.388 . S
C1422 C1423 1.390 . S
C1423 C1422 1.390 . S
C1423 C1424 1.394 . S
C1423 C1429 1.465 . S
C1424 C1419 1.399 . S
C1424 C1423 1.394 . S
C1424 C1425 1.516 . S
C1425 C1424 1.516 . S
C1425 C1426 1.502 . S
C1425 C1427 1.561 . S
C1425 C1428 1.526 . S
C1426 H1410 0.959 . S
C1426 H1411 0.959 . S
C1426 H1412 0.961 . S
C1426 C1425 1.502 . S
C1427 H1413 0.960 . S
C1427 H1414 0.961 . S
C1427 H1415 0.959 . S
C1427 C1425 1.561 . S
C1428 C1425 1.526 . S
C1428 C1429 1.396 . S
C1428 C1433 1.390 . S
C1429 C1423 1.465 . S
C1429 C1428 1.396 . S
C1429 C1430 1.399 . S
C1430 H1416 0.929 . S
C1430 C1429 1.399 . S
C1430 C1431 1.385 . S
C1431 H1417 0.931 . S
C1431 C1430 1.385 . S
C1431 C1432 1.389 . S
C1432 C1431 1.389 . S
C1432 C1433 1.387 . S
C1433 H1418 0.930 . S
C1433 C1428 1.390 . S
C1433 C1432 1.387 . S
H1434 C1446 0.930 . S
H1435 C1448 0.930 . S
H1436 C1449 0.930 . S
H1437 C1453 0.959 . S
H1438 C1453 0.959 . S
H1439 C1453 0.961 . S
H1440 C1454 0.960 . S
H1441 C1454 0.961 . S
H1442 C1454 0.959 . S
H1443 C1457 0.929 . S
H1444 C1458 0.931 . S
H1445 C1460 0.930 . S
C1446 H1434 0.930 . S
C1446 C1447 1.399 . S
C1446 C1451 1.399 . S
C1447 C1446 1.399 . S
C1447 C1448 1.376 . S
C1448 H1435 0.930 . S
C1448 C1447 1.376 . S
C1448 C1449 1.388 . S
C1449 H1436 0.930 . S
C1449 C1448 1.388 . S
C1449 C1450 1.390 . S
C1450 C1449 1.390 . S
C1450 C1451 1.394 . S
C1450 C1456 1.465 . S
C1451 C1446 1.399 . S
C1451 C1450 1.394 . S
C1451 C1452 1.516 . S
C1452 C1451 1.516 . S
C1452 C1453 1.502 . S
C1452 C1454 1.561 . S
C1452 C1455 1.526 . S
C1453 H1437 0.959 . S
C1453 H1438 0.959 . S
C1453 H1439 0.961 . S
C1453 C1452 1.502 . S
C1454 H1440 0.960 . S
C1454 H1441 0.961 . S
C1454 H1442 0.959 . S
C1454 C1452 1.561 . S
C1455 C1452 1.526 . S
C1455 C1456 1.396 . S
C1455 C1460 1.390 . S
C1456 C1450 1.465 . S
C1456 C1455 1.396 . S
C1456 C1457 1.399 . S
C1457 H1443 0.929 . S
C1457 C1456 1.399 . S
C1457 C1458 1.385 . S
C1458 H1444 0.931 . S
C1458 C1457 1.385 . S
C1458 C1459 1.389 . S
C1459 C1458 1.389 . S
C1459 C1460 1.387 . S
C1460 H1445 0.930 . S
C1460 C1455 1.390 . S
C1460 C1459 1.387 . S
H1461 C1473 0.930 . S
H1462 C1475 0.930 . S
H1463 C1476 0.930 . S
H1464 C1480 0.959 . S
H1465 C1480 0.959 . S
H1466 C1480 0.961 . S
H1467 C1481 0.960 . S
H1468 C1481 0.961 . S
H1469 C1481 0.959 . S
H1470 C1484 0.929 . S
H1471 C1485 0.931 . S
H1472 C1487 0.930 . S
C1473 H1461 0.930 . S
C1473 C1474 1.399 . S
C1473 C1478 1.399 . S
C1474 C1473 1.399 . S
C1474 C1475 1.376 . S
C1475 H1462 0.930 . S
C1475 C1474 1.376 . S
C1475 C1476 1.388 . S
C1476 H1463 0.930 . S
C1476 C1475 1.388 . S
C1476 C1477 1.390 . S
C1477 C1476 1.390 . S
C1477 C1478 1.394 . S
C1477 C1483 1.465 . S
C1478 C1473 1.399 . S
C1478 C1477 1.394 . S
C1478 C1479 1.516 . S
C1479 C1478 1.516 . S
C1479 C1480 1.502 . S
C1479 C1481 1.561 . S
C1479 C1482 1.526 . S
C1480 H1464 0.959 . S
C1480 H1465 0.959 . S
C1480 H1466 0.961 . S
C1480 C1479 1.502 . S
C1481 H1467 0.960 . S
C1481 H1468 0.961 . S
C1481 H1469 0.959 . S
C1481 C1479 1.561 . S
C1482 C1479 1.526 . S
C1482 C1483 1.396 . S
C1482 C1487 1.390 . S
C1483 C1477 1.465 . S
C1483 C1482 1.396 . S
C1483 C1484 1.399 . S
C1484 H1470 0.929 . S
C1484 C1483 1.399 . S
C1484 C1485 1.385 . S
C1485 H1471 0.931 . S
C1485 C1484 1.385 . S
C1485 C1486 1.389 . S
C1486 C1485 1.389 . S
C1486 C1487 1.387 . S
C1487 H1472 0.930 . S
C1487 C1482 1.390 . S
C1487 C1486 1.387 . S
H1488 C1500 0.930 . S
H1489 C1502 0.930 . S
H1490 C1503 0.930 . S
H1491 C1507 0.959 . S
H1492 C1507 0.959 . S
H1493 C1507 0.961 . S
H1494 C1508 0.960 . S
H1495 C1508 0.961 . S
H1496 C1508 0.959 . S
H1497 C1511 0.929 . S
H1498 C1512 0.931 . S
H1499 C1514 0.930 . S
C1500 H1488 0.930 . S
C1500 C1501 1.399 . S
C1500 C1505 1.399 . S
C1501 C1500 1.399 . S
C1501 C1502 1.376 . S
C1502 H1489 0.930 . S
C1502 C1501 1.376 . S
C1502 C1503 1.388 . S
C1503 H1490 0.930 . S
C1503 C1502 1.388 . S
C1503 C1504 1.390 . S
C1504 C1503 1.390 . S
C1504 C1505 1.394 . S
C1504 C1510 1.465 . S
C1505 C1500 1.399 . S
C1505 C1504 1.394 . S
C1505 C1506 1.516 . S
C1506 C1505 1.516 . S
C1506 C1507 1.502 . S
C1506 C1508 1.561 . S
C1506 C1509 1.526 . S
C1507 H1491 0.959 . S
C1507 H1492 0.959 . S
C1507 H1493 0.961 . S
C1507 C1506 1.502 . S
C1508 H1494 0.960 . S
C1508 H1495 0.961 . S
C1508 H1496 0.959 . S
C1508 C1506 1.561 . S
C1509 C1506 1.526 . S
C1509 C1510 1.396 . S
C1509 C1514 1.390 . S
C1510 C1504 1.465 . S
C1510 C1509 1.396 . S
C1510 C1511 1.399 . S
C1511 H1497 0.929 . S
C1511 C1510 1.399 . S
C1511 C1512 1.385 . S
C1512 H1498 0.931 . S
C1512 C1511 1.385 . S
C1512 C1513 1.389 . S
C1513 C1512 1.389 . S
C1513 C1514 1.387 . S
C1514 H1499 0.930 . S
C1514 C1509 1.390 . S
C1514 C1513 1.387 . S
H1515 C1527 0.930 . S
H1516 C1529 0.930 . S
H1517 C1530 0.930 . S
H1518 C1534 0.959 . S
H1519 C1534 0.959 . S
H1520 C1534 0.961 . S
H1521 C1535 0.960 . S
H1522 C1535 0.961 . S
H1523 C1535 0.959 . S
H1524 C1538 0.929 . S
H1525 C1539 0.931 . S
H1526 C1541 0.930 . S
C1527 H1515 0.930 . S
C1527 C1528 1.399 . S
C1527 C1532 1.399 . S
C1528 C1527 1.399 . S
C1528 C1529 1.376 . S
C1529 H1516 0.930 . S
C1529 C1528 1.376 . S
C1529 C1530 1.388 . S
C1530 H1517 0.930 . S
C1530 C1529 1.388 . S
C1530 C1531 1.390 . S
C1531 C1530 1.390 . S
C1531 C1532 1.394 . S
C1531 C1537 1.465 . S
C1532 C1527 1.399 . S
C1532 C1531 1.394 . S
C1532 C1533 1.516 . S
C1533 C1532 1.516 . S
C1533 C1534 1.502 . S
C1533 C1535 1.561 . S
C1533 C1536 1.526 . S
C1534 H1518 0.959 . S
C1534 H1519 0.959 . S
C1534 H1520 0.961 . S
C1534 C1533 1.502 . S
C1535 H1521 0.960 . S
C1535 H1522 0.961 . S
C1535 H1523 0.959 . S
C1535 C1533 1.561 . S
C1536 C1533 1.526 . S
C1536 C1537 1.396 . S
C1536 C1541 1.390 . S
C1537 C1531 1.465 . S
C1537 C1536 1.396 . S
C1537 C1538 1.399 . S
C1538 H1524 0.929 . S
C1538 C1537 1.399 . S
C1538 C1539 1.385 . S
C1539 H1525 0.931 . S
C1539 C1538 1.385 . S
C1539 C1540 1.389 . S
C1540 C1539 1.389 . S
C1540 C1541 1.387 . S
C1541 H1526 0.930 . S
C1541 C1536 1.390 . S
C1541 C1540 1.387 . S
H1542 C1554 0.930 . S
H1543 C1556 0.930 . S
H1544 C1557 0.930 . S
H1545 C1561 0.959 . S
H1546 C1561 0.959 . S
H1547 C1561 0.961 . S
H1548 C1562 0.960 . S
H1549 C1562 0.961 . S
H1550 C1562 0.959 . S
H1551 C1565 0.929 . S
H1552 C1566 0.931 . S
H1553 C1568 0.930 . S
C1554 H1542 0.930 . S
C1554 C1555 1.399 . S
C1554 C1559 1.399 . S
C1555 C1554 1.399 . S
C1555 C1556 1.376 . S
C1556 H1543 0.930 . S
C1556 C1555 1.376 . S
C1556 C1557 1.388 . S
C1557 H1544 0.930 . S
C1557 C1556 1.388 . S
C1557 C1558 1.390 . S
C1558 C1557 1.390 . S
C1558 C1559 1.394 . S
C1558 C1564 1.465 . S
C1559 C1554 1.399 . S
C1559 C1558 1.394 . S
C1559 C1560 1.516 . S
C1560 C1559 1.516 . S
C1560 C1561 1.502 . S
C1560 C1562 1.561 . S
C1560 C1563 1.526 . S
C1561 H1545 0.959 . S
C1561 H1546 0.959 . S
C1561 H1547 0.961 . S
C1561 C1560 1.502 . S
C1562 H1548 0.960 . S
C1562 H1549 0.961 . S
C1562 H1550 0.959 . S
C1562 C1560 1.561 . S
C1563 C1560 1.526 . S
C1563 C1564 1.396 . S
C1563 C1568 1.390 . S
C1564 C1558 1.465 . S
C1564 C1563 1.396 . S
C1564 C1565 1.399 . S
C1565 H1551 0.929 . S
C1565 C1564 1.399 . S
C1565 C1566 1.385 . S
C1566 H1552 0.931 . S
C1566 C1565 1.385 . S
C1566 C1567 1.389 . S
C1567 C1566 1.389 . S
C1567 C1568 1.387 . S
C1568 H1553 0.930 . S
C1568 C1563 1.390 . S
C1568 C1567 1.387 . S
H1569 C1581 0.930 . S
H1570 C1583 0.930 . S
H1571 C1584 0.930 . S
H1572 C1588 0.959 . S
H1573 C1588 0.959 . S
H1574 C1588 0.961 . S
H1575 C1589 0.960 . S
H1576 C1589 0.961 . S
H1577 C1589 0.959 . S
H1578 C1592 0.929 . S
H1579 C1593 0.931 . S
H1580 C1595 0.930 . S
C1581 H1569 0.930 . S
C1581 C1582 1.399 . S
C1581 C1586 1.399 . S
C1582 C1581 1.399 . S
C1582 C1583 1.376 . S
C1583 H1570 0.930 . S
C1583 C1582 1.376 . S
C1583 C1584 1.388 . S
C1584 H1571 0.930 . S
C1584 C1583 1.388 . S
C1584 C1585 1.390 . S
C1585 C1584 1.390 . S
C1585 C1586 1.394 . S
C1585 C1591 1.465 . S
C1586 C1581 1.399 . S
C1586 C1585 1.394 . S
C1586 C1587 1.516 . S
C1587 C1586 1.516 . S
C1587 C1588 1.502 . S
C1587 C1589 1.561 . S
C1587 C1590 1.526 . S
C1588 H1572 0.959 . S
C1588 H1573 0.959 . S
C1588 H1574 0.961 . S
C1588 C1587 1.502 . S
C1589 H1575 0.960 . S
C1589 H1576 0.961 . S
C1589 H1577 0.959 . S
C1589 C1587 1.561 . S
C1590 C1587 1.526 . S
C1590 C1591 1.396 . S
C1590 C1595 1.390 . S
C1591 C1585 1.465 . S
C1591 C1590 1.396 . S
C1591 C1592 1.399 . S
C1592 H1578 0.929 . S
C1592 C1591 1.399 . S
C1592 C1593 1.385 . S
C1593 H1579 0.931 . S
C1593 C1592 1.385 . S
C1593 C1594 1.389 . S
C1594 C1593 1.389 . S
C1594 C1595 1.387 . S
C1595 H1580 0.930 . S
C1595 C1590 1.390 . S
C1595 C1594 1.387 . S
H1596 C1608 0.930 . S
H1597 C1610 0.930 . S
H1598 C1611 0.930 . S
H1599 C1615 0.959 . S
H1600 C1615 0.959 . S
H1601 C1615 0.961 . S
H1602 C1616 0.960 . S
H1603 C1616 0.961 . S
H1604 C1616 0.959 . S
H1605 C1619 0.929 . S
H1606 C1620 0.931 . S
H1607 C1622 0.930 . S
C1608 H1596 0.930 . S
C1608 C1609 1.399 . S
C1608 C1613 1.399 . S
C1609 C1608 1.399 . S
C1609 C1610 1.376 . S
C1610 H1597 0.930 . S
C1610 C1609 1.376 . S
C1610 C1611 1.388 . S
C1611 H1598 0.930 . S
C1611 C1610 1.388 . S
C1611 C1612 1.390 . S
C1612 C1611 1.390 . S
C1612 C1613 1.394 . S
C1612 C1618 1.465 . S
C1613 C1608 1.399 . S
C1613 C1612 1.394 . S
C1613 C1614 1.516 . S
C1614 C1613 1.516 . S
C1614 C1615 1.502 . S
C1614 C1616 1.561 . S
C1614 C1617 1.526 . S
C1615 H1599 0.959 . S
C1615 H1600 0.959 . S
C1615 H1601 0.961 . S
C1615 C1614 1.502 . S
C1616 H1602 0.960 . S
C1616 H1603 0.961 . S
C1616 H1604 0.959 . S
C1616 C1614 1.561 . S
C1617 C1614 1.526 . S
C1617 C1618 1.396 . S
C1617 C1622 1.390 . S
C1618 C1612 1.465 . S
C1618 C1617 1.396 . S
C1618 C1619 1.399 . S
C1619 H1605 0.929 . S
C1619 C1618 1.399 . S
C1619 C1620 1.385 . S
C1620 H1606 0.931 . S
C1620 C1619 1.385 . S
C1620 C1621 1.389 . S
C1621 C1620 1.389 . S
C1621 C1622 1.387 . S
C1622 H1607 0.930 . S
C1622 C1617 1.390 . S
C1622 C1621 1.387 . S
H1623 C1635 0.930 . S
H1624 C1637 0.930 . S
H1625 C1638 0.930 . S
H1626 C1642 0.959 . S
H1627 C1642 0.959 . S
H1628 C1642 0.961 . S
H1629 C1643 0.960 . S
H1630 C1643 0.961 . S
H1631 C1643 0.959 . S
H1632 C1646 0.929 . S
H1633 C1647 0.931 . S
H1634 C1649 0.930 . S
C1635 H1623 0.930 . S
C1635 C1636 1.399 . S
C1635 C1640 1.399 . S
C1636 C1635 1.399 . S
C1636 C1637 1.376 . S
C1637 H1624 0.930 . S
C1637 C1636 1.376 . S
C1637 C1638 1.388 . S
C1638 H1625 0.930 . S
C1638 C1637 1.388 . S
C1638 C1639 1.390 . S
C1639 C1638 1.390 . S
C1639 C1640 1.394 . S
C1639 C1645 1.465 . S
C1640 C1635 1.399 . S
C1640 C1639 1.394 . S
C1640 C1641 1.516 . S
C1641 C1640 1.516 . S
C1641 C1642 1.502 . S
C1641 C1643 1.561 . S
C1641 C1644 1.526 . S
C1642 H1626 0.959 . S
C1642 H1627 0.959 . S
C1642 H1628 0.961 . S
C1642 C1641 1.502 . S
C1643 H1629 0.960 . S
C1643 H1630 0.961 . S
C1643 H1631 0.959 . S
C1643 C1641 1.561 . S
C1644 C1641 1.526 . S
C1644 C1645 1.396 . S
C1644 C1649 1.390 . S
C1645 C1639 1.465 . S
C1645 C1644 1.396 . S
C1645 C1646 1.399 . S
C1646 H1632 0.929 . S
C1646 C1645 1.399 . S
C1646 C1647 1.385 . S
C1647 H1633 0.931 . S
C1647 C1646 1.385 . S
C1647 C1648 1.389 . S
C1648 C1647 1.389 . S
C1648 C1649 1.387 . S
C1649 H1634 0.930 . S
C1649 C1644 1.390 . S
C1649 C1648 1.387 . S
C1015 C39 1.901 . S
C1027 C347 1.702 . S
C1042 C91 1.896 . S
C1054 C487 1.591 . S
C1081 C575 1.475 . S
C1069 C128 1.692 . S
C1108 C715 1.543 . S
C1096 C188 1.730 . S
C1135 C829 1.602 . S
C1123 C250 1.811 . S
C1162 C899 0.991 . S
C1150 C304 1.868 . S
C1177 C75 1.773 . S
C1189 C557 1.021 . S
C1204 C144 1.776 . S
C1216 C661 1.235 . S
C1243 C775 1.304 . S
C1231 C198 1.773 . S
C1270 C917 1.486 . S
C1258 C234 1.652 . S
C1285 C294 1.767 . S
C1297 C329 0.990 . S
C1324 C433 1.178 . S
C1312 C29 1.535 . S
C1351 C671 1.616 . S
C1339 C38 2.002 . S
C1366 C92 1.989 . S
C1378 C785 1.488 . S
C1405 C943 1.261 . S
C1393 C135 1.953 . S
C1420 C181 1.655 . S
C1432 C319 1.405 . S
C1447 C251 2.064 . S
C1459 C443 1.463 . S
C1474 C303 1.847 . S
C1486 C547 1.578 . S
C1501 C82 1.789 . S
C1513 C889 1.618 . S
C1540 C373 1.200 . S
C1528 C145 1.987 . S
C1555 C197 1.878 . S
C1567 C461 1.233 . S
C1582 C241 1.805 . S
C1594 C601 1.115 . S
C1609 C287 1.673 . S
C1621 C689 1.147 . S
C1636 C22 1.757 . S
C1648 C803 1.359 . S
