# Generated by pormake.
# Topology nom, (4,4)-cn, num edge types: 1
# Building blocks:
#     Node 0, Type 0, BuildingBlock: MIFKUJ_clean_linker_1, # of connection points: 4
#     Node 1, Type 0, BuildingBlock: MIFKUJ_clean_linker_1, # of connection points: 4
#     Node 2, Type 0, BuildingBlock: MIFKUJ_clean_linker_1, # of connection points: 4
#     Node 3, Type 0, BuildingBlock: MIFKUJ_clean_linker_1, # of connection points: 4
#     Node 4, Type 0, BuildingBlock: MIFKUJ_clean_linker_1, # of connection points: 4
#     Node 5, Type 0, BuildingBlock: MIFKUJ_clean_linker_1, # of connection points: 4
#     Node 6, Type 1, BuildingBlock: AZAVOO_clean_sbu_0, # of connection points: 4
#     Node 7, Type 1, BuildingBlock: AZAVOO_clean_sbu_0, # of connection points: 4
#     Node 8, Type 1, BuildingBlock: AZAVOO_clean_sbu_0, # of connection points: 4
#     Node 9, Type 1, BuildingBlock: AZAVOO_clean_sbu_0, # of connection points: 4
#     Node 10, Type 1, BuildingBlock: AZAVOO_clean_sbu_0, # of connection points: 4
#     Node 11, Type 1, BuildingBlock: AZAVOO_clean_sbu_0, # of connection points: 4
#     Edge 12, Type (0, 1), BuildingBlock: MIFKUJ_clean_linker_0, # of connection points: 2
#     Edge 13, Type (0, 1), BuildingBlock: MIFKUJ_clean_linker_0, # of connection points: 2
#     Edge 14, Type (0, 1), BuildingBlock: MIFKUJ_clean_linker_0, # of connection points: 2
#     Edge 15, Type (0, 1), BuildingBlock: MIFKUJ_clean_linker_0, # of connection points: 2
#     Edge 16, Type (0, 1), BuildingBlock: MIFKUJ_clean_linker_0, # of connection points: 2
#     Edge 17, Type (0, 1), BuildingBlock: MIFKUJ_clean_linker_0, # of connection points: 2
#     Edge 18, Type (0, 1), BuildingBlock: MIFKUJ_clean_linker_0, # of connection points: 2
#     Edge 19, Type (0, 1), BuildingBlock: MIFKUJ_clean_linker_0, # of connection points: 2
#     Edge 20, Type (0, 1), BuildingBlock: MIFKUJ_clean_linker_0, # of connection points: 2
#     Edge 21, Type (0, 1), BuildingBlock: MIFKUJ_clean_linker_0, # of connection points: 2
#     Edge 22, Type (0, 1), BuildingBlock: MIFKUJ_clean_linker_0, # of connection points: 2
#     Edge 23, Type (0, 1), BuildingBlock: MIFKUJ_clean_linker_0, # of connection points: 2
#     Edge 24, Type (0, 1), BuildingBlock: MIFKUJ_clean_linker_0, # of connection points: 2
#     Edge 25, Type (0, 1), BuildingBlock: MIFKUJ_clean_linker_0, # of connection points: 2
#     Edge 26, Type (0, 1), BuildingBlock: MIFKUJ_clean_linker_0, # of connection points: 2
#     Edge 27, Type (0, 1), BuildingBlock: MIFKUJ_clean_linker_0, # of connection points: 2
#     Edge 28, Type (0, 1), BuildingBlock: MIFKUJ_clean_linker_0, # of connection points: 2
#     Edge 29, Type (0, 1), BuildingBlock: MIFKUJ_clean_linker_0, # of connection points: 2
#     Edge 30, Type (0, 1), BuildingBlock: MIFKUJ_clean_linker_0, # of connection points: 2
#     Edge 31, Type (0, 1), BuildingBlock: MIFKUJ_clean_linker_0, # of connection points: 2
#     Edge 32, Type (0, 1), BuildingBlock: MIFKUJ_clean_linker_0, # of connection points: 2
#     Edge 33, Type (0, 1), BuildingBlock: MIFKUJ_clean_linker_0, # of connection points: 2
#     Edge 34, Type (0, 1), BuildingBlock: MIFKUJ_clean_linker_0, # of connection points: 2
#     Edge 35, Type (0, 1), BuildingBlock: MIFKUJ_clean_linker_0, # of connection points: 2
# Relax obj value: 0.034
# Max RMSD: 0.155
# Mean RMSD: 0.122
data_MOF--net-nom--node1-AZAVOO_clean_sbu_0--node2-MIFKUJ_clean_linker_1--edge1-MIFKUJ_clean_linker_0
_symmetry_space_group_name_H-M    P1
_symmetry_Int_Tables_number       1
_symmetry_cell_setting            triclinic
loop_
_symmetry_equiv_pos_as_xyz
'x, y, z'
_cell_length_a     66.396113
_cell_length_b     66.979015
_cell_length_c     68.442536
_cell_angle_alpha  90.867094
_cell_angle_beta   90.884362
_cell_angle_gamma 119.99982
loop_
_atom_site_label
_atom_site_type_symbol
_atom_site_fract_x
_atom_site_fract_y
_atom_site_fract_z
_atom_type_partial_charge
H0 H 0.97943 0.46309 0.285 0.0
H1 H 0.95147 0.44963 0.2575 0.0
H2 H 0.92962 0.49807 0.27502 0.0
H3 H 0.95714 0.51082 0.30286 0.0
H4 H 0.01667 0.51037 0.29385 0.0
H5 H 0.94292 0.45039 0.3224 0.0
H6 H 0.90213 0.43517 0.33092 0.0
H7 H 0.92143 0.49846 0.36317 0.0
H8 H 0.96179 0.51375 0.35415 0.0
H9 H 0.02885 0.54518 0.37149 0.0
H10 H 0.05738 0.55846 0.39879 0.0
H11 H 0.07919 0.5105 0.3799 0.0
H12 H 0.05051 0.49719 0.35285 0.0
H13 H 0.99136 0.49854 0.36266 0.0
H14 H 0.04826 0.56216 0.32416 0.0
H15 H 0.08935 0.59006 0.32025 0.0
H16 H 0.1035 0.5341 0.31209 0.0
H17 H 0.06193 0.50626 0.31526 0.0
C18 C 0.97024 0.48783 0.296 0.0
C19 C 0.96857 0.47076 0.28288 0.0
C20 C 0.95264 0.46319 0.2671 0.0
C21 C 0.93824 0.47277 0.26394 0.0
C22 C 0.94009 0.49 0.27713 0.0
C23 C 0.95591 0.49742 0.29301 0.0
C24 C 0.98715 0.49568 0.31271 0.0
C25 C 0.01103 0.5072 0.30885 0.0
C26 C 0.97999 0.49304 0.33235 0.0
C27 C 0.95532 0.48328 0.33751 0.0
C28 C 0.93827 0.461 0.33118 0.0
C29 C 0.91505 0.45226 0.33619 0.0
C30 C 0.90858 0.46568 0.34763 0.0
C31 C 0.92579 0.48785 0.35409 0.0
C32 C 0.94889 0.49653 0.34909 0.0
C33 C 0.03768 0.52028 0.36019 0.0
C34 C 0.03978 0.53755 0.3733 0.0
C35 C 0.05617 0.54521 0.38876 0.0
C36 C 0.0705 0.5355 0.39147 0.0
C37 C 0.06825 0.51815 0.37829 0.0
C38 C 0.05201 0.51064 0.36278 0.0
C39 C 0.02054 0.51223 0.34369 0.0
C40 C 0.9968 0.50096 0.34759 0.0
C41 C 0.02771 0.51601 0.32417 0.0
C42 C 0.0522 0.53228 0.31988 0.0
C43 C 0.06022 0.55597 0.32123 0.0
C44 C 0.08375 0.57185 0.31926 0.0
C45 C 0.09982 0.56434 0.31612 0.0
C46 C 0.09159 0.54048 0.31435 0.0
C47 C 0.0679 0.52455 0.31615 0.0
H48 H 0.44866 0.97295 0.51835 0.0
H49 H 0.42442 0.93288 0.52757 0.0
H50 H 0.47368 0.91624 0.50232 0.0
H51 H 0.49784 0.95648 0.49299 0.0
H52 H 0.49342 0.00484 0.52842 0.0
H53 H 0.44943 0.96341 0.47017 0.0
H54 H 0.43656 0.93293 0.44507 0.0
H55 H 0.50728 0.96271 0.4256 0.0
H56 H 0.52018 0.99222 0.45156 0.0
H57 H 0.55334 0.0619 0.46737 0.0
H58 H 0.57154 0.10185 0.45687 0.0
H59 H 0.51739 0.10914 0.48459 0.0
H60 H 0.49962 0.06941 0.4953 0.0
H61 H 0.51016 0.02552 0.45892 0.0
H62 H 0.55396 0.06891 0.5149 0.0
H63 H 0.56811 0.09779 0.5416 0.0
H64 H 0.49948 0.0647 0.56563 0.0
H65 H 0.48504 0.03639 0.53847 0.0
C66 C 0.47496 0.96765 0.50491 0.0
C67 C 0.45433 0.96071 0.51494 0.0
C68 C 0.44052 0.93781 0.52022 0.0
C69 C 0.44715 0.92139 0.51568 0.0
C70 C 0.46797 0.92843 0.5058 0.0
C71 C 0.48182 0.9514 0.50053 0.0
C72 C 0.48891 0.99185 0.49879 0.0
C73 C 0.4969 0.00944 0.51321 0.0
C74 C 0.49405 0.99766 0.47899 0.0
C75 C 0.48586 0.97985 0.46302 0.0
C76 C 0.4622 0.96319 0.46065 0.0
C77 C 0.45482 0.9459 0.44611 0.0
C78 C 0.47088 0.94519 0.43335 0.0
C79 C 0.49447 0.96235 0.43542 0.0
C80 C 0.50187 0.97944 0.45012 0.0
C81 C 0.52527 0.06279 0.48223 0.0
C82 C 0.54546 0.07217 0.47118 0.0
C83 C 0.55578 0.09496 0.46516 0.0
C84 C 0.54596 0.10872 0.46994 0.0
C85 C 0.52567 0.09919 0.48098 0.0
C86 C 0.51542 0.07645 0.48703 0.0
C87 C 0.51421 0.03859 0.48853 0.0
C88 C 0.5068 0.02099 0.47415 0.0
C89 C 0.50964 0.03278 0.5084 0.0
C90 C 0.51831 0.05058 0.52446 0.0
C91 C 0.54179 0.06811 0.52564 0.0
C92 C 0.54991 0.08456 0.54093 0.0
C93 C 0.53485 0.08343 0.5556 0.0
C94 C 0.51144 0.06584 0.55452 0.0
C95 C 0.50322 0.04966 0.53904 0.0
H96 H 0.54291 0.558 0.67762 0.0
H97 H 0.53256 0.57578 0.7041 0.0
H98 H 0.46115 0.54018 0.68258 0.0
H99 H 0.47134 0.52132 0.65708 0.0
H100 H 0.52805 0.51299 0.67041 0.0
H101 H 0.52329 0.57394 0.63091 0.0
H102 H 0.50148 0.59235 0.61955 0.0
H103 H 0.44344 0.52518 0.60299 0.0
H104 H 0.4659 0.50737 0.61324 0.0
H105 H 0.49951 0.47394 0.59174 0.0
H106 H 0.5124 0.45827 0.56526 0.0
H107 H 0.58275 0.49602 0.58887 0.0
H108 H 0.56982 0.51172 0.61525 0.0
H109 H 0.51172 0.51778 0.60017 0.0
H110 H 0.51035 0.45673 0.63176 0.0
H111 H 0.52203 0.42956 0.64287 0.0
H112 H 0.57804 0.48391 0.67768 0.0
H113 H 0.56679 0.51138 0.66579 0.0
C114 C 0.50801 0.53862 0.66513 0.0
C115 C 0.52502 0.55401 0.67866 0.0
C116 C 0.5191 0.56434 0.69369 0.0
C117 C 0.49602 0.55953 0.69548 0.0
C118 C 0.47904 0.54412 0.68184 0.0
C119 C 0.48493 0.53359 0.66699 0.0
C120 C 0.51435 0.52724 0.64956 0.0
C121 C 0.52499 0.51449 0.65502 0.0
C122 C 0.50901 0.5279 0.62957 0.0
C123 C 0.49616 0.53936 0.62285 0.0
C124 C 0.50592 0.56334 0.62466 0.0
C125 C 0.49334 0.57377 0.61828 0.0
C126 C 0.47064 0.56032 0.61021 0.0
C127 C 0.46103 0.53625 0.60857 0.0
C128 C 0.47376 0.52595 0.6146 0.0
C129 C 0.53371 0.49396 0.60545 0.0
C130 C 0.51769 0.47875 0.59124 0.0
C131 C 0.52502 0.46968 0.57624 0.0
C132 C 0.54856 0.47594 0.57506 0.0
C133 C 0.56453 0.49102 0.5894 0.0
C134 C 0.55715 0.49989 0.6045 0.0
C135 C 0.52615 0.50423 0.62098 0.0
C136 C 0.51525 0.51667 0.61553 0.0
C137 C 0.5303 0.5024 0.64102 0.0
C138 C 0.53791 0.48618 0.6477 0.0
C139 C 0.52539 0.46293 0.64153 0.0
C140 C 0.53191 0.44732 0.6481 0.0
C141 C 0.55092 0.45454 0.66122 0.0
C142 C 0.56348 0.47786 0.6674 0.0
C143 C 0.55697 0.49353 0.66074 0.0
H144 H 0.03723 0.57101 0.79169 0.0
H145 H 0.06345 0.58149 0.76431 0.0
H146 H 0.07179 0.52242 0.77493 0.0
H147 H 0.04668 0.5131 0.80307 0.0
H148 H 0.99463 0.52127 0.79503 0.0
H149 H 0.06858 0.57867 0.82593 0.0
H150 H 0.10925 0.59359 0.83609 0.0
H151 H 0.08897 0.53253 0.86954 0.0
H152 H 0.04849 0.51739 0.85897 0.0
H153 H 0.9848 0.4915 0.87496 0.0
H154 H 0.95865 0.48219 0.90228 0.0
H155 H 0.93242 0.52429 0.878 0.0
H156 H 0.95807 0.53279 0.85035 0.0
H157 H 0.01937 0.53251 0.86496 0.0
H158 H 0.95243 0.47254 0.83666 0.0
H159 H 0.91362 0.44621 0.82334 0.0
H160 H 0.91988 0.49834 0.78345 0.0
H161 H 0.95833 0.52515 0.79766 0.0
C162 C 0.04027 0.54145 0.79939 0.0
C163 C 0.04496 0.56053 0.78816 0.0
C164 C 0.05977 0.56631 0.77238 0.0
C165 C 0.06968 0.55272 0.7672 0.0
C166 C 0.06486 0.53355 0.7786 0.0
C167 C 0.0504 0.52808 0.79464 0.0
C168 C 0.02366 0.53475 0.81538 0.0
C169 C -6e-05 0.52417 0.81037 0.0
C170 C 0.03079 0.53725 0.83525 0.0
C171 C 0.0555 0.54673 0.84143 0.0
C172 C 0.07292 0.56833 0.8352 0.0
C173 C 0.09612 0.5769 0.84109 0.0
C174 C 0.10221 0.5642 0.85361 0.0
C175 C 0.08472 0.54278 0.86007 0.0
C176 C 0.06161 0.53411 0.85399 0.0
C177 C 0.97334 0.5128 0.86064 0.0
C178 C 0.9733 0.4986 0.8755 0.0
C179 C 0.95844 0.49344 0.89118 0.0
C180 C 0.94354 0.50266 0.89248 0.0
C181 C 0.94342 0.51664 0.87738 0.0
C182 C 0.95812 0.52159 0.86158 0.0
C183 C 0.99014 0.51937 0.84468 0.0
C184 C 0.01392 0.52991 0.84966 0.0
C185 C 0.98298 0.51579 0.82474 0.0
C186 C 0.95827 0.50099 0.81836 0.0
C187 C 0.9452 0.47863 0.8255 0.0
C188 C 0.92313 0.4634 0.81759 0.0
C189 C 0.91375 0.47004 0.80212 0.0
C190 C 0.9265 0.4927 0.79543 0.0
C191 C 0.94855 0.50802 0.80348 0.0
H192 H 0.54859 0.06242 0.03221 0.0
H193 H 0.57103 0.10345 0.04093 0.0
H194 H 0.53145 0.11741 0.99828 0.0
H195 H 0.50785 0.07596 0.99027 0.0
H196 H 0.50617 0.03177 0.0353 0.0
H197 H 0.5552 0.0666 0.97895 0.0
H198 H 0.56867 0.09212 0.95099 0.0
H199 H 0.49891 0.05697 0.92595 0.0
H200 H 0.48547 0.03178 0.95401 0.0
H201 H 0.45846 0.96396 0.97106 0.0
H202 H 0.44764 0.92433 0.96194 0.0
H203 H 0.49705 0.92666 0.00509 0.0
H204 H 0.50849 0.96651 0.01349 0.0
H205 H 0.49856 0.00185 0.96728 0.0
H206 H 0.44994 0.96559 0.0215 0.0
H207 H 0.43519 0.94004 0.04933 0.0
H208 H 0.5029 0.97771 0.07804 0.0
H209 H 0.51766 0.00284 0.05005 0.0
C210 C 0.52665 0.066 0.01039 0.0
C211 C 0.54438 0.07416 0.02491 0.0
C212 C 0.55723 0.09759 0.02989 0.0
C213 C 0.55286 0.11341 0.02026 0.0
C214 C 0.53509 0.10542 0.00583 0.0
C215 C 0.52177 0.08181 0.00117 0.0
C216 C 0.5136 0.04094 0.00517 0.0
C217 C 0.5047 0.02528 0.02041 0.0
C218 C 0.5107 0.03229 0.98568 0.0
C219 C 0.51926 0.04753 0.96869 0.0
C220 C 0.5428 0.06452 0.9675 0.0
C221 C 0.55047 0.07906 0.95155 0.0
C222 C 0.53481 0.07653 0.93635 0.0
C223 C 0.51139 0.05917 0.93737 0.0
C224 C 0.50369 0.04482 0.9534 0.0
C225 C 0.48412 0.96818 0.99309 0.0
C226 C 0.46686 0.95587 0.97861 0.0
C227 C 0.46056 0.93314 0.97353 0.0
C228 C 0.47148 0.92229 0.98278 0.0
C229 C 0.48847 0.93455 0.99751 0.0
C230 C 0.49482 0.95727 0.00252 0.0
C231 C 0.49211 0.99285 0.99752 0.0
C232 C 0.49987 0.00837 0.98213 0.0
C233 C 0.49398 0.00143 0.01685 0.0
C234 C 0.48493 0.98598 0.03366 0.0
C235 C 0.46161 0.96824 0.03375 0.0
C236 C 0.45316 0.95381 0.04972 0.0
C237 C 0.46792 0.9569 0.06583 0.0
C238 C 0.49121 0.97478 0.06574 0.0
C239 C 0.49961 0.98923 0.04982 0.0
H240 H 0.4579 0.45913 0.17444 0.0
H241 H 0.46887 0.44465 0.2029 0.0
H242 H 0.54144 0.49228 0.1925 0.0
H243 H 0.53026 0.50734 0.16471 0.0
H244 H 0.46764 0.50401 0.16881 0.0
H245 H 0.48823 0.45032 0.1373 0.0
H246 H 0.51755 0.43843 0.13525 0.0
H247 H 0.56696 0.50562 0.11419 0.0
H248 H 0.53787 0.51759 0.11681 0.0
H249 H 0.5047 0.54277 0.09253 0.0
H250 H 0.49533 0.55958 0.06484 0.0
H251 H 0.42399 0.52757 0.08262 0.0
H252 H 0.43304 0.50981 0.10984 0.0
H253 H 0.49458 0.50348 0.10175 0.0
H254 H 0.48475 0.56036 0.13302 0.0
H255 H 0.47118 0.58506 0.14705 0.0
H256 H 0.41554 0.5261 0.17477 0.0
H257 H 0.42847 0.50128 0.15979 0.0
C258 C 0.49327 0.48405 0.16731 0.0
C259 C 0.47616 0.46643 0.17835 0.0
C260 C 0.48247 0.45808 0.19451 0.0
C261 C 0.50604 0.46727 0.19995 0.0
C262 C 0.52312 0.485 0.18887 0.0
C263 C 0.51679 0.49344 0.17281 0.0
C264 C 0.48647 0.49317 0.15044 0.0
C265 C 0.47291 0.50339 0.15399 0.0
C266 C 0.49471 0.49355 0.13145 0.0
C267 C 0.51095 0.48492 0.1274 0.0
C268 C 0.50531 0.46239 0.13206 0.0
C269 C 0.52205 0.45559 0.13082 0.0
C270 C 0.54467 0.47121 0.12483 0.0
C271 C 0.54984 0.49336 0.11924 0.0
C272 C 0.53314 0.50013 0.12048 0.0
C273 C 0.46964 0.52505 0.10344 0.0
C274 C 0.48697 0.53914 0.09044 0.0
C275 C 0.48165 0.54882 0.07465 0.0
C276 C 0.45898 0.54489 0.07169 0.0
C277 C 0.44167 0.53105 0.08475 0.0
C278 C 0.44688 0.52098 0.10034 0.0
C279 C 0.47533 0.51436 0.11997 0.0
C280 C 0.48865 0.50372 0.11639 0.0
C281 C 0.46786 0.51465 0.13922 0.0
C282 C 0.45754 0.52891 0.14521 0.0
C283 C 0.46918 0.55261 0.14159 0.0
C284 C 0.46162 0.56679 0.1499 0.0
C285 C 0.44247 0.55763 0.16229 0.0
C286 C 0.43023 0.53372 0.16521 0.0
C287 C 0.43768 0.51951 0.15673 0.0
Mg288 Mg 0.6184 0.37038 0.36966 0.0
O289 O 0.61426 0.3897 0.39588 0.0
O290 O 0.63017 0.42674 0.38799 0.0
Mg291 Mg 0.64291 0.43076 0.35671 0.0
C292 C 0.61987 0.41053 0.40007 0.0
C293 C 0.61557 0.32524 0.38138 0.0
O294 O 0.62424 0.32836 0.36382 0.0
O295 O 0.65703 0.38655 0.37658 0.0
O296 O 0.6712 0.4226 0.36657 0.0
O297 O 0.58404 0.36279 0.35704 0.0
O298 O 0.61749 0.39403 0.35099 0.0
C299 C 0.67411 0.40662 0.37359 0.0
C300 C 0.59518 0.38256 0.34876 0.0
O301 O 0.61087 0.33999 0.38853 0.0
Mg302 Mg 0.26502 0.64281 0.5892 0.0
O303 O 0.24137 0.62275 0.56276 0.0
O304 O 0.22343 0.58535 0.56972 0.0
Mg305 Mg 0.23534 0.58159 0.60028 0.0
C306 C 0.22721 0.60161 0.55819 0.0
C307 C 0.28944 0.69381 0.58043 0.0
O308 O 0.28252 0.69294 0.59844 0.0
O309 O 0.29103 0.63159 0.58148 0.0
O310 O 0.27258 0.59452 0.58965 0.0
O311 O 0.23579 0.64499 0.60257 0.0
O312 O 0.24358 0.61702 0.60781 0.0
C313 C 0.29041 0.61237 0.58332 0.0
C314 C 0.23038 0.62569 0.61077 0.0
O315 O 0.28425 0.67507 0.57142 0.0
Mg316 Mg 0.63516 0.27006 0.75792 0.0
O317 O 0.62645 0.24499 0.73173 0.0
O318 O 0.64103 0.22214 0.73883 0.0
Mg319 Mg 0.65901 0.23259 0.76903 0.0
C320 C 0.62995 0.22838 0.72736 0.0
C321 C 0.60542 0.2869 0.73509 0.0
O322 O 0.58863 0.26648 0.73998 0.0
O323 O 0.67272 0.2904 0.7491 0.0
O324 O 0.68711 0.26802 0.75813 0.0
O325 O 0.60239 0.24541 0.77249 0.0
O326 O 0.63582 0.24608 0.77646 0.0
C327 C 0.68973 0.28678 0.75121 0.0
C328 C 0.614 0.23651 0.7801 0.0
O329 O 0.62629 0.293 0.73994 0.0
Mg330 Mg 0.39256 0.66028 0.87133 0.0
O331 O 0.39968 0.64135 0.89585 0.0
O332 O 0.38561 0.60483 0.88546 0.0
Mg333 Mg 0.36912 0.60023 0.85496 0.0
C334 C 0.39596 0.62093 0.89839 0.0
C335 C 0.42121 0.70361 0.8994 0.0
O336 O 0.43794 0.69924 0.8954 0.0
O337 O 0.35444 0.64269 0.87919 0.0
O338 O 0.34081 0.60684 0.86729 0.0
O339 O 0.42596 0.6687 0.85692 0.0
O340 O 0.39228 0.63725 0.85047 0.0
C341 C 0.33769 0.62225 0.87565 0.0
C342 C 0.41423 0.64915 0.84748 0.0
O343 O 0.40095 0.69051 0.89211 0.0
Mg344 Mg 0.74632 0.4001 0.06439 0.0
O345 O 0.77162 0.40423 0.08964 0.0
O346 O 0.79584 0.39344 0.07728 0.0
Mg347 Mg 0.78752 0.3842 0.04467 0.0
C348 C 0.78881 0.40073 0.09153 0.0
C349 C 0.72657 0.42054 0.09513 0.0
O350 O 0.74818 0.43761 0.09507 0.0
O351 O 0.72768 0.36101 0.06635 0.0
O352 O 0.75206 0.35242 0.0511 0.0
O353 O 0.76991 0.43641 0.05508 0.0
O354 O 0.77166 0.40596 0.04454 0.0
C355 C 0.73265 0.34634 0.05916 0.0
C356 C 0.78014 0.4279 0.04478 0.0
O357 O 0.72093 0.40239 0.08496 0.0
Mg358 Mg 0.36947 0.75374 0.23498 0.0
O359 O 0.3881 0.77586 0.26245 0.0
O360 O 0.42605 0.79606 0.25624 0.0
Mg361 Mg 0.43126 0.7887 0.22456 0.0
C362 C 0.40909 0.79027 0.26768 0.0
C363 C 0.32858 0.73641 0.26549 0.0
O364 O 0.33832 0.75833 0.27065 0.0
O365 O 0.38423 0.7302 0.24052 0.0
O366 O 0.42117 0.75142 0.23169 0.0
O367 O 0.36377 0.78159 0.22357 0.0
O368 O 0.39469 0.77839 0.21771 0.0
C369 C 0.40418 0.73252 0.23748 0.0
C370 C 0.38391 0.78976 0.21565 0.0
O371 O 0.33742 0.73021 0.25204 0.0
H372 H 0.13146 0.56319 0.29149 0.0
H373 H 0.17229 0.59261 0.28814 0.0
H374 H 0.16588 0.63397 0.33382 0.0
H375 H 0.12527 0.60435 0.33776 0.0
H376 H 0.1849 0.658 0.29974 0.0
H377 H 0.19687 0.61015 0.34377 0.0
H378 H 0.19238 0.57378 0.35608 0.0
H379 H 0.22378 0.56543 0.30455 0.0
H380 H 0.22818 0.60161 0.29178 0.0
H381 H 0.30474 0.74286 0.29501 0.0
H382 H 0.2677 0.71402 0.30847 0.0
H383 H 0.2662 0.662 0.26953 0.0
H384 H 0.30326 0.69044 0.25635 0.0
H385 H 0.25198 0.64483 0.30469 0.0
H386 H 0.23546 0.68944 0.25895 0.0
H387 H 0.23912 0.72509 0.24564 0.0
H388 H 0.2154 0.73874 0.29954 0.0
H389 H 0.21189 0.70329 0.31326 0.0
C390 C 0.13882 0.57831 0.3011 0.0
C391 C 0.125 0.58147 0.31478 0.0
C392 C 0.16214 0.59513 0.29913 0.0
C393 C 0.17204 0.61542 0.31076 0.0
C394 C 0.15849 0.61846 0.32466 0.0
C395 C 0.13525 0.60157 0.32678 0.0
C396 C 0.19616 0.63402 0.30755 0.0
C397 C 0.19967 0.65531 0.3012 0.0
C398 C 0.21525 0.63027 0.30911 0.0
C399 C 0.21268 0.60851 0.31674 0.0
C400 C 0.20265 0.60047 0.33498 0.0
C401 C 0.20015 0.5799 0.34206 0.0
C402 C 0.20774 0.56727 0.33109 0.0
C403 C 0.21789 0.57522 0.31303 0.0
C404 C 0.22042 0.59577 0.30587 0.0
C405 C 0.29659 0.72525 0.28942 0.0
C406 C 0.30684 0.719 0.27449 0.0
C407 C 0.27541 0.7088 0.2971 0.0
C408 C 0.26406 0.68592 0.28983 0.0
C409 C 0.27465 0.67954 0.27537 0.0
C410 C 0.29581 0.69588 0.26778 0.0
C411 C 0.24068 0.66871 0.29654 0.0
C412 C 0.23728 0.64766 0.30352 0.0
C413 C 0.22162 0.6726 0.29543 0.0
C414 C 0.22369 0.69388 0.2872 0.0
C415 C 0.23121 0.70015 0.26801 0.0
C416 C 0.23322 0.7203 0.26039 0.0
C417 C 0.22757 0.73421 0.27176 0.0
C418 C 0.21982 0.72797 0.29077 0.0
C419 C 0.21781 0.70785 0.29847 0.0
H420 H 0.22913 0.7498 0.26583 0.0
H421 H 0.20579 0.55136 0.33659 0.0
H422 H 0.56428 0.12484 0.4342 0.0
H423 H 0.57963 0.16382 0.42221 0.0
H424 H 0.56597 0.18574 0.47757 0.0
H425 H 0.55097 0.14684 0.48986 0.0
H426 H 0.54905 0.19863 0.44654 0.0
H427 H 0.62084 0.20339 0.46577 0.0
H428 H 0.6501 0.19102 0.46733 0.0
H429 H 0.65742 0.19689 0.40513 0.0
H430 H 0.62794 0.20898 0.40315 0.0
H431 H 0.60206 0.31566 0.41929 0.0
H432 H 0.59339 0.28095 0.43702 0.0
H433 H 0.60944 0.25335 0.38603 0.0
H434 H 0.61871 0.28821 0.36839 0.0
H435 H 0.62684 0.24505 0.41792 0.0
H436 H 0.55277 0.23635 0.3981 0.0
H437 H 0.52281 0.24779 0.39583 0.0
H438 H 0.51919 0.24836 0.45841 0.0
H439 H 0.54936 0.2372 0.46105 0.0
C440 C 0.56495 0.13803 0.44398 0.0
C441 C 0.55638 0.1327 0.46299 0.0
C442 C 0.57368 0.16029 0.43708 0.0
C443 C 0.57407 0.17768 0.44906 0.0
C444 C 0.56578 0.17253 0.4681 0.0
C445 C 0.55712 0.15028 0.47505 0.0
C446 C 0.58202 0.20089 0.44128 0.0
C447 C 0.56622 0.20901 0.44062 0.0
C448 C 0.60422 0.21411 0.43317 0.0
C449 C 0.62203 0.20691 0.4343 0.0
C450 C 0.62855 0.20187 0.4524 0.0
C451 C 0.6452 0.19494 0.45336 0.0
C452 C 0.65558 0.19313 0.43634 0.0
C453 C 0.64936 0.19829 0.41831 0.0
C454 C 0.63269 0.20521 0.41726 0.0
C455 C 0.60381 0.30223 0.41187 0.0
C456 C 0.6109 0.3046 0.39238 0.0
C457 C 0.5988 0.28238 0.42201 0.0
C458 C 0.60045 0.26442 0.41276 0.0
C459 C 0.60803 0.26699 0.39346 0.0
C460 C 0.61324 0.28689 0.38337 0.0
C461 C 0.59375 0.24266 0.42294 0.0
C462 C 0.60976 0.2348 0.42403 0.0
C463 C 0.57168 0.22957 0.43135 0.0
C464 C 0.55349 0.2362 0.42978 0.0
C465 C 0.5457 0.23908 0.41138 0.0
C466 C 0.52867 0.24549 0.41002 0.0
C467 C 0.51916 0.24886 0.42697 0.0
C468 C 0.52661 0.24578 0.4453 0.0
C469 C 0.54366 0.2394 0.44673 0.0
H470 H 0.50597 0.25382 0.42589 0.0
H471 H 0.66847 0.18776 0.43711 0.0
H472 H 0.47049 0.59806 0.62665 0.0
H473 H 0.44514 0.61331 0.61805 0.0
H474 H 0.41231 0.56107 0.57231 0.0
H475 H 0.43905 0.54715 0.57953 0.0
H476 H 0.41308 0.59697 0.56042 0.0
H477 H 0.39008 0.55594 0.6205 0.0
H478 H 0.39522 0.54704 0.65443 0.0
H479 H 0.41135 0.6149 0.67361 0.0
H480 H 0.4066 0.62431 0.63973 0.0
H481 H 0.2939 0.57447 0.57394 0.0
H482 H 0.32939 0.57177 0.57412 0.0
H483 H 0.37055 0.64468 0.58725 0.0
H484 H 0.33528 0.64774 0.5865 0.0
H485 H 0.3681 0.60329 0.61499 0.0
H486 H 0.38656 0.64102 0.55223 0.0
H487 H 0.37718 0.64505 0.51804 0.0
H488 H 0.36428 0.57688 0.50396 0.0
H489 H 0.37324 0.57232 0.53818 0.0
C490 C 0.45836 0.59017 0.6144 0.0
C491 C 0.45662 0.57102 0.60405 0.0
C492 C 0.44359 0.59874 0.60968 0.0
C493 C 0.42629 0.58792 0.59491 0.0
C494 C 0.42532 0.5696 0.58391 0.0
C495 C 0.44043 0.5614 0.58829 0.0
C496 C 0.40833 0.59467 0.5916 0.0
C497 C 0.40327 0.59831 0.57239 0.0
C498 C 0.39548 0.59655 0.60717 0.0
C499 C 0.39826 0.59091 0.62756 0.0
C500 C 0.39488 0.56901 0.63194 0.0
C501 C 0.3977 0.56387 0.65116 0.0
C502 C 0.40368 0.58042 0.66616 0.0
C503 C 0.40677 0.60212 0.66197 0.0
C504 C 0.40401 0.60737 0.64277 0.0
C505 C 0.31056 0.59002 0.57639 0.0
C506 C 0.31183 0.6113 0.58024 0.0
C507 C 0.33077 0.58845 0.57645 0.0
C508 C 0.35245 0.60805 0.58064 0.0
C509 C 0.35392 0.62945 0.58381 0.0
C510 C 0.33377 0.63114 0.58333 0.0
C511 C 0.37303 0.60548 0.58395 0.0
C512 C 0.37833 0.60239 0.60315 0.0
C513 C 0.38562 0.60351 0.56837 0.0
C514 C 0.38029 0.60624 0.54781 0.0
C515 C 0.38146 0.62679 0.5419 0.0
C516 C 0.37629 0.6292 0.5225 0.0
C517 C 0.37006 0.6112 0.50885 0.0
C518 C 0.36907 0.59079 0.51456 0.0
C519 C 0.37421 0.5883 0.53395 0.0
H520 H 0.36608 0.6131 0.49383 0.0
H521 H 0.40586 0.57641 0.68103 0.0
H522 H 0.89825 0.42459 0.79347 0.0
H523 H 0.86107 0.3962 0.77854 0.0
H524 H 0.84166 0.44849 0.77274 0.0
H525 H 0.87852 0.47687 0.78865 0.0
H526 H 0.80737 0.4113 0.78699 0.0
H527 H 0.85581 0.42602 0.73242 0.0
H528 H 0.88981 0.43105 0.71434 0.0
H529 H 0.87075 0.36079 0.72479 0.0
H530 H 0.83681 0.35541 0.74318 0.0
H531 H 0.70276 0.33052 0.73969 0.0
H532 H 0.74192 0.36404 0.74122 0.0
H533 H 0.7699 0.32059 0.75742 0.0
H534 H 0.73087 0.28689 0.75581 0.0
H535 H 0.79951 0.35674 0.73354 0.0
H536 H 0.75521 0.34497 0.79239 0.0
H537 H 0.72127 0.33995 0.81058 0.0
H538 H 0.73315 0.40566 0.79143 0.0
H539 H 0.767 0.4109 0.77289 0.0
C540 C 0.88602 0.43007 0.78919 0.0
C541 C 0.8913 0.453 0.79243 0.0
C542 C 0.8649 0.41387 0.78033 0.0
C543 C 0.84871 0.42028 0.77419 0.0
C544 C 0.85397 0.44319 0.77722 0.0
C545 C 0.87509 0.45942 0.78623 0.0
C546 C 0.82571 0.40262 0.76587 0.0
C547 C 0.80568 0.39976 0.77498 0.0
C548 C 0.82346 0.38726 0.75041 0.0
C549 C 0.84383 0.39037 0.7393 0.0
C550 C 0.85895 0.41168 0.73099 0.0
C551 C 0.8782 0.41459 0.72066 0.0
C552 C 0.88246 0.39626 0.71845 0.0
C553 C 0.86743 0.37497 0.72652 0.0
C554 C 0.84817 0.37198 0.73687 0.0
C555 C 0.71726 0.32794 0.74313 0.0
C556 C 0.71359 0.30604 0.74801 0.0
C557 C 0.73964 0.34716 0.74401 0.0
C558 C 0.75869 0.34481 0.7498 0.0
C559 C 0.75538 0.32275 0.753 0.0
C560 C 0.73301 0.30351 0.75215 0.0
C561 C 0.78145 0.3654 0.75486 0.0
C562 C 0.80133 0.36869 0.74524 0.0
C563 C 0.78364 0.38125 0.76981 0.0
C564 C 0.76344 0.3782 0.78108 0.0
C565 C 0.75047 0.35826 0.79195 0.0
C566 C 0.73127 0.35539 0.80233 0.0
C567 C 0.72501 0.37244 0.80211 0.0
C568 C 0.73799 0.39244 0.79155 0.0
C569 C 0.75719 0.39538 0.78111 0.0
H570 H 0.71014 0.37019 0.81016 0.0
H571 H 0.89737 0.39854 0.71045 0.0
H572 H 0.50177 0.9062 0.97808 0.0
H573 H 0.49303 0.86796 0.96663 0.0
H574 H 0.42025 0.84692 0.9609 0.0
H575 H 0.42874 0.88497 0.9731 0.0
H576 H 0.42614 0.81311 0.97623 0.0
H577 H 0.45424 0.86251 0.92117 0.0
H578 H 0.48179 0.8969 0.90334 0.0
H579 H 0.53485 0.8787 0.91112 0.0
H580 H 0.50769 0.84435 0.92924 0.0
H581 H 0.39058 0.71764 0.91 0.0
H582 H 0.39933 0.75358 0.92685 0.0
H583 H 0.47172 0.77293 0.9319 0.0
H584 H 0.46317 0.73709 0.91482 0.0
H585 H 0.46656 0.80737 0.91787 0.0
H586 H 0.43744 0.75669 0.97182 0.0
H587 H 0.40942 0.72219 0.98926 0.0
H588 H 0.35772 0.74246 0.98313 0.0
H589 H 0.38533 0.77693 0.9654 0.0
C590 C 0.48383 0.89335 0.97471 0.0
C591 C 0.46595 0.8987 0.97647 0.0
C592 C 0.4789 0.87155 0.96797 0.0
C593 C 0.45603 0.85469 0.96264 0.0
C594 C 0.43804 0.85972 0.96485 0.0
C595 C 0.44295 0.88153 0.97165 0.0
C596 C 0.45103 0.83204 0.95427 0.0
C597 C 0.43477 0.81182 0.96334 0.0
C598 C 0.46266 0.83039 0.93769 0.0
C599 C 0.479 0.85099 0.92673 0.0
C600 C 0.47183 0.86593 0.91921 0.0
C601 C 0.48737 0.8854 0.90903 0.0
C602 C 0.51007 0.89001 0.90615 0.0
C603 C 0.51727 0.87512 0.91339 0.0
C604 C 0.50181 0.85564 0.9236 0.0
C605 C 0.40834 0.72942 0.91485 0.0
C606 C 0.4262 0.72452 0.911 0.0
C607 C 0.41329 0.74993 0.92457 0.0
C608 C 0.43616 0.76589 0.93075 0.0
C609 C 0.45395 0.76085 0.92726 0.0
C610 C 0.44902 0.74032 0.91754 0.0
C611 C 0.44169 0.78838 0.93984 0.0
C612 C 0.45802 0.80862 0.93084 0.0
C613 C 0.43004 0.79 0.95642 0.0
C614 C 0.4134 0.76929 0.96712 0.0
C615 C 0.42004 0.7537 0.97404 0.0
C616 C 0.40424 0.73416 0.98401 0.0
C617 C 0.38179 0.7301 0.98726 0.0
C618 C 0.37511 0.74561 0.98058 0.0
C619 C 0.39083 0.76516 0.97059 0.0
H620 H 0.36958 0.71497 0.99498 0.0
H621 H 0.52208 0.90509 0.89826 0.0
H622 H 0.58964 0.4974 0.13806 0.0
H623 H 0.62054 0.48774 0.13729 0.0
H624 H 0.57242 0.42091 0.11168 0.0
H625 H 0.54132 0.4305 0.11236 0.0
H626 H 0.60104 0.41843 0.13984 0.0
H627 H 0.60928 0.46346 0.08317 0.0
H628 H 0.61332 0.49717 0.06572 0.0
H629 H 0.67672 0.54131 0.09811 0.0
H630 H 0.67287 0.50789 0.11596 0.0
H631 H 0.67967 0.3904 0.09446 0.0
H632 H 0.64918 0.39822 0.10452 0.0
H633 H 0.70119 0.46576 0.12623 0.0
H634 H 0.7319 0.45824 0.11582 0.0
H635 H 0.67132 0.46869 0.10234 0.0
H636 H 0.66479 0.42313 0.15736 0.0
H637 H 0.66078 0.38939 0.17472 0.0
H638 H 0.59469 0.3462 0.14568 0.0
H639 H 0.59845 0.37963 0.12793 0.0
C640 C 0.58564 0.48069 0.13215 0.0
C641 C 0.56311 0.46483 0.125 0.0
C642 C 0.6033 0.47515 0.13182 0.0
C643 C 0.59885 0.45372 0.12419 0.0
C644 C 0.57621 0.43754 0.11763 0.0
C645 C 0.55848 0.44305 0.11801 0.0
C646 C 0.61806 0.44863 0.12233 0.0
C647 C 0.61634 0.42925 0.1315 0.0
C648 C 0.63824 0.46312 0.11185 0.0
C649 C 0.64066 0.48321 0.10104 0.0
C650 C 0.62399 0.48038 0.08668 0.0
C651 C 0.62626 0.49943 0.0767 0.0
C652 C 0.64523 0.52138 0.08084 0.0
C653 C 0.66201 0.52431 0.09493 0.0
C654 C 0.6598 0.50532 0.10498 0.0
C655 C 0.68467 0.40677 0.1017 0.0
C656 C 0.70825 0.42379 0.10417 0.0
C657 C 0.66717 0.41117 0.10755 0.0
C658 C 0.67287 0.43256 0.11619 0.0
C659 C 0.69639 0.44915 0.11955 0.0
C660 C 0.71392 0.4448 0.11364 0.0
C661 C 0.65442 0.43842 0.11985 0.0
C662 C 0.6562 0.45794 0.1109 0.0
C663 C 0.63434 0.42403 0.13052 0.0
C664 C 0.632 0.40387 0.14119 0.0
C665 C 0.64949 0.40641 0.15455 0.0
C666 C 0.64724 0.38734 0.16449 0.0
C667 C 0.62752 0.36566 0.16127 0.0
C668 C 0.60997 0.36301 0.14814 0.0
C669 C 0.61213 0.38202 0.13816 0.0
H670 H 0.62581 0.35092 0.16898 0.0
H671 H 0.64696 0.5361 0.0731 0.0
H672 H 0.43564 0.88223 0.49396 0.0
H673 H 0.40998 0.84217 0.50303 0.0
H674 H 0.39881 0.86563 0.55872 0.0
H675 H 0.42501 0.90554 0.55006 0.0
H676 H 0.4058 0.83001 0.563 0.0
H677 H 0.35867 0.8485 0.52072 0.0
H678 H 0.34917 0.86137 0.49013 0.0
H679 H 0.34934 0.80573 0.45828 0.0
H680 H 0.35915 0.79271 0.48867 0.0
H681 H 0.3038 0.73652 0.59633 0.0
H682 H 0.33132 0.77374 0.58305 0.0
H683 H 0.33742 0.7396 0.53142 0.0
H684 H 0.3096 0.7021 0.54456 0.0
H685 H 0.33502 0.77854 0.52285 0.0
H686 H 0.37913 0.7583 0.56566 0.0
H687 H 0.38833 0.74534 0.59633 0.0
H688 H 0.39393 0.8043 0.62715 0.0
H689 H 0.38443 0.81744 0.59671 0.0
C690 C 0.42794 0.87881 0.50823 0.0
C691 C 0.43224 0.89705 0.52126 0.0
C692 C 0.41311 0.85594 0.51331 0.0
C693 C 0.40226 0.85095 0.53144 0.0
C694 C 0.40693 0.8691 0.54461 0.0
C695 C 0.42175 0.89191 0.53958 0.0
C696 C 0.38587 0.82687 0.53683 0.0
C697 C 0.39023 0.81883 0.55429 0.0
C698 C 0.36593 0.81205 0.52517 0.0
C699 C 0.3599 0.81979 0.50692 0.0
C700 C 0.35686 0.83912 0.50717 0.0
C701 C 0.35139 0.84642 0.48987 0.0
C702 C 0.34873 0.83442 0.47226 0.0
C703 C 0.35145 0.81504 0.47193 0.0
C704 C 0.35696 0.80768 0.48918 0.0
C705 C 0.31083 0.73687 0.58209 0.0
C706 C 0.30466 0.71633 0.57157 0.0
C707 C 0.32663 0.75817 0.57455 0.0
C708 C 0.33669 0.75937 0.55642 0.0
C709 C 0.32992 0.739 0.5455 0.0
C710 C 0.31407 0.71761 0.55304 0.0
C711 C 0.3547 0.78196 0.54924 0.0
C712 C 0.3507 0.78967 0.53144 0.0
C713 C 0.37501 0.79652 0.56059 0.0
C714 C 0.38089 0.78876 0.57892 0.0
C715 C 0.38216 0.76841 0.579 0.0
C716 C 0.38746 0.76105 0.59635 0.0
C717 C 0.39167 0.77397 0.61369 0.0
C718 C 0.39065 0.79431 0.61371 0.0
C719 C 0.38534 0.80173 0.59641 0.0
H720 H 0.39576 0.76824 0.6271 0.0
H721 H 0.34449 0.8401 0.45889 0.0
H722 H 0.52151 0.41053 0.67255 0.0
H723 H 0.53161 0.38229 0.68408 0.0
H724 H 0.60452 0.43201 0.67901 0.0
H725 H 0.5945 0.46019 0.6667 0.0
H726 H 0.59459 0.39034 0.66467 0.0
H727 H 0.57954 0.41965 0.72346 0.0
H728 H 0.55723 0.43037 0.74548 0.0
H729 H 0.50178 0.35994 0.74517 0.0
H730 H 0.52362 0.34884 0.72291 0.0
H731 H 0.63613 0.33011 0.72271 0.0
H732 H 0.62716 0.35829 0.70895 0.0
H733 H 0.55377 0.30932 0.71184 0.0
H734 H 0.56256 0.28105 0.72578 0.0
H735 H 0.56476 0.35118 0.72736 0.0
H736 H 0.58033 0.32211 0.66837 0.0
H737 H 0.60317 0.31179 0.64663 0.0
H738 H 0.65845 0.38233 0.64782 0.0
H739 H 0.63606 0.39302 0.6698 0.0
C740 C 0.5397 0.41542 0.6737 0.0
C741 C 0.55721 0.43761 0.66867 0.0
C742 C 0.54545 0.39933 0.68049 0.0
C743 C 0.56882 0.40514 0.68263 0.0
C744 C 0.58637 0.42721 0.67753 0.0
C745 C 0.58063 0.44334 0.67067 0.0
C746 C 0.57484 0.38805 0.69006 0.0
C747 C 0.58836 0.38201 0.67851 0.0
C748 C 0.56629 0.37686 0.70793 0.0
C749 C 0.55313 0.38346 0.72137 0.0
C750 C 0.56251 0.40648 0.72796 0.0
C751 C 0.54996 0.41261 0.74051 0.0
C752 C 0.52808 0.39585 0.74668 0.0
C753 C 0.51872 0.37291 0.74035 0.0
C754 C 0.53119 0.36668 0.72779 0.0
C755 C 0.61807 0.32524 0.72027 0.0
C756 C 0.60004 0.30334 0.72539 0.0
C757 C 0.61298 0.34135 0.71233 0.0
C758 C 0.58981 0.33585 0.70928 0.0
C759 C 0.57178 0.3139 0.71409 0.0
C760 C 0.57684 0.29774 0.722 0.0
C761 C 0.58436 0.35335 0.70191 0.0
C762 C 0.57098 0.3595 0.71351 0.0
C763 C 0.59313 0.3647 0.68414 0.0
C764 C 0.60661 0.35832 0.67089 0.0
C765 C 0.59744 0.33539 0.66413 0.0
C766 C 0.61029 0.32948 0.65174 0.0
C767 C 0.63228 0.34638 0.64589 0.0
C768 C 0.64143 0.36924 0.65238 0.0
C769 C 0.62866 0.37524 0.6648 0.0
H770 H 0.6422 0.34177 0.63629 0.0
H771 H 0.51839 0.40064 0.7564 0.0
H772 H 0.11962 0.56565 0.89036 0.0
H773 H 0.16006 0.57876 0.90012 0.0
H774 H 0.18036 0.59481 0.84022 0.0
H775 H 0.14011 0.58225 0.83053 0.0
H776 H 0.18724 0.56308 0.89127 0.0
H777 H 0.23433 0.63795 0.83696 0.0
H778 H 0.22846 0.66792 0.82186 0.0
H779 H 0.18601 0.66539 0.86952 0.0
H780 H 0.19186 0.63562 0.88503 0.0
H781 H 0.29728 0.58235 0.86639 0.0
H782 H 0.25771 0.575 0.86925 0.0
H783 H 0.28354 0.64186 0.89722 0.0
H784 H 0.32345 0.64967 0.89395 0.0
H785 H 0.25401 0.6363 0.8695 0.0
H786 H 0.25228 0.59151 0.92279 0.0
H787 H 0.25818 0.56316 0.94081 0.0
H788 H 0.21036 0.50912 0.90132 0.0
H789 H 0.20442 0.53719 0.88287 0.0
C790 C 0.13278 0.57211 0.87932 0.0
C791 C 0.12679 0.57302 0.8597 0.0
C792 C 0.15585 0.5796 0.88491 0.0
C793 C 0.17333 0.58805 0.87097 0.0
C794 C 0.16731 0.58892 0.85135 0.0
C795 C 0.14431 0.58169 0.8458 0.0
C796 C 0.19766 0.59495 0.87667 0.0
C797 C 0.20185 0.57916 0.88665 0.0
C798 C 0.21673 0.61624 0.87118 0.0
C799 C 0.21344 0.63443 0.86209 0.0
C800 C 0.22386 0.64388 0.84428 0.0
C801 C 0.2205 0.66081 0.83563 0.0
C802 C 0.20683 0.66852 0.84471 0.0
C803 C 0.19654 0.65935 0.86248 0.0
C804 C 0.19985 0.64243 0.87119 0.0
C805 C 0.29463 0.59541 0.87344 0.0
C806 C 0.31362 0.61668 0.87983 0.0
C807 C 0.2719 0.5911 0.87517 0.0
C808 C 0.2676 0.6078 0.88359 0.0
C809 C 0.28645 0.62873 0.89065 0.0
C810 C 0.30925 0.63313 0.88881 0.0
C811 C 0.24358 0.60403 0.88343 0.0
C812 C 0.23943 0.62038 0.87444 0.0
C813 C 0.22458 0.58354 0.89031 0.0
C814 C 0.22801 0.56651 0.90138 0.0
C815 C 0.24314 0.57361 0.91786 0.0
C816 C 0.24647 0.55758 0.92816 0.0
C817 C 0.23467 0.53436 0.92219 0.0
C818 C 0.21948 0.52711 0.90593 0.0
C819 C 0.2161 0.54307 0.89556 0.0
H820 H 0.23728 0.52198 0.93019 0.0
H821 H 0.20424 0.68161 0.83798 0.0
H822 H 0.58046 0.14698 0.99552 0.0
H823 H 0.60957 0.18712 0.00427 0.0
H824 H 0.58785 0.17571 0.06407 0.0
H825 H 0.55922 0.13535 0.0555 0.0
H826 H 0.59787 0.22204 0.04193 0.0
H827 H 0.6288 0.17256 0.06267 0.0
H828 H 0.63756 0.14136 0.05642 0.0
H829 H 0.67951 0.17809 0.00806 0.0
H830 H 0.67063 0.20932 0.01384 0.0
H831 H 0.69439 0.32382 0.08198 0.0
H832 H 0.66257 0.28393 0.07785 0.0
H833 H 0.69727 0.27403 0.02896 0.0
H834 H 0.72952 0.31324 0.03371 0.0
H835 H 0.67903 0.23731 0.04741 0.0
H836 H 0.65025 0.28604 0.02454 0.0
H837 H 0.64081 0.31724 0.02667 0.0
H838 H 0.59475 0.28328 0.07366 0.0
H839 H 0.60414 0.252 0.07197 0.0
C840 C 0.58164 0.15323 0.01042 0.0
C841 C 0.56772 0.13826 0.02487 0.0
C842 C 0.59822 0.17604 0.0154 0.0
C843 C 0.60076 0.18422 0.03479 0.0
C844 C 0.58601 0.16964 0.04903 0.0
C845 C 0.56978 0.14669 0.04415 0.0
C846 C 0.62013 0.20734 0.04045 0.0
C847 C 0.61561 0.22545 0.04344 0.0
C848 C 0.64322 0.2117 0.04183 0.0
C849 C 0.64885 0.19312 0.03856 0.0
C850 C 0.63971 0.17387 0.0506 0.0
C851 C 0.64473 0.1562 0.04716 0.0
C852 C 0.65903 0.15771 0.03182 0.0
C853 C 0.6684 0.17693 0.01992 0.0
C854 C 0.66339 0.19462 0.02328 0.0
C855 C 0.69532 0.31299 0.07053 0.0
C856 C 0.71444 0.3217 0.05816 0.0
C857 C 0.67704 0.29026 0.06806 0.0
C858 C 0.67719 0.27605 0.05278 0.0
C859 C 0.69665 0.28456 0.04084 0.0
C860 C 0.71513 0.30705 0.04359 0.0
C861 C 0.65705 0.2525 0.04885 0.0
C862 C 0.66136 0.23414 0.04612 0.0
C863 C 0.63382 0.24809 0.04726 0.0
C864 C 0.6281 0.26683 0.04828 0.0
C865 C 0.63823 0.28531 0.03542 0.0
C866 C 0.63288 0.303 0.03653 0.0
C867 C 0.61725 0.30228 0.05033 0.0
C868 C 0.60689 0.28383 0.06301 0.0
C869 C 0.61221 0.26612 0.06197 0.0
H870 H 0.61312 0.31598 0.05117 0.0
H871 H 0.6629 0.14402 0.02918 0.0
H872 H 0.4721 0.59985 0.17915 0.0
H873 H 0.46227 0.62531 0.19711 0.0
H874 H 0.38921 0.5756 0.18921 0.0
H875 H 0.39892 0.55042 0.17025 0.0
H876 H 0.39665 0.6169 0.18212 0.0
H877 H 0.41781 0.58443 0.23417 0.0
H878 H 0.44187 0.5722 0.25253 0.0
H879 H 0.49727 0.64253 0.2579 0.0
H880 H 0.47369 0.65517 0.23932 0.0
H881 H 0.37001 0.68739 0.24056 0.0
H882 H 0.37357 0.65335 0.23396 0.0
H883 H 0.44769 0.69666 0.22848 0.0
H884 H 0.4444 0.73082 0.23507 0.0
H885 H 0.43465 0.65389 0.2459 0.0
H886 H 0.41499 0.68426 0.18901 0.0
H887 H 0.39073 0.69627 0.17068 0.0
H888 H 0.3315 0.62835 0.17514 0.0
H889 H 0.35538 0.61604 0.19376 0.0
C890 C 0.45391 0.5944 0.18098 0.0
C891 C 0.43629 0.57312 0.17313 0.0
C892 C 0.44832 0.60883 0.19158 0.0
C893 C 0.42501 0.60217 0.19486 0.0
C894 C 0.40734 0.58099 0.18701 0.0
C895 C 0.41291 0.56658 0.17626 0.0
C896 C 0.41923 0.61798 0.20559 0.0
C897 C 0.40454 0.62453 0.19628 0.0
C898 C 0.42975 0.62822 0.22398 0.0
C899 C 0.44401 0.62073 0.23523 0.0
C900 C 0.43519 0.59728 0.23914 0.0
C901 C 0.44873 0.59027 0.24961 0.0
C902 C 0.4711 0.60657 0.25635 0.0
C903 C 0.47994 0.62992 0.25267 0.0
C904 C 0.46648 0.63702 0.24219 0.0
C905 C 0.38717 0.68969 0.23847 0.0
C906 C 0.40689 0.71189 0.23798 0.0
C907 C 0.38914 0.67019 0.23468 0.0
C908 C 0.41083 0.67259 0.23042 0.0
C909 C 0.43079 0.6945 0.23167 0.0
C910 C 0.42884 0.71401 0.23535 0.0
C911 C 0.41246 0.6529 0.22223 0.0
C912 C 0.42641 0.64576 0.23196 0.0
C913 C 0.40118 0.64198 0.20428 0.0
C914 C 0.38688 0.64932 0.19297 0.0
C915 C 0.39675 0.67195 0.18621 0.0
C916 C 0.38308 0.6788 0.17575 0.0
C917 C 0.35956 0.66311 0.1718 0.0
C918 C 0.3497 0.64051 0.17825 0.0
C919 C 0.36329 0.63358 0.18875 0.0
H920 H 0.349 0.66844 0.1637 0.0
H921 H 0.48155 0.60112 0.26445 0.0
H922 H 0.8847 0.48895 0.3469 0.0
H923 H 0.84486 0.47534 0.35672 0.0
H924 H 0.83676 0.40889 0.36958 0.0
H925 H 0.87691 0.42252 0.35984 0.0
H926 H 0.79939 0.40515 0.34924 0.0
H927 H 0.84311 0.44498 0.40672 0.0
H928 H 0.87449 0.47707 0.42613 0.0
H929 H 0.8484 0.52155 0.40916 0.0
H930 H 0.81704 0.48983 0.3894 0.0
H931 H 0.68808 0.37608 0.38465 0.0
H932 H 0.72783 0.38276 0.38596 0.0
H933 H 0.75409 0.45372 0.3709 0.0
H934 H 0.71465 0.44739 0.36986 0.0
H935 H 0.78208 0.44996 0.39779 0.0
H936 H 0.74352 0.4124 0.33594 0.0
H937 H 0.7126 0.38095 0.31561 0.0
H938 H 0.72952 0.33261 0.34069 0.0
H939 H 0.76037 0.36376 0.36135 0.0
C940 C 0.87453 0.4715 0.35198 0.0
C941 C 0.884 0.45687 0.35279 0.0
C942 C 0.85178 0.46375 0.3576 0.0
C943 C 0.83804 0.44126 0.36425 0.0
C944 C 0.84717 0.42637 0.36462 0.0
C945 C 0.87003 0.43413 0.35897 0.0
C946 C 0.81396 0.4334 0.37032 0.0
C947 C 0.79558 0.4146 0.36019 0.0
C948 C 0.80905 0.4459 0.38446 0.0
C949 C 0.82777 0.46502 0.39648 0.0
C950 C 0.84414 0.46164 0.40702 0.0
C951 C 0.86192 0.47976 0.4181 0.0
C952 C 0.86346 0.50134 0.41886 0.0
C953 C 0.84718 0.50482 0.40856 0.0
C954 C 0.82938 0.48676 0.39744 0.0
C955 C 0.70233 0.39321 0.38192 0.0
C956 C 0.69813 0.41113 0.37689 0.0
C957 C 0.72503 0.39695 0.38262 0.0
C958 C 0.74384 0.41863 0.37823 0.0
C959 C 0.7398 0.43684 0.3743 0.0
C960 C 0.71719 0.43314 0.37361 0.0
C961 C 0.76759 0.42221 0.37628 0.0
C962 C 0.7859 0.4402 0.38718 0.0
C963 C 0.77246 0.409 0.36283 0.0
C964 C 0.75403 0.39033 0.35034 0.0
C965 C 0.74052 0.39503 0.33721 0.0
C966 C 0.72304 0.37727 0.32562 0.0
C967 C 0.71905 0.35478 0.32691 0.0
C968 C 0.7326 0.35002 0.33975 0.0
C969 C 0.75008 0.36772 0.35139 0.0
H970 H 0.7055 0.34105 0.31792 0.0
H971 H 0.87724 0.51535 0.42744 0.0
H972 H 0.1008 0.57968 0.40436 0.0
H973 H 0.12876 0.59204 0.43197 0.0
H974 H 0.10659 0.52098 0.44365 0.0
H975 H 0.07846 0.50852 0.41625 0.0
H976 H 0.1098 0.54603 0.47691 0.0
H977 H 0.1565 0.55305 0.42168 0.0
H978 H 0.1726 0.56652 0.38919 0.0
H979 H 0.20452 0.63685 0.41005 0.0
H980 H 0.18825 0.62377 0.44263 0.0
H981 H 0.19806 0.55871 0.54217 0.0
H982 H 0.17316 0.54892 0.51293 0.0
H983 H 0.20016 0.62117 0.50261 0.0
H984 H 0.22552 0.63122 0.53176 0.0
H985 H 0.19464 0.5971 0.46867 0.0
H986 H 0.14843 0.59014 0.52407 0.0
H987 H 0.13218 0.57662 0.55656 0.0
H988 H 0.09907 0.50638 0.53529 0.0
H989 H 0.1154 0.51947 0.50275 0.0
C990 C 0.10183 0.56672 0.41289 0.0
C991 C 0.0875 0.54314 0.40813 0.0
C992 C 0.1179 0.5738 0.42855 0.0
C993 C 0.11985 0.55742 0.43975 0.0
C994 C 0.10539 0.53388 0.43516 0.0
C995 C 0.08946 0.52681 0.41943 0.0
C996 C 0.13679 0.56474 0.45641 0.0
C997 C 0.12837 0.55698 0.47508 0.0
C998 C 0.16095 0.57951 0.45406 0.0
C999 C 0.17094 0.58743 0.43454 0.0
C1000 C 0.16678 0.57139 0.4193 0.0
C1001 C 0.17597 0.57896 0.40087 0.0
C1002 C 0.18953 0.60254 0.39753 0.0
C1003 C 0.19398 0.61859 0.41265 0.0
C1004 C 0.18479 0.61111 0.4311 0.0
C1005 C 0.19889 0.57258 0.53364 0.0
C1006 C 0.21366 0.59577 0.53947 0.0
C1007 C 0.18457 0.56693 0.51693 0.0
C1008 C 0.18448 0.58431 0.5058 0.0
C1009 C 0.19988 0.60749 0.51106 0.0
C1010 C 0.21433 0.61319 0.52775 0.0
C1011 C 0.16765 0.57818 0.48915 0.0
C1012 C 0.17606 0.58621 0.47051 0.0
C1013 C 0.14343 0.56369 0.49151 0.0
C1014 C 0.13332 0.55579 0.51101 0.0
C1015 C 0.1378 0.57181 0.52636 0.0
C1016 C 0.12856 0.56422 0.54478 0.0
C1017 C 0.11465 0.54066 0.548 0.0
C1018 C 0.10987 0.52463 0.53278 0.0
C1019 C 0.1191 0.53212 0.51434 0.0
H1020 H 0.10755 0.53481 0.56227 0.0
H1021 H 0.19664 0.60836 0.38325 0.0
H1022 H 0.52992 0.07373 0.59421 0.0
H1023 H 0.54539 0.10086 0.62207 0.0
H1024 H 0.57471 0.1578 0.58268 0.0
H1025 H 0.56005 0.13046 0.55472 0.0
H1026 H 0.60464 0.16644 0.60992 0.0
H1027 H 0.52457 0.1432 0.61026 0.0
H1028 H 0.48217 0.11664 0.60943 0.0
H1029 H 0.48778 0.08745 0.66325 0.0
H1030 H 0.53028 0.11361 0.66427 0.0
H1031 H 0.61976 0.24332 0.69357 0.0
H1032 H 0.60317 0.22108 0.66286 0.0
H1033 H 0.60063 0.16163 0.68875 0.0
H1034 H 0.61778 0.18379 0.7192 0.0
H1035 H 0.55625 0.15835 0.66707 0.0
H1036 H 0.63885 0.18116 0.66249 0.0
H1037 H 0.68055 0.21046 0.66248 0.0
H1038 H 0.66793 0.24434 0.61503 0.0
H1039 H 0.62606 0.21539 0.61497 0.0
C1040 C 0.53953 0.09205 0.59154 0.0
C1041 C 0.5437 0.10005 0.57237 0.0
C1042 C 0.54827 0.10757 0.60746 0.0
C1043 C 0.56082 0.13147 0.60455 0.0
C1044 C 0.56503 0.13948 0.58534 0.0
C1045 C 0.55665 0.12389 0.56939 0.0
C1046 C 0.57017 0.14792 0.62159 0.0
C1047 C 0.59387 0.16485 0.62222 0.0
C1048 C 0.55625 0.14603 0.63775 0.0
C1049 C 0.53066 0.13027 0.63725 0.0
C1050 C 0.51679 0.13101 0.62185 0.0
C1051 C 0.49273 0.11604 0.62136 0.0
C1052 C 0.48229 0.10034 0.63626 0.0
C1053 C 0.49589 0.09961 0.65171 0.0
C1054 C 0.51997 0.11453 0.65227 0.0
C1055 C 0.61572 0.22553 0.69267 0.0
C1056 C 0.62015 0.21531 0.70874 0.0
C1057 C 0.60629 0.2129 0.67516 0.0
C1058 C 0.60074 0.18979 0.67366 0.0
C1059 C 0.60485 0.17948 0.68971 0.0
C1060 C 0.61474 0.19219 0.70703 0.0
C1061 C 0.59055 0.17617 0.65537 0.0
C1062 C 0.56675 0.15992 0.65456 0.0
C1063 C 0.60419 0.17903 0.63891 0.0
C1064 C 0.62932 0.19632 0.63891 0.0
C1065 C 0.64494 0.19501 0.65221 0.0
C1066 C 0.66861 0.21151 0.65218 0.0
C1067 C 0.67688 0.2293 0.63881 0.0
C1068 C 0.6615 0.23058 0.62541 0.0
C1069 C 0.6378 0.21413 0.62539 0.0
H1070 H 0.69521 0.24206 0.63881 0.0
H1071 H 0.46366 0.08876 0.63585 0.0
H1072 H 0.52125 0.60353 0.71125 0.0
H1073 H 0.51034 0.62074 0.73788 0.0
H1074 H 0.44513 0.55734 0.74257 0.0
H1075 H 0.45614 0.53968 0.71655 0.0
H1076 H 0.44085 0.59707 0.74064 0.0
H1077 H 0.48596 0.56975 0.77557 0.0
H1078 H 0.52105 0.56705 0.78254 0.0
H1079 H 0.56066 0.64019 0.79367 0.0
H1080 H 0.52585 0.64337 0.78649 0.0
H1081 H 0.39401 0.60801 0.82722 0.0
H1082 H 0.41105 0.59528 0.80233 0.0
H1083 H 0.47629 0.65895 0.80987 0.0
H1084 H 0.45946 0.67156 0.83559 0.0
H1085 H 0.48362 0.62338 0.80447 0.0
H1086 H 0.43924 0.65129 0.77171 0.0
H1087 H 0.40503 0.65531 0.76418 0.0
H1088 H 0.3654 0.58346 0.74771 0.0
H1089 H 0.39927 0.57892 0.75542 0.0
C1090 C 0.50472 0.59311 0.71811 0.0
C1091 C 0.48956 0.57019 0.71166 0.0
C1092 C 0.4985 0.60303 0.73327 0.0
C1093 C 0.47696 0.59028 0.74218 0.0
C1094 C 0.46178 0.56749 0.7358 0.0
C1095 C 0.46807 0.55748 0.72081 0.0
C1096 C 0.46989 0.60071 0.75793 0.0
C1097 C 0.45005 0.60263 0.75467 0.0
C1098 C 0.48247 0.60875 0.77591 0.0
C1099 C 0.50337 0.60683 0.78026 0.0
C1100 C 0.5022 0.58529 0.77932 0.0
C1101 C 0.52203 0.58366 0.78335 0.0
C1102 C 0.54309 0.60344 0.78849 0.0
C1103 C 0.54435 0.62489 0.78966 0.0
C1104 C 0.52457 0.62661 0.78562 0.0
C1105 C 0.41208 0.61923 0.82391 0.0
C1106 C 0.42534 0.64083 0.83345 0.0
C1107 C 0.42176 0.61199 0.80948 0.0
C1108 C 0.44479 0.62637 0.80391 0.0
C1109 C 0.45842 0.64763 0.81386 0.0
C1110 C 0.44877 0.65482 0.82852 0.0
C1111 C 0.45418 0.61923 0.78737 0.0
C1112 C 0.4745 0.61801 0.7904 0.0
C1113 C 0.4422 0.61207 0.76903 0.0
C1114 C 0.42177 0.61473 0.7643 0.0
C1115 C 0.42319 0.63631 0.76662 0.0
C1116 C 0.40386 0.63869 0.7623 0.0
C1117 C 0.38304 0.61965 0.75551 0.0
C1118 C 0.38153 0.59819 0.75299 0.0
C1119 C 0.4008 0.59571 0.75731 0.0
H1120 H 0.3681 0.62153 0.75217 0.0
H1121 H 0.55843 0.60215 0.79161 0.0
H1122 H 0.89894 0.49519 0.89327 0.0
H1123 H 0.8745 0.48753 0.9217 0.0
H1124 H 0.92925 0.49116 0.95895 0.0
H1125 H 0.95418 0.49971 0.93081 0.0
H1126 H 0.88483 0.45144 0.96365 0.0
H1127 H 0.91989 0.53413 0.96126 0.0
H1128 H 0.93062 0.5707 0.94518 0.0
H1129 H 0.85847 0.54791 0.93366 0.0
H1130 H 0.84731 0.51105 0.94943 0.0
H1131 H 0.82387 0.43508 0.04966 0.0
H1132 H 0.85576 0.4538 0.0268 0.0
H1133 H 0.81242 0.46939 0.98971 0.0
H1134 H 0.78136 0.45234 0.01342 0.0
H1135 H 0.85393 0.50147 0.98613 0.0
H1136 H 0.81785 0.41869 0.98401 0.0
H1137 H 0.80458 0.38041 0.99786 0.0
H1138 H 0.87497 0.40061 0.01451 0.0
H1139 H 0.88862 0.43914 0.00101 0.0
C1140 C 0.90596 0.49474 0.90754 0.0
C1141 C 0.92855 0.49802 0.9097 0.0
C1142 C 0.89193 0.49027 0.92375 0.0
C1143 C 0.90016 0.4889 0.94239 0.0
C1144 C 0.92261 0.49212 0.94465 0.0
C1145 C 0.93674 0.49682 0.9285 0.0
C1146 C 0.88502 0.4833 0.95945 0.0
C1147 C 0.87835 0.46252 0.96881 0.0
C1148 C 0.87609 0.49749 0.9657 0.0
C1149 C 0.88278 0.51975 0.9564 0.0
C1150 C 0.90632 0.53684 0.95517 0.0
C1151 C 0.91248 0.55764 0.94613 0.0
C1152 C 0.89524 0.56161 0.93836 0.0
C1153 C 0.8718 0.54481 0.93967 0.0
C1154 C 0.86555 0.52397 0.94868 0.0
C1155 C 0.82156 0.44316 0.03688 0.0
C1156 C 0.80041 0.44243 0.03315 0.0
C1157 C 0.83962 0.45361 0.02373 0.0
C1158 C 0.83626 0.46235 0.00617 0.0
C1159 C 0.81546 0.4627 0.00307 0.0
C1160 C 0.79772 0.45297 0.01657 0.0
C1161 C 0.85348 0.46941 0.99037 0.0
C1162 C 0.86052 0.49042 0.98115 0.0
C1163 C 0.86233 0.45514 0.98389 0.0
C1164 C 0.85421 0.43185 0.99168 0.0
C1165 C 0.83048 0.41499 0.9907 0.0
C1166 C 0.82289 0.39326 0.99849 0.0
C1167 C 0.83892 0.38811 0.0071 0.0
C1168 C 0.86258 0.40464 0.00787 0.0
C1169 C 0.87025 0.42642 0.00015 0.0
H1170 H 0.83301 0.37128 0.01314 0.0
H1171 H 0.90005 0.57771 0.93136 0.0
H1172 H 0.42681 0.9417 0.08451 0.0
H1173 H 0.4123 0.91531 0.11185 0.0
H1174 H 0.47493 0.91088 0.11237 0.0
H1175 H 0.48931 0.93684 0.08487 0.0
H1176 H 0.43569 0.86871 0.11319 0.0
H1177 H 0.46717 0.9424 0.14688 0.0
H1178 H 0.47142 0.98059 0.15373 0.0
H1179 H 0.399 0.94862 0.16706 0.0
H1180 H 0.39424 0.91023 0.16002 0.0
H1181 H 0.42675 0.81221 0.19949 0.0
H1182 H 0.4408 0.84314 0.17621 0.0
H1183 H 0.37696 0.84491 0.18056 0.0
H1184 H 0.36293 0.8142 0.20444 0.0
H1185 H 0.41458 0.88817 0.1771 0.0
H1186 H 0.38273 0.81485 0.14381 0.0
H1187 H 0.37764 0.77638 0.13666 0.0
H1188 H 0.44953 0.8073 0.1218 0.0
H1189 H 0.45513 0.84596 0.12914 0.0
C1190 C 0.43742 0.93502 0.09044 0.0
C1191 C 0.4592 0.94132 0.08259 0.0
C1192 C 0.42922 0.92014 0.10614 0.0
C1193 C 0.44265 0.91134 0.11421 0.0
C1194 C 0.46436 0.91758 0.10638 0.0
C1195 C 0.4726 0.9325 0.09076 0.0
C1196 C 0.43382 0.89492 0.13035 0.0
C1197 C 0.43135 0.87307 0.12725 0.0
C1198 C 0.42744 0.9004 0.14843 0.0
C1199 C 0.4303 0.92346 0.15272 0.0
C1200 C 0.4521 0.94352 0.15111 0.0
C1201 C 0.45462 0.96521 0.15506 0.0
C1202 C 0.43548 0.96704 0.16077 0.0
C1203 C 0.4138 0.94718 0.1626 0.0
C1204 C 0.41119 0.92546 0.15865 0.0
C1205 C 0.41583 0.81942 0.19585 0.0
C1206 C 0.39363 0.81059 0.20371 0.0
C1207 C 0.42386 0.83705 0.18243 0.0
C1208 C 0.4097 0.84594 0.17635 0.0
C1209 C 0.38809 0.83816 0.185 0.0
C1210 C 0.3801 0.8206 0.1986 0.0
C1211 C 0.41691 0.86215 0.16003 0.0
C1212 C 0.41891 0.88385 0.16304 0.0
C1213 C 0.42274 0.85652 0.14175 0.0
C1214 C 0.41939 0.83329 0.13719 0.0
C1215 C 0.39749 0.81344 0.13915 0.0
C1216 C 0.39451 0.7916 0.13505 0.0
C1217 C 0.41326 0.78939 0.12882 0.0
C1218 C 0.43503 0.80903 0.12664 0.0
C1219 C 0.43811 0.83092 0.13075 0.0
H1220 H 0.41092 0.77247 0.12565 0.0
H1221 H 0.43746 0.98384 0.16383 0.0
H1222 H 0.48722 0.42247 0.21128 0.0
H1223 H 0.4995 0.40804 0.23895 0.0
H1224 H 0.55277 0.47749 0.2548 0.0
H1225 H 0.5403 0.49214 0.22748 0.0
H1226 H 0.56927 0.44713 0.25229 0.0
H1227 H 0.50591 0.45084 0.28195 0.0
H1228 H 0.46543 0.44253 0.28431 0.0
H1229 H 0.44131 0.36992 0.28493 0.0
H1230 H 0.48164 0.37779 0.28229 0.0
H1231 H 0.60956 0.42735 0.34019 0.0
H1232 H 0.59148 0.4414 0.31719 0.0
H1233 H 0.53507 0.37186 0.30656 0.0
H1234 H 0.55286 0.35774 0.33016 0.0
H1235 H 0.51918 0.4014 0.30628 0.0
H1236 H 0.58103 0.39652 0.27569 0.0
H1237 H 0.62098 0.40354 0.27242 0.0
H1238 H 0.64723 0.47656 0.272 0.0
H1239 H 0.60745 0.46999 0.27555 0.0
C1240 C 0.50129 0.43472 0.22084 0.0
C1241 C 0.51285 0.45846 0.21712 0.0
C1242 C 0.5083 0.42643 0.23662 0.0
C1243 C 0.52697 0.44173 0.24893 0.0
C1244 C 0.53836 0.46542 0.2454 0.0
C1245 C 0.5313 0.47373 0.22972 0.0
C1246 C 0.53548 0.43298 0.26488 0.0
C1247 C 0.55844 0.43742 0.26426 0.0
C1248 C 0.52103 0.41965 0.28008 0.0
C1249 C 0.49678 0.4149 0.28172 0.0
C1250 C 0.49196 0.43309 0.28241 0.0
C1251 C 0.46904 0.42846 0.28384 0.0
C1252 C 0.4508 0.40571 0.28471 0.0
C1253 C 0.45545 0.38753 0.28422 0.0
C1254 C 0.47834 0.39207 0.28278 0.0
C1255 C 0.59326 0.41504 0.33311 0.0
C1256 C 0.58286 0.3914 0.33672 0.0
C1257 C 0.58292 0.4231 0.31994 0.0
C1258 C 0.56225 0.4076 0.30977 0.0
C1259 C 0.55111 0.38411 0.31415 0.0
C1260 C 0.5613 0.37607 0.3276 0.0
C1261 C 0.55311 0.41582 0.29382 0.0
C1262 C 0.53003 0.41117 0.29435 0.0
C1263 C 0.56735 0.42876 0.27834 0.0
C1264 C 0.59129 0.43277 0.27606 0.0
C1265 C 0.59534 0.41408 0.27503 0.0
C1266 C 0.61795 0.41798 0.27311 0.0
C1267 C 0.63664 0.44048 0.27205 0.0
C1268 C 0.63274 0.45914 0.27285 0.0
C1269 C 0.61017 0.45534 0.2748 0.0
H1270 H 0.65413 0.44346 0.27057 0.0
H1271 H 0.43307 0.40216 0.28582 0.0
H1272 H 0.4937 0.92295 0.42068 0.0
H1273 H 0.48197 0.89419 0.39415 0.0
H1274 H 0.41852 0.89597 0.38497 0.0
H1275 H 0.43045 0.92543 0.41099 0.0
H1276 H 0.41302 0.85022 0.38478 0.0
H1277 H 0.45905 0.92439 0.35543 0.0
H1278 H 0.49387 0.96277 0.35247 0.0
H1279 H 0.536 0.93139 0.3444 0.0
H1280 H 0.50146 0.89281 0.34761 0.0
H1281 H 0.37939 0.7975 0.2899 0.0
H1282 H 0.38881 0.82101 0.31988 0.0
H1283 H 0.45891 0.83267 0.31951 0.0
H1284 H 0.44984 0.81007 0.28901 0.0
H1285 H 0.46106 0.87112 0.32565 0.0
H1286 H 0.4162 0.79705 0.35373 0.0
H1287 H 0.38228 0.75822 0.35743 0.0
H1288 H 0.33919 0.78783 0.36893 0.0
H1289 H 0.37279 0.82685 0.36505 0.0
C1290 C 0.47734 0.91743 0.41293 0.0
C1291 C 0.46315 0.92674 0.41789 0.0
C1292 C 0.47059 0.90083 0.39789 0.0
C1293 C 0.44945 0.89307 0.38759 0.0
C1294 C 0.43486 0.9017 0.39285 0.0
C1295 C 0.44171 0.91849 0.40777 0.0
C1296 C 0.4431 0.87672 0.37075 0.0
C1297 C 0.42333 0.85477 0.37173 0.0
C1298 C 0.45697 0.88257 0.35403 0.0
C1299 C 0.47772 0.90574 0.35196 0.0
C1300 C 0.47577 0.92568 0.35319 0.0
C1301 C 0.49545 0.94747 0.35144 0.0
C1302 C 0.51715 0.94952 0.3483 0.0
C1303 C 0.51919 0.92978 0.34686 0.0
C1304 C 0.49957 0.90795 0.34863 0.0
C1305 C 0.3967 0.80478 0.29638 0.0
C1306 C 0.4139 0.80199 0.28708 0.0
C1307 C 0.40206 0.81816 0.3136 0.0
C1308 C 0.42454 0.82849 0.32214 0.0
C1309 C 0.44147 0.82499 0.3132 0.0
C1310 C 0.43626 0.81201 0.29579 0.0
C1311 C 0.43092 0.84426 0.33955 0.0
C1312 C 0.45073 0.86629 0.33869 0.0
C1313 C 0.4172 0.83831 0.35646 0.0
C1314 C 0.39698 0.81487 0.35892 0.0
C1315 C 0.39946 0.79528 0.35692 0.0
C1316 C 0.38029 0.77323 0.35907 0.0
C1317 C 0.35858 0.77056 0.36336 0.0
C1318 C 0.35601 0.78993 0.36558 0.0
C1319 C 0.37512 0.81202 0.36343 0.0
H1320 H 0.34377 0.75348 0.36501 0.0
H1321 H 0.53236 0.9664 0.34695 0.0
H1322 H 0.58563 0.50139 0.55223 0.0
H1323 H 0.59775 0.48826 0.52352 0.0
H1324 H 0.54177 0.41879 0.53139 0.0
H1325 H 0.52949 0.43186 0.56021 0.0
H1326 H 0.58627 0.42293 0.52235 0.0
H1327 H 0.53302 0.44659 0.49874 0.0
H1328 H 0.51772 0.47323 0.49556 0.0
H1329 H 0.58178 0.52372 0.47069 0.0
H1330 H 0.5976 0.4975 0.47401 0.0
H1331 H 0.59056 0.38051 0.42694 0.0
H1332 H 0.57877 0.39005 0.45773 0.0
H1333 H 0.62366 0.46254 0.44767 0.0
H1334 H 0.63505 0.45319 0.41669 0.0
H1335 H 0.58305 0.45514 0.45831 0.0
H1336 H 0.63707 0.43278 0.48215 0.0
H1337 H 0.65361 0.40725 0.48595 0.0
H1338 H 0.59008 0.35564 0.51073 0.0
H1339 H 0.57304 0.38076 0.50684 0.0
C1340 C 0.57609 0.48327 0.54799 0.0
C1341 C 0.5566 0.46763 0.55839 0.0
C1342 C 0.58296 0.47583 0.53157 0.0
C1343 C 0.57055 0.45261 0.52533 0.0
C1344 C 0.55153 0.43678 0.53602 0.0
C1345 C 0.54447 0.44428 0.55235 0.0
C1346 C 0.57696 0.44518 0.50715 0.0
C1347 C 0.58529 0.42967 0.50827 0.0
C1348 C 0.57609 0.45441 0.48894 0.0
C1349 C 0.56657 0.47016 0.48681 0.0
C1350 C 0.54392 0.46345 0.49275 0.0
C1351 C 0.53514 0.47846 0.4909 0.0
C1352 C 0.54879 0.50018 0.48298 0.0
C1353 C 0.57124 0.50691 0.47685 0.0
C1354 C 0.58011 0.49197 0.4787 0.0
C1355 C 0.59806 0.39848 0.43135 0.0
C1356 C 0.6137 0.41609 0.41931 0.0
C1357 C 0.59137 0.40391 0.44901 0.0
C1358 C 0.60046 0.42702 0.45511 0.0
C1359 C 0.61635 0.44458 0.44325 0.0
C1360 C 0.62288 0.4392 0.42554 0.0
C1361 C 0.59277 0.43306 0.4734 0.0
C1362 C 0.58406 0.4483 0.47233 0.0
C1363 C 0.59349 0.42369 0.49165 0.0
C1364 C 0.60369 0.40856 0.49401 0.0
C1365 C 0.62656 0.41591 0.48826 0.0
C1366 C 0.63604 0.40153 0.49046 0.0
C1367 C 0.62288 0.37981 0.49852 0.0
C1368 C 0.60023 0.37245 0.50445 0.0
C1369 C 0.59066 0.38676 0.50227 0.0
H1370 H 0.63025 0.3687 0.50021 0.0
H1371 H 0.54197 0.51178 0.48154 0.0
H1372 H 0.10786 0.54748 0.76246 0.0
H1373 H 0.13236 0.55676 0.73413 0.0
H1374 H 0.09163 0.58184 0.70489 0.0
H1375 H 0.06572 0.57067 0.73243 0.0
H1376 H 0.10233 0.56082 0.67942 0.0
H1377 H 0.14614 0.61862 0.72843 0.0
H1378 H 0.1641 0.63427 0.76098 0.0
H1379 H 0.2062 0.6025 0.75547 0.0
H1380 H 0.18826 0.58639 0.72298 0.0
H1381 H 0.19519 0.63526 0.61554 0.0
H1382 H 0.16516 0.61984 0.64033 0.0
H1383 H 0.19145 0.5765 0.66098 0.0
H1384 H 0.22118 0.59144 0.63613 0.0
H1385 H 0.18792 0.60702 0.68997 0.0
H1386 H 0.14305 0.55108 0.63848 0.0
H1387 H 0.12579 0.53963 0.60518 0.0
H1388 H 0.08637 0.57361 0.61483 0.0
H1389 H 0.10371 0.58562 0.64807 0.0
C1390 C 0.10376 0.55455 0.7499 0.0
C1391 C 0.08481 0.55845 0.74991 0.0
C1392 C 0.11806 0.56019 0.73377 0.0
C1393 C 0.11421 0.57052 0.71751 0.0
C1394 C 0.09509 0.57405 0.7173 0.0
C1395 C 0.08047 0.56795 0.73325 0.0
C1396 C 0.13031 0.57794 0.70089 0.0
C1397 C 0.12103 0.57115 0.68176 0.0
C1398 C 0.15476 0.59136 0.70384 0.0
C1399 C 0.16568 0.60111 0.72335 0.0
C1400 C 0.15911 0.61484 0.73422 0.0
C1401 C 0.16931 0.62381 0.75265 0.0
C1402 C 0.18623 0.61933 0.76032 0.0
C1403 C 0.19306 0.60593 0.74953 0.0
C1404 C 0.1829 0.59689 0.7311 0.0
C1405 C 0.19431 0.62216 0.62516 0.0
C1406 C 0.21056 0.61459 0.62395 0.0
C1407 C 0.17716 0.61338 0.63926 0.0
C1408 C 0.17622 0.59711 0.65244 0.0
C1409 C 0.19197 0.58906 0.6509 0.0
C1410 C 0.20887 0.59755 0.63665 0.0
C1411 C 0.1599 0.58969 0.66873 0.0
C1412 C 0.1692 0.59663 0.68776 0.0
C1413 C 0.13554 0.57697 0.66561 0.0
C1414 C 0.12487 0.56945 0.64571 0.0
C1415 C 0.13086 0.55629 0.63345 0.0
C1416 C 0.12103 0.54966 0.61459 0.0
C1417 C 0.10504 0.55594 0.60788 0.0
C1418 C 0.09878 0.56879 0.62004 0.0
C1419 C 0.10859 0.57549 0.63889 0.0
H1420 H 0.09746 0.55081 0.59328 0.0
H1421 H 0.1941 0.62629 0.77459 0.0
H1422 H 0.56222 0.12337 0.9373 0.0
H1423 H 0.57411 0.14924 0.90965 0.0
H1424 H 0.53749 0.09068 0.8699 0.0
H1425 H 0.52522 0.0648 0.89756 0.0
H1426 H 0.59966 0.15453 0.87972 0.0
H1427 H 0.516 0.10533 0.83079 0.0
H1428 H 0.47376 0.07989 0.83448 0.0
H1429 H 0.4785 0.10895 0.89188 0.0
H1430 H 0.52068 0.13477 0.88842 0.0
H1431 H 0.627 0.20455 0.78787 0.0
H1432 H 0.61158 0.17518 0.81271 0.0
H1433 H 0.56127 0.1954 0.82767 0.0
H1434 H 0.57606 0.22419 0.80221 0.0
H1435 H 0.54215 0.15133 0.83075 0.0
H1436 H 0.61425 0.21603 0.85381 0.0
H1437 H 0.65595 0.24507 0.85253 0.0
H1438 H 0.67328 0.19129 0.85158 0.0
H1439 H 0.63164 0.16191 0.8526 0.0
C1440 C 0.55684 0.11604 0.92265 0.0
C1441 C 0.54273 0.09211 0.91956 0.0
C1442 C 0.5636 0.13081 0.90687 0.0
C1443 C 0.55645 0.12193 0.88772 0.0
C1444 C 0.5428 0.09797 0.88458 0.0
C1445 C 0.53584 0.08321 0.90036 0.0
C1446 C 0.5634 0.13776 0.87106 0.0
C1447 C 0.58708 0.15379 0.86901 0.0
C1448 C 0.54696 0.1371 0.85726 0.0
C1449 C 0.52155 0.12179 0.85941 0.0
C1450 C 0.50801 0.10633 0.84417 0.0
C1451 C 0.48408 0.09185 0.84622 0.0
C1452 C 0.47347 0.09275 0.86343 0.0
C1453 C 0.48676 0.1082 0.87859 0.0
C1454 C 0.51068 0.12274 0.8766 0.0
C1455 C 0.61253 0.2026 0.7963 0.0
C1456 C 0.60296 0.21688 0.7933 0.0
C1457 C 0.60375 0.18583 0.81055 0.0
C1458 C 0.58568 0.1835 0.82244 0.0
C1459 C 0.5753 0.19695 0.81876 0.0
C1460 C 0.58378 0.21341 0.80422 0.0
C1461 C 0.57843 0.16796 0.83933 0.0
C1462 C 0.55473 0.15197 0.84142 0.0
C1463 C 0.59477 0.16915 0.85354 0.0
C1464 C 0.61983 0.18678 0.8531 0.0
C1465 C 0.62695 0.2104 0.85321 0.0
C1466 C 0.65057 0.22692 0.85255 0.0
C1467 C 0.66725 0.22003 0.85193 0.0
C1468 C 0.66034 0.1966 0.85204 0.0
C1469 C 0.63673 0.18001 0.85267 0.0
H1470 H 0.68553 0.23284 0.85141 0.0
H1471 H 0.45495 0.08151 0.865 0.0
H1472 H 0.4678 0.54147 0.03352 0.0
H1473 H 0.45819 0.55733 0.00531 0.0
H1474 H 0.42851 0.58721 0.04347 0.0
H1475 H 0.43721 0.57034 0.07167 0.0
H1476 H 0.40195 0.5706 0.01337 0.0
H1477 H 0.4834 0.62018 0.02146 0.0
H1478 H 0.52462 0.63119 0.02596 0.0
H1479 H 0.52247 0.59924 0.97051 0.0
H1480 H 0.48112 0.58774 0.96579 0.0
H1481 H 0.40249 0.64222 0.93429 0.0
H1482 H 0.41427 0.6321 0.9651 0.0
H1483 H 0.41963 0.57807 0.9349 0.0
H1484 H 0.40728 0.58757 0.90424 0.0
H1485 H 0.45977 0.61144 0.96233 0.0
H1486 H 0.37554 0.55967 0.95737 0.0
H1487 H 0.33519 0.55186 0.95384 0.0
H1488 H 0.34488 0.59343 0.00536 0.0
H1489 H 0.38543 0.60177 0.00901 0.0
C1490 C 0.45932 0.55152 0.03585 0.0
C1491 C 0.45334 0.55482 0.05472 0.0
C1492 C 0.45394 0.56071 0.01975 0.0
C1493 C 0.44308 0.57396 0.02224 0.0
C1494 C 0.43697 0.57714 0.04114 0.0
C1495 C 0.44194 0.56753 0.05723 0.0
C1496 C 0.43756 0.58388 0.00504 0.0
C1497 C 0.41478 0.57989 0.00244 0.0
C1498 C 0.45418 0.59601 0.99063 0.0
C1499 C 0.47909 0.60294 0.99335 0.0
C1500 C 0.49166 0.61536 0.01029 0.0
C1501 C 0.51506 0.62171 0.01287 0.0
C1502 C 0.52614 0.61588 0.99855 0.0
C1503 C 0.51386 0.60373 0.9816 0.0
C1504 C 0.49044 0.59731 0.97895 0.0
C1505 C 0.40626 0.62824 0.93423 0.0
C1506 C 0.40388 0.61561 0.91689 0.0
C1507 C 0.41293 0.62249 0.9518 0.0
C1508 C 0.41777 0.60436 0.95218 0.0
C1509 C 0.41597 0.59212 0.93483 0.0
C1510 C 0.40882 0.59751 0.91738 0.0
C1511 C 0.42426 0.59771 0.9707 0.0
C1512 C 0.44717 0.60237 0.97348 0.0
C1513 C 0.40796 0.5867 0.98547 0.0
C1514 C 0.38358 0.58158 0.98332 0.0
C1515 C 0.36914 0.56734 0.96783 0.0
C1516 C 0.34622 0.56277 0.96583 0.0
C1517 C 0.3375 0.57221 0.97933 0.0
C1518 C 0.35167 0.58618 0.99489 0.0
C1519 C 0.37461 0.59082 0.99693 0.0
H1520 H 0.31975 0.56865 0.97776 0.0
H1521 H 0.54426 0.62081 0.00058 0.0
H1522 H 0.89419 0.467 0.26206 0.0
H1523 H 0.86751 0.45506 0.23375 0.0
H1524 H 0.91735 0.44797 0.19902 0.0
H1525 H 0.94465 0.46119 0.22686 0.0
H1526 H 0.89984 0.46819 0.17873 0.0
H1527 H 0.86747 0.40059 0.21784 0.0
H1528 H 0.8518 0.37826 0.24764 0.0
H1529 H 0.79673 0.39427 0.24728 0.0
H1530 H 0.81226 0.41696 0.2176 0.0
H1531 H 0.82863 0.39958 0.09981 0.0
H1532 H 0.85192 0.41158 0.13007 0.0
H1533 H 0.80269 0.42712 0.15657 0.0
H1534 H 0.77907 0.41511 0.1262 0.0
H1535 H 0.81833 0.40387 0.18148 0.0
H1536 H 0.85062 0.4701 0.14081 0.0
H1537 H 0.86631 0.49092 0.11034 0.0
H1538 H 0.92196 0.47582 0.11324 0.0
H1539 H 0.9064 0.4546 0.14358 0.0
C1540 C 0.89962 0.46316 0.24835 0.0
C1541 C 0.92163 0.46503 0.24683 0.0
C1542 C 0.88418 0.45602 0.23221 0.0
C1543 C 0.89023 0.45026 0.21427 0.0
C1544 C 0.9122 0.45222 0.2127 0.0
C1545 C 0.92773 0.45955 0.22874 0.0
C1546 C 0.87394 0.44256 0.197 0.0
C1547 C 0.88211 0.45395 0.17933 0.0
C1548 C 0.85057 0.42435 0.19781 0.0
C1549 C 0.84118 0.41068 0.21562 0.0
C1550 C 0.85213 0.3995 0.2242 0.0
C1551 C 0.84325 0.38675 0.24105 0.0
C1552 C 0.82332 0.38491 0.24938 0.0
C1553 C 0.81219 0.39575 0.24083 0.0
C1554 C 0.82101 0.40854 0.22399 0.0
C1555 C 0.82256 0.40538 0.11207 0.0
C1556 C 0.80198 0.40649 0.11047 0.0
C1557 C 0.83598 0.4123 0.12936 0.0
C1558 C 0.82918 0.4205 0.14547 0.0
C1559 C 0.80827 0.4209 0.14426 0.0
C1560 C 0.79483 0.41408 0.12687 0.0
C1561 C 0.84442 0.42928 0.16329 0.0
C1562 C 0.83604 0.41817 0.181 0.0
C1563 C 0.86767 0.4476 0.16251 0.0
C1564 C 0.87723 0.46059 0.14439 0.0
C1565 C 0.86611 0.47108 0.13488 0.0
C1566 C 0.87499 0.48297 0.11764 0.0
C1567 C 0.89509 0.48465 0.10984 0.0
C1568 C 0.90638 0.47449 0.11929 0.0
C1569 C 0.89755 0.46255 0.13652 0.0
H1570 H 0.90194 0.49386 0.09649 0.0
H1571 H 0.81648 0.37503 0.26243 0.0
loop_
_geom_bond_atom_site_label_1
_geom_bond_atom_site_label_2
_geom_bond_distance
_geom_bond_site_symmetry_2
_ccdc_geom_bond_type
H0 C19 0.949 . S
H1 C20 0.950 . S
H2 C22 0.950 . S
H3 C23 0.950 . S
H4 C25 0.950 . S
H5 C28 0.950 . S
H6 C29 0.950 . S
H7 C31 0.951 . S
H8 C32 0.949 . S
H9 C34 0.949 . S
H10 C35 0.950 . S
H11 C37 0.950 . S
H12 C38 0.950 . S
H13 C40 0.950 . S
H14 C43 0.950 . S
H15 C44 0.950 . S
H16 C46 0.951 . S
H17 C47 0.949 . S
C18 C19 1.376 . S
C18 C23 1.386 . S
C18 C24 1.483 . S
C19 H0 0.949 . S
C19 C18 1.376 . S
C19 C20 1.397 . S
C20 H1 0.950 . S
C20 C19 1.397 . S
C20 C21 1.391 . S
C21 C20 1.391 . S
C21 C22 1.405 . S
C22 H2 0.950 . S
C22 C21 1.405 . S
C22 C23 1.367 . S
C23 H3 0.950 . S
C23 C18 1.386 . S
C23 C22 1.367 . S
C24 C18 1.483 . S
C24 C25 1.382 1_655 S
C24 C26 1.403 . S
C25 H4 0.950 . S
C25 C24 1.382 1_455 S
C25 C41 1.411 . S
C26 C24 1.403 . S
C26 C27 1.489 . S
C26 C40 1.411 . S
C27 C26 1.489 . S
C27 C28 1.383 . S
C27 C32 1.382 . S
C28 H5 0.950 . S
C28 C27 1.383 . S
C28 C29 1.395 . S
C29 H6 0.950 . S
C29 C28 1.395 . S
C29 C30 1.288 . S
C30 C29 1.288 . S
C30 C31 1.392 . S
C31 H7 0.951 . S
C31 C30 1.392 . S
C31 C32 1.392 . S
C32 H8 0.949 . S
C32 C27 1.382 . S
C32 C31 1.392 . S
C33 C34 1.376 . S
C33 C38 1.386 . S
C33 C39 1.483 . S
C34 H9 0.949 . S
C34 C33 1.376 . S
C34 C35 1.397 . S
C35 H10 0.950 . S
C35 C34 1.397 . S
C35 C36 1.391 . S
C36 C35 1.391 . S
C36 C37 1.405 . S
C37 H11 0.950 . S
C37 C36 1.405 . S
C37 C38 1.367 . S
C38 H12 0.950 . S
C38 C33 1.386 . S
C38 C37 1.367 . S
C39 C33 1.483 . S
C39 C40 1.382 1_455 S
C39 C41 1.403 . S
C40 H13 0.950 . S
C40 C26 1.411 . S
C40 C39 1.382 1_655 S
C41 C25 1.411 . S
C41 C39 1.403 . S
C41 C42 1.489 . S
C42 C41 1.489 . S
C42 C43 1.383 . S
C42 C47 1.382 . S
C43 H14 0.950 . S
C43 C42 1.383 . S
C43 C44 1.395 . S
C44 H15 0.950 . S
C44 C43 1.395 . S
C44 C45 1.288 . S
C45 C44 1.288 . S
C45 C46 1.392 . S
C46 H16 0.951 . S
C46 C45 1.392 . S
C46 C47 1.392 . S
C47 H17 0.949 . S
C47 C42 1.382 . S
C47 C46 1.392 . S
H48 C67 0.949 . S
H49 C68 0.950 . S
H50 C70 0.950 . S
H51 C71 0.950 . S
H52 C73 0.950 . S
H53 C76 0.950 . S
H54 C77 0.950 . S
H55 C79 0.951 . S
H56 C80 0.949 . S
H57 C82 0.949 . S
H58 C83 0.950 . S
H59 C85 0.950 . S
H60 C86 0.950 . S
H61 C88 0.950 . S
H62 C91 0.950 . S
H63 C92 0.950 . S
H64 C94 0.951 . S
H65 C95 0.949 . S
C66 C67 1.376 . S
C66 C71 1.386 . S
C66 C72 1.483 . S
C67 H48 0.949 . S
C67 C66 1.376 . S
C67 C68 1.397 . S
C68 H49 0.950 . S
C68 C67 1.397 . S
C68 C69 1.391 . S
C69 C68 1.391 . S
C69 C70 1.405 . S
C70 H50 0.950 . S
C70 C69 1.405 . S
C70 C71 1.367 . S
C71 H51 0.950 . S
C71 C66 1.386 . S
C71 C70 1.367 . S
C72 C66 1.483 . S
C72 C73 1.382 1_565 S
C72 C74 1.403 . S
C73 H52 0.950 . S
C73 C72 1.382 1_545 S
C73 C89 1.411 . S
C74 C72 1.403 . S
C74 C75 1.489 . S
C74 C88 1.411 1_565 S
C75 C74 1.489 . S
C75 C76 1.383 . S
C75 C80 1.382 . S
C76 H53 0.950 . S
C76 C75 1.383 . S
C76 C77 1.395 . S
C77 H54 0.950 . S
C77 C76 1.395 . S
C77 C78 1.288 . S
C78 C77 1.288 . S
C78 C79 1.392 . S
C79 H55 0.951 . S
C79 C78 1.392 . S
C79 C80 1.392 . S
C80 H56 0.949 . S
C80 C75 1.382 . S
C80 C79 1.392 . S
C81 C82 1.376 . S
C81 C86 1.386 . S
C81 C87 1.483 . S
C82 H57 0.949 . S
C82 C81 1.376 . S
C82 C83 1.397 . S
C83 H58 0.950 . S
C83 C82 1.397 . S
C83 C84 1.391 . S
C84 C83 1.391 . S
C84 C85 1.405 . S
C85 H59 0.950 . S
C85 C84 1.405 . S
C85 C86 1.367 . S
C86 H60 0.950 . S
C86 C81 1.386 . S
C86 C85 1.367 . S
C87 C81 1.483 . S
C87 C88 1.382 . S
C87 C89 1.403 . S
C88 H61 0.950 . S
C88 C74 1.411 1_545 S
C88 C87 1.382 . S
C89 C73 1.411 . S
C89 C87 1.403 . S
C89 C90 1.489 . S
C90 C89 1.489 . S
C90 C91 1.383 . S
C90 C95 1.382 . S
C91 H62 0.950 . S
C91 C90 1.383 . S
C91 C92 1.395 . S
C92 H63 0.950 . S
C92 C91 1.395 . S
C92 C93 1.288 . S
C93 C92 1.288 . S
C93 C94 1.392 . S
C94 H64 0.951 . S
C94 C93 1.392 . S
C94 C95 1.392 . S
C95 H65 0.949 . S
C95 C90 1.382 . S
C95 C94 1.392 . S
H96 C115 0.949 . S
H97 C116 0.950 . S
H98 C118 0.950 . S
H99 C119 0.950 . S
H100 C121 0.950 . S
H101 C124 0.950 . S
H102 C125 0.950 . S
H103 C127 0.951 . S
H104 C128 0.949 . S
H105 C130 0.949 . S
H106 C131 0.950 . S
H107 C133 0.950 . S
H108 C134 0.950 . S
H109 C136 0.950 . S
H110 C139 0.950 . S
H111 C140 0.950 . S
H112 C142 0.951 . S
H113 C143 0.949 . S
C114 C115 1.376 . S
C114 C119 1.386 . S
C114 C120 1.483 . S
C115 H96 0.949 . S
C115 C114 1.376 . S
C115 C116 1.397 . S
C116 H97 0.950 . S
C116 C115 1.397 . S
C116 C117 1.391 . S
C117 C116 1.391 . S
C117 C118 1.405 . S
C118 H98 0.950 . S
C118 C117 1.405 . S
C118 C119 1.367 . S
C119 H99 0.950 . S
C119 C114 1.386 . S
C119 C118 1.367 . S
C120 C114 1.483 . S
C120 C121 1.382 . S
C120 C122 1.403 . S
C121 H100 0.950 . S
C121 C120 1.382 . S
C121 C137 1.411 . S
C122 C120 1.403 . S
C122 C123 1.489 . S
C122 C136 1.411 . S
C123 C122 1.489 . S
C123 C124 1.383 . S
C123 C128 1.382 . S
C124 H101 0.950 . S
C124 C123 1.383 . S
C124 C125 1.395 . S
C125 H102 0.950 . S
C125 C124 1.395 . S
C125 C126 1.288 . S
C126 C125 1.288 . S
C126 C127 1.392 . S
C127 H103 0.951 . S
C127 C126 1.392 . S
C127 C128 1.392 . S
C128 H104 0.949 . S
C128 C123 1.382 . S
C128 C127 1.392 . S
C129 C130 1.376 . S
C129 C134 1.386 . S
C129 C135 1.483 . S
C130 H105 0.949 . S
C130 C129 1.376 . S
C130 C131 1.397 . S
C131 H106 0.950 . S
C131 C130 1.397 . S
C131 C132 1.391 . S
C132 C131 1.391 . S
C132 C133 1.405 . S
C133 H107 0.950 . S
C133 C132 1.405 . S
C133 C134 1.367 . S
C134 H108 0.950 . S
C134 C129 1.386 . S
C134 C133 1.367 . S
C135 C129 1.483 . S
C135 C136 1.382 . S
C135 C137 1.403 . S
C136 H109 0.950 . S
C136 C122 1.411 . S
C136 C135 1.382 . S
C137 C121 1.411 . S
C137 C135 1.403 . S
C137 C138 1.489 . S
C138 C137 1.489 . S
C138 C139 1.383 . S
C138 C143 1.382 . S
C139 H110 0.950 . S
C139 C138 1.383 . S
C139 C140 1.395 . S
C140 H111 0.950 . S
C140 C139 1.395 . S
C140 C141 1.288 . S
C141 C140 1.288 . S
C141 C142 1.392 . S
C142 H112 0.951 . S
C142 C141 1.392 . S
C142 C143 1.392 . S
C143 H113 0.949 . S
C143 C138 1.382 . S
C143 C142 1.392 . S
H144 C163 0.949 . S
H145 C164 0.950 . S
H146 C166 0.950 . S
H147 C167 0.950 . S
H148 C169 0.950 1_655 S
H149 C172 0.950 . S
H150 C173 0.950 . S
H151 C175 0.951 . S
H152 C176 0.949 . S
H153 C178 0.949 . S
H154 C179 0.950 . S
H155 C181 0.950 . S
H156 C182 0.950 . S
H157 C184 0.950 . S
H158 C187 0.950 . S
H159 C188 0.950 . S
H160 C190 0.951 . S
H161 C191 0.949 . S
C162 C163 1.376 . S
C162 C167 1.386 . S
C162 C168 1.483 . S
C163 H144 0.949 . S
C163 C162 1.376 . S
C163 C164 1.397 . S
C164 H145 0.950 . S
C164 C163 1.397 . S
C164 C165 1.391 . S
C165 C164 1.391 . S
C165 C166 1.405 . S
C166 H146 0.950 . S
C166 C165 1.405 . S
C166 C167 1.367 . S
C167 H147 0.950 . S
C167 C162 1.386 . S
C167 C166 1.367 . S
C168 C162 1.483 . S
C168 C169 1.382 . S
C168 C170 1.403 . S
C169 H148 0.950 1_455 S
C169 C168 1.382 . S
C169 C185 1.411 1_455 S
C170 C168 1.403 . S
C170 C171 1.489 . S
C170 C184 1.411 . S
C171 C170 1.489 . S
C171 C172 1.383 . S
C171 C176 1.382 . S
C172 H149 0.950 . S
C172 C171 1.383 . S
C172 C173 1.395 . S
C173 H150 0.950 . S
C173 C172 1.395 . S
C173 C174 1.288 . S
C174 C173 1.288 . S
C174 C175 1.392 . S
C175 H151 0.951 . S
C175 C174 1.392 . S
C175 C176 1.392 . S
C176 H152 0.949 . S
C176 C171 1.382 . S
C176 C175 1.392 . S
C177 C178 1.376 . S
C177 C182 1.386 . S
C177 C183 1.483 . S
C178 H153 0.949 . S
C178 C177 1.376 . S
C178 C179 1.397 . S
C179 H154 0.950 . S
C179 C178 1.397 . S
C179 C180 1.391 . S
C180 C179 1.391 . S
C180 C181 1.405 . S
C181 H155 0.950 . S
C181 C180 1.405 . S
C181 C182 1.367 . S
C182 H156 0.950 . S
C182 C177 1.386 . S
C182 C181 1.367 . S
C183 C177 1.483 . S
C183 C184 1.382 1_655 S
C183 C185 1.403 . S
C184 H157 0.950 . S
C184 C170 1.411 . S
C184 C183 1.382 1_455 S
C185 C169 1.411 1_655 S
C185 C183 1.403 . S
C185 C186 1.489 . S
C186 C185 1.489 . S
C186 C187 1.383 . S
C186 C191 1.382 . S
C187 H158 0.950 . S
C187 C186 1.383 . S
C187 C188 1.395 . S
C188 H159 0.950 . S
C188 C187 1.395 . S
C188 C189 1.288 . S
C189 C188 1.288 . S
C189 C190 1.392 . S
C190 H160 0.951 . S
C190 C189 1.392 . S
C190 C191 1.392 . S
C191 H161 0.949 . S
C191 C186 1.382 . S
C191 C190 1.392 . S
H192 C211 0.949 . S
H193 C212 0.950 . S
H194 C214 0.950 . S
H195 C215 0.950 . S
H196 C217 0.950 . S
H197 C220 0.950 . S
H198 C221 0.950 . S
H199 C223 0.951 . S
H200 C224 0.949 . S
H201 C226 0.949 . S
H202 C227 0.950 . S
H203 C229 0.950 . S
H204 C230 0.950 . S
H205 C232 0.950 . S
H206 C235 0.950 . S
H207 C236 0.950 . S
H208 C238 0.951 . S
H209 C239 0.949 1_545 S
C210 C211 1.376 . S
C210 C215 1.386 1_554 S
C210 C216 1.483 1_554 S
C211 H192 0.949 . S
C211 C210 1.376 . S
C211 C212 1.397 . S
C212 H193 0.950 . S
C212 C211 1.397 . S
C212 C213 1.391 . S
C213 C212 1.391 . S
C213 C214 1.405 . S
C214 H194 0.950 . S
C214 C213 1.405 . S
C214 C215 1.367 1_554 S
C215 H195 0.950 . S
C215 C210 1.386 1_556 S
C215 C214 1.367 1_556 S
C216 C210 1.483 1_556 S
C216 C217 1.382 1_556 S
C216 C218 1.403 . S
C217 H196 0.950 . S
C217 C216 1.382 1_554 S
C217 C233 1.411 . S
C218 C216 1.403 . S
C218 C219 1.489 . S
C218 C232 1.411 . S
C219 C218 1.489 . S
C219 C220 1.383 . S
C219 C224 1.382 . S
C220 H197 0.950 . S
C220 C219 1.383 . S
C220 C221 1.395 . S
C221 H198 0.950 . S
C221 C220 1.395 . S
C221 C222 1.288 . S
C222 C221 1.288 . S
C222 C223 1.392 . S
C223 H199 0.951 . S
C223 C222 1.392 . S
C223 C224 1.392 . S
C224 H200 0.949 . S
C224 C219 1.382 . S
C224 C223 1.392 . S
C225 C226 1.376 . S
C225 C230 1.386 . S
C225 C231 1.483 . S
C226 H201 0.949 . S
C226 C225 1.376 . S
C226 C227 1.397 . S
C227 H202 0.950 . S
C227 C226 1.397 . S
C227 C228 1.391 . S
C228 C227 1.391 . S
C228 C229 1.405 . S
C229 H203 0.950 . S
C229 C228 1.405 . S
C229 C230 1.367 . S
C230 H204 0.950 . S
C230 C225 1.386 . S
C230 C229 1.367 . S
C231 C225 1.483 . S
C231 C232 1.382 1_565 S
C231 C233 1.403 1_566 S
C232 H205 0.950 . S
C232 C218 1.411 . S
C232 C231 1.382 1_545 S
C233 C217 1.411 . S
C233 C231 1.403 1_544 S
C233 C234 1.489 1_545 S
C234 C233 1.489 1_565 S
C234 C235 1.383 . S
C234 C239 1.382 . S
C235 H206 0.950 . S
C235 C234 1.383 . S
C235 C236 1.395 . S
C236 H207 0.950 . S
C236 C235 1.395 . S
C236 C237 1.288 . S
C237 C236 1.288 . S
C237 C238 1.392 . S
C238 H208 0.951 . S
C238 C237 1.392 . S
C238 C239 1.392 . S
C239 H209 0.949 1_565 S
C239 C234 1.382 . S
C239 C238 1.392 . S
H240 C259 0.949 . S
H241 C260 0.950 . S
H242 C262 0.950 . S
H243 C263 0.950 . S
H244 C265 0.950 . S
H245 C268 0.950 . S
H246 C269 0.950 . S
H247 C271 0.951 . S
H248 C272 0.949 . S
H249 C274 0.949 . S
H250 C275 0.950 . S
H251 C277 0.950 . S
H252 C278 0.950 . S
H253 C280 0.950 . S
H254 C283 0.950 . S
H255 C284 0.950 . S
H256 C286 0.951 . S
H257 C287 0.949 . S
C258 C259 1.376 . S
C258 C263 1.386 . S
C258 C264 1.483 . S
C259 H240 0.949 . S
C259 C258 1.376 . S
C259 C260 1.397 . S
C260 H241 0.950 . S
C260 C259 1.397 . S
C260 C261 1.391 . S
C261 C260 1.391 . S
C261 C262 1.405 . S
C262 H242 0.950 . S
C262 C261 1.405 . S
C262 C263 1.367 . S
C263 H243 0.950 . S
C263 C258 1.386 . S
C263 C262 1.367 . S
C264 C258 1.483 . S
C264 C265 1.382 . S
C264 C266 1.403 . S
C265 H244 0.950 . S
C265 C264 1.382 . S
C265 C281 1.411 . S
C266 C264 1.403 . S
C266 C267 1.489 . S
C266 C280 1.411 . S
C267 C266 1.489 . S
C267 C268 1.383 . S
C267 C272 1.382 . S
C268 H245 0.950 . S
C268 C267 1.383 . S
C268 C269 1.395 . S
C269 H246 0.950 . S
C269 C268 1.395 . S
C269 C270 1.288 . S
C270 C269 1.288 . S
C270 C271 1.392 . S
C271 H247 0.951 . S
C271 C270 1.392 . S
C271 C272 1.392 . S
C272 H248 0.949 . S
C272 C267 1.382 . S
C272 C271 1.392 . S
C273 C274 1.376 . S
C273 C278 1.386 . S
C273 C279 1.483 . S
C274 H249 0.949 . S
C274 C273 1.376 . S
C274 C275 1.397 . S
C275 H250 0.950 . S
C275 C274 1.397 . S
C275 C276 1.391 . S
C276 C275 1.391 . S
C276 C277 1.405 . S
C277 H251 0.950 . S
C277 C276 1.405 . S
C277 C278 1.367 . S
C278 H252 0.950 . S
C278 C273 1.386 . S
C278 C277 1.367 . S
C279 C273 1.483 . S
C279 C280 1.382 . S
C279 C281 1.403 . S
C280 H253 0.950 . S
C280 C266 1.411 . S
C280 C279 1.382 . S
C281 C265 1.411 . S
C281 C279 1.403 . S
C281 C282 1.489 . S
C282 C281 1.489 . S
C282 C283 1.383 . S
C282 C287 1.382 . S
C283 H254 0.950 . S
C283 C282 1.383 . S
C283 C284 1.395 . S
C284 H255 0.950 . S
C284 C283 1.395 . S
C284 C285 1.288 . S
C285 C284 1.288 . S
C285 C286 1.392 . S
C286 H256 0.951 . S
C286 C285 1.392 . S
C286 C287 1.392 . S
C287 H257 0.949 . S
C287 C282 1.382 . S
C287 C286 1.392 . S
Mg288 O289 2.028 . S
Mg288 O295 1.986 . S
Mg288 O297 2.114 . S
Mg288 O298 2.251 . S
Mg288 O301 2.010 . S
O289 Mg288 2.028 . S
O289 C292 1.250 . S
O290 Mg291 2.028 . S
O290 C292 1.248 . S
Mg291 O290 2.028 . S
Mg291 O296 2.032 . S
Mg291 O298 2.079 . S
C292 O289 1.250 . S
C292 O290 1.248 . S
C293 O294 1.264 . S
C293 O301 1.249 . S
O294 C293 1.264 . S
O295 Mg288 1.986 . S
O295 C299 1.246 . S
O296 Mg291 2.032 . S
O296 C299 1.259 . S
O297 Mg288 2.114 . S
O297 C300 1.252 . S
O298 Mg288 2.251 . S
O298 Mg291 2.079 . S
O298 C300 1.273 . S
C299 O295 1.246 . S
C299 O296 1.259 . S
C300 O297 1.252 . S
C300 O298 1.273 . S
O301 Mg288 2.010 . S
O301 C293 1.249 . S
Mg302 O303 2.028 . S
Mg302 O309 1.986 . S
Mg302 O311 2.114 . S
Mg302 O312 2.251 . S
Mg302 O315 2.010 . S
O303 Mg302 2.028 . S
O303 C306 1.250 . S
O304 Mg305 2.028 . S
O304 C306 1.248 . S
Mg305 O304 2.028 . S
Mg305 O310 2.032 . S
Mg305 O312 2.079 . S
C306 O303 1.250 . S
C306 O304 1.248 . S
C307 O308 1.264 . S
C307 O315 1.249 . S
O308 C307 1.264 . S
O309 Mg302 1.986 . S
O309 C313 1.246 . S
O310 Mg305 2.032 . S
O310 C313 1.259 . S
O311 Mg302 2.114 . S
O311 C314 1.252 . S
O312 Mg302 2.251 . S
O312 Mg305 2.079 . S
O312 C314 1.273 . S
C313 O309 1.246 . S
C313 O310 1.259 . S
C314 O311 1.252 . S
C314 O312 1.273 . S
O315 Mg302 2.010 . S
O315 C307 1.249 . S
Mg316 O317 2.028 . S
Mg316 O323 1.986 . S
Mg316 O325 2.114 . S
Mg316 O326 2.251 . S
Mg316 O329 2.010 . S
O317 Mg316 2.028 . S
O317 C320 1.250 . S
O318 Mg319 2.028 . S
O318 C320 1.248 . S
Mg319 O318 2.028 . S
Mg319 O324 2.032 . S
Mg319 O326 2.079 . S
C320 O317 1.250 . S
C320 O318 1.248 . S
C321 O322 1.264 . S
C321 O329 1.249 . S
O322 C321 1.264 . S
O323 Mg316 1.986 . S
O323 C327 1.246 . S
O324 Mg319 2.032 . S
O324 C327 1.259 . S
O325 Mg316 2.114 . S
O325 C328 1.252 . S
O326 Mg316 2.251 . S
O326 Mg319 2.079 . S
O326 C328 1.273 . S
C327 O323 1.246 . S
C327 O324 1.259 . S
C328 O325 1.252 . S
C328 O326 1.273 . S
O329 Mg316 2.010 . S
O329 C321 1.249 . S
Mg330 O331 2.028 . S
Mg330 O337 1.986 . S
Mg330 O339 2.114 . S
Mg330 O340 2.251 . S
Mg330 O343 2.010 . S
O331 Mg330 2.028 . S
O331 C334 1.250 . S
O332 Mg333 2.028 . S
O332 C334 1.248 . S
Mg333 O332 2.028 . S
Mg333 O338 2.032 . S
Mg333 O340 2.079 . S
C334 O331 1.250 . S
C334 O332 1.248 . S
C335 O336 1.264 . S
C335 O343 1.249 . S
O336 C335 1.264 . S
O337 Mg330 1.986 . S
O337 C341 1.246 . S
O338 Mg333 2.032 . S
O338 C341 1.259 . S
O339 Mg330 2.114 . S
O339 C342 1.252 . S
O340 Mg330 2.251 . S
O340 Mg333 2.079 . S
O340 C342 1.273 . S
C341 O337 1.246 . S
C341 O338 1.259 . S
C342 O339 1.252 . S
C342 O340 1.273 . S
O343 Mg330 2.010 . S
O343 C335 1.249 . S
Mg344 O345 2.028 . S
Mg344 O351 1.986 . S
Mg344 O353 2.114 . S
Mg344 O354 2.251 . S
Mg344 O357 2.010 . S
O345 Mg344 2.028 . S
O345 C348 1.250 . S
O346 Mg347 2.028 . S
O346 C348 1.248 . S
Mg347 O346 2.028 . S
Mg347 O352 2.032 . S
Mg347 O354 2.079 . S
C348 O345 1.250 . S
C348 O346 1.248 . S
C349 O350 1.264 . S
C349 O357 1.249 . S
O350 C349 1.264 . S
O351 Mg344 1.986 . S
O351 C355 1.246 . S
O352 Mg347 2.032 . S
O352 C355 1.259 . S
O353 Mg344 2.114 . S
O353 C356 1.252 . S
O354 Mg344 2.251 . S
O354 Mg347 2.079 . S
O354 C356 1.273 . S
C355 O351 1.246 . S
C355 O352 1.259 . S
C356 O353 1.252 . S
C356 O354 1.273 . S
O357 Mg344 2.010 . S
O357 C349 1.249 . S
Mg358 O359 2.028 . S
Mg358 O365 1.986 . S
Mg358 O367 2.114 . S
Mg358 O368 2.251 . S
Mg358 O371 2.010 . S
O359 Mg358 2.028 . S
O359 C362 1.250 . S
O360 Mg361 2.028 . S
O360 C362 1.248 . S
Mg361 O360 2.028 . S
Mg361 O366 2.032 . S
Mg361 O368 2.079 . S
C362 O359 1.250 . S
C362 O360 1.248 . S
C363 O364 1.264 . S
C363 O371 1.249 . S
O364 C363 1.264 . S
O365 Mg358 1.986 . S
O365 C369 1.246 . S
O366 Mg361 2.032 . S
O366 C369 1.259 . S
O367 Mg358 2.114 . S
O367 C370 1.252 . S
O368 Mg358 2.251 . S
O368 Mg361 2.079 . S
O368 C370 1.273 . S
C369 O365 1.246 . S
C369 O366 1.259 . S
C370 O367 1.252 . S
C370 O368 1.273 . S
O371 Mg358 2.010 . S
O371 C363 1.249 . S
H372 C390 0.951 . S
H373 C392 0.951 . S
H374 C394 0.950 . S
H375 C395 0.950 . S
H376 C397 0.950 . S
H377 C400 0.950 . S
H378 C401 0.950 . S
H379 C403 0.950 . S
H380 C404 0.950 . S
H381 C405 0.951 . S
H382 C407 0.951 . S
H383 C409 0.950 . S
H384 C410 0.950 . S
H385 C412 0.950 . S
H386 C415 0.950 . S
H387 C416 0.950 . S
H388 C418 0.950 . S
H389 C419 0.950 . S
C390 H372 0.951 . S
C390 C391 1.366 . S
C390 C392 1.388 . S
C391 C390 1.366 . S
C391 C395 1.385 . S
C392 H373 0.951 . S
C392 C390 1.388 . S
C392 C393 1.366 . S
C393 C392 1.366 . S
C393 C394 1.414 . S
C393 C396 1.499 . S
C394 H374 0.950 . S
C394 C393 1.414 . S
C394 C395 1.374 . S
C395 H375 0.950 . S
C395 C391 1.385 . S
C395 C394 1.374 . S
C396 C393 1.499 . S
C396 C397 1.373 . S
C396 C398 1.389 . S
C397 H376 0.950 . S
C397 C396 1.373 . S
C397 C413 1.377 . S
C398 C396 1.389 . S
C398 C399 1.524 . S
C398 C412 1.377 . S
C399 C398 1.524 . S
C399 C400 1.397 . S
C399 C404 1.363 . S
C400 H377 0.950 . S
C400 C399 1.397 . S
C400 C401 1.334 . S
C401 H378 0.950 . S
C401 C400 1.334 . S
C401 C402 1.287 . S
C402 C401 1.287 . S
C402 C403 1.524 . S
C402 H421 0.913 . S
C403 H379 0.950 . S
C403 C402 1.524 . S
C403 C404 1.415 . S
C404 H380 0.950 . S
C404 C399 1.363 . S
C404 C403 1.415 . S
C405 H381 0.951 . S
C405 C406 1.366 . S
C405 C407 1.388 . S
C406 C405 1.366 . S
C406 C410 1.385 . S
C407 H382 0.951 . S
C407 C405 1.388 . S
C407 C408 1.366 . S
C408 C407 1.366 . S
C408 C409 1.414 . S
C408 C411 1.499 . S
C409 H383 0.950 . S
C409 C408 1.414 . S
C409 C410 1.374 . S
C410 H384 0.950 . S
C410 C406 1.385 . S
C410 C409 1.374 . S
C411 C408 1.499 . S
C411 C412 1.373 . S
C411 C413 1.389 . S
C412 H385 0.950 . S
C412 C398 1.377 . S
C412 C411 1.373 . S
C413 C397 1.377 . S
C413 C411 1.389 . S
C413 C414 1.524 . S
C414 C413 1.524 . S
C414 C415 1.397 . S
C414 C419 1.363 . S
C415 H386 0.950 . S
C415 C414 1.397 . S
C415 C416 1.334 . S
C416 H387 0.950 . S
C416 C415 1.334 . S
C416 C417 1.287 . S
C417 C416 1.287 . S
C417 C418 1.524 . S
C417 H420 0.999 . S
C418 H388 0.950 . S
C418 C417 1.524 . S
C418 C419 1.415 . S
C419 H389 0.950 . S
C419 C414 1.363 . S
C419 C418 1.415 . S
H420 C417 0.999 . S
H421 C402 0.913 . S
H422 C440 0.951 . S
H423 C442 0.951 . S
H424 C444 0.950 . S
H425 C445 0.950 . S
H426 C447 0.950 . S
H427 C450 0.950 . S
H428 C451 0.950 . S
H429 C453 0.950 . S
H430 C454 0.950 . S
H431 C455 0.951 . S
H432 C457 0.951 . S
H433 C459 0.950 . S
H434 C460 0.950 . S
H435 C462 0.950 . S
H436 C465 0.950 . S
H437 C466 0.950 . S
H438 C468 0.950 . S
H439 C469 0.950 . S
C440 H422 0.951 . S
C440 C441 1.366 . S
C440 C442 1.388 . S
C441 C440 1.366 . S
C441 C445 1.385 . S
C442 H423 0.951 . S
C442 C440 1.388 . S
C442 C443 1.366 . S
C443 C442 1.366 . S
C443 C444 1.414 . S
C443 C446 1.499 . S
C444 H424 0.950 . S
C444 C443 1.414 . S
C444 C445 1.374 . S
C445 H425 0.950 . S
C445 C441 1.385 . S
C445 C444 1.374 . S
C446 C443 1.499 . S
C446 C447 1.373 . S
C446 C448 1.389 . S
C447 H426 0.950 . S
C447 C446 1.373 . S
C447 C463 1.377 . S
C448 C446 1.389 . S
C448 C449 1.524 . S
C448 C462 1.377 . S
C449 C448 1.524 . S
C449 C450 1.397 . S
C449 C454 1.363 . S
C450 H427 0.950 . S
C450 C449 1.397 . S
C450 C451 1.334 . S
C451 H428 0.950 . S
C451 C450 1.334 . S
C451 C452 1.287 . S
C452 C451 1.287 . S
C452 C453 1.524 . S
C452 H471 0.913 . S
C453 H429 0.950 . S
C453 C452 1.524 . S
C453 C454 1.415 . S
C454 H430 0.950 . S
C454 C449 1.363 . S
C454 C453 1.415 . S
C455 H431 0.951 . S
C455 C456 1.366 . S
C455 C457 1.388 . S
C456 C455 1.366 . S
C456 C460 1.385 . S
C457 H432 0.951 . S
C457 C455 1.388 . S
C457 C458 1.366 . S
C458 C457 1.366 . S
C458 C459 1.414 . S
C458 C461 1.499 . S
C459 H433 0.950 . S
C459 C458 1.414 . S
C459 C460 1.374 . S
C460 H434 0.950 . S
C460 C456 1.385 . S
C460 C459 1.374 . S
C461 C458 1.499 . S
C461 C462 1.373 . S
C461 C463 1.389 . S
C462 H435 0.950 . S
C462 C448 1.377 . S
C462 C461 1.373 . S
C463 C447 1.377 . S
C463 C461 1.389 . S
C463 C464 1.524 . S
C464 C463 1.524 . S
C464 C465 1.397 . S
C464 C469 1.363 . S
C465 H436 0.950 . S
C465 C464 1.397 . S
C465 C466 1.334 . S
C466 H437 0.950 . S
C466 C465 1.334 . S
C466 C467 1.287 . S
C467 C466 1.287 . S
C467 C468 1.524 . S
C467 H470 0.999 . S
C468 H438 0.950 . S
C468 C467 1.524 . S
C468 C469 1.415 . S
C469 H439 0.950 . S
C469 C464 1.363 . S
C469 C468 1.415 . S
H470 C467 0.999 . S
H471 C452 0.913 . S
H472 C490 0.951 . S
H473 C492 0.951 . S
H474 C494 0.950 . S
H475 C495 0.950 . S
H476 C497 0.950 . S
H477 C500 0.950 . S
H478 C501 0.950 . S
H479 C503 0.950 . S
H480 C504 0.950 . S
H481 C505 0.951 . S
H482 C507 0.951 . S
H483 C509 0.950 . S
H484 C510 0.950 . S
H485 C512 0.950 . S
H486 C515 0.950 . S
H487 C516 0.950 . S
H488 C518 0.950 . S
H489 C519 0.950 . S
C490 H472 0.951 . S
C490 C491 1.366 . S
C490 C492 1.388 . S
C491 C490 1.366 . S
C491 C495 1.385 . S
C492 H473 0.951 . S
C492 C490 1.388 . S
C492 C493 1.366 . S
C493 C492 1.366 . S
C493 C494 1.414 . S
C493 C496 1.499 . S
C494 H474 0.950 . S
C494 C493 1.414 . S
C494 C495 1.374 . S
C495 H475 0.950 . S
C495 C491 1.385 . S
C495 C494 1.374 . S
C496 C493 1.499 . S
C496 C497 1.373 . S
C496 C498 1.389 . S
C497 H476 0.950 . S
C497 C496 1.373 . S
C497 C513 1.377 . S
C498 C496 1.389 . S
C498 C499 1.524 . S
C498 C512 1.377 . S
C499 C498 1.524 . S
C499 C500 1.397 . S
C499 C504 1.363 . S
C500 H477 0.950 . S
C500 C499 1.397 . S
C500 C501 1.334 . S
C501 H478 0.950 . S
C501 C500 1.334 . S
C501 C502 1.287 . S
C502 C501 1.287 . S
C502 C503 1.524 . S
C502 H521 0.913 . S
C503 H479 0.950 . S
C503 C502 1.524 . S
C503 C504 1.415 . S
C504 H480 0.950 . S
C504 C499 1.363 . S
C504 C503 1.415 . S
C505 H481 0.951 . S
C505 C506 1.366 . S
C505 C507 1.388 . S
C506 C505 1.366 . S
C506 C510 1.385 . S
C507 H482 0.951 . S
C507 C505 1.388 . S
C507 C508 1.366 . S
C508 C507 1.366 . S
C508 C509 1.414 . S
C508 C511 1.499 . S
C509 H483 0.950 . S
C509 C508 1.414 . S
C509 C510 1.374 . S
C510 H484 0.950 . S
C510 C506 1.385 . S
C510 C509 1.374 . S
C511 C508 1.499 . S
C511 C512 1.373 . S
C511 C513 1.389 . S
C512 H485 0.950 . S
C512 C498 1.377 . S
C512 C511 1.373 . S
C513 C497 1.377 . S
C513 C511 1.389 . S
C513 C514 1.524 . S
C514 C513 1.524 . S
C514 C515 1.397 . S
C514 C519 1.363 . S
C515 H486 0.950 . S
C515 C514 1.397 . S
C515 C516 1.334 . S
C516 H487 0.950 . S
C516 C515 1.334 . S
C516 C517 1.287 . S
C517 C516 1.287 . S
C517 C518 1.524 . S
C517 H520 0.999 . S
C518 H488 0.950 . S
C518 C517 1.524 . S
C518 C519 1.415 . S
C519 H489 0.950 . S
C519 C514 1.363 . S
C519 C518 1.415 . S
H520 C517 0.999 . S
H521 C502 0.913 . S
H522 C540 0.951 . S
H523 C542 0.951 . S
H524 C544 0.950 . S
H525 C545 0.950 . S
H526 C547 0.950 . S
H527 C550 0.950 . S
H528 C551 0.950 . S
H529 C553 0.950 . S
H530 C554 0.950 . S
H531 C555 0.951 . S
H532 C557 0.951 . S
H533 C559 0.950 . S
H534 C560 0.950 . S
H535 C562 0.950 . S
H536 C565 0.950 . S
H537 C566 0.950 . S
H538 C568 0.950 . S
H539 C569 0.950 . S
C540 H522 0.951 . S
C540 C541 1.366 . S
C540 C542 1.388 . S
C541 C540 1.366 . S
C541 C545 1.385 . S
C542 H523 0.951 . S
C542 C540 1.388 . S
C542 C543 1.366 . S
C543 C542 1.366 . S
C543 C544 1.414 . S
C543 C546 1.499 . S
C544 H524 0.950 . S
C544 C543 1.414 . S
C544 C545 1.374 . S
C545 H525 0.950 . S
C545 C541 1.385 . S
C545 C544 1.374 . S
C546 C543 1.499 . S
C546 C547 1.373 . S
C546 C548 1.389 . S
C547 H526 0.950 . S
C547 C546 1.373 . S
C547 C563 1.377 . S
C548 C546 1.389 . S
C548 C549 1.524 . S
C548 C562 1.377 . S
C549 C548 1.524 . S
C549 C550 1.397 . S
C549 C554 1.363 . S
C550 H527 0.950 . S
C550 C549 1.397 . S
C550 C551 1.334 . S
C551 H528 0.950 . S
C551 C550 1.334 . S
C551 C552 1.287 . S
C552 C551 1.287 . S
C552 C553 1.524 . S
C552 H571 0.913 . S
C553 H529 0.950 . S
C553 C552 1.524 . S
C553 C554 1.415 . S
C554 H530 0.950 . S
C554 C549 1.363 . S
C554 C553 1.415 . S
C555 H531 0.951 . S
C555 C556 1.366 . S
C555 C557 1.388 . S
C556 C555 1.366 . S
C556 C560 1.385 . S
C557 H532 0.951 . S
C557 C555 1.388 . S
C557 C558 1.366 . S
C558 C557 1.366 . S
C558 C559 1.414 . S
C558 C561 1.499 . S
C559 H533 0.950 . S
C559 C558 1.414 . S
C559 C560 1.374 . S
C560 H534 0.950 . S
C560 C556 1.385 . S
C560 C559 1.374 . S
C561 C558 1.499 . S
C561 C562 1.373 . S
C561 C563 1.389 . S
C562 H535 0.950 . S
C562 C548 1.377 . S
C562 C561 1.373 . S
C563 C547 1.377 . S
C563 C561 1.389 . S
C563 C564 1.524 . S
C564 C563 1.524 . S
C564 C565 1.397 . S
C564 C569 1.363 . S
C565 H536 0.950 . S
C565 C564 1.397 . S
C565 C566 1.334 . S
C566 H537 0.950 . S
C566 C565 1.334 . S
C566 C567 1.287 . S
C567 C566 1.287 . S
C567 C568 1.524 . S
C567 H570 0.999 . S
C568 H538 0.950 . S
C568 C567 1.524 . S
C568 C569 1.415 . S
C569 H539 0.950 . S
C569 C564 1.363 . S
C569 C568 1.415 . S
H570 C567 0.999 . S
H571 C552 0.913 . S
H572 C590 0.951 . S
H573 C592 0.951 . S
H574 C594 0.950 . S
H575 C595 0.950 . S
H576 C597 0.950 . S
H577 C600 0.950 . S
H578 C601 0.950 . S
H579 C603 0.950 . S
H580 C604 0.950 . S
H581 C605 0.951 . S
H582 C607 0.951 . S
H583 C609 0.950 . S
H584 C610 0.950 . S
H585 C612 0.950 . S
H586 C615 0.950 . S
H587 C616 0.950 . S
H588 C618 0.950 . S
H589 C619 0.950 . S
C590 H572 0.951 . S
C590 C591 1.366 . S
C590 C592 1.388 . S
C591 C590 1.366 . S
C591 C595 1.385 . S
C592 H573 0.951 . S
C592 C590 1.388 . S
C592 C593 1.366 . S
C593 C592 1.366 . S
C593 C594 1.414 . S
C593 C596 1.499 . S
C594 H574 0.950 . S
C594 C593 1.414 . S
C594 C595 1.374 . S
C595 H575 0.950 . S
C595 C591 1.385 . S
C595 C594 1.374 . S
C596 C593 1.499 . S
C596 C597 1.373 . S
C596 C598 1.389 . S
C597 H576 0.950 . S
C597 C596 1.373 . S
C597 C613 1.377 . S
C598 C596 1.389 . S
C598 C599 1.524 . S
C598 C612 1.377 . S
C599 C598 1.524 . S
C599 C600 1.397 . S
C599 C604 1.363 . S
C600 H577 0.950 . S
C600 C599 1.397 . S
C600 C601 1.334 . S
C601 H578 0.950 . S
C601 C600 1.334 . S
C601 C602 1.287 . S
C602 C601 1.287 . S
C602 C603 1.524 . S
C602 H621 0.913 . S
C603 H579 0.950 . S
C603 C602 1.524 . S
C603 C604 1.415 . S
C604 H580 0.950 . S
C604 C599 1.363 . S
C604 C603 1.415 . S
C605 H581 0.951 . S
C605 C606 1.366 . S
C605 C607 1.388 . S
C606 C605 1.366 . S
C606 C610 1.385 . S
C607 H582 0.951 . S
C607 C605 1.388 . S
C607 C608 1.366 . S
C608 C607 1.366 . S
C608 C609 1.414 . S
C608 C611 1.499 . S
C609 H583 0.950 . S
C609 C608 1.414 . S
C609 C610 1.374 . S
C610 H584 0.950 . S
C610 C606 1.385 . S
C610 C609 1.374 . S
C611 C608 1.499 . S
C611 C612 1.373 . S
C611 C613 1.389 . S
C612 H585 0.950 . S
C612 C598 1.377 . S
C612 C611 1.373 . S
C613 C597 1.377 . S
C613 C611 1.389 . S
C613 C614 1.524 . S
C614 C613 1.524 . S
C614 C615 1.397 . S
C614 C619 1.363 . S
C615 H586 0.950 . S
C615 C614 1.397 . S
C615 C616 1.334 . S
C616 H587 0.950 . S
C616 C615 1.334 . S
C616 C617 1.287 . S
C617 C616 1.287 . S
C617 C618 1.524 . S
C617 H620 0.999 . S
C618 H588 0.950 . S
C618 C617 1.524 . S
C618 C619 1.415 . S
C619 H589 0.950 . S
C619 C614 1.363 . S
C619 C618 1.415 . S
H620 C617 0.999 . S
H621 C602 0.913 . S
H622 C640 0.951 . S
H623 C642 0.951 . S
H624 C644 0.950 . S
H625 C645 0.950 . S
H626 C647 0.950 . S
H627 C650 0.950 . S
H628 C651 0.950 . S
H629 C653 0.950 . S
H630 C654 0.950 . S
H631 C655 0.951 . S
H632 C657 0.951 . S
H633 C659 0.950 . S
H634 C660 0.950 . S
H635 C662 0.950 . S
H636 C665 0.950 . S
H637 C666 0.950 . S
H638 C668 0.950 . S
H639 C669 0.950 . S
C640 H622 0.951 . S
C640 C641 1.366 . S
C640 C642 1.388 . S
C641 C640 1.366 . S
C641 C645 1.385 . S
C642 H623 0.951 . S
C642 C640 1.388 . S
C642 C643 1.366 . S
C643 C642 1.366 . S
C643 C644 1.414 . S
C643 C646 1.499 . S
C644 H624 0.950 . S
C644 C643 1.414 . S
C644 C645 1.374 . S
C645 H625 0.950 . S
C645 C641 1.385 . S
C645 C644 1.374 . S
C646 C643 1.499 . S
C646 C647 1.373 . S
C646 C648 1.389 . S
C647 H626 0.950 . S
C647 C646 1.373 . S
C647 C663 1.377 . S
C648 C646 1.389 . S
C648 C649 1.524 . S
C648 C662 1.377 . S
C649 C648 1.524 . S
C649 C650 1.397 . S
C649 C654 1.363 . S
C650 H627 0.950 . S
C650 C649 1.397 . S
C650 C651 1.334 . S
C651 H628 0.950 . S
C651 C650 1.334 . S
C651 C652 1.287 . S
C652 C651 1.287 . S
C652 C653 1.524 . S
C652 H671 0.913 . S
C653 H629 0.950 . S
C653 C652 1.524 . S
C653 C654 1.415 . S
C654 H630 0.950 . S
C654 C649 1.363 . S
C654 C653 1.415 . S
C655 H631 0.951 . S
C655 C656 1.366 . S
C655 C657 1.388 . S
C656 C655 1.366 . S
C656 C660 1.385 . S
C657 H632 0.951 . S
C657 C655 1.388 . S
C657 C658 1.366 . S
C658 C657 1.366 . S
C658 C659 1.414 . S
C658 C661 1.499 . S
C659 H633 0.950 . S
C659 C658 1.414 . S
C659 C660 1.374 . S
C660 H634 0.950 . S
C660 C656 1.385 . S
C660 C659 1.374 . S
C661 C658 1.499 . S
C661 C662 1.373 . S
C661 C663 1.389 . S
C662 H635 0.950 . S
C662 C648 1.377 . S
C662 C661 1.373 . S
C663 C647 1.377 . S
C663 C661 1.389 . S
C663 C664 1.524 . S
C664 C663 1.524 . S
C664 C665 1.397 . S
C664 C669 1.363 . S
C665 H636 0.950 . S
C665 C664 1.397 . S
C665 C666 1.334 . S
C666 H637 0.950 . S
C666 C665 1.334 . S
C666 C667 1.287 . S
C667 C666 1.287 . S
C667 C668 1.524 . S
C667 H670 0.999 . S
C668 H638 0.950 . S
C668 C667 1.524 . S
C668 C669 1.415 . S
C669 H639 0.950 . S
C669 C664 1.363 . S
C669 C668 1.415 . S
H670 C667 0.999 . S
H671 C652 0.913 . S
H672 C690 0.951 . S
H673 C692 0.951 . S
H674 C694 0.950 . S
H675 C695 0.950 . S
H676 C697 0.950 . S
H677 C700 0.950 . S
H678 C701 0.950 . S
H679 C703 0.950 . S
H680 C704 0.950 . S
H681 C705 0.951 . S
H682 C707 0.951 . S
H683 C709 0.950 . S
H684 C710 0.950 . S
H685 C712 0.950 . S
H686 C715 0.950 . S
H687 C716 0.950 . S
H688 C718 0.950 . S
H689 C719 0.950 . S
C690 H672 0.951 . S
C690 C691 1.366 . S
C690 C692 1.388 . S
C691 C690 1.366 . S
C691 C695 1.385 . S
C692 H673 0.951 . S
C692 C690 1.388 . S
C692 C693 1.366 . S
C693 C692 1.366 . S
C693 C694 1.414 . S
C693 C696 1.499 . S
C694 H674 0.950 . S
C694 C693 1.414 . S
C694 C695 1.374 . S
C695 H675 0.950 . S
C695 C691 1.385 . S
C695 C694 1.374 . S
C696 C693 1.499 . S
C696 C697 1.373 . S
C696 C698 1.389 . S
C697 H676 0.950 . S
C697 C696 1.373 . S
C697 C713 1.377 . S
C698 C696 1.389 . S
C698 C699 1.524 . S
C698 C712 1.377 . S
C699 C698 1.524 . S
C699 C700 1.397 . S
C699 C704 1.363 . S
C700 H677 0.950 . S
C700 C699 1.397 . S
C700 C701 1.334 . S
C701 H678 0.950 . S
C701 C700 1.334 . S
C701 C702 1.287 . S
C702 C701 1.287 . S
C702 C703 1.524 . S
C702 H721 0.913 . S
C703 H679 0.950 . S
C703 C702 1.524 . S
C703 C704 1.415 . S
C704 H680 0.950 . S
C704 C699 1.363 . S
C704 C703 1.415 . S
C705 H681 0.951 . S
C705 C706 1.366 . S
C705 C707 1.388 . S
C706 C705 1.366 . S
C706 C710 1.385 . S
C707 H682 0.951 . S
C707 C705 1.388 . S
C707 C708 1.366 . S
C708 C707 1.366 . S
C708 C709 1.414 . S
C708 C711 1.499 . S
C709 H683 0.950 . S
C709 C708 1.414 . S
C709 C710 1.374 . S
C710 H684 0.950 . S
C710 C706 1.385 . S
C710 C709 1.374 . S
C711 C708 1.499 . S
C711 C712 1.373 . S
C711 C713 1.389 . S
C712 H685 0.950 . S
C712 C698 1.377 . S
C712 C711 1.373 . S
C713 C697 1.377 . S
C713 C711 1.389 . S
C713 C714 1.524 . S
C714 C713 1.524 . S
C714 C715 1.397 . S
C714 C719 1.363 . S
C715 H686 0.950 . S
C715 C714 1.397 . S
C715 C716 1.334 . S
C716 H687 0.950 . S
C716 C715 1.334 . S
C716 C717 1.287 . S
C717 C716 1.287 . S
C717 C718 1.524 . S
C717 H720 0.999 . S
C718 H688 0.950 . S
C718 C717 1.524 . S
C718 C719 1.415 . S
C719 H689 0.950 . S
C719 C714 1.363 . S
C719 C718 1.415 . S
H720 C717 0.999 . S
H721 C702 0.913 . S
H722 C740 0.951 . S
H723 C742 0.951 . S
H724 C744 0.950 . S
H725 C745 0.950 . S
H726 C747 0.950 . S
H727 C750 0.950 . S
H728 C751 0.950 . S
H729 C753 0.950 . S
H730 C754 0.950 . S
H731 C755 0.951 . S
H732 C757 0.951 . S
H733 C759 0.950 . S
H734 C760 0.950 . S
H735 C762 0.950 . S
H736 C765 0.950 . S
H737 C766 0.950 . S
H738 C768 0.950 . S
H739 C769 0.950 . S
C740 H722 0.951 . S
C740 C741 1.366 . S
C740 C742 1.388 . S
C741 C740 1.366 . S
C741 C745 1.385 . S
C742 H723 0.951 . S
C742 C740 1.388 . S
C742 C743 1.366 . S
C743 C742 1.366 . S
C743 C744 1.414 . S
C743 C746 1.499 . S
C744 H724 0.950 . S
C744 C743 1.414 . S
C744 C745 1.374 . S
C745 H725 0.950 . S
C745 C741 1.385 . S
C745 C744 1.374 . S
C746 C743 1.499 . S
C746 C747 1.373 . S
C746 C748 1.389 . S
C747 H726 0.950 . S
C747 C746 1.373 . S
C747 C763 1.377 . S
C748 C746 1.389 . S
C748 C749 1.524 . S
C748 C762 1.377 . S
C749 C748 1.524 . S
C749 C750 1.397 . S
C749 C754 1.363 . S
C750 H727 0.950 . S
C750 C749 1.397 . S
C750 C751 1.334 . S
C751 H728 0.950 . S
C751 C750 1.334 . S
C751 C752 1.287 . S
C752 C751 1.287 . S
C752 C753 1.524 . S
C752 H771 0.913 . S
C753 H729 0.950 . S
C753 C752 1.524 . S
C753 C754 1.415 . S
C754 H730 0.950 . S
C754 C749 1.363 . S
C754 C753 1.415 . S
C755 H731 0.951 . S
C755 C756 1.366 . S
C755 C757 1.388 . S
C756 C755 1.366 . S
C756 C760 1.385 . S
C757 H732 0.951 . S
C757 C755 1.388 . S
C757 C758 1.366 . S
C758 C757 1.366 . S
C758 C759 1.414 . S
C758 C761 1.499 . S
C759 H733 0.950 . S
C759 C758 1.414 . S
C759 C760 1.374 . S
C760 H734 0.950 . S
C760 C756 1.385 . S
C760 C759 1.374 . S
C761 C758 1.499 . S
C761 C762 1.373 . S
C761 C763 1.389 . S
C762 H735 0.950 . S
C762 C748 1.377 . S
C762 C761 1.373 . S
C763 C747 1.377 . S
C763 C761 1.389 . S
C763 C764 1.524 . S
C764 C763 1.524 . S
C764 C765 1.397 . S
C764 C769 1.363 . S
C765 H736 0.950 . S
C765 C764 1.397 . S
C765 C766 1.334 . S
C766 H737 0.950 . S
C766 C765 1.334 . S
C766 C767 1.287 . S
C767 C766 1.287 . S
C767 C768 1.524 . S
C767 H770 0.999 . S
C768 H738 0.950 . S
C768 C767 1.524 . S
C768 C769 1.415 . S
C769 H739 0.950 . S
C769 C764 1.363 . S
C769 C768 1.415 . S
H770 C767 0.999 . S
H771 C752 0.913 . S
H772 C790 0.951 . S
H773 C792 0.951 . S
H774 C794 0.950 . S
H775 C795 0.950 . S
H776 C797 0.950 . S
H777 C800 0.950 . S
H778 C801 0.950 . S
H779 C803 0.950 . S
H780 C804 0.950 . S
H781 C805 0.951 . S
H782 C807 0.951 . S
H783 C809 0.950 . S
H784 C810 0.950 . S
H785 C812 0.950 . S
H786 C815 0.950 . S
H787 C816 0.950 . S
H788 C818 0.950 . S
H789 C819 0.950 . S
C790 H772 0.951 . S
C790 C791 1.366 . S
C790 C792 1.388 . S
C791 C790 1.366 . S
C791 C795 1.385 . S
C792 H773 0.951 . S
C792 C790 1.388 . S
C792 C793 1.366 . S
C793 C792 1.366 . S
C793 C794 1.414 . S
C793 C796 1.499 . S
C794 H774 0.950 . S
C794 C793 1.414 . S
C794 C795 1.374 . S
C795 H775 0.950 . S
C795 C791 1.385 . S
C795 C794 1.374 . S
C796 C793 1.499 . S
C796 C797 1.373 . S
C796 C798 1.389 . S
C797 H776 0.950 . S
C797 C796 1.373 . S
C797 C813 1.377 . S
C798 C796 1.389 . S
C798 C799 1.524 . S
C798 C812 1.377 . S
C799 C798 1.524 . S
C799 C800 1.397 . S
C799 C804 1.363 . S
C800 H777 0.950 . S
C800 C799 1.397 . S
C800 C801 1.334 . S
C801 H778 0.950 . S
C801 C800 1.334 . S
C801 C802 1.287 . S
C802 C801 1.287 . S
C802 C803 1.524 . S
C802 H821 0.913 . S
C803 H779 0.950 . S
C803 C802 1.524 . S
C803 C804 1.415 . S
C804 H780 0.950 . S
C804 C799 1.363 . S
C804 C803 1.415 . S
C805 H781 0.951 . S
C805 C806 1.366 . S
C805 C807 1.388 . S
C806 C805 1.366 . S
C806 C810 1.385 . S
C807 H782 0.951 . S
C807 C805 1.388 . S
C807 C808 1.366 . S
C808 C807 1.366 . S
C808 C809 1.414 . S
C808 C811 1.499 . S
C809 H783 0.950 . S
C809 C808 1.414 . S
C809 C810 1.374 . S
C810 H784 0.950 . S
C810 C806 1.385 . S
C810 C809 1.374 . S
C811 C808 1.499 . S
C811 C812 1.373 . S
C811 C813 1.389 . S
C812 H785 0.950 . S
C812 C798 1.377 . S
C812 C811 1.373 . S
C813 C797 1.377 . S
C813 C811 1.389 . S
C813 C814 1.524 . S
C814 C813 1.524 . S
C814 C815 1.397 . S
C814 C819 1.363 . S
C815 H786 0.950 . S
C815 C814 1.397 . S
C815 C816 1.334 . S
C816 H787 0.950 . S
C816 C815 1.334 . S
C816 C817 1.287 . S
C817 C816 1.287 . S
C817 C818 1.524 . S
C817 H820 0.999 . S
C818 H788 0.950 . S
C818 C817 1.524 . S
C818 C819 1.415 . S
C819 H789 0.950 . S
C819 C814 1.363 . S
C819 C818 1.415 . S
H820 C817 0.999 . S
H821 C802 0.913 . S
H822 C840 0.951 1_556 S
H823 C842 0.951 . S
H824 C844 0.950 . S
H825 C845 0.950 . S
H826 C847 0.950 . S
H827 C850 0.950 . S
H828 C851 0.950 . S
H829 C853 0.980 . S
H830 C854 0.950 . S
H831 C855 0.951 . S
H832 C857 0.951 . S
H833 C859 0.950 . S
H834 C860 0.950 . S
H835 C862 0.950 . S
H836 C865 0.950 . S
H837 C866 0.950 . S
H838 C868 0.950 . S
H839 C869 0.950 . S
C840 H822 0.951 1_554 S
C840 C841 1.366 . S
C840 C842 1.388 . S
C841 C840 1.366 . S
C841 C845 1.385 . S
C842 H823 0.951 . S
C842 C840 1.388 . S
C842 C843 1.366 . S
C843 C842 1.366 . S
C843 C844 1.414 . S
C843 C846 1.499 . S
C844 H824 0.950 . S
C844 C843 1.414 . S
C844 C845 1.374 . S
C845 H825 0.950 . S
C845 C841 1.385 . S
C845 C844 1.374 . S
C846 C843 1.499 . S
C846 C847 1.373 . S
C846 C848 1.389 . S
C847 H826 0.950 . S
C847 C846 1.373 . S
C847 C863 1.377 . S
C848 C846 1.389 . S
C848 C849 1.524 . S
C848 C862 1.377 . S
C849 C848 1.524 . S
C849 C850 1.397 . S
C849 C854 1.363 . S
C850 H827 0.950 . S
C850 C849 1.397 . S
C850 C851 1.334 . S
C851 H828 0.950 . S
C851 C850 1.334 . S
C851 C852 1.287 . S
C852 C851 1.287 . S
C852 C853 1.504 1_554 S
C852 H871 0.913 . S
C853 H829 0.980 . S
C853 C852 1.504 1_556 S
C853 C854 1.401 1_556 S
C854 H830 0.950 . S
C854 C849 1.363 . S
C854 C853 1.401 1_554 S
C855 H831 0.951 . S
C855 C856 1.366 . S
C855 C857 1.388 . S
C856 C855 1.366 . S
C856 C860 1.385 . S
C857 H832 0.951 . S
C857 C855 1.388 . S
C857 C858 1.366 . S
C858 C857 1.366 . S
C858 C859 1.414 . S
C858 C861 1.499 . S
C859 H833 0.950 . S
C859 C858 1.414 . S
C859 C860 1.374 . S
C860 H834 0.950 . S
C860 C856 1.385 . S
C860 C859 1.374 . S
C861 C858 1.499 . S
C861 C862 1.373 . S
C861 C863 1.389 . S
C862 H835 0.950 . S
C862 C848 1.377 . S
C862 C861 1.373 . S
C863 C847 1.377 . S
C863 C861 1.389 . S
C863 C864 1.524 . S
C864 C863 1.524 . S
C864 C865 1.397 . S
C864 C869 1.363 . S
C865 H836 0.950 . S
C865 C864 1.397 . S
C865 C866 1.334 . S
C866 H837 0.950 . S
C866 C865 1.334 . S
C866 C867 1.287 . S
C867 C866 1.287 . S
C867 C868 1.524 . S
C867 H870 0.999 . S
C868 H838 0.950 . S
C868 C867 1.524 . S
C868 C869 1.415 . S
C869 H839 0.950 . S
C869 C864 1.363 . S
C869 C868 1.415 . S
H870 C867 0.999 . S
H871 C852 0.913 . S
H872 C890 0.951 . S
H873 C892 0.951 . S
H874 C894 0.950 . S
H875 C895 0.950 . S
H876 C897 0.950 . S
H877 C900 0.950 . S
H878 C901 0.950 . S
H879 C903 0.950 . S
H880 C904 0.950 . S
H881 C905 0.951 . S
H882 C907 0.951 . S
H883 C909 0.950 . S
H884 C910 0.950 . S
H885 C912 0.950 . S
H886 C915 0.950 . S
H887 C916 0.950 . S
H888 C918 0.950 . S
H889 C919 0.950 . S
C890 H872 0.951 . S
C890 C891 1.366 . S
C890 C892 1.388 . S
C891 C890 1.366 . S
C891 C895 1.385 . S
C892 H873 0.951 . S
C892 C890 1.388 . S
C892 C893 1.366 . S
C893 C892 1.366 . S
C893 C894 1.414 . S
C893 C896 1.499 . S
C894 H874 0.950 . S
C894 C893 1.414 . S
C894 C895 1.374 . S
C895 H875 0.950 . S
C895 C891 1.385 . S
C895 C894 1.374 . S
C896 C893 1.499 . S
C896 C897 1.373 . S
C896 C898 1.389 . S
C897 H876 0.950 . S
C897 C896 1.373 . S
C897 C913 1.377 . S
C898 C896 1.389 . S
C898 C899 1.524 . S
C898 C912 1.377 . S
C899 C898 1.524 . S
C899 C900 1.397 . S
C899 C904 1.363 . S
C900 H877 0.950 . S
C900 C899 1.397 . S
C900 C901 1.334 . S
C901 H878 0.950 . S
C901 C900 1.334 . S
C901 C902 1.287 . S
C902 C901 1.287 . S
C902 C903 1.524 . S
C902 H921 0.913 . S
C903 H879 0.950 . S
C903 C902 1.524 . S
C903 C904 1.415 . S
C904 H880 0.950 . S
C904 C899 1.363 . S
C904 C903 1.415 . S
C905 H881 0.951 . S
C905 C906 1.366 . S
C905 C907 1.388 . S
C906 C905 1.366 . S
C906 C910 1.385 . S
C907 H882 0.951 . S
C907 C905 1.388 . S
C907 C908 1.366 . S
C908 C907 1.366 . S
C908 C909 1.414 . S
C908 C911 1.499 . S
C909 H883 0.950 . S
C909 C908 1.414 . S
C909 C910 1.374 . S
C910 H884 0.950 . S
C910 C906 1.385 . S
C910 C909 1.374 . S
C911 C908 1.499 . S
C911 C912 1.373 . S
C911 C913 1.389 . S
C912 H885 0.950 . S
C912 C898 1.377 . S
C912 C911 1.373 . S
C913 C897 1.377 . S
C913 C911 1.389 . S
C913 C914 1.524 . S
C914 C913 1.524 . S
C914 C915 1.397 . S
C914 C919 1.363 . S
C915 H886 0.950 . S
C915 C914 1.397 . S
C915 C916 1.334 . S
C916 H887 0.950 . S
C916 C915 1.334 . S
C916 C917 1.287 . S
C917 C916 1.287 . S
C917 C918 1.524 . S
C917 H920 0.999 . S
C918 H888 0.950 . S
C918 C917 1.524 . S
C918 C919 1.415 . S
C919 H889 0.950 . S
C919 C914 1.363 . S
C919 C918 1.415 . S
H920 C917 0.999 . S
H921 C902 0.913 . S
H922 C940 0.951 . S
H923 C942 0.951 . S
H924 C944 0.950 . S
H925 C945 0.950 . S
H926 C947 0.950 . S
H927 C950 0.950 . S
H928 C951 0.950 . S
H929 C953 0.950 . S
H930 C954 0.950 . S
H931 C955 0.951 . S
H932 C957 0.951 . S
H933 C959 0.950 . S
H934 C960 0.950 . S
H935 C962 0.950 . S
H936 C965 0.950 . S
H937 C966 0.950 . S
H938 C968 0.950 . S
H939 C969 0.950 . S
C940 H922 0.951 . S
C940 C941 1.366 . S
C940 C942 1.388 . S
C941 C940 1.366 . S
C941 C945 1.385 . S
C942 H923 0.951 . S
C942 C940 1.388 . S
C942 C943 1.366 . S
C943 C942 1.366 . S
C943 C944 1.414 . S
C943 C946 1.499 . S
C944 H924 0.950 . S
C944 C943 1.414 . S
C944 C945 1.374 . S
C945 H925 0.950 . S
C945 C941 1.385 . S
C945 C944 1.374 . S
C946 C943 1.499 . S
C946 C947 1.373 . S
C946 C948 1.389 . S
C947 H926 0.950 . S
C947 C946 1.373 . S
C947 C963 1.377 . S
C948 C946 1.389 . S
C948 C949 1.524 . S
C948 C962 1.377 . S
C949 C948 1.524 . S
C949 C950 1.397 . S
C949 C954 1.363 . S
C950 H927 0.950 . S
C950 C949 1.397 . S
C950 C951 1.334 . S
C951 H928 0.950 . S
C951 C950 1.334 . S
C951 C952 1.287 . S
C952 C951 1.287 . S
C952 C953 1.524 . S
C952 H971 0.913 . S
C953 H929 0.950 . S
C953 C952 1.524 . S
C953 C954 1.415 . S
C954 H930 0.950 . S
C954 C949 1.363 . S
C954 C953 1.415 . S
C955 H931 0.951 . S
C955 C956 1.366 . S
C955 C957 1.388 . S
C956 C955 1.366 . S
C956 C960 1.385 . S
C957 H932 0.951 . S
C957 C955 1.388 . S
C957 C958 1.366 . S
C958 C957 1.366 . S
C958 C959 1.414 . S
C958 C961 1.499 . S
C959 H933 0.950 . S
C959 C958 1.414 . S
C959 C960 1.374 . S
C960 H934 0.950 . S
C960 C956 1.385 . S
C960 C959 1.374 . S
C961 C958 1.499 . S
C961 C962 1.373 . S
C961 C963 1.389 . S
C962 H935 0.950 . S
C962 C948 1.377 . S
C962 C961 1.373 . S
C963 C947 1.377 . S
C963 C961 1.389 . S
C963 C964 1.524 . S
C964 C963 1.524 . S
C964 C965 1.397 . S
C964 C969 1.363 . S
C965 H936 0.950 . S
C965 C964 1.397 . S
C965 C966 1.334 . S
C966 H937 0.950 . S
C966 C965 1.334 . S
C966 C967 1.287 . S
C967 C966 1.287 . S
C967 C968 1.524 . S
C967 H970 0.999 . S
C968 H938 0.950 . S
C968 C967 1.524 . S
C968 C969 1.415 . S
C969 H939 0.950 . S
C969 C964 1.363 . S
C969 C968 1.415 . S
H970 C967 0.999 . S
H971 C952 0.913 . S
H972 C990 0.951 . S
H973 C992 0.951 . S
H974 C994 0.950 . S
H975 C995 0.950 . S
H976 C997 0.950 . S
H977 C1000 0.950 . S
H978 C1001 0.950 . S
H979 C1003 0.950 . S
H980 C1004 0.950 . S
H981 C1005 0.951 . S
H982 C1007 0.951 . S
H983 C1009 0.950 . S
H984 C1010 0.950 . S
H985 C1012 0.950 . S
H986 C1015 0.950 . S
H987 C1016 0.950 . S
H988 C1018 0.950 . S
H989 C1019 0.950 . S
C990 H972 0.951 . S
C990 C991 1.366 . S
C990 C992 1.388 . S
C991 C990 1.366 . S
C991 C995 1.385 . S
C992 H973 0.951 . S
C992 C990 1.388 . S
C992 C993 1.366 . S
C993 C992 1.366 . S
C993 C994 1.414 . S
C993 C996 1.499 . S
C994 H974 0.950 . S
C994 C993 1.414 . S
C994 C995 1.374 . S
C995 H975 0.950 . S
C995 C991 1.385 . S
C995 C994 1.374 . S
C996 C993 1.499 . S
C996 C997 1.373 . S
C996 C998 1.389 . S
C997 H976 0.950 . S
C997 C996 1.373 . S
C997 C1013 1.377 . S
C998 C996 1.389 . S
C998 C999 1.524 . S
C998 C1012 1.377 . S
C999 C998 1.524 . S
C999 C1000 1.397 . S
C999 C1004 1.363 . S
C1000 H977 0.950 . S
C1000 C999 1.397 . S
C1000 C1001 1.334 . S
C1001 H978 0.950 . S
C1001 C1000 1.334 . S
C1001 C1002 1.287 . S
C1002 C1001 1.287 . S
C1002 C1003 1.524 . S
C1002 H1021 0.913 . S
C1003 H979 0.950 . S
C1003 C1002 1.524 . S
C1003 C1004 1.415 . S
C1004 H980 0.950 . S
C1004 C999 1.363 . S
C1004 C1003 1.415 . S
C1005 H981 0.951 . S
C1005 C1006 1.366 . S
C1005 C1007 1.388 . S
C1006 C1005 1.366 . S
C1006 C1010 1.385 . S
C1007 H982 0.951 . S
C1007 C1005 1.388 . S
C1007 C1008 1.366 . S
C1008 C1007 1.366 . S
C1008 C1009 1.414 . S
C1008 C1011 1.499 . S
C1009 H983 0.950 . S
C1009 C1008 1.414 . S
C1009 C1010 1.374 . S
C1010 H984 0.950 . S
C1010 C1006 1.385 . S
C1010 C1009 1.374 . S
C1011 C1008 1.499 . S
C1011 C1012 1.373 . S
C1011 C1013 1.389 . S
C1012 H985 0.950 . S
C1012 C998 1.377 . S
C1012 C1011 1.373 . S
C1013 C997 1.377 . S
C1013 C1011 1.389 . S
C1013 C1014 1.524 . S
C1014 C1013 1.524 . S
C1014 C1015 1.397 . S
C1014 C1019 1.363 . S
C1015 H986 0.950 . S
C1015 C1014 1.397 . S
C1015 C1016 1.334 . S
C1016 H987 0.950 . S
C1016 C1015 1.334 . S
C1016 C1017 1.287 . S
C1017 C1016 1.287 . S
C1017 C1018 1.524 . S
C1017 H1020 0.999 . S
C1018 H988 0.950 . S
C1018 C1017 1.524 . S
C1018 C1019 1.415 . S
C1019 H989 0.950 . S
C1019 C1014 1.363 . S
C1019 C1018 1.415 . S
H1020 C1017 0.999 . S
H1021 C1002 0.913 . S
H1022 C1040 0.951 . S
H1023 C1042 0.951 . S
H1024 C1044 0.950 . S
H1025 C1045 0.950 . S
H1026 C1047 0.950 . S
H1027 C1050 0.950 . S
H1028 C1051 0.950 . S
H1029 C1053 0.950 . S
H1030 C1054 0.950 . S
H1031 C1055 0.951 . S
H1032 C1057 0.951 . S
H1033 C1059 0.950 . S
H1034 C1060 0.950 . S
H1035 C1062 0.950 . S
H1036 C1065 0.950 . S
H1037 C1066 0.950 . S
H1038 C1068 0.950 . S
H1039 C1069 0.950 . S
C1040 H1022 0.951 . S
C1040 C1041 1.366 . S
C1040 C1042 1.388 . S
C1041 C1040 1.366 . S
C1041 C1045 1.385 . S
C1042 H1023 0.951 . S
C1042 C1040 1.388 . S
C1042 C1043 1.366 . S
C1043 C1042 1.366 . S
C1043 C1044 1.414 . S
C1043 C1046 1.499 . S
C1044 H1024 0.950 . S
C1044 C1043 1.414 . S
C1044 C1045 1.374 . S
C1045 H1025 0.950 . S
C1045 C1041 1.385 . S
C1045 C1044 1.374 . S
C1046 C1043 1.499 . S
C1046 C1047 1.373 . S
C1046 C1048 1.389 . S
C1047 H1026 0.950 . S
C1047 C1046 1.373 . S
C1047 C1063 1.377 . S
C1048 C1046 1.389 . S
C1048 C1049 1.524 . S
C1048 C1062 1.377 . S
C1049 C1048 1.524 . S
C1049 C1050 1.397 . S
C1049 C1054 1.363 . S
C1050 H1027 0.950 . S
C1050 C1049 1.397 . S
C1050 C1051 1.334 . S
C1051 H1028 0.950 . S
C1051 C1050 1.334 . S
C1051 C1052 1.287 . S
C1052 C1051 1.287 . S
C1052 C1053 1.524 . S
C1052 H1071 0.913 . S
C1053 H1029 0.950 . S
C1053 C1052 1.524 . S
C1053 C1054 1.415 . S
C1054 H1030 0.950 . S
C1054 C1049 1.363 . S
C1054 C1053 1.415 . S
C1055 H1031 0.951 . S
C1055 C1056 1.366 . S
C1055 C1057 1.388 . S
C1056 C1055 1.366 . S
C1056 C1060 1.385 . S
C1057 H1032 0.951 . S
C1057 C1055 1.388 . S
C1057 C1058 1.366 . S
C1058 C1057 1.366 . S
C1058 C1059 1.414 . S
C1058 C1061 1.499 . S
C1059 H1033 0.950 . S
C1059 C1058 1.414 . S
C1059 C1060 1.374 . S
C1060 H1034 0.950 . S
C1060 C1056 1.385 . S
C1060 C1059 1.374 . S
C1061 C1058 1.499 . S
C1061 C1062 1.373 . S
C1061 C1063 1.389 . S
C1062 H1035 0.950 . S
C1062 C1048 1.377 . S
C1062 C1061 1.373 . S
C1063 C1047 1.377 . S
C1063 C1061 1.389 . S
C1063 C1064 1.524 . S
C1064 C1063 1.524 . S
C1064 C1065 1.397 . S
C1064 C1069 1.363 . S
C1065 H1036 0.950 . S
C1065 C1064 1.397 . S
C1065 C1066 1.334 . S
C1066 H1037 0.950 . S
C1066 C1065 1.334 . S
C1066 C1067 1.287 . S
C1067 C1066 1.287 . S
C1067 C1068 1.524 . S
C1067 H1070 0.999 . S
C1068 H1038 0.950 . S
C1068 C1067 1.524 . S
C1068 C1069 1.415 . S
C1069 H1039 0.950 . S
C1069 C1064 1.363 . S
C1069 C1068 1.415 . S
H1070 C1067 0.999 . S
H1071 C1052 0.913 . S
H1072 C1090 0.951 . S
H1073 C1092 0.951 . S
H1074 C1094 0.950 . S
H1075 C1095 0.950 . S
H1076 C1097 0.950 . S
H1077 C1100 0.950 . S
H1078 C1101 0.950 . S
H1079 C1103 0.950 . S
H1080 C1104 0.950 . S
H1081 C1105 0.951 . S
H1082 C1107 0.951 . S
H1083 C1109 0.950 . S
H1084 C1110 0.950 . S
H1085 C1112 0.950 . S
H1086 C1115 0.950 . S
H1087 C1116 0.950 . S
H1088 C1118 0.950 . S
H1089 C1119 0.950 . S
C1090 H1072 0.951 . S
C1090 C1091 1.366 . S
C1090 C1092 1.388 . S
C1091 C1090 1.366 . S
C1091 C1095 1.385 . S
C1092 H1073 0.951 . S
C1092 C1090 1.388 . S
C1092 C1093 1.366 . S
C1093 C1092 1.366 . S
C1093 C1094 1.414 . S
C1093 C1096 1.499 . S
C1094 H1074 0.950 . S
C1094 C1093 1.414 . S
C1094 C1095 1.374 . S
C1095 H1075 0.950 . S
C1095 C1091 1.385 . S
C1095 C1094 1.374 . S
C1096 C1093 1.499 . S
C1096 C1097 1.373 . S
C1096 C1098 1.389 . S
C1097 H1076 0.950 . S
C1097 C1096 1.373 . S
C1097 C1113 1.377 . S
C1098 C1096 1.389 . S
C1098 C1099 1.524 . S
C1098 C1112 1.377 . S
C1099 C1098 1.524 . S
C1099 C1100 1.397 . S
C1099 C1104 1.363 . S
C1100 H1077 0.950 . S
C1100 C1099 1.397 . S
C1100 C1101 1.334 . S
C1101 H1078 0.950 . S
C1101 C1100 1.334 . S
C1101 C1102 1.287 . S
C1102 C1101 1.287 . S
C1102 C1103 1.524 . S
C1102 H1121 0.913 . S
C1103 H1079 0.950 . S
C1103 C1102 1.524 . S
C1103 C1104 1.415 . S
C1104 H1080 0.950 . S
C1104 C1099 1.363 . S
C1104 C1103 1.415 . S
C1105 H1081 0.951 . S
C1105 C1106 1.366 . S
C1105 C1107 1.388 . S
C1106 C1105 1.366 . S
C1106 C1110 1.385 . S
C1107 H1082 0.951 . S
C1107 C1105 1.388 . S
C1107 C1108 1.366 . S
C1108 C1107 1.366 . S
C1108 C1109 1.414 . S
C1108 C1111 1.499 . S
C1109 H1083 0.950 . S
C1109 C1108 1.414 . S
C1109 C1110 1.374 . S
C1110 H1084 0.950 . S
C1110 C1106 1.385 . S
C1110 C1109 1.374 . S
C1111 C1108 1.499 . S
C1111 C1112 1.373 . S
C1111 C1113 1.389 . S
C1112 H1085 0.950 . S
C1112 C1098 1.377 . S
C1112 C1111 1.373 . S
C1113 C1097 1.377 . S
C1113 C1111 1.389 . S
C1113 C1114 1.524 . S
C1114 C1113 1.524 . S
C1114 C1115 1.397 . S
C1114 C1119 1.363 . S
C1115 H1086 0.950 . S
C1115 C1114 1.397 . S
C1115 C1116 1.334 . S
C1116 H1087 0.950 . S
C1116 C1115 1.334 . S
C1116 C1117 1.287 . S
C1117 C1116 1.287 . S
C1117 C1118 1.524 . S
C1117 H1120 0.999 . S
C1118 H1088 0.950 . S
C1118 C1117 1.524 . S
C1118 C1119 1.415 . S
C1119 H1089 0.950 . S
C1119 C1114 1.363 . S
C1119 C1118 1.415 . S
H1120 C1117 0.999 . S
H1121 C1102 0.913 . S
H1122 C1140 0.951 . S
H1123 C1142 0.951 . S
H1124 C1144 0.950 . S
H1125 C1145 0.950 . S
H1126 C1147 0.950 . S
H1127 C1150 0.950 . S
H1128 C1151 0.950 . S
H1129 C1153 0.950 . S
H1130 C1154 0.950 . S
H1131 C1155 0.951 . S
H1132 C1157 0.951 . S
H1133 C1159 0.950 . S
H1134 C1160 0.950 . S
H1135 C1162 0.950 . S
H1136 C1165 0.950 . S
H1137 C1166 0.950 . S
H1138 C1168 0.950 . S
H1139 C1169 0.950 . S
C1140 H1122 0.951 . S
C1140 C1141 1.366 . S
C1140 C1142 1.388 . S
C1141 C1140 1.366 . S
C1141 C1145 1.385 . S
C1142 H1123 0.951 . S
C1142 C1140 1.388 . S
C1142 C1143 1.366 . S
C1143 C1142 1.366 . S
C1143 C1144 1.414 . S
C1143 C1146 1.499 . S
C1144 H1124 0.950 . S
C1144 C1143 1.414 . S
C1144 C1145 1.374 . S
C1145 H1125 0.950 . S
C1145 C1141 1.385 . S
C1145 C1144 1.374 . S
C1146 C1143 1.499 . S
C1146 C1147 1.373 . S
C1146 C1148 1.389 . S
C1147 H1126 0.950 . S
C1147 C1146 1.373 . S
C1147 C1163 1.377 . S
C1148 C1146 1.389 . S
C1148 C1149 1.524 . S
C1148 C1162 1.377 . S
C1149 C1148 1.524 . S
C1149 C1150 1.397 . S
C1149 C1154 1.363 . S
C1150 H1127 0.950 . S
C1150 C1149 1.397 . S
C1150 C1151 1.334 . S
C1151 H1128 0.950 . S
C1151 C1150 1.334 . S
C1151 C1152 1.287 . S
C1152 C1151 1.287 . S
C1152 C1153 1.524 . S
C1152 H1171 0.913 . S
C1153 H1129 0.950 . S
C1153 C1152 1.524 . S
C1153 C1154 1.415 . S
C1154 H1130 0.950 . S
C1154 C1149 1.363 . S
C1154 C1153 1.415 . S
C1155 H1131 0.951 . S
C1155 C1156 1.366 . S
C1155 C1157 1.388 . S
C1156 C1155 1.366 . S
C1156 C1160 1.385 . S
C1157 H1132 0.951 . S
C1157 C1155 1.388 . S
C1157 C1158 1.366 1_554 S
C1158 C1157 1.366 1_556 S
C1158 C1159 1.414 . S
C1158 C1161 1.499 . S
C1159 H1133 0.950 . S
C1159 C1158 1.414 . S
C1159 C1160 1.374 1_556 S
C1160 H1134 0.950 . S
C1160 C1156 1.385 . S
C1160 C1159 1.374 1_554 S
C1161 C1158 1.499 . S
C1161 C1162 1.373 . S
C1161 C1163 1.389 . S
C1162 H1135 0.950 . S
C1162 C1148 1.377 . S
C1162 C1161 1.373 . S
C1163 C1147 1.377 . S
C1163 C1161 1.389 . S
C1163 C1164 1.524 . S
C1164 C1163 1.524 . S
C1164 C1165 1.397 . S
C1164 C1169 1.363 1_556 S
C1165 H1136 0.950 . S
C1165 C1164 1.397 . S
C1165 C1166 1.334 1_556 S
C1166 H1137 0.950 . S
C1166 C1165 1.334 1_554 S
C1166 C1167 1.287 . S
C1167 C1166 1.287 . S
C1167 C1168 1.524 . S
C1167 H1170 0.999 . S
C1168 H1138 0.950 . S
C1168 C1167 1.524 . S
C1168 C1169 1.415 . S
C1169 H1139 0.950 . S
C1169 C1164 1.363 1_554 S
C1169 C1168 1.415 . S
H1170 C1167 0.999 . S
H1171 C1152 0.913 . S
H1172 C1190 0.951 . S
H1173 C1192 0.951 . S
H1174 C1194 0.950 . S
H1175 C1195 0.950 . S
H1176 C1197 0.950 . S
H1177 C1200 0.950 . S
H1178 C1201 0.950 . S
H1179 C1203 0.950 . S
H1180 C1204 0.950 . S
H1181 C1205 0.951 . S
H1182 C1207 0.951 . S
H1183 C1209 0.950 . S
H1184 C1210 0.950 . S
H1185 C1212 0.950 . S
H1186 C1215 0.950 . S
H1187 C1216 0.950 . S
H1188 C1218 0.950 . S
H1189 C1219 0.950 . S
C1190 H1172 0.951 . S
C1190 C1191 1.366 . S
C1190 C1192 1.388 . S
C1191 C1190 1.366 . S
C1191 C1195 1.385 . S
C1192 H1173 0.951 . S
C1192 C1190 1.388 . S
C1192 C1193 1.366 . S
C1193 C1192 1.366 . S
C1193 C1194 1.414 . S
C1193 C1196 1.499 . S
C1194 H1174 0.950 . S
C1194 C1193 1.414 . S
C1194 C1195 1.374 . S
C1195 H1175 0.950 . S
C1195 C1191 1.385 . S
C1195 C1194 1.374 . S
C1196 C1193 1.499 . S
C1196 C1197 1.373 . S
C1196 C1198 1.389 . S
C1197 H1176 0.950 . S
C1197 C1196 1.373 . S
C1197 C1213 1.377 . S
C1198 C1196 1.389 . S
C1198 C1199 1.524 . S
C1198 C1212 1.377 . S
C1199 C1198 1.524 . S
C1199 C1200 1.397 . S
C1199 C1204 1.363 . S
C1200 H1177 0.950 . S
C1200 C1199 1.397 . S
C1200 C1201 1.334 . S
C1201 H1178 0.950 . S
C1201 C1200 1.334 . S
C1201 C1202 1.287 . S
C1202 C1201 1.287 . S
C1202 C1203 1.524 . S
C1202 H1221 0.913 . S
C1203 H1179 0.950 . S
C1203 C1202 1.524 . S
C1203 C1204 1.415 . S
C1204 H1180 0.950 . S
C1204 C1199 1.363 . S
C1204 C1203 1.415 . S
C1205 H1181 0.951 . S
C1205 C1206 1.366 . S
C1205 C1207 1.388 . S
C1206 C1205 1.366 . S
C1206 C1210 1.385 . S
C1207 H1182 0.951 . S
C1207 C1205 1.388 . S
C1207 C1208 1.366 . S
C1208 C1207 1.366 . S
C1208 C1209 1.414 . S
C1208 C1211 1.499 . S
C1209 H1183 0.950 . S
C1209 C1208 1.414 . S
C1209 C1210 1.374 . S
C1210 H1184 0.950 . S
C1210 C1206 1.385 . S
C1210 C1209 1.374 . S
C1211 C1208 1.499 . S
C1211 C1212 1.373 . S
C1211 C1213 1.389 . S
C1212 H1185 0.950 . S
C1212 C1198 1.377 . S
C1212 C1211 1.373 . S
C1213 C1197 1.377 . S
C1213 C1211 1.389 . S
C1213 C1214 1.524 . S
C1214 C1213 1.524 . S
C1214 C1215 1.397 . S
C1214 C1219 1.363 . S
C1215 H1186 0.950 . S
C1215 C1214 1.397 . S
C1215 C1216 1.334 . S
C1216 H1187 0.950 . S
C1216 C1215 1.334 . S
C1216 C1217 1.287 . S
C1217 C1216 1.287 . S
C1217 C1218 1.524 . S
C1217 H1220 0.999 . S
C1218 H1188 0.950 . S
C1218 C1217 1.524 . S
C1218 C1219 1.415 . S
C1219 H1189 0.950 . S
C1219 C1214 1.363 . S
C1219 C1218 1.415 . S
H1220 C1217 0.999 . S
H1221 C1202 0.913 . S
H1222 C1240 0.951 . S
H1223 C1242 0.951 . S
H1224 C1244 0.950 . S
H1225 C1245 0.950 . S
H1226 C1247 0.950 . S
H1227 C1250 0.950 . S
H1228 C1251 0.950 . S
H1229 C1253 0.950 . S
H1230 C1254 0.950 . S
H1231 C1255 0.951 . S
H1232 C1257 0.951 . S
H1233 C1259 0.950 . S
H1234 C1260 0.950 . S
H1235 C1262 0.950 . S
H1236 C1265 0.950 . S
H1237 C1266 0.950 . S
H1238 C1268 0.950 . S
H1239 C1269 0.950 . S
C1240 H1222 0.951 . S
C1240 C1241 1.366 . S
C1240 C1242 1.388 . S
C1241 C1240 1.366 . S
C1241 C1245 1.385 . S
C1242 H1223 0.951 . S
C1242 C1240 1.388 . S
C1242 C1243 1.366 . S
C1243 C1242 1.366 . S
C1243 C1244 1.414 . S
C1243 C1246 1.499 . S
C1244 H1224 0.950 . S
C1244 C1243 1.414 . S
C1244 C1245 1.374 . S
C1245 H1225 0.950 . S
C1245 C1241 1.385 . S
C1245 C1244 1.374 . S
C1246 C1243 1.499 . S
C1246 C1247 1.373 . S
C1246 C1248 1.389 . S
C1247 H1226 0.950 . S
C1247 C1246 1.373 . S
C1247 C1263 1.377 . S
C1248 C1246 1.389 . S
C1248 C1249 1.524 . S
C1248 C1262 1.377 . S
C1249 C1248 1.524 . S
C1249 C1250 1.397 . S
C1249 C1254 1.363 . S
C1250 H1227 0.950 . S
C1250 C1249 1.397 . S
C1250 C1251 1.334 . S
C1251 H1228 0.950 . S
C1251 C1250 1.334 . S
C1251 C1252 1.287 . S
C1252 C1251 1.287 . S
C1252 C1253 1.524 . S
C1252 H1271 0.913 . S
C1253 H1229 0.950 . S
C1253 C1252 1.524 . S
C1253 C1254 1.415 . S
C1254 H1230 0.950 . S
C1254 C1249 1.363 . S
C1254 C1253 1.415 . S
C1255 H1231 0.951 . S
C1255 C1256 1.366 . S
C1255 C1257 1.388 . S
C1256 C1255 1.366 . S
C1256 C1260 1.385 . S
C1257 H1232 0.951 . S
C1257 C1255 1.388 . S
C1257 C1258 1.366 . S
C1258 C1257 1.366 . S
C1258 C1259 1.414 . S
C1258 C1261 1.499 . S
C1259 H1233 0.950 . S
C1259 C1258 1.414 . S
C1259 C1260 1.374 . S
C1260 H1234 0.950 . S
C1260 C1256 1.385 . S
C1260 C1259 1.374 . S
C1261 C1258 1.499 . S
C1261 C1262 1.373 . S
C1261 C1263 1.389 . S
C1262 H1235 0.950 . S
C1262 C1248 1.377 . S
C1262 C1261 1.373 . S
C1263 C1247 1.377 . S
C1263 C1261 1.389 . S
C1263 C1264 1.524 . S
C1264 C1263 1.524 . S
C1264 C1265 1.397 . S
C1264 C1269 1.363 . S
C1265 H1236 0.950 . S
C1265 C1264 1.397 . S
C1265 C1266 1.334 . S
C1266 H1237 0.950 . S
C1266 C1265 1.334 . S
C1266 C1267 1.287 . S
C1267 C1266 1.287 . S
C1267 C1268 1.524 . S
C1267 H1270 0.999 . S
C1268 H1238 0.950 . S
C1268 C1267 1.524 . S
C1268 C1269 1.415 . S
C1269 H1239 0.950 . S
C1269 C1264 1.363 . S
C1269 C1268 1.415 . S
H1270 C1267 0.999 . S
H1271 C1252 0.913 . S
H1272 C1290 0.951 . S
H1273 C1292 0.951 . S
H1274 C1294 0.950 . S
H1275 C1295 0.950 . S
H1276 C1297 0.950 . S
H1277 C1300 0.950 . S
H1278 C1301 0.950 . S
H1279 C1303 0.950 . S
H1280 C1304 0.950 . S
H1281 C1305 0.951 . S
H1282 C1307 0.951 . S
H1283 C1309 0.950 . S
H1284 C1310 0.950 . S
H1285 C1312 0.950 . S
H1286 C1315 0.950 . S
H1287 C1316 0.950 . S
H1288 C1318 0.950 . S
H1289 C1319 0.950 . S
C1290 H1272 0.951 . S
C1290 C1291 1.366 . S
C1290 C1292 1.388 . S
C1291 C1290 1.366 . S
C1291 C1295 1.385 . S
C1292 H1273 0.951 . S
C1292 C1290 1.388 . S
C1292 C1293 1.366 . S
C1293 C1292 1.366 . S
C1293 C1294 1.414 . S
C1293 C1296 1.499 . S
C1294 H1274 0.950 . S
C1294 C1293 1.414 . S
C1294 C1295 1.374 . S
C1295 H1275 0.950 . S
C1295 C1291 1.385 . S
C1295 C1294 1.374 . S
C1296 C1293 1.499 . S
C1296 C1297 1.373 . S
C1296 C1298 1.389 . S
C1297 H1276 0.950 . S
C1297 C1296 1.373 . S
C1297 C1313 1.377 . S
C1298 C1296 1.389 . S
C1298 C1299 1.524 . S
C1298 C1312 1.377 . S
C1299 C1298 1.524 . S
C1299 C1300 1.397 . S
C1299 C1304 1.363 . S
C1300 H1277 0.950 . S
C1300 C1299 1.397 . S
C1300 C1301 1.334 . S
C1301 H1278 0.950 . S
C1301 C1300 1.334 . S
C1301 C1302 1.287 . S
C1302 C1301 1.287 . S
C1302 C1303 1.524 . S
C1302 H1321 0.913 . S
C1303 H1279 0.950 . S
C1303 C1302 1.524 . S
C1303 C1304 1.415 . S
C1304 H1280 0.950 . S
C1304 C1299 1.363 . S
C1304 C1303 1.415 . S
C1305 H1281 0.951 . S
C1305 C1306 1.366 . S
C1305 C1307 1.388 . S
C1306 C1305 1.366 . S
C1306 C1310 1.385 . S
C1307 H1282 0.951 . S
C1307 C1305 1.388 . S
C1307 C1308 1.366 . S
C1308 C1307 1.366 . S
C1308 C1309 1.414 . S
C1308 C1311 1.499 . S
C1309 H1283 0.950 . S
C1309 C1308 1.414 . S
C1309 C1310 1.374 . S
C1310 H1284 0.950 . S
C1310 C1306 1.385 . S
C1310 C1309 1.374 . S
C1311 C1308 1.499 . S
C1311 C1312 1.373 . S
C1311 C1313 1.389 . S
C1312 H1285 0.950 . S
C1312 C1298 1.377 . S
C1312 C1311 1.373 . S
C1313 C1297 1.377 . S
C1313 C1311 1.389 . S
C1313 C1314 1.524 . S
C1314 C1313 1.524 . S
C1314 C1315 1.397 . S
C1314 C1319 1.363 . S
C1315 H1286 0.950 . S
C1315 C1314 1.397 . S
C1315 C1316 1.334 . S
C1316 H1287 0.950 . S
C1316 C1315 1.334 . S
C1316 C1317 1.287 . S
C1317 C1316 1.287 . S
C1317 C1318 1.524 . S
C1317 H1320 0.999 . S
C1318 H1288 0.950 . S
C1318 C1317 1.524 . S
C1318 C1319 1.415 . S
C1319 H1289 0.950 . S
C1319 C1314 1.363 . S
C1319 C1318 1.415 . S
H1320 C1317 0.999 . S
H1321 C1302 0.913 . S
H1322 C1340 0.951 . S
H1323 C1342 0.951 . S
H1324 C1344 0.950 . S
H1325 C1345 0.950 . S
H1326 C1347 0.950 . S
H1327 C1350 0.950 . S
H1328 C1351 0.950 . S
H1329 C1353 0.950 . S
H1330 C1354 0.950 . S
H1331 C1355 0.951 . S
H1332 C1357 0.951 . S
H1333 C1359 0.950 . S
H1334 C1360 0.950 . S
H1335 C1362 0.950 . S
H1336 C1365 0.950 . S
H1337 C1366 0.950 . S
H1338 C1368 0.950 . S
H1339 C1369 0.950 . S
C1340 H1322 0.951 . S
C1340 C1341 1.366 . S
C1340 C1342 1.388 . S
C1341 C1340 1.366 . S
C1341 C1345 1.385 . S
C1342 H1323 0.951 . S
C1342 C1340 1.388 . S
C1342 C1343 1.366 . S
C1343 C1342 1.366 . S
C1343 C1344 1.414 . S
C1343 C1346 1.499 . S
C1344 H1324 0.950 . S
C1344 C1343 1.414 . S
C1344 C1345 1.374 . S
C1345 H1325 0.950 . S
C1345 C1341 1.385 . S
C1345 C1344 1.374 . S
C1346 C1343 1.499 . S
C1346 C1347 1.373 . S
C1346 C1348 1.389 . S
C1347 H1326 0.950 . S
C1347 C1346 1.373 . S
C1347 C1363 1.377 . S
C1348 C1346 1.389 . S
C1348 C1349 1.524 . S
C1348 C1362 1.377 . S
C1349 C1348 1.524 . S
C1349 C1350 1.397 . S
C1349 C1354 1.363 . S
C1350 H1327 0.950 . S
C1350 C1349 1.397 . S
C1350 C1351 1.334 . S
C1351 H1328 0.950 . S
C1351 C1350 1.334 . S
C1351 C1352 1.287 . S
C1352 C1351 1.287 . S
C1352 C1353 1.524 . S
C1352 H1371 0.913 . S
C1353 H1329 0.950 . S
C1353 C1352 1.524 . S
C1353 C1354 1.415 . S
C1354 H1330 0.950 . S
C1354 C1349 1.363 . S
C1354 C1353 1.415 . S
C1355 H1331 0.951 . S
C1355 C1356 1.366 . S
C1355 C1357 1.388 . S
C1356 C1355 1.366 . S
C1356 C1360 1.385 . S
C1357 H1332 0.951 . S
C1357 C1355 1.388 . S
C1357 C1358 1.366 . S
C1358 C1357 1.366 . S
C1358 C1359 1.414 . S
C1358 C1361 1.499 . S
C1359 H1333 0.950 . S
C1359 C1358 1.414 . S
C1359 C1360 1.374 . S
C1360 H1334 0.950 . S
C1360 C1356 1.385 . S
C1360 C1359 1.374 . S
C1361 C1358 1.499 . S
C1361 C1362 1.373 . S
C1361 C1363 1.389 . S
C1362 H1335 0.950 . S
C1362 C1348 1.377 . S
C1362 C1361 1.373 . S
C1363 C1347 1.377 . S
C1363 C1361 1.389 . S
C1363 C1364 1.524 . S
C1364 C1363 1.524 . S
C1364 C1365 1.397 . S
C1364 C1369 1.363 . S
C1365 H1336 0.950 . S
C1365 C1364 1.397 . S
C1365 C1366 1.334 . S
C1366 H1337 0.950 . S
C1366 C1365 1.334 . S
C1366 C1367 1.287 . S
C1367 C1366 1.287 . S
C1367 C1368 1.524 . S
C1367 H1370 0.999 . S
C1368 H1338 0.950 . S
C1368 C1367 1.524 . S
C1368 C1369 1.415 . S
C1369 H1339 0.950 . S
C1369 C1364 1.363 . S
C1369 C1368 1.415 . S
H1370 C1367 0.999 . S
H1371 C1352 0.913 . S
H1372 C1390 0.951 . S
H1373 C1392 0.951 . S
H1374 C1394 0.950 . S
H1375 C1395 0.950 . S
H1376 C1397 0.950 . S
H1377 C1400 0.950 . S
H1378 C1401 0.950 . S
H1379 C1403 0.950 . S
H1380 C1404 0.950 . S
H1381 C1405 0.951 . S
H1382 C1407 0.951 . S
H1383 C1409 0.950 . S
H1384 C1410 0.950 . S
H1385 C1412 0.950 . S
H1386 C1415 0.950 . S
H1387 C1416 0.950 . S
H1388 C1418 0.950 . S
H1389 C1419 0.950 . S
C1390 H1372 0.951 . S
C1390 C1391 1.366 . S
C1390 C1392 1.388 . S
C1391 C1390 1.366 . S
C1391 C1395 1.385 . S
C1392 H1373 0.951 . S
C1392 C1390 1.388 . S
C1392 C1393 1.366 . S
C1393 C1392 1.366 . S
C1393 C1394 1.414 . S
C1393 C1396 1.499 . S
C1394 H1374 0.950 . S
C1394 C1393 1.414 . S
C1394 C1395 1.374 . S
C1395 H1375 0.950 . S
C1395 C1391 1.385 . S
C1395 C1394 1.374 . S
C1396 C1393 1.499 . S
C1396 C1397 1.373 . S
C1396 C1398 1.389 . S
C1397 H1376 0.950 . S
C1397 C1396 1.373 . S
C1397 C1413 1.377 . S
C1398 C1396 1.389 . S
C1398 C1399 1.524 . S
C1398 C1412 1.377 . S
C1399 C1398 1.524 . S
C1399 C1400 1.397 . S
C1399 C1404 1.363 . S
C1400 H1377 0.950 . S
C1400 C1399 1.397 . S
C1400 C1401 1.334 . S
C1401 H1378 0.950 . S
C1401 C1400 1.334 . S
C1401 C1402 1.287 . S
C1402 C1401 1.287 . S
C1402 C1403 1.524 . S
C1402 H1421 0.913 . S
C1403 H1379 0.950 . S
C1403 C1402 1.524 . S
C1403 C1404 1.415 . S
C1404 H1380 0.950 . S
C1404 C1399 1.363 . S
C1404 C1403 1.415 . S
C1405 H1381 0.951 . S
C1405 C1406 1.366 . S
C1405 C1407 1.388 . S
C1406 C1405 1.366 . S
C1406 C1410 1.385 . S
C1407 H1382 0.951 . S
C1407 C1405 1.388 . S
C1407 C1408 1.366 . S
C1408 C1407 1.366 . S
C1408 C1409 1.414 . S
C1408 C1411 1.499 . S
C1409 H1383 0.950 . S
C1409 C1408 1.414 . S
C1409 C1410 1.374 . S
C1410 H1384 0.950 . S
C1410 C1406 1.385 . S
C1410 C1409 1.374 . S
C1411 C1408 1.499 . S
C1411 C1412 1.373 . S
C1411 C1413 1.389 . S
C1412 H1385 0.950 . S
C1412 C1398 1.377 . S
C1412 C1411 1.373 . S
C1413 C1397 1.377 . S
C1413 C1411 1.389 . S
C1413 C1414 1.524 . S
C1414 C1413 1.524 . S
C1414 C1415 1.397 . S
C1414 C1419 1.363 . S
C1415 H1386 0.950 . S
C1415 C1414 1.397 . S
C1415 C1416 1.334 . S
C1416 H1387 0.950 . S
C1416 C1415 1.334 . S
C1416 C1417 1.287 . S
C1417 C1416 1.287 . S
C1417 C1418 1.524 . S
C1417 H1420 0.999 . S
C1418 H1388 0.950 . S
C1418 C1417 1.524 . S
C1418 C1419 1.415 . S
C1419 H1389 0.950 . S
C1419 C1414 1.363 . S
C1419 C1418 1.415 . S
H1420 C1417 0.999 . S
H1421 C1402 0.913 . S
H1422 C1440 0.951 . S
H1423 C1442 0.951 . S
H1424 C1444 0.950 . S
H1425 C1445 0.950 . S
H1426 C1447 0.950 . S
H1427 C1450 0.950 . S
H1428 C1451 0.950 . S
H1429 C1453 0.950 . S
H1430 C1454 0.950 . S
H1431 C1455 0.951 . S
H1432 C1457 0.951 . S
H1433 C1459 0.950 . S
H1434 C1460 0.950 . S
H1435 C1462 0.950 . S
H1436 C1465 0.950 . S
H1437 C1466 0.950 . S
H1438 C1468 0.950 . S
H1439 C1469 0.950 . S
C1440 H1422 0.951 . S
C1440 C1441 1.366 . S
C1440 C1442 1.388 . S
C1441 C1440 1.366 . S
C1441 C1445 1.385 . S
C1442 H1423 0.951 . S
C1442 C1440 1.388 . S
C1442 C1443 1.366 . S
C1443 C1442 1.366 . S
C1443 C1444 1.414 . S
C1443 C1446 1.499 . S
C1444 H1424 0.950 . S
C1444 C1443 1.414 . S
C1444 C1445 1.374 . S
C1445 H1425 0.950 . S
C1445 C1441 1.385 . S
C1445 C1444 1.374 . S
C1446 C1443 1.499 . S
C1446 C1447 1.373 . S
C1446 C1448 1.389 . S
C1447 H1426 0.950 . S
C1447 C1446 1.373 . S
C1447 C1463 1.377 . S
C1448 C1446 1.389 . S
C1448 C1449 1.524 . S
C1448 C1462 1.377 . S
C1449 C1448 1.524 . S
C1449 C1450 1.397 . S
C1449 C1454 1.363 . S
C1450 H1427 0.950 . S
C1450 C1449 1.397 . S
C1450 C1451 1.334 . S
C1451 H1428 0.950 . S
C1451 C1450 1.334 . S
C1451 C1452 1.287 . S
C1452 C1451 1.287 . S
C1452 C1453 1.524 . S
C1452 H1471 0.913 . S
C1453 H1429 0.950 . S
C1453 C1452 1.524 . S
C1453 C1454 1.415 . S
C1454 H1430 0.950 . S
C1454 C1449 1.363 . S
C1454 C1453 1.415 . S
C1455 H1431 0.951 . S
C1455 C1456 1.366 . S
C1455 C1457 1.388 . S
C1456 C1455 1.366 . S
C1456 C1460 1.385 . S
C1457 H1432 0.951 . S
C1457 C1455 1.388 . S
C1457 C1458 1.366 . S
C1458 C1457 1.366 . S
C1458 C1459 1.414 . S
C1458 C1461 1.499 . S
C1459 H1433 0.950 . S
C1459 C1458 1.414 . S
C1459 C1460 1.374 . S
C1460 H1434 0.950 . S
C1460 C1456 1.385 . S
C1460 C1459 1.374 . S
C1461 C1458 1.499 . S
C1461 C1462 1.373 . S
C1461 C1463 1.389 . S
C1462 H1435 0.950 . S
C1462 C1448 1.377 . S
C1462 C1461 1.373 . S
C1463 C1447 1.377 . S
C1463 C1461 1.389 . S
C1463 C1464 1.524 . S
C1464 C1463 1.524 . S
C1464 C1465 1.397 . S
C1464 C1469 1.363 . S
C1465 H1436 0.950 . S
C1465 C1464 1.397 . S
C1465 C1466 1.334 . S
C1466 H1437 0.950 . S
C1466 C1465 1.334 . S
C1466 C1467 1.287 . S
C1467 C1466 1.287 . S
C1467 C1468 1.524 . S
C1467 H1470 0.999 . S
C1468 H1438 0.950 . S
C1468 C1467 1.524 . S
C1468 C1469 1.415 . S
C1469 H1439 0.950 . S
C1469 C1464 1.363 . S
C1469 C1468 1.415 . S
H1470 C1467 0.999 . S
H1471 C1452 0.913 . S
H1472 C1490 0.951 . S
H1473 C1492 0.951 . S
H1474 C1494 0.950 . S
H1475 C1495 0.950 . S
H1476 C1497 0.950 . S
H1477 C1500 0.950 . S
H1478 C1501 0.950 . S
H1479 C1503 0.950 . S
H1480 C1504 0.950 . S
H1481 C1505 0.951 . S
H1482 C1507 0.951 . S
H1483 C1509 0.950 . S
H1484 C1510 0.950 . S
H1485 C1512 0.950 . S
H1486 C1515 0.950 . S
H1487 C1516 0.950 . S
H1488 C1518 0.950 . S
H1489 C1519 0.950 . S
C1490 H1472 0.951 . S
C1490 C1491 1.366 . S
C1490 C1492 1.388 . S
C1491 C1490 1.366 . S
C1491 C1495 1.385 . S
C1492 H1473 0.951 . S
C1492 C1490 1.388 . S
C1492 C1493 1.366 . S
C1493 C1492 1.366 . S
C1493 C1494 1.414 . S
C1493 C1496 1.499 . S
C1494 H1474 0.950 . S
C1494 C1493 1.414 . S
C1494 C1495 1.374 . S
C1495 H1475 0.950 . S
C1495 C1491 1.385 . S
C1495 C1494 1.374 . S
C1496 C1493 1.499 . S
C1496 C1497 1.373 . S
C1496 C1498 1.389 . S
C1497 H1476 0.950 . S
C1497 C1496 1.373 . S
C1497 C1513 1.377 . S
C1498 C1496 1.389 . S
C1498 C1499 1.524 . S
C1498 C1512 1.377 1_554 S
C1499 C1498 1.524 . S
C1499 C1500 1.397 . S
C1499 C1504 1.363 1_554 S
C1500 H1477 0.950 . S
C1500 C1499 1.397 . S
C1500 C1501 1.334 . S
C1501 H1478 0.950 . S
C1501 C1500 1.334 . S
C1501 C1502 1.287 . S
C1502 C1501 1.287 . S
C1502 C1503 1.524 1_554 S
C1502 H1521 0.913 . S
C1503 H1479 0.950 . S
C1503 C1502 1.524 1_556 S
C1503 C1504 1.415 . S
C1504 H1480 0.950 . S
C1504 C1499 1.363 1_556 S
C1504 C1503 1.415 . S
C1505 H1481 0.951 . S
C1505 C1506 1.366 . S
C1505 C1507 1.388 . S
C1506 C1505 1.366 . S
C1506 C1510 1.385 . S
C1507 H1482 0.951 . S
C1507 C1505 1.388 . S
C1507 C1508 1.366 . S
C1508 C1507 1.366 . S
C1508 C1509 1.414 . S
C1508 C1511 1.499 . S
C1509 H1483 0.950 . S
C1509 C1508 1.414 . S
C1509 C1510 1.374 . S
C1510 H1484 0.950 . S
C1510 C1506 1.385 . S
C1510 C1509 1.374 . S
C1511 C1508 1.499 . S
C1511 C1512 1.373 . S
C1511 C1513 1.389 1_556 S
C1512 H1485 0.950 . S
C1512 C1498 1.377 1_556 S
C1512 C1511 1.373 . S
C1513 C1497 1.377 . S
C1513 C1511 1.389 1_554 S
C1513 C1514 1.524 . S
C1514 C1513 1.524 . S
C1514 C1515 1.397 1_554 S
C1514 C1519 1.363 . S
C1515 H1486 0.950 . S
C1515 C1514 1.397 1_556 S
C1515 C1516 1.334 . S
C1516 H1487 0.950 . S
C1516 C1515 1.334 . S
C1516 C1517 1.287 1_556 S
C1517 C1516 1.287 1_554 S
C1517 C1518 1.524 . S
C1517 H1520 0.999 . S
C1518 H1488 0.950 . S
C1518 C1517 1.524 . S
C1518 C1519 1.415 . S
C1519 H1489 0.950 . S
C1519 C1514 1.363 . S
C1519 C1518 1.415 . S
H1520 C1517 0.999 . S
H1521 C1502 0.913 . S
H1522 C1540 0.951 . S
H1523 C1542 0.951 . S
H1524 C1544 0.950 . S
H1525 C1545 0.950 . S
H1526 C1547 0.950 . S
H1527 C1550 0.950 . S
H1528 C1551 0.950 . S
H1529 C1553 0.950 . S
H1530 C1554 0.950 . S
H1531 C1555 0.951 . S
H1532 C1557 0.951 . S
H1533 C1559 0.950 . S
H1534 C1560 0.950 . S
H1535 C1562 0.950 . S
H1536 C1565 0.950 . S
H1537 C1566 0.950 . S
H1538 C1568 0.950 . S
H1539 C1569 0.950 . S
C1540 H1522 0.951 . S
C1540 C1541 1.366 . S
C1540 C1542 1.388 . S
C1541 C1540 1.366 . S
C1541 C1545 1.385 . S
C1542 H1523 0.951 . S
C1542 C1540 1.388 . S
C1542 C1543 1.366 . S
C1543 C1542 1.366 . S
C1543 C1544 1.414 . S
C1543 C1546 1.499 . S
C1544 H1524 0.950 . S
C1544 C1543 1.414 . S
C1544 C1545 1.374 . S
C1545 H1525 0.950 . S
C1545 C1541 1.385 . S
C1545 C1544 1.374 . S
C1546 C1543 1.499 . S
C1546 C1547 1.373 . S
C1546 C1548 1.389 . S
C1547 H1526 0.950 . S
C1547 C1546 1.373 . S
C1547 C1563 1.377 . S
C1548 C1546 1.389 . S
C1548 C1549 1.524 . S
C1548 C1562 1.377 . S
C1549 C1548 1.524 . S
C1549 C1550 1.397 . S
C1549 C1554 1.363 . S
C1550 H1527 0.950 . S
C1550 C1549 1.397 . S
C1550 C1551 1.334 . S
C1551 H1528 0.950 . S
C1551 C1550 1.334 . S
C1551 C1552 1.287 . S
C1552 C1551 1.287 . S
C1552 C1553 1.524 . S
C1552 H1571 0.913 . S
C1553 H1529 0.950 . S
C1553 C1552 1.524 . S
C1553 C1554 1.415 . S
C1554 H1530 0.950 . S
C1554 C1549 1.363 . S
C1554 C1553 1.415 . S
C1555 H1531 0.951 . S
C1555 C1556 1.366 . S
C1555 C1557 1.388 . S
C1556 C1555 1.366 . S
C1556 C1560 1.385 . S
C1557 H1532 0.951 . S
C1557 C1555 1.388 . S
C1557 C1558 1.366 . S
C1558 C1557 1.366 . S
C1558 C1559 1.414 . S
C1558 C1561 1.499 . S
C1559 H1533 0.950 . S
C1559 C1558 1.414 . S
C1559 C1560 1.374 . S
C1560 H1534 0.950 . S
C1560 C1556 1.385 . S
C1560 C1559 1.374 . S
C1561 C1558 1.499 . S
C1561 C1562 1.373 . S
C1561 C1563 1.389 . S
C1562 H1535 0.950 . S
C1562 C1548 1.377 . S
C1562 C1561 1.373 . S
C1563 C1547 1.377 . S
C1563 C1561 1.389 . S
C1563 C1564 1.524 . S
C1564 C1563 1.524 . S
C1564 C1565 1.397 . S
C1564 C1569 1.363 . S
C1565 H1536 0.950 . S
C1565 C1564 1.397 . S
C1565 C1566 1.334 . S
C1566 H1537 0.950 . S
C1566 C1565 1.334 . S
C1566 C1567 1.287 . S
C1567 C1566 1.287 . S
C1567 C1568 1.524 . S
C1567 H1570 0.999 . S
C1568 H1538 0.950 . S
C1568 C1567 1.524 . S
C1568 C1569 1.415 . S
C1569 H1539 0.950 . S
C1569 C1564 1.363 . S
C1569 C1568 1.415 . S
H1570 C1567 0.999 . S
H1571 C1552 0.913 . S
C406 C363 1.257 . S
C391 C45 1.497 . S
C441 C84 1.531 . S
C456 C293 1.292 . S
C491 C126 1.464 . S
C506 C313 1.493 . S
C541 C189 1.427 . S
C556 C327 1.420 . S
C606 C335 1.233 . S
C591 C228 1.468 . S
C641 C270 1.458 . S
C656 C349 1.245 . S
C691 C69 1.507 . S
C706 C307 1.282 . S
C741 C141 1.469 . S
C756 C321 1.230 . S
C791 C174 1.387 . S
C806 C341 1.413 . S
C856 C355 1.461 . S
C841 C213 1.445 . S
C906 C369 1.459 . S
C891 C285 1.465 . S
C956 C299 1.487 . S
C941 C30 1.459 . S
C991 C36 1.438 . S
C1006 C306 1.411 . S
C1041 C93 1.456 . S
C1056 C320 1.431 . S
C1106 C342 1.447 . S
C1091 C117 1.446 . S
C1141 C180 1.451 . S
C1156 C356 1.450 . S
C1206 C370 1.413 . S
C1191 C237 1.415 . S
C1256 C300 1.397 . S
C1241 C261 1.395 . S
C1306 C362 1.408 . S
C1291 C78 1.430 . S
C1341 C132 1.437 . S
C1356 C292 1.410 . S
C1406 C314 1.429 . S
C1391 C165 1.427 . S
C1441 C222 1.440 . S
C1456 C328 1.445 . S
C1491 C276 1.495 . S
C1506 C334 1.468 . S
C1541 C21 1.468 . S
C1556 C348 1.443 . S
