# Generated by pormake.
# Topology anh, (6,3)-cn, num edge types: 1
# Building blocks:
#     Node 0, Type 0, BuildingBlock: GEDQOX_clean_sbu_0, # of connection points: 6
#     Node 1, Type 0, BuildingBlock: GEDQOX_clean_sbu_0, # of connection points: 6
#     Node 2, Type 0, BuildingBlock: GEDQOX_clean_sbu_0, # of connection points: 6
#     Node 3, Type 1, BuildingBlock: MIDCAF_clean_linker_0, # of connection points: 3
#     Node 4, Type 1, BuildingBlock: MIDCAF_clean_linker_0, # of connection points: 3
#     Node 5, Type 1, BuildingBlock: MIDCAF_clean_linker_0, # of connection points: 3
#     Node 6, Type 1, BuildingBlock: MIDCAF_clean_linker_0, # of connection points: 3
#     Node 7, Type 1, BuildingBlock: MIDCAF_clean_linker_0, # of connection points: 3
#     Node 8, Type 1, BuildingBlock: MIDCAF_clean_linker_0, # of connection points: 3
#     Edge 9, Type (0, 1), BuildingBlock: CIFDUS_clean_linker_0, # of connection points: 2
#     Edge 10, Type (0, 1), BuildingBlock: CIFDUS_clean_linker_0, # of connection points: 2
#     Edge 11, Type (0, 1), BuildingBlock: CIFDUS_clean_linker_0, # of connection points: 2
#     Edge 12, Type (0, 1), BuildingBlock: CIFDUS_clean_linker_0, # of connection points: 2
#     Edge 13, Type (0, 1), BuildingBlock: CIFDUS_clean_linker_0, # of connection points: 2
#     Edge 14, Type (0, 1), BuildingBlock: CIFDUS_clean_linker_0, # of connection points: 2
#     Edge 15, Type (0, 1), BuildingBlock: CIFDUS_clean_linker_0, # of connection points: 2
#     Edge 16, Type (0, 1), BuildingBlock: CIFDUS_clean_linker_0, # of connection points: 2
#     Edge 17, Type (0, 1), BuildingBlock: CIFDUS_clean_linker_0, # of connection points: 2
#     Edge 18, Type (0, 1), BuildingBlock: CIFDUS_clean_linker_0, # of connection points: 2
#     Edge 19, Type (0, 1), BuildingBlock: CIFDUS_clean_linker_0, # of connection points: 2
#     Edge 20, Type (0, 1), BuildingBlock: CIFDUS_clean_linker_0, # of connection points: 2
#     Edge 21, Type (0, 1), BuildingBlock: CIFDUS_clean_linker_0, # of connection points: 2
#     Edge 22, Type (0, 1), BuildingBlock: CIFDUS_clean_linker_0, # of connection points: 2
#     Edge 23, Type (0, 1), BuildingBlock: CIFDUS_clean_linker_0, # of connection points: 2
#     Edge 24, Type (0, 1), BuildingBlock: CIFDUS_clean_linker_0, # of connection points: 2
#     Edge 25, Type (0, 1), BuildingBlock: CIFDUS_clean_linker_0, # of connection points: 2
#     Edge 26, Type (0, 1), BuildingBlock: CIFDUS_clean_linker_0, # of connection points: 2
# Relax obj value: 0.191
# Max RMSD: 0.217
# Mean RMSD: 0.161
data_MOF--net-anh--node1-GEDQOX_clean_sbu_0--node2-MIDCAF_clean_linker_0--edge1-CIFDUS_clean_linker_0
_symmetry_space_group_name_H-M    P1
_symmetry_Int_Tables_number       1
_symmetry_cell_setting            triclinic
loop_
_symmetry_equiv_pos_as_xyz
'x, y, z'
_cell_length_a     33.025104
_cell_length_b     31.735843
_cell_length_c     59.868513
_cell_angle_alpha  92.993827
_cell_angle_beta   90.347369
_cell_angle_gamma 104.75441
loop_
_atom_site_label
_atom_site_type_symbol
_atom_site_fract_x
_atom_site_fract_y
_atom_site_fract_z
_atom_type_partial_charge
Nd0 Nd 0.09086 0.57151 0.15104 0.0
Nd1 Nd 0.07511 0.47418 0.15021 0.0
C2 C 0.12128 0.65557 0.14511 0.0
C3 C 0.16294 0.68674 0.14812 0.0
C4 C 0.19815 0.68005 0.13677 0.0
C5 C 0.23777 0.70837 0.14108 0.0
C6 C 0.24314 0.74386 0.15691 0.0
C7 C 0.20763 0.75075 0.16794 0.0
C8 C 0.16804 0.72267 0.16349 0.0
C9 C 0.07377 0.53748 0.19197 0.0
C10 C 0.17354 0.52632 0.15113 0.0
C11 C 1.04758 0.39032 0.1578 0.0
C12 C 1.00989 0.35945 0.16617 0.0
C13 C 0.999 0.36114 0.18882 0.0
C14 C 0.96487 0.33009 0.19674 0.0
C15 C 0.94074 0.29674 0.18221 0.0
C16 C 0.95111 0.29557 0.15948 0.0
C17 C 0.98546 0.32646 0.15159 0.0
C18 C 0.09199 0.50963 0.10955 0.0
C19 C 0.99314 0.51949 0.14771 0.0
O20 O 0.11663 0.62537 0.12887 0.0
O21 O 0.10299 0.64073 0.16345 0.0
O22 O 1.05914 0.56875 0.18492 0.0
O23 O 0.09763 0.52582 0.17786 0.0
O24 O 0.15881 0.56127 0.14908 0.0
O25 O 0.14741 0.48761 0.1535 0.0
O26 O 0.07017 0.41938 0.17226 0.0
O27 O 1.04431 0.40596 0.13826 0.0
O28 O 0.10647 0.47757 0.11578 0.0
O29 O 1.06821 0.52 0.12399 0.0
O30 O 1.00746 0.48588 0.1536 0.0
O31 O 1.0199 0.55645 0.14277 0.0
H32 H 0.1953 0.65258 0.12482 0.0
H33 H 0.26421 0.7023 0.13205 0.0
H34 H 0.21048 0.77713 0.18054 0.0
H35 H 0.14144 0.72844 0.17252 0.0
H36 H 1.01708 0.38611 0.20055 0.0
H37 H 0.95736 0.33217 0.21428 0.0
H38 H 0.93336 0.27005 0.14793 0.0
H39 H 0.99332 0.32415 0.1341 0.0
Nd40 Nd 0.52232 0.99106 0.52463 0.0
Nd41 Nd 0.6133 1.00762 0.51264 0.0
C42 C 0.4461 0.95876 0.53973 0.0
C43 C 0.414 0.91804 0.53384 0.0
C44 C 0.3767 0.90693 0.54572 0.0
C45 C 0.34576 0.86877 0.53954 0.0
C46 C 0.35163 0.84107 0.52134 0.0
C47 C 0.38945 0.8523 0.50969 0.0
C48 C 0.42028 0.89032 0.5159 0.0
C49 C 0.53688 1.00115 0.47997 0.0
C50 C 0.56466 0.90698 0.51527 0.0
C51 C 0.68798 0.03585 0.49479 0.0
C52 C 0.72027 0.07707 0.49279 0.0
C53 C 0.71028 0.11752 0.49453 0.0
C54 C 0.74154 0.15631 0.49267 0.0
C55 C 0.78337 0.15535 0.48889 0.0
C56 C 0.79304 0.11457 0.48716 0.0
C57 C 0.76182 0.0759 0.48915 0.0
C58 C 0.59835 0.99596 0.55715 0.0
C59 C 0.57301 0.09172 0.5256 0.0
O60 O 0.48003 0.95433 0.54968 0.0
O61 O 0.45427 0.98668 0.52404 0.0
O62 O 0.50918 0.0159 0.49087 0.0
O63 O 0.55444 0.97969 0.49228 0.0
O64 O 0.53434 0.92219 0.52422 0.0
O65 O 0.59763 0.93331 0.5066 0.0
O66 O 0.65266 0.0315 0.48378 0.0
O67 O 0.6826 0.02101 0.5148 0.0
O68 O 0.62595 0.98105 0.54612 0.0
O69 O 0.58123 0.0182 0.54507 0.0
O70 O 0.60213 0.07694 0.51499 0.0
O71 O 0.54018 0.06466 0.53406 0.0
H72 H 0.37139 0.92789 0.55967 0.0
H73 H 0.3173 0.86093 0.54907 0.0
H74 H 0.3949 0.83228 0.49539 0.0
H75 H 0.44888 0.89844 0.50647 0.0
H76 H 0.67833 0.11907 0.49725 0.0
H77 H 0.73293 0.18703 0.49433 0.0
H78 H 0.82466 0.11238 0.48384 0.0
H79 H 0.77011 0.04497 0.48769 0.0
Nd80 Nd 0.5014 0.50155 0.83448 0.0
Nd81 Nd 0.59438 0.53847 0.85644 0.0
C82 C 0.43384 0.49093 0.80906 0.0
C83 C 0.4191 0.52172 0.79565 0.0
C84 C 0.44744 0.55942 0.7886 0.0
C85 C 0.43296 0.59364 0.78067 0.0
C86 C 0.38987 0.59133 0.78034 0.0
C87 C 0.36155 0.55173 0.78549 0.0
C88 C 0.37611 0.51727 0.79305 0.0
C89 C 0.50925 0.49683 0.87979 0.0
C90 C 0.54205 0.60878 0.84512 0.0
C91 C 0.65695 0.55193 0.88531 0.0
C92 C 0.6955 0.53663 0.88547 0.0
C93 C 0.69966 0.50505 0.9003 0.0
C94 C 0.73401 0.48696 0.89909 0.0
C95 C 0.76496 0.50037 0.88311 0.0
C96 C 0.76113 0.53262 0.86859 0.0
C97 C 0.72674 0.55046 0.8697 0.0
C98 C 0.59707 0.53264 0.81027 0.0
C99 C 0.55738 0.43256 0.84115 0.0
O100 O 0.46754 0.48 0.80214 0.0
O101 O 0.43426 0.49957 0.83073 0.0
O102 O 0.48225 0.46785 0.86737 0.0
O103 O 0.52845 0.52786 0.86843 0.0
O104 O 0.51412 0.57662 0.83422 0.0
O105 O 0.57384 0.60226 0.85684 0.0
O106 O 0.6221 0.5214 0.88725 0.0
O107 O 0.65415 0.58017 0.87044 0.0
O108 O 0.63067 0.54646 0.82278 0.0
O109 O 0.56611 0.52283 0.82273 0.0
O110 O 0.585 0.46365 0.8529 0.0
O111 O 0.52435 0.43948 0.83074 0.0
H112 H 0.4808 0.56394 0.79072 0.0
H113 H 0.45568 0.6232 0.77653 0.0
H114 H 0.32815 0.54856 0.7858 0.0
H115 H 0.35378 0.48855 0.79854 0.0
H116 H 0.67589 0.49372 0.91255 0.0
H117 H 0.73611 0.46219 0.9105 0.0
H118 H 0.78502 0.54458 0.85651 0.0
H119 H 0.72452 0.57472 0.858 0.0
C120 C 0.44342 0.93768 0.22704 0.0
C121 C 0.44607 0.92037 0.20522 0.0
C122 C 0.48553 0.92659 0.19537 0.0
C123 C 0.52177 0.95001 0.2072 0.0
H124 H 0.64491 0.04061 0.20092 0.0
H125 H 0.70456 0.09019 0.1843 0.0
H126 H 0.74788 0.14674 0.25013 0.0
H127 H 0.68954 0.09639 0.26669 0.0
H128 H 0.65642 0.03153 0.30834 0.0
H129 H 0.65376 0.02688 0.349 0.0
H130 H 0.52025 0.97085 0.34399 0.0
H131 H 0.5226 0.97535 0.30357 0.0
H132 H 0.4764 0.97253 0.25593 0.0
H133 H 0.41338 0.93304 0.23504 0.0
H134 H 0.48825 0.91349 0.17853 0.0
H135 H 0.55189 0.95428 0.19933 0.0
N136 N 0.59159 0.01334 0.23277 0.0
N137 N 0.62486 0.03174 0.26806 0.0
N138 N 0.55685 0.98634 0.26516 0.0
C139 C 0.62559 0.03516 0.24548 0.0
C140 C 0.59069 1.00721 0.278 0.0
C141 C 0.55703 0.98899 0.2426 0.0
C142 C 0.66236 0.06431 0.23516 0.0
C143 C 0.66731 0.06345 0.21183 0.0
C144 C 0.70144 0.09212 0.20229 0.0
C145 C 0.73124 0.12259 0.21583 0.0
C146 C 0.7262 0.12324 0.23915 0.0
C147 C 0.69243 0.09438 0.24867 0.0
C148 C 0.5897 1.00396 0.30264 0.0
C149 C 0.62648 0.01818 0.3159 0.0
C150 C 0.62507 0.0153 0.33916 0.0
C151 C 0.58679 0.99868 0.34963 0.0
C152 C 0.55014 0.98422 0.33638 0.0
C153 C 0.55157 0.98664 0.31318 0.0
C154 C 0.5191 0.96644 0.22927 0.0
C155 C 0.47953 0.96007 0.23901 0.0
C156 C 0.60712 0.36361 0.56367 0.0
C157 C 0.57604 0.3445 0.54746 0.0
C158 C 0.5524 0.37091 0.53826 0.0
C159 C 0.55927 0.41518 0.54551 0.0
H160 H 0.54603 0.56284 0.53615 0.0
H161 H 0.54497 0.63174 0.51908 0.0
H162 H 0.64594 0.70114 0.56359 0.0
H163 H 0.64644 0.63348 0.58074 0.0
H164 H 0.5866 0.58333 0.63579 0.0
H165 H 0.5947 0.58812 0.67661 0.0
H166 H 0.65102 0.47938 0.67296 0.0
H167 H 0.6422 0.47381 0.63223 0.0
H168 H 0.63694 0.42032 0.5841 0.0
H169 H 0.62562 0.34432 0.57131 0.0
H170 H 0.52834 0.35722 0.52565 0.0
H171 H 0.53994 0.43445 0.53864 0.0
N172 N 0.5899 0.51256 0.56125 0.0
N173 N 0.60336 0.55753 0.59447 0.0
N174 N 0.60152 0.48363 0.59543 0.0
C175 C 0.5956 0.55287 0.57201 0.0
C176 C 0.60612 0.52308 0.60629 0.0
C177 C 0.59325 0.47778 0.57307 0.0
C178 C 0.59625 0.59271 0.55982 0.0
C179 C 0.56818 0.59282 0.54206 0.0
C180 C 0.56741 0.63222 0.53241 0.0
C181 C 0.59548 0.67185 0.53996 0.0
C182 C 0.62417 0.67121 0.55726 0.0
C183 C 0.6243 0.63237 0.56715 0.0
C184 C 0.61359 0.52808 0.63081 0.0
C185 C 0.60101 0.56068 0.64367 0.0
C186 C 0.60547 0.56334 0.667 0.0
C187 C 0.62345 0.5341 0.67783 0.0
C188 C 0.63726 0.50242 0.66496 0.0
C189 C 0.63199 0.49914 0.64169 0.0
C190 C 0.5893 0.43349 0.5624 0.0
C191 C 0.61347 0.40727 0.57109 0.0
C192 C 1.01667 0.47498 0.87764 0.0
C193 C 0.99301 0.48875 0.86125 0.0
C194 C 1.01202 0.52554 0.84938 0.0
C195 C 1.05177 0.55115 0.85578 0.0
H196 H 0.14097 0.6766 0.84857 0.0
H197 H 0.18587 0.70619 0.81798 0.0
H198 H 0.29375 0.69385 0.85592 0.0
H199 H 0.24899 0.66632 0.88665 0.0
H200 H 0.21843 0.62218 0.94447 0.0
H201 H 0.22185 0.61136 0.98488 0.0
H202 H 0.08667 0.57224 0.98597 0.0
H203 H 0.08338 0.58285 0.94633 0.0
H204 H 0.07224 0.49132 0.89816 0.0
H205 H 1.00319 0.44622 0.88671 0.0
H206 H 0.99468 0.53716 0.83669 0.0
H207 H 1.06415 0.58128 0.84759 0.0
N208 N 0.13245 0.60528 0.87328 0.0
N209 N 0.17191 0.63509 0.9059 0.0
N210 N 0.11578 0.57263 0.90718 0.0
C211 C 0.16419 0.63626 0.88355 0.0
C212 C 0.14692 0.6035 0.91782 0.0
C213 C 0.10865 0.57294 0.88495 0.0
C214 C 0.19158 0.66805 0.8696 0.0
C215 C 0.17457 0.68216 0.85067 0.0
C216 C 0.20029 0.69903 0.83313 0.0
C217 C 0.24323 0.70083 0.83402 0.0
C218 C 0.26083 0.69285 0.85443 0.0
C219 C 0.23513 0.67673 0.87215 0.0
C220 C 0.15068 0.60307 0.94234 0.0
C221 C 0.18965 0.61208 0.95358 0.0
C222 C 0.19157 0.60565 0.97657 0.0
C223 C 0.15451 0.59113 0.98856 0.0
C224 C 0.11576 0.58404 0.97732 0.0
C225 C 0.11389 0.58977 0.95454 0.0
C226 C 0.07281 0.54053 0.87425 0.0
C227 C 1.05609 0.50091 0.88425 0.0
C228 C 0.21244 0.60391 0.44486 0.0
C229 C 0.20339 0.6198 0.46608 0.0
C230 C 0.16384 0.60208 0.47509 0.0
C231 C 0.13395 0.56924 0.46304 0.0
H232 H 1.03527 0.4434 0.46816 0.0
H233 H 0.97582 0.38962 0.48293 0.0
H234 H 0.91716 0.3674 0.41722 0.0
H235 H 0.97548 0.42082 0.40264 0.0
H236 H 1.02513 0.44925 0.361 0.0
H237 H 1.02932 0.44933 0.32042 0.0
H238 H 0.15667 0.52844 0.32627 0.0
H239 H 0.15276 0.5285 0.36702 0.0
H240 H 0.19055 0.56076 0.41628 0.0
H241 H 0.24244 0.61718 0.43735 0.0
H242 H 0.15608 0.61357 0.49147 0.0
H243 H 0.10363 0.55653 0.4703 0.0
N244 N 0.07683 0.4951 0.43739 0.0
N245 N 1.05161 0.46475 0.40182 0.0
N246 N 0.11447 0.5191 0.40521 0.0
C247 C 1.04719 0.46637 0.42436 0.0
C248 C 0.08504 0.4908 0.39208 0.0
C249 C 0.11062 0.52166 0.42783 0.0
C250 C 1.01035 0.43636 0.43418 0.0
C251 C 1.00941 0.42736 0.45696 0.0
C252 C 0.97552 0.39638 0.46539 0.0
C253 C 0.94169 0.37425 0.45126 0.0
C254 C 0.94232 0.38419 0.42866 0.0
C255 C 0.97611 0.41469 0.42025 0.0
C256 C 0.08853 0.48913 0.36735 0.0
C257 C 1.0542 0.46644 0.35373 0.0
C258 C 1.05649 0.46657 0.33044 0.0
C259 C 0.09326 0.48898 0.3202 0.0
C260 C 0.12803 0.5106 0.33372 0.0
C261 C 0.12563 0.51088 0.35707 0.0
C262 C 0.1428 0.55408 0.44157 0.0
C263 C 0.18251 0.57169 0.43272 0.0
C264 C 0.58763 0.1774 0.80612 0.0
C265 C 0.55927 0.1815 0.82297 0.0
C266 C 0.53574 0.14349 0.8325 0.0
C267 C 0.53928 0.10212 0.82463 0.0
H268 H 0.58806 0.96866 0.83568 0.0
H269 H 0.58967 0.8995 0.8519 0.0
H270 H 0.52062 0.82838 0.79435 0.0
H271 H 0.5192 0.89671 0.77824 0.0
H272 H 0.55298 0.94397 0.7311 0.0
H273 H 0.55195 0.94215 0.69033 0.0
H274 H 0.56237 0.08075 0.6926 0.0
H275 H 0.56278 0.08269 0.73324 0.0
H276 H 0.61111 0.13413 0.78419 0.0
H277 H 0.60592 0.20596 0.79831 0.0
H278 H 0.51375 0.14573 0.84558 0.0
H279 H 0.51951 0.0733 0.83155 0.0
N280 N 0.55979 0.01822 0.80607 0.0
N281 N 0.55557 0.97815 0.77153 0.0
N282 N 0.56298 0.05338 0.77226 0.0
C283 C 0.55617 0.97935 0.79429 0.0
C284 C 0.55896 0.01498 0.76039 0.0
C285 C 0.56327 0.05543 0.79496 0.0
C286 C 0.55363 0.93822 0.80564 0.0
C287 C 0.57272 0.9382 0.8267 0.0
C288 C 0.5739 0.89866 0.8359 0.0
C289 C 0.55524 0.85845 0.82442 0.0
C290 C 0.5349 0.85868 0.80376 0.0
C291 C 0.53433 0.89796 0.79445 0.0
C292 C 0.55806 0.01349 0.73555 0.0
C293 C 0.55496 0.97408 0.72295 0.0
C294 C 0.55453 0.97303 0.69956 0.0
C295 C 0.55706 0.0113 0.68823 0.0
C296 C 0.5598 0.05058 0.70081 0.0
C297 C 0.56034 0.05169 0.72416 0.0
C298 C 0.5657 0.09816 0.80678 0.0
C299 C 0.5905 0.13624 0.79799 0.0
C300 C 0.73793 0.56233 0.11924 0.0
C301 C 0.75008 0.53502 0.13442 0.0
C302 C 0.71728 0.50557 0.14515 0.0
C303 C 0.67431 0.50353 0.14063 0.0
H304 H 0.49885 0.57879 0.11008 0.0
H305 H 0.42663 0.57435 0.11971 0.0
H306 H 0.42688 0.4668 0.16095 0.0
H307 H 0.49969 0.47087 0.15055 0.0
H308 H 0.50551 0.50082 0.05696 0.0
H309 H 0.49907 0.5012 0.01645 0.0
H310 H 0.63374 0.53574 0.01159 0.0
H311 H 0.64044 0.53558 0.05226 0.0
H312 H 0.68844 0.58102 0.10233 0.0
H313 H 0.76129 0.5849 0.11012 0.0
H314 H 0.72477 0.48393 0.157 0.0
H315 H 0.65025 0.47956 0.1486 0.0
N316 N 0.58366 0.52424 0.1286 0.0
N317 N 0.54345 0.52001 0.09542 0.0
N318 N 0.61445 0.5222 0.09313 0.0
C319 C 0.54564 0.52229 0.1181 0.0
C320 C 0.57721 0.51961 0.0828 0.0
C321 C 0.61857 0.52427 0.11583 0.0
C322 C 0.50597 0.52576 0.12979 0.0
C323 C 0.48402 0.55492 0.12177 0.0
C324 C 0.44205 0.55227 0.12734 0.0
C325 C 0.41959 0.51998 0.14111 0.0
C326 C 0.44219 0.49186 0.15001 0.0
C327 C 0.48457 0.49467 0.14443 0.0
C328 C 0.57353 0.51826 0.05798 0.0
C329 C 0.53385 0.50839 0.04733 0.0
C330 C 0.53009 0.50832 0.02405 0.0
C331 C 0.56587 0.51848 0.0108 0.0
C332 C 0.60558 0.52811 0.02137 0.0
C333 C 0.60937 0.52776 0.04468 0.0
C334 C 0.66276 0.53063 0.12509 0.0
C335 C 0.69559 0.5601 0.1147 0.0
H336 H 0.21913 0.46313 0.15219 0.0
H337 H 0.23558 0.60175 0.14779 0.0
H338 H 0.31102 0.61217 0.14509 0.0
H339 H 0.37348 0.58269 0.14343 0.0
H340 H 0.35779 0.44397 0.14697 0.0
H341 H 0.28245 0.43359 0.15096 0.0
C342 C 0.23911 0.4957 0.15072 0.0
C343 C 0.22064 0.53151 0.15019 0.0
C344 C 0.28338 0.50174 0.1491 0.0
C345 C 0.24793 0.57329 0.14824 0.0
C346 C 0.29153 0.57941 0.14668 0.0
C347 C 0.35387 0.54998 0.14492 0.0
C348 C 0.37264 0.51429 0.14486 0.0
C349 C 0.30979 0.54393 0.14696 0.0
C350 C 0.34552 0.47252 0.14729 0.0
C351 C 0.30187 0.46637 0.14938 0.0
H352 H 0.77727 0.22724 0.46725 0.0
H353 H 0.86479 0.17597 0.50437 0.0
H354 H 0.92086 0.24032 0.49726 0.0
H355 H 0.94611 0.30911 0.47847 0.0
H356 H 0.85807 0.3609 0.44215 0.0
H357 H 0.80115 0.29884 0.45135 0.0
C358 C 0.80838 0.23041 0.47417 0.0
C359 C 0.8167 0.19638 0.48614 0.0
C360 C 0.84055 0.26764 0.47011 0.0
C361 C 0.85752 0.20108 0.49469 0.0
C362 C 0.88963 0.23806 0.49076 0.0
C363 C 0.91435 0.30726 0.47295 0.0
C364 C 0.90652 0.33946 0.45945 0.0
C365 C 0.88168 0.27126 0.47819 0.0
C366 C 0.86514 0.33624 0.45225 0.0
C367 C 0.83252 0.30078 0.45754 0.0
H368 H 0.60208 0.68621 0.8514 0.0
H369 H 0.47061 0.63275 0.83572 0.0
H370 H 0.46228 0.70597 0.83097 0.0
H371 H 0.49327 0.78373 0.82668 0.0
H372 H 0.6248 0.83807 0.84121 0.0
H373 H 0.63214 0.76609 0.85053 0.0
C374 C 0.57158 0.69059 0.84698 0.0
C375 C 0.53717 0.65385 0.84367 0.0
C376 C 0.5671 0.73281 0.84346 0.0
C377 C 0.49783 0.66022 0.83802 0.0
C378 C 0.493 0.70205 0.83512 0.0
C379 C 0.5235 0.77988 0.83204 0.0
C380 C 0.5585 0.81617 0.83304 0.0
C381 C 0.52759 0.73837 0.83709 0.0
C382 C 0.5973 0.81074 0.84038 0.0
C383 C 0.60158 0.76948 0.84554 0.0
H384 H 0.95092 0.58383 0.14282 0.0
H385 H 0.92818 0.44539 0.15008 0.0
H386 H 0.85257 0.4375 0.14749 0.0
H387 H 0.79146 0.46958 0.14208 0.0
H388 H 0.81558 0.60878 0.13644 0.0
H389 H 0.8905 0.61611 0.13942 0.0
C390 C 0.92959 0.55182 0.14386 0.0
C391 C 0.94617 0.51528 0.14655 0.0
C392 C 0.88555 0.54743 0.14255 0.0
C393 C 0.91715 0.47432 0.148 0.0
C394 C 0.87351 0.46972 0.1465 0.0
C395 C 0.81293 0.50165 0.14174 0.0
C396 C 0.79668 0.53841 0.13856 0.0
C397 C 0.85707 0.506 0.14369 0.0
C398 C 0.82607 0.57946 0.13821 0.0
C399 C 0.86944 0.58387 0.14006 0.0
H400 H 0.36087 0.7612 0.50658 0.0
H401 H 0.26673 0.83157 0.51943 0.0
H402 H 0.21226 0.76821 0.50527 0.0
H403 H 0.19173 0.69437 0.48675 0.0
H404 H 0.28646 0.62558 0.47248 0.0
H405 H 0.34023 0.68686 0.48935 0.0
C406 C 0.32848 0.76283 0.50621 0.0
C407 C 0.31813 0.80137 0.514 0.0
C408 C 0.29733 0.72655 0.49762 0.0
C409 C 0.27575 0.80233 0.5138 0.0
C410 C 0.24452 0.76616 0.50553 0.0
C411 C 0.22405 0.69259 0.48765 0.0
C412 C 0.23509 0.65553 0.47828 0.0
C413 C 0.25498 0.72827 0.49712 0.0
C414 C 0.27722 0.65391 0.47935 0.0
C415 C 0.30797 0.68891 0.48903 0.0
H416 H 0.49876 0.35481 0.83509 0.0
H417 H 0.63173 0.41062 0.84388 0.0
H418 H 0.64409 0.3379 0.8401 0.0
H419 H 0.61734 0.2584 0.83286 0.0
H420 H 0.48425 0.20226 0.82564 0.0
H421 H 0.47166 0.27482 0.83062 0.0
C422 C 0.53042 0.351 0.83617 0.0
C423 C 0.5643 0.38813 0.83951 0.0
C424 C 0.53727 0.30894 0.83441 0.0
C425 C 0.60509 0.38261 0.84127 0.0
C426 C 0.61221 0.34101 0.83909 0.0
C427 C 0.58558 0.26211 0.83257 0.0
C428 C 0.55179 0.22501 0.82885 0.0
C429 C 0.57858 0.30396 0.83549 0.0
C430 C 0.51078 0.23022 0.8287 0.0
C431 C 0.50358 0.27176 0.83135 0.0
H432 H 0.62815 0.86622 0.5109 0.0
H433 H 0.49571 0.84108 0.52306 0.0
H434 H 0.49256 0.76501 0.52953 0.0
H435 H 0.52855 0.70673 0.53496 0.0
H436 H 0.66149 0.73307 0.52466 0.0
H437 H 0.66323 0.8069 0.51411 0.0
C438 C 0.59846 0.84396 0.51461 0.0
C439 C 0.56229 0.85962 0.51653 0.0
C440 C 0.59699 0.80026 0.51882 0.0
C441 C 0.52417 0.83019 0.52158 0.0
C442 C 0.5223 0.78655 0.52531 0.0
C443 C 0.5577 0.72841 0.52998 0.0
C444 C 0.59484 0.71438 0.53062 0.0
C445 C 0.55865 0.77136 0.52444 0.0
C446 C 0.63251 0.74312 0.52442 0.0
C447 C 0.63353 0.78539 0.51841 0.0
H448 H 0.80427 0.47795 0.8462 0.0
H449 H 0.81047 0.48446 0.91841 0.0
H450 H 0.87947 0.47023 0.91742 0.0
H451 H 0.94245 0.47145 0.89655 0.0
H452 H 0.93978 0.47163 0.82447 0.0
H453 H 0.8648 0.46769 0.82487 0.0
C454 C 0.8206 0.4758 0.8617 0.0
C455 C 0.80268 0.48322 0.88234 0.0
C456 C 0.86101 0.46933 0.86103 0.0
C457 C 0.82353 0.47897 0.9023 0.0
C458 C 0.86317 0.47117 0.90175 0.0
C459 C 0.9253 0.46883 0.88081 0.0
C460 C 0.94678 0.47239 0.8605 0.0
C461 C 0.88288 0.46837 0.88126 0.0
C462 C 0.924 0.46953 0.84033 0.0
C463 C 0.88124 0.46752 0.84058 0.0
H464 H 0.26481 0.83186 0.16675 0.0
H465 H 0.31742 0.72051 0.16021 0.0
H466 H 0.38593 0.76645 0.17213 0.0
H467 H 0.42988 0.83716 0.18749 0.0
H468 H 0.37555 0.94653 0.19698 0.0
H469 H 0.30875 0.90247 0.18112 0.0
C470 C 0.29114 0.81747 0.16803 0.0
C471 C 0.28562 0.77259 0.16266 0.0
C472 C 0.33024 0.84378 0.17556 0.0
C473 C 0.32058 0.75496 0.16394 0.0
C474 C 0.35982 0.78117 0.17096 0.0
C475 C 0.40352 0.85137 0.18571 0.0
C476 C 0.40746 0.89493 0.19329 0.0
C477 C 0.36488 0.82546 0.17716 0.0
C478 C 0.37306 0.91299 0.19125 0.0
C479 C 0.33492 0.88782 0.18224 0.0
H480 H 0.5137 0.13826 0.53166 0.0
H481 H 0.64693 0.15357 0.52693 0.0
H482 H 0.65932 0.23245 0.53183 0.0
H483 H 0.63298 0.29746 0.5384 0.0
H484 H 0.50011 0.28391 0.54295 0.0
H485 H 0.48693 0.20458 0.53681 0.0
C486 C 0.5454 0.15892 0.53175 0.0
C487 C 0.57932 0.13981 0.52886 0.0
C488 C 0.55241 0.20478 0.53441 0.0
C489 C 0.62018 0.16719 0.52882 0.0
C490 C 0.62736 0.21245 0.53172 0.0
C491 C 0.60109 0.27718 0.538 0.0
C492 C 0.56763 0.29675 0.54125 0.0
C493 C 0.59379 0.23163 0.5346 0.0
C494 C 0.52648 0.26989 0.54032 0.0
C495 C 0.51894 0.22441 0.537 0.0
H496 H 0.31661 0.60206 0.7626 0.0
H497 H 0.42962 0.67296 0.79784 0.0
H498 H 0.39406 0.72566 0.81328 0.0
H499 H 0.32654 0.73582 0.82628 0.0
H500 H 0.21236 0.65857 0.79409 0.0
H501 H 0.25231 0.62608 0.76772 0.0
C502 C 0.33376 0.62975 0.77316 0.0
C503 C 0.37494 0.63185 0.78022 0.0
C504 C 0.31241 0.6587 0.783 0.0
C505 C 0.39743 0.66937 0.79278 0.0
C506 C 0.37694 0.69951 0.80183 0.0
C507 C 0.31046 0.71293 0.81303 0.0
C508 C 0.26651 0.69827 0.81297 0.0
C509 C 0.3336 0.69206 0.79865 0.0
C510 C 0.24615 0.67013 0.79503 0.0
C511 C 0.26904 0.65085 0.77998 0.0
H512 H 0.86229 0.26405 0.164 0.0
H513 H 0.94081 0.25254 0.22002 0.0
H514 H 0.88367 0.19687 0.23486 0.0
H515 H 0.81156 0.15163 0.23206 0.0
H516 H 0.73162 0.16509 0.17697 0.0
H517 H 0.78951 0.21865 0.16131 0.0
C518 C 0.86692 0.24911 0.17937 0.0
C519 C 0.90572 0.26259 0.19093 0.0
C520 C 0.83379 0.21718 0.1879 0.0
C521 C 0.91111 0.24322 0.21096 0.0
C522 C 0.87852 0.21119 0.2194 0.0
C523 C 0.80653 0.16653 0.21675 0.0
C524 C 0.76704 0.15419 0.20581 0.0
C525 C 0.83967 0.19808 0.20808 0.0
C526 C 0.76169 0.17331 0.18566 0.0
C527 C 0.79473 0.20431 0.17676 0.0
H528 H 0.15132 0.50037 0.07971 0.0
H529 H 1.05672 0.56996 0.09286 0.0
H530 H 0.07179 0.60585 0.05769 0.0
H531 H 0.10805 0.61341 0.02207 0.0
H532 H 0.20136 0.54277 0.00798 0.0
H533 H 0.19171 0.51245 0.04495 0.0
C534 C 0.13414 0.52347 0.07484 0.0
C535 C 0.10256 0.53208 0.08863 0.0
C536 C 0.14303 0.54408 0.05457 0.0
C537 C 0.08091 0.56254 0.08238 0.0
C538 C 0.08957 0.58315 0.06232 0.0
C539 C 0.1266 0.59174 0.02721 0.0
C540 C 0.15506 0.57999 0.01229 0.0
C541 C 0.12004 0.57362 0.04814 0.0
C542 C 0.17943 0.55249 0.01925 0.0
C543 C 0.17354 0.53476 0.04026 0.0
H544 H 0.59426 0.97449 0.4538 0.0
H545 H 0.49132 0.03508 0.45153 0.0
H546 H 0.49797 0.03993 0.4112 0.0
H547 H 0.53232 0.02652 0.37647 0.0
H548 H 0.63652 0.96797 0.37809 0.0
H549 H 0.63064 0.96337 0.41875 0.0
C550 C 0.57345 0.98883 0.44443 0.0
C551 C 0.54224 1.00422 0.4556 0.0
C552 C 0.57775 0.99202 0.42115 0.0
C553 C 0.51553 0.02289 0.44332 0.0
C554 C 0.51929 0.0257 0.42024 0.0
C555 C 0.55361 0.01257 0.38573 0.0
C556 C 0.58454 0.99726 0.37433 0.0
C557 C 0.55013 1.01024 0.40898 0.0
C558 C 0.61251 0.98008 0.38655 0.0
C559 C 0.60903 0.97727 0.40976 0.0
H560 H 0.66181 0.53831 0.78173 0.0
H561 H 0.52907 0.52513 0.78359 0.0
H562 H 0.5254 0.526 0.74291 0.0
H563 H 0.56024 0.53045 0.70666 0.0
H564 H 0.69252 0.53953 0.70418 0.0
H565 H 0.69648 0.54036 0.74513 0.0
C566 C 0.63214 0.53554 0.77315 0.0
C567 C 0.59551 0.53164 0.78559 0.0
C568 C 0.63042 0.53546 0.74965 0.0
C569 C 0.55734 0.52786 0.77433 0.0
C570 C 0.55538 0.52854 0.75108 0.0
C571 C 0.58993 0.5329 0.71515 0.0
C572 C 0.62611 0.53534 0.70257 0.0
C573 C 0.59172 0.5324 0.73856 0.0
C574 C 0.66431 0.53768 0.71363 0.0
C575 C 0.66655 0.53817 0.73699 0.0
H576 H 0.54959 0.03363 0.58396 0.0
H577 H 0.63452 0.95048 0.58478 0.0
H578 H 0.62807 0.9466 0.62526 0.0
H579 H 0.60064 0.96912 0.66059 0.0
H580 H 0.51583 0.05242 0.66011 0.0
H581 H 0.52017 0.05428 0.61941 0.0
C582 C 0.56652 0.01456 0.59303 0.0
C583 C 0.59267 0.99259 0.58147 0.0
C584 C 0.56289 0.0127 0.61637 0.0
C585 C 0.61436 0.96788 0.59336 0.0
C586 C 0.6107 0.96563 0.6165 0.0
C587 C 0.58263 0.98718 0.65156 0.0
C588 C 0.55802 0.01064 0.66339 0.0
C589 C 0.58534 0.98819 0.6282 0.0
C590 C 0.53543 0.03449 0.65144 0.0
C591 C 0.53775 0.03543 0.62816 0.0
H592 H 0.56321 0.55532 0.90794 0.0
H593 H 0.46925 0.43262 0.90623 0.0
H594 H 0.47866 0.42821 0.9465 0.0
H595 H 0.51332 0.45938 0.98228 0.0
H596 H 0.60885 0.58094 0.98387 0.0
H597 H 0.5999 0.58509 0.94353 0.0
C598 C 0.54506 0.52745 0.91637 0.0
C599 C 0.51564 0.49428 0.90412 0.0
C600 C 0.55109 0.52481 0.93949 0.0
C601 C 0.49209 0.45857 0.91529 0.0
C602 C 0.49749 0.456 0.93831 0.0
C603 C 0.53208 0.48685 0.9738 0.0
C604 C 0.56158 0.51989 0.9861 0.0
C605 C 0.52681 0.48898 0.9506 0.0
C606 C 0.58615 0.5549 0.97479 0.0
C607 C 0.58086 0.55744 0.95174 0.0
H608 H 0.12736 0.5049 0.21662 0.0
H609 H 1.01038 0.54164 0.21945 0.0
H610 H 1.00472 0.527 0.2591 0.0
H611 H 1.03523 0.50875 0.29348 0.0
H612 H 0.1543 0.47636 0.29175 0.0
H613 H 0.15728 0.48465 0.25126 0.0
C614 C 0.10045 0.50911 0.22592 0.0
C615 C 0.06931 0.5243 0.21524 0.0
C616 C 0.09807 0.50192 0.24894 0.0
C617 C 1.03477 0.53012 0.22742 0.0
C618 C 1.03156 0.52183 0.25008 0.0
C619 C 1.06155 0.5029 0.28417 0.0
C620 C 0.09442 0.49185 0.29553 0.0
C621 C 1.06335 0.50848 0.26108 0.0
C622 C 0.12873 0.48517 0.28336 0.0
C623 C 0.13037 0.48977 0.26023 0.0
loop_
_geom_bond_atom_site_label_1
_geom_bond_atom_site_label_2
_geom_bond_distance
_geom_bond_site_symmetry_2
_ccdc_geom_bond_type
Nd0 C2 2.836 . S
Nd0 O20 2.500 . S
Nd0 O21 2.492 . S
Nd0 O22 2.487 . S
Nd0 O23 2.682 . S
Nd0 O24 2.410 . S
Nd0 O29 2.414 . S
Nd0 O31 2.424 1_455 S
Nd1 C11 2.836 . S
Nd1 O23 2.414 1_655 S
Nd1 O25 2.424 1_655 S
Nd1 O26 2.500 . S
Nd1 O27 2.492 . S
Nd1 O28 2.487 . S
Nd1 O29 2.682 1_655 S
Nd1 O30 2.410 . S
C2 Nd0 2.836 . S
C2 C3 1.498 . S
C2 O20 1.258 . S
C2 O21 1.239 . S
C3 C2 1.498 . S
C3 C4 1.366 . S
C3 C8 1.407 . S
C4 C3 1.366 . S
C4 C5 1.392 . S
C4 H32 0.930 . S
C5 C4 1.392 . S
C5 C6 1.398 . S
C5 H33 0.929 . S
C6 C5 1.398 . S
C6 C7 1.352 . S
C7 C6 1.352 . S
C7 C8 1.384 . S
C7 H34 0.930 . S
C8 C3 1.407 . S
C8 C7 1.384 . S
C8 H35 0.929 . S
C9 O22 1.241 . S
C9 O23 1.273 . S
C10 O24 1.251 . S
C10 O25 1.268 . S
C11 Nd1 2.836 . S
C11 C12 1.498 . S
C11 O26 1.258 . S
C11 O27 1.239 . S
C12 C11 1.498 . S
C12 C13 1.366 . S
C12 C17 1.407 . S
C13 C12 1.366 . S
C13 C14 1.392 . S
C13 H36 0.930 . S
C14 C13 1.392 . S
C14 C15 1.398 . S
C14 H37 0.929 . S
C15 C14 1.398 . S
C15 C16 1.352 . S
C16 C15 1.352 . S
C16 C17 1.384 . S
C16 H38 0.930 . S
C17 C12 1.407 . S
C17 C16 1.384 . S
C17 H39 0.929 . S
C18 O28 1.238 1_455 S
C18 O29 1.273 . S
C19 O30 1.251 . S
C19 O31 1.268 . S
O20 Nd0 2.500 . S
O20 C2 1.258 . S
O21 Nd0 2.492 . S
O21 C2 1.239 . S
O22 Nd0 2.487 . S
O22 C9 1.241 . S
O23 Nd0 2.682 . S
O23 Nd1 2.414 1_455 S
O23 C9 1.273 . S
O24 Nd0 2.410 . S
O24 C10 1.251 . S
O25 Nd1 2.424 1_455 S
O25 C10 1.268 . S
O26 Nd1 2.500 . S
O26 C11 1.258 . S
O27 Nd1 2.492 . S
O27 C11 1.239 . S
O28 Nd1 2.487 . S
O28 C18 1.238 1_655 S
O29 Nd0 2.414 . S
O29 Nd1 2.682 1_455 S
O29 C18 1.273 . S
O30 Nd1 2.410 . S
O30 C19 1.251 . S
O31 Nd0 2.424 1_655 S
O31 C19 1.268 . S
H32 C4 0.930 . S
H33 C5 0.929 . S
H34 C7 0.930 . S
H35 C8 0.929 . S
H36 C13 0.930 . S
H37 C14 0.929 . S
H38 C16 0.930 . S
H39 C17 0.929 . S
Nd40 C42 2.837 . S
Nd40 O60 2.501 . S
Nd40 O61 2.493 . S
Nd40 O62 2.487 . S
Nd40 O63 2.682 1_565 S
Nd40 O64 2.411 . S
Nd40 O69 2.414 1_565 S
Nd40 O71 2.423 1_565 S
Nd41 C51 2.836 . S
Nd41 O63 2.414 . S
Nd41 O65 2.424 1_545 S
Nd41 O66 2.500 . S
Nd41 O67 2.492 . S
Nd41 O68 2.487 . S
Nd41 O69 2.682 . S
Nd41 O70 2.410 . S
C42 Nd40 2.837 . S
C42 C43 1.498 . S
C42 O60 1.258 . S
C42 O61 1.239 . S
C43 C42 1.498 . S
C43 C44 1.366 . S
C43 C48 1.407 . S
C44 C43 1.366 . S
C44 C45 1.392 . S
C44 H72 0.930 . S
C45 C44 1.392 . S
C45 C46 1.398 . S
C45 H73 0.929 . S
C46 C45 1.398 . S
C46 C47 1.352 . S
C47 C46 1.352 . S
C47 C48 1.384 . S
C47 H74 0.930 . S
C48 C43 1.407 . S
C48 C47 1.384 . S
C48 H75 0.929 . S
C49 O62 1.241 1_545 S
C49 O63 1.273 . S
C50 O64 1.251 . S
C50 O65 1.268 . S
C51 Nd41 2.836 . S
C51 C52 1.498 . S
C51 O66 1.258 . S
C51 O67 1.239 . S
C52 C51 1.498 . S
C52 C53 1.366 . S
C52 C57 1.407 . S
C53 C52 1.366 . S
C53 C54 1.392 . S
C53 H76 0.930 . S
C54 C53 1.392 . S
C54 C55 1.398 . S
C54 H77 0.929 . S
C55 C54 1.398 . S
C55 C56 1.352 . S
C56 C55 1.352 . S
C56 C57 1.384 . S
C56 H78 0.930 . S
C57 C52 1.407 . S
C57 C56 1.384 . S
C57 H79 0.929 . S
C58 O68 1.241 . S
C58 O69 1.273 . S
C59 O70 1.251 . S
C59 O71 1.268 . S
O60 Nd40 2.501 . S
O60 C42 1.258 . S
O61 Nd40 2.493 . S
O61 C42 1.239 . S
O62 Nd40 2.487 . S
O62 C49 1.241 1_565 S
O63 Nd40 2.682 1_545 S
O63 Nd41 2.414 . S
O63 C49 1.273 . S
O64 Nd40 2.411 . S
O64 C50 1.251 . S
O65 Nd41 2.424 1_565 S
O65 C50 1.268 . S
O66 Nd41 2.500 . S
O66 C51 1.258 . S
O67 Nd41 2.492 . S
O67 C51 1.239 . S
O68 Nd41 2.487 . S
O68 C58 1.241 . S
O69 Nd40 2.414 1_545 S
O69 Nd41 2.682 . S
O69 C58 1.273 . S
O70 Nd41 2.410 . S
O70 C59 1.251 . S
O71 Nd40 2.423 1_545 S
O71 C59 1.268 . S
H72 C44 0.930 . S
H73 C45 0.929 . S
H74 C47 0.930 . S
H75 C48 0.929 . S
H76 C53 0.930 . S
H77 C54 0.929 . S
H78 C56 0.930 . S
H79 C57 0.929 . S
Nd80 C82 2.836 . S
Nd80 O100 2.500 . S
Nd80 O101 2.492 . S
Nd80 O102 2.487 . S
Nd80 O103 2.682 . S
Nd80 O104 2.410 . S
Nd80 O109 2.414 . S
Nd80 O111 2.424 . S
Nd81 C91 2.836 . S
Nd81 O103 2.414 . S
Nd81 O105 2.424 . S
Nd81 O106 2.500 . S
Nd81 O107 2.492 . S
Nd81 O108 2.487 . S
Nd81 O109 2.682 . S
Nd81 O110 2.410 . S
C82 Nd80 2.836 . S
C82 C83 1.498 . S
C82 O100 1.258 . S
C82 O101 1.239 . S
C83 C82 1.498 . S
C83 C84 1.366 . S
C83 C88 1.407 . S
C84 C83 1.366 . S
C84 C85 1.392 . S
C84 H112 0.930 . S
C85 C84 1.392 . S
C85 C86 1.398 . S
C85 H113 0.929 . S
C86 C85 1.398 . S
C86 C87 1.352 . S
C87 C86 1.352 . S
C87 C88 1.384 . S
C87 H114 0.930 . S
C88 C83 1.407 . S
C88 C87 1.384 . S
C88 H115 0.929 . S
C89 O102 1.241 . S
C89 O103 1.273 . S
C90 O104 1.251 . S
C90 O105 1.268 . S
C91 Nd81 2.836 . S
C91 C92 1.498 . S
C91 O106 1.258 . S
C91 O107 1.239 . S
C92 C91 1.498 . S
C92 C93 1.366 . S
C92 C97 1.407 . S
C93 C92 1.366 . S
C93 C94 1.392 . S
C93 H116 0.930 . S
C94 C93 1.392 . S
C94 C95 1.398 . S
C94 H117 0.929 . S
C95 C94 1.398 . S
C95 C96 1.352 . S
C96 C95 1.352 . S
C96 C97 1.384 . S
C96 H118 0.930 . S
C97 C92 1.407 . S
C97 C96 1.384 . S
C97 H119 0.929 . S
C98 O108 1.241 . S
C98 O109 1.273 . S
C99 O110 1.251 . S
C99 O111 1.268 . S
O100 Nd80 2.500 . S
O100 C82 1.258 . S
O101 Nd80 2.492 . S
O101 C82 1.239 . S
O102 Nd80 2.487 . S
O102 C89 1.241 . S
O103 Nd80 2.682 . S
O103 Nd81 2.414 . S
O103 C89 1.273 . S
O104 Nd80 2.410 . S
O104 C90 1.251 . S
O105 Nd81 2.424 . S
O105 C90 1.268 . S
O106 Nd81 2.500 . S
O106 C91 1.258 . S
O107 Nd81 2.492 . S
O107 C91 1.239 . S
O108 Nd81 2.487 . S
O108 C98 1.241 . S
O109 Nd80 2.414 . S
O109 Nd81 2.682 . S
O109 C98 1.273 . S
O110 Nd81 2.410 . S
O110 C99 1.251 . S
O111 Nd80 2.424 . S
O111 C99 1.268 . S
H112 C84 0.930 . S
H113 C85 0.929 . S
H114 C87 0.930 . S
H115 C88 0.929 . S
H116 C93 0.930 . S
H117 C94 0.929 . S
H118 C96 0.930 . S
H119 C97 0.929 . S
C120 C121 1.384 . S
C120 H133 0.947 . S
C120 C155 1.382 . S
C121 C120 1.384 . S
C121 C122 1.378 . S
C122 C121 1.378 . S
C122 C123 1.378 . S
C122 H134 0.952 . S
C123 C122 1.378 . S
C123 H135 0.950 . S
C123 C154 1.383 . S
H124 C143 0.947 . S
H125 C144 0.946 . S
H126 C146 0.953 . S
H127 C147 0.945 . S
H128 C149 0.952 . S
H129 C150 0.949 . S
H130 C152 0.962 . S
H131 C153 0.948 . S
H132 C155 0.951 . S
H133 C120 0.947 . S
H134 C122 0.952 . S
H135 C123 0.950 . S
N136 C139 1.382 . S
N136 C141 1.363 1_545 S
N137 C139 1.371 . S
N137 C140 1.372 . S
N138 C140 1.361 1_565 S
N138 C141 1.377 . S
C139 N136 1.382 . S
C139 N137 1.371 . S
C139 C142 1.480 . S
C140 N137 1.372 . S
C140 N138 1.361 1_545 S
C140 C148 1.457 . S
C141 N136 1.363 1_565 S
C141 N138 1.377 . S
C141 C154 1.479 . S
C142 C139 1.480 . S
C142 C143 1.383 . S
C142 C147 1.385 . S
C143 H124 0.947 . S
C143 C142 1.383 . S
C143 C144 1.388 . S
C144 H125 0.946 . S
C144 C143 1.388 . S
C144 C145 1.384 . S
C145 C144 1.384 . S
C145 C146 1.377 . S
C146 H126 0.953 . S
C146 C145 1.377 . S
C146 C147 1.369 . S
C147 H127 0.945 . S
C147 C142 1.385 . S
C147 C146 1.369 . S
C148 C140 1.457 . S
C148 C149 1.372 . S
C148 C153 1.364 1_545 S
C149 H128 0.952 . S
C149 C148 1.372 . S
C149 C150 1.389 . S
C150 H129 0.949 . S
C150 C149 1.389 . S
C150 C151 1.387 . S
C151 C150 1.387 . S
C151 C152 1.358 1_545 S
C152 H130 0.962 . S
C152 C151 1.358 1_565 S
C152 C153 1.381 . S
C153 H131 0.948 . S
C153 C148 1.364 1_565 S
C153 C152 1.381 . S
C154 C123 1.383 . S
C154 C141 1.479 . S
C154 C155 1.398 . S
C155 C120 1.382 . S
C155 H132 0.951 . S
C155 C154 1.398 . S
C156 C157 1.384 . S
C156 H169 0.947 . S
C156 C191 1.382 . S
C157 C156 1.384 . S
C157 C158 1.378 . S
C158 C157 1.378 . S
C158 C159 1.378 . S
C158 H170 0.952 . S
C159 C158 1.378 . S
C159 H171 0.950 . S
C159 C190 1.383 . S
H160 C179 0.947 . S
H161 C180 0.946 . S
H162 C182 0.953 . S
H163 C183 0.945 . S
H164 C185 0.952 . S
H165 C186 0.949 . S
H166 C188 0.950 . S
H167 C189 0.948 . S
H168 C191 0.951 . S
H169 C156 0.947 . S
H170 C158 0.952 . S
H171 C159 0.950 . S
N172 C175 1.382 . S
N172 C177 1.363 . S
N173 C175 1.371 . S
N173 C176 1.372 . S
N174 C176 1.361 . S
N174 C177 1.377 . S
C175 N172 1.382 . S
C175 N173 1.371 . S
C175 C178 1.480 . S
C176 N173 1.372 . S
C176 N174 1.361 . S
C176 C184 1.457 . S
C177 N172 1.363 . S
C177 N174 1.377 . S
C177 C190 1.479 . S
C178 C175 1.480 . S
C178 C179 1.383 . S
C178 C183 1.385 . S
C179 H160 0.947 . S
C179 C178 1.383 . S
C179 C180 1.388 . S
C180 H161 0.946 . S
C180 C179 1.388 . S
C180 C181 1.384 . S
C181 C180 1.384 . S
C181 C182 1.377 . S
C182 H162 0.953 . S
C182 C181 1.377 . S
C182 C183 1.369 . S
C183 H163 0.945 . S
C183 C178 1.385 . S
C183 C182 1.369 . S
C184 C176 1.457 . S
C184 C185 1.372 . S
C184 C189 1.364 . S
C185 H164 0.952 . S
C185 C184 1.372 . S
C185 C186 1.389 . S
C186 H165 0.949 . S
C186 C185 1.389 . S
C186 C187 1.387 . S
C187 C186 1.387 . S
C187 C188 1.372 . S
C188 H166 0.950 . S
C188 C187 1.372 . S
C188 C189 1.379 . S
C189 H167 0.948 . S
C189 C184 1.364 . S
C189 C188 1.379 . S
C190 C159 1.383 . S
C190 C177 1.479 . S
C190 C191 1.398 . S
C191 C156 1.382 . S
C191 H168 0.951 . S
C191 C190 1.398 . S
C192 C193 1.384 . S
C192 H205 0.947 . S
C192 C227 1.382 . S
C193 C192 1.384 . S
C193 C194 1.378 . S
C194 C193 1.378 . S
C194 C195 1.378 . S
C194 H206 0.952 . S
C195 C194 1.378 . S
C195 H207 0.950 . S
C195 C226 1.383 . S
H196 C215 0.947 . S
H197 C216 0.946 . S
H198 C218 0.953 . S
H199 C219 0.945 . S
H200 C221 0.952 . S
H201 C222 0.949 1_554 S
H202 C224 0.943 1_554 S
H203 C225 0.948 . S
H204 C227 0.951 . S
H205 C192 0.947 . S
H206 C194 0.952 . S
H207 C195 0.950 . S
N208 C211 1.382 . S
N208 C213 1.363 1_455 S
N209 C211 1.371 . S
N209 C212 1.372 . S
N210 C212 1.346 1_655 S
N210 C213 1.377 . S
C211 N208 1.382 . S
C211 N209 1.371 . S
C211 C214 1.480 . S
C212 N209 1.372 . S
C212 N210 1.346 1_455 S
C212 C220 1.457 . S
C213 N208 1.363 1_655 S
C213 N210 1.377 . S
C213 C226 1.479 . S
C214 C211 1.480 . S
C214 C215 1.383 . S
C214 C219 1.385 . S
C215 H196 0.947 . S
C215 C214 1.383 . S
C215 C216 1.388 . S
C216 H197 0.946 . S
C216 C215 1.388 . S
C216 C217 1.384 . S
C217 C216 1.384 . S
C217 C218 1.377 . S
C218 H198 0.953 . S
C218 C217 1.377 . S
C218 C219 1.369 . S
C219 H199 0.945 . S
C219 C214 1.385 . S
C219 C218 1.369 . S
C220 C212 1.457 . S
C220 C221 1.372 . S
C220 C225 1.364 1_455 S
C221 H200 0.952 . S
C221 C220 1.372 . S
C221 C222 1.389 . S
C222 H201 0.949 1_556 S
C222 C221 1.389 . S
C222 C223 1.387 1_556 S
C223 C222 1.387 1_554 S
C223 C224 1.372 1_454 S
C224 H202 0.943 1_556 S
C224 C223 1.372 1_656 S
C224 C225 1.379 . S
C225 H203 0.948 . S
C225 C220 1.364 1_655 S
C225 C224 1.379 . S
C226 C195 1.383 . S
C226 C213 1.479 . S
C226 C227 1.398 . S
C227 C192 1.382 . S
C227 H204 0.951 . S
C227 C226 1.398 . S
C228 C229 1.384 . S
C228 H241 0.947 . S
C228 C263 1.382 . S
C229 C228 1.384 . S
C229 C230 1.378 . S
C230 C229 1.378 . S
C230 C231 1.378 . S
C230 H242 0.952 . S
C231 C230 1.378 . S
C231 H243 0.950 . S
C231 C262 1.383 . S
H232 C251 0.947 . S
H233 C252 0.946 . S
H234 C254 0.953 . S
H235 C255 0.945 . S
H236 C257 0.952 . S
H237 C258 0.949 . S
H238 C260 0.950 . S
H239 C261 0.948 . S
H240 C263 0.951 . S
H241 C228 0.947 . S
H242 C230 0.952 . S
H243 C231 0.950 . S
N244 C247 1.382 1_455 S
N244 C249 1.363 . S
N245 C247 1.371 . S
N245 C248 1.372 1_655 S
N246 C248 1.361 . S
N246 C249 1.377 . S
C247 N244 1.382 1_655 S
C247 N245 1.371 . S
C247 C250 1.480 . S
C248 N245 1.372 1_455 S
C248 N246 1.361 . S
C248 C256 1.457 . S
C249 N244 1.363 . S
C249 N246 1.377 . S
C249 C262 1.479 . S
C250 C247 1.480 . S
C250 C251 1.383 . S
C250 C255 1.385 . S
C251 H232 0.947 . S
C251 C250 1.383 . S
C251 C252 1.388 . S
C252 H233 0.946 . S
C252 C251 1.388 . S
C252 C253 1.384 . S
C253 C252 1.384 . S
C253 C254 1.377 . S
C254 H234 0.953 . S
C254 C253 1.377 . S
C254 C255 1.369 . S
C255 H235 0.945 . S
C255 C250 1.385 . S
C255 C254 1.369 . S
C256 C248 1.457 . S
C256 C257 1.372 1_455 S
C256 C261 1.364 . S
C257 H236 0.952 . S
C257 C256 1.372 1_655 S
C257 C258 1.389 . S
C258 H237 0.949 . S
C258 C257 1.389 . S
C258 C259 1.387 1_655 S
C259 C258 1.387 1_455 S
C259 C260 1.372 . S
C260 H238 0.950 . S
C260 C259 1.372 . S
C260 C261 1.379 . S
C261 H239 0.948 . S
C261 C256 1.364 . S
C261 C260 1.379 . S
C262 C231 1.383 . S
C262 C249 1.479 . S
C262 C263 1.398 . S
C263 C228 1.382 . S
C263 H240 0.951 . S
C263 C262 1.398 . S
C264 C265 1.384 . S
C264 H277 0.947 . S
C264 C299 1.382 . S
C265 C264 1.384 . S
C265 C266 1.378 . S
C266 C265 1.378 . S
C266 C267 1.378 . S
C266 H278 0.952 . S
C267 C266 1.378 . S
C267 H279 0.950 . S
C267 C298 1.383 . S
H268 C287 0.947 . S
H269 C288 0.946 . S
H270 C290 0.953 . S
H271 C291 0.945 . S
H272 C293 0.952 . S
H273 C294 0.949 . S
H274 C296 0.950 . S
H275 C297 0.948 . S
H276 C299 0.951 . S
H277 C264 0.947 . S
H278 C266 0.952 . S
H279 C267 0.950 . S
N280 C283 1.382 1_545 S
N280 C285 1.363 . S
N281 C283 1.371 . S
N281 C284 1.372 1_565 S
N282 C284 1.361 . S
N282 C285 1.377 . S
C283 N280 1.382 1_565 S
C283 N281 1.371 . S
C283 C286 1.480 . S
C284 N281 1.372 1_545 S
C284 N282 1.361 . S
C284 C292 1.457 . S
C285 N280 1.363 . S
C285 N282 1.377 . S
C285 C298 1.479 . S
C286 C283 1.480 . S
C286 C287 1.383 . S
C286 C291 1.385 . S
C287 H268 0.947 . S
C287 C286 1.383 . S
C287 C288 1.388 . S
C288 H269 0.946 . S
C288 C287 1.388 . S
C288 C289 1.384 . S
C289 C288 1.384 . S
C289 C290 1.377 . S
C290 H270 0.953 . S
C290 C289 1.377 . S
C290 C291 1.369 . S
C291 H271 0.945 . S
C291 C286 1.385 . S
C291 C290 1.369 . S
C292 C284 1.457 . S
C292 C293 1.372 1_545 S
C292 C297 1.364 . S
C293 H272 0.952 . S
C293 C292 1.372 1_565 S
C293 C294 1.389 . S
C294 H273 0.949 . S
C294 C293 1.389 . S
C294 C295 1.387 1_565 S
C295 C294 1.387 1_545 S
C295 C296 1.372 . S
C296 H274 0.950 . S
C296 C295 1.372 . S
C296 C297 1.379 . S
C297 H275 0.948 . S
C297 C292 1.364 . S
C297 C296 1.379 . S
C298 C267 1.383 . S
C298 C285 1.479 . S
C298 C299 1.398 . S
C299 C264 1.382 . S
C299 H276 0.951 . S
C299 C298 1.398 . S
C300 C301 1.384 . S
C300 H313 0.947 . S
C300 C335 1.382 . S
C301 C300 1.384 . S
C301 C302 1.378 . S
C302 C301 1.378 . S
C302 C303 1.378 . S
C302 H314 0.952 . S
C303 C302 1.378 . S
C303 H315 0.950 . S
C303 C334 1.383 . S
H304 C323 0.947 . S
H305 C324 0.946 . S
H306 C326 0.953 . S
H307 C327 0.945 . S
H308 C329 0.952 . S
H309 C330 0.949 . S
H310 C332 0.950 . S
H311 C333 0.948 . S
H312 C335 0.951 . S
H313 C300 0.947 . S
H314 C302 0.952 . S
H315 C303 0.950 . S
N316 C319 1.382 . S
N316 C321 1.363 . S
N317 C319 1.371 . S
N317 C320 1.372 . S
N318 C320 1.361 . S
N318 C321 1.377 . S
C319 N316 1.382 . S
C319 N317 1.371 . S
C319 C322 1.480 . S
C320 N317 1.372 . S
C320 N318 1.361 . S
C320 C328 1.457 . S
C321 N316 1.363 . S
C321 N318 1.377 . S
C321 C334 1.479 . S
C322 C319 1.480 . S
C322 C323 1.383 . S
C322 C327 1.385 . S
C323 H304 0.947 . S
C323 C322 1.383 . S
C323 C324 1.388 . S
C324 H305 0.946 . S
C324 C323 1.388 . S
C324 C325 1.384 . S
C325 C324 1.384 . S
C325 C326 1.377 . S
C326 H306 0.953 . S
C326 C325 1.377 . S
C326 C327 1.369 . S
C327 H307 0.945 . S
C327 C322 1.385 . S
C327 C326 1.369 . S
C328 C320 1.457 . S
C328 C329 1.372 . S
C328 C333 1.364 . S
C329 H308 0.952 . S
C329 C328 1.372 . S
C329 C330 1.389 . S
C330 H309 0.949 . S
C330 C329 1.389 . S
C330 C331 1.387 . S
C331 C330 1.387 . S
C331 C332 1.372 . S
C332 H310 0.950 . S
C332 C331 1.372 . S
C332 C333 1.379 . S
C333 H311 0.948 . S
C333 C328 1.364 . S
C333 C332 1.379 . S
C334 C303 1.383 . S
C334 C321 1.479 . S
C334 C335 1.398 . S
C335 C300 1.382 . S
C335 H312 0.951 . S
C335 C334 1.398 . S
H336 C342 0.930 . S
H337 C345 0.930 . S
H338 C346 0.930 . S
H339 C347 0.930 . S
H340 C350 0.930 . S
H341 C351 0.930 . S
C342 H336 0.930 . S
C342 C343 1.355 . S
C342 C344 1.415 . S
C343 C342 1.355 . S
C343 C345 1.419 . S
C344 C342 1.415 . S
C344 C349 1.425 . S
C344 C351 1.409 . S
C345 H337 0.930 . S
C345 C343 1.419 . S
C345 C346 1.362 . S
C346 H338 0.930 . S
C346 C345 1.362 . S
C346 C349 1.409 . S
C347 H339 0.930 . S
C347 C348 1.355 . S
C347 C349 1.415 . S
C348 C347 1.355 . S
C348 C350 1.419 . S
C349 C344 1.425 . S
C349 C346 1.409 . S
C349 C347 1.415 . S
C350 H340 0.930 . S
C350 C348 1.419 . S
C350 C351 1.362 . S
C351 H341 0.930 . S
C351 C344 1.409 . S
C351 C350 1.362 . S
H352 C358 0.930 . S
H353 C361 0.930 . S
H354 C362 0.930 . S
H355 C363 0.930 . S
H356 C366 0.930 . S
H357 C367 0.930 . S
C358 H352 0.930 . S
C358 C359 1.355 . S
C358 C360 1.415 . S
C359 C358 1.355 . S
C359 C361 1.419 . S
C360 C358 1.415 . S
C360 C365 1.425 . S
C360 C367 1.409 . S
C361 H353 0.930 . S
C361 C359 1.419 . S
C361 C362 1.362 . S
C362 H354 0.930 . S
C362 C361 1.362 . S
C362 C365 1.409 . S
C363 H355 0.930 . S
C363 C364 1.355 . S
C363 C365 1.415 . S
C364 C363 1.355 . S
C364 C366 1.419 . S
C365 C360 1.425 . S
C365 C362 1.409 . S
C365 C363 1.415 . S
C366 H356 0.930 . S
C366 C364 1.419 . S
C366 C367 1.362 . S
C367 H357 0.930 . S
C367 C360 1.409 . S
C367 C366 1.362 . S
H368 C374 0.930 . S
H369 C377 0.930 . S
H370 C378 0.930 . S
H371 C379 0.930 . S
H372 C382 0.930 . S
H373 C383 0.930 . S
C374 H368 0.930 . S
C374 C375 1.355 . S
C374 C376 1.415 . S
C375 C374 1.355 . S
C375 C377 1.419 . S
C376 C374 1.415 . S
C376 C381 1.425 . S
C376 C383 1.409 . S
C377 H369 0.930 . S
C377 C375 1.419 . S
C377 C378 1.362 . S
C378 H370 0.930 . S
C378 C377 1.362 . S
C378 C381 1.409 . S
C379 H371 0.930 . S
C379 C380 1.355 . S
C379 C381 1.415 . S
C380 C379 1.355 . S
C380 C382 1.419 . S
C381 C376 1.425 . S
C381 C378 1.409 . S
C381 C379 1.415 . S
C382 H372 0.930 . S
C382 C380 1.419 . S
C382 C383 1.362 . S
C383 H373 0.930 . S
C383 C376 1.409 . S
C383 C382 1.362 . S
H384 C390 0.930 . S
H385 C393 0.930 . S
H386 C394 0.930 . S
H387 C395 0.930 . S
H388 C398 0.930 . S
H389 C399 0.930 . S
C390 H384 0.930 . S
C390 C391 1.355 . S
C390 C392 1.415 . S
C391 C390 1.355 . S
C391 C393 1.419 . S
C392 C390 1.415 . S
C392 C397 1.425 . S
C392 C399 1.409 . S
C393 H385 0.930 . S
C393 C391 1.419 . S
C393 C394 1.362 . S
C394 H386 0.930 . S
C394 C393 1.362 . S
C394 C397 1.409 . S
C395 H387 0.930 . S
C395 C396 1.355 . S
C395 C397 1.415 . S
C396 C395 1.355 . S
C396 C398 1.419 . S
C397 C392 1.425 . S
C397 C394 1.409 . S
C397 C395 1.415 . S
C398 H388 0.930 . S
C398 C396 1.419 . S
C398 C399 1.362 . S
C399 H389 0.930 . S
C399 C392 1.409 . S
C399 C398 1.362 . S
H400 C406 0.930 . S
H401 C409 0.930 . S
H402 C410 0.930 . S
H403 C411 0.930 . S
H404 C414 0.930 . S
H405 C415 0.930 . S
C406 H400 0.930 . S
C406 C407 1.355 . S
C406 C408 1.415 . S
C407 C406 1.355 . S
C407 C409 1.419 . S
C408 C406 1.415 . S
C408 C413 1.425 . S
C408 C415 1.409 . S
C409 H401 0.930 . S
C409 C407 1.419 . S
C409 C410 1.362 . S
C410 H402 0.930 . S
C410 C409 1.362 . S
C410 C413 1.409 . S
C411 H403 0.930 . S
C411 C412 1.355 . S
C411 C413 1.415 . S
C412 C411 1.355 . S
C412 C414 1.419 . S
C413 C408 1.425 . S
C413 C410 1.409 . S
C413 C411 1.415 . S
C414 H404 0.930 . S
C414 C412 1.419 . S
C414 C415 1.362 . S
C415 H405 0.930 . S
C415 C408 1.409 . S
C415 C414 1.362 . S
H416 C422 0.930 . S
H417 C425 0.930 . S
H418 C426 0.930 . S
H419 C427 0.930 . S
H420 C430 0.930 . S
H421 C431 0.930 . S
C422 H416 0.930 . S
C422 C423 1.355 . S
C422 C424 1.415 . S
C423 C422 1.355 . S
C423 C425 1.419 . S
C424 C422 1.415 . S
C424 C429 1.425 . S
C424 C431 1.409 . S
C425 H417 0.930 . S
C425 C423 1.419 . S
C425 C426 1.362 . S
C426 H418 0.930 . S
C426 C425 1.362 . S
C426 C429 1.409 . S
C427 H419 0.930 . S
C427 C428 1.355 . S
C427 C429 1.415 . S
C428 C427 1.355 . S
C428 C430 1.419 . S
C429 C424 1.425 . S
C429 C426 1.409 . S
C429 C427 1.415 . S
C430 H420 0.930 . S
C430 C428 1.419 . S
C430 C431 1.362 . S
C431 H421 0.930 . S
C431 C424 1.409 . S
C431 C430 1.362 . S
H432 C438 0.930 . S
H433 C441 0.930 . S
H434 C442 0.930 . S
H435 C443 0.930 . S
H436 C446 0.930 . S
H437 C447 0.930 . S
C438 H432 0.930 . S
C438 C439 1.355 . S
C438 C440 1.415 . S
C439 C438 1.355 . S
C439 C441 1.419 . S
C440 C438 1.415 . S
C440 C445 1.425 . S
C440 C447 1.409 . S
C441 H433 0.930 . S
C441 C439 1.419 . S
C441 C442 1.362 . S
C442 H434 0.930 . S
C442 C441 1.362 . S
C442 C445 1.409 . S
C443 H435 0.930 . S
C443 C444 1.355 . S
C443 C445 1.415 . S
C444 C443 1.355 . S
C444 C446 1.419 . S
C445 C440 1.425 . S
C445 C442 1.409 . S
C445 C443 1.415 . S
C446 H436 0.930 . S
C446 C444 1.419 . S
C446 C447 1.362 . S
C447 H437 0.930 . S
C447 C440 1.409 . S
C447 C446 1.362 . S
H448 C454 0.930 . S
H449 C457 0.930 . S
H450 C458 0.930 . S
H451 C459 0.930 . S
H452 C462 0.930 . S
H453 C463 0.930 . S
C454 H448 0.930 . S
C454 C455 1.355 . S
C454 C456 1.415 . S
C455 C454 1.355 . S
C455 C457 1.419 . S
C456 C454 1.415 . S
C456 C461 1.425 . S
C456 C463 1.409 . S
C457 H449 0.930 . S
C457 C455 1.419 . S
C457 C458 1.362 . S
C458 H450 0.930 . S
C458 C457 1.362 . S
C458 C461 1.409 . S
C459 H451 0.930 . S
C459 C460 1.355 . S
C459 C461 1.415 . S
C460 C459 1.355 . S
C460 C462 1.419 . S
C461 C456 1.425 . S
C461 C458 1.409 . S
C461 C459 1.415 . S
C462 H452 0.930 . S
C462 C460 1.419 . S
C462 C463 1.362 . S
C463 H453 0.930 . S
C463 C456 1.409 . S
C463 C462 1.362 . S
H464 C470 0.930 . S
H465 C473 0.930 . S
H466 C474 0.930 . S
H467 C475 0.930 . S
H468 C478 0.930 . S
H469 C479 0.930 . S
C470 H464 0.930 . S
C470 C471 1.355 . S
C470 C472 1.415 . S
C471 C470 1.355 . S
C471 C473 1.419 . S
C472 C470 1.415 . S
C472 C477 1.425 . S
C472 C479 1.409 . S
C473 H465 0.930 . S
C473 C471 1.419 . S
C473 C474 1.362 . S
C474 H466 0.930 . S
C474 C473 1.362 . S
C474 C477 1.409 . S
C475 H467 0.930 . S
C475 C476 1.355 . S
C475 C477 1.415 . S
C476 C475 1.355 . S
C476 C478 1.419 . S
C477 C472 1.425 . S
C477 C474 1.409 . S
C477 C475 1.415 . S
C478 H468 0.930 . S
C478 C476 1.419 . S
C478 C479 1.362 . S
C479 H469 0.930 . S
C479 C472 1.409 . S
C479 C478 1.362 . S
H480 C486 0.930 . S
H481 C489 0.930 . S
H482 C490 0.930 . S
H483 C491 0.930 . S
H484 C494 0.930 . S
H485 C495 0.930 . S
C486 H480 0.930 . S
C486 C487 1.355 . S
C486 C488 1.415 . S
C487 C486 1.355 . S
C487 C489 1.419 . S
C488 C486 1.415 . S
C488 C493 1.425 . S
C488 C495 1.409 . S
C489 H481 0.930 . S
C489 C487 1.419 . S
C489 C490 1.362 . S
C490 H482 0.930 . S
C490 C489 1.362 . S
C490 C493 1.409 . S
C491 H483 0.930 . S
C491 C492 1.355 . S
C491 C493 1.415 . S
C492 C491 1.355 . S
C492 C494 1.419 . S
C493 C488 1.425 . S
C493 C490 1.409 . S
C493 C491 1.415 . S
C494 H484 0.930 . S
C494 C492 1.419 . S
C494 C495 1.362 . S
C495 H485 0.930 . S
C495 C488 1.409 . S
C495 C494 1.362 . S
H496 C502 0.930 . S
H497 C505 0.930 . S
H498 C506 0.930 . S
H499 C507 0.930 . S
H500 C510 0.930 . S
H501 C511 0.930 . S
C502 H496 0.930 . S
C502 C503 1.355 . S
C502 C504 1.415 . S
C503 C502 1.355 . S
C503 C505 1.419 . S
C504 C502 1.415 . S
C504 C509 1.425 . S
C504 C511 1.409 . S
C505 H497 0.930 . S
C505 C503 1.419 . S
C505 C506 1.362 . S
C506 H498 0.930 . S
C506 C505 1.362 . S
C506 C509 1.409 . S
C507 H499 0.930 . S
C507 C508 1.355 . S
C507 C509 1.415 . S
C508 C507 1.355 . S
C508 C510 1.419 . S
C509 C504 1.425 . S
C509 C506 1.409 . S
C509 C507 1.415 . S
C510 H500 0.930 . S
C510 C508 1.419 . S
C510 C511 1.362 . S
C511 H501 0.930 . S
C511 C504 1.409 . S
C511 C510 1.362 . S
H512 C518 0.930 . S
H513 C521 0.930 . S
H514 C522 0.930 . S
H515 C523 0.930 . S
H516 C526 0.930 . S
H517 C527 0.930 . S
C518 H512 0.930 . S
C518 C519 1.355 . S
C518 C520 1.415 . S
C519 C518 1.355 . S
C519 C521 1.419 . S
C520 C518 1.415 . S
C520 C525 1.425 . S
C520 C527 1.409 . S
C521 H513 0.930 . S
C521 C519 1.419 . S
C521 C522 1.362 . S
C522 H514 0.930 . S
C522 C521 1.362 . S
C522 C525 1.409 . S
C523 H515 0.930 . S
C523 C524 1.355 . S
C523 C525 1.415 . S
C524 C523 1.355 . S
C524 C526 1.419 . S
C525 C520 1.425 . S
C525 C522 1.409 . S
C525 C523 1.415 . S
C526 H516 0.930 . S
C526 C524 1.419 . S
C526 C527 1.362 . S
C527 H517 0.930 . S
C527 C520 1.409 . S
C527 C526 1.362 . S
H528 C534 0.930 . S
H529 C537 0.930 . S
H530 C538 0.930 . S
H531 C539 0.930 1_655 S
H532 C542 0.930 . S
H533 C543 0.930 . S
C534 H528 0.930 . S
C534 C535 1.355 . S
C534 C536 1.415 . S
C535 C534 1.355 . S
C535 C537 1.419 1_455 S
C536 C534 1.415 . S
C536 C541 1.425 . S
C536 C543 1.409 . S
C537 H529 0.930 . S
C537 C535 1.419 1_655 S
C537 C538 1.362 . S
C538 H530 0.930 . S
C538 C537 1.362 . S
C538 C541 1.409 1_655 S
C539 H531 0.930 1_455 S
C539 C540 1.355 . S
C539 C541 1.415 . S
C540 C539 1.355 . S
C540 C542 1.419 . S
C541 C536 1.425 . S
C541 C538 1.409 1_455 S
C541 C539 1.415 . S
C542 H532 0.930 . S
C542 C540 1.419 . S
C542 C543 1.362 . S
C543 H533 0.930 . S
C543 C536 1.409 . S
C543 C542 1.362 . S
H544 C550 0.930 . S
H545 C553 0.930 . S
H546 C554 0.930 . S
H547 C555 0.930 . S
H548 C558 0.930 . S
H549 C559 0.930 . S
C550 H544 0.930 . S
C550 C551 1.355 . S
C550 C552 1.415 . S
C551 C550 1.355 . S
C551 C553 1.419 . S
C552 C550 1.415 . S
C552 C557 1.425 . S
C552 C559 1.409 . S
C553 H545 0.930 . S
C553 C551 1.419 . S
C553 C554 1.362 . S
C554 H546 0.930 . S
C554 C553 1.362 . S
C554 C557 1.409 . S
C555 H547 0.930 . S
C555 C556 1.355 . S
C555 C557 1.415 . S
C556 C555 1.355 . S
C556 C558 1.419 . S
C557 C552 1.425 . S
C557 C554 1.409 . S
C557 C555 1.415 . S
C558 H548 0.930 . S
C558 C556 1.419 . S
C558 C559 1.362 . S
C559 H549 0.930 . S
C559 C552 1.409 . S
C559 C558 1.362 . S
H560 C566 0.930 . S
H561 C569 0.930 . S
H562 C570 0.930 . S
H563 C571 0.930 . S
H564 C574 0.930 . S
H565 C575 0.930 . S
C566 H560 0.930 . S
C566 C567 1.355 . S
C566 C568 1.415 . S
C567 C566 1.355 . S
C567 C569 1.419 . S
C568 C566 1.415 . S
C568 C573 1.425 . S
C568 C575 1.409 . S
C569 H561 0.930 . S
C569 C567 1.419 . S
C569 C570 1.362 . S
C570 H562 0.930 . S
C570 C569 1.362 . S
C570 C573 1.409 . S
C571 H563 0.930 . S
C571 C572 1.355 . S
C571 C573 1.415 . S
C572 C571 1.355 . S
C572 C574 1.419 . S
C573 C568 1.425 . S
C573 C570 1.409 . S
C573 C571 1.415 . S
C574 H564 0.930 . S
C574 C572 1.419 . S
C574 C575 1.362 . S
C575 H565 0.930 . S
C575 C568 1.409 . S
C575 C574 1.362 . S
H576 C582 0.930 . S
H577 C585 0.930 1_565 S
H578 C586 0.930 . S
H579 C587 0.930 . S
H580 C590 0.930 . S
H581 C591 0.930 . S
C582 H576 0.930 . S
C582 C583 1.355 . S
C582 C584 1.415 . S
C583 C582 1.355 . S
C583 C585 1.419 . S
C584 C582 1.415 . S
C584 C589 1.425 . S
C584 C591 1.409 . S
C585 H577 0.930 1_545 S
C585 C583 1.419 . S
C585 C586 1.362 1_545 S
C586 H578 0.930 . S
C586 C585 1.362 1_565 S
C586 C589 1.409 1_565 S
C587 H579 0.930 . S
C587 C588 1.355 1_565 S
C587 C589 1.415 1_565 S
C588 C587 1.355 1_545 S
C588 C590 1.419 . S
C589 C584 1.425 . S
C589 C586 1.409 1_545 S
C589 C587 1.415 1_545 S
C590 H580 0.930 . S
C590 C588 1.419 . S
C590 C591 1.362 . S
C591 H581 0.930 . S
C591 C584 1.409 . S
C591 C590 1.362 . S
H592 C598 0.930 . S
H593 C601 0.930 . S
H594 C602 0.930 . S
H595 C603 0.930 . S
H596 C606 0.930 . S
H597 C607 0.930 . S
C598 H592 0.930 . S
C598 C599 1.355 . S
C598 C600 1.415 . S
C599 C598 1.355 . S
C599 C601 1.419 . S
C600 C598 1.415 . S
C600 C605 1.425 . S
C600 C607 1.409 . S
C601 H593 0.930 . S
C601 C599 1.419 . S
C601 C602 1.362 . S
C602 H594 0.930 . S
C602 C601 1.362 . S
C602 C605 1.409 . S
C603 H595 0.930 . S
C603 C604 1.355 . S
C603 C605 1.415 . S
C604 C603 1.355 . S
C604 C606 1.419 . S
C605 C600 1.425 . S
C605 C602 1.409 . S
C605 C603 1.415 . S
C606 H596 0.930 . S
C606 C604 1.419 . S
C606 C607 1.362 . S
C607 H597 0.930 . S
C607 C600 1.409 . S
C607 C606 1.362 . S
H608 C614 0.930 . S
H609 C617 0.930 . S
H610 C618 0.930 . S
H611 C619 0.930 . S
H612 C622 0.930 . S
H613 C623 0.930 . S
C614 H608 0.930 . S
C614 C615 1.355 . S
C614 C616 1.415 . S
C615 C614 1.355 . S
C615 C617 1.419 1_455 S
C616 C614 1.415 . S
C616 C621 1.425 1_455 S
C616 C623 1.409 . S
C617 H609 0.930 . S
C617 C615 1.419 1_655 S
C617 C618 1.362 . S
C618 H610 0.930 . S
C618 C617 1.362 . S
C618 C621 1.409 . S
C619 H611 0.930 . S
C619 C620 1.355 1_655 S
C619 C621 1.415 . S
C620 C619 1.355 1_455 S
C620 C622 1.419 . S
C621 C616 1.425 1_655 S
C621 C618 1.409 . S
C621 C619 1.415 . S
C622 H612 0.930 . S
C622 C620 1.419 . S
C622 C623 1.362 . S
C623 H613 0.930 . S
C623 C616 1.409 . S
C623 C622 1.362 . S
C343 C10 3.136 . S
C348 C325 3.037 . S
C359 C55 1.246 . S
C364 C253 1.245 . S
C375 C90 1.961 . S
C380 C289 1.916 . S
C391 C19 3.045 . S
C396 C301 2.996 . S
C412 C229 1.323 . S
C407 C46 1.323 . S
C428 C265 2.085 . S
C423 C99 2.136 . S
C439 C50 1.944 . S
C444 C181 1.849 . S
C455 C95 0.703 . S
C460 C193 0.748 . S
C471 C6 1.366 . S
C476 C121 1.345 . S
C492 C157 2.012 . S
C487 C59 2.099 . S
C508 C217 0.440 . S
C503 C86 0.440 . S
C519 C15 1.281 . S
C524 C145 1.319 . S
C540 C223 1.075 . S
C535 C18 1.090 . S
C551 C49 1.428 . S
C556 C151 1.466 . S
C567 C98 1.336 . S
C572 C187 1.342 . S
C588 C295 1.376 . S
C583 C58 1.294 . S
C604 C331 1.780 1_556 S
C599 C89 1.728 . S
C615 C9 1.468 . S
C620 C259 1.489 . S
