# Generated by pormake.
# Topology zzz, (3,6)-cn, num edge types: 1
# Building blocks:
#     Node 0, Type 0, BuildingBlock: VETTIZ_charged_linker_0, # of connection points: 3
#     Node 1, Type 0, BuildingBlock: VETTIZ_charged_linker_0, # of connection points: 3
#     Node 2, Type 0, BuildingBlock: VETTIZ_charged_linker_0, # of connection points: 3
#     Node 3, Type 0, BuildingBlock: VETTIZ_charged_linker_0, # of connection points: 3
#     Node 4, Type 0, BuildingBlock: VETTIZ_charged_linker_0, # of connection points: 3
#     Node 5, Type 0, BuildingBlock: VETTIZ_charged_linker_0, # of connection points: 3
#     Node 6, Type 0, BuildingBlock: VETTIZ_charged_linker_0, # of connection points: 3
#     Node 7, Type 0, BuildingBlock: VETTIZ_charged_linker_0, # of connection points: 3
#     Node 8, Type 1, BuildingBlock: BETDIP_clean_sbu_0, # of connection points: 6
#     Node 9, Type 1, BuildingBlock: BETDIP_clean_sbu_0, # of connection points: 6
#     Node 10, Type 1, BuildingBlock: BETDIP_clean_sbu_0, # of connection points: 6
#     Node 11, Type 1, BuildingBlock: BETDIP_clean_sbu_0, # of connection points: 6
#     Edge 12, Type (0, 1), BuildingBlock: MIFKUJ_clean_linker_0, # of connection points: 2
#     Edge 13, Type (0, 1), BuildingBlock: MIFKUJ_clean_linker_0, # of connection points: 2
#     Edge 14, Type (0, 1), BuildingBlock: MIFKUJ_clean_linker_0, # of connection points: 2
#     Edge 15, Type (0, 1), BuildingBlock: MIFKUJ_clean_linker_0, # of connection points: 2
#     Edge 16, Type (0, 1), BuildingBlock: MIFKUJ_clean_linker_0, # of connection points: 2
#     Edge 17, Type (0, 1), BuildingBlock: MIFKUJ_clean_linker_0, # of connection points: 2
#     Edge 18, Type (0, 1), BuildingBlock: MIFKUJ_clean_linker_0, # of connection points: 2
#     Edge 19, Type (0, 1), BuildingBlock: MIFKUJ_clean_linker_0, # of connection points: 2
#     Edge 20, Type (0, 1), BuildingBlock: MIFKUJ_clean_linker_0, # of connection points: 2
#     Edge 21, Type (0, 1), BuildingBlock: MIFKUJ_clean_linker_0, # of connection points: 2
#     Edge 22, Type (0, 1), BuildingBlock: MIFKUJ_clean_linker_0, # of connection points: 2
#     Edge 23, Type (0, 1), BuildingBlock: MIFKUJ_clean_linker_0, # of connection points: 2
#     Edge 24, Type (0, 1), BuildingBlock: MIFKUJ_clean_linker_0, # of connection points: 2
#     Edge 25, Type (0, 1), BuildingBlock: MIFKUJ_clean_linker_0, # of connection points: 2
#     Edge 26, Type (0, 1), BuildingBlock: MIFKUJ_clean_linker_0, # of connection points: 2
#     Edge 27, Type (0, 1), BuildingBlock: MIFKUJ_clean_linker_0, # of connection points: 2
#     Edge 28, Type (0, 1), BuildingBlock: MIFKUJ_clean_linker_0, # of connection points: 2
#     Edge 29, Type (0, 1), BuildingBlock: MIFKUJ_clean_linker_0, # of connection points: 2
#     Edge 30, Type (0, 1), BuildingBlock: MIFKUJ_clean_linker_0, # of connection points: 2
#     Edge 31, Type (0, 1), BuildingBlock: MIFKUJ_clean_linker_0, # of connection points: 2
#     Edge 32, Type (0, 1), BuildingBlock: MIFKUJ_clean_linker_0, # of connection points: 2
#     Edge 33, Type (0, 1), BuildingBlock: MIFKUJ_clean_linker_0, # of connection points: 2
#     Edge 34, Type (0, 1), BuildingBlock: MIFKUJ_clean_linker_0, # of connection points: 2
#     Edge 35, Type (0, 1), BuildingBlock: MIFKUJ_clean_linker_0, # of connection points: 2
# Relax obj value: 0.415
# Max RMSD: 0.270
# Mean RMSD: 0.243
data_MOF--net-zzz--node1-BETDIP_clean_sbu_0--node2-VETTIZ_charged_linker_0--edge1-MIFKUJ_clean_linker_0
_symmetry_space_group_name_H-M    P1
_symmetry_Int_Tables_number       1
_symmetry_cell_setting            triclinic
loop_
_symmetry_equiv_pos_as_xyz
'x, y, z'
_cell_length_a     73.429857
_cell_length_b     73.531106
_cell_length_c     22.962515
_cell_angle_alpha  89.94228
_cell_angle_beta   89.969768
_cell_angle_gamma 90.117622
loop_
_atom_site_label
_atom_site_type_symbol
_atom_site_fract_x
_atom_site_fract_y
_atom_site_fract_z
_atom_type_partial_charge
C0 C 0.79502 0.50719 0.31872 0.0
C1 C 0.81424 0.50523 0.31852 0.0
C2 C 0.82351 0.50589 0.26495 0.0
C3 C 0.79513 0.50971 0.21285 0.0
C4 C 0.78568 0.50931 0.26497 0.0
C5 C 0.76525 0.51082 0.25451 0.0
H6 H 0.69737 0.52351 0.05124 0.0
C7 C 0.78203 0.51197 0.16462 0.0
C8 C 0.76432 0.51291 0.18814 0.0
H9 H 0.68894 0.51393 0.23453 0.0
H10 H 0.722 0.51229 0.24933 0.0
H11 H 0.73172 0.55027 0.06073 0.0
H12 H 0.72328 0.49318 0.03593 0.0
H13 H 0.74304 0.49783 0.9961 0.0
H14 H 0.72202 0.50895 0.97658 0.0
H15 H 0.72353 0.54051 0.99408 0.0
H16 H 0.74756 0.5436 0.00759 0.0
C17 C 0.75801 0.52779 0.28618 0.0
C18 C 0.75616 0.49301 0.27513 0.0
C19 C 0.80518 0.50977 0.95592 0.0
C20 C 0.79631 0.51089 0.90163 0.0
C21 C 0.77781 0.51582 0.9001 0.0
C22 C 0.76807 0.51861 0.95173 0.0
C23 C 0.77685 0.5163 0.00572 0.0
C24 C 0.79522 0.51252 0.00714 0.0
C25 C 0.80229 0.51079 0.06841 0.0
C26 C 0.78487 0.51321 0.1035 0.0
C27 C 0.77012 0.51629 0.06646 0.0
C28 C 0.81607 0.52649 0.07898 0.0
C29 C 0.8103 0.49141 0.07569 0.0
C30 C 0.70254 0.5214 0.09496 0.0
C31 C 0.69057 0.51926 0.14178 0.0
C32 C 0.69794 0.51578 0.19762 0.0
C33 C 0.71708 0.51479 0.20605 0.0
C34 C 0.72887 0.51687 0.15788 0.0
C35 C 0.72126 0.51998 0.10361 0.0
C36 C 0.73495 0.52042 0.05573 0.0
C37 C 0.7523 0.51744 0.08942 0.0
C38 C 0.74908 0.51554 0.14975 0.0
C39 C 0.73443 0.53961 0.02748 0.0
C40 C 0.73067 0.50442 0.0135 0.0
H41 H 0.82223 0.50842 0.17386 0.0
H42 H 0.78751 0.50669 0.35927 0.0
H43 H 0.76387 0.48103 0.259 0.0
H44 H 0.74217 0.49147 0.25843 0.0
H45 H 0.75578 0.49232 0.32346 0.0
H46 H 0.76635 0.53992 0.27472 0.0
H47 H 0.75862 0.52591 0.33416 0.0
H48 H 0.74383 0.53094 0.27409 0.0
H49 H 0.81937 0.50588 0.95884 0.0
H50 H 0.77074 0.51711 0.85891 0.0
H51 H 0.75394 0.52195 0.94741 0.0
H52 H 0.81361 0.53819 0.04922 0.0
H53 H 0.83031 0.52193 0.07183 0.0
H54 H 0.81488 0.53237 0.12322 0.0
H55 H 0.80173 0.48121 0.05266 0.0
H56 H 0.81068 0.48675 0.12136 0.0
H57 H 0.82426 0.49061 0.05724 0.0
H58 H 0.83821 0.50465 0.26352 0.0
C59 C 0.81416 0.50817 0.21266 0.0
C60 C 0.01517 0.75131 0.95157 0.0
C61 C 1.00817 0.76815 0.93298 0.0
C62 C 0.99905 0.77914 0.9743 0.0
C63 C 1.00681 0.75822 0.05129 0.0
C64 C 0.01448 0.7467 0.01076 0.0
C65 C 0.0233 0.73043 0.03863 0.0
H66 H 1.00006 0.67044 0.22637 0.0
C67 C 0.00986 0.75048 0.10957 0.0
C68 C 0.01903 0.73392 0.1028 0.0
H69 H 0.03801 0.66457 0.08319 0.0
H70 H 0.04366 0.69709 0.08437 0.0
H71 H 0.02971 0.71057 0.29755 0.0
H72 H 0.97984 0.71135 0.19489 0.0
H73 H 0.98079 0.72139 0.26635 0.0
H74 H 0.98064 0.69703 0.25869 0.0
H75 H 0.01344 0.69269 0.31121 0.0
H76 H 1.00777 0.7154 0.33031 0.0
C77 C 0.04401 0.73149 0.02671 0.0
C78 C 0.0143 0.71292 0.01408 0.0
C79 C 0.99735 0.78809 0.28844 0.0
C80 C 1.00393 0.78638 0.34564 0.0
C81 C 0.01156 0.76952 0.36278 0.0
C82 C 0.0124 0.7547 0.32351 0.0
C83 C 1.0053 0.75666 0.26707 0.0
C84 C 0.99882 0.77348 0.2496 0.0
C85 C 0.99755 0.77499 0.18435 0.0
C86 C 1.00519 0.75674 0.16593 0.0
C87 C 1.00818 0.74552 0.21426 0.0
C88 C 0.00981 0.79106 0.16412 0.0
C89 C 0.9772 0.77691 0.1678 0.0
C90 C 0.00957 0.67622 0.19541 0.0
C91 C 0.01797 0.66512 0.15257 0.0
C92 C 0.03096 0.67289 0.11493 0.0
C93 C 0.03388 0.69162 0.11438 0.0
C94 C 0.02354 0.70261 0.1511 0.0
C95 C 0.01337 0.69512 0.19545 0.0
C96 C 1.00671 0.70997 0.2365 0.0
C97 C 0.01384 0.7272 0.20583 0.0
C98 C 0.0213 0.7223 0.15172 0.0
C99 C 0.01497 0.7071 0.29732 0.0
C100 C 0.98576 0.70991 0.23924 0.0
H101 H 0.99166 0.78347 0.06215 0.0
H102 H 0.02198 0.74229 0.92144 0.0
H103 H 1.00249 0.70862 0.04114 0.0
H104 H 0.02405 0.70155 0.0106 0.0
H105 H 0.00917 0.71488 0.96899 0.0
H106 H 0.04905 0.74571 0.03094 0.0
H107 H 0.04721 0.72671 0.98197 0.0
H108 H 0.05201 0.72347 0.05823 0.0
H109 H 0.99259 0.80111 0.27253 0.0
H110 H 0.0174 0.76801 0.4058 0.0
H111 H 0.01979 0.74269 0.33602 0.0
H112 H 0.02245 0.79178 0.19076 0.0
H113 H 1.00262 0.80426 0.16862 0.0
H114 H 0.01469 0.78977 0.11893 0.0
H115 H 0.96833 0.7694 0.19896 0.0
H116 H 0.97403 0.77092 0.12481 0.0
H117 H 0.97289 0.79138 0.16825 0.0
H118 H 0.99368 0.79235 0.96279 0.0
C119 C 0.99817 0.77416 0.03291 0.0
C120 C 0.82262 1.00805 0.1393 0.0
C121 C 0.83595 0.01683 0.10407 0.0
C122 C 0.833 0.03496 0.08666 0.0
C123 C 0.80275 0.03393 0.12638 0.0
C124 C 0.80615 0.01734 0.15174 0.0
C125 C 0.79112 0.01279 0.19559 0.0
H126 H 0.70636 0.03772 0.3006 0.0
C127 C 0.78487 0.04025 0.1437 0.0
C128 C 0.77801 0.02895 0.18778 0.0
H129 H 0.73806 0.99199 0.35949 0.0
H130 H 0.76269 1.0006 0.29281 0.0
H131 H 0.74062 0.06654 0.29609 0.0
H132 H 0.70541 0.03844 0.19386 0.0
H133 H 0.72028 0.04289 0.13454 0.0
H134 H 0.70854 0.0611 0.17158 0.0
H135 H 0.71749 0.07022 0.27321 0.0
H136 H 0.73639 0.07973 0.23322 0.0
C137 C 0.79958 0.01244 0.257 0.0
C138 C 0.78221 0.99461 0.17841 0.0
C139 C 0.74705 0.07375 0.99475 0.0
C140 C 0.73049 0.08331 0.99917 0.0
C141 C 0.72379 0.08751 0.05535 0.0
C142 C 0.73207 0.08039 0.10524 0.0
C143 C 0.74714 0.06897 0.09904 0.0
C144 C 0.7554 0.0672 0.04551 0.0
C145 C 0.7735 0.05778 0.05024 0.0
C146 C 0.77364 0.05301 0.11537 0.0
C147 C 0.75729 0.0581 0.1417 0.0
C148 C 0.78854 0.07126 0.03114 0.0
C149 C 0.77351 0.04052 0.01207 0.0
C150 C 0.71854 0.02944 0.29905 0.0
C151 C 0.72012 0.01406 0.33472 0.0
C152 C 0.73647 1.00394 0.33239 0.0
C153 C 0.75071 0.00892 0.29367 0.0
C154 C 0.74865 0.02426 0.25732 0.0
C155 C 0.73263 0.03415 0.26076 0.0
C156 C 0.7323 0.05013 0.22027 0.0
C157 C 0.75067 0.04817 0.19053 0.0
C158 C 0.76051 0.03309 0.21244 0.0
C159 C 0.73156 0.06766 0.25742 0.0
C160 C 0.71591 0.04811 0.17772 0.0
H161 H 0.8155 0.058 0.09104 0.0
H162 H 0.82511 0.99464 0.15709 0.0
H163 H 0.77769 0.99504 0.1322 0.0
H164 H 0.7701 0.99153 0.20516 0.0
H165 H 0.79203 0.98324 0.18333 0.0
H166 H 0.80824 0.02467 0.26401 0.0
H167 H 0.80826 1.0002 0.26275 0.0
H168 H 0.7892 0.01257 0.29169 0.0
H169 H 0.75311 0.07079 0.95289 0.0
H170 H 0.71186 0.09597 0.06087 0.0
H171 H 0.72657 0.08397 0.14691 0.0
H172 H 0.78388 0.08026 0.99524 0.0
H173 H 0.8005 0.06407 0.01289 0.0
H174 H 0.79277 0.08014 0.06789 0.0
H175 H 0.7622 0.03125 0.02474 0.0
H176 H 0.78652 0.033 0.01676 0.0
H177 H 0.77193 0.04405 0.9653 0.0
H178 H 0.84341 0.0424 0.06306 0.0
C179 C 0.81665 0.04367 0.09928 0.0
C180 C 0.499 0.72023 0.34535 0.0
C181 C 0.48966 0.7042 0.36252 0.0
C182 C 0.47284 0.70011 0.33637 0.0
C183 C 0.47486 0.72702 0.27606 0.0
C184 C 0.49111 0.73168 0.30252 0.0
C185 C 0.49818 0.74977 0.27942 0.0
H186 H 0.483 0.82216 0.09515 0.0
C187 C 0.47018 0.74109 0.23284 0.0
C188 C 0.48345 0.75493 0.23516 0.0
H189 H 0.52981 0.81504 0.20581 0.0
H190 H 0.51726 0.78624 0.24183 0.0
H191 H 0.48467 0.78577 0.04592 0.0
H192 H 0.45148 0.80679 0.18308 0.0
H193 H 0.4373 0.79334 0.13855 0.0
H194 H 0.44918 0.81252 0.1074 0.0
H195 H 0.463 0.79578 0.03088 0.0
H196 H 0.46544 0.77171 0.04416 0.0
C197 C 0.51675 0.74649 0.24984 0.0
C198 C 0.49913 0.76339 0.33033 0.0
C199 C 0.42131 0.72743 0.08382 0.0
C200 C 0.41568 0.73674 0.03333 0.0
C201 C 0.42022 0.75528 0.0274 0.0
C202 C 0.43175 0.76377 0.06774 0.0
C203 C 0.43899 0.75358 0.11413 0.0
C204 C 0.43302 0.73602 0.12321 0.0
C205 C 0.44211 0.72724 0.17473 0.0
C206 C 0.45579 0.74188 0.19163 0.0
C207 C 0.45389 0.75718 0.15596 0.0
C208 C 0.45162 0.7096 0.15365 0.0
C209 C 0.42744 0.72422 0.22258 0.0
C210 C 0.49041 0.81458 0.12798 0.0
C211 C 0.50714 0.82093 0.14852 0.0
C212 C 0.51673 0.81041 0.18982 0.0
C213 C 0.50944 0.79375 0.21052 0.0
C214 C 0.4926 0.78746 0.18875 0.0
C215 C 0.48359 0.79794 0.14769 0.0
C216 C 0.46694 0.78889 0.12411 0.0
C217 C 0.46674 0.77151 0.15927 0.0
C218 C 0.48167 0.77051 0.19786 0.0
C219 C 0.46999 0.7854 0.05792 0.0
C220 C 0.45027 0.80099 0.13849 0.0
H221 H 0.45275 0.70717 0.27529 0.0
H222 H 0.5119 0.7238 0.36516 0.0
H223 H 0.48618 0.76321 0.35546 0.0
H224 H 0.50112 0.77752 0.31544 0.0
H225 H 0.51039 0.75985 0.36057 0.0
H226 H 0.51607 0.73438 0.22091 0.0
H227 H 0.52753 0.74403 0.28286 0.0
H228 H 0.52099 0.75796 0.22198 0.0
H229 H 0.41812 0.71318 0.08998 0.0
H230 H 0.41574 0.76291 0.98968 0.0
H231 H 0.4353 0.77769 0.05948 0.0
H232 H 0.45884 0.71204 0.11175 0.0
H233 H 0.44155 0.69853 0.14658 0.0
H234 H 0.46208 0.70453 0.18392 0.0
H235 H 0.41502 0.73253 0.21489 0.0
H236 H 0.43231 0.72847 0.26623 0.0
H237 H 0.42303 0.70977 0.22453 0.0
H238 H 0.46547 0.68787 0.34837 0.0
C239 C 0.46545 0.71136 0.29369 0.0
C240 C 0.32407 0.50543 0.22362 0.0
C241 C 0.33724 0.51352 0.26056 0.0
C242 C 0.3344 0.53135 0.28048 0.0
C243 C 0.3056 0.53281 0.22979 0.0
C244 C 0.30842 0.51556 0.20777 0.0
C245 C 0.29304 0.51009 0.16695 0.0
H246 H 0.21359 0.53629 0.03126 0.0
C247 C 0.28828 0.5399 0.20692 0.0
C248 C 0.28091 0.52704 0.16806 0.0
H249 H 0.23912 0.48375 0.01759 0.0
H250 H 0.26355 0.49379 0.08263 0.0
H251 H 0.21384 0.53761 0.15363 0.0
H252 H 0.25041 0.56209 0.03309 0.0
H253 H 0.24568 0.57838 0.08735 0.0
H254 H 0.2272 0.5686 0.0461 0.0
H255 H 0.21093 0.56079 0.13247 0.0
H256 H 0.22392 0.5546 0.1962 0.0
C257 C 0.28327 0.49337 0.19304 0.0
C258 C 0.30106 0.50661 0.10592 0.0
C259 C 0.25878 0.59377 0.30601 0.0
C260 C 0.24154 0.60175 0.29836 0.0
C261 C 0.23239 0.59905 0.24498 0.0
C262 C 0.23902 0.58669 0.20392 0.0
C263 C 0.25487 0.57681 0.21635 0.0
C264 C 0.26511 0.58124 0.26466 0.0
C265 C 0.28197 0.56973 0.26926 0.0
C266 C 0.27876 0.55617 0.22003 0.0
C267 C 0.26284 0.56039 0.1896 0.0
C268 C 0.28206 0.56037 0.32979 0.0
C269 C 0.29872 0.58217 0.25764 0.0
C270 C 0.22463 0.52704 0.04127 0.0
C271 C 0.22467 0.50941 0.01844 0.0
C272 C 0.23892 0.49751 0.03437 0.0
C273 C 0.25304 0.50335 0.07208 0.0
C274 C 0.25264 0.52113 0.09517 0.0
C275 C 0.23834 0.53244 0.07985 0.0
C276 C 0.23849 0.55004 0.11238 0.0
C277 C 0.25562 0.54795 0.14844 0.0
C278 C 0.26424 0.53112 0.13817 0.0
C279 C 0.22093 0.55096 0.15044 0.0
C280 C 0.24043 0.56571 0.06765 0.0
H281 H 0.31747 0.55436 0.28271 0.0
H282 H 0.32601 0.49177 0.20722 0.0
H283 H 0.31006 0.51808 0.09268 0.0
H284 H 0.29046 0.50545 0.07214 0.0
H285 H 0.3093 0.49395 0.10562 0.0
H286 H 0.28078 0.49536 0.2404 0.0
H287 H 0.29166 0.48093 0.18768 0.0
H288 H 0.2698 0.49097 0.17332 0.0
H289 H 0.26644 0.59609 0.34558 0.0
H290 H 0.21922 0.60513 0.23698 0.0
H291 H 0.23093 0.58452 0.16575 0.0
H292 H 0.26849 0.55429 0.33933 0.0
H293 H 0.28525 0.5703 0.36476 0.0
H294 H 0.29195 0.54917 0.33315 0.0
H295 H 0.29481 0.59561 0.23918 0.0
H296 H 0.30809 0.57618 0.22496 0.0
H297 H 0.30642 0.58492 0.29833 0.0
H298 H 0.34423 0.5378 0.30905 0.0
C299 C 0.31879 0.54097 0.26527 0.0
C300 C 1.00313 0.22681 0.40801 0.0
C301 C 0.01229 0.21085 0.42525 0.0
C302 C 0.02371 0.20218 0.38409 0.0
C303 C 0.01476 0.2237 0.30968 0.0
C304 C 1.00507 0.23329 0.35091 0.0
C305 C 0.99735 0.2507 0.32686 0.0
H306 H 0.02597 0.317 0.16427 0.0
C307 C 0.01345 0.2335 0.25388 0.0
C308 C 1.00404 0.24978 0.2639 0.0
H309 H 0.98566 0.31898 0.30187 0.0
H310 H 0.98013 0.28661 0.29041 0.0
H311 H 0.04579 0.2749 0.18974 0.0
H312 H 0.99863 0.27937 0.07573 0.0
H313 H 0.02153 0.2764 0.04729 0.0
H314 H 0.01461 0.29796 0.07353 0.0
H315 H 0.04659 0.29124 0.13112 0.0
H316 H 0.04645 0.26727 0.11526 0.0
C317 C 1.00539 0.26696 0.3617 0.0
C318 C 0.97637 0.2496 0.33014 0.0
C319 C 0.02758 0.20165 0.06469 0.0
C320 C 0.02318 0.20604 0.00657 0.0
C321 C 0.01726 0.22401 0.99461 0.0
C322 C 0.01579 0.2371 0.03943 0.0
C323 C 0.02094 0.23251 0.09641 0.0
C324 C 0.02596 0.21479 0.10869 0.0
C325 C 0.02653 0.21115 0.17335 0.0
C326 C 0.01942 0.2291 0.19691 0.0
C327 C 0.01772 0.24199 0.15227 0.0
C328 C 0.04657 0.20772 0.19147 0.0
C329 C 0.01354 0.19511 0.18754 0.0
C330 C 0.01609 0.31039 0.19224 0.0
C331 C 1.0068 0.32039 0.23587 0.0
C332 C 0.99336 0.31155 0.26944 0.0
C333 C 0.99055 0.29284 0.26439 0.0
C334 C 1.00148 0.28285 0.22644 0.0
C335 C 0.01254 0.29154 0.1867 0.0
C336 C 0.01998 0.27803 0.14258 0.0
C337 C 0.01206 0.26002 0.16568 0.0
C338 C 1.0034 0.2632 0.21933 0.0
C339 C 0.04095 0.27787 0.14485 0.0
C340 C 0.01321 0.2831 0.08131 0.0
H341 H 0.03336 0.20103 0.29696 0.0
H342 H 0.99428 0.23404 0.43761 0.0
H343 H 0.97144 0.23602 0.31565 0.0
H344 H 0.96972 0.25964 0.30135 0.0
H345 H 0.97156 0.25184 0.37547 0.0
H346 H 0.00955 0.26301 0.40646 0.0
H347 H 0.99534 0.27795 0.36827 0.0
H348 H 0.01769 0.27263 0.34 0.0
H349 H 0.03114 0.18787 0.07661 0.0
H350 H 0.01328 0.22784 0.95093 0.0
H351 H 0.00957 0.24996 0.02967 0.0
H352 H 0.05635 0.21327 0.15892 0.0
H353 H 0.04941 0.19295 0.19601 0.0
H354 H 0.05009 0.21467 0.23278 0.0
H355 H 0.01901 0.18211 0.17039 0.0
H356 H 0.99995 0.19742 0.16753 0.0
H357 H 0.01124 0.19323 0.23454 0.0
H358 H 0.03172 0.19042 0.39593 0.0
C359 C 0.02482 0.20841 0.3265 0.0
C360 C 0.2824 0.01314 0.96951 0.0
C361 C 0.29791 0.02247 0.94738 0.0
C362 C 0.30054 0.04083 0.96257 0.0
C363 C 0.27561 0.03908 0.0307 0.0
C364 C 0.27095 0.02213 0.0101 0.0
C365 C 0.25264 0.01626 0.03551 0.0
H366 H 0.19048 0.03052 0.25647 0.0
C367 C 0.26345 0.04393 0.07877 0.0
C368 C 0.24912 0.03121 0.08092 0.0
H369 H 0.184 0.99233 0.1157 0.0
H370 H 0.21309 1.00239 0.07379 0.0
H371 H 0.22779 0.02258 0.28313 0.0
H372 H 0.20448 0.06457 0.18042 0.0
H373 H 0.22184 0.07466 0.2226 0.0
H374 H 0.20354 0.06267 0.25836 0.0
H375 H 0.22412 0.04457 0.31361 0.0
H376 H 0.24563 0.03843 0.28092 0.0
C377 C 0.25443 0.99735 0.06371 0.0
C378 C 0.23847 0.01676 0.98598 0.0
C379 C 0.29246 0.07816 0.24466 0.0
C380 C 0.28704 0.08001 0.30313 0.0
C381 C 0.26847 0.07812 0.31714 0.0
C382 C 0.25597 0.07228 0.27503 0.0
C383 C 0.26221 0.0678 0.21892 0.0
C384 C 0.27992 0.07179 0.20341 0.0
C385 C 0.28425 0.0659 0.14211 0.0
C386 C 0.26665 0.05597 0.12594 0.0
C387 C 0.25401 0.05697 0.17142 0.0
C388 C 0.30082 0.05294 0.14394 0.0
C389 C 0.28767 0.08311 0.10439 0.0
C390 C 0.19516 0.02442 0.2162 0.0
C391 C 0.18497 0.01071 0.18939 0.0
C392 C 0.19159 1.00307 0.13699 0.0
C393 C 0.20837 0.00897 0.11264 0.0
C394 C 0.21841 0.02286 0.14044 0.0
C395 C 0.2115 0.03029 0.19126 0.0
C396 C 0.22362 0.0445 0.21688 0.0
C397 C 0.23847 0.0455 0.17129 0.0
C398 C 0.23581 0.03259 0.12656 0.0
C399 C 0.23064 0.03732 0.27669 0.0
C400 C 0.21287 0.06259 0.22027 0.0
H401 H 0.29165 0.06324 0.01342 0.0
H402 H 0.27943 0.99936 0.95589 0.0
H403 H 0.22436 0.0167 1.00226 0.0
H404 H 0.24032 1.00502 0.95611 0.0
H405 H 0.23992 0.02945 0.95994 0.0
H406 H 0.26565 0.99734 0.09622 0.0
H407 H 0.25749 0.98687 0.0303 0.0
H408 H 0.24183 0.99326 0.08654 0.0
H409 H 0.30661 0.07976 0.23253 0.0
H410 H 0.26387 0.07994 0.36158 0.0
H411 H 0.24216 0.07043 0.2888 0.0
H412 H 0.29812 0.04136 0.17393 0.0
H413 H 0.31315 0.06027 0.1589 0.0
H414 H 0.30437 0.04721 0.10122 0.0
H415 H 0.28726 0.09588 0.1303 0.0
H416 H 0.27718 0.0846 0.06986 0.0
H417 H 0.30132 0.08279 0.08353 0.0
H418 H 0.31186 0.04848 0.94463 0.0
C419 C 0.28924 0.04924 1.00326 0.0
C420 C 0.50438 0.27372 0.0551 0.0
C421 C 0.50584 0.29297 0.05702 0.0
C422 C 0.50849 0.30151 0.11096 0.0
C423 C 0.5065 0.27263 0.16086 0.0
C424 C 0.50478 0.26373 0.10816 0.0
C425 C 0.50341 0.24321 0.11753 0.0
H426 H 0.4922 0.17479 0.3211 0.0
C427 C 0.50496 0.25926 0.20841 0.0
C428 C 0.50305 0.24176 0.18424 0.0
H429 H 0.50033 0.16645 0.13719 0.0
H430 H 0.50233 0.19955 0.12241 0.0
H431 H 0.52339 0.2011 0.33437 0.0
H432 H 0.46592 0.20908 0.31323 0.0
H433 H 0.47294 0.22523 0.36479 0.0
H434 H 0.47592 0.20134 0.38004 0.0
H435 H 0.50764 0.1982 0.39335 0.0
H436 H 0.51821 0.21985 0.37817 0.0
C437 C 0.52061 0.23435 0.09167 0.0
C438 C 0.48569 0.23607 0.08991 0.0
C439 C 0.5051 0.2827 0.41576 0.0
C440 C 0.50256 0.27438 0.47037 0.0
C441 C 0.49869 0.25564 0.4727 0.0
C442 C 0.49756 0.24537 0.42137 0.0
C443 C 0.50044 0.25392 0.36713 0.0
C444 C 0.50387 0.27232 0.36523 0.0
C445 C 0.50618 0.27932 0.3043 0.0
C446 C 0.50401 0.26192 0.2695 0.0
C447 C 0.50083 0.24718 0.30643 0.0
C448 C 0.52574 0.28723 0.29877 0.0
C449 C 0.49058 0.29311 0.29237 0.0
C450 C 0.49417 0.18 0.27733 0.0
C451 C 0.49578 0.1681 0.23034 0.0
C452 C 0.49893 0.17544 0.17423 0.0
C453 C 0.50014 0.19457 0.16582 0.0
C454 C 0.49862 0.20631 0.21423 0.0
C455 C 0.49584 0.19866 0.2687 0.0
C456 C 0.49587 0.21223 0.31674 0.0
C457 C 0.49912 0.22951 0.28312 0.0
C458 C 0.50047 0.22644 0.22251 0.0
C459 C 0.51197 0.20767 0.35826 0.0
C460 C 0.47677 0.21198 0.34578 0.0
H461 H 0.5107 0.29917 0.20159 0.0
H462 H 0.50257 0.26679 0.01394 0.0
H463 H 0.47381 0.24396 0.10605 0.0
H464 H 0.48318 0.22165 0.10072 0.0
H465 H 0.48618 0.23737 0.04172 0.0
H466 H 0.53304 0.24171 0.10627 0.0
H467 H 0.52023 0.23475 0.0433 0.0
H468 H 0.52227 0.22011 0.10572 0.0
H469 H 0.50851 0.29699 0.41211 0.0
H470 H 0.49659 0.24891 0.51416 0.0
H471 H 0.49469 0.23114 0.4261 0.0
H472 H 0.53553 0.2794 0.3259 0.0
H473 H 0.52627 0.30161 0.31344 0.0
H474 H 0.53126 0.28632 0.25407 0.0
H475 H 0.4851 0.2921 0.24761 0.0
H476 H 0.49508 0.30731 0.30049 0.0
H477 H 0.47855 0.29052 0.32074 0.0
H478 H 0.50992 0.31618 0.11343 0.0
C479 C 0.50886 0.29155 0.16239 0.0
Tb480 Tb 0.02341 0.9938 0.70815 0.0
Tb481 Tb 0.99855 1.00554 0.60941 0.0
C482 C 0.03329 0.98041 0.8031 0.0
C483 C 0.04437 0.96451 0.8169 0.0
C484 C 0.04576 0.9584 0.87443 0.0
C485 C 0.05367 0.94153 0.88623 0.0
C486 C 0.06013 0.93058 0.84044 0.0
C487 C 0.05986 0.93745 0.78328 0.0
C488 C 0.05201 0.95429 0.77161 0.0
C489 C 0.04355 0.9979 0.61248 0.0
C490 C 0.0113 0.96527 0.61001 0.0
C491 C 0.98228 0.02309 0.5326 0.0
C492 C 0.97141 0.03955 0.54336 0.0
C493 C 0.97441 0.05517 0.50986 0.0
C494 C 0.96791 0.072 0.52889 0.0
C495 C 0.9583 0.07346 0.58185 0.0
C496 C 0.95417 0.05756 0.61302 0.0
C497 C 0.96072 0.04078 0.59415 0.0
C498 C 0.98195 0.99367 0.70492 0.0
C499 C 0.0139 0.03559 0.69942 0.0
O500 O 0.01763 0.97661 0.77828 0.0
O501 O 0.04194 0.99382 0.77737 0.0
O502 O 0.02664 1.00034 0.61821 0.0
O503 O 0.04977 0.99322 0.66305 0.0
O504 O 0.01652 0.96782 0.66489 0.0
O505 O 1.00604 0.97891 0.5763 0.0
O506 O 0.99975 0.02501 0.54254 0.0
O507 O 0.97579 1.00801 0.55483 0.0
O508 O 0.99602 1.00348 0.7022 0.0
O509 O 0.97639 0.99076 0.65233 0.0
O510 O 1.00388 0.03181 0.65285 0.0
O511 O 0.02243 0.0227 0.72887 0.0
H512 H 0.03992 0.96621 0.90978 0.0
H513 H 0.05379 0.93658 0.93068 0.0
H514 H 0.06439 0.92925 0.74691 0.0
H515 H 0.05095 0.95884 0.72684 0.0
H516 H 0.98286 0.05458 0.4712 0.0
H517 H 0.97161 0.08401 0.5042 0.0
H518 H 0.94668 0.05822 0.65358 0.0
H519 H 0.95839 0.02898 0.62146 0.0
Tb520 Tb 0.51786 1.00454 0.72316 0.0
Tb521 Tb 0.5083 0.97932 0.63403 0.0
C522 C 0.53367 0.02237 0.80067 0.0
C523 C 0.54885 0.03503 0.79162 0.0
C524 C 0.56142 0.03835 0.83604 0.0
C525 C 0.57686 0.04894 0.82491 0.0
C526 C 0.57993 0.05639 0.76911 0.0
C527 C 0.5671 0.05321 0.72497 0.0
C528 C 0.55175 0.04256 0.73607 0.0
C529 C 0.50616 0.02078 0.62663 0.0
C530 C 0.54898 0.99052 0.63527 0.0
C531 C 0.49099 0.96543 0.55187 0.0
C532 C 0.47553 0.97454 0.52358 0.0
C533 C 0.47674 0.99328 0.51218 0.0
C534 C 0.46124 1.00333 0.49978 0.0
C535 C 0.4441 0.99488 0.49744 0.0
C536 C 0.44296 0.97592 0.50598 0.0
C537 C 0.45857 0.96585 0.51932 0.0
C538 C 0.52051 0.96303 0.72948 0.0
C539 C 0.4779 0.99502 0.71736 0.0
O540 O 0.53749 1.00535 0.78956 0.0
O541 O 0.51821 0.0274 0.77756 0.0
O542 O 0.51644 1.00717 0.6298 0.0
O543 O 0.50275 0.02624 0.67888 0.0
O544 O 0.54488 0.99863 0.68499 0.0
O545 O 0.53615 0.98273 0.6037 0.0
O546 O 0.50681 0.97333 0.54483 0.0
O547 O 0.48813 0.96094 0.60616 0.0
O548 O 0.51004 0.97659 0.72738 0.0
O549 O 0.52351 0.95754 0.67681 0.0
O550 O 0.48224 0.99178 0.6624 0.0
O551 O 0.49108 0.99709 0.75566 0.0
H552 H 0.55956 0.03236 0.87877 0.0
H553 H 0.58668 0.05078 0.85958 0.0
H554 H 0.56898 0.05882 0.68174 0.0
H555 H 0.5423 0.0399 0.70083 0.0
H556 H 0.48953 1.00049 0.51625 0.0
H557 H 0.46269 0.01791 0.49481 0.0
H558 H 0.42998 0.96894 0.5037 0.0
H559 H 0.45728 0.95148 0.52899 0.0
Tb560 Tb 0.49705 0.50461 0.75321 0.0
Tb561 Tb 0.52418 0.49438 0.67129 0.0
C562 C 0.47893 0.52181 0.82764 0.0
C563 C 0.47051 0.54001 0.82722 0.0
C564 C 0.48074 0.55566 0.81387 0.0
C565 C 0.47233 0.57265 0.81086 0.0
C566 C 0.45351 0.57435 0.8209 0.0
C567 C 0.44332 0.55865 0.83413 0.0
C568 C 0.45176 0.54167 0.8374 0.0
C569 C 0.48286 0.49022 0.65765 0.0
C570 C 0.51106 0.5338 0.65887 0.0
C571 C 0.54409 0.47785 0.60026 0.0
C572 C 0.55504 0.46139 0.60909 0.0
C573 C 0.55474 0.44768 0.56698 0.0
C574 C 0.56153 0.43045 0.58008 0.0
C575 C 0.56879 0.42666 0.63562 0.0
C576 C 0.57043 0.44091 0.67599 0.0
C577 C 0.56348 0.45809 0.66304 0.0
C578 C 0.53786 0.50823 0.76888 0.0
C579 C 0.50912 0.46456 0.76247 0.0
O580 O 0.49674 0.5212 0.8274 0.0
O581 O 0.47174 0.51002 0.79186 0.0
O582 O 0.49606 0.50128 0.65974 0.0
O583 O 0.47726 0.48715 0.71018 0.0
O584 O 0.50349 0.53089 0.71042 0.0
O585 O 0.51822 0.52018 0.62965 0.0
O586 O 0.52647 0.47533 0.60368 0.0
O587 O 0.54936 0.49226 0.62888 0.0
O588 O 0.52489 0.49708 0.76464 0.0
O589 O 0.54366 0.51181 0.71706 0.0
O590 O 0.51763 0.46786 0.7126 0.0
O591 O 0.50144 0.47796 0.79158 0.0
H592 H 0.49523 0.55482 0.80544 0.0
H593 H 0.48064 0.58448 0.80148 0.0
H594 H 0.42878 0.55943 0.8414 0.0
H595 H 0.44359 0.52977 0.84725 0.0
H596 H 0.54813 0.44992 0.52542 0.0
H597 H 0.55968 0.41976 0.54821 0.0
H598 H 0.57604 0.43849 0.71891 0.0
H599 H 0.56372 0.46845 0.69656 0.0
Tb600 Tb 1.00875 0.47995 0.73457 0.0
Tb601 Tb 0.01856 0.50754 0.65281 0.0
C602 C 0.9923 0.46023 0.80649 0.0
C603 C 0.97507 0.45023 0.7989 0.0
C604 C 0.96053 0.45374 0.83667 0.0
C605 C 0.94296 0.448 0.82241 0.0
C606 C 0.93963 0.43851 0.77018 0.0
C607 C 0.9545 0.43369 0.73493 0.0
C608 C 0.97203 0.4396 0.7489 0.0
C609 C 0.02141 0.46662 0.6351 0.0
C610 C 0.97833 0.49566 0.64696 0.0
C611 C 0.03409 0.52658 0.57645 0.0
C612 C 0.05174 0.53601 0.57218 0.0
C613 C 0.06804 0.52726 0.5874 0.0
C614 C 0.08464 0.53643 0.58302 0.0
C615 C 0.08528 0.55449 0.56291 0.0
C616 C 0.06891 0.56331 0.54864 0.0
C617 C 0.05229 0.55413 0.55326 0.0
C618 C 1.00557 0.52073 0.75217 0.0
C619 C 0.04877 0.4926 0.74203 0.0
O620 O 0.99075 0.47795 0.80531 0.0
O621 O 1.00611 0.45458 0.77557 0.0
O622 O 0.0106 0.4798 0.64086 0.0
O623 O 0.02526 0.46043 0.68625 0.0
O624 O 0.98183 0.48746 0.69721 0.0
O625 O 0.99175 0.50272 0.61625 0.0
O626 O 0.03448 0.50878 0.57717 0.0
O627 O 0.02271 0.53317 0.61464 0.0
O628 O 0.01649 0.50766 0.74644 0.0
O629 O 1.00189 0.52707 0.70096 0.0
O630 O 0.04535 0.50043 0.69114 0.0
O631 O 0.03531 0.48547 0.77266 0.0
H632 H 0.96254 0.46202 0.87516 0.0
H633 H 0.93187 0.45224 0.85031 0.0
H634 H 0.95247 0.42616 0.69494 0.0
H635 H 0.98298 0.43672 0.71868 0.0
H636 H 0.06801 0.51328 0.60223 0.0
H637 H 0.097 0.52933 0.59496 0.0
H638 H 0.06897 0.57713 0.53223 0.0
H639 H 0.03985 0.56113 0.54143 0.0
H640 H 0.18174 0.99601 0.29714 0.0
H641 H 0.15399 0.99151 0.35413 0.0
H642 H 0.12165 0.00841 0.20708 0.0
H643 H 0.1497 0.01296 0.14964 0.0
H644 H 0.11116 0.02599 0.30662 0.0
H645 H 0.12018 0.96437 0.25235 0.0
H646 H 0.13708 0.93584 0.23693 0.0
H647 H 0.14851 0.93255 0.41999 0.0
H648 H 0.1319 0.9612 0.43646 0.0
H649 H 0.03383 1.0068 0.49867 0.0
H650 H 0.054 1.00693 0.41238 0.0
H651 H 0.09909 0.99054 0.52052 0.0
H652 H 0.07932 0.99039 0.60533 0.0
H653 H 0.09827 0.97064 0.42323 0.0
H654 H 0.09374 0.03465 0.47343 0.0
H655 H 0.07717 0.06335 0.48959 0.0
H656 H 0.0572 0.06183 0.31392 0.0
H657 H 0.07348 0.03297 0.29699 0.0
C658 C 0.16869 0.99829 0.27644 0.0
C659 C 0.16789 1.00458 0.21865 0.0
C660 C 0.15279 0.99576 0.30912 0.0
C661 C 0.13559 0.9995 0.28506 0.0
C662 C 0.1347 1.00537 0.22671 0.0
C663 C 0.1507 1.00776 0.19366 0.0
C664 C 0.11889 0.99817 0.32251 0.0
C665 C 0.10809 0.01373 0.33107 0.0
C666 C 0.11487 0.98229 0.35517 0.0
C667 C 0.12486 0.96501 0.34557 0.0
C668 C 0.1264 0.95764 0.28928 0.0
C669 C 0.13592 0.94143 0.28036 0.0
C670 C 0.14389 0.93241 0.32743 0.0
C671 C 0.14233 0.93956 0.38356 0.0
C672 C 0.13284 0.95577 0.39272 0.0
C673 C 0.04806 1.00331 0.50374 0.0
C674 C 0.05496 0.99864 0.5589 0.0
C675 C 0.05959 1.00338 0.45449 0.0
C676 C 0.07816 0.99873 0.45971 0.0
C677 C 0.08487 0.99406 0.5149 0.0
C678 C 0.0735 0.99408 0.56362 0.0
C679 C 0.09098 0.99862 0.40883 0.0
C680 C 0.10109 0.98277 0.39781 0.0
C681 C 0.09434 0.01421 0.37407 0.0
C682 C 0.08462 0.03155 0.38419 0.0
C683 C 0.08569 0.04036 0.43842 0.0
C684 C 0.07638 0.05667 0.44769 0.0
C685 C 0.06609 0.06438 0.40288 0.0
C686 C 0.06514 0.05582 0.34864 0.0
C687 C 0.07441 0.0395 0.33917 0.0
H688 H 0.05889 0.07701 0.41013 0.0
H689 H 0.15125 0.91986 0.32043 0.0
H690 H 0.5224 0.1422 0.21781 0.0
H691 H 0.52385 0.11315 0.27126 0.0
H692 H 0.469 0.12134 0.3325 0.0
H693 H 0.46741 0.14998 0.27863 0.0
H694 H 0.49765 0.11885 0.42128 0.0
H695 H 0.47478 0.08771 0.25021 0.0
H696 H 0.47573 0.07839 0.14715 0.0
H697 H 0.52769 0.0531 0.17456 0.0
H698 H 0.52717 0.06251 0.27767 0.0
H699 H 0.48019 0.04631 0.60813 0.0
H700 H 0.47788 0.0678 0.52716 0.0
H701 H 0.52552 0.04407 0.44791 0.0
H702 H 0.5273 0.0219 0.52791 0.0
H703 H 0.50321 0.05402 0.36462 0.0
H704 H 0.5279 0.08398 0.52955 0.0
H705 H 0.53001 0.0937 0.63205 0.0
H706 H 0.47937 0.12236 0.61576 0.0
H707 H 0.47681 0.11257 0.51334 0.0
C708 C 0.51037 0.13731 0.24028 0.0
C709 C 0.49474 0.14829 0.24367 0.0
C710 C 0.51126 0.12081 0.27133 0.0
C711 C 0.49658 0.11514 0.30639 0.0
C712 C 0.4805 0.12542 0.30593 0.0
C713 C 0.47955 0.14172 0.27466 0.0
C714 C 0.49859 0.10009 0.34954 0.0
C715 C 0.49864 0.10464 0.40887 0.0
C716 C 0.50073 0.08165 0.33341 0.0
C717 C 0.50104 0.07601 0.27148 0.0
C718 C 0.4865 0.08034 0.23413 0.0
C719 C 0.48694 0.07499 0.17573 0.0
C720 C 0.50179 0.06521 0.15427 0.0
C721 C 0.51621 0.06071 0.19121 0.0
C722 C 0.51584 0.06603 0.24964 0.0
C723 C 0.49005 0.04557 0.57311 0.0
C724 C 0.50403 0.03259 0.57467 0.0
C725 C 0.48879 0.05792 0.52688 0.0
C726 C 0.50182 0.05799 0.48186 0.0
C727 C 0.51535 0.04445 0.48206 0.0
C728 C 0.5164 0.03181 0.52791 0.0
C729 C 0.50172 0.07273 0.43669 0.0
C730 C 0.50222 0.0682 0.37713 0.0
C731 C 0.50055 0.09135 0.45243 0.0
C732 C 0.50208 0.09741 0.5139 0.0
C733 C 0.51715 0.09226 0.54792 0.0
C734 C 0.51844 0.09779 0.606 0.0
C735 C 0.50481 0.10861 0.63043 0.0
C736 C 0.4899 0.11396 0.59678 0.0
C737 C 0.48853 0.10844 0.5387 0.0
H738 H 0.50583 0.11288 0.67541 0.0
H739 H 0.5021 0.06108 0.10905 0.0
H740 H 0.33944 0.48344 0.33043 0.0
H741 H 0.36603 0.47419 0.38824 0.0
H742 H 0.39889 0.51425 0.29958 0.0
H743 H 0.37244 0.52333 0.24174 0.0
H744 H 0.41935 0.48449 0.3273 0.0
H745 H 0.37769 0.52485 0.42434 0.0
H746 H 0.3477 0.53437 0.46166 0.0
H747 H 0.34562 0.48717 0.57176 0.0
H748 H 0.37549 0.4772 0.53428 0.0
H749 H 0.48464 0.50688 0.55019 0.0
H750 H 0.46152 0.50613 0.47297 0.0
H751 H 0.42976 0.46804 0.57386 0.0
H752 H 0.45263 0.46895 0.65107 0.0
H753 H 0.40879 0.49464 0.53814 0.0
H754 H 0.45229 0.45567 0.44613 0.0
H755 H 0.48241 0.4468 0.40821 0.0
H756 H 0.48155 0.4919 0.28932 0.0
H757 H 0.45152 0.5012 0.32711 0.0
C758 C 0.35253 0.4897 0.32164 0.0
C759 C 0.3539 0.50403 0.28139 0.0
C760 C 0.36769 0.48457 0.35516 0.0
C761 C 0.38446 0.49375 0.34917 0.0
C762 C 0.38618 0.50696 0.30527 0.0
C763 C 0.37105 0.51211 0.27203 0.0
C764 C 0.39946 0.49128 0.39261 0.0
C765 C 0.41707 0.48677 0.37339 0.0
C766 C 0.39656 0.49411 0.45295 0.0
C767 C 0.37871 0.50018 0.47604 0.0
C768 C 0.37077 0.51644 0.45621 0.0
C769 C 0.3538 0.52192 0.4774 0.0
C770 C 0.34474 0.51136 0.51895 0.0
C771 C 0.35265 0.49531 0.53949 0.0
C772 C 0.36959 0.48974 0.51828 0.0
C773 C 0.47288 0.49811 0.55536 0.0
C774 C 0.47045 0.48802 0.60688 0.0
C775 C 0.45965 0.49766 0.51111 0.0
C776 C 0.44379 0.48699 0.51726 0.0
C777 C 0.44175 0.47644 0.56791 0.0
C778 C 0.4549 0.47692 0.61203 0.0
C779 C 0.42876 0.48768 0.47314 0.0
C780 C 0.41111 0.49206 0.49223 0.0
C781 C 0.4317 0.4848 0.41279 0.0
C782 C 0.44973 0.47923 0.38985 0.0
C783 C 0.45858 0.46378 0.41222 0.0
C784 C 0.47563 0.45866 0.39069 0.0
C785 C 0.48391 0.46881 0.34649 0.0
C786 C 0.47513 0.48407 0.32361 0.0
C787 C 0.45809 0.48926 0.34503 0.0
H788 H 0.4971 0.46482 0.32987 0.0
H789 H 0.3316 0.51562 0.53533 0.0
H790 H 0.03951 0.33273 0.2752 0.0
H791 H 0.04486 0.36086 0.33022 0.0
H792 H 0.99019 0.37847 0.29232 0.0
H793 H 0.98473 0.35024 0.23813 0.0
H794 H 0.01749 0.40789 0.29617 0.0
H795 H 0.99498 0.3568 0.40867 0.0
H796 H 0.99597 0.32496 0.44219 0.0
H797 H 0.04906 0.3339 0.51519 0.0
H798 H 0.04854 0.36573 0.48094 0.0
H799 H 0.99952 0.46669 0.53804 0.0
H800 H 0.99945 0.44453 0.45841 0.0
H801 H 0.04646 0.41826 0.5333 0.0
H802 H 0.04596 0.43986 0.61416 0.0
H803 H 0.02426 0.39357 0.50622 0.0
H804 H 0.04686 0.44492 0.40033 0.0
H805 H 0.04717 0.47648 0.36391 0.0
H806 H 0.99611 0.4675 0.27747 0.0
H807 H 0.99536 0.43595 0.31403 0.0
C808 C 0.02891 0.34295 0.27655 0.0
C809 C 0.01175 0.33935 0.25206 0.0
C810 C 0.03192 0.35896 0.30841 0.0
C811 C 0.01787 0.37172 0.31589 0.0
C812 C 1.00125 0.36888 0.28705 0.0
C813 C 0.99815 0.35277 0.25595 0.0
C814 C 0.01956 0.38656 0.35992 0.0
C815 C 0.01888 0.40483 0.34217 0.0
C816 C 0.02166 0.38258 0.41987 0.0
C817 C 0.0218 0.36358 0.44168 0.0
C818 C 1.00692 0.35194 0.43147 0.0
C819 C 1.00739 0.3339 0.45062 0.0
C820 C 0.02259 0.3274 0.48069 0.0
C821 C 0.03731 0.33895 0.49181 0.0
C822 C 0.03694 0.35699 0.47252 0.0
C823 C 0.01 0.45635 0.53691 0.0
C824 C 0.02276 0.45502 0.58234 0.0
C825 C 0.01001 0.44368 0.49115 0.0
C826 C 0.02306 0.42965 0.48905 0.0
C827 C 0.03618 0.4288 0.53361 0.0
C828 C 0.03596 0.44124 0.57977 0.0
C829 C 0.02243 0.41519 0.4429 0.0
C830 C 0.02313 0.39685 0.4603 0.0
C831 C 0.02054 0.41918 0.38265 0.0
C832 C 0.02098 0.43812 0.36037 0.0
C833 C 0.03563 0.44972 0.37389 0.0
C834 C 0.0359 0.4676 0.35317 0.0
C835 C 0.02165 0.47401 0.31852 0.0
C836 C 1.00713 0.46253 0.30438 0.0
C837 C 1.00678 0.44464 0.32503 0.0
H838 H 0.02188 0.48786 0.30253 0.0
H839 H 0.02293 0.31342 0.49548 0.0
H840 H 0.83938 0.98882 0.02707 0.0
H841 H 0.86664 0.98138 0.97017 0.0
H842 H 0.89816 0.01875 0.07424 0.0
H843 H 0.87081 0.02644 0.12999 0.0
H844 H 0.90335 0.02631 0.9653 0.0
H845 H 0.90526 0.97108 0.07499 0.0
H846 H 0.89339 0.9426 0.11738 0.0
H847 H 0.88229 0.92199 0.94612 0.0
H848 H 0.89388 0.95045 0.90268 0.0
H849 H 0.98603 0.00909 0.81329 0.0
H850 H 0.96364 0.00953 0.89285 0.0
H851 H 0.92747 0.97593 0.79121 0.0
H852 H 0.9498 0.97533 0.71212 0.0
H853 H 0.9264 0.96589 0.9046 0.0
H854 H 0.92195 0.02188 0.79627 0.0
H855 H 0.93403 0.05011 0.75279 0.0
H856 H 0.94992 0.06912 0.92207 0.0
H857 H 0.93811 0.04087 0.96653 0.0
C858 C 0.8523 0.99483 0.03932 0.0
C859 C 0.85301 1.00799 0.08358 0.0
C860 C 0.86791 0.99068 0.00647 0.0
C861 C 0.88462 0.9995 0.01755 0.0
C862 C 0.88552 0.01178 0.06437 0.0
C863 C 0.86992 0.016 0.09683 0.0
C864 C 0.90059 0.99734 0.97723 0.0
C865 C 0.90858 0.01306 0.95312 0.0
C866 C 0.90727 0.98011 0.95966 0.0
C867 C 0.90029 0.96297 0.98561 0.0
C868 C 0.90016 0.96053 0.04637 0.0
C869 C 0.8935 0.94438 0.07059 0.0
C870 C 0.88705 0.93051 0.03447 0.0
C871 C 0.88728 0.93275 0.97404 0.0
C872 C 0.89391 0.94888 0.9496 0.0
C873 C 0.97341 1.00158 0.80833 0.0
C874 C 0.96964 0.99228 0.75623 0.0
C875 C 0.96057 1.00191 0.85373 0.0
C876 C 0.94368 0.99297 0.84792 0.0
C877 C 0.94032 0.98296 0.79695 0.0
C878 C 0.95311 0.98268 0.75161 0.0
C879 C 0.92906 0.99483 0.89309 0.0
C880 C 0.92127 0.9791 0.91764 0.0
C881 C 0.92252 0.01204 0.91111 0.0
C882 C 0.92933 0.02918 0.88465 0.0
C883 C 0.92812 0.03203 0.82418 0.0
C884 C 0.93492 0.04804 0.79936 0.0
C885 C 0.94281 0.06137 0.8346 0.0
C886 C 0.94384 0.05876 0.89481 0.0
C887 C 0.93708 0.04276 0.91986 0.0
H888 H 0.94809 0.07374 0.81526 0.0
H889 H 0.8819 0.91802 0.05331 0.0
H890 H 0.53366 0.82471 0.0665 0.0
H891 H 0.53924 0.85149 0.00536 0.0
H892 H 0.50131 0.88234 0.10933 0.0
H893 H 0.4953 0.8553 0.16887 0.0
H894 H 0.49289 0.88675 1.0028 0.0
H895 H 0.54936 0.89125 0.10401 0.0
H896 H 0.57867 0.88084 0.14423 0.0
H897 H 0.59768 0.86839 0.97199 0.0
H898 H 0.56838 0.87849 0.93076 0.0
H899 H 0.50675 0.96785 0.83954 0.0
H900 H 0.50788 0.94639 0.92137 0.0
H901 H 0.53997 0.90952 0.81769 0.0
H902 H 0.53902 0.93099 0.73615 0.0
H903 H 0.55203 0.91026 0.93007 0.0
H904 H 0.49408 0.90373 0.8318 0.0
H905 H 0.46495 0.91509 0.79281 0.0
H906 H 0.44902 0.9324 0.96393 0.0
H907 H 0.47819 0.92136 1.0038 0.0
C908 C 0.52707 0.83742 0.0775 0.0
C909 C 0.51435 0.83807 0.1231 0.0
C910 C 0.5302 0.85276 0.0424 0.0
C911 C 0.52079 0.86914 0.05258 0.0
C912 C 0.50876 0.86996 0.10023 0.0
C913 C 0.50549 0.85458 0.1348 0.0
C914 C 0.52209 0.88473 0.01055 0.0
C915 C 0.50588 0.89209 0.98801 0.0
C916 C 0.53896 0.8916 0.98974 0.0
C917 C 0.5566 0.88549 0.01434 0.0
C918 C 0.55973 0.88616 0.07473 0.0
C919 C 0.57636 0.88034 0.09771 0.0
C920 C 0.59001 0.87392 0.0607 0.0
C921 C 0.58709 0.87335 1.00061 0.0
C922 C 0.57048 0.87914 0.97741 0.0
C923 C 0.51422 0.95526 0.83446 0.0
C924 C 0.52265 0.95104 0.78117 0.0
C925 C 0.51481 0.94296 0.88121 0.0
C926 C 0.5238 0.92616 0.8756 0.0
C927 C 0.53292 0.92233 0.82323 0.0
C928 C 0.53231 0.9346 0.77652 0.0
C929 C 0.52288 0.91212 0.92272 0.0
C930 C 0.53911 0.90501 0.94576 0.0
C931 C 0.50604 0.90554 0.94442 0.0
C932 C 0.48838 0.91189 0.92066 0.0
C933 C 0.4844 0.91005 0.86104 0.0
C934 C 0.46789 0.91643 0.83879 0.0
C935 C 0.45516 0.92451 0.87584 0.0
C936 C 0.4589 0.92617 0.93527 0.0
C937 C 0.47541 0.91984 0.95772 0.0
H938 H 0.44239 0.92946 0.85851 0.0
H939 H 0.60288 0.86942 0.07858 0.0
H940 H 0.66419 0.49368 0.16607 0.0
H941 H 0.63383 0.49169 0.12125 0.0
H942 H 0.64248 0.54379 0.03902 0.0
H943 H 0.67228 0.54603 0.08519 0.0
H944 H 0.60835 0.5411 0.06211 0.0
H945 H 0.65233 0.50157 0.97172 0.0
H946 H 0.67468 0.47661 0.96819 0.0
H947 H 0.63342 0.43863 0.0218 0.0
H948 H 0.61089 0.46346 0.02652 0.0
H949 H 0.56415 0.53365 0.78691 0.0
H950 H 0.58582 0.53552 0.86782 0.0
H951 H 0.56061 0.48882 0.94825 0.0
H952 H 0.53859 0.48713 0.8677 0.0
H953 H 0.59954 0.48663 0.93791 0.0
H954 H 0.55449 0.52763 0.01116 0.0
H955 H 0.5333 0.55354 0.00583 0.0
H956 H 0.5781 0.5899 0.97469 0.0
H957 H 0.59955 0.56416 0.97894 0.0
C958 C 0.65928 0.50498 0.14022 0.0
C959 C 0.67066 0.51997 0.12898 0.0
C960 C 0.64202 0.50373 0.11382 0.0
C961 C 0.63594 0.51736 0.07522 0.0
C962 C 0.64674 0.533 0.0681 0.0
C963 C 0.66384 0.53428 0.09462 0.0
C964 C 0.61925 0.51495 0.03831 0.0
C965 C 0.60649 0.52918 0.03499 0.0
C966 C 0.61649 0.49932 1.00309 0.0
C967 C 0.63 0.4844 1.00027 0.0
C968 C 0.64807 0.48792 0.98322 0.0
C969 C 0.66076 0.4738 0.98095 0.0
C970 C 0.65549 0.45605 0.99497 0.0
C971 C 0.6375 0.45239 0.01113 0.0
C972 C 0.62476 0.46648 0.01365 0.0
C973 C 0.56304 0.52395 0.8223 0.0
C974 C 0.54963 0.5103 0.82106 0.0
C975 C 0.57544 0.52503 0.86855 0.0
C976 C 0.57485 0.51234 0.91432 0.0
C977 C 0.56132 0.49878 0.91354 0.0
C978 C 0.54868 0.4979 0.86768 0.0
C979 C 0.58893 0.51288 0.96124 0.0
C980 C 0.60122 0.49836 0.96606 0.0
C981 C 0.59146 0.52838 0.99692 0.0
C982 C 0.57862 0.54393 0.99499 0.0
C983 C 0.55982 0.54113 1.00277 0.0
C984 C 0.54776 0.55579 1.0 0.0
C985 C 0.55434 0.57335 0.98983 0.0
C986 C 0.57301 0.57629 0.98255 0.0
C987 C 0.58513 0.56167 0.98521 0.0
H988 H 0.54498 0.58468 0.98767 0.0
H989 H 0.66533 0.44513 0.99314 0.0
H990 H 0.98707 0.65449 0.09851 0.0
H991 H 0.98268 0.62613 0.0451 0.0
H992 H 0.03226 0.6049 0.11951 0.0
H993 H 0.03707 0.63381 0.17036 0.0
H994 H 0.03429 0.60001 0.01218 0.0
H995 H 0.98672 0.58637 0.14561 0.0
H996 H 0.95905 0.59149 0.20418 0.0
H997 H 0.92783 0.59927 0.04811 0.0
H998 H 0.95536 0.59445 0.98857 0.0
H999 H 0.02395 0.51691 0.85546 0.0
H1000 H 0.02367 0.53774 0.93895 0.0
H1001 H 0.98319 0.57068 0.85342 0.0
H1002 H 0.98351 0.54999 0.76976 0.0
H1003 H 0.97677 0.56659 0.97449 0.0
H1004 H 0.02636 0.58279 0.84416 0.0
H1005 H 0.05424 0.57609 0.78823 0.0
H1006 H 0.08197 0.56144 0.946 0.0
H1007 H 0.05414 0.56781 1.00279 0.0
C1008 C 0.99656 0.64344 0.10553 0.0
C1009 C 0.01219 0.6462 0.13965 0.0
C1010 C 0.99411 0.62717 0.07466 0.0
C1011 C 1.00707 0.6131 0.07808 0.0
C1012 C 0.02204 0.61544 0.11567 0.0
C1013 C 0.02466 0.63186 0.14563 0.0
C1014 C 1.00613 0.59707 0.03764 0.0
C1015 C 0.02175 0.59249 0.00527 0.0
C1016 C 0.98977 0.58728 0.02701 0.0
C1017 C 0.97316 0.59018 0.06262 0.0
C1018 C 0.97398 0.58931 0.12376 0.0
C1019 C 0.95832 0.59213 0.15715 0.0
C1020 C 0.9417 0.59574 0.12989 0.0
C1021 C 0.94071 0.59648 0.06917 0.0
C1022 C 0.95634 0.59368 0.03557 0.0
C1023 C 0.01479 0.52845 0.85484 0.0
C1024 C 1.00383 0.53189 0.80583 0.0
C1025 C 0.01469 0.54037 0.90253 0.0
C1026 C 1.00352 0.55591 0.90236 0.0
C1027 C 0.99191 0.55882 0.85468 0.0
C1028 C 0.99215 0.54701 0.80678 0.0
C1029 C 1.00483 0.56979 0.94966 0.0
C1030 C 0.9893 0.574 0.98268 0.0
C1031 C 0.02131 0.57908 0.96162 0.0
C1032 C 0.03813 0.57559 0.92762 0.0
C1033 C 0.03837 0.57803 0.86687 0.0
C1034 C 0.05416 0.57431 0.83502 0.0
C1035 C 0.06985 0.56829 0.86352 0.0
C1036 C 0.06979 0.56607 0.92397 0.0
C1037 C 0.05402 0.56974 0.95601 0.0
H1038 H 0.08205 0.5654 0.83879 0.0
H1039 H 0.92959 0.59792 0.15582 0.0
H1040 H 1.00283 0.22782 0.52943 0.0
H1041 H 0.99169 0.2131 0.61828 0.0
H1042 H 1.004 0.16065 0.54477 0.0
H1043 H 0.01352 0.17472 0.45525 0.0
H1044 H 0.96164 0.18865 0.613 0.0
H1045 H 0.02142 0.13757 0.62745 0.0
H1046 H 0.0545 0.13899 0.64623 0.0
H1047 H 0.04713 0.18703 0.74952 0.0
H1048 H 0.01414 0.18639 0.72913 0.0
H1049 H 0.94701 0.10449 0.52714 0.0
H1050 H 0.95082 0.13531 0.56279 0.0
H1051 H 0.96585 0.11463 0.73204 0.0
H1052 H 0.96272 0.08364 0.69579 0.0
H1053 H 0.99217 0.13408 0.69359 0.0
H1054 H 0.93231 0.14863 0.72403 0.0
H1055 H 0.89892 0.1491 0.71376 0.0
H1056 H 0.904 0.17611 0.54869 0.0
H1057 H 0.9374 0.17555 0.55731 0.0
C1058 C 1.00321 0.21314 0.53196 0.0
C1059 C 0.00891 0.20256 0.48389 0.0
C1060 C 0.99713 0.20481 0.58343 0.0
C1061 C 0.9973 0.18582 0.58856 0.0
C1062 C 1.0042 0.17537 0.54252 0.0
C1063 C 0.00973 0.18356 0.49082 0.0
C1064 C 0.9872 0.17618 0.63509 0.0
C1065 C 0.96813 0.17693 0.63267 0.0
C1066 C 0.99557 0.16166 0.66481 0.0
C1067 C 0.01536 0.16192 0.67683 0.0
C1068 C 0.02687 0.14842 0.65419 0.0
C1069 C 0.0456 0.14914 0.66486 0.0
C1070 C 0.05288 0.16298 0.69946 0.0
C1071 C 0.04148 0.17632 0.72268 0.0
C1072 C 0.02281 0.17591 0.71102 0.0
C1073 C 0.95065 0.10649 0.5724 0.0
C1074 C 0.95507 0.09163 0.608 0.0
C1075 C 0.95255 0.12418 0.59322 0.0
C1076 C 0.95874 0.12738 0.65027 0.0
C1077 C 0.96112 0.11254 0.68792 0.0
C1078 C 0.95925 0.09478 0.66701 0.0
C1079 C 0.96663 0.14545 0.66418 0.0
C1080 C 0.98526 0.14616 0.67803 0.0
C1081 C 0.95761 0.16164 0.64771 0.0
C1082 C 0.93745 0.16215 0.64162 0.0
C1083 C 0.92633 0.15462 0.68541 0.0
C1084 C 0.90738 0.1549 0.67986 0.0
C1085 C 0.89934 0.16267 0.63067 0.0
C1086 C 0.91024 0.17017 0.5869 0.0
C1087 C 0.92921 0.16994 0.59221 0.0
H1088 H 0.88466 0.16286 0.62643 0.0
H1089 H 0.06736 0.16338 0.70816 0.0
H1090 H 0.31909 0.09925 0.30856 0.0
H1091 H 0.34611 0.08991 0.36309 0.0
H1092 H 0.31425 0.04972 0.4547 0.0
H1093 H 0.2873 0.05885 0.40045 0.0
H1094 H 0.34424 0.06204 0.521 0.0
H1095 H 0.33183 0.03512 0.33251 0.0
H1096 H 0.32566 0.03358 0.22721 0.0
H1097 H 0.37257 0.06689 0.19281 0.0
H1098 H 0.37923 0.06827 0.2982 0.0
H1099 H 0.41038 0.99068 0.54722 0.0
H1100 H 0.3833 0.00936 0.53155 0.0
H1101 H 0.41416 0.04428 0.41664 0.0
H1102 H 0.44049 0.02473 0.42738 0.0
H1103 H 0.38448 0.03613 0.36871 0.0
H1104 H 0.40015 0.05505 0.56394 0.0
H1105 H 0.40676 0.04933 0.66764 0.0
H1106 H 0.35299 0.02759 0.69167 0.0
H1107 H 0.34618 0.03273 0.58782 0.0
C1108 C 0.3177 0.08892 0.34194 0.0
C1109 C 0.30116 0.07955 0.34931 0.0
C1110 C 0.33313 0.08362 0.37313 0.0
C1111 C 0.3322 0.06886 0.41189 0.0
C1112 C 0.31524 0.06112 0.42491 0.0
C1113 C 0.2998 0.06643 0.39383 0.0
C1114 C 0.34902 0.05917 0.4289 0.0
C1115 C 0.35317 0.05643 0.48799 0.0
C1116 C 0.36048 0.05168 0.38576 0.0
C1117 C 0.35585 0.05202 0.32304 0.0
C1118 C 0.34067 0.04232 0.30249 0.0
C1119 C 0.33715 0.04139 0.2428 0.0
C1120 C 0.34863 0.05026 0.20329 0.0
C1121 C 0.36366 0.06008 0.22346 0.0
C1122 C 0.36736 0.06087 0.28314 0.0
C1123 C 0.41124 1.00213 0.51778 0.0
C1124 C 0.42758 1.0061 0.48831 0.0
C1125 C 0.39589 0.01306 0.50993 0.0
C1126 C 0.39678 0.02845 0.47377 0.0
C1127 C 0.41316 0.03255 0.44508 0.0
C1128 C 0.42828 0.0214 0.45162 0.0
C1129 C 0.38039 0.03949 0.46104 0.0
C1130 C 0.37604 0.0422 0.4023 0.0
C1131 C 0.36881 0.04667 0.50479 0.0
C1132 C 0.37269 0.04419 0.56784 0.0
C1133 C 0.38975 0.04898 0.59123 0.0
C1134 C 0.39354 0.04581 0.65007 0.0
C1135 C 0.38031 0.0381 0.68623 0.0
C1136 C 0.36322 0.03361 0.66366 0.0
C1137 C 0.3594 0.03661 0.60477 0.0
H1138 H 0.38327 0.03562 0.73172 0.0
H1139 H 0.34593 0.04945 0.15702 0.0
H1140 H 0.49147 0.30911 0.48973 0.0
H1141 H 0.50416 0.32986 0.56009 0.0
H1142 H 0.53059 0.2851 0.64802 0.0
H1143 H 0.51955 0.26442 0.57245 0.0
H1144 H 0.50662 0.33929 0.659 0.0
H1145 H 0.57087 0.29843 0.70041 0.0
H1146 H 0.58807 0.2725 0.65998 0.0
H1147 H 0.56869 0.2854 0.48841 0.0
H1148 H 0.55153 0.31147 0.52788 0.0
H1149 H 0.55943 0.41161 0.74035 0.0
H1150 H 0.551 0.37985 0.75463 0.0
H1151 H 0.57444 0.3663 0.58833 0.0
H1152 H 0.58283 0.39805 0.57326 0.0
H1153 H 0.57412 0.33721 0.65682 0.0
H1154 H 0.53516 0.38402 0.59686 0.0
H1155 H 0.51685 0.41191 0.59456 0.0
H1156 H 0.48308 0.3912 0.7318 0.0
H1157 H 0.50234 0.36377 0.7391 0.0
C1158 C 0.49993 0.30362 0.52413 0.0
C1159 C 0.50524 0.28531 0.52384 0.0
C1160 C 0.507 0.3155 0.56527 0.0
C1161 C 0.519 0.30923 0.6085 0.0
C1162 C 0.52198 0.29042 0.61375 0.0
C1163 C 0.51543 0.27854 0.57096 0.0
C1164 C 0.53011 0.32283 0.64076 0.0
C1165 C 0.52139 0.33872 0.65975 0.0
C1166 C 0.54942 0.32218 0.64124 0.0
C1167 C 0.55977 0.30667 0.61718 0.0
C1168 C 0.57032 0.2957 0.65409 0.0
C1169 C 0.58005 0.281 0.63135 0.0
C1170 C 0.57941 0.27726 0.5717 0.0
C1171 C 0.56913 0.28827 0.53461 0.0
C1172 C 0.55941 0.30301 0.55711 0.0
C1173 C 0.56353 0.4018 0.70783 0.0
C1174 C 0.57097 0.40746 0.65427 0.0
C1175 C 0.55874 0.38362 0.71638 0.0
C1176 C 0.56156 0.37093 0.67191 0.0
C1177 C 0.57188 0.37597 0.62295 0.0
C1178 C 0.57653 0.39417 0.6141 0.0
C1179 C 0.55056 0.35409 0.66966 0.0
C1180 C 0.55935 0.33758 0.65819 0.0
C1181 C 0.53123 0.35473 0.66993 0.0
C1182 C 0.52076 0.37207 0.67023 0.0
C1183 C 0.52439 0.38569 0.62853 0.0
C1184 C 0.51379 0.40142 0.62622 0.0
C1185 C 0.49896 0.40342 0.66368 0.0
C1186 C 0.4948 0.38974 0.70377 0.0
C1187 C 0.50575 0.37423 0.70765 0.0
H1188 H 0.4906 0.41551 0.66136 0.0
H1189 H 0.58693 0.26586 0.55421 0.0
H1190 H 0.24187 0.58882 0.40986 0.0
H1191 H 0.21668 0.5909 0.47762 0.0
H1192 H 0.19149 0.63172 0.36989 0.0
H1193 H 0.21704 0.63012 0.30188 0.0
H1194 H 0.19074 0.61364 0.53971 0.0
H1195 H 0.1549 0.61205 0.32122 0.0
H1196 H 0.16139 0.60568 0.21757 0.0
H1197 H 0.20208 0.56681 0.26752 0.0
H1198 H 0.1958 0.57296 0.37112 0.0
H1199 H 0.09487 0.58988 0.58681 0.0
H1200 H 0.12332 0.60536 0.55984 0.0
H1201 H 0.14405 0.55513 0.48947 0.0
H1202 H 0.11574 0.53976 0.51483 0.0
H1203 H 0.14565 0.58291 0.41202 0.0
H1204 H 0.1611 0.5711 0.61193 0.0
H1205 H 0.15698 0.5725 0.71843 0.0
H1206 H 0.15975 0.63081 0.71229 0.0
H1207 H 0.16364 0.62975 0.60556 0.0
C1208 C 0.23162 0.59909 0.40197 0.0
C1209 C 0.23117 0.60885 0.34914 0.0
C1210 C 0.21714 0.60025 0.44115 0.0
C1211 C 0.20203 0.61108 0.42788 0.0
C1212 C 0.20298 0.6231 0.38044 0.0
C1213 C 0.21752 0.62203 0.34131 0.0
C1214 C 0.18411 0.60576 0.45192 0.0
C1215 C 0.18065 0.60728 0.51186 0.0
C1216 C 0.17128 0.59688 0.4158 0.0
C1217 C 0.175 0.59309 0.35361 0.0
C1218 C 0.16521 0.60215 0.30989 0.0
C1219 C 0.16887 0.59858 0.2512 0.0
C1220 C 0.18217 0.58588 0.23592 0.0
C1221 C 0.19181 0.57667 0.27929 0.0
C1222 C 0.18825 0.58022 0.33796 0.0
C1223 C 0.10556 0.58215 0.56587 0.0
C1224 C 0.10304 0.56362 0.5527 0.0
C1225 C 0.12182 0.59097 0.55098 0.0
C1226 C 0.13572 0.58138 0.52262 0.0
C1227 C 0.13345 0.56277 0.51131 0.0
C1228 C 0.1173 0.55397 0.52623 0.0
C1229 C 0.15209 0.59078 0.50004 0.0
C1230 C 0.15532 0.58988 0.43999 0.0
C1231 C 0.1648 0.5997 0.53657 0.0
C1232 C 0.16241 0.60036 0.60066 0.0
C1233 C 0.16063 0.58423 0.6332 0.0
C1234 C 0.15839 0.58496 0.69362 0.0
C1235 C 0.15804 0.60174 0.72208 0.0
C1236 C 0.15998 0.61782 0.69017 0.0
C1237 C 0.16222 0.61717 0.62972 0.0
H1238 H 0.15631 0.60228 0.76886 0.0
H1239 H 0.18502 0.58315 0.1905 0.0
H1240 H 0.03907 0.76109 0.86732 0.0
H1241 H 0.05421 0.78389 0.80906 0.0
H1242 H 1.00595 0.81716 0.81396 0.0
H1243 H 0.98979 0.7933 0.86526 0.0
H1244 H 0.02639 0.83173 0.74285 0.0
H1245 H 0.03484 0.81217 0.94084 0.0
H1246 H 0.04159 0.78945 0.01701 0.0
H1247 H 0.09506 0.78171 0.94537 0.0
H1248 H 0.08847 0.80423 0.86824 0.0
H1249 H 0.04004 0.90723 0.90554 0.0
H1250 H 0.03954 0.87432 0.89663 0.0
H1251 H 0.08673 0.87627 0.78514 0.0
H1252 H 0.08742 0.90956 0.79383 0.0
H1253 H 0.0749 0.84275 0.88916 0.0
H1254 H 0.06089 0.87602 0.70556 0.0
H1255 H 0.04719 0.90423 0.66825 0.0
H1256 H 0.99551 0.88885 0.74091 0.0
H1257 H 0.00929 0.86122 0.78264 0.0
C1258 C 0.03109 0.7726 0.853 0.0
C1259 C 0.01359 0.7761 0.87572 0.0
C1260 C 0.03997 0.78582 0.81978 0.0
C1261 C 0.03174 0.80283 0.81182 0.0
C1262 C 0.01297 0.80447 0.82212 0.0
C1263 C 1.00379 0.79088 0.8527 0.0
C1264 C 0.043 0.8196 0.80957 0.0
C1265 C 0.03755 0.83384 0.77294 0.0
C1266 C 0.05689 0.82284 0.85157 0.0
C1267 C 0.06111 0.80967 0.89854 0.0
C1268 C 0.04803 0.8056 0.94142 0.0
C1269 C 0.0518 0.79275 0.98464 0.0
C1270 C 0.06873 0.78411 0.98593 0.0
C1271 C 0.08194 0.78837 0.94417 0.0
C1272 C 0.07819 0.80116 0.90066 0.0
C1273 C 0.05087 0.90071 0.88133 0.0
C1274 C 0.06363 0.91099 0.8497 0.0
C1275 C 0.0505 0.88188 0.87613 0.0
C1276 C 0.06291 0.87307 0.83951 0.0
C1277 C 0.07702 0.88298 0.81336 0.0
C1278 C 0.07733 0.90193 0.81816 0.0
C1279 C 0.05868 0.85439 0.82096 0.0
C1280 C 0.06502 0.84003 0.85511 0.0
C1281 C 0.04494 0.85129 0.77891 0.0
C1282 C 0.0362 0.86666 0.74777 0.0
C1283 C 0.04663 0.87871 0.71387 0.0
C1284 C 0.03886 0.89466 0.6922 0.0
C1285 C 0.02046 0.89835 0.70211 0.0
C1286 C 0.00977 0.88601 0.73341 0.0
C1287 C 0.0176 0.87027 0.75644 0.0
H1288 H 0.01444 0.91074 0.68562 0.0
H1289 H 0.07163 0.77415 0.01938 0.0
H1290 H 0.74216 0.09128 0.88663 0.0
H1291 H 0.72312 0.09422 0.79923 0.0
H1292 H 0.67494 0.08833 0.90473 0.0
H1293 H 0.69342 0.0841 0.99069 0.0
H1294 H 0.69113 0.06431 0.77217 0.0
H1295 H 0.65183 0.12764 0.85844 0.0
H1296 H 0.65919 0.15733 0.90218 0.0
H1297 H 0.71195 0.15639 0.82155 0.0
H1298 H 0.70481 0.12681 0.77647 0.0
H1299 H 0.59692 0.08096 0.83943 0.0
H1300 H 0.62725 0.09356 0.82772 0.0
H1301 H 0.6313 0.06916 0.65718 0.0
H1302 H 0.60127 0.05534 0.67068 0.0
H1303 H 0.64673 0.11489 0.75993 0.0
H1304 H 0.67361 0.0577 0.63689 0.0
H1305 H 0.66531 0.02714 0.60046 0.0
H1306 H 0.63791 0.0155 0.76156 0.0
H1307 H 0.64612 0.04596 0.79882 0.0
C1308 C 0.72752 0.09052 0.89132 0.0
C1309 C 0.71942 0.08748 0.94633 0.0
C1310 C 0.71671 0.09236 0.84129 0.0
C1311 C 0.69771 0.09162 0.84592 0.0
C1312 C 0.68963 0.08917 0.90059 0.0
C1313 C 0.7003 0.08696 0.95001 0.0
C1314 C 0.6856 0.09218 0.79472 0.0
C1315 C 0.6818 0.07562 0.767 0.0
C1316 C 0.67359 0.10698 0.78767 0.0
C1317 C 0.67775 0.12499 0.81386 0.0
C1318 C 0.66493 0.13383 0.84945 0.0
C1319 C 0.66909 0.15063 0.87466 0.0
C1320 C 0.68602 0.15875 0.86463 0.0
C1321 C 0.69884 0.15008 0.82933 0.0
C1322 C 0.69475 0.13329 0.80399 0.0
C1323 C 0.60422 0.07828 0.79935 0.0
C1324 C 0.59689 0.06672 0.7568 0.0
C1325 C 0.62148 0.08577 0.79214 0.0
C1326 C 0.63176 0.08208 0.74191 0.0
C1327 C 0.62379 0.07195 0.69676 0.0
C1328 C 0.60654 0.06416 0.7044 0.0
C1329 C 0.65148 0.08651 0.74285 0.0
C1330 C 0.65666 0.104 0.76108 0.0
C1331 C 0.66476 0.07257 0.74124 0.0
C1332 C 0.66044 0.05402 0.72045 0.0
C1333 C 0.66593 0.04854 0.66457 0.0
C1334 C 0.6612 0.03128 0.64375 0.0
C1335 C 0.65109 0.0194 0.6787 0.0
C1336 C 0.64576 0.02471 0.7346 0.0
C1337 C 0.65046 0.04194 0.75562 0.0
H1338 H 0.64741 1.00608 0.6625 0.0
H1339 H 0.68922 0.17175 0.88424 0.0
H1340 H 0.4251 0.74062 0.91892 0.0
H1341 H 0.42347 0.71692 0.84552 0.0
H1342 H 0.39055 0.68419 0.96086 0.0
H1343 H 0.39135 0.70826 0.03352 0.0
H1344 H 0.44104 0.68802 0.8781 0.0
H1345 H 0.37196 0.64838 0.89352 0.0
H1346 H 0.33912 0.65513 0.89017 0.0
H1347 H 0.34997 0.70447 0.79611 0.0
H1348 H 0.38286 0.69791 0.79804 0.0
H1349 H 0.4272 0.58728 0.89418 0.0
H1350 H 0.41462 0.6179 0.89785 0.0
H1351 H 0.44761 0.63351 0.75058 0.0
H1352 H 0.45988 0.60259 0.74518 0.0
H1353 H 0.39629 0.64093 0.8196 0.0
H1354 H 0.4655 0.67767 0.79311 0.0
H1355 H 0.49841 0.67304 0.80899 0.0
H1356 H 0.4868 0.6313 0.9346 0.0
H1357 H 0.45387 0.636 0.9206 0.0
C1358 C 0.4166 0.72888 0.92761 0.0
C1359 C 0.40879 0.7261 0.98291 0.0
C1360 C 0.41578 0.71524 0.88546 0.0
C1361 C 0.40722 0.69862 0.89801 0.0
C1362 C 0.39724 0.69688 0.94993 0.0
C1363 C 0.39789 0.7106 0.99188 0.0
C1364 C 0.41255 0.68201 0.86568 0.0
C1365 C 0.43122 0.67801 0.86317 0.0
C1366 C 0.39977 0.66872 0.84793 0.0
C1367 C 0.37994 0.67267 0.84617 0.0
C1368 C 0.36736 0.66061 0.87175 0.0
C1369 C 0.34872 0.66442 0.87019 0.0
C1370 C 0.34247 0.68023 0.84303 0.0
C1371 C 0.35484 0.69225 0.81729 0.0
C1372 C 0.37349 0.68851 0.81871 0.0
C1373 C 0.43146 0.59704 0.86154 0.0
C1374 C 0.44471 0.59252 0.81976 0.0
C1375 C 0.42425 0.61455 0.86375 0.0
C1376 C 0.43028 0.62795 0.82474 0.0
C1377 C 0.4429 0.62335 0.78134 0.0
C1378 C 0.45002 0.60575 0.77873 0.0
C1379 C 0.42463 0.64703 0.83371 0.0
C1380 C 0.40601 0.65133 0.83217 0.0
C1381 C 0.43744 0.66066 0.84836 0.0
C1382 C 0.4572 0.65693 0.8548 0.0
C1383 C 0.46998 0.66744 0.82391 0.0
C1384 C 0.48864 0.66492 0.83294 0.0
C1385 C 0.49468 0.65191 0.87285 0.0
C1386 C 0.48209 0.64135 0.90363 0.0
C1387 C 0.46342 0.64392 0.89505 0.0
H1388 H 0.50913 0.64995 0.87972 0.0
H1389 H 0.32803 0.68315 0.84188 0.0
H1390 H 0.83143 0.51827 0.86975 0.0
H1391 H 0.84898 0.50295 0.79493 0.0
H1392 H 0.80044 0.47546 0.73516 0.0
H1393 H 0.78296 0.49009 0.81241 0.0
H1394 H 0.82344 0.45159 0.75435 0.0
H1395 H 0.82716 0.50211 0.63912 0.0
H1396 H 0.82968 0.53357 0.60339 0.0
H1397 H 0.88426 0.53696 0.66894 0.0
H1398 H 0.88233 0.50541 0.70411 0.0
H1399 H 0.92706 0.4422 0.65831 0.0
H1400 H 0.8956 0.44669 0.62871 0.0
H1401 H 0.87786 0.43646 0.80475 0.0
H1402 H 0.90903 0.43023 0.83358 0.0
H1403 H 0.8804 0.47532 0.6673 0.0
H1404 H 0.8351 0.42873 0.81992 0.0
H1405 H 0.83152 0.39599 0.83944 0.0
H1406 H 0.85684 0.38344 0.67584 0.0
H1407 H 0.86037 0.4161 0.6548 0.0
C1408 C 0.82442 0.50922 0.84004 0.0
C1409 C 0.8059 0.50513 0.84782 0.0
C1410 C 0.83441 0.50066 0.79638 0.0
C1411 C 0.82606 0.48801 0.75896 0.0
C1412 C 0.80721 0.48514 0.76341 0.0
C1413 C 0.79721 0.49361 0.8075 0.0
C1414 C 0.83771 0.47552 0.72446 0.0
C1415 C 0.83573 0.45672 0.73393 0.0
C1416 C 0.8532 0.48199 0.69421 0.0
C1417 C 0.85459 0.50121 0.67406 0.0
C1418 C 0.83974 0.50952 0.646 0.0
C1419 C 0.84111 0.52736 0.62546 0.0
C1420 C 0.85721 0.53719 0.63333 0.0
C1421 C 0.87194 0.5292 0.66192 0.0
C1422 C 0.87074 0.51127 0.68185 0.0
C1423 C 0.91643 0.43995 0.69019 0.0
C1424 C 0.92065 0.43629 0.74888 0.0
C1425 C 0.89841 0.44278 0.67314 0.0
C1426 C 0.88438 0.4424 0.71453 0.0
C1427 C 0.88836 0.43676 0.77162 0.0
C1428 C 0.90631 0.43353 0.78844 0.0
C1429 C 0.8669 0.45184 0.70311 0.0
C1430 C 0.86778 0.47005 0.68485 0.0
C1431 C 0.85015 0.4447 0.72299 0.0
C1432 C 0.84792 0.42497 0.73558 0.0
C1433 C 0.83973 0.41904 0.7877 0.0
C1434 C 0.83777 0.40046 0.79918 0.0
C1435 C 0.84392 0.38765 0.75889 0.0
C1436 C 0.85208 0.39338 0.70704 0.0
C1437 C 0.85408 0.41193 0.69535 0.0
H1438 H 0.8424 0.37327 0.76788 0.0
H1439 H 0.85823 0.55103 0.61757 0.0
H1440 H 1.00006 0.20127 0.91202 0.0
H1441 H 0.99882 0.1756 0.84447 0.0
H1442 H 0.04464 0.15109 0.9316 0.0
H1443 H 0.04685 0.17721 0.99599 0.0
H1444 H 0.04768 0.14359 0.82446 0.0
H1445 H 0.99687 0.13975 0.95877 0.0
H1446 H 0.96879 0.15057 0.00641 0.0
H1447 H 0.94213 0.15372 0.84027 0.0
H1448 H 0.97011 0.14312 0.79181 0.0
H1449 H 0.03371 0.0487 0.79153 0.0
H1450 H 0.03503 0.07975 0.82894 0.0
H1451 H 0.99787 0.09728 0.69532 0.0
H1452 H 0.99617 0.06606 0.65771 0.0
H1453 H 0.98902 0.11038 0.81007 0.0
H1454 H 0.03976 0.10665 0.68178 0.0
H1455 H 0.06807 0.09412 0.6409 0.0
H1456 H 0.09557 0.10358 0.80302 0.0
H1457 H 0.06732 0.11585 0.84542 0.0
C1458 C 0.01018 0.19067 0.9161 0.0
C1459 C 0.02338 0.19137 0.96069 0.0
C1460 C 0.00927 0.17576 0.87775 0.0
C1461 C 0.02128 0.16096 0.8836 0.0
C1462 C 0.03502 0.16211 0.92607 0.0
C1463 C 0.03613 0.17707 0.96366 0.0
C1464 C 0.01928 0.14391 0.84791 0.0
C1465 C 0.03485 0.13632 0.82173 0.0
C1466 C 1.00247 0.13448 0.84239 0.0
C1467 C 0.98565 0.14085 0.87155 0.0
C1468 C 0.98505 0.14287 0.93241 0.0
C1469 C 0.96915 0.14894 0.95959 0.0
C1470 C 0.9537 0.15288 0.92639 0.0
C1471 C 0.95411 0.1507 0.86596 0.0
C1472 C 0.96999 0.14465 0.8386 0.0
C1473 C 0.02574 0.05908 0.76992 0.0
C1474 C 0.01482 0.05473 0.72143 0.0
C1475 C 0.02655 0.0769 0.79144 0.0
C1476 C 0.01648 0.09091 0.76516 0.0
C1477 C 1.00554 0.08667 0.71682 0.0
C1478 C 1.00472 0.06881 0.69509 0.0
C1479 C 0.01752 0.10989 0.7885 0.0
C1480 C 1.00178 0.11782 0.8121 0.0
C1481 C 0.03424 0.11946 0.79248 0.0
C1482 C 0.05131 0.11208 0.767 0.0
C1483 C 0.05176 0.10586 0.70907 0.0
C1484 C 0.06783 0.09885 0.68551 0.0
C1485 C 0.08361 0.09803 0.71936 0.0
C1486 C 0.08334 0.10424 0.77682 0.0
C1487 C 0.0673 0.11125 0.80061 0.0
H1488 H 0.09604 0.0926 0.70104 0.0
H1489 H 0.9414 0.15758 0.94751 0.0
H1490 H 0.32254 0.99728 0.9834 0.0
H1491 H 0.35184 0.99029 0.93693 0.0
H1492 H 0.33643 0.02213 0.78732 0.0
H1493 H 0.30729 0.02944 0.83432 0.0
H1494 H 0.35778 0.98837 0.76173 0.0
H1495 H 0.35917 0.04298 0.87914 0.0
H1496 H 0.35362 0.06 0.96989 0.0
H1497 H 0.38968 0.02431 0.06239 0.0
H1498 H 0.39516 1.00684 0.97234 0.0
H1499 H 0.44786 1.0028 0.65 0.0
H1500 H 0.41613 1.00596 0.68168 0.0
H1501 H 0.43205 0.99273 0.85765 0.0
H1502 H 0.46379 0.99069 0.82666 0.0
H1503 H 0.40924 0.01739 0.86647 0.0
H1504 H 0.40912 0.9628 0.75375 0.0
H1505 H 0.41369 0.94339 0.66754 0.0
H1506 H 0.37499 0.97522 0.57158 0.0
H1507 H 0.37055 0.99512 0.65663 0.0
C1508 C 0.32509 1.00214 0.93958 0.0
C1509 C 0.31246 0.01363 0.91208 0.0
C1510 C 0.34193 0.9983 0.91324 0.0
C1511 C 0.34645 1.00576 0.85861 0.0
C1512 C 0.33328 0.01612 0.8292 0.0
C1513 C 0.31656 0.0202 0.85595 0.0
C1514 C 0.36552 1.00453 0.83559 0.0
C1515 C 0.36906 0.99483 0.78417 0.0
C1516 C 0.3803 0.01269 0.86535 0.0
C1517 C 0.37743 0.0235 0.91912 0.0
C1518 C 0.36582 0.03869 0.91891 0.0
C1519 C 0.36269 0.04842 0.97022 0.0
C1520 C 0.37126 0.04322 0.02191 0.0
C1521 C 0.38303 0.02831 0.02233 0.0
C1522 C 0.38616 0.01849 0.97117 0.0
C1523 C 0.44457 1.00058 0.69547 0.0
C1524 C 0.45843 0.9965 0.7358 0.0
C1525 C 0.42633 1.00226 0.7136 0.0
C1526 C 0.42136 0.99932 0.77224 0.0
C1527 C 0.43529 0.99517 0.81228 0.0
C1528 C 0.45353 0.99393 0.79445 0.0
C1529 C 0.40187 1.0008 0.79262 0.0
C1530 C 0.39814 0.01076 0.84364 0.0
C1531 C 0.38699 0.99256 0.76285 0.0
C1532 C 0.38971 0.98066 0.71141 0.0
C1533 C 0.40174 0.9658 0.71406 0.0
C1534 C 0.4043 0.95469 0.66538 0.0
C1535 C 0.39469 0.95811 0.61404 0.0
C1536 C 0.38246 0.97261 0.61134 0.0
C1537 C 0.37998 0.98387 0.6597 0.0
H1538 H 0.3967 0.9495 0.57639 0.0
H1539 H 0.36882 0.05076 0.0616 0.0
H1540 H 0.47788 0.31561 0.03509 0.0
H1541 H 0.47852 0.3427 0.97431 0.0
H1542 H 0.53058 0.32641 0.90454 0.0
H1543 H 0.53024 0.29951 0.96845 0.0
H1544 H 0.53351 0.35946 0.93097 0.0
H1545 H 0.48918 0.33006 0.81718 0.0
H1546 H 0.46171 0.31226 0.79311 0.0
H1547 H 0.42802 0.35327 0.87087 0.0
H1548 H 0.45531 0.37122 0.89608 0.0
H1549 H 0.53023 0.43522 0.73157 0.0
H1550 H 0.5295 0.40446 0.773 0.0
H1551 H 0.48644 0.42023 0.88927 0.0
H1552 H 0.48709 0.45109 0.84884 0.0
H1553 H 0.48004 0.38684 0.83302 0.0
H1554 H 0.52828 0.41665 0.93639 0.0
H1555 H 0.55708 0.43365 0.94513 0.0
H1556 H 0.58598 0.38941 0.86596 0.0
H1557 H 0.55733 0.37218 0.8562 0.0
C1558 C 0.48912 0.31741 1.00498 0.0
C1559 C 0.50382 0.3052 0.00566 0.0
C1560 C 0.48952 0.33302 0.97008 0.0
C1561 C 0.50453 0.33678 0.93382 0.0
C1562 C 0.51881 0.32397 0.93189 0.0
C1563 C 0.51849 0.30838 0.96763 0.0
C1564 C 0.50587 0.35481 0.90289 0.0
C1565 C 0.52196 0.36516 0.90796 0.0
C1566 C 0.49081 0.36267 0.87351 0.0
C1567 C 0.47432 0.3519 0.85905 0.0
C1568 C 0.47593 0.3352 0.82963 0.0
C1569 C 0.46038 0.3251 0.81567 0.0
C1570 C 0.44314 0.3316 0.8306 0.0
C1571 C 0.4414 0.34824 0.8594 0.0
C1572 C 0.45689 0.3584 0.87346 0.0
C1573 C 0.52065 0.43223 0.76619 0.0
C1574 C 0.50878 0.44575 0.78705 0.0
C1575 C 0.52039 0.41464 0.7901 0.0
C1576 C 0.50814 0.41002 0.83476 0.0
C1577 C 0.49607 0.42341 0.85499 0.0
C1578 C 0.49651 0.44109 0.83187 0.0
C1579 C 0.50775 0.3912 0.85975 0.0
C1580 C 0.49174 0.38086 0.85443 0.0
C1581 C 0.52317 0.38312 0.88643 0.0
C1582 C 0.54052 0.39328 0.89415 0.0
C1583 C 0.54072 0.41061 0.92015 0.0
C1584 C 0.55705 0.42027 0.92553 0.0
C1585 C 0.57333 0.41267 0.90573 0.0
C1586 C 0.57335 0.39532 0.88103 0.0
C1587 C 0.55706 0.3856 0.87562 0.0
H1588 H 0.58596 0.42019 0.90983 0.0
H1589 H 0.43112 0.32376 0.81974 0.0
H1590 H 0.21443 0.52418 0.91483 0.0
H1591 H 0.18586 0.5193 0.86219 0.0
H1592 H 0.17022 0.47841 0.98762 0.0
H1593 H 0.19929 0.48278 0.03883 0.0
H1594 H 0.15786 0.46869 0.88565 0.0
H1595 H 0.15563 0.52454 0.99388 0.0
H1596 H 0.16604 0.555 0.02422 0.0
H1597 H 0.16007 0.57446 0.84888 0.0
H1598 H 0.14991 0.54404 0.8173 0.0
H1599 H 0.0618 0.47423 0.8374 0.0
H1600 H 0.09245 0.47534 0.87907 0.0
H1601 H 0.1091 0.51296 0.74498 0.0
H1602 H 0.07843 0.51207 0.70354 0.0
H1603 H 0.12096 0.52403 0.84981 0.0
H1604 H 0.12246 0.46822 0.74236 0.0
H1605 H 0.11175 0.4378 0.71277 0.0
H1606 H 0.11844 0.41844 0.88792 0.0
H1607 H 0.12895 0.44883 0.91876 0.0
C1608 C 0.20508 0.51382 0.93023 0.0
C1609 C 0.20912 0.50379 0.98075 0.0
C1610 C 0.18861 0.51118 0.90055 0.0
C1611 C 0.17549 0.49885 0.92167 0.0
C1612 C 0.17997 0.4881 0.97042 0.0
C1613 C 0.19664 0.49052 0.99959 0.0
C1614 C 0.15688 0.49783 0.89469 0.0
C1615 C 0.14974 0.4808 0.87854 0.0
C1616 C 0.14622 0.5136 0.8841 0.0
C1617 C 0.15218 0.53195 0.90313 0.0
C1618 C 0.15665 0.53528 0.96173 0.0
C1619 C 0.1625 0.55255 0.97915 0.0
C1620 C 0.16375 0.56665 0.93848 0.0
C1621 C 0.15912 0.56352 0.88032 0.0
C1622 C 0.15331 0.54627 0.86264 0.0
C1623 C 0.07198 0.4827 0.81655 0.0
C1624 C 0.06759 0.49295 0.76666 0.0
C1625 C 0.08958 0.48325 0.84035 0.0
C1626 C 0.10327 0.49407 0.81493 0.0
C1627 C 0.09887 0.50443 0.76539 0.0
C1628 C 0.0813 0.50381 0.74143 0.0
C1629 C 0.122 0.49493 0.84072 0.0
C1630 C 0.12913 0.51194 0.85681 0.0
C1631 C 0.13257 0.47916 0.85144 0.0
C1632 C 0.12633 0.46085 0.83298 0.0
C1633 C 0.12151 0.45752 0.77467 0.0
C1634 C 0.1155 0.44027 0.75765 0.0
C1635 C 0.11437 0.42621 0.79847 0.0
C1636 C 0.1193 0.42935 0.85637 0.0
C1637 C 0.1253 0.44658 0.87363 0.0
H1638 H 0.10971 0.41287 0.7852 0.0
H1639 H 0.16828 0.58 0.95207 0.0
H1640 H 0.03251 0.79959 0.41096 0.0
H1641 H 0.03468 0.82917 0.45976 0.0
H1642 H 0.97892 0.84057 0.4136 0.0
H1643 H 0.97685 0.81122 0.36413 0.0
H1644 H 0.99923 0.86867 0.38717 0.0
H1645 H 0.99419 0.83012 0.55784 0.0
H1646 H 1.00379 0.80456 0.6203 0.0
H1647 H 0.05633 0.82929 0.64269 0.0
H1648 H 0.04712 0.85492 0.57996 0.0
H1649 H 0.9839 0.94863 0.55067 0.0
H1650 H 0.98328 0.91777 0.51063 0.0
H1651 H 0.03848 0.90942 0.56859 0.0
H1652 H 0.03849 0.93982 0.61339 0.0
H1653 H 0.02025 0.87967 0.58914 0.0
H1654 H 0.02698 0.91744 0.422 0.0
H1655 H 0.0199 0.94259 0.35467 0.0
H1656 H 0.96715 0.91949 0.32182 0.0
H1657 H 0.97381 0.89432 0.38961 0.0
C1658 C 0.02059 0.80821 0.41242 0.0
C1659 C 1.00449 0.80296 0.38363 0.0
C1660 C 0.02184 0.82522 0.44027 0.0
C1661 C 1.00694 0.83727 0.44078 0.0
C1662 C 0.99068 0.8317 0.41376 0.0
C1663 C 0.98948 0.81483 0.38562 0.0
C1664 C 1.0084 0.85601 0.46649 0.0
C1665 C 1.00356 0.871 0.4317 0.0
C1666 C 0.01478 0.85933 0.52384 0.0
C1667 C 0.02006 0.84428 0.5634 0.0
C1668 C 1.00783 0.83005 0.57578 0.0
C1669 C 0.01321 0.81554 0.6112 0.0
C1670 C 0.03074 0.81518 0.63476 0.0
C1671 C 0.04283 0.82948 0.62379 0.0
C1672 C 0.03752 0.84403 0.5885 0.0
C1673 C 0.99585 0.94013 0.55524 0.0
C1674 C 0.01119 0.94658 0.58539 0.0
C1675 C 0.99556 0.9225 0.53196 0.0
C1676 C 0.01089 0.91109 0.53615 0.0
C1677 C 0.02636 0.91772 0.56552 0.0
C1678 C 0.02641 0.93515 0.59076 0.0
C1679 C 0.01071 0.89232 0.51021 0.0
C1680 C 0.01586 0.87736 0.54475 0.0
C1681 C 1.00488 0.889 0.45229 0.0
C1682 C 1.00084 0.90408 0.41131 0.0
C1683 C 0.01382 0.91779 0.40073 0.0
C1684 C 0.00989 0.93204 0.36244 0.0
C1685 C 0.99307 0.93266 0.33409 0.0
C1686 C 0.98016 0.91901 0.34387 0.0
C1687 C 0.98401 0.90473 0.38218 0.0
H1688 H 0.99005 0.94371 0.30446 0.0
H1689 H 0.03488 0.80394 0.66219 0.0
H1690 H 0.71919 1.00707 0.45304 0.0
H1691 H 0.69201 1.00284 0.51449 0.0
H1692 H 0.65799 1.00516 0.36155 0.0
H1693 H 0.6849 0.00982 0.30092 0.0
H1694 H 0.64373 0.02584 0.44036 0.0
H1695 H 0.66781 0.96429 0.44244 0.0
H1696 H 0.69116 0.94093 0.46119 0.0
H1697 H 0.69259 0.95602 0.64175 0.0
H1698 H 0.66939 0.97962 0.62389 0.0
H1699 H 0.5609 0.98372 0.52433 0.0
H1700 H 0.59165 0.98748 0.48497 0.0
H1701 H 0.61119 1.00346 0.65425 0.0
H1702 H 0.58026 1.00017 0.69396 0.0
H1703 H 0.63413 0.97557 0.58138 0.0
H1704 H 0.60951 0.03581 0.58171 0.0
H1705 H 0.58517 0.05832 0.56547 0.0
H1706 H 0.58487 0.04559 0.38298 0.0
H1707 H 0.60903 0.02278 0.3984 0.0
C1708 C 0.70592 1.00635 0.43262 0.0
C1709 C 0.70423 0.0088 0.37207 0.0
C1710 C 0.69034 1.00396 0.46778 0.0
C1711 C 0.67276 1.00366 0.44297 0.0
C1712 C 0.67125 1.0055 0.38223 0.0
C1713 C 0.68669 1.00807 0.34742 0.0
C1714 C 0.6558 1.00202 0.47937 0.0
C1715 C 0.64172 0.01473 0.47083 0.0
C1716 C 0.6531 0.98798 0.52102 0.0
C1717 C 0.66702 0.97382 0.53171 0.0
C1718 C 0.6732 0.9627 0.48604 0.0
C1719 C 0.68639 0.94941 0.49652 0.0
C1720 C 0.69339 0.94703 0.55259 0.0
C1721 C 0.68718 0.9579 0.59833 0.0
C1722 C 0.67401 0.97122 0.58807 0.0
C1723 C 0.57172 0.98786 0.5535 0.0
C1724 C 0.56803 0.99158 0.61246 0.0
C1725 C 0.58933 0.99002 0.53084 0.0
C1726 C 0.60378 0.99567 0.56663 0.0
C1727 C 0.60031 0.99895 0.62587 0.0
C1728 C 0.58258 0.99711 0.64843 0.0
C1729 C 0.62216 0.99902 0.54071 0.0
C1730 C 0.63638 0.98672 0.55126 0.0
C1731 C 0.6251 0.01348 0.50121 0.0
C1732 C 0.61094 0.02749 0.4913 0.0
C1733 C 0.60415 0.03773 0.5382 0.0
C1734 C 0.59041 0.05055 0.52915 0.0
C1735 C 0.58344 0.05335 0.47325 0.0
C1736 C 0.59027 0.04339 0.42626 0.0
C1737 C 0.60401 0.03053 0.43512 0.0
H1738 H 0.57277 0.06325 0.46631 0.0
H1739 H 0.7036 0.93673 0.56062 0.0
H1740 H 0.52147 0.68473 0.35864 0.0
H1741 H 0.52862 0.65736 0.41588 0.0
H1742 H 0.48022 0.66564 0.51888 0.0
H1743 H 0.47326 0.69297 0.46243 0.0
H1744 H 0.50645 0.65148 0.58597 0.0
H1745 H 0.47988 0.63809 0.3992 0.0
H1746 H 0.47785 0.63903 0.29205 0.0
H1747 H 0.52974 0.61253 0.27866 0.0
H1748 H 0.53221 0.6117 0.38585 0.0
H1749 H 0.48778 0.56185 0.68361 0.0
H1750 H 0.4865 0.59182 0.63784 0.0
H1751 H 0.53237 0.57784 0.5293 0.0
H1752 H 0.53301 0.54746 0.57289 0.0
H1753 H 0.50956 0.5954 0.46639 0.0
H1754 H 0.5357 0.60863 0.6557 0.0
H1755 H 0.53568 0.60561 0.76279 0.0
H1756 H 0.483 0.63067 0.77066 0.0
H1757 H 0.48279 0.63404 0.6639 0.0
C1758 C 0.51277 0.68106 0.39491 0.0
C1759 C 0.49684 0.69101 0.40614 0.0
C1760 C 0.51672 0.66528 0.42719 0.0
C1761 C 0.50476 0.65914 0.47112 0.0
C1762 C 0.48965 0.66995 0.48527 0.0
C1763 C 0.4857 0.68563 0.45302 0.0
C1764 C 0.50687 0.64077 0.49865 0.0
C1765 C 0.50712 0.63924 0.55972 0.0
C1766 C 0.50783 0.62466 0.46487 0.0
C1767 C 0.50633 0.62503 0.40049 0.0
C1768 C 0.49092 0.63259 0.37339 0.0
C1769 C 0.48968 0.63309 0.31267 0.0
C1770 C 0.50368 0.62589 0.27857 0.0
C1771 C 0.51893 0.61814 0.30514 0.0
C1772 C 0.52025 0.61765 0.36587 0.0
C1773 C 0.49766 0.56519 0.65023 0.0
C1774 C 0.51059 0.55228 0.63227 0.0
C1775 C 0.497 0.58244 0.62418 0.0
C1776 C 0.50964 0.58746 0.5808 0.0
C1777 C 0.52249 0.57448 0.56267 0.0
C1778 C 0.52289 0.55708 0.58781 0.0
C1779 C 0.50932 0.60607 0.55373 0.0
C1780 C 0.50926 0.60764 0.4927 0.0
C1781 C 0.50849 0.6222 0.58751 0.0
C1782 C 0.50924 0.62158 0.65192 0.0
C1783 C 0.52419 0.61365 0.68044 0.0
C1784 C 0.52421 0.61188 0.74106 0.0
C1785 C 0.50935 0.61799 0.77356 0.0
C1786 C 0.49455 0.62608 0.74555 0.0
C1787 C 0.49451 0.62803 0.68502 0.0
H1788 H 0.50928 0.6164 0.82042 0.0
H1789 H 0.5027 0.62628 0.23155 0.0
H1790 H 0.83727 0.47726 0.34041 0.0
H1791 H 0.86119 0.4758 0.41378 0.0
H1792 H 0.84138 0.52555 0.4903 0.0
H1793 H 0.81748 0.52718 0.41528 0.0
H1794 H 0.8757 0.52875 0.47812 0.0
H1795 H 0.83963 0.48322 0.55784 0.0
H1796 H 0.8212 0.45583 0.57513 0.0
H1797 H 0.8668 0.42215 0.5308 0.0
H1798 H 0.88556 0.44937 0.5129 0.0
H1799 H 0.94621 0.48466 0.69931 0.0
H1800 H 0.91517 0.48705 0.66045 0.0
H1801 H 0.93648 0.51012 0.50157 0.0
H1802 H 0.96725 0.50835 0.54067 0.0
H1803 H 0.898 0.47297 0.57525 0.0
H1804 H 0.90559 0.53932 0.43683 0.0
H1805 H 0.9228 0.56811 0.43973 0.0
H1806 H 0.93037 0.56212 0.62411 0.0
H1807 H 0.9131 0.53341 0.62255 0.0
C1808 C 0.83768 0.48762 0.37391 0.0
C1809 C 0.82539 0.50229 0.37215 0.0
C1810 C 0.8514 0.48677 0.41612 0.0
C1811 C 0.85324 0.50051 0.45826 0.0
C1812 C 0.84036 0.51474 0.45848 0.0
C1813 C 0.82654 0.51558 0.41599 0.0
C1814 C 0.8696 0.50075 0.49763 0.0
C1815 C 0.88044 0.51654 0.49983 0.0
C1816 C 0.87571 0.48502 0.52774 0.0
C1817 C 0.8641 0.4685 0.53416 0.0
C1818 C 0.84575 0.47003 0.55123 0.0
C1819 C 0.83522 0.45449 0.56129 0.0
C1820 C 0.84281 0.43725 0.55404 0.0
C1821 C 0.86093 0.43553 0.53642 0.0
C1822 C 0.87154 0.45103 0.52645 0.0
C1823 C 0.94427 0.49036 0.65624 0.0
C1824 C 0.95932 0.4965 0.62353 0.0
C1825 C 0.92647 0.49168 0.63391 0.0
C1826 C 0.92325 0.49915 0.57829 0.0
C1827 C 0.93835 0.50481 0.54516 0.0
C1828 C 0.95606 0.50366 0.56758 0.0
C1829 C 0.90428 0.50062 0.554 0.0
C1830 C 0.89304 0.48516 0.55436 0.0
C1831 C 0.89754 0.51678 0.52798 0.0
C1832 C 0.90797 0.53414 0.52953 0.0
C1833 C 0.9108 0.54419 0.47812 0.0
C1834 C 0.92062 0.56049 0.47949 0.0
C1835 C 0.92767 0.56694 0.53206 0.0
C1836 C 0.9249 0.55711 0.58339 0.0
C1837 C 0.91508 0.54081 0.58227 0.0
H1838 H 0.93529 0.57956 0.53302 0.0
H1839 H 0.83467 0.42523 0.56216 0.0
loop_
_geom_bond_atom_site_label_1
_geom_bond_atom_site_label_2
_geom_bond_distance
_geom_bond_site_symmetry_2
_ccdc_geom_bond_type
C0 C1 1.391 . S
C0 C4 1.391 . S
C0 H42 0.948 . S
C1 C0 1.391 . S
C1 C2 1.391 . S
C2 C1 1.391 . S
C2 H58 0.947 . S
C2 C59 1.392 . S
C3 C4 1.391 . S
C3 C7 1.397 . S
C3 C59 1.419 . S
C4 C0 1.391 . S
C4 C3 1.391 . S
C4 C5 1.399 . S
C5 C4 1.399 . S
C5 C8 1.396 . S
C5 C17 1.453 . S
C5 C18 1.684 . S
H6 C30 0.948 . S
C7 C3 1.397 . S
C7 C8 1.394 . S
C7 C26 1.723 . S
C8 C5 1.396 . S
C8 C7 1.394 . S
C8 C38 1.723 . S
H9 C32 0.947 . S
H10 C33 0.948 . S
H11 C39 0.982 . S
H12 C40 0.979 . S
H13 C40 0.980 . S
H14 C40 0.983 . S
H15 C39 0.979 . S
H16 C39 0.977 . S
C17 C5 1.453 . S
C17 H46 0.982 . S
C17 H47 0.979 . S
C17 H48 0.977 . S
C18 C5 1.684 . S
C18 H43 0.979 . S
C18 H44 0.980 . S
C18 H45 0.983 . S
C19 C20 1.391 . S
C19 C24 1.391 . S
C19 H49 0.948 . S
C20 C19 1.391 . S
C20 C21 1.391 . S
C21 C20 1.391 . S
C21 C22 1.392 . S
C21 H50 0.947 . S
C22 C21 1.392 . S
C22 C23 1.419 . S
C22 H51 0.948 . S
C23 C22 1.419 . S
C23 C24 1.391 . S
C23 C27 1.397 . S
C24 C19 1.391 . S
C24 C23 1.391 . S
C24 C25 1.399 . S
C25 C24 1.399 . S
C25 C26 1.396 . S
C25 C28 1.453 . S
C25 C29 1.684 . S
C26 C7 1.723 . S
C26 C25 1.396 . S
C26 C27 1.394 . S
C27 C23 1.397 . S
C27 C26 1.394 . S
C27 C37 1.723 . S
C28 C25 1.453 . S
C28 H52 0.982 . S
C28 H53 0.979 . S
C28 H54 0.977 . S
C29 C25 1.684 . S
C29 H55 0.979 . S
C29 H56 0.980 . S
C29 H57 0.983 . S
C30 H6 0.948 . S
C30 C31 1.391 . S
C30 C35 1.391 . S
C31 C30 1.391 . S
C31 C32 1.391 . S
C32 H9 0.947 . S
C32 C31 1.391 . S
C32 C33 1.392 . S
C33 H10 0.948 . S
C33 C32 1.392 . S
C33 C34 1.419 . S
C34 C33 1.419 . S
C34 C35 1.391 . S
C34 C38 1.397 . S
C35 C30 1.391 . S
C35 C34 1.391 . S
C35 C36 1.399 . S
C36 C35 1.399 . S
C36 C37 1.396 . S
C36 C39 1.453 . S
C36 C40 1.684 . S
C37 C27 1.723 . S
C37 C36 1.396 . S
C37 C38 1.394 . S
C38 C8 1.723 . S
C38 C34 1.397 . S
C38 C37 1.394 . S
C39 H11 0.982 . S
C39 H15 0.979 . S
C39 H16 0.977 . S
C39 C36 1.453 . S
C40 H12 0.979 . S
C40 H13 0.980 . S
C40 H14 0.983 . S
C40 C36 1.684 . S
H41 C59 0.948 . S
H42 C0 0.948 . S
H43 C18 0.979 . S
H44 C18 0.980 . S
H45 C18 0.983 . S
H46 C17 0.982 . S
H47 C17 0.979 . S
H48 C17 0.977 . S
H49 C19 0.948 . S
H50 C21 0.947 . S
H51 C22 0.948 . S
H52 C28 0.982 . S
H53 C28 0.979 . S
H54 C28 0.977 . S
H55 C29 0.979 . S
H56 C29 0.980 . S
H57 C29 0.983 . S
H58 C2 0.947 . S
C59 C2 1.392 . S
C59 C3 1.419 . S
C59 H41 0.948 . S
C60 C61 1.391 . S
C60 C64 1.391 . S
C60 H102 0.948 . S
C61 C60 1.391 . S
C61 C62 1.391 . S
C62 C61 1.391 . S
C62 H118 0.947 . S
C62 C119 1.392 . S
C63 C64 1.400 . S
C63 C67 1.395 1_655 S
C63 C119 1.426 . S
C64 C60 1.391 . S
C64 C63 1.400 . S
C64 C65 1.399 . S
C65 C64 1.399 . S
C65 C68 1.388 1_655 S
C65 C77 1.453 1_655 S
C65 C78 1.684 . S
H66 C90 0.948 . S
C67 C63 1.395 1_455 S
C67 C68 1.393 . S
C67 C86 1.722 . S
C68 C65 1.388 1_455 S
C68 C67 1.393 . S
C68 C98 1.722 . S
H69 C92 0.947 . S
H70 C93 0.948 . S
H71 C99 0.982 . S
H72 C100 0.979 . S
H73 C100 0.980 . S
H74 C100 0.983 . S
H75 C99 0.979 . S
H76 C99 0.977 . S
C77 C65 1.453 1_455 S
C77 H106 0.982 . S
C77 H107 0.979 . S
C77 H108 0.977 . S
C78 C65 1.684 . S
C78 H103 0.979 . S
C78 H104 0.980 . S
C78 H105 0.983 . S
C79 C80 1.391 . S
C79 C84 1.391 . S
C79 H109 0.948 . S
C80 C79 1.391 . S
C80 C81 1.391 . S
C81 C80 1.391 . S
C81 C82 1.392 . S
C81 H110 0.947 . S
C82 C81 1.392 . S
C82 C83 1.425 . S
C82 H111 0.948 . S
C83 C82 1.425 . S
C83 C84 1.400 . S
C83 C87 1.395 1_655 S
C84 C79 1.391 . S
C84 C83 1.400 . S
C84 C85 1.399 . S
C85 C84 1.399 . S
C85 C86 1.388 1_655 S
C85 C88 1.453 1_655 S
C85 C89 1.684 . S
C86 C67 1.722 . S
C86 C85 1.388 1_455 S
C86 C87 1.393 . S
C87 C83 1.395 1_455 S
C87 C86 1.393 . S
C87 C97 1.722 . S
C88 C85 1.453 1_455 S
C88 H112 0.982 . S
C88 H113 0.979 . S
C88 H114 0.977 . S
C89 C85 1.684 . S
C89 H115 0.979 . S
C89 H116 0.980 . S
C89 H117 0.983 . S
C90 H66 0.948 . S
C90 C91 1.391 . S
C90 C95 1.391 . S
C91 C90 1.391 . S
C91 C92 1.391 . S
C92 H69 0.947 . S
C92 C91 1.391 . S
C92 C93 1.392 . S
C93 H70 0.948 . S
C93 C92 1.392 . S
C93 C94 1.426 . S
C94 C93 1.426 . S
C94 C95 1.400 . S
C94 C98 1.395 1_655 S
C95 C90 1.391 . S
C95 C94 1.400 . S
C95 C96 1.399 . S
C96 C95 1.399 . S
C96 C97 1.388 1_655 S
C96 C99 1.453 1_655 S
C96 C100 1.684 . S
C97 C87 1.722 . S
C97 C96 1.388 1_455 S
C97 C98 1.393 . S
C98 C68 1.722 . S
C98 C94 1.395 1_455 S
C98 C97 1.393 . S
C99 H71 0.982 . S
C99 H75 0.979 . S
C99 H76 0.977 . S
C99 C96 1.453 1_455 S
C100 H72 0.979 . S
C100 H73 0.980 . S
C100 H74 0.983 . S
C100 C96 1.684 . S
H101 C119 0.948 . S
H102 C60 0.948 . S
H103 C78 0.979 . S
H104 C78 0.980 . S
H105 C78 0.983 . S
H106 C77 0.982 . S
H107 C77 0.979 . S
H108 C77 0.977 . S
H109 C79 0.948 . S
H110 C81 0.947 . S
H111 C82 0.948 . S
H112 C88 0.982 . S
H113 C88 0.979 . S
H114 C88 0.977 . S
H115 C89 0.979 . S
H116 C89 0.980 . S
H117 C89 0.983 . S
H118 C62 0.947 . S
C119 C62 1.392 . S
C119 C63 1.426 . S
C119 H101 0.948 . S
C120 C121 1.391 . S
C120 C124 1.391 . S
C120 H162 0.948 . S
C121 C120 1.391 . S
C121 C122 1.391 . S
C122 C121 1.391 . S
C122 H178 0.947 . S
C122 C179 1.392 . S
C123 C124 1.400 . S
C123 C127 1.395 1_565 S
C123 C179 1.426 . S
C124 C120 1.391 . S
C124 C123 1.400 . S
C124 C125 1.399 . S
C125 C124 1.399 . S
C125 C128 1.388 1_565 S
C125 C137 1.453 1_565 S
C125 C138 1.684 . S
H126 C150 0.948 . S
C127 C123 1.395 1_545 S
C127 C128 1.393 . S
C127 C146 1.722 . S
C128 C125 1.388 1_545 S
C128 C127 1.393 . S
C128 C158 1.722 . S
H129 C152 0.947 . S
H130 C153 0.948 . S
H131 C159 0.982 . S
H132 C160 0.979 . S
H133 C160 0.980 . S
H134 C160 0.983 . S
H135 C159 0.979 . S
H136 C159 0.977 . S
C137 C125 1.453 1_545 S
C137 H166 0.982 . S
C137 H167 0.979 . S
C137 H168 0.977 . S
C138 C125 1.684 . S
C138 H163 0.979 . S
C138 H164 0.980 . S
C138 H165 0.983 . S
C139 C140 1.391 . S
C139 C144 1.391 . S
C139 H169 0.948 . S
C140 C139 1.391 . S
C140 C141 1.391 . S
C141 C140 1.391 . S
C141 C142 1.392 . S
C141 H170 0.947 . S
C142 C141 1.392 . S
C142 C143 1.425 . S
C142 H171 0.948 . S
C143 C142 1.425 . S
C143 C144 1.400 . S
C143 C147 1.395 1_565 S
C144 C139 1.391 . S
C144 C143 1.400 . S
C144 C145 1.399 . S
C145 C144 1.399 . S
C145 C146 1.388 1_565 S
C145 C148 1.453 1_565 S
C145 C149 1.684 . S
C146 C127 1.722 . S
C146 C145 1.388 1_545 S
C146 C147 1.393 . S
C147 C143 1.395 1_545 S
C147 C146 1.393 . S
C147 C157 1.722 . S
C148 C145 1.453 1_545 S
C148 H172 0.982 . S
C148 H173 0.979 . S
C148 H174 0.977 . S
C149 C145 1.684 . S
C149 H175 0.979 . S
C149 H176 0.980 . S
C149 H177 0.983 . S
C150 H126 0.948 . S
C150 C151 1.391 . S
C150 C155 1.391 . S
C151 C150 1.391 . S
C151 C152 1.391 . S
C152 H129 0.947 . S
C152 C151 1.391 . S
C152 C153 1.392 . S
C153 H130 0.948 . S
C153 C152 1.392 . S
C153 C154 1.425 . S
C154 C153 1.425 . S
C154 C155 1.400 . S
C154 C158 1.395 1_565 S
C155 C150 1.391 . S
C155 C154 1.400 . S
C155 C156 1.399 . S
C156 C155 1.399 . S
C156 C157 1.388 1_565 S
C156 C159 1.453 1_565 S
C156 C160 1.684 . S
C157 C147 1.722 . S
C157 C156 1.388 1_545 S
C157 C158 1.393 . S
C158 C128 1.722 . S
C158 C154 1.395 1_545 S
C158 C157 1.393 . S
C159 H131 0.982 . S
C159 H135 0.979 . S
C159 H136 0.977 . S
C159 C156 1.453 1_545 S
C160 H132 0.979 . S
C160 H133 0.980 . S
C160 H134 0.983 . S
C160 C156 1.684 . S
H161 C179 0.948 . S
H162 C120 0.948 . S
H163 C138 0.979 . S
H164 C138 0.980 . S
H165 C138 0.983 . S
H166 C137 0.982 . S
H167 C137 0.979 . S
H168 C137 0.977 . S
H169 C139 0.948 . S
H170 C141 0.947 . S
H171 C142 0.948 . S
H172 C148 0.982 . S
H173 C148 0.979 . S
H174 C148 0.977 . S
H175 C149 0.979 . S
H176 C149 0.980 . S
H177 C149 0.983 . S
H178 C122 0.947 . S
C179 C122 1.392 . S
C179 C123 1.426 . S
C179 H161 0.948 . S
C180 C181 1.391 . S
C180 C184 1.391 . S
C180 H222 0.948 . S
C181 C180 1.391 . S
C181 C182 1.391 . S
C182 C181 1.391 . S
C182 H238 0.947 . S
C182 C239 1.392 . S
C183 C184 1.391 . S
C183 C187 1.397 . S
C183 C239 1.419 . S
C184 C180 1.391 . S
C184 C183 1.391 . S
C184 C185 1.399 . S
C185 C184 1.399 . S
C185 C188 1.396 . S
C185 C197 1.453 . S
C185 C198 1.684 . S
H186 C210 0.948 . S
C187 C183 1.397 . S
C187 C188 1.394 . S
C187 C206 1.723 . S
C188 C185 1.396 . S
C188 C187 1.394 . S
C188 C218 1.723 . S
H189 C212 0.947 . S
H190 C213 0.948 . S
H191 C219 0.982 . S
H192 C220 0.979 . S
H193 C220 0.980 . S
H194 C220 0.983 . S
H195 C219 0.979 . S
H196 C219 0.977 . S
C197 C185 1.453 . S
C197 H226 0.982 . S
C197 H227 0.979 . S
C197 H228 0.977 . S
C198 C185 1.684 . S
C198 H223 0.979 . S
C198 H224 0.980 . S
C198 H225 0.983 . S
C199 C200 1.391 . S
C199 C204 1.391 . S
C199 H229 0.948 . S
C200 C199 1.391 . S
C200 C201 1.391 . S
C201 C200 1.391 . S
C201 C202 1.392 . S
C201 H230 0.947 . S
C202 C201 1.392 . S
C202 C203 1.419 . S
C202 H231 0.948 . S
C203 C202 1.419 . S
C203 C204 1.391 . S
C203 C207 1.397 . S
C204 C199 1.391 . S
C204 C203 1.391 . S
C204 C205 1.399 . S
C205 C204 1.399 . S
C205 C206 1.396 . S
C205 C208 1.453 . S
C205 C209 1.684 . S
C206 C187 1.723 . S
C206 C205 1.396 . S
C206 C207 1.394 . S
C207 C203 1.397 . S
C207 C206 1.394 . S
C207 C217 1.723 . S
C208 C205 1.453 . S
C208 H232 0.982 . S
C208 H233 0.979 . S
C208 H234 0.977 . S
C209 C205 1.684 . S
C209 H235 0.979 . S
C209 H236 0.980 . S
C209 H237 0.983 . S
C210 H186 0.948 . S
C210 C211 1.391 . S
C210 C215 1.391 . S
C211 C210 1.391 . S
C211 C212 1.391 . S
C212 H189 0.947 . S
C212 C211 1.391 . S
C212 C213 1.392 . S
C213 H190 0.948 . S
C213 C212 1.392 . S
C213 C214 1.419 . S
C214 C213 1.419 . S
C214 C215 1.391 . S
C214 C218 1.397 . S
C215 C210 1.391 . S
C215 C214 1.391 . S
C215 C216 1.399 . S
C216 C215 1.399 . S
C216 C217 1.396 . S
C216 C219 1.453 . S
C216 C220 1.684 . S
C217 C207 1.723 . S
C217 C216 1.396 . S
C217 C218 1.394 . S
C218 C188 1.723 . S
C218 C214 1.397 . S
C218 C217 1.394 . S
C219 H191 0.982 . S
C219 H195 0.979 . S
C219 H196 0.977 . S
C219 C216 1.453 . S
C220 H192 0.979 . S
C220 H193 0.980 . S
C220 H194 0.983 . S
C220 C216 1.684 . S
H221 C239 0.948 . S
H222 C180 0.948 . S
H223 C198 0.979 . S
H224 C198 0.980 . S
H225 C198 0.983 . S
H226 C197 0.982 . S
H227 C197 0.979 . S
H228 C197 0.977 . S
H229 C199 0.948 . S
H230 C201 0.947 . S
H231 C202 0.948 . S
H232 C208 0.982 . S
H233 C208 0.979 . S
H234 C208 0.977 . S
H235 C209 0.979 . S
H236 C209 0.980 . S
H237 C209 0.983 . S
H238 C182 0.947 . S
C239 C182 1.392 . S
C239 C183 1.419 . S
C239 H221 0.948 . S
C240 C241 1.391 . S
C240 C244 1.391 . S
C240 H282 0.948 . S
C241 C240 1.391 . S
C241 C242 1.391 . S
C242 C241 1.391 . S
C242 H298 0.947 . S
C242 C299 1.392 . S
C243 C244 1.391 . S
C243 C247 1.397 . S
C243 C299 1.419 . S
C244 C240 1.391 . S
C244 C243 1.391 . S
C244 C245 1.399 1_554 S
C245 C244 1.399 1_556 S
C245 C248 1.396 1_556 S
C245 C257 1.453 . S
C245 C258 1.684 . S
H246 C270 0.948 . S
C247 C243 1.397 . S
C247 C248 1.394 . S
C247 C266 1.723 . S
C248 C245 1.396 1_554 S
C248 C247 1.394 . S
C248 C278 1.723 1_554 S
H249 C272 0.947 . S
H250 C273 0.948 . S
H251 C279 0.982 . S
H252 C280 0.979 . S
H253 C280 0.980 1_554 S
H254 C280 0.983 . S
H255 C279 0.979 . S
H256 C279 0.977 1_554 S
C257 C245 1.453 . S
C257 H286 0.982 . S
C257 H287 0.979 . S
C257 H288 0.977 . S
C258 C245 1.684 . S
C258 H283 0.979 . S
C258 H284 0.980 . S
C258 H285 0.983 . S
C259 C260 1.391 . S
C259 C264 1.391 . S
C259 H289 0.948 . S
C260 C259 1.391 . S
C260 C261 1.391 . S
C261 C260 1.391 . S
C261 C262 1.392 . S
C261 H290 0.947 . S
C262 C261 1.392 . S
C262 C263 1.419 . S
C262 H291 0.948 . S
C263 C262 1.419 . S
C263 C264 1.391 . S
C263 C267 1.397 . S
C264 C259 1.391 . S
C264 C263 1.391 . S
C264 C265 1.399 . S
C265 C264 1.399 . S
C265 C266 1.396 . S
C265 C268 1.453 . S
C265 C269 1.684 . S
C266 C247 1.723 . S
C266 C265 1.396 . S
C266 C267 1.394 . S
C267 C263 1.397 . S
C267 C266 1.394 . S
C267 C277 1.723 . S
C268 C265 1.453 . S
C268 H292 0.982 . S
C268 H293 0.979 . S
C268 H294 0.977 . S
C269 C265 1.684 . S
C269 H295 0.979 . S
C269 H296 0.980 . S
C269 H297 0.983 . S
C270 H246 0.948 . S
C270 C271 1.391 . S
C270 C275 1.391 . S
C271 C270 1.391 . S
C271 C272 1.391 . S
C272 H249 0.947 . S
C272 C271 1.391 . S
C272 C273 1.392 . S
C273 H250 0.948 . S
C273 C272 1.392 . S
C273 C274 1.419 . S
C274 C273 1.419 . S
C274 C275 1.391 . S
C274 C278 1.397 . S
C275 C270 1.391 . S
C275 C274 1.391 . S
C275 C276 1.399 . S
C276 C275 1.399 . S
C276 C277 1.396 1_556 S
C276 C279 1.453 . S
C276 C280 1.684 . S
C277 C267 1.723 . S
C277 C276 1.396 1_554 S
C277 C278 1.394 1_554 S
C278 C248 1.723 1_556 S
C278 C274 1.397 . S
C278 C277 1.394 1_556 S
C279 H251 0.982 . S
C279 H255 0.979 . S
C279 H256 0.977 1_556 S
C279 C276 1.453 . S
C280 H252 0.979 . S
C280 H253 0.980 1_556 S
C280 H254 0.983 . S
C280 C276 1.684 . S
H281 C299 0.948 . S
H282 C240 0.948 . S
H283 C258 0.979 . S
H284 C258 0.980 . S
H285 C258 0.983 . S
H286 C257 0.982 . S
H287 C257 0.979 . S
H288 C257 0.977 . S
H289 C259 0.948 . S
H290 C261 0.947 . S
H291 C262 0.948 . S
H292 C268 0.982 . S
H293 C268 0.979 . S
H294 C268 0.977 . S
H295 C269 0.979 . S
H296 C269 0.980 . S
H297 C269 0.983 . S
H298 C242 0.947 . S
C299 C242 1.392 . S
C299 C243 1.419 . S
C299 H281 0.948 . S
C300 C301 1.391 . S
C300 C304 1.391 . S
C300 H342 0.948 . S
C301 C300 1.391 . S
C301 C302 1.391 . S
C302 C301 1.391 . S
C302 H358 0.947 . S
C302 C359 1.392 . S
C303 C304 1.398 . S
C303 C307 1.395 1_655 S
C303 C359 1.424 . S
C304 C300 1.391 . S
C304 C303 1.398 . S
C304 C305 1.399 . S
C305 C304 1.399 . S
C305 C308 1.396 1_655 S
C305 C317 1.453 1_655 S
C305 C318 1.684 . S
H306 C330 0.948 . S
C307 C303 1.395 1_455 S
C307 C308 1.395 . S
C307 C326 1.723 . S
C308 C305 1.396 1_455 S
C308 C307 1.395 . S
C308 C338 1.723 . S
H309 C332 0.947 . S
H310 C333 0.948 . S
H311 C339 0.982 . S
H312 C340 0.979 . S
H313 C340 0.980 . S
H314 C340 0.983 . S
H315 C339 0.979 . S
H316 C339 0.977 . S
C317 C305 1.453 1_455 S
C317 H346 0.982 . S
C317 H347 0.979 . S
C317 H348 0.977 . S
C318 C305 1.684 . S
C318 H343 0.979 . S
C318 H344 0.980 . S
C318 H345 0.983 . S
C319 C320 1.391 . S
C319 C324 1.391 . S
C319 H349 0.948 . S
C320 C319 1.391 . S
C320 C321 1.391 . S
C321 C320 1.391 . S
C321 C322 1.392 . S
C321 H350 0.947 . S
C322 C321 1.392 . S
C322 C323 1.424 . S
C322 H351 0.948 . S
C323 C322 1.424 . S
C323 C324 1.398 . S
C323 C327 1.395 1_655 S
C324 C319 1.391 . S
C324 C323 1.398 . S
C324 C325 1.399 . S
C325 C324 1.399 . S
C325 C326 1.396 1_656 S
C325 C328 1.453 1_655 S
C325 C329 1.684 . S
C326 C307 1.723 . S
C326 C325 1.396 1_454 S
C326 C327 1.395 1_554 S
C327 C323 1.395 1_455 S
C327 C326 1.395 1_556 S
C327 C337 1.723 1_556 S
C328 C325 1.453 1_455 S
C328 H352 0.982 . S
C328 H353 0.979 . S
C328 H354 0.977 1_556 S
C329 C325 1.684 . S
C329 H355 0.979 . S
C329 H356 0.980 1_556 S
C329 H357 0.983 . S
C330 H306 0.948 . S
C330 C331 1.391 . S
C330 C335 1.391 . S
C331 C330 1.391 . S
C331 C332 1.391 . S
C332 H309 0.947 . S
C332 C331 1.391 . S
C332 C333 1.392 . S
C333 H310 0.948 . S
C333 C332 1.392 . S
C333 C334 1.424 . S
C334 C333 1.424 . S
C334 C335 1.398 . S
C334 C338 1.395 1_655 S
C335 C330 1.391 . S
C335 C334 1.398 . S
C335 C336 1.399 1_554 S
C336 C335 1.399 1_556 S
C336 C337 1.396 1_656 S
C336 C339 1.453 1_655 S
C336 C340 1.684 . S
C337 C327 1.723 1_554 S
C337 C336 1.396 1_454 S
C337 C338 1.395 . S
C338 C308 1.723 . S
C338 C334 1.395 1_455 S
C338 C337 1.395 . S
C339 H311 0.982 . S
C339 H315 0.979 . S
C339 H316 0.977 . S
C339 C336 1.453 1_455 S
C340 H312 0.979 . S
C340 H313 0.980 . S
C340 H314 0.983 . S
C340 C336 1.684 . S
H341 C359 0.948 . S
H342 C300 0.948 . S
H343 C318 0.979 . S
H344 C318 0.980 . S
H345 C318 0.983 . S
H346 C317 0.982 . S
H347 C317 0.979 . S
H348 C317 0.977 . S
H349 C319 0.948 . S
H350 C321 0.947 . S
H351 C322 0.948 . S
H352 C328 0.982 . S
H353 C328 0.979 . S
H354 C328 0.977 1_554 S
H355 C329 0.979 . S
H356 C329 0.980 1_554 S
H357 C329 0.983 . S
H358 C302 0.947 . S
C359 C302 1.392 . S
C359 C303 1.424 . S
C359 H341 0.948 . S
C360 C361 1.391 . S
C360 C364 1.391 . S
C360 H402 0.948 . S
C361 C360 1.391 . S
C361 C362 1.391 . S
C362 C361 1.391 . S
C362 H418 0.947 . S
C362 C419 1.392 . S
C363 C364 1.400 . S
C363 C367 1.395 1_545 S
C363 C419 1.425 . S
C364 C360 1.391 . S
C364 C363 1.400 . S
C364 C365 1.399 . S
C365 C364 1.399 . S
C365 C368 1.388 1_545 S
C365 C377 1.453 1_545 S
C365 C378 1.684 . S
H366 C390 0.948 . S
C367 C363 1.395 1_565 S
C367 C368 1.393 . S
C367 C386 1.722 1_556 S
C368 C365 1.388 1_565 S
C368 C367 1.393 . S
C368 C398 1.722 1_556 S
H369 C392 0.947 . S
H370 C393 0.948 1_556 S
H371 C399 0.982 . S
H372 C400 0.979 . S
H373 C400 0.980 . S
H374 C400 0.983 . S
H375 C399 0.979 . S
H376 C399 0.977 . S
C377 C365 1.453 1_565 S
C377 H406 0.982 . S
C377 H407 0.979 . S
C377 H408 0.977 . S
C378 C365 1.684 . S
C378 H403 0.979 . S
C378 H404 0.980 . S
C378 H405 0.983 . S
C379 C380 1.391 . S
C379 C384 1.391 . S
C379 H409 0.948 . S
C380 C379 1.391 . S
C380 C381 1.391 . S
C381 C380 1.391 . S
C381 C382 1.392 . S
C381 H410 0.947 . S
C382 C381 1.392 . S
C382 C383 1.426 . S
C382 H411 0.948 . S
C383 C382 1.426 . S
C383 C384 1.400 . S
C383 C387 1.395 1_545 S
C384 C379 1.391 . S
C384 C383 1.400 . S
C384 C385 1.399 . S
C385 C384 1.399 . S
C385 C386 1.388 1_545 S
C385 C388 1.453 1_545 S
C385 C389 1.684 . S
C386 C367 1.722 1_554 S
C386 C385 1.388 1_565 S
C386 C387 1.393 . S
C387 C383 1.395 1_565 S
C387 C386 1.393 . S
C387 C397 1.722 . S
C388 C385 1.453 1_565 S
C388 H412 0.982 . S
C388 H413 0.979 . S
C388 H414 0.977 . S
C389 C385 1.684 . S
C389 H415 0.979 . S
C389 H416 0.985 . S
C389 H417 0.983 . S
C390 H366 0.948 . S
C390 C391 1.391 . S
C390 C395 1.391 . S
C391 C390 1.391 . S
C391 C392 1.391 . S
C392 H369 0.947 . S
C392 C391 1.391 . S
C392 C393 1.392 . S
C393 H370 0.948 1_554 S
C393 C392 1.392 . S
C393 C394 1.425 . S
C394 C393 1.425 . S
C394 C395 1.400 . S
C394 C398 1.395 1_545 S
C395 C390 1.391 . S
C395 C394 1.400 . S
C395 C396 1.399 . S
C396 C395 1.399 . S
C396 C397 1.388 1_545 S
C396 C399 1.453 1_545 S
C396 C400 1.684 . S
C397 C387 1.722 . S
C397 C396 1.388 1_565 S
C397 C398 1.393 . S
C398 C368 1.722 1_554 S
C398 C394 1.395 1_565 S
C398 C397 1.393 . S
C399 H371 0.982 . S
C399 H375 0.979 . S
C399 H376 0.977 . S
C399 C396 1.453 1_565 S
C400 H372 0.979 . S
C400 H373 0.980 . S
C400 H374 0.983 . S
C400 C396 1.684 . S
H401 C419 0.948 . S
H402 C360 0.948 . S
H403 C378 0.979 . S
H404 C378 0.980 . S
H405 C378 0.983 . S
H406 C377 0.982 . S
H407 C377 0.979 . S
H408 C377 0.977 . S
H409 C379 0.948 . S
H410 C381 0.947 . S
H411 C382 0.948 . S
H412 C388 0.982 . S
H413 C388 0.979 . S
H414 C388 0.977 . S
H415 C389 0.979 . S
H416 C389 0.985 . S
H417 C389 0.983 . S
H418 C362 0.947 . S
C419 C362 1.392 . S
C419 C363 1.425 . S
C419 H401 0.948 . S
C420 C421 1.391 . S
C420 C424 1.391 . S
C420 H462 0.948 . S
C421 C420 1.391 . S
C421 C422 1.391 . S
C422 C421 1.391 . S
C422 H478 0.947 . S
C422 C479 1.392 . S
C423 C424 1.391 . S
C423 C427 1.397 . S
C423 C479 1.419 . S
C424 C420 1.391 . S
C424 C423 1.391 . S
C424 C425 1.399 . S
C425 C424 1.399 . S
C425 C428 1.396 . S
C425 C437 1.453 . S
C425 C438 1.684 . S
H426 C450 0.948 . S
C427 C423 1.397 . S
C427 C428 1.394 . S
C427 C446 1.723 1_556 S
C428 C425 1.396 . S
C428 C427 1.394 . S
C428 C458 1.723 1_556 S
H429 C452 0.947 . S
H430 C453 0.948 1_556 S
H431 C459 0.982 . S
H432 C460 0.979 . S
H433 C460 0.980 . S
H434 C460 0.983 . S
H435 C459 0.979 . S
H436 C459 0.977 . S
C437 C425 1.453 . S
C437 H466 0.982 . S
C437 H467 0.979 . S
C437 H468 0.977 . S
C438 C425 1.684 . S
C438 H463 0.979 . S
C438 H464 0.980 . S
C438 H465 0.983 . S
C439 C440 1.391 . S
C439 C444 1.391 . S
C439 H469 0.948 . S
C440 C439 1.391 . S
C440 C441 1.391 . S
C441 C440 1.391 . S
C441 C442 1.392 . S
C441 H470 0.947 . S
C442 C441 1.392 . S
C442 C443 1.419 . S
C442 H471 0.948 . S
C443 C442 1.419 . S
C443 C444 1.391 . S
C443 C447 1.397 . S
C444 C439 1.391 . S
C444 C443 1.391 . S
C444 C445 1.399 . S
C445 C444 1.399 . S
C445 C446 1.396 . S
C445 C448 1.453 . S
C445 C449 1.684 . S
C446 C427 1.723 1_554 S
C446 C445 1.396 . S
C446 C447 1.394 . S
C447 C443 1.397 . S
C447 C446 1.394 . S
C447 C457 1.723 . S
C448 C445 1.453 . S
C448 H472 0.982 . S
C448 H473 0.979 . S
C448 H474 0.977 . S
C449 C445 1.684 . S
C449 H475 0.979 . S
C449 H476 0.980 1_554 S
C449 H477 0.983 . S
C450 H426 0.948 . S
C450 C451 1.391 . S
C450 C455 1.391 . S
C451 C450 1.391 . S
C451 C452 1.391 . S
C452 H429 0.947 . S
C452 C451 1.391 . S
C452 C453 1.392 . S
C453 H430 0.948 1_554 S
C453 C452 1.392 . S
C453 C454 1.419 . S
C454 C453 1.419 . S
C454 C455 1.391 . S
C454 C458 1.397 . S
C455 C450 1.391 . S
C455 C454 1.391 . S
C455 C456 1.399 . S
C456 C455 1.399 . S
C456 C457 1.396 . S
C456 C459 1.453 . S
C456 C460 1.684 . S
C457 C447 1.723 . S
C457 C456 1.396 . S
C457 C458 1.394 . S
C458 C428 1.723 1_554 S
C458 C454 1.397 . S
C458 C457 1.394 . S
C459 H431 0.982 . S
C459 H435 0.979 . S
C459 H436 0.977 . S
C459 C456 1.453 . S
C460 H432 0.979 . S
C460 H433 0.980 . S
C460 H434 0.983 . S
C460 C456 1.684 . S
H461 C479 0.948 . S
H462 C420 0.948 . S
H463 C438 0.979 . S
H464 C438 0.980 . S
H465 C438 0.983 . S
H466 C437 0.982 . S
H467 C437 0.979 . S
H468 C437 0.977 . S
H469 C439 0.948 . S
H470 C441 0.947 . S
H471 C442 0.948 . S
H472 C448 0.982 . S
H473 C448 0.979 . S
H474 C448 0.977 . S
H475 C449 0.979 . S
H476 C449 0.980 1_556 S
H477 C449 0.983 . S
H478 C422 0.947 . S
C479 C422 1.392 . S
C479 C423 1.419 . S
C479 H461 0.948 . S
Tb480 C482 2.809 . S
Tb480 O500 2.484 . S
Tb480 O501 2.440 . S
Tb480 O502 2.658 1_565 S
Tb480 O503 2.409 . S
Tb480 O504 2.378 . S
Tb480 O508 2.325 1_455 S
Tb480 O511 2.341 1_565 S
Tb481 C491 2.809 . S
Tb481 O502 2.325 1_655 S
Tb481 O505 2.341 1_545 S
Tb481 O506 2.484 . S
Tb481 O507 2.440 . S
Tb481 O508 2.658 1_545 S
Tb481 O509 2.409 . S
Tb481 O510 2.378 . S
C482 Tb480 2.809 . S
C482 C483 1.514 . S
C482 O500 1.248 . S
C482 O501 1.266 . S
C483 C482 1.514 . S
C483 C484 1.359 . S
C483 C488 1.348 . S
C484 C483 1.359 . S
C484 C485 1.380 . S
C484 H512 0.929 1_455 S
C485 C484 1.380 . S
C485 C486 1.347 . S
C485 H513 0.931 1_455 S
C486 C485 1.347 . S
C486 C487 1.369 . S
C487 C486 1.369 . S
C487 C488 1.408 . S
C487 H514 0.930 . S
C488 C483 1.348 . S
C488 C487 1.408 . S
C488 H515 0.930 . S
C489 O502 1.263 1_565 S
C489 O503 1.280 . S
C490 O504 1.236 1_655 S
C490 O505 1.266 . S
C491 Tb481 2.809 . S
C491 C492 1.514 . S
C491 O506 1.248 . S
C491 O507 1.266 . S
C492 C491 1.514 . S
C492 C493 1.359 . S
C492 C497 1.348 . S
C493 C492 1.359 . S
C493 C494 1.380 . S
C493 H516 0.929 1_655 S
C494 C493 1.380 . S
C494 C495 1.347 . S
C494 H517 0.931 1_655 S
C495 C494 1.347 . S
C495 C496 1.369 . S
C496 C495 1.369 . S
C496 C497 1.408 . S
C496 H518 0.930 . S
C497 C492 1.348 . S
C497 C496 1.408 . S
C497 H519 0.930 . S
C498 O508 1.281 1_545 S
C498 O509 1.254 . S
C499 O510 1.236 1_455 S
C499 O511 1.266 . S
O500 Tb480 2.484 . S
O500 C482 1.248 . S
O501 Tb480 2.440 . S
O501 C482 1.266 . S
O502 Tb480 2.658 1_545 S
O502 Tb481 2.325 1_455 S
O502 C489 1.263 1_545 S
O503 Tb480 2.409 . S
O503 C489 1.280 . S
O504 Tb480 2.378 . S
O504 C490 1.236 1_455 S
O505 Tb481 2.341 1_565 S
O505 C490 1.266 . S
O506 Tb481 2.484 . S
O506 C491 1.248 . S
O507 Tb481 2.440 . S
O507 C491 1.266 . S
O508 Tb480 2.325 1_655 S
O508 Tb481 2.658 1_565 S
O508 C498 1.281 1_565 S
O509 Tb481 2.409 . S
O509 C498 1.254 . S
O510 Tb481 2.378 . S
O510 C499 1.236 1_655 S
O511 Tb480 2.341 1_545 S
O511 C499 1.266 . S
H512 C484 0.929 1_655 S
H513 C485 0.931 1_655 S
H514 C487 0.930 . S
H515 C488 0.930 . S
H516 C493 0.929 1_455 S
H517 C494 0.931 1_455 S
H518 C496 0.930 . S
H519 C497 0.930 . S
Tb520 C522 2.809 . S
Tb520 O540 2.484 . S
Tb520 O541 2.440 . S
Tb520 O542 2.658 . S
Tb520 O543 2.409 . S
Tb520 O544 2.378 . S
Tb520 O548 2.325 1_545 S
Tb520 O551 2.341 . S
Tb521 C531 2.809 . S
Tb521 O542 2.325 1_565 S
Tb521 O545 2.341 . S
Tb521 O546 2.511 . S
Tb521 O547 2.440 . S
Tb521 O548 2.658 . S
Tb521 O549 2.409 . S
Tb521 O550 2.378 . S
C522 Tb520 2.809 . S
C522 C523 1.514 . S
C522 O540 1.248 . S
C522 O541 1.266 . S
C523 C522 1.514 . S
C523 C524 1.359 . S
C523 C528 1.348 . S
C524 C523 1.359 . S
C524 C525 1.380 . S
C524 H552 0.929 1_545 S
C525 C524 1.380 . S
C525 C526 1.347 . S
C525 H553 0.931 1_545 S
C526 C525 1.347 . S
C526 C527 1.369 . S
C527 C526 1.369 . S
C527 C528 1.408 . S
C527 H554 0.930 . S
C528 C523 1.348 . S
C528 C527 1.408 . S
C528 H555 0.930 . S
C529 O542 1.281 . S
C529 O543 1.254 . S
C530 O544 1.236 1_565 S
C530 O545 1.266 . S
C531 Tb521 2.809 . S
C531 C532 1.514 . S
C531 O546 1.308 . S
C531 O547 1.266 . S
C532 C531 1.514 . S
C532 C533 1.359 . S
C532 C537 1.348 . S
C533 C532 1.359 . S
C533 C534 1.380 . S
C533 H556 0.929 1_565 S
C534 C533 1.380 . S
C534 C535 1.347 . S
C534 H557 0.931 1_565 S
C535 C534 1.347 . S
C535 C536 1.369 . S
C536 C535 1.369 . S
C536 C537 1.408 . S
C536 H558 0.930 . S
C537 C532 1.348 . S
C537 C536 1.408 . S
C537 H559 0.930 . S
C538 O548 1.281 . S
C538 O549 1.254 . S
C539 O550 1.236 1_545 S
C539 O551 1.266 . S
O540 Tb520 2.484 . S
O540 C522 1.248 . S
O541 Tb520 2.440 . S
O541 C522 1.266 . S
O542 Tb520 2.658 . S
O542 Tb521 2.325 1_545 S
O542 C529 1.281 . S
O543 Tb520 2.409 . S
O543 C529 1.254 . S
O544 Tb520 2.378 . S
O544 C530 1.236 1_545 S
O545 Tb521 2.341 . S
O545 C530 1.266 . S
O546 Tb521 2.511 . S
O546 C531 1.308 . S
O547 Tb521 2.440 . S
O547 C531 1.266 . S
O548 Tb520 2.325 1_565 S
O548 Tb521 2.658 . S
O548 C538 1.281 . S
O549 Tb521 2.409 . S
O549 C538 1.254 . S
O550 Tb521 2.378 . S
O550 C539 1.236 1_565 S
O551 Tb520 2.341 . S
O551 C539 1.266 . S
H552 C524 0.929 1_565 S
H553 C525 0.931 1_565 S
H554 C527 0.930 . S
H555 C528 0.930 . S
H556 C533 0.929 1_545 S
H557 C534 0.931 1_545 S
H558 C536 0.930 . S
H559 C537 0.930 . S
Tb560 C562 2.809 . S
Tb560 O580 2.484 . S
Tb560 O581 2.440 . S
Tb560 O582 2.658 . S
Tb560 O583 2.409 . S
Tb560 O584 2.378 . S
Tb560 O588 2.325 . S
Tb560 O591 2.341 . S
Tb561 C571 2.809 . S
Tb561 O582 2.325 . S
Tb561 O585 2.341 . S
Tb561 O586 2.484 . S
Tb561 O587 2.440 . S
Tb561 O588 2.658 . S
Tb561 O589 2.409 . S
Tb561 O590 2.378 . S
C562 Tb560 2.809 . S
C562 C563 1.514 . S
C562 O580 1.248 . S
C562 O581 1.266 . S
C563 C562 1.514 . S
C563 C564 1.359 . S
C563 C568 1.348 . S
C564 C563 1.359 . S
C564 C565 1.380 . S
C564 H592 0.929 . S
C565 C564 1.380 . S
C565 C566 1.347 . S
C565 H593 0.931 . S
C566 C565 1.347 . S
C566 C567 1.369 . S
C567 C566 1.369 . S
C567 C568 1.408 . S
C567 H594 0.930 . S
C568 C563 1.348 . S
C568 C567 1.408 . S
C568 H595 0.930 . S
C569 O582 1.281 . S
C569 O583 1.254 . S
C570 O584 1.236 . S
C570 O585 1.266 . S
C571 Tb561 2.809 . S
C571 C572 1.514 . S
C571 O586 1.248 . S
C571 O587 1.266 . S
C572 C571 1.514 . S
C572 C573 1.359 . S
C572 C577 1.348 . S
C573 C572 1.359 . S
C573 C574 1.380 . S
C573 H596 0.929 . S
C574 C573 1.380 . S
C574 C575 1.347 . S
C574 H597 0.931 . S
C575 C574 1.347 . S
C575 C576 1.369 . S
C576 C575 1.369 . S
C576 C577 1.408 . S
C576 H598 0.930 . S
C577 C572 1.348 . S
C577 C576 1.408 . S
C577 H599 0.930 . S
C578 O588 1.281 . S
C578 O589 1.254 . S
C579 O590 1.236 . S
C579 O591 1.266 . S
O580 Tb560 2.484 . S
O580 C562 1.248 . S
O581 Tb560 2.440 . S
O581 C562 1.266 . S
O582 Tb560 2.658 . S
O582 Tb561 2.325 . S
O582 C569 1.281 . S
O583 Tb560 2.409 . S
O583 C569 1.254 . S
O584 Tb560 2.378 . S
O584 C570 1.236 . S
O585 Tb561 2.341 . S
O585 C570 1.266 . S
O586 Tb561 2.484 . S
O586 C571 1.248 . S
O587 Tb561 2.440 . S
O587 C571 1.266 . S
O588 Tb560 2.325 . S
O588 Tb561 2.658 . S
O588 C578 1.281 . S
O589 Tb561 2.409 . S
O589 C578 1.254 . S
O590 Tb561 2.378 . S
O590 C579 1.236 . S
O591 Tb560 2.341 . S
O591 C579 1.266 . S
H592 C564 0.929 . S
H593 C565 0.931 . S
H594 C567 0.930 . S
H595 C568 0.930 . S
H596 C573 0.929 . S
H597 C574 0.931 . S
H598 C576 0.930 . S
H599 C577 0.930 . S
Tb600 C602 2.809 . S
Tb600 O620 2.484 . S
Tb600 O621 2.440 . S
Tb600 O622 2.658 1_655 S
Tb600 O623 2.409 . S
Tb600 O624 2.378 . S
Tb600 O628 2.325 . S
Tb600 O631 2.341 1_655 S
Tb601 C611 2.809 . S
Tb601 O622 2.325 . S
Tb601 O625 2.341 1_455 S
Tb601 O626 2.484 . S
Tb601 O627 2.440 . S
Tb601 O628 2.658 1_455 S
Tb601 O629 2.409 . S
Tb601 O630 2.378 . S
C602 Tb600 2.809 . S
C602 C603 1.514 . S
C602 O620 1.248 . S
C602 O621 1.266 . S
C603 C602 1.514 . S
C603 C604 1.359 . S
C603 C608 1.348 . S
C604 C603 1.359 . S
C604 C605 1.380 . S
C604 H632 0.929 . S
C605 C604 1.380 . S
C605 C606 1.347 . S
C605 H633 0.931 . S
C606 C605 1.347 . S
C606 C607 1.369 . S
C607 C606 1.369 . S
C607 C608 1.408 . S
C607 H634 0.930 . S
C608 C603 1.348 . S
C608 C607 1.408 . S
C608 H635 0.930 . S
C609 O622 1.270 1_655 S
C609 O623 1.269 . S
C610 O624 1.236 . S
C610 O625 1.266 . S
C611 Tb601 2.809 . S
C611 C612 1.514 . S
C611 O626 1.248 . S
C611 O627 1.266 . S
C612 C611 1.514 . S
C612 C613 1.359 . S
C612 C617 1.348 . S
C613 C612 1.359 . S
C613 C614 1.380 . S
C613 H636 0.929 . S
C614 C613 1.380 . S
C614 C615 1.347 . S
C614 H637 0.931 . S
C615 C614 1.347 . S
C615 C616 1.369 . S
C616 C615 1.369 . S
C616 C617 1.408 . S
C616 H638 0.930 . S
C617 C612 1.348 . S
C617 C616 1.408 . S
C617 H639 0.930 . S
C618 O628 1.266 1_455 S
C618 O629 1.276 . S
C619 O630 1.236 . S
C619 O631 1.266 . S
O620 Tb600 2.484 . S
O620 C602 1.248 . S
O621 Tb600 2.440 . S
O621 C602 1.266 . S
O622 Tb600 2.658 1_455 S
O622 Tb601 2.325 . S
O622 C609 1.270 1_455 S
O623 Tb600 2.409 . S
O623 C609 1.269 . S
O624 Tb600 2.378 . S
O624 C610 1.236 . S
O625 Tb601 2.341 1_655 S
O625 C610 1.266 . S
O626 Tb601 2.484 . S
O626 C611 1.248 . S
O627 Tb601 2.440 . S
O627 C611 1.266 . S
O628 Tb600 2.325 . S
O628 Tb601 2.658 1_655 S
O628 C618 1.266 1_655 S
O629 Tb601 2.409 . S
O629 C618 1.276 . S
O630 Tb601 2.378 . S
O630 C619 1.236 . S
O631 Tb600 2.341 1_455 S
O631 C619 1.266 . S
H632 C604 0.929 . S
H633 C605 0.931 . S
H634 C607 0.930 . S
H635 C608 0.930 . S
H636 C613 0.929 . S
H637 C614 0.931 . S
H638 C616 0.930 . S
H639 C617 0.930 . S
H640 C658 0.951 . S
H641 C660 0.951 . S
H642 C662 0.950 . S
H643 C663 0.950 . S
H644 C665 0.950 . S
H645 C668 0.950 . S
H646 C669 0.950 . S
H647 C671 0.950 . S
H648 C672 0.950 . S
H649 C673 0.951 . S
H650 C675 0.951 . S
H651 C677 0.950 . S
H652 C678 0.950 . S
H653 C680 0.950 . S
H654 C683 0.950 . S
H655 C684 0.950 . S
H656 C686 0.950 . S
H657 C687 0.950 . S
C658 H640 0.951 . S
C658 C659 1.363 1_565 S
C658 C660 1.388 . S
C659 C658 1.363 1_545 S
C659 C663 1.387 . S
C660 H641 0.951 . S
C660 C658 1.388 . S
C660 C661 1.381 . S
C661 C660 1.381 . S
C661 C662 1.398 1_565 S
C661 C664 1.498 . S
C662 H642 0.950 . S
C662 C661 1.398 1_545 S
C662 C663 1.374 . S
C663 H643 0.950 . S
C663 C659 1.387 . S
C663 C662 1.374 . S
C664 C661 1.498 . S
C664 C665 1.369 1_565 S
C664 C666 1.393 . S
C665 H644 0.950 . S
C665 C664 1.369 1_545 S
C665 C681 1.377 . S
C666 C664 1.393 . S
C666 C667 1.524 . S
C666 C680 1.377 . S
C667 C666 1.524 . S
C667 C668 1.397 . S
C667 C672 1.363 . S
C668 H645 0.950 . S
C668 C667 1.397 . S
C668 C669 1.334 . S
C669 H646 0.950 . S
C669 C668 1.334 . S
C669 C670 1.287 . S
C670 C669 1.287 . S
C670 C671 1.524 . S
C670 H689 0.913 . S
C671 H647 0.950 . S
C671 C670 1.524 . S
C671 C672 1.415 . S
C672 H648 0.950 . S
C672 C667 1.363 . S
C672 C671 1.415 . S
C673 H649 0.951 . S
C673 C674 1.382 . S
C673 C675 1.388 . S
C674 C673 1.382 . S
C674 C678 1.369 1_545 S
C675 H650 0.951 . S
C675 C673 1.388 . S
C675 C676 1.366 . S
C676 C675 1.366 . S
C676 C677 1.414 1_545 S
C676 C679 1.501 . S
C677 H651 0.950 . S
C677 C676 1.414 1_565 S
C677 C678 1.374 . S
C678 H652 0.950 . S
C678 C674 1.369 1_565 S
C678 C677 1.374 . S
C679 C676 1.501 . S
C679 C680 1.325 1_545 S
C679 C681 1.436 . S
C680 H653 0.950 . S
C680 C666 1.377 . S
C680 C679 1.325 1_565 S
C681 C665 1.377 . S
C681 C679 1.436 . S
C681 C682 1.524 . S
C682 C681 1.524 . S
C682 C683 1.397 . S
C682 C687 1.363 . S
C683 H654 0.950 . S
C683 C682 1.397 . S
C683 C684 1.334 . S
C684 H655 0.950 . S
C684 C683 1.334 . S
C684 C685 1.287 . S
C685 C684 1.287 . S
C685 C686 1.524 . S
C685 H688 0.999 . S
C686 H656 0.950 . S
C686 C685 1.524 . S
C686 C687 1.415 . S
C687 H657 0.950 . S
C687 C682 1.363 . S
C687 C686 1.415 . S
H688 C685 0.999 . S
H689 C670 0.913 . S
H690 C708 0.951 . S
H691 C710 0.951 . S
H692 C712 0.950 . S
H693 C713 0.950 . S
H694 C715 0.950 . S
H695 C718 0.950 . S
H696 C719 0.950 . S
H697 C721 0.950 . S
H698 C722 0.950 . S
H699 C723 0.951 . S
H700 C725 0.951 . S
H701 C727 0.950 . S
H702 C728 0.950 . S
H703 C730 0.950 . S
H704 C733 0.950 . S
H705 C734 0.950 . S
H706 C736 0.950 . S
H707 C737 0.950 . S
C708 H690 0.951 . S
C708 C709 1.366 . S
C708 C710 1.388 . S
C709 C708 1.366 . S
C709 C713 1.385 . S
C710 H691 0.951 . S
C710 C708 1.388 . S
C710 C711 1.366 . S
C711 C710 1.366 . S
C711 C712 1.414 . S
C711 C714 1.499 . S
C712 H692 0.950 . S
C712 C711 1.414 . S
C712 C713 1.374 . S
C713 H693 0.950 . S
C713 C709 1.385 . S
C713 C712 1.374 . S
C714 C711 1.499 . S
C714 C715 1.373 . S
C714 C716 1.389 . S
C715 H694 0.950 . S
C715 C714 1.373 . S
C715 C731 1.377 . S
C716 C714 1.389 . S
C716 C717 1.524 . S
C716 C730 1.377 . S
C717 C716 1.524 . S
C717 C718 1.397 . S
C717 C722 1.363 . S
C718 H695 0.950 . S
C718 C717 1.397 . S
C718 C719 1.334 . S
C719 H696 0.950 . S
C719 C718 1.334 . S
C719 C720 1.287 . S
C720 C719 1.287 . S
C720 C721 1.524 . S
C720 H739 0.913 . S
C721 H697 0.950 . S
C721 C720 1.524 . S
C721 C722 1.415 . S
C722 H698 0.950 . S
C722 C717 1.363 . S
C722 C721 1.415 . S
C723 H699 0.951 . S
C723 C724 1.366 . S
C723 C725 1.388 . S
C724 C723 1.366 . S
C724 C728 1.385 . S
C725 H700 0.951 . S
C725 C723 1.388 . S
C725 C726 1.366 . S
C726 C725 1.366 . S
C726 C727 1.414 . S
C726 C729 1.499 . S
C727 H701 0.950 . S
C727 C726 1.414 . S
C727 C728 1.374 . S
C728 H702 0.950 . S
C728 C724 1.385 . S
C728 C727 1.374 . S
C729 C726 1.499 . S
C729 C730 1.373 . S
C729 C731 1.389 . S
C730 H703 0.950 . S
C730 C716 1.377 . S
C730 C729 1.373 . S
C731 C715 1.377 . S
C731 C729 1.389 . S
C731 C732 1.524 . S
C732 C731 1.524 . S
C732 C733 1.397 . S
C732 C737 1.363 . S
C733 H704 0.950 . S
C733 C732 1.397 . S
C733 C734 1.334 . S
C734 H705 0.950 . S
C734 C733 1.334 . S
C734 C735 1.287 . S
C735 C734 1.287 . S
C735 C736 1.524 . S
C735 H738 0.999 . S
C736 H706 0.950 . S
C736 C735 1.524 . S
C736 C737 1.415 . S
C737 H707 0.950 . S
C737 C732 1.363 . S
C737 C736 1.415 . S
H738 C735 0.999 . S
H739 C720 0.913 . S
H740 C758 0.951 . S
H741 C760 0.951 . S
H742 C762 0.950 . S
H743 C763 0.950 . S
H744 C765 0.950 . S
H745 C768 0.950 . S
H746 C769 0.950 . S
H747 C771 0.950 . S
H748 C772 0.950 . S
H749 C773 0.951 . S
H750 C775 0.951 . S
H751 C777 0.950 . S
H752 C778 0.950 . S
H753 C780 0.950 . S
H754 C783 0.950 . S
H755 C784 0.950 . S
H756 C786 0.950 . S
H757 C787 0.950 . S
C758 H740 0.951 . S
C758 C759 1.366 . S
C758 C760 1.388 . S
C759 C758 1.366 . S
C759 C763 1.385 . S
C760 H741 0.951 . S
C760 C758 1.388 . S
C760 C761 1.366 . S
C761 C760 1.366 . S
C761 C762 1.414 . S
C761 C764 1.499 . S
C762 H742 0.950 . S
C762 C761 1.414 . S
C762 C763 1.374 . S
C763 H743 0.950 . S
C763 C759 1.385 . S
C763 C762 1.374 . S
C764 C761 1.499 . S
C764 C765 1.373 . S
C764 C766 1.389 . S
C765 H744 0.950 . S
C765 C764 1.373 . S
C765 C781 1.377 . S
C766 C764 1.389 . S
C766 C767 1.524 . S
C766 C780 1.377 . S
C767 C766 1.524 . S
C767 C768 1.397 . S
C767 C772 1.363 . S
C768 H745 0.950 . S
C768 C767 1.397 . S
C768 C769 1.334 . S
C769 H746 0.950 . S
C769 C768 1.334 . S
C769 C770 1.287 . S
C770 C769 1.287 . S
C770 C771 1.524 . S
C770 H789 0.913 . S
C771 H747 0.950 . S
C771 C770 1.524 . S
C771 C772 1.415 . S
C772 H748 0.950 . S
C772 C767 1.363 . S
C772 C771 1.415 . S
C773 H749 0.951 . S
C773 C774 1.366 . S
C773 C775 1.388 . S
C774 C773 1.366 . S
C774 C778 1.385 . S
C775 H750 0.951 . S
C775 C773 1.388 . S
C775 C776 1.366 . S
C776 C775 1.366 . S
C776 C777 1.414 . S
C776 C779 1.499 . S
C777 H751 0.950 . S
C777 C776 1.414 . S
C777 C778 1.374 . S
C778 H752 0.950 . S
C778 C774 1.385 . S
C778 C777 1.374 . S
C779 C776 1.499 . S
C779 C780 1.373 . S
C779 C781 1.389 . S
C780 H753 0.950 . S
C780 C766 1.377 . S
C780 C779 1.373 . S
C781 C765 1.377 . S
C781 C779 1.389 . S
C781 C782 1.524 . S
C782 C781 1.524 . S
C782 C783 1.397 . S
C782 C787 1.363 . S
C783 H754 0.950 . S
C783 C782 1.397 . S
C783 C784 1.334 . S
C784 H755 0.950 . S
C784 C783 1.334 . S
C784 C785 1.287 . S
C785 C784 1.287 . S
C785 C786 1.524 . S
C785 H788 0.999 . S
C786 H756 0.950 . S
C786 C785 1.524 . S
C786 C787 1.415 . S
C787 H757 0.950 . S
C787 C782 1.363 . S
C787 C786 1.415 . S
H788 C785 0.999 . S
H789 C770 0.913 . S
H790 C808 0.951 . S
H791 C810 0.951 . S
H792 C812 0.950 . S
H793 C813 0.950 . S
H794 C815 0.950 . S
H795 C818 0.950 . S
H796 C819 0.950 . S
H797 C821 0.950 . S
H798 C822 0.950 . S
H799 C823 0.951 . S
H800 C825 0.951 . S
H801 C827 0.950 . S
H802 C828 0.950 . S
H803 C830 0.950 . S
H804 C833 0.950 . S
H805 C834 0.950 . S
H806 C836 0.950 . S
H807 C837 0.950 . S
C808 H790 0.951 . S
C808 C809 1.369 . S
C808 C810 1.388 . S
C809 C808 1.369 . S
C809 C813 1.382 1_455 S
C810 H791 0.951 . S
C810 C808 1.388 . S
C810 C811 1.404 . S
C811 C810 1.404 . S
C811 C812 1.375 1_455 S
C811 C814 1.498 . S
C812 H792 0.950 . S
C812 C811 1.375 1_655 S
C812 C813 1.374 . S
C813 H793 0.950 . S
C813 C809 1.382 1_655 S
C813 C812 1.374 . S
C814 C811 1.498 . S
C814 C815 1.350 1_455 S
C814 C816 1.412 . S
C815 H794 0.950 . S
C815 C814 1.350 1_655 S
C815 C831 1.377 . S
C816 C814 1.412 . S
C816 C817 1.524 . S
C816 C830 1.377 . S
C817 C816 1.524 . S
C817 C818 1.397 . S
C817 C822 1.363 . S
C818 H795 0.950 . S
C818 C817 1.397 . S
C818 C819 1.334 . S
C819 H796 0.950 . S
C819 C818 1.334 . S
C819 C820 1.287 . S
C820 C819 1.287 . S
C820 C821 1.524 . S
C820 H839 0.913 . S
C821 H797 0.950 . S
C821 C820 1.524 . S
C821 C822 1.415 . S
C822 H798 0.950 . S
C822 C817 1.363 . S
C822 C821 1.415 . S
C823 H799 0.951 . S
C823 C824 1.326 1_655 S
C823 C825 1.388 . S
C824 C823 1.326 1_455 S
C824 C828 1.425 . S
C825 H800 0.951 . S
C825 C823 1.388 . S
C825 C826 1.361 1_655 S
C826 C825 1.361 1_455 S
C826 C827 1.419 . S
C826 C829 1.498 . S
C827 H801 0.950 . S
C827 C826 1.419 . S
C827 C828 1.374 . S
C828 H802 0.950 . S
C828 C824 1.425 . S
C828 C827 1.374 . S
C829 C826 1.498 . S
C829 C830 1.399 . S
C829 C831 1.364 1_455 S
C830 H803 0.950 . S
C830 C816 1.377 . S
C830 C829 1.399 . S
C831 C815 1.377 . S
C831 C829 1.364 1_655 S
C831 C832 1.524 . S
C832 C831 1.524 . S
C832 C833 1.397 . S
C832 C837 1.363 . S
C833 H804 0.950 . S
C833 C832 1.397 . S
C833 C834 1.334 . S
C834 H805 0.950 . S
C834 C833 1.334 . S
C834 C835 1.287 . S
C835 C834 1.287 . S
C835 C836 1.524 . S
C835 H838 0.999 . S
C836 H806 0.950 . S
C836 C835 1.524 . S
C836 C837 1.415 . S
C837 H807 0.950 . S
C837 C832 1.363 . S
C837 C836 1.415 . S
H838 C835 0.999 . S
H839 C820 0.913 . S
H840 C858 0.951 . S
H841 C860 0.951 . S
H842 C862 0.950 . S
H843 C863 0.950 . S
H844 C865 0.950 . S
H845 C868 0.950 . S
H846 C869 0.950 . S
H847 C871 0.950 1_556 S
H848 C872 0.950 . S
H849 C873 0.951 . S
H850 C875 0.951 . S
H851 C877 0.950 . S
H852 C878 0.950 . S
H853 C880 0.950 . S
H854 C883 0.950 . S
H855 C884 0.950 . S
H856 C886 0.950 . S
H857 C887 0.950 1_554 S
C858 H840 0.951 . S
C858 C859 1.366 1_565 S
C858 C860 1.388 . S
C859 C858 1.366 1_545 S
C859 C863 1.384 . S
C860 H841 0.951 . S
C860 C858 1.388 . S
C860 C861 1.389 . S
C861 C860 1.389 . S
C861 C862 1.390 1_565 S
C861 C864 1.499 . S
C862 H842 0.950 . S
C862 C861 1.390 1_545 S
C862 C863 1.374 . S
C863 H843 0.950 . S
C863 C859 1.384 . S
C863 C862 1.374 . S
C864 C861 1.499 . S
C864 C865 1.334 1_565 S
C864 C866 1.427 . S
C865 H844 0.950 . S
C865 C864 1.334 1_545 S
C865 C881 1.377 1_554 S
C866 C864 1.427 . S
C866 C867 1.524 . S
C866 C880 1.377 1_554 S
C867 C866 1.524 . S
C867 C868 1.397 . S
C867 C872 1.363 1_554 S
C868 H845 0.950 . S
C868 C867 1.397 . S
C868 C869 1.334 . S
C869 H846 0.950 . S
C869 C868 1.334 . S
C869 C870 1.287 . S
C870 C869 1.287 . S
C870 C871 1.524 . S
C870 H889 0.913 . S
C871 H847 0.950 1_554 S
C871 C870 1.524 . S
C871 C872 1.415 1_554 S
C872 H848 0.950 . S
C872 C867 1.363 1_556 S
C872 C871 1.415 1_556 S
C873 H849 0.951 . S
C873 C874 1.358 1_545 S
C873 C875 1.388 . S
C874 C873 1.358 1_565 S
C874 C878 1.393 . S
C875 H850 0.951 . S
C875 C873 1.388 . S
C875 C876 1.380 . S
C876 C875 1.380 . S
C876 C877 1.399 1_545 S
C876 C879 1.499 . S
C877 H851 0.950 . S
C877 C876 1.399 1_565 S
C877 C878 1.374 . S
C878 H852 0.950 . S
C878 C874 1.393 . S
C878 C877 1.374 . S
C879 C876 1.499 . S
C879 C880 1.352 1_545 S
C879 C881 1.410 . S
C880 H853 0.950 . S
C880 C866 1.377 1_556 S
C880 C879 1.352 1_565 S
C881 C865 1.377 1_556 S
C881 C879 1.410 . S
C881 C882 1.524 . S
C882 C881 1.524 . S
C882 C883 1.397 . S
C882 C887 1.363 . S
C883 H854 0.950 . S
C883 C882 1.397 . S
C883 C884 1.334 . S
C884 H855 0.950 . S
C884 C883 1.334 . S
C884 C885 1.287 . S
C885 C884 1.287 . S
C885 C886 1.524 . S
C885 H888 0.999 . S
C886 H856 0.950 . S
C886 C885 1.524 . S
C886 C887 1.415 . S
C887 H857 0.950 1_556 S
C887 C882 1.363 . S
C887 C886 1.415 . S
H888 C885 0.999 . S
H889 C870 0.913 . S
H890 C908 0.951 . S
H891 C910 0.951 . S
H892 C912 0.950 . S
H893 C913 0.950 . S
H894 C915 0.950 . S
H895 C918 0.950 . S
H896 C919 0.950 . S
H897 C921 0.950 . S
H898 C922 0.950 . S
H899 C923 0.951 . S
H900 C925 0.951 . S
H901 C927 0.950 . S
H902 C928 0.950 . S
H903 C930 0.950 . S
H904 C933 0.950 . S
H905 C934 0.950 . S
H906 C936 0.950 . S
H907 C937 0.950 . S
C908 H890 0.951 . S
C908 C909 1.366 . S
C908 C910 1.388 . S
C909 C908 1.366 . S
C909 C913 1.385 . S
C910 H891 0.951 . S
C910 C908 1.388 . S
C910 C911 1.366 . S
C911 C910 1.366 . S
C911 C912 1.414 . S
C911 C914 1.499 . S
C912 H892 0.950 . S
C912 C911 1.414 . S
C912 C913 1.374 . S
C913 H893 0.950 . S
C913 C909 1.385 . S
C913 C912 1.374 . S
C914 C911 1.499 . S
C914 C915 1.373 . S
C914 C916 1.389 1_554 S
C915 H894 0.950 . S
C915 C914 1.373 . S
C915 C931 1.377 1_554 S
C916 C914 1.389 1_556 S
C916 C917 1.524 1_556 S
C916 C930 1.377 . S
C917 C916 1.524 1_554 S
C917 C918 1.397 . S
C917 C922 1.363 1_554 S
C918 H895 0.950 . S
C918 C917 1.397 . S
C918 C919 1.334 . S
C919 H896 0.950 . S
C919 C918 1.334 . S
C919 C920 1.287 . S
C920 C919 1.287 . S
C920 C921 1.524 1_554 S
C920 H939 0.913 . S
C921 H897 0.950 . S
C921 C920 1.524 1_556 S
C921 C922 1.415 . S
C922 H898 0.950 . S
C922 C917 1.363 1_556 S
C922 C921 1.415 . S
C923 H899 0.951 . S
C923 C924 1.366 . S
C923 C925 1.388 . S
C924 C923 1.366 . S
C924 C928 1.385 . S
C925 H900 0.951 . S
C925 C923 1.388 . S
C925 C926 1.366 . S
C926 C925 1.366 . S
C926 C927 1.414 . S
C926 C929 1.499 . S
C927 H901 0.950 . S
C927 C926 1.414 . S
C927 C928 1.374 . S
C928 H902 0.950 . S
C928 C924 1.385 . S
C928 C927 1.374 . S
C929 C926 1.499 . S
C929 C930 1.373 . S
C929 C931 1.389 . S
C930 H903 0.950 . S
C930 C916 1.377 . S
C930 C929 1.373 . S
C931 C915 1.377 1_556 S
C931 C929 1.389 . S
C931 C932 1.524 . S
C932 C931 1.524 . S
C932 C933 1.397 . S
C932 C937 1.363 1_556 S
C933 H904 0.950 . S
C933 C932 1.397 . S
C933 C934 1.334 . S
C934 H905 0.950 . S
C934 C933 1.334 . S
C934 C935 1.287 . S
C935 C934 1.287 . S
C935 C936 1.524 1_556 S
C935 H938 0.999 . S
C936 H906 0.950 . S
C936 C935 1.524 1_554 S
C936 C937 1.415 . S
C937 H907 0.950 . S
C937 C932 1.363 1_554 S
C937 C936 1.415 . S
H938 C935 0.999 . S
H939 C920 0.913 . S
H940 C958 0.951 . S
H941 C960 0.951 . S
H942 C962 0.950 . S
H943 C963 0.950 . S
H944 C965 0.950 . S
H945 C968 0.950 1_554 S
H946 C969 0.950 . S
H947 C971 0.950 . S
H948 C972 0.950 . S
H949 C973 0.951 . S
H950 C975 0.951 . S
H951 C977 0.950 . S
H952 C978 0.950 . S
H953 C980 0.950 . S
H954 C983 0.950 . S
H955 C984 0.950 . S
H956 C986 0.950 . S
H957 C987 0.950 . S
C958 H940 0.951 . S
C958 C959 1.366 . S
C958 C960 1.388 . S
C959 C958 1.366 . S
C959 C963 1.385 . S
C960 H941 0.951 . S
C960 C958 1.388 . S
C960 C961 1.366 . S
C961 C960 1.366 . S
C961 C962 1.414 . S
C961 C964 1.499 . S
C962 H942 0.950 . S
C962 C961 1.414 . S
C962 C963 1.374 . S
C963 H943 0.950 . S
C963 C959 1.385 . S
C963 C962 1.374 . S
C964 C961 1.499 . S
C964 C965 1.373 . S
C964 C966 1.389 1_554 S
C965 H944 0.950 . S
C965 C964 1.373 . S
C965 C981 1.377 1_554 S
C966 C964 1.389 1_556 S
C966 C967 1.524 . S
C966 C980 1.377 . S
C967 C966 1.524 . S
C967 C968 1.397 . S
C967 C972 1.363 . S
C968 H945 0.950 1_556 S
C968 C967 1.397 . S
C968 C969 1.334 . S
C969 H946 0.950 . S
C969 C968 1.334 . S
C969 C970 1.287 . S
C970 C969 1.287 . S
C970 C971 1.524 . S
C970 H989 0.913 . S
C971 H947 0.950 . S
C971 C970 1.524 . S
C971 C972 1.415 . S
C972 H948 0.950 . S
C972 C967 1.363 . S
C972 C971 1.415 . S
C973 H949 0.951 . S
C973 C974 1.366 . S
C973 C975 1.388 . S
C974 C973 1.366 . S
C974 C978 1.385 . S
C975 H950 0.951 . S
C975 C973 1.388 . S
C975 C976 1.366 . S
C976 C975 1.366 . S
C976 C977 1.414 . S
C976 C979 1.499 . S
C977 H951 0.950 . S
C977 C976 1.414 . S
C977 C978 1.374 . S
C978 H952 0.950 . S
C978 C974 1.385 . S
C978 C977 1.374 . S
C979 C976 1.499 . S
C979 C980 1.373 . S
C979 C981 1.389 . S
C980 H953 0.950 . S
C980 C966 1.377 . S
C980 C979 1.373 . S
C981 C965 1.377 1_556 S
C981 C979 1.389 . S
C981 C982 1.524 . S
C982 C981 1.524 . S
C982 C983 1.397 . S
C982 C987 1.363 1_556 S
C983 H954 0.950 . S
C983 C982 1.397 . S
C983 C984 1.334 . S
C984 H955 0.950 . S
C984 C983 1.334 . S
C984 C985 1.287 1_556 S
C985 C984 1.287 1_554 S
C985 C986 1.524 . S
C985 H988 0.999 . S
C986 H956 0.950 . S
C986 C985 1.524 . S
C986 C987 1.415 . S
C987 H957 0.950 . S
C987 C982 1.363 1_554 S
C987 C986 1.415 . S
H988 C985 0.999 . S
H989 C970 0.913 . S
H990 C1008 0.951 . S
H991 C1010 0.951 . S
H992 C1012 0.950 . S
H993 C1013 0.950 . S
H994 C1015 0.950 . S
H995 C1018 0.950 . S
H996 C1019 0.950 . S
H997 C1021 0.950 . S
H998 C1022 0.938 1_556 S
H999 C1023 0.951 . S
H1000 C1025 0.951 . S
H1001 C1027 0.950 . S
H1002 C1028 0.950 . S
H1003 C1030 0.950 . S
H1004 C1033 0.950 . S
H1005 C1034 0.950 . S
H1006 C1036 0.950 . S
H1007 C1037 0.950 . S
C1008 H990 0.951 . S
C1008 C1009 1.369 . S
C1008 C1010 1.388 . S
C1009 C1008 1.369 . S
C1009 C1013 1.382 1_655 S
C1010 H991 0.951 . S
C1010 C1008 1.388 . S
C1010 C1011 1.403 . S
C1011 C1010 1.403 . S
C1011 C1012 1.376 1_655 S
C1011 C1014 1.498 . S
C1012 H992 0.950 . S
C1012 C1011 1.376 1_455 S
C1012 C1013 1.374 . S
C1013 H993 0.950 . S
C1013 C1009 1.382 1_455 S
C1013 C1012 1.374 . S
C1014 C1011 1.498 . S
C1014 C1015 1.353 1_655 S
C1014 C1016 1.410 . S
C1015 H994 0.950 . S
C1015 C1014 1.353 1_455 S
C1015 C1031 1.377 1_554 S
C1016 C1014 1.410 . S
C1016 C1017 1.524 . S
C1016 C1030 1.377 1_554 S
C1017 C1016 1.524 . S
C1017 C1018 1.397 . S
C1017 C1022 1.363 . S
C1018 H995 0.950 . S
C1018 C1017 1.397 . S
C1018 C1019 1.334 . S
C1019 H996 0.950 . S
C1019 C1018 1.334 . S
C1019 C1020 1.287 . S
C1020 C1019 1.287 . S
C1020 C1021 1.524 . S
C1020 H1039 0.913 . S
C1021 H997 0.950 . S
C1021 C1020 1.524 . S
C1021 C1022 1.415 . S
C1022 H998 0.938 1_554 S
C1022 C1017 1.363 . S
C1022 C1021 1.415 . S
C1023 H999 0.951 . S
C1023 C1024 1.325 1_455 S
C1023 C1025 1.388 . S
C1024 C1023 1.325 1_655 S
C1024 C1028 1.426 . S
C1025 H1000 0.951 . S
C1025 C1023 1.388 . S
C1025 C1026 1.359 1_455 S
C1026 C1025 1.359 1_655 S
C1026 C1027 1.421 . S
C1026 C1029 1.498 . S
C1027 H1001 0.950 . S
C1027 C1026 1.421 . S
C1027 C1028 1.374 . S
C1028 H1002 0.950 . S
C1028 C1024 1.426 . S
C1028 C1027 1.374 . S
C1029 C1026 1.498 . S
C1029 C1030 1.402 . S
C1029 C1031 1.362 1_655 S
C1030 H1003 0.950 . S
C1030 C1016 1.377 1_556 S
C1030 C1029 1.402 . S
C1031 C1015 1.377 1_556 S
C1031 C1029 1.362 1_455 S
C1031 C1032 1.524 . S
C1032 C1031 1.524 . S
C1032 C1033 1.397 . S
C1032 C1037 1.363 . S
C1033 H1004 0.950 . S
C1033 C1032 1.397 . S
C1033 C1034 1.334 . S
C1034 H1005 0.950 . S
C1034 C1033 1.334 . S
C1034 C1035 1.287 . S
C1035 C1034 1.287 . S
C1035 C1036 1.524 . S
C1035 H1038 0.999 . S
C1036 H1006 0.950 . S
C1036 C1035 1.524 . S
C1036 C1037 1.415 . S
C1037 H1007 0.950 . S
C1037 C1032 1.363 . S
C1037 C1036 1.415 . S
H1038 C1035 0.999 . S
H1039 C1020 0.913 . S
H1040 C1058 0.951 . S
H1041 C1060 0.951 . S
H1042 C1062 0.950 . S
H1043 C1063 0.950 . S
H1044 C1065 0.950 . S
H1045 C1068 0.950 . S
H1046 C1069 0.950 . S
H1047 C1071 0.950 . S
H1048 C1072 0.950 . S
H1049 C1073 0.951 . S
H1050 C1075 0.951 . S
H1051 C1077 0.950 . S
H1052 C1078 0.950 . S
H1053 C1080 0.950 . S
H1054 C1083 0.950 . S
H1055 C1084 0.950 . S
H1056 C1086 0.950 . S
H1057 C1087 0.950 . S
C1058 H1040 0.951 . S
C1058 C1059 1.366 . S
C1058 C1060 1.388 . S
C1059 C1058 1.366 . S
C1059 C1063 1.385 1_455 S
C1060 H1041 0.951 . S
C1060 C1058 1.388 . S
C1060 C1061 1.366 1_455 S
C1061 C1060 1.366 1_655 S
C1061 C1062 1.414 . S
C1061 C1064 1.499 . S
C1062 H1042 0.950 . S
C1062 C1061 1.414 . S
C1062 C1063 1.374 . S
C1063 H1043 0.950 . S
C1063 C1059 1.385 1_655 S
C1063 C1062 1.374 . S
C1064 C1061 1.499 . S
C1064 C1065 1.373 . S
C1064 C1066 1.389 1_655 S
C1065 H1044 0.950 . S
C1065 C1064 1.373 . S
C1065 C1081 1.377 . S
C1066 C1064 1.389 1_455 S
C1066 C1067 1.524 . S
C1066 C1080 1.377 . S
C1067 C1066 1.524 . S
C1067 C1068 1.397 . S
C1067 C1072 1.363 . S
C1068 H1045 0.950 . S
C1068 C1067 1.397 . S
C1068 C1069 1.334 . S
C1069 H1046 0.950 . S
C1069 C1068 1.334 . S
C1069 C1070 1.287 . S
C1070 C1069 1.287 . S
C1070 C1071 1.524 . S
C1070 H1089 0.913 . S
C1071 H1047 0.950 . S
C1071 C1070 1.524 . S
C1071 C1072 1.415 . S
C1072 H1048 0.950 . S
C1072 C1067 1.363 . S
C1072 C1071 1.415 . S
C1073 H1049 0.951 . S
C1073 C1074 1.366 . S
C1073 C1075 1.388 . S
C1074 C1073 1.366 . S
C1074 C1078 1.385 . S
C1075 H1050 0.951 . S
C1075 C1073 1.388 . S
C1075 C1076 1.366 . S
C1076 C1075 1.366 . S
C1076 C1077 1.414 . S
C1076 C1079 1.499 . S
C1077 H1051 0.950 . S
C1077 C1076 1.414 . S
C1077 C1078 1.374 . S
C1078 H1052 0.950 . S
C1078 C1074 1.385 . S
C1078 C1077 1.374 . S
C1079 C1076 1.499 . S
C1079 C1080 1.373 1_655 S
C1079 C1081 1.389 . S
C1080 H1053 0.950 . S
C1080 C1066 1.377 . S
C1080 C1079 1.373 1_455 S
C1081 C1065 1.377 . S
C1081 C1079 1.389 . S
C1081 C1082 1.524 . S
C1082 C1081 1.524 . S
C1082 C1083 1.397 . S
C1082 C1087 1.363 . S
C1083 H1054 0.950 . S
C1083 C1082 1.397 . S
C1083 C1084 1.334 . S
C1084 H1055 0.950 . S
C1084 C1083 1.334 . S
C1084 C1085 1.287 . S
C1085 C1084 1.287 . S
C1085 C1086 1.524 . S
C1085 H1088 0.999 . S
C1086 H1056 0.950 . S
C1086 C1085 1.524 . S
C1086 C1087 1.415 . S
C1087 H1057 0.950 . S
C1087 C1082 1.363 . S
C1087 C1086 1.415 . S
H1088 C1085 0.999 . S
H1089 C1070 0.913 . S
H1090 C1108 0.951 . S
H1091 C1110 0.951 . S
H1092 C1112 0.950 . S
H1093 C1113 0.950 . S
H1094 C1115 0.950 . S
H1095 C1118 0.950 . S
H1096 C1119 0.950 . S
H1097 C1121 0.950 1_545 S
H1098 C1122 0.918 1_545 S
H1099 C1123 0.951 . S
H1100 C1125 0.951 . S
H1101 C1127 0.950 1_545 S
H1102 C1128 0.950 . S
H1103 C1130 0.950 . S
H1104 C1133 0.950 . S
H1105 C1134 0.950 . S
H1106 C1136 0.950 . S
H1107 C1137 0.950 . S
C1108 H1090 0.951 . S
C1108 C1109 1.366 . S
C1108 C1110 1.388 . S
C1109 C1108 1.366 . S
C1109 C1113 1.385 1_545 S
C1110 H1091 0.951 . S
C1110 C1108 1.388 . S
C1110 C1111 1.366 1_545 S
C1111 C1110 1.366 1_565 S
C1111 C1112 1.414 . S
C1111 C1114 1.499 . S
C1112 H1092 0.950 . S
C1112 C1111 1.414 . S
C1112 C1113 1.374 . S
C1113 H1093 0.950 . S
C1113 C1109 1.385 1_565 S
C1113 C1112 1.374 . S
C1114 C1111 1.499 . S
C1114 C1115 1.373 . S
C1114 C1116 1.389 . S
C1115 H1094 0.950 . S
C1115 C1114 1.373 . S
C1115 C1131 1.377 . S
C1116 C1114 1.389 . S
C1116 C1117 1.524 . S
C1116 C1130 1.377 . S
C1117 C1116 1.524 . S
C1117 C1118 1.397 . S
C1117 C1122 1.392 . S
C1118 H1095 0.950 . S
C1118 C1117 1.397 . S
C1118 C1119 1.334 . S
C1119 H1096 0.950 . S
C1119 C1118 1.334 . S
C1119 C1120 1.287 . S
C1120 C1119 1.287 . S
C1120 C1121 1.524 . S
C1120 H1139 0.913 . S
C1121 H1097 0.950 1_565 S
C1121 C1120 1.524 . S
C1121 C1122 1.419 . S
C1122 H1098 0.918 1_565 S
C1122 C1117 1.392 . S
C1122 C1121 1.419 . S
C1123 H1099 0.951 . S
C1123 C1124 1.366 . S
C1123 C1125 1.388 . S
C1124 C1123 1.366 . S
C1124 C1128 1.385 . S
C1125 H1100 0.951 . S
C1125 C1123 1.388 . S
C1125 C1126 1.366 . S
C1126 C1125 1.366 . S
C1126 C1127 1.414 . S
C1126 C1129 1.499 . S
C1127 H1101 0.950 1_565 S
C1127 C1126 1.414 . S
C1127 C1128 1.374 . S
C1128 H1102 0.950 . S
C1128 C1124 1.385 . S
C1128 C1127 1.374 . S
C1129 C1126 1.499 . S
C1129 C1130 1.373 . S
C1129 C1131 1.389 . S
C1130 H1103 0.950 . S
C1130 C1116 1.377 . S
C1130 C1129 1.373 . S
C1131 C1115 1.377 . S
C1131 C1129 1.389 . S
C1131 C1132 1.524 . S
C1132 C1131 1.524 . S
C1132 C1133 1.397 1_565 S
C1132 C1137 1.363 . S
C1133 H1104 0.950 . S
C1133 C1132 1.397 1_545 S
C1133 C1134 1.334 . S
C1134 H1105 0.950 . S
C1134 C1133 1.334 . S
C1134 C1135 1.287 1_545 S
C1135 C1134 1.287 1_565 S
C1135 C1136 1.524 . S
C1135 H1138 0.999 . S
C1136 H1106 0.950 . S
C1136 C1135 1.524 . S
C1136 C1137 1.415 . S
C1137 H1107 0.950 . S
C1137 C1132 1.363 . S
C1137 C1136 1.415 . S
H1138 C1135 0.999 . S
H1139 C1120 0.913 . S
H1140 C1158 0.951 . S
H1141 C1160 0.951 . S
H1142 C1162 0.950 . S
H1143 C1163 0.950 . S
H1144 C1165 0.950 . S
H1145 C1168 0.950 . S
H1146 C1169 0.950 . S
H1147 C1171 0.950 . S
H1148 C1172 0.950 . S
H1149 C1173 0.951 . S
H1150 C1175 0.951 . S
H1151 C1177 0.950 . S
H1152 C1178 0.950 . S
H1153 C1180 0.950 . S
H1154 C1183 0.950 . S
H1155 C1184 0.950 . S
H1156 C1186 0.950 . S
H1157 C1187 0.950 . S
C1158 H1140 0.951 . S
C1158 C1159 1.366 . S
C1158 C1160 1.388 . S
C1159 C1158 1.366 . S
C1159 C1163 1.385 . S
C1160 H1141 0.951 . S
C1160 C1158 1.388 . S
C1160 C1161 1.366 . S
C1161 C1160 1.366 . S
C1161 C1162 1.414 . S
C1161 C1164 1.499 . S
C1162 H1142 0.950 . S
C1162 C1161 1.414 . S
C1162 C1163 1.374 . S
C1163 H1143 0.950 . S
C1163 C1159 1.385 . S
C1163 C1162 1.374 . S
C1164 C1161 1.499 . S
C1164 C1165 1.373 . S
C1164 C1166 1.389 . S
C1165 H1144 0.950 . S
C1165 C1164 1.373 . S
C1165 C1181 1.377 . S
C1166 C1164 1.389 . S
C1166 C1167 1.524 . S
C1166 C1180 1.377 . S
C1167 C1166 1.524 . S
C1167 C1168 1.397 . S
C1167 C1172 1.363 . S
C1168 H1145 0.950 . S
C1168 C1167 1.397 . S
C1168 C1169 1.334 . S
C1169 H1146 0.950 . S
C1169 C1168 1.334 . S
C1169 C1170 1.287 . S
C1170 C1169 1.287 . S
C1170 C1171 1.524 . S
C1170 H1189 0.913 . S
C1171 H1147 0.950 . S
C1171 C1170 1.524 . S
C1171 C1172 1.415 . S
C1172 H1148 0.950 . S
C1172 C1167 1.363 . S
C1172 C1171 1.415 . S
C1173 H1149 0.951 . S
C1173 C1174 1.366 . S
C1173 C1175 1.388 . S
C1174 C1173 1.366 . S
C1174 C1178 1.385 . S
C1175 H1150 0.951 . S
C1175 C1173 1.388 . S
C1175 C1176 1.366 . S
C1176 C1175 1.366 . S
C1176 C1177 1.414 . S
C1176 C1179 1.499 . S
C1177 H1151 0.950 . S
C1177 C1176 1.414 . S
C1177 C1178 1.374 . S
C1178 H1152 0.950 . S
C1178 C1174 1.385 . S
C1178 C1177 1.374 . S
C1179 C1176 1.499 . S
C1179 C1180 1.373 . S
C1179 C1181 1.389 . S
C1180 H1153 0.950 . S
C1180 C1166 1.377 . S
C1180 C1179 1.373 . S
C1181 C1165 1.377 . S
C1181 C1179 1.389 . S
C1181 C1182 1.524 . S
C1182 C1181 1.524 . S
C1182 C1183 1.397 . S
C1182 C1187 1.363 . S
C1183 H1154 0.950 . S
C1183 C1182 1.397 . S
C1183 C1184 1.334 . S
C1184 H1155 0.950 . S
C1184 C1183 1.334 . S
C1184 C1185 1.287 . S
C1185 C1184 1.287 . S
C1185 C1186 1.524 . S
C1185 H1188 0.999 . S
C1186 H1156 0.950 . S
C1186 C1185 1.524 . S
C1186 C1187 1.415 . S
C1187 H1157 0.950 . S
C1187 C1182 1.363 . S
C1187 C1186 1.415 . S
H1188 C1185 0.999 . S
H1189 C1170 0.913 . S
H1190 C1208 0.951 . S
H1191 C1210 0.951 . S
H1192 C1212 0.950 . S
H1193 C1213 0.950 . S
H1194 C1215 0.950 . S
H1195 C1218 0.950 . S
H1196 C1219 0.950 . S
H1197 C1221 0.950 . S
H1198 C1222 0.950 . S
H1199 C1223 0.951 . S
H1200 C1225 0.951 . S
H1201 C1227 0.950 . S
H1202 C1228 0.950 . S
H1203 C1230 0.950 . S
H1204 C1233 0.950 . S
H1205 C1234 0.950 . S
H1206 C1236 0.950 . S
H1207 C1237 0.950 . S
C1208 H1190 0.951 . S
C1208 C1209 1.366 . S
C1208 C1210 1.388 . S
C1209 C1208 1.366 . S
C1209 C1213 1.385 . S
C1210 H1191 0.951 . S
C1210 C1208 1.388 . S
C1210 C1211 1.366 . S
C1211 C1210 1.366 . S
C1211 C1212 1.414 . S
C1211 C1214 1.499 . S
C1212 H1192 0.950 . S
C1212 C1211 1.414 . S
C1212 C1213 1.374 . S
C1213 H1193 0.950 . S
C1213 C1209 1.385 . S
C1213 C1212 1.374 . S
C1214 C1211 1.499 . S
C1214 C1215 1.373 . S
C1214 C1216 1.389 . S
C1215 H1194 0.950 . S
C1215 C1214 1.373 . S
C1215 C1231 1.377 . S
C1216 C1214 1.389 . S
C1216 C1217 1.524 . S
C1216 C1230 1.377 . S
C1217 C1216 1.524 . S
C1217 C1218 1.397 . S
C1217 C1222 1.363 . S
C1218 H1195 0.950 . S
C1218 C1217 1.397 . S
C1218 C1219 1.334 . S
C1219 H1196 0.950 . S
C1219 C1218 1.334 . S
C1219 C1220 1.287 . S
C1220 C1219 1.287 . S
C1220 C1221 1.524 . S
C1220 H1239 0.913 . S
C1221 H1197 0.950 . S
C1221 C1220 1.524 . S
C1221 C1222 1.415 . S
C1222 H1198 0.950 . S
C1222 C1217 1.363 . S
C1222 C1221 1.415 . S
C1223 H1199 0.951 . S
C1223 C1224 1.366 . S
C1223 C1225 1.388 . S
C1224 C1223 1.366 . S
C1224 C1228 1.385 . S
C1225 H1200 0.951 . S
C1225 C1223 1.388 . S
C1225 C1226 1.366 . S
C1226 C1225 1.366 . S
C1226 C1227 1.414 . S
C1226 C1229 1.499 . S
C1227 H1201 0.950 . S
C1227 C1226 1.414 . S
C1227 C1228 1.374 . S
C1228 H1202 0.950 . S
C1228 C1224 1.385 . S
C1228 C1227 1.374 . S
C1229 C1226 1.499 . S
C1229 C1230 1.373 . S
C1229 C1231 1.389 . S
C1230 H1203 0.950 . S
C1230 C1216 1.377 . S
C1230 C1229 1.373 . S
C1231 C1215 1.377 . S
C1231 C1229 1.389 . S
C1231 C1232 1.524 . S
C1232 C1231 1.524 . S
C1232 C1233 1.397 . S
C1232 C1237 1.363 . S
C1233 H1204 0.950 . S
C1233 C1232 1.397 . S
C1233 C1234 1.334 . S
C1234 H1205 0.950 . S
C1234 C1233 1.334 . S
C1234 C1235 1.287 . S
C1235 C1234 1.287 . S
C1235 C1236 1.524 . S
C1235 H1238 0.999 . S
C1236 H1206 0.950 . S
C1236 C1235 1.524 . S
C1236 C1237 1.415 . S
C1237 H1207 0.950 . S
C1237 C1232 1.363 . S
C1237 C1236 1.415 . S
H1238 C1235 0.999 . S
H1239 C1220 0.913 . S
H1240 C1258 0.951 . S
H1241 C1260 0.951 . S
H1242 C1262 0.950 . S
H1243 C1263 0.950 . S
H1244 C1265 0.950 1_655 S
H1245 C1268 0.950 1_655 S
H1246 C1269 0.950 . S
H1247 C1271 0.950 . S
H1248 C1272 0.950 . S
H1249 C1273 0.951 1_655 S
H1250 C1275 0.951 1_655 S
H1251 C1277 0.950 . S
H1252 C1278 0.950 . S
H1253 C1280 0.950 . S
H1254 C1283 0.950 . S
H1255 C1284 0.950 . S
H1256 C1286 0.950 . S
H1257 C1287 0.950 . S
C1258 H1240 0.951 . S
C1258 C1259 1.366 1_455 S
C1258 C1260 1.388 . S
C1259 C1258 1.366 1_655 S
C1259 C1263 1.385 . S
C1260 H1241 0.951 . S
C1260 C1258 1.388 . S
C1260 C1261 1.366 . S
C1261 C1260 1.366 . S
C1261 C1262 1.414 1_455 S
C1261 C1264 1.499 . S
C1262 H1242 0.950 . S
C1262 C1261 1.414 1_655 S
C1262 C1263 1.374 . S
C1263 H1243 0.950 . S
C1263 C1259 1.385 . S
C1263 C1262 1.374 . S
C1264 C1261 1.499 . S
C1264 C1265 1.373 1_554 S
C1264 C1266 1.389 . S
C1265 H1244 0.950 1_455 S
C1265 C1264 1.373 1_556 S
C1265 C1281 1.377 . S
C1266 C1264 1.389 . S
C1266 C1267 1.524 . S
C1266 C1280 1.377 . S
C1267 C1266 1.524 . S
C1267 C1268 1.397 . S
C1267 C1272 1.363 . S
C1268 H1245 0.950 1_455 S
C1268 C1267 1.397 . S
C1268 C1269 1.334 . S
C1269 H1246 0.950 . S
C1269 C1268 1.334 . S
C1269 C1270 1.287 . S
C1270 C1269 1.287 . S
C1270 C1271 1.524 . S
C1270 H1289 0.913 . S
C1271 H1247 0.950 . S
C1271 C1270 1.524 . S
C1271 C1272 1.415 . S
C1272 H1248 0.950 . S
C1272 C1267 1.363 . S
C1272 C1271 1.415 . S
C1273 H1249 0.951 1_455 S
C1273 C1274 1.366 . S
C1273 C1275 1.388 . S
C1274 C1273 1.366 . S
C1274 C1278 1.385 . S
C1275 H1250 0.951 1_455 S
C1275 C1273 1.388 . S
C1275 C1276 1.366 . S
C1276 C1275 1.366 . S
C1276 C1277 1.414 . S
C1276 C1279 1.499 . S
C1277 H1251 0.950 . S
C1277 C1276 1.414 . S
C1277 C1278 1.374 . S
C1278 H1252 0.950 . S
C1278 C1274 1.385 . S
C1278 C1277 1.374 . S
C1279 C1276 1.499 . S
C1279 C1280 1.373 1_556 S
C1279 C1281 1.389 . S
C1280 H1253 0.950 . S
C1280 C1266 1.377 . S
C1280 C1279 1.373 1_554 S
C1281 C1265 1.377 . S
C1281 C1279 1.389 . S
C1281 C1282 1.524 . S
C1282 C1281 1.524 . S
C1282 C1283 1.397 . S
C1282 C1287 1.363 1_455 S
C1283 H1254 0.950 . S
C1283 C1282 1.397 . S
C1283 C1284 1.334 . S
C1284 H1255 0.950 . S
C1284 C1283 1.334 . S
C1284 C1285 1.287 1_455 S
C1285 C1284 1.287 1_655 S
C1285 C1286 1.524 . S
C1285 H1288 0.999 . S
C1286 H1256 0.950 . S
C1286 C1285 1.524 . S
C1286 C1287 1.415 . S
C1287 H1257 0.950 . S
C1287 C1282 1.363 1_655 S
C1287 C1286 1.415 . S
H1288 C1285 0.999 . S
H1289 C1270 0.913 . S
H1290 C1308 0.951 . S
H1291 C1310 0.951 1_556 S
H1292 C1312 0.950 . S
H1293 C1313 0.950 . S
H1294 C1315 0.950 . S
H1295 C1318 0.950 . S
H1296 C1319 0.950 . S
H1297 C1321 0.950 . S
H1298 C1322 0.950 . S
H1299 C1323 0.951 . S
H1300 C1325 0.951 . S
H1301 C1327 0.950 . S
H1302 C1328 0.950 . S
H1303 C1330 0.950 . S
H1304 C1333 0.950 . S
H1305 C1334 0.950 . S
H1306 C1336 0.950 1_554 S
H1307 C1337 0.950 . S
C1308 H1290 0.951 . S
C1308 C1309 1.366 1_545 S
C1308 C1310 1.388 . S
C1309 C1308 1.366 1_565 S
C1309 C1313 1.385 . S
C1310 H1291 0.951 1_554 S
C1310 C1308 1.388 . S
C1310 C1311 1.366 . S
C1311 C1310 1.366 . S
C1311 C1312 1.414 1_545 S
C1311 C1314 1.499 . S
C1312 H1292 0.950 . S
C1312 C1311 1.414 1_565 S
C1312 C1313 1.374 . S
C1313 H1293 0.950 . S
C1313 C1309 1.385 . S
C1313 C1312 1.374 . S
C1314 C1311 1.499 . S
C1314 C1315 1.373 1_545 S
C1314 C1316 1.385 1_554 S
C1315 H1294 0.950 . S
C1315 C1314 1.373 1_565 S
C1315 C1331 1.377 1_554 S
C1316 C1314 1.385 1_556 S
C1316 C1317 1.522 1_556 S
C1316 C1330 1.383 . S
C1317 C1316 1.522 1_554 S
C1317 C1318 1.397 . S
C1317 C1322 1.363 1_554 S
C1318 H1295 0.950 . S
C1318 C1317 1.397 . S
C1318 C1319 1.334 . S
C1319 H1296 0.950 . S
C1319 C1318 1.334 . S
C1319 C1320 1.287 . S
C1320 C1319 1.287 . S
C1320 C1321 1.524 1_554 S
C1320 H1339 0.913 . S
C1321 H1297 0.950 . S
C1321 C1320 1.524 1_556 S
C1321 C1322 1.415 . S
C1322 H1298 0.950 . S
C1322 C1317 1.363 1_556 S
C1322 C1321 1.415 . S
C1323 H1299 0.951 . S
C1323 C1324 1.366 . S
C1323 C1325 1.388 . S
C1324 C1323 1.366 . S
C1324 C1328 1.385 . S
C1325 H1300 0.951 . S
C1325 C1323 1.388 . S
C1325 C1326 1.366 . S
C1326 C1325 1.366 . S
C1326 C1327 1.414 . S
C1326 C1329 1.499 . S
C1327 H1301 0.950 . S
C1327 C1326 1.414 . S
C1327 C1328 1.374 . S
C1328 H1302 0.950 . S
C1328 C1324 1.385 . S
C1328 C1327 1.374 . S
C1329 C1326 1.499 . S
C1329 C1330 1.373 . S
C1329 C1331 1.389 1_545 S
C1330 H1303 0.950 . S
C1330 C1316 1.383 . S
C1330 C1329 1.373 . S
C1331 C1315 1.377 1_556 S
C1331 C1329 1.389 1_565 S
C1331 C1332 1.524 . S
C1332 C1331 1.524 . S
C1332 C1333 1.397 . S
C1332 C1337 1.363 1_556 S
C1333 H1304 0.950 . S
C1333 C1332 1.397 . S
C1333 C1334 1.334 . S
C1334 H1305 0.950 . S
C1334 C1333 1.334 . S
C1334 C1335 1.287 . S
C1335 C1334 1.287 . S
C1335 C1336 1.524 . S
C1335 H1338 0.999 . S
C1336 H1306 0.950 1_556 S
C1336 C1335 1.524 . S
C1336 C1337 1.415 1_556 S
C1337 H1307 0.950 . S
C1337 C1332 1.363 1_554 S
C1337 C1336 1.415 1_554 S
H1338 C1335 0.999 . S
H1339 C1320 0.913 . S
H1340 C1358 0.951 . S
H1341 C1360 0.935 1_556 S
H1342 C1362 0.950 . S
H1343 C1363 0.950 . S
H1344 C1365 0.950 . S
H1345 C1368 0.950 . S
H1346 C1369 0.950 . S
H1347 C1371 0.950 . S
H1348 C1372 0.950 . S
H1349 C1373 0.951 . S
H1350 C1375 0.951 . S
H1351 C1377 0.950 . S
H1352 C1378 0.950 . S
H1353 C1380 0.950 . S
H1354 C1383 0.950 . S
H1355 C1384 0.950 . S
H1356 C1386 0.950 . S
H1357 C1387 0.950 . S
C1358 H1340 0.951 . S
C1358 C1359 1.366 . S
C1358 C1360 1.388 . S
C1359 C1358 1.366 . S
C1359 C1363 1.385 . S
C1360 H1341 0.935 1_554 S
C1360 C1358 1.388 . S
C1360 C1361 1.366 . S
C1361 C1360 1.366 . S
C1361 C1362 1.414 . S
C1361 C1364 1.499 . S
C1362 H1342 0.950 . S
C1362 C1361 1.414 . S
C1362 C1363 1.374 . S
C1363 H1343 0.950 . S
C1363 C1359 1.385 . S
C1363 C1362 1.374 . S
C1364 C1361 1.499 . S
C1364 C1365 1.373 . S
C1364 C1366 1.389 1_554 S
C1365 H1344 0.950 . S
C1365 C1364 1.373 . S
C1365 C1381 1.377 . S
C1366 C1364 1.389 1_556 S
C1366 C1367 1.524 . S
C1366 C1380 1.377 . S
C1367 C1366 1.524 . S
C1367 C1368 1.397 . S
C1367 C1372 1.363 . S
C1368 H1345 0.950 . S
C1368 C1367 1.397 . S
C1368 C1369 1.334 . S
C1369 H1346 0.950 . S
C1369 C1368 1.334 . S
C1369 C1370 1.287 . S
C1370 C1369 1.287 . S
C1370 C1371 1.524 . S
C1370 H1389 0.913 . S
C1371 H1347 0.950 . S
C1371 C1370 1.524 . S
C1371 C1372 1.415 . S
C1372 H1348 0.950 . S
C1372 C1367 1.363 . S
C1372 C1371 1.415 . S
C1373 H1349 0.951 . S
C1373 C1374 1.366 . S
C1373 C1375 1.388 . S
C1374 C1373 1.366 . S
C1374 C1378 1.385 . S
C1375 H1350 0.951 . S
C1375 C1373 1.388 . S
C1375 C1376 1.366 . S
C1376 C1375 1.366 . S
C1376 C1377 1.414 . S
C1376 C1379 1.499 . S
C1377 H1351 0.950 . S
C1377 C1376 1.414 . S
C1377 C1378 1.374 . S
C1378 H1352 0.950 . S
C1378 C1374 1.385 . S
C1378 C1377 1.374 . S
C1379 C1376 1.499 . S
C1379 C1380 1.373 . S
C1379 C1381 1.389 1_556 S
C1380 H1353 0.950 . S
C1380 C1366 1.377 . S
C1380 C1379 1.373 . S
C1381 C1365 1.377 . S
C1381 C1379 1.389 1_554 S
C1381 C1382 1.524 . S
C1382 C1381 1.524 . S
C1382 C1383 1.397 . S
C1382 C1387 1.363 . S
C1383 H1354 0.950 . S
C1383 C1382 1.397 . S
C1383 C1384 1.334 . S
C1384 H1355 0.950 . S
C1384 C1383 1.334 . S
C1384 C1385 1.287 . S
C1385 C1384 1.287 . S
C1385 C1386 1.524 . S
C1385 H1388 0.999 . S
C1386 H1356 0.950 . S
C1386 C1385 1.524 . S
C1386 C1387 1.415 . S
C1387 H1357 0.950 . S
C1387 C1382 1.363 . S
C1387 C1386 1.415 . S
H1388 C1385 0.999 . S
H1389 C1370 0.913 . S
H1390 C1408 0.951 . S
H1391 C1410 0.951 . S
H1392 C1412 0.950 . S
H1393 C1413 0.950 . S
H1394 C1415 0.950 . S
H1395 C1418 0.950 . S
H1396 C1419 0.950 . S
H1397 C1421 0.950 1_554 S
H1398 C1422 0.950 1_554 S
H1399 C1423 0.951 . S
H1400 C1425 0.951 . S
H1401 C1427 0.950 . S
H1402 C1428 0.950 . S
H1403 C1430 0.950 . S
H1404 C1433 0.950 . S
H1405 C1434 0.950 . S
H1406 C1436 0.950 . S
H1407 C1437 0.950 . S
C1408 H1390 0.951 . S
C1408 C1409 1.366 . S
C1408 C1410 1.388 . S
C1409 C1408 1.366 . S
C1409 C1413 1.385 . S
C1410 H1391 0.951 . S
C1410 C1408 1.388 . S
C1410 C1411 1.366 . S
C1411 C1410 1.366 . S
C1411 C1412 1.414 . S
C1411 C1414 1.499 . S
C1412 H1392 0.950 . S
C1412 C1411 1.414 . S
C1412 C1413 1.374 . S
C1413 H1393 0.950 . S
C1413 C1409 1.385 . S
C1413 C1412 1.374 . S
C1414 C1411 1.499 . S
C1414 C1415 1.373 . S
C1414 C1416 1.389 1_554 S
C1415 H1394 0.950 . S
C1415 C1414 1.373 . S
C1415 C1431 1.377 1_554 S
C1416 C1414 1.389 1_556 S
C1416 C1417 1.524 . S
C1416 C1430 1.377 . S
C1417 C1416 1.524 . S
C1417 C1418 1.397 . S
C1417 C1422 1.363 . S
C1418 H1395 0.950 . S
C1418 C1417 1.397 . S
C1418 C1419 1.334 . S
C1419 H1396 0.950 . S
C1419 C1418 1.334 . S
C1419 C1420 1.287 . S
C1420 C1419 1.287 . S
C1420 C1421 1.524 . S
C1420 H1439 0.913 . S
C1421 H1397 0.950 1_556 S
C1421 C1420 1.524 . S
C1421 C1422 1.415 . S
C1422 H1398 0.950 1_556 S
C1422 C1417 1.363 . S
C1422 C1421 1.415 . S
C1423 H1399 0.951 . S
C1423 C1424 1.366 . S
C1423 C1425 1.388 . S
C1424 C1423 1.366 . S
C1424 C1428 1.385 . S
C1425 H1400 0.951 . S
C1425 C1423 1.388 . S
C1425 C1426 1.366 . S
C1426 C1425 1.366 . S
C1426 C1427 1.414 . S
C1426 C1429 1.499 . S
C1427 H1401 0.950 . S
C1427 C1426 1.414 . S
C1427 C1428 1.374 . S
C1428 H1402 0.950 . S
C1428 C1424 1.385 . S
C1428 C1427 1.374 . S
C1429 C1426 1.499 . S
C1429 C1430 1.373 . S
C1429 C1431 1.389 . S
C1430 H1403 0.950 . S
C1430 C1416 1.377 . S
C1430 C1429 1.373 . S
C1431 C1415 1.377 1_556 S
C1431 C1429 1.389 . S
C1431 C1432 1.524 . S
C1432 C1431 1.524 . S
C1432 C1433 1.397 1_556 S
C1432 C1437 1.363 . S
C1433 H1404 0.950 . S
C1433 C1432 1.397 1_554 S
C1433 C1434 1.334 . S
C1434 H1405 0.950 . S
C1434 C1433 1.334 . S
C1434 C1435 1.287 . S
C1435 C1434 1.287 . S
C1435 C1436 1.524 1_554 S
C1435 H1438 0.999 . S
C1436 H1406 0.950 . S
C1436 C1435 1.524 1_556 S
C1436 C1437 1.415 . S
C1437 H1407 0.950 . S
C1437 C1432 1.363 . S
C1437 C1436 1.415 . S
H1438 C1435 0.999 . S
H1439 C1420 0.913 . S
H1440 C1458 0.951 . S
H1441 C1460 0.951 . S
H1442 C1462 0.950 . S
H1443 C1463 0.950 . S
H1444 C1465 0.950 . S
H1445 C1468 0.950 . S
H1446 C1469 0.950 . S
H1447 C1471 0.950 . S
H1448 C1472 0.950 . S
H1449 C1473 0.951 . S
H1450 C1475 0.951 . S
H1451 C1477 0.950 . S
H1452 C1478 0.950 . S
H1453 C1480 0.944 1_655 S
H1454 C1483 0.950 . S
H1455 C1484 0.950 . S
H1456 C1486 0.950 . S
H1457 C1487 0.950 . S
C1458 H1440 0.951 . S
C1458 C1459 1.366 1_655 S
C1458 C1460 1.388 . S
C1459 C1458 1.366 1_455 S
C1459 C1463 1.385 . S
C1460 H1441 0.951 . S
C1460 C1458 1.388 . S
C1460 C1461 1.366 1_655 S
C1461 C1460 1.366 1_455 S
C1461 C1462 1.414 . S
C1461 C1464 1.499 . S
C1462 H1442 0.950 . S
C1462 C1461 1.414 . S
C1462 C1463 1.374 . S
C1463 H1443 0.950 . S
C1463 C1459 1.385 . S
C1463 C1462 1.374 . S
C1464 C1461 1.499 . S
C1464 C1465 1.373 . S
C1464 C1466 1.389 . S
C1465 H1444 0.950 . S
C1465 C1464 1.373 . S
C1465 C1481 1.377 . S
C1466 C1464 1.389 . S
C1466 C1467 1.524 1_455 S
C1466 C1480 1.378 . S
C1467 C1466 1.524 1_655 S
C1467 C1468 1.397 1_655 S
C1467 C1472 1.363 . S
C1468 H1445 0.950 . S
C1468 C1467 1.397 1_455 S
C1468 C1469 1.334 . S
C1469 H1446 0.950 . S
C1469 C1468 1.334 . S
C1469 C1470 1.252 1_455 S
C1470 C1469 1.252 1_655 S
C1470 C1471 1.561 . S
C1470 H1489 0.917 1_556 S
C1471 H1447 0.950 . S
C1471 C1470 1.561 . S
C1471 C1472 1.415 . S
C1472 H1448 0.950 . S
C1472 C1467 1.363 . S
C1472 C1471 1.415 . S
C1473 H1449 0.951 . S
C1473 C1474 1.366 . S
C1473 C1475 1.388 . S
C1474 C1473 1.366 . S
C1474 C1478 1.385 1_455 S
C1475 H1450 0.951 . S
C1475 C1473 1.388 . S
C1475 C1476 1.366 . S
C1476 C1475 1.366 . S
C1476 C1477 1.414 1_455 S
C1476 C1479 1.499 . S
C1477 H1451 0.950 . S
C1477 C1476 1.414 1_655 S
C1477 C1478 1.374 . S
C1478 H1452 0.950 . S
C1478 C1474 1.385 1_655 S
C1478 C1477 1.374 . S
C1479 C1476 1.499 . S
C1479 C1480 1.380 . S
C1479 C1481 1.389 . S
C1480 H1453 0.944 1_455 S
C1480 C1466 1.378 . S
C1480 C1479 1.380 . S
C1481 C1465 1.377 . S
C1481 C1479 1.389 . S
C1481 C1482 1.524 . S
C1482 C1481 1.524 . S
C1482 C1483 1.397 1_455 S
C1482 C1487 1.363 . S
C1483 H1454 0.950 . S
C1483 C1482 1.397 1_655 S
C1483 C1484 1.334 . S
C1484 H1455 0.950 . S
C1484 C1483 1.334 . S
C1484 C1485 1.287 1_655 S
C1485 C1484 1.287 1_455 S
C1485 C1486 1.524 . S
C1485 H1488 0.999 . S
C1486 H1456 0.950 . S
C1486 C1485 1.524 . S
C1486 C1487 1.415 . S
C1487 H1457 0.950 . S
C1487 C1482 1.363 . S
C1487 C1486 1.415 . S
H1488 C1485 0.999 . S
H1489 C1470 0.917 1_554 S
H1490 C1508 0.951 . S
H1491 C1510 0.951 . S
H1492 C1512 0.950 . S
H1493 C1513 0.950 . S
H1494 C1515 0.965 . S
H1495 C1518 0.950 . S
H1496 C1519 0.950 . S
H1497 C1521 0.950 1_554 S
H1498 C1522 0.950 . S
H1499 C1523 0.951 . S
H1500 C1525 0.951 . S
H1501 C1527 0.950 . S
H1502 C1528 0.950 . S
H1503 C1530 0.950 . S
H1504 C1533 0.950 . S
H1505 C1534 0.950 . S
H1506 C1536 0.950 . S
H1507 C1537 0.950 1_545 S
C1508 H1490 0.951 . S
C1508 C1509 1.366 1_565 S
C1508 C1510 1.388 . S
C1509 C1508 1.366 1_545 S
C1509 C1513 1.385 . S
C1510 H1491 0.951 . S
C1510 C1508 1.388 . S
C1510 C1511 1.366 1_565 S
C1511 C1510 1.366 1_545 S
C1511 C1512 1.414 . S
C1511 C1514 1.499 . S
C1512 H1492 0.950 . S
C1512 C1511 1.414 . S
C1512 C1513 1.374 . S
C1513 H1493 0.950 . S
C1513 C1509 1.385 . S
C1513 C1512 1.374 . S
C1514 C1511 1.499 . S
C1514 C1515 1.359 1_545 S
C1514 C1516 1.389 . S
C1515 H1494 0.965 . S
C1515 C1514 1.359 1_565 S
C1515 C1531 1.379 . S
C1516 C1514 1.389 . S
C1516 C1517 1.524 . S
C1516 C1530 1.377 . S
C1517 C1516 1.524 . S
C1517 C1518 1.397 . S
C1517 C1522 1.363 . S
C1518 H1495 0.950 . S
C1518 C1517 1.397 . S
C1518 C1519 1.334 . S
C1519 H1496 0.950 . S
C1519 C1518 1.334 . S
C1519 C1520 1.287 . S
C1520 C1519 1.287 . S
C1520 C1521 1.524 . S
C1520 H1539 0.913 . S
C1521 H1497 0.950 1_556 S
C1521 C1520 1.524 . S
C1521 C1522 1.415 . S
C1522 H1498 0.950 . S
C1522 C1517 1.363 . S
C1522 C1521 1.415 . S
C1523 H1499 0.951 . S
C1523 C1524 1.366 . S
C1523 C1525 1.388 . S
C1524 C1523 1.366 . S
C1524 C1528 1.385 1_545 S
C1525 H1500 0.951 . S
C1525 C1523 1.388 . S
C1525 C1526 1.366 . S
C1526 C1525 1.366 . S
C1526 C1527 1.414 1_545 S
C1526 C1529 1.499 . S
C1527 H1501 0.950 . S
C1527 C1526 1.414 1_565 S
C1527 C1528 1.374 . S
C1528 H1502 0.950 . S
C1528 C1524 1.385 1_565 S
C1528 C1527 1.374 . S
C1529 C1526 1.499 . S
C1529 C1530 1.373 . S
C1529 C1531 1.389 1_545 S
C1530 H1503 0.950 . S
C1530 C1516 1.377 . S
C1530 C1529 1.373 . S
C1531 C1515 1.379 . S
C1531 C1529 1.389 1_565 S
C1531 C1532 1.524 . S
C1532 C1531 1.524 . S
C1532 C1533 1.397 . S
C1532 C1537 1.363 . S
C1533 H1504 0.950 . S
C1533 C1532 1.397 . S
C1533 C1534 1.334 . S
C1534 H1505 0.950 . S
C1534 C1533 1.334 . S
C1534 C1535 1.287 . S
C1535 C1534 1.287 . S
C1535 C1536 1.524 . S
C1535 H1538 0.999 . S
C1536 H1506 0.950 . S
C1536 C1535 1.524 . S
C1536 C1537 1.415 . S
C1537 H1507 0.950 1_565 S
C1537 C1532 1.363 . S
C1537 C1536 1.415 . S
H1538 C1535 0.999 . S
H1539 C1520 0.913 . S
H1540 C1558 0.951 . S
H1541 C1560 0.951 . S
H1542 C1562 0.950 . S
H1543 C1563 0.950 . S
H1544 C1565 0.950 . S
H1545 C1568 0.950 . S
H1546 C1569 0.950 . S
H1547 C1571 0.950 . S
H1548 C1572 0.950 . S
H1549 C1573 0.951 . S
H1550 C1575 0.951 . S
H1551 C1577 0.950 . S
H1552 C1578 0.950 . S
H1553 C1580 0.950 . S
H1554 C1583 0.950 . S
H1555 C1584 0.950 . S
H1556 C1586 0.950 . S
H1557 C1587 0.950 . S
C1558 H1540 0.951 . S
C1558 C1559 1.366 . S
C1558 C1560 1.388 . S
C1559 C1558 1.366 . S
C1559 C1563 1.385 . S
C1560 H1541 0.951 . S
C1560 C1558 1.388 . S
C1560 C1561 1.366 . S
C1561 C1560 1.366 . S
C1561 C1562 1.414 . S
C1561 C1564 1.499 . S
C1562 H1542 0.950 . S
C1562 C1561 1.414 . S
C1562 C1563 1.374 . S
C1563 H1543 0.950 . S
C1563 C1559 1.385 . S
C1563 C1562 1.374 . S
C1564 C1561 1.499 . S
C1564 C1565 1.373 . S
C1564 C1566 1.389 . S
C1565 H1544 0.950 . S
C1565 C1564 1.373 . S
C1565 C1581 1.377 . S
C1566 C1564 1.389 . S
C1566 C1567 1.524 . S
C1566 C1580 1.377 . S
C1567 C1566 1.524 . S
C1567 C1568 1.397 . S
C1567 C1572 1.363 . S
C1568 H1545 0.950 . S
C1568 C1567 1.397 . S
C1568 C1569 1.334 . S
C1569 H1546 0.950 . S
C1569 C1568 1.334 . S
C1569 C1570 1.287 . S
C1570 C1569 1.287 . S
C1570 C1571 1.524 . S
C1570 H1589 0.913 . S
C1571 H1547 0.950 . S
C1571 C1570 1.524 . S
C1571 C1572 1.415 . S
C1572 H1548 0.950 . S
C1572 C1567 1.363 . S
C1572 C1571 1.415 . S
C1573 H1549 0.951 . S
C1573 C1574 1.366 . S
C1573 C1575 1.388 . S
C1574 C1573 1.366 . S
C1574 C1578 1.385 . S
C1575 H1550 0.951 . S
C1575 C1573 1.388 . S
C1575 C1576 1.366 . S
C1576 C1575 1.366 . S
C1576 C1577 1.414 . S
C1576 C1579 1.499 . S
C1577 H1551 0.950 . S
C1577 C1576 1.414 . S
C1577 C1578 1.374 . S
C1578 H1552 0.950 . S
C1578 C1574 1.385 . S
C1578 C1577 1.374 . S
C1579 C1576 1.499 . S
C1579 C1580 1.373 . S
C1579 C1581 1.389 . S
C1580 H1553 0.950 . S
C1580 C1566 1.377 . S
C1580 C1579 1.373 . S
C1581 C1565 1.377 . S
C1581 C1579 1.389 . S
C1581 C1582 1.524 . S
C1582 C1581 1.524 . S
C1582 C1583 1.397 . S
C1582 C1587 1.363 . S
C1583 H1554 0.950 . S
C1583 C1582 1.397 . S
C1583 C1584 1.334 . S
C1584 H1555 0.950 . S
C1584 C1583 1.334 . S
C1584 C1585 1.287 . S
C1585 C1584 1.287 . S
C1585 C1586 1.524 . S
C1585 H1588 0.999 . S
C1586 H1556 0.950 . S
C1586 C1585 1.524 . S
C1586 C1587 1.415 . S
C1587 H1557 0.950 . S
C1587 C1582 1.363 . S
C1587 C1586 1.415 . S
H1588 C1585 0.999 . S
H1589 C1570 0.913 . S
H1590 C1608 0.951 . S
H1591 C1610 0.951 . S
H1592 C1612 0.950 . S
H1593 C1613 0.950 . S
H1594 C1615 0.950 . S
H1595 C1618 0.950 . S
H1596 C1619 0.950 . S
H1597 C1621 0.950 . S
H1598 C1622 0.950 . S
H1599 C1623 0.951 . S
H1600 C1625 0.951 . S
H1601 C1627 0.950 . S
H1602 C1628 0.950 . S
H1603 C1630 0.950 . S
H1604 C1633 0.950 . S
H1605 C1634 0.950 . S
H1606 C1636 0.950 . S
H1607 C1637 0.950 . S
C1608 H1590 0.951 . S
C1608 C1609 1.366 . S
C1608 C1610 1.388 . S
C1609 C1608 1.366 . S
C1609 C1613 1.385 . S
C1610 H1591 0.951 . S
C1610 C1608 1.388 . S
C1610 C1611 1.366 . S
C1611 C1610 1.366 . S
C1611 C1612 1.414 . S
C1611 C1614 1.499 . S
C1612 H1592 0.950 . S
C1612 C1611 1.414 . S
C1612 C1613 1.374 . S
C1613 H1593 0.950 . S
C1613 C1609 1.385 . S
C1613 C1612 1.374 . S
C1614 C1611 1.499 . S
C1614 C1615 1.373 . S
C1614 C1616 1.389 . S
C1615 H1594 0.950 . S
C1615 C1614 1.373 . S
C1615 C1631 1.377 . S
C1616 C1614 1.389 . S
C1616 C1617 1.524 . S
C1616 C1630 1.377 . S
C1617 C1616 1.524 . S
C1617 C1618 1.397 . S
C1617 C1622 1.363 . S
C1618 H1595 0.950 . S
C1618 C1617 1.397 . S
C1618 C1619 1.334 . S
C1619 H1596 0.950 . S
C1619 C1618 1.334 . S
C1619 C1620 1.287 . S
C1620 C1619 1.287 . S
C1620 C1621 1.524 . S
C1620 H1639 0.913 . S
C1621 H1597 0.950 . S
C1621 C1620 1.524 . S
C1621 C1622 1.415 . S
C1622 H1598 0.950 . S
C1622 C1617 1.363 . S
C1622 C1621 1.415 . S
C1623 H1599 0.951 . S
C1623 C1624 1.366 . S
C1623 C1625 1.388 . S
C1624 C1623 1.366 . S
C1624 C1628 1.385 . S
C1625 H1600 0.951 . S
C1625 C1623 1.388 . S
C1625 C1626 1.366 . S
C1626 C1625 1.366 . S
C1626 C1627 1.414 . S
C1626 C1629 1.499 . S
C1627 H1601 0.950 . S
C1627 C1626 1.414 . S
C1627 C1628 1.374 . S
C1628 H1602 0.950 . S
C1628 C1624 1.385 . S
C1628 C1627 1.374 . S
C1629 C1626 1.499 . S
C1629 C1630 1.373 . S
C1629 C1631 1.389 . S
C1630 H1603 0.950 . S
C1630 C1616 1.377 . S
C1630 C1629 1.373 . S
C1631 C1615 1.377 . S
C1631 C1629 1.389 . S
C1631 C1632 1.524 . S
C1632 C1631 1.524 . S
C1632 C1633 1.397 . S
C1632 C1637 1.363 . S
C1633 H1604 0.950 . S
C1633 C1632 1.397 . S
C1633 C1634 1.334 . S
C1634 H1605 0.950 . S
C1634 C1633 1.334 . S
C1634 C1635 1.287 . S
C1635 C1634 1.287 . S
C1635 C1636 1.524 . S
C1635 H1638 0.999 . S
C1636 H1606 0.950 . S
C1636 C1635 1.524 . S
C1636 C1637 1.415 . S
C1637 H1607 0.950 . S
C1637 C1632 1.363 . S
C1637 C1636 1.415 . S
H1638 C1635 0.999 . S
H1639 C1620 0.913 . S
H1640 C1658 0.951 . S
H1641 C1660 0.951 . S
H1642 C1662 0.950 . S
H1643 C1663 0.950 . S
H1644 C1665 0.950 . S
H1645 C1668 0.950 . S
H1646 C1669 0.950 . S
H1647 C1671 0.950 . S
H1648 C1672 0.950 . S
H1649 C1673 0.951 . S
H1650 C1675 0.951 . S
H1651 C1677 0.950 . S
H1652 C1678 0.950 . S
H1653 C1680 0.950 . S
H1654 C1683 0.950 . S
H1655 C1684 0.950 . S
H1656 C1686 0.950 . S
H1657 C1687 0.950 . S
C1658 H1640 0.951 . S
C1658 C1659 1.366 1_455 S
C1658 C1660 1.388 . S
C1659 C1658 1.366 1_655 S
C1659 C1663 1.385 . S
C1660 H1641 0.951 . S
C1660 C1658 1.388 . S
C1660 C1661 1.366 1_455 S
C1661 C1660 1.366 1_655 S
C1661 C1662 1.414 . S
C1661 C1664 1.499 . S
C1662 H1642 0.950 . S
C1662 C1661 1.414 . S
C1662 C1663 1.374 . S
C1663 H1643 0.950 . S
C1663 C1659 1.385 . S
C1663 C1662 1.374 . S
C1664 C1661 1.499 . S
C1664 C1665 1.373 . S
C1664 C1666 1.389 1_655 S
C1665 H1644 0.950 . S
C1665 C1664 1.373 . S
C1665 C1681 1.377 . S
C1666 C1664 1.389 1_455 S
C1666 C1667 1.524 . S
C1666 C1680 1.377 . S
C1667 C1666 1.524 . S
C1667 C1668 1.397 . S
C1667 C1672 1.363 . S
C1668 H1645 0.950 . S
C1668 C1667 1.397 . S
C1668 C1669 1.334 . S
C1669 H1646 0.950 . S
C1669 C1668 1.334 . S
C1669 C1670 1.287 . S
C1670 C1669 1.287 . S
C1670 C1671 1.524 . S
C1670 H1689 0.913 . S
C1671 H1647 0.950 . S
C1671 C1670 1.524 . S
C1671 C1672 1.415 . S
C1672 H1648 0.950 . S
C1672 C1667 1.363 . S
C1672 C1671 1.415 . S
C1673 H1649 0.951 . S
C1673 C1674 1.366 . S
C1673 C1675 1.388 . S
C1674 C1673 1.366 . S
C1674 C1678 1.385 1_655 S
C1675 H1650 0.951 . S
C1675 C1673 1.388 . S
C1675 C1676 1.366 . S
C1676 C1675 1.366 . S
C1676 C1677 1.414 1_655 S
C1676 C1679 1.499 . S
C1677 H1651 0.950 . S
C1677 C1676 1.414 1_455 S
C1677 C1678 1.374 . S
C1678 H1652 0.950 . S
C1678 C1674 1.385 1_455 S
C1678 C1677 1.374 . S
C1679 C1676 1.499 . S
C1679 C1680 1.373 1_655 S
C1679 C1681 1.389 . S
C1680 H1653 0.950 . S
C1680 C1666 1.377 . S
C1680 C1679 1.373 1_455 S
C1681 C1665 1.377 . S
C1681 C1679 1.389 . S
C1681 C1682 1.524 . S
C1682 C1681 1.524 . S
C1682 C1683 1.397 . S
C1682 C1687 1.363 . S
C1683 H1654 0.950 . S
C1683 C1682 1.397 . S
C1683 C1684 1.334 . S
C1684 H1655 0.950 . S
C1684 C1683 1.334 . S
C1684 C1685 1.287 . S
C1685 C1684 1.287 . S
C1685 C1686 1.524 . S
C1685 H1688 0.999 . S
C1686 H1656 0.950 . S
C1686 C1685 1.524 . S
C1686 C1687 1.415 . S
C1687 H1657 0.950 . S
C1687 C1682 1.363 . S
C1687 C1686 1.415 . S
H1688 C1685 0.999 . S
H1689 C1670 0.913 . S
H1690 C1708 0.951 . S
H1691 C1710 0.951 1_545 S
H1692 C1712 0.950 . S
H1693 C1713 0.950 . S
H1694 C1715 0.950 . S
H1695 C1718 0.950 . S
H1696 C1719 0.950 . S
H1697 C1721 0.950 . S
H1698 C1722 0.950 . S
H1699 C1723 0.951 . S
H1700 C1725 0.951 . S
H1701 C1727 0.959 . S
H1702 C1728 0.950 . S
H1703 C1730 0.950 . S
H1704 C1733 0.950 . S
H1705 C1734 0.950 . S
H1706 C1736 0.950 . S
H1707 C1737 0.950 . S
C1708 H1690 0.951 . S
C1708 C1709 1.359 1_545 S
C1708 C1710 1.388 1_545 S
C1709 C1708 1.359 1_565 S
C1709 C1713 1.398 . S
C1710 H1691 0.951 1_565 S
C1710 C1708 1.388 1_565 S
C1710 C1711 1.365 . S
C1711 C1710 1.365 . S
C1711 C1712 1.414 . S
C1711 C1714 1.499 . S
C1712 H1692 0.950 . S
C1712 C1711 1.414 . S
C1712 C1713 1.374 . S
C1713 H1693 0.950 . S
C1713 C1709 1.398 . S
C1713 C1712 1.374 . S
C1714 C1711 1.499 . S
C1714 C1715 1.373 1_565 S
C1714 C1716 1.389 . S
C1715 H1694 0.950 . S
C1715 C1714 1.373 1_545 S
C1715 C1731 1.377 . S
C1716 C1714 1.389 . S
C1716 C1717 1.524 . S
C1716 C1730 1.377 . S
C1717 C1716 1.524 . S
C1717 C1718 1.397 . S
C1717 C1722 1.363 . S
C1718 H1695 0.950 . S
C1718 C1717 1.397 . S
C1718 C1719 1.334 . S
C1719 H1696 0.950 . S
C1719 C1718 1.334 . S
C1719 C1720 1.287 . S
C1720 C1719 1.287 . S
C1720 C1721 1.524 . S
C1720 H1739 0.913 . S
C1721 H1697 0.950 . S
C1721 C1720 1.524 . S
C1721 C1722 1.415 . S
C1722 H1698 0.950 . S
C1722 C1717 1.363 . S
C1722 C1721 1.415 . S
C1723 H1699 0.951 . S
C1723 C1724 1.366 . S
C1723 C1725 1.388 . S
C1724 C1723 1.366 . S
C1724 C1728 1.385 . S
C1725 H1700 0.951 . S
C1725 C1723 1.388 . S
C1725 C1726 1.366 . S
C1726 C1725 1.366 . S
C1726 C1727 1.414 . S
C1726 C1729 1.499 . S
C1727 H1701 0.959 . S
C1727 C1726 1.414 . S
C1727 C1728 1.374 . S
C1728 H1702 0.950 . S
C1728 C1724 1.385 . S
C1728 C1727 1.374 . S
C1729 C1726 1.499 . S
C1729 C1730 1.373 . S
C1729 C1731 1.389 1_565 S
C1730 H1703 0.950 . S
C1730 C1716 1.377 . S
C1730 C1729 1.373 . S
C1731 C1715 1.377 . S
C1731 C1729 1.389 1_545 S
C1731 C1732 1.524 . S
C1732 C1731 1.524 . S
C1732 C1733 1.397 . S
C1732 C1737 1.363 . S
C1733 H1704 0.950 . S
C1733 C1732 1.397 . S
C1733 C1734 1.334 . S
C1734 H1705 0.950 . S
C1734 C1733 1.334 . S
C1734 C1735 1.287 . S
C1735 C1734 1.287 . S
C1735 C1736 1.524 . S
C1735 H1738 0.999 . S
C1736 H1706 0.950 . S
C1736 C1735 1.524 . S
C1736 C1737 1.415 . S
C1737 H1707 0.950 . S
C1737 C1732 1.363 . S
C1737 C1736 1.415 . S
H1738 C1735 0.999 . S
H1739 C1720 0.913 . S
H1740 C1758 0.951 . S
H1741 C1760 0.951 . S
H1742 C1762 0.950 . S
H1743 C1763 0.950 . S
H1744 C1765 0.950 . S
H1745 C1768 0.950 . S
H1746 C1769 0.950 . S
H1747 C1771 0.950 . S
H1748 C1772 0.950 . S
H1749 C1773 0.951 . S
H1750 C1775 0.951 . S
H1751 C1777 0.950 . S
H1752 C1778 0.950 . S
H1753 C1780 0.950 . S
H1754 C1783 0.950 . S
H1755 C1784 0.950 . S
H1756 C1786 0.950 . S
H1757 C1787 0.950 . S
C1758 H1740 0.951 . S
C1758 C1759 1.366 . S
C1758 C1760 1.388 . S
C1759 C1758 1.366 . S
C1759 C1763 1.385 . S
C1760 H1741 0.951 . S
C1760 C1758 1.388 . S
C1760 C1761 1.366 . S
C1761 C1760 1.366 . S
C1761 C1762 1.414 . S
C1761 C1764 1.499 . S
C1762 H1742 0.950 . S
C1762 C1761 1.414 . S
C1762 C1763 1.374 . S
C1763 H1743 0.950 . S
C1763 C1759 1.385 . S
C1763 C1762 1.374 . S
C1764 C1761 1.499 . S
C1764 C1765 1.373 . S
C1764 C1766 1.389 . S
C1765 H1744 0.950 . S
C1765 C1764 1.373 . S
C1765 C1781 1.377 . S
C1766 C1764 1.389 . S
C1766 C1767 1.524 . S
C1766 C1780 1.377 . S
C1767 C1766 1.524 . S
C1767 C1768 1.397 . S
C1767 C1772 1.363 . S
C1768 H1745 0.950 . S
C1768 C1767 1.397 . S
C1768 C1769 1.334 . S
C1769 H1746 0.950 . S
C1769 C1768 1.334 . S
C1769 C1770 1.287 . S
C1770 C1769 1.287 . S
C1770 C1771 1.524 . S
C1770 H1789 0.913 . S
C1771 H1747 0.950 . S
C1771 C1770 1.524 . S
C1771 C1772 1.415 . S
C1772 H1748 0.950 . S
C1772 C1767 1.363 . S
C1772 C1771 1.415 . S
C1773 H1749 0.951 . S
C1773 C1774 1.366 . S
C1773 C1775 1.388 . S
C1774 C1773 1.366 . S
C1774 C1778 1.385 . S
C1775 H1750 0.951 . S
C1775 C1773 1.388 . S
C1775 C1776 1.366 . S
C1776 C1775 1.366 . S
C1776 C1777 1.414 . S
C1776 C1779 1.499 . S
C1777 H1751 0.950 . S
C1777 C1776 1.414 . S
C1777 C1778 1.374 . S
C1778 H1752 0.950 . S
C1778 C1774 1.385 . S
C1778 C1777 1.374 . S
C1779 C1776 1.499 . S
C1779 C1780 1.373 . S
C1779 C1781 1.389 . S
C1780 H1753 0.950 . S
C1780 C1766 1.377 . S
C1780 C1779 1.373 . S
C1781 C1765 1.377 . S
C1781 C1779 1.389 . S
C1781 C1782 1.524 . S
C1782 C1781 1.524 . S
C1782 C1783 1.397 . S
C1782 C1787 1.363 . S
C1783 H1754 0.950 . S
C1783 C1782 1.397 . S
C1783 C1784 1.334 . S
C1784 H1755 0.950 . S
C1784 C1783 1.334 . S
C1784 C1785 1.287 . S
C1785 C1784 1.287 . S
C1785 C1786 1.524 . S
C1785 H1788 0.999 . S
C1786 H1756 0.950 . S
C1786 C1785 1.524 . S
C1786 C1787 1.415 . S
C1787 H1757 0.950 . S
C1787 C1782 1.363 . S
C1787 C1786 1.415 . S
H1788 C1785 0.999 . S
H1789 C1770 0.913 . S
H1790 C1808 0.951 . S
H1791 C1810 0.951 . S
H1792 C1812 0.950 . S
H1793 C1813 0.950 . S
H1794 C1815 0.950 . S
H1795 C1818 0.950 . S
H1796 C1819 0.950 . S
H1797 C1821 0.950 . S
H1798 C1822 0.950 . S
H1799 C1823 0.951 . S
H1800 C1825 0.951 . S
H1801 C1827 0.950 . S
H1802 C1828 0.950 . S
H1803 C1830 0.950 . S
H1804 C1833 0.950 . S
H1805 C1834 0.950 . S
H1806 C1836 0.950 . S
H1807 C1837 0.950 . S
C1808 H1790 0.951 . S
C1808 C1809 1.366 . S
C1808 C1810 1.388 . S
C1809 C1808 1.366 . S
C1809 C1813 1.385 . S
C1810 H1791 0.951 . S
C1810 C1808 1.388 . S
C1810 C1811 1.366 . S
C1811 C1810 1.366 . S
C1811 C1812 1.414 . S
C1811 C1814 1.499 . S
C1812 H1792 0.950 . S
C1812 C1811 1.414 . S
C1812 C1813 1.374 . S
C1813 H1793 0.950 . S
C1813 C1809 1.385 . S
C1813 C1812 1.374 . S
C1814 C1811 1.499 . S
C1814 C1815 1.373 . S
C1814 C1816 1.389 . S
C1815 H1794 0.950 . S
C1815 C1814 1.373 . S
C1815 C1831 1.377 . S
C1816 C1814 1.389 . S
C1816 C1817 1.524 . S
C1816 C1830 1.377 . S
C1817 C1816 1.524 . S
C1817 C1818 1.397 . S
C1817 C1822 1.363 . S
C1818 H1795 0.950 . S
C1818 C1817 1.397 . S
C1818 C1819 1.334 . S
C1819 H1796 0.950 . S
C1819 C1818 1.334 . S
C1819 C1820 1.287 . S
C1820 C1819 1.287 . S
C1820 C1821 1.524 . S
C1820 H1839 0.913 . S
C1821 H1797 0.950 . S
C1821 C1820 1.524 . S
C1821 C1822 1.415 . S
C1822 H1798 0.950 . S
C1822 C1817 1.363 . S
C1822 C1821 1.415 . S
C1823 H1799 0.951 . S
C1823 C1824 1.366 . S
C1823 C1825 1.388 . S
C1824 C1823 1.366 . S
C1824 C1828 1.385 . S
C1825 H1800 0.951 . S
C1825 C1823 1.388 . S
C1825 C1826 1.366 . S
C1826 C1825 1.366 . S
C1826 C1827 1.414 . S
C1826 C1829 1.499 . S
C1827 H1801 0.950 . S
C1827 C1826 1.414 . S
C1827 C1828 1.374 . S
C1828 H1802 0.950 . S
C1828 C1824 1.385 . S
C1828 C1827 1.374 . S
C1829 C1826 1.499 . S
C1829 C1830 1.373 . S
C1829 C1831 1.389 . S
C1830 H1803 0.950 . S
C1830 C1816 1.377 . S
C1830 C1829 1.373 . S
C1831 C1815 1.377 . S
C1831 C1829 1.389 . S
C1831 C1832 1.524 . S
C1832 C1831 1.524 . S
C1832 C1833 1.397 . S
C1832 C1837 1.363 . S
C1833 H1804 0.950 . S
C1833 C1832 1.397 . S
C1833 C1834 1.334 . S
C1834 H1805 0.950 . S
C1834 C1833 1.334 . S
C1834 C1835 1.287 . S
C1835 C1834 1.287 . S
C1835 C1836 1.524 . S
C1835 H1838 0.999 . S
C1836 H1806 0.950 . S
C1836 C1835 1.524 . S
C1836 C1837 1.415 . S
C1837 H1807 0.950 . S
C1837 C1832 1.363 . S
C1837 C1836 1.415 . S
H1838 C1835 0.999 . S
H1839 C1820 0.913 . S
C659 C391 1.984 . S
C674 C489 2.027 1_545 S
C724 C529 2.041 . S
C709 C451 1.986 . S
C774 C569 2.043 . S
C759 C241 1.785 . S
C824 C609 2.033 1_455 S
C809 C331 1.775 1_455 S
C874 C498 2.032 1_565 S
C859 C121 1.778 1_545 S
C909 C211 1.995 . S
C924 C538 2.045 . S
C959 C31 1.998 . S
C974 C578 2.043 . S
C1009 C91 1.773 . S
C1024 C618 2.032 1_655 S
C1074 C495 0.243 . S
C1059 C301 0.493 1_455 S
C1124 C535 0.245 . S
C1109 C380 0.110 . S
C1174 C575 0.242 . S
C1159 C440 0.119 . S
C1209 C260 0.484 . S
C1224 C615 0.239 . S
C1259 C61 0.425 . S
C1274 C486 0.235 . S
C1324 C526 0.247 . S
C1309 C140 0.423 . S
C1374 C566 0.242 . S
C1359 C200 0.256 . S
C1409 C20 0.252 . S
C1424 C606 0.242 . S
C1459 C320 2.685 1_455 S
C1474 C499 2.833 . S
C1509 C361 2.306 . S
C1524 C539 2.820 . S
C1574 C579 2.808 . S
C1559 C421 2.292 . S
C1624 C619 2.829 . S
C1609 C271 2.668 . S
C1659 C80 2.676 . S
C1674 C490 2.848 . S
C1724 C530 2.820 . S
C1709 C151 2.659 . S
C1774 C570 2.807 . S
C1759 C181 2.307 . S
C1809 C1 2.327 . S
C1824 C610 2.836 . S
