# Generated by pormake.
# Topology pto, (3,4)-cn, num edge types: 1
# Building blocks:
#     Node 0, Type 0, BuildingBlock: WUSLED_clean_sbu_0, # of connection points: 3
#     Node 1, Type 0, BuildingBlock: WUSLED_clean_sbu_0, # of connection points: 3
#     Node 2, Type 0, BuildingBlock: WUSLED_clean_sbu_0, # of connection points: 3
#     Node 3, Type 0, BuildingBlock: WUSLED_clean_sbu_0, # of connection points: 3
#     Node 4, Type 0, BuildingBlock: WUSLED_clean_sbu_0, # of connection points: 3
#     Node 5, Type 0, BuildingBlock: WUSLED_clean_sbu_0, # of connection points: 3
#     Node 6, Type 0, BuildingBlock: WUSLED_clean_sbu_0, # of connection points: 3
#     Node 7, Type 0, BuildingBlock: WUSLED_clean_sbu_0, # of connection points: 3
#     Node 8, Type 1, BuildingBlock: MIFKUJ_clean_linker_1, # of connection points: 4
#     Node 9, Type 1, BuildingBlock: MIFKUJ_clean_linker_1, # of connection points: 4
#     Node 10, Type 1, BuildingBlock: MIFKUJ_clean_linker_1, # of connection points: 4
#     Node 11, Type 1, BuildingBlock: MIFKUJ_clean_linker_1, # of connection points: 4
#     Node 12, Type 1, BuildingBlock: MIFKUJ_clean_linker_1, # of connection points: 4
#     Node 13, Type 1, BuildingBlock: MIFKUJ_clean_linker_1, # of connection points: 4
#     Edge 14, Type (0, 1), None
#     Edge 15, Type (0, 1), None
#     Edge 16, Type (0, 1), None
#     Edge 17, Type (0, 1), None
#     Edge 18, Type (0, 1), None
#     Edge 19, Type (0, 1), None
#     Edge 20, Type (0, 1), None
#     Edge 21, Type (0, 1), None
#     Edge 22, Type (0, 1), None
#     Edge 23, Type (0, 1), None
#     Edge 24, Type (0, 1), None
#     Edge 25, Type (0, 1), None
#     Edge 26, Type (0, 1), None
#     Edge 27, Type (0, 1), None
#     Edge 28, Type (0, 1), None
#     Edge 29, Type (0, 1), None
#     Edge 30, Type (0, 1), None
#     Edge 31, Type (0, 1), None
#     Edge 32, Type (0, 1), None
#     Edge 33, Type (0, 1), None
#     Edge 34, Type (0, 1), None
#     Edge 35, Type (0, 1), None
#     Edge 36, Type (0, 1), None
#     Edge 37, Type (0, 1), None
# Relax obj value: 0.001
# Max RMSD: 0.012
# Mean RMSD: 0.005
data_MOF--net-pto--node1-WUSLED_clean_sbu_0--node2-MIFKUJ_clean_linker_1--edge1-none
_symmetry_space_group_name_H-M    P1
_symmetry_Int_Tables_number       1
_symmetry_cell_setting            triclinic
loop_
_symmetry_equiv_pos_as_xyz
'x, y, z'
_cell_length_a     30.762765
_cell_length_b     44.900607
_cell_length_c     37.867538
_cell_angle_alpha  89.427168
_cell_angle_beta   90.751678
_cell_angle_gamma 90.676069
loop_
_atom_site_label
_atom_site_type_symbol
_atom_site_fract_x
_atom_site_fract_y
_atom_site_fract_z
_atom_type_partial_charge
C0 C 0.23357 0.22364 0.3867 0.0
C1 C 0.25314 0.19887 0.37145 0.0
C2 C 0.24109 0.16963 0.42517 0.0
C3 C 0.2568 0.1721 0.39047 0.0
C4 C 0.22209 0.19475 0.44042 0.0
C5 C 0.21834 0.22146 0.42133 0.0
U6 U 0.26283 0.27386 0.30881 0.0
O7 O 0.22153 0.30131 0.27387 0.0
O8 O 0.27339 0.32236 0.30561 0.0
C9 C 0.24022 0.32635 0.28388 0.0
C10 C 0.22866 0.25172 0.36672 0.0
C11 C 0.21061 0.35072 0.2923 0.0
C12 C 0.16515 0.37757 0.33306 0.0
C13 C 0.1931 0.35391 0.32609 0.0
C14 C 0.17186 0.39476 0.27251 0.0
C15 C 0.1541 0.39823 0.30626 0.0
C16 C 0.19977 0.37127 0.26566 0.0
C17 C 0.3457 0.24644 0.24219 0.0
C18 C 0.38392 0.27768 0.19962 0.0
C19 C 0.3817 0.22414 0.1924 0.0
C20 C 0.35707 0.22124 0.22304 0.0
C21 C 0.39568 0.25239 0.18035 0.0
C22 C 0.35903 0.27474 0.23017 0.0
C23 C 0.32001 0.24266 0.27453 0.0
O24 O 0.26295 0.26947 0.36681 0.0
O25 O 0.21018 0.24927 0.33536 0.0
O26 O 0.27784 0.23962 0.26966 0.0
O27 O 0.33043 0.26036 0.30085 0.0
H28 H 0.26522 0.20018 0.34472 0.0
H29 H 0.27115 0.15319 0.37772 0.0
H30 H 0.21033 0.19385 0.46724 0.0
H31 H 0.20341 0.24042 0.4336 0.0
H32 H 0.15177 0.37946 0.35923 0.0
H33 H 0.20099 0.33815 0.34699 0.0
H34 H 0.16469 0.41049 0.25142 0.0
H35 H 0.21307 0.3692 0.23944 0.0
H36 H 0.39446 0.29975 0.1914 0.0
H37 H 0.38937 0.20423 0.17796 0.0
H38 H 0.34681 0.19923 0.23177 0.0
H39 H 0.35042 0.29454 0.2445 0.0
C40 C 0.22858 0.83446 0.65158 0.0
C41 C 0.26725 0.85138 0.65275 0.0
C42 C 0.23548 0.88841 0.61285 0.0
C43 C 0.27075 0.87805 0.63341 0.0
C44 C 0.19689 0.87128 0.61176 0.0
C45 C 0.19353 0.84456 0.6309 0.0
U46 U 0.26043 0.78454 0.72973 0.0
O47 O 0.21929 0.75822 0.7659 0.0
O48 O 0.26782 0.73597 0.73371 0.0
C49 C 0.23574 0.73277 0.7561 0.0
C50 C 0.22376 0.80672 0.67239 0.0
C51 C 0.20421 0.70863 0.74874 0.0
C52 C 0.15771 0.68024 0.70862 0.0
C53 C 0.18635 0.7042 0.71486 0.0
C54 C 0.16397 0.66537 0.77013 0.0
C55 C 0.14633 0.66044 0.7362 0.0
C56 C 0.19259 0.6892 0.77628 0.0
C57 C 0.34857 0.81045 0.79467 0.0
C58 C 0.37709 0.77857 0.84161 0.0
C59 C 0.3935 0.83148 0.84157 0.0
C60 C 0.36927 0.83501 0.81035 0.0
C61 C 0.39754 0.80326 0.85768 0.0
C62 C 0.35263 0.78216 0.81044 0.0
C63 C 0.32197 0.81489 0.76252 0.0
O64 O 0.25679 0.78839 0.6718 0.0
O65 O 0.20773 0.80992 0.7041 0.0
O66 O 0.28035 0.81893 0.76786 0.0
O67 O 0.32951 0.79671 0.73636 0.0
H68 H 0.29459 0.84409 0.66883 0.0
H69 H 0.30073 0.89087 0.63516 0.0
H70 H 0.1693 0.87845 0.59591 0.0
H71 H 0.16341 0.83184 0.62971 0.0
H72 H 0.14438 0.67727 0.68227 0.0
H73 H 0.19481 0.71908 0.69327 0.0
H74 H 0.15651 0.65037 0.79185 0.0
H75 H 0.20615 0.69223 0.80258 0.0
H76 H 0.37921 0.75661 0.85355 0.0
H77 H 0.40927 0.85087 0.85304 0.0
H78 H 0.36646 0.857 0.79855 0.0
H79 H 0.33655 0.76295 0.79882 0.0
C80 C 0.69596 0.80885 0.2443 0.0
C81 C 0.71377 0.79732 0.21338 0.0
C82 C 0.6431 0.79974 0.18353 0.0
C83 C 0.68768 0.79296 0.18329 0.0
C84 C 0.62529 0.81068 0.21486 0.0
C85 C 0.65149 0.81528 0.24483 0.0
U86 U 0.78352 0.78555 0.31119 0.0
O87 O 0.83719 0.81162 0.33513 0.0
O88 O 0.7873 0.79112 0.36875 0.0
C89 C 0.82093 0.80942 0.36699 0.0
C90 C 0.72314 0.81462 0.27602 0.0
C91 C 0.81679 0.83773 0.38594 0.0
C92 C 0.77423 0.88026 0.4036 0.0
C93 C 0.77769 0.85357 0.38512 0.0
C94 C 0.84918 0.87598 0.42324 0.0
C95 C 0.80994 0.89176 0.42292 0.0
C96 C 0.85251 0.84918 0.40497 0.0
C97 C 0.83407 0.70771 0.2984 0.0
C98 C 0.90352 0.68823 0.31908 0.0
C99 C 0.8478 0.65464 0.29652 0.0
C100 C 0.82021 0.67867 0.29064 0.0
C101 C 0.89006 0.65913 0.31021 0.0
C102 C 0.87573 0.71239 0.31315 0.0
C103 C 0.80486 0.73246 0.28926 0.0
O104 O 0.71476 0.79778 0.30375 0.0
O105 O 0.76499 0.81861 0.27074 0.0
O106 O 0.82314 0.75722 0.27758 0.0
O107 O 0.77282 0.73697 0.31111 0.0
H108 H 0.74797 0.79198 0.21226 0.0
H109 H 0.70275 0.78487 0.15961 0.0
H110 H 0.591 0.81564 0.21632 0.0
H111 H 0.637 0.82399 0.26847 0.0
H112 H 0.74373 0.89206 0.40249 0.0
H113 H 0.74983 0.84527 0.37027 0.0
H114 H 0.87712 0.88407 0.43814 0.0
H115 H 0.88297 0.83731 0.40584 0.0
H116 H 0.93591 0.69242 0.32958 0.0
H117 H 0.83606 0.63249 0.2901 0.0
H118 H 0.7881 0.67459 0.27944 0.0
H119 H 0.88702 0.73467 0.31947 0.0
C120 C 0.75642 0.19698 0.68976 0.0
C121 C 0.77455 0.20328 0.65663 0.0
C122 C 0.76657 0.15104 0.64018 0.0
C123 C 0.7796 0.18048 0.63203 0.0
C124 C 0.74923 0.14492 0.67372 0.0
C125 C 0.74417 0.16766 0.69818 0.0
U126 U 0.7772 0.27445 0.73023 0.0
O127 O 0.72962 0.30558 0.75165 0.0
O128 O 0.78062 0.28704 0.78612 0.0
C129 C 0.74511 0.30299 0.78402 0.0
C130 C 0.7488 0.22049 0.7157 0.0
C131 C 0.71287 0.29696 0.81159 0.0
C132 C 0.6689 0.26252 0.84634 0.0
C133 C 0.69802 0.26789 0.81882 0.0
C134 C 0.66845 0.3153 0.85905 0.0
C135 C 0.65401 0.28616 0.86695 0.0
C136 C 0.69764 0.3206 0.83165 0.0
C137 C 0.8601 0.32987 0.69426 0.0
C138 C 0.8604 0.38259 0.70848 0.0
C139 C 0.92582 0.35979 0.68705 0.0
C140 C 0.90384 0.3324 0.68467 0.0
C141 C 0.90439 0.38528 0.69897 0.0
C142 C 0.83857 0.35514 0.70634 0.0
C143 C 0.83781 0.30065 0.69254 0.0
O144 O 0.78077 0.22586 0.7382 0.0
O145 O 0.73026 0.2448 0.70346 0.0
O146 O 0.79627 0.30114 0.68383 0.0
O147 O 0.84648 0.28234 0.71891 0.0
H148 H 0.78429 0.22583 0.64968 0.0
H149 H 0.79285 0.186 0.6064 0.0
H150 H 0.7397 0.12246 0.68122 0.0
H151 H 0.73034 0.16235 0.72369 0.0
H152 H 0.65803 0.23988 0.85147 0.0
H153 H 0.70932 0.24935 0.80344 0.0
H154 H 0.65809 0.33395 0.87465 0.0
H155 H 0.70884 0.34318 0.82646 0.0
H156 H 0.84261 0.40174 0.71731 0.0
H157 H 0.95984 0.36082 0.6801 0.0
H158 H 0.92115 0.31309 0.67562 0.0
H159 H 0.80486 0.35369 0.71417 0.0
C160 C 0.83552 0.70566 0.75299 0.0
C161 C 0.84397 0.69751 0.71803 0.0
C162 C 0.89041 0.6572 0.73919 0.0
C163 C 0.87119 0.67346 0.71119 0.0
C164 C 0.88275 0.66613 0.77405 0.0
C165 C 0.85554 0.69003 0.78083 0.0
U166 U 0.78055 0.78149 0.7361 0.0
O167 O 0.71252 0.79408 0.74368 0.0
O168 O 0.76431 0.81578 0.77484 0.0
C169 C 0.72225 0.81212 0.76984 0.0
C170 C 0.80508 0.7296 0.76146 0.0
C171 C 0.69641 0.80827 0.80209 0.0
C172 C 0.65751 0.777 0.84424 0.0
C173 C 0.68277 0.77996 0.81389 0.0
C174 C 0.66002 0.8305 0.85173 0.0
C175 C 0.64569 0.80225 0.86352 0.0
C176 C 0.68501 0.83344 0.8213 0.0
C177 C 0.80849 0.8314 0.65771 0.0
C178 C 0.78426 0.88268 0.6536 0.0
C179 C 0.81935 0.8601 0.60378 0.0
C180 C 0.82362 0.83352 0.62305 0.0
C181 C 0.79993 0.88512 0.6189 0.0
C182 C 0.78842 0.85604 0.67279 0.0
C183 C 0.81419 0.80355 0.67797 0.0
O184 O 0.82289 0.75498 0.77134 0.0
O185 O 0.7714 0.73294 0.74007 0.0
O186 O 0.78041 0.78535 0.67805 0.0
O187 O 0.83253 0.80654 0.70931 0.0
H188 H 0.829 0.70938 0.69609 0.0
H189 H 0.87618 0.6671 0.68405 0.0
H190 H 0.89768 0.65455 0.79623 0.0
H191 H 0.84968 0.69609 0.80797 0.0
H192 H 0.64673 0.75494 0.85226 0.0
H193 H 0.69137 0.76018 0.79952 0.0
H194 H 0.65232 0.85039 0.86621 0.0
H195 H 0.69547 0.85545 0.81274 0.0
H196 H 0.7696 0.90153 0.66626 0.0
H197 H 0.8311 0.86098 0.57695 0.0
H198 H 0.83893 0.81465 0.61092 0.0
H199 H 0.77642 0.85477 0.69955 0.0
C200 C 0.69087 0.24383 0.24895 0.0
C201 C 0.68648 0.27229 0.23371 0.0
C202 C 0.64236 0.25153 0.18579 0.0
C203 C 0.66225 0.27613 0.20246 0.0
C204 C 0.64674 0.22311 0.20136 0.0
C205 C 0.67075 0.21933 0.23266 0.0
U206 U 0.77714 0.27013 0.3151 0.0
O207 O 0.77999 0.26591 0.37299 0.0
O208 O 0.83032 0.24541 0.34101 0.0
C209 C 0.81369 0.24817 0.37259 0.0
C210 C 0.71717 0.2392 0.28122 0.0
C211 C 0.8095 0.2203 0.39318 0.0
C212 C 0.76813 0.17636 0.41127 0.0
C213 C 0.77119 0.203 0.39187 0.0
C214 C 0.84174 0.18389 0.43321 0.0
C215 C 0.80348 0.16642 0.43203 0.0
C216 C 0.84465 0.21059 0.41401 0.0
C217 C 0.8303 0.34751 0.29844 0.0
C218 C 0.90169 0.36686 0.31565 0.0
C219 C 0.84505 0.40075 0.29684 0.0
C220 C 0.81652 0.3767 0.29197 0.0
C221 C 0.88823 0.39615 0.30816 0.0
C222 C 0.87296 0.34272 0.31081 0.0
C223 C 0.80009 0.32272 0.29023 0.0
O224 O 0.75901 0.23595 0.27617 0.0
O225 O 0.70862 0.25679 0.30773 0.0
O226 O 0.76758 0.31867 0.31201 0.0
O227 O 0.81753 0.29771 0.27992 0.0
H228 H 0.70211 0.29146 0.24581 0.0
H229 H 0.65987 0.29824 0.19095 0.0
H230 H 0.6314 0.20378 0.18943 0.0
H231 H 0.67382 0.19721 0.24405 0.0
H232 H 0.73843 0.16325 0.40947 0.0
H233 H 0.74379 0.21 0.37569 0.0
H234 H 0.86936 0.17702 0.44921 0.0
H235 H 0.87448 0.22363 0.41531 0.0
H236 H 0.93473 0.36253 0.32429 0.0
H237 H 0.83327 0.42301 0.29158 0.0
H238 H 0.7837 0.38088 0.28256 0.0
H239 H 0.88432 0.32035 0.31609 0.0
C240 C 0.22455 0.21803 0.65748 0.0
C241 C 0.26364 0.20218 0.65811 0.0
C242 C 0.23104 0.16384 0.62071 0.0
C243 C 0.26692 0.17541 0.63975 0.0
C244 C 0.1918 0.17964 0.62055 0.0
C245 C 0.18866 0.20652 0.63871 0.0
U246 U 0.25883 0.27005 0.73204 0.0
O247 O 0.26891 0.31861 0.73263 0.0
O248 O 0.2196 0.29788 0.7667 0.0
C249 C 0.23725 0.32281 0.75499 0.0
C250 C 0.22058 0.24636 0.67647 0.0
C251 C 0.20692 0.34708 0.74649 0.0
C252 C 0.16565 0.3775 0.7047 0.0
C253 C 0.19335 0.35349 0.71169 0.0
C254 C 0.16443 0.38851 0.76717 0.0
C255 C 0.15087 0.39529 0.73242 0.0
C256 C 0.19214 0.36469 0.77408 0.0
C257 C 0.34641 0.24511 0.79804 0.0
C258 C 0.38114 0.27812 0.84073 0.0
C259 C 0.38853 0.22467 0.84703 0.0
C260 C 0.36305 0.22056 0.8166 0.0
C261 C 0.39805 0.2535 0.85948 0.0
C262 C 0.35543 0.27395 0.81034 0.0
C263 C 0.31905 0.24012 0.76642 0.0
O264 O 0.20474 0.24413 0.70847 0.0
O265 O 0.25414 0.2647 0.67445 0.0
O266 O 0.32728 0.25736 0.73898 0.0
O267 O 0.2773 0.23672 0.77236 0.0
H268 H 0.29164 0.21052 0.67277 0.0
H269 H 0.29742 0.16361 0.64076 0.0
H270 H 0.16372 0.17149 0.60587 0.0
H271 H 0.15819 0.21838 0.63799 0.0
H272 H 0.1555 0.38197 0.6777 0.0
H273 H 0.2043 0.34008 0.68999 0.0
H274 H 0.15426 0.40199 0.78907 0.0
H275 H 0.20241 0.36019 0.80107 0.0
H276 H 0.38811 0.30062 0.84931 0.0
H277 H 0.40021 0.20517 0.8611 0.0
H278 H 0.35608 0.19813 0.80768 0.0
H279 H 0.34263 0.29322 0.79644 0.0
C280 C 0.18151 0.72346 0.34857 0.0
C281 C 0.18358 0.7071 0.31726 0.0
C282 C 0.1387 0.66766 0.34311 0.0
C283 C 0.16226 0.67951 0.31451 0.0
C284 C 0.13719 0.68403 0.37458 0.0
C285 C 0.15835 0.71172 0.37723 0.0
U286 U 0.26291 0.78015 0.31375 0.0
O287 O 0.25882 0.82883 0.30702 0.0
O288 O 0.30976 0.80956 0.34107 0.0
C289 C 0.29102 0.83398 0.32935 0.0
C290 C 0.20339 0.7527 0.35145 0.0
C291 C 0.28378 0.85736 0.35556 0.0
C292 C 0.26092 0.8738 0.41343 0.0
C293 C 0.26588 0.85101 0.38876 0.0
C294 C 0.29103 0.90941 0.37167 0.0
C295 C 0.27385 0.90326 0.40526 0.0
C296 C 0.29597 0.8867 0.34717 0.0
C297 C 0.3263 0.75924 0.23107 0.0
C298 C 0.37045 0.79394 0.19682 0.0
C299 C 0.37074 0.74129 0.18342 0.0
C300 C 0.34145 0.73578 0.21067 0.0
C301 C 0.38542 0.77046 0.17599 0.0
C302 C 0.3412 0.78836 0.22422 0.0
C303 C 0.29443 0.75284 0.25882 0.0
O304 O 0.2451 0.75189 0.35934 0.0
O305 O 0.19415 0.77182 0.32599 0.0
O306 O 0.25884 0.76875 0.25748 0.0
O307 O 0.31043 0.74972 0.29097 0.0
H308 H 0.20162 0.71571 0.29492 0.0
H309 H 0.16456 0.66732 0.29008 0.0
H310 H 0.11899 0.67569 0.39696 0.0
H311 H 0.15645 0.72403 0.40162 0.0
H312 H 0.24778 0.86825 0.43909 0.0
H313 H 0.25617 0.82845 0.39569 0.0
H314 H 0.30047 0.93188 0.36416 0.0
H315 H 0.3096 0.89206 0.3216 0.0
H316 H 0.38148 0.8166 0.19203 0.0
H317 H 0.38108 0.72276 0.16762 0.0
H318 H 0.3302 0.71316 0.21557 0.0
H319 H 0.32997 0.80675 0.23987 0.0
H320 H 0.94315 0.48744 0.26932 0.0
H321 H 0.8965 0.44354 0.26293 0.0
H322 H 0.94986 0.40702 0.36 0.0
H323 H 0.99707 0.45113 0.36604 0.0
H324 H 0.942 0.52753 0.31826 0.0
H325 H 0.04421 0.46309 0.27213 0.0
H326 H 0.08901 0.41945 0.26343 0.0
H327 H 0.15222 0.43439 0.36437 0.0
H328 H 0.10595 0.47768 0.37353 0.0
H329 H 0.09482 0.57472 0.38684 0.0
H330 H 0.13474 0.6221 0.39179 0.0
H331 H 0.08992 0.6473 0.28721 0.0
H332 H 0.05089 0.59974 0.28221 0.0
H333 H 0.10186 0.52867 0.33667 0.0
H334 H 0.99193 0.60166 0.37205 0.0
H335 H 0.946 0.64579 0.36537 0.0
H336 H 0.90207 0.61447 0.26331 0.0
H337 H 0.94762 0.57073 0.27011 0.0
C338 C 0.97355 0.47268 0.31821 0.0
C339 C 0.94495 0.46996 0.28921 0.0
C340 C 0.91811 0.44488 0.28569 0.0
C341 C 0.91897 0.42191 0.31121 0.0
C342 C 0.94853 0.42423 0.33978 0.0
C343 C 0.97553 0.44943 0.34327 0.0
C344 C 0.99931 0.50064 0.32294 0.0
C345 C 0.97703 0.52774 0.32205 0.0
C346 C 0.04503 0.5009 0.32793 0.0
C347 C 0.07121 0.47352 0.32372 0.0
C348 C 0.06707 0.4567 0.29276 0.0
C349 C 0.09315 0.43191 0.28761 0.0
C350 C 0.12442 0.42347 0.31312 0.0
C351 C 0.12818 0.44008 0.34436 0.0
C352 C 0.10197 0.46496 0.34952 0.0
C353 C 0.06953 0.58382 0.33432 0.0
C354 C 0.09382 0.59042 0.36495 0.0
C355 C 0.11632 0.61759 0.36783 0.0
C356 C 0.11536 0.63855 0.33995 0.0
C357 C 0.09163 0.63158 0.30905 0.0
C358 C 0.06902 0.6045 0.30626 0.0
C359 C 0.04439 0.55547 0.3318 0.0
C360 C 0.06678 0.52831 0.33336 0.0
C361 C 0.99891 0.55514 0.32567 0.0
C362 C 0.97316 0.58282 0.3216 0.0
C363 C 0.97272 0.60451 0.34811 0.0
C364 C 0.94649 0.62971 0.34426 0.0
C365 C 0.92 0.63347 0.31398 0.0
C366 C 0.92134 0.61198 0.28728 0.0
C367 C 0.94751 0.58698 0.29108 0.0
H368 H 0.10147 0.5779 0.67086 0.0
H369 H 0.14609 0.62277 0.67965 0.0
H370 H 0.08132 0.63835 0.77823 0.0
H371 H 0.03789 0.593 0.7698 0.0
H372 H 0.09978 0.52808 0.71366 0.0
H373 H 0.99462 0.60473 0.67702 0.0
H374 H 0.95098 0.64909 0.68728 0.0
H375 H 0.88991 0.60437 0.77556 0.0
H376 H 0.93451 0.56081 0.76602 0.0
H377 H 0.93519 0.47557 0.75447 0.0
H378 H 0.8967 0.42784 0.7501 0.0
H379 H 0.96542 0.40907 0.65409 0.0
H380 H 1.0046 0.45649 0.65929 0.0
H381 H 0.93859 0.52379 0.71275 0.0
H382 H 0.03585 0.45605 0.76189 0.0
H383 H 0.08011 0.4118 0.7701 0.0
H384 H 0.15619 0.43733 0.67936 0.0
H385 H 0.11063 0.48135 0.67058 0.0
C386 C 0.06605 0.58219 0.71949 0.0
C387 C 0.09675 0.5911 0.69426 0.0
C388 C 0.122 0.61689 0.6992 0.0
C389 C 0.11731 0.6342 0.72965 0.0
C390 C 0.08609 0.6254 0.75465 0.0
C391 C 0.06089 0.59962 0.7497 0.0
C392 C 0.04115 0.55385 0.71507 0.0
C393 C 0.06452 0.52722 0.71258 0.0
C394 C 0.9951 0.55257 0.71589 0.0
C395 C 0.9682 0.57949 0.72096 0.0
C396 C 0.97207 0.60462 0.69875 0.0
C397 C 0.94682 0.62987 0.70445 0.0
C398 C 0.91713 0.63042 0.73243 0.0
C399 C 0.91298 0.60501 0.7542 0.0
C400 C 0.93818 0.5799 0.74854 0.0
C401 C 0.97293 0.46955 0.70732 0.0
C402 C 0.94178 0.4612 0.73241 0.0
C403 C 0.91967 0.4339 0.72977 0.0
C404 C 0.92786 0.41447 0.70172 0.0
C405 C 0.95876 0.42314 0.67639 0.0
C406 C 0.98107 0.45035 0.6792 0.0
C407 C 0.99723 0.49822 0.7107 0.0
C408 C 0.97385 0.52477 0.71308 0.0
C409 C 0.04322 0.49938 0.71154 0.0
C410 C 0.06953 0.4719 0.71535 0.0
C411 C 0.06154 0.45191 0.74335 0.0
C412 C 0.08722 0.42674 0.74825 0.0
C413 C 0.12183 0.42106 0.72548 0.0
C414 C 0.12951 0.44089 0.69715 0.0
C415 C 0.10372 0.46617 0.69226 0.0
H416 H 0.17914 0.97943 0.5755 0.0
H417 H 0.17452 0.93215 0.6079 0.0
H418 H 0.3034 0.91002 0.57345 0.0
H419 H 0.30812 0.95768 0.54154 0.0
H420 H 0.23562 0.02607 0.58401 0.0
H421 H 0.1986 0.95562 0.49064 0.0
H422 H 0.20663 0.91353 0.45065 0.0
H423 H 0.33197 0.94836 0.41914 0.0
H424 H 0.32351 0.99036 0.45876 0.0
H425 H 0.31143 0.08203 0.45898 0.0
H426 H 0.30795 0.12948 0.42672 0.0
H427 H 0.18011 0.14439 0.46868 0.0
H428 H 0.18412 0.09726 0.50109 0.0
H429 H 0.26153 0.03253 0.45513 0.0
H430 H 0.30316 0.10065 0.54493 0.0
H431 H 0.29773 0.14652 0.57877 0.0
H432 H 0.17259 0.11733 0.61734 0.0
H433 H 0.17794 0.07159 0.58292 0.0
C434 C 0.2438 0.97203 0.55583 0.0
C435 C 0.20642 0.96441 0.57493 0.0
C436 C 0.20371 0.93727 0.59324 0.0
C437 C 0.23852 0.91723 0.59314 0.0
C438 C 0.27613 0.92503 0.57424 0.0
C439 C 0.27873 0.95215 0.55575 0.0
C440 C 0.2463 1.00104 0.53662 0.0
C441 C 0.24081 0.02742 0.55576 0.0
C442 C 0.25475 1.00294 0.49997 0.0
C443 C 0.26052 0.97615 0.47779 0.0
C444 C 0.22805 0.95394 0.47546 0.0
C445 C 0.2327 0.92986 0.45259 0.0
C446 C 0.26979 0.92765 0.43142 0.0
C447 C 0.3026 0.94962 0.4345 0.0
C448 C 0.29793 0.9736 0.45729 0.0
C449 C 0.24827 0.08621 0.4828 0.0
C450 C 0.28268 0.09557 0.4612 0.0
C451 C 0.28056 0.12267 0.44267 0.0
C452 C 0.2438 0.1409 0.44516 0.0
C453 C 0.20928 0.13129 0.46664 0.0
C454 C 0.21147 0.10425 0.48516 0.0
C455 C 0.25024 0.05736 0.50239 0.0
C456 C 0.25658 0.0311 0.48341 0.0
C457 C 0.24344 0.05555 0.53925 0.0
C458 C 0.24077 0.08278 0.56113 0.0
C459 C 0.27452 0.10413 0.56065 0.0
C460 C 0.27152 0.13025 0.58021 0.0
C461 C 0.23467 0.13562 0.60069 0.0
C462 C 0.20116 0.11401 0.60151 0.0
C463 C 0.20432 0.08777 0.58209 0.0
H464 H 0.43665 0.83418 0.97071 0.0
H465 H 0.39518 0.839 0.91552 0.0
H466 H 0.45551 0.75965 0.8764 0.0
H467 H 0.49646 0.75465 0.93211 0.0
H468 H 0.43723 0.78998 0.02019 0.0
H469 H 0.53792 0.83492 0.93885 0.0
H470 H 0.58067 0.83895 0.8852 0.0
H471 H 0.64925 0.75888 0.91515 0.0
H472 H 0.60466 0.75417 0.96789 0.0
H473 H 0.60358 0.75153 0.07899 0.0
H474 H 0.64646 0.7557 0.13362 0.0
H475 H 0.57764 0.83591 0.15934 0.0
H476 H 0.53421 0.831 0.10534 0.0
H477 H 0.59846 0.79027 0.02332 0.0
H478 H 0.50112 0.74528 0.1045 0.0
H479 H 0.45589 0.73797 0.15649 0.0
H480 H 0.38201 0.81586 0.12718 0.0
H481 H 0.42826 0.82358 0.07576 0.0
C482 C 0.46989 0.79419 0.95546 0.0
C483 C 0.44082 0.81774 0.95032 0.0
C484 C 0.41741 0.82061 0.91863 0.0
C485 C 0.42227 0.79982 0.89147 0.0
C486 C 0.45089 0.77594 0.89688 0.0
C487 C 0.47452 0.77317 0.92858 0.0
C488 C 0.49525 0.79191 0.98902 0.0
C489 C 0.4725 0.79038 0.02092 0.0
C490 C 0.5413 0.79133 0.98982 0.0
C491 C 0.56751 0.79396 0.95718 0.0
C492 C 0.56167 0.81796 0.93361 0.0
C493 C 0.58663 0.82045 0.90311 0.0
C494 C 0.61854 0.79925 0.89574 0.0
C495 C 0.62457 0.77537 0.91961 0.0
C496 C 0.59935 0.77278 0.94998 0.0
C497 C 0.56545 0.79079 0.08823 0.0
C498 C 0.59764 0.76989 0.09657 0.0
C499 C 0.62229 0.77243 0.12774 0.0
C500 C 0.61564 0.79618 0.15103 0.0
C501 C 0.5832 0.81701 0.14252 0.0
C502 C 0.55837 0.81431 0.11152 0.0
C503 C 0.5404 0.7889 0.05451 0.0
C504 C 0.56319 0.78965 0.02259 0.0
C505 C 0.49439 0.7886 0.05365 0.0
C506 C 0.46832 0.7851 0.08628 0.0
C507 C 0.47568 0.7611 0.10957 0.0
C508 C 0.44948 0.75676 0.13911 0.0
C509 C 0.41519 0.77626 0.14594 0.0
C510 C 0.4084 0.80061 0.12293 0.0
C511 C 0.4346 0.80491 0.09335 0.0
H512 H 0.72874 0.97232 0.58502 0.0
H513 H 0.73253 0.92481 0.61712 0.0
H514 H 0.86075 0.91062 0.5755 0.0
H515 H 0.8564 0.9578 0.54322 0.0
H516 H 0.77864 0.02195 0.58951 0.0
H517 H 0.73727 0.95431 0.49903 0.0
H518 H 0.74298 0.90867 0.46477 0.0
H519 H 0.86819 0.93831 0.42679 0.0
H520 H 0.86255 0.98381 0.46161 0.0
H521 H 0.86093 0.07586 0.46966 0.0
H522 H 0.86505 0.12314 0.4372 0.0
H523 H 0.73586 0.14461 0.47154 0.0
H524 H 0.73166 0.09696 0.50352 0.0
H525 H 0.80456 0.02915 0.46067 0.0
H526 H 0.84166 0.09894 0.55452 0.0
H527 H 0.83381 0.14082 0.59483 0.0
H528 H 0.70839 0.10601 0.62617 0.0
H529 H 0.7167 0.06419 0.58626 0.0
C530 C 0.79206 0.96849 0.5614 0.0
C531 C 0.75761 0.95892 0.58282 0.0
C532 C 0.75993 0.93179 0.60126 0.0
C533 C 0.79691 0.91377 0.59884 0.0
C534 C 0.83143 0.92357 0.57747 0.0
C535 C 0.82904 0.95063 0.55904 0.0
C536 C 0.78998 0.99741 0.54204 0.0
C537 C 0.78358 0.02354 0.56123 0.0
C538 C 0.79682 0.99943 0.50521 0.0
C539 C 0.79967 0.97236 0.48313 0.0
C540 C 0.76598 0.95097 0.48335 0.0
C541 C 0.76913 0.92499 0.46355 0.0
C542 C 0.80609 0.91983 0.44313 0.0
C543 C 0.83954 0.94149 0.44257 0.0
C544 C 0.83622 0.96758 0.46222 0.0
C545 C 0.79615 0.08295 0.48925 0.0
C546 C 0.83349 0.09075 0.47021 0.0
C547 C 0.83592 0.11788 0.45187 0.0
C548 C 0.80084 0.1377 0.4519 0.0
C549 C 0.76331 0.12975 0.47081 0.0
C550 C 0.76101 0.10265 0.48934 0.0
C551 C 0.79382 0.05388 0.50826 0.0
C552 C 0.79937 0.02764 0.48892 0.0
C553 C 0.78538 0.05178 0.5449 0.0
C554 C 0.77969 0.07844 0.56727 0.0
C555 C 0.81223 0.10058 0.56974 0.0
C556 C 0.80769 0.12453 0.5928 0.0
C557 C 0.77062 0.12668 0.614 0.0
C558 C 0.73774 0.10478 0.6108 0.0
C559 C 0.74232 0.08091 0.58783 0.0
H560 H 0.43101 0.29986 0.96647 0.0
H561 H 0.38752 0.29417 0.91239 0.0
H562 H 0.46996 0.22216 0.88059 0.0
H563 H 0.51175 0.22697 0.93537 0.0
H564 H 0.4419 0.26385 0.02 0.0
H565 H 0.53844 0.31086 0.93895 0.0
H566 H 0.58336 0.3184 0.88673 0.0
H567 H 0.65885 0.2413 0.91627 0.0
H568 H 0.61307 0.23341 0.9679 0.0
H569 H 0.60435 0.22183 0.07207 0.0
H570 H 0.64565 0.21661 0.12729 0.0
H571 H 0.58388 0.29498 0.16763 0.0
H572 H 0.54312 0.3004 0.11188 0.0
H573 H 0.6031 0.26684 0.02336 0.0
H574 H 0.50298 0.22002 0.10437 0.0
H575 H 0.4607 0.21586 0.15827 0.0
H576 H 0.3911 0.29556 0.12855 0.0
H577 H 0.43519 0.3004 0.07554 0.0
C578 C 0.475 0.26407 0.95494 0.0
C579 C 0.43969 0.28285 0.94783 0.0
C580 C 0.41506 0.27974 0.9167 0.0
C581 C 0.42516 0.25769 0.89203 0.0
C582 C 0.46083 0.23913 0.89912 0.0
C583 C 0.48522 0.24214 0.93029 0.0
C584 C 0.49996 0.26635 0.98877 0.0
C585 C 0.47714 0.2651 0.0207 0.0
C586 C 0.546 0.26753 0.98978 0.0
C587 C 0.57221 0.27147 0.9573 0.0
C588 C 0.56428 0.29533 0.93392 0.0
C589 C 0.59023 0.29977 0.90424 0.0
C590 C 0.62476 0.28048 0.89735 0.0
C591 C 0.63223 0.25636 0.92055 0.0
C592 C 0.60632 0.25198 0.95026 0.0
C593 C 0.57042 0.26137 0.08792 0.0
C594 C 0.59984 0.23798 0.09274 0.0
C595 C 0.62315 0.23488 0.12443 0.0
C596 C 0.61782 0.25526 0.15196 0.0
C597 C 0.58887 0.27901 0.14688 0.0
C598 C 0.56535 0.28202 0.11515 0.0
C599 C 0.54506 0.26379 0.05438 0.0
C600 C 0.56784 0.26592 0.02255 0.0
C601 C 0.49901 0.2637 0.05351 0.0
C602 C 0.47282 0.2608 0.08613 0.0
C603 C 0.47906 0.23684 0.1097 0.0
C604 C 0.45439 0.23429 0.14034 0.0
C605 C 0.42238 0.25538 0.14788 0.0
C606 C 0.41588 0.27917 0.12397 0.0
C607 C 0.44081 0.28182 0.09344 0.0
loop_
_geom_bond_atom_site_label_1
_geom_bond_atom_site_label_2
_geom_bond_distance
_geom_bond_site_symmetry_2
_ccdc_geom_bond_type
C0 C1 1.264 . S
C0 C5 1.479 . S
C0 C10 1.465 . S
C1 C0 1.264 . S
C1 C3 1.339 . S
C1 H28 0.931 . S
C2 C3 1.395 . S
C2 C4 1.320 . S
C3 C1 1.339 . S
C3 C2 1.395 . S
C3 H29 0.929 . S
C4 C2 1.320 . S
C4 C5 1.405 . S
C4 H30 0.930 . S
C5 C0 1.479 . S
C5 C4 1.405 . S
C5 H31 0.931 . S
U6 O7 2.454 . S
U6 O8 2.458 . S
U6 C9 2.984 . S
U6 C10 2.847 . S
U6 C23 2.882 . S
U6 O24 2.441 . S
U6 O25 2.420 . S
U6 O26 2.455 . S
U6 O27 2.449 . S
O7 U6 2.454 . S
O7 C9 1.353 . S
O8 U6 2.458 . S
O8 C9 1.286 . S
C9 U6 2.984 . S
C9 O7 1.353 . S
C9 O8 1.286 . S
C9 C11 1.363 . S
C10 C0 1.465 . S
C10 U6 2.847 . S
C10 O24 1.249 . S
C10 O25 1.202 . S
C11 C9 1.363 . S
C11 C13 1.408 . S
C11 C16 1.342 . S
C12 C13 1.310 . S
C12 C15 1.461 . S
C12 H32 0.932 . S
C13 C11 1.408 . S
C13 C12 1.310 . S
C13 H33 0.930 . S
C14 C15 1.474 . S
C14 C16 1.285 . S
C14 H34 0.929 . S
C15 C12 1.461 . S
C15 C14 1.474 . S
C16 C11 1.342 . S
C16 C14 1.285 . S
C16 H35 0.930 . S
C17 C20 1.424 . S
C17 C22 1.245 . S
C17 C23 1.428 . S
C18 C21 1.260 . S
C18 C22 1.477 . S
C18 H36 0.932 . S
C19 C20 1.384 . S
C19 C21 1.479 . S
C19 H37 0.929 . S
C20 C17 1.424 . S
C20 C19 1.384 . S
C20 H38 0.928 . S
C21 C18 1.260 . S
C21 C19 1.479 . S
C22 C17 1.245 . S
C22 C18 1.477 . S
C22 H39 0.932 . S
C23 U6 2.882 . S
C23 C17 1.428 . S
C23 O26 1.301 . S
C23 O27 1.282 . S
O24 U6 2.441 . S
O24 C10 1.249 . S
O25 U6 2.420 . S
O25 C10 1.202 . S
O26 U6 2.455 . S
O26 C23 1.301 . S
O27 U6 2.449 . S
O27 C23 1.282 . S
H28 C1 0.931 . S
H29 C3 0.929 . S
H30 C4 0.930 . S
H31 C5 0.931 . S
H32 C12 0.932 . S
H33 C13 0.930 . S
H34 C14 0.929 . S
H35 C16 0.930 . S
H36 C18 0.932 . S
H37 C19 0.929 . S
H38 C20 0.928 . S
H39 C22 0.932 . S
C40 C41 1.264 . S
C40 C45 1.479 . S
C40 C50 1.465 . S
C41 C40 1.264 . S
C41 C43 1.339 . S
C41 H68 0.931 . S
C42 C43 1.395 . S
C42 C44 1.320 . S
C43 C41 1.339 . S
C43 C42 1.395 . S
C43 H69 0.929 . S
C44 C42 1.320 . S
C44 C45 1.405 . S
C44 H70 0.930 . S
C45 C40 1.479 . S
C45 C44 1.405 . S
C45 H71 0.931 . S
U46 O47 2.454 . S
U46 O48 2.458 . S
U46 C49 2.984 . S
U46 C50 2.847 . S
U46 C63 2.882 . S
U46 O64 2.441 . S
U46 O65 2.420 . S
U46 O66 2.455 . S
U46 O67 2.449 . S
O47 U46 2.454 . S
O47 C49 1.353 . S
O48 U46 2.458 . S
O48 C49 1.286 . S
C49 U46 2.984 . S
C49 O47 1.353 . S
C49 O48 1.286 . S
C49 C51 1.363 . S
C50 C40 1.465 . S
C50 U46 2.847 . S
C50 O64 1.249 . S
C50 O65 1.202 . S
C51 C49 1.363 . S
C51 C53 1.408 . S
C51 C56 1.342 . S
C52 C53 1.310 . S
C52 C55 1.461 . S
C52 H72 0.932 . S
C53 C51 1.408 . S
C53 C52 1.310 . S
C53 H73 0.930 . S
C54 C55 1.474 . S
C54 C56 1.285 . S
C54 H74 0.929 . S
C55 C52 1.461 . S
C55 C54 1.474 . S
C56 C51 1.342 . S
C56 C54 1.285 . S
C56 H75 0.930 . S
C57 C60 1.424 . S
C57 C62 1.245 . S
C57 C63 1.428 . S
C58 C61 1.260 . S
C58 C62 1.477 . S
C58 H76 0.932 . S
C59 C60 1.384 . S
C59 C61 1.479 . S
C59 H77 0.929 . S
C60 C57 1.424 . S
C60 C59 1.384 . S
C60 H78 0.928 . S
C61 C58 1.260 . S
C61 C59 1.479 . S
C62 C57 1.245 . S
C62 C58 1.477 . S
C62 H79 0.932 . S
C63 U46 2.882 . S
C63 C57 1.428 . S
C63 O66 1.301 . S
C63 O67 1.282 . S
O64 U46 2.441 . S
O64 C50 1.249 . S
O65 U46 2.420 . S
O65 C50 1.202 . S
O66 U46 2.455 . S
O66 C63 1.301 . S
O67 U46 2.449 . S
O67 C63 1.282 . S
H68 C41 0.931 . S
H69 C43 0.929 . S
H70 C44 0.930 . S
H71 C45 0.931 . S
H72 C52 0.932 . S
H73 C53 0.930 . S
H74 C54 0.929 . S
H75 C56 0.930 . S
H76 C58 0.932 . S
H77 C59 0.929 . S
H78 C60 0.928 . S
H79 C62 0.932 . S
C80 C81 1.264 . S
C80 C85 1.479 . S
C80 C90 1.465 . S
C81 C80 1.264 . S
C81 C83 1.339 . S
C81 H108 0.931 . S
C82 C83 1.395 . S
C82 C84 1.320 . S
C83 C81 1.339 . S
C83 C82 1.395 . S
C83 H109 0.929 . S
C84 C82 1.320 . S
C84 C85 1.405 . S
C84 H110 0.930 . S
C85 C80 1.479 . S
C85 C84 1.405 . S
C85 H111 0.931 . S
U86 O87 2.454 . S
U86 O88 2.458 . S
U86 C89 2.984 . S
U86 C90 2.847 . S
U86 C103 2.882 . S
U86 O104 2.441 . S
U86 O105 2.420 . S
U86 O106 2.455 . S
U86 O107 2.449 . S
O87 U86 2.454 . S
O87 C89 1.353 . S
O88 U86 2.458 . S
O88 C89 1.286 . S
C89 U86 2.984 . S
C89 O87 1.353 . S
C89 O88 1.286 . S
C89 C91 1.363 . S
C90 C80 1.465 . S
C90 U86 2.847 . S
C90 O104 1.249 . S
C90 O105 1.202 . S
C91 C89 1.363 . S
C91 C93 1.408 . S
C91 C96 1.342 . S
C92 C93 1.310 . S
C92 C95 1.461 . S
C92 H112 0.932 . S
C93 C91 1.408 . S
C93 C92 1.310 . S
C93 H113 0.930 . S
C94 C95 1.474 . S
C94 C96 1.285 . S
C94 H114 0.929 . S
C95 C92 1.461 . S
C95 C94 1.474 . S
C96 C91 1.342 . S
C96 C94 1.285 . S
C96 H115 0.930 . S
C97 C100 1.424 . S
C97 C102 1.245 . S
C97 C103 1.428 . S
C98 C101 1.260 . S
C98 C102 1.477 . S
C98 H116 0.932 . S
C99 C100 1.384 . S
C99 C101 1.479 . S
C99 H117 0.929 . S
C100 C97 1.424 . S
C100 C99 1.384 . S
C100 H118 0.928 . S
C101 C98 1.260 . S
C101 C99 1.479 . S
C102 C97 1.245 . S
C102 C98 1.477 . S
C102 H119 0.932 . S
C103 U86 2.882 . S
C103 C97 1.428 . S
C103 O106 1.301 . S
C103 O107 1.282 . S
O104 U86 2.441 . S
O104 C90 1.249 . S
O105 U86 2.420 . S
O105 C90 1.202 . S
O106 U86 2.455 . S
O106 C103 1.301 . S
O107 U86 2.449 . S
O107 C103 1.282 . S
H108 C81 0.931 . S
H109 C83 0.929 . S
H110 C84 0.930 . S
H111 C85 0.931 . S
H112 C92 0.932 . S
H113 C93 0.930 . S
H114 C94 0.929 . S
H115 C96 0.930 . S
H116 C98 0.932 . S
H117 C99 0.929 . S
H118 C100 0.928 . S
H119 C102 0.932 . S
C120 C121 1.264 . S
C120 C125 1.479 . S
C120 C130 1.465 . S
C121 C120 1.264 . S
C121 C123 1.339 . S
C121 H148 0.931 . S
C122 C123 1.395 . S
C122 C124 1.320 . S
C123 C121 1.339 . S
C123 C122 1.395 . S
C123 H149 0.929 . S
C124 C122 1.320 . S
C124 C125 1.405 . S
C124 H150 0.930 . S
C125 C120 1.479 . S
C125 C124 1.405 . S
C125 H151 0.931 . S
U126 O127 2.454 . S
U126 O128 2.458 . S
U126 C129 2.984 . S
U126 C130 2.847 . S
U126 C143 2.882 . S
U126 O144 2.441 . S
U126 O145 2.420 . S
U126 O146 2.455 . S
U126 O147 2.449 . S
O127 U126 2.454 . S
O127 C129 1.353 . S
O128 U126 2.458 . S
O128 C129 1.286 . S
C129 U126 2.984 . S
C129 O127 1.353 . S
C129 O128 1.286 . S
C129 C131 1.363 . S
C130 C120 1.465 . S
C130 U126 2.847 . S
C130 O144 1.249 . S
C130 O145 1.202 . S
C131 C129 1.363 . S
C131 C133 1.408 . S
C131 C136 1.342 . S
C132 C133 1.310 . S
C132 C135 1.461 . S
C132 H152 0.932 . S
C133 C131 1.408 . S
C133 C132 1.310 . S
C133 H153 0.930 . S
C134 C135 1.474 . S
C134 C136 1.285 . S
C134 H154 0.929 . S
C135 C132 1.461 . S
C135 C134 1.474 . S
C136 C131 1.342 . S
C136 C134 1.285 . S
C136 H155 0.930 . S
C137 C140 1.424 . S
C137 C142 1.245 . S
C137 C143 1.428 . S
C138 C141 1.260 . S
C138 C142 1.477 . S
C138 H156 0.932 . S
C139 C140 1.384 . S
C139 C141 1.479 . S
C139 H157 0.929 . S
C140 C137 1.424 . S
C140 C139 1.384 . S
C140 H158 0.928 . S
C141 C138 1.260 . S
C141 C139 1.479 . S
C142 C137 1.245 . S
C142 C138 1.477 . S
C142 H159 0.932 . S
C143 U126 2.882 . S
C143 C137 1.428 . S
C143 O146 1.301 . S
C143 O147 1.282 . S
O144 U126 2.441 . S
O144 C130 1.249 . S
O145 U126 2.420 . S
O145 C130 1.202 . S
O146 U126 2.455 . S
O146 C143 1.301 . S
O147 U126 2.449 . S
O147 C143 1.282 . S
H148 C121 0.931 . S
H149 C123 0.929 . S
H150 C124 0.930 . S
H151 C125 0.931 . S
H152 C132 0.932 . S
H153 C133 0.930 . S
H154 C134 0.929 . S
H155 C136 0.930 . S
H156 C138 0.932 . S
H157 C139 0.929 . S
H158 C140 0.928 . S
H159 C142 0.932 . S
C160 C161 1.264 . S
C160 C165 1.479 . S
C160 C170 1.465 . S
C161 C160 1.264 . S
C161 C163 1.339 . S
C161 H188 0.931 . S
C162 C163 1.395 . S
C162 C164 1.320 . S
C163 C161 1.339 . S
C163 C162 1.395 . S
C163 H189 0.929 . S
C164 C162 1.320 . S
C164 C165 1.405 . S
C164 H190 0.930 . S
C165 C160 1.479 . S
C165 C164 1.405 . S
C165 H191 0.931 . S
U166 O167 2.454 . S
U166 O168 2.458 . S
U166 C169 2.984 . S
U166 C170 2.847 . S
U166 C183 2.882 . S
U166 O184 2.441 . S
U166 O185 2.420 . S
U166 O186 2.455 . S
U166 O187 2.449 . S
O167 U166 2.454 . S
O167 C169 1.353 . S
O168 U166 2.458 . S
O168 C169 1.286 . S
C169 U166 2.984 . S
C169 O167 1.353 . S
C169 O168 1.286 . S
C169 C171 1.363 . S
C170 C160 1.465 . S
C170 U166 2.847 . S
C170 O184 1.249 . S
C170 O185 1.202 . S
C171 C169 1.363 . S
C171 C173 1.408 . S
C171 C176 1.342 . S
C172 C173 1.310 . S
C172 C175 1.461 . S
C172 H192 0.932 . S
C173 C171 1.408 . S
C173 C172 1.310 . S
C173 H193 0.930 . S
C174 C175 1.474 . S
C174 C176 1.285 . S
C174 H194 0.929 . S
C175 C172 1.461 . S
C175 C174 1.474 . S
C176 C171 1.342 . S
C176 C174 1.285 . S
C176 H195 0.930 . S
C177 C180 1.424 . S
C177 C182 1.245 . S
C177 C183 1.428 . S
C178 C181 1.260 . S
C178 C182 1.477 . S
C178 H196 0.932 . S
C179 C180 1.384 . S
C179 C181 1.479 . S
C179 H197 0.929 . S
C180 C177 1.424 . S
C180 C179 1.384 . S
C180 H198 0.928 . S
C181 C178 1.260 . S
C181 C179 1.479 . S
C182 C177 1.245 . S
C182 C178 1.477 . S
C182 H199 0.932 . S
C183 U166 2.882 . S
C183 C177 1.428 . S
C183 O186 1.301 . S
C183 O187 1.282 . S
O184 U166 2.441 . S
O184 C170 1.249 . S
O185 U166 2.420 . S
O185 C170 1.202 . S
O186 U166 2.455 . S
O186 C183 1.301 . S
O187 U166 2.449 . S
O187 C183 1.282 . S
H188 C161 0.931 . S
H189 C163 0.929 . S
H190 C164 0.930 . S
H191 C165 0.931 . S
H192 C172 0.932 . S
H193 C173 0.930 . S
H194 C174 0.929 . S
H195 C176 0.930 . S
H196 C178 0.932 . S
H197 C179 0.929 . S
H198 C180 0.928 . S
H199 C182 0.932 . S
C200 C201 1.264 . S
C200 C205 1.479 . S
C200 C210 1.465 . S
C201 C200 1.264 . S
C201 C203 1.339 . S
C201 H228 0.931 . S
C202 C203 1.395 . S
C202 C204 1.320 . S
C203 C201 1.339 . S
C203 C202 1.395 . S
C203 H229 0.929 . S
C204 C202 1.320 . S
C204 C205 1.405 . S
C204 H230 0.930 . S
C205 C200 1.479 . S
C205 C204 1.405 . S
C205 H231 0.931 . S
U206 O207 2.454 . S
U206 O208 2.458 . S
U206 C209 2.984 . S
U206 C210 2.847 . S
U206 C223 2.882 . S
U206 O224 2.441 . S
U206 O225 2.420 . S
U206 O226 2.455 . S
U206 O227 2.449 . S
O207 U206 2.454 . S
O207 C209 1.353 . S
O208 U206 2.458 . S
O208 C209 1.286 . S
C209 U206 2.984 . S
C209 O207 1.353 . S
C209 O208 1.286 . S
C209 C211 1.363 . S
C210 C200 1.465 . S
C210 U206 2.847 . S
C210 O224 1.249 . S
C210 O225 1.202 . S
C211 C209 1.363 . S
C211 C213 1.408 . S
C211 C216 1.342 . S
C212 C213 1.310 . S
C212 C215 1.461 . S
C212 H232 0.932 . S
C213 C211 1.408 . S
C213 C212 1.310 . S
C213 H233 0.930 . S
C214 C215 1.474 . S
C214 C216 1.285 . S
C214 H234 0.929 . S
C215 C212 1.461 . S
C215 C214 1.474 . S
C216 C211 1.342 . S
C216 C214 1.285 . S
C216 H235 0.930 . S
C217 C220 1.424 . S
C217 C222 1.245 . S
C217 C223 1.428 . S
C218 C221 1.260 . S
C218 C222 1.477 . S
C218 H236 0.932 . S
C219 C220 1.384 . S
C219 C221 1.479 . S
C219 H237 0.929 . S
C220 C217 1.424 . S
C220 C219 1.384 . S
C220 H238 0.928 . S
C221 C218 1.260 . S
C221 C219 1.479 . S
C222 C217 1.245 . S
C222 C218 1.477 . S
C222 H239 0.932 . S
C223 U206 2.882 . S
C223 C217 1.428 . S
C223 O226 1.301 . S
C223 O227 1.282 . S
O224 U206 2.441 . S
O224 C210 1.249 . S
O225 U206 2.420 . S
O225 C210 1.202 . S
O226 U206 2.455 . S
O226 C223 1.301 . S
O227 U206 2.449 . S
O227 C223 1.282 . S
H228 C201 0.931 . S
H229 C203 0.929 . S
H230 C204 0.930 . S
H231 C205 0.931 . S
H232 C212 0.932 . S
H233 C213 0.930 . S
H234 C214 0.929 . S
H235 C216 0.930 . S
H236 C218 0.932 . S
H237 C219 0.929 . S
H238 C220 0.928 . S
H239 C222 0.932 . S
C240 C241 1.264 . S
C240 C245 1.479 . S
C240 C250 1.465 . S
C241 C240 1.264 . S
C241 C243 1.339 . S
C241 H268 0.931 . S
C242 C243 1.395 . S
C242 C244 1.320 . S
C243 C241 1.339 . S
C243 C242 1.395 . S
C243 H269 0.929 . S
C244 C242 1.320 . S
C244 C245 1.405 . S
C244 H270 0.930 . S
C245 C240 1.479 . S
C245 C244 1.405 . S
C245 H271 0.931 . S
U246 O247 2.454 . S
U246 O248 2.458 . S
U246 C249 2.984 . S
U246 C250 2.847 . S
U246 C263 2.882 . S
U246 O264 2.441 . S
U246 O265 2.420 . S
U246 O266 2.455 . S
U246 O267 2.449 . S
O247 U246 2.454 . S
O247 C249 1.353 . S
O248 U246 2.458 . S
O248 C249 1.286 . S
C249 U246 2.984 . S
C249 O247 1.353 . S
C249 O248 1.286 . S
C249 C251 1.363 . S
C250 C240 1.465 . S
C250 U246 2.847 . S
C250 O264 1.249 . S
C250 O265 1.202 . S
C251 C249 1.363 . S
C251 C253 1.408 . S
C251 C256 1.342 . S
C252 C253 1.310 . S
C252 C255 1.461 . S
C252 H272 0.932 . S
C253 C251 1.408 . S
C253 C252 1.310 . S
C253 H273 0.930 . S
C254 C255 1.474 . S
C254 C256 1.285 . S
C254 H274 0.929 . S
C255 C252 1.461 . S
C255 C254 1.474 . S
C256 C251 1.342 . S
C256 C254 1.285 . S
C256 H275 0.930 . S
C257 C260 1.424 . S
C257 C262 1.245 . S
C257 C263 1.428 . S
C258 C261 1.260 . S
C258 C262 1.477 . S
C258 H276 0.932 . S
C259 C260 1.384 . S
C259 C261 1.479 . S
C259 H277 0.929 . S
C260 C257 1.424 . S
C260 C259 1.384 . S
C260 H278 0.928 . S
C261 C258 1.260 . S
C261 C259 1.479 . S
C262 C257 1.245 . S
C262 C258 1.477 . S
C262 H279 0.932 . S
C263 U246 2.882 . S
C263 C257 1.428 . S
C263 O266 1.301 . S
C263 O267 1.282 . S
O264 U246 2.441 . S
O264 C250 1.249 . S
O265 U246 2.420 . S
O265 C250 1.202 . S
O266 U246 2.455 . S
O266 C263 1.301 . S
O267 U246 2.449 . S
O267 C263 1.282 . S
H268 C241 0.931 . S
H269 C243 0.929 . S
H270 C244 0.930 . S
H271 C245 0.931 . S
H272 C252 0.932 . S
H273 C253 0.930 . S
H274 C254 0.929 . S
H275 C256 0.930 . S
H276 C258 0.932 . S
H277 C259 0.929 . S
H278 C260 0.928 . S
H279 C262 0.932 . S
C280 C281 1.264 . S
C280 C285 1.479 . S
C280 C290 1.465 . S
C281 C280 1.264 . S
C281 C283 1.339 . S
C281 H308 0.931 . S
C282 C283 1.395 . S
C282 C284 1.320 . S
C283 C281 1.339 . S
C283 C282 1.395 . S
C283 H309 0.929 . S
C284 C282 1.320 . S
C284 C285 1.405 . S
C284 H310 0.930 . S
C285 C280 1.479 . S
C285 C284 1.405 . S
C285 H311 0.931 . S
U286 O287 2.454 . S
U286 O288 2.458 . S
U286 C289 2.984 . S
U286 C290 2.847 . S
U286 C303 2.882 . S
U286 O304 2.441 . S
U286 O305 2.420 . S
U286 O306 2.455 . S
U286 O307 2.449 . S
O287 U286 2.454 . S
O287 C289 1.353 . S
O288 U286 2.458 . S
O288 C289 1.286 . S
C289 U286 2.984 . S
C289 O287 1.353 . S
C289 O288 1.286 . S
C289 C291 1.363 . S
C290 C280 1.465 . S
C290 U286 2.847 . S
C290 O304 1.249 . S
C290 O305 1.202 . S
C291 C289 1.363 . S
C291 C293 1.408 . S
C291 C296 1.342 . S
C292 C293 1.310 . S
C292 C295 1.461 . S
C292 H312 0.932 . S
C293 C291 1.408 . S
C293 C292 1.310 . S
C293 H313 0.930 . S
C294 C295 1.474 . S
C294 C296 1.285 . S
C294 H314 0.929 . S
C295 C292 1.461 . S
C295 C294 1.474 . S
C296 C291 1.342 . S
C296 C294 1.285 . S
C296 H315 0.930 . S
C297 C300 1.424 . S
C297 C302 1.245 . S
C297 C303 1.428 . S
C298 C301 1.260 . S
C298 C302 1.477 . S
C298 H316 0.932 . S
C299 C300 1.384 . S
C299 C301 1.479 . S
C299 H317 0.929 . S
C300 C297 1.424 . S
C300 C299 1.384 . S
C300 H318 0.928 . S
C301 C298 1.260 . S
C301 C299 1.479 . S
C302 C297 1.245 . S
C302 C298 1.477 . S
C302 H319 0.932 . S
C303 U286 2.882 . S
C303 C297 1.428 . S
C303 O306 1.301 . S
C303 O307 1.282 . S
O304 U286 2.441 . S
O304 C290 1.249 . S
O305 U286 2.420 . S
O305 C290 1.202 . S
O306 U286 2.455 . S
O306 C303 1.301 . S
O307 U286 2.449 . S
O307 C303 1.282 . S
H308 C281 0.931 . S
H309 C283 0.929 . S
H310 C284 0.930 . S
H311 C285 0.931 . S
H312 C292 0.932 . S
H313 C293 0.930 . S
H314 C294 0.929 . S
H315 C296 0.930 . S
H316 C298 0.932 . S
H317 C299 0.929 . S
H318 C300 0.928 . S
H319 C302 0.932 . S
H320 C339 0.949 . S
H321 C340 0.950 . S
H322 C342 0.950 . S
H323 C343 0.950 . S
H324 C345 0.950 . S
H325 C348 0.950 . S
H326 C349 0.950 . S
H327 C351 0.951 . S
H328 C352 0.949 . S
H329 C354 0.949 . S
H330 C355 0.950 . S
H331 C357 0.950 . S
H332 C358 0.950 . S
H333 C360 0.950 . S
H334 C363 0.950 . S
H335 C364 0.950 . S
H336 C366 0.951 . S
H337 C367 0.949 . S
C338 C339 1.376 . S
C338 C343 1.386 . S
C338 C344 1.483 . S
C339 H320 0.949 . S
C339 C338 1.376 . S
C339 C340 1.397 . S
C340 H321 0.950 . S
C340 C339 1.397 . S
C340 C341 1.391 . S
C341 C340 1.391 . S
C341 C342 1.405 . S
C342 H322 0.950 . S
C342 C341 1.405 . S
C342 C343 1.367 . S
C343 H323 0.950 . S
C343 C338 1.386 . S
C343 C342 1.367 . S
C344 C338 1.483 . S
C344 C345 1.382 . S
C344 C346 1.403 1_655 S
C345 H324 0.950 . S
C345 C344 1.382 . S
C345 C361 1.411 . S
C346 C344 1.403 1_455 S
C346 C347 1.489 . S
C346 C360 1.411 . S
C347 C346 1.489 . S
C347 C348 1.383 . S
C347 C352 1.382 . S
C348 H325 0.950 . S
C348 C347 1.383 . S
C348 C349 1.395 . S
C349 H326 0.950 . S
C349 C348 1.395 . S
C349 C350 1.288 . S
C350 C349 1.288 . S
C350 C351 1.392 . S
C351 H327 0.951 . S
C351 C350 1.392 . S
C351 C352 1.392 . S
C352 H328 0.949 . S
C352 C347 1.382 . S
C352 C351 1.392 . S
C353 C354 1.376 . S
C353 C358 1.386 . S
C353 C359 1.483 . S
C354 H329 0.949 . S
C354 C353 1.376 . S
C354 C355 1.397 . S
C355 H330 0.950 . S
C355 C354 1.397 . S
C355 C356 1.391 . S
C356 C355 1.391 . S
C356 C357 1.405 . S
C357 H331 0.950 . S
C357 C356 1.405 . S
C357 C358 1.367 . S
C358 H332 0.950 . S
C358 C353 1.386 . S
C358 C357 1.367 . S
C359 C353 1.483 . S
C359 C360 1.382 . S
C359 C361 1.403 1_455 S
C360 H333 0.950 . S
C360 C346 1.411 . S
C360 C359 1.382 . S
C361 C345 1.411 . S
C361 C359 1.403 1_655 S
C361 C362 1.489 . S
C362 C361 1.489 . S
C362 C363 1.383 . S
C362 C367 1.382 . S
C363 H334 0.950 . S
C363 C362 1.383 . S
C363 C364 1.395 . S
C364 H335 0.950 . S
C364 C363 1.395 . S
C364 C365 1.288 . S
C365 C364 1.288 . S
C365 C366 1.392 . S
C366 H336 0.951 . S
C366 C365 1.392 . S
C366 C367 1.392 . S
C367 H337 0.949 . S
C367 C362 1.382 . S
C367 C366 1.392 . S
H368 C387 0.949 . S
H369 C388 0.950 . S
H370 C390 0.950 . S
H371 C391 0.950 . S
H372 C393 0.950 . S
H373 C396 0.950 . S
H374 C397 0.950 . S
H375 C399 0.951 . S
H376 C400 0.949 . S
H377 C402 0.949 . S
H378 C403 0.950 . S
H379 C405 0.950 . S
H380 C406 0.950 . S
H381 C408 0.950 . S
H382 C411 0.950 . S
H383 C412 0.950 . S
H384 C414 0.951 . S
H385 C415 0.949 . S
C386 C387 1.376 . S
C386 C391 1.386 . S
C386 C392 1.483 . S
C387 H368 0.949 . S
C387 C386 1.376 . S
C387 C388 1.397 . S
C388 H369 0.950 . S
C388 C387 1.397 . S
C388 C389 1.391 . S
C389 C388 1.391 . S
C389 C390 1.405 . S
C390 H370 0.950 . S
C390 C389 1.405 . S
C390 C391 1.367 . S
C391 H371 0.950 . S
C391 C386 1.386 . S
C391 C390 1.367 . S
C392 C386 1.483 . S
C392 C393 1.382 . S
C392 C394 1.403 1_455 S
C393 H372 0.950 . S
C393 C392 1.382 . S
C393 C409 1.411 . S
C394 C392 1.403 1_655 S
C394 C395 1.489 . S
C394 C408 1.411 . S
C395 C394 1.489 . S
C395 C396 1.383 . S
C395 C400 1.382 . S
C396 H373 0.950 . S
C396 C395 1.383 . S
C396 C397 1.395 . S
C397 H374 0.950 . S
C397 C396 1.395 . S
C397 C398 1.288 . S
C398 C397 1.288 . S
C398 C399 1.392 . S
C399 H375 0.951 . S
C399 C398 1.392 . S
C399 C400 1.392 . S
C400 H376 0.949 . S
C400 C395 1.382 . S
C400 C399 1.392 . S
C401 C402 1.376 . S
C401 C406 1.386 . S
C401 C407 1.483 . S
C402 H377 0.949 . S
C402 C401 1.376 . S
C402 C403 1.397 . S
C403 H378 0.950 . S
C403 C402 1.397 . S
C403 C404 1.391 . S
C404 C403 1.391 . S
C404 C405 1.405 . S
C405 H379 0.950 . S
C405 C404 1.405 . S
C405 C406 1.367 . S
C406 H380 0.950 . S
C406 C401 1.386 . S
C406 C405 1.367 . S
C407 C401 1.483 . S
C407 C408 1.382 . S
C407 C409 1.403 1_655 S
C408 H381 0.950 . S
C408 C394 1.411 . S
C408 C407 1.382 . S
C409 C393 1.411 . S
C409 C407 1.403 1_455 S
C409 C410 1.489 . S
C410 C409 1.489 . S
C410 C411 1.383 . S
C410 C415 1.382 . S
C411 H382 0.950 . S
C411 C410 1.383 . S
C411 C412 1.395 . S
C412 H383 0.950 . S
C412 C411 1.395 . S
C412 C413 1.288 . S
C413 C412 1.288 . S
C413 C414 1.392 . S
C414 H384 0.951 . S
C414 C413 1.392 . S
C414 C415 1.392 . S
C415 H385 0.949 . S
C415 C410 1.382 . S
C415 C414 1.392 . S
H416 C435 0.949 . S
H417 C436 0.950 . S
H418 C438 0.950 . S
H419 C439 0.950 . S
H420 C441 0.950 . S
H421 C444 0.950 . S
H422 C445 0.950 . S
H423 C447 0.951 . S
H424 C448 0.949 . S
H425 C450 0.949 . S
H426 C451 0.950 . S
H427 C453 0.950 . S
H428 C454 0.950 . S
H429 C456 0.950 . S
H430 C459 0.950 . S
H431 C460 0.950 . S
H432 C462 0.951 . S
H433 C463 0.949 . S
C434 C435 1.376 . S
C434 C439 1.386 . S
C434 C440 1.483 . S
C435 H416 0.949 . S
C435 C434 1.376 . S
C435 C436 1.397 . S
C436 H417 0.950 . S
C436 C435 1.397 . S
C436 C437 1.391 . S
C437 C436 1.391 . S
C437 C438 1.405 . S
C438 H418 0.950 . S
C438 C437 1.405 . S
C438 C439 1.367 . S
C439 H419 0.950 . S
C439 C434 1.386 . S
C439 C438 1.367 . S
C440 C434 1.483 . S
C440 C441 1.382 1_565 S
C440 C442 1.403 . S
C441 H420 0.950 . S
C441 C440 1.382 1_545 S
C441 C457 1.411 . S
C442 C440 1.403 . S
C442 C443 1.489 . S
C442 C456 1.411 1_565 S
C443 C442 1.489 . S
C443 C444 1.383 . S
C443 C448 1.382 . S
C444 H421 0.950 . S
C444 C443 1.383 . S
C444 C445 1.395 . S
C445 H422 0.950 . S
C445 C444 1.395 . S
C445 C446 1.288 . S
C446 C445 1.288 . S
C446 C447 1.392 . S
C447 H423 0.951 . S
C447 C446 1.392 . S
C447 C448 1.392 . S
C448 H424 0.949 . S
C448 C443 1.382 . S
C448 C447 1.392 . S
C449 C450 1.376 . S
C449 C454 1.386 . S
C449 C455 1.483 . S
C450 H425 0.949 . S
C450 C449 1.376 . S
C450 C451 1.397 . S
C451 H426 0.950 . S
C451 C450 1.397 . S
C451 C452 1.391 . S
C452 C451 1.391 . S
C452 C453 1.405 . S
C453 H427 0.950 . S
C453 C452 1.405 . S
C453 C454 1.367 . S
C454 H428 0.950 . S
C454 C449 1.386 . S
C454 C453 1.367 . S
C455 C449 1.483 . S
C455 C456 1.382 . S
C455 C457 1.403 . S
C456 H429 0.950 . S
C456 C442 1.411 1_545 S
C456 C455 1.382 . S
C457 C441 1.411 . S
C457 C455 1.403 . S
C457 C458 1.489 . S
C458 C457 1.489 . S
C458 C459 1.383 . S
C458 C463 1.382 . S
C459 H430 0.950 . S
C459 C458 1.383 . S
C459 C460 1.395 . S
C460 H431 0.950 . S
C460 C459 1.395 . S
C460 C461 1.288 . S
C461 C460 1.288 . S
C461 C462 1.392 . S
C462 H432 0.951 . S
C462 C461 1.392 . S
C462 C463 1.392 . S
C463 H433 0.949 . S
C463 C458 1.382 . S
C463 C462 1.392 . S
H464 C483 0.949 . S
H465 C484 0.950 . S
H466 C486 0.950 . S
H467 C487 0.950 . S
H468 C489 0.950 . S
H469 C492 0.950 . S
H470 C493 0.950 . S
H471 C495 0.951 . S
H472 C496 0.949 . S
H473 C498 0.949 . S
H474 C499 0.950 . S
H475 C501 0.950 . S
H476 C502 0.950 . S
H477 C504 0.950 . S
H478 C507 0.950 . S
H479 C508 0.950 . S
H480 C510 0.951 . S
H481 C511 0.949 . S
C482 C483 1.376 . S
C482 C487 1.386 . S
C482 C488 1.483 . S
C483 H464 0.949 . S
C483 C482 1.376 . S
C483 C484 1.397 . S
C484 H465 0.950 . S
C484 C483 1.397 . S
C484 C485 1.391 . S
C485 C484 1.391 . S
C485 C486 1.405 . S
C486 H466 0.950 . S
C486 C485 1.405 . S
C486 C487 1.367 . S
C487 H467 0.950 . S
C487 C482 1.386 . S
C487 C486 1.367 . S
C488 C482 1.483 . S
C488 C489 1.382 1_556 S
C488 C490 1.403 . S
C489 H468 0.950 . S
C489 C488 1.382 1_554 S
C489 C505 1.411 . S
C490 C488 1.403 . S
C490 C491 1.489 . S
C490 C504 1.411 1_556 S
C491 C490 1.489 . S
C491 C492 1.383 . S
C491 C496 1.382 . S
C492 H469 0.950 . S
C492 C491 1.383 . S
C492 C493 1.395 . S
C493 H470 0.950 . S
C493 C492 1.395 . S
C493 C494 1.288 . S
C494 C493 1.288 . S
C494 C495 1.392 . S
C495 H471 0.951 . S
C495 C494 1.392 . S
C495 C496 1.392 . S
C496 H472 0.949 . S
C496 C491 1.382 . S
C496 C495 1.392 . S
C497 C498 1.376 . S
C497 C502 1.386 . S
C497 C503 1.483 . S
C498 H473 0.949 . S
C498 C497 1.376 . S
C498 C499 1.397 . S
C499 H474 0.950 . S
C499 C498 1.397 . S
C499 C500 1.391 . S
C500 C499 1.391 . S
C500 C501 1.405 . S
C501 H475 0.950 . S
C501 C500 1.405 . S
C501 C502 1.367 . S
C502 H476 0.950 . S
C502 C497 1.386 . S
C502 C501 1.367 . S
C503 C497 1.483 . S
C503 C504 1.382 . S
C503 C505 1.403 . S
C504 H477 0.950 . S
C504 C490 1.411 1_554 S
C504 C503 1.382 . S
C505 C489 1.411 . S
C505 C503 1.403 . S
C505 C506 1.489 . S
C506 C505 1.489 . S
C506 C507 1.383 . S
C506 C511 1.382 . S
C507 H478 0.950 . S
C507 C506 1.383 . S
C507 C508 1.395 . S
C508 H479 0.950 . S
C508 C507 1.395 . S
C508 C509 1.288 . S
C509 C508 1.288 . S
C509 C510 1.392 . S
C510 H480 0.951 . S
C510 C509 1.392 . S
C510 C511 1.392 . S
C511 H481 0.949 . S
C511 C506 1.382 . S
C511 C510 1.392 . S
H512 C531 0.949 . S
H513 C532 0.950 . S
H514 C534 0.950 . S
H515 C535 0.950 . S
H516 C537 0.950 . S
H517 C540 0.950 . S
H518 C541 0.950 . S
H519 C543 0.951 . S
H520 C544 0.949 . S
H521 C546 0.949 . S
H522 C547 0.950 . S
H523 C549 0.950 . S
H524 C550 0.950 . S
H525 C552 0.950 . S
H526 C555 0.950 . S
H527 C556 0.950 . S
H528 C558 0.951 . S
H529 C559 0.949 . S
C530 C531 1.376 . S
C530 C535 1.386 . S
C530 C536 1.483 . S
C531 H512 0.949 . S
C531 C530 1.376 . S
C531 C532 1.397 . S
C532 H513 0.950 . S
C532 C531 1.397 . S
C532 C533 1.391 . S
C533 C532 1.391 . S
C533 C534 1.405 . S
C534 H514 0.950 . S
C534 C533 1.405 . S
C534 C535 1.367 . S
C535 H515 0.950 . S
C535 C530 1.386 . S
C535 C534 1.367 . S
C536 C530 1.483 . S
C536 C537 1.382 1_565 S
C536 C538 1.403 . S
C537 H516 0.950 . S
C537 C536 1.382 1_545 S
C537 C553 1.411 . S
C538 C536 1.403 . S
C538 C539 1.489 . S
C538 C552 1.411 1_565 S
C539 C538 1.489 . S
C539 C540 1.383 . S
C539 C544 1.382 . S
C540 H517 0.950 . S
C540 C539 1.383 . S
C540 C541 1.395 . S
C541 H518 0.950 . S
C541 C540 1.395 . S
C541 C542 1.288 . S
C542 C541 1.288 . S
C542 C543 1.392 . S
C543 H519 0.951 . S
C543 C542 1.392 . S
C543 C544 1.392 . S
C544 H520 0.949 . S
C544 C539 1.382 . S
C544 C543 1.392 . S
C545 C546 1.376 . S
C545 C550 1.386 . S
C545 C551 1.483 . S
C546 H521 0.949 . S
C546 C545 1.376 . S
C546 C547 1.397 . S
C547 H522 0.950 . S
C547 C546 1.397 . S
C547 C548 1.391 . S
C548 C547 1.391 . S
C548 C549 1.405 . S
C549 H523 0.950 . S
C549 C548 1.405 . S
C549 C550 1.367 . S
C550 H524 0.950 . S
C550 C545 1.386 . S
C550 C549 1.367 . S
C551 C545 1.483 . S
C551 C552 1.382 . S
C551 C553 1.403 . S
C552 H525 0.950 . S
C552 C538 1.411 1_545 S
C552 C551 1.382 . S
C553 C537 1.411 . S
C553 C551 1.403 . S
C553 C554 1.489 . S
C554 C553 1.489 . S
C554 C555 1.383 . S
C554 C559 1.382 . S
C555 H526 0.950 . S
C555 C554 1.383 . S
C555 C556 1.395 . S
C556 H527 0.950 . S
C556 C555 1.395 . S
C556 C557 1.288 . S
C557 C556 1.288 . S
C557 C558 1.392 . S
C558 H528 0.951 . S
C558 C557 1.392 . S
C558 C559 1.392 . S
C559 H529 0.949 . S
C559 C554 1.382 . S
C559 C558 1.392 . S
H560 C579 0.949 . S
H561 C580 0.950 . S
H562 C582 0.950 . S
H563 C583 0.950 . S
H564 C585 0.950 . S
H565 C588 0.950 . S
H566 C589 0.950 . S
H567 C591 0.951 . S
H568 C592 0.949 . S
H569 C594 0.949 . S
H570 C595 0.950 . S
H571 C597 0.950 . S
H572 C598 0.950 . S
H573 C600 0.950 . S
H574 C603 0.950 . S
H575 C604 0.950 . S
H576 C606 0.951 . S
H577 C607 0.949 . S
C578 C579 1.376 . S
C578 C583 1.386 . S
C578 C584 1.483 . S
C579 H560 0.949 . S
C579 C578 1.376 . S
C579 C580 1.397 . S
C580 H561 0.950 . S
C580 C579 1.397 . S
C580 C581 1.391 . S
C581 C580 1.391 . S
C581 C582 1.405 . S
C582 H562 0.950 . S
C582 C581 1.405 . S
C582 C583 1.367 . S
C583 H563 0.950 . S
C583 C578 1.386 . S
C583 C582 1.367 . S
C584 C578 1.483 . S
C584 C585 1.382 1_556 S
C584 C586 1.403 . S
C585 H564 0.950 . S
C585 C584 1.382 1_554 S
C585 C601 1.411 . S
C586 C584 1.403 . S
C586 C587 1.489 . S
C586 C600 1.411 1_556 S
C587 C586 1.489 . S
C587 C588 1.383 . S
C587 C592 1.382 . S
C588 H565 0.950 . S
C588 C587 1.383 . S
C588 C589 1.395 . S
C589 H566 0.950 . S
C589 C588 1.395 . S
C589 C590 1.288 . S
C590 C589 1.288 . S
C590 C591 1.392 . S
C591 H567 0.951 . S
C591 C590 1.392 . S
C591 C592 1.392 . S
C592 H568 0.949 . S
C592 C587 1.382 . S
C592 C591 1.392 . S
C593 C594 1.376 . S
C593 C598 1.386 . S
C593 C599 1.483 . S
C594 H569 0.949 . S
C594 C593 1.376 . S
C594 C595 1.397 . S
C595 H570 0.950 . S
C595 C594 1.397 . S
C595 C596 1.391 . S
C596 C595 1.391 . S
C596 C597 1.405 . S
C597 H571 0.950 . S
C597 C596 1.405 . S
C597 C598 1.367 . S
C598 H572 0.950 . S
C598 C593 1.386 . S
C598 C597 1.367 . S
C599 C593 1.483 . S
C599 C600 1.382 . S
C599 C601 1.403 . S
C600 H573 0.950 . S
C600 C586 1.411 1_554 S
C600 C599 1.382 . S
C601 C585 1.411 . S
C601 C599 1.403 . S
C601 C602 1.489 . S
C602 C601 1.489 . S
C602 C603 1.383 . S
C602 C607 1.382 . S
C603 H574 0.950 . S
C603 C602 1.383 . S
C603 C604 1.395 . S
C604 H575 0.950 . S
C604 C603 1.395 . S
C604 C605 1.288 . S
C605 C604 1.288 . S
C605 C606 1.392 . S
C606 H576 0.951 . S
C606 C605 1.392 . S
C606 C607 1.392 . S
C607 H577 0.949 . S
C607 C602 1.382 . S
C607 C606 1.392 . S
C350 C15 1.756 . S
C389 C55 1.816 . S
C365 C101 1.678 . S
C404 C141 1.797 . S
C452 C2 1.625 . S
C485 C61 1.563 . S
C95 C542 2.199 . S
C590 C135 1.672 . S
C437 C42 1.661 . S
C82 C500 1.578 . S
C557 C122 2.123 . S
C605 C21 1.543 . S
C162 C398 1.764 . S
C341 C221 1.766 . S
C255 C413 1.836 . S
C282 C356 1.688 . S
C533 C181 2.201 . S
C596 C202 1.716 . S
C461 C242 1.892 . S
C301 C509 1.614 . S
C548 C215 2.158 . S
C581 C261 1.665 . S
C446 C295 1.672 . S
C175 C494 1.622 . S
