# Generated by pormake.
# Topology zzz, (3,6)-cn, num edge types: 1
# Building blocks:
#     Node 0, Type 0, BuildingBlock: VETTIZ_charged_linker_0, # of connection points: 3
#     Node 1, Type 0, BuildingBlock: VETTIZ_charged_linker_0, # of connection points: 3
#     Node 2, Type 0, BuildingBlock: VETTIZ_charged_linker_0, # of connection points: 3
#     Node 3, Type 0, BuildingBlock: VETTIZ_charged_linker_0, # of connection points: 3
#     Node 4, Type 0, BuildingBlock: VETTIZ_charged_linker_0, # of connection points: 3
#     Node 5, Type 0, BuildingBlock: VETTIZ_charged_linker_0, # of connection points: 3
#     Node 6, Type 0, BuildingBlock: VETTIZ_charged_linker_0, # of connection points: 3
#     Node 7, Type 0, BuildingBlock: VETTIZ_charged_linker_0, # of connection points: 3
#     Node 8, Type 1, BuildingBlock: KUMBUR_clean_sbu_1, # of connection points: 6
#     Node 9, Type 1, BuildingBlock: KUMBUR_clean_sbu_1, # of connection points: 6
#     Node 10, Type 1, BuildingBlock: KUMBUR_clean_sbu_1, # of connection points: 6
#     Node 11, Type 1, BuildingBlock: KUMBUR_clean_sbu_1, # of connection points: 6
#     Edge 12, Type (0, 1), BuildingBlock: OJICUG_clean_linker_0, # of connection points: 2
#     Edge 13, Type (0, 1), BuildingBlock: OJICUG_clean_linker_0, # of connection points: 2
#     Edge 14, Type (0, 1), BuildingBlock: OJICUG_clean_linker_0, # of connection points: 2
#     Edge 15, Type (0, 1), BuildingBlock: OJICUG_clean_linker_0, # of connection points: 2
#     Edge 16, Type (0, 1), BuildingBlock: OJICUG_clean_linker_0, # of connection points: 2
#     Edge 17, Type (0, 1), BuildingBlock: OJICUG_clean_linker_0, # of connection points: 2
#     Edge 18, Type (0, 1), BuildingBlock: OJICUG_clean_linker_0, # of connection points: 2
#     Edge 19, Type (0, 1), BuildingBlock: OJICUG_clean_linker_0, # of connection points: 2
#     Edge 20, Type (0, 1), BuildingBlock: OJICUG_clean_linker_0, # of connection points: 2
#     Edge 21, Type (0, 1), BuildingBlock: OJICUG_clean_linker_0, # of connection points: 2
#     Edge 22, Type (0, 1), BuildingBlock: OJICUG_clean_linker_0, # of connection points: 2
#     Edge 23, Type (0, 1), BuildingBlock: OJICUG_clean_linker_0, # of connection points: 2
#     Edge 24, Type (0, 1), BuildingBlock: OJICUG_clean_linker_0, # of connection points: 2
#     Edge 25, Type (0, 1), BuildingBlock: OJICUG_clean_linker_0, # of connection points: 2
#     Edge 26, Type (0, 1), BuildingBlock: OJICUG_clean_linker_0, # of connection points: 2
#     Edge 27, Type (0, 1), BuildingBlock: OJICUG_clean_linker_0, # of connection points: 2
#     Edge 28, Type (0, 1), BuildingBlock: OJICUG_clean_linker_0, # of connection points: 2
#     Edge 29, Type (0, 1), BuildingBlock: OJICUG_clean_linker_0, # of connection points: 2
#     Edge 30, Type (0, 1), BuildingBlock: OJICUG_clean_linker_0, # of connection points: 2
#     Edge 31, Type (0, 1), BuildingBlock: OJICUG_clean_linker_0, # of connection points: 2
#     Edge 32, Type (0, 1), BuildingBlock: OJICUG_clean_linker_0, # of connection points: 2
#     Edge 33, Type (0, 1), BuildingBlock: OJICUG_clean_linker_0, # of connection points: 2
#     Edge 34, Type (0, 1), BuildingBlock: OJICUG_clean_linker_0, # of connection points: 2
#     Edge 35, Type (0, 1), BuildingBlock: OJICUG_clean_linker_0, # of connection points: 2
# Relax obj value: 0.363
# Max RMSD: 0.207
# Mean RMSD: 0.187
data_MOF--net-zzz--node1-KUMBUR_clean_sbu_1--node2-VETTIZ_charged_linker_0--edge1-OJICUG_clean_linker_0
_symmetry_space_group_name_H-M    P1
_symmetry_Int_Tables_number       1
_symmetry_cell_setting            triclinic
loop_
_symmetry_equiv_pos_as_xyz
'x, y, z'
_cell_length_a     43.424507
_cell_length_b     43.532645
_cell_length_c     16.32087
_cell_angle_alpha  90.124387
_cell_angle_beta   89.831273
_cell_angle_gamma 90.35773
loop_
_atom_site_label
_atom_site_type_symbol
_atom_site_fract_x
_atom_site_fract_y
_atom_site_fract_z
_atom_type_partial_charge
C0 C 0.83355 0.5418 0.36108 0.0
C1 C 0.86163 0.55576 0.3911 0.0
C2 C 0.87094 0.58348 0.35456 0.0
C3 C 0.82645 0.58411 0.26461 0.0
C4 C 0.81599 0.55678 0.29746 0.0
C5 C 0.78532 0.54762 0.25482 0.0
H6 H 0.67485 0.59514 0.96452 0.0
C7 C 0.80461 0.59517 0.20157 0.0
C8 C 0.77932 0.57464 0.19499 0.0
H9 H 0.67177 0.50768 0.08735 0.0
H10 H 0.71922 0.52152 0.16363 0.0
H11 H 0.69666 0.63757 0.11517 0.0
H12 H 0.73481 0.59065 0.91238 0.0
H13 H 0.76489 0.61621 0.93384 0.0
H14 H 0.72751 0.63077 0.90575 0.0
H15 H 0.69464 0.64915 1.00967 0.0
H16 H 0.72517 0.66241 0.07593 0.0
C17 C 0.75942 0.5448 0.31868 0.0
C18 C 0.79003 0.51738 0.20779 0.0
C19 C 0.84202 0.67513 1.0037 0.0
C20 C 0.82958 0.68019 0.92523 0.0
C21 C 0.79741 0.68454 0.92179 0.0
C22 C 0.77857 0.67119 0.98224 0.0
C23 C 0.79261 0.65535 0.04723 0.0
C24 C 0.82346 0.66022 0.06172 0.0
C25 C 0.83479 0.64187 0.13324 0.0
C26 C 0.80679 0.62153 0.1507 0.0
C27 C 0.78238 0.62935 0.09951 0.0
C28 C 0.84136 0.66496 0.20403 0.0
C29 C 0.86311 0.62274 0.10478 0.0
C30 C 0.68348 0.57886 1.00888 0.0
C31 C 0.6685 0.55052 1.0197 0.0
C32 C 0.68233 0.5299 0.07666 0.0
C33 C 0.7099 0.53785 0.12099 0.0
C34 C 0.72464 0.56649 0.10744 0.0
C35 C 0.71094 0.58594 0.05089 0.0
C36 C 0.7298 0.61391 0.03429 0.0
C37 C 0.75664 0.60938 0.09186 0.0
C38 C 0.75451 0.58162 0.13718 0.0
C39 C 0.71064 0.6424 0.05935 0.0
C40 C 0.73973 0.61315 0.9422 0.0
H41 H 0.86324 0.61833 0.27014 0.0
H42 H 0.82536 0.52041 0.38712 0.0
H43 H 0.80957 0.51962 0.16397 0.0
H44 H 0.7693 0.51097 0.17232 0.0
H45 H 0.79523 0.49836 0.25083 0.0
H46 H 0.75704 0.56663 0.35353 0.0
H47 H 0.76443 0.52609 0.36281 0.0
H48 H 0.73706 0.53969 0.28891 0.0
H49 H 0.86661 0.67517 1.01307 0.0
H50 H 0.78677 0.69216 0.86549 0.0
H51 H 0.75424 0.67101 0.97152 0.0
H52 H 0.83034 0.68766 0.19394 0.0
H53 H 0.86644 0.66937 0.21099 0.0
H54 H 0.83176 0.65688 0.26333 0.0
H55 H 0.85975 0.614 0.04125 0.0
H56 H 0.86717 0.60197 0.14151 0.0
H57 H 0.88449 0.63685 0.10548 0.0
H58 H 0.89214 0.59471 0.37325 0.0
C59 C 0.85376 0.59753 0.29369 0.0
C60 C 0.90562 0.81113 0.93379 0.0
C61 C 0.90145 0.84317 0.93735 0.0
C62 C 0.88732 0.85535 1.0082 0.0
C63 C 0.90094 0.80941 0.08076 0.0
C64 C 0.9059 0.79459 1.00735 0.0
C65 C 0.91811 0.76275 0.02005 0.0
H66 H 0.02466 0.67954 0.12733 0.0
C67 C 0.91714 0.79236 0.14539 0.0
C68 C 0.92455 0.76369 0.11261 0.0
H69 H 0.9368 0.64867 0.02894 0.0
H70 H 0.91228 0.69355 0.09012 0.0
H71 H 0.02035 0.76079 0.11539 0.0
H72 H 0.0189 0.70481 0.29398 0.0
H73 H 0.9786 0.70975 0.31654 0.0
H74 H 1.0056 0.73974 0.34067 0.0
H75 H 0.04372 0.73519 0.17527 0.0
H76 H 0.03075 0.77095 0.21871 0.0
C77 C 0.94784 0.75797 0.96883 0.0
C78 C 0.89267 0.73969 0.99512 0.0
C79 C 0.96386 0.86109 0.36316 0.0
C80 C 0.98992 0.8612 0.41401 0.0
C81 C 1.00859 0.83427 0.41063 0.0
C82 C 1.00152 0.80893 0.35674 0.0
C83 C 0.97541 0.81008 0.30514 0.0
C84 C 0.9575 0.83637 0.30971 0.0
C85 C 0.93187 0.83634 0.24895 0.0
C86 C 0.93515 0.80463 0.21082 0.0
C87 C 0.96096 0.78842 0.2421 0.0
C88 C 0.938 0.86304 0.18714 0.0
C89 C 0.90094 0.83916 0.29562 0.0
C90 C 1.00037 0.68289 0.11616 0.0
C91 C 0.98318 0.66087 0.06753 0.0
C92 C 0.95107 0.6652 0.06123 0.0
C93 C 0.93696 0.6914 0.09296 0.0
C94 C 0.95493 0.71434 0.12879 0.0
C95 C 0.98492 0.70935 0.14981 0.0
C96 C 0.99497 0.73549 0.20968 0.0
C97 C 0.96695 0.75772 0.20909 0.0
C98 C 0.9455 0.74489 0.15431 0.0
C99 C 0.0242 0.75155 0.17796 0.0
C100 C 0.99984 0.72173 0.29525 0.0
H101 H 0.87867 0.84904 0.13594 0.0
H102 H 0.91392 0.80033 0.87842 0.0
H103 H 0.87953 0.74803 0.94124 0.0
H104 H 0.87604 0.73586 0.04606 0.0
H105 H 0.90254 0.71753 0.97527 0.0
H106 H 0.96546 0.77566 0.98446 0.0
H107 H 0.94305 0.75912 0.90217 0.0
H108 H 0.95795 0.73504 0.97908 0.0
H109 H 0.94833 0.88045 0.36356 0.0
H110 H 0.02902 0.83303 0.44827 0.0
H111 H 0.01667 0.78943 0.35523 0.0
H112 H 0.95689 0.87876 0.20661 0.0
H113 H 0.91769 0.87811 0.18022 0.0
H114 H 0.9452 0.85432 0.12606 0.0
H115 H 0.9009 0.82457 0.35152 0.0
H116 H 0.88117 0.83116 0.25854 0.0
H117 H 0.89677 0.86328 0.31488 0.0
H118 H 0.88127 0.87934 1.01084 0.0
C119 C 0.88699 0.83832 0.08094 0.0
C120 C 0.85178 0.99965 0.07165 0.0
C121 C 0.8751 0.98066 0.03381 0.0
C122 C 0.87239 0.94855 0.04598 0.0
C123 C 0.82224 0.95427 0.10673 0.0
C124 C 0.82572 0.98541 0.1117 0.0
C125 C 0.79856 0.99809 0.16363 0.0
H126 H 0.64984 0.95814 0.30899 0.0
C127 C 0.79113 0.94534 0.13056 0.0
C128 C 0.7772 0.96939 0.17479 0.0
H129 H 0.70525 0.02842 0.42374 0.0
H130 H 0.74803 0.01667 0.32822 0.0
H131 H 0.66462 0.97447 0.13681 0.0
H132 H 0.69939 0.90708 0.29914 0.0
H133 H 0.69445 0.88899 0.20317 0.0
H134 H 0.66203 0.90705 0.25202 0.0
H135 H 0.65029 0.93606 0.13275 0.0
H136 H 0.68171 0.94867 0.06794 0.0
C137 C 0.78193 0.02372 0.11721 0.0
C138 C 0.81146 1.00982 0.24564 0.0
C139 C 0.74007 0.88311 0.91053 0.0
C140 C 0.70879 0.88437 0.88923 0.0
C141 C 0.68697 0.88495 0.95357 0.0
C142 C 0.69621 0.89218 0.03347 0.0
C143 C 0.72716 0.89999 0.04786 0.0
C144 C 0.74893 0.89338 0.9886 0.0
C145 C 0.78023 0.90588 1.01033 0.0
C146 C 0.77289 0.92279 0.09076 0.0
C147 C 0.74164 0.92014 0.11023 0.0
C148 C 0.79088 0.92824 0.9416 0.0
C149 C 0.80253 0.87858 0.02068 0.0
C150 C 0.67105 0.97115 0.31513 0.0
C151 C 0.67366 0.99391 0.37595 0.0
C152 C 0.70198 1.0107 0.37791 0.0
C153 C 0.72686 1.00399 0.32251 0.0
C154 C 0.72359 0.98059 0.26289 0.0
C155 C 0.69569 0.96477 0.26143 0.0
C156 C 0.69503 0.94014 0.19766 0.0
C157 C 0.72809 0.94073 0.16749 0.0
C158 C 0.74528 0.96545 0.20149 0.0
C159 C 0.67174 0.95006 0.1304 0.0
C160 C 0.68713 0.90911 0.23963 0.0
H161 H 0.84577 0.91118 0.0948 0.0
H162 H 0.85377 0.02443 0.06977 0.0
H163 H 0.83092 0.02605 0.23494 0.0
H164 H 0.82003 0.99043 0.28327 0.0
H165 H 0.79392 0.02243 0.28103 0.0
H166 H 0.77362 0.01516 0.05693 0.0
H167 H 0.79767 0.04354 0.10646 0.0
H168 H 0.76175 0.03186 0.15302 0.0
H169 H 0.75726 0.8802 0.86307 0.0
H170 H 0.66251 0.88431 0.94114 0.0
H171 H 0.67847 0.89442 0.07879 0.0
H172 H 0.77382 0.94692 0.93321 0.0
H173 H 0.79383 0.91607 0.88235 0.0
H174 H 0.81342 0.93899 0.95386 0.0
H175 H 0.79467 0.85786 0.98647 0.0
H176 H 0.80483 0.87194 0.08609 0.0
H177 H 0.82558 0.88398 0.9951 0.0
H178 H 0.88952 0.93295 0.02241 0.0
C179 C 0.84667 0.93555 0.08426 0.0
C180 C 0.53692 0.69451 0.34602 0.0
C181 C 0.55471 0.66869 0.37564 0.0
C182 C 0.58441 0.66495 0.34142 0.0
C183 C 0.57653 0.70604 0.2451 0.0
C184 C 0.54906 0.71374 0.28097 0.0
C185 C 0.53804 0.74445 0.24153 0.0
H186 H 0.57936 0.85539 0.94088 0.0
C187 C 0.58399 0.72699 0.1784 0.0
C188 C 0.56355 0.75188 0.17685 0.0
H189 H 0.4955 0.85972 0.08174 0.0
H190 H 0.51093 0.81252 0.15727 0.0
H191 H 0.62681 0.83126 0.07736 0.0
H192 H 0.57461 0.80281 0.88097 0.0
H193 H 0.58665 0.76557 0.9061 0.0
H194 H 0.6141 0.79484 0.8743 0.0
H195 H 0.63265 0.83465 0.96862 0.0
H196 H 0.64836 0.80293 0.02535 0.0
C197 C 0.53631 0.7697 0.30715 0.0
C198 C 0.50674 0.73935 0.19997 0.0
C199 C 0.6268 0.68484 0.91797 0.0
C200 C 0.63476 0.70068 0.84556 0.0
C201 C 0.64752 0.73043 0.85243 0.0
C202 C 0.64567 0.7463 0.9271 0.0
C203 C 0.62962 0.73258 0.99222 0.0
C204 C 0.62389 0.70149 0.99091 0.0
C205 C 0.60919 0.6907 0.06927 0.0
C206 C 0.6047 0.72157 0.11362 0.0
C207 C 0.61287 0.74588 0.06228 0.0
C208 C 0.63149 0.66817 0.11069 0.0
C209 C 0.57789 0.67492 0.0516 0.0
C210 C 0.56383 0.84669 0.98757 0.0
C211 C 0.53592 0.86167 1.00283 0.0
C212 C 0.51725 0.84901 0.06693 0.0
C213 C 0.52604 0.82159 0.11052 0.0
C214 C 0.5537 0.80623 0.08997 0.0
C215 C 0.57153 0.81929 0.02817 0.0
C216 C 0.59804 0.79977 1.00359 0.0
C217 C 0.59489 0.77316 0.06317 0.0
C218 C 0.569 0.77627 0.11647 0.0
C219 C 0.62817 0.81808 1.01898 0.0
C220 C 0.59335 0.79012 0.91207 0.0
H221 H 0.61947 0.68258 0.26247 0.0
H222 H 0.5148 0.69969 0.37325 0.0
H223 H 0.50832 0.72066 0.15364 0.0
H224 H 0.49909 0.76048 0.16843 0.0
H225 H 0.48896 0.73279 0.24594 0.0
H226 H 0.55901 0.77268 0.33755 0.0
H227 H 0.51895 0.76363 0.3547 0.0
H228 H 0.52981 0.79199 0.27961 0.0
H229 H 0.61817 0.66148 0.91554 0.0
H230 H 0.65517 0.74266 0.79827 0.0
H231 H 0.65397 0.76956 0.92968 0.0
H232 H 0.64157 0.65218 0.06485 0.0
H233 H 0.6194 0.65296 0.15474 0.0
H234 H 0.6507 0.68065 0.14123 0.0
H235 H 0.56257 0.69046 1.01654 0.0
H236 H 0.56602 0.6686 0.10953 0.0
H237 H 0.58097 0.6534 1.01592 0.0
H238 H 0.59949 0.64681 0.36169 0.0
C239 C 0.59562 0.68418 0.27997 0.0
C240 C 0.3497 0.49083 0.30977 0.0
C241 C 0.36983 0.47277 0.36168 0.0
C242 C 0.36218 0.44126 0.3706 0.0
C243 C 0.31448 0.44778 0.29905 0.0
C244 C 0.32203 0.47699 0.27618 0.0
C245 C 0.29683 0.4878 0.2145 0.0
H246 H 0.14617 0.45066 0.07497 0.0
C247 C 0.28327 0.44016 0.27484 0.0
C248 C 0.27219 0.46143 0.21761 0.0
H249 H 0.20408 0.51867 0.95795 0.0
H250 H 0.24544 0.50736 0.05734 0.0
H251 H 0.198 0.39868 0.08809 0.0
H252 H 0.15009 0.46076 0.22859 0.0
H253 H 0.17435 0.44893 0.30936 0.0
H254 H 0.14793 0.42225 0.26117 0.0
H255 H 0.15938 0.39815 0.12831 0.0
H256 H 0.19077 0.38129 0.18408 0.0
C257 C 0.31141 0.49036 0.12887 0.0
C258 C 0.28299 0.51846 0.24219 0.0
C259 C 0.21656 0.40594 0.50525 0.0
C260 C 0.18438 0.40235 0.50607 0.0
C261 C 0.17063 0.38847 0.43695 0.0
C262 C 0.18595 0.3891 0.36119 0.0
C263 C 0.21551 0.40212 0.35779 0.0
C264 C 0.23175 0.40618 0.42941 0.0
C265 C 0.26431 0.41607 0.4133 0.0
C266 C 0.26287 0.42164 0.32028 0.0
C267 C 0.2333 0.41614 0.29031 0.0
C268 C 0.28556 0.38942 0.43905 0.0
C269 C 0.27166 0.44588 0.4618 0.0
C270 C 0.16764 0.46302 0.06726 0.0
C271 C 0.17095 0.48522 1.0049 0.0
C272 C 0.19988 0.50123 1.00381 0.0
C273 C 0.22416 0.49459 0.0611 0.0
C274 C 0.22012 0.47151 0.12116 0.0
C275 C 0.19178 0.45648 0.12238 0.0
C276 C 0.18999 0.43224 0.18715 0.0
C277 C 0.22227 0.43366 0.22285 0.0
C278 C 0.24077 0.45713 0.18636 0.0
C279 C 0.18403 0.40085 0.14507 0.0
C280 C 0.16445 0.44132 0.24995 0.0
H281 H 0.33144 0.40434 0.34089 0.0
H282 H 0.3553 0.51453 0.29617 0.0
H283 H 0.27304 0.51629 0.30477 0.0
H284 H 0.26439 0.52558 0.19982 0.0
H285 H 0.30093 0.53677 0.24325 0.0
H286 H 0.3213 0.46796 0.10973 0.0
H287 H 0.33022 0.50779 0.1289 0.0
H288 H 0.29425 0.49717 0.08259 0.0
H289 H 0.22861 0.41366 0.5594 0.0
H290 H 0.14657 0.38215 0.43879 0.0
H291 H 0.17382 0.38151 0.30761 0.0
H292 H 0.27614 0.37688 0.49301 0.0
H293 H 0.30844 0.39785 0.45932 0.0
H294 H 0.28834 0.3725 0.38851 0.0
H295 H 0.25526 0.46439 0.44546 0.0
H296 H 0.2953 0.45435 0.44977 0.0
H297 H 0.27041 0.44196 0.52887 0.0
H298 H 0.37611 0.42587 0.40658 0.0
C299 C 0.33555 0.42873 0.3369 0.0
C300 C 0.14786 0.2423 0.49183 0.0
C301 C 0.14492 0.21125 0.51418 0.0
C302 C 0.14448 0.18919 0.45052 0.0
C303 C 0.13286 0.22922 0.3532 0.0
C304 C 0.13933 0.25106 0.41234 0.0
C305 C 0.12835 0.28249 0.38811 0.0
H306 H 1.01168 0.35404 0.33634 0.0
C307 C 0.11412 0.24378 0.28855 0.0
C308 C 0.1121 0.27512 0.30677 0.0
H309 H 0.10358 0.39259 0.36672 0.0
H310 H 0.12479 0.34866 0.29526 0.0
H311 H 0.04094 0.32037 0.1159 0.0
H312 H 0.02353 0.2744 0.34813 0.0
H313 H 1.00474 0.26158 0.25577 0.0
H314 H 0.99317 0.29704 0.30388 0.0
H315 H 1.00667 0.33079 0.17162 0.0
H316 H 1.00932 0.29353 0.12707 0.0
C317 C 0.1567 0.30377 0.37817 0.0
C318 C 0.10578 0.29444 0.45484 0.0
C319 C 0.06577 0.17473 0.07461 0.0
C320 C 0.04399 0.17798 1.0118 0.0
C321 C 0.0277 0.20634 1.00958 0.0
C322 C 0.03381 0.23065 0.06712 0.0
C323 C 0.05574 0.22658 0.12989 0.0
C324 C 0.07128 0.19872 0.13124 0.0
C325 C 0.09461 0.1975 0.1983 0.0
C326 C 0.09396 0.23033 0.22987 0.0
C327 C 0.06989 0.24763 0.19454 0.0
C328 C 0.1264 0.1896 0.16044 0.0
C329 C 0.0828 0.17392 0.26304 0.0
C330 C 0.03646 0.35284 0.33035 0.0
C331 C 0.05586 0.37661 0.36571 0.0
C332 C 0.08775 0.37486 0.34742 0.0
C333 C 0.10047 0.34925 0.30848 0.0
C334 C 0.08157 0.32444 0.28894 0.0
C335 C 0.05031 0.32733 0.2875 0.0
C336 C 0.0371 0.29969 0.23792 0.0
C337 C 0.0661 0.27941 0.22152 0.0
C338 C 0.09034 0.29344 0.26513 0.0
C339 C 0.0228 0.31168 0.15826 0.0
C340 C 0.01318 0.28215 0.28953 0.0
H341 H 0.13691 0.1804 0.32458 0.0
H342 H 0.15096 0.25959 0.53883 0.0
H343 H 0.08586 0.27847 0.46191 0.0
H344 H 0.09679 0.31748 0.44158 0.0
H345 H 0.11732 0.29692 0.51502 0.0
H346 H 0.17532 0.29762 0.42167 0.0
H347 H 0.15104 0.32785 0.39285 0.0
H348 H 0.16633 0.30249 0.31509 0.0
H349 H 0.07852 0.15353 0.07999 0.0
H350 H 1.0109 0.21007 0.9618 0.0
H351 H 0.02197 0.25212 0.06049 0.0
H352 H 0.1302 0.20262 0.10264 0.0
H353 H 0.128 0.16472 0.14591 0.0
H354 H 0.14586 0.19592 0.20074 0.0
H355 H 0.05841 0.16693 0.25281 0.0
H356 H 0.08298 0.18353 0.32598 0.0
H357 H 0.09656 0.15249 0.26188 0.0
H358 H 0.14406 0.16484 0.46363 0.0
C359 C 0.13902 0.19821 0.3696 0.0
C360 C 0.33088 0.03033 0.98934 0.0
C361 C 0.34762 0.0489 0.93075 0.0
C362 C 0.33757 0.07952 0.91988 0.0
C363 C 0.30357 0.07521 0.03631 0.0
C364 C 0.30722 0.04411 0.03901 0.0
C365 C 0.28479 0.03127 0.1048 0.0
H366 H 0.19117 0.07549 0.43752 0.0
C367 C 0.28727 0.08556 0.10953 0.0
C368 C 0.27019 0.06083 0.14212 0.0
H369 H 0.16026 1.00715 0.26432 0.0
H370 H 0.20609 0.01785 0.17719 0.0
H371 H 0.25862 0.05648 0.44056 0.0
H372 H 0.21095 0.12677 0.31248 0.0
H373 H 0.245 0.14259 0.35528 0.0
H374 H 0.21719 0.12452 0.42118 0.0
H375 H 0.25857 0.09489 0.47875 0.0
H376 H 0.28866 0.0814 0.41114 0.0
C377 C 0.30283 0.01353 0.17017 0.0
C378 C 0.26058 1.01051 0.06394 0.0
C379 C 0.35854 0.15077 0.27647 0.0
C380 C 0.36316 0.14593 0.36065 0.0
C381 C 0.33666 0.14427 0.41066 0.0
C382 C 0.30793 0.13759 0.37545 0.0
C383 C 0.30636 0.13189 0.29063 0.0
C384 C 0.33109 0.14003 0.24162 0.0
C385 C 0.32875 0.1267 0.15661 0.0
C386 C 0.29826 0.10885 0.16322 0.0
C387 C 0.28602 0.11132 0.2426 0.0
C388 C 0.35678 0.10514 0.14245 0.0
C389 C 0.32795 0.15325 0.09401 0.0
C390 C 0.19402 0.06239 0.38156 0.0
C391 C 0.17161 0.04054 0.35887 0.0
C392 C 0.1771 0.02388 0.28494 0.0
C393 C 0.20375 0.02964 0.23499 0.0
C394 C 0.22595 0.05147 0.26015 0.0
C395 C 0.22024 0.06762 0.33211 0.0
C396 C 0.24444 0.09153 0.34847 0.0
C397 C 0.26283 0.09046 0.26919 0.0
C398 C 0.25411 0.06539 0.2193 0.0
C399 C 0.26354 0.08077 0.42356 0.0
C400 C 0.2287 0.1231 0.36043 0.0
H401 H 0.30856 0.11613 0.96338 0.0
H402 H 0.33635 1.00629 0.99676 0.0
H403 H 0.24519 0.02416 0.02394 0.0
H404 H 0.24649 0.99842 0.11062 0.0
H405 H 0.27196 0.99267 0.02577 0.0
H406 H 0.32079 0.0285 0.19819 0.0
H407 H 0.31428 0.99319 0.14267 0.0
H408 H 0.28712 1.00547 0.21962 0.0
H409 H 0.37784 0.15531 0.23639 0.0
H410 H 0.33882 0.14343 0.47671 0.0
H411 H 0.28884 0.13413 0.41615 0.0
H412 H 0.35695 0.08638 0.18861 0.0
H413 H 0.37898 0.11778 0.14625 0.0
H414 H 0.35729 0.09461 0.08126 0.0
H415 H 0.34187 0.17325 0.11524 0.0
H416 H 0.30402 0.16129 0.0839 0.0
H417 H 0.33829 0.14654 0.03464 0.0
H418 H 0.34833 0.09425 0.87457 0.0
C419 C 0.31541 0.09256 0.97172 0.0
C420 C 0.49648 0.33709 1.0134 0.0
C421 C 0.47906 0.36238 0.97955 0.0
C422 C 0.44832 0.36556 1.00658 0.0
C423 C 0.45458 0.32561 0.10708 0.0
C424 C 0.48289 0.31795 0.07648 0.0
C425 C 0.49315 0.28766 0.11941 0.0
H426 H 0.45276 0.18605 0.44322 0.0
C427 C 0.4466 0.3063 0.17674 0.0
C428 C 0.4671 0.28156 0.18355 0.0
H429 H 0.52959 0.17071 0.28133 0.0
H430 H 0.51607 0.21795 0.20367 0.0
H431 H 0.46194 0.24084 0.4892 0.0
H432 H 0.40294 0.20853 0.31015 0.0
H433 H 0.38399 0.23876 0.36152 0.0
H434 H 0.40036 0.20786 0.42015 0.0
H435 H 0.42289 0.24998 0.50223 0.0
H436 H 0.44984 0.27744 0.45807 0.0
C437 C 0.52432 0.29248 0.16177 0.0
C438 C 0.49463 0.26166 0.05577 0.0
C439 C 0.41225 0.35899 0.42911 0.0
C440 C 0.40864 0.34577 0.50733 0.0
C441 C 0.39405 0.3168 0.51279 0.0
C442 C 0.39174 0.29822 0.44285 0.0
C443 C 0.40495 0.30886 0.36975 0.0
C444 C 0.41078 0.33976 0.36032 0.0
C445 C 0.42171 0.34703 0.27503 0.0
C446 C 0.42692 0.31434 0.24186 0.0
C447 C 0.41985 0.29245 0.30143 0.0
C448 C 0.45193 0.3661 0.27767 0.0
C449 C 0.39577 0.36483 0.23164 0.0
C450 C 0.46714 0.19239 0.39154 0.0
C451 C 0.4926 0.17432 0.37089 0.0
C452 C 0.50977 0.1839 0.30042 0.0
C453 C 0.502 0.21125 0.25525 0.0
C454 C 0.47657 0.22937 0.27965 0.0
C455 C 0.45997 0.21918 0.34739 0.0
C456 C 0.43492 0.24055 0.37174 0.0
C457 C 0.43737 0.26489 0.30536 0.0
C458 C 0.46196 0.25919 0.24941 0.0
C459 C 0.44252 0.25296 0.45935 0.0
C460 C 0.40382 0.22307 0.36626 0.0
H461 H 0.41182 0.3484 0.08207 0.0
H462 H 0.51942 0.3323 0.99093 0.0
H463 H 0.47202 0.25886 0.02472 0.0
H464 H 0.50046 0.23952 0.08489 0.0
H465 H 0.51234 0.26685 1.0084 0.0
H466 H 0.52293 0.31168 0.20663 0.0
H467 H 0.5425 0.29812 0.11605 0.0
H468 H 0.53125 0.27145 0.19511 0.0
H469 H 0.42133 0.38201 0.42257 0.0
H470 H 0.38886 0.30683 0.57203 0.0
H471 H 0.38284 0.2753 0.44942 0.0
H472 H 0.46985 0.35397 0.31355 0.0
H473 H 0.44808 0.38906 0.30546 0.0
H474 H 0.46114 0.37043 0.21541 0.0
H475 H 0.38371 0.38043 0.27499 0.0
H476 H 0.37832 0.34887 0.20532 0.0
H477 H 0.40496 0.38017 0.18318 0.0
H478 H 0.43358 0.38306 0.98099 0.0
C479 C 0.43596 0.34683 0.0677 0.0
Tb480 Tb 0.99629 0.0491 0.62735 0.0
C481 C 0.10387 0.03673 0.85377 0.0
N482 N 0.09833 0.02274 0.78049 0.0
C483 C 0.1504 0.03316 0.73828 0.0
C484 C 0.13254 0.05084 0.87025 0.0
C485 C 0.12164 0.01949 0.7247 0.0
C486 C 0.15577 0.04925 0.81089 0.0
C487 C 0.08522 0.05235 0.98787 0.0
C488 C 0.08053 0.0372 0.91231 0.0
C489 C 0.1136 0.06674 1.00391 0.0
C490 C 0.13721 0.06593 0.94537 0.0
Tb491 Tb 0.05046 1.00103 0.76682 0.0
N492 N 0.05299 0.02364 0.89409 0.0
C493 C 0.06114 0.05287 0.04487 0.0
C494 C 0.02978 0.02343 0.95086 0.0
C495 C 0.03339 0.03819 0.02642 0.0
H496 H 0.11874 1.00567 0.67052 0.0
H497 H 0.01476 0.03808 0.07064 0.0
H498 H 0.93057 0.07043 0.71225 0.0
H499 H 0.02037 0.02158 0.31103 0.0
H500 H 1.0085 1.01172 0.93962 0.0
H501 H 0.0638 0.06435 0.10343 0.0
H502 H 0.03258 0.03939 0.45105 0.0
H503 H 0.16857 0.03087 0.69318 0.0
H504 H 0.11753 0.07857 0.06148 0.0
H505 H 0.15903 0.07701 0.95886 0.0
H506 H 0.87481 0.06306 0.68724 0.0
H507 H 0.17811 0.05975 0.82127 0.0
H508 H 0.96673 1.00747 0.27507 0.0
N509 N 0.94424 0.04642 0.6049 0.0
C510 C 0.93494 0.0341 0.53279 0.0
C511 C 0.89148 0.05437 0.64369 0.0
C512 C 0.90347 0.0305 0.51385 0.0
C513 C 0.92303 0.05796 0.65855 0.0
C514 C 0.88163 0.04008 0.57155 0.0
N515 N 0.98682 0.03357 0.49542 0.0
C516 C 1.00927 0.03278 0.43649 0.0
C517 C 0.94885 0.01794 0.39591 0.0
C518 C 0.95712 0.0278 0.47521 0.0
C519 C 0.97207 0.01493 0.33682 0.0
C520 C 1.00237 0.02289 0.3569 0.0
H521 H 0.8572 0.03773 0.55953 0.0
H522 H 0.87091 0.0156 0.4211 0.0
H523 H 0.91078 1.00467 0.31741 0.0
O524 O 0.97525 0.09177 0.60196 0.0
O525 O 1.00414 1.00154 0.5813 0.0
O526 O 0.01658 0.97314 0.69545 0.0
O527 O 0.02393 0.08536 0.58663 0.0
O528 O 0.04702 0.04974 0.60402 0.0
O529 O 0.06531 1.00247 0.6374 0.0
O530 O 0.05862 0.96987 0.86228 0.0
O531 O 0.05148 0.05274 0.76718 0.0
O532 O 1.00123 0.06459 0.75476 0.0
O533 O 0.08011 0.96375 0.74491 0.0
O534 O 1.00156 0.99449 0.80332 0.0
O535 O 0.97286 0.03337 0.74296 0.0
C536 C 1.00842 0.97471 0.61743 0.0
C537 C 1.00917 0.13231 0.64358 0.0
C538 C 0.04861 0.16752 0.69616 0.0
C539 C 0.02643 0.18116 0.74716 0.0
C540 C 0.98724 0.14625 0.69472 0.0
C541 C 0.9959 0.17064 0.74596 0.0
C542 C 0.03957 0.14336 0.64426 0.0
C543 C 0.06611 0.02681 0.59002 0.0
C544 C 1.00182 0.10526 0.59207 0.0
C545 C 0.89496 0.01882 0.43672 0.0
C546 C 0.91765 1.01261 0.37766 0.0
C547 C 0.02818 0.07083 0.78657 0.0
C548 C 0.05982 0.91988 0.8081 0.0
C549 C 0.0143 0.88655 0.80911 0.0
C550 C 0.03258 0.86218 0.78049 0.0
C551 C 0.07769 0.89534 0.77986 0.0
C552 C 0.0282 0.91529 0.82257 0.0
C553 C 0.06407 0.86661 0.76613 0.0
C554 C 0.97592 1.01075 0.79713 0.0
C555 C 0.07316 0.95094 0.81443 0.0
H556 H 0.03259 0.2001 0.78712 0.0
H557 H 0.96361 0.13816 0.69594 0.0
H558 H 0.97894 0.18125 0.78546 0.0
H559 H 0.0562 0.13344 0.60233 0.0
H560 H 0.02272 0.83956 0.77072 0.0
H561 H 0.102 0.89855 0.76712 0.0
H562 H 0.01409 0.93439 0.8421 0.0
H563 H 0.07795 0.84772 0.74419 0.0
Tb564 Tb 0.53874 0.03848 0.75809 0.0
C565 C 0.46822 0.9249 0.65167 0.0
N566 N 0.49354 0.9373 0.61573 0.0
C567 C 0.51547 0.88721 0.60009 0.0
C568 C 0.46617 0.89317 0.66752 0.0
C569 C 0.51639 0.91891 0.58588 0.0
C570 C 0.4906 0.87437 0.64295 0.0
C571 C 0.41508 0.93125 0.69238 0.0
C572 C 0.44321 0.94373 0.66431 0.0
C573 C 0.41361 0.90017 0.71539 0.0
C574 C 0.43916 0.88112 0.70292 0.0
Tb575 Tb 0.49388 0.98929 0.60028 0.0
N576 N 0.44535 0.97326 0.63819 0.0
C577 C 0.38884 0.94973 0.6905 0.0
C578 C 0.41906 0.98979 0.62596 0.0
C579 C 0.39066 0.97879 0.65463 0.0
H580 H 0.53568 0.9289 0.55327 0.0
H581 H 0.37016 0.99257 0.6481 0.0
H582 H 0.51724 0.01992 0.94686 0.0
H583 H 0.58951 0.14385 0.64517 0.0
H584 H 0.42009 1.01177 0.59528 0.0
H585 H 0.36675 0.94105 0.71145 0.0
H586 H 0.57844 0.08819 0.6454 0.0
H587 H 0.534 0.87275 0.5785 0.0
H588 H 0.39235 0.89026 0.73849 0.0
H589 H 0.43726 0.85686 0.71695 0.0
H590 H 0.50195 0.04674 0.07346 0.0
H591 H 0.4899 0.84983 0.65376 0.0
H592 H 0.57085 0.17657 0.75905 0.0
N593 N 0.52758 0.06105 0.88166 0.0
C594 C 0.53048 0.09196 0.88633 0.0
C595 C 0.50972 0.05979 0.02104 0.0
C596 C 0.52248 0.1083 0.95786 0.0
C597 C 0.51833 0.04467 0.94881 0.0
C598 C 0.5114 0.0918 0.02532 0.0
N599 N 0.55274 0.08942 0.75668 0.0
C600 C 0.57014 0.10218 0.69538 0.0
C601 C 0.54971 0.13861 0.82427 0.0
C602 C 0.54369 0.10679 0.82105 0.0
C603 C 0.56577 0.15217 0.75915 0.0
C604 C 0.57643 0.13376 0.69494 0.0
H605 H 0.50496 0.10341 0.08156 0.0
H606 H 0.52057 0.15339 1.01443 0.0
H607 H 0.54456 0.18003 0.89703 0.0
O608 O 0.56813 1.00076 0.75927 0.0
O609 O 0.51898 0.0686 0.66148 0.0
O610 O 0.49789 0.0379 0.55904 0.0
O611 O 0.58166 0.04311 0.81807 0.0
O612 O 0.55774 0.03479 0.63129 0.0
O613 O 0.5446 0.98566 0.60058 0.0
O614 O 0.51245 0.99068 0.48116 0.0
O615 O 0.51838 0.96472 0.70051 0.0
O616 O 0.51515 0.99699 0.81026 0.0
O617 O 0.46669 0.97386 0.50152 0.0
O618 O 0.4671 0.02407 0.67255 0.0
O619 O 0.4908 0.02869 0.79738 0.0
C620 C 0.50679 0.06503 0.58763 0.0
C621 C 0.62004 1.01213 0.75294 0.0
C622 C 0.6593 0.97621 0.70572 0.0
C623 C 0.67277 0.9999 0.659 0.0
C624 C 0.63388 0.03563 0.70691 0.0
C625 C 0.66026 0.02946 0.66039 0.0
C626 C 0.63294 0.98279 0.75251 0.0
C627 C 0.56355 1.00912 0.59129 0.0
C628 C 0.59027 0.01578 0.79456 0.0
C629 C 0.52682 0.14032 0.96036 0.0
C630 C 0.54046 0.15548 0.89355 0.0
C631 C 0.5155 0.9687 0.78053 0.0
C632 C 0.47573 1.00321 0.38298 0.0
C633 C 0.45095 0.05123 0.34371 0.0
C634 C 0.4596 0.04562 0.26182 0.0
C635 C 0.48414 0.99808 0.30132 0.0
C636 C 0.45868 0.02947 0.40368 0.0
C637 C 0.47581 0.01907 0.24095 0.0
C638 C 0.46542 0.02753 0.7532 0.0
C639 C 0.48677 0.98241 0.44704 0.0
H640 H 0.69315 0.99571 0.62235 0.0
H641 H 0.624 0.05838 0.70535 0.0
H642 H 0.67081 0.04756 0.62443 0.0
H643 H 0.62242 0.96513 0.7903 0.0
H644 H 0.45333 0.06139 0.21353 0.0
H645 H 0.49733 0.97798 0.28441 0.0
H646 H 0.45209 0.0333 0.46684 0.0
H647 H 0.48203 0.01473 0.17781 0.0
Tb648 Tb 0.54692 0.49408 0.62136 0.0
C649 C 0.4344 0.5092 0.84321 0.0
N650 N 0.44095 0.52505 0.77383 0.0
C651 C 0.38837 0.519 0.73055 0.0
C652 C 0.40503 0.49627 0.85748 0.0
C653 C 0.4178 0.53172 0.72022 0.0
C654 C 0.38211 0.50061 0.79869 0.0
C655 C 0.45055 0.49419 0.97898 0.0
C656 C 0.45652 0.50831 0.90297 0.0
C657 C 0.42199 0.47963 0.99213 0.0
C658 C 0.39922 0.48068 0.93138 0.0
Tb659 Tb 0.49106 0.54183 0.75784 0.0
N660 N 0.48368 0.52261 0.88735 0.0
C661 C 0.47312 0.496 0.03992 0.0
C662 C 0.50495 0.52629 0.9484 0.0
C663 C 0.50023 0.51258 0.02498 0.0
H664 H 0.42176 0.54732 0.67004 0.0
H665 H 0.5175 0.51479 0.07237 0.0
H666 H 0.61286 0.52461 0.6849 0.0
H667 H 0.50466 0.47582 0.31265 0.0
H668 H 0.52596 0.53899 0.93705 0.0
H669 H 0.46947 0.48546 0.09929 0.0
H670 H 0.51031 0.46398 0.45942 0.0
H671 H 0.3704 0.52381 0.68666 0.0
H672 H 0.41698 0.46833 0.04978 0.0
H673 H 0.37691 0.47029 0.94322 0.0
H674 H 0.65346 0.5587 0.62952 0.0
H675 H 0.3592 0.49111 0.80717 0.0
H676 H 0.53794 0.51552 0.24883 0.0
N677 N 0.58689 0.52391 0.57455 0.0
C678 C 0.58635 0.53154 0.49392 0.0
C679 C 0.63452 0.55148 0.59092 0.0
C680 C 0.609 0.55092 0.45946 0.0
C681 C 0.61135 0.53232 0.62234 0.0
C682 C 0.63309 0.56124 0.50947 0.0
N683 N 0.54285 0.49956 0.48172 0.0
C684 C 0.52327 0.48275 0.43372 0.0
C685 C 0.56184 0.52611 0.3618 0.0
C686 C 0.56305 0.51946 0.44625 0.0
C687 C 0.53967 0.51111 0.31397 0.0
C688 C 0.52075 0.4888 0.34983 0.0
H689 H 0.651 0.57616 0.4854 0.0
H690 H 0.62397 0.57417 0.3488 0.0
H691 H 0.58268 0.55229 0.26299 0.0
O692 O 0.56435 0.45641 0.55468 0.0
O693 O 0.54895 0.5456 0.6205 0.0
O694 O 0.49914 0.5596 0.63266 0.0
O695 O 0.57872 0.46485 0.67815 0.0
O696 O 0.49733 0.48621 0.59097 0.0
O697 O 0.47233 0.53018 0.63326 0.0
O698 O 0.50851 0.58069 0.81728 0.0
O699 O 0.50637 0.49617 0.80402 0.0
O700 O 0.50971 0.46873 0.6863 0.0
O701 O 0.46172 0.57993 0.77734 0.0
O702 O 0.54147 0.54826 0.78137 0.0
O703 O 0.56386 0.50236 0.74728 0.0
C704 C 0.5264 0.56428 0.6002 0.0
C705 C 0.56493 0.41452 0.64671 0.0
C706 C 0.51995 0.38093 0.66452 0.0
C707 C 0.5359 0.36494 0.72594 0.0
C708 C 0.58049 0.39807 0.70745 0.0
C709 C 0.56608 0.37326 0.74632 0.0
C710 C 0.53508 0.40523 0.6241 0.0
C711 C 0.47379 0.50542 0.58583 0.0
C712 C 0.57683 0.44465 0.61972 0.0
C713 C 0.60704 0.55895 0.37632 0.0
C714 C 0.58346 0.54658 0.32754 0.0
C715 C 0.50608 0.46948 0.76636 0.0
C716 C 0.49202 0.62454 0.7484 0.0
C717 C 0.53214 0.6582 0.69187 0.0
C718 C 0.51079 0.67001 0.63594 0.0
C719 C 0.471 0.63638 0.69149 0.0
C720 C 0.52218 0.63633 0.74929 0.0
C721 C 0.48034 0.65922 0.63621 0.0
C722 C 0.56329 0.52751 0.79228 0.0
C723 C 0.48476 0.59725 0.79933 0.0
H724 H 0.52494 0.34644 0.75955 0.0
H725 H 0.60323 0.40523 0.72716 0.0
H726 H 0.578 0.36101 0.79423 0.0
H727 H 0.52324 0.41771 0.57647 0.0
H728 H 0.51771 0.68724 0.59166 0.0
H729 H 0.44765 0.62757 0.68844 0.0
H730 H 0.53831 0.62798 0.79456 0.0
H731 H 0.46408 0.66812 0.59224 0.0
Tb732 Tb 0.0309 0.55082 0.64011 0.0
C733 C 0.97903 0.42251 0.82383 0.0
N734 N 0.96937 0.44251 0.76627 0.0
C735 C 0.94107 0.40208 0.69958 0.0
C736 C 0.97068 0.3912 0.82108 0.0
C737 C 0.94988 0.43299 0.7056 0.0
C738 C 0.9518 0.38099 0.75709 0.0
C739 C 1.00492 0.41473 0.95277 0.0
C740 C 0.99575 0.43407 0.88817 0.0
C741 C 0.99787 0.3832 0.9492 0.0
C742 C 0.98073 0.37143 0.88336 0.0
Tb743 Tb 0.98691 0.492 0.77516 0.0
N744 N 1.00144 0.4647 0.88948 0.0
C745 C 0.02009 0.42783 1.01984 0.0
C746 C 0.01491 0.47778 0.95702 0.0
C747 C 0.02479 0.45956 0.02232 0.0
H748 H 0.94136 0.44915 0.66111 0.0
H749 H 0.03603 0.47004 0.07458 0.0
H750 H 0.02561 0.623 0.71227 0.0
H751 H 1.0013 0.50477 0.33987 0.0
H752 H 0.01895 0.50218 0.96061 0.0
H753 H 0.02759 0.41381 0.0707 0.0
H754 H 0.02859 0.50596 0.47003 0.0
H755 H 0.926 0.39457 0.65068 0.0
H756 H 1.0049 0.36789 0.99788 0.0
H757 H 0.97479 0.34722 0.88217 0.0
H758 H 0.99841 0.6702 0.67655 0.0
H759 H 0.94483 0.3571 0.75263 0.0
H760 H 0.96924 0.54883 0.29905 0.0
N761 N 1.00888 0.59736 0.60988 0.0
C762 C 0.99374 0.59902 0.53726 0.0
C763 C 0.99651 0.6502 0.63732 0.0
C764 C 0.97806 0.62591 0.51381 0.0
C765 C 1.01156 0.62302 0.65805 0.0
C766 C 0.97927 0.65153 0.56551 0.0
N767 N 1.01036 0.54851 0.5097 0.0
C768 C 0.01377 0.52454 0.45643 0.0
C769 C 0.97894 0.57461 0.40963 0.0
C770 C 0.99438 0.57376 0.48566 0.0
C771 C 0.9808 0.54912 0.35779 0.0
C772 C 0.99872 0.52418 0.38081 0.0
H773 H 0.96764 0.67263 0.54958 0.0
H774 H 0.94978 0.64694 0.42043 0.0
H775 H 0.95043 0.60191 0.32928 0.0
O776 O 0.06442 0.55952 0.54958 0.0
O777 O 0.97974 0.54984 0.64263 0.0
O778 O 0.96963 0.49904 0.64838 0.0
O779 O 0.06623 0.58277 0.66546 0.0
O780 O 0.04116 0.50122 0.6105 0.0
O781 O 1.00049 0.47121 0.65695 0.0
O782 O 0.95812 0.53002 0.78572 0.0
O783 O 0.03703 0.489 0.80058 0.0
O784 O 0.06041 0.53113 0.73856 0.0
O785 O 0.9437 0.48491 0.83328 0.0
O786 O 1.00467 0.53217 0.84705 0.0
O787 O 0.01703 0.57169 0.75763 0.0
C788 C 0.96276 0.52624 0.6191 0.0
C789 C 0.11225 0.56246 0.61673 0.0
C790 C 0.1447 0.51711 0.63111 0.0
C791 C 0.16858 0.53593 0.66105 0.0
C792 C 0.13627 0.58099 0.64625 0.0
C793 C 0.16426 0.56768 0.66885 0.0
C794 C 0.11648 0.53063 0.61145 0.0
C795 C 0.02486 0.47512 0.60946 0.0
C796 C 0.08156 0.57518 0.60025 0.0
C797 C 0.96212 0.62657 0.43913 0.0
C798 C 0.9625 0.60095 0.38723 0.0
C799 C 0.06116 0.50729 0.78891 0.0
C800 C 0.90705 0.52746 0.84379 0.0
C801 C 0.872 0.57095 0.83941 0.0
C802 C 0.84958 0.553 0.87989 0.0
C803 C 0.88444 0.50994 0.8841 0.0
C804 C 0.90074 0.55802 0.82187 0.0
C805 C 0.85584 0.52274 0.90207 0.0
C806 C 1.01072 0.56158 0.83187 0.0
C807 C 0.93641 0.51356 0.81952 0.0
H808 H 0.19083 0.52636 0.67592 0.0
H809 H 0.13321 0.60554 0.65303 0.0
H810 H 0.18279 0.58205 0.69166 0.0
H811 H 0.09761 0.51614 0.59159 0.0
H812 H 0.82744 0.5626 0.89633 0.0
H813 H 0.88876 0.48631 0.90102 0.0
H814 H 0.918 0.5717 0.79028 0.0
H815 H 0.83849 0.5092 0.9335 0.0
C816 C 0.13199 1.0073 0.43733 0.0
C817 C 0.14285 0.03647 0.41241 0.0
H818 H 0.10021 0.98132 0.51253 0.0
C819 C 0.12714 0.06229 0.44441 0.0
H820 H 0.14332 0.9868 0.41519 0.0
C821 C 0.10206 0.05916 0.49954 0.0
C822 C 0.09188 0.03007 0.52671 0.0
H823 H 0.1344 0.08522 0.42704 0.0
H824 H 0.09114 0.07975 0.52259 0.0
C825 C 0.10723 1.00418 0.49393 0.0
C826 C 0.49622 0.14852 0.51196 0.0
C827 C 0.50002 0.14657 0.42569 0.0
H828 H 0.49557 0.12555 0.62897 0.0
C829 C 0.50789 0.11736 0.39426 0.0
H830 H 0.49088 0.17039 0.54016 0.0
C831 C 0.50963 0.09109 0.44596 0.0
C832 C 0.50468 0.09307 0.53171 0.0
H833 H 0.51141 0.11446 0.32902 0.0
H834 H 0.51509 0.06911 0.41857 0.0
C835 C 0.49886 0.12256 0.56363 0.0
C836 C 0.40047 0.51325 0.44775 0.0
C837 C 0.39851 0.48425 0.40876 0.0
H838 H 0.42557 0.54326 0.52995 0.0
C839 C 0.42304 0.46375 0.42527 0.0
H840 H 0.38258 0.53002 0.43774 0.0
C841 C 0.44627 0.47041 0.48292 0.0
C842 C 0.44804 0.4989 0.5236 0.0
H843 H 0.42406 0.4416 0.39524 0.0
H844 H 0.46261 0.45255 0.49651 0.0
C845 C 0.42498 0.52058 0.5029 0.0
C846 C 0.0212 0.39913 0.48113 0.0
C847 C 0.04516 0.40278 0.42301 0.0
H848 H 0.99618 0.418 0.58385 0.0
C849 C 0.06177 0.43098 0.42736 0.0
H850 H 1.00783 0.37805 0.48196 0.0
C851 C 0.05607 0.4533 0.48853 0.0
C852 C 0.0323 0.44977 0.54668 0.0
H853 H 0.0797 0.43617 0.38335 0.0
H854 H 0.07012 0.47388 0.48889 0.0
C855 C 0.0148 0.42215 0.54107 0.0
C856 C 0.89895 0.01566 0.92185 0.0
C857 C 0.90202 0.992 0.98026 0.0
H858 H 0.91891 0.04039 0.82075 0.0
C859 C 0.93032 0.97588 0.97901 0.0
H860 H 0.87783 0.02869 0.91935 0.0
C861 C 0.95334 0.98161 0.91966 0.0
C862 C 0.95012 1.00465 0.8597 0.0
H863 H 0.93474 0.95807 0.02353 0.0
H864 H 0.97394 0.96777 0.92133 0.0
C865 C 0.92259 0.02199 0.86342 0.0
C866 C 0.53454 0.88768 0.86234 0.0
C867 C 0.52723 0.88876 0.94698 0.0
H868 H 0.53796 0.91103 0.74715 0.0
C869 C 0.51455 0.91665 0.9759 0.0
H870 H 0.54398 0.86693 0.83586 0.0
C871 C 0.51045 0.9424 0.92285 0.0
C872 C 0.51862 0.94124 0.83861 0.0
H873 H 0.50868 0.91897 0.04011 0.0
H874 H 0.50103 0.96335 0.94818 0.0
C875 C 0.5306 0.91318 0.81011 0.0
C876 C 0.63486 0.51442 0.93062 0.0
C877 C 0.63975 0.54331 0.96812 0.0
H878 H 0.60798 0.48692 0.84679 0.0
C879 C 0.61809 0.56653 0.9492 0.0
H880 H 0.65078 0.49589 0.94201 0.0
C881 C 0.59336 0.56141 0.89413 0.0
C882 C 0.58908 0.53285 0.85461 0.0
H883 H 0.62037 0.5891 0.97664 0.0
H884 H 0.57785 0.58019 0.88144 0.0
C885 C 0.61022 0.50937 0.87487 0.0
C886 C 0.01772 0.63773 0.95561 0.0
C887 C 0.99641 0.63358 0.02013 0.0
H888 H 0.03946 0.61876 0.84805 0.0
C889 C 0.98243 0.60414 0.02621 0.0
H890 H 0.02864 0.65993 0.94714 0.0
C891 C 0.9883 0.58049 0.96844 0.0
C892 C 1.00813 0.58525 0.90096 0.0
H893 H 0.96556 0.59984 0.0739 0.0
H894 H 0.97591 0.55894 0.97437 0.0
C895 C 0.02343 0.61409 0.89732 0.0
C896 C 0.1302 0.17293 0.62342 0.0
C897 C 0.1301 0.20335 0.59441 0.0
H898 H 0.10393 0.13732 0.68181 0.0
C899 C 0.10798 0.22367 0.62737 0.0
H900 H 0.1476 0.1569 0.60306 0.0
C901 C 0.08303 0.21244 0.67234 0.0
C902 C 0.07993 0.18083 0.68595 0.0
H903 H 0.10705 0.24751 0.60911 0.0
H904 H 0.06432 0.22796 0.68624 0.0
C905 C 0.10517 0.1617 0.66871 0.0
C906 C 0.38815 0.10164 0.43145 0.0
C907 C 0.39144 0.12849 0.38377 0.0
H908 H 0.40369 0.05608 0.45458 0.0
C909 C 0.41867 0.13202 0.33749 0.0
H910 H 0.36788 0.09768 0.46876 0.0
C911 C 0.43861 0.1073 0.32646 0.0
C912 C 0.433 0.07912 0.3658 0.0
H913 H 0.4229 0.15269 0.3024 0.0
H914 H 0.4576 0.10987 0.2839 0.0
C915 C 0.40867 0.07729 0.42248 0.0
C916 C 0.44974 0.33339 0.60781 0.0
C917 C 0.43055 0.35565 0.57214 0.0
H918 H 0.49314 0.32366 0.6624 0.0
C919 C 0.43862 0.38675 0.58061 0.0
H920 H 0.44462 0.30911 0.60196 0.0
C921 C 0.467 0.39506 0.61418 0.0
C922 C 0.48772 0.37254 0.64178 0.0
H923 H 0.42417 0.40451 0.5551 0.0
H924 H 0.47308 0.41918 0.61575 0.0
C925 C 0.478 0.34173 0.64198 0.0
C926 C 0.1768 0.43595 0.63096 0.0
C927 C 0.16642 0.42526 0.55415 0.0
H928 H 0.17802 0.47356 0.71649 0.0
C929 C 0.14466 0.44295 0.51176 0.0
H930 H 0.19321 0.42276 0.66598 0.0
C931 C 0.13701 0.4721 0.53894 0.0
C932 C 0.14966 0.48415 0.61131 0.0
H933 H 0.13617 0.43617 0.45205 0.0
H934 H 0.12313 0.48612 0.49894 0.0
C935 C 0.1685 0.46522 0.65929 0.0
C936 C 0.93339 0.85323 0.81088 0.0
C937 C 0.92308 0.86275 0.88877 0.0
H938 H 0.97069 0.8531 0.72436 0.0
C939 C 0.94031 0.88542 0.93046 0.0
H940 H 0.92036 0.83652 0.77575 0.0
C941 C 0.9691 0.89455 0.90155 0.0
C942 C 0.98127 0.88173 0.82952 0.0
H943 H 0.93356 0.89359 0.99052 0.0
H944 H 0.98288 0.90959 0.93983 0.0
C945 C 0.96239 0.86242 0.78185 0.0
C946 C 0.6698 0.89554 0.77952 0.0
C947 C 0.70015 0.89803 0.80867 0.0
H948 H 0.63274 0.91861 0.71981 0.0
C949 C 0.71915 0.92145 0.77581 0.0
H950 H 0.65483 0.87712 0.8002 0.0
C951 C 0.70642 0.94539 0.73101 0.0
C952 C 0.67462 0.94607 0.71696 0.0
H953 H 0.74291 0.92416 0.7943 0.0
H954 H 0.72086 0.96512 0.7175 0.0
C955 C 0.65711 0.91944 0.73374 0.0
C956 C 0.61541 0.65993 0.75109 0.0
C957 C 0.61863 0.69128 0.76955 0.0
H958 H 0.58469 0.62453 0.7113 0.0
C959 C 0.59741 0.71207 0.73577 0.0
H960 H 0.63165 0.64344 0.77503 0.0
C961 C 0.5703 0.70125 0.6997 0.0
C962 C 0.56437 0.66959 0.69627 0.0
H963 H 0.59927 0.73647 0.74819 0.0
H964 H 0.55251 0.71761 0.68458 0.0
C965 C 0.58831 0.64912 0.71515 0.0
C966 C 0.8265 0.64257 0.81019 0.0
C967 C 0.84488 0.66311 0.85638 0.0
H968 H 0.82063 0.59597 0.77112 0.0
C969 C 0.8766 0.65656 0.86179 0.0
H970 H 0.80247 0.64714 0.7982 0.0
C971 C 0.88687 0.62659 0.84777 0.0
C972 C 0.86587 0.60379 0.82258 0.0
H973 H 0.89225 0.67263 0.89085 0.0
H974 H 0.91002 0.62064 0.8662 0.0
C975 C 0.83673 0.61279 0.79532 0.0
C976 C 1.01011 0.14006 0.92943 0.0
C977 C 0.03949 0.15175 0.94997 0.0
H978 H 0.9835 0.10583 0.86441 0.0
C979 C 0.06509 0.13654 0.91478 0.0
H980 H 0.98974 0.15061 0.95517 0.0
C981 C 0.06153 0.11093 0.86172 0.0
C982 C 0.03221 0.09883 0.84242 0.0
H983 H 0.08819 0.14458 0.92813 0.0
H984 H 0.08195 0.10061 0.83568 0.0
C985 C 1.00656 0.11407 0.87727 0.0
C986 C 0.3803 0.04769 0.79959 0.0
C987 C 0.37616 0.03877 0.88243 0.0
H988 H 0.41071 0.05217 0.69562 0.0
C989 C 0.40171 0.02507 0.92089 0.0
H990 H 0.36158 0.05847 0.76698 0.0
C991 C 0.43026 0.0214 0.87914 0.0
C992 C 0.43444 0.03095 0.79685 0.0
H993 H 0.4001 0.01841 0.98466 0.0
H994 H 0.4493 1.01123 0.91189 0.0
C995 C 0.40872 0.04399 0.75801 0.0
C996 C 0.51622 0.40513 0.92905 0.0
C997 C 0.49021 0.38603 0.91614 0.0
H998 H 0.54153 0.44609 0.8934 0.0
C999 C 0.47067 0.39435 0.85038 0.0
H1000 H 0.53148 0.40046 0.97979 0.0
C1001 C 0.47597 0.42093 0.80251 0.0
C1002 C 0.50158 0.44014 0.81583 0.0
H1003 H 0.45012 0.38091 0.8381 0.0
H1004 H 0.45912 0.4272 0.75697 0.0
C1005 C 0.52172 0.43172 0.88002 0.0
C1006 C 0.12106 0.46806 0.92982 0.0
C1007 C 0.14408 0.49084 0.94399 0.0
H1008 H 0.07812 0.45504 0.87346 0.0
C1009 C 0.14 0.51882 0.90098 0.0
H1010 H 0.12294 0.44554 0.95697 0.0
C1011 C 0.11394 0.52393 0.84959 0.0
C1012 C 0.09045 0.50147 0.83914 0.0
H1013 H 0.15654 0.53729 0.90829 0.0
H1014 H 0.11187 0.54596 0.81951 0.0
C1015 C 0.09495 0.47335 0.88 0.0
C1016 C 1.00933 0.88874 0.54639 0.0
C1017 C 0.99678 0.88994 0.4665 0.0
H1018 H 0.02305 0.91362 0.65505 0.0
C1019 C 0.98905 0.91959 0.43758 0.0
H1020 H 0.01579 0.86682 0.57217 0.0
C1021 C 0.9926 0.94629 0.48622 0.0
C1022 C 1.00432 0.9452 0.56662 0.0
H1023 H 0.98017 0.92246 0.3762 0.0
H1024 H 0.986 0.96799 0.46009 0.0
C1025 C 0.01304 0.91578 0.5951 0.0
C1026 C 0.62964 0.97313 0.4653 0.0
C1027 C 0.64682 0.99862 0.43608 0.0
H1028 H 0.59103 0.95621 0.53507 0.0
C1029 C 0.63654 0.02797 0.46101 0.0
H1030 H 0.63664 0.95003 0.44954 0.0
C1031 C 0.60985 0.03152 0.51104 0.0
C1032 C 0.59248 1.00589 0.53866 0.0
H1033 H 0.64868 0.04831 0.44024 0.0
H1034 H 0.60269 0.0545 0.52756 0.0
C1035 C 0.60316 0.97667 0.51498 0.0
C1036 C 0.56737 0.63262 0.49505 0.0
C1037 C 0.54496 0.64518 0.4416 0.0
H1038 H 0.5798 0.59776 0.58189 0.0
C1039 C 0.51532 0.63158 0.44547 0.0
H1040 H 0.59029 0.64248 0.4977 0.0
C1041 C 0.50902 0.60597 0.49768 0.0
C1042 C 0.53223 0.59253 0.54676 0.0
H1043 H 0.49724 0.63996 0.40604 0.0
H1044 H 0.48608 0.59608 0.49766 0.0
C1045 C 0.56137 0.60668 0.54456 0.0
C1046 C 0.89727 0.51545 0.45858 0.0
C1047 C 0.88248 0.54429 0.46015 0.0
H1048 H 0.93367 0.48688 0.50692 0.0
C1049 C 0.89309 0.56559 0.51971 0.0
H1050 H 0.89059 0.49853 0.41316 0.0
C1051 C 0.91836 0.55939 0.5711 0.0
C1052 C 0.93398 0.53119 0.56754 0.0
H1053 H 0.88272 0.58811 0.5237 0.0
H1054 H 0.92607 0.57715 0.61302 0.0
C1055 C 0.92237 0.5089 0.51201 0.0
loop_
_geom_bond_atom_site_label_1
_geom_bond_atom_site_label_2
_geom_bond_distance
_geom_bond_site_symmetry_2
_ccdc_geom_bond_type
C0 C1 1.391 . S
C0 C4 1.391 . S
C0 H42 0.948 . S
C1 C0 1.391 . S
C1 C2 1.391 . S
C2 C1 1.391 . S
C2 H58 0.947 . S
C2 C59 1.392 . S
C3 C4 1.391 . S
C3 C7 1.397 . S
C3 C59 1.419 . S
C4 C0 1.391 . S
C4 C3 1.391 . S
C4 C5 1.399 . S
C5 C4 1.399 . S
C5 C8 1.396 . S
C5 C17 1.453 . S
C5 C18 1.684 . S
H6 C30 0.948 . S
C7 C3 1.397 . S
C7 C8 1.394 . S
C7 C26 1.723 . S
C8 C5 1.396 . S
C8 C7 1.394 . S
C8 C38 1.723 . S
H9 C32 0.947 . S
H10 C33 0.948 . S
H11 C39 0.982 . S
H12 C40 0.979 . S
H13 C40 0.980 . S
H14 C40 0.983 . S
H15 C39 0.979 . S
H16 C39 0.977 . S
C17 C5 1.453 . S
C17 H46 0.982 . S
C17 H47 0.979 . S
C17 H48 0.977 . S
C18 C5 1.684 . S
C18 H43 0.979 . S
C18 H44 0.980 . S
C18 H45 0.983 . S
C19 C20 1.391 . S
C19 C24 1.391 . S
C19 H49 0.948 . S
C20 C19 1.391 . S
C20 C21 1.391 . S
C21 C20 1.391 . S
C21 C22 1.392 . S
C21 H50 0.947 1_554 S
C22 C21 1.392 . S
C22 C23 1.419 . S
C22 H51 0.948 . S
C23 C22 1.419 . S
C23 C24 1.391 . S
C23 C27 1.397 . S
C24 C19 1.391 . S
C24 C23 1.391 . S
C24 C25 1.399 . S
C25 C24 1.399 . S
C25 C26 1.396 . S
C25 C28 1.453 . S
C25 C29 1.684 . S
C26 C7 1.723 . S
C26 C25 1.396 . S
C26 C27 1.394 . S
C27 C23 1.397 . S
C27 C26 1.394 . S
C27 C37 1.723 . S
C28 C25 1.453 . S
C28 H52 0.982 . S
C28 H53 0.979 . S
C28 H54 0.977 . S
C29 C25 1.684 . S
C29 H55 0.979 . S
C29 H56 0.980 . S
C29 H57 0.983 . S
C30 H6 0.948 . S
C30 C31 1.391 . S
C30 C35 1.391 . S
C31 C30 1.391 . S
C31 C32 1.391 . S
C32 H9 0.947 . S
C32 C31 1.391 . S
C32 C33 1.392 . S
C33 H10 0.948 . S
C33 C32 1.392 . S
C33 C34 1.419 . S
C34 C33 1.419 . S
C34 C35 1.391 . S
C34 C38 1.397 . S
C35 C30 1.391 . S
C35 C34 1.391 . S
C35 C36 1.399 . S
C36 C35 1.399 . S
C36 C37 1.396 . S
C36 C39 1.453 . S
C36 C40 1.684 . S
C37 C27 1.723 . S
C37 C36 1.396 . S
C37 C38 1.394 . S
C38 C8 1.723 . S
C38 C34 1.397 . S
C38 C37 1.394 . S
C39 H11 0.982 . S
C39 H15 0.979 . S
C39 H16 0.977 . S
C39 C36 1.453 . S
C40 H12 0.979 . S
C40 H13 0.980 . S
C40 H14 0.983 . S
C40 C36 1.684 . S
H41 C59 0.948 . S
H42 C0 0.948 . S
H43 C18 0.979 . S
H44 C18 0.980 . S
H45 C18 0.983 . S
H46 C17 0.982 . S
H47 C17 0.979 . S
H48 C17 0.977 . S
H49 C19 0.948 . S
H50 C21 0.947 1_556 S
H51 C22 0.948 . S
H52 C28 0.982 . S
H53 C28 0.979 . S
H54 C28 0.977 . S
H55 C29 0.979 . S
H56 C29 0.980 . S
H57 C29 0.983 . S
H58 C2 0.947 . S
C59 C2 1.392 . S
C59 C3 1.419 . S
C59 H41 0.948 . S
C60 C61 1.391 . S
C60 C64 1.391 . S
C60 H102 0.948 . S
C61 C60 1.391 . S
C61 C62 1.391 . S
C62 C61 1.391 . S
C62 H118 0.947 . S
C62 C119 1.392 . S
C63 C64 1.391 . S
C63 C67 1.397 . S
C63 C119 1.419 . S
C64 C60 1.391 . S
C64 C63 1.391 . S
C64 C65 1.399 . S
C65 C64 1.399 . S
C65 C68 1.396 . S
C65 C77 1.453 . S
C65 C78 1.684 . S
H66 C90 0.948 . S
C67 C63 1.397 . S
C67 C68 1.394 . S
C67 C86 1.723 . S
C68 C65 1.396 . S
C68 C67 1.394 . S
C68 C98 1.723 . S
H69 C92 0.947 . S
H70 C93 0.948 . S
H71 C99 0.982 1_455 S
H72 C100 0.979 . S
H73 C100 0.980 . S
H74 C100 0.983 . S
H75 C99 0.979 . S
H76 C99 0.977 . S
C77 C65 1.453 . S
C77 H106 0.982 1_655 S
C77 H107 0.979 . S
C77 H108 0.977 . S
C78 C65 1.684 . S
C78 H103 0.979 . S
C78 H104 0.980 . S
C78 H105 0.983 . S
C79 C80 1.391 . S
C79 C84 1.391 . S
C79 H109 0.948 . S
C80 C79 1.391 . S
C80 C81 1.391 . S
C81 C80 1.391 . S
C81 C82 1.392 . S
C81 H110 0.947 . S
C82 C81 1.392 . S
C82 C83 1.419 . S
C82 H111 0.948 . S
C83 C82 1.419 . S
C83 C84 1.391 . S
C83 C87 1.397 . S
C84 C79 1.391 . S
C84 C83 1.391 . S
C84 C85 1.399 . S
C85 C84 1.399 . S
C85 C86 1.396 . S
C85 C88 1.453 . S
C85 C89 1.684 . S
C86 C67 1.723 . S
C86 C85 1.396 . S
C86 C87 1.394 . S
C87 C83 1.397 . S
C87 C86 1.394 . S
C87 C97 1.723 . S
C88 C85 1.453 . S
C88 H112 0.982 1_655 S
C88 H113 0.979 . S
C88 H114 0.977 . S
C89 C85 1.684 . S
C89 H115 0.979 . S
C89 H116 0.980 . S
C89 H117 0.983 . S
C90 H66 0.948 . S
C90 C91 1.391 . S
C90 C95 1.391 . S
C91 C90 1.391 . S
C91 C92 1.391 . S
C92 H69 0.947 . S
C92 C91 1.391 . S
C92 C93 1.392 . S
C93 H70 0.948 . S
C93 C92 1.392 . S
C93 C94 1.419 . S
C94 C93 1.419 . S
C94 C95 1.391 . S
C94 C98 1.397 . S
C95 C90 1.391 . S
C95 C94 1.391 . S
C95 C96 1.399 . S
C96 C95 1.399 . S
C96 C97 1.396 . S
C96 C99 1.453 . S
C96 C100 1.684 . S
C97 C87 1.723 . S
C97 C96 1.396 . S
C97 C98 1.394 . S
C98 C68 1.723 . S
C98 C94 1.397 . S
C98 C97 1.394 . S
C99 H71 0.982 1_655 S
C99 H75 0.979 . S
C99 H76 0.977 . S
C99 C96 1.453 . S
C100 H72 0.979 . S
C100 H73 0.980 . S
C100 H74 0.983 . S
C100 C96 1.684 . S
H101 C119 0.948 . S
H102 C60 0.948 . S
H103 C78 0.979 . S
H104 C78 0.980 . S
H105 C78 0.983 . S
H106 C77 0.982 1_455 S
H107 C77 0.979 . S
H108 C77 0.977 . S
H109 C79 0.948 . S
H110 C81 0.947 . S
H111 C82 0.948 . S
H112 C88 0.982 1_455 S
H113 C88 0.979 . S
H114 C88 0.977 . S
H115 C89 0.979 . S
H116 C89 0.980 . S
H117 C89 0.983 . S
H118 C62 0.947 . S
C119 C62 1.392 . S
C119 C63 1.419 . S
C119 H101 0.948 . S
C120 C121 1.391 . S
C120 C124 1.391 . S
C120 H162 0.948 . S
C121 C120 1.391 . S
C121 C122 1.391 . S
C122 C121 1.391 . S
C122 H178 0.947 . S
C122 C179 1.392 . S
C123 C124 1.391 . S
C123 C127 1.397 . S
C123 C179 1.419 . S
C124 C120 1.391 . S
C124 C123 1.391 . S
C124 C125 1.399 . S
C125 C124 1.399 . S
C125 C128 1.396 . S
C125 C137 1.453 . S
C125 C138 1.684 . S
H126 C150 0.948 . S
C127 C123 1.397 . S
C127 C128 1.394 . S
C127 C146 1.723 . S
C128 C125 1.396 . S
C128 C127 1.394 . S
C128 C158 1.723 . S
H129 C152 0.947 . S
H130 C153 0.948 . S
H131 C159 0.982 1_545 S
H132 C160 0.979 . S
H133 C160 0.980 . S
H134 C160 0.983 . S
H135 C159 0.979 . S
H136 C159 0.977 . S
C137 C125 1.453 . S
C137 H166 0.982 1_565 S
C137 H167 0.979 . S
C137 H168 0.977 . S
C138 C125 1.684 . S
C138 H163 0.979 . S
C138 H164 0.980 . S
C138 H165 0.983 . S
C139 C140 1.391 . S
C139 C144 1.391 . S
C139 H169 0.948 . S
C140 C139 1.391 . S
C140 C141 1.391 . S
C141 C140 1.391 . S
C141 C142 1.392 . S
C141 H170 0.947 . S
C142 C141 1.392 . S
C142 C143 1.419 . S
C142 H171 0.948 . S
C143 C142 1.419 . S
C143 C144 1.391 . S
C143 C147 1.397 . S
C144 C139 1.391 . S
C144 C143 1.391 . S
C144 C145 1.399 . S
C145 C144 1.399 . S
C145 C146 1.396 . S
C145 C148 1.453 . S
C145 C149 1.684 . S
C146 C127 1.723 . S
C146 C145 1.396 . S
C146 C147 1.394 . S
C147 C143 1.397 . S
C147 C146 1.394 . S
C147 C157 1.723 . S
C148 C145 1.453 . S
C148 H172 0.982 1_565 S
C148 H173 0.979 . S
C148 H174 0.977 . S
C149 C145 1.684 . S
C149 H175 0.979 . S
C149 H176 0.980 . S
C149 H177 0.983 . S
C150 H126 0.948 . S
C150 C151 1.391 . S
C150 C155 1.391 . S
C151 C150 1.391 . S
C151 C152 1.391 . S
C152 H129 0.947 . S
C152 C151 1.391 . S
C152 C153 1.392 . S
C153 H130 0.948 . S
C153 C152 1.392 . S
C153 C154 1.419 . S
C154 C153 1.419 . S
C154 C155 1.391 . S
C154 C158 1.397 . S
C155 C150 1.391 . S
C155 C154 1.391 . S
C155 C156 1.399 . S
C156 C155 1.399 . S
C156 C157 1.396 . S
C156 C159 1.453 . S
C156 C160 1.684 . S
C157 C147 1.723 . S
C157 C156 1.396 . S
C157 C158 1.394 . S
C158 C128 1.723 . S
C158 C154 1.397 . S
C158 C157 1.394 . S
C159 H131 0.982 1_565 S
C159 H135 0.979 . S
C159 H136 0.977 . S
C159 C156 1.453 . S
C160 H132 0.979 . S
C160 H133 0.980 . S
C160 H134 0.983 . S
C160 C156 1.684 . S
H161 C179 0.948 . S
H162 C120 0.948 . S
H163 C138 0.979 . S
H164 C138 0.980 . S
H165 C138 0.983 . S
H166 C137 0.982 1_545 S
H167 C137 0.979 . S
H168 C137 0.977 . S
H169 C139 0.948 . S
H170 C141 0.947 . S
H171 C142 0.948 . S
H172 C148 0.982 1_545 S
H173 C148 0.979 . S
H174 C148 0.977 . S
H175 C149 0.979 . S
H176 C149 0.980 . S
H177 C149 0.983 . S
H178 C122 0.947 . S
C179 C122 1.392 . S
C179 C123 1.419 . S
C179 H161 0.948 . S
C180 C181 1.391 . S
C180 C184 1.391 . S
C180 H222 0.948 . S
C181 C180 1.391 . S
C181 C182 1.391 . S
C182 C181 1.391 . S
C182 H238 0.947 . S
C182 C239 1.392 . S
C183 C184 1.391 . S
C183 C187 1.397 . S
C183 C239 1.419 . S
C184 C180 1.391 . S
C184 C183 1.391 . S
C184 C185 1.399 . S
C185 C184 1.399 . S
C185 C188 1.396 . S
C185 C197 1.453 . S
C185 C198 1.684 . S
H186 C210 0.948 . S
C187 C183 1.397 . S
C187 C188 1.394 . S
C187 C206 1.723 . S
C188 C185 1.396 . S
C188 C187 1.394 . S
C188 C218 1.723 . S
H189 C212 0.947 . S
H190 C213 0.948 . S
H191 C219 0.982 . S
H192 C220 0.979 . S
H193 C220 0.980 . S
H194 C220 0.983 . S
H195 C219 0.979 . S
H196 C219 0.977 . S
C197 C185 1.453 . S
C197 H226 0.982 . S
C197 H227 0.979 . S
C197 H228 0.977 . S
C198 C185 1.684 . S
C198 H223 0.979 . S
C198 H224 0.980 . S
C198 H225 0.983 . S
C199 C200 1.391 . S
C199 C204 1.391 . S
C199 H229 0.948 . S
C200 C199 1.391 . S
C200 C201 1.391 . S
C201 C200 1.391 . S
C201 C202 1.392 . S
C201 H230 0.947 1_554 S
C202 C201 1.392 . S
C202 C203 1.419 . S
C202 H231 0.948 . S
C203 C202 1.419 . S
C203 C204 1.391 . S
C203 C207 1.397 . S
C204 C199 1.391 . S
C204 C203 1.391 . S
C204 C205 1.399 . S
C205 C204 1.399 . S
C205 C206 1.396 . S
C205 C208 1.453 . S
C205 C209 1.684 . S
C206 C187 1.723 . S
C206 C205 1.396 . S
C206 C207 1.394 . S
C207 C203 1.397 . S
C207 C206 1.394 . S
C207 C217 1.723 . S
C208 C205 1.453 . S
C208 H232 0.982 . S
C208 H233 0.979 . S
C208 H234 0.977 . S
C209 C205 1.684 . S
C209 H235 0.979 . S
C209 H236 0.980 . S
C209 H237 0.983 . S
C210 H186 0.948 . S
C210 C211 1.391 . S
C210 C215 1.391 . S
C211 C210 1.391 . S
C211 C212 1.391 . S
C212 H189 0.947 . S
C212 C211 1.391 . S
C212 C213 1.392 . S
C213 H190 0.948 . S
C213 C212 1.392 . S
C213 C214 1.419 . S
C214 C213 1.419 . S
C214 C215 1.391 . S
C214 C218 1.397 . S
C215 C210 1.391 . S
C215 C214 1.391 . S
C215 C216 1.399 . S
C216 C215 1.399 . S
C216 C217 1.396 . S
C216 C219 1.453 . S
C216 C220 1.684 . S
C217 C207 1.723 . S
C217 C216 1.396 . S
C217 C218 1.394 . S
C218 C188 1.723 . S
C218 C214 1.397 . S
C218 C217 1.394 . S
C219 H191 0.982 . S
C219 H195 0.979 . S
C219 H196 0.977 . S
C219 C216 1.453 . S
C220 H192 0.979 . S
C220 H193 0.980 . S
C220 H194 0.983 . S
C220 C216 1.684 . S
H221 C239 0.948 . S
H222 C180 0.948 . S
H223 C198 0.979 . S
H224 C198 0.980 . S
H225 C198 0.983 . S
H226 C197 0.982 . S
H227 C197 0.979 . S
H228 C197 0.977 . S
H229 C199 0.948 . S
H230 C201 0.947 1_556 S
H231 C202 0.948 . S
H232 C208 0.982 . S
H233 C208 0.979 . S
H234 C208 0.977 . S
H235 C209 0.979 . S
H236 C209 0.980 . S
H237 C209 0.983 . S
H238 C182 0.947 . S
C239 C182 1.392 . S
C239 C183 1.419 . S
C239 H221 0.948 . S
C240 C241 1.391 . S
C240 C244 1.391 . S
C240 H282 0.948 . S
C241 C240 1.391 . S
C241 C242 1.391 . S
C242 C241 1.391 . S
C242 H298 0.947 . S
C242 C299 1.392 . S
C243 C244 1.391 . S
C243 C247 1.397 . S
C243 C299 1.419 . S
C244 C240 1.391 . S
C244 C243 1.391 . S
C244 C245 1.399 1_554 S
C245 C244 1.399 1_556 S
C245 C248 1.396 . S
C245 C257 1.453 . S
C245 C258 1.684 . S
H246 C270 0.948 . S
C247 C243 1.397 . S
C247 C248 1.394 1_554 S
C247 C266 1.723 . S
C248 C245 1.396 . S
C248 C247 1.394 1_556 S
C248 C278 1.723 . S
H249 C272 0.947 . S
H250 C273 0.948 . S
H251 C279 0.982 . S
H252 C280 0.979 . S
H253 C280 0.980 . S
H254 C280 0.983 . S
H255 C279 0.979 . S
H256 C279 0.987 . S
C257 C245 1.453 . S
C257 H286 0.982 . S
C257 H287 0.979 . S
C257 H288 0.977 . S
C258 C245 1.684 . S
C258 H283 0.979 . S
C258 H284 0.980 . S
C258 H285 0.983 . S
C259 C260 1.391 . S
C259 C264 1.391 . S
C259 H289 0.948 . S
C260 C259 1.391 . S
C260 C261 1.391 . S
C261 C260 1.391 . S
C261 C262 1.392 . S
C261 H290 0.947 . S
C262 C261 1.392 . S
C262 C263 1.419 . S
C262 H291 0.948 . S
C263 C262 1.419 . S
C263 C264 1.391 . S
C263 C267 1.397 . S
C264 C259 1.391 . S
C264 C263 1.391 . S
C264 C265 1.399 . S
C265 C264 1.399 . S
C265 C266 1.396 . S
C265 C268 1.453 . S
C265 C269 1.684 . S
C266 C247 1.723 . S
C266 C265 1.396 . S
C266 C267 1.394 . S
C267 C263 1.397 . S
C267 C266 1.394 . S
C267 C277 1.723 1_554 S
C268 C265 1.453 . S
C268 H292 0.982 . S
C268 H293 0.979 . S
C268 H294 0.977 . S
C269 C265 1.684 . S
C269 H295 0.979 . S
C269 H296 0.980 . S
C269 H297 0.983 . S
C270 H246 0.948 . S
C270 C271 1.391 . S
C270 C275 1.391 . S
C271 C270 1.391 . S
C271 C272 1.391 . S
C272 H249 0.947 . S
C272 C271 1.391 . S
C272 C273 1.392 . S
C273 H250 0.948 . S
C273 C272 1.392 . S
C273 C274 1.419 . S
C274 C273 1.419 . S
C274 C275 1.391 . S
C274 C278 1.397 . S
C275 C270 1.391 . S
C275 C274 1.391 . S
C275 C276 1.399 . S
C276 C275 1.399 . S
C276 C277 1.396 . S
C276 C279 1.453 . S
C276 C280 1.684 . S
C277 C267 1.723 1_556 S
C277 C276 1.396 . S
C277 C278 1.394 . S
C278 C248 1.723 . S
C278 C274 1.397 . S
C278 C277 1.394 . S
C279 H251 0.982 . S
C279 H255 0.979 . S
C279 H256 0.987 . S
C279 C276 1.453 . S
C280 H252 0.979 . S
C280 H253 0.980 . S
C280 H254 0.983 . S
C280 C276 1.684 . S
H281 C299 0.948 . S
H282 C240 0.948 . S
H283 C258 0.979 . S
H284 C258 0.980 . S
H285 C258 0.983 . S
H286 C257 0.982 . S
H287 C257 0.979 . S
H288 C257 0.977 . S
H289 C259 0.948 . S
H290 C261 0.947 . S
H291 C262 0.948 . S
H292 C268 0.982 . S
H293 C268 0.979 . S
H294 C268 0.977 . S
H295 C269 0.979 . S
H296 C269 0.980 . S
H297 C269 0.983 . S
H298 C242 0.947 . S
C299 C242 1.392 . S
C299 C243 1.419 . S
C299 H281 0.948 . S
C300 C301 1.391 . S
C300 C304 1.391 . S
C300 H342 0.948 . S
C301 C300 1.391 . S
C301 C302 1.391 . S
C302 C301 1.391 . S
C302 H358 0.947 . S
C302 C359 1.392 . S
C303 C304 1.391 . S
C303 C307 1.397 . S
C303 C359 1.419 . S
C304 C300 1.391 . S
C304 C303 1.391 . S
C304 C305 1.399 . S
C305 C304 1.399 . S
C305 C308 1.396 . S
C305 C317 1.453 . S
C305 C318 1.684 . S
H306 C330 0.948 . S
C307 C303 1.397 . S
C307 C308 1.394 . S
C307 C326 1.723 1_554 S
C308 C305 1.396 . S
C308 C307 1.394 . S
C308 C338 1.723 . S
H309 C332 0.947 . S
H310 C333 0.948 . S
H311 C339 0.982 . S
H312 C340 0.979 1_655 S
H313 C340 0.980 . S
H314 C340 0.983 . S
H315 C339 0.979 . S
H316 C339 0.977 . S
C317 C305 1.453 . S
C317 H346 0.982 . S
C317 H347 0.979 . S
C317 H348 0.977 . S
C318 C305 1.684 . S
C318 H343 0.979 1_455 S
C318 H344 0.980 . S
C318 H345 0.983 . S
C319 C320 1.391 . S
C319 C324 1.391 . S
C319 H349 0.948 . S
C320 C319 1.391 . S
C320 C321 1.391 . S
C321 C320 1.391 . S
C321 C322 1.392 . S
C321 H350 0.947 . S
C322 C321 1.392 . S
C322 C323 1.419 . S
C322 H351 0.948 . S
C323 C322 1.419 . S
C323 C324 1.391 . S
C323 C327 1.397 . S
C324 C319 1.391 . S
C324 C323 1.391 . S
C324 C325 1.399 . S
C325 C324 1.399 . S
C325 C326 1.396 . S
C325 C328 1.453 . S
C325 C329 1.684 . S
C326 C307 1.723 1_556 S
C326 C325 1.396 . S
C326 C327 1.394 . S
C327 C323 1.397 . S
C327 C326 1.394 . S
C327 C337 1.723 . S
C328 C325 1.453 . S
C328 H352 0.982 . S
C328 H353 0.979 . S
C328 H354 0.971 1_556 S
C329 C325 1.684 . S
C329 H355 0.979 1_455 S
C329 H356 0.980 . S
C329 H357 0.983 . S
C330 H306 0.948 . S
C330 C331 1.391 . S
C330 C335 1.391 . S
C331 C330 1.391 . S
C331 C332 1.391 . S
C332 H309 0.947 . S
C332 C331 1.391 . S
C332 C333 1.392 . S
C333 H310 0.948 . S
C333 C332 1.392 . S
C333 C334 1.419 . S
C334 C333 1.419 . S
C334 C335 1.391 . S
C334 C338 1.397 . S
C335 C330 1.391 . S
C335 C334 1.391 . S
C335 C336 1.399 1_554 S
C336 C335 1.399 1_556 S
C336 C337 1.396 . S
C336 C339 1.453 . S
C336 C340 1.684 . S
C337 C327 1.723 . S
C337 C336 1.396 . S
C337 C338 1.394 1_556 S
C338 C308 1.723 . S
C338 C334 1.397 . S
C338 C337 1.394 1_554 S
C339 H311 0.982 . S
C339 H315 0.979 . S
C339 H316 0.977 . S
C339 C336 1.453 . S
C340 H312 0.979 1_455 S
C340 H313 0.980 . S
C340 H314 0.983 . S
C340 C336 1.684 . S
H341 C359 0.948 . S
H342 C300 0.948 . S
H343 C318 0.979 1_655 S
H344 C318 0.980 . S
H345 C318 0.983 . S
H346 C317 0.982 . S
H347 C317 0.979 . S
H348 C317 0.977 . S
H349 C319 0.948 . S
H350 C321 0.947 . S
H351 C322 0.948 . S
H352 C328 0.982 . S
H353 C328 0.979 . S
H354 C328 0.971 1_554 S
H355 C329 0.979 1_655 S
H356 C329 0.980 . S
H357 C329 0.983 . S
H358 C302 0.947 . S
C359 C302 1.392 . S
C359 C303 1.419 . S
C359 H341 0.948 . S
C360 C361 1.391 . S
C360 C364 1.391 . S
C360 H402 0.948 . S
C361 C360 1.391 . S
C361 C362 1.391 . S
C362 C361 1.391 . S
C362 H418 0.947 . S
C362 C419 1.392 . S
C363 C364 1.391 . S
C363 C367 1.397 . S
C363 C419 1.419 . S
C364 C360 1.391 . S
C364 C363 1.391 . S
C364 C365 1.399 . S
C365 C364 1.399 . S
C365 C368 1.396 . S
C365 C377 1.453 . S
C365 C378 1.684 . S
H366 C390 0.948 . S
C367 C363 1.397 . S
C367 C368 1.394 . S
C367 C386 1.723 1_556 S
C368 C365 1.396 . S
C368 C367 1.394 . S
C368 C398 1.723 1_556 S
H369 C392 0.947 1_556 S
H370 C393 0.958 . S
H371 C399 1.003 . S
H372 C400 0.979 . S
H373 C400 0.980 . S
H374 C400 0.983 . S
H375 C399 0.979 . S
H376 C399 0.977 . S
C377 C365 1.453 . S
C377 H406 1.004 . S
C377 H407 0.979 . S
C377 H408 0.977 . S
C378 C365 1.684 . S
C378 H403 0.979 . S
C378 H404 0.980 . S
C378 H405 0.983 . S
C379 C380 1.391 . S
C379 C384 1.391 . S
C379 H409 0.948 . S
C380 C379 1.391 . S
C380 C381 1.391 . S
C381 C380 1.391 . S
C381 C382 1.392 . S
C381 H410 0.947 . S
C382 C381 1.392 . S
C382 C383 1.419 . S
C382 H411 0.948 . S
C383 C382 1.419 . S
C383 C384 1.391 . S
C383 C387 1.397 . S
C384 C379 1.391 . S
C384 C383 1.391 . S
C384 C385 1.399 . S
C385 C384 1.399 . S
C385 C386 1.396 . S
C385 C388 1.453 . S
C385 C389 1.684 . S
C386 C367 1.723 1_554 S
C386 C385 1.396 . S
C386 C387 1.394 . S
C387 C383 1.397 . S
C387 C386 1.394 . S
C387 C397 1.723 . S
C388 C385 1.453 . S
C388 H412 1.003 . S
C388 H413 0.979 . S
C388 H414 0.977 1_554 S
C389 C385 1.684 . S
C389 H415 0.979 . S
C389 H416 0.980 1_554 S
C389 H417 0.983 . S
C390 H366 0.948 . S
C390 C391 1.391 . S
C390 C395 1.391 . S
C391 C390 1.391 . S
C391 C392 1.391 . S
C392 H369 0.947 1_554 S
C392 C391 1.391 . S
C392 C393 1.389 1_554 S
C393 H370 0.958 . S
C393 C392 1.389 1_556 S
C393 C394 1.412 1_556 S
C394 C393 1.412 1_554 S
C394 C395 1.391 . S
C394 C398 1.397 . S
C395 C390 1.391 . S
C395 C394 1.391 . S
C395 C396 1.399 . S
C396 C395 1.399 . S
C396 C397 1.396 . S
C396 C399 1.453 . S
C396 C400 1.684 . S
C397 C387 1.723 . S
C397 C396 1.396 . S
C397 C398 1.394 . S
C398 C368 1.723 1_554 S
C398 C394 1.397 . S
C398 C397 1.394 . S
C399 H371 1.003 . S
C399 H375 0.979 . S
C399 H376 0.977 . S
C399 C396 1.453 . S
C400 H372 0.979 . S
C400 H373 0.980 . S
C400 H374 0.983 . S
C400 C396 1.684 . S
H401 C419 0.948 . S
H402 C360 0.948 . S
H403 C378 0.979 . S
H404 C378 0.980 . S
H405 C378 0.983 . S
H406 C377 1.004 . S
H407 C377 0.979 . S
H408 C377 0.977 . S
H409 C379 0.948 . S
H410 C381 0.947 . S
H411 C382 0.948 . S
H412 C388 1.003 . S
H413 C388 0.979 . S
H414 C388 0.977 1_556 S
H415 C389 0.979 . S
H416 C389 0.980 1_556 S
H417 C389 0.983 . S
H418 C362 0.947 . S
C419 C362 1.392 . S
C419 C363 1.419 . S
C419 H401 0.948 . S
C420 C421 1.391 . S
C420 C424 1.391 . S
C420 H462 0.948 . S
C421 C420 1.391 . S
C421 C422 1.391 . S
C422 C421 1.391 . S
C422 H478 0.947 . S
C422 C479 1.392 . S
C423 C424 1.391 . S
C423 C427 1.397 . S
C423 C479 1.419 . S
C424 C420 1.391 . S
C424 C423 1.391 . S
C424 C425 1.399 . S
C425 C424 1.399 . S
C425 C428 1.396 . S
C425 C437 1.453 . S
C425 C438 1.684 . S
H426 C450 0.948 . S
C427 C423 1.397 . S
C427 C428 1.394 . S
C427 C446 1.723 1_556 S
C428 C425 1.396 . S
C428 C427 1.394 . S
C428 C458 1.723 1_556 S
H429 C452 0.947 1_556 S
H430 C453 0.948 . S
H431 C459 0.982 . S
H432 C460 0.979 . S
H433 C460 0.980 . S
H434 C460 0.983 . S
H435 C459 0.979 . S
H436 C459 0.977 . S
C437 C425 1.453 . S
C437 H466 0.982 . S
C437 H467 0.979 . S
C437 H468 0.977 . S
C438 C425 1.684 . S
C438 H463 0.979 . S
C438 H464 0.980 . S
C438 H465 0.983 . S
C439 C440 1.391 . S
C439 C444 1.391 . S
C439 H469 0.948 . S
C440 C439 1.391 . S
C440 C441 1.391 . S
C441 C440 1.391 . S
C441 C442 1.392 . S
C441 H470 0.947 . S
C442 C441 1.392 . S
C442 C443 1.419 . S
C442 H471 0.948 . S
C443 C442 1.419 . S
C443 C444 1.391 . S
C443 C447 1.397 . S
C444 C439 1.391 . S
C444 C443 1.391 . S
C444 C445 1.399 . S
C445 C444 1.399 . S
C445 C446 1.396 . S
C445 C448 1.453 . S
C445 C449 1.684 . S
C446 C427 1.723 1_554 S
C446 C445 1.396 . S
C446 C447 1.394 . S
C447 C443 1.397 . S
C447 C446 1.394 . S
C447 C457 1.723 . S
C448 C445 1.453 . S
C448 H472 0.982 . S
C448 H473 0.979 . S
C448 H474 0.977 1_554 S
C449 C445 1.684 . S
C449 H475 0.979 . S
C449 H476 0.980 1_554 S
C449 H477 0.983 . S
C450 H426 0.948 . S
C450 C451 1.391 . S
C450 C455 1.391 . S
C451 C450 1.391 . S
C451 C452 1.391 . S
C452 H429 0.947 1_554 S
C452 C451 1.391 . S
C452 C453 1.392 1_554 S
C453 H430 0.948 . S
C453 C452 1.392 1_556 S
C453 C454 1.419 1_556 S
C454 C453 1.419 1_554 S
C454 C455 1.391 . S
C454 C458 1.397 . S
C455 C450 1.391 . S
C455 C454 1.391 . S
C455 C456 1.399 . S
C456 C455 1.399 . S
C456 C457 1.396 . S
C456 C459 1.453 . S
C456 C460 1.684 . S
C457 C447 1.723 . S
C457 C456 1.396 . S
C457 C458 1.394 . S
C458 C428 1.723 1_554 S
C458 C454 1.397 . S
C458 C457 1.394 . S
C459 H431 0.982 . S
C459 H435 0.979 . S
C459 H436 0.977 . S
C459 C456 1.453 . S
C460 H432 0.979 . S
C460 H433 0.980 . S
C460 H434 0.983 . S
C460 C456 1.684 . S
H461 C479 0.948 . S
H462 C420 0.948 . S
H463 C438 0.979 . S
H464 C438 0.980 . S
H465 C438 0.983 . S
H466 C437 0.982 . S
H467 C437 0.979 . S
H468 C437 0.977 . S
H469 C439 0.948 . S
H470 C441 0.947 . S
H471 C442 0.948 . S
H472 C448 0.982 . S
H473 C448 0.979 . S
H474 C448 0.977 1_556 S
H475 C449 0.979 . S
H476 C449 0.980 1_556 S
H477 C449 0.983 . S
H478 C422 0.947 . S
C479 C422 1.392 . S
C479 C423 1.419 . S
C479 H461 0.948 . S
Tb480 N509 2.617 . S
Tb480 N515 2.572 . S
Tb480 O524 2.465 . S
Tb480 O525 2.387 1_545 S
Tb480 O527 2.428 . S
Tb480 O528 2.308 1_655 S
Tb480 O532 2.349 1_655 S
Tb480 O535 2.393 . S
Tb480 C544 2.802 . S
C481 N482 1.379 . S
C481 C484 1.416 . S
C481 C488 1.424 . S
N482 C481 1.379 . S
N482 C485 1.334 1_545 S
N482 Tb491 2.617 1_545 S
C483 C485 1.390 1_545 S
C483 C486 1.339 . S
C483 H503 0.930 . S
C484 C481 1.416 . S
C484 C486 1.416 . S
C484 C490 1.448 . S
C485 N482 1.334 1_565 S
C485 C483 1.390 1_565 S
C485 H496 0.930 . S
C486 C483 1.339 . S
C486 C484 1.416 . S
C486 H507 0.930 . S
C487 C488 1.413 . S
C487 C489 1.427 1_556 S
C487 C493 1.416 1_556 S
C488 C481 1.424 . S
C488 C487 1.413 . S
C488 N492 1.361 . S
C489 C487 1.427 1_554 S
C489 C490 1.328 1_554 S
C489 H504 0.929 . S
C490 C484 1.448 . S
C490 C489 1.328 1_556 S
C490 H505 0.930 . S
Tb491 N482 2.617 1_565 S
Tb491 N492 2.572 1_565 S
Tb491 O526 2.349 . S
Tb491 O529 2.393 . S
Tb491 O530 2.465 . S
Tb491 O531 2.387 1_565 S
Tb491 O533 2.428 . S
Tb491 O534 2.306 1_465 S
Tb491 C555 2.802 . S
N492 C488 1.361 . S
N492 Tb491 2.572 1_545 S
N492 C494 1.340 . S
C493 C487 1.416 1_554 S
C493 C495 1.332 . S
C493 H501 0.931 . S
C494 N492 1.340 . S
C494 C495 1.407 1_556 S
C494 H500 0.930 . S
C495 C493 1.332 . S
C495 C494 1.407 1_554 S
C495 H497 0.929 . S
H496 C485 0.930 . S
H497 C495 0.929 . S
H498 C513 0.930 . S
H499 C520 0.929 1_455 S
H500 C494 0.930 . S
H501 C493 0.931 . S
H502 C516 0.930 1_455 S
H503 C483 0.930 . S
H504 C489 0.929 . S
H505 C490 0.930 . S
H506 C511 0.930 . S
H507 C486 0.930 . S
H508 C519 0.931 . S
N509 Tb480 2.617 . S
N509 C510 1.366 1_545 S
N509 C513 1.334 . S
C510 N509 1.366 1_565 S
C510 C512 1.427 . S
C510 C518 1.427 . S
C511 H506 0.930 . S
C511 C513 1.390 . S
C511 C514 1.339 1_545 S
C512 C510 1.427 . S
C512 C514 1.416 . S
C512 C545 1.448 . S
C513 H498 0.930 . S
C513 N509 1.334 . S
C513 C511 1.390 . S
C514 C511 1.339 1_565 S
C514 C512 1.416 . S
C514 H521 0.930 . S
N515 Tb480 2.572 . S
N515 C516 1.340 . S
N515 C518 1.361 1_545 S
C516 H502 0.930 1_655 S
C516 N515 1.340 . S
C516 C520 1.407 1_545 S
C517 C518 1.413 . S
C517 C519 1.416 . S
C517 C546 1.427 . S
C518 C510 1.427 . S
C518 N515 1.361 1_565 S
C518 C517 1.413 . S
C519 H508 0.931 . S
C519 C517 1.416 . S
C519 C520 1.332 . S
C520 H499 0.929 1_655 S
C520 C516 1.407 1_565 S
C520 C519 1.332 . S
H521 C514 0.930 . S
H522 C545 0.930 . S
H523 C546 0.929 . S
O524 Tb480 2.465 . S
O524 C544 1.264 . S
O525 Tb480 2.387 1_565 S
O525 C536 1.264 . S
O526 Tb491 2.349 . S
O526 C536 1.243 1_455 S
O527 Tb480 2.428 . S
O527 C544 1.256 . S
O528 Tb480 2.308 1_455 S
O528 C543 1.266 . S
O529 Tb491 2.393 . S
O529 C543 1.248 1_565 S
O530 Tb491 2.465 . S
O530 C555 1.264 . S
O531 Tb491 2.387 1_545 S
O531 C547 1.264 . S
O532 Tb480 2.349 1_455 S
O532 C547 1.243 . S
O533 Tb491 2.428 . S
O533 C555 1.256 . S
O534 Tb491 2.306 1_645 S
O534 C554 1.267 . S
O535 Tb480 2.393 . S
O535 C554 1.248 . S
C536 O525 1.264 . S
C536 O526 1.243 1_655 S
C537 C540 1.399 . S
C537 C542 1.383 . S
C537 C544 1.496 . S
C538 C539 1.399 . S
C538 C542 1.389 . S
C539 C538 1.399 . S
C539 C541 1.380 . S
C539 H556 0.929 . S
C540 C537 1.399 . S
C540 C541 1.392 . S
C540 H557 0.929 . S
C541 C539 1.380 . S
C541 C540 1.392 . S
C541 H558 0.929 . S
C542 C537 1.383 . S
C542 C538 1.389 . S
C542 H559 0.931 1_655 S
C543 O528 1.266 . S
C543 O529 1.248 1_545 S
C544 Tb480 2.802 . S
C544 O524 1.264 . S
C544 O527 1.256 . S
C544 C537 1.496 . S
C545 C512 1.448 . S
C545 H522 0.930 . S
C545 C546 1.328 . S
C546 C517 1.427 . S
C546 H523 0.929 . S
C546 C545 1.328 . S
C547 O531 1.264 . S
C547 O532 1.243 . S
C548 C551 1.399 . S
C548 C552 1.383 . S
C548 C555 1.496 . S
C549 C550 1.399 . S
C549 C552 1.389 . S
C550 C549 1.399 . S
C550 C553 1.380 . S
C550 H560 0.929 . S
C551 C548 1.399 . S
C551 C553 1.392 . S
C551 H561 0.929 . S
C552 C548 1.383 . S
C552 C549 1.389 . S
C552 H562 0.931 . S
C553 C550 1.380 . S
C553 C551 1.392 . S
C553 H563 0.929 . S
C554 O534 1.267 . S
C554 O535 1.248 . S
C555 Tb491 2.802 . S
C555 O530 1.264 . S
C555 O533 1.256 . S
C555 C548 1.496 . S
H556 C539 0.929 . S
H557 C540 0.929 . S
H558 C541 0.929 . S
H559 C542 0.931 1_455 S
H560 C550 0.929 . S
H561 C551 0.929 . S
H562 C552 0.931 . S
H563 C553 0.929 . S
Tb564 N593 2.617 . S
Tb564 N599 2.572 . S
Tb564 O608 2.465 . S
Tb564 O609 2.387 . S
Tb564 O611 2.428 . S
Tb564 O612 2.308 . S
Tb564 O616 2.349 1_545 S
Tb564 O619 2.393 . S
Tb564 C628 2.802 . S
C565 N566 1.379 . S
C565 C568 1.416 . S
C565 C572 1.424 . S
N566 C565 1.379 . S
N566 C569 1.334 . S
N566 Tb575 2.617 . S
C567 C569 1.390 . S
C567 C570 1.339 . S
C567 H587 0.930 . S
C568 C565 1.416 . S
C568 C570 1.416 . S
C568 C574 1.448 . S
C569 N566 1.334 . S
C569 C567 1.390 . S
C569 H580 0.930 . S
C570 C567 1.339 . S
C570 C568 1.416 . S
C570 H591 0.930 . S
C571 C572 1.413 . S
C571 C573 1.427 . S
C571 C577 1.416 . S
C572 C565 1.424 . S
C572 C571 1.413 . S
C572 N576 1.361 . S
C573 C571 1.427 . S
C573 C574 1.328 . S
C573 H588 0.929 . S
C574 C568 1.448 . S
C574 C573 1.328 . S
C574 H589 0.930 . S
Tb575 N566 2.617 . S
Tb575 N576 2.572 . S
Tb575 O610 2.349 1_565 S
Tb575 O613 2.393 . S
Tb575 O614 2.465 . S
Tb575 O615 2.387 . S
Tb575 O617 2.428 . S
Tb575 O618 2.308 1_565 S
Tb575 C639 2.802 . S
N576 C572 1.361 . S
N576 Tb575 2.572 . S
N576 C578 1.340 . S
C577 C571 1.416 . S
C577 C579 1.332 . S
C577 H585 0.931 . S
C578 N576 1.340 . S
C578 C579 1.407 . S
C578 H584 0.930 . S
C579 C577 1.332 . S
C579 C578 1.407 . S
C579 H581 0.929 . S
H580 C569 0.930 . S
H581 C579 0.929 . S
H582 C597 0.930 . S
H583 C604 0.929 . S
H584 C578 0.930 . S
H585 C577 0.931 . S
H586 C600 0.930 . S
H587 C567 0.930 . S
H588 C573 0.929 . S
H589 C574 0.930 . S
H590 C595 0.930 . S
H591 C570 0.930 . S
H592 C603 0.931 . S
N593 Tb564 2.617 . S
N593 C594 1.379 . S
N593 C597 1.334 . S
C594 N593 1.379 . S
C594 C596 1.416 . S
C594 C602 1.424 . S
C595 H590 0.930 . S
C595 C597 1.390 . S
C595 C598 1.339 . S
C596 C594 1.416 . S
C596 C598 1.416 . S
C596 C629 1.448 . S
C597 H582 0.930 . S
C597 N593 1.334 . S
C597 C595 1.390 . S
C598 C595 1.339 . S
C598 C596 1.416 . S
C598 H605 0.930 . S
N599 Tb564 2.572 . S
N599 C600 1.340 . S
N599 C602 1.361 . S
C600 H586 0.930 . S
C600 N599 1.340 . S
C600 C604 1.407 . S
C601 C602 1.413 . S
C601 C603 1.416 . S
C601 C630 1.427 . S
C602 C594 1.424 . S
C602 N599 1.361 . S
C602 C601 1.413 . S
C603 H592 0.931 . S
C603 C601 1.416 . S
C603 C604 1.332 . S
C604 H583 0.929 . S
C604 C600 1.407 . S
C604 C603 1.332 . S
H605 C598 0.930 . S
H606 C629 0.930 . S
H607 C630 0.929 . S
O608 Tb564 2.465 . S
O608 C628 1.264 . S
O609 Tb564 2.387 . S
O609 C620 1.264 . S
O610 Tb575 2.349 1_545 S
O610 C620 1.243 . S
O611 Tb564 2.428 . S
O611 C628 1.256 . S
O612 Tb564 2.308 . S
O612 C627 1.266 1_545 S
O613 Tb575 2.393 . S
O613 C627 1.248 . S
O614 Tb575 2.465 . S
O614 C639 1.264 . S
O615 Tb575 2.387 . S
O615 C631 1.264 . S
O616 Tb564 2.349 1_565 S
O616 C631 1.243 . S
O617 Tb575 2.428 . S
O617 C639 1.256 . S
O618 Tb575 2.308 1_545 S
O618 C638 1.266 . S
O619 Tb564 2.393 . S
O619 C638 1.248 . S
C620 O609 1.264 . S
C620 O610 1.243 . S
C621 C624 1.399 1_556 S
C621 C626 1.383 . S
C621 C628 1.496 . S
C622 C623 1.399 1_556 S
C622 C626 1.389 . S
C623 C622 1.399 1_554 S
C623 C625 1.380 . S
C623 H640 0.929 . S
C624 C621 1.399 1_554 S
C624 C625 1.392 . S
C624 H641 0.929 . S
C625 C623 1.380 . S
C625 C624 1.392 . S
C625 H642 0.929 . S
C626 C621 1.383 . S
C626 C622 1.389 . S
C626 H643 0.931 . S
C627 O612 1.266 1_565 S
C627 O613 1.248 . S
C628 Tb564 2.802 . S
C628 O608 1.264 . S
C628 O611 1.256 . S
C628 C621 1.496 . S
C629 C596 1.448 . S
C629 H606 0.930 . S
C629 C630 1.328 . S
C630 C601 1.427 . S
C630 H607 0.929 . S
C630 C629 1.328 . S
C631 O615 1.264 . S
C631 O616 1.243 . S
C632 C635 1.399 . S
C632 C636 1.383 . S
C632 C639 1.496 . S
C633 C634 1.399 . S
C633 C636 1.389 . S
C634 C633 1.399 . S
C634 C637 1.380 . S
C634 H644 0.929 . S
C635 C632 1.399 . S
C635 C637 1.392 . S
C635 H645 0.929 . S
C636 C632 1.383 . S
C636 C633 1.389 . S
C636 H646 0.931 . S
C637 C634 1.380 . S
C637 C635 1.392 . S
C637 H647 0.929 . S
C638 O618 1.266 . S
C638 O619 1.248 . S
C639 Tb575 2.802 . S
C639 O614 1.264 . S
C639 O617 1.256 . S
C639 C632 1.496 . S
H640 C623 0.929 . S
H641 C624 0.929 . S
H642 C625 0.929 . S
H643 C626 0.931 . S
H644 C634 0.929 . S
H645 C635 0.929 . S
H646 C636 0.931 . S
H647 C637 0.929 . S
Tb648 N677 2.617 . S
Tb648 N683 2.572 . S
Tb648 O692 2.465 . S
Tb648 O693 2.387 . S
Tb648 O695 2.428 . S
Tb648 O696 2.308 . S
Tb648 O700 2.349 . S
Tb648 O703 2.393 . S
Tb648 C712 2.802 . S
C649 N650 1.379 . S
C649 C652 1.416 . S
C649 C656 1.424 . S
N650 C649 1.379 . S
N650 C653 1.334 . S
N650 Tb659 2.617 . S
C651 C653 1.390 . S
C651 C654 1.339 . S
C651 H671 0.930 . S
C652 C649 1.416 . S
C652 C654 1.416 . S
C652 C658 1.448 . S
C653 N650 1.334 . S
C653 C651 1.390 . S
C653 H664 0.930 . S
C654 C651 1.339 . S
C654 C652 1.416 . S
C654 H675 0.930 . S
C655 C656 1.413 . S
C655 C657 1.427 1_556 S
C655 C661 1.416 1_556 S
C656 C649 1.424 . S
C656 C655 1.413 . S
C656 N660 1.361 . S
C657 C655 1.427 1_554 S
C657 C658 1.328 1_554 S
C657 H672 0.929 . S
C658 C652 1.448 . S
C658 C657 1.328 1_556 S
C658 H673 0.930 . S
Tb659 N650 2.617 . S
Tb659 N660 2.572 . S
Tb659 O694 2.349 . S
Tb659 O697 2.393 . S
Tb659 O698 2.465 . S
Tb659 O699 2.387 . S
Tb659 O701 2.428 . S
Tb659 O702 2.308 . S
Tb659 C723 2.802 . S
N660 C656 1.361 . S
N660 Tb659 2.572 . S
N660 C662 1.340 . S
C661 C655 1.416 1_554 S
C661 C663 1.332 . S
C661 H669 0.931 . S
C662 N660 1.340 . S
C662 C663 1.407 1_556 S
C662 H668 0.930 . S
C663 C661 1.332 . S
C663 C662 1.407 1_554 S
C663 H665 0.929 . S
H664 C653 0.930 . S
H665 C663 0.929 . S
H666 C681 0.930 . S
H667 C688 0.929 . S
H668 C662 0.930 . S
H669 C661 0.931 . S
H670 C684 0.930 . S
H671 C651 0.930 . S
H672 C657 0.929 . S
H673 C658 0.930 . S
H674 C679 0.930 . S
H675 C654 0.930 . S
H676 C687 0.931 . S
N677 Tb648 2.617 . S
N677 C678 1.379 . S
N677 C681 1.334 . S
C678 N677 1.379 . S
C678 C680 1.416 . S
C678 C686 1.424 . S
C679 H674 0.930 . S
C679 C681 1.390 . S
C679 C682 1.339 . S
C680 C678 1.416 . S
C680 C682 1.416 . S
C680 C713 1.448 . S
C681 H666 0.930 . S
C681 N677 1.334 . S
C681 C679 1.390 . S
C682 C679 1.339 . S
C682 C680 1.416 . S
C682 H689 0.930 . S
N683 Tb648 2.572 . S
N683 C684 1.340 . S
N683 C686 1.361 . S
C684 H670 0.930 . S
C684 N683 1.340 . S
C684 C688 1.407 . S
C685 C686 1.413 . S
C685 C687 1.416 . S
C685 C714 1.427 . S
C686 C678 1.424 . S
C686 N683 1.361 . S
C686 C685 1.413 . S
C687 H676 0.931 . S
C687 C685 1.416 . S
C687 C688 1.332 . S
C688 H667 0.929 . S
C688 C684 1.407 . S
C688 C687 1.332 . S
H689 C682 0.930 . S
H690 C713 0.930 . S
H691 C714 0.929 . S
O692 Tb648 2.465 . S
O692 C712 1.264 . S
O693 Tb648 2.387 . S
O693 C704 1.264 . S
O694 Tb659 2.349 . S
O694 C704 1.243 . S
O695 Tb648 2.428 . S
O695 C712 1.256 . S
O696 Tb648 2.308 . S
O696 C711 1.266 . S
O697 Tb659 2.393 . S
O697 C711 1.248 . S
O698 Tb659 2.465 . S
O698 C723 1.264 . S
O699 Tb659 2.387 . S
O699 C715 1.264 . S
O700 Tb648 2.349 . S
O700 C715 1.243 . S
O701 Tb659 2.428 . S
O701 C723 1.256 . S
O702 Tb659 2.308 . S
O702 C722 1.266 . S
O703 Tb648 2.393 . S
O703 C722 1.248 . S
C704 O693 1.264 . S
C704 O694 1.243 . S
C705 C708 1.399 . S
C705 C710 1.383 . S
C705 C712 1.496 . S
C706 C707 1.399 . S
C706 C710 1.389 . S
C707 C706 1.399 . S
C707 C709 1.380 . S
C707 H724 0.929 . S
C708 C705 1.399 . S
C708 C709 1.392 . S
C708 H725 0.929 . S
C709 C707 1.380 . S
C709 C708 1.392 . S
C709 H726 0.929 . S
C710 C705 1.383 . S
C710 C706 1.389 . S
C710 H727 0.931 . S
C711 O696 1.266 . S
C711 O697 1.248 . S
C712 Tb648 2.802 . S
C712 O692 1.264 . S
C712 O695 1.256 . S
C712 C705 1.496 . S
C713 C680 1.448 . S
C713 H690 0.930 . S
C713 C714 1.328 . S
C714 C685 1.427 . S
C714 H691 0.929 . S
C714 C713 1.328 . S
C715 O699 1.264 . S
C715 O700 1.243 . S
C716 C719 1.399 . S
C716 C720 1.383 . S
C716 C723 1.496 . S
C717 C718 1.399 . S
C717 C720 1.389 . S
C718 C717 1.399 . S
C718 C721 1.380 . S
C718 H728 0.929 . S
C719 C716 1.399 . S
C719 C721 1.392 . S
C719 H729 0.929 . S
C720 C716 1.383 . S
C720 C717 1.389 . S
C720 H730 0.931 . S
C721 C718 1.380 . S
C721 C719 1.392 . S
C721 H731 0.929 . S
C722 O702 1.266 . S
C722 O703 1.248 . S
C723 Tb659 2.802 . S
C723 O698 1.264 . S
C723 O701 1.256 . S
C723 C716 1.496 . S
H724 C707 0.929 . S
H725 C708 0.929 . S
H726 C709 0.929 . S
H727 C710 0.931 . S
H728 C718 0.929 . S
H729 C719 0.929 . S
H730 C720 0.931 . S
H731 C721 0.929 . S
Tb732 N761 2.617 . S
Tb732 N767 2.572 . S
Tb732 O776 2.465 . S
Tb732 O777 2.387 1_455 S
Tb732 O779 2.428 . S
Tb732 O780 2.308 . S
Tb732 O784 2.349 . S
Tb732 O787 2.393 . S
Tb732 C796 2.802 . S
C733 N734 1.379 1_455 S
C733 C736 1.416 . S
C733 C740 1.424 . S
N734 C733 1.379 1_655 S
N734 C737 1.334 . S
N734 Tb743 2.617 . S
C735 C737 1.390 1_455 S
C735 C738 1.339 . S
C735 H755 0.930 . S
C736 C733 1.416 . S
C736 C738 1.416 . S
C736 C742 1.448 . S
C737 N734 1.334 . S
C737 C735 1.390 1_655 S
C737 H748 0.930 . S
C738 C735 1.339 . S
C738 C736 1.416 . S
C738 H759 0.930 . S
C739 C740 1.413 . S
C739 C741 1.427 1_556 S
C739 C745 1.416 1_556 S
C740 C733 1.424 . S
C740 C739 1.413 . S
C740 N744 1.361 . S
C741 C739 1.427 1_554 S
C741 C742 1.328 1_554 S
C741 H756 0.929 . S
C742 C736 1.448 . S
C742 C741 1.328 1_556 S
C742 H757 0.930 . S
Tb743 N734 2.617 . S
Tb743 N744 2.572 1_655 S
Tb743 O778 2.349 . S
Tb743 O781 2.393 . S
Tb743 O782 2.465 . S
Tb743 O783 2.387 1_655 S
Tb743 O785 2.428 . S
Tb743 O786 2.308 . S
Tb743 C807 2.802 . S
N744 C740 1.361 . S
N744 Tb743 2.572 1_455 S
N744 C746 1.340 . S
C745 C739 1.416 1_554 S
C745 C747 1.332 . S
C745 H753 0.931 . S
C746 N744 1.340 . S
C746 C747 1.407 1_556 S
C746 H752 0.928 1_455 S
C747 C745 1.332 . S
C747 C746 1.407 1_554 S
C747 H749 0.929 . S
H748 C737 0.930 . S
H749 C747 0.929 . S
H750 C765 0.930 . S
H751 C772 0.929 . S
H752 C746 0.928 1_655 S
H753 C745 0.931 . S
H754 C768 0.930 . S
H755 C735 0.930 . S
H756 C741 0.929 . S
H757 C742 0.930 . S
H758 C763 0.930 . S
H759 C738 0.930 . S
H760 C771 0.931 . S
N761 Tb732 2.617 . S
N761 C762 1.366 1_455 S
N761 C765 1.334 . S
C762 N761 1.366 1_655 S
C762 C764 1.427 . S
C762 C770 1.427 . S
C763 H758 0.930 . S
C763 C765 1.390 . S
C763 C766 1.339 1_455 S
C764 C762 1.427 . S
C764 C766 1.416 . S
C764 C797 1.448 . S
C765 H750 0.930 . S
C765 N761 1.334 . S
C765 C763 1.390 . S
C766 C763 1.339 1_655 S
C766 C764 1.416 . S
C766 H773 0.930 . S
N767 Tb732 2.572 . S
N767 C768 1.340 . S
N767 C770 1.361 1_455 S
C768 H754 0.930 . S
C768 N767 1.340 . S
C768 C772 1.407 1_455 S
C769 C770 1.413 . S
C769 C771 1.416 . S
C769 C798 1.427 . S
C770 C762 1.427 . S
C770 N767 1.361 1_655 S
C770 C769 1.413 . S
C771 H760 0.931 . S
C771 C769 1.416 . S
C771 C772 1.332 . S
C772 H751 0.929 . S
C772 C768 1.407 1_655 S
C772 C771 1.332 . S
H773 C766 0.930 . S
H774 C797 0.930 . S
H775 C798 0.929 . S
O776 Tb732 2.465 . S
O776 C796 1.264 . S
O777 Tb732 2.387 1_655 S
O777 C788 1.264 . S
O778 Tb743 2.349 . S
O778 C788 1.243 . S
O779 Tb732 2.428 . S
O779 C796 1.256 . S
O780 Tb732 2.308 . S
O780 C795 1.266 . S
O781 Tb743 2.393 . S
O781 C795 1.248 1_655 S
O782 Tb743 2.465 . S
O782 C807 1.264 . S
O783 Tb743 2.387 1_455 S
O783 C799 1.264 . S
O784 Tb732 2.349 . S
O784 C799 1.243 . S
O785 Tb743 2.428 . S
O785 C807 1.256 . S
O786 Tb743 2.308 . S
O786 C806 1.266 1_655 S
O787 Tb732 2.393 . S
O787 C806 1.248 . S
C788 O777 1.264 . S
C788 O778 1.243 . S
C789 C792 1.399 . S
C789 C794 1.383 . S
C789 C796 1.496 . S
C790 C791 1.399 . S
C790 C794 1.389 . S
C791 C790 1.399 . S
C791 C793 1.380 . S
C791 H808 0.929 . S
C792 C789 1.399 . S
C792 C793 1.392 . S
C792 H809 0.929 . S
C793 C791 1.380 . S
C793 C792 1.392 . S
C793 H810 0.929 . S
C794 C789 1.383 . S
C794 C790 1.389 . S
C794 H811 0.931 . S
C795 O780 1.266 . S
C795 O781 1.248 1_455 S
C796 Tb732 2.802 . S
C796 O776 1.264 . S
C796 O779 1.256 . S
C796 C789 1.496 . S
C797 C764 1.448 . S
C797 H774 0.930 . S
C797 C798 1.328 . S
C798 C769 1.427 . S
C798 H775 0.929 . S
C798 C797 1.328 . S
C799 O783 1.264 . S
C799 O784 1.243 . S
C800 C803 1.399 . S
C800 C804 1.383 . S
C800 C807 1.496 . S
C801 C802 1.399 . S
C801 C804 1.389 . S
C802 C801 1.399 . S
C802 C805 1.380 . S
C802 H812 0.929 . S
C803 C800 1.399 . S
C803 C805 1.392 . S
C803 H813 0.929 . S
C804 C800 1.383 . S
C804 C801 1.389 . S
C804 H814 0.931 . S
C805 C802 1.380 . S
C805 C803 1.392 . S
C805 H815 0.929 . S
C806 O786 1.266 1_455 S
C806 O787 1.248 . S
C807 Tb743 2.802 . S
C807 O782 1.264 . S
C807 O785 1.256 . S
C807 C800 1.496 . S
H808 C791 0.929 . S
H809 C792 0.929 . S
H810 C793 0.929 . S
H811 C794 0.931 . S
H812 C802 0.929 . S
H813 C803 0.929 . S
H814 C804 0.931 . S
H815 C805 0.929 . S
C816 C817 1.387 . S
C816 H820 0.950 1_545 S
C816 C825 1.390 . S
C817 C816 1.387 . S
C817 C819 1.387 . S
H818 C825 0.950 1_565 S
C819 C817 1.387 . S
C819 C821 1.390 . S
C819 H823 0.950 . S
H820 C816 0.950 1_565 S
C821 C819 1.390 . S
C821 C822 1.387 . S
C821 H824 0.950 . S
C822 C821 1.387 . S
C822 C825 1.387 . S
H823 C819 0.950 . S
H824 C821 0.950 . S
C825 C816 1.390 . S
C825 H818 0.950 1_545 S
C825 C822 1.387 . S
C826 C827 1.387 . S
C826 H830 0.950 . S
C826 C835 1.390 . S
C827 C826 1.387 . S
C827 C829 1.387 . S
H828 C835 0.950 . S
C829 C827 1.387 . S
C829 C831 1.390 . S
C829 H833 0.950 . S
H830 C826 0.950 . S
C831 C829 1.390 . S
C831 C832 1.387 . S
C831 H834 0.950 . S
C832 C831 1.387 . S
C832 C835 1.387 . S
H833 C829 0.950 . S
H834 C831 0.950 . S
C835 C826 1.390 . S
C835 H828 0.950 . S
C835 C832 1.387 . S
C836 C837 1.387 . S
C836 H840 0.950 . S
C836 C845 1.390 . S
C837 C836 1.387 . S
C837 C839 1.387 . S
H838 C845 0.950 . S
C839 C837 1.387 . S
C839 C841 1.390 . S
C839 H843 0.950 . S
H840 C836 0.950 . S
C841 C839 1.390 . S
C841 C842 1.387 . S
C841 H844 0.950 . S
C842 C841 1.387 . S
C842 C845 1.387 . S
H843 C839 0.950 . S
H844 C841 0.950 . S
C845 C836 1.390 . S
C845 H838 0.950 . S
C845 C842 1.387 . S
C846 C847 1.387 . S
C846 H850 0.950 . S
C846 C855 1.390 . S
C847 C846 1.387 . S
C847 C849 1.387 . S
H848 C855 0.950 . S
C849 C847 1.387 . S
C849 C851 1.390 . S
C849 H853 0.950 . S
H850 C846 0.950 . S
C851 C849 1.390 . S
C851 C852 1.387 . S
C851 H854 0.950 . S
C852 C851 1.387 . S
C852 C855 1.387 . S
H853 C849 0.950 . S
H854 C851 0.950 . S
C855 C846 1.390 . S
C855 H848 0.950 . S
C855 C852 1.387 . S
C856 C857 1.387 . S
C856 H860 0.950 . S
C856 C865 1.390 1_554 S
C857 C856 1.387 . S
C857 C859 1.387 . S
H858 C865 0.950 . S
C859 C857 1.387 . S
C859 C861 1.390 1_554 S
C859 H863 0.950 . S
H860 C856 0.950 . S
C861 C859 1.390 1_556 S
C861 C862 1.387 . S
C861 H864 0.950 . S
C862 C861 1.387 . S
C862 C865 1.387 . S
H863 C859 0.950 . S
H864 C861 0.950 . S
C865 C856 1.390 1_556 S
C865 H858 0.950 . S
C865 C862 1.387 . S
C866 C867 1.387 . S
C866 H870 0.950 . S
C866 C875 1.390 1_554 S
C867 C866 1.387 . S
C867 C869 1.387 . S
H868 C875 0.950 . S
C869 C867 1.387 . S
C869 C871 1.390 1_554 S
C869 H873 0.950 . S
H870 C866 0.950 . S
C871 C869 1.390 1_556 S
C871 C872 1.387 . S
C871 H874 0.950 . S
C872 C871 1.387 . S
C872 C875 1.387 . S
H873 C869 0.950 . S
H874 C871 0.950 . S
C875 C866 1.390 1_556 S
C875 H868 0.950 . S
C875 C872 1.387 . S
C876 C877 1.387 . S
C876 H880 0.950 . S
C876 C885 1.390 1_554 S
C877 C876 1.387 . S
C877 C879 1.387 . S
H878 C885 0.950 . S
C879 C877 1.387 . S
C879 C881 1.390 1_554 S
C879 H883 0.950 . S
H880 C876 0.950 . S
C881 C879 1.390 1_556 S
C881 C882 1.387 . S
C881 H884 0.950 . S
C882 C881 1.387 . S
C882 C885 1.387 . S
H883 C879 0.950 . S
H884 C881 0.950 . S
C885 C876 1.390 1_556 S
C885 H878 0.950 . S
C885 C882 1.387 . S
C886 C887 1.387 . S
C886 H890 0.950 1_655 S
C886 C895 1.394 1_554 S
C887 C886 1.387 . S
C887 C889 1.387 . S
H888 C895 0.939 1_455 S
C889 C887 1.387 . S
C889 C891 1.390 1_554 S
C889 H893 0.950 . S
H890 C886 0.950 1_455 S
C891 C889 1.390 1_556 S
C891 C892 1.387 . S
C891 H894 0.950 . S
C892 C891 1.387 . S
C892 C895 1.395 . S
H893 C889 0.950 . S
H894 C891 0.950 . S
C895 C886 1.394 1_556 S
C895 H888 0.939 1_655 S
C895 C892 1.395 . S
C896 C897 1.387 . S
C896 H900 0.950 . S
C896 C905 1.390 . S
C897 C896 1.387 . S
C897 C899 1.387 . S
H898 C905 0.950 . S
C899 C897 1.387 . S
C899 C901 1.390 1_455 S
C899 H903 0.950 . S
H900 C896 0.950 . S
C901 C899 1.390 1_655 S
C901 C902 1.387 . S
C901 H904 0.950 . S
C902 C901 1.387 . S
C902 C905 1.387 1_655 S
H903 C899 0.950 . S
H904 C901 0.950 . S
C905 C896 1.390 . S
C905 H898 0.950 . S
C905 C902 1.387 1_455 S
C906 C907 1.387 . S
C906 H910 0.950 . S
C906 C915 1.390 1_545 S
C907 C906 1.387 . S
C907 C909 1.387 . S
H908 C915 0.950 . S
C909 C907 1.387 . S
C909 C911 1.390 . S
C909 H913 0.950 . S
H910 C906 0.950 . S
C911 C909 1.390 . S
C911 C912 1.387 1_545 S
C911 H914 0.950 . S
C912 C911 1.387 1_565 S
C912 C915 1.387 . S
H913 C909 0.950 . S
H914 C911 0.950 . S
C915 C906 1.390 1_565 S
C915 H908 0.950 . S
C915 C912 1.387 . S
C916 C917 1.387 . S
C916 H920 0.950 . S
C916 C925 1.390 . S
C917 C916 1.387 . S
C917 C919 1.387 . S
H918 C925 0.950 . S
C919 C917 1.387 . S
C919 C921 1.390 . S
C919 H923 0.950 . S
H920 C916 0.950 . S
C921 C919 1.390 . S
C921 C922 1.387 . S
C921 H924 0.950 . S
C922 C921 1.387 . S
C922 C925 1.387 . S
H923 C919 0.950 . S
H924 C921 0.950 . S
C925 C916 1.390 . S
C925 H918 0.950 . S
C925 C922 1.387 . S
C926 C927 1.387 . S
C926 H930 0.950 . S
C926 C935 1.390 . S
C927 C926 1.387 . S
C927 C929 1.387 . S
H928 C935 0.950 . S
C929 C927 1.387 . S
C929 C931 1.390 . S
C929 H933 0.950 . S
H930 C926 0.950 . S
C931 C929 1.390 . S
C931 C932 1.387 . S
C931 H934 0.950 . S
C932 C931 1.387 . S
C932 C935 1.387 . S
H933 C929 0.950 . S
H934 C931 0.950 . S
C935 C926 1.390 . S
C935 H928 0.950 . S
C935 C932 1.387 . S
C936 C937 1.387 1_556 S
C936 H940 0.950 . S
C936 C945 1.390 1_655 S
C937 C936 1.387 1_554 S
C937 C939 1.387 . S
H938 C945 0.950 . S
C939 C937 1.387 . S
C939 C941 1.390 . S
C939 H943 0.950 . S
H940 C936 0.950 . S
C941 C939 1.390 . S
C941 C942 1.387 1_654 S
C941 H944 0.950 . S
C942 C941 1.387 1_456 S
C942 C945 1.387 . S
H943 C939 0.950 . S
H944 C941 0.950 . S
C945 C936 1.390 1_455 S
C945 H938 0.950 . S
C945 C942 1.387 . S
C946 C947 1.387 1_556 S
C946 H950 0.950 . S
C946 C955 1.390 1_565 S
C947 C946 1.387 1_554 S
C947 C949 1.387 . S
H948 C955 0.950 . S
C949 C947 1.387 . S
C949 C951 1.390 1_565 S
C949 H953 0.950 . S
H950 C946 0.950 . S
C951 C949 1.390 1_545 S
C951 C952 1.387 1_554 S
C951 H954 0.950 . S
C952 C951 1.387 1_556 S
C952 C955 1.387 . S
H953 C949 0.950 . S
H954 C951 0.950 . S
C955 C946 1.390 1_545 S
C955 H948 0.950 . S
C955 C952 1.387 . S
C956 C957 1.387 1_556 S
C956 H960 0.950 . S
C956 C965 1.390 . S
C957 C956 1.387 1_554 S
C957 C959 1.387 . S
H958 C965 0.950 . S
C959 C957 1.387 . S
C959 C961 1.390 . S
C959 H963 0.950 . S
H960 C956 0.950 . S
C961 C959 1.390 . S
C961 C962 1.387 1_554 S
C961 H964 0.950 . S
C962 C961 1.387 1_556 S
C962 C965 1.387 . S
H963 C959 0.950 . S
H964 C961 0.950 . S
C965 C956 1.390 . S
C965 H958 0.950 . S
C965 C962 1.387 . S
C966 C967 1.387 1_556 S
C966 H970 0.950 . S
C966 C975 1.390 . S
C967 C966 1.387 1_554 S
C967 C969 1.387 . S
H968 C975 0.950 . S
C969 C967 1.387 . S
C969 C971 1.390 . S
C969 H973 0.950 . S
H970 C966 0.950 . S
C971 C969 1.390 . S
C971 C972 1.387 1_554 S
C971 H974 0.950 . S
C972 C971 1.387 1_556 S
C972 C975 1.387 . S
H973 C969 0.950 . S
H974 C971 0.950 . S
C975 C966 1.390 . S
C975 H968 0.950 . S
C975 C972 1.387 . S
C976 C977 1.387 . S
C976 H980 0.950 . S
C976 C985 1.390 . S
C977 C976 1.387 . S
C977 C979 1.387 . S
H978 C985 0.950 . S
C979 C977 1.387 . S
C979 C981 1.390 . S
C979 H983 0.950 . S
H980 C976 0.950 . S
C981 C979 1.390 . S
C981 C982 1.387 . S
C981 H984 0.950 . S
C982 C981 1.387 . S
C982 C985 1.387 . S
H983 C979 0.950 . S
H984 C981 0.950 . S
C985 C976 1.390 . S
C985 H978 0.950 . S
C985 C982 1.387 . S
C986 C987 1.387 . S
C986 H990 0.950 . S
C986 C995 1.390 . S
C987 C986 1.387 . S
C987 C989 1.387 . S
H988 C995 0.950 . S
C989 C987 1.387 . S
C989 C991 1.390 . S
C989 H993 0.950 . S
H990 C986 0.950 . S
C991 C989 1.390 . S
C991 C992 1.387 . S
C991 H994 0.947 1_545 S
C992 C991 1.387 . S
C992 C995 1.387 . S
H993 C989 0.950 . S
H994 C991 0.947 1_565 S
C995 C986 1.390 . S
C995 H988 0.950 . S
C995 C992 1.387 . S
C996 C997 1.387 . S
C996 H1000 0.950 . S
C996 C1005 1.390 . S
C997 C996 1.387 . S
C997 C999 1.387 . S
H998 C1005 0.950 . S
C999 C997 1.387 . S
C999 C1001 1.390 . S
C999 H1003 0.950 . S
H1000 C996 0.950 . S
C1001 C999 1.390 . S
C1001 C1002 1.387 . S
C1001 H1004 0.950 . S
C1002 C1001 1.387 . S
C1002 C1005 1.387 . S
H1003 C999 0.950 . S
H1004 C1001 0.950 . S
C1005 C996 1.390 . S
C1005 H998 0.950 . S
C1005 C1002 1.387 . S
C1006 C1007 1.387 . S
C1006 H1010 0.950 . S
C1006 C1015 1.390 . S
C1007 C1006 1.387 . S
C1007 C1009 1.387 . S
H1008 C1015 0.950 . S
C1009 C1007 1.387 . S
C1009 C1011 1.390 . S
C1009 H1013 0.950 . S
H1010 C1006 0.950 . S
C1011 C1009 1.390 . S
C1011 C1012 1.387 . S
C1011 H1014 0.950 . S
C1012 C1011 1.387 . S
C1012 C1015 1.387 . S
H1013 C1009 0.950 . S
H1014 C1011 0.950 . S
C1015 C1006 1.390 . S
C1015 H1008 0.950 . S
C1015 C1012 1.387 . S
C1016 C1017 1.387 . S
C1016 H1020 0.950 . S
C1016 C1025 1.390 . S
C1017 C1016 1.387 . S
C1017 C1019 1.387 . S
H1018 C1025 0.950 . S
C1019 C1017 1.387 . S
C1019 C1021 1.390 . S
C1019 H1023 0.950 . S
H1020 C1016 0.950 . S
C1021 C1019 1.390 . S
C1021 C1022 1.387 . S
C1021 H1024 0.950 . S
C1022 C1021 1.387 . S
C1022 C1025 1.387 . S
H1023 C1019 0.950 . S
H1024 C1021 0.950 . S
C1025 C1016 1.390 . S
C1025 H1018 0.950 . S
C1025 C1022 1.387 . S
C1026 C1027 1.387 . S
C1026 H1030 0.950 . S
C1026 C1035 1.390 . S
C1027 C1026 1.387 . S
C1027 C1029 1.387 1_565 S
H1028 C1035 0.950 . S
C1029 C1027 1.387 1_545 S
C1029 C1031 1.390 . S
C1029 H1033 0.950 . S
H1030 C1026 0.950 . S
C1031 C1029 1.390 . S
C1031 C1032 1.387 1_545 S
C1031 H1034 0.950 . S
C1032 C1031 1.387 1_565 S
C1032 C1035 1.387 . S
H1033 C1029 0.950 . S
H1034 C1031 0.950 . S
C1035 C1026 1.390 . S
C1035 H1028 0.950 . S
C1035 C1032 1.387 . S
C1036 C1037 1.387 . S
C1036 H1040 0.950 . S
C1036 C1045 1.390 . S
C1037 C1036 1.387 . S
C1037 C1039 1.387 . S
H1038 C1045 0.950 . S
C1039 C1037 1.387 . S
C1039 C1041 1.390 . S
C1039 H1043 0.950 . S
H1040 C1036 0.950 . S
C1041 C1039 1.390 . S
C1041 C1042 1.387 . S
C1041 H1044 0.950 . S
C1042 C1041 1.387 . S
C1042 C1045 1.387 . S
H1043 C1039 0.950 . S
H1044 C1041 0.950 . S
C1045 C1036 1.390 . S
C1045 H1038 0.950 . S
C1045 C1042 1.387 . S
C1046 C1047 1.387 . S
C1046 H1050 0.950 . S
C1046 C1055 1.390 . S
C1047 C1046 1.387 . S
C1047 C1049 1.387 . S
H1048 C1055 0.950 . S
C1049 C1047 1.387 . S
C1049 C1051 1.390 . S
C1049 H1053 0.950 . S
H1050 C1046 0.950 . S
C1051 C1049 1.390 . S
C1051 C1052 1.387 . S
C1051 H1054 0.950 . S
C1052 C1051 1.387 . S
C1052 C1055 1.387 . S
H1053 C1049 0.950 . S
H1054 C1051 0.950 . S
C1055 C1046 1.390 . S
C1055 H1048 0.950 . S
C1055 C1052 1.387 . S
C817 C391 2.754 . S
C822 C543 2.849 . S
C832 C620 2.840 . S
C827 C451 2.763 . S
C842 C711 2.856 . S
C837 C241 2.357 . S
C852 C795 2.833 . S
C847 C331 2.337 . S
C862 C554 2.848 1_565 S
C857 C121 2.390 . S
C867 C211 2.728 . S
C872 C631 2.840 . S
C877 C31 2.726 . S
C882 C722 2.854 . S
C887 C91 2.374 . S
C892 C806 2.832 1_655 S
C902 C538 0.776 . S
C897 C301 0.757 . S
C912 C633 0.762 . S
C907 C380 0.766 . S
C922 C706 0.795 . S
C917 C440 0.794 . S
C927 C260 0.763 . S
C932 C790 0.769 . S
C937 C61 0.765 . S
C942 C549 0.775 . S
C952 C622 0.763 . S
C947 C140 0.762 . S
C962 C717 0.798 . S
C957 C200 0.776 . S
C967 C20 0.757 . S
C972 C801 0.770 . S
C977 C320 3.071 . S
C982 C547 3.305 . S
C987 C361 2.683 . S
C992 C638 3.411 . S
C1002 C715 3.327 . S
C997 C421 2.698 . S
C1012 C799 3.328 . S
C1007 C271 3.094 . S
C1017 C80 3.090 . S
C1022 C536 3.307 . S
C1032 C627 3.411 . S
C1027 C151 3.093 . S
C1042 C704 3.326 . S
C1037 C181 2.672 . S
C1047 C1 2.679 . S
C1052 C788 3.328 . S
