# Generated by pormake.
# Topology zzz, (3,6)-cn, num edge types: 1
# Building blocks:
#     Node 0, Type 0, BuildingBlock: ESEHIV_clean_linker_0, # of connection points: 3
#     Node 1, Type 0, BuildingBlock: ESEHIV_clean_linker_0, # of connection points: 3
#     Node 2, Type 0, BuildingBlock: ESEHIV_clean_linker_0, # of connection points: 3
#     Node 3, Type 0, BuildingBlock: ESEHIV_clean_linker_0, # of connection points: 3
#     Node 4, Type 0, BuildingBlock: ESEHIV_clean_linker_0, # of connection points: 3
#     Node 5, Type 0, BuildingBlock: ESEHIV_clean_linker_0, # of connection points: 3
#     Node 6, Type 0, BuildingBlock: ESEHIV_clean_linker_0, # of connection points: 3
#     Node 7, Type 0, BuildingBlock: ESEHIV_clean_linker_0, # of connection points: 3
#     Node 8, Type 1, BuildingBlock: KUMBOL_clean_sbu_0, # of connection points: 6
#     Node 9, Type 1, BuildingBlock: KUMBOL_clean_sbu_0, # of connection points: 6
#     Node 10, Type 1, BuildingBlock: KUMBOL_clean_sbu_0, # of connection points: 6
#     Node 11, Type 1, BuildingBlock: KUMBOL_clean_sbu_0, # of connection points: 6
#     Edge 12, Type (0, 1), BuildingBlock: UVAHIK_clean_linker_0, # of connection points: 2
#     Edge 13, Type (0, 1), BuildingBlock: UVAHIK_clean_linker_0, # of connection points: 2
#     Edge 14, Type (0, 1), BuildingBlock: UVAHIK_clean_linker_0, # of connection points: 2
#     Edge 15, Type (0, 1), BuildingBlock: UVAHIK_clean_linker_0, # of connection points: 2
#     Edge 16, Type (0, 1), BuildingBlock: UVAHIK_clean_linker_0, # of connection points: 2
#     Edge 17, Type (0, 1), BuildingBlock: UVAHIK_clean_linker_0, # of connection points: 2
#     Edge 18, Type (0, 1), BuildingBlock: UVAHIK_clean_linker_0, # of connection points: 2
#     Edge 19, Type (0, 1), BuildingBlock: UVAHIK_clean_linker_0, # of connection points: 2
#     Edge 20, Type (0, 1), BuildingBlock: UVAHIK_clean_linker_0, # of connection points: 2
#     Edge 21, Type (0, 1), BuildingBlock: UVAHIK_clean_linker_0, # of connection points: 2
#     Edge 22, Type (0, 1), BuildingBlock: UVAHIK_clean_linker_0, # of connection points: 2
#     Edge 23, Type (0, 1), BuildingBlock: UVAHIK_clean_linker_0, # of connection points: 2
#     Edge 24, Type (0, 1), BuildingBlock: UVAHIK_clean_linker_0, # of connection points: 2
#     Edge 25, Type (0, 1), BuildingBlock: UVAHIK_clean_linker_0, # of connection points: 2
#     Edge 26, Type (0, 1), BuildingBlock: UVAHIK_clean_linker_0, # of connection points: 2
#     Edge 27, Type (0, 1), BuildingBlock: UVAHIK_clean_linker_0, # of connection points: 2
#     Edge 28, Type (0, 1), BuildingBlock: UVAHIK_clean_linker_0, # of connection points: 2
#     Edge 29, Type (0, 1), BuildingBlock: UVAHIK_clean_linker_0, # of connection points: 2
#     Edge 30, Type (0, 1), BuildingBlock: UVAHIK_clean_linker_0, # of connection points: 2
#     Edge 31, Type (0, 1), BuildingBlock: UVAHIK_clean_linker_0, # of connection points: 2
#     Edge 32, Type (0, 1), BuildingBlock: UVAHIK_clean_linker_0, # of connection points: 2
#     Edge 33, Type (0, 1), BuildingBlock: UVAHIK_clean_linker_0, # of connection points: 2
#     Edge 34, Type (0, 1), BuildingBlock: UVAHIK_clean_linker_0, # of connection points: 2
#     Edge 35, Type (0, 1), BuildingBlock: UVAHIK_clean_linker_0, # of connection points: 2
# Relax obj value: 0.296
# Max RMSD: 0.224
# Mean RMSD: 0.211
data_MOF--net-zzz--node1-KUMBOL_clean_sbu_0--node2-ESEHIV_clean_linker_0--edge1-UVAHIK_clean_linker_0
_symmetry_space_group_name_H-M    P1
_symmetry_Int_Tables_number       1
_symmetry_cell_setting            triclinic
loop_
_symmetry_equiv_pos_as_xyz
'x, y, z'
_cell_length_a     57.861794
_cell_length_b     57.719727
_cell_length_c     20.169971
_cell_angle_alpha  90.910481
_cell_angle_beta   89.951848
_cell_angle_gamma 89.893599
loop_
_atom_site_label
_atom_site_type_symbol
_atom_site_fract_x
_atom_site_fract_y
_atom_site_fract_z
_atom_type_partial_charge
H0 H 0.78804 0.57861 0.17348 0.0
H1 H 0.73108 0.58441 0.03861 0.0
H2 H 0.72862 0.53472 0.1961 0.0
C3 C 0.77065 0.57377 0.15871 0.0
C4 C 0.75937 0.5561 0.1928 0.0
C5 C 0.76081 0.58377 0.10256 0.0
C6 C 0.73872 0.57681 0.0823 0.0
C7 C 0.72677 0.55943 0.11622 0.0
C8 C 0.73739 0.54861 0.17084 0.0
H9 H 0.95259 0.80114 0.14968 0.0
H10 H 0.95407 0.73962 0.02728 0.0
H11 H 1.00041 0.74624 0.19336 0.0
C12 C 0.95889 0.78373 0.13971 0.0
C13 C 0.9761 0.77463 0.18105 0.0
C14 C 0.95132 0.77163 0.08291 0.0
C15 C 0.96024 0.74944 0.06997 0.0
C16 C 0.97826 0.74026 0.10794 0.0
C17 C 0.98626 0.75292 0.16414 0.0
H18 H 0.71855 0.94465 0.19093 0.0
H19 H 0.77605 0.93833 0.05726 0.0
H20 H 0.77328 0.99483 0.19946 0.0
C21 C 0.73558 0.95011 0.17498 0.0
C22 C 0.74526 0.97001 0.20439 0.0
C23 C 0.74618 0.93894 0.12068 0.0
C24 C 0.76768 0.94699 0.09894 0.0
C25 C 0.7776 0.96722 0.12612 0.0
C26 C 0.76633 0.97876 0.17953 0.0
H27 H 0.58367 0.72618 0.19885 0.0
H28 H 0.55565 0.79289 0.25317 0.0
H29 H 0.58321 0.78066 0.05671 0.0
C30 C 0.58044 0.74416 0.18678 0.0
C31 C 0.58495 0.75175 0.12253 0.0
C32 C 0.56998 0.75872 0.23427 0.0
C33 C 0.56415 0.78161 0.21725 0.0
C34 C 0.5697 0.78985 0.15356 0.0
C35 C 0.57993 0.77474 0.10661 0.0
H36 H 0.22273 0.45126 0.06545 0.0
H37 H 0.27223 0.44974 0.22312 0.0
H38 H 0.28573 0.49008 0.0484 0.0
C39 C 0.23961 0.45592 0.08489 0.0
C40 C 0.25356 0.47098 0.04886 0.0
C41 C 0.24605 0.44845 0.14781 0.0
C42 C 0.2673 0.45558 0.17429 0.0
C43 C 0.28208 0.47029 0.13862 0.0
C44 C 0.27499 0.47816 0.07559 0.0
H45 H 0.0737 0.22194 0.09443 0.0
H46 H 0.07979 0.28344 0.215 0.0
H47 H 0.03618 0.28349 0.04155 0.0
C48 C 0.06975 0.2401 0.10327 0.0
C49 C 0.05465 0.25139 0.05991 0.0
C50 C 0.07853 0.25138 0.15984 0.0
C51 C 0.07288 0.27467 0.17142 0.0
C52 C 0.05774 0.28663 0.12949 0.0
C53 C 0.04814 0.27469 0.07393 0.0
H54 H 0.29708 0.06776 0.05607 0.0
H55 H 0.23613 0.07117 0.17788 0.0
H56 H 0.2328 0.0408 0.98171 0.0
C57 C 0.27863 0.06544 0.06243 0.0
C58 C 0.26603 0.05515 0.01047 0.0
C59 C 0.26823 0.07083 0.12367 0.0
C60 C 0.24448 0.06694 0.13107 0.0
C61 C 0.23158 0.05594 0.0809 0.0
C62 C 0.24241 0.04987 0.02014 0.0
H63 H 0.43722 0.29824 0.06387 0.0
H64 H 0.47724 0.23645 0.02972 0.0
H65 H 0.42828 0.23985 0.1908 0.0
C66 C 0.44083 0.28036 0.07592 0.0
C67 C 0.43057 0.27056 0.13193 0.0
C68 C 0.45741 0.26819 0.03838 0.0
C69 C 0.4639 0.24569 0.05717 0.0
C70 C 0.4529 0.23513 0.11136 0.0
C71 C 0.43614 0.24763 0.14773 0.0
Gd72 Gd 0.98523 0.02051 0.55668 0.0
Gd73 Gd 0.03128 0.00919 0.67924 0.0
C74 C 0.05777 0.06757 0.81791 0.0
C75 C 0.09699 0.07273 0.77802 0.0
C76 C 0.07237 0.04273 0.73003 0.0
C77 C 0.05449 0.04948 0.77078 0.0
C78 C 0.09414 0.05364 0.73482 0.0
C79 C 0.07878 0.0797 0.81955 0.0
C80 C 0.04021 0.07236 0.86358 0.0
C81 C 0.02059 0.05845 0.86385 0.0
N82 N 0.03453 0.03714 0.76794 0.0
C83 C 0.0182 0.04062 0.81657 0.0
H84 H 1.00308 0.02999 0.82062 0.0
C85 C 0.08758 0.0137 0.65912 0.0
N86 N 0.06913 0.02401 0.69012 0.0
C87 C 0.10945 0.02394 0.66153 0.0
C88 C 0.11264 0.04434 0.69843 0.0
H89 H 0.0852 0.99779 0.63099 0.0
H90 H 0.08143 0.0939 0.85452 0.0
H91 H 0.01394 0.99859 0.4215 0.0
H92 H 0.04199 0.08614 0.90032 0.0
H93 H 0.00725 0.0614 0.9007 0.0
H94 H 0.11344 0.08158 0.78163 0.0
H95 H 0.93234 0.02836 0.62104 0.0
H96 H 0.97403 0.94353 0.33809 0.0
H97 H 0.00914 0.96779 0.33849 0.0
H98 H 0.90365 0.94641 0.46264 0.0
H99 H 0.12381 0.01607 0.63508 0.0
H100 H 0.12963 0.05218 0.70074 0.0
H101 H 0.93491 0.93537 0.38561 0.0
H102 H 0.89426 0.009 0.61979 0.0
N103 N 0.98199 0.992 0.47119 0.0
C104 C 0.97596 0.95719 0.37514 0.0
C105 C 0.99577 0.97086 0.37517 0.0
C106 C 0.95858 0.96175 0.4217 0.0
C107 C 0.96202 0.97966 0.46922 0.0
C108 C 0.9984 0.98844 0.42307 0.0
N109 N 0.94793 1.00394 0.55464 0.0
C110 C 0.9445 0.98575 0.51258 0.0
C111 C 0.90827 1.00215 0.58975 0.0
C112 C 0.90495 0.9824 0.55009 0.0
C113 C 0.92981 0.01307 0.59028 0.0
C114 C 0.92299 0.97427 0.50969 0.0
H115 H 0.8882 0.97404 0.54936 0.0
O116 O 0.9612 0.04834 0.5365 0.0
O117 O 0.01024 0.03608 0.62949 0.0
O118 O 0.99545 0.01032 0.72608 0.0
O119 O 0.9699 1.00055 0.64141 0.0
O120 O 0.97682 0.04883 0.6319 0.0
O121 O 0.98853 0.04007 0.46622 0.0
O122 O 0.05442 0.98273 0.71715 0.0
O123 O 0.008 0.99409 0.60174 0.0
O124 O 0.02028 0.02491 0.50715 0.0
O125 O 0.04896 0.02449 0.58905 0.0
O126 O 0.04207 0.98332 0.59971 0.0
O127 O 0.01878 0.98302 0.74692 0.0
C128 C 0.99724 0.05118 0.65632 0.0
C129 C 0.91993 0.95563 0.46501 0.0
C130 C 0.93771 0.94937 0.4211 0.0
C131 C 0.97257 0.05489 0.48445 0.0
C132 C 0.97891 0.07949 0.48477 0.0
C133 C 0.96176 0.09616 0.47423 0.0
C134 C 1.00165 0.08655 0.49892 0.0
C135 C 0.00755 0.11019 0.49955 0.0
C136 C 0.96727 0.11966 0.47675 0.0
C137 C 0.98998 0.12667 0.48875 0.0
C138 C 0.97498 1.00326 0.7048 0.0
C139 C 0.02204 0.9804 0.57305 0.0
C140 C 0.03755 0.97071 0.74145 0.0
C141 C 0.03462 0.94682 0.71463 0.0
C142 C 0.0513 0.93685 0.67208 0.0
C143 C 0.01373 0.93498 0.72479 0.0
C144 C 0.00889 0.91407 0.69052 0.0
C145 C 0.0467 0.91615 0.63806 0.0
C146 C 0.02557 0.90496 0.64642 0.0
C147 C 0.04204 0.02714 0.5268 0.0
H148 H 0.94408 0.09099 0.46436 0.0
H149 H 0.01474 0.07363 0.50888 0.0
H150 H 0.95398 0.13248 0.46819 0.0
H151 H 0.99382 0.14499 0.48712 0.0
H152 H 0.06758 0.94547 0.663 0.0
H153 H 1.00122 0.94223 0.75928 0.0
H154 H 0.0594 0.90896 0.60406 0.0
H155 H 0.02231 0.88926 0.61793 0.0
Gd156 Gd 0.50709 0.99156 0.58298 0.0
Gd157 Gd 0.51594 0.03825 0.7033 0.0
C158 C 0.45011 0.0577 0.81756 0.0
C159 C 0.44411 0.09767 0.78587 0.0
C160 C 0.47687 0.07578 0.74201 0.0
C161 C 0.46995 0.0566 0.7768 0.0
C162 C 0.46434 0.09673 0.74739 0.0
C163 C 0.43704 0.0782 0.82103 0.0
C164 C 0.44416 0.03826 0.85434 0.0
C165 C 0.45801 0.01849 0.85055 0.0
N166 N 0.48292 0.03703 0.77213 0.0
C167 C 0.47741 0.01818 0.80916 0.0
H168 H 0.4876 1.00262 0.80653 0.0
C169 C 0.50597 0.09391 0.67935 0.0
N170 N 0.49657 0.07433 0.70578 0.0
C171 C 0.49409 0.115 0.68265 0.0
C172 C 0.47296 0.11634 0.71592 0.0
H173 H 0.52238 0.09298 0.65367 0.0
H174 H 0.42168 0.0793 0.8517 0.0
H175 H 0.48013 1.00439 0.44129 0.0
H176 H 0.42903 0.0384 0.88604 0.0
H177 H 0.45363 1.00338 0.879 0.0
H178 H 0.43415 0.11354 0.79014 0.0
H179 H 0.55334 0.96359 0.65326 0.0
H180 H 0.52696 0.99242 0.27998 0.0
H181 H 0.48865 1.00512 0.32131 0.0
H182 H 0.59277 0.95851 0.38424 0.0
H183 H 0.50127 0.13022 0.65972 0.0
H184 H 0.46385 0.13274 0.71884 0.0
H185 H 0.56581 0.97527 0.30402 0.0
H186 H 0.58942 0.94572 0.61777 0.0
N187 N 0.51362 0.99235 0.46778 0.0
C188 C 0.52334 0.99218 0.33268 0.0
C189 C 0.50169 0.99932 0.35575 0.0
C190 C 0.53977 0.98403 0.37759 0.0
C191 C 0.53425 0.9841 0.44581 0.0
C192 C 0.49694 0.99889 0.42364 0.0
N193 N 0.54339 0.97459 0.55649 0.0
C194 C 0.54942 0.97467 0.49121 0.0
C195 C 0.57833 0.95378 0.58159 0.0
C196 C 0.58501 0.95441 0.51531 0.0
C197 C 0.55747 0.964 0.60147 0.0
C198 C 0.57054 0.96489 0.46916 0.0
H199 H 0.60132 0.94671 0.50028 0.0
O200 O 0.48685 0.96436 0.62863 0.0
O201 O 0.49038 0.01304 0.66269 0.0
O202 O 0.5249 1.00456 0.75384 0.0
O203 O 0.51585 0.97455 0.67913 0.0
O204 O 0.47294 0.01007 0.57327 0.0
O205 O 0.49236 0.96342 0.52353 0.0
O206 O 0.54257 0.06283 0.7325 0.0
O207 O 0.53363 0.01243 0.63585 0.0
O208 O 0.50684 0.0259 0.52793 0.0
O209 O 0.50255 0.05481 0.60965 0.0
O210 O 0.54483 0.04669 0.6326 0.0
O211 O 0.52889 0.0391 0.80428 0.0
C212 C 0.47189 0.01842 0.63276 0.0
C213 C 0.57649 0.96563 0.40173 0.0
C214 C 0.56117 0.97523 0.35608 0.0
C215 C 0.48097 0.95475 0.57272 0.0
C216 C 0.45598 0.95159 0.56331 0.0
C217 C 0.44448 0.93314 0.59309 0.0
C218 C 0.4432 0.96828 0.52954 0.0
C219 C 0.41898 0.96742 0.52711 0.0
C220 C 0.42041 0.93158 0.58917 0.0
C221 C 0.40767 0.94865 0.55681 0.0
C222 C 0.52234 0.98238 0.73799 0.0
C223 C 0.5478 0.02611 0.60877 0.0
C224 C 0.54448 0.05469 0.79183 0.0
C225 C 0.5682 0.05019 0.81437 0.0
C226 C 0.58314 0.06896 0.82551 0.0
C227 C 0.57611 0.02755 0.82528 0.0
C228 C 0.59853 0.02377 0.84914 0.0
C229 C 0.6056 0.06521 0.84824 0.0
C230 C 0.61323 0.04273 0.86061 0.0
C231 C 0.50304 0.04772 0.54686 0.0
H232 H 0.45406 0.92017 0.61999 0.0
H233 H 0.45222 0.98237 0.50671 0.0
H234 H 0.41156 0.91726 0.61207 0.0
H235 H 0.38905 0.94702 0.55475 0.0
H236 H 0.57737 0.08653 0.81695 0.0
H237 H 0.56468 0.01299 0.81732 0.0
H238 H 0.61702 0.07976 0.857 0.0
H239 H 0.63058 0.04012 0.87932 0.0
Gd240 Gd 0.4837 0.51866 0.65184 0.0
Gd241 Gd 0.5363 0.50175 0.564 0.0
C242 C 0.60689 0.51681 0.65501 0.0
C243 C 0.62287 0.54469 0.5785 0.0
C244 C 0.5845 0.52872 0.5599 0.0
C245 C 0.58641 0.51596 0.61714 0.0
C246 C 0.60294 0.54281 0.53907 0.0
C247 C 0.62485 0.5317 0.63634 0.0
C248 C 0.60896 0.50218 0.70937 0.0
C249 C 0.59114 0.48677 0.72367 0.0
N250 N 0.56875 0.50176 0.63383 0.0
C251 C 0.5711 0.48667 0.68489 0.0
H252 H 0.55739 0.47478 0.69654 0.0
C253 C 0.56387 0.53592 0.4611 0.0
N254 N 0.56509 0.52638 0.52269 0.0
C255 C 0.58161 0.55023 0.43858 0.0
C256 C 0.60109 0.55398 0.47817 0.0
H257 H 0.54889 0.53297 0.4302 0.0
H258 H 0.64058 0.53282 0.66532 0.0
H259 H 0.47804 0.56242 0.52952 0.0
H260 H 0.62439 0.50233 0.73977 0.0
H261 H 0.59272 0.47512 0.76493 0.0
H262 H 0.63711 0.55563 0.56371 0.0
H263 H 0.46462 0.46277 0.67293 0.0
H264 H 0.4084 0.5632 0.46861 0.0
H265 H 0.44713 0.58075 0.47134 0.0
H266 H 0.37887 0.49125 0.54232 0.0
H267 H 0.58028 0.55831 0.39067 0.0
H268 H 0.61486 0.56497 0.46046 0.0
H269 H 0.3832 0.52988 0.49521 0.0
H270 H 0.43021 0.4402 0.65358 0.0
N271 N 0.45751 0.53553 0.5728 0.0
C272 C 0.42193 0.55533 0.49781 0.0
C273 C 0.4437 0.56532 0.49951 0.0
C274 C 0.41835 0.53447 0.52998 0.0
C275 C 0.43664 0.52479 0.56728 0.0
C276 C 0.46136 0.55498 0.53584 0.0
N277 N 0.4527 0.49322 0.62388 0.0
C278 C 0.43425 0.50292 0.59319 0.0
C279 C 0.43109 0.45779 0.63597 0.0
C280 C 0.41212 0.46761 0.605 0.0
C281 C 0.4511 0.47088 0.64576 0.0
C282 C 0.41349 0.49036 0.58306 0.0
H283 H 0.39659 0.45743 0.59773 0.0
O284 O 0.46787 0.5068 0.74263 0.0
O285 O 0.52142 0.51099 0.66255 0.0
O286 O 0.52351 0.47032 0.61928 0.0
O287 O 0.49662 0.48485 0.69502 0.0
O288 O 0.50889 0.54041 0.71088 0.0
O289 O 0.46394 0.54253 0.71446 0.0
O290 O 0.53872 0.48421 0.46805 0.0
O291 O 0.49762 0.50053 0.56306 0.0
O292 O 0.49999 0.55203 0.61432 0.0
O293 O 0.53548 0.54108 0.56599 0.0
O294 O 0.51393 0.51201 0.47765 0.0
O295 O 0.55855 0.47175 0.55089 0.0
C296 C 0.52695 0.52783 0.70053 0.0
C297 C 0.39494 0.50056 0.54974 0.0
C298 C 0.39737 0.52257 0.52313 0.0
C299 C 0.4617 0.52751 0.76174 0.0
C300 C 0.4699 0.53436 0.82852 0.0
C301 C 0.46488 0.52024 0.88266 0.0
C302 C 0.4854 0.55288 0.83714 0.0
C303 C 0.49733 0.55609 0.89712 0.0
C304 C 0.47583 0.52406 0.94356 0.0
C305 C 0.49229 0.54162 0.95057 0.0
C306 C 0.50959 0.46777 0.67059 0.0
C307 C 0.49432 0.50714 0.50433 0.0
C308 C 0.55148 0.46755 0.49084 0.0
C309 C 0.54351 0.44379 0.47837 0.0
C310 C 0.55985 0.42592 0.47321 0.0
C311 C 0.51979 0.43854 0.47606 0.0
C312 C 0.51243 0.41548 0.46804 0.0
C313 C 0.55266 0.403 0.46563 0.0
C314 C 0.52915 0.39777 0.46294 0.0
C315 C 0.51985 0.55688 0.58389 0.0
H316 H 0.45305 0.5058 0.87718 0.0
H317 H 0.48916 0.56411 0.7961 0.0
H318 H 0.47203 0.51297 0.98493 0.0
H319 H 0.50098 0.54393 0.99773 0.0
H320 H 0.57817 0.4297 0.47572 0.0
H321 H 0.50714 0.45231 0.48138 0.0
H322 H 0.56535 0.38925 0.4615 0.0
H323 H 0.5241 0.37987 0.45533 0.0
Gd324 Gd 0.99791 0.48804 0.67034 0.0
Gd325 Gd 0.01685 0.53601 0.56794 0.0
C326 C 0.04849 0.60339 0.65094 0.0
C327 C 0.01459 0.62507 0.68655 0.0
C328 C 0.01047 0.58676 0.63547 0.0
C329 C 0.03411 0.58499 0.62956 0.0
C330 C 1.00038 0.60711 0.66264 0.0
C331 C 0.03863 0.62317 0.68098 0.0
C332 C 0.07227 0.60172 0.63943 0.0
C333 C 0.08102 0.58259 0.60452 0.0
N334 N 0.043 0.56581 0.59951 0.0
C335 C 0.06601 0.56502 0.58347 0.0
H336 H 0.07288 0.55051 0.55513 0.0
C337 C 0.97373 0.57087 0.61341 0.0
N338 N 0.99729 0.56884 0.61309 0.0
C339 C 0.96294 0.5908 0.63898 0.0
C340 C 0.97631 0.60893 0.66428 0.0
H341 H 0.96289 0.55729 0.59452 0.0
H342 H 0.04939 0.63735 0.69833 0.0
H343 H 0.95579 0.46778 0.56457 0.0
H344 H 0.08388 0.61544 0.65519 0.0
H345 H 0.09928 0.58145 0.59326 0.0
H346 H 0.00715 0.64065 0.70837 0.0
H347 H 0.03386 0.46565 0.7844 0.0
H348 H 0.97811 0.4038 0.47916 0.0
H349 H 0.94955 0.43556 0.48786 0.0
H350 H 0.04603 0.38558 0.60253 0.0
H351 H 0.94427 0.59206 0.63956 0.0
H352 H 0.9679 0.62426 0.6846 0.0
H353 H 0.01479 0.38586 0.51991 0.0
H354 H 0.06141 0.43317 0.79419 0.0
N355 N 0.98895 0.45627 0.5977 0.0
C356 C 0.98121 0.41826 0.51288 0.0
C357 C 0.96513 0.43618 0.5175 0.0
C358 C 1.00071 0.41883 0.55361 0.0
C359 C 1.00387 0.43806 0.59694 0.0
C360 C 0.9691 0.45491 0.56084 0.0
N361 N 0.02204 0.45535 0.68851 0.0
C362 C 0.02129 0.43783 0.6432 0.0
C363 C 0.05051 0.43441 0.7508 0.0
C364 C 0.05155 0.41742 0.70097 0.0
C365 C 0.03507 0.45291 0.74473 0.0
C366 C 0.03622 0.41851 0.64755 0.0
H367 H 0.06329 0.40291 0.70609 0.0
O368 O 0.98895 0.4703 0.76117 0.0
O369 O 0.99973 0.52678 0.66261 0.0
O370 O 0.04788 0.52647 0.63105 0.0
O371 O 0.03643 0.49374 0.68928 0.0
O372 O 0.0101 0.51232 0.75176 0.0
O373 O 0.96282 0.48904 0.70877 0.0
O374 O 0.99868 0.54529 0.47738 0.0
O375 O 0.00929 0.4979 0.56947 0.0
O376 O 0.96648 0.50184 0.61654 0.0
O377 O 0.981 0.52571 0.53457 0.0
O378 O 0.04106 0.50771 0.53249 0.0
O379 O 0.03566 0.54773 0.48161 0.0
C380 C 0.00713 0.5314 0.72061 0.0
C381 C 0.03444 0.40033 0.60081 0.0
C382 C 0.01663 0.40045 0.55396 0.0
C383 C 0.96856 0.47958 0.76442 0.0
C384 C 0.96326 0.49282 0.82595 0.0
C385 C 0.9716 0.48507 0.88711 0.0
C386 C 0.95118 0.51399 0.82375 0.0
C387 C 0.94755 0.52737 0.88171 0.0
C388 C 0.96827 0.49837 0.94471 0.0
C389 C 0.95638 0.5194 0.94218 0.0
C390 C 0.05205 0.50938 0.67241 0.0
C391 C 0.02754 0.49037 0.54196 0.0
C392 C 0.01761 0.5473 0.44345 0.0
C393 C 0.01932 0.5329 0.38235 0.0
C394 C 1.00281 0.53491 0.33197 0.0
C395 C 0.03692 0.51626 0.37534 0.0
C396 C 0.03847 0.50177 0.31881 0.0
C397 C 1.00404 0.52056 0.27553 0.0
C398 C 0.02173 0.50411 0.26879 0.0
C399 C 0.96396 0.51406 0.56209 0.0
H400 H 0.98099 0.46887 0.89021 0.0
H401 H 0.94478 0.52026 0.77685 0.0
H402 H 0.97482 0.4923 0.9916 0.0
H403 H 0.95353 0.52908 0.9879 0.0
H404 H 0.98892 0.54746 0.33648 0.0
H405 H 0.04941 0.51439 0.41457 0.0
H406 H 0.99127 0.52224 0.23672 0.0
H407 H 0.02246 0.49359 0.22394 0.0
C408 C 0.18911 0.06381 0.09261 0.0
C409 C 0.20788 0.0485 0.09899 0.0
C410 C 0.16879 0.06058 0.12967 0.0
C411 C 0.15349 0.04157 0.29237 0.0
H412 H 0.08949 0.03768 0.23696 0.0
C413 C 0.0824 0.02217 0.4828 0.0
C414 C 0.05994 0.03089 0.47475 0.0
C415 C 0.09914 0.0246 0.4334 0.0
C416 C 0.10721 0.03917 0.25363 0.0
H417 H 0.2199 0.01755 0.14727 0.0
H418 H 0.18463 0.01199 0.21207 0.0
H419 H 0.12014 0.04067 0.15353 0.0
H420 H 0.03727 0.04835 0.4062 0.0
H421 H 0.06682 0.0539 0.32112 0.0
H422 H 0.1411 0.04124 0.39189 0.0
C423 C 0.18541 0.02624 0.17782 0.0
C424 C 0.12477 0.0407 0.20555 0.0
C425 C 0.20547 0.02924 0.14011 0.0
C426 C 0.05455 0.0418 0.41479 0.0
C427 C 0.07151 0.04474 0.36555 0.0
C428 C 0.13604 0.04058 0.34026 0.0
C429 C 0.16718 0.04232 0.17482 0.0
C430 C 0.14812 0.04148 0.22451 0.0
C431 C 0.09416 0.03618 0.3741 0.0
C432 C 0.11258 0.03887 0.32194 0.0
H433 H 0.1908 0.07916 0.06281 0.0
H434 H 0.15507 0.07332 0.12676 0.0
H435 H 0.17131 0.04266 0.30852 0.0
H436 H 0.08694 0.0126 0.52623 0.0
H437 H 0.11591 0.01683 0.44153 0.0
C438 C 0.48248 0.20734 0.1549 0.0
C439 C 0.45968 0.21183 0.13498 0.0
C440 C 0.48774 0.18732 0.19058 0.0
C441 C 0.45835 0.14571 0.30054 0.0
H442 H 0.51725 0.11365 0.29614 0.0
C443 C 0.48594 0.08543 0.51104 0.0
C444 C 0.49822 0.06508 0.49505 0.0
C445 C 0.48151 0.10201 0.46289 0.0
C446 C 0.50061 0.12225 0.2976 0.0
H447 H 0.42487 0.19822 0.13227 0.0
H448 H 0.43407 0.16298 0.19198 0.0
H449 H 0.50923 0.14374 0.2154 0.0
H450 H 0.51552 0.04624 0.41548 0.0
H451 H 0.50728 0.07492 0.33078 0.0
H452 H 0.44952 0.12412 0.38181 0.0
C453 C 0.44784 0.17515 0.18229 0.0
C454 C 0.4961 0.13971 0.25168 0.0
C455 C 0.44258 0.19521 0.14738 0.0
C456 C 0.50584 0.06163 0.42939 0.0
C457 C 0.50136 0.07823 0.38098 0.0
C458 C 0.46282 0.12828 0.34614 0.0
C459 C 0.47029 0.17132 0.20665 0.0
C460 C 0.47494 0.1518 0.25279 0.0
C461 C 0.4891 0.09866 0.39708 0.0
C462 C 0.4841 0.11646 0.34593 0.0
H463 H 0.49593 0.22 0.14665 0.0
H464 H 0.50519 0.18509 0.2087 0.0
H465 H 0.442 0.1548 0.30395 0.0
H466 H 0.47945 0.08849 0.56075 0.0
H467 H 0.4723 0.11762 0.47758 0.0
C468 C 0.32547 0.4752 0.13486 0.0
C469 C 0.30446 0.47746 0.16945 0.0
C470 C 0.34665 0.4788 0.1676 0.0
C471 C 0.37154 0.4791 0.33806 0.0
H472 H 0.42474 0.50688 0.2543 0.0
C473 C 0.46037 0.48255 0.47035 0.0
C474 C 0.47342 0.50283 0.46351 0.0
C475 C 0.4406 0.47876 0.43146 0.0
C476 C 0.41003 0.49924 0.27885 0.0
H477 H 0.2892 0.48683 0.26431 0.0
H478 H 0.3258 0.49353 0.32073 0.0
H479 H 0.38859 0.50325 0.19306 0.0
H480 H 0.47749 0.5339 0.40623 0.0
H481 H 0.44265 0.52793 0.34014 0.0
H482 H 0.39267 0.47542 0.42409 0.0
C483 C 0.32614 0.48824 0.26899 0.0
C484 C 0.38931 0.4969 0.24324 0.0
C485 C 0.30509 0.48455 0.23648 0.0
C486 C 0.46728 0.51845 0.4139 0.0
C487 C 0.44741 0.51485 0.37549 0.0
C488 C 0.39222 0.48142 0.37357 0.0
C489 C 0.34727 0.48486 0.23562 0.0
C490 C 0.36967 0.48699 0.27255 0.0
C491 C 0.43357 0.49506 0.3841 0.0
C492 C 0.41176 0.49172 0.34485 0.0
H493 H 0.32557 0.46962 0.08333 0.0
H494 H 0.36252 0.47596 0.14019 0.0
H495 H 0.357 0.47094 0.3621 0.0
H496 H 0.46542 0.46961 0.50585 0.0
H497 H 0.43088 0.46299 0.43854 0.0
C498 C 0.0703 0.32633 0.16577 0.0
C499 C 0.05213 0.3112 0.14843 0.0
C500 C 0.06609 0.34685 0.20164 0.0
C501 C 0.02467 0.39131 0.25318 0.0
H502 H 0.05881 0.39219 0.41845 0.0
C503 C 0.0109 0.46466 0.45243 0.0
C504 C 0.02891 0.46985 0.49681 0.0
C505 C 0.01274 0.44594 0.40733 0.0
C506 C 0.04944 0.39272 0.37213 0.0
H507 H 0.01499 0.30689 0.151 0.0
H508 H 0.00748 0.34352 0.21188 0.0
H509 H 0.06368 0.36002 0.34073 0.0
H510 H 0.06392 0.4612 0.52394 0.0
H511 H 0.06766 0.42915 0.44467 0.0
H512 H 0.0111 0.42439 0.28265 0.0
C513 C 0.02507 0.33911 0.19823 0.0
C514 C 0.05211 0.374 0.32767 0.0
C515 C 0.02934 0.31824 0.16286 0.0
C516 C 0.04938 0.45691 0.49227 0.0
C517 C 0.05137 0.43834 0.44688 0.0
C518 C 0.02233 0.41037 0.29712 0.0
C519 C 0.04353 0.35313 0.22037 0.0
C520 C 0.03987 0.37306 0.26755 0.0
C521 C 0.03289 0.43212 0.40438 0.0
C522 C 0.03481 0.41153 0.35738 0.0
H523 H 0.08805 0.3215 0.15523 0.0
H524 H 0.08064 0.35742 0.21705 0.0
H525 H 0.01506 0.39113 0.20712 0.0
H526 H 0.99532 0.47511 0.45263 0.0
H527 H 0.99803 0.44211 0.37603 0.0
C528 C 0.79705 0.97996 0.02239 0.0
C529 C 0.79805 0.97708 0.09142 0.0
C530 C 0.8168 0.98548 0.98612 0.0
C531 C 0.88078 0.98178 0.99245 0.0
H532 H 0.87581 0.01786 0.83265 0.0
C533 C 0.95253 0.9812 0.78949 0.0
C534 C 0.95605 1.0015 0.75362 0.0
C535 C 0.93415 0.97969 0.83475 0.0
C536 C 0.87774 0.00796 0.87746 0.0
H537 H 0.82052 0.9787 0.17698 0.0
H538 H 0.85531 0.98891 0.11358 0.0
H539 H 0.84273 0.01471 0.90587 0.0
H540 H 0.94408 0.03651 0.73884 0.0
H541 H 0.91237 0.03427 0.81835 0.0
H542 H 0.91602 0.97544 0.96439 0.0
C543 C 0.83916 0.98647 0.08735 0.0
C544 C 0.85855 1.00589 0.91928 0.0
C545 C 0.8192 0.98093 0.1239 0.0
C546 C 0.94139 0.0205 0.76506 0.0
C547 C 0.92315 0.01912 0.81051 0.0
C548 C 0.90009 0.98396 0.95067 0.0
C549 C 0.8383 0.98843 0.01766 0.0
C550 C 0.85961 0.99247 0.97691 0.0
C551 C 0.91903 0.99861 0.84566 0.0
C552 C 0.89879 0.99688 0.89205 0.0
H553 H 0.78099 0.97712 0.9959 0.0
H554 H 0.81531 0.98646 0.93274 0.0
H555 H 0.88231 0.97113 0.03594 0.0
H556 H 0.9639 0.96648 0.78218 0.0
H557 H 0.93155 0.96352 0.86017 0.0
C558 C 0.58144 0.82805 0.10805 0.0
C559 C 0.56394 0.81369 0.13268 0.0
C560 C 0.57592 0.84863 0.07592 0.0
C561 C 0.53024 0.87253 0.97349 0.0
H562 H 0.56372 0.93035 0.99255 0.0
C563 C 0.50816 0.95053 0.80911 0.0
C564 C 0.52625 0.96504 0.78967 0.0
C565 C 0.51179 0.93365 0.85711 0.0
C566 C 0.55435 0.91427 0.98583 0.0
H567 H 0.52702 0.80985 0.145 0.0
H568 H 0.51722 0.84586 0.08807 0.0
H569 H 0.57173 0.89867 0.06792 0.0
H570 H 0.56224 0.97294 0.80256 0.0
H571 H 0.56917 0.94313 0.8851 0.0
H572 H 0.51365 0.88738 0.88976 0.0
C573 C 0.53524 0.84123 0.09402 0.0
C574 C 0.55886 0.89616 0.02951 0.0
C575 C 0.54082 0.82078 0.12715 0.0
C576 C 0.54805 0.96233 0.81845 0.0
C577 C 0.55188 0.9452 0.8657 0.0
C578 C 0.52596 0.89046 0.92927 0.0
C579 C 0.55273 0.8551 0.06666 0.0
C580 C 0.54689 0.87505 0.02372 0.0
C581 C 0.5338 0.93052 0.88573 0.0
C582 C 0.53798 0.91163 0.93451 0.0
H583 H 0.5994 0.82281 0.11122 0.0
H584 H 0.58977 0.85881 0.05504 0.0
H585 H 0.52106 0.85632 0.96682 0.0
H586 H 0.49113 0.95239 0.7875 0.0
H587 H 0.49725 0.92314 0.87183 0.0
C588 C 0.70093 0.53242 0.05209 0.0
C589 C 0.70364 0.55261 0.09096 0.0
C590 C 0.68057 0.5287 0.01557 0.0
C591 C 0.63146 0.56212 0.94405 0.0
H592 H 0.60744 0.50107 0.90149 0.0
C593 C 0.56334 0.5473 0.73697 0.0
C594 C 0.5471 0.52957 0.74493 0.0
C595 C 0.58159 0.55002 0.7821 0.0
C596 C 0.6137 0.51831 0.91339 0.0
H597 H 0.68705 0.5843 0.12425 0.0
H598 H 0.65116 0.57743 0.0635 0.0
H599 H 0.63972 0.50508 0.97823 0.0
H600 H 0.53547 0.50245 0.80958 0.0
H601 H 0.56708 0.50727 0.88921 0.0
H602 H 0.60516 0.57541 0.88047 0.0
C603 C 0.66484 0.56466 0.05937 0.0
C604 C 0.6325 0.52059 0.95691 0.0
C605 C 0.68525 0.56846 0.09516 0.0
C606 C 0.54847 0.51556 0.80097 0.0
C607 C 0.56658 0.51837 0.84648 0.0
C608 C 0.61262 0.55985 0.90086 0.0
C609 C 0.66243 0.54508 0.01729 0.0
C610 C 0.64175 0.54253 0.9728 0.0
C611 C 0.58362 0.53545 0.8373 0.0
C612 C 0.60348 0.53791 0.88461 0.0
H613 H 0.71507 0.5202 0.04691 0.0
H614 H 0.67961 0.51354 0.9834 0.0
H615 H 0.63821 0.57931 0.9538 0.0
H616 H 0.56211 0.55883 0.69524 0.0
H617 H 0.59432 0.5633 0.77288 0.0
C618 C 0.99874 0.71899 0.01693 0.0
C619 C 0.98943 0.71869 0.0814 0.0
C620 C 1.00303 0.69838 0.98155 0.0
C621 C 0.0118 0.63545 0.98886 0.0
H622 H 0.98157 0.63444 0.8171 0.0
C623 C 0.02631 0.56283 0.78717 0.0
C624 C 0.0063 0.5539 0.75686 0.0
C625 C 0.02514 0.58256 0.82876 0.0
C626 C 0.99012 0.63441 0.86486 0.0
H627 H 0.97855 0.69636 0.16058 0.0
H628 H 0.98697 0.65998 0.09934 0.0
H629 H 0.97934 0.6692 0.8877 0.0
H630 H 0.96915 0.55734 0.75086 0.0
H631 H 0.96714 0.59238 0.82098 0.0
H632 H 0.02291 0.6007 0.96513 0.0
C633 C 0.99075 0.67635 0.07621 0.0
C634 C 0.98895 0.65438 0.90523 0.0
C635 C 0.98613 0.69714 0.11156 0.0
C636 C 0.98499 0.56456 0.77088 0.0
C637 C 0.98382 0.58443 0.81175 0.0
C638 C 0.0134 0.61559 0.94771 0.0
C639 C 0.99837 0.67679 0.00979 0.0
C640 C 0.99975 0.6552 0.96778 0.0
C641 C 1.00387 0.59367 0.84143 0.0
C642 C 1.0025 0.61481 0.88523 0.0
H643 H 1.00123 0.73531 0.99211 0.0
H644 H 0.00918 0.69935 0.93093 0.0
H645 H 0.02031 0.63552 0.03666 0.0
H646 H 0.04285 0.55443 0.77895 0.0
H647 H 0.0409 0.58921 0.85075 0.0
C648 C 0.10684 0.22037 0.19261 0.0
C649 C 0.09119 0.23803 0.21079 0.0
C650 C 0.11477 0.20472 0.23979 0.0
C651 C 0.10972 0.18945 0.4198 0.0
H652 H 0.08803 0.13142 0.34435 0.0
C653 C 0.03802 0.13944 0.53041 0.0
C654 C 0.03216 0.11767 0.50332 0.0
C655 C 0.05925 0.14956 0.51538 0.0
C656 C 0.09489 0.14704 0.36719 0.0
H657 H 0.07333 0.25434 0.29399 0.0
H658 H 0.08687 0.22729 0.37526 0.0
H659 H 0.10184 0.16095 0.27224 0.0
H660 H 0.04578 0.08781 0.44951 0.0
H661 H 0.08315 0.10469 0.42723 0.0
H662 H 0.10099 0.17593 0.5148 0.0
C663 C 0.09341 0.22552 0.3251 0.0
C664 C 0.1029 0.16418 0.32518 0.0
C665 C 0.08548 0.24108 0.27811 0.0
C666 C 0.04945 0.10471 0.47051 0.0
C667 C 0.07091 0.11458 0.45693 0.0
C668 C 0.10179 0.17219 0.46207 0.0
C669 C 0.10713 0.20643 0.30594 0.0
C670 C 0.10854 0.18624 0.3506 0.0
C671 C 0.07523 0.13789 0.47393 0.0
C672 C 0.09239 0.15155 0.43567 0.0
H673 H 0.112 0.2179 0.14135 0.0
H674 H 0.12562 0.1904 0.22364 0.0
H675 H 0.11468 0.20607 0.44101 0.0
H676 H 0.0255 0.14952 0.55858 0.0
H677 H 0.0619 0.16743 0.53059 0.0
C678 C 0.30384 0.08857 0.17531 0.0
C679 C 0.28292 0.07643 0.18239 0.0
C680 C 0.32068 0.08773 0.22483 0.0
C681 C 0.35428 0.05513 0.29198 0.0
H682 H 0.34863 0.05409 0.48338 0.0
C683 C 0.41527 0.99825 0.4409 0.0
C684 C 0.40586 0.9865 0.49525 0.0
C685 C 0.40347 0.0166 0.41224 0.0
C686 C 0.35044 0.05409 0.42997 0.0
H687 H 0.26232 0.05645 0.25137 0.0
H688 H 0.29121 0.05579 0.3376 0.0
H689 H 0.32088 0.07622 0.41839 0.0
H690 H 0.37666 0.98556 0.5628 0.0
H691 H 0.35501 0.01584 0.50854 0.0
H692 H 0.38196 0.03127 0.30134 0.0
C693 C 0.2947 0.06573 0.29358 0.0
C694 C 0.33475 0.06708 0.39301 0.0
C695 C 0.27806 0.06616 0.24372 0.0
C696 C 0.38425 0.99372 0.52004 0.0
C697 C 0.37205 0.01161 0.48982 0.0
C698 C 0.36954 0.04175 0.32852 0.0
C699 C 0.31665 0.0752 0.2828 0.0
C700 C 0.33616 0.06712 0.32355 0.0
C701 C 0.3814 0.02317 0.43498 0.0
C702 C 0.36742 0.04041 0.39791 0.0
H703 H 0.30789 0.09729 0.12961 0.0
H704 H 0.33746 0.09535 0.21576 0.0
H705 H 0.35549 0.05446 0.23836 0.0
H706 H 0.43168 0.99315 0.41935 0.0
H707 H 0.41162 0.02534 0.37133 0.0
C708 C 0.42205 0.28446 0.24756 0.0
C709 C 0.41744 0.28567 0.17927 0.0
C710 C 0.41549 0.30249 0.29042 0.0
C711 C 0.41512 0.36388 0.27487 0.0
H712 H 0.41241 0.36069 0.46643 0.0
C713 C 0.47321 0.42297 0.41956 0.0
C714 C 0.48754 0.40976 0.4607 0.0
C715 C 0.45154 0.41457 0.40018 0.0
C716 C 0.413 0.36206 0.41297 0.0
H717 H 0.39918 0.30511 0.1044 0.0
H718 H 0.38824 0.33698 0.17926 0.0
H719 H 0.3954 0.32971 0.39881 0.0
H720 H 0.48907 0.37923 0.52164 0.0
H721 H 0.45218 0.36398 0.48552 0.0
H722 H 0.43472 0.3947 0.28797 0.0
C723 C 0.39718 0.32216 0.19933 0.0
C724 C 0.40312 0.34435 0.37427 0.0
C725 C 0.40359 0.30397 0.15642 0.0
C726 C 0.4787 0.38941 0.48812 0.0
C727 C 0.45724 0.38088 0.46818 0.0
C728 C 0.42517 0.38141 0.31342 0.0
C729 C 0.40434 0.32225 0.26593 0.0
C730 C 0.40565 0.34426 0.30495 0.0
C731 C 0.44399 0.39264 0.42072 0.0
C732 C 0.42583 0.37976 0.38294 0.0
H733 H 0.43273 0.27077 0.2672 0.0
H734 H 0.42144 0.302 0.34127 0.0
H735 H 0.41737 0.36446 0.22161 0.0
H736 H 0.4794 0.43887 0.39809 0.0
H737 H 0.44153 0.42444 0.36511 0.0
C738 C 0.21529 0.41839 0.16014 0.0
C739 C 0.22865 0.4363 0.18838 0.0
C740 C 0.19422 0.4122 0.1887 0.0
C741 C 0.15383 0.42699 0.32918 0.0
H742 H 0.11002 0.43463 0.18569 0.0
C743 C 0.0795 0.48983 0.34086 0.0
C744 C 0.05782 0.4847 0.31264 0.0
C745 C 0.09761 0.47401 0.33684 0.0
C746 C 0.1218 0.4318 0.22651 0.0
H747 H 0.2319 0.45981 0.27253 0.0
H748 H 0.19522 0.4494 0.32185 0.0
H749 H 0.14924 0.42244 0.16081 0.0
H750 H 0.03857 0.45855 0.25739 0.0
H751 H 0.07096 0.43132 0.24717 0.0
H752 H 0.12666 0.43852 0.39403 0.0
C753 C 0.20087 0.43984 0.27813 0.0
C754 C 0.14439 0.42475 0.21236 0.0
C755 C 0.22199 0.44589 0.24981 0.0
C756 C 0.05501 0.46327 0.2792 0.0
C757 C 0.07343 0.44753 0.27402 0.0
C758 C 0.13127 0.43421 0.34323 0.0
C759 C 0.18606 0.42398 0.24564 0.0
C760 C 0.16106 0.42366 0.26312 0.0
C761 C 0.09489 0.45278 0.30304 0.0
C762 C 0.11551 0.43803 0.29154 0.0
H763 H 0.22026 0.41049 0.11315 0.0
H764 H 0.18352 0.39949 0.16333 0.0
H765 H 0.16606 0.42573 0.36959 0.0
H766 H 0.08287 0.5064 0.36473 0.0
H767 H 0.11418 0.47891 0.3577 0.0
C768 C 0.94282 0.77998 0.96404 0.0
C769 C 0.93744 0.78365 0.03142 0.0
C770 C 0.93388 0.7944 0.91578 0.0
C771 C 0.92159 0.85506 0.9053 0.0
H772 H 0.92415 0.83775 0.71894 0.0
C773 C 0.98709 0.87698 0.7053 0.0
C774 C 0.98703 0.90131 0.70353 0.0
C775 C 0.96783 0.86503 0.72807 0.0
C776 C 0.92271 0.84307 0.77054 0.0
H777 H 0.91622 0.80399 0.09953 0.0
H778 H 0.90118 0.82986 0.01478 0.0
H779 H 0.91066 0.80973 0.79959 0.0
H780 H 0.96545 0.93187 0.71666 0.0
H781 H 0.93241 0.91094 0.76201 0.0
H782 H 0.93529 0.8878 0.87668 0.0
C783 C 0.91243 0.81571 0.99978 0.0
C784 C 0.91511 0.82703 0.81681 0.0
C785 C 0.92121 0.80099 0.04836 0.0
C786 C 0.96648 0.91323 0.7202 0.0
C787 C 0.94739 0.90127 0.7449 0.0
C788 C 0.92882 0.87123 0.85889 0.0
C789 C 0.91951 0.81317 0.93332 0.0
C790 C 0.91658 0.83218 0.88513 0.0
C791 C 0.9482 0.8771 0.7508 0.0
C792 C 0.93128 0.86465 0.79195 0.0
H793 H 0.95551 0.76721 0.94846 0.0
H794 H 0.94014 0.79205 0.8655 0.0
H795 H 0.92281 0.85974 0.95739 0.0
H796 H 1.00251 0.86711 0.69346 0.0
H797 H 0.96907 0.8464 0.73309 0.0
C798 C 0.71593 0.9079 0.10536 0.0
C799 C 0.73228 0.923 0.07792 0.0
C800 C 0.69744 0.89967 0.06694 0.0
C801 C 0.66929 0.91139 0.90074 0.0
H802 H 0.62011 0.93182 0.01796 0.0
C803 C 0.60731 0.9824 0.81867 0.0
C804 C 0.60607 1.00025 0.86662 0.0
C805 C 0.61517 0.96034 0.836 0.0
C806 C 0.6336 0.92604 0.98425 0.0
H807 H 0.74407 0.93803 0.98589 0.0
H808 H 0.71246 0.92441 0.92055 0.0
H809 H 0.65227 0.9106 0.06259 0.0
H810 H 0.61142 0.00928 0.96983 0.0
H811 H 0.62592 0.97149 0.99995 0.0
H812 H 0.65214 0.92997 0.8245 0.0
C813 C 0.71333 0.9186 0.97119 0.0
C814 C 0.65205 0.91339 0.00969 0.0
C815 C 0.73178 0.92662 0.00925 0.0
C816 C 0.6123 0.99572 0.93211 0.0
C817 C 0.62019 0.97385 0.94942 0.0
C818 C 0.65125 0.92481 0.87579 0.0
C819 C 0.69479 0.9068 1.00085 0.0
C820 C 0.67139 0.90817 0.96959 0.0
C821 C 0.62206 0.95588 0.90154 0.0
C822 C 0.63448 0.9342 0.91901 0.0
H823 H 0.71629 0.90411 0.15777 0.0
H824 H 0.68413 0.88965 0.09094 0.0
H825 H 0.68308 0.90623 0.8673 0.0
H826 H 0.60253 0.98563 0.76771 0.0
H827 H 0.61629 0.94696 0.79789 0.0
C828 C 0.57753 0.7322 0.01366 0.0
C829 C 0.59127 0.73438 0.07072 0.0
C830 C 0.57817 0.71184 0.97539 0.0
C831 C 0.58622 0.65111 0.01144 0.0
H832 H 0.56342 0.64351 0.83183 0.0
C833 C 0.5369 0.56905 0.9326 0.0
C834 C 0.51559 0.57401 0.90251 0.0
C835 C 0.55392 0.58613 0.93836 0.0
C836 C 0.56995 0.6453 0.88196 0.0
H837 H 0.61874 0.71856 0.12724 0.0
H838 H 0.62016 0.68309 0.05968 0.0
H839 H 0.58195 0.67983 0.8655 0.0
H840 H 0.49566 0.60051 0.85326 0.0
H841 H 0.5251 0.63028 0.86385 0.0
H842 H 0.57302 0.61728 0.02931 0.0
C843 C 0.60843 0.69679 0.04552 0.0
C844 C 0.58059 0.66607 0.90119 0.0
C845 C 0.6077 0.71711 0.08403 0.0
C846 C 0.51195 0.59612 0.87637 0.0
C847 C 0.52893 0.61313 0.88196 0.0
C848 C 0.57562 0.63039 0.99223 0.0
C849 C 0.59262 0.69334 0.99338 0.0
C850 C 0.58776 0.66964 0.96714 0.0
C851 C 0.54998 0.60847 0.9139 0.0
C852 C 0.5663 0.62772 0.92832 0.0
H853 H 0.56463 0.74518 1.00235 0.0
H854 H 0.56566 0.70983 0.93581 0.0
H855 H 0.59131 0.65324 0.06283 0.0
H856 H 0.54041 0.55198 0.95179 0.0
H857 H 0.57 0.58197 0.96292 0.0
C858 C 0.77893 0.59182 0.99343 0.0
C859 C 0.77551 0.59837 0.06001 0.0
C860 C 0.79819 0.59977 0.95892 0.0
C861 C 0.84281 0.61451 0.89578 0.0
H862 H 0.89145 0.60018 0.02057 0.0
C863 C 0.9386 0.56815 0.91969 0.0
C864 C 0.93312 0.54865 0.88012 0.0
C865 C 0.92289 0.58647 0.92667 0.0
C866 C 0.87845 0.60493 0.98466 0.0
H867 H 0.78727 0.6211 0.13941 0.0
H868 H 0.82068 0.63549 0.07862 0.0
H869 H 0.85432 0.61264 0.06146 0.0
H870 H 0.90766 0.53398 0.81274 0.0
H871 H 0.88026 0.56542 0.82578 0.0
H872 H 0.86677 0.60483 0.81911 0.0
C873 C 0.80896 0.62364 0.05364 0.0
C874 C 0.85694 0.61218 0.0083 0.0
C875 C 0.7898 0.61548 0.08841 0.0
C876 C 0.9125 0.54876 0.84342 0.0
C877 C 0.89678 0.56696 0.85063 0.0
C878 C 0.86441 0.60722 0.87206 0.0
C879 C 0.81432 0.61451 0.99036 0.0
C880 C 0.83839 0.61549 0.96437 0.0
C881 C 0.9013 0.58553 0.8947 0.0
C882 C 0.88193 0.60082 0.91654 0.0
H883 H 0.76821 0.57862 0.97029 0.0
H884 H 0.80166 0.59228 0.91037 0.0
H885 H 0.82907 0.61755 0.86051 0.0
H886 H 0.95468 0.56886 0.94713 0.0
H887 H 0.92711 0.60075 0.95996 0.0
C888 C 0.02339 0.22789 1.00442 0.0
C889 C 0.04568 0.23745 1.00253 0.0
C890 C 0.01727 0.20946 0.9614 0.0
C891 C 0.03564 0.17557 0.80951 0.0
H892 H 1.00301 0.12543 0.89389 0.0
C893 C 0.02492 0.08383 0.68419 0.0
C894 C 1.00401 0.07214 0.69542 0.0
C895 C 0.02992 0.10471 0.71837 0.0
C896 C 0.01184 0.13932 0.86891 0.0
H897 H 0.07876 0.23563 0.95274 0.0
H898 H 0.06806 0.20402 0.87689 0.0
H899 H 0.01033 0.16119 0.95564 0.0
H900 H 0.97145 0.07388 0.74798 0.0
H901 H 0.98002 0.10988 0.80743 0.0
H902 H 0.03712 0.15358 0.72265 0.0
C903 C 0.05513 0.21074 0.911 0.0
C904 C 0.01603 0.15997 0.90455 0.0
C905 C 0.06127 0.22899 0.95429 0.0
C906 C 0.98798 0.08214 0.73968 0.0
C907 C 0.99297 0.10281 0.774 0.0
C908 C 0.03133 0.1549 0.77363 0.0
C909 C 0.0333 0.20012 0.91531 0.0
C910 C 0.02798 0.17848 0.87554 0.0
C911 C 0.01408 0.11443 0.76444 0.0
C912 C 0.01929 0.13643 0.80271 0.0
H913 H 0.01119 0.23364 0.04202 0.0
H914 H 1.00018 0.20201 0.96575 0.0
H915 H 0.04477 0.1894 0.78514 0.0
H916 H 0.0373 0.07691 0.64873 0.0
H917 H 0.04637 0.11301 0.70948 0.0
C918 C 0.28623 0.06587 0.90603 0.0
C919 C 0.2792 0.04854 0.94974 0.0
C920 C 0.30444 0.0619 0.86129 0.0
C921 C 0.34407 0.01614 0.79014 0.0
H922 H 0.38687 0.06752 0.77855 0.0
C923 C 0.43892 1.00449 0.70113 0.0
C924 C 0.44913 0.02223 0.66453 0.0
C925 C 0.4168 0.00734 0.72851 0.0
C926 C 0.37504 0.05304 0.78039 0.0
H927 H 0.28542 0.01333 0.98004 0.0
H928 H 0.31712 0.00623 0.90208 0.0
H929 H 0.35046 0.07272 0.83719 0.0
H930 H 0.44361 0.05603 0.62272 0.0
H931 H 0.40502 0.06137 0.67138 0.0
H932 H 0.36904 0.99636 0.73443 0.0
C933 C 0.30833 0.02279 0.90096 0.0
C934 C 0.35398 0.05604 0.81398 0.0
C935 C 0.29 0.02675 0.94548 0.0
C936 C 0.43636 0.04243 0.65273 0.0
C937 C 0.41428 0.04543 0.68061 0.0
C938 C 0.3652 0.01312 0.7567 0.0
C939 C 0.31639 0.04059 0.85981 0.0
C940 C 0.3382 0.03761 0.81989 0.0
C941 C 0.40424 0.02799 0.71945 0.0
C942 C 0.38112 0.03147 0.75188 0.0
H943 H 0.27856 0.08298 0.90937 0.0
H944 H 0.30974 0.07592 0.82967 0.0
H945 H 0.33233 1.0016 0.79261 0.0
H946 H 0.44815 0.9884 0.70887 0.0
H947 H 0.4098 0.99355 0.75817 0.0
C948 C 0.4917 0.28817 0.98986 0.0
C949 C 0.46876 0.2806 0.98343 0.0
C950 C 0.50038 0.30528 0.94798 0.0
C951 C 0.48875 0.33844 0.79415 0.0
H952 H 0.516 0.38974 0.89267 0.0
C953 C 0.51654 0.42468 0.67067 0.0
C954 C 0.50888 0.44495 0.70367 0.0
C955 C 0.51466 0.40304 0.70085 0.0
C956 C 0.50849 0.37555 0.86436 0.0
H957 H 0.43734 0.28388 0.92629 0.0
H958 H 0.45253 0.31326 0.8523 0.0
H959 H 0.50801 0.35346 0.94861 0.0
H960 H 0.49369 0.45836 0.79486 0.0
H961 H 0.49074 0.42079 0.84765 0.0
H962 H 0.48862 0.36089 0.71034 0.0
C963 C 0.46392 0.30607 0.88929 0.0
C964 C 0.50415 0.35463 0.89624 0.0
C965 C 0.4552 0.2892 0.93155 0.0
C966 C 0.49975 0.44313 0.76798 0.0
C967 C 0.49818 0.42158 0.79844 0.0
C968 C 0.49332 0.35932 0.76205 0.0
C969 C 0.48631 0.31499 0.89859 0.0
C970 C 0.49378 0.33596 0.86194 0.0
C971 C 0.50545 0.40124 0.76515 0.0
C972 C 0.50277 0.37829 0.79719 0.0
H973 H 0.50235 0.28207 0.03016 0.0
H974 H 0.51777 0.31162 0.95603 0.0
H975 H 0.48086 0.32437 0.76621 0.0
H976 H 0.52359 0.42545 0.62101 0.0
H977 H 0.5205 0.38772 0.67399 0.0
C978 C 0.23288 0.50212 0.98806 0.0
C979 C 0.24349 0.4802 0.98692 0.0
C980 C 0.21553 0.50747 0.942 0.0
C981 C 0.17054 0.47587 0.85066 0.0
H982 H 0.15521 0.53534 0.7754 0.0
C983 C 0.07817 0.49758 0.76544 0.0
C984 C 0.0754 0.50787 0.70326 0.0
C985 C 0.10006 0.49534 0.79407 0.0
C986 C 0.15934 0.51858 0.79574 0.0
H987 H 0.2456 0.44742 0.93385 0.0
H988 H 0.21597 0.45691 0.85243 0.0
H989 H 0.19258 0.53001 0.83088 0.0
H990 H 0.09376 0.52449 0.62335 0.0
H991 H 0.13202 0.52112 0.67423 0.0
H992 H 0.13729 0.46451 0.81707 0.0
C993 C 0.2207 0.46989 0.8893 0.0
C994 C 0.18069 0.51557 0.8278 0.0
C995 C 0.23798 0.46458 0.9352 0.0
C996 C 0.09515 0.5166 0.67143 0.0
C997 C 0.11712 0.51462 0.70053 0.0
C998 C 0.1492 0.47895 0.81948 0.0
C999 C 0.20841 0.49091 0.89422 0.0
C1000 C 0.18653 0.49415 0.85587 0.0
C1001 C 0.11986 0.50365 0.76185 0.0
C1002 C 0.14319 0.50038 0.7921 0.0
H1003 H 0.23638 0.51424 0.02836 0.0
H1004 H 0.20642 0.5238 0.94743 0.0
H1005 H 0.17421 0.45924 0.87253 0.0
H1006 H 0.06337 0.49154 0.79277 0.0
H1007 H 0.10144 0.48727 0.84204 0.0
C1008 C 0.00615 0.79987 0.23634 0.0
C1009 C 0.98412 0.78969 0.23737 0.0
C1010 C 0.01139 0.81878 0.27861 0.0
C1011 C 0.99101 0.853 0.42752 0.0
H1012 H 0.02161 0.90393 0.34087 0.0
C1013 C 0.99625 0.9461 0.54624 0.0
C1014 C 0.0166 0.95876 0.5353 0.0
C1015 C 0.99253 0.92476 0.51317 0.0
C1016 C 0.01333 0.88984 0.36647 0.0
H1017 H 0.95071 0.7907 0.28558 0.0
H1018 H 0.9599 0.82315 0.36004 0.0
H1019 H 0.01628 0.86736 0.28131 0.0
H1020 H 0.04954 0.95832 0.48457 0.0
H1021 H 0.04326 0.92139 0.42745 0.0
H1022 H 0.9881 0.87558 0.51285 0.0
C1023 C 0.97324 0.81664 0.32696 0.0
C1024 C 0.0103 0.86873 0.33211 0.0
C1025 C 0.96797 0.79794 0.28437 0.0
C1026 C 0.03341 0.94927 0.49253 0.0
C1027 C 0.02973 0.92808 0.45955 0.0
C1028 C 0.99418 0.87412 0.46215 0.0
C1029 C 0.99476 0.82789 0.32324 0.0
C1030 C 0.99906 0.84996 0.36193 0.0
C1031 C 0.00918 0.91549 0.46883 0.0
C1032 C 0.00539 0.8929 0.43213 0.0
H1033 H 0.01881 0.7942 0.19993 0.0
H1034 H 0.02826 0.82674 0.27485 0.0
H1035 H 0.98241 0.83895 0.45244 0.0
H1036 H 0.98334 0.95259 0.58076 0.0
H1037 H 0.97648 0.91568 0.52185 0.0
C1038 C 0.72857 0.97405 0.31851 0.0
C1039 C 0.7308 0.98265 0.25405 0.0
C1040 C 0.71017 0.98118 0.35952 0.0
C1041 C 0.64999 1.00118 0.34582 0.0
H1042 H 0.6546 0.01384 0.53453 0.0
C1043 C 0.56958 0.02796 0.50193 0.0
C1044 C 0.56808 0.0201 0.56723 0.0
C1045 C 0.58977 0.02434 0.46449 0.0
C1046 C 0.65285 0.01 0.48208 0.0
H1047 H 0.71573 1.00559 0.18219 0.0
H1048 H 0.68368 0.01822 0.25369 0.0
H1049 H 0.6896 0.00676 0.46972 0.0
H1050 H 0.58702 1.00418 0.64679 0.0
H1051 H 0.622 0.99708 0.58147 0.0
H1052 H 0.61332 1.00362 0.35798 0.0
C1053 C 0.69621 1.00609 0.2729 0.0
C1054 C 0.67304 1.00609 0.44481 0.0
C1055 C 0.71478 0.99919 0.23232 0.0
C1056 C 0.58748 0.00956 0.59557 0.0
C1057 C 0.60768 1.00591 0.55829 0.0
C1058 C 0.6298 1.00481 0.38315 0.0
C1059 C 0.69328 0.99669 0.33637 0.0
C1060 C 0.6719 1.00167 0.37612 0.0
C1061 C 0.60918 0.01318 0.49197 0.0
C1062 C 0.63085 0.00931 0.45197 0.0
H1063 H 0.74027 0.96077 0.33568 0.0
H1064 H 0.70838 0.97344 0.4078 0.0
H1065 H 0.64839 0.99738 0.29326 0.0
H1066 H 0.55513 0.03696 0.47986 0.0
H1067 H 0.59026 0.03076 0.4144 0.0
C1068 C 0.58193 0.73816 0.33595 0.0
C1069 C 0.56414 0.74835 0.29898 0.0
C1070 C 0.57695 0.72125 0.38261 0.0
C1071 C 0.53231 0.69115 0.4792 0.0
H1072 H 0.56697 0.63619 0.42791 0.0
C1073 C 0.50806 0.59874 0.56876 0.0
C1074 C 0.52536 0.58157 0.5699 0.0
C1075 C 0.51295 0.62105 0.54593 0.0
C1076 C 0.55745 0.65136 0.44449 0.0
H1077 H 0.52711 0.75024 0.28561 0.0
H1078 H 0.51827 0.72087 0.36874 0.0
H1079 H 0.57499 0.67258 0.37468 0.0
H1080 H 0.56212 0.57573 0.55782 0.0
H1081 H 0.57088 0.61446 0.52121 0.0
H1082 H 0.51494 0.66995 0.54985 0.0
C1083 C 0.53607 0.72602 0.36148 0.0
C1084 C 0.56201 0.67231 0.41342 0.0
C1085 C 0.54109 0.74295 0.31429 0.0
C1086 C 0.54809 0.58803 0.55423 0.0
C1087 C 0.55311 0.61039 0.53296 0.0
C1088 C 0.52799 0.67017 0.5114 0.0
C1089 C 0.55406 0.71416 0.3935 0.0
C1090 C 0.54949 0.69244 0.43013 0.0
C1091 C 0.53546 0.62703 0.52578 0.0
C1092 C 0.54045 0.64988 0.49429 0.0
H1093 H 0.59985 0.74186 0.32461 0.0
H1094 H 0.59115 0.71263 0.40714 0.0
H1095 H 0.52237 0.7064 0.49301 0.0
H1096 H 0.49051 0.59486 0.58324 0.0
H1097 H 0.49882 0.63325 0.54183 0.0
C1098 C 0.7792 0.55869 0.30244 0.0
C1099 C 0.77232 0.54506 0.24759 0.0
C1100 C 0.79711 0.55141 0.34396 0.0
C1101 C 0.85006 0.51618 0.33365 0.0
H1102 H 0.85517 0.53126 0.52108 0.0
C1103 C 0.93844 0.52381 0.46542 0.0
C1104 C 0.94076 0.51508 0.52987 0.0
C1105 C 0.9168 0.52482 0.43455 0.0
C1106 C 0.85399 0.5267 0.46891 0.0
H1107 H 0.77811 0.51268 0.19484 0.0
H1108 H 0.80923 0.49965 0.26798 0.0
H1109 H 0.81817 0.53629 0.46449 0.0
H1110 H 0.92181 0.50062 0.61223 0.0
H1111 H 0.88397 0.50252 0.55835 0.0
H1112 H 0.8859 0.50688 0.33773 0.0
C1113 C 0.80083 0.51606 0.27882 0.0
C1114 C 0.83279 0.52976 0.43629 0.0
C1115 C 0.78275 0.5233 0.23753 0.0
C1116 C 0.92073 0.50743 0.5626 0.0
C1117 C 0.89899 0.50863 0.53181 0.0
C1118 C 0.87126 0.51328 0.36612 0.0
C1119 C 0.80882 0.53041 0.33119 0.0
C1120 C 0.83059 0.52482 0.36795 0.0
C1121 C 0.89674 0.51728 0.46722 0.0
C1122 C 0.87364 0.51882 0.43398 0.0
H1123 H 0.77179 0.57576 0.31045 0.0
H1124 H 0.80283 0.56305 0.38322 0.0
H1125 H 0.8492 0.51244 0.28093 0.0
H1126 H 0.95339 0.52981 0.43837 0.0
H1127 H 0.91575 0.53189 0.38523 0.0
loop_
_geom_bond_atom_site_label_1
_geom_bond_atom_site_label_2
_geom_bond_distance
_geom_bond_site_symmetry_2
_ccdc_geom_bond_type
H0 C3 0.931 . S
H1 C6 0.928 . S
H2 C8 0.930 . S
C3 H0 0.931 . S
C3 C4 1.413 . S
C3 C5 1.360 . S
C4 C3 1.413 . S
C4 C8 1.429 . S
C5 C3 1.360 . S
C5 C6 1.372 . S
C6 H1 0.928 . S
C6 C5 1.372 . S
C6 C7 1.404 . S
C7 C6 1.404 . S
C7 C8 1.391 . S
C8 H2 0.930 . S
C8 C4 1.429 . S
C8 C7 1.391 . S
H9 C12 0.931 . S
H10 C15 0.928 . S
H11 C17 0.930 . S
C12 H9 0.931 . S
C12 C13 1.413 . S
C12 C14 1.360 . S
C13 C12 1.413 . S
C13 C17 1.429 . S
C14 C12 1.360 . S
C14 C15 1.372 . S
C15 H10 0.928 . S
C15 C14 1.372 . S
C15 C16 1.404 . S
C16 C15 1.404 . S
C16 C17 1.391 . S
C17 H11 0.930 . S
C17 C13 1.429 . S
C17 C16 1.391 . S
H18 C21 0.931 . S
H19 C24 0.928 . S
H20 C26 0.930 . S
C21 H18 0.931 . S
C21 C22 1.413 . S
C21 C23 1.360 . S
C22 C21 1.413 . S
C22 C26 1.429 . S
C23 C21 1.360 . S
C23 C24 1.372 . S
C24 H19 0.928 . S
C24 C23 1.372 . S
C24 C25 1.404 . S
C25 C24 1.404 . S
C25 C26 1.391 . S
C26 H20 0.930 . S
C26 C22 1.429 . S
C26 C25 1.391 . S
H27 C30 0.931 . S
H28 C33 0.928 . S
H29 C35 0.930 . S
C30 H27 0.931 . S
C30 C31 1.413 . S
C30 C32 1.360 . S
C31 C30 1.413 . S
C31 C35 1.429 . S
C32 C30 1.360 . S
C32 C33 1.372 . S
C33 H28 0.928 . S
C33 C32 1.372 . S
C33 C34 1.404 . S
C34 C33 1.404 . S
C34 C35 1.391 . S
C35 H29 0.930 . S
C35 C31 1.429 . S
C35 C34 1.391 . S
H36 C39 0.933 . S
H37 C42 0.928 . S
H38 C44 0.930 . S
C39 H36 0.933 . S
C39 C40 1.413 1_554 S
C39 C41 1.360 . S
C40 C39 1.413 1_556 S
C40 C44 1.429 . S
C41 C39 1.360 . S
C41 C42 1.372 . S
C42 H37 0.928 . S
C42 C41 1.372 . S
C42 C43 1.404 . S
C43 C42 1.404 . S
C43 C44 1.391 1_554 S
C44 H38 0.930 . S
C44 C40 1.429 . S
C44 C43 1.391 1_556 S
H45 C48 0.931 1_556 S
H46 C51 0.928 . S
H47 C53 0.930 . S
C48 H45 0.931 1_554 S
C48 C49 1.413 1_554 S
C48 C50 1.360 . S
C49 C48 1.413 1_556 S
C49 C53 1.429 . S
C50 C48 1.360 . S
C50 C51 1.372 . S
C51 H46 0.928 . S
C51 C50 1.372 . S
C51 C52 1.404 . S
C52 C51 1.404 . S
C52 C53 1.391 1_554 S
C53 H47 0.930 . S
C53 C49 1.429 . S
C53 C52 1.391 1_556 S
H54 C57 0.931 1_556 S
H55 C60 0.928 . S
H56 C62 0.930 . S
C57 H54 0.931 1_554 S
C57 C58 1.413 1_554 S
C57 C59 1.360 . S
C58 C57 1.413 1_556 S
C58 C62 1.429 . S
C59 C57 1.360 . S
C59 C60 1.372 . S
C60 H55 0.928 . S
C60 C59 1.372 . S
C60 C61 1.404 . S
C61 C60 1.404 . S
C61 C62 1.391 1_554 S
C62 H56 0.930 . S
C62 C58 1.429 . S
C62 C61 1.391 1_556 S
H63 C66 0.931 1_556 S
H64 C69 0.928 . S
H65 C71 0.930 . S
C66 H63 0.931 1_554 S
C66 C67 1.413 . S
C66 C68 1.360 1_554 S
C67 C66 1.413 . S
C67 C71 1.429 . S
C68 C66 1.360 1_556 S
C68 C69 1.372 . S
C69 H64 0.928 . S
C69 C68 1.372 . S
C69 C70 1.404 1_556 S
C70 C69 1.404 1_554 S
C70 C71 1.391 . S
C71 H65 0.930 . S
C71 C67 1.429 . S
C71 C70 1.391 . S
Gd72 N103 2.663 1_545 S
Gd72 N109 2.601 . S
Gd72 O116 2.545 . S
Gd72 O117 2.606 1_655 S
Gd72 O119 2.429 . S
Gd72 O120 2.545 1_655 S
Gd72 O121 2.412 . S
Gd72 O123 2.362 1_545 S
Gd72 O124 2.324 1_655 S
Gd72 C131 2.828 . S
Gd73 N82 2.661 1_565 S
Gd73 N86 2.601 . S
Gd73 O117 2.362 1_565 S
Gd73 O118 2.324 1_455 S
Gd73 O122 2.545 . S
Gd73 O123 2.606 1_455 S
Gd73 O125 2.429 . S
Gd73 O126 2.545 . S
Gd73 O127 2.412 . S
Gd73 C140 2.828 . S
C74 C77 1.417 . S
C74 C79 1.431 . S
C74 C80 1.412 . S
C75 C78 1.437 . S
C75 C79 1.317 . S
C75 H94 0.929 . S
C76 C77 1.426 . S
C76 C78 1.413 . S
C76 N86 1.359 1_545 S
C77 C74 1.417 . S
C77 C76 1.426 . S
C77 N82 1.350 . S
C78 C75 1.437 . S
C78 C76 1.413 . S
C78 C88 1.380 1_545 S
C79 C74 1.431 . S
C79 C75 1.317 . S
C79 H90 0.930 . S
C80 C74 1.412 . S
C80 C81 1.355 . S
C80 H92 0.930 . S
C81 C80 1.355 . S
C81 C83 1.402 . S
C81 H93 0.930 1_455 S
N82 Gd73 2.661 1_545 S
N82 C77 1.350 . S
N82 C83 1.307 . S
C83 C81 1.402 . S
C83 N82 1.307 . S
C83 H84 0.930 1_455 S
H84 C83 0.930 1_655 S
C85 N86 1.334 . S
C85 C87 1.394 . S
C85 H89 0.930 . S
N86 Gd73 2.601 . S
N86 C76 1.359 1_565 S
N86 C85 1.334 . S
C87 C85 1.394 . S
C87 C88 1.372 . S
C87 H99 0.930 . S
C88 C78 1.380 1_565 S
C88 C87 1.372 . S
C88 H100 0.926 1_565 S
H89 C85 0.930 . S
H90 C79 0.930 . S
H91 C108 0.930 . S
H92 C80 0.930 . S
H93 C81 0.930 1_655 S
H94 C75 0.929 . S
H95 C113 0.930 . S
H96 C104 0.930 . S
H97 C105 0.952 . S
H98 C129 0.929 . S
H99 C87 0.930 . S
H100 C88 0.926 1_545 S
H101 C130 0.930 . S
H102 C111 0.930 . S
N103 Gd72 2.663 1_565 S
N103 C107 1.350 . S
N103 C108 1.305 1_655 S
C104 H96 0.930 . S
C104 C105 1.332 1_655 S
C104 C106 1.412 . S
C105 H97 0.952 . S
C105 C104 1.332 1_455 S
C105 C108 1.404 . S
C106 C104 1.412 . S
C106 C107 1.417 . S
C106 C130 1.431 . S
C107 N103 1.350 . S
C107 C106 1.417 . S
C107 C110 1.426 1_565 S
C108 H91 0.930 . S
C108 N103 1.305 1_455 S
C108 C105 1.404 . S
N109 Gd72 2.601 . S
N109 C110 1.359 . S
N109 C113 1.334 . S
C110 C107 1.426 1_545 S
C110 N109 1.359 . S
C110 C114 1.413 . S
C111 H102 0.930 . S
C111 C112 1.359 . S
C111 C113 1.394 . S
C112 C111 1.359 . S
C112 C114 1.391 . S
C112 H115 0.929 . S
C113 H95 0.930 . S
C113 N109 1.334 . S
C113 C111 1.394 . S
C114 C110 1.413 . S
C114 C112 1.391 . S
C114 C129 1.437 1_545 S
H115 C112 0.929 . S
O116 Gd72 2.545 . S
O116 C131 1.258 . S
O117 Gd72 2.606 1_455 S
O117 Gd73 2.362 1_545 S
O117 C128 1.284 . S
O118 Gd73 2.324 1_655 S
O118 C138 1.254 1_565 S
O119 Gd72 2.429 . S
O119 C138 1.268 . S
O120 Gd72 2.545 1_455 S
O120 C128 1.250 . S
O121 Gd72 2.412 . S
O121 C131 1.252 . S
O122 Gd73 2.545 . S
O122 C140 1.258 . S
O123 Gd72 2.362 1_565 S
O123 Gd73 2.606 1_655 S
O123 C139 1.284 . S
O124 Gd72 2.324 1_455 S
O124 C147 1.254 . S
O125 Gd73 2.429 . S
O125 C147 1.268 1_565 S
O126 Gd73 2.545 . S
O126 C139 1.250 1_455 S
O127 Gd73 2.412 . S
O127 C140 1.252 . S
C128 O117 1.284 . S
C128 O120 1.250 . S
C129 H98 0.929 . S
C129 C114 1.437 1_565 S
C129 C130 1.317 . S
C130 H101 0.930 . S
C130 C106 1.431 . S
C130 C129 1.317 . S
C131 Gd72 2.828 . S
C131 O116 1.258 . S
C131 O121 1.252 . S
C131 C132 1.497 . S
C132 C131 1.497 . S
C132 C133 1.395 . S
C132 C134 1.380 . S
C133 C132 1.395 . S
C133 C136 1.398 . S
C133 H148 0.930 . S
C134 C132 1.380 . S
C134 C135 1.391 . S
C134 H149 0.930 1_655 S
C135 C134 1.391 . S
C135 C137 1.387 . S
C136 C133 1.398 . S
C136 C137 1.380 . S
C136 H150 0.930 . S
C137 C135 1.387 . S
C137 C136 1.380 . S
C137 H151 0.930 . S
C138 O118 1.254 1_545 S
C138 O119 1.268 . S
C139 O123 1.284 . S
C139 O126 1.250 1_655 S
C140 Gd73 2.828 . S
C140 O122 1.258 . S
C140 O127 1.252 . S
C140 C141 1.497 . S
C141 C140 1.497 . S
C141 C142 1.395 . S
C141 C143 1.380 . S
C142 C141 1.395 . S
C142 C145 1.398 . S
C142 H152 0.930 . S
C143 C141 1.380 . S
C143 C144 1.391 . S
C143 H153 0.913 1_455 S
C144 C143 1.391 . S
C144 C146 1.387 . S
C145 C142 1.398 . S
C145 C146 1.380 . S
C145 H154 0.930 . S
C146 C144 1.387 . S
C146 C145 1.380 . S
C146 H155 0.930 . S
C147 O124 1.254 . S
C147 O125 1.268 1_545 S
H148 C133 0.930 . S
H149 C134 0.930 1_455 S
H150 C136 0.930 . S
H151 C137 0.930 . S
H152 C142 0.930 . S
H153 C143 0.913 1_655 S
H154 C145 0.930 . S
H155 C146 0.930 . S
Gd156 N187 2.661 . S
Gd156 N193 2.601 . S
Gd156 O200 2.545 . S
Gd156 O201 2.606 1_565 S
Gd156 O203 2.429 . S
Gd156 O204 2.545 1_565 S
Gd156 O205 2.412 . S
Gd156 O207 2.362 . S
Gd156 O208 2.324 1_565 S
Gd156 C215 2.828 . S
Gd157 N166 2.661 . S
Gd157 N170 2.601 . S
Gd157 O201 2.362 . S
Gd157 O202 2.324 1_545 S
Gd157 O206 2.545 . S
Gd157 O207 2.606 1_545 S
Gd157 O209 2.429 . S
Gd157 O210 2.545 . S
Gd157 O211 2.412 . S
Gd157 C224 2.828 . S
C158 C161 1.417 . S
C158 C163 1.431 . S
C158 C164 1.412 . S
C159 C162 1.437 . S
C159 C163 1.317 . S
C159 H178 0.929 . S
C160 C161 1.426 . S
C160 C162 1.413 . S
C160 N170 1.359 . S
C161 C158 1.417 . S
C161 C160 1.426 . S
C161 N166 1.350 . S
C162 C159 1.437 . S
C162 C160 1.413 . S
C162 C172 1.391 . S
C163 C158 1.431 . S
C163 C159 1.317 . S
C163 H174 0.930 . S
C164 C158 1.412 . S
C164 C165 1.355 . S
C164 H176 0.930 . S
C165 C164 1.355 . S
C165 C167 1.402 . S
C165 H177 0.930 1_545 S
N166 Gd157 2.661 . S
N166 C161 1.350 . S
N166 C167 1.307 . S
C167 C165 1.402 . S
C167 N166 1.307 . S
C167 H168 0.930 1_545 S
H168 C167 0.930 1_565 S
C169 N170 1.334 . S
C169 C171 1.394 . S
C169 H173 0.930 . S
N170 Gd157 2.601 . S
N170 C160 1.359 . S
N170 C169 1.334 . S
C171 C169 1.394 . S
C171 C172 1.359 . S
C171 H183 0.930 . S
C172 C162 1.391 . S
C172 C171 1.359 . S
C172 H184 0.929 . S
H173 C169 0.930 . S
H174 C163 0.930 . S
H175 C192 0.930 . S
H176 C164 0.930 . S
H177 C165 0.930 1_565 S
H178 C159 0.929 . S
H179 C197 0.930 . S
H180 C188 0.930 . S
H181 C189 0.930 . S
H182 C213 0.929 . S
H183 C171 0.930 . S
H184 C172 0.929 . S
H185 C214 0.930 . S
H186 C195 0.930 . S
N187 Gd156 2.661 . S
N187 C191 1.350 . S
N187 C192 1.307 1_565 S
C188 H180 0.930 . S
C188 C189 1.355 1_565 S
C188 C190 1.412 . S
C189 H181 0.930 . S
C189 C188 1.355 1_545 S
C189 C192 1.402 . S
C190 C188 1.412 . S
C190 C191 1.417 . S
C190 C214 1.431 . S
C191 N187 1.350 . S
C191 C190 1.417 . S
C191 C194 1.426 . S
C192 H175 0.930 . S
C192 N187 1.307 1_545 S
C192 C189 1.402 . S
N193 Gd156 2.601 . S
N193 C194 1.359 . S
N193 C197 1.334 . S
C194 C191 1.426 . S
C194 N193 1.359 . S
C194 C198 1.413 . S
C195 H186 0.930 . S
C195 C196 1.359 . S
C195 C197 1.394 . S
C196 C195 1.359 . S
C196 C198 1.391 . S
C196 H199 0.929 . S
C197 H179 0.930 . S
C197 N193 1.334 . S
C197 C195 1.394 . S
C198 C194 1.413 . S
C198 C196 1.391 . S
C198 C213 1.437 . S
H199 C196 0.929 . S
O200 Gd156 2.545 . S
O200 C215 1.258 . S
O201 Gd156 2.606 1_545 S
O201 Gd157 2.362 . S
O201 C212 1.284 . S
O202 Gd157 2.324 1_565 S
O202 C222 1.254 . S
O203 Gd156 2.429 . S
O203 C222 1.268 . S
O204 Gd156 2.545 1_545 S
O204 C212 1.250 . S
O205 Gd156 2.412 . S
O205 C215 1.252 . S
O206 Gd157 2.545 . S
O206 C224 1.258 . S
O207 Gd156 2.362 . S
O207 Gd157 2.606 1_565 S
O207 C223 1.284 . S
O208 Gd156 2.324 1_545 S
O208 C231 1.254 . S
O209 Gd157 2.429 . S
O209 C231 1.268 . S
O210 Gd157 2.545 . S
O210 C223 1.250 1_545 S
O211 Gd157 2.412 . S
O211 C224 1.252 . S
C212 O201 1.284 . S
C212 O204 1.250 . S
C213 H182 0.929 . S
C213 C198 1.437 . S
C213 C214 1.317 . S
C214 H185 0.930 . S
C214 C190 1.431 . S
C214 C213 1.317 . S
C215 Gd156 2.828 . S
C215 O200 1.258 . S
C215 O205 1.252 . S
C215 C216 1.497 . S
C216 C215 1.497 . S
C216 C217 1.395 . S
C216 C218 1.380 . S
C217 C216 1.395 . S
C217 C220 1.398 . S
C217 H232 0.930 . S
C218 C216 1.380 . S
C218 C219 1.391 . S
C218 H233 0.930 1_565 S
C219 C218 1.391 . S
C219 C221 1.387 . S
C220 C217 1.398 . S
C220 C221 1.380 . S
C220 H234 0.930 . S
C221 C219 1.387 . S
C221 C220 1.380 . S
C221 H235 0.930 . S
C222 O202 1.254 . S
C222 O203 1.268 . S
C223 O207 1.284 . S
C223 O210 1.250 1_565 S
C224 Gd157 2.828 . S
C224 O206 1.258 . S
C224 O211 1.252 . S
C224 C225 1.497 . S
C225 C224 1.497 . S
C225 C226 1.395 . S
C225 C227 1.380 . S
C226 C225 1.395 . S
C226 C229 1.398 . S
C226 H236 0.930 . S
C227 C225 1.380 . S
C227 C228 1.391 . S
C227 H237 0.930 . S
C228 C227 1.391 . S
C228 C230 1.387 . S
C229 C226 1.398 . S
C229 C230 1.380 . S
C229 H238 0.930 . S
C230 C228 1.387 . S
C230 C229 1.380 . S
C230 H239 0.930 . S
C231 O208 1.254 . S
C231 O209 1.268 . S
H232 C217 0.930 . S
H233 C218 0.930 1_545 S
H234 C220 0.930 . S
H235 C221 0.930 . S
H236 C226 0.930 . S
H237 C227 0.930 . S
H238 C229 0.930 . S
H239 C230 0.930 . S
Gd240 N271 2.661 . S
Gd240 N277 2.601 . S
Gd240 O284 2.545 . S
Gd240 O285 2.606 . S
Gd240 O287 2.429 . S
Gd240 O288 2.545 . S
Gd240 O289 2.412 . S
Gd240 O291 2.362 . S
Gd240 O292 2.324 . S
Gd240 C299 2.828 . S
Gd241 N250 2.661 . S
Gd241 N254 2.601 . S
Gd241 O285 2.362 . S
Gd241 O286 2.324 . S
Gd241 O290 2.545 . S
Gd241 O291 2.606 . S
Gd241 O293 2.429 . S
Gd241 O294 2.545 . S
Gd241 O295 2.412 . S
Gd241 C308 2.828 . S
C242 C245 1.417 . S
C242 C247 1.431 . S
C242 C248 1.412 . S
C243 C246 1.437 . S
C243 C247 1.317 . S
C243 H262 0.929 . S
C244 C245 1.426 . S
C244 C246 1.413 . S
C244 N254 1.359 . S
C245 C242 1.417 . S
C245 C244 1.426 . S
C245 N250 1.350 . S
C246 C243 1.437 . S
C246 C244 1.413 . S
C246 C256 1.391 . S
C247 C242 1.431 . S
C247 C243 1.317 . S
C247 H258 0.930 . S
C248 C242 1.412 . S
C248 C249 1.355 . S
C248 H260 0.930 . S
C249 C248 1.355 . S
C249 C251 1.402 . S
C249 H261 0.930 . S
N250 Gd241 2.661 . S
N250 C245 1.350 . S
N250 C251 1.307 . S
C251 C249 1.402 . S
C251 N250 1.307 . S
C251 H252 0.930 . S
H252 C251 0.930 . S
C253 N254 1.334 . S
C253 C255 1.394 . S
C253 H257 0.930 . S
N254 Gd241 2.601 . S
N254 C244 1.359 . S
N254 C253 1.334 . S
C255 C253 1.394 . S
C255 C256 1.359 . S
C255 H267 0.930 . S
C256 C246 1.391 . S
C256 C255 1.359 . S
C256 H268 0.929 . S
H257 C253 0.930 . S
H258 C247 0.930 . S
H259 C276 0.930 . S
H260 C248 0.930 . S
H261 C249 0.930 . S
H262 C243 0.929 . S
H263 C281 0.930 . S
H264 C272 0.930 . S
H265 C273 0.930 . S
H266 C297 0.929 . S
H267 C255 0.930 . S
H268 C256 0.929 . S
H269 C298 0.930 . S
H270 C279 0.930 . S
N271 Gd240 2.661 . S
N271 C275 1.350 . S
N271 C276 1.307 . S
C272 H264 0.930 . S
C272 C273 1.355 . S
C272 C274 1.412 . S
C273 H265 0.930 . S
C273 C272 1.355 . S
C273 C276 1.402 . S
C274 C272 1.412 . S
C274 C275 1.417 . S
C274 C298 1.431 . S
C275 N271 1.350 . S
C275 C274 1.417 . S
C275 C278 1.426 . S
C276 H259 0.930 . S
C276 N271 1.307 . S
C276 C273 1.402 . S
N277 Gd240 2.601 . S
N277 C278 1.359 . S
N277 C281 1.334 . S
C278 C275 1.426 . S
C278 N277 1.359 . S
C278 C282 1.413 . S
C279 H270 0.930 . S
C279 C280 1.359 . S
C279 C281 1.394 . S
C280 C279 1.359 . S
C280 C282 1.391 . S
C280 H283 0.929 . S
C281 H263 0.930 . S
C281 N277 1.334 . S
C281 C279 1.394 . S
C282 C278 1.413 . S
C282 C280 1.391 . S
C282 C297 1.437 . S
H283 C280 0.929 . S
O284 Gd240 2.545 . S
O284 C299 1.258 . S
O285 Gd240 2.606 . S
O285 Gd241 2.362 . S
O285 C296 1.284 . S
O286 Gd241 2.324 . S
O286 C306 1.254 . S
O287 Gd240 2.429 . S
O287 C306 1.268 . S
O288 Gd240 2.545 . S
O288 C296 1.250 . S
O289 Gd240 2.412 . S
O289 C299 1.252 . S
O290 Gd241 2.545 . S
O290 C308 1.258 . S
O291 Gd240 2.362 . S
O291 Gd241 2.606 . S
O291 C307 1.284 . S
O292 Gd240 2.324 . S
O292 C315 1.254 . S
O293 Gd241 2.429 . S
O293 C315 1.268 . S
O294 Gd241 2.545 . S
O294 C307 1.250 . S
O295 Gd241 2.412 . S
O295 C308 1.252 . S
C296 O285 1.284 . S
C296 O288 1.250 . S
C297 H266 0.929 . S
C297 C282 1.437 . S
C297 C298 1.317 . S
C298 H269 0.930 . S
C298 C274 1.431 . S
C298 C297 1.317 . S
C299 Gd240 2.828 . S
C299 O284 1.258 . S
C299 O289 1.252 . S
C299 C300 1.497 . S
C300 C299 1.497 . S
C300 C301 1.395 . S
C300 C302 1.380 . S
C301 C300 1.395 . S
C301 C304 1.398 . S
C301 H316 0.930 . S
C302 C300 1.380 . S
C302 C303 1.391 . S
C302 H317 0.930 . S
C303 C302 1.391 . S
C303 C305 1.387 . S
C304 C301 1.398 . S
C304 C305 1.380 . S
C304 H318 0.930 . S
C305 C303 1.387 . S
C305 C304 1.380 . S
C305 H319 0.930 . S
C306 O286 1.254 . S
C306 O287 1.268 . S
C307 O291 1.284 . S
C307 O294 1.250 . S
C308 Gd241 2.828 . S
C308 O290 1.258 . S
C308 O295 1.252 . S
C308 C309 1.497 . S
C309 C308 1.497 . S
C309 C310 1.395 . S
C309 C311 1.380 . S
C310 C309 1.395 . S
C310 C313 1.398 . S
C310 H320 0.930 . S
C311 C309 1.380 . S
C311 C312 1.391 . S
C311 H321 0.930 . S
C312 C311 1.391 . S
C312 C314 1.387 . S
C313 C310 1.398 . S
C313 C314 1.380 . S
C313 H322 0.930 . S
C314 C312 1.387 . S
C314 C313 1.380 . S
C314 H323 0.930 . S
C315 O292 1.254 . S
C315 O293 1.268 . S
H316 C301 0.930 . S
H317 C302 0.930 . S
H318 C304 0.930 . S
H319 C305 0.930 . S
H320 C310 0.930 . S
H321 C311 0.930 . S
H322 C313 0.930 . S
H323 C314 0.930 . S
Gd324 N355 2.661 . S
Gd324 N361 2.601 . S
Gd324 O368 2.545 . S
Gd324 O369 2.600 1_655 S
Gd324 O371 2.429 1_655 S
Gd324 O372 2.545 . S
Gd324 O373 2.412 . S
Gd324 O375 2.362 1_655 S
Gd324 O376 2.324 . S
Gd324 C383 2.828 . S
Gd325 N334 2.661 . S
Gd325 N338 2.601 . S
Gd325 O369 2.372 . S
Gd325 O370 2.324 . S
Gd325 O374 2.545 . S
Gd325 O375 2.606 . S
Gd325 O377 2.429 1_455 S
Gd325 O378 2.545 . S
Gd325 O379 2.412 . S
Gd325 C392 2.828 . S
C326 C329 1.417 . S
C326 C331 1.431 . S
C326 C332 1.412 . S
C327 C330 1.437 . S
C327 C331 1.317 . S
C327 H346 0.929 . S
C328 C329 1.426 . S
C328 C330 1.413 . S
C328 N338 1.359 . S
C329 C326 1.417 . S
C329 C328 1.426 . S
C329 N334 1.350 . S
C330 C327 1.437 . S
C330 C328 1.413 . S
C330 C340 1.391 . S
C331 C326 1.431 . S
C331 C327 1.317 . S
C331 H342 0.930 . S
C332 C326 1.412 . S
C332 C333 1.355 . S
C332 H344 0.930 . S
C333 C332 1.355 . S
C333 C335 1.402 . S
C333 H345 0.930 . S
N334 Gd325 2.661 . S
N334 C329 1.350 . S
N334 C335 1.307 . S
C335 C333 1.402 . S
C335 N334 1.307 . S
C335 H336 0.930 . S
H336 C335 0.930 . S
C337 N338 1.334 . S
C337 C339 1.398 . S
C337 H341 0.930 1_455 S
N338 Gd325 2.601 . S
N338 C328 1.359 . S
N338 C337 1.334 . S
C339 C337 1.398 . S
C339 C340 1.375 . S
C339 H351 0.912 1_455 S
C340 C330 1.391 . S
C340 C339 1.375 . S
C340 H352 0.929 . S
H341 C337 0.930 1_655 S
H342 C331 0.930 . S
H343 C360 0.930 . S
H344 C332 0.930 . S
H345 C333 0.930 . S
H346 C327 0.929 . S
H347 C365 0.930 . S
H348 C356 0.930 . S
H349 C357 0.930 . S
H350 C381 0.929 . S
H351 C339 0.912 1_655 S
H352 C340 0.929 . S
H353 C382 0.930 . S
H354 C363 0.930 . S
N355 Gd324 2.661 . S
N355 C359 1.350 . S
N355 C360 1.307 . S
C356 H348 0.930 . S
C356 C357 1.355 . S
C356 C358 1.412 . S
C357 H349 0.930 . S
C357 C356 1.355 . S
C357 C360 1.402 . S
C358 C356 1.412 . S
C358 C359 1.417 . S
C358 C382 1.431 . S
C359 N355 1.350 . S
C359 C358 1.417 . S
C359 C362 1.426 . S
C360 H343 0.930 . S
C360 N355 1.307 . S
C360 C357 1.402 . S
N361 Gd324 2.601 . S
N361 C362 1.359 . S
N361 C365 1.334 1_655 S
C362 C359 1.426 . S
C362 N361 1.359 . S
C362 C366 1.413 . S
C363 H354 0.930 . S
C363 C364 1.359 1_455 S
C363 C365 1.394 . S
C364 C363 1.359 1_655 S
C364 C366 1.391 . S
C364 H367 0.929 . S
C365 H347 0.930 . S
C365 N361 1.334 1_455 S
C365 C363 1.394 . S
C366 C362 1.413 . S
C366 C364 1.391 . S
C366 C381 1.437 . S
H367 C364 0.929 . S
O368 Gd324 2.545 . S
O368 C383 1.258 . S
O369 Gd324 2.600 1_455 S
O369 Gd325 2.372 . S
O369 C380 1.277 1_455 S
O370 Gd325 2.324 . S
O370 C390 1.254 . S
O371 Gd324 2.429 1_455 S
O371 C390 1.268 . S
O372 Gd324 2.545 . S
O372 C380 1.250 . S
O373 Gd324 2.412 . S
O373 C383 1.252 . S
O374 Gd325 2.545 . S
O374 C392 1.258 . S
O375 Gd324 2.362 1_455 S
O375 Gd325 2.606 . S
O375 C391 1.284 . S
O376 Gd324 2.324 . S
O376 C399 1.254 . S
O377 Gd325 2.429 1_655 S
O377 C399 1.268 . S
O378 Gd325 2.545 . S
O378 C391 1.250 . S
O379 Gd325 2.412 . S
O379 C392 1.252 . S
C380 O369 1.277 1_655 S
C380 O372 1.250 . S
C381 H350 0.929 . S
C381 C366 1.437 . S
C381 C382 1.317 . S
C382 H353 0.930 . S
C382 C358 1.431 . S
C382 C381 1.317 . S
C383 Gd324 2.828 . S
C383 O368 1.258 . S
C383 O373 1.252 . S
C383 C384 1.497 . S
C384 C383 1.497 . S
C384 C385 1.395 . S
C384 C386 1.380 . S
C385 C384 1.395 . S
C385 C388 1.398 . S
C385 H400 0.930 . S
C386 C384 1.380 . S
C386 C387 1.391 . S
C386 H401 0.930 . S
C387 C386 1.391 . S
C387 C389 1.387 . S
C388 C385 1.398 . S
C388 C389 1.380 . S
C388 H402 0.930 . S
C389 C387 1.387 . S
C389 C388 1.380 . S
C389 H403 0.930 . S
C390 O370 1.254 . S
C390 O371 1.268 . S
C391 O375 1.284 . S
C391 O378 1.250 . S
C392 Gd325 2.828 . S
C392 O374 1.258 . S
C392 O379 1.252 . S
C392 C393 1.497 . S
C393 C392 1.497 . S
C393 C394 1.395 . S
C393 C395 1.380 . S
C394 C393 1.395 . S
C394 C397 1.398 . S
C394 H404 0.930 . S
C395 C393 1.380 . S
C395 C396 1.391 . S
C395 H405 0.930 . S
C396 C395 1.391 . S
C396 C398 1.387 . S
C397 C394 1.398 . S
C397 C398 1.380 . S
C397 H406 0.930 . S
C398 C396 1.387 . S
C398 C397 1.380 . S
C398 H407 0.930 . S
C399 O376 1.254 . S
C399 O377 1.268 . S
H400 C385 0.930 . S
H401 C386 0.930 . S
H402 C388 0.930 . S
H403 C389 0.930 . S
H404 C394 0.930 . S
H405 C395 0.930 . S
H406 C397 0.930 . S
H407 C398 0.930 . S
C408 C409 1.349 . S
C408 C410 1.327 . S
C408 H433 0.950 . S
C409 C408 1.349 . S
C409 C425 1.349 . S
C410 C408 1.327 . S
C410 C429 1.429 . S
C410 H434 0.950 . S
C411 C428 1.574 . S
C411 C430 1.368 . S
C411 H435 0.949 . S
H412 C416 0.949 . S
C413 C414 1.349 . S
C413 C415 1.327 . S
C413 H436 0.950 1_545 S
C414 C413 1.349 . S
C414 C426 1.349 . S
C415 C413 1.327 . S
C415 C431 1.429 . S
C415 H437 0.950 . S
C416 H412 0.949 . S
C416 C424 1.574 . S
C416 C432 1.368 . S
H417 C425 0.950 . S
H418 C423 0.950 . S
H419 C424 0.949 . S
H420 C426 0.950 . S
H421 C427 0.950 . S
H422 C428 0.949 . S
C423 H418 0.950 . S
C423 C425 1.327 . S
C423 C429 1.429 . S
C424 C416 1.574 . S
C424 H419 0.949 . S
C424 C430 1.368 . S
C425 C409 1.349 . S
C425 H417 0.950 . S
C425 C423 1.327 . S
C426 C414 1.349 . S
C426 H420 0.950 . S
C426 C427 1.327 . S
C427 H421 0.950 . S
C427 C426 1.327 . S
C427 C431 1.429 . S
C428 C411 1.574 . S
C428 H422 0.949 . S
C428 C432 1.368 . S
C429 C410 1.429 . S
C429 C423 1.429 . S
C429 C430 1.523 . S
C430 C411 1.368 . S
C430 C424 1.368 . S
C430 C429 1.523 . S
C431 C415 1.429 . S
C431 C427 1.429 . S
C431 C432 1.523 . S
C432 C416 1.368 . S
C432 C428 1.368 . S
C432 C431 1.523 . S
H433 C408 0.950 . S
H434 C410 0.950 . S
H435 C411 0.949 . S
H436 C413 0.950 1_565 S
H437 C415 0.950 . S
C438 C439 1.349 . S
C438 C440 1.327 . S
C438 H463 0.950 . S
C439 C438 1.349 . S
C439 C455 1.349 . S
C440 C438 1.327 . S
C440 C459 1.429 . S
C440 H464 0.950 . S
C441 C458 1.574 . S
C441 C460 1.368 . S
C441 H465 0.949 . S
H442 C446 0.949 . S
C443 C444 1.349 . S
C443 C445 1.327 . S
C443 H466 0.950 . S
C444 C443 1.349 . S
C444 C456 1.349 . S
C445 C443 1.327 . S
C445 C461 1.429 . S
C445 H467 0.950 . S
C446 H442 0.949 . S
C446 C454 1.574 . S
C446 C462 1.368 . S
H447 C455 0.950 . S
H448 C453 0.950 . S
H449 C454 0.949 . S
H450 C456 0.950 . S
H451 C457 0.950 . S
H452 C458 0.949 . S
C453 H448 0.950 . S
C453 C455 1.327 . S
C453 C459 1.429 . S
C454 C446 1.574 . S
C454 H449 0.949 . S
C454 C460 1.368 . S
C455 C439 1.349 . S
C455 H447 0.950 . S
C455 C453 1.327 . S
C456 C444 1.349 . S
C456 H450 0.950 . S
C456 C457 1.327 . S
C457 H451 0.950 . S
C457 C456 1.327 . S
C457 C461 1.429 . S
C458 C441 1.574 . S
C458 H452 0.949 . S
C458 C462 1.368 . S
C459 C440 1.429 . S
C459 C453 1.429 . S
C459 C460 1.523 . S
C460 C441 1.368 . S
C460 C454 1.368 . S
C460 C459 1.523 . S
C461 C445 1.429 . S
C461 C457 1.429 . S
C461 C462 1.523 . S
C462 C446 1.368 . S
C462 C458 1.368 . S
C462 C461 1.523 . S
H463 C438 0.950 . S
H464 C440 0.950 . S
H465 C441 0.949 . S
H466 C443 0.950 . S
H467 C445 0.950 . S
C468 C469 1.349 . S
C468 C470 1.327 . S
C468 H493 0.950 . S
C469 C468 1.349 . S
C469 C485 1.349 . S
C470 C468 1.327 . S
C470 C489 1.429 . S
C470 H494 0.950 . S
C471 C488 1.574 . S
C471 C490 1.368 . S
C471 H495 0.949 . S
H472 C476 0.949 . S
C473 C474 1.349 . S
C473 C475 1.327 . S
C473 H496 0.950 . S
C474 C473 1.349 . S
C474 C486 1.349 . S
C475 C473 1.327 . S
C475 C491 1.429 . S
C475 H497 0.950 . S
C476 H472 0.949 . S
C476 C484 1.574 . S
C476 C492 1.368 . S
H477 C485 0.950 . S
H478 C483 0.950 . S
H479 C484 0.949 . S
H480 C486 0.950 . S
H481 C487 0.950 . S
H482 C488 0.949 . S
C483 H478 0.950 . S
C483 C485 1.327 . S
C483 C489 1.429 . S
C484 C476 1.574 . S
C484 H479 0.949 . S
C484 C490 1.368 . S
C485 C469 1.349 . S
C485 H477 0.950 . S
C485 C483 1.327 . S
C486 C474 1.349 . S
C486 H480 0.950 . S
C486 C487 1.327 . S
C487 H481 0.950 . S
C487 C486 1.327 . S
C487 C491 1.429 . S
C488 C471 1.574 . S
C488 H482 0.949 . S
C488 C492 1.368 . S
C489 C470 1.429 . S
C489 C483 1.429 . S
C489 C490 1.523 . S
C490 C471 1.368 . S
C490 C484 1.368 . S
C490 C489 1.523 . S
C491 C475 1.429 . S
C491 C487 1.429 . S
C491 C492 1.523 . S
C492 C476 1.368 . S
C492 C488 1.368 . S
C492 C491 1.523 . S
H493 C468 0.950 . S
H494 C470 0.950 . S
H495 C471 0.949 . S
H496 C473 0.950 . S
H497 C475 0.950 . S
C498 C499 1.349 . S
C498 C500 1.327 . S
C498 H523 0.950 . S
C499 C498 1.349 . S
C499 C515 1.349 . S
C500 C498 1.327 . S
C500 C519 1.429 . S
C500 H524 0.950 . S
C501 C518 1.574 . S
C501 C520 1.368 . S
C501 H525 0.949 . S
H502 C506 0.949 . S
C503 C504 1.349 . S
C503 C505 1.327 . S
C503 H526 0.950 . S
C504 C503 1.349 . S
C504 C516 1.349 . S
C505 C503 1.327 . S
C505 C521 1.429 . S
C505 H527 0.950 . S
C506 H502 0.949 . S
C506 C514 1.574 . S
C506 C522 1.368 . S
H507 C515 0.950 . S
H508 C513 0.950 . S
H509 C514 0.949 . S
H510 C516 0.950 . S
H511 C517 0.950 . S
H512 C518 0.949 . S
C513 H508 0.950 . S
C513 C515 1.327 . S
C513 C519 1.429 . S
C514 C506 1.574 . S
C514 H509 0.949 . S
C514 C520 1.368 . S
C515 C499 1.349 . S
C515 H507 0.950 . S
C515 C513 1.327 . S
C516 C504 1.349 . S
C516 H510 0.950 . S
C516 C517 1.327 . S
C517 H511 0.950 . S
C517 C516 1.327 . S
C517 C521 1.429 . S
C518 C501 1.574 . S
C518 H512 0.949 . S
C518 C522 1.368 . S
C519 C500 1.429 . S
C519 C513 1.429 . S
C519 C520 1.523 . S
C520 C501 1.368 . S
C520 C514 1.368 . S
C520 C519 1.523 . S
C521 C505 1.429 . S
C521 C517 1.429 . S
C521 C522 1.523 . S
C522 C506 1.368 . S
C522 C518 1.368 . S
C522 C521 1.523 . S
H523 C498 0.950 . S
H524 C500 0.950 . S
H525 C501 0.949 . S
H526 C503 0.950 . S
H527 C505 0.950 . S
C528 C529 1.349 . S
C528 C530 1.327 . S
C528 H553 0.950 . S
C529 C528 1.349 . S
C529 C545 1.349 . S
C530 C528 1.327 . S
C530 C549 1.429 . S
C530 H554 0.950 1_554 S
C531 C548 1.574 1_554 S
C531 C550 1.368 1_554 S
C531 H555 0.949 . S
H532 C536 0.949 . S
C533 C534 1.349 . S
C533 C535 1.327 . S
C533 H556 0.950 1_565 S
C534 C533 1.349 . S
C534 C546 1.349 . S
C535 C533 1.327 . S
C535 C551 1.429 . S
C535 H557 0.950 . S
C536 H532 0.949 . S
C536 C544 1.574 . S
C536 C552 1.368 . S
H537 C545 0.950 . S
H538 C543 0.950 . S
H539 C544 0.949 . S
H540 C546 0.950 . S
H541 C547 0.950 . S
H542 C548 0.949 . S
C543 H538 0.950 . S
C543 C545 1.327 . S
C543 C549 1.429 . S
C544 C536 1.574 . S
C544 H539 0.949 . S
C544 C550 1.368 . S
C545 C529 1.349 . S
C545 H537 0.950 . S
C545 C543 1.327 . S
C546 C534 1.349 . S
C546 H540 0.950 . S
C546 C547 1.327 . S
C547 H541 0.950 . S
C547 C546 1.327 . S
C547 C551 1.429 . S
C548 C531 1.574 1_556 S
C548 H542 0.949 . S
C548 C552 1.368 . S
C549 C530 1.429 . S
C549 C543 1.429 . S
C549 C550 1.523 1_554 S
C550 C531 1.368 1_556 S
C550 C544 1.368 . S
C550 C549 1.523 1_556 S
C551 C535 1.429 . S
C551 C547 1.429 . S
C551 C552 1.523 . S
C552 C536 1.368 . S
C552 C548 1.368 . S
C552 C551 1.523 . S
H553 C528 0.950 . S
H554 C530 0.950 1_556 S
H555 C531 0.949 . S
H556 C533 0.950 1_545 S
H557 C535 0.950 . S
C558 C559 1.349 . S
C558 C560 1.327 . S
C558 H583 0.950 . S
C559 C558 1.349 . S
C559 C575 1.349 . S
C560 C558 1.327 . S
C560 C579 1.429 . S
C560 H584 0.950 . S
C561 C578 1.574 . S
C561 C580 1.368 . S
C561 H585 0.949 . S
H562 C566 0.949 . S
C563 C564 1.349 . S
C563 C565 1.327 . S
C563 H586 0.950 . S
C564 C563 1.349 . S
C564 C576 1.349 . S
C565 C563 1.327 . S
C565 C581 1.429 . S
C565 H587 0.950 . S
C566 H562 0.949 . S
C566 C574 1.574 . S
C566 C582 1.368 . S
H567 C575 0.950 . S
H568 C573 0.950 . S
H569 C574 0.949 1_554 S
H570 C576 0.950 . S
H571 C577 0.950 . S
H572 C578 0.949 . S
C573 H568 0.950 . S
C573 C575 1.327 . S
C573 C579 1.429 . S
C574 C566 1.574 . S
C574 H569 0.949 1_556 S
C574 C580 1.368 . S
C575 C559 1.349 . S
C575 H567 0.950 . S
C575 C573 1.327 . S
C576 C564 1.349 . S
C576 H570 0.950 . S
C576 C577 1.327 . S
C577 H571 0.950 . S
C577 C576 1.327 . S
C577 C581 1.429 . S
C578 C561 1.574 . S
C578 H572 0.949 . S
C578 C582 1.368 . S
C579 C560 1.429 . S
C579 C573 1.429 . S
C579 C580 1.523 1_554 S
C580 C561 1.368 . S
C580 C574 1.368 . S
C580 C579 1.523 1_556 S
C581 C565 1.429 . S
C581 C577 1.429 . S
C581 C582 1.523 . S
C582 C566 1.368 . S
C582 C578 1.368 . S
C582 C581 1.523 . S
H583 C558 0.950 . S
H584 C560 0.950 . S
H585 C561 0.949 . S
H586 C563 0.950 . S
H587 C565 0.950 . S
C588 C589 1.349 . S
C588 C590 1.327 . S
C588 H613 0.950 . S
C589 C588 1.349 . S
C589 C605 1.349 . S
C590 C588 1.327 . S
C590 C609 1.429 . S
C590 H614 0.950 . S
C591 C608 1.574 . S
C591 C610 1.368 . S
C591 H615 0.949 . S
H592 C596 0.949 . S
C593 C594 1.349 . S
C593 C595 1.327 . S
C593 H616 0.950 . S
C594 C593 1.349 . S
C594 C606 1.349 . S
C595 C593 1.327 . S
C595 C611 1.429 . S
C595 H617 0.950 . S
C596 H592 0.949 . S
C596 C604 1.574 . S
C596 C612 1.368 . S
H597 C605 0.950 . S
H598 C603 0.950 . S
H599 C604 0.949 1_554 S
H600 C606 0.950 . S
H601 C607 0.950 . S
H602 C608 0.949 . S
C603 H598 0.950 . S
C603 C605 1.327 . S
C603 C609 1.429 . S
C604 C596 1.574 . S
C604 H599 0.949 1_556 S
C604 C610 1.368 . S
C605 C589 1.349 . S
C605 H597 0.950 . S
C605 C603 1.327 . S
C606 C594 1.349 . S
C606 H600 0.950 . S
C606 C607 1.327 . S
C607 H601 0.950 . S
C607 C606 1.327 . S
C607 C611 1.429 . S
C608 C591 1.574 . S
C608 H602 0.949 . S
C608 C612 1.368 . S
C609 C590 1.429 . S
C609 C603 1.429 . S
C609 C610 1.523 1_554 S
C610 C591 1.368 . S
C610 C604 1.368 . S
C610 C609 1.523 1_556 S
C611 C595 1.429 . S
C611 C607 1.429 . S
C611 C612 1.523 . S
C612 C596 1.368 . S
C612 C608 1.368 . S
C612 C611 1.523 . S
H613 C588 0.950 . S
H614 C590 0.950 . S
H615 C591 0.949 . S
H616 C593 0.950 . S
H617 C595 0.950 . S
C618 C619 1.349 . S
C618 C620 1.327 . S
C618 H643 0.950 . S
C619 C618 1.349 . S
C619 C635 1.349 . S
C620 C618 1.327 . S
C620 C639 1.429 . S
C620 H644 0.950 . S
C621 C638 1.574 . S
C621 C640 1.368 . S
C621 H645 0.949 1_556 S
H622 C626 0.949 . S
C623 C624 1.349 . S
C623 C625 1.327 . S
C623 H646 0.950 . S
C624 C623 1.349 . S
C624 C636 1.349 . S
C625 C623 1.327 . S
C625 C641 1.429 . S
C625 H647 0.950 . S
C626 H622 0.949 . S
C626 C634 1.574 . S
C626 C642 1.368 . S
H627 C635 0.950 . S
H628 C633 0.950 . S
H629 C634 0.949 . S
H630 C636 0.950 1_455 S
H631 C637 0.950 . S
H632 C638 0.949 . S
C633 H628 0.950 . S
C633 C635 1.327 . S
C633 C639 1.429 . S
C634 C626 1.574 . S
C634 H629 0.949 . S
C634 C640 1.368 . S
C635 C619 1.349 . S
C635 H627 0.950 . S
C635 C633 1.327 . S
C636 C624 1.349 . S
C636 H630 0.950 1_655 S
C636 C637 1.327 . S
C637 H631 0.950 . S
C637 C636 1.327 . S
C637 C641 1.429 . S
C638 C621 1.574 . S
C638 H632 0.949 . S
C638 C642 1.368 . S
C639 C620 1.429 . S
C639 C633 1.429 . S
C639 C640 1.523 1_554 S
C640 C621 1.368 . S
C640 C634 1.368 . S
C640 C639 1.523 1_556 S
C641 C625 1.429 . S
C641 C637 1.429 . S
C641 C642 1.523 . S
C642 C626 1.368 . S
C642 C638 1.368 . S
C642 C641 1.523 . S
H643 C618 0.950 . S
H644 C620 0.950 . S
H645 C621 0.949 1_554 S
H646 C623 0.950 . S
H647 C625 0.950 . S
C648 C649 1.349 . S
C648 C650 1.327 . S
C648 H673 0.950 . S
C649 C648 1.349 . S
C649 C665 1.349 . S
C650 C648 1.327 . S
C650 C669 1.429 . S
C650 H674 0.950 . S
C651 C668 1.574 . S
C651 C670 1.368 . S
C651 H675 0.949 . S
H652 C656 0.949 . S
C653 C654 1.349 1_455 S
C653 C655 1.327 . S
C653 H676 0.950 1_455 S
C654 C653 1.349 1_655 S
C654 C666 1.351 1_655 S
C655 C653 1.327 . S
C655 C671 1.429 . S
C655 H677 0.950 . S
C656 H652 0.949 . S
C656 C664 1.574 . S
C656 C672 1.368 . S
H657 C665 0.950 . S
H658 C663 0.950 . S
H659 C664 0.949 . S
H660 C666 0.950 . S
H661 C667 0.950 . S
H662 C668 0.949 . S
C663 H658 0.950 . S
C663 C665 1.327 . S
C663 C669 1.429 . S
C664 C656 1.574 . S
C664 H659 0.949 . S
C664 C670 1.368 . S
C665 C649 1.349 . S
C665 H657 0.950 . S
C665 C663 1.327 . S
C666 C654 1.351 1_455 S
C666 H660 0.950 . S
C666 C667 1.327 . S
C667 H661 0.950 . S
C667 C666 1.327 . S
C667 C671 1.429 . S
C668 C651 1.574 . S
C668 H662 0.949 . S
C668 C672 1.368 . S
C669 C650 1.429 . S
C669 C663 1.429 . S
C669 C670 1.523 . S
C670 C651 1.368 . S
C670 C664 1.368 . S
C670 C669 1.523 . S
C671 C655 1.429 . S
C671 C667 1.429 . S
C671 C672 1.523 . S
C672 C656 1.368 . S
C672 C668 1.368 . S
C672 C671 1.523 . S
H673 C648 0.950 . S
H674 C650 0.950 . S
H675 C651 0.949 . S
H676 C653 0.950 1_655 S
H677 C655 0.950 . S
C678 C679 1.349 . S
C678 C680 1.327 . S
C678 H703 0.950 . S
C679 C678 1.349 . S
C679 C695 1.349 . S
C680 C678 1.327 . S
C680 C699 1.429 . S
C680 H704 0.950 . S
C681 C698 1.574 . S
C681 C700 1.368 . S
C681 H705 0.949 . S
H682 C686 0.949 . S
C683 C684 1.350 . S
C683 C685 1.327 . S
C683 H706 0.950 . S
C684 C683 1.350 . S
C684 C696 1.347 1_565 S
C685 C683 1.327 . S
C685 C701 1.429 1_565 S
C685 H707 0.950 . S
C686 H682 0.949 . S
C686 C694 1.574 . S
C686 C702 1.368 . S
H687 C695 0.950 . S
H688 C693 0.950 . S
H689 C694 0.949 . S
H690 C696 0.950 . S
H691 C697 0.950 . S
H692 C698 0.935 1_565 S
C693 H688 0.950 . S
C693 C695 1.327 . S
C693 C699 1.429 . S
C694 C686 1.574 . S
C694 H689 0.949 . S
C694 C700 1.368 . S
C695 C679 1.349 . S
C695 H687 0.950 . S
C695 C693 1.327 . S
C696 C684 1.347 1_545 S
C696 H690 0.950 . S
C696 C697 1.327 . S
C697 H691 0.950 . S
C697 C696 1.327 . S
C697 C701 1.429 . S
C698 C681 1.574 . S
C698 H692 0.935 1_545 S
C698 C702 1.368 . S
C699 C680 1.429 . S
C699 C693 1.429 . S
C699 C700 1.523 . S
C700 C681 1.368 . S
C700 C694 1.368 . S
C700 C699 1.523 . S
C701 C685 1.429 1_545 S
C701 C697 1.429 . S
C701 C702 1.523 . S
C702 C686 1.368 . S
C702 C698 1.368 . S
C702 C701 1.523 . S
H703 C678 0.950 . S
H704 C680 0.950 . S
H705 C681 0.949 . S
H706 C683 0.950 . S
H707 C685 0.950 . S
C708 C709 1.349 . S
C708 C710 1.327 . S
C708 H733 0.950 . S
C709 C708 1.349 . S
C709 C725 1.349 . S
C710 C708 1.327 . S
C710 C729 1.429 . S
C710 H734 0.950 . S
C711 C728 1.574 . S
C711 C730 1.368 . S
C711 H735 0.949 . S
H712 C716 0.949 . S
C713 C714 1.349 . S
C713 C715 1.327 . S
C713 H736 0.950 . S
C714 C713 1.349 . S
C714 C726 1.349 . S
C715 C713 1.327 . S
C715 C731 1.429 . S
C715 H737 0.950 . S
C716 H712 0.949 . S
C716 C724 1.574 . S
C716 C732 1.368 . S
H717 C725 0.950 . S
H718 C723 0.950 . S
H719 C724 0.949 . S
H720 C726 0.950 . S
H721 C727 0.950 . S
H722 C728 0.949 . S
C723 H718 0.950 . S
C723 C725 1.327 . S
C723 C729 1.429 . S
C724 C716 1.574 . S
C724 H719 0.949 . S
C724 C730 1.368 . S
C725 C709 1.349 . S
C725 H717 0.950 . S
C725 C723 1.327 . S
C726 C714 1.349 . S
C726 H720 0.950 . S
C726 C727 1.327 . S
C727 H721 0.950 . S
C727 C726 1.327 . S
C727 C731 1.429 . S
C728 C711 1.574 . S
C728 H722 0.949 . S
C728 C732 1.368 . S
C729 C710 1.429 . S
C729 C723 1.429 . S
C729 C730 1.523 . S
C730 C711 1.368 . S
C730 C724 1.368 . S
C730 C729 1.523 . S
C731 C715 1.429 . S
C731 C727 1.429 . S
C731 C732 1.523 . S
C732 C716 1.368 . S
C732 C728 1.368 . S
C732 C731 1.523 . S
H733 C708 0.950 . S
H734 C710 0.950 . S
H735 C711 0.949 . S
H736 C713 0.950 . S
H737 C715 0.950 . S
C738 C739 1.349 . S
C738 C740 1.327 . S
C738 H763 0.950 . S
C739 C738 1.349 . S
C739 C755 1.349 . S
C740 C738 1.327 . S
C740 C759 1.429 . S
C740 H764 0.950 . S
C741 C758 1.574 . S
C741 C760 1.368 . S
C741 H765 0.949 . S
H742 C746 0.949 . S
C743 C744 1.349 . S
C743 C745 1.327 . S
C743 H766 0.950 . S
C744 C743 1.349 . S
C744 C756 1.349 . S
C745 C743 1.327 . S
C745 C761 1.429 . S
C745 H767 0.950 . S
C746 H742 0.949 . S
C746 C754 1.574 . S
C746 C762 1.368 . S
H747 C755 0.950 . S
H748 C753 0.950 . S
H749 C754 0.949 . S
H750 C756 0.950 . S
H751 C757 0.950 . S
H752 C758 0.949 . S
C753 H748 0.950 . S
C753 C755 1.327 . S
C753 C759 1.429 . S
C754 C746 1.574 . S
C754 H749 0.949 . S
C754 C760 1.368 . S
C755 C739 1.349 . S
C755 H747 0.950 . S
C755 C753 1.327 . S
C756 C744 1.349 . S
C756 H750 0.950 . S
C756 C757 1.327 . S
C757 H751 0.950 . S
C757 C756 1.327 . S
C757 C761 1.429 . S
C758 C741 1.574 . S
C758 H752 0.949 . S
C758 C762 1.368 . S
C759 C740 1.429 . S
C759 C753 1.429 . S
C759 C760 1.523 . S
C760 C741 1.368 . S
C760 C754 1.368 . S
C760 C759 1.523 . S
C761 C745 1.429 . S
C761 C757 1.429 . S
C761 C762 1.523 . S
C762 C746 1.368 . S
C762 C758 1.368 . S
C762 C761 1.523 . S
H763 C738 0.950 . S
H764 C740 0.950 . S
H765 C741 0.949 . S
H766 C743 0.950 . S
H767 C745 0.950 . S
C768 C769 1.349 . S
C768 C770 1.327 . S
C768 H793 0.950 . S
C769 C768 1.349 . S
C769 C785 1.349 . S
C770 C768 1.327 . S
C770 C789 1.429 . S
C770 H794 0.950 . S
C771 C788 1.574 1_554 S
C771 C790 1.368 . S
C771 H795 0.949 . S
H772 C776 0.949 1_455 S
C773 C774 1.349 1_655 S
C773 C775 1.327 . S
C773 H796 0.950 . S
C774 C773 1.349 1_455 S
C774 C786 1.349 . S
C775 C773 1.327 . S
C775 C791 1.429 . S
C775 H797 0.950 . S
C776 H772 0.949 1_655 S
C776 C784 1.574 . S
C776 C792 1.368 . S
H777 C785 0.950 . S
H778 C783 0.950 . S
H779 C784 0.949 . S
H780 C786 0.950 . S
H781 C787 0.950 . S
H782 C788 0.949 . S
C783 H778 0.950 . S
C783 C785 1.327 . S
C783 C789 1.429 . S
C784 C776 1.574 . S
C784 H779 0.949 . S
C784 C790 1.368 1_556 S
C785 C769 1.349 . S
C785 H777 0.950 . S
C785 C783 1.327 . S
C786 C774 1.349 . S
C786 H780 0.950 . S
C786 C787 1.327 . S
C787 H781 0.950 . S
C787 C786 1.327 . S
C787 C791 1.429 1_455 S
C788 C771 1.574 1_556 S
C788 H782 0.949 . S
C788 C792 1.368 . S
C789 C770 1.429 . S
C789 C783 1.429 . S
C789 C790 1.523 . S
C790 C771 1.368 . S
C790 C784 1.368 1_554 S
C790 C789 1.523 . S
C791 C775 1.429 . S
C791 C787 1.429 1_655 S
C791 C792 1.523 . S
C792 C776 1.368 . S
C792 C788 1.368 . S
C792 C791 1.523 . S
H793 C768 0.950 . S
H794 C770 0.950 . S
H795 C771 0.949 . S
H796 C773 0.950 . S
H797 C775 0.950 . S
C798 C799 1.349 . S
C798 C800 1.327 . S
C798 H823 0.950 . S
C799 C798 1.349 . S
C799 C815 1.349 . S
C800 C798 1.327 . S
C800 C819 1.429 . S
C800 H824 0.950 . S
C801 C818 1.574 . S
C801 C820 1.368 1_556 S
C801 H825 0.949 . S
H802 C806 0.949 . S
C803 C804 1.349 . S
C803 C805 1.327 . S
C803 H826 0.950 . S
C804 C803 1.349 . S
C804 C816 1.354 . S
C805 C803 1.327 . S
C805 C821 1.429 1_545 S
C805 H827 0.950 . S
C806 H802 0.949 . S
C806 C814 1.574 . S
C806 C822 1.368 1_554 S
H807 C815 0.950 . S
H808 C813 0.950 . S
H809 C814 0.949 . S
H810 C816 0.949 1_565 S
H811 C817 0.950 . S
H812 C818 0.949 . S
C813 H808 0.950 . S
C813 C815 1.327 . S
C813 C819 1.429 . S
C814 C806 1.574 . S
C814 H809 0.949 . S
C814 C820 1.368 . S
C815 C799 1.349 . S
C815 H807 0.950 . S
C815 C813 1.327 . S
C816 C804 1.354 . S
C816 H810 0.949 1_545 S
C816 C817 1.323 1_545 S
C817 H811 0.950 . S
C817 C816 1.323 1_565 S
C817 C821 1.429 . S
C818 C801 1.574 . S
C818 H812 0.949 . S
C818 C822 1.368 . S
C819 C800 1.429 . S
C819 C813 1.429 . S
C819 C820 1.523 . S
C820 C801 1.368 1_554 S
C820 C814 1.368 . S
C820 C819 1.523 . S
C821 C805 1.429 1_565 S
C821 C817 1.429 . S
C821 C822 1.523 . S
C822 C806 1.368 1_556 S
C822 C818 1.368 . S
C822 C821 1.523 . S
H823 C798 0.950 . S
H824 C800 0.950 . S
H825 C801 0.949 . S
H826 C803 0.950 . S
H827 C805 0.950 . S
C828 C829 1.349 . S
C828 C830 1.327 . S
C828 H853 0.950 . S
C829 C828 1.349 . S
C829 C845 1.349 . S
C830 C828 1.327 . S
C830 C849 1.429 . S
C830 H854 0.950 . S
C831 C848 1.574 . S
C831 C850 1.368 . S
C831 H855 0.949 . S
H832 C836 0.949 . S
C833 C834 1.349 . S
C833 C835 1.327 . S
C833 H856 0.950 . S
C834 C833 1.349 . S
C834 C846 1.349 . S
C835 C833 1.327 . S
C835 C851 1.429 . S
C835 H857 0.950 . S
C836 H832 0.949 . S
C836 C844 1.574 . S
C836 C852 1.368 . S
H837 C845 0.950 . S
H838 C843 0.950 . S
H839 C844 0.949 . S
H840 C846 0.950 . S
H841 C847 0.950 . S
H842 C848 0.949 . S
C843 H838 0.950 . S
C843 C845 1.327 . S
C843 C849 1.429 . S
C844 C836 1.574 . S
C844 H839 0.949 . S
C844 C850 1.368 1_556 S
C845 C829 1.349 . S
C845 H837 0.950 . S
C845 C843 1.327 . S
C846 C834 1.349 . S
C846 H840 0.950 . S
C846 C847 1.327 . S
C847 H841 0.950 . S
C847 C846 1.327 . S
C847 C851 1.429 . S
C848 C831 1.574 . S
C848 H842 0.949 . S
C848 C852 1.368 1_554 S
C849 C830 1.429 . S
C849 C843 1.429 . S
C849 C850 1.523 . S
C850 C831 1.368 . S
C850 C844 1.368 1_554 S
C850 C849 1.523 . S
C851 C835 1.429 . S
C851 C847 1.429 . S
C851 C852 1.523 . S
C852 C836 1.368 . S
C852 C848 1.368 1_556 S
C852 C851 1.523 . S
H853 C828 0.950 . S
H854 C830 0.950 . S
H855 C831 0.949 . S
H856 C833 0.950 . S
H857 C835 0.950 . S
C858 C859 1.349 . S
C858 C860 1.327 . S
C858 H883 0.950 . S
C859 C858 1.349 . S
C859 C875 1.349 . S
C860 C858 1.327 . S
C860 C879 1.429 . S
C860 H884 0.950 . S
C861 C878 1.574 . S
C861 C880 1.368 1_556 S
C861 H885 0.949 . S
H862 C866 0.949 . S
C863 C864 1.349 . S
C863 C865 1.327 . S
C863 H886 0.950 . S
C864 C863 1.349 . S
C864 C876 1.349 . S
C865 C863 1.327 . S
C865 C881 1.429 . S
C865 H887 0.950 . S
C866 H862 0.949 . S
C866 C874 1.574 . S
C866 C882 1.368 1_554 S
H867 C875 0.950 . S
H868 C873 0.950 . S
H869 C874 0.949 . S
H870 C876 0.950 . S
H871 C877 0.950 . S
H872 C878 0.949 . S
C873 H868 0.950 . S
C873 C875 1.327 . S
C873 C879 1.429 . S
C874 C866 1.574 . S
C874 H869 0.949 . S
C874 C880 1.368 . S
C875 C859 1.349 . S
C875 H867 0.950 . S
C875 C873 1.327 . S
C876 C864 1.349 . S
C876 H870 0.950 . S
C876 C877 1.327 . S
C877 H871 0.950 . S
C877 C876 1.327 . S
C877 C881 1.429 . S
C878 C861 1.574 . S
C878 H872 0.949 . S
C878 C882 1.368 . S
C879 C860 1.429 . S
C879 C873 1.429 . S
C879 C880 1.523 . S
C880 C861 1.368 1_554 S
C880 C874 1.368 . S
C880 C879 1.523 . S
C881 C865 1.429 . S
C881 C877 1.429 . S
C881 C882 1.523 . S
C882 C866 1.368 1_556 S
C882 C878 1.368 . S
C882 C881 1.523 . S
H883 C858 0.950 . S
H884 C860 0.950 . S
H885 C861 0.949 . S
H886 C863 0.950 . S
H887 C865 0.950 . S
C888 C889 1.349 . S
C888 C890 1.327 . S
C888 H913 0.950 . S
C889 C888 1.349 . S
C889 C905 1.349 . S
C890 C888 1.327 . S
C890 C909 1.429 . S
C890 H914 0.950 . S
C891 C908 1.574 . S
C891 C910 1.368 . S
C891 H915 0.949 . S
H892 C896 0.949 . S
C893 C894 1.349 . S
C893 C895 1.327 . S
C893 H916 0.950 . S
C894 C893 1.349 . S
C894 C906 1.349 . S
C895 C893 1.327 . S
C895 C911 1.429 . S
C895 H917 0.950 . S
C896 H892 0.949 . S
C896 C904 1.574 . S
C896 C912 1.368 . S
H897 C905 0.950 . S
H898 C903 0.950 . S
H899 C904 0.949 . S
H900 C906 0.950 . S
H901 C907 0.950 . S
H902 C908 0.949 . S
C903 H898 0.950 . S
C903 C905 1.327 . S
C903 C909 1.429 . S
C904 C896 1.574 . S
C904 H899 0.949 . S
C904 C910 1.368 . S
C905 C889 1.349 . S
C905 H897 0.950 . S
C905 C903 1.327 . S
C906 C894 1.349 . S
C906 H900 0.950 . S
C906 C907 1.327 . S
C907 H901 0.950 . S
C907 C906 1.327 . S
C907 C911 1.429 . S
C908 C891 1.574 . S
C908 H902 0.949 . S
C908 C912 1.368 . S
C909 C890 1.429 . S
C909 C903 1.429 . S
C909 C910 1.523 . S
C910 C891 1.368 . S
C910 C904 1.368 . S
C910 C909 1.523 . S
C911 C895 1.429 . S
C911 C907 1.429 . S
C911 C912 1.523 . S
C912 C896 1.368 . S
C912 C908 1.368 . S
C912 C911 1.523 . S
H913 C888 0.950 . S
H914 C890 0.950 . S
H915 C891 0.949 . S
H916 C893 0.950 . S
H917 C895 0.950 . S
C918 C919 1.349 . S
C918 C920 1.327 . S
C918 H943 0.950 . S
C919 C918 1.349 . S
C919 C935 1.349 . S
C920 C918 1.327 . S
C920 C939 1.429 . S
C920 H944 0.950 . S
C921 C938 1.574 . S
C921 C940 1.368 . S
C921 H945 0.949 . S
H922 C926 0.949 . S
C923 C924 1.349 . S
C923 C925 1.327 . S
C923 H946 0.950 1_545 S
C924 C923 1.349 . S
C924 C936 1.349 . S
C925 C923 1.327 . S
C925 C941 1.429 . S
C925 H947 0.950 . S
C926 H922 0.949 . S
C926 C934 1.574 . S
C926 C942 1.368 . S
H927 C935 0.950 . S
H928 C933 0.950 . S
H929 C934 0.949 . S
H930 C936 0.950 . S
H931 C937 0.950 . S
H932 C938 0.949 . S
C933 H928 0.950 . S
C933 C935 1.327 . S
C933 C939 1.429 . S
C934 C926 1.574 . S
C934 H929 0.949 . S
C934 C940 1.368 . S
C935 C919 1.349 . S
C935 H927 0.950 . S
C935 C933 1.327 . S
C936 C924 1.349 . S
C936 H930 0.950 . S
C936 C937 1.327 . S
C937 H931 0.950 . S
C937 C936 1.327 . S
C937 C941 1.429 . S
C938 C921 1.574 . S
C938 H932 0.949 . S
C938 C942 1.368 . S
C939 C920 1.429 . S
C939 C933 1.429 . S
C939 C940 1.523 . S
C940 C921 1.368 . S
C940 C934 1.368 . S
C940 C939 1.523 . S
C941 C925 1.429 . S
C941 C937 1.429 . S
C941 C942 1.523 . S
C942 C926 1.368 . S
C942 C938 1.368 . S
C942 C941 1.523 . S
H943 C918 0.950 . S
H944 C920 0.950 . S
H945 C921 0.949 . S
H946 C923 0.950 1_565 S
H947 C925 0.950 . S
C948 C949 1.349 . S
C948 C950 1.327 . S
C948 H973 0.950 . S
C949 C948 1.349 . S
C949 C965 1.349 . S
C950 C948 1.327 . S
C950 C969 1.429 . S
C950 H974 0.950 . S
C951 C968 1.574 . S
C951 C970 1.368 . S
C951 H975 0.949 . S
H952 C956 0.949 . S
C953 C954 1.349 . S
C953 C955 1.327 . S
C953 H976 0.950 . S
C954 C953 1.349 . S
C954 C966 1.349 . S
C955 C953 1.327 . S
C955 C971 1.429 . S
C955 H977 0.950 . S
C956 H952 0.949 . S
C956 C964 1.574 . S
C956 C972 1.368 . S
H957 C965 0.950 . S
H958 C963 0.950 . S
H959 C964 0.949 . S
H960 C966 0.950 . S
H961 C967 0.950 . S
H962 C968 0.949 . S
C963 H958 0.950 . S
C963 C965 1.327 . S
C963 C969 1.429 . S
C964 C956 1.574 . S
C964 H959 0.949 . S
C964 C970 1.368 . S
C965 C949 1.349 . S
C965 H957 0.950 . S
C965 C963 1.327 . S
C966 C954 1.349 . S
C966 H960 0.950 . S
C966 C967 1.327 . S
C967 H961 0.950 . S
C967 C966 1.327 . S
C967 C971 1.429 . S
C968 C951 1.574 . S
C968 H962 0.949 . S
C968 C972 1.368 . S
C969 C950 1.429 . S
C969 C963 1.429 . S
C969 C970 1.523 . S
C970 C951 1.368 . S
C970 C964 1.368 . S
C970 C969 1.523 . S
C971 C955 1.429 . S
C971 C967 1.429 . S
C971 C972 1.523 . S
C972 C956 1.368 . S
C972 C968 1.368 . S
C972 C971 1.523 . S
H973 C948 0.950 . S
H974 C950 0.950 . S
H975 C951 0.949 . S
H976 C953 0.950 . S
H977 C955 0.950 . S
C978 C979 1.349 . S
C978 C980 1.327 . S
C978 H1003 0.950 . S
C979 C978 1.349 . S
C979 C995 1.349 . S
C980 C978 1.327 . S
C980 C999 1.429 . S
C980 H1004 0.950 . S
C981 C998 1.574 . S
C981 C1000 1.368 . S
C981 H1005 0.949 . S
H982 C986 0.949 . S
C983 C984 1.349 . S
C983 C985 1.327 . S
C983 H1006 0.950 . S
C984 C983 1.349 . S
C984 C996 1.349 . S
C985 C983 1.327 . S
C985 C1001 1.429 . S
C985 H1007 0.950 . S
C986 H982 0.949 . S
C986 C994 1.574 . S
C986 C1002 1.368 . S
H987 C995 0.950 . S
H988 C993 0.950 . S
H989 C994 0.949 . S
H990 C996 0.950 . S
H991 C997 0.950 . S
H992 C998 0.949 . S
C993 H988 0.950 . S
C993 C995 1.327 . S
C993 C999 1.429 . S
C994 C986 1.574 . S
C994 H989 0.949 . S
C994 C1000 1.368 . S
C995 C979 1.349 . S
C995 H987 0.950 . S
C995 C993 1.327 . S
C996 C984 1.349 . S
C996 H990 0.950 . S
C996 C997 1.327 . S
C997 H991 0.950 . S
C997 C996 1.327 . S
C997 C1001 1.429 . S
C998 C981 1.574 . S
C998 H992 0.949 . S
C998 C1002 1.368 . S
C999 C980 1.429 . S
C999 C993 1.429 . S
C999 C1000 1.523 . S
C1000 C981 1.368 . S
C1000 C994 1.368 . S
C1000 C999 1.523 . S
C1001 C985 1.429 . S
C1001 C997 1.429 . S
C1001 C1002 1.523 . S
C1002 C986 1.368 . S
C1002 C998 1.368 . S
C1002 C1001 1.523 . S
H1003 C978 0.950 . S
H1004 C980 0.950 . S
H1005 C981 0.949 . S
H1006 C983 0.950 . S
H1007 C985 0.950 . S
C1008 C1009 1.349 . S
C1008 C1010 1.327 . S
C1008 H1033 0.950 . S
C1009 C1008 1.349 . S
C1009 C1025 1.349 . S
C1010 C1008 1.327 . S
C1010 C1029 1.429 . S
C1010 H1034 0.950 . S
C1011 C1028 1.574 . S
C1011 C1030 1.368 . S
C1011 H1035 0.949 . S
H1012 C1016 0.949 . S
C1013 C1014 1.349 . S
C1013 C1015 1.327 . S
C1013 H1036 0.950 . S
C1014 C1013 1.349 . S
C1014 C1026 1.349 . S
C1015 C1013 1.327 . S
C1015 C1031 1.429 . S
C1015 H1037 0.950 . S
C1016 H1012 0.949 . S
C1016 C1024 1.574 . S
C1016 C1032 1.368 . S
H1017 C1025 0.950 . S
H1018 C1023 0.950 . S
H1019 C1024 0.949 . S
H1020 C1026 0.950 . S
H1021 C1027 0.950 . S
H1022 C1028 0.949 . S
C1023 H1018 0.950 . S
C1023 C1025 1.327 . S
C1023 C1029 1.429 . S
C1024 C1016 1.574 . S
C1024 H1019 0.949 . S
C1024 C1030 1.368 . S
C1025 C1009 1.349 . S
C1025 H1017 0.950 . S
C1025 C1023 1.327 . S
C1026 C1014 1.349 . S
C1026 H1020 0.950 . S
C1026 C1027 1.327 . S
C1027 H1021 0.950 . S
C1027 C1026 1.327 . S
C1027 C1031 1.429 . S
C1028 C1011 1.574 . S
C1028 H1022 0.949 . S
C1028 C1032 1.368 . S
C1029 C1010 1.429 . S
C1029 C1023 1.429 . S
C1029 C1030 1.523 . S
C1030 C1011 1.368 . S
C1030 C1024 1.368 . S
C1030 C1029 1.523 . S
C1031 C1015 1.429 . S
C1031 C1027 1.429 . S
C1031 C1032 1.523 . S
C1032 C1016 1.368 . S
C1032 C1028 1.368 . S
C1032 C1031 1.523 . S
H1033 C1008 0.950 . S
H1034 C1010 0.950 . S
H1035 C1011 0.949 . S
H1036 C1013 0.950 . S
H1037 C1015 0.950 . S
C1038 C1039 1.349 . S
C1038 C1040 1.327 . S
C1038 H1063 0.950 . S
C1039 C1038 1.349 . S
C1039 C1055 1.349 . S
C1040 C1038 1.327 . S
C1040 C1059 1.429 . S
C1040 H1064 0.950 . S
C1041 C1058 1.574 . S
C1041 C1060 1.368 . S
C1041 H1065 0.949 . S
H1042 C1046 0.949 . S
C1043 C1044 1.349 . S
C1043 C1045 1.327 . S
C1043 H1066 0.950 . S
C1044 C1043 1.349 . S
C1044 C1056 1.349 . S
C1045 C1043 1.327 . S
C1045 C1061 1.429 . S
C1045 H1067 0.950 . S
C1046 H1042 0.949 . S
C1046 C1054 1.574 . S
C1046 C1062 1.368 . S
H1047 C1055 0.950 . S
H1048 C1053 0.950 . S
H1049 C1054 0.949 . S
H1050 C1056 0.950 . S
H1051 C1057 0.950 . S
H1052 C1058 0.949 . S
C1053 H1048 0.950 . S
C1053 C1055 1.327 . S
C1053 C1059 1.429 . S
C1054 C1046 1.574 . S
C1054 H1049 0.949 . S
C1054 C1060 1.368 . S
C1055 C1039 1.349 . S
C1055 H1047 0.950 . S
C1055 C1053 1.327 . S
C1056 C1044 1.349 . S
C1056 H1050 0.950 . S
C1056 C1057 1.327 . S
C1057 H1051 0.950 . S
C1057 C1056 1.327 . S
C1057 C1061 1.429 . S
C1058 C1041 1.574 . S
C1058 H1052 0.949 . S
C1058 C1062 1.368 . S
C1059 C1040 1.429 . S
C1059 C1053 1.429 . S
C1059 C1060 1.523 . S
C1060 C1041 1.368 . S
C1060 C1054 1.368 . S
C1060 C1059 1.523 . S
C1061 C1045 1.429 . S
C1061 C1057 1.429 . S
C1061 C1062 1.523 . S
C1062 C1046 1.368 . S
C1062 C1058 1.368 . S
C1062 C1061 1.523 . S
H1063 C1038 0.950 . S
H1064 C1040 0.950 . S
H1065 C1041 0.949 . S
H1066 C1043 0.950 . S
H1067 C1045 0.950 . S
C1068 C1069 1.349 . S
C1068 C1070 1.327 . S
C1068 H1093 0.950 . S
C1069 C1068 1.349 . S
C1069 C1085 1.349 . S
C1070 C1068 1.327 . S
C1070 C1089 1.429 . S
C1070 H1094 0.950 . S
C1071 C1088 1.574 . S
C1071 C1090 1.368 . S
C1071 H1095 0.949 . S
H1072 C1076 0.949 . S
C1073 C1074 1.349 . S
C1073 C1075 1.327 . S
C1073 H1096 0.950 . S
C1074 C1073 1.349 . S
C1074 C1086 1.349 . S
C1075 C1073 1.327 . S
C1075 C1091 1.429 . S
C1075 H1097 0.950 . S
C1076 H1072 0.949 . S
C1076 C1084 1.574 . S
C1076 C1092 1.368 . S
H1077 C1085 0.950 . S
H1078 C1083 0.950 . S
H1079 C1084 0.949 . S
H1080 C1086 0.950 . S
H1081 C1087 0.950 . S
H1082 C1088 0.949 . S
C1083 H1078 0.950 . S
C1083 C1085 1.327 . S
C1083 C1089 1.429 . S
C1084 C1076 1.574 . S
C1084 H1079 0.949 . S
C1084 C1090 1.368 . S
C1085 C1069 1.349 . S
C1085 H1077 0.950 . S
C1085 C1083 1.327 . S
C1086 C1074 1.349 . S
C1086 H1080 0.950 . S
C1086 C1087 1.327 . S
C1087 H1081 0.950 . S
C1087 C1086 1.327 . S
C1087 C1091 1.429 . S
C1088 C1071 1.574 . S
C1088 H1082 0.949 . S
C1088 C1092 1.368 . S
C1089 C1070 1.429 . S
C1089 C1083 1.429 . S
C1089 C1090 1.523 . S
C1090 C1071 1.368 . S
C1090 C1084 1.368 . S
C1090 C1089 1.523 . S
C1091 C1075 1.429 . S
C1091 C1087 1.429 . S
C1091 C1092 1.523 . S
C1092 C1076 1.368 . S
C1092 C1088 1.368 . S
C1092 C1091 1.523 . S
H1093 C1068 0.950 . S
H1094 C1070 0.950 . S
H1095 C1071 0.949 . S
H1096 C1073 0.950 . S
H1097 C1075 0.950 . S
C1098 C1099 1.349 . S
C1098 C1100 1.327 . S
C1098 H1123 0.950 . S
C1099 C1098 1.349 . S
C1099 C1115 1.349 . S
C1100 C1098 1.327 . S
C1100 C1119 1.429 . S
C1100 H1124 0.950 . S
C1101 C1118 1.574 . S
C1101 C1120 1.368 . S
C1101 H1125 0.949 . S
H1102 C1106 0.949 . S
C1103 C1104 1.349 . S
C1103 C1105 1.327 . S
C1103 H1126 0.950 . S
C1104 C1103 1.349 . S
C1104 C1116 1.349 . S
C1105 C1103 1.327 . S
C1105 C1121 1.429 . S
C1105 H1127 0.950 . S
C1106 H1102 0.949 . S
C1106 C1114 1.574 . S
C1106 C1122 1.368 . S
H1107 C1115 0.950 . S
H1108 C1113 0.950 . S
H1109 C1114 0.949 . S
H1110 C1116 0.950 . S
H1111 C1117 0.950 . S
H1112 C1118 0.949 . S
C1113 H1108 0.950 . S
C1113 C1115 1.327 . S
C1113 C1119 1.429 . S
C1114 C1106 1.574 . S
C1114 H1109 0.949 . S
C1114 C1120 1.368 . S
C1115 C1099 1.349 . S
C1115 H1107 0.950 . S
C1115 C1113 1.327 . S
C1116 C1104 1.349 . S
C1116 H1110 0.950 . S
C1116 C1117 1.327 . S
C1117 H1111 0.950 . S
C1117 C1116 1.327 . S
C1117 C1121 1.429 . S
C1118 C1101 1.574 . S
C1118 H1112 0.949 . S
C1118 C1122 1.368 . S
C1119 C1100 1.429 . S
C1119 C1113 1.429 . S
C1119 C1120 1.523 . S
C1120 C1101 1.368 . S
C1120 C1114 1.368 . S
C1120 C1119 1.523 . S
C1121 C1105 1.429 . S
C1121 C1117 1.429 . S
C1121 C1122 1.523 . S
C1122 C1106 1.368 . S
C1122 C1118 1.368 . S
C1122 C1121 1.523 . S
H1123 C1098 0.950 . S
H1124 C1100 0.950 . S
H1125 C1101 0.949 . S
H1126 C1103 0.950 . S
H1127 C1105 0.950 . S
C409 C61 1.716 . S
C414 C147 1.758 . S
C444 C231 1.784 . S
C439 C70 1.755 . S
C474 C307 1.783 . S
C469 C43 1.852 . S
C504 C391 1.763 . S
C499 C52 1.833 . S
C534 C138 1.758 1_565 S
C529 C25 1.720 . S
C559 C34 1.751 . S
C564 C222 1.784 . S
C589 C7 1.857 . S
C594 C296 1.782 . S
C619 C16 1.838 . S
C624 C380 1.764 . S
C654 C135 0.448 . S
C649 C50 0.409 . S
C684 C219 0.446 . S
C679 C59 0.379 . S
C714 C312 0.491 . S
C709 C67 0.336 . S
C739 C41 0.379 . S
C744 C396 0.489 . S
C769 C14 0.392 . S
C774 C144 0.453 . S
C804 C228 0.444 . S
C799 C23 0.361 . S
C834 C303 0.491 . S
C829 C31 0.349 . S
C859 C5 0.358 . S
C864 C387 0.489 . S
C889 C49 1.893 . S
C894 C128 1.954 . S
C919 C58 1.858 . S
C924 C212 1.920 . S
C954 C306 1.877 . S
C949 C68 1.752 . S
C984 C390 1.903 . S
C979 C40 1.774 . S
C1009 C13 1.896 . S
C1014 C139 1.955 . S
C1044 C223 1.920 . S
C1039 C22 1.861 . S
C1074 C315 1.877 . S
C1069 C32 1.746 . S
C1099 C4 1.777 . S
C1104 C399 1.903 . S
