# Generated by pormake.
# Topology pyr, (3,6)-cn, num edge types: 1
# Building blocks:
#     Node 0, Type 0, BuildingBlock: BELTOD_clean_linker_0, # of connection points: 3
#     Node 1, Type 0, BuildingBlock: BELTOD_clean_linker_0, # of connection points: 3
#     Node 2, Type 0, BuildingBlock: BELTOD_clean_linker_0, # of connection points: 3
#     Node 3, Type 0, BuildingBlock: BELTOD_clean_linker_0, # of connection points: 3
#     Node 4, Type 0, BuildingBlock: BELTOD_clean_linker_0, # of connection points: 3
#     Node 5, Type 0, BuildingBlock: BELTOD_clean_linker_0, # of connection points: 3
#     Node 6, Type 0, BuildingBlock: BELTOD_clean_linker_0, # of connection points: 3
#     Node 7, Type 0, BuildingBlock: BELTOD_clean_linker_0, # of connection points: 3
#     Node 8, Type 1, BuildingBlock: BETDEL_clean_sbu_0, # of connection points: 6
#     Node 9, Type 1, BuildingBlock: BETDEL_clean_sbu_0, # of connection points: 6
#     Node 10, Type 1, BuildingBlock: BETDEL_clean_sbu_0, # of connection points: 6
#     Node 11, Type 1, BuildingBlock: BETDEL_clean_sbu_0, # of connection points: 6
#     Edge 12, Type (0, 1), BuildingBlock: EZIPEK_clean_linker_0, # of connection points: 2
#     Edge 13, Type (0, 1), BuildingBlock: EZIPEK_clean_linker_0, # of connection points: 2
#     Edge 14, Type (0, 1), BuildingBlock: EZIPEK_clean_linker_0, # of connection points: 2
#     Edge 15, Type (0, 1), BuildingBlock: EZIPEK_clean_linker_0, # of connection points: 2
#     Edge 16, Type (0, 1), BuildingBlock: EZIPEK_clean_linker_0, # of connection points: 2
#     Edge 17, Type (0, 1), BuildingBlock: EZIPEK_clean_linker_0, # of connection points: 2
#     Edge 18, Type (0, 1), BuildingBlock: EZIPEK_clean_linker_0, # of connection points: 2
#     Edge 19, Type (0, 1), BuildingBlock: EZIPEK_clean_linker_0, # of connection points: 2
#     Edge 20, Type (0, 1), BuildingBlock: EZIPEK_clean_linker_0, # of connection points: 2
#     Edge 21, Type (0, 1), BuildingBlock: EZIPEK_clean_linker_0, # of connection points: 2
#     Edge 22, Type (0, 1), BuildingBlock: EZIPEK_clean_linker_0, # of connection points: 2
#     Edge 23, Type (0, 1), BuildingBlock: EZIPEK_clean_linker_0, # of connection points: 2
#     Edge 24, Type (0, 1), BuildingBlock: EZIPEK_clean_linker_0, # of connection points: 2
#     Edge 25, Type (0, 1), BuildingBlock: EZIPEK_clean_linker_0, # of connection points: 2
#     Edge 26, Type (0, 1), BuildingBlock: EZIPEK_clean_linker_0, # of connection points: 2
#     Edge 27, Type (0, 1), BuildingBlock: EZIPEK_clean_linker_0, # of connection points: 2
#     Edge 28, Type (0, 1), BuildingBlock: EZIPEK_clean_linker_0, # of connection points: 2
#     Edge 29, Type (0, 1), BuildingBlock: EZIPEK_clean_linker_0, # of connection points: 2
#     Edge 30, Type (0, 1), BuildingBlock: EZIPEK_clean_linker_0, # of connection points: 2
#     Edge 31, Type (0, 1), BuildingBlock: EZIPEK_clean_linker_0, # of connection points: 2
#     Edge 32, Type (0, 1), BuildingBlock: EZIPEK_clean_linker_0, # of connection points: 2
#     Edge 33, Type (0, 1), BuildingBlock: EZIPEK_clean_linker_0, # of connection points: 2
#     Edge 34, Type (0, 1), BuildingBlock: EZIPEK_clean_linker_0, # of connection points: 2
#     Edge 35, Type (0, 1), BuildingBlock: EZIPEK_clean_linker_0, # of connection points: 2
# Relax obj value: 0.034
# Max RMSD: 0.095
# Mean RMSD: 0.041
data_MOF--net-pyr--node1-BETDEL_clean_sbu_0--node2-BELTOD_clean_linker_0--edge1-EZIPEK_clean_linker_0
_symmetry_space_group_name_H-M    P1
_symmetry_Int_Tables_number       1
_symmetry_cell_setting            triclinic
loop_
_symmetry_equiv_pos_as_xyz
'x, y, z'
_cell_length_a     31.779019
_cell_length_b     33.643523
_cell_length_c     30.625849
_cell_angle_alpha  91.660295
_cell_angle_beta   89.123336
_cell_angle_gamma 95.762167
loop_
_atom_site_label
_atom_site_type_symbol
_atom_site_fract_x
_atom_site_fract_y
_atom_site_fract_z
_atom_type_partial_charge
P0 P 0.23579 0.22578 0.20628 0.0
H1 H 0.31221 0.23907 0.15327 0.0
H2 H 0.357 0.19314 0.11529 0.0
H3 H 0.27484 0.09251 0.16064 0.0
H4 H 0.23044 0.13786 0.19871 0.0
H5 H 0.20756 0.3049 0.2162 0.0
H6 H 0.16724 0.34359 0.16805 0.0
H7 H 0.17479 0.25395 0.06547 0.0
H8 H 0.21553 0.21532 0.1134 0.0
H9 H 0.22019 0.20124 0.29625 0.0
H10 H 0.1549 0.18842 0.17325 0.0
O11 O 0.26487 0.25335 0.24309 0.0
H12 H 0.16221 0.15886 0.33045 0.0
H13 H 0.0971 0.1462 0.20758 0.0
C14 C 0.26815 0.19194 0.17881 0.0
C15 C 0.30389 0.20713 0.15499 0.0
C16 C 0.3292 0.1811 0.13326 0.0
C17 C 0.31888 0.13968 0.13525 0.0
C18 C 0.28298 0.12447 0.15876 0.0
C19 C 0.25777 0.15046 0.18053 0.0
C20 C 0.21514 0.25777 0.16801 0.0
C21 C 0.20169 0.29417 0.18294 0.0
C22 C 0.17858 0.31605 0.15569 0.0
C23 C 0.1683 0.3014 0.11349 0.0
C24 C 0.18284 0.26561 0.09795 0.0
C25 C 0.20623 0.24385 0.12516 0.0
C26 C 0.19141 0.19864 0.23252 0.0
C27 C 0.19315 0.18997 0.27684 0.0
C28 C 0.16027 0.16578 0.29625 0.0
C29 C 0.12561 0.14975 0.27137 0.0
C30 C 0.1236 0.15865 0.22714 0.0
C31 C 0.15646 0.18288 0.20776 0.0
P32 P 0.33362 0.87049 0.61403 0.0
H33 H 0.40271 0.90824 0.66669 0.0
H34 H 0.41053 0.92018 0.74555 0.0
H35 H 0.28402 0.86442 0.76724 0.0
H36 H 0.27569 0.85319 0.68791 0.0
H37 H 0.39878 0.83829 0.55933 0.0
H38 H 0.42295 0.77167 0.55186 0.0
H39 H 0.32339 0.72568 0.63941 0.0
H40 H 0.29902 0.79271 0.64715 0.0
H41 H 0.29374 0.94337 0.61526 0.0
H42 H 0.25957 0.81987 0.57766 0.0
O43 O 0.36826 0.90233 0.58787 0.0
H44 H 0.22435 0.96013 0.59259 0.0
H45 H 0.18941 0.83672 0.55546 0.0
C46 C 0.3384 0.88053 0.67159 0.0
C47 C 0.37644 0.89902 0.68825 0.0
C48 C 0.38096 0.90569 0.73311 0.0
C49 C 0.3477 0.89342 0.76182 0.0
C50 C 0.3098 0.87428 0.74532 0.0
C51 C 0.30513 0.86799 0.70027 0.0
C52 C 0.34695 0.82041 0.60363 0.0
C53 C 0.38175 0.81396 0.57663 0.0
C54 C 0.39577 0.77605 0.57258 0.0
C55 C 0.37523 0.7441 0.59554 0.0
C56 C 0.3398 0.75021 0.62184 0.0
C57 C 0.3258 0.78828 0.62596 0.0
C58 C 0.28181 0.88053 0.5978 0.0
C59 C 0.27122 0.91986 0.60221 0.0
C60 C 0.23171 0.92941 0.58944 0.0
C61 C 0.20204 0.89968 0.57222 0.0
C62 C 0.21212 0.85999 0.56859 0.0
C63 C 0.25204 0.85045 0.58121 0.0
P64 P 0.66455 0.31172 0.82311 0.0
H65 H 0.74411 0.35219 0.79247 0.0
H66 H 0.80363 0.39025 0.82961 0.0
H67 H 0.73632 0.37802 0.95259 0.0
H68 H 0.67591 0.34106 0.91504 0.0
H69 H 0.57608 0.27473 0.82376 0.0
H70 H 0.54144 0.21693 0.86215 0.0
H71 H 0.65432 0.21035 0.93673 0.0
H72 H 0.68949 0.26676 0.8972 0.0
H73 H 0.64981 0.39732 0.82892 0.0
H74 H 0.61146 0.29424 0.74661 0.0
O75 O 0.68888 0.28372 0.78674 0.0
H76 H 0.61779 0.44026 0.7778 0.0
H77 H 0.57921 0.33715 0.69587 0.0
C78 C 0.70615 0.34264 0.85118 0.0
C79 C 0.74195 0.35785 0.82739 0.0
C80 C 0.77588 0.37964 0.84852 0.0
C81 C 0.77466 0.38652 0.89394 0.0
C82 C 0.73804 0.37278 0.91757 0.0
C83 C 0.70373 0.35147 0.89619 0.0
C84 C 0.6351 0.27616 0.8584 0.0
C85 C 0.59312 0.2616 0.84907 0.0
C86 C 0.57334 0.22847 0.8709 0.0
C87 C 0.59525 0.20929 0.90241 0.0
C88 C 0.63668 0.22476 0.9128 0.0
C89 C 0.6566 0.25735 0.89048 0.0
C90 C 0.63322 0.34245 0.79156 0.0
C91 C 0.63386 0.38374 0.80043 0.0
C92 C 0.61569 0.40833 0.77121 0.0
C93 C 0.59647 0.39192 0.73284 0.0
C94 C 0.59399 0.35042 0.72519 0.0
C95 C 0.61224 0.32593 0.75426 0.0
P96 P 0.80591 0.68747 0.2963 0.0
H97 H 0.84715 0.76475 0.27117 0.0
H98 H 0.88413 0.82078 0.31274 0.0
H99 H 0.87647 0.75007 0.42821 0.0
H100 H 0.83881 0.6941 0.38692 0.0
H101 H 0.79348 0.65929 0.20592 0.0
H102 H 0.83314 0.61849 0.15601 0.0
H103 H 0.92206 0.60395 0.25785 0.0
H104 H 0.88266 0.64598 0.30796 0.0
H105 H 0.71523 0.68824 0.31347 0.0
H106 H 0.81585 0.62318 0.35838 0.0
O107 O 0.77669 0.71255 0.26394 0.0
H108 H 0.66514 0.65031 0.36153 0.0
H109 H 0.76539 0.58596 0.40811 0.0
C110 C 0.83949 0.72535 0.32599 0.0
C111 C 0.85373 0.76102 0.30532 0.0
C112 C 0.87483 0.79302 0.32898 0.0
C113 C 0.88265 0.78968 0.3736 0.0
C114 C 0.87054 0.75325 0.39382 0.0
C115 C 0.84903 0.72129 0.37018 0.0
C116 C 0.83536 0.65616 0.26064 0.0
C117 C 0.82162 0.64765 0.21769 0.0
C118 C 0.8442 0.62426 0.1891 0.0
C119 C 0.88066 0.60826 0.20305 0.0
C120 C 0.89411 0.61615 0.24633 0.0
C121 C 0.87164 0.64002 0.27491 0.0
C122 C 0.76942 0.65843 0.33193 0.0
C123 C 0.72669 0.66576 0.33352 0.0
C124 C 0.69797 0.64417 0.36107 0.0
C125 C 0.71143 0.61517 0.38818 0.0
C126 C 0.75432 0.60806 0.38722 0.0
C127 C 0.78304 0.62927 0.35889 0.0
P128 P 0.87387 0.9004 0.95459 0.0
H129 H 0.81723 0.93628 0.01705 0.0
H130 H 0.74129 0.94401 0.01544 0.0
H131 H 0.73209 0.88227 0.89002 0.0
H132 H 0.80814 0.8751 0.89116 0.0
H133 H 0.95087 0.86666 0.97674 0.0
H134 H 0.96759 0.79747 0.98405 0.0
H135 H 0.83637 0.75522 0.96491 0.0
H136 H 0.81942 0.82406 0.95808 0.0
H137 H 0.89809 0.97572 0.91227 0.0
H138 H 0.89164 0.84981 0.87825 0.0
O139 O 0.89784 0.93253 0.99103 0.0
H140 H 0.91788 0.9916 0.83637 0.0
H141 H 0.91149 0.8658 0.80279 0.0
C142 C 0.81828 0.9057 0.95396 0.0
C143 C 0.79899 0.92464 0.9891 0.0
C144 C 0.75581 0.92897 0.98823 0.0
C145 C 0.73151 0.91405 0.95239 0.0
C146 C 0.75061 0.89428 0.91766 0.0
C147 C 0.79387 0.89034 0.91834 0.0
C148 C 0.88394 0.85055 0.96734 0.0
C149 C 0.92556 0.84259 0.97508 0.0
C150 C 0.93513 0.80329 0.97899 0.0
C151 C 0.90313 0.77163 0.97484 0.0
C152 C 0.86131 0.77952 0.96817 0.0
C153 C 0.85174 0.81884 0.96439 0.0
C154 C 0.89438 0.91169 0.90104 0.0
C155 C 0.90182 0.9516 0.88878 0.0
C156 C 0.91286 0.96064 0.84565 0.0
C157 C 0.91616 0.92978 0.81441 0.0
C158 C 0.90928 0.88986 0.82674 0.0
C159 C 0.89824 0.88085 0.86982 0.0
P160 P 0.78758 0.23306 0.31481 0.0
H161 H 0.78565 0.31672 0.34352 0.0
H162 H 0.72823 0.35455 0.37162 0.0
H163 H 0.64173 0.24734 0.36535 0.0
H164 H 0.69892 0.20947 0.33719 0.0
H165 H 0.87082 0.20461 0.31833 0.0
H166 H 0.90041 0.15712 0.36574 0.0
H167 H 0.78656 0.15004 0.44472 0.0
H168 H 0.75703 0.19774 0.39763 0.0
H169 H 0.75024 0.24671 0.23139 0.0
H170 H 0.76951 0.14523 0.30931 0.0
O171 O 0.82422 0.26463 0.29103 0.0
H172 H 0.70645 0.20251 0.18108 0.0
H173 H 0.72604 0.1015 0.25908 0.0
C174 C 0.74642 0.26043 0.33795 0.0
C175 C 0.75439 0.30133 0.34821 0.0
C176 C 0.72172 0.3229 0.36405 0.0
C177 C 0.68088 0.30365 0.37008 0.0
C178 C 0.67305 0.26261 0.36054 0.0
C179 C 0.70567 0.24111 0.34462 0.0
C180 C 0.81212 0.20534 0.35498 0.0
C181 C 0.8527 0.19378 0.34656 0.0
C182 C 0.86946 0.16657 0.37335 0.0
C183 C 0.8456 0.1503 0.40862 0.0
C184 C 0.80544 0.1626 0.41778 0.0
C185 C 0.78875 0.18994 0.39103 0.0
C186 C 0.76346 0.1993 0.27381 0.0
C187 C 0.74604 0.21491 0.23701 0.0
C188 C 0.72106 0.18984 0.20848 0.0
C189 C 0.71331 0.14894 0.21658 0.0
C190 C 0.73207 0.13301 0.25236 0.0
C191 C 0.75691 0.15808 0.28095 0.0
P192 P 0.38644 0.64881 0.13702 0.0
H193 H 0.35028 0.61344 0.05587 0.0
H194 H 0.27771 0.59183 0.0336 0.0
H195 H 0.2308 0.63558 0.15688 0.0
H196 H 0.30389 0.65667 0.17968 0.0
H197 H 0.45048 0.69131 0.08108 0.0
H198 H 0.46988 0.76204 0.06742 0.0
H199 H 0.37607 0.79409 0.16161 0.0
H200 H 0.35636 0.72266 0.1755 0.0
H201 H 0.35724 0.57419 0.17833 0.0
H202 H 0.43448 0.6827 0.21385 0.0
O203 O 0.41729 0.62308 0.10461 0.0
H204 H 0.37614 0.5441 0.24638 0.0
H205 H 0.45285 0.65273 0.28253 0.0
C206 C 0.33254 0.63614 0.11973 0.0
C207 C 0.32452 0.61851 0.07821 0.0
C208 C 0.2831 0.60625 0.06539 0.0
C209 C 0.24891 0.61185 0.09367 0.0
C210 C 0.25678 0.63084 0.13467 0.0
C211 C 0.29838 0.64287 0.14762 0.0
C212 C 0.40201 0.70152 0.12955 0.0
C213 C 0.43405 0.71331 0.09912 0.0
C214 C 0.44512 0.75376 0.09112 0.0
C215 C 0.42434 0.78332 0.11331 0.0
C216 C 0.3924 0.7717 0.14402 0.0
C217 C 0.38127 0.73103 0.15203 0.0
C218 C 0.39368 0.63104 0.19134 0.0
C219 C 0.37732 0.59197 0.20131 0.0
C220 C 0.38827 0.57466 0.24003 0.0
C221 C 0.41587 0.59612 0.26962 0.0
C222 C 0.43136 0.63568 0.26026 0.0
C223 C 0.42066 0.65288 0.22121 0.0
P224 P 0.19137 0.32103 0.71026 0.0
H225 H 0.10194 0.2877 0.71701 0.0
H226 H 0.06206 0.23049 0.67961 0.0
H227 H 0.17055 0.21409 0.59735 0.0
H228 H 0.21051 0.27091 0.63478 0.0
H229 H 0.27933 0.35224 0.72407 0.0
H230 H 0.33371 0.38565 0.67651 0.0
H231 H 0.24205 0.38855 0.57462 0.0
H232 H 0.18733 0.35459 0.62235 0.0
H233 H 0.15808 0.3113 0.79902 0.0
H234 H 0.15759 0.39894 0.69905 0.0
O235 O 0.21905 0.29468 0.74279 0.0
H236 H 0.1215 0.35456 0.84949 0.0
H237 H 0.12045 0.44223 0.74976 0.0
C238 C 0.15893 0.28433 0.67797 0.0
C239 C 0.11689 0.27247 0.69029 0.0
C240 C 0.09418 0.2397 0.66913 0.0
C241 C 0.11335 0.21816 0.63564 0.0
C242 C 0.15512 0.23046 0.6229 0.0
C243 C 0.17777 0.26308 0.64407 0.0
C244 C 0.22944 0.3502 0.67648 0.0
C245 C 0.27071 0.36013 0.69161 0.0
C246 C 0.30179 0.37919 0.66448 0.0
C247 C 0.2921 0.389 0.62181 0.0
C248 C 0.25027 0.3808 0.60727 0.0
C249 C 0.21911 0.36154 0.63449 0.0
C250 C 0.16125 0.35216 0.74545 0.0
C251 C 0.14999 0.33977 0.78782 0.0
C252 C 0.12903 0.36437 0.81665 0.0
C253 C 0.1185 0.40165 0.80345 0.0
C254 C 0.12843 0.41358 0.76057 0.0
C255 C 0.14963 0.38893 0.7317 0.0
Dy256 Dy 0.01252 0.01815 0.46723 0.0
C257 C 0.9509 0.96797 0.63439 0.0
C258 C 0.03001 0.04914 0.3874 0.0
Dy259 Dy 0.97093 0.99058 0.55145 0.0
O260 O 0.05717 0.03471 0.41214 0.0
O261 O 0.99259 0.04498 0.40529 0.0
O262 O 0.07618 0.00974 0.49222 0.0
O263 O 0.02391 0.97101 0.51246 0.0
C264 C 0.06311 0.9807 0.51761 0.0
C265 C 0.92335 0.03012 0.49977 0.0
O266 O 0.01482 0.04404 0.57457 0.0
O267 O 0.028 0.07379 0.50785 0.0
O268 O 0.9322 0.99383 0.61324 0.0
O269 O 0.98024 0.95406 0.61029 0.0
O270 O 0.90766 1.00122 0.52417 0.0
O271 O 0.96204 0.03819 0.50723 0.0
O272 O 0.9749 0.96098 0.444 0.0
O273 O 0.95137 0.93555 0.511 0.0
C274 C 0.03045 0.0747 0.55095 0.0
C275 C 0.95466 0.93249 0.46787 0.0
Dy276 Dy 0.53102 0.01562 0.05789 0.0
C277 C 0.41835 0.94377 0.92291 0.0
C278 C 0.59118 0.05492 0.10929 0.0
Dy279 Dy 0.47328 0.98518 0.97822 0.0
O280 O 0.58132 0.01647 0.10883 0.0
O281 O 0.56815 0.07183 0.08207 0.0
O282 O 0.49131 0.97503 0.10237 0.0
O283 O 0.4971 0.95821 0.03648 0.0
C284 C 0.47835 0.94888 0.07208 0.0
C285 C 0.51326 0.05911 0.96387 0.0
O286 O 0.4276 0.01199 0.02413 0.0
O287 O 0.47549 0.05007 0.06937 0.0
O288 O 0.40869 0.95483 0.96252 0.0
O289 O 0.4577 0.95492 0.91382 0.0
O290 O 0.48797 0.03993 0.93586 0.0
O291 O 0.51463 0.0372 0.9961 0.0
O292 O 0.57661 0.98796 0.01293 0.0
O293 O 0.52933 0.95094 0.96594 0.0
C294 C 0.43677 0.04016 0.05463 0.0
C295 C 0.56788 0.961 0.98107 0.0
Dy296 Dy 0.51808 0.46175 0.4845 0.0
C297 C 0.45001 0.59618 0.56578 0.0
C298 C 0.56166 0.4062 0.44189 0.0
Dy299 Dy 0.49097 0.53627 0.52793 0.0
O300 O 0.52255 0.41168 0.43413 0.0
O301 O 0.57652 0.43075 0.47247 0.0
O302 O 0.47135 0.42223 0.52314 0.0
O303 O 0.45631 0.47925 0.50779 0.0
C304 C 0.44475 0.44869 0.52983 0.0
C305 C 0.56392 0.54829 0.48121 0.0
O306 O 0.5115 0.50488 0.58731 0.0
O307 O 0.54616 0.45636 0.55023 0.0
O308 O 0.4904 0.59336 0.56848 0.0
O309 O 0.43209 0.56549 0.54432 0.0
O310 O 0.53704 0.57455 0.4869 0.0
O311 O 0.55258 0.51856 0.50443 0.0
O312 O 0.4981 0.49439 0.42562 0.0
O313 O 0.46167 0.54125 0.46289 0.0
C314 C 0.53529 0.47461 0.58686 0.0
C315 C 0.47318 0.5238 0.42611 0.0
Dy316 Dy 0.01496 0.46703 0.02371 0.0
C317 C 0.9578 0.61376 0.97819 0.0
C318 C 0.05576 0.40199 0.03944 0.0
Dy319 Dy 0.99476 0.54535 0.98708 0.0
O320 O 0.03391 0.42043 0.06826 0.0
O321 O 0.05405 0.41803 1.0016 0.0
O322 O 0.96765 0.47206 0.07834 0.0
O323 O 0.99963 0.5239 0.05265 0.0
C324 C 0.97043 0.51093 0.07858 0.0
C325 C 0.04027 0.50209 0.93276 0.0
O326 O 0.05271 0.56743 0.02504 0.0
O327 O 0.07683 0.50531 0.03143 0.0
O328 O 0.991 0.60458 0.9563 0.0
O329 O 0.94415 0.58518 0.00393 0.0
O330 O 0.04289 0.54094 0.93292 0.0
O331 O 0.01055 0.48883 0.95786 0.0
O332 O 0.95391 0.44381 0.99264 0.0
O333 O 0.93574 0.50507 0.96939 0.0
C334 C 0.08289 0.54479 0.03463 0.0
C335 C 0.9272 0.46584 0.97396 0.0
C336 C 0.06026 0.13842 0.31715 0.0
C337 C 0.09242 0.12228 0.2919 0.0
C338 C 0.0685 0.05537 0.31682 0.0
C339 C 0.0427 0.07268 0.34867 0.0
N340 N 0.01315 0.13099 0.37977 0.0
N341 N 0.12731 0.06563 0.26571 0.0
C342 C 0.03733 0.11414 0.34836 0.0
C343 C 0.09609 0.08064 0.29048 0.0
N344 N 0.05213 0.17706 0.31151 0.0
N345 N 0.06642 0.0147 0.31208 0.0
H346 H 0.14729 0.08316 0.24498 0.0
H347 H 0.1349 0.03633 0.26731 0.0
H348 H 0.04581 0.99575 0.33082 0.0
H349 H 0.08177 0.99995 0.28712 0.0
H350 H 0.02639 0.18954 0.32579 0.0
H351 H 0.06899 0.1956 0.2892 0.0
H352 H 0.01288 0.16171 0.38471 0.0
H353 H 0.99482 0.11463 0.40271 0.0
C354 C 0.37705 0.8743 0.83254 0.0
C355 C 0.35385 0.90048 0.80924 0.0
C356 C 0.36211 0.95065 0.86864 0.0
C357 C 0.38838 0.92589 0.89006 0.0
N358 N 0.41157 0.8611 0.90022 0.0
N359 N 0.31441 0.95792 0.80877 0.0
C360 C 0.39258 0.88649 0.87456 0.0
C361 C 0.34276 0.93671 0.82882 0.0
N362 N 0.38574 0.83876 0.81343 0.0
N363 N 0.3581 0.98841 0.88486 0.0
H364 H 0.30048 0.94867 0.77909 0.0
H365 H 0.30207 0.9828 0.82293 0.0
H366 H 0.37068 0.99902 0.91473 0.0
H367 H 0.34385 0.00989 0.86818 0.0
H368 H 0.40646 0.82019 0.82623 0.0
H369 H 0.37301 0.82832 0.78354 0.0
H370 H 0.4132 0.83096 0.89258 0.0
H371 H 0.4227 0.86967 0.93135 0.0
C372 C 0.53687 0.42095 0.69541 0.0
C373 C 0.58088 0.41807 0.69918 0.0
C374 C 0.59451 0.46117 0.63591 0.0
C375 C 0.55037 0.45941 0.62856 0.0
N376 N 0.47923 0.43409 0.64872 0.0
N377 N 0.65192 0.43253 0.67106 0.0
C378 C 0.52139 0.43878 0.65794 0.0
C379 C 0.60986 0.43771 0.6691 0.0
N380 N 0.50991 0.40688 0.72789 0.0
N381 N 0.6217 0.48593 0.61153 0.0
H382 H 0.66454 0.41616 0.6952 0.0
H383 H 0.67391 0.44201 0.64706 0.0
H384 H 0.61137 0.50372 0.5873 0.0
H385 H 0.65385 0.4917 0.61793 0.0
H386 H 0.47805 0.4117 0.72944 0.0
H387 H 0.52023 0.39335 0.75547 0.0
H388 H 0.45707 0.41544 0.66585 0.0
H389 H 0.46675 0.44653 0.62169 0.0
C390 C 0.88497 0.5455 0.1566 0.0
C391 C 0.90427 0.58302 0.1721 0.0
C392 C 0.96902 0.57091 0.1312 0.0
C393 C 0.94783 0.53597 0.1109 0.0
N394 N 0.8818 0.49476 0.09894 0.0
N395 N 0.96189 0.63515 0.16681 0.0
C396 C 0.90473 0.52452 0.12218 0.0
C397 C 0.94545 0.59687 0.15714 0.0
N398 N 0.84827 0.52922 0.1756 0.0
N399 N 0.01201 0.57822 0.12841 0.0
H400 H 0.94556 0.65524 0.18536 0.0
H401 H 0.98992 0.64805 0.15285 0.0
H402 H 0.03116 0.55836 0.11356 0.0
H403 H 0.0291 0.60137 0.14581 0.0
H404 H 0.83519 0.50009 0.1688 0.0
H405 H 0.83316 0.54331 0.20132 0.0
H406 H 0.84921 0.48838 0.10278 0.0
H407 H 0.89412 0.47918 0.07266 0.0
C408 C 0.37405 0.09227 0.14032 0.0
C409 C 0.34673 0.11201 0.11418 0.0
C410 C 0.3763 0.08271 0.04784 0.0
C411 C 0.40234 0.06149 0.07429 0.0
N412 N 0.41641 0.03693 0.14529 0.0
N413 N 0.31494 0.11995 0.04444 0.0
C414 C 0.39836 0.06356 0.12046 0.0
C415 C 0.34567 0.1053 0.0683 0.0
N416 N 0.37782 0.1018 0.18389 0.0
N417 N 0.38206 0.08302 0.00351 0.0
H418 H 0.2923 0.13701 0.05838 0.0
H419 H 0.30963 0.11239 0.01163 0.0
H420 H 0.40371 0.06673 0.98681 0.0
H421 H 0.36762 0.1019 0.98338 0.0
H422 H 0.40083 0.09157 0.20338 0.0
H423 H 0.36044 0.12269 0.19987 0.0
H424 H 0.41128 0.03463 0.17884 0.0
H425 H 0.43243 0.014 0.13159 0.0
C426 C 0.13153 0.92335 0.58923 0.0
C427 C 0.16091 0.91136 0.55747 0.0
C428 C 0.11762 0.93398 0.49944 0.0
C429 C 0.09276 0.9524 0.53159 0.0
N430 N 0.07776 0.96731 0.6073 0.0
N431 N 0.18389 0.90694 0.48218 0.0
C432 C 0.09967 0.94727 0.57661 0.0
C433 C 0.15417 0.9165 0.51241 0.0
N434 N 0.13438 0.91196 0.63146 0.0
N435 N 0.1062 0.93315 0.45654 0.0
H436 H 0.21083 0.89354 0.4902 0.0
H437 H 0.18335 0.91469 0.44953 0.0
H438 H 0.07981 0.94597 0.44577 0.0
H439 H 0.12047 0.91661 0.43225 0.0
H440 H 0.11164 0.91663 0.6554 0.0
H441 H 0.15751 0.89435 0.64147 0.0
H442 H 0.08492 0.96864 0.6404 0.0
H443 H 0.05451 0.98533 0.59906 0.0
C444 C 0.85063 0.3873 0.91596 0.0
C445 C 0.8128 0.40636 0.91658 0.0
C446 C 0.84826 0.46197 0.96025 0.0
C447 C 0.88758 0.44537 0.95449 0.0
N448 N 0.92683 0.39643 0.91642 0.0
N449 N 0.77757 0.46537 0.93283 0.0
C450 C 0.88898 0.4091 0.92958 0.0
C451 C 0.81212 0.44471 0.93696 0.0
N452 N 0.8499 0.34796 0.90324 0.0
N453 N 0.84472 0.49318 0.98918 0.0
H454 H 0.75067 0.45395 0.91577 0.0
H455 H 0.77717 0.49519 0.94288 0.0
H456 H 0.86979 0.50631 0.00778 0.0
H457 H 0.81583 0.50346 0.99798 0.0
H458 H 0.87578 0.33158 0.90641 0.0
H459 H 0.82227 0.33061 0.89388 0.0
H460 H 0.92916 0.37246 0.89447 0.0
H461 H 0.95595 0.41232 0.923 0.0
C462 C 0.66133 0.55451 0.40545 0.0
C463 C 0.67998 0.59322 0.41787 0.0
C464 C 0.6312 0.59426 0.48089 0.0
C465 C 0.6078 0.5592 0.46398 0.0
N466 N 0.60156 0.50412 0.41181 0.0
N467 N 0.68433 0.64989 0.46807 0.0
C468 C 0.62374 0.53828 0.4273 0.0
C469 C 0.66566 0.61287 0.45613 0.0
N470 N 0.67926 0.53357 0.37235 0.0
N471 N 0.62114 0.60894 0.52139 0.0
H472 H 0.71127 0.66327 0.45238 0.0
H473 H 0.67213 0.66815 0.49213 0.0
H474 H 0.59721 0.59489 0.54091 0.0
H475 H 0.639 0.63235 0.53754 0.0
H476 H 0.67018 0.50368 0.36446 0.0
H477 H 0.70557 0.54523 0.35443 0.0
H478 H 0.60798 0.48976 0.38229 0.0
H479 H 0.57476 0.49124 0.42771 0.0
C480 C 0.15642 0.3545 0.06132 0.0
C481 C 0.1395 0.32245 0.08718 0.0
C482 C 0.06755 0.33667 0.07058 0.0
C483 C 0.08453 0.37229 0.0506 0.0
N484 N 0.14516 0.41776 0.03029 0.0
N485 N 0.07958 0.28271 0.11816 0.0
C486 C 0.12899 0.38168 0.04608 0.0
C487 C 0.09516 0.31311 0.09192 0.0
N488 N 0.19873 0.35899 0.05163 0.0
N489 N 0.0251 0.32518 0.06842 0.0
H490 H 0.09883 0.2638 0.133 0.0
H491 H 0.04786 0.27753 0.12728 0.0
H492 H 0.00419 0.34178 0.05256 0.0
H493 H 0.01114 0.29767 0.07874 0.0
H494 H 0.21236 0.37928 0.02919 0.0
H495 H 0.21974 0.33987 0.06308 0.0
H496 H 0.17713 0.42814 0.03137 0.0
H497 H 0.12656 0.43905 0.01916 0.0
C498 C 0.59333 0.13475 0.91184 0.0
C499 C 0.57607 0.17132 0.9222 0.0
C500 C 0.51994 0.13465 0.96583 0.0
C501 C 0.53803 0.09845 0.95623 0.0
N502 N 0.59829 0.0661 0.93134 0.0
N503 N 0.52824 0.20731 0.96624 0.0
C504 C 0.57681 0.09924 0.93281 0.0
C505 C 0.54086 0.17163 0.95138 0.0
N506 N 0.62401 0.13337 0.88019 0.0
N507 N 0.48241 0.13353 0.98825 0.0
H508 H 0.54307 0.2348 0.95662 0.0
H509 H 0.50548 0.20986 0.99069 0.0
H510 H 0.46839 0.10749 0.00214 0.0
H511 H 0.46455 0.15775 0.9917 0.0
H512 H 0.63451 0.1068 0.86807 0.0
H513 H 0.63623 0.1583 0.86296 0.0
H514 H 0.62873 0.06573 0.91832 0.0
H515 H 0.58739 0.04033 0.94776 0.0
C516 C 0.94583 0.83513 0.39968 0.0
C517 C 0.90134 0.82523 0.39949 0.0
C518 C 0.89159 0.88601 0.44361 0.0
C519 C 0.93619 0.895 0.4454 0.0
N520 N 0.00588 0.87442 0.43285 0.0
N521 N 0.83183 0.83785 0.42562 0.0
C522 C 0.96337 0.86856 0.42544 0.0
C523 C 0.87424 0.84966 0.42288 0.0
N524 N 0.97128 0.81284 0.37475 0.0
N525 N 0.86575 0.91302 0.46023 0.0
H526 H 0.81757 0.81253 0.40923 0.0
H527 H 0.81103 0.8515 0.44636 0.0
H528 H 0.87711 0.9393 0.47674 0.0
H529 H 0.83328 0.9109 0.45526 0.0
H530 H 0.00332 0.82111 0.36923 0.0
H531 H 0.95978 0.78713 0.35713 0.0
H532 H 0.02715 0.85422 0.42303 0.0
H533 H 0.01951 0.8979 0.45251 0.0
C534 C 0.41533 0.68943 0.62372 0.0
C535 C 0.3907 0.70409 0.59057 0.0
C536 C 0.40775 0.64989 0.5408 0.0
C537 C 0.42944 0.63311 0.57495 0.0
N538 N 0.44808 0.63301 0.65093 0.0
N539 N 0.35525 0.69347 0.52161 0.0
C540 C 0.43159 0.65176 0.61709 0.0
C541 C 0.38419 0.68264 0.55046 0.0
N542 N 0.42443 0.71209 0.66077 0.0
N543 N 0.41202 0.63656 0.49848 0.0
H544 H 0.33732 0.71743 0.52768 0.0
H545 H 0.34608 0.67634 0.49385 0.0
H546 H 0.43147 0.61462 0.489 0.0
H547 H 0.40022 0.6505 0.472 0.0
H548 H 0.44607 0.70509 0.68383 0.0
H549 H 0.41258 0.73953 0.66702 0.0
H550 H 0.44659 0.64315 0.68331 0.0
H551 H 0.46011 0.60536 0.64716 0.0
C552 C 0.96703 0.95206 0.75479 0.0
C553 C 0.92512 0.93927 0.76819 0.0
C554 C 0.90084 0.94179 0.69295 0.0
C555 C 0.94198 0.95798 0.68033 0.0
N556 N 0.01191 0.98662 0.70056 0.0
N557 N 0.85067 0.92788 0.75226 0.0
C558 C 0.97458 0.96522 0.71155 0.0
C559 C 0.89154 0.93581 0.73789 0.0
N560 N 0.99969 0.95091 0.78312 0.0
N561 N 0.87117 0.93069 0.66187 0.0
H562 H 0.8426 0.92297 0.78495 0.0
H563 H 0.82456 0.92938 0.73247 0.0
H564 H 0.87693 0.93427 0.62853 0.0
H565 H 0.84213 0.91475 0.66871 0.0
H566 H 0.03139 0.95569 0.7737 0.0
H567 H 0.99527 0.94187 0.81531 0.0
H568 H 0.03522 0.9962 0.72312 0.0
H569 H 0.01788 0.99845 0.66974 0.0
C570 C 0.6964 0.09864 0.15575 0.0
C571 C 0.68225 0.12345 0.19 0.0
C572 C 0.60839 0.10289 0.17157 0.0
C573 C 0.62249 0.07693 0.13833 0.0
N574 N 0.67878 0.04545 0.10186 0.0
N575 N 0.62586 0.14458 0.23596 0.0
C576 C 0.66621 0.07321 0.13152 0.0
C577 C 0.6385 0.12431 0.19945 0.0
N578 N 0.73859 0.10054 0.14549 0.0
N579 N 0.56619 0.10725 0.1763 0.0
H580 H 0.64696 0.16103 0.25698 0.0
H581 H 0.59478 0.14277 0.24752 0.0
H582 H 0.54276 0.08988 0.15886 0.0
H583 H 0.55432 0.12943 0.19589 0.0
H584 H 0.75079 0.08663 0.11799 0.0
H585 H 0.76157 0.11839 0.16306 0.0
H586 H 0.70974 0.03812 0.09869 0.0
H587 H 0.65772 0.02767 0.08197 0.0
C588 C 0.47312 0.56812 0.31213 0.0
C589 C 0.43029 0.57628 0.30912 0.0
C590 C 0.41456 0.54271 0.37864 0.0
C591 C 0.45836 0.53932 0.38432 0.0
N592 N 0.53026 0.55727 0.36011 0.0
N593 N 0.3614 0.57696 0.34313 0.0
C594 C 0.48793 0.55412 0.35194 0.0
C595 C 0.40126 0.56505 0.34338 0.0
N596 N 0.49956 0.5728 0.27664 0.0
N597 N 0.38547 0.52351 0.40613 0.0
H598 H 0.35067 0.59374 0.31823 0.0
H599 H 0.34037 0.5734 0.36947 0.0
H600 H 0.39389 0.50591 0.43145 0.0
H601 H 0.35298 0.52167 0.40111 0.0
H602 H 0.52981 0.56335 0.27569 0.0
H603 H 0.48989 0.58245 0.24667 0.0
H604 H 0.55299 0.57165 0.33956 0.0
H605 H 0.54229 0.5495 0.38968 0.0
C606 C 0.05375 0.42829 0.83746 0.0
C607 C 0.09842 0.42864 0.83535 0.0
C608 C 0.10497 0.47636 0.89789 0.0
C609 C 0.06039 0.47753 0.89855 0.0
N610 N 0.99358 0.46211 0.86246 0.0
N611 N 0.16723 0.45718 0.8588 0.0
C612 C 0.03506 0.45548 0.86658 0.0
C613 C 0.12423 0.45395 0.86422 0.0
N614 N 0.02908 0.40132 0.81226 0.0
N615 N 0.12883 0.49568 0.93029 0.0
H616 H 0.18247 0.44066 0.83514 0.0
H617 H 0.18771 0.4783 0.87539 0.0
H618 H 0.11622 0.51364 0.95439 0.0
H619 H 0.16053 0.49197 0.93509 0.0
H620 H 0.99637 0.39627 0.81606 0.0
H621 H 0.04162 0.38174 0.78968 0.0
H622 H 0.97458 0.4501 0.83697 0.0
H623 H 0.97899 0.48253 0.88231 0.0
C624 C 0.65827 0.89689 0.98134 0.0
C625 C 0.6858 0.91899 0.95197 0.0
C626 C 0.62734 0.95504 0.92866 0.0
C627 C 0.60314 0.9395 0.96441 0.0
N628 N 0.59202 0.89281 0.02233 0.0
N629 N 0.69745 0.9699 0.89776 0.0
C630 C 0.61735 0.90907 0.98968 0.0
C631 C 0.67044 0.94779 0.92492 0.0
N632 N 0.67134 0.86429 1.00083 0.0
N633 N 0.6089 0.97652 0.89843 0.0
H634 H 0.72937 0.96564 0.89412 0.0
H635 H 0.68892 0.99439 0.88113 0.0
H636 H 0.57692 0.98114 0.90033 0.0
H637 H 0.62393 0.98612 0.8696 0.0
H638 H 0.65173 0.84495 0.01992 0.0
H639 H 0.70112 0.85458 0.99484 0.0
H640 H 0.60209 0.87404 0.04561 0.0
H641 H 0.56072 0.89913 0.02658 0.0
C642 C 0.87778 0.12672 0.47646 0.0
C643 C 0.86162 0.11821 0.43395 0.0
C644 C 0.8828 0.05022 0.43588 0.0
C645 C 0.8979 0.05844 0.47881 0.0
N646 N 0.90043 0.10029 0.54408 0.0
N647 N 0.83994 0.06986 0.37691 0.0
C648 C 0.89244 0.09544 0.50042 0.0
C649 C 0.86141 0.07926 0.41478 0.0
N650 N 0.88077 0.165 0.49318 0.0
N651 N 0.89021 0.01526 0.4147 0.0
H652 H 0.82381 0.09038 0.36056 0.0
H653 H 0.83494 0.04094 0.36367 0.0
H654 H 0.90443 0.99277 0.42975 0.0
H655 H 0.88476 0.00954 0.38157 0.0
H656 H 0.89676 0.17389 0.52182 0.0
H657 H 0.87006 0.18868 0.4767 0.0
H658 H 0.89313 0.12514 0.56267 0.0
H659 H 0.91115 0.07787 0.5626 0.0
C660 C 0.18557 0.61416 0.04558 0.0
C661 C 0.20509 0.59649 0.0805 0.0
C662 C 0.14154 0.54951 0.08966 0.0
C663 C 0.1243 0.56371 0.05114 0.0
N664 N 0.13429 0.60485 0.98765 0.0
N665 N 0.20468 0.54256 0.13085 0.0
C666 C 0.14736 0.59496 0.02788 0.0
C667 C 0.18388 0.56287 0.10127 0.0
N668 N 0.20313 0.64971 0.02979 0.0
N669 N 0.11708 0.52438 0.11623 0.0
H670 H 0.23581 0.55105 0.14009 0.0
H671 H 0.1924 0.51521 0.14318 0.0
H672 H 0.08558 0.51453 0.10987 0.0
H673 H 0.12667 0.51657 0.14693 0.0
H674 H 0.18804 0.66607 0.00745 0.0
H675 H 0.23092 0.66475 0.04214 0.0
H676 H 0.15235 0.62436 0.96732 0.0
H677 H 0.10752 0.59063 0.97252 0.0
C678 C 0.3435 0.38435 0.5584 0.0
C679 C 0.32645 0.40734 0.59271 0.0
C680 C 0.38405 0.46067 0.5823 0.0
C681 C 0.40097 0.43791 0.54758 0.0
N682 N 0.38848 0.38449 0.49376 0.0
N683 N 0.32371 0.47133 0.62925 0.0
C684 C 0.37804 0.4017 0.53288 0.0
C685 C 0.34452 0.44688 0.6019 0.0
N686 N 0.32812 0.34531 0.5514 0.0
N687 N 0.40684 0.49413 0.59857 0.0
H688 H 0.2947 0.46207 0.64401 0.0
H689 H 0.33305 0.50171 0.6339 0.0
H690 H 0.43583 0.5048 0.58532 0.0
H691 H 0.39876 0.50931 0.62711 0.0
H692 H 0.34259 0.32585 0.53028 0.0
H693 H 0.30284 0.33141 0.56919 0.0
H694 H 0.37057 0.36004 0.47945 0.0
H695 H 0.41216 0.3975 0.47322 0.0
C696 C 0.92034 0.70875 0.93592 0.0
C697 C 0.91397 0.73001 0.97576 0.0
C698 C 0.93737 0.6755 0.01721 0.0
C699 C 0.94103 0.65302 0.97755 0.0
N700 N 0.92798 0.64458 0.90029 0.0
N701 N 0.9079 0.73115 0.05429 0.0
C702 C 0.93025 0.6686 0.93715 0.0
C703 C 0.9197 0.71252 0.01644 0.0
N704 N 0.91812 0.7273 0.89699 0.0
N705 N 0.9532 0.66288 0.05514 0.0
H706 H 0.89542 0.7587 0.05493 0.0
H707 H 0.90695 0.71773 0.08457 0.0
H708 H 0.96812 0.63681 0.05715 0.0
H709 H 0.9554 0.68027 0.08385 0.0
H710 H 0.92727 0.7149 0.86722 0.0
H711 H 0.91007 0.75647 0.89468 0.0
H712 H 0.9161 0.65302 0.87083 0.0
H713 H 0.93422 0.61473 0.90014 0.0
C714 C 0.41111 0.84803 0.07824 0.0
C715 C 0.43689 0.82641 0.10443 0.0
C716 C 0.4912 0.88385 0.10618 0.0
C717 C 0.46396 0.90665 0.08299 0.0
N718 N 0.3948 0.91281 0.05446 0.0
N719 N 0.49785 0.826 0.15015 0.0
C720 C 0.423 0.88937 0.07108 0.0
C721 C 0.47589 0.84504 0.12041 0.0
N722 N 0.3759 0.82879 0.05908 0.0
N723 N 0.53228 0.89861 0.11331 0.0
H724 H 0.48765 0.79761 0.16133 0.0
H725 H 0.52404 0.83969 0.16672 0.0
H726 H 0.54513 0.92657 0.10306 0.0
H727 H 0.55486 0.88166 0.1256 0.0
H728 H 0.35855 0.84168 0.03566 0.0
H729 H 0.3659 0.79874 0.06394 0.0
H730 H 0.3631 0.90305 0.04921 0.0
H731 H 0.40219 0.94324 0.04979 0.0
C732 C 0.10237 0.14331 0.62584 0.0
C733 C 0.09064 0.18144 0.61519 0.0
C734 C 0.03614 0.14928 0.56612 0.0
C735 C 0.05089 0.11147 0.57335 0.0
N736 N 0.10417 0.074 0.603 0.0
N737 N 0.05068 0.22149 0.57049 0.0
C738 C 0.08557 0.10884 0.60148 0.0
C739 C 0.05865 0.18465 0.58404 0.0
N740 N 0.12901 0.1399 0.65986 0.0
N741 N 0.99977 0.15136 0.54342 0.0
H742 H 0.06617 0.24804 0.58317 0.0
H743 H 0.03126 0.22569 0.54428 0.0
H744 H 0.98233 0.12631 0.52981 0.0
H745 H 0.98484 0.1774 0.54127 0.0
H746 H 0.1351 0.11253 0.67214 0.0
H747 H 0.14201 0.16443 0.67847 0.0
H748 H 0.13213 0.07142 0.61952 0.0
H749 H 0.09429 0.04878 0.58389 0.0
C750 C 0.63655 0.32622 0.4326 0.0
C751 C 0.64644 0.32653 0.38731 0.0
C752 C 0.59646 0.37626 0.37622 0.0
C753 C 0.58611 0.37536 0.42142 0.0
N754 N 0.58784 0.34291 0.49038 0.0
N755 N 0.63038 0.34502 0.31444 0.0
C756 C 0.60362 0.34827 0.44892 0.0
C757 C 0.62456 0.34938 0.35858 0.0
N758 N 0.65968 0.30601 0.46023 0.0
N759 N 0.58134 0.40418 0.3507 0.0
H760 H 0.65123 0.32604 0.30052 0.0
H761 H 0.61222 0.35763 0.29155 0.0
H762 H 0.56008 0.42382 0.36221 0.0
H763 H 0.59186 0.40968 0.31888 0.0
H764 H 0.65739 0.30854 0.49413 0.0
H765 H 0.68351 0.2888 0.44942 0.0
H766 H 0.59633 0.32084 0.5107 0.0
H767 H 0.563 0.35798 0.50299 0.0
loop_
_geom_bond_atom_site_label_1
_geom_bond_atom_site_label_2
_geom_bond_distance
_geom_bond_site_symmetry_2
_ccdc_geom_bond_type
P0 O11 1.490 . S
P0 C14 1.812 . S
P0 C20 1.803 . S
P0 C26 1.819 . S
H1 C15 0.941 . S
H2 C16 0.939 . S
H3 C18 0.940 . S
H4 C19 0.940 . S
H5 C21 0.939 . S
H6 C22 0.942 . S
H7 C24 0.940 . S
H8 C25 0.939 . S
H9 C27 0.941 . S
H10 C31 0.939 . S
O11 P0 1.490 . S
H12 C28 0.939 . S
H13 C30 0.940 . S
C14 P0 1.812 . S
C14 C15 1.389 . S
C14 C19 1.391 . S
C15 H1 0.941 . S
C15 C14 1.389 . S
C15 C16 1.397 . S
C16 H2 0.939 . S
C16 C15 1.397 . S
C16 C17 1.378 . S
C17 C16 1.378 . S
C17 C18 1.378 . S
C18 H3 0.940 . S
C18 C17 1.378 . S
C18 C19 1.396 . S
C19 H4 0.940 . S
C19 C14 1.391 . S
C19 C18 1.396 . S
C20 P0 1.803 . S
C20 C21 1.378 . S
C20 C25 1.400 . S
C21 H5 0.939 . S
C21 C20 1.378 . S
C21 C22 1.361 . S
C22 H6 0.942 . S
C22 C21 1.361 . S
C22 C23 1.369 . S
C23 C22 1.369 . S
C23 C24 1.404 . S
C24 H7 0.940 . S
C24 C23 1.404 . S
C24 C25 1.389 . S
C25 H8 0.939 . S
C25 C20 1.400 . S
C25 C24 1.389 . S
C26 P0 1.819 . S
C26 C27 1.391 . S
C26 C31 1.391 . S
C27 H9 0.941 . S
C27 C26 1.391 . S
C27 C28 1.396 . S
C28 H12 0.939 . S
C28 C27 1.396 . S
C28 C29 1.397 . S
C29 C28 1.397 . S
C29 C30 1.385 . S
C30 H13 0.940 . S
C30 C29 1.385 . S
C30 C31 1.388 . S
C31 H10 0.939 . S
C31 C26 1.391 . S
C31 C30 1.388 . S
P32 O43 1.490 . S
P32 C46 1.812 . S
P32 C52 1.803 . S
P32 C58 1.819 . S
H33 C47 0.941 . S
H34 C48 0.939 . S
H35 C50 0.940 . S
H36 C51 0.940 . S
H37 C53 0.939 . S
H38 C54 0.942 . S
H39 C56 0.940 . S
H40 C57 0.939 . S
H41 C59 0.941 . S
H42 C63 0.939 . S
O43 P32 1.490 . S
H44 C60 0.939 . S
H45 C62 0.940 . S
C46 P32 1.812 . S
C46 C47 1.389 . S
C46 C51 1.391 . S
C47 H33 0.941 . S
C47 C46 1.389 . S
C47 C48 1.397 . S
C48 H34 0.939 . S
C48 C47 1.397 . S
C48 C49 1.378 . S
C49 C48 1.378 . S
C49 C50 1.378 . S
C50 H35 0.940 . S
C50 C49 1.378 . S
C50 C51 1.396 . S
C51 H36 0.940 . S
C51 C46 1.391 . S
C51 C50 1.396 . S
C52 P32 1.803 . S
C52 C53 1.378 . S
C52 C57 1.400 . S
C53 H37 0.939 . S
C53 C52 1.378 . S
C53 C54 1.361 . S
C54 H38 0.942 . S
C54 C53 1.361 . S
C54 C55 1.369 . S
C55 C54 1.369 . S
C55 C56 1.404 . S
C56 H39 0.940 . S
C56 C55 1.404 . S
C56 C57 1.389 . S
C57 H40 0.939 . S
C57 C52 1.400 . S
C57 C56 1.389 . S
C58 P32 1.819 . S
C58 C59 1.391 . S
C58 C63 1.391 . S
C59 H41 0.941 . S
C59 C58 1.391 . S
C59 C60 1.396 . S
C60 H44 0.939 . S
C60 C59 1.396 . S
C60 C61 1.397 . S
C61 C60 1.397 . S
C61 C62 1.385 . S
C62 H45 0.940 . S
C62 C61 1.385 . S
C62 C63 1.388 . S
C63 H42 0.939 . S
C63 C58 1.391 . S
C63 C62 1.388 . S
P64 O75 1.490 . S
P64 C78 1.812 . S
P64 C84 1.803 . S
P64 C90 1.819 . S
H65 C79 0.941 . S
H66 C80 0.939 . S
H67 C82 0.940 . S
H68 C83 0.940 . S
H69 C85 0.939 . S
H70 C86 0.942 . S
H71 C88 0.940 . S
H72 C89 0.939 . S
H73 C91 0.941 . S
H74 C95 0.939 . S
O75 P64 1.490 . S
H76 C92 0.939 . S
H77 C94 0.940 . S
C78 P64 1.812 . S
C78 C79 1.389 . S
C78 C83 1.391 . S
C79 H65 0.941 . S
C79 C78 1.389 . S
C79 C80 1.397 . S
C80 H66 0.939 . S
C80 C79 1.397 . S
C80 C81 1.378 . S
C81 C80 1.378 . S
C81 C82 1.378 . S
C82 H67 0.940 . S
C82 C81 1.378 . S
C82 C83 1.396 . S
C83 H68 0.940 . S
C83 C78 1.391 . S
C83 C82 1.396 . S
C84 P64 1.803 . S
C84 C85 1.378 . S
C84 C89 1.400 . S
C85 H69 0.939 . S
C85 C84 1.378 . S
C85 C86 1.361 . S
C86 H70 0.942 . S
C86 C85 1.361 . S
C86 C87 1.369 . S
C87 C86 1.369 . S
C87 C88 1.404 . S
C88 H71 0.940 . S
C88 C87 1.404 . S
C88 C89 1.389 . S
C89 H72 0.939 . S
C89 C84 1.400 . S
C89 C88 1.389 . S
C90 P64 1.819 . S
C90 C91 1.391 . S
C90 C95 1.391 . S
C91 H73 0.941 . S
C91 C90 1.391 . S
C91 C92 1.396 . S
C92 H76 0.939 . S
C92 C91 1.396 . S
C92 C93 1.397 . S
C93 C92 1.397 . S
C93 C94 1.385 . S
C94 H77 0.940 . S
C94 C93 1.385 . S
C94 C95 1.388 . S
C95 H74 0.939 . S
C95 C90 1.391 . S
C95 C94 1.388 . S
P96 O107 1.490 . S
P96 C110 1.812 . S
P96 C116 1.803 . S
P96 C122 1.819 . S
H97 C111 0.941 . S
H98 C112 0.939 . S
H99 C114 0.940 . S
H100 C115 0.940 . S
H101 C117 0.939 . S
H102 C118 0.942 . S
H103 C120 0.940 . S
H104 C121 0.939 . S
H105 C123 0.941 . S
H106 C127 0.939 . S
O107 P96 1.490 . S
H108 C124 0.939 . S
H109 C126 0.940 . S
C110 P96 1.812 . S
C110 C111 1.389 . S
C110 C115 1.391 . S
C111 H97 0.941 . S
C111 C110 1.389 . S
C111 C112 1.397 . S
C112 H98 0.939 . S
C112 C111 1.397 . S
C112 C113 1.378 . S
C113 C112 1.378 . S
C113 C114 1.378 . S
C114 H99 0.940 . S
C114 C113 1.378 . S
C114 C115 1.396 . S
C115 H100 0.940 . S
C115 C110 1.391 . S
C115 C114 1.396 . S
C116 P96 1.803 . S
C116 C117 1.378 . S
C116 C121 1.400 . S
C117 H101 0.939 . S
C117 C116 1.378 . S
C117 C118 1.361 . S
C118 H102 0.942 . S
C118 C117 1.361 . S
C118 C119 1.369 . S
C119 C118 1.369 . S
C119 C120 1.404 . S
C120 H103 0.940 . S
C120 C119 1.404 . S
C120 C121 1.389 . S
C121 H104 0.939 . S
C121 C116 1.400 . S
C121 C120 1.389 . S
C122 P96 1.819 . S
C122 C123 1.391 . S
C122 C127 1.391 . S
C123 H105 0.941 . S
C123 C122 1.391 . S
C123 C124 1.396 . S
C124 H108 0.939 . S
C124 C123 1.396 . S
C124 C125 1.397 . S
C125 C124 1.397 . S
C125 C126 1.385 . S
C126 H109 0.940 . S
C126 C125 1.385 . S
C126 C127 1.388 . S
C127 H106 0.939 . S
C127 C122 1.391 . S
C127 C126 1.388 . S
P128 O139 1.490 . S
P128 C142 1.812 . S
P128 C148 1.803 . S
P128 C154 1.819 . S
H129 C143 0.941 . S
H130 C144 0.939 . S
H131 C146 0.940 . S
H132 C147 0.940 . S
H133 C149 0.939 . S
H134 C150 0.942 . S
H135 C152 0.940 . S
H136 C153 0.939 . S
H137 C155 0.941 . S
H138 C159 0.939 . S
O139 P128 1.490 . S
H140 C156 0.939 . S
H141 C158 0.940 . S
C142 P128 1.812 . S
C142 C143 1.389 . S
C142 C147 1.391 . S
C143 H129 0.941 . S
C143 C142 1.389 . S
C143 C144 1.397 . S
C144 H130 0.939 . S
C144 C143 1.397 . S
C144 C145 1.378 . S
C145 C144 1.378 . S
C145 C146 1.378 . S
C146 H131 0.940 . S
C146 C145 1.378 . S
C146 C147 1.396 . S
C147 H132 0.940 . S
C147 C142 1.391 . S
C147 C146 1.396 . S
C148 P128 1.803 . S
C148 C149 1.378 . S
C148 C153 1.400 . S
C149 H133 0.939 . S
C149 C148 1.378 . S
C149 C150 1.361 . S
C150 H134 0.942 . S
C150 C149 1.361 . S
C150 C151 1.369 . S
C151 C150 1.369 . S
C151 C152 1.404 . S
C152 H135 0.940 . S
C152 C151 1.404 . S
C152 C153 1.389 . S
C153 H136 0.939 . S
C153 C148 1.400 . S
C153 C152 1.389 . S
C154 P128 1.819 . S
C154 C155 1.391 . S
C154 C159 1.391 . S
C155 H137 0.941 . S
C155 C154 1.391 . S
C155 C156 1.396 . S
C156 H140 0.939 . S
C156 C155 1.396 . S
C156 C157 1.397 . S
C157 C156 1.397 . S
C157 C158 1.385 . S
C158 H141 0.940 . S
C158 C157 1.385 . S
C158 C159 1.388 . S
C159 H138 0.939 . S
C159 C154 1.391 . S
C159 C158 1.388 . S
P160 O171 1.490 . S
P160 C174 1.812 . S
P160 C180 1.803 . S
P160 C186 1.819 . S
H161 C175 0.941 . S
H162 C176 0.939 . S
H163 C178 0.940 . S
H164 C179 0.940 . S
H165 C181 0.939 . S
H166 C182 0.942 . S
H167 C184 0.940 . S
H168 C185 0.939 . S
H169 C187 0.941 . S
H170 C191 0.939 . S
O171 P160 1.490 . S
H172 C188 0.939 . S
H173 C190 0.940 . S
C174 P160 1.812 . S
C174 C175 1.389 . S
C174 C179 1.391 . S
C175 H161 0.941 . S
C175 C174 1.389 . S
C175 C176 1.397 . S
C176 H162 0.939 . S
C176 C175 1.397 . S
C176 C177 1.378 . S
C177 C176 1.378 . S
C177 C178 1.378 . S
C178 H163 0.940 . S
C178 C177 1.378 . S
C178 C179 1.396 . S
C179 H164 0.940 . S
C179 C174 1.391 . S
C179 C178 1.396 . S
C180 P160 1.803 . S
C180 C181 1.378 . S
C180 C185 1.400 . S
C181 H165 0.939 . S
C181 C180 1.378 . S
C181 C182 1.361 . S
C182 H166 0.942 . S
C182 C181 1.361 . S
C182 C183 1.369 . S
C183 C182 1.369 . S
C183 C184 1.404 . S
C184 H167 0.940 . S
C184 C183 1.404 . S
C184 C185 1.389 . S
C185 H168 0.939 . S
C185 C180 1.400 . S
C185 C184 1.389 . S
C186 P160 1.819 . S
C186 C187 1.391 . S
C186 C191 1.391 . S
C187 H169 0.941 . S
C187 C186 1.391 . S
C187 C188 1.396 . S
C188 H172 0.939 . S
C188 C187 1.396 . S
C188 C189 1.397 . S
C189 C188 1.397 . S
C189 C190 1.385 . S
C190 H173 0.940 . S
C190 C189 1.385 . S
C190 C191 1.388 . S
C191 H170 0.939 . S
C191 C186 1.391 . S
C191 C190 1.388 . S
P192 O203 1.490 . S
P192 C206 1.812 . S
P192 C212 1.803 . S
P192 C218 1.819 . S
H193 C207 0.941 . S
H194 C208 0.939 . S
H195 C210 0.940 . S
H196 C211 0.940 . S
H197 C213 0.939 . S
H198 C214 0.942 . S
H199 C216 0.940 . S
H200 C217 0.939 . S
H201 C219 0.941 . S
H202 C223 0.939 . S
O203 P192 1.490 . S
H204 C220 0.939 . S
H205 C222 0.940 . S
C206 P192 1.812 . S
C206 C207 1.389 . S
C206 C211 1.391 . S
C207 H193 0.941 . S
C207 C206 1.389 . S
C207 C208 1.397 . S
C208 H194 0.939 . S
C208 C207 1.397 . S
C208 C209 1.378 . S
C209 C208 1.378 . S
C209 C210 1.378 . S
C210 H195 0.940 . S
C210 C209 1.378 . S
C210 C211 1.396 . S
C211 H196 0.940 . S
C211 C206 1.391 . S
C211 C210 1.396 . S
C212 P192 1.803 . S
C212 C213 1.378 . S
C212 C217 1.400 . S
C213 H197 0.939 . S
C213 C212 1.378 . S
C213 C214 1.361 . S
C214 H198 0.942 . S
C214 C213 1.361 . S
C214 C215 1.369 . S
C215 C214 1.369 . S
C215 C216 1.404 . S
C216 H199 0.940 . S
C216 C215 1.404 . S
C216 C217 1.389 . S
C217 H200 0.939 . S
C217 C212 1.400 . S
C217 C216 1.389 . S
C218 P192 1.819 . S
C218 C219 1.391 . S
C218 C223 1.391 . S
C219 H201 0.941 . S
C219 C218 1.391 . S
C219 C220 1.396 . S
C220 H204 0.939 . S
C220 C219 1.396 . S
C220 C221 1.397 . S
C221 C220 1.397 . S
C221 C222 1.385 . S
C222 H205 0.940 . S
C222 C221 1.385 . S
C222 C223 1.388 . S
C223 H202 0.939 . S
C223 C218 1.391 . S
C223 C222 1.388 . S
P224 O235 1.490 . S
P224 C238 1.812 . S
P224 C244 1.803 . S
P224 C250 1.819 . S
H225 C239 0.941 . S
H226 C240 0.939 . S
H227 C242 0.940 . S
H228 C243 0.940 . S
H229 C245 0.939 . S
H230 C246 0.942 . S
H231 C248 0.940 . S
H232 C249 0.939 . S
H233 C251 0.941 . S
H234 C255 0.939 . S
O235 P224 1.490 . S
H236 C252 0.939 . S
H237 C254 0.940 . S
C238 P224 1.812 . S
C238 C239 1.389 . S
C238 C243 1.391 . S
C239 H225 0.941 . S
C239 C238 1.389 . S
C239 C240 1.397 . S
C240 H226 0.939 . S
C240 C239 1.397 . S
C240 C241 1.378 . S
C241 C240 1.378 . S
C241 C242 1.378 . S
C242 H227 0.940 . S
C242 C241 1.378 . S
C242 C243 1.396 . S
C243 H228 0.940 . S
C243 C238 1.391 . S
C243 C242 1.396 . S
C244 P224 1.803 . S
C244 C245 1.378 . S
C244 C249 1.400 . S
C245 H229 0.939 . S
C245 C244 1.378 . S
C245 C246 1.361 . S
C246 H230 0.942 . S
C246 C245 1.361 . S
C246 C247 1.369 . S
C247 C246 1.369 . S
C247 C248 1.404 . S
C248 H231 0.940 . S
C248 C247 1.404 . S
C248 C249 1.389 . S
C249 H232 0.939 . S
C249 C244 1.400 . S
C249 C248 1.389 . S
C250 P224 1.819 . S
C250 C251 1.391 . S
C250 C255 1.391 . S
C251 H233 0.941 . S
C251 C250 1.391 . S
C251 C252 1.396 . S
C252 H236 0.939 . S
C252 C251 1.396 . S
C252 C253 1.397 . S
C253 C252 1.397 . S
C253 C254 1.385 . S
C254 H237 0.940 . S
C254 C253 1.385 . S
C254 C255 1.388 . S
C255 H234 0.939 . S
C255 C250 1.391 . S
C255 C254 1.388 . S
Dy256 O260 2.398 . S
Dy256 O261 2.491 . S
Dy256 O262 2.403 1_545 S
Dy256 O263 2.664 1_545 S
Dy256 O267 2.326 . S
Dy256 O271 2.310 1_455 S
Dy256 O272 2.351 1_445 S
C257 O268 1.185 . S
C257 O269 1.355 . S
C258 O260 1.185 . S
C258 O261 1.355 . S
Dy259 O263 2.310 1_655 S
Dy259 O266 2.351 1_665 S
Dy259 O268 2.398 . S
Dy259 O269 2.491 . S
Dy259 O270 2.403 1_565 S
Dy259 O271 2.664 1_565 S
Dy259 O273 2.326 . S
O260 Dy256 2.398 . S
O260 C258 1.185 . S
O261 Dy256 2.491 . S
O261 C258 1.355 . S
O262 Dy256 2.403 1_565 S
O262 C264 1.254 . S
O263 Dy256 2.664 1_565 S
O263 Dy259 2.310 1_455 S
O263 C264 1.268 . S
C264 O262 1.254 . S
C264 O263 1.268 . S
C265 O270 1.254 . S
C265 O271 1.268 . S
O266 Dy259 2.351 1_445 S
O266 C274 1.249 . S
O267 Dy256 2.326 . S
O267 C274 1.267 . S
O268 C257 1.185 . S
O268 Dy259 2.398 . S
O269 C257 1.355 . S
O269 Dy259 2.491 . S
O270 Dy259 2.403 1_545 S
O270 C265 1.254 . S
O271 Dy256 2.310 1_655 S
O271 Dy259 2.664 1_545 S
O271 C265 1.268 . S
O272 Dy256 2.351 1_665 S
O272 C275 1.249 . S
O273 Dy259 2.326 . S
O273 C275 1.267 . S
C274 O266 1.249 . S
C274 O267 1.267 . S
C275 O272 1.249 . S
C275 O273 1.267 . S
Dy276 O280 2.398 . S
Dy276 O281 2.491 . S
Dy276 O282 2.403 1_545 S
Dy276 O283 2.664 1_545 S
Dy276 O287 2.326 . S
Dy276 O291 2.310 . S
Dy276 O292 2.351 1_544 S
C277 O288 1.185 . S
C277 O289 1.355 . S
C278 O280 1.185 . S
C278 O281 1.355 . S
Dy279 O283 2.310 1_546 S
Dy279 O286 2.351 1_556 S
Dy279 O288 2.398 1_545 S
Dy279 O289 2.491 1_545 S
Dy279 O290 2.403 . S
Dy279 O291 2.664 1_556 S
Dy279 O293 2.326 1_545 S
O280 Dy276 2.398 . S
O280 C278 1.185 . S
O281 Dy276 2.491 . S
O281 C278 1.355 . S
O282 Dy276 2.403 1_565 S
O282 C284 1.254 . S
O283 Dy276 2.664 1_565 S
O283 Dy279 2.310 1_564 S
O283 C284 1.268 . S
C284 O282 1.254 . S
C284 O283 1.268 . S
C285 O290 1.254 . S
C285 O291 1.268 1_556 S
O286 Dy279 2.351 1_554 S
O286 C294 1.249 . S
O287 Dy276 2.326 . S
O287 C294 1.267 . S
O288 C277 1.185 . S
O288 Dy279 2.398 1_565 S
O289 C277 1.355 . S
O289 Dy279 2.491 1_565 S
O290 Dy279 2.403 . S
O290 C285 1.254 . S
O291 Dy276 2.310 . S
O291 Dy279 2.664 1_554 S
O291 C285 1.268 1_554 S
O292 Dy276 2.351 1_566 S
O292 C295 1.249 . S
O293 Dy279 2.326 1_565 S
O293 C295 1.267 . S
C294 O286 1.249 . S
C294 O287 1.267 . S
C295 O292 1.249 . S
C295 O293 1.267 . S
Dy296 O300 2.398 . S
Dy296 O301 2.491 . S
Dy296 O302 2.403 . S
Dy296 O303 2.664 . S
Dy296 O307 2.326 . S
Dy296 O311 2.310 . S
Dy296 O312 2.351 . S
C297 O308 1.185 . S
C297 O309 1.355 . S
C298 O300 1.185 . S
C298 O301 1.355 . S
Dy299 O303 2.310 . S
Dy299 O306 2.351 . S
Dy299 O308 2.398 . S
Dy299 O309 2.491 . S
Dy299 O310 2.403 . S
Dy299 O311 2.664 . S
Dy299 O313 2.326 . S
O300 Dy296 2.398 . S
O300 C298 1.185 . S
O301 Dy296 2.491 . S
O301 C298 1.355 . S
O302 Dy296 2.403 . S
O302 C304 1.254 . S
O303 Dy296 2.664 . S
O303 Dy299 2.310 . S
O303 C304 1.268 . S
C304 O302 1.254 . S
C304 O303 1.268 . S
C305 O310 1.254 . S
C305 O311 1.268 . S
O306 Dy299 2.351 . S
O306 C314 1.249 . S
O307 Dy296 2.326 . S
O307 C314 1.267 . S
O308 C297 1.185 . S
O308 Dy299 2.398 . S
O309 C297 1.355 . S
O309 Dy299 2.491 . S
O310 Dy299 2.403 . S
O310 C305 1.254 . S
O311 Dy296 2.310 . S
O311 Dy299 2.664 . S
O311 C305 1.268 . S
O312 Dy296 2.351 . S
O312 C315 1.249 . S
O313 Dy299 2.326 . S
O313 C315 1.267 . S
C314 O306 1.249 . S
C314 O307 1.267 . S
C315 O312 1.249 . S
C315 O313 1.267 . S
Dy316 O320 2.398 . S
Dy316 O321 2.491 . S
Dy316 O322 2.403 1_455 S
Dy316 O323 2.664 1_455 S
Dy316 O327 2.326 . S
Dy316 O331 2.310 1_554 S
Dy316 O332 2.351 1_455 S
C317 O328 1.185 . S
C317 O329 1.355 . S
C318 O320 1.185 . S
C318 O321 1.355 . S
Dy319 O323 2.310 1_556 S
Dy319 O326 2.351 1_656 S
Dy319 O328 2.398 . S
Dy319 O329 2.491 . S
Dy319 O330 2.403 1_655 S
Dy319 O331 2.664 1_655 S
Dy319 O333 2.326 . S
O320 Dy316 2.398 . S
O320 C318 1.185 . S
O321 Dy316 2.491 . S
O321 C318 1.355 . S
O322 Dy316 2.403 1_655 S
O322 C324 1.254 . S
O323 Dy316 2.664 1_655 S
O323 Dy319 2.310 1_554 S
O323 C324 1.268 . S
C324 O322 1.254 . S
C324 O323 1.268 . S
C325 O330 1.254 . S
C325 O331 1.268 . S
O326 Dy319 2.351 1_454 S
O326 C334 1.249 . S
O327 Dy316 2.326 . S
O327 C334 1.267 . S
O328 C317 1.185 . S
O328 Dy319 2.398 . S
O329 C317 1.355 . S
O329 Dy319 2.491 . S
O330 Dy319 2.403 1_455 S
O330 C325 1.254 . S
O331 Dy316 2.310 1_556 S
O331 Dy319 2.664 1_455 S
O331 C325 1.268 . S
O332 Dy316 2.351 1_655 S
O332 C335 1.249 1_554 S
O333 Dy319 2.326 . S
O333 C335 1.267 . S
C334 O326 1.249 . S
C334 O327 1.267 . S
C335 O332 1.249 1_556 S
C335 O333 1.267 . S
C336 C337 1.363 . S
C336 C342 1.379 . S
C336 N344 1.356 . S
C337 C336 1.363 . S
C337 C343 1.363 . S
C338 C339 1.363 . S
C338 C343 1.379 . S
C338 N345 1.356 . S
C339 C338 1.363 . S
C339 C342 1.363 . S
N340 C342 1.356 . S
N340 H352 0.984 . S
N340 H353 0.985 . S
N341 C343 1.356 . S
N341 H346 0.984 . S
N341 H347 0.985 . S
C342 C336 1.379 . S
C342 C339 1.363 . S
C342 N340 1.356 . S
C343 C337 1.363 . S
C343 C338 1.379 . S
C343 N341 1.356 . S
N344 C336 1.356 . S
N344 H350 0.984 . S
N344 H351 0.984 . S
N345 C338 1.356 . S
N345 H348 0.984 . S
N345 H349 0.985 . S
H346 N341 0.984 . S
H347 N341 0.985 . S
H348 N345 0.984 . S
H349 N345 0.985 . S
H350 N344 0.984 . S
H351 N344 0.984 . S
H352 N340 0.984 . S
H353 N340 0.985 . S
C354 C355 1.363 . S
C354 C360 1.379 . S
C354 N362 1.356 . S
C355 C354 1.363 . S
C355 C361 1.363 . S
C356 C357 1.363 . S
C356 C361 1.379 . S
C356 N363 1.356 . S
C357 C356 1.363 . S
C357 C360 1.363 . S
N358 C360 1.356 . S
N358 H370 0.984 . S
N358 H371 0.985 . S
N359 C361 1.356 . S
N359 H364 0.984 . S
N359 H365 0.985 . S
C360 C354 1.379 . S
C360 C357 1.363 . S
C360 N358 1.356 . S
C361 C355 1.363 . S
C361 C356 1.379 . S
C361 N359 1.356 . S
N362 C354 1.356 . S
N362 H368 0.984 . S
N362 H369 0.984 . S
N363 C356 1.356 . S
N363 H366 0.984 . S
N363 H367 0.985 1_565 S
H364 N359 0.984 . S
H365 N359 0.985 . S
H366 N363 0.984 . S
H367 N363 0.985 1_545 S
H368 N362 0.984 . S
H369 N362 0.984 . S
H370 N358 0.984 . S
H371 N358 0.985 . S
C372 C373 1.363 . S
C372 C378 1.379 . S
C372 N380 1.356 . S
C373 C372 1.363 . S
C373 C379 1.363 . S
C374 C375 1.363 . S
C374 C379 1.379 . S
C374 N381 1.356 . S
C375 C374 1.363 . S
C375 C378 1.363 . S
N376 C378 1.356 . S
N376 H388 0.984 . S
N376 H389 0.985 . S
N377 C379 1.356 . S
N377 H382 0.984 . S
N377 H383 0.985 . S
C378 C372 1.379 . S
C378 C375 1.363 . S
C378 N376 1.356 . S
C379 C373 1.363 . S
C379 C374 1.379 . S
C379 N377 1.356 . S
N380 C372 1.356 . S
N380 H386 0.984 . S
N380 H387 0.984 . S
N381 C374 1.356 . S
N381 H384 0.984 . S
N381 H385 0.985 . S
H382 N377 0.984 . S
H383 N377 0.985 . S
H384 N381 0.984 . S
H385 N381 0.985 . S
H386 N380 0.984 . S
H387 N380 0.984 . S
H388 N376 0.984 . S
H389 N376 0.985 . S
C390 C391 1.363 . S
C390 C396 1.379 . S
C390 N398 1.356 . S
C391 C390 1.363 . S
C391 C397 1.363 . S
C392 C393 1.363 . S
C392 C397 1.379 . S
C392 N399 1.356 1_655 S
C393 C392 1.363 . S
C393 C396 1.363 . S
N394 C396 1.356 . S
N394 H406 0.984 . S
N394 H407 0.985 . S
N395 C397 1.356 . S
N395 H400 0.984 . S
N395 H401 0.985 1_655 S
C396 C390 1.379 . S
C396 C393 1.363 . S
C396 N394 1.356 . S
C397 C391 1.363 . S
C397 C392 1.379 . S
C397 N395 1.356 . S
N398 C390 1.356 . S
N398 H404 0.984 . S
N398 H405 0.984 . S
N399 C392 1.356 1_455 S
N399 H402 0.984 . S
N399 H403 0.985 . S
H400 N395 0.984 . S
H401 N395 0.985 1_455 S
H402 N399 0.984 . S
H403 N399 0.985 . S
H404 N398 0.984 . S
H405 N398 0.984 . S
H406 N394 0.984 . S
H407 N394 0.985 . S
C408 C409 1.363 . S
C408 C414 1.379 . S
C408 N416 1.356 . S
C409 C408 1.363 . S
C409 C415 1.363 . S
C410 C411 1.363 . S
C410 C415 1.379 . S
C410 N417 1.356 . S
C411 C410 1.363 . S
C411 C414 1.363 . S
N412 C414 1.356 . S
N412 H424 0.984 . S
N412 H425 0.985 . S
N413 C415 1.356 . S
N413 H418 0.984 . S
N413 H419 0.985 . S
C414 C408 1.379 . S
C414 C411 1.363 . S
C414 N412 1.356 . S
C415 C409 1.363 . S
C415 C410 1.379 . S
C415 N413 1.356 . S
N416 C408 1.356 . S
N416 H422 0.984 . S
N416 H423 0.984 . S
N417 C410 1.356 . S
N417 H420 0.984 . S
N417 H421 0.985 . S
H418 N413 0.984 . S
H419 N413 0.985 . S
H420 N417 0.984 . S
H421 N417 0.985 . S
H422 N416 0.984 . S
H423 N416 0.984 . S
H424 N412 0.984 . S
H425 N412 0.985 . S
C426 C427 1.363 . S
C426 C432 1.379 . S
C426 N434 1.356 . S
C427 C426 1.363 . S
C427 C433 1.363 . S
C428 C429 1.363 . S
C428 C433 1.379 . S
C428 N435 1.356 . S
C429 C428 1.363 . S
C429 C432 1.363 . S
N430 C432 1.356 . S
N430 H442 0.984 . S
N430 H443 0.985 . S
N431 C433 1.356 . S
N431 H436 0.984 . S
N431 H437 0.985 . S
C432 C426 1.379 . S
C432 C429 1.363 . S
C432 N430 1.356 . S
C433 C427 1.363 . S
C433 C428 1.379 . S
C433 N431 1.356 . S
N434 C426 1.356 . S
N434 H440 0.984 . S
N434 H441 0.984 . S
N435 C428 1.356 . S
N435 H438 0.984 . S
N435 H439 0.985 . S
H436 N431 0.984 . S
H437 N431 0.985 . S
H438 N435 0.984 . S
H439 N435 0.985 . S
H440 N434 0.984 . S
H441 N434 0.984 . S
H442 N430 0.984 . S
H443 N430 0.985 . S
C444 C445 1.363 . S
C444 C450 1.379 . S
C444 N452 1.356 . S
C445 C444 1.363 . S
C445 C451 1.363 . S
C446 C447 1.363 . S
C446 C451 1.379 . S
C446 N453 1.356 . S
C447 C446 1.363 . S
C447 C450 1.363 . S
N448 C450 1.356 . S
N448 H460 0.984 . S
N448 H461 0.985 . S
N449 C451 1.356 . S
N449 H454 0.984 . S
N449 H455 0.985 . S
C450 C444 1.379 . S
C450 C447 1.363 . S
C450 N448 1.356 . S
C451 C445 1.363 . S
C451 C446 1.379 . S
C451 N449 1.356 . S
N452 C444 1.356 . S
N452 H458 0.984 . S
N452 H459 0.984 . S
N453 C446 1.356 . S
N453 H456 0.984 . S
N453 H457 0.985 . S
H454 N449 0.984 . S
H455 N449 0.985 . S
H456 N453 0.984 . S
H457 N453 0.985 . S
H458 N452 0.984 . S
H459 N452 0.984 . S
H460 N448 0.984 . S
H461 N448 0.985 . S
C462 C463 1.363 . S
C462 C468 1.379 . S
C462 N470 1.356 . S
C463 C462 1.363 . S
C463 C469 1.363 . S
C464 C465 1.363 . S
C464 C469 1.379 . S
C464 N471 1.356 . S
C465 C464 1.363 . S
C465 C468 1.363 . S
N466 C468 1.356 . S
N466 H478 0.984 . S
N466 H479 0.985 . S
N467 C469 1.356 . S
N467 H472 0.984 . S
N467 H473 0.985 . S
C468 C462 1.379 . S
C468 C465 1.363 . S
C468 N466 1.356 . S
C469 C463 1.363 . S
C469 C464 1.379 . S
C469 N467 1.356 . S
N470 C462 1.356 . S
N470 H476 0.984 . S
N470 H477 0.984 . S
N471 C464 1.356 . S
N471 H474 0.984 . S
N471 H475 0.985 . S
H472 N467 0.984 . S
H473 N467 0.985 . S
H474 N471 0.984 . S
H475 N471 0.985 . S
H476 N470 0.984 . S
H477 N470 0.984 . S
H478 N466 0.984 . S
H479 N466 0.985 . S
C480 C481 1.363 . S
C480 C486 1.379 . S
C480 N488 1.356 . S
C481 C480 1.363 . S
C481 C487 1.363 . S
C482 C483 1.363 . S
C482 C487 1.379 . S
C482 N489 1.356 . S
C483 C482 1.363 . S
C483 C486 1.363 . S
N484 C486 1.356 . S
N484 H496 0.984 . S
N484 H497 0.985 . S
N485 C487 1.356 . S
N485 H490 0.984 . S
N485 H491 0.985 . S
C486 C480 1.379 . S
C486 C483 1.363 . S
C486 N484 1.356 . S
C487 C481 1.363 . S
C487 C482 1.379 . S
C487 N485 1.356 . S
N488 C480 1.356 . S
N488 H494 0.984 . S
N488 H495 0.984 . S
N489 C482 1.356 . S
N489 H492 0.984 . S
N489 H493 0.985 . S
H490 N485 0.984 . S
H491 N485 0.985 . S
H492 N489 0.984 . S
H493 N489 0.985 . S
H494 N488 0.984 . S
H495 N488 0.984 . S
H496 N484 0.984 . S
H497 N484 0.985 . S
C498 C499 1.363 . S
C498 C504 1.379 . S
C498 N506 1.356 . S
C499 C498 1.363 . S
C499 C505 1.363 . S
C500 C501 1.363 . S
C500 C505 1.379 . S
C500 N507 1.356 1_556 S
C501 C500 1.363 . S
C501 C504 1.363 . S
N502 C504 1.356 . S
N502 H514 0.984 . S
N502 H515 0.985 . S
N503 C505 1.356 . S
N503 H508 0.984 . S
N503 H509 0.985 . S
C504 C498 1.379 . S
C504 C501 1.363 . S
C504 N502 1.356 . S
C505 C499 1.363 . S
C505 C500 1.379 . S
C505 N503 1.356 . S
N506 C498 1.356 . S
N506 H512 0.984 . S
N506 H513 0.984 . S
N507 C500 1.356 1_554 S
N507 H510 0.984 . S
N507 H511 0.985 . S
H508 N503 0.984 . S
H509 N503 0.985 . S
H510 N507 0.984 . S
H511 N507 0.985 . S
H512 N506 0.984 . S
H513 N506 0.984 . S
H514 N502 0.984 . S
H515 N502 0.985 . S
C516 C517 1.363 . S
C516 C522 1.379 . S
C516 N524 1.356 . S
C517 C516 1.363 . S
C517 C523 1.363 . S
C518 C519 1.363 . S
C518 C523 1.379 . S
C518 N525 1.356 . S
C519 C518 1.363 . S
C519 C522 1.363 . S
N520 C522 1.356 . S
N520 H532 0.984 1_655 S
N520 H533 0.985 1_655 S
N521 C523 1.356 . S
N521 H526 0.984 . S
N521 H527 0.985 . S
C522 C516 1.379 . S
C522 C519 1.363 . S
C522 N520 1.356 . S
C523 C517 1.363 . S
C523 C518 1.379 . S
C523 N521 1.356 . S
N524 C516 1.356 . S
N524 H530 0.984 . S
N524 H531 0.984 . S
N525 C518 1.356 . S
N525 H528 0.984 . S
N525 H529 0.985 . S
H526 N521 0.984 . S
H527 N521 0.985 . S
H528 N525 0.984 . S
H529 N525 0.985 . S
H530 N524 0.984 . S
H531 N524 0.984 . S
H532 N520 0.984 1_455 S
H533 N520 0.985 1_455 S
C534 C535 1.363 . S
C534 C540 1.379 . S
C534 N542 1.356 . S
C535 C534 1.363 . S
C535 C541 1.363 . S
C536 C537 1.363 . S
C536 C541 1.379 . S
C536 N543 1.356 . S
C537 C536 1.363 . S
C537 C540 1.363 . S
N538 C540 1.356 . S
N538 H550 0.984 . S
N538 H551 0.985 . S
N539 C541 1.356 . S
N539 H544 0.984 . S
N539 H545 0.985 . S
C540 C534 1.379 . S
C540 C537 1.363 . S
C540 N538 1.356 . S
C541 C535 1.363 . S
C541 C536 1.379 . S
C541 N539 1.356 . S
N542 C534 1.356 . S
N542 H548 0.984 . S
N542 H549 0.984 . S
N543 C536 1.356 . S
N543 H546 0.984 . S
N543 H547 0.985 . S
H544 N539 0.984 . S
H545 N539 0.985 . S
H546 N543 0.984 . S
H547 N543 0.985 . S
H548 N542 0.984 . S
H549 N542 0.984 . S
H550 N538 0.984 . S
H551 N538 0.985 . S
C552 C553 1.363 . S
C552 C558 1.379 . S
C552 N560 1.356 . S
C553 C552 1.363 . S
C553 C559 1.363 . S
C554 C555 1.363 . S
C554 C559 1.379 . S
C554 N561 1.356 . S
C555 C554 1.363 . S
C555 C558 1.363 . S
N556 C558 1.356 . S
N556 H568 0.984 . S
N556 H569 0.985 . S
N557 C559 1.356 . S
N557 H562 0.984 . S
N557 H563 0.985 . S
C558 C552 1.379 . S
C558 C555 1.363 . S
C558 N556 1.356 . S
C559 C553 1.363 . S
C559 C554 1.379 . S
C559 N557 1.356 . S
N560 C552 1.356 . S
N560 H566 0.984 . S
N560 H567 0.984 . S
N561 C554 1.356 . S
N561 H564 0.984 . S
N561 H565 0.985 . S
H562 N557 0.984 . S
H563 N557 0.985 . S
H564 N561 0.984 . S
H565 N561 0.985 . S
H566 N560 0.984 . S
H567 N560 0.984 . S
H568 N556 0.984 . S
H569 N556 0.985 . S
C570 C571 1.363 . S
C570 C576 1.379 . S
C570 N578 1.356 . S
C571 C570 1.363 . S
C571 C577 1.363 . S
C572 C573 1.363 . S
C572 C577 1.379 . S
C572 N579 1.356 . S
C573 C572 1.363 . S
C573 C576 1.363 . S
N574 C576 1.356 . S
N574 H586 0.984 1_545 S
N574 H587 0.985 . S
N575 C577 1.356 . S
N575 H580 0.984 . S
N575 H581 0.985 . S
C576 C570 1.379 . S
C576 C573 1.363 . S
C576 N574 1.356 . S
C577 C571 1.363 . S
C577 C572 1.379 . S
C577 N575 1.356 . S
N578 C570 1.356 . S
N578 H584 0.984 . S
N578 H585 0.984 . S
N579 C572 1.356 . S
N579 H582 0.984 . S
N579 H583 0.985 . S
H580 N575 0.984 . S
H581 N575 0.985 . S
H582 N579 0.984 . S
H583 N579 0.985 . S
H584 N578 0.984 . S
H585 N578 0.984 . S
H586 N574 0.984 1_565 S
H587 N574 0.985 . S
C588 C589 1.363 . S
C588 C594 1.379 . S
C588 N596 1.356 . S
C589 C588 1.363 . S
C589 C595 1.363 . S
C590 C591 1.363 . S
C590 C595 1.379 . S
C590 N597 1.356 . S
C591 C590 1.363 . S
C591 C594 1.363 . S
N592 C594 1.356 . S
N592 H604 0.984 . S
N592 H605 0.985 . S
N593 C595 1.356 . S
N593 H598 0.984 . S
N593 H599 0.985 . S
C594 C588 1.379 . S
C594 C591 1.363 . S
C594 N592 1.356 . S
C595 C589 1.363 . S
C595 C590 1.379 . S
C595 N593 1.356 . S
N596 C588 1.356 . S
N596 H602 0.984 . S
N596 H603 0.984 . S
N597 C590 1.356 . S
N597 H600 0.984 . S
N597 H601 0.985 . S
H598 N593 0.984 . S
H599 N593 0.985 . S
H600 N597 0.984 . S
H601 N597 0.985 . S
H602 N596 0.984 . S
H603 N596 0.984 . S
H604 N592 0.984 . S
H605 N592 0.985 . S
C606 C607 1.363 . S
C606 C612 1.379 . S
C606 N614 1.356 . S
C607 C606 1.363 . S
C607 C613 1.363 . S
C608 C609 1.363 . S
C608 C613 1.379 . S
C608 N615 1.356 . S
C609 C608 1.363 . S
C609 C612 1.363 . S
N610 C612 1.356 . S
N610 H622 0.984 1_455 S
N610 H623 0.985 . S
N611 C613 1.356 . S
N611 H616 0.984 . S
N611 H617 0.985 . S
C612 C606 1.379 . S
C612 C609 1.363 . S
C612 N610 1.356 . S
C613 C607 1.363 . S
C613 C608 1.379 . S
C613 N611 1.356 . S
N614 C606 1.356 . S
N614 H620 0.984 . S
N614 H621 0.984 . S
N615 C608 1.356 . S
N615 H618 0.984 . S
N615 H619 0.985 . S
H616 N611 0.984 . S
H617 N611 0.985 . S
H618 N615 0.984 . S
H619 N615 0.985 . S
H620 N614 0.984 . S
H621 N614 0.984 . S
H622 N610 0.984 1_655 S
H623 N610 0.985 . S
C624 C625 1.363 . S
C624 C630 1.379 . S
C624 N632 1.356 . S
C625 C624 1.363 . S
C625 C631 1.363 . S
C626 C627 1.363 . S
C626 C631 1.379 . S
C626 N633 1.356 . S
C627 C626 1.363 . S
C627 C630 1.363 . S
N628 C630 1.356 . S
N628 H640 0.984 1_556 S
N628 H641 0.985 . S
N629 C631 1.356 . S
N629 H634 0.984 . S
N629 H635 0.985 . S
C630 C624 1.379 . S
C630 C627 1.363 . S
C630 N628 1.356 . S
C631 C625 1.363 . S
C631 C626 1.379 . S
C631 N629 1.356 . S
N632 C624 1.356 . S
N632 H638 0.984 . S
N632 H639 0.984 . S
N633 C626 1.356 . S
N633 H636 0.984 . S
N633 H637 0.985 . S
H634 N629 0.984 . S
H635 N629 0.985 . S
H636 N633 0.984 . S
H637 N633 0.985 . S
H638 N632 0.984 . S
H639 N632 0.984 . S
H640 N628 0.984 1_554 S
H641 N628 0.985 . S
C642 C643 1.363 . S
C642 C648 1.379 . S
C642 N650 1.356 . S
C643 C642 1.363 . S
C643 C649 1.363 . S
C644 C645 1.363 . S
C644 C649 1.379 . S
C644 N651 1.356 . S
C645 C644 1.363 . S
C645 C648 1.363 . S
N646 C648 1.356 . S
N646 H658 0.984 . S
N646 H659 0.985 . S
N647 C649 1.356 . S
N647 H652 0.984 . S
N647 H653 0.985 . S
C648 C642 1.379 . S
C648 C645 1.363 . S
C648 N646 1.356 . S
C649 C643 1.363 . S
C649 C644 1.379 . S
C649 N647 1.356 . S
N650 C642 1.356 . S
N650 H656 0.984 . S
N650 H657 0.984 . S
N651 C644 1.356 . S
N651 H654 0.984 . S
N651 H655 0.985 1_545 S
H652 N647 0.984 . S
H653 N647 0.985 . S
H654 N651 0.984 . S
H655 N651 0.985 1_565 S
H656 N650 0.984 . S
H657 N650 0.984 . S
H658 N646 0.984 . S
H659 N646 0.985 . S
C660 C661 1.363 . S
C660 C666 1.379 . S
C660 N668 1.356 . S
C661 C660 1.363 . S
C661 C667 1.363 . S
C662 C663 1.363 . S
C662 C667 1.379 . S
C662 N669 1.356 . S
C663 C662 1.363 . S
C663 C666 1.363 . S
N664 C666 1.356 . S
N664 H676 0.984 1_554 S
N664 H677 0.985 1_554 S
N665 C667 1.356 . S
N665 H670 0.984 . S
N665 H671 0.985 . S
C666 C660 1.379 . S
C666 C663 1.363 . S
C666 N664 1.356 . S
C667 C661 1.363 . S
C667 C662 1.379 . S
C667 N665 1.356 . S
N668 C660 1.356 . S
N668 H674 0.984 . S
N668 H675 0.984 . S
N669 C662 1.356 . S
N669 H672 0.984 . S
N669 H673 0.985 . S
H670 N665 0.984 . S
H671 N665 0.985 . S
H672 N669 0.984 . S
H673 N669 0.985 . S
H674 N668 0.984 . S
H675 N668 0.984 . S
H676 N664 0.984 1_556 S
H677 N664 0.985 1_556 S
C678 C679 1.363 . S
C678 C684 1.379 . S
C678 N686 1.356 . S
C679 C678 1.363 . S
C679 C685 1.363 . S
C680 C681 1.363 . S
C680 C685 1.379 . S
C680 N687 1.356 . S
C681 C680 1.363 . S
C681 C684 1.363 . S
N682 C684 1.356 . S
N682 H694 0.984 . S
N682 H695 0.985 . S
N683 C685 1.356 . S
N683 H688 0.984 . S
N683 H689 0.985 . S
C684 C678 1.379 . S
C684 C681 1.363 . S
C684 N682 1.356 . S
C685 C679 1.363 . S
C685 C680 1.379 . S
C685 N683 1.356 . S
N686 C678 1.356 . S
N686 H692 0.984 . S
N686 H693 0.984 . S
N687 C680 1.356 . S
N687 H690 0.984 . S
N687 H691 0.985 . S
H688 N683 0.984 . S
H689 N683 0.985 . S
H690 N687 0.984 . S
H691 N687 0.985 . S
H692 N686 0.984 . S
H693 N686 0.984 . S
H694 N682 0.984 . S
H695 N682 0.985 . S
C696 C697 1.363 . S
C696 C702 1.379 . S
C696 N704 1.356 . S
C697 C696 1.363 . S
C697 C703 1.363 . S
C698 C699 1.363 . S
C698 C703 1.379 . S
C698 N705 1.356 . S
C699 C698 1.363 . S
C699 C702 1.363 . S
N700 C702 1.356 . S
N700 H712 0.984 . S
N700 H713 0.985 . S
N701 C703 1.356 . S
N701 H706 0.984 . S
N701 H707 0.985 . S
C702 C696 1.379 . S
C702 C699 1.363 . S
C702 N700 1.356 . S
C703 C697 1.363 . S
C703 C698 1.379 . S
C703 N701 1.356 . S
N704 C696 1.356 . S
N704 H710 0.984 . S
N704 H711 0.984 . S
N705 C698 1.356 . S
N705 H708 0.984 . S
N705 H709 0.985 . S
H706 N701 0.984 . S
H707 N701 0.985 . S
H708 N705 0.984 . S
H709 N705 0.985 . S
H710 N704 0.984 . S
H711 N704 0.984 . S
H712 N700 0.984 . S
H713 N700 0.985 . S
C714 C715 1.363 . S
C714 C720 1.379 . S
C714 N722 1.356 . S
C715 C714 1.363 . S
C715 C721 1.363 . S
C716 C717 1.363 . S
C716 C721 1.379 . S
C716 N723 1.356 . S
C717 C716 1.363 . S
C717 C720 1.363 . S
N718 C720 1.356 . S
N718 H730 0.984 . S
N718 H731 0.985 . S
N719 C721 1.356 . S
N719 H724 0.984 . S
N719 H725 0.985 . S
C720 C714 1.379 . S
C720 C717 1.363 . S
C720 N718 1.356 . S
C721 C715 1.363 . S
C721 C716 1.379 . S
C721 N719 1.356 . S
N722 C714 1.356 . S
N722 H728 0.984 . S
N722 H729 0.984 . S
N723 C716 1.356 . S
N723 H726 0.984 . S
N723 H727 0.985 . S
H724 N719 0.984 . S
H725 N719 0.985 . S
H726 N723 0.984 . S
H727 N723 0.985 . S
H728 N722 0.984 . S
H729 N722 0.984 . S
H730 N718 0.984 . S
H731 N718 0.985 . S
C732 C733 1.363 . S
C732 C738 1.379 . S
C732 N740 1.356 . S
C733 C732 1.363 . S
C733 C739 1.363 . S
C734 C735 1.363 . S
C734 C739 1.379 . S
C734 N741 1.356 1_455 S
C735 C734 1.363 . S
C735 C738 1.363 . S
N736 C738 1.356 . S
N736 H748 0.984 . S
N736 H749 0.985 . S
N737 C739 1.356 . S
N737 H742 0.984 . S
N737 H743 0.985 1_455 S
C738 C732 1.379 . S
C738 C735 1.363 . S
C738 N736 1.356 . S
C739 C733 1.363 . S
C739 C734 1.379 . S
C739 N737 1.356 . S
N740 C732 1.356 . S
N740 H746 0.984 . S
N740 H747 0.984 . S
N741 C734 1.356 1_655 S
N741 H744 0.984 . S
N741 H745 0.985 . S
H742 N737 0.984 . S
H743 N737 0.985 1_655 S
H744 N741 0.984 . S
H745 N741 0.985 . S
H746 N740 0.984 . S
H747 N740 0.984 . S
H748 N736 0.984 . S
H749 N736 0.985 . S
C750 C751 1.363 . S
C750 C756 1.379 . S
C750 N758 1.356 . S
C751 C750 1.363 . S
C751 C757 1.363 . S
C752 C753 1.363 . S
C752 C757 1.379 . S
C752 N759 1.356 . S
C753 C752 1.363 . S
C753 C756 1.363 . S
N754 C756 1.356 . S
N754 H766 0.984 . S
N754 H767 0.985 . S
N755 C757 1.356 . S
N755 H760 0.984 . S
N755 H761 0.985 . S
C756 C750 1.379 . S
C756 C753 1.363 . S
C756 N754 1.356 . S
C757 C751 1.363 . S
C757 C752 1.379 . S
C757 N755 1.356 . S
N758 C750 1.356 . S
N758 H764 0.984 . S
N758 H765 0.984 . S
N759 C752 1.356 . S
N759 H762 0.984 . S
N759 H763 0.985 . S
H760 N755 0.984 . S
H761 N755 0.985 . S
H762 N759 0.984 . S
H763 N759 0.985 . S
H764 N758 0.984 . S
H765 N758 0.984 . S
H766 N754 0.984 . S
H767 N754 0.985 . S
C337 C29 1.559 . S
C339 C258 1.546 . S
C355 C49 1.309 . S
C357 C277 1.283 . S
C375 C314 1.785 . S
C373 C93 1.770 . S
C391 C119 1.651 . S
C393 C324 1.657 . S
C411 C294 1.895 . S
C409 C17 1.885 . S
C429 C264 1.393 . S
C427 C61 1.492 . S
C447 C335 1.522 . S
C445 C81 1.533 . S
C465 C305 1.499 . S
C463 C125 1.468 . S
C481 C23 1.671 . S
C483 C318 1.673 . S
C501 C285 1.681 . S
C499 C87 1.706 . S
C517 C113 1.716 . S
C519 C275 1.771 . S
C535 C55 1.251 . S
C537 C297 1.286 . S
C555 C257 1.519 . S
C553 C157 1.345 . S
C571 C189 1.296 . S
C573 C278 1.310 . S
C589 C221 1.769 . S
C591 C315 1.759 . S
C607 C253 1.701 . S
C609 C325 1.723 . S
C625 C145 1.766 . S
C627 C295 1.949 . S
C645 C265 1.342 . S
C643 C183 1.362 . S
C663 C334 1.555 . S
C661 C209 1.551 . S
C681 C304 1.466 . S
C679 C247 1.432 . S
C697 C151 1.527 . S
C699 C317 1.684 . S
C717 C284 1.682 . S
C715 C215 1.719 . S
C735 C274 1.748 . S
C733 C241 1.688 . S
C751 C177 1.236 . S
C753 C298 1.268 . S
