# Generated by pormake.
# Topology pyr, (3,6)-cn, num edge types: 1
# Building blocks:
#     Node 0, Type 0, BuildingBlock: KAKCAD_clean_linker_0, # of connection points: 3
#     Node 1, Type 0, BuildingBlock: KAKCAD_clean_linker_0, # of connection points: 3
#     Node 2, Type 0, BuildingBlock: KAKCAD_clean_linker_0, # of connection points: 3
#     Node 3, Type 0, BuildingBlock: KAKCAD_clean_linker_0, # of connection points: 3
#     Node 4, Type 0, BuildingBlock: KAKCAD_clean_linker_0, # of connection points: 3
#     Node 5, Type 0, BuildingBlock: KAKCAD_clean_linker_0, # of connection points: 3
#     Node 6, Type 0, BuildingBlock: KAKCAD_clean_linker_0, # of connection points: 3
#     Node 7, Type 0, BuildingBlock: KAKCAD_clean_linker_0, # of connection points: 3
#     Node 8, Type 1, BuildingBlock: BETDEL_clean_sbu_0, # of connection points: 6
#     Node 9, Type 1, BuildingBlock: BETDEL_clean_sbu_0, # of connection points: 6
#     Node 10, Type 1, BuildingBlock: BETDEL_clean_sbu_0, # of connection points: 6
#     Node 11, Type 1, BuildingBlock: BETDEL_clean_sbu_0, # of connection points: 6
#     Edge 12, Type (0, 1), BuildingBlock: MIFKUJ_clean_linker_0, # of connection points: 2
#     Edge 13, Type (0, 1), BuildingBlock: MIFKUJ_clean_linker_0, # of connection points: 2
#     Edge 14, Type (0, 1), BuildingBlock: MIFKUJ_clean_linker_0, # of connection points: 2
#     Edge 15, Type (0, 1), BuildingBlock: MIFKUJ_clean_linker_0, # of connection points: 2
#     Edge 16, Type (0, 1), BuildingBlock: MIFKUJ_clean_linker_0, # of connection points: 2
#     Edge 17, Type (0, 1), BuildingBlock: MIFKUJ_clean_linker_0, # of connection points: 2
#     Edge 18, Type (0, 1), BuildingBlock: MIFKUJ_clean_linker_0, # of connection points: 2
#     Edge 19, Type (0, 1), BuildingBlock: MIFKUJ_clean_linker_0, # of connection points: 2
#     Edge 20, Type (0, 1), BuildingBlock: MIFKUJ_clean_linker_0, # of connection points: 2
#     Edge 21, Type (0, 1), BuildingBlock: MIFKUJ_clean_linker_0, # of connection points: 2
#     Edge 22, Type (0, 1), BuildingBlock: MIFKUJ_clean_linker_0, # of connection points: 2
#     Edge 23, Type (0, 1), BuildingBlock: MIFKUJ_clean_linker_0, # of connection points: 2
#     Edge 24, Type (0, 1), BuildingBlock: MIFKUJ_clean_linker_0, # of connection points: 2
#     Edge 25, Type (0, 1), BuildingBlock: MIFKUJ_clean_linker_0, # of connection points: 2
#     Edge 26, Type (0, 1), BuildingBlock: MIFKUJ_clean_linker_0, # of connection points: 2
#     Edge 27, Type (0, 1), BuildingBlock: MIFKUJ_clean_linker_0, # of connection points: 2
#     Edge 28, Type (0, 1), BuildingBlock: MIFKUJ_clean_linker_0, # of connection points: 2
#     Edge 29, Type (0, 1), BuildingBlock: MIFKUJ_clean_linker_0, # of connection points: 2
#     Edge 30, Type (0, 1), BuildingBlock: MIFKUJ_clean_linker_0, # of connection points: 2
#     Edge 31, Type (0, 1), BuildingBlock: MIFKUJ_clean_linker_0, # of connection points: 2
#     Edge 32, Type (0, 1), BuildingBlock: MIFKUJ_clean_linker_0, # of connection points: 2
#     Edge 33, Type (0, 1), BuildingBlock: MIFKUJ_clean_linker_0, # of connection points: 2
#     Edge 34, Type (0, 1), BuildingBlock: MIFKUJ_clean_linker_0, # of connection points: 2
#     Edge 35, Type (0, 1), BuildingBlock: MIFKUJ_clean_linker_0, # of connection points: 2
# Relax obj value: 0.024
# Max RMSD: 0.087
# Mean RMSD: 0.036
data_MOF--net-pyr--node1-BETDEL_clean_sbu_0--node2-KAKCAD_clean_linker_0--edge1-MIFKUJ_clean_linker_0
_symmetry_space_group_name_H-M    P1
_symmetry_Int_Tables_number       1
_symmetry_cell_setting            triclinic
loop_
_symmetry_equiv_pos_as_xyz
'x, y, z'
_cell_length_a     56.638427
_cell_length_b     58.497087
_cell_length_c     53.850519
_cell_angle_alpha  91.993356
_cell_angle_beta   89.298705
_cell_angle_gamma 94.709258
loop_
_atom_site_label
_atom_site_type_symbol
_atom_site_fract_x
_atom_site_fract_y
_atom_site_fract_z
_atom_type_partial_charge
C0 C 0.13501 0.16575 0.21489 0.0
C1 C 0.14594 0.15436 0.23362 0.0
C2 C 0.14853 0.17639 0.19607 0.0
C3 C 0.17335 0.17612 0.19564 0.0
C4 C 0.1843 0.16488 0.21447 0.0
C5 C 0.17076 0.15404 0.23317 0.0
C6 C 0.18762 0.18722 0.17536 0.0
C7 C 0.18134 0.2079 0.16587 0.0
C8 C 0.19353 0.2177 0.14547 0.0
C9 C 0.21294 0.20711 0.13524 0.0
C10 C 0.21983 0.18667 0.14481 0.0
C11 C 0.20698 0.17676 0.16475 0.0
C12 C 0.23997 0.17525 0.13348 0.0
C13 C 0.24292 0.17385 0.10752 0.0
C14 C 0.25629 0.16552 0.14855 0.0
C15 C 0.27513 0.15458 0.1379 0.0
C16 C 0.27806 0.15321 0.11197 0.0
C17 C 0.18501 0.23818 0.13399 0.0
C18 C 0.16056 0.23993 0.1315 0.0
C19 C 0.20097 0.25565 0.12477 0.0
C20 C 0.19259 0.27443 0.11323 0.0
C21 C 0.16814 0.27613 0.111 0.0
C22 C 0.15224 0.25872 0.12024 0.0
C23 C 0.26182 0.163 0.09688 0.0
H24 H 0.11598 0.16658 0.2148 0.0
H25 H 0.13944 0.18458 0.18165 0.0
H26 H 0.20338 0.16451 0.21485 0.0
H27 H 0.17976 0.14515 0.24709 0.0
H28 H 0.16684 0.21641 0.17436 0.0
H29 H 0.21154 0.16044 0.17141 0.0
H30 H 0.22246 0.21457 0.11952 0.0
H31 H 0.23041 0.18082 0.09538 0.0
H32 H 0.25468 0.1666 0.16862 0.0
H33 H 0.28758 0.14745 0.14999 0.0
H34 H 0.14777 0.22652 0.13778 0.0
H35 H 0.21991 0.2549 0.12659 0.0
H36 H 0.26349 0.16192 0.07682 0.0
H37 H 0.13329 0.25939 0.11828 0.0
H38 H 0.20517 0.28771 0.1063 0.0
C39 C 0.30114 0.86312 0.73861 0.0
C40 C 0.32568 0.86744 0.74214 0.0
C41 C 0.29238 0.85219 0.71672 0.0
C42 C 0.30797 0.84546 0.69782 0.0
C43 C 0.33246 0.85033 0.7011 0.0
C44 C 0.3412 0.86103 0.72303 0.0
C45 C 0.29885 0.83269 0.67512 0.0
C46 C 0.27806 0.83841 0.66372 0.0
C47 C 0.26914 0.82599 0.64256 0.0
C48 C 0.28135 0.8077 0.63274 0.0
C49 C 0.30234 0.80207 0.6437 0.0
C50 C 0.31088 0.8145 0.66489 0.0
C51 C 0.31546 0.78308 0.63331 0.0
C52 C 0.3039 0.7612 0.62895 0.0
C53 C 0.33991 0.78657 0.62876 0.0
C54 C 0.35272 0.76836 0.6205 0.0
C55 C 0.34141 0.74619 0.61696 0.0
C56 C 0.24745 0.8326 0.63043 0.0
C57 C 0.22812 0.83916 0.64484 0.0
C58 C 0.24626 0.83328 0.60441 0.0
C59 C 0.22649 0.84103 0.5931 0.0
C60 C 0.20751 0.84833 0.60757 0.0
C61 C 0.2084 0.84698 0.63354 0.0
C62 C 0.31677 0.74288 0.62101 0.0
H63 H 0.28867 0.86808 0.75281 0.0
H64 H 0.27341 0.84854 0.71488 0.0
H65 H 0.34496 0.84572 0.68677 0.0
H66 H 0.36022 0.86375 0.72518 0.0
H67 H 0.26915 0.85296 0.67097 0.0
H68 H 0.32666 0.80953 0.67377 0.0
H69 H 0.27464 0.79791 0.6165 0.0
H70 H 0.28507 0.7581 0.63254 0.0
H71 H 0.34913 0.8034 0.6317 0.0
H72 H 0.37154 0.77167 0.61701 0.0
H73 H 0.22835 0.83852 0.66491 0.0
H74 H 0.26092 0.8285 0.59279 0.0
H75 H 0.30751 0.726 0.6188 0.0
H76 H 0.19421 0.85271 0.64525 0.0
H77 H 0.22622 0.84161 0.57303 0.0
C78 C 0.72484 0.38956 0.87136 0.0
C79 C 0.74256 0.37647 0.88023 0.0
C80 C 0.70394 0.3789 0.86116 0.0
C81 C 0.70018 0.35481 0.85922 0.0
C82 C 0.71797 0.34173 0.86793 0.0
C83 C 0.73873 0.35238 0.87841 0.0
C84 C 0.67788 0.34337 0.84819 0.0
C85 C 0.66674 0.35316 0.82833 0.0
C86 C 0.64591 0.34244 0.81776 0.0
C87 C 0.63599 0.32169 0.82731 0.0
C88 C 0.64672 0.31164 0.84719 0.0
C89 C 0.66762 0.32255 0.85743 0.0
C90 C 0.63615 0.2898 0.85751 0.0
C91 C 0.6124 0.28766 0.86558 0.0
C92 C 0.64996 0.2711 0.85988 0.0
C93 C 0.64017 0.25063 0.86992 0.0
C94 C 0.61653 0.24859 0.87835 0.0
C95 C 0.63477 0.35294 0.79651 0.0
C96 C 0.62884 0.37577 0.79837 0.0
C97 C 0.6306 0.34045 0.77405 0.0
C98 C 0.62116 0.35074 0.75366 0.0
C99 C 0.61513 0.37368 0.75536 0.0
C100 C 0.6189 0.38592 0.77821 0.0
C101 C 0.60276 0.26735 0.87616 0.0
H102 H 0.72715 0.40812 0.87204 0.0
H103 H 0.69062 0.38964 0.85503 0.0
H104 H 0.71602 0.32317 0.86648 0.0
H105 H 0.75168 0.34161 0.88531 0.0
H106 H 0.67459 0.36886 0.8205 0.0
H107 H 0.67549 0.315 0.8731 0.0
H108 H 0.61993 0.31335 0.81926 0.0
H109 H 0.60142 0.30186 0.86411 0.0
H110 H 0.6683 0.27228 0.85376 0.0
H111 H 0.6512 0.23647 0.87146 0.0
H112 H 0.63169 0.38573 0.81557 0.0
H113 H 0.63525 0.32287 0.77205 0.0
H114 H 0.58446 0.2662 0.88238 0.0
H115 H 0.61403 0.40335 0.78072 0.0
H116 H 0.61909 0.34073 0.73643 0.0
C117 C 0.85685 0.62372 0.25602 0.0
C118 C 0.88151 0.62318 0.25332 0.0
C119 C 0.84711 0.63368 0.27736 0.0
C120 C 0.86182 0.64345 0.29643 0.0
C121 C 0.88649 0.64303 0.29368 0.0
C122 C 0.89623 0.63293 0.2724 0.0
C123 C 0.85139 0.65401 0.31911 0.0
C124 C 0.83148 0.64299 0.33077 0.0
C125 C 0.821 0.65299 0.35186 0.0
C126 C 0.83109 0.67423 0.36149 0.0
C127 C 0.85121 0.68548 0.35025 0.0
C128 C 0.86112 0.6752 0.32898 0.0
C129 C 0.86173 0.70805 0.36048 0.0
C130 C 0.84719 0.72468 0.37017 0.0
C131 C 0.88645 0.71322 0.36051 0.0
C132 C 0.89634 0.73448 0.36975 0.0
C133 C 0.88177 0.751 0.37945 0.0
C134 C 0.79941 0.64133 0.36357 0.0
C135 C 0.7819 0.62924 0.3488 0.0
C136 C 0.79603 0.64218 0.38951 0.0
C137 C 0.77563 0.63144 0.40033 0.0
C138 C 0.75815 0.61931 0.38554 0.0
C139 C 0.76168 0.61826 0.35963 0.0
C140 C 0.8571 0.74584 0.37965 0.0
H141 H 0.84502 0.61618 0.24177 0.0
H142 H 0.82804 0.63393 0.27882 0.0
H143 H 0.89828 0.65027 0.30813 0.0
H144 H 0.91531 0.63297 0.27077 0.0
H145 H 0.82442 0.62632 0.3236 0.0
H146 H 0.87608 0.68401 0.31961 0.0
H147 H 0.82321 0.68208 0.37774 0.0
H148 H 0.82808 0.72154 0.37005 0.0
H149 H 0.89826 0.70073 0.35365 0.0
H150 H 0.91543 0.73786 0.36964 0.0
H151 H 0.78363 0.62844 0.32875 0.0
H152 H 0.80922 0.65102 0.40157 0.0
H153 H 0.84542 0.75836 0.38673 0.0
H154 H 0.74889 0.60882 0.34758 0.0
H155 H 0.77346 0.63294 0.4203 0.0
C156 C 0.85009 0.81939 0.74914 0.0
C157 C 0.85696 0.84303 0.75081 0.0
C158 C 0.83566 0.80905 0.76753 0.0
C159 C 0.82779 0.82219 0.78786 0.0
C160 C 0.83486 0.84577 0.78963 0.0
C161 C 0.8493 0.85606 0.77135 0.0
C162 C 0.81261 0.81143 0.80753 0.0
C163 C 0.81823 0.79083 0.8177 0.0
C164 C 0.80503 0.78153 0.83773 0.0
C165 C 0.78578 0.79283 0.84725 0.0
C166 C 0.77993 0.81345 0.83725 0.0
C167 C 0.7933 0.82252 0.81726 0.0
C168 C 0.76082 0.82621 0.8487 0.0
C169 C 0.7393 0.81464 0.85609 0.0
C170 C 0.76434 0.85007 0.85304 0.0
C171 C 0.74679 0.86208 0.86469 0.0
C172 C 0.72534 0.8505 0.87228 0.0
C173 C 0.81267 0.76114 0.85001 0.0
C174 C 0.82025 0.74245 0.83584 0.0
C175 C 0.81377 0.76088 0.87605 0.0
C176 C 0.82302 0.74269 0.88767 0.0
C177 C 0.83139 0.72439 0.87348 0.0
C178 C 0.82952 0.72424 0.84747 0.0
C179 C 0.72172 0.82667 0.86775 0.0
H180 H 0.85549 0.80895 0.7334 0.0
H181 H 0.83037 0.79086 0.76567 0.0
H182 H 0.82948 0.85623 0.80537 0.0
H183 H 0.85469 0.87421 0.77345 0.0
H184 H 0.83369 0.78271 0.81089 0.0
H185 H 0.78873 0.83831 0.80928 0.0
H186 H 0.77577 0.78593 0.86296 0.0
H187 H 0.73604 0.79628 0.85284 0.0
H188 H 0.78085 0.85943 0.84785 0.0
H189 H 0.74998 0.88048 0.86765 0.0
H190 H 0.81931 0.74206 0.81575 0.0
H191 H 0.80841 0.77521 0.88746 0.0
H192 H 0.70544 0.81726 0.87356 0.0
H193 H 0.83555 0.71019 0.8361 0.0
H194 H 0.82455 0.74345 0.90772 0.0
C195 C 0.67969 0.12219 0.28383 0.0
C196 C 0.6735 0.1363 0.26473 0.0
C197 C 0.68637 0.13166 0.30709 0.0
C198 C 0.68742 0.15552 0.31174 0.0
C199 C 0.68178 0.16968 0.29246 0.0
C200 C 0.67474 0.16018 0.26931 0.0
C201 C 0.69401 0.16552 0.33672 0.0
C202 C 0.71134 0.15614 0.35076 0.0
C203 C 0.71725 0.16504 0.37468 0.0
C204 C 0.70584 0.18388 0.38438 0.0
C205 C 0.68904 0.19389 0.37027 0.0
C206 C 0.68299 0.18447 0.34667 0.0
C207 C 0.67827 0.2147 0.37964 0.0
C208 C 0.66735 0.21544 0.40317 0.0
C209 C 0.67868 0.23394 0.36474 0.0
C210 C 0.66823 0.25358 0.37313 0.0
C211 C 0.65692 0.25423 0.39644 0.0
C212 C 0.73596 0.15505 0.38892 0.0
C213 C 0.73788 0.13122 0.38801 0.0
C214 C 0.75271 0.16926 0.40256 0.0
C215 C 0.77132 0.15992 0.4144 0.0
C216 C 0.77373 0.13618 0.41269 0.0
C217 C 0.7566 0.12192 0.3996 0.0
C218 C 0.65654 0.235 0.41143 0.0
H219 H 0.67934 0.10377 0.28089 0.0
H220 H 0.69032 0.12017 0.32154 0.0
H221 H 0.68277 0.18816 0.29519 0.0
H222 H 0.66984 0.1716 0.25519 0.0
H223 H 0.72077 0.14224 0.34274 0.0
H224 H 0.66938 0.19182 0.33627 0.0
H225 H 0.71026 0.19105 0.40273 0.0
H226 H 0.66679 0.20074 0.41492 0.0
H227 H 0.68715 0.2338 0.34659 0.0
H228 H 0.66857 0.26811 0.36115 0.0
H229 H 0.72505 0.11973 0.37802 0.0
H230 H 0.75189 0.1877 0.40351 0.0
H231 H 0.64796 0.23517 0.42952 0.0
H232 H 0.75798 0.1036 0.39764 0.0
H233 H 0.78397 0.17137 0.42468 0.0
C234 C 0.26315 0.64155 0.15453 0.0
C235 C 0.26193 0.63606 0.12893 0.0
C236 C 0.28406 0.65198 0.16496 0.0
C237 C 0.30403 0.65754 0.14992 0.0
C238 C 0.30274 0.65224 0.12428 0.0
C239 C 0.28198 0.64141 0.11394 0.0
C240 C 0.32616 0.66889 0.16093 0.0
C241 C 0.33613 0.65995 0.1819 0.0
C242 C 0.35719 0.67037 0.19238 0.0
C243 C 0.36808 0.69025 0.18157 0.0
C244 C 0.35826 0.69964 0.16061 0.0
C245 C 0.33732 0.68866 0.15043 0.0
C246 C 0.36949 0.72105 0.14947 0.0
C247 C 0.37935 0.73941 0.1646 0.0
C248 C 0.36984 0.72357 0.12355 0.0
C249 C 0.37937 0.74395 0.11311 0.0
C250 C 0.38898 0.76243 0.12823 0.0
C251 C 0.3678 0.66019 0.21436 0.0
C252 C 0.35325 0.65094 0.23353 0.0
C253 C 0.39246 0.65904 0.2161 0.0
C254 C 0.40221 0.6486 0.23622 0.0
C255 C 0.38759 0.63898 0.25513 0.0
C256 C 0.36299 0.64046 0.25358 0.0
C257 C 0.38898 0.75978 0.15414 0.0
H258 H 0.24801 0.63752 0.16655 0.0
H259 H 0.28453 0.65597 0.18475 0.0
H260 H 0.3179 0.65623 0.11228 0.0
H261 H 0.2815 0.6375 0.09413 0.0
H262 H 0.32778 0.6444 0.1896 0.0
H263 H 0.32921 0.69585 0.13467 0.0
H264 H 0.38424 0.69844 0.1895 0.0
H265 H 0.37923 0.73827 0.18462 0.0
H266 H 0.36274 0.70974 0.11122 0.0
H267 H 0.37877 0.74532 0.09313 0.0
H268 H 0.33424 0.65188 0.23313 0.0
H269 H 0.40422 0.66568 0.20158 0.0
H270 H 0.39651 0.77344 0.16642 0.0
H271 H 0.35119 0.63366 0.268 0.0
H272 H 0.42121 0.64755 0.23661 0.0
C273 C 0.15887 0.263 0.63884 0.0
C274 C 0.13443 0.25958 0.63432 0.0
C275 C 0.16877 0.28409 0.64858 0.0
C276 C 0.15435 0.30201 0.65435 0.0
C277 C 0.12987 0.29849 0.65007 0.0
C278 C 0.12004 0.27755 0.64 0.0
C279 C 0.16475 0.32444 0.66461 0.0
C280 C 0.18483 0.3356 0.65338 0.0
C281 C 0.19403 0.35732 0.66231 0.0
C282 C 0.1834 0.36761 0.68306 0.0
C283 C 0.16373 0.35641 0.69502 0.0
C284 C 0.15435 0.33493 0.68544 0.0
C285 C 0.15324 0.367 0.71767 0.0
C286 C 0.16791 0.37787 0.73619 0.0
C287 C 0.12854 0.36622 0.72106 0.0
C288 C 0.11875 0.37609 0.74244 0.0
C289 C 0.13343 0.38697 0.76094 0.0
C290 C 0.2146 0.36945 0.6498 0.0
C291 C 0.23575 0.35879 0.64611 0.0
C292 C 0.2132 0.39183 0.64159 0.0
C293 C 0.23258 0.40329 0.6297 0.0
C294 C 0.25384 0.39276 0.6263 0.0
C295 C 0.2553 0.37045 0.63469 0.0
C296 C 0.15813 0.38773 0.75755 0.0
H297 H 0.17038 0.24947 0.63451 0.0
H298 H 0.18767 0.28631 0.65181 0.0
H299 H 0.11837 0.31207 0.6542 0.0
H300 H 0.10112 0.27532 0.63686 0.0
H301 H 0.19282 0.32777 0.63714 0.0
H302 H 0.13929 0.32603 0.69457 0.0
H303 H 0.19054 0.38438 0.68991 0.0
H304 H 0.18701 0.37844 0.73436 0.0
H305 H 0.11673 0.35826 0.70701 0.0
H306 H 0.09965 0.37552 0.74427 0.0
H307 H 0.23725 0.34157 0.65236 0.0
H308 H 0.19702 0.40034 0.64414 0.0
H309 H 0.16995 0.39567 0.77159 0.0
H310 H 0.27148 0.36194 0.63213 0.0
H311 H 0.23107 0.42051 0.62342 0.0
Dy312 Dy 0.01621 0.01492 0.47811 0.0
C313 C 0.98665 0.9765 0.57064 0.0
C314 C 0.03138 0.03759 0.43684 0.0
Dy315 Dy 0.99789 1.00012 0.52885 0.0
O316 O 0.04474 0.03241 0.45483 0.0
O317 O 0.00947 0.03028 0.4412 0.0
O318 O 0.03875 0.9851 0.47615 0.0
O319 O 0.03211 1.0015 0.51059 0.0
C320 C 0.04127 0.98481 0.50005 0.0
C321 C 0.97191 0.02972 0.50705 0.0
O322 O 0.02439 0.02863 0.54054 0.0
O323 O 0.02304 0.04653 0.50302 0.0
O324 O 0.97818 0.99556 0.56493 0.0
O325 O 0.0016 0.97047 0.55367 0.0
O326 O 0.97438 0.02907 0.53094 0.0
O327 O 0.98161 0.0134 0.49632 0.0
O328 O 0.99301 0.98443 0.46477 0.0
O329 O 0.98438 0.97021 0.50397 0.0
C330 C 0.02865 0.04695 0.5269 0.0
C331 C 0.98358 0.96822 0.47933 0.0
Dy332 Dy 0.52036 0.01254 0.02175 0.0
C333 C 0.45958 0.96531 0.94641 0.0
C334 C 0.55313 0.03276 0.05377 0.0
Dy335 Dy 0.48921 0.9919 0.97674 0.0
O336 O 0.54426 0.01161 0.05449 0.0
O337 O 0.54415 0.04296 0.03546 0.0
O338 O 0.49475 0.99354 0.04743 0.0
O339 O 0.50108 0.97939 0.01191 0.0
C340 C 0.48891 0.97683 0.03156 0.0
C341 C 0.51252 0.03239 0.9648 0.0
O342 O 0.46374 0.01168 0.99933 0.0
O343 O 0.49068 0.03522 0.02317 0.0
O344 O 0.48085 0.97347 0.94055 0.0
O345 O 0.45436 0.97154 0.96914 0.0
O346 O 0.49861 0.02018 0.94958 0.0
O347 O 0.51273 0.02191 0.98474 0.0
O348 O 0.54676 0.99423 0.99884 0.0
O349 O 0.52063 0.97143 0.97346 0.0
C350 C 0.46902 0.02963 0.01465 0.0
C351 C 0.54218 0.97731 0.98208 0.0
Dy352 Dy 0.50976 0.48438 0.48539 0.0
C353 C 0.47301 0.55533 0.54461 0.0
C354 C 0.53247 0.45141 0.46007 0.0
Dy355 Dy 0.49808 0.52401 0.51958 0.0
O356 O 0.51014 0.44979 0.46606 0.0
O357 O 0.54235 0.47123 0.46756 0.0
O358 O 0.471 0.47368 0.48173 0.0
O359 O 0.4842 0.48845 0.51548 0.0
C360 C 0.4657 0.4812 0.50393 0.0
C361 C 0.54207 0.52777 0.50062 0.0
O362 O 0.50905 0.50099 0.54882 0.0
O363 O 0.52643 0.4756 0.52154 0.0
O364 O 0.49599 0.55592 0.54382 0.0
O365 O 0.46384 0.53759 0.53197 0.0
O366 O 0.53669 0.53591 0.52255 0.0
O367 O 0.52355 0.52006 0.48943 0.0
O368 O 0.49842 0.5071 0.45593 0.0
O369 O 0.48229 0.53337 0.48318 0.0
C370 C 0.52228 0.48359 0.54446 0.0
C371 C 0.48585 0.52501 0.46027 0.0
Dy372 Dy 0.0097 0.48327 0.01138 0.0
C373 C 0.9744 0.56817 0.98637 0.0
C374 C 0.0324 0.44456 0.01626 0.0
Dy375 Dy 0.99653 0.52962 0.99457 0.0
O376 O 0.01612 0.45136 0.03134 0.0
O377 O 0.03622 0.45885 0.9985 0.0
O378 O 0.98297 0.48405 0.04249 0.0
O379 O 1.00047 0.51483 0.03048 0.0
C380 C 0.9843 0.50634 0.04445 0.0
C381 C 0.02186 0.50593 0.96189 0.0
O382 O 0.0284 0.5418 0.01701 0.0
O383 O 0.04339 0.50613 0.01847 0.0
O384 O 0.99257 0.56168 0.9739 0.0
O385 O 0.96848 0.55374 0.00359 0.0
O386 O 0.02399 0.52818 0.96398 0.0
O387 O 0.00534 0.498 0.97567 0.0
O388 O 0.977 0.47111 0.9903 0.0
O389 O 0.96265 0.50698 0.98772 0.0
C390 C 0.04588 0.52884 0.02168 0.0
C391 C 0.95978 0.48423 0.98523 0.0
H392 H 0.15647 0.15257 0.28297 0.0
H393 H 0.13373 0.13178 0.31506 0.0
H394 H 0.07968 0.1097 0.26177 0.0
H395 H 0.10269 0.12976 0.22921 0.0
H396 H 0.06238 0.12613 0.30969 0.0
H397 H 0.11424 0.07242 0.27442 0.0
H398 H 0.15267 0.05974 0.25995 0.0
H399 H 0.18063 0.07109 0.33351 0.0
H400 H 0.14246 0.08418 0.34835 0.0
H401 H 0.00808 0.04357 0.39356 0.0
H402 H 0.02441 0.06281 0.35653 0.0
H403 H 0.09077 0.07905 0.39436 0.0
H404 H 0.07487 0.05928 0.43075 0.0
H405 H 0.09897 0.06291 0.35003 0.0
H406 H 0.04938 0.11949 0.38506 0.0
H407 H 0.01184 0.13364 0.40037 0.0
H408 H 0.98045 0.11846 0.32888 0.0
H409 H 0.01774 0.10394 0.31323 0.0
C410 C 0.13987 0.14314 0.27795 0.0
C411 C 0.13154 0.14269 0.25343 0.0
C412 C 0.12682 0.13143 0.29636 0.0
C413 C 0.10515 0.11916 0.29067 0.0
C414 C 0.09636 0.11918 0.26647 0.0
C415 C 0.10951 0.13072 0.24794 0.0
C416 C 0.09224 0.10563 0.30992 0.0
C417 C 0.07012 0.11205 0.31831 0.0
C418 C 0.10261 0.08753 0.32126 0.0
C419 C 0.12554 0.07946 0.31244 0.0
C420 C 0.12864 0.07238 0.28747 0.0
C421 C 0.15037 0.06509 0.27921 0.0
C422 C 0.1691 0.06466 0.29578 0.0
C423 C 0.16611 0.07145 0.32068 0.0
C424 C 0.14442 0.07879 0.32903 0.0
C425 C 0.02611 0.05135 0.39387 0.0
C426 C 0.04029 0.04993 0.41487 0.0
C427 C 0.03538 0.0624 0.37281 0.0
C428 C 0.05879 0.07248 0.37272 0.0
C429 C 0.07273 0.07129 0.39392 0.0
C430 C 0.06361 0.06005 0.41474 0.0
C431 C 0.06931 0.0838 0.35051 0.0
C432 C 0.09101 0.07686 0.34138 0.0
C433 C 0.05862 0.10156 0.33872 0.0
C434 C 0.03625 0.11038 0.34807 0.0
C435 C 0.03441 0.119 0.37266 0.0
C436 C 0.01319 0.12712 0.38139 0.0
C437 C 0.99375 0.12687 0.36563 0.0
C438 C 0.99551 0.11859 0.34108 0.0
C439 C 0.01669 0.11043 0.33227 0.0
H440 H 0.97733 0.13316 0.37242 0.0
H441 H 0.18591 0.05901 0.28935 0.0
H442 H 0.36407 0.89858 0.74864 0.0
H443 H 0.38252 0.9121 0.78775 0.0
H444 H 0.3272 0.87435 0.82862 0.0
H445 H 0.30906 0.85978 0.78953 0.0
H446 H 0.34325 0.92391 0.84623 0.0
H447 H 0.37082 0.8493 0.8269 0.0
H448 H 0.38709 0.82005 0.79901 0.0
H449 H 0.44967 0.86505 0.78705 0.0
H450 H 0.43358 0.89474 0.81455 0.0
H451 H 0.41472 0.94578 0.95526 0.0
H452 H 0.38777 0.92575 0.92469 0.0
H453 H 0.44128 0.93658 0.86755 0.0
H454 H 0.46822 0.95579 0.89792 0.0
H455 H 0.42143 0.89517 0.86268 0.0
H456 H 0.39384 0.97091 0.87565 0.0
H457 H 0.37858 0.00278 0.90057 0.0
H458 H 0.31772 0.95889 0.92185 0.0
H459 H 0.3328 0.92666 0.89728 0.0
C460 C 0.35581 0.89304 0.7659 0.0
C461 C 0.33525 0.87781 0.76589 0.0
C462 C 0.36627 0.90095 0.7882 0.0
C463 C 0.35624 0.89405 0.81092 0.0
C464 C 0.33509 0.87985 0.81118 0.0
C465 C 0.32474 0.87165 0.78881 0.0
C466 C 0.36891 0.90062 0.83416 0.0
C467 C 0.36011 0.91733 0.85023 0.0
C468 C 0.39104 0.89224 0.83893 0.0
C469 C 0.4009 0.8743 0.82264 0.0
C470 C 0.38796 0.85303 0.81816 0.0
C471 C 0.39716 0.83636 0.80245 0.0
C472 C 0.41938 0.84071 0.79122 0.0
C473 C 0.43246 0.86172 0.79574 0.0
C474 C 0.42331 0.87846 0.81141 0.0
C475 C 0.42067 0.94366 0.93619 0.0
C476 C 0.44346 0.95233 0.92886 0.0
C477 C 0.40528 0.93235 0.91876 0.0
C478 C 0.41244 0.92987 0.89378 0.0
C479 C 0.43538 0.9382 0.8867 0.0
C480 C 0.45075 0.94925 0.90407 0.0
C481 C 0.39621 0.91909 0.87456 0.0
C482 C 0.40434 0.90149 0.85915 0.0
C483 C 0.37367 0.92697 0.87021 0.0
C484 C 0.36459 0.94632 0.88491 0.0
C485 C 0.3773 0.96802 0.88581 0.0
C486 C 0.36867 0.98615 0.89984 0.0
C487 C 0.34723 0.98284 0.91286 0.0
C488 C 0.33435 0.96141 0.91181 0.0
C489 C 0.34292 0.94321 0.89783 0.0
H490 H 0.34058 0.9969 0.9237 0.0
H491 H 0.42647 0.82778 0.77906 0.0
H492 H 0.58706 0.35368 0.71744 0.0
H493 H 0.57203 0.37194 0.6814 0.0
H494 H 0.60402 0.43745 0.70779 0.0
H495 H 0.62063 0.41932 0.74298 0.0
H496 H 0.55041 0.43223 0.69191 0.0
H497 H 0.63145 0.42026 0.66582 0.0
H498 H 0.6647 0.39617 0.65816 0.0
H499 H 0.622 0.35265 0.60749 0.0
H500 H 0.58836 0.37631 0.61518 0.0
H501 H 0.53265 0.50214 0.5907 0.0
H502 H 0.54853 0.4834 0.62596 0.0
H503 H 0.54848 0.42004 0.58236 0.0
H504 H 0.53397 0.43922 0.54659 0.0
H505 H 0.5853 0.42272 0.6076 0.0
H506 H 0.50515 0.432 0.63053 0.0
H507 H 0.46911 0.45228 0.63802 0.0
H508 H 0.50509 0.49551 0.69408 0.0
H509 H 0.54147 0.47569 0.68669 0.0
C510 C 0.59137 0.3719 0.71552 0.0
C511 C 0.60524 0.38486 0.73345 0.0
C512 C 0.5825 0.38234 0.69493 0.0
C513 C 0.58687 0.40604 0.69197 0.0
C514 C 0.60032 0.41914 0.70984 0.0
C515 C 0.60964 0.40867 0.73014 0.0
C516 C 0.57752 0.41715 0.67013 0.0
C517 C 0.55815 0.43043 0.67349 0.0
C518 C 0.58707 0.41402 0.646 0.0
C519 C 0.60731 0.39989 0.64131 0.0
C520 C 0.62907 0.40541 0.65326 0.0
C521 C 0.64801 0.39187 0.64886 0.0
C522 C 0.64544 0.37284 0.63241 0.0
C523 C 0.62395 0.36737 0.62026 0.0
C524 C 0.60495 0.38084 0.62463 0.0
C525 C 0.53603 0.48421 0.58864 0.0
C526 C 0.53194 0.47214 0.56587 0.0
C527 C 0.54497 0.47341 0.60892 0.0
C528 C 0.54926 0.45003 0.60724 0.0
C529 C 0.54535 0.43804 0.58435 0.0
C530 C 0.53698 0.44901 0.56386 0.0
C531 C 0.55806 0.4382 0.62915 0.0
C532 C 0.57735 0.42465 0.6259 0.0
C533 C 0.54797 0.44058 0.6533 0.0
C534 C 0.52611 0.4525 0.65788 0.0
C535 C 0.50543 0.44594 0.64434 0.0
C536 C 0.48493 0.45733 0.64858 0.0
C537 C 0.48483 0.47521 0.66647 0.0
C538 C 0.50521 0.48168 0.68021 0.0
C539 C 0.52577 0.47036 0.67601 0.0
H540 H 0.46894 0.48401 0.66973 0.0
H541 H 0.66013 0.36238 0.62902 0.0
H542 H 0.91726 0.59442 0.25066 0.0
H543 H 0.934 0.57649 0.21348 0.0
H544 H 0.88589 0.60961 0.16771 0.0
H545 H 0.86894 0.62743 0.20487 0.0
H546 H 0.88763 0.56684 0.15218 0.0
H547 H 0.94492 0.62893 0.17206 0.0
H548 H 0.97286 0.65323 0.19838 0.0
H549 H 0.01391 0.59584 0.20879 0.0
H550 H 0.98601 0.57109 0.18283 0.0
H551 H 0.98915 0.55259 0.05363 0.0
H552 H 0.97046 0.57441 0.08698 0.0
H553 H 0.93431 0.51179 0.11297 0.0
H554 H 0.95263 0.48997 0.07936 0.0
H555 H 0.97426 0.57271 0.1357 0.0
H556 H 0.88118 0.52294 0.13834 0.0
H557 H 0.85323 0.50185 0.10925 0.0
H558 H 0.88342 0.54085 0.04887 0.0
H559 H 0.9113 0.56239 0.07764 0.0
C560 C 0.91039 0.59804 0.23265 0.0
C561 C 0.89183 0.61241 0.23071 0.0
C562 C 0.91997 0.58777 0.21141 0.0
C563 C 0.91141 0.5919 0.18774 0.0
C564 C 0.89277 0.60613 0.18576 0.0
C565 C 0.88308 0.61628 0.20701 0.0
C566 C 0.92174 0.58119 0.16509 0.0
C567 C 0.90657 0.56815 0.14858 0.0
C568 C 0.94641 0.58328 0.16003 0.0
C569 C 0.96323 0.5981 0.17568 0.0
C570 C 0.95979 0.62144 0.18013 0.0
C571 C 0.97564 0.6353 0.19496 0.0
C572 C 0.99511 0.62607 0.2053 0.0
C573 C 0.9988 0.60296 0.20079 0.0
C574 C 0.98298 0.58901 0.18601 0.0
C575 C 0.97706 0.54352 0.06634 0.0
C576 C 0.9723 0.5196 0.06393 0.0
C577 C 0.96647 0.55599 0.08544 0.0
C578 C 0.95087 0.54478 0.1024 0.0
C579 C 0.94602 0.52087 0.0999 0.0
C580 C 0.95655 0.5084 0.08076 0.0
C581 C 0.94021 0.55797 0.12314 0.0
C582 C 0.95532 0.57145 0.13929 0.0
C583 C 0.91545 0.55674 0.12752 0.0
C584 C 0.89847 0.54412 0.11014 0.0
C585 C 0.88178 0.52709 0.11888 0.0
C586 C 0.86596 0.51504 0.10244 0.0
C587 C 0.8666 0.51995 0.07722 0.0
C588 C 0.883 0.53699 0.0684 0.0
C589 C 0.89883 0.54911 0.08476 0.0
H590 H 0.85436 0.51059 0.06452 0.0
H591 H 0.00737 0.63683 0.21677 0.0
H592 H 0.29346 0.11215 0.1243 0.0
H593 H 0.32675 0.09311 0.10616 0.0
H594 H 0.34089 0.14874 0.05612 0.0
H595 H 0.30746 0.16781 0.0741 0.0
H596 H 0.34432 0.10854 0.03221 0.0
H597 H 0.37487 0.14518 0.10705 0.0
H598 H 0.37566 0.15536 0.15187 0.0
H599 H 0.37929 0.0845 0.16859 0.0
H600 H 0.37818 0.07385 0.12386 0.0
H601 H 0.4735 0.07088 0.0402 0.0
H602 H 0.44191 0.09414 0.05463 0.0
H603 H 0.38978 0.04392 0.02289 0.0
H604 H 0.42129 0.02071 0.00793 0.0
H605 H 0.40751 0.08513 0.08669 0.0
H606 H 0.34238 0.07021 0.00414 0.0
H607 H 0.34397 0.06321 0.95872 0.0
H608 H 0.41408 0.09715 0.95611 0.0
H609 H 0.41278 0.10461 0.00144 0.0
C610 C 0.30376 0.12037 0.10953 0.0
C611 C 0.29799 0.14152 0.1007 0.0
C612 C 0.32273 0.10948 0.09917 0.0
C613 C 0.33645 0.11967 0.08002 0.0
C614 C 0.3305 0.14059 0.07088 0.0
C615 C 0.31142 0.15144 0.08114 0.0
C616 C 0.35715 0.10853 0.06973 0.0
C617 C 0.35817 0.10344 0.04409 0.0
C618 C 0.37546 0.10236 0.08518 0.0
C619 C 0.37624 0.1087 0.11211 0.0
C620 C 0.37566 0.13175 0.12029 0.0
C621 C 0.37619 0.13761 0.14568 0.0
C622 C 0.37747 0.12058 0.16307 0.0
C623 C 0.37827 0.09767 0.1551 0.0
C624 C 0.37772 0.09171 0.12973 0.0
C625 C 0.45533 0.06479 0.03618 0.0
C626 C 0.44991 0.04393 0.02291 0.0
C627 C 0.4373 0.07812 0.04448 0.0
C628 C 0.41354 0.07085 0.03967 0.0
C629 C 0.40804 0.05004 0.02643 0.0
C630 C 0.42608 0.03675 0.01798 0.0
C631 C 0.39446 0.08471 0.04923 0.0
C632 C 0.39372 0.09028 0.07476 0.0
C633 C 0.37676 0.09182 0.03358 0.0
C634 C 0.37754 0.08778 0.00623 0.0
C635 C 0.35808 0.07627 0.99385 0.0
C636 C 0.35895 0.0722 0.96813 0.0
C637 C 0.37914 0.07967 0.95455 0.0
C638 C 0.39848 0.0913 0.96666 0.0
C639 C 0.3977 0.09543 0.99237 0.0
H640 H 0.37978 0.07647 0.93465 0.0
H641 H 0.37788 0.12516 0.18272 0.0
H642 H 0.20988 0.87804 0.56945 0.0
H643 H 0.17783 0.89802 0.55266 0.0
H644 H 0.12825 0.86334 0.60298 0.0
H645 H 0.16015 0.8425 0.61929 0.0
H646 H 0.10862 0.86743 0.55773 0.0
H647 H 0.15062 0.91634 0.61792 0.0
H648 H 0.18568 0.93654 0.63795 0.0
H649 H 0.20152 0.9738 0.57167 0.0
H650 H 0.16675 0.95356 0.5511 0.0
H651 H 0.05203 0.98542 0.54916 0.0
H652 H 0.0757 0.95894 0.57027 0.0
H653 H 0.08412 0.92075 0.50114 0.0
H654 H 0.06022 0.94703 0.48002 0.0
H655 H 0.12091 0.95247 0.56136 0.0
H656 H 0.0893 0.86445 0.51358 0.0
H657 H 0.05227 0.84452 0.49743 0.0
H658 H 0.01153 0.88626 0.54592 0.0
H659 H 0.04827 0.9062 0.56262 0.0
C660 C 0.19208 0.87422 0.57658 0.0
C661 C 0.18759 0.85878 0.59583 0.0
C662 C 0.17382 0.88583 0.56712 0.0
C663 C 0.15078 0.88244 0.5769 0.0
C664 C 0.14596 0.86628 0.5953 0.0
C665 C 0.16423 0.85456 0.60474 0.0
C666 C 0.13212 0.89674 0.5688 0.0
C667 C 0.11124 0.88602 0.55851 0.0
C668 C 0.1353 0.92099 0.57057 0.0
C669 C 0.15618 0.93329 0.58291 0.0
C670 C 0.16168 0.92872 0.60756 0.0
C671 C 0.18148 0.94019 0.61901 0.0
C672 C 0.19584 0.95641 0.60607 0.0
C673 C 0.19039 0.96122 0.58166 0.0
C674 C 0.17063 0.94976 0.5701 0.0
C675 C 0.05875 0.97123 0.53856 0.0
C676 C 0.05449 0.96828 0.51297 0.0
C677 C 0.07225 0.95615 0.55061 0.0
C678 C 0.08155 0.93785 0.53729 0.0
C679 C 0.07684 0.93459 0.51182 0.0
C680 C 0.06336 0.94969 0.49975 0.0
C681 C 0.09768 0.92321 0.54955 0.0
C682 C 0.11815 0.93389 0.56066 0.0
C683 C 0.0938 0.89899 0.54904 0.0
C684 C 0.07159 0.88694 0.53921 0.0
C685 C 0.07245 0.8693 0.52089 0.0
C686 C 0.0515 0.85798 0.51165 0.0
C687 C 0.02957 0.86409 0.52067 0.0
C688 C 0.02853 0.88155 0.53893 0.0
C689 C 0.04942 0.89289 0.54826 0.0
H690 H 0.01338 0.85536 0.51344 0.0
H691 H 0.21117 0.96527 0.61498 0.0
H692 H 0.74828 0.4167 0.9086 0.0
H693 H 0.7848 0.43532 0.92618 0.0
H694 H 0.82389 0.38051 0.89583 0.0
H695 H 0.78774 0.3622 0.87719 0.0
H696 H 0.83377 0.39233 0.94662 0.0
H697 H 0.82909 0.4291 0.86825 0.0
H698 H 0.80984 0.45054 0.83663 0.0
H699 H 0.80395 0.50683 0.88906 0.0
H700 H 0.82286 0.48557 0.92113 0.0
H701 H 0.95094 0.44057 0.96576 0.0
H702 H 0.91397 0.42282 0.94847 0.0
H703 H 0.87999 0.48498 0.96528 0.0
H704 H 0.91727 0.50315 0.98175 0.0
H705 H 0.86649 0.46963 0.92208 0.0
H706 H 0.87046 0.43463 1.00049 0.0
H707 H 0.88826 0.41392 0.03372 0.0
H708 H 0.89347 0.35541 0.98416 0.0
H709 H 0.87598 0.37589 0.95052 0.0
C710 C 0.76464 0.4087 0.90525 0.0
C711 C 0.76486 0.38785 0.89131 0.0
C712 C 0.78552 0.41934 0.91551 0.0
C713 C 0.80709 0.40935 0.91228 0.0
C714 C 0.80742 0.38848 0.89867 0.0
C715 C 0.78662 0.37796 0.88813 0.0
C716 C 0.82932 0.42062 0.92311 0.0
C717 C 0.84112 0.40911 0.94107 0.0
C718 C 0.83847 0.44282 0.91644 0.0
C719 C 0.82715 0.45564 0.89716 0.0
C720 C 0.82349 0.44596 0.8731 0.0
C721 C 0.81268 0.4581 0.85509 0.0
C722 C 0.80561 0.48 0.86085 0.0
C723 C 0.8094 0.48984 0.88463 0.0
C724 C 0.82017 0.47776 0.90273 0.0
C725 C 0.93558 0.45046 0.9659 0.0
C726 C 0.93707 0.47327 0.97528 0.0
C727 C 0.91435 0.44022 0.95608 0.0
C728 C 0.89392 0.45234 0.95592 0.0
C729 C 0.89542 0.47519 0.96519 0.0
C730 C 0.91676 0.48556 0.97468 0.0
C731 C 0.87116 0.44135 0.94568 0.0
C732 C 0.85921 0.45288 0.9278 0.0
C733 C 0.86165 0.41929 0.95272 0.0
C734 C 0.87211 0.40688 0.97292 0.0
C735 C 0.87556 0.41741 0.99663 0.0
C736 C 0.88557 0.4057 0.01554 0.0
C737 C 0.89205 0.38339 0.01103 0.0
C738 C 0.88847 0.37271 0.98761 0.0
C739 C 0.87849 0.38435 0.96862 0.0
H740 H 0.89979 0.37435 0.0257 0.0
H741 H 0.79725 0.48938 0.84687 0.0
H742 H 0.71297 0.61526 0.36691 0.0
H743 H 0.67725 0.59684 0.38544 0.0
H744 H 0.7171 0.58072 0.4494 0.0
H745 H 0.75336 0.59766 0.43015 0.0
H746 H 0.68707 0.54609 0.43868 0.0
H747 H 0.68083 0.62679 0.44948 0.0
H748 H 0.68079 0.66694 0.43697 0.0
H749 H 0.62198 0.64833 0.38877 0.0
H750 H 0.62188 0.60799 0.40074 0.0
H751 H 0.58468 0.53958 0.52232 0.0
H752 H 0.62224 0.55187 0.50158 0.0
H753 H 0.58849 0.54182 0.43028 0.0
H754 H 0.55111 0.52881 0.45081 0.0
H755 H 0.61497 0.58882 0.44495 0.0
H756 H 0.62223 0.50709 0.43612 0.0
H757 H 0.62253 0.46797 0.45169 0.0
H758 H 0.67974 0.49051 0.50057 0.0
H759 H 0.67962 0.52986 0.48547 0.0
C760 C 0.71434 0.60747 0.38472 0.0
C761 C 0.73621 0.60808 0.39699 0.0
C762 C 0.69374 0.5972 0.39549 0.0
C763 C 0.69431 0.58776 0.41909 0.0
C764 C 0.71612 0.58799 0.43125 0.0
C765 C 0.73684 0.59798 0.42032 0.0
C766 C 0.67213 0.57787 0.43111 0.0
C767 C 0.67143 0.55559 0.44026 0.0
C768 C 0.65152 0.59007 0.43304 0.0
C769 C 0.65151 0.61432 0.42582 0.0
C770 C 0.66801 0.63123 0.43607 0.0
C771 C 0.66799 0.65402 0.4291 0.0
C772 C 0.65143 0.66017 0.41204 0.0
C773 C 0.63482 0.64354 0.40196 0.0
C774 C 0.63477 0.62071 0.40884 0.0
C775 C 0.5854 0.53971 0.50221 0.0
C776 C 0.56504 0.53334 0.48815 0.0
C777 C 0.6068 0.54668 0.49043 0.0
C778 C 0.60803 0.54774 0.46446 0.0
C779 C 0.58782 0.54105 0.45035 0.0
C780 C 0.56655 0.5336 0.46208 0.0
C781 C 0.63003 0.55718 0.45218 0.0
C782 C 0.63067 0.57941 0.44318 0.0
C783 C 0.65062 0.54511 0.45079 0.0
C784 C 0.65073 0.52148 0.45988 0.0
C785 C 0.63471 0.50377 0.45038 0.0
C786 C 0.63488 0.48154 0.45907 0.0
C787 C 0.65107 0.47678 0.47718 0.0
C788 C 0.66718 0.49423 0.48657 0.0
C789 C 0.66709 0.51649 0.47793 0.0
H790 H 0.65118 0.45956 0.48388 0.0
H791 H 0.65145 0.67783 0.40667 0.0
H792 H 0.13336 0.30204 0.12793 0.0
H793 H 0.11357 0.33016 0.10507 0.0
H794 H 0.16171 0.32224 0.04325 0.0
H795 H 0.18176 0.29393 0.06622 0.0
H796 H 0.14982 0.36858 0.05313 0.0
H797 H 0.11146 0.29369 0.03834 0.0
H798 H 0.09398 0.25557 0.05016 0.0
H799 H 0.04103 0.28709 0.09414 0.0
H800 H 0.05843 0.32544 0.08293 0.0
H801 H 0.06701 0.42872 0.98629 0.0
H802 H 0.09254 0.39813 0.99513 0.0
H803 H 0.05448 0.38603 0.06402 0.0
H804 H 0.02882 0.4162 0.05507 0.0
H805 H 0.0641 0.34642 0.04093 0.0
H806 H 0.10719 0.42042 0.06218 0.0
H807 H 0.12431 0.45899 0.05132 0.0
H808 H 0.1676 0.42916 0.99491 0.0
H809 H 0.15058 0.3904 0.00533 0.0
C810 C 0.1399 0.30649 0.10958 0.0
C811 C 0.15881 0.29561 0.09864 0.0
C812 C 0.12863 0.32254 0.09658 0.0
C813 C 0.13593 0.32786 0.07233 0.0
C814 C 0.15581 0.31822 0.06192 0.0
C815 C 0.16722 0.30213 0.07503 0.0
C816 C 0.12144 0.34213 0.05755 0.0
C817 C 0.1312 0.36358 0.04993 0.0
C818 C 0.09717 0.33552 0.05345 0.0
C819 C 0.08633 0.31246 0.05987 0.0
C820 C 0.09616 0.2925 0.05064 0.0
C821 C 0.08627 0.27085 0.05723 0.0
C822 C 0.06642 0.26891 0.07291 0.0
C823 C 0.0564 0.28862 0.08199 0.0
C824 C 0.06625 0.31032 0.07549 0.0
C825 C 0.06401 0.4193 0.00316 0.0
C826 C 0.04617 0.42484 0.02015 0.0
C827 C 0.07859 0.40192 0.0082 0.0
C828 C 0.07556 0.39005 0.03038 0.0
C829 C 0.05709 0.39499 0.0468 0.0
C830 C 0.0425 0.41225 0.04172 0.0
C831 C 0.09219 0.37328 0.03747 0.0
C832 C 0.08284 0.35124 0.04356 0.0
C833 C 0.11677 0.37938 0.04014 0.0
C834 C 0.12751 0.40258 0.0344 0.0
C835 C 0.12033 0.42211 0.04743 0.0
C836 C 0.13001 0.44399 0.04136 0.0
C837 C 0.14702 0.44652 0.02243 0.0
C838 C 0.15445 0.42716 0.00958 0.0
C839 C 0.14482 0.40524 0.01558 0.0
H840 H 0.15447 0.46347 0.01774 0.0
H841 H 0.05879 0.25213 0.07801 0.0
H842 H 0.59367 0.24311 0.92308 0.0
H843 H 0.57689 0.20709 0.94096 0.0
H844 H 0.59883 0.16935 0.8757 0.0
H845 H 0.61622 0.20516 0.8581 0.0
H846 H 0.54622 0.16272 0.89557 0.0
H847 H 0.62975 0.16218 0.91749 0.0
H848 H 0.66642 0.17928 0.9372 0.0
H849 H 0.63041 0.18256 0.00772 0.0
H850 H 0.5934 0.16581 0.9883 0.0
H851 H 0.52467 0.04702 0.91915 0.0
H852 H 0.54306 0.08432 0.90769 0.0
H853 H 0.54661 0.10598 0.9851 0.0
H854 H 0.52903 0.06787 0.99669 0.0
H855 H 0.58444 0.12352 0.96281 0.0
H856 H 0.50282 0.12289 0.94529 0.0
H857 H 0.46388 0.10834 0.92863 0.0
H858 H 0.49206 0.11099 0.85431 0.0
H859 H 0.53127 0.12525 0.87053 0.0
C860 C 0.59492 0.2271 0.91261 0.0
C861 C 0.60625 0.2269 0.88921 0.0
C862 C 0.58543 0.20658 0.92286 0.0
C863 C 0.58669 0.18558 0.90967 0.0
C864 C 0.59774 0.18538 0.8862 0.0
C865 C 0.6077 0.2058 0.8762 0.0
C866 C 0.57603 0.16383 0.92001 0.0
C867 C 0.55466 0.15398 0.91008 0.0
C868 C 0.58649 0.15306 0.93974 0.0
C869 C 0.60875 0.16304 0.95138 0.0
C870 C 0.62958 0.1668 0.93713 0.0
C871 C 0.65045 0.17636 0.94827 0.0
C872 C 0.65073 0.18208 0.97368 0.0
C873 C 0.63016 0.17817 0.98803 0.0
C874 C 0.60924 0.16864 0.97697 0.0
C875 C 0.52955 0.05966 0.93377 0.0
C876 C 0.52535 0.0546 0.9588 0.0
C877 C 0.53991 0.0811 0.92719 0.0
C878 C 0.54565 0.09836 0.94542 0.0
C879 C 0.54221 0.09308 0.97061 0.0
C880 C 0.53222 0.07131 0.97726 0.0
C881 C 0.55482 0.12184 0.93784 0.0
C882 C 0.57583 0.13218 0.94837 0.0
C883 C 0.54365 0.13344 0.91907 0.0
C884 C 0.52005 0.12498 0.90915 0.0
C885 C 0.50076 0.12023 0.9254 0.0
C886 C 0.47863 0.11205 0.91603 0.0
C887 C 0.47551 0.1087 0.89043 0.0
C888 C 0.49451 0.11358 0.87414 0.0
C889 C 0.51668 0.12174 0.8834 0.0
H890 H 0.45837 0.10236 0.88322 0.0
H891 H 0.6669 0.18947 0.98227 0.0
H892 H 0.87093 0.77343 0.42295 0.0
H893 H 0.88803 0.8107 0.43899 0.0
H894 H 0.93311 0.81705 0.37399 0.0
H895 H 0.91644 0.77948 0.35819 0.0
H896 H 0.95758 0.83108 0.41288 0.0
H897 H 0.88212 0.84683 0.38191 0.0
H898 H 0.83875 0.84192 0.37707 0.0
H899 H 0.82931 0.85742 0.45491 0.0
H900 H 0.87266 0.86211 0.46029 0.0
H901 H 0.98774 0.95167 0.43139 0.0
H902 H 0.97 0.91526 0.41346 0.0
H903 H 0.93518 0.90028 0.48335 0.0
H904 H 0.95297 0.93644 0.50151 0.0
H905 H 0.9057 0.89152 0.44081 0.0
H906 H 0.98297 0.87681 0.47012 0.0
H907 H 0.02639 0.88409 0.47234 0.0
H908 H 0.03251 0.86776 0.39433 0.0
H909 H 0.98903 0.86127 0.39138 0.0
C910 C 0.88441 0.78284 0.41204 0.0
C911 C 0.89226 0.77359 0.38926 0.0
C912 C 0.89415 0.80417 0.42119 0.0
C913 C 0.91161 0.81694 0.40752 0.0
C914 C 0.91967 0.80758 0.38489 0.0
C915 C 0.91014 0.78611 0.37588 0.0
C916 C 0.9215 0.83998 0.41686 0.0
C917 C 0.94621 0.84437 0.41864 0.0
C918 C 0.90673 0.85734 0.42471 0.0
C919 C 0.88064 0.8546 0.42154 0.0
C920 C 0.8708 0.84902 0.39803 0.0
C921 C 0.84622 0.8463 0.39518 0.0
C922 C 0.83128 0.8493 0.41568 0.0
C923 C 0.8409 0.85507 0.43905 0.0
C924 C 0.86548 0.85778 0.44201 0.0
C925 C 0.97616 0.94071 0.44289 0.0
C926 C 0.97184 0.94692 0.4679 0.0
C927 C 0.96611 0.9199 0.43264 0.0
C928 C 0.9514 0.90505 0.44714 0.0
C929 C 0.94649 0.91151 0.47187 0.0
C930 C 0.95677 0.93214 0.48222 0.0
C931 C 0.94163 0.88245 0.43682 0.0
C932 C 0.91699 0.87818 0.43493 0.0
C933 C 0.95647 0.86536 0.42856 0.0
C934 C 0.98267 0.8688 0.43047 0.0
C935 C 0.99353 0.87499 0.45337 0.0
C936 C 0.01816 0.87894 0.45478 0.0
C937 C 0.03219 0.87632 0.43352 0.0
C938 C 0.02161 0.86979 0.41079 0.0
C939 C 0.99696 0.86604 0.40922 0.0
H940 H 0.05127 0.87935 0.43468 0.0
H941 H 0.81226 0.84719 0.41344 0.0
H942 H 0.32873 0.70935 0.58555 0.0
H943 H 0.35127 0.67627 0.57559 0.0
H944 H 0.40844 0.70559 0.62172 0.0
H945 H 0.38576 0.73827 0.63262 0.0
H946 H 0.42264 0.68881 0.5738 0.0
H947 H 0.37475 0.66475 0.6443 0.0
H948 H 0.33725 0.65785 0.6676 0.0
H949 H 0.31043 0.61045 0.61001 0.0
H950 H 0.34766 0.61734 0.58617 0.0
H951 H 0.48928 0.5922 0.5737 0.0
H952 H 0.46685 0.62411 0.58861 0.0
H953 H 0.40375 0.59143 0.55426 0.0
H954 H 0.42599 0.55932 0.53992 0.0
H955 H 0.3928 0.61029 0.59737 0.0
H956 H 0.438 0.6345 0.52582 0.0
H957 H 0.47406 0.64152 0.50015 0.0
H958 H 0.50422 0.68861 0.55635 0.0
H959 H 0.46845 0.68162 0.58252 0.0
C960 C 0.34598 0.70868 0.59381 0.0
C961 C 0.35538 0.72649 0.60994 0.0
C962 C 0.35886 0.68983 0.58798 0.0
C963 C 0.38141 0.68852 0.59806 0.0
C964 C 0.39107 0.70639 0.61373 0.0
C965 C 0.37811 0.72512 0.61979 0.0
C966 C 0.39488 0.6684 0.59236 0.0
C967 C 0.41634 0.67167 0.57924 0.0
C968 C 0.38622 0.64605 0.59893 0.0
C969 C 0.3639 0.64174 0.61334 0.0
C970 C 0.36078 0.653 0.6365 0.0
C971 C 0.33958 0.64907 0.64983 0.0
C972 C 0.32144 0.63377 0.64026 0.0
C973 C 0.32448 0.62232 0.61738 0.0
C974 C 0.34564 0.62622 0.60397 0.0
C975 C 0.47056 0.59176 0.56963 0.0
C976 C 0.45931 0.57345 0.55562 0.0
C977 C 0.4578 0.61001 0.57802 0.0
C978 C 0.43374 0.61034 0.57213 0.0
C979 C 0.42231 0.59156 0.55896 0.0
C980 C 0.43501 0.57325 0.55078 0.0
C981 C 0.42066 0.63063 0.57875 0.0
C982 C 0.39922 0.62742 0.59201 0.0
C983 C 0.42917 0.65302 0.57197 0.0
C984 C 0.45066 0.65735 0.55624 0.0
C985 C 0.4524 0.64622 0.53278 0.0
C986 C 0.47277 0.65021 0.51814 0.0
C987 C 0.49144 0.66545 0.52665 0.0
C988 C 0.48975 0.67678 0.5498 0.0
C989 C 0.46943 0.67282 0.56454 0.0
H990 H 0.5072 0.66852 0.51528 0.0
H991 H 0.30504 0.63075 0.65061 0.0
H992 H 0.85197 0.8845 0.73077 0.0
H993 H 0.87689 0.9038 0.69944 0.0
H994 H 0.9199 0.84623 0.69411 0.0
H995 H 0.89548 0.8271 0.72641 0.0
H996 H 0.94706 0.88619 0.69522 0.0
H997 H 0.88114 0.85414 0.64855 0.0
H998 H 0.83907 0.84466 0.63843 0.0
H999 H 0.82892 0.91632 0.63387 0.0
H1000 H 0.87087 0.92627 0.64432 0.0
H1001 H 0.99991 0.93442 0.58259 0.0
H1002 H 0.98078 0.90867 0.61327 0.0
H1003 H 0.93378 0.96046 0.63483 0.0
H1004 H 0.95274 0.98616 0.60437 0.0
H1005 H 0.91048 0.91801 0.62208 0.0
H1006 H 0.97656 0.94917 0.67277 0.0
H1007 H 0.01898 0.95761 0.682 0.0
H1008 H 0.02917 0.88565 0.67699 0.0
H1009 H 0.98683 0.87681 0.6674 0.0
C1010 C 0.86684 0.87599 0.72313 0.0
C1011 C 0.87178 0.85429 0.73112 0.0
C1012 C 0.88092 0.88694 0.705 0.0
C1013 C 0.90004 0.8763 0.6942 0.0
C1014 C 0.90514 0.85466 0.70214 0.0
C1015 C 0.89106 0.8437 0.72041 0.0
C1016 C 0.91476 0.88816 0.67491 0.0
C1017 C 0.93916 0.89278 0.67896 0.0
C1018 C 0.90441 0.89683 0.65377 0.0
C1019 C 0.87915 0.89095 0.64739 0.0
C1020 C 0.86991 0.86789 0.64556 0.0
C1021 C 0.84608 0.86243 0.63974 0.0
C1022 C 0.83132 0.87988 0.63555 0.0
C1023 C 0.84037 0.90283 0.63713 0.0
C1024 C 0.86419 0.90838 0.64297 0.0
C1025 C 0.98577 0.94039 0.59422 0.0
C1026 C 0.97769 0.96218 0.59114 0.0
C1027 C 0.97489 0.92571 0.61168 0.0
C1028 C 0.95584 0.93269 0.62617 0.0
C1029 C 0.94839 0.95477 0.62369 0.0
C1030 C 0.95929 0.96944 0.60639 0.0
C1031 C 0.94253 0.91669 0.64289 0.0
C1032 C 0.9184 0.91118 0.6382 0.0
C1033 C 0.9532 0.90703 0.66321 0.0
C1034 C 0.9786 0.91235 0.66908 0.0
C1035 C 0.98789 0.93516 0.67342 0.0
C1036 C 0.01191 0.94002 0.67876 0.0
C1037 C 0.02678 0.92218 0.68 0.0
C1038 C 0.01764 0.89945 0.67598 0.0
C1039 C 0.99363 0.89451 0.67061 0.0
H1040 H 0.04537 0.92598 0.68414 0.0
H1041 H 0.81288 0.87561 0.63104 0.0
H1042 H 0.64581 0.09623 0.25609 0.0
H1043 H 0.63127 0.07989 0.21637 0.0
H1044 H 0.66609 0.13726 0.17859 0.0
H1045 H 0.68181 0.15332 0.21816 0.0
H1046 H 0.61596 0.12603 0.16752 0.0
H1047 H 0.68949 0.09089 0.16991 0.0
H1048 H 0.71982 0.06942 0.18907 0.0
H1049 H 0.66931 0.01106 0.19602 0.0
H1050 H 0.63857 0.03231 0.17725 0.0
H1051 H 0.5774 0.07495 0.05188 0.0
H1052 H 0.60334 0.09386 0.08387 0.0
H1053 H 0.59102 0.03463 0.12938 0.0
H1054 H 0.56604 0.01541 0.09708 0.0
H1055 H 0.63484 0.04982 0.13305 0.0
H1056 H 0.56051 0.08455 0.13791 0.0
H1057 H 0.52771 0.10496 0.122 0.0
H1058 H 0.57646 0.16257 0.105 0.0
H1059 H 0.6096 0.14235 0.12054 0.0
C1060 C 0.65089 0.10519 0.23935 0.0
C1061 C 0.66509 0.12611 0.24041 0.0
C1062 C 0.64241 0.09587 0.21668 0.0
C1063 C 0.64774 0.10736 0.19465 0.0
C1064 C 0.66182 0.1282 0.19548 0.0
C1065 C 0.67063 0.1374 0.21814 0.0
C1066 C 0.63771 0.09785 0.17096 0.0
C1067 C 0.62041 0.1096 0.15959 0.0
C1068 C 0.64317 0.07616 0.1612 0.0
C1069 C 0.66168 0.06327 0.17232 0.0
C1070 C 0.6848 0.07354 0.1757 0.0
C1071 C 0.70207 0.0614 0.18646 0.0
C1072 C 0.69649 0.03891 0.1938 0.0
C1073 C 0.67362 0.02849 0.19033 0.0
C1074 C 0.65626 0.04057 0.17961 0.0
C1075 C 0.58047 0.06596 0.06865 0.0
C1076 C 0.56968 0.04383 0.07217 0.0
C1077 C 0.59517 0.07679 0.08693 0.0
C1078 C 0.59882 0.06582 0.10922 0.0
C1079 C 0.5885 0.04344 0.11236 0.0
C1080 C 0.57416 0.0325 0.09395 0.0
C1081 C 0.6126 0.07775 0.12977 0.0
C1082 C 0.63062 0.06644 0.14062 0.0
C1083 C 0.60744 0.09966 0.1394 0.0
C1084 C 0.58755 0.11183 0.13009 0.0
C1085 C 0.56425 0.1015 0.1306 0.0
C1086 C 0.5456 0.11304 0.12168 0.0
C1087 C 0.55001 0.13501 0.11241 0.0
C1088 C 0.57308 0.14552 0.11212 0.0
C1089 C 0.5918 0.13404 0.12099 0.0
H1090 H 0.53555 0.14392 0.10552 0.0
H1091 H 0.70989 0.02954 0.20212 0.0
H1092 H 0.42821 0.65187 0.28131 0.0
H1093 H 0.44489 0.63225 0.31559 0.0
H1094 H 0.38701 0.57962 0.31095 0.0
H1095 H 0.37021 0.59916 0.27675 0.0
H1096 H 0.39517 0.59077 0.35775 0.0
H1097 H 0.44316 0.57073 0.28785 0.0
H1098 H 0.46914 0.57786 0.25138 0.0
H1099 H 0.52068 0.61605 0.29765 0.0
H1100 H 0.49484 0.60941 0.33436 0.0
H1101 H 0.4864 0.51174 0.41084 0.0
H1102 H 0.46964 0.53052 0.37601 0.0
H1103 H 0.44695 0.58363 0.42624 0.0
H1104 H 0.46314 0.56471 0.46118 0.0
H1105 H 0.47851 0.57043 0.3557 0.0
H1106 H 0.39633 0.60328 0.40614 0.0
H1107 H 0.36929 0.59248 0.44084 0.0
H1108 H 0.38394 0.52194 0.43002 0.0
H1109 H 0.4108 0.53227 0.39506 0.0
C1110 C 0.41911 0.63603 0.28744 0.0
C1111 C 0.39785 0.62713 0.27617 0.0
C1112 C 0.42868 0.62481 0.3071 0.0
C1113 C 0.41738 0.60427 0.3158 0.0
C1114 C 0.39606 0.59546 0.30471 0.0
C1115 C 0.38643 0.60671 0.28514 0.0
C1116 C 0.42767 0.59197 0.33646 0.0
C1117 C 0.41341 0.58639 0.35728 0.0
C1118 C 0.45136 0.58579 0.33582 0.0
C1119 C 0.46696 0.58976 0.3138 0.0
C1120 C 0.45995 0.58079 0.29021 0.0
C1121 C 0.47467 0.58472 0.2695 0.0
C1122 C 0.49652 0.59745 0.27218 0.0
C1123 C 0.50373 0.60622 0.29559 0.0
C1124 C 0.48907 0.60236 0.31636 0.0
C1125 C 0.47781 0.5274 0.41452 0.0
C1126 C 0.47603 0.53659 0.43892 0.0
C1127 C 0.46829 0.53818 0.39453 0.0
C1128 C 0.45673 0.55839 0.39842 0.0
C1129 C 0.45534 0.56783 0.42271 0.0
C1130 C 0.46472 0.55699 0.44272 0.0
C1131 C 0.4461 0.56953 0.37712 0.0
C1132 C 0.4603 0.5749 0.3562 0.0
C1133 C 0.42219 0.57506 0.37742 0.0
C1134 C 0.40575 0.5686 0.39814 0.0
C1135 C 0.39369 0.58545 0.4111 0.0
C1136 C 0.37841 0.57942 0.43083 0.0
C1137 C 0.37496 0.55656 0.43768 0.0
C1138 C 0.38669 0.53966 0.42475 0.0
C1139 C 0.40196 0.5456 0.405 0.0
H1140 H 0.36315 0.55193 0.45298 0.0
H1141 H 0.50789 0.60047 0.25613 0.0
H1142 H 0.09559 0.37005 0.78886 0.0
H1143 H 0.07776 0.38821 0.82528 0.0
H1144 H 0.1299 0.446 0.82091 0.0
H1145 H 0.14776 0.42801 0.78439 0.0
H1146 H 0.12249 0.43334 0.86874 0.0
H1147 H 0.07463 0.44921 0.79902 0.0
H1148 H 0.05009 0.43935 0.76207 0.0
H1149 H 1.00045 0.39841 0.80629 0.0
H1150 H 0.0249 0.40777 0.84346 0.0
H1151 H 0.06133 0.51935 0.93496 0.0
H1152 H 0.08181 0.49638 0.90376 0.0
H1153 H 0.03172 0.43832 0.91672 0.0
H1154 H 0.01141 0.46108 0.94814 0.0
H1155 H 0.03782 0.44914 0.86622 0.0
H1156 H 0.08451 0.43469 0.93645 0.0
H1157 H 0.10907 0.44443 0.97345 0.0
H1158 H 0.16036 0.48289 0.92875 0.0
H1159 H 0.13605 0.47355 0.8915 0.0
C1160 C 0.10319 0.38668 0.79556 0.0
C1161 C 0.12301 0.39764 0.78359 0.0
C1162 C 0.09304 0.397 0.81644 0.0
C1163 C 0.10236 0.41857 0.82568 0.0
C1164 C 0.12246 0.42932 0.81415 0.0
C1165 C 0.13266 0.41899 0.79328 0.0
C1166 C 0.09071 0.43028 0.84686 0.0
C1167 C 0.10405 0.43701 0.8681 0.0
C1168 C 0.06649 0.43458 0.84626 0.0
C1169 C 0.05173 0.42899 0.82396 0.0
C1170 C 0.05858 0.43796 0.80082 0.0
C1171 C 0.04467 0.43249 0.77985 0.0
C1172 C 0.02376 0.41821 0.78182 0.0
C1173 C 0.01668 0.40943 0.80479 0.0
C1174 C 0.03054 0.41483 0.82581 0.0
C1175 C 0.05483 0.50165 0.93124 0.0
C1176 C 0.03478 0.49199 0.94382 0.0
C1177 C 0.06658 0.48853 0.91355 0.0
C1178 C 0.05829 0.46565 0.90803 0.0
C1179 C 0.03838 0.45594 0.92076 0.0
C1180 C 0.02683 0.46894 0.93867 0.0
C1181 C 0.06962 0.45231 0.88798 0.0
C1182 C 0.05623 0.44533 0.86693 0.0
C1183 C 0.09374 0.4478 0.88878 0.0
C1184 C 0.10833 0.45361 0.9112 0.0
C1185 C 0.10091 0.44541 0.93454 0.0
C1186 C 0.11481 0.45081 0.95555 0.0
C1187 C 0.1362 0.46434 0.95346 0.0
C1188 C 0.14377 0.47244 0.93034 0.0
C1189 C 0.12996 0.46706 0.90926 0.0
H1190 H 0.14693 0.46851 0.96973 0.0
H1191 H 0.01301 0.414 0.76556 0.0
H1192 H 0.73143 0.88422 0.90858 0.0
H1193 H 0.70106 0.9061 0.92853 0.0
H1194 H 0.64722 0.86719 0.88509 0.0
H1195 H 0.67759 0.84573 0.86446 0.0
H1196 H 0.64199 0.91249 0.88499 0.0
H1197 H 0.6543 0.85674 0.94606 0.0
H1198 H 0.67775 0.83553 0.97438 0.0
H1199 H 0.70036 0.89845 0.01378 0.0
H1200 H 0.67729 0.92009 0.98546 0.0
H1201 H 0.53937 0.94079 0.94903 0.0
H1202 H 0.57167 0.91993 0.93206 0.0
H1203 H 0.62176 0.9631 0.97603 0.0
H1204 H 0.5894 0.98409 0.99348 0.0
H1205 H 0.63028 0.91738 0.97645 0.0
H1206 H 0.61697 0.97295 0.916 0.0
H1207 H 0.5931 0.99396 0.88791 0.0
H1208 H 0.57224 0.93119 0.84737 0.0
H1209 H 0.59573 0.90973 0.87545 0.0
C1210 C 0.71313 0.88042 0.90317 0.0
C1211 C 0.70688 0.86328 0.88493 0.0
C1212 C 0.6958 0.89278 0.91476 0.0
C1213 C 0.6719 0.88809 0.90844 0.0
C1214 C 0.66558 0.87099 0.89026 0.0
C1215 C 0.68291 0.85864 0.87865 0.0
C1216 C 0.65349 0.90143 0.92029 0.0
C1217 C 0.63923 0.91333 0.90496 0.0
C1218 C 0.65042 0.90304 0.9464 0.0
C1219 C 0.66427 0.89006 0.96347 0.0
C1220 C 0.66443 0.86608 0.96063 0.0
C1221 C 0.67762 0.85398 0.97671 0.0
C1222 C 0.69059 0.86565 0.99582 0.0
C1223 C 0.69034 0.88944 0.99894 0.0
C1224 C 0.67719 0.90163 0.98289 0.0
C1225 C 0.55722 0.9459 0.95521 0.0
C1226 C 0.56181 0.96425 0.97251 0.0
C1227 C 0.57567 0.93396 0.94541 0.0
C1228 C 0.59909 0.94022 0.95253 0.0
C1229 C 0.60376 0.95811 0.97025 0.0
C1230 C 0.58526 0.9701 0.98013 0.0
C1231 C 0.61863 0.92816 0.94111 0.0
C1232 C 0.63313 0.91658 0.95649 0.0
C1233 C 0.62194 0.92682 0.91504 0.0
C1234 C 0.60796 0.93971 0.89797 0.0
C1235 C 0.60716 0.9636 0.90121 0.0
C1236 C 0.59372 0.97559 0.88527 0.0
C1237 C 0.58112 0.96391 0.8659 0.0
C1238 C 0.582 0.94021 0.86239 0.0
C1239 C 0.59539 0.92813 0.8783 0.0
H1240 H 0.57072 0.97323 0.85358 0.0
H1241 H 0.70079 0.85625 0.00825 0.0
H1242 H 0.81971 0.15488 0.41416 0.0
H1243 H 0.8541 0.13797 0.43024 0.0
H1244 H 0.80973 0.07775 0.45018 0.0
H1245 H 0.77498 0.09519 0.43569 0.0
H1246 H 0.83979 0.08763 0.48483 0.0
H1247 H 0.84511 0.07939 0.3966 0.0
H1248 H 0.84634 0.09177 0.35326 0.0
H1249 H 0.90958 0.13542 0.36839 0.0
H1250 H 0.90852 0.12357 0.41194 0.0
H1251 H 0.95238 0.0225 0.46111 0.0
H1252 H 0.9195 0.04169 0.44435 0.0
H1253 H 0.91994 0.08669 0.50965 0.0
H1254 H 0.95215 0.06695 0.52684 0.0
H1255 H 0.91132 0.0827 0.43137 0.0
H1256 H 0.86453 0.09684 0.52658 0.0
H1257 H 0.86122 0.07917 0.56756 0.0
H1258 H 0.87693 0.01436 0.53416 0.0
H1259 H 0.88 0.03156 0.49297 0.0
C1260 C 0.81714 0.13824 0.42242 0.0
C1261 C 0.79453 0.12636 0.42351 0.0
C1262 C 0.83691 0.12844 0.43127 0.0
C1263 C 0.83458 0.10639 0.44095 0.0
C1264 C 0.81199 0.09473 0.44264 0.0
C1265 C 0.79216 0.10464 0.4341 0.0
C1266 C 0.85568 0.09541 0.44922 0.0
C1267 C 0.85543 0.0866 0.47313 0.0
C1268 C 0.87591 0.09356 0.43377 0.0
C1269 C 0.87659 0.10077 0.4076 0.0
C1270 C 0.85917 0.09177 0.39074 0.0
C1271 C 0.85985 0.09868 0.36613 0.0
C1272 C 0.87798 0.11442 0.3581 0.0
C1273 C 0.89551 0.12326 0.37465 0.0
C1274 C 0.89489 0.11645 0.3993 0.0
C1275 C 0.94556 0.03662 0.47174 0.0
C1276 C 0.95444 0.04307 0.4954 0.0
C1277 C 0.92684 0.0476 0.46215 0.0
C1278 C 0.91693 0.06528 0.476 0.0
C1279 C 0.92691 0.07269 0.49894 0.0
C1280 C 0.94535 0.0615 0.50868 0.0
C1281 C 0.8955 0.07524 0.46706 0.0
C1282 C 0.89569 0.08384 0.44306 0.0
C1283 C 0.87487 0.07615 0.48208 0.0
C1284 C 0.87274 0.06557 0.50674 0.0
C1285 C 0.86718 0.0788 0.52798 0.0
C1286 C 0.86536 0.06887 0.55125 0.0
C1287 C 0.86894 0.04568 0.55348 0.0
C1288 C 0.87425 0.03234 0.53243 0.0
C1289 C 0.87605 0.04218 0.50912 0.0
H1290 H 0.86755 0.03803 0.57151 0.0
H1291 H 0.87849 0.11973 0.33903 0.0
H1292 H 0.25709 0.5979 0.09809 0.0
H1293 H 0.2207 0.57934 0.08001 0.0
H1294 H 0.18048 0.63087 0.11596 0.0
H1295 H 0.21679 0.6488 0.13496 0.0
H1296 H 0.15637 0.59266 0.11939 0.0
H1297 H 0.19591 0.62958 0.05093 0.0
H1298 H 0.22881 0.63955 0.02184 0.0
H1299 H 0.22886 0.56888 0.99746 0.0
H1300 H 0.19615 0.55844 0.02667 0.0
H1301 H 0.05383 0.57187 0.04313 0.0
H1302 H 0.09064 0.58958 0.06121 0.0
H1303 H 0.12573 0.52871 0.04171 0.0
H1304 H 0.08889 0.51071 0.02383 0.0
H1305 H 0.15195 0.57129 0.0295 0.0
H1306 H 0.11045 0.53593 0.09898 0.0
H1307 H 0.07601 0.52842 0.12683 0.0
H1308 H 0.07814 0.60009 0.14765 0.0
H1309 H 0.1124 0.60807 0.11963 0.0
C1310 C 0.24047 0.60527 0.10206 0.0
C1311 C 0.23979 0.62485 0.11785 0.0
C1312 C 0.21964 0.59472 0.09161 0.0
C1313 C 0.19773 0.60389 0.09613 0.0
C1314 C 0.19706 0.62339 0.1121 0.0
C1315 C 0.21783 0.63367 0.12294 0.0
C1316 C 0.1755 0.59307 0.0845 0.0
C1317 C 0.15542 0.58832 0.09966 0.0
C1318 C 0.17409 0.58698 0.05878 0.0
C1319 C 0.19374 0.5932 0.04117 0.0
C1320 C 0.20305 0.61614 0.0395 0.0
C1321 C 0.22165 0.62188 0.02297 0.0
C1322 C 0.23096 0.60485 0.00786 0.0
C1323 C 0.22165 0.58205 0.00921 0.0
C1324 C 0.20307 0.57621 0.02573 0.0
C1325 C 0.06938 0.56225 0.04259 0.0
C1326 C 0.06837 0.53983 0.03207 0.0
C1327 C 0.09039 0.57238 0.05302 0.0
C1328 C 0.1109 0.56042 0.05292 0.0
C1329 C 0.11011 0.53823 0.042 0.0
C1330 C 0.089 0.52794 0.03188 0.0
C1331 C 0.1331 0.57103 0.0644 0.0
C1332 C 0.15308 0.5757 0.04921 0.0
C1333 C 0.13428 0.57745 0.08996 0.0
C1334 C 0.11385 0.57263 0.10702 0.0
C1335 C 0.10346 0.55012 0.10935 0.0
C1336 C 0.08399 0.54577 0.12519 0.0
C1337 C 0.07485 0.56378 0.13895 0.0
C1338 C 0.08522 0.58616 0.13696 0.0
C1339 C 0.10468 0.5906 0.12111 0.0
H1340 H 0.05977 0.56038 0.1512 0.0
H1341 H 0.24536 0.60933 0.99507 0.0
H1342 H 0.25513 0.41213 0.58096 0.0
H1343 H 0.28974 0.43083 0.55962 0.0
H1344 H 0.33324 0.41997 0.62259 0.0
H1345 H 0.29883 0.40071 0.64373 0.0
H1346 H 0.33707 0.46797 0.59842 0.0
H1347 H 0.34023 0.38538 0.58225 0.0
H1348 H 0.32269 0.34729 0.56793 0.0
H1349 H 0.31027 0.37352 0.49617 0.0
H1350 H 0.32741 0.41188 0.51022 0.0
H1351 H 0.45484 0.48403 0.55333 0.0
H1352 H 0.41687 0.4729 0.57326 0.0
H1353 H 0.38546 0.45796 0.50124 0.0
H1354 H 0.42379 0.46814 0.48133 0.0
H1355 H 0.373 0.42481 0.52866 0.0
H1356 H 0.37028 0.5053 0.54038 0.0
H1357 H 0.3842 0.54522 0.55199 0.0
H1358 H 0.39239 0.5264 0.62757 0.0
H1359 H 0.37839 0.48632 0.61642 0.0
C1360 C 0.27206 0.4139 0.59027 0.0
C1361 C 0.27442 0.40494 0.6139 0.0
C1362 C 0.29174 0.42456 0.57811 0.0
C1363 C 0.31394 0.42679 0.58962 0.0
C1364 C 0.3162 0.41847 0.61352 0.0
C1365 C 0.29664 0.40737 0.62546 0.0
C1366 C 0.33509 0.43664 0.57615 0.0
C1367 C 0.34516 0.45854 0.58331 0.0
C1368 C 0.34493 0.42462 0.55587 0.0
C1369 C 0.33483 0.40153 0.54738 0.0
C1370 C 0.33354 0.38307 0.5635 0.0
C1371 C 0.32372 0.36142 0.55542 0.0
C1372 C 0.3153 0.358 0.53118 0.0
C1373 C 0.31675 0.3762 0.51495 0.0
C1374 C 0.32653 0.39789 0.52296 0.0
C1375 C 0.43976 0.4786 0.54176 0.0
C1376 C 0.44224 0.47678 0.51581 0.0
C1377 C 0.41797 0.4724 0.55316 0.0
C1378 C 0.39811 0.46477 0.53879 0.0
C1379 C 0.40048 0.46371 0.51277 0.0
C1380 C 0.42236 0.46957 0.50139 0.0
C1381 C 0.37546 0.45629 0.55096 0.0
C1382 C 0.36501 0.43453 0.5436 0.0
C1383 C 0.36495 0.46874 0.57065 0.0
C1384 C 0.37349 0.49277 0.57751 0.0
C1385 C 0.37521 0.50963 0.55944 0.0
C1386 C 0.38307 0.5323 0.56595 0.0
C1387 C 0.38933 0.53833 0.59047 0.0
C1388 C 0.38758 0.5217 0.60857 0.0
C1389 C 0.37958 0.49902 0.60219 0.0
H1390 H 0.39546 0.55588 0.59546 0.0
H1391 H 0.30771 0.34122 0.52495 0.0
H1392 H 0.81824 0.70226 0.9161 0.0
H1393 H 0.84046 0.67501 0.93794 0.0
H1394 H 0.89433 0.67922 0.88055 0.0
H1395 H 0.87231 0.70637 0.85872 0.0
H1396 H 0.88397 0.63574 0.89378 0.0
H1397 H 0.90159 0.7096 0.93544 0.0
H1398 H 0.89157 0.745 0.95798 0.0
H1399 H 0.85874 0.70502 0.01629 0.0
H1400 H 0.86829 0.66935 0.99391 0.0
H1401 H 0.9833 0.5969 0.94835 0.0
H1402 H 0.95676 0.62359 0.93216 0.0
H1403 H 0.90682 0.60771 0.99146 0.0
H1404 H 0.93344 0.58091 0.00787 0.0
H1405 H 0.91169 0.65487 0.9797 0.0
H1406 H 0.89661 0.58104 0.93908 0.0
H1407 H 0.90743 0.54588 0.91666 0.0
H1408 H 0.93582 0.58601 0.85631 0.0
H1409 H 0.9255 0.62146 0.87856 0.0
C1410 C 0.83479 0.6973 0.90815 0.0
C1411 C 0.84357 0.70645 0.88573 0.0
C1412 C 0.84744 0.68177 0.92063 0.0
C1413 C 0.86915 0.67535 0.91098 0.0
C1414 C 0.87758 0.68394 0.88826 0.0
C1415 C 0.86493 0.69937 0.87576 0.0
C1416 C 0.88352 0.66008 0.9247 0.0
C1417 C 0.89016 0.64001 0.91249 0.0
C1418 C 0.89106 0.66539 0.94936 0.0
C1419 C 0.88541 0.68682 0.96287 0.0
C1420 C 0.89207 0.70836 0.95297 0.0
C1421 C 0.8865 0.72847 0.96573 0.0
C1422 C 0.87446 0.72725 0.98851 0.0
C1423 C 0.86803 0.70593 0.99862 0.0
C1424 C 0.87352 0.68576 0.98591 0.0
C1425 C 0.96686 0.5994 0.95819 0.0
C1426 C 0.96025 0.58676 0.97919 0.0
C1427 C 0.95172 0.61457 0.94889 0.0
C1428 C 0.92972 0.61725 0.96042 0.0
C1429 C 0.92371 0.60573 0.9823 0.0
C1430 C 0.93887 0.59047 0.9916 0.0
C1431 C 0.9125 0.63089 0.94852 0.0
C1432 C 0.90528 0.65054 0.96108 0.0
C1433 C 0.90443 0.62524 0.92415 0.0
C1434 C 0.91045 0.60393 0.91059 0.0
C1435 C 0.90532 0.58239 0.92111 0.0
C1436 C 0.91134 0.5624 0.90842 0.0
C1437 C 0.92235 0.56372 0.8851 0.0
C1438 C 0.92731 0.58502 0.87439 0.0
C1439 C 0.92136 0.60506 0.88702 0.0
H1440 H 0.927 0.54822 0.8753 0.0
H1441 H 0.87018 0.74284 0.99837 0.0
H1442 H 0.41408 0.76826 0.08445 0.0
H1443 H 0.42901 0.80412 0.06584 0.0
H1444 H 0.40182 0.84241 0.12824 0.0
H1445 H 0.38576 0.80665 0.14639 0.0
H1446 H 0.39304 0.86276 0.08704 0.0
H1447 H 0.462 0.83347 0.12106 0.0
H1448 H 0.49078 0.80485 0.12754 0.0
H1449 H 0.50786 0.8036 0.04962 0.0
H1450 H 0.47894 0.832 0.04263 0.0
H1451 H 0.46288 0.96876 0.07364 0.0
H1452 H 0.44413 0.93208 0.08732 0.0
H1453 H 0.46665 0.89881 0.01937 0.0
H1454 H 0.48541 0.9356 0.00553 0.0
H1455 H 0.47728 0.87546 0.06104 0.0
H1456 H 0.40949 0.90688 0.02791 0.0
H1457 H 0.38146 0.93635 0.02244 0.0
H1458 H 0.36284 0.93442 0.09992 0.0
H1459 H 0.39105 0.90516 0.10594 0.0
C1460 C 0.41101 0.78427 0.09415 0.0
C1461 C 0.3987 0.7844 0.11705 0.0
C1462 C 0.41984 0.80484 0.08358 0.0
C1463 C 0.41689 0.82608 0.09574 0.0
C1464 C 0.40445 0.82629 0.11847 0.0
C1465 C 0.39548 0.80574 0.129 0.0
C1466 C 0.42669 0.84807 0.0848 0.0
C1467 C 0.41153 0.86559 0.08164 0.0
C1468 C 0.45071 0.85172 0.07712 0.0
C1469 C 0.46812 0.83467 0.08129 0.0
C1470 C 0.47176 0.82695 0.10528 0.0
C1471 C 0.48812 0.8108 0.10905 0.0
C1472 C 0.50109 0.80236 0.089 0.0
C1473 C 0.49777 0.81012 0.06513 0.0
C1474 C 0.48141 0.82626 0.06126 0.0
C1475 C 0.46359 0.95368 0.06148 0.0
C1476 C 0.47565 0.95505 0.03854 0.0
C1477 C 0.45282 0.93272 0.0693 0.0
C1478 C 0.4539 0.91264 0.05437 0.0
C1479 C 0.4656 0.91405 0.03123 0.0
C1480 C 0.47621 0.93509 0.02329 0.0
C1481 C 0.44367 0.89012 0.06347 0.0
C1482 C 0.45876 0.87253 0.06631 0.0
C1483 C 0.41965 0.88647 0.071 0.0
C1484 C 0.40255 0.90396 0.06742 0.0
C1485 C 0.39956 0.91286 0.04383 0.0
C1486 C 0.38361 0.92951 0.04062 0.0
C1487 C 0.37041 0.93729 0.06083 0.0
C1488 C 0.37309 0.92839 0.08428 0.0
C1489 C 0.38904 0.91176 0.0876 0.0
H1490 H 0.35807 0.95018 0.05831 0.0
H1491 H 0.51375 0.78986 0.09195 0.0
H1492 H 0.10406 0.25276 0.59535 0.0
H1493 H 0.08643 0.21628 0.57782 0.0
H1494 H 0.12293 0.17982 0.632 0.0
H1495 H 0.14123 0.21635 0.64901 0.0
H1496 H 0.12501 0.158 0.58973 0.0
H1497 H 0.06196 0.18833 0.63663 0.0
H1498 H 0.03465 0.21708 0.65035 0.0
H1499 H 0.00678 0.21744 0.57658 0.0
H1500 H 0.03416 0.18891 0.56233 0.0
H1501 H 0.05217 0.05256 0.57112 0.0
H1502 H 0.07047 0.08835 0.58996 0.0
H1503 H 0.04801 0.12577 0.52806 0.0
H1504 H 0.02991 0.09012 0.50896 0.0
H1505 H 0.0384 0.14611 0.57561 0.0
H1506 H 0.10306 0.11527 0.52967 0.0
H1507 H 0.12975 0.08537 0.51791 0.0
H1508 H 0.15355 0.08461 0.59326 0.0
H1509 H 0.12673 0.1143 0.60555 0.0
C1510 C 0.10824 0.23695 0.60355 0.0
C1511 C 0.1239 0.23738 0.62362 0.0
C1512 C 0.0981 0.21609 0.59359 0.0
C1513 C 0.10294 0.19523 0.60387 0.0
C1514 C 0.11885 0.19564 0.62375 0.0
C1515 C 0.1293 0.21651 0.63347 0.0
C1516 C 0.09159 0.17303 0.59375 0.0
C1517 C 0.10602 0.15534 0.58703 0.0
C1518 C 0.06682 0.16951 0.58985 0.0
C1519 C 0.05028 0.18663 0.59837 0.0
C1520 C 0.05013 0.19466 0.62329 0.0
C1521 C 0.03462 0.2109 0.63117 0.0
C1522 C 0.01903 0.21912 0.61433 0.0
C1523 C 0.01888 0.21107 0.58959 0.0
C1524 C 0.03438 0.19485 0.58161 0.0
C1525 C 0.05112 0.06841 0.56152 0.0
C1526 C 0.03965 0.06849 0.53851 0.0
C1527 C 0.06163 0.08881 0.57228 0.0
C1528 C 0.06066 0.10966 0.56034 0.0
C1529 C 0.04895 0.10985 0.53755 0.0
C1530 C 0.03872 0.08944 0.52663 0.0
C1531 C 0.07184 0.13134 0.57156 0.0
C1532 C 0.05736 0.14887 0.57847 0.0
C1533 C 0.09647 0.13457 0.57597 0.0
C1534 C 0.1127 0.11683 0.56858 0.0
C1535 C 0.11384 0.10859 0.54378 0.0
C1536 C 0.12902 0.09171 0.53701 0.0
C1537 C 0.14329 0.08305 0.55484 0.0
C1538 C 0.14246 0.09131 0.57947 0.0
C1539 C 0.12728 0.10818 0.58635 0.0
H1540 H 0.15503 0.06998 0.54957 0.0
H1541 H 0.00703 0.23169 0.62047 0.0
H1542 H 0.67503 0.29882 0.39659 0.0
H1543 H 0.65424 0.33304 0.40714 0.0
H1544 H 0.59103 0.29011 0.42454 0.0
H1545 H 0.61181 0.25579 0.41416 0.0
H1546 H 0.58427 0.32613 0.39153 0.0
H1547 H 0.61962 0.31466 0.4704 0.0
H1548 H 0.65236 0.30898 0.49871 0.0
H1549 H 0.68738 0.37373 0.47872 0.0
H1550 H 0.65499 0.37965 0.45 0.0
H1551 H 0.51467 0.40759 0.45025 0.0
H1552 H 0.53672 0.37488 0.4377 0.0
H1553 H 0.60114 0.41956 0.4338 0.0
H1554 H 0.57913 0.45231 0.44706 0.0
H1555 H 0.60834 0.3831 0.45879 0.0
H1556 H 0.57332 0.39558 0.38078 0.0
H1557 H 0.54124 0.40167 0.3518 0.0
H1558 H 0.50661 0.33589 0.36866 0.0
H1559 H 0.53833 0.32953 0.39801 0.0
C1560 C 0.65675 0.29673 0.40284 0.0
C1561 C 0.64497 0.27475 0.4046 0.0
C1562 C 0.64496 0.31622 0.40891 0.0
C1563 C 0.62116 0.31401 0.41661 0.0
C1564 C 0.60942 0.29208 0.41863 0.0
C1565 C 0.62131 0.27256 0.41288 0.0
C1566 C 0.60831 0.33466 0.42173 0.0
C1567 C 0.58928 0.33849 0.40642 0.0
C1568 C 0.61548 0.35103 0.44063 0.0
C1569 C 0.63501 0.34747 0.45783 0.0
C1570 C 0.63442 0.32758 0.47184 0.0
C1571 C 0.65289 0.32434 0.48801 0.0
C1572 C 0.67198 0.34095 0.49045 0.0
C1573 C 0.6726 0.36086 0.47678 0.0
C1574 C 0.65419 0.36418 0.46056 0.0
C1575 C 0.53347 0.41047 0.44635 0.0
C1576 C 0.54526 0.4324 0.44958 0.0
C1577 C 0.54604 0.39179 0.4391 0.0
C1578 C 0.57055 0.39479 0.43458 0.0
C1579 C 0.58224 0.41686 0.43718 0.0
C1580 C 0.56967 0.43554 0.44463 0.0
C1581 C 0.58412 0.37466 0.42864 0.0
C1582 C 0.60333 0.37088 0.44378 0.0
C1583 C 0.57724 0.35842 0.40943 0.0
C1584 C 0.55812 0.36217 0.39176 0.0
C1585 C 0.55878 0.38248 0.37846 0.0
C1586 C 0.54067 0.38597 0.36193 0.0
C1587 C 0.52187 0.3692 0.35843 0.0
C1588 C 0.52117 0.34888 0.37141 0.0
C1589 C 0.53923 0.34531 0.38797 0.0
H1590 H 0.50787 0.37193 0.34563 0.0
H1591 H 0.68625 0.33842 0.50299 0.0
loop_
_geom_bond_atom_site_label_1
_geom_bond_atom_site_label_2
_geom_bond_distance
_geom_bond_site_symmetry_2
_ccdc_geom_bond_type
C0 C1 1.386 . S
C0 C2 1.397 . S
C0 H24 0.931 . S
C1 C0 1.386 . S
C1 C5 1.397 . S
C2 C0 1.397 . S
C2 C3 1.384 . S
C2 H25 0.930 . S
C3 C2 1.384 . S
C3 C4 1.377 . S
C3 C6 1.481 . S
C4 C3 1.377 . S
C4 C5 1.389 . S
C4 H26 0.929 . S
C5 C1 1.397 . S
C5 C4 1.389 . S
C5 H27 0.931 . S
C6 C3 1.481 . S
C6 C7 1.387 . S
C6 C11 1.390 . S
C7 C6 1.387 . S
C7 C8 1.401 . S
C7 H28 0.930 . S
C8 C7 1.401 . S
C8 C9 1.376 . S
C8 C17 1.511 . S
C9 C8 1.376 . S
C9 C10 1.392 . S
C9 H30 0.931 . S
C10 C9 1.392 . S
C10 C11 1.361 . S
C10 C12 1.500 . S
C11 C6 1.390 . S
C11 C10 1.361 . S
C11 H29 0.931 . S
C12 C10 1.500 . S
C12 C13 1.371 . S
C12 C14 1.365 . S
C13 C12 1.371 . S
C13 C23 1.386 . S
C13 H31 0.931 . S
C14 C12 1.365 . S
C14 C15 1.409 . S
C14 H32 0.929 . S
C15 C14 1.409 . S
C15 C16 1.380 . S
C15 H33 0.930 . S
C16 C15 1.380 . S
C16 C23 1.357 . S
C17 C8 1.511 . S
C17 C18 1.341 . S
C17 C19 1.371 . S
C18 C17 1.341 . S
C18 C22 1.394 . S
C18 H34 0.930 . S
C19 C17 1.371 . S
C19 C20 1.392 . S
C19 H35 0.931 . S
C20 C19 1.392 . S
C20 C21 1.331 . S
C20 H38 0.932 . S
C21 C20 1.331 . S
C21 C22 1.336 . S
C22 C18 1.394 . S
C22 C21 1.336 . S
C22 H37 0.929 . S
C23 C13 1.386 . S
C23 C16 1.357 . S
C23 H36 0.928 . S
H24 C0 0.931 . S
H25 C2 0.930 . S
H26 C4 0.929 . S
H27 C5 0.931 . S
H28 C7 0.930 . S
H29 C11 0.931 . S
H30 C9 0.931 . S
H31 C13 0.931 . S
H32 C14 0.929 . S
H33 C15 0.930 . S
H34 C18 0.930 . S
H35 C19 0.931 . S
H36 C23 0.928 . S
H37 C22 0.929 . S
H38 C20 0.932 . S
C39 C40 1.386 . S
C39 C41 1.397 . S
C39 H63 0.931 . S
C40 C39 1.386 . S
C40 C44 1.397 . S
C41 C39 1.397 . S
C41 C42 1.384 . S
C41 H64 0.930 . S
C42 C41 1.384 . S
C42 C43 1.377 . S
C42 C45 1.481 . S
C43 C42 1.377 . S
C43 C44 1.389 . S
C43 H65 0.929 . S
C44 C40 1.397 . S
C44 C43 1.389 . S
C44 H66 0.931 . S
C45 C42 1.481 . S
C45 C46 1.387 . S
C45 C50 1.390 . S
C46 C45 1.387 . S
C46 C47 1.401 . S
C46 H67 0.930 . S
C47 C46 1.401 . S
C47 C48 1.376 . S
C47 C56 1.511 . S
C48 C47 1.376 . S
C48 C49 1.392 . S
C48 H69 0.931 . S
C49 C48 1.392 . S
C49 C50 1.361 . S
C49 C51 1.500 . S
C50 C45 1.390 . S
C50 C49 1.361 . S
C50 H68 0.931 . S
C51 C49 1.500 . S
C51 C52 1.371 . S
C51 C53 1.365 . S
C52 C51 1.371 . S
C52 C62 1.386 . S
C52 H70 0.931 . S
C53 C51 1.365 . S
C53 C54 1.409 . S
C53 H71 0.929 . S
C54 C53 1.409 . S
C54 C55 1.380 . S
C54 H72 0.930 . S
C55 C54 1.380 . S
C55 C62 1.357 . S
C56 C47 1.511 . S
C56 C57 1.341 . S
C56 C58 1.371 . S
C57 C56 1.341 . S
C57 C61 1.394 . S
C57 H73 0.930 . S
C58 C56 1.371 . S
C58 C59 1.392 . S
C58 H74 0.931 . S
C59 C58 1.392 . S
C59 C60 1.331 . S
C59 H77 0.932 . S
C60 C59 1.331 . S
C60 C61 1.336 . S
C61 C57 1.394 . S
C61 C60 1.336 . S
C61 H76 0.929 . S
C62 C52 1.386 . S
C62 C55 1.357 . S
C62 H75 0.928 . S
H63 C39 0.931 . S
H64 C41 0.930 . S
H65 C43 0.929 . S
H66 C44 0.931 . S
H67 C46 0.930 . S
H68 C50 0.931 . S
H69 C48 0.931 . S
H70 C52 0.931 . S
H71 C53 0.929 . S
H72 C54 0.930 . S
H73 C57 0.930 . S
H74 C58 0.931 . S
H75 C62 0.928 . S
H76 C61 0.929 . S
H77 C59 0.932 . S
C78 C79 1.386 . S
C78 C80 1.397 . S
C78 H102 0.931 . S
C79 C78 1.386 . S
C79 C83 1.397 . S
C80 C78 1.397 . S
C80 C81 1.384 . S
C80 H103 0.930 . S
C81 C80 1.384 . S
C81 C82 1.377 . S
C81 C84 1.481 . S
C82 C81 1.377 . S
C82 C83 1.389 . S
C82 H104 0.929 . S
C83 C79 1.397 . S
C83 C82 1.389 . S
C83 H105 0.931 . S
C84 C81 1.481 . S
C84 C85 1.387 . S
C84 C89 1.390 . S
C85 C84 1.387 . S
C85 C86 1.401 . S
C85 H106 0.930 . S
C86 C85 1.401 . S
C86 C87 1.376 . S
C86 C95 1.511 . S
C87 C86 1.376 . S
C87 C88 1.392 . S
C87 H108 0.931 . S
C88 C87 1.392 . S
C88 C89 1.361 . S
C88 C90 1.500 . S
C89 C84 1.390 . S
C89 C88 1.361 . S
C89 H107 0.931 . S
C90 C88 1.500 . S
C90 C91 1.371 . S
C90 C92 1.365 . S
C91 C90 1.371 . S
C91 C101 1.386 . S
C91 H109 0.931 . S
C92 C90 1.365 . S
C92 C93 1.409 . S
C92 H110 0.929 . S
C93 C92 1.409 . S
C93 C94 1.380 . S
C93 H111 0.930 . S
C94 C93 1.380 . S
C94 C101 1.357 . S
C95 C86 1.511 . S
C95 C96 1.341 . S
C95 C97 1.371 . S
C96 C95 1.341 . S
C96 C100 1.394 . S
C96 H112 0.930 . S
C97 C95 1.371 . S
C97 C98 1.392 . S
C97 H113 0.931 . S
C98 C97 1.392 . S
C98 C99 1.331 . S
C98 H116 0.932 . S
C99 C98 1.331 . S
C99 C100 1.336 . S
C100 C96 1.394 . S
C100 C99 1.336 . S
C100 H115 0.929 . S
C101 C91 1.386 . S
C101 C94 1.357 . S
C101 H114 0.928 . S
H102 C78 0.931 . S
H103 C80 0.930 . S
H104 C82 0.929 . S
H105 C83 0.931 . S
H106 C85 0.930 . S
H107 C89 0.931 . S
H108 C87 0.931 . S
H109 C91 0.931 . S
H110 C92 0.929 . S
H111 C93 0.930 . S
H112 C96 0.930 . S
H113 C97 0.931 . S
H114 C101 0.928 . S
H115 C100 0.929 . S
H116 C98 0.932 . S
C117 C118 1.386 . S
C117 C119 1.397 . S
C117 H141 0.931 . S
C118 C117 1.386 . S
C118 C122 1.397 . S
C119 C117 1.397 . S
C119 C120 1.384 . S
C119 H142 0.930 . S
C120 C119 1.384 . S
C120 C121 1.377 . S
C120 C123 1.481 . S
C121 C120 1.377 . S
C121 C122 1.389 . S
C121 H143 0.929 . S
C122 C118 1.397 . S
C122 C121 1.389 . S
C122 H144 0.931 . S
C123 C120 1.481 . S
C123 C124 1.387 . S
C123 C128 1.390 . S
C124 C123 1.387 . S
C124 C125 1.401 . S
C124 H145 0.930 . S
C125 C124 1.401 . S
C125 C126 1.376 . S
C125 C134 1.511 . S
C126 C125 1.376 . S
C126 C127 1.392 . S
C126 H147 0.931 . S
C127 C126 1.392 . S
C127 C128 1.361 . S
C127 C129 1.500 . S
C128 C123 1.390 . S
C128 C127 1.361 . S
C128 H146 0.931 . S
C129 C127 1.500 . S
C129 C130 1.371 . S
C129 C131 1.365 . S
C130 C129 1.371 . S
C130 C140 1.386 . S
C130 H148 0.931 . S
C131 C129 1.365 . S
C131 C132 1.409 . S
C131 H149 0.929 . S
C132 C131 1.409 . S
C132 C133 1.380 . S
C132 H150 0.930 . S
C133 C132 1.380 . S
C133 C140 1.357 . S
C134 C125 1.511 . S
C134 C135 1.341 . S
C134 C136 1.371 . S
C135 C134 1.341 . S
C135 C139 1.394 . S
C135 H151 0.930 . S
C136 C134 1.371 . S
C136 C137 1.392 . S
C136 H152 0.931 . S
C137 C136 1.392 . S
C137 C138 1.331 . S
C137 H155 0.932 . S
C138 C137 1.331 . S
C138 C139 1.336 . S
C139 C135 1.394 . S
C139 C138 1.336 . S
C139 H154 0.929 . S
C140 C130 1.386 . S
C140 C133 1.357 . S
C140 H153 0.928 . S
H141 C117 0.931 . S
H142 C119 0.930 . S
H143 C121 0.929 . S
H144 C122 0.931 . S
H145 C124 0.930 . S
H146 C128 0.931 . S
H147 C126 0.931 . S
H148 C130 0.931 . S
H149 C131 0.929 . S
H150 C132 0.930 . S
H151 C135 0.930 . S
H152 C136 0.931 . S
H153 C140 0.928 . S
H154 C139 0.929 . S
H155 C137 0.932 . S
C156 C157 1.386 . S
C156 C158 1.397 . S
C156 H180 0.931 . S
C157 C156 1.386 . S
C157 C161 1.397 . S
C158 C156 1.397 . S
C158 C159 1.384 . S
C158 H181 0.930 . S
C159 C158 1.384 . S
C159 C160 1.377 . S
C159 C162 1.481 . S
C160 C159 1.377 . S
C160 C161 1.389 . S
C160 H182 0.929 . S
C161 C157 1.397 . S
C161 C160 1.389 . S
C161 H183 0.931 . S
C162 C159 1.481 . S
C162 C163 1.387 . S
C162 C167 1.390 . S
C163 C162 1.387 . S
C163 C164 1.401 . S
C163 H184 0.930 . S
C164 C163 1.401 . S
C164 C165 1.376 . S
C164 C173 1.511 . S
C165 C164 1.376 . S
C165 C166 1.392 . S
C165 H186 0.931 . S
C166 C165 1.392 . S
C166 C167 1.361 . S
C166 C168 1.500 . S
C167 C162 1.390 . S
C167 C166 1.361 . S
C167 H185 0.931 . S
C168 C166 1.500 . S
C168 C169 1.371 . S
C168 C170 1.365 . S
C169 C168 1.371 . S
C169 C179 1.386 . S
C169 H187 0.931 . S
C170 C168 1.365 . S
C170 C171 1.409 . S
C170 H188 0.929 . S
C171 C170 1.409 . S
C171 C172 1.380 . S
C171 H189 0.930 . S
C172 C171 1.380 . S
C172 C179 1.357 . S
C173 C164 1.511 . S
C173 C174 1.341 . S
C173 C175 1.371 . S
C174 C173 1.341 . S
C174 C178 1.394 . S
C174 H190 0.930 . S
C175 C173 1.371 . S
C175 C176 1.392 . S
C175 H191 0.931 . S
C176 C175 1.392 . S
C176 C177 1.331 . S
C176 H194 0.932 . S
C177 C176 1.331 . S
C177 C178 1.336 . S
C178 C174 1.394 . S
C178 C177 1.336 . S
C178 H193 0.929 . S
C179 C169 1.386 . S
C179 C172 1.357 . S
C179 H192 0.928 . S
H180 C156 0.931 . S
H181 C158 0.930 . S
H182 C160 0.929 . S
H183 C161 0.931 . S
H184 C163 0.930 . S
H185 C167 0.931 . S
H186 C165 0.931 . S
H187 C169 0.931 . S
H188 C170 0.929 . S
H189 C171 0.930 . S
H190 C174 0.930 . S
H191 C175 0.931 . S
H192 C179 0.928 . S
H193 C178 0.929 . S
H194 C176 0.932 . S
C195 C196 1.386 . S
C195 C197 1.397 . S
C195 H219 0.931 . S
C196 C195 1.386 . S
C196 C200 1.397 . S
C197 C195 1.397 . S
C197 C198 1.384 . S
C197 H220 0.930 . S
C198 C197 1.384 . S
C198 C199 1.377 . S
C198 C201 1.481 . S
C199 C198 1.377 . S
C199 C200 1.389 . S
C199 H221 0.929 . S
C200 C196 1.397 . S
C200 C199 1.389 . S
C200 H222 0.931 . S
C201 C198 1.481 . S
C201 C202 1.387 . S
C201 C206 1.390 . S
C202 C201 1.387 . S
C202 C203 1.401 . S
C202 H223 0.930 . S
C203 C202 1.401 . S
C203 C204 1.376 . S
C203 C212 1.511 . S
C204 C203 1.376 . S
C204 C205 1.392 . S
C204 H225 0.931 . S
C205 C204 1.392 . S
C205 C206 1.361 . S
C205 C207 1.500 . S
C206 C201 1.390 . S
C206 C205 1.361 . S
C206 H224 0.931 . S
C207 C205 1.500 . S
C207 C208 1.371 . S
C207 C209 1.365 . S
C208 C207 1.371 . S
C208 C218 1.386 . S
C208 H226 0.931 . S
C209 C207 1.365 . S
C209 C210 1.409 . S
C209 H227 0.929 . S
C210 C209 1.409 . S
C210 C211 1.380 . S
C210 H228 0.930 . S
C211 C210 1.380 . S
C211 C218 1.357 . S
C212 C203 1.511 . S
C212 C213 1.341 . S
C212 C214 1.371 . S
C213 C212 1.341 . S
C213 C217 1.394 . S
C213 H229 0.930 . S
C214 C212 1.371 . S
C214 C215 1.392 . S
C214 H230 0.931 . S
C215 C214 1.392 . S
C215 C216 1.331 . S
C215 H233 0.932 . S
C216 C215 1.331 . S
C216 C217 1.336 . S
C217 C213 1.394 . S
C217 C216 1.336 . S
C217 H232 0.929 . S
C218 C208 1.386 . S
C218 C211 1.357 . S
C218 H231 0.928 . S
H219 C195 0.931 . S
H220 C197 0.930 . S
H221 C199 0.929 . S
H222 C200 0.931 . S
H223 C202 0.930 . S
H224 C206 0.931 . S
H225 C204 0.931 . S
H226 C208 0.931 . S
H227 C209 0.929 . S
H228 C210 0.930 . S
H229 C213 0.930 . S
H230 C214 0.931 . S
H231 C218 0.928 . S
H232 C217 0.929 . S
H233 C215 0.932 . S
C234 C235 1.386 . S
C234 C236 1.397 . S
C234 H258 0.931 . S
C235 C234 1.386 . S
C235 C239 1.397 . S
C236 C234 1.397 . S
C236 C237 1.384 . S
C236 H259 0.930 . S
C237 C236 1.384 . S
C237 C238 1.377 . S
C237 C240 1.481 . S
C238 C237 1.377 . S
C238 C239 1.389 . S
C238 H260 0.929 . S
C239 C235 1.397 . S
C239 C238 1.389 . S
C239 H261 0.931 . S
C240 C237 1.481 . S
C240 C241 1.387 . S
C240 C245 1.390 . S
C241 C240 1.387 . S
C241 C242 1.401 . S
C241 H262 0.930 . S
C242 C241 1.401 . S
C242 C243 1.376 . S
C242 C251 1.511 . S
C243 C242 1.376 . S
C243 C244 1.392 . S
C243 H264 0.931 . S
C244 C243 1.392 . S
C244 C245 1.361 . S
C244 C246 1.500 . S
C245 C240 1.390 . S
C245 C244 1.361 . S
C245 H263 0.931 . S
C246 C244 1.500 . S
C246 C247 1.371 . S
C246 C248 1.365 . S
C247 C246 1.371 . S
C247 C257 1.386 . S
C247 H265 0.931 . S
C248 C246 1.365 . S
C248 C249 1.409 . S
C248 H266 0.929 . S
C249 C248 1.409 . S
C249 C250 1.380 . S
C249 H267 0.930 . S
C250 C249 1.380 . S
C250 C257 1.357 . S
C251 C242 1.511 . S
C251 C252 1.341 . S
C251 C253 1.371 . S
C252 C251 1.341 . S
C252 C256 1.394 . S
C252 H268 0.930 . S
C253 C251 1.371 . S
C253 C254 1.392 . S
C253 H269 0.931 . S
C254 C253 1.392 . S
C254 C255 1.331 . S
C254 H272 0.932 . S
C255 C254 1.331 . S
C255 C256 1.336 . S
C256 C252 1.394 . S
C256 C255 1.336 . S
C256 H271 0.929 . S
C257 C247 1.386 . S
C257 C250 1.357 . S
C257 H270 0.928 . S
H258 C234 0.931 . S
H259 C236 0.930 . S
H260 C238 0.929 . S
H261 C239 0.931 . S
H262 C241 0.930 . S
H263 C245 0.931 . S
H264 C243 0.931 . S
H265 C247 0.931 . S
H266 C248 0.929 . S
H267 C249 0.930 . S
H268 C252 0.930 . S
H269 C253 0.931 . S
H270 C257 0.928 . S
H271 C256 0.929 . S
H272 C254 0.932 . S
C273 C274 1.386 . S
C273 C275 1.397 . S
C273 H297 0.931 . S
C274 C273 1.386 . S
C274 C278 1.397 . S
C275 C273 1.397 . S
C275 C276 1.384 . S
C275 H298 0.930 . S
C276 C275 1.384 . S
C276 C277 1.377 . S
C276 C279 1.481 . S
C277 C276 1.377 . S
C277 C278 1.389 . S
C277 H299 0.929 . S
C278 C274 1.397 . S
C278 C277 1.389 . S
C278 H300 0.931 . S
C279 C276 1.481 . S
C279 C280 1.387 . S
C279 C284 1.390 . S
C280 C279 1.387 . S
C280 C281 1.401 . S
C280 H301 0.930 . S
C281 C280 1.401 . S
C281 C282 1.376 . S
C281 C290 1.511 . S
C282 C281 1.376 . S
C282 C283 1.392 . S
C282 H303 0.931 . S
C283 C282 1.392 . S
C283 C284 1.361 . S
C283 C285 1.500 . S
C284 C279 1.390 . S
C284 C283 1.361 . S
C284 H302 0.931 . S
C285 C283 1.500 . S
C285 C286 1.371 . S
C285 C287 1.365 . S
C286 C285 1.371 . S
C286 C296 1.386 . S
C286 H304 0.931 . S
C287 C285 1.365 . S
C287 C288 1.409 . S
C287 H305 0.929 . S
C288 C287 1.409 . S
C288 C289 1.380 . S
C288 H306 0.930 . S
C289 C288 1.380 . S
C289 C296 1.357 . S
C290 C281 1.511 . S
C290 C291 1.341 . S
C290 C292 1.371 . S
C291 C290 1.341 . S
C291 C295 1.394 . S
C291 H307 0.930 . S
C292 C290 1.371 . S
C292 C293 1.392 . S
C292 H308 0.931 . S
C293 C292 1.392 . S
C293 C294 1.331 . S
C293 H311 0.932 . S
C294 C293 1.331 . S
C294 C295 1.336 . S
C295 C291 1.394 . S
C295 C294 1.336 . S
C295 H310 0.929 . S
C296 C286 1.386 . S
C296 C289 1.357 . S
C296 H309 0.928 . S
H297 C273 0.931 . S
H298 C275 0.930 . S
H299 C277 0.929 . S
H300 C278 0.931 . S
H301 C280 0.930 . S
H302 C284 0.931 . S
H303 C282 0.931 . S
H304 C286 0.931 . S
H305 C287 0.929 . S
H306 C288 0.930 . S
H307 C291 0.930 . S
H308 C292 0.931 . S
H309 C296 0.928 . S
H310 C295 0.929 . S
H311 C293 0.932 . S
Dy312 O316 2.398 . S
Dy312 O317 2.491 . S
Dy312 O318 2.403 1_545 S
Dy312 O319 2.664 1_545 S
Dy312 O323 2.326 . S
Dy312 O327 2.310 1_455 S
Dy312 O328 2.351 1_445 S
C313 O324 1.185 . S
C313 O325 1.355 . S
C314 O316 1.185 . S
C314 O317 1.355 . S
Dy315 O319 2.310 1_655 S
Dy315 O322 2.351 1_665 S
Dy315 O324 2.398 . S
Dy315 O325 2.491 . S
Dy315 O326 2.403 1_565 S
Dy315 O327 2.664 1_565 S
Dy315 O329 2.326 . S
O316 Dy312 2.398 . S
O316 C314 1.185 . S
O317 Dy312 2.491 . S
O317 C314 1.355 . S
O318 Dy312 2.403 1_565 S
O318 C320 1.254 . S
O319 Dy312 2.664 1_565 S
O319 Dy315 2.310 1_455 S
O319 C320 1.268 . S
C320 O318 1.254 . S
C320 O319 1.268 . S
C321 O326 1.254 . S
C321 O327 1.268 . S
O322 Dy315 2.351 1_445 S
O322 C330 1.249 . S
O323 Dy312 2.326 . S
O323 C330 1.267 . S
O324 C313 1.185 . S
O324 Dy315 2.398 . S
O325 C313 1.355 . S
O325 Dy315 2.491 . S
O326 Dy315 2.403 1_545 S
O326 C321 1.254 . S
O327 Dy312 2.310 1_655 S
O327 Dy315 2.664 1_545 S
O327 C321 1.268 . S
O328 Dy312 2.351 1_665 S
O328 C331 1.249 . S
O329 Dy315 2.326 . S
O329 C331 1.267 . S
C330 O322 1.249 . S
C330 O323 1.267 . S
C331 O328 1.249 . S
C331 O329 1.267 . S
Dy332 O336 2.398 . S
Dy332 O337 2.491 . S
Dy332 O338 2.403 1_545 S
Dy332 O339 2.664 1_545 S
Dy332 O343 2.326 . S
Dy332 O347 2.310 1_554 S
Dy332 O348 2.351 1_544 S
C333 O344 1.185 . S
C333 O345 1.355 . S
C334 O336 1.185 . S
C334 O337 1.355 . S
Dy335 O339 2.288 1_546 S
Dy335 O342 2.370 1_556 S
Dy335 O344 2.394 1_545 S
Dy335 O345 2.461 1_545 S
Dy335 O346 2.431 . S
Dy335 O347 2.681 . S
Dy335 O349 2.313 1_545 S
O336 Dy332 2.398 . S
O336 C334 1.185 . S
O337 Dy332 2.491 . S
O337 C334 1.355 . S
O338 Dy332 2.403 1_565 S
O338 C340 1.254 . S
O339 Dy332 2.664 1_565 S
O339 Dy335 2.288 1_564 S
O339 C340 1.268 . S
C340 O338 1.254 . S
C340 O339 1.268 . S
C341 O346 1.254 . S
C341 O347 1.268 . S
O342 Dy335 2.370 1_554 S
O342 C350 1.249 . S
O343 Dy332 2.326 . S
O343 C350 1.267 . S
O344 C333 1.185 . S
O344 Dy335 2.394 1_565 S
O345 C333 1.355 . S
O345 Dy335 2.461 1_565 S
O346 Dy335 2.431 . S
O346 C341 1.254 . S
O347 Dy332 2.310 1_556 S
O347 Dy335 2.681 . S
O347 C341 1.268 . S
O348 Dy332 2.351 1_566 S
O348 C351 1.249 . S
O349 Dy335 2.313 1_565 S
O349 C351 1.267 . S
C350 O342 1.249 . S
C350 O343 1.267 . S
C351 O348 1.249 . S
C351 O349 1.267 . S
Dy352 O356 2.398 . S
Dy352 O357 2.491 . S
Dy352 O358 2.403 . S
Dy352 O359 2.664 . S
Dy352 O363 2.326 . S
Dy352 O367 2.310 . S
Dy352 O368 2.351 . S
C353 O364 1.185 . S
C353 O365 1.355 . S
C354 O356 1.185 . S
C354 O357 1.355 . S
Dy355 O359 2.310 . S
Dy355 O362 2.351 . S
Dy355 O364 2.398 . S
Dy355 O365 2.491 . S
Dy355 O366 2.403 . S
Dy355 O367 2.664 . S
Dy355 O369 2.326 . S
O356 Dy352 2.398 . S
O356 C354 1.185 . S
O357 Dy352 2.491 . S
O357 C354 1.355 . S
O358 Dy352 2.403 . S
O358 C360 1.254 . S
O359 Dy352 2.664 . S
O359 Dy355 2.310 . S
O359 C360 1.268 . S
C360 O358 1.254 . S
C360 O359 1.268 . S
C361 O366 1.254 . S
C361 O367 1.268 . S
O362 Dy355 2.351 . S
O362 C370 1.249 . S
O363 Dy352 2.326 . S
O363 C370 1.267 . S
O364 C353 1.185 . S
O364 Dy355 2.398 . S
O365 C353 1.355 . S
O365 Dy355 2.491 . S
O366 Dy355 2.403 . S
O366 C361 1.254 . S
O367 Dy352 2.310 . S
O367 Dy355 2.664 . S
O367 C361 1.268 . S
O368 Dy352 2.351 . S
O368 C371 1.249 . S
O369 Dy355 2.326 . S
O369 C371 1.267 . S
C370 O362 1.249 . S
C370 O363 1.267 . S
C371 O368 1.249 . S
C371 O369 1.267 . S
Dy372 O376 2.398 . S
Dy372 O377 2.491 . S
Dy372 O378 2.403 1_455 S
Dy372 O379 2.664 1_455 S
Dy372 O383 2.326 . S
Dy372 O387 2.310 1_554 S
Dy372 O388 2.351 1_454 S
C373 O384 1.185 . S
C373 O385 1.355 . S
C374 O376 1.185 . S
C374 O377 1.355 . S
Dy375 O379 2.310 1_556 S
Dy375 O382 2.351 1_656 S
Dy375 O384 2.398 . S
Dy375 O385 2.491 . S
Dy375 O386 2.403 1_655 S
Dy375 O387 2.664 1_655 S
Dy375 O389 2.326 . S
O376 Dy372 2.398 . S
O376 C374 1.185 . S
O377 Dy372 2.491 . S
O377 C374 1.355 . S
O378 Dy372 2.403 1_655 S
O378 C380 1.254 . S
O379 Dy372 2.664 1_655 S
O379 Dy375 2.310 1_554 S
O379 C380 1.268 . S
C380 O378 1.254 . S
C380 O379 1.268 . S
C381 O386 1.254 . S
C381 O387 1.268 . S
O382 Dy375 2.351 1_454 S
O382 C390 1.249 . S
O383 Dy372 2.326 . S
O383 C390 1.267 . S
O384 C373 1.185 . S
O384 Dy375 2.398 . S
O385 C373 1.355 . S
O385 Dy375 2.491 . S
O386 Dy375 2.403 1_455 S
O386 C381 1.254 . S
O387 Dy372 2.310 1_556 S
O387 Dy375 2.664 1_455 S
O387 C381 1.268 . S
O388 Dy372 2.351 1_656 S
O388 C391 1.249 . S
O389 Dy375 2.326 . S
O389 C391 1.267 . S
C390 O382 1.249 . S
C390 O383 1.267 . S
C391 O388 1.249 . S
C391 O389 1.267 . S
H392 C410 0.951 . S
H393 C412 0.951 . S
H394 C414 0.950 . S
H395 C415 0.950 . S
H396 C417 0.950 . S
H397 C420 0.950 . S
H398 C421 0.950 . S
H399 C423 0.950 . S
H400 C424 0.950 . S
H401 C425 0.951 . S
H402 C427 0.951 . S
H403 C429 0.950 . S
H404 C430 0.950 . S
H405 C432 0.950 . S
H406 C435 0.950 . S
H407 C436 0.950 . S
H408 C438 0.950 . S
H409 C439 0.950 . S
C410 H392 0.951 . S
C410 C411 1.366 . S
C410 C412 1.388 . S
C411 C410 1.366 . S
C411 C415 1.385 . S
C412 H393 0.951 . S
C412 C410 1.388 . S
C412 C413 1.366 . S
C413 C412 1.366 . S
C413 C414 1.414 . S
C413 C416 1.499 . S
C414 H394 0.950 . S
C414 C413 1.414 . S
C414 C415 1.374 . S
C415 H395 0.950 . S
C415 C411 1.385 . S
C415 C414 1.374 . S
C416 C413 1.499 . S
C416 C417 1.373 . S
C416 C418 1.389 . S
C417 H396 0.950 . S
C417 C416 1.373 . S
C417 C433 1.377 . S
C418 C416 1.389 . S
C418 C419 1.524 . S
C418 C432 1.377 . S
C419 C418 1.524 . S
C419 C420 1.397 . S
C419 C424 1.363 . S
C420 H397 0.950 . S
C420 C419 1.397 . S
C420 C421 1.334 . S
C421 H398 0.950 . S
C421 C420 1.334 . S
C421 C422 1.287 . S
C422 C421 1.287 . S
C422 C423 1.524 . S
C422 H441 0.913 . S
C423 H399 0.950 . S
C423 C422 1.524 . S
C423 C424 1.415 . S
C424 H400 0.950 . S
C424 C419 1.363 . S
C424 C423 1.415 . S
C425 H401 0.951 . S
C425 C426 1.366 . S
C425 C427 1.388 . S
C426 C425 1.366 . S
C426 C430 1.385 . S
C427 H402 0.951 . S
C427 C425 1.388 . S
C427 C428 1.366 . S
C428 C427 1.366 . S
C428 C429 1.414 . S
C428 C431 1.499 . S
C429 H403 0.950 . S
C429 C428 1.414 . S
C429 C430 1.374 . S
C430 H404 0.950 . S
C430 C426 1.385 . S
C430 C429 1.374 . S
C431 C428 1.499 . S
C431 C432 1.373 . S
C431 C433 1.389 . S
C432 H405 0.950 . S
C432 C418 1.377 . S
C432 C431 1.373 . S
C433 C417 1.377 . S
C433 C431 1.389 . S
C433 C434 1.524 . S
C434 C433 1.524 . S
C434 C435 1.397 . S
C434 C439 1.363 . S
C435 H406 0.950 . S
C435 C434 1.397 . S
C435 C436 1.334 . S
C436 H407 0.950 . S
C436 C435 1.334 . S
C436 C437 1.287 . S
C437 C436 1.287 . S
C437 C438 1.524 . S
C437 H440 0.999 . S
C438 H408 0.950 . S
C438 C437 1.524 . S
C438 C439 1.415 . S
C439 H409 0.950 . S
C439 C434 1.363 . S
C439 C438 1.415 . S
H440 C437 0.999 . S
H441 C422 0.913 . S
H442 C460 0.951 . S
H443 C462 0.951 . S
H444 C464 0.950 . S
H445 C465 0.950 . S
H446 C467 0.950 . S
H447 C470 0.950 . S
H448 C471 0.950 . S
H449 C473 0.950 . S
H450 C474 0.950 . S
H451 C475 0.951 . S
H452 C477 0.951 . S
H453 C479 0.950 . S
H454 C480 0.950 . S
H455 C482 0.950 . S
H456 C485 0.950 . S
H457 C486 0.950 1_545 S
H458 C488 0.950 . S
H459 C489 0.950 . S
C460 H442 0.951 . S
C460 C461 1.366 . S
C460 C462 1.388 . S
C461 C460 1.366 . S
C461 C465 1.385 . S
C462 H443 0.951 . S
C462 C460 1.388 . S
C462 C463 1.366 . S
C463 C462 1.366 . S
C463 C464 1.414 . S
C463 C466 1.499 . S
C464 H444 0.950 . S
C464 C463 1.414 . S
C464 C465 1.374 . S
C465 H445 0.950 . S
C465 C461 1.385 . S
C465 C464 1.374 . S
C466 C463 1.499 . S
C466 C467 1.373 . S
C466 C468 1.389 . S
C467 H446 0.950 . S
C467 C466 1.373 . S
C467 C483 1.377 . S
C468 C466 1.389 . S
C468 C469 1.524 . S
C468 C482 1.377 . S
C469 C468 1.524 . S
C469 C470 1.397 . S
C469 C474 1.363 . S
C470 H447 0.950 . S
C470 C469 1.397 . S
C470 C471 1.334 . S
C471 H448 0.950 . S
C471 C470 1.334 . S
C471 C472 1.287 . S
C472 C471 1.287 . S
C472 C473 1.524 . S
C472 H491 0.913 . S
C473 H449 0.950 . S
C473 C472 1.524 . S
C473 C474 1.415 . S
C474 H450 0.950 . S
C474 C469 1.363 . S
C474 C473 1.415 . S
C475 H451 0.951 . S
C475 C476 1.366 . S
C475 C477 1.388 . S
C476 C475 1.366 . S
C476 C480 1.385 . S
C477 H452 0.951 . S
C477 C475 1.388 . S
C477 C478 1.366 . S
C478 C477 1.366 . S
C478 C479 1.414 . S
C478 C481 1.499 . S
C479 H453 0.950 . S
C479 C478 1.414 . S
C479 C480 1.374 . S
C480 H454 0.950 . S
C480 C476 1.385 . S
C480 C479 1.374 . S
C481 C478 1.499 . S
C481 C482 1.373 . S
C481 C483 1.389 . S
C482 H455 0.950 . S
C482 C468 1.377 . S
C482 C481 1.373 . S
C483 C467 1.377 . S
C483 C481 1.389 . S
C483 C484 1.524 . S
C484 C483 1.524 . S
C484 C485 1.397 . S
C484 C489 1.363 . S
C485 H456 0.950 . S
C485 C484 1.397 . S
C485 C486 1.334 . S
C486 H457 0.950 1_565 S
C486 C485 1.334 . S
C486 C487 1.287 . S
C487 C486 1.287 . S
C487 C488 1.524 . S
C487 H490 0.999 . S
C488 H458 0.950 . S
C488 C487 1.524 . S
C488 C489 1.415 . S
C489 H459 0.950 . S
C489 C484 1.363 . S
C489 C488 1.415 . S
H490 C487 0.999 . S
H491 C472 0.913 . S
H492 C510 0.951 . S
H493 C512 0.951 . S
H494 C514 0.950 . S
H495 C515 0.950 . S
H496 C517 0.950 . S
H497 C520 0.950 . S
H498 C521 0.950 . S
H499 C523 0.950 . S
H500 C524 0.950 . S
H501 C525 0.951 . S
H502 C527 0.951 . S
H503 C529 0.950 . S
H504 C530 0.950 . S
H505 C532 0.950 . S
H506 C535 0.950 . S
H507 C536 0.950 . S
H508 C538 0.950 . S
H509 C539 0.950 . S
C510 H492 0.951 . S
C510 C511 1.366 . S
C510 C512 1.388 . S
C511 C510 1.366 . S
C511 C515 1.385 . S
C512 H493 0.951 . S
C512 C510 1.388 . S
C512 C513 1.366 . S
C513 C512 1.366 . S
C513 C514 1.414 . S
C513 C516 1.499 . S
C514 H494 0.950 . S
C514 C513 1.414 . S
C514 C515 1.374 . S
C515 H495 0.950 . S
C515 C511 1.385 . S
C515 C514 1.374 . S
C516 C513 1.499 . S
C516 C517 1.373 . S
C516 C518 1.389 . S
C517 H496 0.950 . S
C517 C516 1.373 . S
C517 C533 1.377 . S
C518 C516 1.389 . S
C518 C519 1.524 . S
C518 C532 1.377 . S
C519 C518 1.524 . S
C519 C520 1.397 . S
C519 C524 1.363 . S
C520 H497 0.950 . S
C520 C519 1.397 . S
C520 C521 1.334 . S
C521 H498 0.950 . S
C521 C520 1.334 . S
C521 C522 1.287 . S
C522 C521 1.287 . S
C522 C523 1.524 . S
C522 H541 0.913 . S
C523 H499 0.950 . S
C523 C522 1.524 . S
C523 C524 1.415 . S
C524 H500 0.950 . S
C524 C519 1.363 . S
C524 C523 1.415 . S
C525 H501 0.951 . S
C525 C526 1.366 . S
C525 C527 1.388 . S
C526 C525 1.366 . S
C526 C530 1.385 . S
C527 H502 0.951 . S
C527 C525 1.388 . S
C527 C528 1.366 . S
C528 C527 1.366 . S
C528 C529 1.414 . S
C528 C531 1.499 . S
C529 H503 0.950 . S
C529 C528 1.414 . S
C529 C530 1.374 . S
C530 H504 0.950 . S
C530 C526 1.385 . S
C530 C529 1.374 . S
C531 C528 1.499 . S
C531 C532 1.373 . S
C531 C533 1.389 . S
C532 H505 0.950 . S
C532 C518 1.377 . S
C532 C531 1.373 . S
C533 C517 1.377 . S
C533 C531 1.389 . S
C533 C534 1.524 . S
C534 C533 1.524 . S
C534 C535 1.397 . S
C534 C539 1.363 . S
C535 H506 0.950 . S
C535 C534 1.397 . S
C535 C536 1.334 . S
C536 H507 0.950 . S
C536 C535 1.334 . S
C536 C537 1.287 . S
C537 C536 1.287 . S
C537 C538 1.524 . S
C537 H540 0.999 . S
C538 H508 0.950 . S
C538 C537 1.524 . S
C538 C539 1.415 . S
C539 H509 0.950 . S
C539 C534 1.363 . S
C539 C538 1.415 . S
H540 C537 0.999 . S
H541 C522 0.913 . S
H542 C560 0.951 . S
H543 C562 0.951 . S
H544 C564 0.950 . S
H545 C565 0.950 . S
H546 C567 0.950 . S
H547 C570 0.950 . S
H548 C571 0.950 . S
H549 C573 0.950 . S
H550 C574 0.950 . S
H551 C575 0.951 . S
H552 C577 0.951 . S
H553 C579 0.950 . S
H554 C580 0.950 1_455 S
H555 C582 0.950 . S
H556 C585 0.950 . S
H557 C586 0.950 . S
H558 C588 0.950 . S
H559 C589 0.950 . S
C560 H542 0.951 . S
C560 C561 1.366 . S
C560 C562 1.388 . S
C561 C560 1.366 . S
C561 C565 1.385 . S
C562 H543 0.951 . S
C562 C560 1.388 . S
C562 C563 1.366 . S
C563 C562 1.366 . S
C563 C564 1.414 . S
C563 C566 1.499 . S
C564 H544 0.950 . S
C564 C563 1.414 . S
C564 C565 1.374 . S
C565 H545 0.950 . S
C565 C561 1.385 . S
C565 C564 1.374 . S
C566 C563 1.499 . S
C566 C567 1.373 . S
C566 C568 1.389 . S
C567 H546 0.950 . S
C567 C566 1.373 . S
C567 C583 1.377 . S
C568 C566 1.389 . S
C568 C569 1.524 . S
C568 C582 1.377 . S
C569 C568 1.524 . S
C569 C570 1.397 . S
C569 C574 1.363 . S
C570 H547 0.950 . S
C570 C569 1.397 . S
C570 C571 1.334 . S
C571 H548 0.950 . S
C571 C570 1.334 . S
C571 C572 1.287 . S
C572 C571 1.287 . S
C572 C573 1.524 1_655 S
C572 H591 0.913 . S
C573 H549 0.950 . S
C573 C572 1.524 1_455 S
C573 C574 1.415 1_455 S
C574 H550 0.950 . S
C574 C569 1.363 . S
C574 C573 1.415 1_655 S
C575 H551 0.951 . S
C575 C576 1.366 . S
C575 C577 1.388 . S
C576 C575 1.366 . S
C576 C580 1.385 . S
C577 H552 0.951 . S
C577 C575 1.388 . S
C577 C578 1.366 . S
C578 C577 1.366 . S
C578 C579 1.414 . S
C578 C581 1.499 . S
C579 H553 0.950 . S
C579 C578 1.414 . S
C579 C580 1.374 . S
C580 H554 0.950 1_655 S
C580 C576 1.385 . S
C580 C579 1.374 . S
C581 C578 1.499 . S
C581 C582 1.373 . S
C581 C583 1.389 . S
C582 H555 0.950 . S
C582 C568 1.377 . S
C582 C581 1.373 . S
C583 C567 1.377 . S
C583 C581 1.389 . S
C583 C584 1.524 . S
C584 C583 1.524 . S
C584 C585 1.397 . S
C584 C589 1.363 . S
C585 H556 0.950 . S
C585 C584 1.397 . S
C585 C586 1.334 . S
C586 H557 0.950 . S
C586 C585 1.334 . S
C586 C587 1.287 . S
C587 C586 1.287 . S
C587 C588 1.524 . S
C587 H590 0.999 . S
C588 H558 0.950 . S
C588 C587 1.524 . S
C588 C589 1.415 . S
C589 H559 0.950 . S
C589 C584 1.363 . S
C589 C588 1.415 . S
H590 C587 0.999 . S
H591 C572 0.913 . S
H592 C610 0.951 . S
H593 C612 0.951 . S
H594 C614 0.950 . S
H595 C615 0.950 . S
H596 C617 0.950 . S
H597 C620 0.950 . S
H598 C621 0.950 . S
H599 C623 0.950 . S
H600 C624 0.950 . S
H601 C625 0.951 . S
H602 C627 0.951 . S
H603 C629 0.950 . S
H604 C630 0.950 . S
H605 C632 0.950 . S
H606 C635 0.950 . S
H607 C636 0.950 . S
H608 C638 0.950 . S
H609 C639 0.950 . S
C610 H592 0.951 . S
C610 C611 1.366 . S
C610 C612 1.388 . S
C611 C610 1.366 . S
C611 C615 1.385 . S
C612 H593 0.951 . S
C612 C610 1.388 . S
C612 C613 1.366 . S
C613 C612 1.366 . S
C613 C614 1.414 . S
C613 C616 1.499 . S
C614 H594 0.950 . S
C614 C613 1.414 . S
C614 C615 1.374 . S
C615 H595 0.950 . S
C615 C611 1.385 . S
C615 C614 1.374 . S
C616 C613 1.499 . S
C616 C617 1.373 . S
C616 C618 1.389 . S
C617 H596 0.950 . S
C617 C616 1.373 . S
C617 C633 1.377 . S
C618 C616 1.389 . S
C618 C619 1.524 . S
C618 C632 1.377 . S
C619 C618 1.524 . S
C619 C620 1.397 . S
C619 C624 1.363 . S
C620 H597 0.950 . S
C620 C619 1.397 . S
C620 C621 1.334 . S
C621 H598 0.950 . S
C621 C620 1.334 . S
C621 C622 1.287 . S
C622 C621 1.287 . S
C622 C623 1.524 . S
C622 H641 0.913 . S
C623 H599 0.950 . S
C623 C622 1.524 . S
C623 C624 1.415 . S
C624 H600 0.950 . S
C624 C619 1.363 . S
C624 C623 1.415 . S
C625 H601 0.951 . S
C625 C626 1.366 . S
C625 C627 1.388 . S
C626 C625 1.366 . S
C626 C630 1.385 . S
C627 H602 0.951 . S
C627 C625 1.388 . S
C627 C628 1.366 . S
C628 C627 1.366 . S
C628 C629 1.414 . S
C628 C631 1.499 . S
C629 H603 0.950 . S
C629 C628 1.414 . S
C629 C630 1.374 . S
C630 H604 0.950 . S
C630 C626 1.385 . S
C630 C629 1.374 . S
C631 C628 1.499 . S
C631 C632 1.373 . S
C631 C633 1.389 . S
C632 H605 0.950 . S
C632 C618 1.377 . S
C632 C631 1.373 . S
C633 C617 1.377 . S
C633 C631 1.389 . S
C633 C634 1.524 . S
C634 C633 1.524 . S
C634 C635 1.397 . S
C634 C639 1.363 . S
C635 H606 0.950 . S
C635 C634 1.397 . S
C635 C636 1.334 . S
C636 H607 0.950 . S
C636 C635 1.334 . S
C636 C637 1.302 . S
C637 C636 1.302 . S
C637 C638 1.537 . S
C637 H640 0.967 1_554 S
C638 H608 0.950 . S
C638 C637 1.537 . S
C638 C639 1.415 . S
C639 H609 0.950 . S
C639 C634 1.363 . S
C639 C638 1.415 . S
H640 C637 0.967 1_556 S
H641 C622 0.913 . S
H642 C660 0.951 . S
H643 C662 0.951 . S
H644 C664 0.950 . S
H645 C665 0.950 . S
H646 C667 0.950 . S
H647 C670 0.950 . S
H648 C671 0.950 . S
H649 C673 0.950 . S
H650 C674 0.950 . S
H651 C675 0.951 . S
H652 C677 0.951 . S
H653 C679 0.950 . S
H654 C680 0.950 . S
H655 C682 0.950 . S
H656 C685 0.950 . S
H657 C686 0.950 . S
H658 C688 0.950 . S
H659 C689 0.950 . S
C660 H642 0.951 . S
C660 C661 1.366 . S
C660 C662 1.388 . S
C661 C660 1.366 . S
C661 C665 1.385 . S
C662 H643 0.951 . S
C662 C660 1.388 . S
C662 C663 1.366 . S
C663 C662 1.366 . S
C663 C664 1.414 . S
C663 C666 1.499 . S
C664 H644 0.950 . S
C664 C663 1.414 . S
C664 C665 1.374 . S
C665 H645 0.950 . S
C665 C661 1.385 . S
C665 C664 1.374 . S
C666 C663 1.499 . S
C666 C667 1.373 . S
C666 C668 1.389 . S
C667 H646 0.950 . S
C667 C666 1.373 . S
C667 C683 1.377 . S
C668 C666 1.389 . S
C668 C669 1.524 . S
C668 C682 1.377 . S
C669 C668 1.524 . S
C669 C670 1.397 . S
C669 C674 1.363 . S
C670 H647 0.950 . S
C670 C669 1.397 . S
C670 C671 1.334 . S
C671 H648 0.950 . S
C671 C670 1.334 . S
C671 C672 1.278 1_565 S
C672 C671 1.278 1_545 S
C672 C673 1.527 . S
C672 H691 0.919 . S
C673 H649 0.950 . S
C673 C672 1.527 . S
C673 C674 1.415 1_545 S
C674 H650 0.950 . S
C674 C669 1.363 . S
C674 C673 1.415 1_565 S
C675 H651 0.951 . S
C675 C676 1.366 . S
C675 C677 1.388 . S
C676 C675 1.366 . S
C676 C680 1.385 . S
C677 H652 0.951 . S
C677 C675 1.388 . S
C677 C678 1.366 . S
C678 C677 1.366 . S
C678 C679 1.414 . S
C678 C681 1.499 . S
C679 H653 0.950 . S
C679 C678 1.414 . S
C679 C680 1.374 . S
C680 H654 0.950 . S
C680 C676 1.385 . S
C680 C679 1.374 . S
C681 C678 1.499 . S
C681 C682 1.373 . S
C681 C683 1.389 . S
C682 H655 0.950 . S
C682 C668 1.377 . S
C682 C681 1.373 . S
C683 C667 1.377 . S
C683 C681 1.389 . S
C683 C684 1.524 . S
C684 C683 1.524 . S
C684 C685 1.397 . S
C684 C689 1.363 . S
C685 H656 0.950 . S
C685 C684 1.397 . S
C685 C686 1.334 . S
C686 H657 0.950 . S
C686 C685 1.334 . S
C686 C687 1.287 . S
C687 C686 1.287 . S
C687 C688 1.524 . S
C687 H690 0.999 . S
C688 H658 0.950 . S
C688 C687 1.524 . S
C688 C689 1.415 . S
C689 H659 0.950 . S
C689 C684 1.363 . S
C689 C688 1.415 . S
H690 C687 0.999 . S
H691 C672 0.919 . S
H692 C710 0.951 . S
H693 C712 0.951 . S
H694 C714 0.950 . S
H695 C715 0.950 . S
H696 C717 0.950 . S
H697 C720 0.950 . S
H698 C721 0.950 . S
H699 C723 0.950 . S
H700 C724 0.950 . S
H701 C725 0.951 . S
H702 C727 0.951 . S
H703 C729 0.950 . S
H704 C730 0.950 . S
H705 C732 0.950 . S
H706 C735 0.950 . S
H707 C736 0.950 . S
H708 C738 0.950 . S
H709 C739 0.950 . S
C710 H692 0.951 . S
C710 C711 1.366 . S
C710 C712 1.388 . S
C711 C710 1.366 . S
C711 C715 1.385 . S
C712 H693 0.951 . S
C712 C710 1.388 . S
C712 C713 1.366 . S
C713 C712 1.366 . S
C713 C714 1.414 . S
C713 C716 1.499 . S
C714 H694 0.950 . S
C714 C713 1.414 . S
C714 C715 1.374 . S
C715 H695 0.950 . S
C715 C711 1.385 . S
C715 C714 1.374 . S
C716 C713 1.499 . S
C716 C717 1.373 . S
C716 C718 1.389 . S
C717 H696 0.950 . S
C717 C716 1.373 . S
C717 C733 1.377 . S
C718 C716 1.389 . S
C718 C719 1.524 . S
C718 C732 1.377 . S
C719 C718 1.524 . S
C719 C720 1.397 . S
C719 C724 1.363 . S
C720 H697 0.950 . S
C720 C719 1.397 . S
C720 C721 1.334 . S
C721 H698 0.950 . S
C721 C720 1.334 . S
C721 C722 1.287 . S
C722 C721 1.287 . S
C722 C723 1.524 . S
C722 H741 0.913 . S
C723 H699 0.950 . S
C723 C722 1.524 . S
C723 C724 1.415 . S
C724 H700 0.950 . S
C724 C719 1.363 . S
C724 C723 1.415 . S
C725 H701 0.951 . S
C725 C726 1.366 . S
C725 C727 1.388 . S
C726 C725 1.366 . S
C726 C730 1.385 . S
C727 H702 0.951 . S
C727 C725 1.388 . S
C727 C728 1.366 . S
C728 C727 1.366 . S
C728 C729 1.414 . S
C728 C731 1.499 . S
C729 H703 0.950 . S
C729 C728 1.414 . S
C729 C730 1.374 . S
C730 H704 0.950 . S
C730 C726 1.385 . S
C730 C729 1.374 . S
C731 C728 1.499 . S
C731 C732 1.373 . S
C731 C733 1.389 . S
C732 H705 0.950 . S
C732 C718 1.377 . S
C732 C731 1.373 . S
C733 C717 1.377 . S
C733 C731 1.389 . S
C733 C734 1.524 . S
C734 C733 1.524 . S
C734 C735 1.397 . S
C734 C739 1.363 . S
C735 H706 0.950 . S
C735 C734 1.397 . S
C735 C736 1.334 1_556 S
C736 H707 0.950 . S
C736 C735 1.334 1_554 S
C736 C737 1.299 . S
C737 C736 1.299 . S
C737 C738 1.481 1_554 S
C737 H740 1.032 . S
C738 H708 0.950 . S
C738 C737 1.481 1_556 S
C738 C739 1.415 . S
C739 H709 0.950 . S
C739 C734 1.363 . S
C739 C738 1.415 . S
H740 C737 1.032 . S
H741 C722 0.913 . S
H742 C760 0.951 . S
H743 C762 0.951 . S
H744 C764 0.950 . S
H745 C765 0.950 . S
H746 C767 0.950 . S
H747 C770 0.950 . S
H748 C771 0.950 . S
H749 C773 0.950 . S
H750 C774 0.950 . S
H751 C775 0.951 . S
H752 C777 0.951 . S
H753 C779 0.950 . S
H754 C780 0.950 . S
H755 C782 0.950 . S
H756 C785 0.950 . S
H757 C786 0.950 . S
H758 C788 0.950 . S
H759 C789 0.950 . S
C760 H742 0.951 . S
C760 C761 1.366 . S
C760 C762 1.388 . S
C761 C760 1.366 . S
C761 C765 1.385 . S
C762 H743 0.951 . S
C762 C760 1.388 . S
C762 C763 1.366 . S
C763 C762 1.366 . S
C763 C764 1.414 . S
C763 C766 1.499 . S
C764 H744 0.950 . S
C764 C763 1.414 . S
C764 C765 1.374 . S
C765 H745 0.950 . S
C765 C761 1.385 . S
C765 C764 1.374 . S
C766 C763 1.499 . S
C766 C767 1.373 . S
C766 C768 1.389 . S
C767 H746 0.950 . S
C767 C766 1.373 . S
C767 C783 1.377 . S
C768 C766 1.389 . S
C768 C769 1.524 . S
C768 C782 1.377 . S
C769 C768 1.524 . S
C769 C770 1.397 . S
C769 C774 1.363 . S
C770 H747 0.950 . S
C770 C769 1.397 . S
C770 C771 1.334 . S
C771 H748 0.950 . S
C771 C770 1.334 . S
C771 C772 1.287 . S
C772 C771 1.287 . S
C772 C773 1.524 . S
C772 H791 0.913 . S
C773 H749 0.950 . S
C773 C772 1.524 . S
C773 C774 1.415 . S
C774 H750 0.950 . S
C774 C769 1.363 . S
C774 C773 1.415 . S
C775 H751 0.951 . S
C775 C776 1.366 . S
C775 C777 1.388 . S
C776 C775 1.366 . S
C776 C780 1.385 . S
C777 H752 0.951 . S
C777 C775 1.388 . S
C777 C778 1.366 . S
C778 C777 1.366 . S
C778 C779 1.414 . S
C778 C781 1.499 . S
C779 H753 0.950 . S
C779 C778 1.414 . S
C779 C780 1.374 . S
C780 H754 0.950 . S
C780 C776 1.385 . S
C780 C779 1.374 . S
C781 C778 1.499 . S
C781 C782 1.373 . S
C781 C783 1.389 . S
C782 H755 0.950 . S
C782 C768 1.377 . S
C782 C781 1.373 . S
C783 C767 1.377 . S
C783 C781 1.389 . S
C783 C784 1.524 . S
C784 C783 1.524 . S
C784 C785 1.397 . S
C784 C789 1.363 . S
C785 H756 0.950 . S
C785 C784 1.397 . S
C785 C786 1.334 . S
C786 H757 0.950 . S
C786 C785 1.334 . S
C786 C787 1.287 . S
C787 C786 1.287 . S
C787 C788 1.524 . S
C787 H790 0.999 . S
C788 H758 0.950 . S
C788 C787 1.524 . S
C788 C789 1.415 . S
C789 H759 0.950 . S
C789 C784 1.363 . S
C789 C788 1.415 . S
H790 C787 0.999 . S
H791 C772 0.913 . S
H792 C810 0.951 . S
H793 C812 0.951 . S
H794 C814 0.950 . S
H795 C815 0.950 . S
H796 C817 0.950 . S
H797 C820 0.950 . S
H798 C821 0.950 . S
H799 C823 0.950 . S
H800 C824 0.950 . S
H801 C825 0.951 . S
H802 C827 0.951 . S
H803 C829 0.950 . S
H804 C830 0.950 . S
H805 C832 0.950 . S
H806 C835 0.950 . S
H807 C836 0.950 . S
H808 C838 0.950 . S
H809 C839 0.950 . S
C810 H792 0.951 . S
C810 C811 1.366 . S
C810 C812 1.388 . S
C811 C810 1.366 . S
C811 C815 1.385 . S
C812 H793 0.951 . S
C812 C810 1.388 . S
C812 C813 1.366 . S
C813 C812 1.366 . S
C813 C814 1.414 . S
C813 C816 1.499 . S
C814 H794 0.950 . S
C814 C813 1.414 . S
C814 C815 1.374 . S
C815 H795 0.950 . S
C815 C811 1.385 . S
C815 C814 1.374 . S
C816 C813 1.499 . S
C816 C817 1.373 . S
C816 C818 1.389 . S
C817 H796 0.950 . S
C817 C816 1.373 . S
C817 C833 1.377 . S
C818 C816 1.389 . S
C818 C819 1.524 . S
C818 C832 1.377 . S
C819 C818 1.524 . S
C819 C820 1.397 . S
C819 C824 1.363 . S
C820 H797 0.950 . S
C820 C819 1.397 . S
C820 C821 1.334 . S
C821 H798 0.950 . S
C821 C820 1.334 . S
C821 C822 1.287 . S
C822 C821 1.287 . S
C822 C823 1.524 . S
C822 H841 0.913 . S
C823 H799 0.950 . S
C823 C822 1.524 . S
C823 C824 1.415 . S
C824 H800 0.950 . S
C824 C819 1.363 . S
C824 C823 1.415 . S
C825 H801 0.951 . S
C825 C826 1.366 . S
C825 C827 1.388 . S
C826 C825 1.366 . S
C826 C830 1.385 . S
C827 H802 0.951 . S
C827 C825 1.388 . S
C827 C828 1.366 . S
C828 C827 1.366 . S
C828 C829 1.414 . S
C828 C831 1.499 . S
C829 H803 0.950 . S
C829 C828 1.414 . S
C829 C830 1.374 . S
C830 H804 0.950 . S
C830 C826 1.385 . S
C830 C829 1.374 . S
C831 C828 1.499 . S
C831 C832 1.373 . S
C831 C833 1.389 . S
C832 H805 0.950 . S
C832 C818 1.377 . S
C832 C831 1.373 . S
C833 C817 1.377 . S
C833 C831 1.389 . S
C833 C834 1.524 . S
C834 C833 1.524 . S
C834 C835 1.397 . S
C834 C839 1.363 . S
C835 H806 0.950 . S
C835 C834 1.397 . S
C835 C836 1.334 . S
C836 H807 0.950 . S
C836 C835 1.334 . S
C836 C837 1.287 . S
C837 C836 1.287 . S
C837 C838 1.524 . S
C837 H840 0.999 . S
C838 H808 0.950 . S
C838 C837 1.524 . S
C838 C839 1.415 . S
C839 H809 0.950 . S
C839 C834 1.363 . S
C839 C838 1.415 . S
H840 C837 0.999 . S
H841 C822 0.913 . S
H842 C860 0.951 . S
H843 C862 0.951 . S
H844 C864 0.950 . S
H845 C865 0.950 . S
H846 C867 0.950 . S
H847 C870 0.950 . S
H848 C871 0.950 . S
H849 C873 0.950 . S
H850 C874 0.950 . S
H851 C875 0.951 . S
H852 C877 0.951 . S
H853 C879 0.950 . S
H854 C880 0.950 . S
H855 C882 0.950 . S
H856 C885 0.950 . S
H857 C886 0.950 . S
H858 C888 0.950 . S
H859 C889 0.950 . S
C860 H842 0.951 . S
C860 C861 1.366 . S
C860 C862 1.388 . S
C861 C860 1.366 . S
C861 C865 1.385 . S
C862 H843 0.951 . S
C862 C860 1.388 . S
C862 C863 1.366 . S
C863 C862 1.366 . S
C863 C864 1.414 . S
C863 C866 1.499 . S
C864 H844 0.950 . S
C864 C863 1.414 . S
C864 C865 1.374 . S
C865 H845 0.950 . S
C865 C861 1.385 . S
C865 C864 1.374 . S
C866 C863 1.499 . S
C866 C867 1.373 . S
C866 C868 1.389 . S
C867 H846 0.950 . S
C867 C866 1.373 . S
C867 C883 1.377 . S
C868 C866 1.389 . S
C868 C869 1.524 . S
C868 C882 1.377 . S
C869 C868 1.524 . S
C869 C870 1.397 . S
C869 C874 1.363 . S
C870 H847 0.950 . S
C870 C869 1.397 . S
C870 C871 1.334 . S
C871 H848 0.950 . S
C871 C870 1.334 . S
C871 C872 1.287 . S
C872 C871 1.287 . S
C872 C873 1.524 1_556 S
C872 H891 0.913 1_556 S
C873 H849 0.950 . S
C873 C872 1.524 1_554 S
C873 C874 1.415 1_554 S
C874 H850 0.950 . S
C874 C869 1.363 . S
C874 C873 1.415 1_556 S
C875 H851 0.951 . S
C875 C876 1.366 . S
C875 C877 1.388 . S
C876 C875 1.366 . S
C876 C880 1.385 . S
C877 H852 0.951 . S
C877 C875 1.388 . S
C877 C878 1.366 . S
C878 C877 1.366 . S
C878 C879 1.414 . S
C878 C881 1.499 . S
C879 H853 0.950 . S
C879 C878 1.414 . S
C879 C880 1.374 . S
C880 H854 0.950 . S
C880 C876 1.385 . S
C880 C879 1.374 . S
C881 C878 1.499 . S
C881 C882 1.373 . S
C881 C883 1.389 . S
C882 H855 0.950 . S
C882 C868 1.377 . S
C882 C881 1.373 . S
C883 C867 1.377 . S
C883 C881 1.389 . S
C883 C884 1.524 . S
C884 C883 1.524 . S
C884 C885 1.397 . S
C884 C889 1.363 . S
C885 H856 0.950 . S
C885 C884 1.397 . S
C885 C886 1.334 . S
C886 H857 0.950 . S
C886 C885 1.334 . S
C886 C887 1.287 . S
C887 C886 1.287 . S
C887 C888 1.524 . S
C887 H890 0.999 . S
C888 H858 0.950 . S
C888 C887 1.524 . S
C888 C889 1.415 . S
C889 H859 0.950 . S
C889 C884 1.363 . S
C889 C888 1.415 . S
H890 C887 0.999 . S
H891 C872 0.913 1_554 S
H892 C910 0.951 . S
H893 C912 0.951 . S
H894 C914 0.950 . S
H895 C915 0.950 . S
H896 C917 0.950 . S
H897 C920 0.950 . S
H898 C921 0.950 . S
H899 C923 0.950 . S
H900 C924 0.950 . S
H901 C925 0.951 . S
H902 C927 0.951 . S
H903 C929 0.950 . S
H904 C930 0.950 . S
H905 C932 0.950 . S
H906 C935 0.948 1_655 S
H907 C936 0.950 . S
H908 C938 0.950 . S
H909 C939 0.950 . S
C910 H892 0.951 . S
C910 C911 1.366 . S
C910 C912 1.388 . S
C911 C910 1.366 . S
C911 C915 1.385 . S
C912 H893 0.951 . S
C912 C910 1.388 . S
C912 C913 1.366 . S
C913 C912 1.366 . S
C913 C914 1.414 . S
C913 C916 1.499 . S
C914 H894 0.950 . S
C914 C913 1.414 . S
C914 C915 1.374 . S
C915 H895 0.950 . S
C915 C911 1.385 . S
C915 C914 1.374 . S
C916 C913 1.499 . S
C916 C917 1.373 . S
C916 C918 1.389 . S
C917 H896 0.950 . S
C917 C916 1.373 . S
C917 C933 1.377 . S
C918 C916 1.389 . S
C918 C919 1.524 . S
C918 C932 1.377 . S
C919 C918 1.524 . S
C919 C920 1.397 . S
C919 C924 1.363 . S
C920 H897 0.950 . S
C920 C919 1.397 . S
C920 C921 1.334 . S
C921 H898 0.950 . S
C921 C920 1.334 . S
C921 C922 1.287 . S
C922 C921 1.287 . S
C922 C923 1.524 . S
C922 H941 0.913 . S
C923 H899 0.950 . S
C923 C922 1.524 . S
C923 C924 1.415 . S
C924 H900 0.950 . S
C924 C919 1.363 . S
C924 C923 1.415 . S
C925 H901 0.951 . S
C925 C926 1.366 . S
C925 C927 1.388 . S
C926 C925 1.366 . S
C926 C930 1.385 . S
C927 H902 0.951 . S
C927 C925 1.388 . S
C927 C928 1.366 . S
C928 C927 1.366 . S
C928 C929 1.414 . S
C928 C931 1.499 . S
C929 H903 0.950 . S
C929 C928 1.414 . S
C929 C930 1.374 . S
C930 H904 0.950 . S
C930 C926 1.385 . S
C930 C929 1.374 . S
C931 C928 1.499 . S
C931 C932 1.373 . S
C931 C933 1.389 . S
C932 H905 0.950 . S
C932 C918 1.377 . S
C932 C931 1.373 . S
C933 C917 1.377 . S
C933 C931 1.389 . S
C933 C934 1.524 . S
C934 C933 1.524 . S
C934 C935 1.397 1_655 S
C934 C939 1.363 . S
C935 H906 0.948 1_455 S
C935 C934 1.397 1_455 S
C935 C936 1.334 . S
C936 H907 0.950 . S
C936 C935 1.334 . S
C936 C937 1.287 . S
C937 C936 1.287 . S
C937 C938 1.524 . S
C937 H940 0.999 . S
C938 H908 0.950 . S
C938 C937 1.524 . S
C938 C939 1.415 1_455 S
C939 H909 0.950 . S
C939 C934 1.363 . S
C939 C938 1.415 1_655 S
H940 C937 0.999 . S
H941 C922 0.913 . S
H942 C960 0.951 . S
H943 C962 0.951 . S
H944 C964 0.950 . S
H945 C965 0.950 . S
H946 C967 0.950 . S
H947 C970 0.950 . S
H948 C971 0.950 . S
H949 C973 0.950 . S
H950 C974 0.950 . S
H951 C975 0.951 . S
H952 C977 0.951 . S
H953 C979 0.950 . S
H954 C980 0.950 . S
H955 C982 0.950 . S
H956 C985 0.950 . S
H957 C986 0.950 . S
H958 C988 0.950 . S
H959 C989 0.950 . S
C960 H942 0.951 . S
C960 C961 1.366 . S
C960 C962 1.388 . S
C961 C960 1.366 . S
C961 C965 1.385 . S
C962 H943 0.951 . S
C962 C960 1.388 . S
C962 C963 1.366 . S
C963 C962 1.366 . S
C963 C964 1.414 . S
C963 C966 1.499 . S
C964 H944 0.950 . S
C964 C963 1.414 . S
C964 C965 1.374 . S
C965 H945 0.950 . S
C965 C961 1.385 . S
C965 C964 1.374 . S
C966 C963 1.499 . S
C966 C967 1.373 . S
C966 C968 1.389 . S
C967 H946 0.950 . S
C967 C966 1.373 . S
C967 C983 1.377 . S
C968 C966 1.389 . S
C968 C969 1.524 . S
C968 C982 1.377 . S
C969 C968 1.524 . S
C969 C970 1.397 . S
C969 C974 1.363 . S
C970 H947 0.950 . S
C970 C969 1.397 . S
C970 C971 1.334 . S
C971 H948 0.950 . S
C971 C970 1.334 . S
C971 C972 1.287 . S
C972 C971 1.287 . S
C972 C973 1.524 . S
C972 H991 0.913 . S
C973 H949 0.950 . S
C973 C972 1.524 . S
C973 C974 1.415 . S
C974 H950 0.950 . S
C974 C969 1.363 . S
C974 C973 1.415 . S
C975 H951 0.951 . S
C975 C976 1.366 . S
C975 C977 1.388 . S
C976 C975 1.366 . S
C976 C980 1.385 . S
C977 H952 0.951 . S
C977 C975 1.388 . S
C977 C978 1.366 . S
C978 C977 1.366 . S
C978 C979 1.414 . S
C978 C981 1.499 . S
C979 H953 0.950 . S
C979 C978 1.414 . S
C979 C980 1.374 . S
C980 H954 0.950 . S
C980 C976 1.385 . S
C980 C979 1.374 . S
C981 C978 1.499 . S
C981 C982 1.373 . S
C981 C983 1.389 . S
C982 H955 0.950 . S
C982 C968 1.377 . S
C982 C981 1.373 . S
C983 C967 1.377 . S
C983 C981 1.389 . S
C983 C984 1.524 . S
C984 C983 1.524 . S
C984 C985 1.397 . S
C984 C989 1.363 . S
C985 H956 0.950 . S
C985 C984 1.397 . S
C985 C986 1.334 . S
C986 H957 0.950 . S
C986 C985 1.334 . S
C986 C987 1.287 . S
C987 C986 1.287 . S
C987 C988 1.524 . S
C987 H990 0.999 . S
C988 H958 0.950 . S
C988 C987 1.524 . S
C988 C989 1.415 . S
C989 H959 0.950 . S
C989 C984 1.363 . S
C989 C988 1.415 . S
H990 C987 0.999 . S
H991 C972 0.913 . S
H992 C1010 0.951 . S
H993 C1012 0.951 . S
H994 C1014 0.950 . S
H995 C1015 0.950 . S
H996 C1017 0.950 . S
H997 C1020 0.950 . S
H998 C1021 0.950 . S
H999 C1023 0.950 . S
H1000 C1024 0.950 . S
H1001 C1025 0.951 . S
H1002 C1027 0.951 . S
H1003 C1029 0.950 . S
H1004 C1030 0.950 . S
H1005 C1032 0.950 . S
H1006 C1035 0.950 . S
H1007 C1036 0.950 . S
H1008 C1038 0.950 . S
H1009 C1039 0.950 . S
C1010 H992 0.951 . S
C1010 C1011 1.366 . S
C1010 C1012 1.388 . S
C1011 C1010 1.366 . S
C1011 C1015 1.385 . S
C1012 H993 0.951 . S
C1012 C1010 1.388 . S
C1012 C1013 1.366 . S
C1013 C1012 1.366 . S
C1013 C1014 1.414 . S
C1013 C1016 1.499 . S
C1014 H994 0.950 . S
C1014 C1013 1.414 . S
C1014 C1015 1.374 . S
C1015 H995 0.950 . S
C1015 C1011 1.385 . S
C1015 C1014 1.374 . S
C1016 C1013 1.499 . S
C1016 C1017 1.373 . S
C1016 C1018 1.389 . S
C1017 H996 0.950 . S
C1017 C1016 1.373 . S
C1017 C1033 1.377 . S
C1018 C1016 1.389 . S
C1018 C1019 1.524 . S
C1018 C1032 1.377 . S
C1019 C1018 1.524 . S
C1019 C1020 1.397 . S
C1019 C1024 1.363 . S
C1020 H997 0.950 . S
C1020 C1019 1.397 . S
C1020 C1021 1.334 . S
C1021 H998 0.950 . S
C1021 C1020 1.334 . S
C1021 C1022 1.287 . S
C1022 C1021 1.287 . S
C1022 C1023 1.524 . S
C1022 H1041 0.913 . S
C1023 H999 0.950 . S
C1023 C1022 1.524 . S
C1023 C1024 1.415 . S
C1024 H1000 0.950 . S
C1024 C1019 1.363 . S
C1024 C1023 1.415 . S
C1025 H1001 0.951 . S
C1025 C1026 1.366 . S
C1025 C1027 1.388 . S
C1026 C1025 1.366 . S
C1026 C1030 1.385 . S
C1027 H1002 0.951 . S
C1027 C1025 1.388 . S
C1027 C1028 1.366 . S
C1028 C1027 1.366 . S
C1028 C1029 1.414 . S
C1028 C1031 1.499 . S
C1029 H1003 0.950 . S
C1029 C1028 1.414 . S
C1029 C1030 1.374 . S
C1030 H1004 0.950 . S
C1030 C1026 1.385 . S
C1030 C1029 1.374 . S
C1031 C1028 1.499 . S
C1031 C1032 1.373 . S
C1031 C1033 1.389 . S
C1032 H1005 0.950 . S
C1032 C1018 1.377 . S
C1032 C1031 1.373 . S
C1033 C1017 1.377 . S
C1033 C1031 1.389 . S
C1033 C1034 1.524 . S
C1034 C1033 1.524 . S
C1034 C1035 1.397 . S
C1034 C1039 1.363 . S
C1035 H1006 0.950 . S
C1035 C1034 1.397 . S
C1035 C1036 1.334 . S
C1036 H1007 0.950 . S
C1036 C1035 1.334 . S
C1036 C1037 1.287 . S
C1037 C1036 1.287 . S
C1037 C1038 1.524 . S
C1037 H1040 0.999 . S
C1038 H1008 0.950 . S
C1038 C1037 1.524 . S
C1038 C1039 1.415 . S
C1039 H1009 0.950 . S
C1039 C1034 1.363 . S
C1039 C1038 1.415 . S
H1040 C1037 0.999 . S
H1041 C1022 0.913 . S
H1042 C1060 0.951 . S
H1043 C1062 0.951 . S
H1044 C1064 0.950 . S
H1045 C1065 0.950 . S
H1046 C1067 0.950 . S
H1047 C1070 0.950 . S
H1048 C1071 0.950 . S
H1049 C1073 0.930 1_565 S
H1050 C1074 0.950 . S
H1051 C1075 0.951 . S
H1052 C1077 0.951 . S
H1053 C1079 0.950 . S
H1054 C1080 0.950 . S
H1055 C1082 0.950 . S
H1056 C1085 0.950 . S
H1057 C1086 0.950 . S
H1058 C1088 0.950 . S
H1059 C1089 0.950 . S
C1060 H1042 0.951 . S
C1060 C1061 1.366 . S
C1060 C1062 1.388 . S
C1061 C1060 1.366 . S
C1061 C1065 1.385 . S
C1062 H1043 0.951 . S
C1062 C1060 1.388 . S
C1062 C1063 1.366 . S
C1063 C1062 1.366 . S
C1063 C1064 1.414 . S
C1063 C1066 1.499 . S
C1064 H1044 0.950 . S
C1064 C1063 1.414 . S
C1064 C1065 1.374 . S
C1065 H1045 0.950 . S
C1065 C1061 1.385 . S
C1065 C1064 1.374 . S
C1066 C1063 1.499 . S
C1066 C1067 1.373 . S
C1066 C1068 1.389 . S
C1067 H1046 0.950 . S
C1067 C1066 1.373 . S
C1067 C1083 1.377 . S
C1068 C1066 1.389 . S
C1068 C1069 1.524 . S
C1068 C1082 1.377 . S
C1069 C1068 1.524 . S
C1069 C1070 1.397 . S
C1069 C1074 1.363 . S
C1070 H1047 0.950 . S
C1070 C1069 1.397 . S
C1070 C1071 1.334 . S
C1071 H1048 0.950 . S
C1071 C1070 1.334 . S
C1071 C1072 1.287 . S
C1072 C1071 1.287 . S
C1072 C1073 1.532 . S
C1072 H1091 0.913 . S
C1073 H1049 0.930 1_545 S
C1073 C1072 1.532 . S
C1073 C1074 1.429 . S
C1074 H1050 0.950 . S
C1074 C1069 1.363 . S
C1074 C1073 1.429 . S
C1075 H1051 0.951 . S
C1075 C1076 1.366 . S
C1075 C1077 1.388 . S
C1076 C1075 1.366 . S
C1076 C1080 1.385 . S
C1077 H1052 0.951 . S
C1077 C1075 1.388 . S
C1077 C1078 1.366 . S
C1078 C1077 1.366 . S
C1078 C1079 1.414 . S
C1078 C1081 1.499 . S
C1079 H1053 0.950 . S
C1079 C1078 1.414 . S
C1079 C1080 1.374 . S
C1080 H1054 0.950 . S
C1080 C1076 1.385 . S
C1080 C1079 1.374 . S
C1081 C1078 1.499 . S
C1081 C1082 1.373 . S
C1081 C1083 1.389 . S
C1082 H1055 0.950 . S
C1082 C1068 1.377 . S
C1082 C1081 1.373 . S
C1083 C1067 1.377 . S
C1083 C1081 1.389 . S
C1083 C1084 1.524 . S
C1084 C1083 1.524 . S
C1084 C1085 1.397 . S
C1084 C1089 1.363 . S
C1085 H1056 0.950 . S
C1085 C1084 1.397 . S
C1085 C1086 1.334 . S
C1086 H1057 0.950 . S
C1086 C1085 1.334 . S
C1086 C1087 1.287 . S
C1087 C1086 1.287 . S
C1087 C1088 1.524 . S
C1087 H1090 0.999 . S
C1088 H1058 0.950 . S
C1088 C1087 1.524 . S
C1088 C1089 1.415 . S
C1089 H1059 0.950 . S
C1089 C1084 1.363 . S
C1089 C1088 1.415 . S
H1090 C1087 0.999 . S
H1091 C1072 0.913 . S
H1092 C1110 0.951 . S
H1093 C1112 0.951 . S
H1094 C1114 0.950 . S
H1095 C1115 0.950 . S
H1096 C1117 0.950 . S
H1097 C1120 0.950 . S
H1098 C1121 0.950 . S
H1099 C1123 0.950 . S
H1100 C1124 0.950 . S
H1101 C1125 0.951 . S
H1102 C1127 0.951 . S
H1103 C1129 0.950 . S
H1104 C1130 0.950 . S
H1105 C1132 0.950 . S
H1106 C1135 0.950 . S
H1107 C1136 0.950 . S
H1108 C1138 0.950 . S
H1109 C1139 0.950 . S
C1110 H1092 0.951 . S
C1110 C1111 1.366 . S
C1110 C1112 1.388 . S
C1111 C1110 1.366 . S
C1111 C1115 1.385 . S
C1112 H1093 0.951 . S
C1112 C1110 1.388 . S
C1112 C1113 1.366 . S
C1113 C1112 1.366 . S
C1113 C1114 1.414 . S
C1113 C1116 1.499 . S
C1114 H1094 0.950 . S
C1114 C1113 1.414 . S
C1114 C1115 1.374 . S
C1115 H1095 0.950 . S
C1115 C1111 1.385 . S
C1115 C1114 1.374 . S
C1116 C1113 1.499 . S
C1116 C1117 1.373 . S
C1116 C1118 1.389 . S
C1117 H1096 0.950 . S
C1117 C1116 1.373 . S
C1117 C1133 1.377 . S
C1118 C1116 1.389 . S
C1118 C1119 1.524 . S
C1118 C1132 1.377 . S
C1119 C1118 1.524 . S
C1119 C1120 1.397 . S
C1119 C1124 1.363 . S
C1120 H1097 0.950 . S
C1120 C1119 1.397 . S
C1120 C1121 1.334 . S
C1121 H1098 0.950 . S
C1121 C1120 1.334 . S
C1121 C1122 1.287 . S
C1122 C1121 1.287 . S
C1122 C1123 1.524 . S
C1122 H1141 0.913 . S
C1123 H1099 0.950 . S
C1123 C1122 1.524 . S
C1123 C1124 1.415 . S
C1124 H1100 0.950 . S
C1124 C1119 1.363 . S
C1124 C1123 1.415 . S
C1125 H1101 0.951 . S
C1125 C1126 1.366 . S
C1125 C1127 1.388 . S
C1126 C1125 1.366 . S
C1126 C1130 1.385 . S
C1127 H1102 0.951 . S
C1127 C1125 1.388 . S
C1127 C1128 1.366 . S
C1128 C1127 1.366 . S
C1128 C1129 1.414 . S
C1128 C1131 1.499 . S
C1129 H1103 0.950 . S
C1129 C1128 1.414 . S
C1129 C1130 1.374 . S
C1130 H1104 0.950 . S
C1130 C1126 1.385 . S
C1130 C1129 1.374 . S
C1131 C1128 1.499 . S
C1131 C1132 1.373 . S
C1131 C1133 1.389 . S
C1132 H1105 0.950 . S
C1132 C1118 1.377 . S
C1132 C1131 1.373 . S
C1133 C1117 1.377 . S
C1133 C1131 1.389 . S
C1133 C1134 1.524 . S
C1134 C1133 1.524 . S
C1134 C1135 1.397 . S
C1134 C1139 1.363 . S
C1135 H1106 0.950 . S
C1135 C1134 1.397 . S
C1135 C1136 1.334 . S
C1136 H1107 0.950 . S
C1136 C1135 1.334 . S
C1136 C1137 1.287 . S
C1137 C1136 1.287 . S
C1137 C1138 1.524 . S
C1137 H1140 0.999 . S
C1138 H1108 0.950 . S
C1138 C1137 1.524 . S
C1138 C1139 1.415 . S
C1139 H1109 0.950 . S
C1139 C1134 1.363 . S
C1139 C1138 1.415 . S
H1140 C1137 0.999 . S
H1141 C1122 0.913 . S
H1142 C1160 0.951 . S
H1143 C1162 0.951 . S
H1144 C1164 0.950 . S
H1145 C1165 0.950 . S
H1146 C1167 0.950 . S
H1147 C1170 0.950 . S
H1148 C1171 0.950 . S
H1149 C1173 0.950 . S
H1150 C1174 0.950 . S
H1151 C1175 0.951 . S
H1152 C1177 0.951 . S
H1153 C1179 0.950 . S
H1154 C1180 0.950 . S
H1155 C1182 0.950 . S
H1156 C1185 0.950 . S
H1157 C1186 0.950 . S
H1158 C1188 0.950 . S
H1159 C1189 0.950 . S
C1160 H1142 0.951 . S
C1160 C1161 1.366 . S
C1160 C1162 1.388 . S
C1161 C1160 1.366 . S
C1161 C1165 1.385 . S
C1162 H1143 0.951 . S
C1162 C1160 1.388 . S
C1162 C1163 1.366 . S
C1163 C1162 1.366 . S
C1163 C1164 1.414 . S
C1163 C1166 1.499 . S
C1164 H1144 0.950 . S
C1164 C1163 1.414 . S
C1164 C1165 1.374 . S
C1165 H1145 0.950 . S
C1165 C1161 1.385 . S
C1165 C1164 1.374 . S
C1166 C1163 1.499 . S
C1166 C1167 1.373 . S
C1166 C1168 1.389 . S
C1167 H1146 0.950 . S
C1167 C1166 1.373 . S
C1167 C1183 1.377 . S
C1168 C1166 1.389 . S
C1168 C1169 1.524 . S
C1168 C1182 1.377 . S
C1169 C1168 1.524 . S
C1169 C1170 1.397 . S
C1169 C1174 1.363 . S
C1170 H1147 0.950 . S
C1170 C1169 1.397 . S
C1170 C1171 1.334 . S
C1171 H1148 0.950 . S
C1171 C1170 1.334 . S
C1171 C1172 1.287 . S
C1172 C1171 1.287 . S
C1172 C1173 1.524 . S
C1172 H1191 0.913 1_455 S
C1173 H1149 0.950 . S
C1173 C1172 1.524 . S
C1173 C1174 1.415 . S
C1174 H1150 0.950 . S
C1174 C1169 1.363 . S
C1174 C1173 1.415 . S
C1175 H1151 0.951 . S
C1175 C1176 1.366 . S
C1175 C1177 1.388 . S
C1176 C1175 1.366 . S
C1176 C1180 1.385 . S
C1177 H1152 0.951 . S
C1177 C1175 1.388 . S
C1177 C1178 1.366 . S
C1178 C1177 1.366 . S
C1178 C1179 1.414 . S
C1178 C1181 1.499 . S
C1179 H1153 0.950 . S
C1179 C1178 1.414 . S
C1179 C1180 1.374 . S
C1180 H1154 0.950 . S
C1180 C1176 1.385 . S
C1180 C1179 1.374 . S
C1181 C1178 1.499 . S
C1181 C1182 1.373 . S
C1181 C1183 1.389 . S
C1182 H1155 0.950 . S
C1182 C1168 1.377 . S
C1182 C1181 1.373 . S
C1183 C1167 1.377 . S
C1183 C1181 1.389 . S
C1183 C1184 1.524 . S
C1184 C1183 1.524 . S
C1184 C1185 1.397 . S
C1184 C1189 1.363 . S
C1185 H1156 0.950 . S
C1185 C1184 1.397 . S
C1185 C1186 1.334 . S
C1186 H1157 0.950 . S
C1186 C1185 1.334 . S
C1186 C1187 1.287 . S
C1187 C1186 1.287 . S
C1187 C1188 1.524 . S
C1187 H1190 0.999 . S
C1188 H1158 0.950 . S
C1188 C1187 1.524 . S
C1188 C1189 1.415 . S
C1189 H1159 0.950 . S
C1189 C1184 1.363 . S
C1189 C1188 1.415 . S
H1190 C1187 0.999 . S
H1191 C1172 0.913 1_655 S
H1192 C1210 0.951 . S
H1193 C1212 0.951 . S
H1194 C1214 0.950 . S
H1195 C1215 0.950 . S
H1196 C1217 0.950 . S
H1197 C1220 0.950 . S
H1198 C1221 0.950 . S
H1199 C1223 0.950 . S
H1200 C1224 0.950 . S
H1201 C1225 0.951 . S
H1202 C1227 0.951 . S
H1203 C1229 0.950 . S
H1204 C1230 0.950 . S
H1205 C1232 0.950 . S
H1206 C1235 0.950 . S
H1207 C1236 0.950 . S
H1208 C1238 0.950 . S
H1209 C1239 0.950 . S
C1210 H1192 0.951 . S
C1210 C1211 1.366 . S
C1210 C1212 1.388 . S
C1211 C1210 1.366 . S
C1211 C1215 1.385 . S
C1212 H1193 0.951 . S
C1212 C1210 1.388 . S
C1212 C1213 1.366 . S
C1213 C1212 1.366 . S
C1213 C1214 1.414 . S
C1213 C1216 1.499 . S
C1214 H1194 0.950 . S
C1214 C1213 1.414 . S
C1214 C1215 1.374 . S
C1215 H1195 0.950 . S
C1215 C1211 1.385 . S
C1215 C1214 1.374 . S
C1216 C1213 1.499 . S
C1216 C1217 1.373 . S
C1216 C1218 1.389 . S
C1217 H1196 0.950 . S
C1217 C1216 1.373 . S
C1217 C1233 1.377 . S
C1218 C1216 1.389 . S
C1218 C1219 1.524 . S
C1218 C1232 1.377 . S
C1219 C1218 1.524 . S
C1219 C1220 1.397 . S
C1219 C1224 1.363 . S
C1220 H1197 0.950 . S
C1220 C1219 1.397 . S
C1220 C1221 1.334 . S
C1221 H1198 0.950 . S
C1221 C1220 1.334 . S
C1221 C1222 1.287 . S
C1222 C1221 1.287 . S
C1222 C1223 1.524 . S
C1222 H1241 0.913 . S
C1223 H1199 0.950 . S
C1223 C1222 1.524 . S
C1223 C1224 1.415 . S
C1224 H1200 0.950 . S
C1224 C1219 1.363 . S
C1224 C1223 1.415 . S
C1225 H1201 0.951 . S
C1225 C1226 1.366 . S
C1225 C1227 1.388 . S
C1226 C1225 1.366 . S
C1226 C1230 1.385 . S
C1227 H1202 0.951 . S
C1227 C1225 1.388 . S
C1227 C1228 1.366 . S
C1228 C1227 1.366 . S
C1228 C1229 1.414 . S
C1228 C1231 1.499 . S
C1229 H1203 0.950 . S
C1229 C1228 1.414 . S
C1229 C1230 1.374 . S
C1230 H1204 0.950 . S
C1230 C1226 1.385 . S
C1230 C1229 1.374 . S
C1231 C1228 1.499 . S
C1231 C1232 1.373 . S
C1231 C1233 1.389 . S
C1232 H1205 0.950 . S
C1232 C1218 1.377 . S
C1232 C1231 1.373 . S
C1233 C1217 1.377 . S
C1233 C1231 1.389 . S
C1233 C1234 1.524 . S
C1234 C1233 1.524 . S
C1234 C1235 1.397 . S
C1234 C1239 1.363 . S
C1235 H1206 0.950 . S
C1235 C1234 1.397 . S
C1235 C1236 1.334 . S
C1236 H1207 0.950 . S
C1236 C1235 1.334 . S
C1236 C1237 1.287 . S
C1237 C1236 1.287 . S
C1237 C1238 1.524 . S
C1237 H1240 0.999 . S
C1238 H1208 0.950 . S
C1238 C1237 1.524 . S
C1238 C1239 1.415 . S
C1239 H1209 0.950 . S
C1239 C1234 1.363 . S
C1239 C1238 1.415 . S
H1240 C1237 0.999 . S
H1241 C1222 0.913 . S
H1242 C1260 0.951 . S
H1243 C1262 0.951 . S
H1244 C1264 0.950 . S
H1245 C1265 0.950 . S
H1246 C1267 0.950 . S
H1247 C1270 0.950 . S
H1248 C1271 0.950 . S
H1249 C1273 0.950 . S
H1250 C1274 0.950 . S
H1251 C1275 1.002 . S
H1252 C1277 0.951 . S
H1253 C1279 0.950 . S
H1254 C1280 0.950 . S
H1255 C1282 0.950 . S
H1256 C1285 0.950 . S
H1257 C1286 0.950 . S
H1258 C1288 0.950 . S
H1259 C1289 0.950 . S
C1260 H1242 0.951 . S
C1260 C1261 1.366 . S
C1260 C1262 1.388 . S
C1261 C1260 1.366 . S
C1261 C1265 1.385 . S
C1262 H1243 0.951 . S
C1262 C1260 1.388 . S
C1262 C1263 1.366 . S
C1263 C1262 1.366 . S
C1263 C1264 1.414 . S
C1263 C1266 1.499 . S
C1264 H1244 0.950 . S
C1264 C1263 1.414 . S
C1264 C1265 1.374 . S
C1265 H1245 0.950 . S
C1265 C1261 1.385 . S
C1265 C1264 1.374 . S
C1266 C1263 1.499 . S
C1266 C1267 1.373 . S
C1266 C1268 1.389 . S
C1267 H1246 0.950 . S
C1267 C1266 1.373 . S
C1267 C1283 1.377 . S
C1268 C1266 1.389 . S
C1268 C1269 1.524 . S
C1268 C1282 1.377 . S
C1269 C1268 1.524 . S
C1269 C1270 1.397 . S
C1269 C1274 1.363 . S
C1270 H1247 0.950 . S
C1270 C1269 1.397 . S
C1270 C1271 1.334 . S
C1271 H1248 0.950 . S
C1271 C1270 1.334 . S
C1271 C1272 1.287 . S
C1272 C1271 1.287 . S
C1272 C1273 1.524 . S
C1272 H1291 0.913 . S
C1273 H1249 0.950 . S
C1273 C1272 1.524 . S
C1273 C1274 1.415 . S
C1274 H1250 0.950 . S
C1274 C1269 1.363 . S
C1274 C1273 1.415 . S
C1275 H1251 1.002 . S
C1275 C1276 1.366 . S
C1275 C1277 1.388 . S
C1276 C1275 1.366 . S
C1276 C1280 1.385 . S
C1277 H1252 0.951 . S
C1277 C1275 1.388 . S
C1277 C1278 1.366 . S
C1278 C1277 1.366 . S
C1278 C1279 1.414 . S
C1278 C1281 1.499 . S
C1279 H1253 0.950 . S
C1279 C1278 1.414 . S
C1279 C1280 1.374 . S
C1280 H1254 0.950 . S
C1280 C1276 1.385 . S
C1280 C1279 1.374 . S
C1281 C1278 1.499 . S
C1281 C1282 1.373 . S
C1281 C1283 1.389 . S
C1282 H1255 0.950 . S
C1282 C1268 1.377 . S
C1282 C1281 1.373 . S
C1283 C1267 1.377 . S
C1283 C1281 1.389 . S
C1283 C1284 1.524 . S
C1284 C1283 1.524 . S
C1284 C1285 1.397 . S
C1284 C1289 1.363 . S
C1285 H1256 0.950 . S
C1285 C1284 1.397 . S
C1285 C1286 1.334 . S
C1286 H1257 0.950 . S
C1286 C1285 1.334 . S
C1286 C1287 1.287 . S
C1287 C1286 1.287 . S
C1287 C1288 1.524 . S
C1287 H1290 0.999 . S
C1288 H1258 0.950 . S
C1288 C1287 1.524 . S
C1288 C1289 1.415 . S
C1289 H1259 0.950 . S
C1289 C1284 1.363 . S
C1289 C1288 1.415 . S
H1290 C1287 0.999 . S
H1291 C1272 0.913 . S
H1292 C1310 0.951 . S
H1293 C1312 0.951 . S
H1294 C1314 0.950 . S
H1295 C1315 0.950 . S
H1296 C1317 0.950 . S
H1297 C1320 0.950 . S
H1298 C1321 0.950 . S
H1299 C1323 0.950 1_556 S
H1300 C1324 0.950 . S
H1301 C1325 0.951 . S
H1302 C1327 0.951 . S
H1303 C1329 0.950 . S
H1304 C1330 0.950 . S
H1305 C1332 0.950 . S
H1306 C1335 0.950 . S
H1307 C1336 0.950 . S
H1308 C1338 0.950 . S
H1309 C1339 0.950 . S
C1310 H1292 0.951 . S
C1310 C1311 1.366 . S
C1310 C1312 1.388 . S
C1311 C1310 1.366 . S
C1311 C1315 1.385 . S
C1312 H1293 0.951 . S
C1312 C1310 1.388 . S
C1312 C1313 1.366 . S
C1313 C1312 1.366 . S
C1313 C1314 1.414 . S
C1313 C1316 1.499 . S
C1314 H1294 0.950 . S
C1314 C1313 1.414 . S
C1314 C1315 1.374 . S
C1315 H1295 0.950 . S
C1315 C1311 1.385 . S
C1315 C1314 1.374 . S
C1316 C1313 1.499 . S
C1316 C1317 1.373 . S
C1316 C1318 1.389 . S
C1317 H1296 0.950 . S
C1317 C1316 1.373 . S
C1317 C1333 1.377 . S
C1318 C1316 1.389 . S
C1318 C1319 1.524 . S
C1318 C1332 1.377 . S
C1319 C1318 1.524 . S
C1319 C1320 1.397 . S
C1319 C1324 1.363 . S
C1320 H1297 0.950 . S
C1320 C1319 1.397 . S
C1320 C1321 1.334 . S
C1321 H1298 0.950 . S
C1321 C1320 1.334 . S
C1321 C1322 1.287 . S
C1322 C1321 1.287 . S
C1322 C1323 1.524 . S
C1322 H1341 0.913 1_554 S
C1323 H1299 0.950 1_554 S
C1323 C1322 1.524 . S
C1323 C1324 1.415 . S
C1324 H1300 0.950 . S
C1324 C1319 1.363 . S
C1324 C1323 1.415 . S
C1325 H1301 0.951 . S
C1325 C1326 1.366 . S
C1325 C1327 1.388 . S
C1326 C1325 1.366 . S
C1326 C1330 1.385 . S
C1327 H1302 0.951 . S
C1327 C1325 1.388 . S
C1327 C1328 1.366 . S
C1328 C1327 1.366 . S
C1328 C1329 1.414 . S
C1328 C1331 1.499 . S
C1329 H1303 0.950 . S
C1329 C1328 1.414 . S
C1329 C1330 1.374 . S
C1330 H1304 0.950 . S
C1330 C1326 1.385 . S
C1330 C1329 1.374 . S
C1331 C1328 1.499 . S
C1331 C1332 1.373 . S
C1331 C1333 1.389 . S
C1332 H1305 0.950 . S
C1332 C1318 1.377 . S
C1332 C1331 1.373 . S
C1333 C1317 1.377 . S
C1333 C1331 1.389 . S
C1333 C1334 1.524 . S
C1334 C1333 1.524 . S
C1334 C1335 1.397 . S
C1334 C1339 1.363 . S
C1335 H1306 0.950 . S
C1335 C1334 1.397 . S
C1335 C1336 1.334 . S
C1336 H1307 0.950 . S
C1336 C1335 1.334 . S
C1336 C1337 1.287 . S
C1337 C1336 1.287 . S
C1337 C1338 1.524 . S
C1337 H1340 0.999 . S
C1338 H1308 0.950 . S
C1338 C1337 1.524 . S
C1338 C1339 1.415 . S
C1339 H1309 0.950 . S
C1339 C1334 1.363 . S
C1339 C1338 1.415 . S
H1340 C1337 0.999 . S
H1341 C1322 0.913 1_556 S
H1342 C1360 0.951 . S
H1343 C1362 0.951 . S
H1344 C1364 0.950 . S
H1345 C1365 0.950 . S
H1346 C1367 0.950 . S
H1347 C1370 0.950 . S
H1348 C1371 0.950 . S
H1349 C1373 0.950 . S
H1350 C1374 0.950 . S
H1351 C1375 0.951 . S
H1352 C1377 0.951 . S
H1353 C1379 0.950 . S
H1354 C1380 0.950 . S
H1355 C1382 0.950 . S
H1356 C1385 0.950 . S
H1357 C1386 0.950 . S
H1358 C1388 0.950 . S
H1359 C1389 0.950 . S
C1360 H1342 0.951 . S
C1360 C1361 1.366 . S
C1360 C1362 1.388 . S
C1361 C1360 1.366 . S
C1361 C1365 1.385 . S
C1362 H1343 0.951 . S
C1362 C1360 1.388 . S
C1362 C1363 1.366 . S
C1363 C1362 1.366 . S
C1363 C1364 1.414 . S
C1363 C1366 1.499 . S
C1364 H1344 0.950 . S
C1364 C1363 1.414 . S
C1364 C1365 1.374 . S
C1365 H1345 0.950 . S
C1365 C1361 1.385 . S
C1365 C1364 1.374 . S
C1366 C1363 1.499 . S
C1366 C1367 1.373 . S
C1366 C1368 1.389 . S
C1367 H1346 0.950 . S
C1367 C1366 1.373 . S
C1367 C1383 1.377 . S
C1368 C1366 1.389 . S
C1368 C1369 1.524 . S
C1368 C1382 1.377 . S
C1369 C1368 1.524 . S
C1369 C1370 1.397 . S
C1369 C1374 1.363 . S
C1370 H1347 0.950 . S
C1370 C1369 1.397 . S
C1370 C1371 1.334 . S
C1371 H1348 0.950 . S
C1371 C1370 1.334 . S
C1371 C1372 1.287 . S
C1372 C1371 1.287 . S
C1372 C1373 1.524 . S
C1372 H1391 0.913 . S
C1373 H1349 0.950 . S
C1373 C1372 1.524 . S
C1373 C1374 1.415 . S
C1374 H1350 0.950 . S
C1374 C1369 1.363 . S
C1374 C1373 1.415 . S
C1375 H1351 0.951 . S
C1375 C1376 1.366 . S
C1375 C1377 1.388 . S
C1376 C1375 1.366 . S
C1376 C1380 1.385 . S
C1377 H1352 0.951 . S
C1377 C1375 1.388 . S
C1377 C1378 1.366 . S
C1378 C1377 1.366 . S
C1378 C1379 1.414 . S
C1378 C1381 1.499 . S
C1379 H1353 0.950 . S
C1379 C1378 1.414 . S
C1379 C1380 1.374 . S
C1380 H1354 0.950 . S
C1380 C1376 1.385 . S
C1380 C1379 1.374 . S
C1381 C1378 1.499 . S
C1381 C1382 1.373 . S
C1381 C1383 1.389 . S
C1382 H1355 0.950 . S
C1382 C1368 1.377 . S
C1382 C1381 1.373 . S
C1383 C1367 1.377 . S
C1383 C1381 1.389 . S
C1383 C1384 1.524 . S
C1384 C1383 1.524 . S
C1384 C1385 1.397 . S
C1384 C1389 1.363 . S
C1385 H1356 0.950 . S
C1385 C1384 1.397 . S
C1385 C1386 1.334 . S
C1386 H1357 0.950 . S
C1386 C1385 1.334 . S
C1386 C1387 1.287 . S
C1387 C1386 1.287 . S
C1387 C1388 1.524 . S
C1387 H1390 0.999 . S
C1388 H1358 0.950 . S
C1388 C1387 1.524 . S
C1388 C1389 1.415 . S
C1389 H1359 0.950 . S
C1389 C1384 1.363 . S
C1389 C1388 1.415 . S
H1390 C1387 0.999 . S
H1391 C1372 0.913 . S
H1392 C1410 0.951 . S
H1393 C1412 0.951 . S
H1394 C1414 0.950 . S
H1395 C1415 0.950 . S
H1396 C1417 0.950 . S
H1397 C1420 0.950 . S
H1398 C1421 0.950 . S
H1399 C1423 0.950 . S
H1400 C1424 0.950 . S
H1401 C1425 0.951 . S
H1402 C1427 0.951 . S
H1403 C1429 0.950 . S
H1404 C1430 0.950 . S
H1405 C1432 0.950 . S
H1406 C1435 0.950 . S
H1407 C1436 0.950 . S
H1408 C1438 0.950 . S
H1409 C1439 0.950 . S
C1410 H1392 0.951 . S
C1410 C1411 1.366 . S
C1410 C1412 1.388 . S
C1411 C1410 1.366 . S
C1411 C1415 1.385 . S
C1412 H1393 0.951 . S
C1412 C1410 1.388 . S
C1412 C1413 1.366 . S
C1413 C1412 1.366 . S
C1413 C1414 1.414 . S
C1413 C1416 1.499 . S
C1414 H1394 0.950 . S
C1414 C1413 1.414 . S
C1414 C1415 1.374 . S
C1415 H1395 0.950 . S
C1415 C1411 1.385 . S
C1415 C1414 1.374 . S
C1416 C1413 1.499 . S
C1416 C1417 1.373 . S
C1416 C1418 1.389 . S
C1417 H1396 0.950 . S
C1417 C1416 1.373 . S
C1417 C1433 1.377 . S
C1418 C1416 1.389 . S
C1418 C1419 1.524 . S
C1418 C1432 1.377 . S
C1419 C1418 1.524 . S
C1419 C1420 1.397 . S
C1419 C1424 1.363 . S
C1420 H1397 0.950 . S
C1420 C1419 1.397 . S
C1420 C1421 1.334 . S
C1421 H1398 0.950 . S
C1421 C1420 1.334 . S
C1421 C1422 1.287 . S
C1422 C1421 1.287 . S
C1422 C1423 1.524 . S
C1422 H1441 0.913 . S
C1423 H1399 0.950 . S
C1423 C1422 1.524 . S
C1423 C1424 1.415 . S
C1424 H1400 0.950 . S
C1424 C1419 1.363 . S
C1424 C1423 1.415 . S
C1425 H1401 0.951 . S
C1425 C1426 1.366 . S
C1425 C1427 1.388 . S
C1426 C1425 1.366 . S
C1426 C1430 1.385 . S
C1427 H1402 0.951 . S
C1427 C1425 1.388 . S
C1427 C1428 1.366 . S
C1428 C1427 1.366 . S
C1428 C1429 1.414 . S
C1428 C1431 1.499 . S
C1429 H1403 0.950 . S
C1429 C1428 1.414 . S
C1429 C1430 1.374 . S
C1430 H1404 0.950 . S
C1430 C1426 1.385 . S
C1430 C1429 1.374 . S
C1431 C1428 1.499 . S
C1431 C1432 1.373 . S
C1431 C1433 1.389 . S
C1432 H1405 0.950 . S
C1432 C1418 1.377 . S
C1432 C1431 1.373 . S
C1433 C1417 1.377 . S
C1433 C1431 1.389 . S
C1433 C1434 1.524 . S
C1434 C1433 1.524 . S
C1434 C1435 1.397 . S
C1434 C1439 1.363 . S
C1435 H1406 0.950 . S
C1435 C1434 1.397 . S
C1435 C1436 1.334 . S
C1436 H1407 0.950 . S
C1436 C1435 1.334 . S
C1436 C1437 1.287 . S
C1437 C1436 1.287 . S
C1437 C1438 1.524 . S
C1437 H1440 0.999 . S
C1438 H1408 0.950 . S
C1438 C1437 1.524 . S
C1438 C1439 1.415 . S
C1439 H1409 0.950 . S
C1439 C1434 1.363 . S
C1439 C1438 1.415 . S
H1440 C1437 0.999 . S
H1441 C1422 0.913 . S
H1442 C1460 0.951 . S
H1443 C1462 0.951 . S
H1444 C1464 0.950 . S
H1445 C1465 0.950 . S
H1446 C1467 0.950 . S
H1447 C1470 0.950 . S
H1448 C1471 0.950 . S
H1449 C1473 0.950 . S
H1450 C1474 0.950 . S
H1451 C1475 0.951 . S
H1452 C1477 0.951 . S
H1453 C1479 0.950 . S
H1454 C1480 0.950 1_556 S
H1455 C1482 0.950 . S
H1456 C1485 0.950 . S
H1457 C1486 0.950 . S
H1458 C1488 0.950 . S
H1459 C1489 0.950 . S
C1460 H1442 0.951 . S
C1460 C1461 1.366 . S
C1460 C1462 1.388 . S
C1461 C1460 1.366 . S
C1461 C1465 1.385 . S
C1462 H1443 0.951 . S
C1462 C1460 1.388 . S
C1462 C1463 1.366 . S
C1463 C1462 1.366 . S
C1463 C1464 1.414 . S
C1463 C1466 1.499 . S
C1464 H1444 0.950 . S
C1464 C1463 1.414 . S
C1464 C1465 1.374 . S
C1465 H1445 0.950 . S
C1465 C1461 1.385 . S
C1465 C1464 1.374 . S
C1466 C1463 1.499 . S
C1466 C1467 1.373 . S
C1466 C1468 1.389 . S
C1467 H1446 0.950 . S
C1467 C1466 1.373 . S
C1467 C1483 1.377 . S
C1468 C1466 1.389 . S
C1468 C1469 1.524 . S
C1468 C1482 1.377 . S
C1469 C1468 1.524 . S
C1469 C1470 1.397 . S
C1469 C1474 1.363 . S
C1470 H1447 0.950 . S
C1470 C1469 1.397 . S
C1470 C1471 1.334 . S
C1471 H1448 0.950 . S
C1471 C1470 1.334 . S
C1471 C1472 1.287 . S
C1472 C1471 1.287 . S
C1472 C1473 1.524 . S
C1472 H1491 0.913 . S
C1473 H1449 0.950 . S
C1473 C1472 1.524 . S
C1473 C1474 1.415 . S
C1474 H1450 0.950 . S
C1474 C1469 1.363 . S
C1474 C1473 1.415 . S
C1475 H1451 0.951 . S
C1475 C1476 1.366 . S
C1475 C1477 1.388 . S
C1476 C1475 1.366 . S
C1476 C1480 1.385 . S
C1477 H1452 0.951 . S
C1477 C1475 1.388 . S
C1477 C1478 1.366 . S
C1478 C1477 1.366 . S
C1478 C1479 1.414 . S
C1478 C1481 1.499 . S
C1479 H1453 0.950 . S
C1479 C1478 1.414 . S
C1479 C1480 1.374 . S
C1480 H1454 0.950 1_554 S
C1480 C1476 1.385 . S
C1480 C1479 1.374 . S
C1481 C1478 1.499 . S
C1481 C1482 1.373 . S
C1481 C1483 1.389 . S
C1482 H1455 0.950 . S
C1482 C1468 1.377 . S
C1482 C1481 1.373 . S
C1483 C1467 1.377 . S
C1483 C1481 1.389 . S
C1483 C1484 1.524 . S
C1484 C1483 1.524 . S
C1484 C1485 1.397 . S
C1484 C1489 1.363 . S
C1485 H1456 0.950 . S
C1485 C1484 1.397 . S
C1485 C1486 1.334 . S
C1486 H1457 0.950 . S
C1486 C1485 1.334 . S
C1486 C1487 1.287 . S
C1487 C1486 1.287 . S
C1487 C1488 1.524 . S
C1487 H1490 0.999 . S
C1488 H1458 0.950 . S
C1488 C1487 1.524 . S
C1488 C1489 1.415 . S
C1489 H1459 0.950 . S
C1489 C1484 1.363 . S
C1489 C1488 1.415 . S
H1490 C1487 0.999 . S
H1491 C1472 0.913 . S
H1492 C1510 0.951 . S
H1493 C1512 0.951 . S
H1494 C1514 0.950 . S
H1495 C1515 0.950 . S
H1496 C1517 0.950 . S
H1497 C1520 0.950 . S
H1498 C1521 0.950 . S
H1499 C1523 0.950 1_655 S
H1500 C1524 0.950 . S
H1501 C1525 0.951 . S
H1502 C1527 0.951 . S
H1503 C1529 0.950 . S
H1504 C1530 0.950 . S
H1505 C1532 0.950 . S
H1506 C1535 0.950 . S
H1507 C1536 0.950 . S
H1508 C1538 0.950 . S
H1509 C1539 0.950 . S
C1510 H1492 0.951 . S
C1510 C1511 1.366 . S
C1510 C1512 1.388 . S
C1511 C1510 1.366 . S
C1511 C1515 1.385 . S
C1512 H1493 0.951 . S
C1512 C1510 1.388 . S
C1512 C1513 1.366 . S
C1513 C1512 1.366 . S
C1513 C1514 1.414 . S
C1513 C1516 1.499 . S
C1514 H1494 0.950 . S
C1514 C1513 1.414 . S
C1514 C1515 1.374 . S
C1515 H1495 0.950 . S
C1515 C1511 1.385 . S
C1515 C1514 1.374 . S
C1516 C1513 1.499 . S
C1516 C1517 1.373 . S
C1516 C1518 1.389 . S
C1517 H1496 0.950 . S
C1517 C1516 1.373 . S
C1517 C1533 1.377 . S
C1518 C1516 1.389 . S
C1518 C1519 1.524 . S
C1518 C1532 1.377 . S
C1519 C1518 1.524 . S
C1519 C1520 1.397 . S
C1519 C1524 1.363 . S
C1520 H1497 0.950 . S
C1520 C1519 1.397 . S
C1520 C1521 1.334 . S
C1521 H1498 0.950 . S
C1521 C1520 1.334 . S
C1521 C1522 1.278 1_455 S
C1522 C1521 1.278 1_655 S
C1522 C1523 1.521 1_655 S
C1522 H1541 0.926 . S
C1523 H1499 0.950 1_455 S
C1523 C1522 1.521 1_455 S
C1523 C1524 1.415 . S
C1524 H1500 0.950 . S
C1524 C1519 1.363 . S
C1524 C1523 1.415 . S
C1525 H1501 0.951 . S
C1525 C1526 1.366 . S
C1525 C1527 1.388 . S
C1526 C1525 1.366 . S
C1526 C1530 1.385 . S
C1527 H1502 0.951 . S
C1527 C1525 1.388 . S
C1527 C1528 1.366 . S
C1528 C1527 1.366 . S
C1528 C1529 1.414 . S
C1528 C1531 1.499 . S
C1529 H1503 0.950 . S
C1529 C1528 1.414 . S
C1529 C1530 1.374 . S
C1530 H1504 0.950 . S
C1530 C1526 1.385 . S
C1530 C1529 1.374 . S
C1531 C1528 1.499 . S
C1531 C1532 1.373 . S
C1531 C1533 1.389 . S
C1532 H1505 0.950 . S
C1532 C1518 1.377 . S
C1532 C1531 1.373 . S
C1533 C1517 1.377 . S
C1533 C1531 1.389 . S
C1533 C1534 1.524 . S
C1534 C1533 1.524 . S
C1534 C1535 1.397 . S
C1534 C1539 1.363 . S
C1535 H1506 0.950 . S
C1535 C1534 1.397 . S
C1535 C1536 1.334 . S
C1536 H1507 0.950 . S
C1536 C1535 1.334 . S
C1536 C1537 1.287 . S
C1537 C1536 1.287 . S
C1537 C1538 1.524 . S
C1537 H1540 0.999 . S
C1538 H1508 0.950 . S
C1538 C1537 1.524 . S
C1538 C1539 1.415 . S
C1539 H1509 0.950 . S
C1539 C1534 1.363 . S
C1539 C1538 1.415 . S
H1540 C1537 0.999 . S
H1541 C1522 0.926 . S
H1542 C1560 0.951 . S
H1543 C1562 0.951 . S
H1544 C1564 0.950 . S
H1545 C1565 0.950 . S
H1546 C1567 0.950 . S
H1547 C1570 0.950 . S
H1548 C1571 0.950 . S
H1549 C1573 0.950 . S
H1550 C1574 0.950 . S
H1551 C1575 0.951 . S
H1552 C1577 0.951 . S
H1553 C1579 0.950 . S
H1554 C1580 0.950 . S
H1555 C1582 0.950 . S
H1556 C1585 0.950 . S
H1557 C1586 0.950 . S
H1558 C1588 0.950 . S
H1559 C1589 0.950 . S
C1560 H1542 0.951 . S
C1560 C1561 1.366 . S
C1560 C1562 1.388 . S
C1561 C1560 1.366 . S
C1561 C1565 1.385 . S
C1562 H1543 0.951 . S
C1562 C1560 1.388 . S
C1562 C1563 1.366 . S
C1563 C1562 1.366 . S
C1563 C1564 1.414 . S
C1563 C1566 1.499 . S
C1564 H1544 0.950 . S
C1564 C1563 1.414 . S
C1564 C1565 1.374 . S
C1565 H1545 0.950 . S
C1565 C1561 1.385 . S
C1565 C1564 1.374 . S
C1566 C1563 1.499 . S
C1566 C1567 1.373 . S
C1566 C1568 1.389 . S
C1567 H1546 0.950 . S
C1567 C1566 1.373 . S
C1567 C1583 1.377 . S
C1568 C1566 1.389 . S
C1568 C1569 1.524 . S
C1568 C1582 1.377 . S
C1569 C1568 1.524 . S
C1569 C1570 1.397 . S
C1569 C1574 1.363 . S
C1570 H1547 0.950 . S
C1570 C1569 1.397 . S
C1570 C1571 1.334 . S
C1571 H1548 0.950 . S
C1571 C1570 1.334 . S
C1571 C1572 1.287 . S
C1572 C1571 1.287 . S
C1572 C1573 1.524 . S
C1572 H1591 0.913 . S
C1573 H1549 0.950 . S
C1573 C1572 1.524 . S
C1573 C1574 1.415 . S
C1574 H1550 0.950 . S
C1574 C1569 1.363 . S
C1574 C1573 1.415 . S
C1575 H1551 0.951 . S
C1575 C1576 1.366 . S
C1575 C1577 1.388 . S
C1576 C1575 1.366 . S
C1576 C1580 1.385 . S
C1577 H1552 0.951 . S
C1577 C1575 1.388 . S
C1577 C1578 1.366 . S
C1578 C1577 1.366 . S
C1578 C1579 1.414 . S
C1578 C1581 1.499 . S
C1579 H1553 0.950 . S
C1579 C1578 1.414 . S
C1579 C1580 1.374 . S
C1580 H1554 0.950 . S
C1580 C1576 1.385 . S
C1580 C1579 1.374 . S
C1581 C1578 1.499 . S
C1581 C1582 1.373 . S
C1581 C1583 1.389 . S
C1582 H1555 0.950 . S
C1582 C1568 1.377 . S
C1582 C1581 1.373 . S
C1583 C1567 1.377 . S
C1583 C1581 1.389 . S
C1583 C1584 1.524 . S
C1584 C1583 1.524 . S
C1584 C1585 1.397 . S
C1584 C1589 1.363 . S
C1585 H1556 0.950 . S
C1585 C1584 1.397 . S
C1585 C1586 1.334 . S
C1586 H1557 0.950 . S
C1586 C1585 1.334 . S
C1586 C1587 1.287 . S
C1587 C1586 1.287 . S
C1587 C1588 1.524 . S
C1587 H1590 0.999 . S
C1588 H1558 0.950 . S
C1588 C1587 1.524 . S
C1588 C1589 1.415 . S
C1589 H1559 0.950 . S
C1589 C1584 1.363 . S
C1589 C1588 1.415 . S
H1590 C1587 0.999 . S
H1591 C1572 0.913 . S
C411 C1 1.552 . S
C426 C314 1.566 . S
C461 C40 1.393 . S
C476 C333 1.368 . S
C526 C370 1.726 . S
C511 C99 1.751 . S
C561 C118 1.665 . S
C576 C380 1.617 . S
C626 C350 2.062 . S
C611 C16 2.033 . S
C676 C320 1.451 . S
C661 C60 1.511 . S
C726 C391 1.490 . S
C711 C79 1.513 . S
C776 C361 1.318 . S
C761 C138 1.342 . S
C811 C21 1.803 . S
C826 C374 1.821 . S
C876 C341 1.711 . S
C861 C94 1.762 . S
C911 C133 1.714 . S
C926 C331 1.709 . S
C961 C55 1.217 . S
C976 C353 1.210 . S
C1026 C313 1.570 . S
C1011 C157 1.561 . S
C1061 C196 1.395 . S
C1076 C334 1.367 . S
C1111 C255 1.747 . S
C1126 C371 1.723 . S
C1161 C289 1.662 . S
C1176 C381 1.612 . S
C1211 C172 2.027 . S
C1226 C351 2.059 . S
C1276 C321 1.452 . S
C1261 C216 1.517 . S
C1326 C390 1.491 . S
C1311 C235 1.513 . S
C1376 C360 1.318 . S
C1361 C294 1.342 . S
C1411 C177 1.815 . S
C1426 C373 1.821 . S
C1476 C340 1.712 . S
C1461 C250 1.764 . S
C1526 C330 1.715 . S
C1511 C274 1.717 . S
C1561 C211 1.211 . S
C1576 C354 1.206 . S
