# Generated by pormake.
# Topology pto, (3,4)-cn, num edge types: 1
# Building blocks:
#     Node 0, Type 0, BuildingBlock: OLANEW_clean_sbu_2, # of connection points: 3
#     Node 1, Type 0, BuildingBlock: OLANEW_clean_sbu_2, # of connection points: 3
#     Node 2, Type 0, BuildingBlock: OLANEW_clean_sbu_2, # of connection points: 3
#     Node 3, Type 0, BuildingBlock: OLANEW_clean_sbu_2, # of connection points: 3
#     Node 4, Type 0, BuildingBlock: OLANEW_clean_sbu_2, # of connection points: 3
#     Node 5, Type 0, BuildingBlock: OLANEW_clean_sbu_2, # of connection points: 3
#     Node 6, Type 0, BuildingBlock: OLANEW_clean_sbu_2, # of connection points: 3
#     Node 7, Type 0, BuildingBlock: OLANEW_clean_sbu_2, # of connection points: 3
#     Node 8, Type 1, BuildingBlock: GIZVER_clean_linker_0, # of connection points: 4
#     Node 9, Type 1, BuildingBlock: GIZVER_clean_linker_0, # of connection points: 4
#     Node 10, Type 1, BuildingBlock: GIZVER_clean_linker_0, # of connection points: 4
#     Node 11, Type 1, BuildingBlock: GIZVER_clean_linker_0, # of connection points: 4
#     Node 12, Type 1, BuildingBlock: GIZVER_clean_linker_0, # of connection points: 4
#     Node 13, Type 1, BuildingBlock: GIZVER_clean_linker_0, # of connection points: 4
#     Edge 14, Type (0, 1), BuildingBlock: CIFDUS_clean_linker_0, # of connection points: 2
#     Edge 15, Type (0, 1), BuildingBlock: CIFDUS_clean_linker_0, # of connection points: 2
#     Edge 16, Type (0, 1), BuildingBlock: CIFDUS_clean_linker_0, # of connection points: 2
#     Edge 17, Type (0, 1), BuildingBlock: CIFDUS_clean_linker_0, # of connection points: 2
#     Edge 18, Type (0, 1), BuildingBlock: CIFDUS_clean_linker_0, # of connection points: 2
#     Edge 19, Type (0, 1), BuildingBlock: CIFDUS_clean_linker_0, # of connection points: 2
#     Edge 20, Type (0, 1), BuildingBlock: CIFDUS_clean_linker_0, # of connection points: 2
#     Edge 21, Type (0, 1), BuildingBlock: CIFDUS_clean_linker_0, # of connection points: 2
#     Edge 22, Type (0, 1), BuildingBlock: CIFDUS_clean_linker_0, # of connection points: 2
#     Edge 23, Type (0, 1), BuildingBlock: CIFDUS_clean_linker_0, # of connection points: 2
#     Edge 24, Type (0, 1), BuildingBlock: CIFDUS_clean_linker_0, # of connection points: 2
#     Edge 25, Type (0, 1), BuildingBlock: CIFDUS_clean_linker_0, # of connection points: 2
#     Edge 26, Type (0, 1), BuildingBlock: CIFDUS_clean_linker_0, # of connection points: 2
#     Edge 27, Type (0, 1), BuildingBlock: CIFDUS_clean_linker_0, # of connection points: 2
#     Edge 28, Type (0, 1), BuildingBlock: CIFDUS_clean_linker_0, # of connection points: 2
#     Edge 29, Type (0, 1), BuildingBlock: CIFDUS_clean_linker_0, # of connection points: 2
#     Edge 30, Type (0, 1), BuildingBlock: CIFDUS_clean_linker_0, # of connection points: 2
#     Edge 31, Type (0, 1), BuildingBlock: CIFDUS_clean_linker_0, # of connection points: 2
#     Edge 32, Type (0, 1), BuildingBlock: CIFDUS_clean_linker_0, # of connection points: 2
#     Edge 33, Type (0, 1), BuildingBlock: CIFDUS_clean_linker_0, # of connection points: 2
#     Edge 34, Type (0, 1), BuildingBlock: CIFDUS_clean_linker_0, # of connection points: 2
#     Edge 35, Type (0, 1), BuildingBlock: CIFDUS_clean_linker_0, # of connection points: 2
#     Edge 36, Type (0, 1), BuildingBlock: CIFDUS_clean_linker_0, # of connection points: 2
#     Edge 37, Type (0, 1), BuildingBlock: CIFDUS_clean_linker_0, # of connection points: 2
# Relax obj value: 0.017
# Max RMSD: 0.160
# Mean RMSD: 0.072
data_MOF--net-pto--node1-OLANEW_clean_sbu_2--node2-GIZVER_clean_linker_0--edge1-CIFDUS_clean_linker_0
_symmetry_space_group_name_H-M    P1
_symmetry_Int_Tables_number       1
_symmetry_cell_setting            triclinic
loop_
_symmetry_equiv_pos_as_xyz
'x, y, z'
_cell_length_a     46.072635
_cell_length_b     39.255944
_cell_length_c     27.854819
_cell_angle_alpha  94.320285
_cell_angle_beta   89.982338
_cell_angle_gamma 100.51145
loop_
_atom_site_label
_atom_site_type_symbol
_atom_site_fract_x
_atom_site_fract_y
_atom_site_fract_z
_atom_type_partial_charge
O0 O 0.27525 0.31209 0.10154 0.0
Cd1 Cd 0.22637 0.28837 0.13112 0.0
O2 O 0.28188 0.35275 0.16147 0.0
Cd3 Cd 0.23493 0.35015 0.17706 0.0
O4 O 0.19614 0.37354 0.19445 0.0
C5 C 0.17743 0.37699 0.16243 0.0
O6 O 0.18036 0.36404 0.11817 0.0
C7 C 0.29222 0.33622 0.12642 0.0
C8 C 0.23822 0.25665 0.21316 0.0
O9 O 0.23312 0.23865 0.17274 0.0
O10 O 0.23595 0.28875 0.21503 0.0
O11 O 0.30106 0.96247 0.92081 0.0
Cd12 Cd 0.26651 0.00111 0.90617 0.0
O13 O 0.26669 0.91972 0.89282 0.0
Cd14 Cd 0.24425 0.86718 0.8687 0.0
O15 O 0.21659 0.81681 0.84848 0.0
C16 C 0.21333 0.79297 0.87751 0.0
O17 O 0.2271 0.79899 0.91945 0.0
C18 C 0.2927 0.93014 0.90989 0.0
C19 C 0.26496 0.00932 0.80788 0.0
O20 O 0.28262 0.03068 0.83629 0.0
O21 O 0.24748 0.98458 0.82623 0.0
O22 O 0.81684 0.82741 0.25823 0.0
Cd23 Cd 0.80974 0.77891 0.19635 0.0
O24 O 0.76963 0.83002 0.26703 0.0
Cd25 Cd 0.74851 0.7869 0.21765 0.0
O26 O 0.70775 0.76782 0.17619 0.0
C27 C 0.68294 0.76349 0.1972 0.0
O28 O 0.68244 0.76785 0.24441 0.0
C29 C 0.79664 0.84171 0.27767 0.0
C30 C 0.84468 0.72894 0.20973 0.0
O31 O 0.85531 0.75695 0.19009 0.0
O32 O 0.81784 0.72488 0.22372 0.0
O33 O 0.85283 0.39224 0.84076 0.0
Cd34 Cd 0.80775 0.35062 0.85471 0.0
O35 O 0.83496 0.43795 0.86949 0.0
Cd36 Cd 0.78891 0.41277 0.87675 0.0
O37 O 0.74202 0.4121 0.8909 0.0
C38 C 0.73357 0.44127 0.89482 0.0
O39 O 0.75297 0.46959 0.88892 0.0
C40 C 0.85641 0.42464 0.85274 0.0
C41 C 0.80818 0.28824 0.7999 0.0
O42 O 0.79434 0.31109 0.78522 0.0
O43 O 0.82147 0.29462 0.84088 0.0
O44 O 0.81782 0.79561 0.70555 0.0
Cd45 Cd 0.81536 0.73373 0.7142 0.0
O46 O 0.77024 0.79045 0.71752 0.0
Cd47 Cd 0.72708 0.80616 0.72767 0.0
O48 O 0.68409 0.81753 0.75038 0.0
C49 C 0.66047 0.79521 0.74312 0.0
O50 O 0.66184 0.7652 0.71976 0.0
C51 C 0.79489 0.80941 0.70865 0.0
C52 C 0.87038 0.71445 0.72501 0.0
O53 O 0.8591 0.715 0.68307 0.0
O54 O 0.8559 0.72366 0.76156 0.0
O55 O 0.84013 0.33707 0.20811 0.0
Cd56 Cd 0.80747 0.28067 0.19228 0.0
O57 O 0.80465 0.36295 0.23763 0.0
Cd58 Cd 0.76747 0.31942 0.23123 0.0
O59 O 0.71987 0.30713 0.21708 0.0
C60 C 0.70394 0.32507 0.24164 0.0
O61 O 0.71647 0.3472 0.27662 0.0
C62 C 0.83149 0.36425 0.22586 0.0
C63 C 0.80304 0.23977 0.27037 0.0
O64 O 0.82386 0.23928 0.23994 0.0
O65 O 0.78444 0.25966 0.26387 0.0
O66 O 0.37105 0.47098 0.78449 0.0
Cd67 Cd 0.3279 0.43978 0.7373 0.0
O68 O 0.4028 0.44875 0.73857 0.0
Cd69 Cd 0.36886 0.41667 0.69264 0.0
O70 O 0.34714 0.36628 0.66063 0.0
C71 C 0.36249 0.34242 0.65915 0.0
O72 O 0.38968 0.34976 0.67625 0.0
C73 C 0.39758 0.46811 0.77497 0.0
C74 C 0.2769 0.46878 0.74646 0.0
O75 O 0.28449 0.45066 0.77908 0.0
O76 O 0.29362 0.47372 0.70989 0.0
O77 O 0.40027 0.73079 0.34835 0.0
Cd78 Cd 0.38649 0.73588 0.43252 0.0
O79 O 0.35379 0.73024 0.33114 0.0
Cd80 Cd 0.31527 0.72715 0.28362 0.0
O81 O 0.27415 0.70579 0.24379 0.0
C82 C 0.2488 0.7085 0.26013 0.0
O83 O 0.24698 0.72629 0.30156 0.0
C84 C 0.3802 0.73092 0.31719 0.0
C85 C 0.36532 0.79796 0.44696 0.0
O86 O 0.39299 0.79741 0.44965 0.0
O87 O 0.34747 0.76896 0.43888 0.0
H88 H 0.98784 0.51231 0.16315 0.0
H89 H 0.99193 0.62181 0.15833 0.0
H90 H 0.92868 0.56383 0.24887 0.0
H91 H 0.01227 0.5484 0.0956 0.0
H92 H 0.02311 0.59412 0.10808 0.0
H93 H 0.03865 0.50769 0.13145 0.0
H94 H 0.12388 0.55022 0.19447 0.0
H95 H 0.06349 0.6181 0.167 0.0
C96 C 0.98047 0.53576 0.17694 0.0
C97 C 0.95587 0.53374 0.20725 0.0
C98 C 0.99447 0.56781 0.16122 0.0
C99 C 0.98274 0.59786 0.17407 0.0
C100 C 0.95801 0.59642 0.20406 0.0
C101 C 0.94641 0.56472 0.22325 0.0
C102 C 0.0191 0.56899 0.12518 0.0
C103 C 0.04752 0.56342 0.14779 0.0
C104 C 0.05435 0.52979 0.1468 0.0
C105 C 0.08173 0.52477 0.16435 0.0
C106 C 0.10228 0.55371 0.18248 0.0
C107 C 0.09604 0.58735 0.18325 0.0
C108 C 0.06831 0.59208 0.16703 0.0
H109 H 0.08295 0.62533 0.72384 0.0
H110 H 0.10458 0.52541 0.6804 0.0
H111 H 0.16494 0.59981 0.76976 0.0
H112 H 0.06507 0.58245 0.63941 0.0
H113 H 0.0597 0.53799 0.65193 0.0
H114 H 0.03259 0.61941 0.67213 0.0
H115 H 0.9602 0.57577 0.75836 0.0
H116 H 0.02974 0.51843 0.7252 0.0
C117 C 0.09755 0.60671 0.72548 0.0
C118 C 0.12444 0.61618 0.75115 0.0
C119 C 0.08986 0.5737 0.70065 0.0
C120 C 0.10971 0.55036 0.70098 0.0
C121 C 0.13665 0.55954 0.72645 0.0
C122 C 0.14355 0.59217 0.752 0.0
C123 C 0.06233 0.56488 0.66925 0.0
C124 C 0.03464 0.56881 0.69661 0.0
C125 C 0.02204 0.59872 0.69338 0.0
C126 C 0.9955 0.6016 0.71669 0.0
C127 C 0.98161 0.57433 0.74298 0.0
C128 C 0.99355 0.54416 0.74636 0.0
C129 C 0.02035 0.5417 0.72338 0.0
H130 H 0.31057 0.10705 0.37394 0.0
H131 H 0.35661 0.1319 0.50973 0.0
H132 H 0.30005 0.19857 0.46216 0.0
H133 H 0.34601 0.07393 0.39532 0.0
H134 H 0.37149 0.09057 0.44366 0.0
H135 H 0.35353 0.01652 0.41571 0.0
H136 H 0.31525 0.97511 0.54431 0.0
H137 H 0.31585 0.08168 0.52079 0.0
C138 C 0.31478 0.12349 0.40712 0.0
C139 C 0.30334 0.15441 0.41316 0.0
C140 C 0.33335 0.11476 0.44257 0.0
C141 C 0.34117 0.13779 0.48359 0.0
C142 C 0.3289 0.16789 0.49129 0.0
C143 C 0.30937 0.17524 0.45655 0.0
C144 C 0.34761 0.08301 0.43422 0.0
C145 C 0.33512 0.05266 0.46352 0.0
C146 C 0.34171 0.01985 0.4489 0.0
C147 C 0.33403 0.9916 0.47736 0.0
C148 C 0.31969 0.99635 0.52105 0.0
C149 C 0.31347 0.02895 0.53701 0.0
C150 C 0.32085 0.05683 0.50785 0.0
H151 H 0.46179 0.85574 0.9578 0.0
H152 H 0.47055 0.80395 0.08595 0.0
H153 H 0.38449 0.81294 0.03497 0.0
H154 H 0.50873 0.86359 -0.00254 0.0
H155 H 0.51082 0.84977 0.05654 0.0
H156 H 0.50799 0.81874 0.92514 0.0
H157 H 0.56639 0.74747 0.9455 0.0
H158 H 0.53795 0.80588 0.06766 0.0
C159 C 0.45158 0.84099 0.98667 0.0
C160 C 0.42074 0.83583 0.9921 0.0
C161 C 0.4696 0.82917 0.02013 0.0
C162 C 0.4565 0.81122 0.05877 0.0
C163 C 0.42568 0.80536 0.0645 0.0
C164 C 0.40812 0.81684 0.0301 0.0
C165 C 0.50272 0.84078 0.01927 0.0
C166 C 0.51845 0.81235 -0.00075 0.0
C167 C 0.51927 0.80478 0.9491 0.0
C168 C 0.53673 0.78147 0.92976 0.0
C169 C 0.5525 0.7649 0.96086 0.0
C170 C 0.55457 0.77486 0.01034 0.0
C171 C 0.53635 0.79746 0.02966 0.0
H172 H 0.84157 0.09222 0.47709 0.0
H173 H 0.82626 0.10496 0.62927 0.0
H174 H 0.80373 0.17838 0.53527 0.0
H175 H 0.86894 0.06467 0.53707 0.0
H176 H 0.85862 0.0661 0.59892 0.0
H177 H 0.83332 0.03018 0.47366 0.0
H178 H 0.77698 0.94108 0.52357 0.0
H179 H 0.82141 0.02091 0.6261 0.0
C180 C 0.83333 0.10631 0.50748 0.0
C181 C 0.82133 0.13596 0.50026 0.0
C182 C 0.83513 0.09494 0.5539 0.0
C183 C 0.82473 0.11353 0.59342 0.0
C184 C 0.81295 0.14348 0.58685 0.0
C185 C 0.81139 0.15435 0.54021 0.0
C186 C 0.84977 0.06432 0.56146 0.0
C187 C 0.82852 0.03045 0.55107 0.0
C188 C 0.82254 0.01669 0.50319 0.0
C189 C 0.8034 0.98486 0.49346 0.0
C190 C 0.79038 0.96665 0.53149 0.0
C191 C 0.79713 0.97903 0.57941 0.0
C192 C 0.81583 0.01134 0.58912 0.0
H193 H 0.51799 0.49671 0.02448 0.0
H194 H 0.48702 0.42654 0.13354 0.0
H195 H 0.4272 0.44615 0.02501 0.0
H196 H 0.54862 0.49562 0.09453 0.0
H197 H 0.53326 0.47363 0.14506 0.0
H198 H 0.56358 0.45772 0.02085 0.0
H199 H 0.60845 0.37898 0.06624 0.0
H200 H 0.55115 0.42363 0.16419 0.0
C201 C 0.50043 0.47889 0.04019 0.0
C202 C 0.47184 0.47355 0.02047 0.0
C203 C 0.50606 0.46209 0.0813 0.0
C204 C 0.48292 0.43923 0.10163 0.0
C205 C 0.4545 0.43296 0.08082 0.0
C206 C 0.44927 0.45037 0.04061 0.0
C207 C 0.53609 0.47045 0.1054 0.0
C208 C 0.55402 0.44246 0.09305 0.0
C209 C 0.56719 0.44016 0.04754 0.0
C210 C 0.58625 0.4165 0.03747 0.0
C211 C 0.59195 0.39516 0.07309 0.0
C212 C 0.57987 0.39774 0.11916 0.0
C213 C 0.5603 0.42097 0.12855 0.0
H214 H 0.13694 0.39389 0.10117 0.0
H215 H 0.16858 0.41148 0.24851 0.0
H216 H 0.13816 0.45571 0.26382 0.0
H217 H 0.10743 0.49427 0.23291 0.0
H218 H 0.07702 0.47846 0.08519 0.0
H219 H 0.10141 0.42814 0.07285 0.0
C220 C 0.13686 0.40701 0.13684 0.0
C221 C 0.15545 0.39971 0.17338 0.0
C222 C 0.11954 0.43283 0.14533 0.0
C223 C 0.15478 0.41676 0.21952 0.0
C224 C 0.13739 0.44215 0.22835 0.0
C225 C 0.10577 0.47941 0.19825 0.0
C226 C 0.09073 0.49024 0.15989 0.0
C227 C 0.12044 0.45114 0.19115 0.0
C228 C 0.08835 0.47054 0.11535 0.0
C229 C 0.10256 0.44199 0.10815 0.0
H230 H 0.17709 0.77465 0.79907 0.0
H231 H 0.20858 0.73379 0.9248 0.0
H232 H 0.18127 0.67598 0.89917 0.0
H233 H 0.1513 0.63629 0.83825 0.0
H234 H 0.12082 0.6769 0.71165 0.0
H235 H 0.14418 0.73566 0.74112 0.0
C236 C 0.17788 0.75314 0.82101 0.0
C237 C 0.19517 0.75849 0.86349 0.0
C238 C 0.16215 0.71994 0.80605 0.0
C239 C 0.19561 0.7304 0.89179 0.0
C240 C 0.18 0.69731 0.87717 0.0
C241 C 0.14959 0.65807 0.81732 0.0
C242 C 0.13451 0.65218 0.7727 0.0
C243 C 0.16362 0.69167 0.83396 0.0
C244 C 0.13206 0.68071 0.74632 0.0
C245 C 0.14569 0.71429 0.7629 0.0
H246 H 0.90475 0.73497 0.20923 0.0
H247 H 0.82393 0.66052 0.21917 0.0
H248 H 0.85193 0.61351 0.21962 0.0
H249 H 0.89852 0.59321 0.21173 0.0
H250 H 0.98035 0.66711 0.20873 0.0
H251 H 0.95261 0.71462 0.20998 0.0
C252 C 0.89334 0.70846 0.2118 0.0
C253 C 0.86227 0.70123 0.21377 0.0
C254 C 0.90966 0.68146 0.2128 0.0
C255 C 0.84779 0.66683 0.21765 0.0
C256 C 0.86379 0.63989 0.21774 0.0
C257 C 0.91064 0.61965 0.21288 0.0
C258 C 0.94174 0.6262 0.21018 0.0
C259 C 0.89466 0.64688 0.21481 0.0
C260 C 0.9565 0.66093 0.21002 0.0
C261 C 0.94063 0.68823 0.21101 0.0
H262 H 0.89981 0.41333 0.78999 0.0
H263 H 0.87734 0.48753 0.89957 0.0
H264 H 0.92168 0.52878 0.88216 0.0
H265 H 0.96323 0.54644 0.82967 0.0
H266 H 0.98305 0.47517 0.71408 0.0
H267 H 0.94435 0.42968 0.74126 0.0
C268 C 0.90491 0.43831 0.81053 0.0
C269 C 0.88513 0.44752 0.84563 0.0
C270 C 0.93008 0.46242 0.79933 0.0
C271 C 0.89198 0.48 0.87192 0.0
C272 C 0.91738 0.50358 0.86209 0.0
C273 C 0.95931 0.5208 0.81072 0.0
C274 C 0.97569 0.51443 0.76944 0.0
C275 C 0.93604 0.49548 0.82489 0.0
C276 C 0.97086 0.48083 0.74603 0.0
C277 C 0.94843 0.45492 0.76119 0.0
H278 H 0.23275 0.18827 0.23188 0.0
H279 H 0.26962 0.29268 0.28842 0.0
H280 H 0.29339 0.27002 0.35382 0.0
H281 H 0.30621 0.2214 0.39166 0.0
H282 H 0.26561 0.11639 0.34295 0.0
H283 H 0.24174 0.13853 0.27642 0.0
C284 C 0.24574 0.20596 0.25888 0.0
C285 C 0.24948 0.24209 0.25523 0.0
C286 C 0.25907 0.19274 0.29716 0.0
C287 C 0.26623 0.26478 0.29053 0.0
C288 C 0.28001 0.25186 0.32779 0.0
C289 C 0.29139 0.20308 0.36779 0.0
C290 C 0.28757 0.16713 0.37316 0.0
C291 C 0.27681 0.21596 0.33112 0.0
C292 C 0.26931 0.14416 0.33978 0.0
C293 C 0.25542 0.15682 0.30188 0.0
H294 H 0.35235 0.94546 0.91398 0.0
H295 H 0.27922 0.86061 0.9252 0.0
H296 H 0.31324 0.8221 0.94184 0.0
H297 H 0.36334 0.81395 0.96106 0.0
H298 H 0.43558 0.90132 0.96086 0.0
H299 H 0.40265 0.93673 0.93036 0.0
C300 C 0.34384 0.91845 0.91969 0.0
C301 C 0.3132 0.90587 0.91734 0.0
C302 C 0.36352 0.89674 0.93111 0.0
C303 C 0.30261 0.87082 0.92492 0.0
C304 C 0.32212 0.84882 0.93516 0.0
C305 C 0.37199 0.84072 0.95433 0.0
C306 C 0.40201 0.85481 0.964 0.0
C307 C 0.35257 0.8617 0.93931 0.0
C308 C 0.41279 0.88933 0.95343 0.0
C309 C 0.39382 0.90992 0.93662 0.0
H310 H 0.75987 0.88323 0.31487 0.0
H311 H 0.85052 0.86893 0.31979 0.0
H312 H 0.86179 0.91671 0.38237 0.0
H313 H 0.84448 0.9583 0.44163 0.0
H314 H 0.75335 0.96993 0.43906 0.0
H315 H 0.74372 0.92798 0.36872 0.0
C316 C 0.78217 0.89063 0.32935 0.0
C317 C 0.80421 0.87214 0.31315 0.0
C318 C 0.78842 0.91788 0.36546 0.0
C319 C 0.83307 0.88249 0.33189 0.0
C320 C 0.83954 0.90985 0.36764 0.0
C321 C 0.82281 0.95239 0.42448 0.0
C322 C 0.79969 0.96731 0.44465 0.0
C323 C 0.81725 0.92724 0.38538 0.0
C324 C 0.77146 0.95899 0.42336 0.0
C325 C 0.76593 0.93477 0.38362 0.0
H326 H 0.68577 0.38909 0.89759 0.0
H327 H 0.71371 0.49951 0.92969 0.0
H328 H 0.66689 0.50284 0.96896 0.0
H329 H 0.62167 0.47278 0.00548 0.0
H330 H 0.59417 0.36235 0.9749 0.0
H331 H 0.63662 0.36075 0.92263 0.0
C332 C 0.68142 0.41396 0.91255 0.0
C333 C 0.70347 0.44384 0.91163 0.0
C334 C 0.65445 0.4157 0.93532 0.0
C335 C 0.69728 0.47599 0.93036 0.0
C336 C 0.67048 0.47795 0.95291 0.0
C337 C 0.62435 0.44866 0.98579 0.0
C338 C 0.605 0.4177 0.99417 0.0
C339 C 0.64934 0.44778 0.95709 0.0
C340 C 0.60889 0.38649 0.96894 0.0
C341 C 0.63332 0.38551 0.93953 0.0
H342 H 0.29781 0.05993 0.75913 0.0
H343 H 0.2351 0.96373 0.73805 0.0
H344 H 0.24209 0.96346 0.65118 0.0
H345 H 0.26971 0.98744 0.58215 0.0
H346 H 0.33362 0.08254 0.6038 0.0
H347 H 0.32189 0.08679 0.6892 0.0
C348 C 0.28539 0.03912 0.73552 0.0
C349 C 0.26626 0.01167 0.75513 0.0
C350 C 0.28973 0.03892 0.68563 0.0
C351 C 0.25012 0.98508 0.72396 0.0
C352 C 0.25415 0.98485 0.67425 0.0
C353 C 0.28083 0.00926 0.60553 0.0
C354 C 0.30265 0.03444 0.58671 0.0
C355 C 0.27448 0.01114 0.65483 0.0
C356 C 0.31656 0.06291 0.61723 0.0
C357 C 0.31008 0.06519 0.66621 0.0
H358 H 0.67736 0.76286 0.10039 0.0
H359 H 0.62601 0.75421 0.2299 0.0
H360 H 0.58099 0.75406 0.1832 0.0
H361 H 0.55682 0.761 0.1059 0.0
H362 H 0.61057 0.7744 0.97899 0.0
H363 H 0.65349 0.76735 0.02415 0.0
C364 C 0.65631 0.7605 0.11847 0.0
C365 C 0.65517 0.75882 0.16861 0.0
C366 C 0.63071 0.76125 0.09172 0.0
C367 C 0.6276 0.75572 0.1913 0.0
C368 C 0.60182 0.75575 0.16464 0.0
C369 C 0.57788 0.76218 0.08812 0.0
C370 C 0.57998 0.76759 0.03869 0.0
C371 C 0.60319 0.75931 0.11487 0.0
C372 C 0.60765 0.76907 0.01643 0.0
C373 C 0.63254 0.76551 0.04242 0.0
H374 H 0.77197 0.25897 0.72537 0.0
H375 H 0.84871 0.24591 0.80569 0.0
H376 H 0.85529 0.19715 0.74937 0.0
H377 H 0.84218 0.16236 0.67261 0.0
H378 H 0.76454 0.17452 0.59383 0.0
H379 H 0.75527 0.21931 0.65443 0.0
C380 C 0.78996 0.24522 0.73079 0.0
C381 C 0.81005 0.25632 0.7692 0.0
C382 C 0.79355 0.21716 0.69842 0.0
C383 C 0.833 0.23795 0.77625 0.0
C384 C 0.83683 0.21012 0.74399 0.0
C385 C 0.82281 0.17414 0.66933 0.0
C386 C 0.80437 0.1655 0.62831 0.0
C387 C 0.81762 0.2 0.70432 0.0
C388 C 0.77944 0.18122 0.62456 0.0
C389 C 0.7741 0.20683 0.6592 0.0
H390 H 0.33654 0.37498 0.18221 0.0
H391 H 0.31878 0.3194 0.04251 0.0
H392 H 0.36948 0.34054 0.01866 0.0
H393 H 0.41694 0.37992 0.03431 0.0
H394 H 0.4347 0.43637 0.17305 0.0
H395 H 0.38619 0.40899 0.2011 0.0
C396 C 0.34383 0.36725 0.14667 0.0
C397 C 0.32373 0.34612 0.11387 0.0
C398 C 0.37304 0.37951 0.13318 0.0
C399 C 0.33369 0.33584 0.06831 0.0
C400 C 0.36269 0.34793 0.05462 0.0
C401 C 0.41037 0.38557 0.07104 0.0
C402 C 0.42914 0.41022 0.10156 0.0
C403 C 0.38228 0.37045 0.08632 0.0
C404 C 0.42064 0.41729 0.14911 0.0
C405 C 0.39279 0.40197 0.16488 0.0
H406 H 0.9065 0.69375 0.65518 0.0
H407 H 0.89672 0.70519 0.80944 0.0
H408 H 0.93822 0.67585 0.82055 0.0
H409 H 0.97296 0.64047 0.78641 0.0
H410 H 0.98205 0.62705 0.63252 0.0
H411 H 0.94584 0.66446 0.62129 0.0
C412 C 0.91372 0.69027 0.69125 0.0
C413 C 0.89816 0.70117 0.73138 0.0
C414 C 0.93752 0.67303 0.69745 0.0
C415 C 0.90804 0.69679 0.77787 0.0
C416 C 0.9318 0.67997 0.78431 0.0
C417 C 0.96745 0.64643 0.75048 0.0
C418 C 0.9799 0.63087 0.71034 0.0
C419 C 0.94608 0.66706 0.74436 0.0
C420 C 0.97286 0.63891 0.66396 0.0
C421 C 0.95189 0.65995 0.65755 0.0
H422 H 0.89212 0.37756 0.22567 0.0
H423 H 0.81607 0.4278 0.23183 0.0
H424 H 0.84788 0.48414 0.22824 0.0
H425 H 0.89614 0.51843 0.21681 0.0
H426 H 0.97363 0.4708 0.2176 0.0
H427 H 0.94217 0.41402 0.2238 0.0
C428 C 0.8826 0.40091 0.22667 0.0
C429 C 0.85171 0.39835 0.22864 0.0
C430 C 0.90114 0.43361 0.22521 0.0
C431 C 0.83972 0.42889 0.23039 0.0
C432 C 0.85789 0.46119 0.22813 0.0
C433 C 0.90658 0.49609 0.21999 0.0
C434 C 0.93749 0.49938 0.21677 0.0
C435 C 0.88853 0.46378 0.22484 0.0
C436 C 0.94996 0.46932 0.21919 0.0
C437 C 0.93196 0.43676 0.22303 0.0
H438 H 0.24266 0.48305 0.6741 0.0
H439 H 0.24979 0.48695 0.82886 0.0
H440 H 0.20574 0.51348 0.83656 0.0
H441 H 0.16663 0.5383 0.7991 0.0
H442 H 0.15819 0.53193 0.64443 0.0
H443 H 0.20091 0.50301 0.63675 0.0
C444 C 0.2345 0.48969 0.70947 0.0
C445 C 0.24963 0.48353 0.75086 0.0
C446 C 0.20882 0.50423 0.71359 0.0
C447 C 0.23856 0.4916 0.79649 0.0
C448 C 0.2134 0.50677 0.80091 0.0
C449 C 0.17398 0.53011 0.7638 0.0
C450 C 0.15939 0.53721 0.72239 0.0
C451 C 0.19852 0.51351 0.75971 0.0
C452 C 0.16892 0.52639 0.6768 0.0
C453 C 0.1935 0.51017 0.6724 0.0
H454 H 0.1913 0.70546 0.28707 0.0
H455 H 0.2456 0.66629 0.17726 0.0
H456 H 0.20234 0.6279 0.1413 0.0
H457 H 0.15011 0.60148 0.14516 0.0
H458 H 0.09521 0.63928 0.25443 0.0
H459 H 0.13754 0.68262 0.2861 0.0
C460 C 0.19362 0.68882 0.25495 0.0
C461 C 0.22181 0.68849 0.23535 0.0
C462 C 0.16856 0.6665 0.23447 0.0
C463 C 0.22431 0.66695 0.19345 0.0
C464 C 0.19956 0.6449 0.17281 0.0
C465 C 0.1474 0.61955 0.17557 0.0
C466 C 0.11982 0.61711 0.19789 0.0
C467 C 0.17177 0.64387 0.19368 0.0
C468 C 0.11631 0.64081 0.23679 0.0
C469 C 0.14053 0.66535 0.25501 0.0
H470 H 0.75264 0.84175 0.67332 0.0
H471 H 0.84353 0.86011 0.72134 0.0
H472 H 0.85084 0.91858 0.69381 0.0
H473 H 0.83339 0.96038 0.64479 0.0
H474 H 0.74264 0.94154 0.59631 0.0
H475 H 0.73275 0.88806 0.63791 0.0
C476 C 0.77362 0.85897 0.68003 0.0
C477 C 0.79739 0.84654 0.69976 0.0
C478 C 0.77771 0.89254 0.66391 0.0
C479 C 0.82488 0.86895 0.70596 0.0
C480 C 0.82909 0.90244 0.69031 0.0
C481 C 0.81117 0.94532 0.64507 0.0
C482 C 0.78883 0.95464 0.61726 0.0
C483 C 0.80593 0.91404 0.66769 0.0
C484 C 0.7602 0.93468 0.61736 0.0
C485 C 0.75463 0.90396 0.6407 0.0
H486 H 0.66964 0.3718 0.27171 0.0
H487 H 0.67045 0.28189 0.17278 0.0
H488 H 0.62609 0.2922 0.13264 0.0
H489 H 0.59321 0.33272 0.11653 0.0
H490 H 0.59666 0.42631 0.20981 0.0
H491 H 0.632 0.40772 0.26248 0.0
C492 C 0.65977 0.35396 0.24207 0.0
C493 C 0.67374 0.32654 0.22463 0.0
C494 C 0.6349 0.36079 0.21802 0.0
C495 C 0.66043 0.30352 0.18647 0.0
C496 C 0.63506 0.30943 0.16343 0.0
C497 C 0.60124 0.3487 0.14897 0.0
C498 C 0.59275 0.38124 0.15848 0.0
C499 C 0.62301 0.33893 0.17746 0.0
C500 C 0.60272 0.40117 0.20137 0.0
C501 C 0.62336 0.3908 0.23122 0.0
H502 H 0.39348 0.29241 0.62939 0.0
H503 H 0.30505 0.31434 0.63652 0.0
H504 H 0.28614 0.25875 0.59184 0.0
H505 H 0.29539 0.2068 0.54462 0.0
H506 H 0.38467 0.18838 0.52977 0.0
H507 H 0.40233 0.23876 0.58557 0.0
C508 C 0.37002 0.28486 0.62165 0.0
C509 C 0.35073 0.3076 0.63579 0.0
C510 C 0.35942 0.25332 0.59487 0.0
C511 C 0.32039 0.29745 0.62552 0.0
C512 C 0.30956 0.26565 0.6001 0.0
C513 C 0.31873 0.21374 0.55358 0.0
C514 C 0.33867 0.19404 0.53229 0.0
C515 C 0.32899 0.24383 0.58356 0.0
C516 C 0.3687 0.2028 0.54569 0.0
C517 C 0.37892 0.23195 0.57716 0.0
H518 H 0.35839 0.77091 0.25737 0.0
H519 H 0.42176 0.70324 0.26542 0.0
H520 H 0.44031 0.71831 0.18577 0.0
H521 H 0.44052 0.75399 0.11633 0.0
H522 H 0.38031 0.82649 0.11496 0.0
H523 H 0.35816 0.80564 0.18853 0.0
C524 C 0.37566 0.75868 0.24103 0.0
C525 C 0.38831 0.73552 0.26659 0.0
C526 C 0.38693 0.76854 0.19638 0.0
C527 C 0.41151 0.72091 0.24598 0.0
C528 C 0.4222 0.72966 0.20064 0.0
C529 C 0.42258 0.76525 0.13212 0.0
C530 C 0.41191 0.7914 0.10921 0.0
C531 C 0.41049 0.75408 0.17593 0.0
C532 C 0.38853 0.80556 0.13045 0.0
C533 C 0.37594 0.79393 0.17306 0.0
H534 H 0.84285 0.20233 0.30082 0.0
H535 H 0.75801 0.22947 0.33419 0.0
H536 H 0.75506 0.19689 0.40576 0.0
H537 H 0.77755 0.1633 0.46094 0.0
H538 H 0.86378 0.1392 0.43078 0.0
H539 H 0.86475 0.16702 0.35513 0.0
C540 C 0.82363 0.20093 0.32358 0.0
C541 C 0.80078 0.21851 0.31233 0.0
C542 C 0.82224 0.18253 0.36512 0.0
C543 C 0.77601 0.2164 0.34218 0.0
C544 C 0.77427 0.19773 0.3831 0.0
C545 C 0.79662 0.16418 0.4379 0.0
C546 C 0.82065 0.14941 0.45182 0.0
C547 C 0.79744 0.18115 0.39527 0.0
C548 C 0.84484 0.15005 0.42087 0.0
C549 C 0.84555 0.16628 0.37779 0.0
H550 H 0.39468 0.50844 0.85822 0.0
H551 H 0.45442 0.4568 0.77295 0.0
H552 H 0.48771 0.46154 0.84196 0.0
H553 H 0.49331 0.46738 0.93042 0.0
H554 H 0.43242 0.51659 0.01583 0.0
H555 H 0.40664 0.5266 0.94308 0.0
C556 C 0.41539 0.49916 0.85429 0.0
C557 C 0.42149 0.48124 0.81094 0.0
C558 C 0.43416 0.50116 0.89452 0.0
C559 C 0.44879 0.47008 0.80619 0.0
C560 C 0.46786 0.4726 0.84579 0.0
C561 C 0.47523 0.48166 0.93276 0.0
C562 C 0.46442 0.49083 0.97806 0.0
C563 C 0.45985 0.48616 0.89081 0.0
C564 C 0.44089 0.50916 0.98106 0.0
C565 C 0.42599 0.51457 0.93953 0.0
H566 H 0.39674 0.86254 0.43766 0.0
H567 H 0.30928 0.80779 0.46684 0.0
H568 H 0.29145 0.86287 0.47634 0.0
H569 H 0.30116 0.92677 0.47887 0.0
H570 H 0.38842 0.98122 0.44817 0.0
H571 H 0.40577 0.92602 0.43576 0.0
C572 C 0.37379 0.86267 0.44619 0.0
C573 C 0.35444 0.8312 0.45211 0.0
C574 C 0.36361 0.89434 0.45089 0.0
C575 C 0.32465 0.83171 0.46233 0.0
C576 C 0.31443 0.86317 0.46773 0.0
C577 C 0.32392 0.92645 0.46917 0.0
C578 C 0.34349 0.95797 0.46448 0.0
C579 C 0.33377 0.89465 0.4624 0.0
C580 C 0.37286 0.95727 0.45144 0.0
C581 C 0.38285 0.92575 0.44479 0.0
H582 H 0.61035 0.74763 0.75418 0.0
H583 H 0.64863 0.85577 0.78654 0.0
H584 H 0.60746 0.86295 0.83904 0.0
H585 H 0.56642 0.83591 0.88738 0.0
H586 H 0.53125 0.72666 0.8618 0.0
H587 H 0.56451 0.72265 0.79383 0.0
C588 C 0.60936 0.77296 0.77185 0.0
C589 C 0.63286 0.80095 0.76717 0.0
C590 C 0.58604 0.77666 0.80323 0.0
C591 C 0.6311 0.83364 0.79011 0.0
C592 C 0.60753 0.8378 0.82015 0.0
C593 C 0.56509 0.81164 0.86537 0.0
C594 C 0.54635 0.78167 0.87914 0.0
C595 C 0.58559 0.80915 0.82858 0.0
C596 C 0.54527 0.75011 0.85129 0.0
C597 C 0.56464 0.74774 0.81302 0.0
loop_
_geom_bond_atom_site_label_1
_geom_bond_atom_site_label_2
_geom_bond_distance
_geom_bond_site_symmetry_2
_ccdc_geom_bond_type
O0 Cd1 2.300 . S
O0 C7 1.275 . S
Cd1 O0 2.300 . S
Cd1 O9 2.381 . S
Cd1 O10 2.378 . S
O2 Cd3 2.385 . S
O2 C7 1.255 . S
Cd3 O2 2.385 . S
Cd3 O4 2.317 . S
O4 Cd3 2.317 . S
O4 C5 1.232 . S
C5 O4 1.232 . S
C5 O6 1.218 . S
O6 C5 1.218 . S
C7 O0 1.275 . S
C7 O2 1.255 . S
C8 O9 1.258 . S
C8 O10 1.256 . S
O9 Cd1 2.381 . S
O9 C8 1.258 . S
O10 Cd1 2.378 . S
O10 C8 1.256 . S
O11 Cd12 2.300 . S
O11 C18 1.275 . S
Cd12 O11 2.300 . S
Cd12 O20 2.381 . S
Cd12 O21 2.378 . S
O13 Cd14 2.385 . S
O13 C18 1.255 . S
Cd14 O13 2.385 . S
Cd14 O15 2.317 . S
O15 Cd14 2.317 . S
O15 C16 1.232 . S
C16 O15 1.232 . S
C16 O17 1.218 . S
O17 C16 1.218 . S
C18 O11 1.275 . S
C18 O13 1.255 . S
C19 O20 1.258 . S
C19 O21 1.256 . S
O20 Cd12 2.381 . S
O20 C19 1.258 . S
O21 Cd12 2.378 . S
O21 C19 1.256 . S
O22 Cd23 2.300 . S
O22 C29 1.275 . S
Cd23 O22 2.300 . S
Cd23 O31 2.381 . S
Cd23 O32 2.378 . S
O24 Cd25 2.385 . S
O24 C29 1.255 . S
Cd25 O24 2.385 . S
Cd25 O26 2.317 . S
O26 Cd25 2.317 . S
O26 C27 1.232 . S
C27 O26 1.232 . S
C27 O28 1.218 . S
O28 C27 1.218 . S
C29 O22 1.275 . S
C29 O24 1.255 . S
C30 O31 1.258 . S
C30 O32 1.256 . S
O31 Cd23 2.381 . S
O31 C30 1.258 . S
O32 Cd23 2.378 . S
O32 C30 1.256 . S
O33 Cd34 2.300 . S
O33 C40 1.275 . S
Cd34 O33 2.300 . S
Cd34 O42 2.381 . S
Cd34 O43 2.378 . S
O35 Cd36 2.385 . S
O35 C40 1.255 . S
Cd36 O35 2.385 . S
Cd36 O37 2.317 . S
O37 Cd36 2.317 . S
O37 C38 1.232 . S
C38 O37 1.232 . S
C38 O39 1.218 . S
O39 C38 1.218 . S
C40 O33 1.275 . S
C40 O35 1.255 . S
C41 O42 1.258 . S
C41 O43 1.256 . S
O42 Cd34 2.381 . S
O42 C41 1.258 . S
O43 Cd34 2.378 . S
O43 C41 1.256 . S
O44 Cd45 2.300 . S
O44 C51 1.275 . S
Cd45 O44 2.300 . S
Cd45 O53 2.381 . S
Cd45 O54 2.378 . S
O46 Cd47 2.385 . S
O46 C51 1.255 . S
Cd47 O46 2.385 . S
Cd47 O48 2.317 . S
O48 Cd47 2.317 . S
O48 C49 1.232 . S
C49 O48 1.232 . S
C49 O50 1.218 . S
O50 C49 1.218 . S
C51 O44 1.275 . S
C51 O46 1.255 . S
C52 O53 1.258 . S
C52 O54 1.256 . S
O53 Cd45 2.381 . S
O53 C52 1.258 . S
O54 Cd45 2.378 . S
O54 C52 1.256 . S
O55 Cd56 2.300 . S
O55 C62 1.275 . S
Cd56 O55 2.300 . S
Cd56 O64 2.381 . S
Cd56 O65 2.378 . S
O57 Cd58 2.385 . S
O57 C62 1.255 . S
Cd58 O57 2.385 . S
Cd58 O59 2.317 . S
O59 Cd58 2.317 . S
O59 C60 1.232 . S
C60 O59 1.232 . S
C60 O61 1.218 . S
O61 C60 1.218 . S
C62 O55 1.275 . S
C62 O57 1.255 . S
C63 O64 1.258 . S
C63 O65 1.256 . S
O64 Cd56 2.381 . S
O64 C63 1.258 . S
O65 Cd56 2.378 . S
O65 C63 1.256 . S
O66 Cd67 2.300 . S
O66 C73 1.275 . S
Cd67 O66 2.300 . S
Cd67 O75 2.381 . S
Cd67 O76 2.378 . S
O68 Cd69 2.385 . S
O68 C73 1.255 . S
Cd69 O68 2.385 . S
Cd69 O70 2.317 . S
O70 Cd69 2.317 . S
O70 C71 1.232 . S
C71 O70 1.232 . S
C71 O72 1.218 . S
O72 C71 1.218 . S
C73 O66 1.275 . S
C73 O68 1.255 . S
C74 O75 1.258 . S
C74 O76 1.256 . S
O75 Cd67 2.381 . S
O75 C74 1.258 . S
O76 Cd67 2.378 . S
O76 C74 1.256 . S
O77 Cd78 2.300 . S
O77 C84 1.275 . S
Cd78 O77 2.300 . S
Cd78 O86 2.381 . S
Cd78 O87 2.378 . S
O79 Cd80 2.385 . S
O79 C84 1.255 . S
Cd80 O79 2.385 . S
Cd80 O81 2.317 . S
O81 Cd80 2.317 . S
O81 C82 1.232 . S
C82 O81 1.232 . S
C82 O83 1.218 . S
O83 C82 1.218 . S
C84 O77 1.275 . S
C84 O79 1.255 . S
C85 O86 1.258 . S
C85 O87 1.256 . S
O86 Cd78 2.381 . S
O86 C85 1.258 . S
O87 Cd78 2.378 . S
O87 C85 1.256 . S
H88 C96 0.910 1_455 S
H89 C99 0.930 . S
H90 C101 0.930 . S
H91 C102 0.970 . S
H92 C102 0.970 . S
H93 C104 0.930 . S
H94 C106 0.930 . S
H95 C108 0.930 . S
C96 H88 0.910 1_655 S
C96 C97 1.413 . S
C96 C98 1.416 1_655 S
C97 C96 1.413 . S
C97 C101 1.389 . S
C98 C96 1.416 1_455 S
C98 C99 1.375 . S
C98 C102 1.532 . S
C99 H89 0.930 . S
C99 C98 1.375 . S
C99 C100 1.416 1_455 S
C100 C99 1.416 1_655 S
C100 C101 1.371 . S
C101 H90 0.930 . S
C101 C97 1.389 . S
C101 C100 1.371 . S
C102 H91 0.970 . S
C102 H92 0.970 . S
C102 C98 1.532 . S
C102 C103 1.499 . S
C103 C102 1.499 . S
C103 C104 1.370 . S
C103 C108 1.415 . S
C104 H93 0.930 . S
C104 C103 1.370 . S
C104 C105 1.407 . S
C105 C104 1.407 . S
C105 C106 1.365 . S
C106 H94 0.930 . S
C106 C105 1.365 . S
C106 C107 1.393 . S
C107 C106 1.393 . S
C107 C108 1.387 . S
C108 H95 0.930 . S
C108 C103 1.415 . S
C108 C107 1.387 . S
H109 C117 0.930 . S
H110 C120 0.930 . S
H111 C122 0.930 . S
H112 C123 0.970 . S
H113 C123 0.970 . S
H114 C125 0.930 . S
H115 C127 0.930 . S
H116 C129 0.930 . S
C117 H109 0.930 . S
C117 C118 1.382 . S
C117 C119 1.426 . S
C118 C117 1.382 . S
C118 C122 1.389 . S
C119 C117 1.426 . S
C119 C120 1.375 . S
C119 C123 1.532 . S
C120 H110 0.930 . S
C120 C119 1.375 . S
C120 C121 1.416 . S
C121 C120 1.416 . S
C121 C122 1.371 . S
C122 H111 0.930 . S
C122 C118 1.389 . S
C122 C121 1.371 . S
C123 H112 0.970 . S
C123 H113 0.970 . S
C123 C119 1.532 . S
C123 C124 1.499 1_455 S
C124 C123 1.499 1_655 S
C124 C125 1.370 . S
C124 C129 1.415 . S
C125 H114 0.930 . S
C125 C124 1.370 . S
C125 C126 1.407 . S
C126 C125 1.407 . S
C126 C127 1.365 . S
C127 H115 0.930 . S
C127 C126 1.365 . S
C127 C128 1.393 . S
C128 C127 1.393 . S
C128 C129 1.387 . S
C129 H116 0.930 . S
C129 C124 1.415 . S
C129 C128 1.387 . S
H130 C138 0.930 . S
H131 C141 0.930 . S
H132 C143 0.930 . S
H133 C144 0.970 . S
H134 C144 0.970 . S
H135 C146 0.930 . S
H136 C148 0.930 . S
H137 C150 0.930 . S
C138 H130 0.930 . S
C138 C139 1.382 . S
C138 C140 1.426 . S
C139 C138 1.382 . S
C139 C143 1.389 . S
C140 C138 1.426 . S
C140 C141 1.375 . S
C140 C144 1.532 . S
C141 H131 0.930 . S
C141 C140 1.375 . S
C141 C142 1.416 . S
C142 C141 1.416 . S
C142 C143 1.371 . S
C143 H132 0.930 . S
C143 C139 1.389 . S
C143 C142 1.371 . S
C144 H133 0.970 . S
C144 H134 0.970 . S
C144 C140 1.532 . S
C144 C145 1.499 . S
C145 C144 1.499 . S
C145 C146 1.370 . S
C145 C150 1.415 . S
C146 H135 0.930 . S
C146 C145 1.370 . S
C146 C147 1.407 . S
C147 C146 1.407 . S
C147 C148 1.365 . S
C148 H136 0.930 . S
C148 C147 1.365 . S
C148 C149 1.393 . S
C149 C148 1.393 . S
C149 C150 1.387 . S
C150 H137 0.930 . S
C150 C145 1.415 . S
C150 C149 1.387 . S
H151 C159 0.930 . S
H152 C162 0.930 . S
H153 C164 0.930 . S
H154 C165 0.970 1_556 S
H155 C165 0.970 . S
H156 C167 0.930 . S
H157 C169 0.930 . S
H158 C171 0.930 . S
C159 H151 0.930 . S
C159 C160 1.382 . S
C159 C161 1.426 1_556 S
C160 C159 1.382 . S
C160 C164 1.389 1_556 S
C161 C159 1.426 1_554 S
C161 C162 1.375 . S
C161 C165 1.532 . S
C162 H152 0.930 . S
C162 C161 1.375 . S
C162 C163 1.416 . S
C163 C162 1.416 . S
C163 C164 1.371 . S
C164 H153 0.930 . S
C164 C160 1.389 1_554 S
C164 C163 1.371 . S
C165 H154 0.970 1_554 S
C165 H155 0.970 . S
C165 C161 1.532 . S
C165 C166 1.499 . S
C166 C165 1.499 . S
C166 C167 1.370 1_554 S
C166 C171 1.415 . S
C167 H156 0.930 . S
C167 C166 1.370 1_556 S
C167 C168 1.407 . S
C168 C167 1.407 . S
C168 C169 1.365 . S
C169 H157 0.930 . S
C169 C168 1.365 . S
C169 C170 1.393 1_556 S
C170 C169 1.393 1_554 S
C170 C171 1.387 . S
C171 H158 0.930 . S
C171 C166 1.415 . S
C171 C170 1.387 . S
H172 C180 0.930 . S
H173 C183 0.930 . S
H174 C185 0.930 . S
H175 C186 0.970 . S
H176 C186 0.970 . S
H177 C188 0.930 . S
H178 C190 0.930 . S
H179 C192 0.930 . S
C180 H172 0.930 . S
C180 C181 1.382 . S
C180 C182 1.426 . S
C181 C180 1.382 . S
C181 C185 1.389 . S
C182 C180 1.426 . S
C182 C183 1.375 . S
C182 C186 1.532 . S
C183 H173 0.930 . S
C183 C182 1.375 . S
C183 C184 1.416 . S
C184 C183 1.416 . S
C184 C185 1.371 . S
C185 H174 0.930 . S
C185 C181 1.389 . S
C185 C184 1.371 . S
C186 H175 0.970 . S
C186 H176 0.970 . S
C186 C182 1.532 . S
C186 C187 1.499 1_545 S
C187 C186 1.499 1_565 S
C187 C188 1.370 . S
C187 C192 1.415 . S
C188 H177 0.930 . S
C188 C187 1.370 . S
C188 C189 1.407 . S
C189 C188 1.407 . S
C189 C190 1.365 . S
C190 H178 0.930 . S
C190 C189 1.365 . S
C190 C191 1.393 . S
C191 C190 1.393 . S
C191 C192 1.387 . S
C192 H179 0.930 . S
C192 C187 1.415 . S
C192 C191 1.387 . S
H193 C201 0.930 . S
H194 C204 0.930 . S
H195 C206 0.930 . S
H196 C207 0.973 . S
H197 C207 0.970 . S
H198 C209 0.930 . S
H199 C211 0.930 . S
H200 C213 0.930 . S
C201 H193 0.930 . S
C201 C202 1.382 . S
C201 C203 1.426 1_556 S
C202 C201 1.382 . S
C202 C206 1.389 1_556 S
C203 C201 1.426 1_554 S
C203 C204 1.375 . S
C203 C207 1.532 . S
C204 H194 0.930 . S
C204 C203 1.375 . S
C204 C205 1.416 . S
C205 C204 1.416 . S
C205 C206 1.371 . S
C206 H195 0.930 . S
C206 C202 1.389 1_554 S
C206 C205 1.371 . S
C207 H196 0.973 . S
C207 H197 0.970 . S
C207 C203 1.532 . S
C207 C208 1.499 . S
C208 C207 1.499 . S
C208 C209 1.370 1_554 S
C208 C213 1.415 . S
C209 H198 0.930 . S
C209 C208 1.370 1_556 S
C209 C210 1.407 . S
C210 C209 1.407 . S
C210 C211 1.365 1_556 S
C211 H199 0.930 . S
C211 C210 1.365 1_554 S
C211 C212 1.393 . S
C212 C211 1.393 . S
C212 C213 1.387 . S
C213 H200 0.930 . S
C213 C208 1.415 . S
C213 C212 1.387 . S
H214 C220 0.930 . S
H215 C223 0.930 . S
H216 C224 0.930 . S
H217 C225 0.930 . S
H218 C228 0.930 . S
H219 C229 0.930 . S
C220 H214 0.930 . S
C220 C221 1.355 . S
C220 C222 1.415 . S
C221 C220 1.355 . S
C221 C223 1.419 . S
C222 C220 1.415 . S
C222 C227 1.425 . S
C222 C229 1.409 . S
C223 H215 0.930 . S
C223 C221 1.419 . S
C223 C224 1.362 . S
C224 H216 0.930 . S
C224 C223 1.362 . S
C224 C227 1.409 . S
C225 H217 0.930 . S
C225 C226 1.355 . S
C225 C227 1.415 . S
C226 C225 1.355 . S
C226 C228 1.419 . S
C227 C222 1.425 . S
C227 C224 1.409 . S
C227 C225 1.415 . S
C228 H218 0.930 . S
C228 C226 1.419 . S
C228 C229 1.362 . S
C229 H219 0.930 . S
C229 C222 1.409 . S
C229 C228 1.362 . S
H230 C236 0.930 . S
H231 C239 0.930 . S
H232 C240 0.930 . S
H233 C241 0.930 . S
H234 C244 0.930 . S
H235 C245 0.930 . S
C236 H230 0.930 . S
C236 C237 1.355 . S
C236 C238 1.415 . S
C237 C236 1.355 . S
C237 C239 1.419 . S
C238 C236 1.415 . S
C238 C243 1.425 . S
C238 C245 1.409 . S
C239 H231 0.930 . S
C239 C237 1.419 . S
C239 C240 1.362 . S
C240 H232 0.930 . S
C240 C239 1.362 . S
C240 C243 1.409 . S
C241 H233 0.930 . S
C241 C242 1.355 . S
C241 C243 1.415 . S
C242 C241 1.355 . S
C242 C244 1.419 . S
C243 C238 1.425 . S
C243 C240 1.409 . S
C243 C241 1.415 . S
C244 H234 0.930 . S
C244 C242 1.419 . S
C244 C245 1.362 . S
C245 H235 0.930 . S
C245 C238 1.409 . S
C245 C244 1.362 . S
H246 C252 0.930 . S
H247 C255 0.930 . S
H248 C256 0.930 . S
H249 C257 0.930 . S
H250 C260 0.930 . S
H251 C261 0.930 . S
C252 H246 0.930 . S
C252 C253 1.355 . S
C252 C254 1.415 . S
C253 C252 1.355 . S
C253 C255 1.419 . S
C254 C252 1.415 . S
C254 C259 1.425 . S
C254 C261 1.409 . S
C255 H247 0.930 . S
C255 C253 1.419 . S
C255 C256 1.362 . S
C256 H248 0.930 . S
C256 C255 1.362 . S
C256 C259 1.409 . S
C257 H249 0.930 . S
C257 C258 1.355 . S
C257 C259 1.415 . S
C258 C257 1.355 . S
C258 C260 1.419 . S
C259 C254 1.425 . S
C259 C256 1.409 . S
C259 C257 1.415 . S
C260 H250 0.930 . S
C260 C258 1.419 . S
C260 C261 1.362 . S
C261 H251 0.930 . S
C261 C254 1.409 . S
C261 C260 1.362 . S
H262 C268 0.930 . S
H263 C271 0.930 . S
H264 C272 0.930 . S
H265 C273 0.930 . S
H266 C276 0.930 . S
H267 C277 0.930 . S
C268 H262 0.930 . S
C268 C269 1.355 . S
C268 C270 1.415 . S
C269 C268 1.355 . S
C269 C271 1.419 . S
C270 C268 1.415 . S
C270 C275 1.425 . S
C270 C277 1.409 . S
C271 H263 0.930 . S
C271 C269 1.419 . S
C271 C272 1.362 . S
C272 H264 0.930 . S
C272 C271 1.362 . S
C272 C275 1.409 . S
C273 H265 0.930 . S
C273 C274 1.355 . S
C273 C275 1.415 . S
C274 C273 1.355 . S
C274 C276 1.419 . S
C275 C270 1.425 . S
C275 C272 1.409 . S
C275 C273 1.415 . S
C276 H266 0.930 . S
C276 C274 1.419 . S
C276 C277 1.362 . S
C277 H267 0.930 . S
C277 C270 1.409 . S
C277 C276 1.362 . S
H278 C284 0.930 . S
H279 C287 0.930 . S
H280 C288 0.930 . S
H281 C289 0.930 . S
H282 C292 0.930 . S
H283 C293 0.930 . S
C284 H278 0.930 . S
C284 C285 1.355 . S
C284 C286 1.415 . S
C285 C284 1.355 . S
C285 C287 1.419 . S
C286 C284 1.415 . S
C286 C291 1.425 . S
C286 C293 1.409 . S
C287 H279 0.930 . S
C287 C285 1.419 . S
C287 C288 1.362 . S
C288 H280 0.930 . S
C288 C287 1.362 . S
C288 C291 1.409 . S
C289 H281 0.930 . S
C289 C290 1.355 . S
C289 C291 1.415 . S
C290 C289 1.355 . S
C290 C292 1.419 . S
C291 C286 1.425 . S
C291 C288 1.409 . S
C291 C289 1.415 . S
C292 H282 0.930 . S
C292 C290 1.419 . S
C292 C293 1.362 . S
C293 H283 0.930 . S
C293 C286 1.409 . S
C293 C292 1.362 . S
H294 C300 0.930 . S
H295 C303 0.930 . S
H296 C304 0.930 . S
H297 C305 0.930 . S
H298 C308 0.930 . S
H299 C309 0.930 . S
C300 H294 0.930 . S
C300 C301 1.355 . S
C300 C302 1.415 . S
C301 C300 1.355 . S
C301 C303 1.419 . S
C302 C300 1.415 . S
C302 C307 1.425 . S
C302 C309 1.409 . S
C303 H295 0.930 . S
C303 C301 1.419 . S
C303 C304 1.362 . S
C304 H296 0.930 . S
C304 C303 1.362 . S
C304 C307 1.409 . S
C305 H297 0.930 . S
C305 C306 1.355 . S
C305 C307 1.415 . S
C306 C305 1.355 . S
C306 C308 1.419 . S
C307 C302 1.425 . S
C307 C304 1.409 . S
C307 C305 1.415 . S
C308 H298 0.930 . S
C308 C306 1.419 . S
C308 C309 1.362 . S
C309 H299 0.930 . S
C309 C302 1.409 . S
C309 C308 1.362 . S
H310 C316 0.930 . S
H311 C319 0.930 . S
H312 C320 0.930 . S
H313 C321 0.930 . S
H314 C324 0.930 . S
H315 C325 0.930 . S
C316 H310 0.930 . S
C316 C317 1.355 . S
C316 C318 1.415 . S
C317 C316 1.355 . S
C317 C319 1.419 . S
C318 C316 1.415 . S
C318 C323 1.425 . S
C318 C325 1.409 . S
C319 H311 0.930 . S
C319 C317 1.419 . S
C319 C320 1.362 . S
C320 H312 0.930 . S
C320 C319 1.362 . S
C320 C323 1.409 . S
C321 H313 0.930 . S
C321 C322 1.355 . S
C321 C323 1.415 . S
C322 C321 1.355 . S
C322 C324 1.419 . S
C323 C318 1.425 . S
C323 C320 1.409 . S
C323 C321 1.415 . S
C324 H314 0.930 . S
C324 C322 1.419 . S
C324 C325 1.362 . S
C325 H315 0.930 . S
C325 C318 1.409 . S
C325 C324 1.362 . S
H326 C332 0.930 . S
H327 C335 0.930 . S
H328 C336 0.930 . S
H329 C337 0.930 . S
H330 C340 0.930 . S
H331 C341 0.930 . S
C332 H326 0.930 . S
C332 C333 1.355 . S
C332 C334 1.415 . S
C333 C332 1.355 . S
C333 C335 1.419 . S
C334 C332 1.415 . S
C334 C339 1.425 . S
C334 C341 1.409 . S
C335 H327 0.930 . S
C335 C333 1.419 . S
C335 C336 1.362 . S
C336 H328 0.930 . S
C336 C335 1.362 . S
C336 C339 1.409 . S
C337 H329 0.930 . S
C337 C338 1.355 . S
C337 C339 1.415 . S
C338 C337 1.355 . S
C338 C340 1.419 . S
C339 C334 1.425 . S
C339 C336 1.409 . S
C339 C337 1.415 . S
C340 H330 0.930 . S
C340 C338 1.419 . S
C340 C341 1.362 . S
C341 H331 0.930 . S
C341 C334 1.409 . S
C341 C340 1.362 . S
H342 C348 0.930 . S
H343 C351 0.930 . S
H344 C352 0.930 . S
H345 C353 0.930 . S
H346 C356 0.930 . S
H347 C357 0.930 . S
C348 H342 0.930 . S
C348 C349 1.355 . S
C348 C350 1.415 . S
C349 C348 1.355 . S
C349 C351 1.419 . S
C350 C348 1.415 . S
C350 C355 1.425 1_565 S
C350 C357 1.409 . S
C351 H343 0.930 . S
C351 C349 1.419 . S
C351 C352 1.362 1_565 S
C352 H344 0.930 . S
C352 C351 1.362 1_545 S
C352 C355 1.409 . S
C353 H345 0.930 . S
C353 C354 1.355 . S
C353 C355 1.415 . S
C354 C353 1.355 . S
C354 C356 1.419 . S
C355 C350 1.425 1_545 S
C355 C352 1.409 . S
C355 C353 1.415 . S
C356 H346 0.930 . S
C356 C354 1.419 . S
C356 C357 1.362 1_545 S
C357 H347 0.930 . S
C357 C350 1.409 . S
C357 C356 1.362 1_565 S
H358 C364 0.930 . S
H359 C367 0.930 . S
H360 C368 0.930 . S
H361 C369 0.930 . S
H362 C372 0.929 1_556 S
H363 C373 0.930 . S
C364 H358 0.930 . S
C364 C365 1.355 . S
C364 C366 1.415 . S
C365 C364 1.355 . S
C365 C367 1.419 . S
C366 C364 1.415 . S
C366 C371 1.425 . S
C366 C373 1.409 . S
C367 H359 0.930 . S
C367 C365 1.419 . S
C367 C368 1.362 . S
C368 H360 0.930 . S
C368 C367 1.362 . S
C368 C371 1.409 . S
C369 H361 0.930 . S
C369 C370 1.355 . S
C369 C371 1.415 . S
C370 C369 1.355 . S
C370 C372 1.419 . S
C371 C366 1.425 . S
C371 C368 1.409 . S
C371 C369 1.415 . S
C372 H362 0.929 1_554 S
C372 C370 1.419 . S
C372 C373 1.362 . S
C373 H363 0.930 . S
C373 C366 1.409 . S
C373 C372 1.362 . S
H374 C380 0.930 . S
H375 C383 0.930 . S
H376 C384 0.930 . S
H377 C385 0.930 . S
H378 C388 0.930 . S
H379 C389 0.930 . S
C380 H374 0.930 . S
C380 C381 1.355 . S
C380 C382 1.415 . S
C381 C380 1.355 . S
C381 C383 1.419 . S
C382 C380 1.415 . S
C382 C387 1.425 . S
C382 C389 1.409 . S
C383 H375 0.930 . S
C383 C381 1.419 . S
C383 C384 1.362 . S
C384 H376 0.930 . S
C384 C383 1.362 . S
C384 C387 1.409 . S
C385 H377 0.930 . S
C385 C386 1.355 . S
C385 C387 1.415 . S
C386 C385 1.355 . S
C386 C388 1.419 . S
C387 C382 1.425 . S
C387 C384 1.409 . S
C387 C385 1.415 . S
C388 H378 0.930 . S
C388 C386 1.419 . S
C388 C389 1.362 . S
C389 H379 0.930 . S
C389 C382 1.409 . S
C389 C388 1.362 . S
H390 C396 0.930 . S
H391 C399 0.930 . S
H392 C400 0.930 . S
H393 C401 0.930 . S
H394 C404 0.930 . S
H395 C405 0.930 . S
C396 H390 0.930 . S
C396 C397 1.355 . S
C396 C398 1.415 . S
C397 C396 1.355 . S
C397 C399 1.419 . S
C398 C396 1.415 . S
C398 C403 1.425 . S
C398 C405 1.409 . S
C399 H391 0.930 . S
C399 C397 1.419 . S
C399 C400 1.362 . S
C400 H392 0.930 . S
C400 C399 1.362 . S
C400 C403 1.409 . S
C401 H393 0.930 . S
C401 C402 1.355 . S
C401 C403 1.415 . S
C402 C401 1.355 . S
C402 C404 1.419 . S
C403 C398 1.425 . S
C403 C400 1.409 . S
C403 C401 1.415 . S
C404 H394 0.930 . S
C404 C402 1.419 . S
C404 C405 1.362 . S
C405 H395 0.930 . S
C405 C398 1.409 . S
C405 C404 1.362 . S
H406 C412 0.930 . S
H407 C415 0.930 . S
H408 C416 0.930 . S
H409 C417 0.930 . S
H410 C420 0.930 . S
H411 C421 0.930 . S
C412 H406 0.930 . S
C412 C413 1.355 . S
C412 C414 1.415 . S
C413 C412 1.355 . S
C413 C415 1.419 . S
C414 C412 1.415 . S
C414 C419 1.425 . S
C414 C421 1.409 . S
C415 H407 0.930 . S
C415 C413 1.419 . S
C415 C416 1.362 . S
C416 H408 0.930 . S
C416 C415 1.362 . S
C416 C419 1.409 . S
C417 H409 0.930 . S
C417 C418 1.355 . S
C417 C419 1.415 . S
C418 C417 1.355 . S
C418 C420 1.419 . S
C419 C414 1.425 . S
C419 C416 1.409 . S
C419 C417 1.415 . S
C420 H410 0.930 . S
C420 C418 1.419 . S
C420 C421 1.362 . S
C421 H411 0.930 . S
C421 C414 1.409 . S
C421 C420 1.362 . S
H422 C428 0.930 . S
H423 C431 0.930 . S
H424 C432 0.930 . S
H425 C433 0.930 . S
H426 C436 0.930 . S
H427 C437 0.930 . S
C428 H422 0.930 . S
C428 C429 1.355 . S
C428 C430 1.415 . S
C429 C428 1.355 . S
C429 C431 1.419 . S
C430 C428 1.415 . S
C430 C435 1.425 . S
C430 C437 1.409 . S
C431 H423 0.930 . S
C431 C429 1.419 . S
C431 C432 1.362 . S
C432 H424 0.930 . S
C432 C431 1.362 . S
C432 C435 1.409 . S
C433 H425 0.930 . S
C433 C434 1.355 . S
C433 C435 1.415 . S
C434 C433 1.355 . S
C434 C436 1.419 . S
C435 C430 1.425 . S
C435 C432 1.409 . S
C435 C433 1.415 . S
C436 H426 0.930 . S
C436 C434 1.419 . S
C436 C437 1.362 . S
C437 H427 0.930 . S
C437 C430 1.409 . S
C437 C436 1.362 . S
H438 C444 0.930 . S
H439 C447 0.930 . S
H440 C448 0.930 . S
H441 C449 0.930 . S
H442 C452 0.930 . S
H443 C453 0.930 . S
C444 H438 0.930 . S
C444 C445 1.355 . S
C444 C446 1.415 . S
C445 C444 1.355 . S
C445 C447 1.419 . S
C446 C444 1.415 . S
C446 C451 1.425 . S
C446 C453 1.409 . S
C447 H439 0.930 . S
C447 C445 1.419 . S
C447 C448 1.362 . S
C448 H440 0.930 . S
C448 C447 1.362 . S
C448 C451 1.409 . S
C449 H441 0.930 . S
C449 C450 1.355 . S
C449 C451 1.415 . S
C450 C449 1.355 . S
C450 C452 1.419 . S
C451 C446 1.425 . S
C451 C448 1.409 . S
C451 C449 1.415 . S
C452 H442 0.930 . S
C452 C450 1.419 . S
C452 C453 1.362 . S
C453 H443 0.930 . S
C453 C446 1.409 . S
C453 C452 1.362 . S
H454 C460 0.930 . S
H455 C463 0.930 . S
H456 C464 0.930 . S
H457 C465 0.930 . S
H458 C468 0.930 . S
H459 C469 0.930 . S
C460 H454 0.930 . S
C460 C461 1.355 . S
C460 C462 1.415 . S
C461 C460 1.355 . S
C461 C463 1.419 . S
C462 C460 1.415 . S
C462 C467 1.425 . S
C462 C469 1.409 . S
C463 H455 0.930 . S
C463 C461 1.419 . S
C463 C464 1.362 . S
C464 H456 0.930 . S
C464 C463 1.362 . S
C464 C467 1.409 . S
C465 H457 0.930 . S
C465 C466 1.355 . S
C465 C467 1.415 . S
C466 C465 1.355 . S
C466 C468 1.419 . S
C467 C462 1.425 . S
C467 C464 1.409 . S
C467 C465 1.415 . S
C468 H458 0.930 . S
C468 C466 1.419 . S
C468 C469 1.362 . S
C469 H459 0.930 . S
C469 C462 1.409 . S
C469 C468 1.362 . S
H470 C476 0.930 . S
H471 C479 0.930 . S
H472 C480 0.930 . S
H473 C481 0.930 . S
H474 C484 0.930 . S
H475 C485 0.930 . S
C476 H470 0.930 . S
C476 C477 1.355 . S
C476 C478 1.415 . S
C477 C476 1.355 . S
C477 C479 1.419 . S
C478 C476 1.415 . S
C478 C483 1.425 . S
C478 C485 1.409 . S
C479 H471 0.930 . S
C479 C477 1.419 . S
C479 C480 1.362 . S
C480 H472 0.930 . S
C480 C479 1.362 . S
C480 C483 1.409 . S
C481 H473 0.930 . S
C481 C482 1.355 . S
C481 C483 1.415 . S
C482 C481 1.355 . S
C482 C484 1.419 . S
C483 C478 1.425 . S
C483 C480 1.409 . S
C483 C481 1.415 . S
C484 H474 0.930 . S
C484 C482 1.419 . S
C484 C485 1.362 . S
C485 H475 0.930 . S
C485 C478 1.409 . S
C485 C484 1.362 . S
H486 C492 0.930 . S
H487 C495 0.930 . S
H488 C496 0.930 . S
H489 C497 0.930 . S
H490 C500 0.930 . S
H491 C501 0.930 . S
C492 H486 0.930 . S
C492 C493 1.355 . S
C492 C494 1.415 . S
C493 C492 1.355 . S
C493 C495 1.419 . S
C494 C492 1.415 . S
C494 C499 1.425 . S
C494 C501 1.409 . S
C495 H487 0.930 . S
C495 C493 1.419 . S
C495 C496 1.362 . S
C496 H488 0.930 . S
C496 C495 1.362 . S
C496 C499 1.409 . S
C497 H489 0.930 . S
C497 C498 1.355 . S
C497 C499 1.415 . S
C498 C497 1.355 . S
C498 C500 1.419 . S
C499 C494 1.425 . S
C499 C496 1.409 . S
C499 C497 1.415 . S
C500 H490 0.930 . S
C500 C498 1.419 . S
C500 C501 1.362 . S
C501 H491 0.930 . S
C501 C494 1.409 . S
C501 C500 1.362 . S
H502 C508 0.930 . S
H503 C511 0.930 . S
H504 C512 0.930 . S
H505 C513 0.930 . S
H506 C516 0.930 . S
H507 C517 0.930 . S
C508 H502 0.930 . S
C508 C509 1.355 . S
C508 C510 1.415 . S
C509 C508 1.355 . S
C509 C511 1.419 . S
C510 C508 1.415 . S
C510 C515 1.425 . S
C510 C517 1.409 . S
C511 H503 0.930 . S
C511 C509 1.419 . S
C511 C512 1.362 . S
C512 H504 0.930 . S
C512 C511 1.362 . S
C512 C515 1.409 . S
C513 H505 0.930 . S
C513 C514 1.355 . S
C513 C515 1.415 . S
C514 C513 1.355 . S
C514 C516 1.419 . S
C515 C510 1.425 . S
C515 C512 1.409 . S
C515 C513 1.415 . S
C516 H506 0.930 . S
C516 C514 1.419 . S
C516 C517 1.362 . S
C517 H507 0.930 . S
C517 C510 1.409 . S
C517 C516 1.362 . S
H518 C524 0.930 . S
H519 C527 0.930 . S
H520 C528 0.930 . S
H521 C529 0.930 . S
H522 C532 0.930 . S
H523 C533 0.930 . S
C524 H518 0.930 . S
C524 C525 1.355 . S
C524 C526 1.415 . S
C525 C524 1.355 . S
C525 C527 1.419 . S
C526 C524 1.415 . S
C526 C531 1.425 . S
C526 C533 1.409 . S
C527 H519 0.930 . S
C527 C525 1.419 . S
C527 C528 1.362 . S
C528 H520 0.930 . S
C528 C527 1.362 . S
C528 C531 1.409 . S
C529 H521 0.930 . S
C529 C530 1.355 . S
C529 C531 1.415 . S
C530 C529 1.355 . S
C530 C532 1.419 . S
C531 C526 1.425 . S
C531 C528 1.409 . S
C531 C529 1.415 . S
C532 H522 0.930 . S
C532 C530 1.419 . S
C532 C533 1.362 . S
C533 H523 0.930 . S
C533 C526 1.409 . S
C533 C532 1.362 . S
H534 C540 0.930 . S
H535 C543 0.930 . S
H536 C544 0.930 . S
H537 C545 0.930 . S
H538 C548 0.930 . S
H539 C549 0.930 . S
C540 H534 0.930 . S
C540 C541 1.355 . S
C540 C542 1.415 . S
C541 C540 1.355 . S
C541 C543 1.419 . S
C542 C540 1.415 . S
C542 C547 1.425 . S
C542 C549 1.409 . S
C543 H535 0.930 . S
C543 C541 1.419 . S
C543 C544 1.362 . S
C544 H536 0.930 . S
C544 C543 1.362 . S
C544 C547 1.409 . S
C545 H537 0.930 . S
C545 C546 1.355 . S
C545 C547 1.415 . S
C546 C545 1.355 . S
C546 C548 1.419 . S
C547 C542 1.425 . S
C547 C544 1.409 . S
C547 C545 1.415 . S
C548 H538 0.930 . S
C548 C546 1.419 . S
C548 C549 1.362 . S
C549 H539 0.930 . S
C549 C542 1.409 . S
C549 C548 1.362 . S
H550 C556 0.930 . S
H551 C559 0.930 . S
H552 C560 0.930 . S
H553 C561 0.930 . S
H554 C564 0.930 1_554 S
H555 C565 0.930 . S
C556 H550 0.930 . S
C556 C557 1.355 . S
C556 C558 1.415 . S
C557 C556 1.355 . S
C557 C559 1.419 . S
C558 C556 1.415 . S
C558 C563 1.425 . S
C558 C565 1.409 . S
C559 H551 0.930 . S
C559 C557 1.419 . S
C559 C560 1.362 . S
C560 H552 0.930 . S
C560 C559 1.362 . S
C560 C563 1.409 . S
C561 H553 0.930 . S
C561 C562 1.355 . S
C561 C563 1.415 . S
C562 C561 1.355 . S
C562 C564 1.419 . S
C563 C558 1.425 . S
C563 C560 1.409 . S
C563 C561 1.415 . S
C564 H554 0.930 1_556 S
C564 C562 1.419 . S
C564 C565 1.362 . S
C565 H555 0.930 . S
C565 C558 1.409 . S
C565 C564 1.362 . S
H566 C572 0.930 . S
H567 C575 0.930 . S
H568 C576 0.930 . S
H569 C577 0.930 . S
H570 C580 0.930 . S
H571 C581 0.930 . S
C572 H566 0.930 . S
C572 C573 1.355 . S
C572 C574 1.415 . S
C573 C572 1.355 . S
C573 C575 1.419 . S
C574 C572 1.415 . S
C574 C579 1.425 . S
C574 C581 1.409 . S
C575 H567 0.930 . S
C575 C573 1.419 . S
C575 C576 1.362 . S
C576 H568 0.930 . S
C576 C575 1.362 . S
C576 C579 1.409 . S
C577 H569 0.930 . S
C577 C578 1.355 . S
C577 C579 1.415 1_545 S
C578 C577 1.355 . S
C578 C580 1.419 . S
C579 C574 1.425 . S
C579 C576 1.409 . S
C579 C577 1.415 1_565 S
C580 H570 0.930 . S
C580 C578 1.419 . S
C580 C581 1.362 1_545 S
C581 H571 0.930 . S
C581 C574 1.409 . S
C581 C580 1.362 1_565 S
H582 C588 0.930 . S
H583 C591 0.930 . S
H584 C592 0.930 . S
H585 C593 0.930 . S
H586 C596 0.930 . S
H587 C597 0.930 . S
C588 H582 0.930 . S
C588 C589 1.355 . S
C588 C590 1.415 . S
C589 C588 1.355 . S
C589 C591 1.419 . S
C590 C588 1.415 . S
C590 C595 1.425 . S
C590 C597 1.409 . S
C591 H583 0.930 . S
C591 C589 1.419 . S
C591 C592 1.362 . S
C592 H584 0.930 . S
C592 C591 1.362 . S
C592 C595 1.409 . S
C593 H585 0.930 . S
C593 C594 1.355 . S
C593 C595 1.415 . S
C594 C593 1.355 . S
C594 C596 1.419 . S
C595 C590 1.425 . S
C595 C592 1.409 . S
C595 C593 1.415 . S
C596 H586 0.930 . S
C596 C594 1.419 . S
C596 C597 1.362 . S
C597 H587 0.930 . S
C597 C590 1.409 . S
C597 C596 1.362 . S
C226 C105 1.721 . S
C221 C5 1.734 . S
C242 C118 1.337 . S
C237 C16 1.343 . S
C258 C100 1.675 . S
C253 C30 1.713 . S
C274 C128 1.534 . S
C269 C40 1.604 . S
C290 C139 1.479 . S
C285 C8 1.514 . S
C306 C160 1.286 . S
C301 C18 1.401 . S
C317 C29 1.684 . S
C322 C189 1.566 . S
C338 C210 1.616 . S
C333 C38 1.491 . S
C354 C149 1.363 . S
C349 C19 1.450 . S
C365 C27 1.363 . S
C370 C170 1.448 . S
C386 C184 1.458 . S
C381 C41 1.552 . S
C402 C205 1.763 . S
C397 C7 1.748 . S
C413 C52 1.675 . S
C418 C126 1.548 . S
C434 C97 1.865 . S
C429 C62 1.884 . S
C445 C74 1.651 . S
C450 C121 1.405 . S
C461 C82 1.198 . S
C466 C107 1.534 . S
C482 C191 1.705 . S
C477 C51 1.642 . S
C498 C212 1.802 . S
C493 C60 1.565 . S
C514 C142 1.358 . S
C509 C71 1.395 . S
C525 C84 1.526 . S
C530 C163 1.362 . S
C546 C181 1.588 . S
C541 C63 1.690 . S
C562 C202 1.597 . S
C557 C73 1.642 . S
C578 C147 1.414 . S
C573 C85 1.499 . S
C589 C49 1.339 . S
C594 C168 1.509 . S
