# Generated by pormake.
# Topology eea, (3,6)-cn, num edge types: 1
# Building blocks:
#     Node 0, Type 0, BuildingBlock: ESEHIV_clean_linker_0, # of connection points: 3
#     Node 1, Type 0, BuildingBlock: ESEHIV_clean_linker_0, # of connection points: 3
#     Node 2, Type 0, BuildingBlock: ESEHIV_clean_linker_0, # of connection points: 3
#     Node 3, Type 0, BuildingBlock: ESEHIV_clean_linker_0, # of connection points: 3
#     Node 4, Type 0, BuildingBlock: ESEHIV_clean_linker_0, # of connection points: 3
#     Node 5, Type 0, BuildingBlock: ESEHIV_clean_linker_0, # of connection points: 3
#     Node 6, Type 0, BuildingBlock: ESEHIV_clean_linker_0, # of connection points: 3
#     Node 7, Type 0, BuildingBlock: ESEHIV_clean_linker_0, # of connection points: 3
#     Node 8, Type 0, BuildingBlock: ESEHIV_clean_linker_0, # of connection points: 3
#     Node 9, Type 0, BuildingBlock: ESEHIV_clean_linker_0, # of connection points: 3
#     Node 10, Type 0, BuildingBlock: ESEHIV_clean_linker_0, # of connection points: 3
#     Node 11, Type 0, BuildingBlock: ESEHIV_clean_linker_0, # of connection points: 3
#     Node 12, Type 0, BuildingBlock: ESEHIV_clean_linker_0, # of connection points: 3
#     Node 13, Type 0, BuildingBlock: ESEHIV_clean_linker_0, # of connection points: 3
#     Node 14, Type 0, BuildingBlock: ESEHIV_clean_linker_0, # of connection points: 3
#     Node 15, Type 0, BuildingBlock: ESEHIV_clean_linker_0, # of connection points: 3
#     Node 16, Type 0, BuildingBlock: ESEHIV_clean_linker_0, # of connection points: 3
#     Node 17, Type 0, BuildingBlock: ESEHIV_clean_linker_0, # of connection points: 3
#     Node 18, Type 1, BuildingBlock: HISSIN_clean_sbu_0, # of connection points: 6
#     Node 19, Type 1, BuildingBlock: HISSIN_clean_sbu_0, # of connection points: 6
#     Node 20, Type 1, BuildingBlock: HISSIN_clean_sbu_0, # of connection points: 6
#     Node 21, Type 1, BuildingBlock: HISSIN_clean_sbu_0, # of connection points: 6
#     Node 22, Type 1, BuildingBlock: HISSIN_clean_sbu_0, # of connection points: 6
#     Node 23, Type 1, BuildingBlock: HISSIN_clean_sbu_0, # of connection points: 6
#     Node 24, Type 1, BuildingBlock: HISSIN_clean_sbu_0, # of connection points: 6
#     Node 25, Type 1, BuildingBlock: HISSIN_clean_sbu_0, # of connection points: 6
#     Node 26, Type 1, BuildingBlock: HISSIN_clean_sbu_0, # of connection points: 6
#     Edge 27, Type (0, 1), BuildingBlock: EZIPEK_clean_linker_0, # of connection points: 2
#     Edge 28, Type (0, 1), BuildingBlock: EZIPEK_clean_linker_0, # of connection points: 2
#     Edge 29, Type (0, 1), BuildingBlock: EZIPEK_clean_linker_0, # of connection points: 2
#     Edge 30, Type (0, 1), BuildingBlock: EZIPEK_clean_linker_0, # of connection points: 2
#     Edge 31, Type (0, 1), BuildingBlock: EZIPEK_clean_linker_0, # of connection points: 2
#     Edge 32, Type (0, 1), BuildingBlock: EZIPEK_clean_linker_0, # of connection points: 2
#     Edge 33, Type (0, 1), BuildingBlock: EZIPEK_clean_linker_0, # of connection points: 2
#     Edge 34, Type (0, 1), BuildingBlock: EZIPEK_clean_linker_0, # of connection points: 2
#     Edge 35, Type (0, 1), BuildingBlock: EZIPEK_clean_linker_0, # of connection points: 2
#     Edge 36, Type (0, 1), BuildingBlock: EZIPEK_clean_linker_0, # of connection points: 2
#     Edge 37, Type (0, 1), BuildingBlock: EZIPEK_clean_linker_0, # of connection points: 2
#     Edge 38, Type (0, 1), BuildingBlock: EZIPEK_clean_linker_0, # of connection points: 2
#     Edge 39, Type (0, 1), BuildingBlock: EZIPEK_clean_linker_0, # of connection points: 2
#     Edge 40, Type (0, 1), BuildingBlock: EZIPEK_clean_linker_0, # of connection points: 2
#     Edge 41, Type (0, 1), BuildingBlock: EZIPEK_clean_linker_0, # of connection points: 2
#     Edge 42, Type (0, 1), BuildingBlock: EZIPEK_clean_linker_0, # of connection points: 2
#     Edge 43, Type (0, 1), BuildingBlock: EZIPEK_clean_linker_0, # of connection points: 2
#     Edge 44, Type (0, 1), BuildingBlock: EZIPEK_clean_linker_0, # of connection points: 2
#     Edge 45, Type (0, 1), BuildingBlock: EZIPEK_clean_linker_0, # of connection points: 2
#     Edge 46, Type (0, 1), BuildingBlock: EZIPEK_clean_linker_0, # of connection points: 2
#     Edge 47, Type (0, 1), BuildingBlock: EZIPEK_clean_linker_0, # of connection points: 2
#     Edge 48, Type (0, 1), BuildingBlock: EZIPEK_clean_linker_0, # of connection points: 2
#     Edge 49, Type (0, 1), BuildingBlock: EZIPEK_clean_linker_0, # of connection points: 2
#     Edge 50, Type (0, 1), BuildingBlock: EZIPEK_clean_linker_0, # of connection points: 2
#     Edge 51, Type (0, 1), BuildingBlock: EZIPEK_clean_linker_0, # of connection points: 2
#     Edge 52, Type (0, 1), BuildingBlock: EZIPEK_clean_linker_0, # of connection points: 2
#     Edge 53, Type (0, 1), BuildingBlock: EZIPEK_clean_linker_0, # of connection points: 2
#     Edge 54, Type (0, 1), BuildingBlock: EZIPEK_clean_linker_0, # of connection points: 2
#     Edge 55, Type (0, 1), BuildingBlock: EZIPEK_clean_linker_0, # of connection points: 2
#     Edge 56, Type (0, 1), BuildingBlock: EZIPEK_clean_linker_0, # of connection points: 2
#     Edge 57, Type (0, 1), BuildingBlock: EZIPEK_clean_linker_0, # of connection points: 2
#     Edge 58, Type (0, 1), BuildingBlock: EZIPEK_clean_linker_0, # of connection points: 2
#     Edge 59, Type (0, 1), BuildingBlock: EZIPEK_clean_linker_0, # of connection points: 2
#     Edge 60, Type (0, 1), BuildingBlock: EZIPEK_clean_linker_0, # of connection points: 2
#     Edge 61, Type (0, 1), BuildingBlock: EZIPEK_clean_linker_0, # of connection points: 2
#     Edge 62, Type (0, 1), BuildingBlock: EZIPEK_clean_linker_0, # of connection points: 2
#     Edge 63, Type (0, 1), BuildingBlock: EZIPEK_clean_linker_0, # of connection points: 2
#     Edge 64, Type (0, 1), BuildingBlock: EZIPEK_clean_linker_0, # of connection points: 2
#     Edge 65, Type (0, 1), BuildingBlock: EZIPEK_clean_linker_0, # of connection points: 2
#     Edge 66, Type (0, 1), BuildingBlock: EZIPEK_clean_linker_0, # of connection points: 2
#     Edge 67, Type (0, 1), BuildingBlock: EZIPEK_clean_linker_0, # of connection points: 2
#     Edge 68, Type (0, 1), BuildingBlock: EZIPEK_clean_linker_0, # of connection points: 2
#     Edge 69, Type (0, 1), BuildingBlock: EZIPEK_clean_linker_0, # of connection points: 2
#     Edge 70, Type (0, 1), BuildingBlock: EZIPEK_clean_linker_0, # of connection points: 2
#     Edge 71, Type (0, 1), BuildingBlock: EZIPEK_clean_linker_0, # of connection points: 2
#     Edge 72, Type (0, 1), BuildingBlock: EZIPEK_clean_linker_0, # of connection points: 2
#     Edge 73, Type (0, 1), BuildingBlock: EZIPEK_clean_linker_0, # of connection points: 2
#     Edge 74, Type (0, 1), BuildingBlock: EZIPEK_clean_linker_0, # of connection points: 2
#     Edge 75, Type (0, 1), BuildingBlock: EZIPEK_clean_linker_0, # of connection points: 2
#     Edge 76, Type (0, 1), BuildingBlock: EZIPEK_clean_linker_0, # of connection points: 2
#     Edge 77, Type (0, 1), BuildingBlock: EZIPEK_clean_linker_0, # of connection points: 2
#     Edge 78, Type (0, 1), BuildingBlock: EZIPEK_clean_linker_0, # of connection points: 2
#     Edge 79, Type (0, 1), BuildingBlock: EZIPEK_clean_linker_0, # of connection points: 2
#     Edge 80, Type (0, 1), BuildingBlock: EZIPEK_clean_linker_0, # of connection points: 2
# Relax obj value: 0.034
# Max RMSD: 0.129
# Mean RMSD: 0.112
data_MOF--net-eea--node1-HISSIN_clean_sbu_0--node2-ESEHIV_clean_linker_0--edge1-EZIPEK_clean_linker_0
_symmetry_space_group_name_H-M    P1
_symmetry_Int_Tables_number       1
_symmetry_cell_setting            triclinic
loop_
_symmetry_equiv_pos_as_xyz
'x, y, z'
_cell_length_a     34.127285
_cell_length_b     33.958579
_cell_length_c     55.83976
_cell_angle_alpha  93.265814
_cell_angle_beta   93.043215
_cell_angle_gamma 119.83283
loop_
_atom_site_label
_atom_site_type_symbol
_atom_site_fract_x
_atom_site_fract_y
_atom_site_fract_z
_atom_type_partial_charge
H0 H 0.27442 0.20728 0.44528 0.0
H1 H 0.3015 0.09727 0.44502 0.0
H2 H 0.24161 0.12 0.38088 0.0
C3 C 0.27508 0.1791 0.43552 0.0
C4 C 0.25817 0.1667 0.41137 0.0
C5 C 0.29098 0.15396 0.4474 0.0
C6 C 0.29181 0.11748 0.43469 0.0
C7 C 0.27837 0.10661 0.40958 0.0
C8 C 0.25859 0.13017 0.39885 0.0
H9 H 0.81476 0.08193 0.45217 0.0
H10 H 0.94206 0.20571 0.44927 0.0
H11 H 0.88787 0.10146 0.3895 0.0
C12 C 0.84395 0.10289 0.44263 0.0
C13 C 0.84764 0.0867 0.4197 0.0
C14 C 0.87793 0.14562 0.45349 0.0
C15 C 0.91575 0.17261 0.44101 0.0
C16 C 0.91935 0.15684 0.41778 0.0
C17 C 0.88512 0.11391 0.4073 0.0
H18 H 0.82306 0.74185 0.45668 0.0
H19 H 0.95253 0.74866 0.45458 0.0
H20 H 0.90317 0.79745 0.39754 0.0
C21 C 0.85372 0.75119 0.44795 0.0
C22 C 0.8594 0.77064 0.42593 0.0
C23 C 0.88719 0.74311 0.45854 0.0
C24 C 0.92673 0.7551 0.44678 0.0
C25 C 0.93262 0.77496 0.42478 0.0
C26 C 0.89886 0.78253 0.41456 0.0
H27 H 0.05947 0.25352 0.58919 0.0
H28 H 0.18215 0.2478 0.58398 0.0
H29 H 0.10472 0.19906 0.64495 0.0
C30 C 0.08412 0.24512 0.5966 0.0
C31 C 0.07779 0.22538 0.61856 0.0
C32 C 0.12154 0.25307 0.58392 0.0
C33 C 0.15315 0.24168 0.59358 0.0
C34 C 0.14735 0.2226 0.61578 0.0
C35 C 0.10955 0.21433 0.62803 0.0
H36 H 0.71458 0.91287 0.59339 0.0
H37 H 0.70595 0.78169 0.59044 0.0
H38 H 0.76686 0.8753 0.65428 0.0
C39 C 0.71985 0.88784 0.60201 0.0
C40 C 0.74114 0.89834 0.6255 0.0
C41 C 0.70675 0.84561 0.58936 0.0
C42 C 0.7149 0.81387 0.60036 0.0
C43 C 0.73677 0.82475 0.62374 0.0
C44 C 0.74928 0.86665 0.63634 0.0
H45 H 0.02943 0.80904 0.58357 0.0
H46 H 0.17057 0.90597 0.58652 0.0
H47 H 0.10275 0.87085 0.65197 0.0
C48 C 0.061 0.83246 0.59428 0.0
C49 C 0.06223 0.83755 0.61948 0.0
C50 C 0.10095 0.85487 0.58288 0.0
C51 C 0.14166 0.88656 0.5964 0.0
C52 C 0.14457 0.89289 0.62189 0.0
C53 C 0.10385 0.86743 0.63287 0.0
H54 H 0.9711 0.55179 0.77832 0.0
H55 H 0.98567 0.43338 0.77187 0.0
H56 H 0.9094 0.45638 0.71736 0.0
C57 C 0.96888 0.52276 0.76808 0.0
C58 C 0.94145 0.50778 0.74623 0.0
C59 C 0.98996 0.49894 0.77693 0.0
C60 C 0.97857 0.45719 0.76357 0.0
C61 C 0.95496 0.44384 0.74025 0.0
C62 C 0.93366 0.46814 0.73299 0.0
H63 H 0.48358 0.41619 0.7867 0.0
H64 H 0.61076 0.54057 0.784 0.0
H65 H 0.56172 0.43279 0.72635 0.0
C66 C 0.51352 0.43677 0.77759 0.0
C67 C 0.51876 0.41972 0.75524 0.0
C68 C 0.54679 0.48007 0.78832 0.0
C69 C 0.58518 0.50688 0.77608 0.0
C70 C 0.59058 0.48973 0.75365 0.0
C71 C 0.55755 0.44607 0.74357 0.0
H72 H 0.48921 0.07397 0.78744 0.0
H73 H 0.61706 0.07714 0.78654 0.0
H74 H 0.57184 0.12877 0.72911 0.0
C75 C 0.51994 0.08251 0.77893 0.0
C76 C 0.52682 0.1022 0.75701 0.0
C77 C 0.55237 0.07338 0.78979 0.0
C78 C 0.59198 0.08427 0.77841 0.0
C79 C 0.59918 0.10452 0.75653 0.0
C80 C 0.5665 0.11337 0.74601 0.0
H81 H 0.71389 0.58869 0.92256 0.0
H82 H 0.84066 0.59195 0.91593 0.0
H83 H 0.77195 0.5489 0.98002 0.0
C84 C 0.74059 0.58312 0.92992 0.0
C85 C 0.73823 0.5673 0.95285 0.0
C86 C 0.77788 0.59291 0.91671 0.0
C87 C 0.81212 0.58502 0.92613 0.0
C88 C 0.80975 0.56876 0.94891 0.0
C89 C 0.77338 0.56093 0.96232 0.0
H90 H 0.38697 0.24522 0.92213 0.0
H91 H 0.38388 0.11759 0.92639 0.0
H92 H 0.44328 0.22089 0.9865 0.0
C93 C 0.39403 0.22273 0.93222 0.0
C94 C 0.41568 0.23749 0.95563 0.0
C95 C 0.38215 0.17938 0.92164 0.0
C96 C 0.39201 0.15073 0.9347 0.0
C97 C 0.41421 0.16575 0.9581 0.0
C98 C 0.42553 0.20893 0.9686 0.0
H99 H 0.71132 0.11852 0.92389 0.0
H100 H 0.83928 0.23886 0.91668 0.0
H101 H 0.7695 0.22948 0.97997 0.0
C102 C 0.73833 0.15222 0.93095 0.0
C103 C 0.7365 0.17112 0.95361 0.0
C104 C 0.77515 0.17689 0.91743 0.0
C105 C 0.81047 0.22009 0.92689 0.0
C106 C 0.8084 0.23937 0.94939 0.0
C107 C 0.77114 0.21483 0.96254 0.0
H108 H 0.63268 0.89581 0.11013 0.0
H109 H 0.61009 0.76369 0.12302 0.0
H110 H 0.58264 0.78824 0.0519 0.0
C111 C 0.62454 0.8623 0.10258 0.0
C112 C 0.61251 0.84889 0.07759 0.0
C113 C 0.62503 0.83234 0.11872 0.0
C114 C 0.61058 0.78715 0.11049 0.0
C115 C 0.59597 0.77208 0.08614 0.0
C116 C 0.59671 0.8026 0.07004 0.0
H117 H 0.16871 0.75525 0.1249 0.0
H118 H 0.29876 0.87537 0.12065 0.0
H119 H 0.23689 0.7722 0.06054 0.0
C120 C 0.19762 0.77528 0.11499 0.0
C121 C 0.19894 0.75908 0.09159 0.0
C122 C 0.23332 0.81741 0.12555 0.0
C123 C 0.27096 0.84293 0.1126 0.0
C124 C 0.27216 0.82655 0.08905 0.0
C125 C 0.236 0.78484 0.07867 0.0
H126 H 0.1441 0.40535 0.11817 0.0
H127 H 0.27306 0.41085 0.11839 0.0
H128 H 0.23008 0.46534 0.06157 0.0
C129 C 0.1755 0.41516 0.1101 0.0
C130 C 0.18319 0.43632 0.08852 0.0
C131 C 0.20809 0.40655 0.12132 0.0
C132 C 0.2482 0.41829 0.11027 0.0
C133 C 0.25617 0.43958 0.08871 0.0
C134 C 0.22395 0.44907 0.07821 0.0
H135 H 0.3886 0.91593 0.25576 0.0
H136 H 0.51064 0.90827 0.25224 0.0
H137 H 0.43052 0.85962 0.31211 0.0
C138 C 0.41234 0.90651 0.26333 0.0
C139 C 0.40501 0.88655 0.28528 0.0
C140 C 0.45027 0.9141 0.25111 0.0
C141 C 0.48106 0.90208 0.26131 0.0
C142 C 0.4741 0.88266 0.28335 0.0
C143 C 0.43591 0.87465 0.29511 0.0
H144 H 0.04493 0.57856 0.25744 0.0
H145 H 0.04643 0.45255 0.25779 0.0
H146 H 0.1006 0.54984 0.3205 0.0
C147 C 0.05234 0.55559 0.26682 0.0
C148 C 0.07338 0.56872 0.29046 0.0
C149 C 0.04275 0.51381 0.2549 0.0
C150 C 0.05326 0.48462 0.26699 0.0
C151 C 0.07391 0.49753 0.29072 0.0
C152 C 0.0837 0.53943 0.30237 0.0
H153 H 0.37429 0.44469 0.25487 0.0
H154 H 0.50778 0.5592 0.25394 0.0
H155 H 0.43177 0.54408 0.31546 0.0
C156 C 0.40285 0.47565 0.26387 0.0
C157 C 0.4002 0.49148 0.28706 0.0
C158 C 0.44192 0.50049 0.25205 0.0
C159 C 0.47935 0.53979 0.26414 0.0
C160 C 0.47932 0.55375 0.28857 0.0
C161 C 0.43722 0.53128 0.2986 0.0
Eu162 Eu 0.48852 0.96845 0.99241 0.0
Eu163 Eu 0.5156 0.02486 0.0478 0.0
C164 C 0.47394 0.05405 1.00399 0.0
C165 C 0.48291 0.95147 0.92431 0.0
C166 C 0.47893 0.98953 0.91924 0.0
C167 C 0.51252 0.9528 0.88539 0.0
C168 C 0.49156 0.00895 0.89746 0.0
C169 C 0.49982 0.93334 0.90717 0.0
C170 C 0.50849 0.99077 0.88035 0.0
C171 C 0.472 0.932 0.94779 0.0
O172 O 0.44108 0.97457 0.04265 0.0
O173 O 0.43951 0.91909 1.01662 0.0
C174 C 0.42254 0.93188 0.03404 0.0
O175 O 0.53977 0.95556 1.01164 0.0
O176 O 0.49531 0.05234 0.07812 0.0
O177 O 0.55814 0.05128 0.08198 0.0
O178 O 0.52279 0.96276 0.05018 0.0
C179 C 0.54157 0.94891 0.03442 0.0
O180 O 0.54996 0.0366 0.98963 0.0
O181 O 0.58014 0.06109 0.02928 0.0
O182 O 0.50309 0.06905 0.02333 0.0
O183 O 0.50652 0.93866 0.96215 0.0
O184 O 0.4427 0.93775 0.95938 0.0
O185 O 0.45688 0.01279 0.9932 0.0
C186 C 0.51532 0.03559 0.11594 0.0
C187 C 0.51318 0.9938 0.11926 0.0
C188 C 0.49169 0.03676 0.15631 0.0
C189 C 0.50103 0.97406 0.14103 0.0
C190 C 0.50415 0.05668 0.1346 0.0
C191 C 0.49037 0.99545 0.1598 0.0
C192 C 0.52835 0.05699 0.09307 0.0
C193 C 0.58348 0.0631 1.00594 0.0
H194 H 0.46627 0.00443 0.93216 0.0
H195 H 0.52551 0.93827 0.87244 0.0
H196 H 0.48815 0.0382 0.89393 0.0
H197 H 0.50356 0.90429 0.91073 0.0
H198 H 0.5211 0.97649 0.10508 0.0
H199 H 0.48351 0.05381 0.17051 0.0
H200 H 0.50018 0.94217 0.14329 0.0
H201 H 0.5052 0.08867 0.1324 0.0
Eu202 Eu 0.02934 0.51708 0.99322 0.0
Eu203 Eu 0.96876 0.48937 0.0408 0.0
C204 C 0.94103 0.41838 0.994 0.0
C205 C 0.06353 0.53107 0.92856 0.0
C206 C 0.01862 0.51099 0.91812 0.0
C207 C 0.0902 0.54264 0.88873 0.0
C208 C 0.00958 0.50685 0.89305 0.0
C209 C 0.09917 0.54661 0.91373 0.0
C210 C 0.04541 0.52295 0.87824 0.0
C211 C 0.07399 0.53779 0.95486 0.0
O212 O 0.01334 0.45821 0.04372 0.0
O213 O 0.07116 0.50598 0.0221 0.0
C214 C 0.05534 0.47644 0.03831 0.0
O215 O 0.05999 0.5823 0.01764 0.0
O216 O 0.93195 0.4397 0.06617 0.0
O217 O 0.9384 0.50656 0.07 0.0
O218 O 0.03452 0.55393 0.05364 0.0
C219 C 0.06136 0.58721 0.04119 0.0
O220 O 0.96502 0.51794 0.98186 0.0
O221 O 0.93976 0.52393 0.01862 0.0
O222 O 0.92592 0.43453 1.01086 0.0
O223 O 0.06257 0.5644 0.96645 0.0
O224 O 0.06441 0.50156 0.96581 0.0
O225 O 0.98265 0.44114 0.98797 0.0
C226 C 0.94265 0.47394 0.1057 0.0
C227 C 0.98146 0.514 0.11611 0.0
C228 C 0.93477 0.44162 0.14411 0.0
C229 C 0.99634 0.51804 0.14039 0.0
C230 C 0.91951 0.43777 0.11986 0.0
C231 C 0.97311 0.48192 0.15456 0.0
C232 C 0.92707 0.46895 0.07998 0.0
C233 C 0.939 0.52648 0.99523 0.0
H234 H 0.99074 0.49914 0.92936 0.0
H235 H 0.1182 0.55527 0.87754 0.0
H236 H 0.97485 0.49166 0.88522 0.0
H237 H 0.13401 0.56235 0.9215 0.0
H238 H 0.00041 0.54216 0.1055 0.0
H239 H 0.91661 0.41332 0.15477 0.0
H240 H 0.02615 0.54927 0.14812 0.0
H241 H 0.88982 0.40645 0.11211 0.0
Eu242 Eu 0.515 0.49001 0.04667 0.0
Eu243 Eu 0.48288 0.51788 0.99533 0.0
C244 C 0.52778 0.58899 0.04228 0.0
C245 C 0.51733 0.47068 0.11208 0.0
C246 C 0.48653 0.48608 0.11494 0.0
C247 C 0.5122 0.45335 0.15375 0.0
C248 C 0.46776 0.48392 0.13685 0.0
C249 C 0.53102 0.45553 0.13183 0.0
C250 C 0.47706 0.46377 0.15631 0.0
C251 C 0.53507 0.47066 0.08859 0.0
O252 O 0.54511 0.5132 0.98892 0.0
O253 O 0.5787 0.52608 0.02759 0.0
C254 C 0.58069 0.52515 1.00414 0.0
O255 O 0.49897 0.4324 0.0183 0.0
O256 O 0.50136 0.56737 0.96859 0.0
O257 O 0.43716 0.50432 0.96302 0.0
O258 O 0.45443 0.44246 0.98955 0.0
C259 C 0.46933 0.41751 0.99916 0.0
O260 O 0.44104 0.46582 0.04816 0.0
O261 O 0.42862 0.50768 0.02064 0.0
O262 O 0.52684 0.58325 0.01884 0.0
O263 O 0.50603 0.43998 0.07189 0.0
O264 O 0.55852 0.51043 0.08047 0.0
O265 O 0.51433 0.55501 0.05572 0.0
C266 C 0.47798 0.53262 0.92873 0.0
C267 C 0.47731 0.49207 0.92105 0.0
C268 C 0.50567 0.56208 0.89057 0.0
C269 C 0.49024 0.48645 0.89826 0.0
C270 C 0.49238 0.56756 0.9133 0.0
C271 C 0.50455 0.52139 0.8828 0.0
C272 C 0.46681 0.54009 0.95328 0.0
C273 C 0.41632 0.48175 0.03878 0.0
H274 H 0.47713 0.5001 0.10021 0.0
H275 H 0.52655 0.44426 0.16864 0.0
H276 H 0.44686 0.49933 0.1382 0.0
H277 H 0.55651 0.44559 0.13037 0.0
H278 H 0.46717 0.46487 0.93274 0.0
H279 H 0.51675 0.58953 0.879 0.0
H280 H 0.48926 0.45486 0.89268 0.0
H281 H 0.49379 0.59934 0.91893 0.0
Eu282 Eu 0.14146 0.29669 0.32387 0.0
Eu283 Eu 0.17562 0.35516 0.37937 0.0
C284 C 0.1309 0.38471 0.33685 0.0
C285 C 0.13752 0.28323 0.25591 0.0
C286 C 0.14001 0.32508 0.25223 0.0
C287 C 0.16299 0.28201 0.21599 0.0
C288 C 0.15311 0.34475 0.23052 0.0
C289 C 0.14945 0.2621 0.23762 0.0
C290 C 0.16456 0.32333 0.21213 0.0
C291 C 0.12389 0.26219 0.27889 0.0
O292 O 0.1113 0.2897 0.38271 0.0
O293 O 0.07798 0.26721 0.34355 0.0
C294 C 0.07598 0.26564 0.36699 0.0
O295 O 0.15281 0.25204 0.34842 0.0
O296 O 0.16326 0.38698 0.41095 0.0
O297 O 0.22287 0.38016 0.41206 0.0
O298 O 0.20626 0.31031 0.37534 0.0
C299 C 0.18557 0.26784 0.36597 0.0
O300 O 0.21629 0.34653 0.32558 0.0
O301 O 0.22718 0.40191 0.35536 0.0
O302 O 0.13642 0.38318 0.36015 0.0
O303 O 0.15622 0.26412 0.29338 0.0
O304 O 0.09644 0.27094 0.2905 0.0
O305 O 0.13881 0.36067 0.32071 0.0
C306 C 0.18523 0.3694 0.44772 0.0
C307 C 0.15845 0.32216 0.44833 0.0
C308 C 0.18653 0.37839 0.49133 0.0
C309 C 0.14445 0.30344 0.47019 0.0
C310 C 0.2005 0.39717 0.46949 0.0
C311 C 0.15432 0.33147 0.49208 0.0
C312 C 0.19693 0.38973 0.42454 0.0
C313 C 0.23948 0.38826 0.33607 0.0
H314 H 0.13175 0.34262 0.26612 0.0
H315 H 0.17183 0.26496 0.20212 0.0
H316 H 0.15422 0.37668 0.22803 0.0
H317 H 0.14829 0.23014 0.24009 0.0
H318 H 0.1483 0.2996 0.43186 0.0
H319 H 0.20208 0.40141 0.50747 0.0
H320 H 0.12647 0.26675 0.46947 0.0
H321 H 0.22334 0.43355 0.46965 0.0
Eu322 Eu 0.69217 0.83358 0.32871 0.0
Eu323 Eu 0.63426 0.80547 0.37626 0.0
C324 C 0.61125 0.73359 0.33137 0.0
C325 C 0.71724 0.85582 0.26464 0.0
C326 C 0.67099 0.83799 0.2581 0.0
C327 C 0.73321 0.88017 0.22465 0.0
C328 C 0.65606 0.84226 0.23513 0.0
C329 C 0.74813 0.87582 0.24763 0.0
C330 C 0.68714 0.86687 0.21838 0.0
C331 C 0.73318 0.85458 0.28935 0.0
O332 O 0.70286 0.8156 0.38864 0.0
O333 O 0.72304 0.80135 0.3519 0.0
C334 C 0.72762 0.80478 0.37561 0.0
O335 O 0.73367 0.89149 0.35745 0.0
O336 O 0.6052 0.75776 0.40347 0.0
O337 O 0.59319 0.81452 0.40224 0.0
O338 O 0.67785 0.88187 0.38184 0.0
C339 C 0.71845 0.90653 0.37475 0.0
O340 O 0.64223 0.85835 0.32453 0.0
O341 O 0.58765 0.80875 0.34712 0.0
O342 O 0.6214 0.74158 0.35471 0.0
O343 O 0.73356 0.88455 0.30516 0.0
O344 O 0.71628 0.81431 0.29717 0.0
O345 O 0.62712 0.76731 0.3177 0.0
C346 C 0.60293 0.79243 0.44045 0.0
C347 C 0.63886 0.83555 0.44969 0.0
C348 C 0.59678 0.7671 0.48057 0.0
C349 C 0.65367 0.84432 0.47421 0.0
C350 C 0.58172 0.75844 0.45606 0.0
C351 C 0.6331 0.80996 0.48972 0.0
C352 C 0.58977 0.78144 0.41441 0.0
C353 C 0.60057 0.83798 0.33073 0.0
H354 H 0.64631 0.82064 0.27078 0.0
H355 H 0.75844 0.89324 0.21195 0.0
H356 H 0.61984 0.82505 0.23083 0.0
H357 H 0.78388 0.88808 0.25207 0.0
H358 H 0.65609 0.8621 0.4379 0.0
H359 H 0.58076 0.7402 0.49232 0.0
H360 H 0.6819 0.87749 0.48101 0.0
H361 H 0.55426 0.72488 0.44917 0.0
Eu362 Eu 0.18495 0.82589 0.38049 0.0
Eu363 Eu 0.15204 0.84683 0.32822 0.0
C364 C 0.21157 0.92564 0.36913 0.0
C365 C 0.18164 0.81621 0.44656 0.0
C366 C 0.15921 0.84131 0.44747 0.0
C367 C 0.1622 0.7963 0.48698 0.0
C368 C 0.13763 0.84312 0.46781 0.0
C369 C 0.18396 0.7947 0.46669 0.0
C370 C 0.13535 0.81755 0.48743 0.0
C371 C 0.201 0.8113 0.42435 0.0
O372 O 0.21321 0.84032 0.32148 0.0
O373 O 0.24752 0.85143 0.36001 0.0
C374 C 0.24848 0.84965 0.3364 0.0
O375 O 0.16906 0.7662 0.35391 0.0
O376 O 0.15438 0.89319 0.30191 0.0
O377 O 0.11273 0.82043 0.29313 0.0
O378 O 0.11533 0.77111 0.33004 0.0
C379 C 0.13472 0.74838 0.33721 0.0
O380 O 0.11045 0.80132 0.3799 0.0
O381 O 0.10389 0.84873 0.35435 0.0
O382 O 0.20956 0.91245 0.34642 0.0
O383 O 0.17227 0.77908 0.40817 0.0
O384 O 0.22702 0.84895 0.41485 0.0
O385 O 0.19186 0.89557 0.38455 0.0
C386 C 0.1517 0.86301 0.26202 0.0
C387 C 0.19836 0.87847 0.2619 0.0
C388 C 0.14209 0.84314 0.21873 0.0
C389 C 0.21668 0.87621 0.24033 0.0
C390 C 0.12386 0.84576 0.24024 0.0
C391 C 0.1885 0.85776 0.21865 0.0
C392 C 0.13101 0.86026 0.28488 0.0
C393 C 0.08938 0.82198 0.37193 0.0
H394 H 0.15839 0.85968 0.43238 0.0
H395 H 0.16726 0.78092 0.50237 0.0
H396 H 0.12397 0.86561 0.4677 0.0
H397 H 0.20251 0.77647 0.46673 0.0
H398 H 0.22042 0.89127 0.27854 0.0
H399 H 0.11982 0.82884 0.20219 0.0
H400 H 0.25256 0.88767 0.24064 0.0
H401 H 0.08777 0.83317 0.23997 0.0
Eu402 Eu 0.81673 0.62941 0.66029 0.0
Eu403 Eu 0.84192 0.69007 0.71417 0.0
C404 C 0.79707 0.71289 0.66897 0.0
C405 C 0.81866 0.61633 0.59233 0.0
C406 C 0.81283 0.65329 0.58703 0.0
C407 C 0.85155 0.6209 0.55405 0.0
C408 C 0.82614 0.6737 0.56552 0.0
C409 C 0.8383 0.60049 0.57561 0.0
C410 C 0.84548 0.65763 0.54877 0.0
C411 C 0.80604 0.59537 0.61548 0.0
O412 O 0.77965 0.62283 0.71778 0.0
O413 O 0.75149 0.59295 0.67842 0.0
C414 C 0.7468 0.59404 0.7017 0.0
O415 O 0.82992 0.58808 0.68633 0.0
O416 O 0.82434 0.72205 0.74337 0.0
O417 O 0.88708 0.72101 0.74753 0.0
O418 O 0.8768 0.64853 0.71426 0.0
C419 C 0.86058 0.60632 0.70501 0.0
O420 O 0.89175 0.67964 0.66777 0.0
O421 O 0.89013 0.73752 0.68897 0.0
O422 O 0.79973 0.71173 0.69243 0.0
O423 O 0.83934 0.602 0.6309 0.0
O424 O 0.77483 0.59938 0.62607 0.0
O425 O 0.81021 0.69093 0.65442 0.0
C426 C 0.84499 0.70869 0.78155 0.0
C427 C 0.81452 0.66205 0.78205 0.0
C428 C 0.84691 0.71796 0.82515 0.0
C429 C 0.7993 0.64384 0.8038 0.0
C430 C 0.86231 0.7362 0.80337 0.0
C431 C 0.81158 0.67213 0.82575 0.0
C432 C 0.85801 0.72836 0.75835 0.0
C433 C 0.90844 0.72351 0.67292 0.0
H434 H 0.7984 0.66679 0.59964 0.0
H435 H 0.86639 0.60793 0.54141 0.0
H436 H 0.82116 0.70199 0.56187 0.0
H437 H 0.84351 0.57236 0.57928 0.0
H438 H 0.8022 0.63955 0.76553 0.0
H439 H 0.8638 0.74042 0.84136 0.0
H440 H 0.77838 0.60727 0.8029 0.0
H441 H 0.88775 0.77191 0.8036 0.0
Eu442 Eu 0.36146 0.16878 0.66095 0.0
Eu443 Eu 0.30393 0.14111 0.70883 0.0
C444 C 0.28057 0.06884 0.66428 0.0
C445 C 0.38441 0.18449 0.59589 0.0
C446 C 0.33794 0.15934 0.5886 0.0
C447 C 0.39846 0.2072 0.55544 0.0
C448 C 0.32179 0.15921 0.56506 0.0
C449 C 0.41466 0.20722 0.57899 0.0
C450 C 0.35131 0.18667 0.54841 0.0
C451 C 0.40122 0.18744 0.62107 0.0
O452 O 0.37206 0.14985 0.72088 0.0
O453 O 0.39247 0.13665 0.68396 0.0
C454 C 0.39681 0.13938 0.70764 0.0
O455 O 0.40405 0.22665 0.68975 0.0
O456 O 0.2729 0.09212 0.73529 0.0
O457 O 0.26565 0.15193 0.73599 0.0
O458 O 0.3489 0.21729 0.71465 0.0
C459 C 0.38955 0.24156 0.70753 0.0
O460 O 0.31279 0.1951 0.65749 0.0
O461 O 0.2576 0.14501 0.67962 0.0
O462 O 0.29143 0.0772 0.68755 0.0
O463 O 0.39952 0.21781 0.63568 0.0
O464 O 0.38705 0.14875 0.63037 0.0
O465 O 0.29605 0.10238 0.65047 0.0
C466 C 0.27438 0.12613 0.77333 0.0
C467 C 0.31145 0.16816 0.78306 0.0
C468 C 0.26827 0.09781 0.81276 0.0
C469 C 0.32676 0.17494 0.80746 0.0
C470 C 0.25275 0.09113 0.78836 0.0
C471 C 0.3055 0.13969 0.82241 0.0
C472 C 0.26026 0.11724 0.74731 0.0
C473 C 0.27101 0.17475 0.66346 0.0
H474 H 0.31401 0.13963 0.60114 0.0
H475 H 0.42369 0.22292 0.54294 0.0
H476 H 0.28603 0.13654 0.56028 0.0
H477 H 0.45093 0.22503 0.58397 0.0
H478 H 0.32902 0.19548 0.77174 0.0
H479 H 0.25167 0.07022 0.82405 0.0
H480 H 0.35568 0.20739 0.81462 0.0
H481 H 0.22443 0.05834 0.78111 0.0
Eu482 Eu 0.85828 0.16104 0.71499 0.0
Eu483 Eu 0.81969 0.17686 0.66181 0.0
C484 C 0.87907 0.25853 0.70198 0.0
C485 C 0.86263 0.15076 0.78172 0.0
C486 C 0.82933 0.16308 0.78339 0.0
C487 C 0.85484 0.13249 0.82321 0.0
C488 C 0.80803 0.15893 0.80458 0.0
C489 C 0.87617 0.13668 0.80197 0.0
C490 C 0.8174 0.13973 0.82447 0.0
C491 C 0.88171 0.15094 0.75864 0.0
O492 O 0.88121 0.17323 0.65355 0.0
O493 O 0.91733 0.18374 0.69164 0.0
C494 C 0.91693 0.18194 0.66787 0.0
O495 O 0.83786 0.09637 0.69215 0.0
O496 O 0.82654 0.22282 0.63438 0.0
O497 O 0.77167 0.1529 0.6296 0.0
O498 O 0.79471 0.10158 0.66055 0.0
C499 C 0.80985 0.07884 0.67253 0.0
O500 O 0.78385 0.13576 0.71657 0.0
O501 O 0.77195 0.1768 0.68856 0.0
O502 O 0.87517 0.24447 0.67925 0.0
O503 O 0.85503 0.11711 0.74273 0.0
O504 O 0.90118 0.18965 0.7491 0.0
O505 O 0.86283 0.22959 0.71824 0.0
C506 C 0.80791 0.18611 0.59488 0.0
C507 C 0.80706 0.14619 0.58571 0.0
C508 C 0.83792 0.22055 0.55811 0.0
C509 C 0.821 0.14335 0.56287 0.0
C510 C 0.82353 0.22324 0.58087 0.0
C511 C 0.83648 0.18045 0.54887 0.0
C512 C 0.79491 0.1904 0.61938 0.0
C513 C 0.75994 0.15254 0.70716 0.0
H514 H 0.81973 0.17588 0.76819 0.0
H515 H 0.86897 0.12428 0.83856 0.0
H516 H 0.78493 0.17187 0.80501 0.0
H517 H 0.90324 0.12881 0.8014 0.0
H518 H 0.79586 0.1172 0.5962 0.0
H519 H 0.84986 0.24957 0.5476 0.0
H520 H 0.81976 0.11217 0.55608 0.0
H521 H 0.82493 0.25451 0.58763 0.0
C522 C 0.34642 0.84267 0.07409 0.0
C523 C 0.31077 0.85278 0.0746 0.0
C524 C 0.34311 0.90501 0.04335 0.0
C525 C 0.38125 0.89876 0.04475 0.0
N526 N 0.42158 0.86446 0.06251 0.0
N527 N 0.27605 0.89556 0.0613 0.0
C528 C 0.38335 0.86792 0.0602 0.0
C529 C 0.30931 0.88447 0.05961 0.0
N530 N 0.34462 0.80849 0.08667 0.0
N531 N 0.33892 0.92987 0.02599 0.0
H532 H 0.25009 0.88037 0.07257 0.0
H533 H 0.27578 0.922 0.05289 0.0
H534 H 0.36282 0.94458 1.01357 0.0
H535 H 0.31015 0.93256 0.0224 0.0
H536 H 0.36649 0.79568 0.08483 0.0
H537 H 0.31931 0.79077 0.09795 0.0
H538 H 0.42792 0.84747 0.07577 0.0
H539 H 0.44837 0.88063 0.05188 0.0
C540 C 0.13456 0.47321 0.08788 0.0
C541 C 0.14821 0.4444 0.07618 0.0
C542 C 0.10193 0.4377 0.0392 0.0
C543 C 0.086 0.46395 0.0515 0.0
N544 N 0.0781 0.49622 0.0895 0.0
N545 N 0.13576 0.38994 0.04274 0.0
C546 C 0.0992 0.47813 0.07649 0.0
C547 C 0.12932 0.424 0.05236 0.0
N548 N 0.15702 0.49805 0.10926 0.0
N549 N 0.09061 0.42547 1.01501 0.0
H550 H 0.15394 0.3776 0.05219 0.0
H551 H 0.11929 0.37073 0.02643 0.0
H552 H 0.06827 0.43222 1.00502 0.0
H553 H 0.10554 0.41108 1.00457 0.0
H554 H 0.15162 0.52324 0.11723 0.0
H555 H 0.18429 0.49693 0.11784 0.0
H556 H 0.08296 0.50214 0.10823 0.0
H557 H 0.05322 0.50219 0.08192 0.0
C558 C 0.60676 0.7047 0.07665 0.0
C559 C 0.57784 0.72359 0.07705 0.0
C560 C 0.5183 0.65632 0.05228 0.0
C561 C 0.54523 0.63541 0.05401 0.0
N562 N 0.6129 0.63683 0.07038 0.0
N563 N 0.50241 0.71256 0.07047 0.0
C564 C 0.58866 0.65858 0.06719 0.0
C565 C 0.53242 0.69786 0.06645 0.0
N566 N 0.65198 0.73143 0.08395 0.0
N567 N 0.47988 0.63732 0.03668 0.0
H568 H 0.51122 0.74223 0.08144 0.0
H569 H 0.46782 0.69294 0.06504 0.0
H570 H 0.46832 0.6069 0.02584 0.0
H571 H 0.46168 0.65378 0.03299 0.0
H572 H 0.67554 0.72088 0.08157 0.0
H573 H 0.66687 0.76565 0.0905 0.0
H574 H 0.64227 0.65016 0.08213 0.0
H575 H 0.6021 0.60404 0.06251 0.0
C576 C 0.85474 0.32449 0.94799 0.0
C577 C 0.84551 0.28511 0.95967 0.0
C578 C 0.89941 0.33337 0.994 0.0
C579 C 0.91028 0.3724 0.98168 0.0
N580 N 0.90787 0.40398 0.94433 0.0
N581 N 0.86748 0.2514 0.99074 0.0
C582 C 0.89117 0.3676 0.95778 0.0
C583 C 0.87036 0.28934 0.98183 0.0
N584 N 0.82722 0.3213 0.92838 0.0
N585 N 0.91672 0.33831 0.01733 0.0
H586 H 0.84774 0.21874 0.98186 0.0
H587 H 0.88802 0.25271 1.0056 0.0
H588 H 0.94011 0.36987 0.02643 0.0
H589 H 0.90577 0.31141 0.02813 0.0
H590 H 0.82963 0.34971 0.92084 0.0
H591 H 0.79916 0.29064 0.92103 0.0
H592 H 0.89828 0.40109 0.92599 0.0
H593 H 0.93405 0.43636 0.95098 0.0
C594 C 0.67174 0.51305 0.97451 0.0
C595 C 0.69907 0.55747 0.96718 0.0
C596 C 0.64951 0.58168 0.98535 0.0
C597 C 0.62439 0.53824 0.99402 0.0
N598 N 0.61957 0.46735 1.00261 0.0
N599 N 0.7204 0.63703 0.97107 0.0
C600 C 0.63819 0.5055 0.99052 0.0
C601 C 0.6898 0.59273 0.97415 0.0
N602 N 0.67597 0.47741 0.96516 0.0
N603 N 0.63473 0.61233 0.98766 0.0
H604 H 0.75111 0.64677 0.96381 0.0
H605 H 0.71752 0.66457 0.97792 0.0
H606 H 0.60687 0.60647 0.99695 0.0
H607 H 0.64846 0.64228 0.97914 0.0
H608 H 0.6538 0.44363 0.96809 0.0
H609 H 0.6985 0.48085 0.95243 0.0
H610 H 0.63148 0.44443 1.00246 0.0
H611 H 0.59492 0.46085 1.0145 0.0
C612 C 0.40927 0.1161 0.99099 0.0
C613 C 0.4302 0.13839 0.97068 0.0
C614 C 0.47812 0.10391 0.9717 0.0
C615 C 0.46015 0.0846 0.99322 0.0
N616 N 0.41241 0.07614 0.02513 0.0
N617 N 0.49226 0.1631 0.94565 0.0
C618 C 0.42702 0.09212 1.00352 0.0
C619 C 0.46693 0.13514 0.9622 0.0
N620 N 0.37149 0.11647 0.99769 0.0
N621 N 0.50481 0.09149 0.9598 0.0
H622 H 0.48583 0.18733 0.9386 0.0
H623 H 0.52244 0.16559 0.94082 0.0
H624 H 0.514 0.06873 0.966 0.0
H625 H 0.51443 0.10058 0.94265 0.0
H626 H 0.35181 0.09702 1.01073 0.0
H627 H 0.35771 0.13373 0.98889 0.0
H628 H 0.39184 0.08445 0.0348 0.0
H629 H 0.42337 0.05691 0.03429 0.0
C630 C 0.69965 0.11208 0.98264 0.0
C631 C 0.69865 0.14508 0.9685 0.0
C632 C 0.62904 0.13289 0.98532 0.0
C633 C 0.62672 0.09577 0.99681 0.0
N634 N 0.65782 0.04761 1.00567 0.0
N635 N 0.66079 0.18453 0.95443 0.0
C636 C 0.66175 0.08495 0.99549 0.0
C637 C 0.663 0.15505 0.9694 0.0
N638 N 0.73718 0.10731 0.9841 0.0
N639 N 0.59924 0.14746 0.99014 0.0
H640 H 0.68526 0.20163 0.94262 0.0
H641 H 0.63302 0.18936 0.95231 0.0
H642 H 0.57481 0.13241 1.00224 0.0
H643 H 0.60134 0.1768 0.98403 0.0
H644 H 0.74209 0.08742 0.99608 0.0
H645 H 0.76521 0.12598 0.97458 0.0
H646 H 0.67913 0.03443 1.00279 0.0
H647 H 0.63157 0.02817 1.01608 0.0
C648 C 0.8369 0.51356 0.9561 0.0
C649 C 0.84478 0.5588 0.95901 0.0
C650 C 0.91182 0.58178 0.9872 0.0
C651 C 0.90578 0.53729 0.98325 0.0
N652 N 0.86289 0.46041 0.96425 0.0
N653 N 0.8924 0.63756 0.97426 0.0
C654 C 0.86851 0.50314 0.96762 0.0
C655 C 0.88313 0.5934 0.97363 0.0
N656 N 0.79827 0.48031 0.94295 0.0
N657 N 0.944 0.61252 1.00455 0.0
H658 H 0.87154 0.64709 0.96499 0.0
H659 H 0.92244 0.6653 0.98235 0.0
H660 H 0.9652 0.60508 1.01497 0.0
H661 H 0.94716 0.64379 1.01017 0.0
H662 H 0.78737 0.44568 0.94212 0.0
H663 H 0.77551 0.48713 0.93342 0.0
H664 H 0.84031 0.43529 0.951 0.0
H665 H 0.88187 0.45016 0.97459 0.0
C666 C 0.3963 0.29187 0.97625 0.0
C667 C 0.42925 0.28378 0.96631 0.0
C668 C 0.48723 0.36421 0.97569 0.0
C669 C 0.45476 0.37201 0.9866 0.0
N670 N 0.37584 0.34709 0.99062 0.0
N671 N 0.50642 0.30997 0.95767 0.0
C672 C 0.4085 0.33694 0.985 0.0
C673 C 0.47485 0.31936 0.9663 0.0
N674 N 0.35379 0.25603 0.97823 0.0
N675 N 0.52864 0.40048 0.97245 0.0
H676 H 0.49817 0.27816 0.94936 0.0
H677 H 0.5412 0.33273 0.9599 0.0
H678 H 0.53736 0.43399 0.97756 0.0
H679 H 0.55266 0.39828 0.96264 0.0
H680 H 0.32991 0.2586 0.98802 0.0
H681 H 0.34337 0.22254 0.97172 0.0
H682 H 0.34117 0.32412 0.98753 0.0
H683 H 0.38296 0.37995 0.99595 0.0
C684 C 0.16616 0.67515 0.08186 0.0
C685 C 0.16189 0.71439 0.08037 0.0
C686 C 0.09395 0.67144 0.05196 0.0
C687 C 0.09651 0.63131 0.05435 0.0
N688 N 0.13458 0.59418 0.07133 0.0
N689 N 0.11932 0.74959 0.06722 0.0
C690 C 0.13236 0.63294 0.06941 0.0
C691 C 0.12498 0.71239 0.06639 0.0
N692 N 0.20352 0.67886 0.09451 0.0
N693 N 0.06276 0.67079 0.03532 0.0
H694 H 0.14204 0.78049 0.07716 0.0
H695 H 0.09047 0.749 0.05968 0.0
H696 H 0.03954 0.64156 0.02446 0.0
H697 H 0.06217 0.6998 0.03075 0.0
H698 H 0.21185 0.65326 0.0943 0.0
H699 H 0.2279 0.70875 0.10467 0.0
H700 H 0.15572 0.5909 0.08418 0.0
H701 H 0.11419 0.56441 0.06015 0.0
C702 C 0.29834 0.41573 0.06136 0.0
C703 C 0.29743 0.45046 0.07619 0.0
C704 C 0.37221 0.50677 0.06449 0.0
C705 C 0.3743 0.47143 0.05064 0.0
N706 N 0.34357 0.39058 0.0407 0.0
N707 N 0.33491 0.52772 0.09453 0.0
C708 C 0.33856 0.42543 0.05047 0.0
C709 C 0.33471 0.49573 0.07839 0.0
N710 N 0.26024 0.3736 0.05711 0.0
N711 N 0.40671 0.55078 0.06486 0.0
H712 H 0.30799 0.52074 0.10488 0.0
H713 H 0.36268 0.5602 0.09903 0.0
H714 H 0.43673 0.55938 0.05724 0.0
H715 H 0.40518 0.57897 0.07191 0.0
H716 H 0.25691 0.34859 0.04412 0.0
H717 H 0.23038 0.36475 0.06513 0.0
H718 H 0.32112 0.35633 0.04251 0.0
H719 H 0.37239 0.39587 0.03274 0.0
C720 C 0.62856 0.92812 0.06822 0.0
C721 C 0.61044 0.88135 0.0606 0.0
C722 C 0.55689 0.88399 0.03122 0.0
C723 C 0.56727 0.92694 0.04259 0.0
N724 N 0.6188 0.99418 0.06923 0.0
N725 N 0.59093 0.83859 0.02175 0.0
C726 C 0.60523 0.95063 0.06019 0.0
C727 C 0.58399 0.86521 0.03815 0.0
N728 N 0.67044 0.95162 0.08071 0.0
N729 N 0.5206 0.86018 1.0144 0.0
H730 H 0.61774 0.83232 0.02474 0.0
H731 H 0.5749 0.82908 1.00427 0.0
H732 H 0.49837 0.87156 1.00929 0.0
H733 H 0.51064 0.82714 1.00723 0.0
H734 H 0.6879 0.98675 0.08517 0.0
H735 H 0.68953 0.93592 0.08426 0.0
H736 H 0.64241 0.01088 0.08414 0.0
H737 H 0.60545 0.01329 0.06222 0.0
C738 C 0.98785 0.16784 0.39752 0.0
C739 C 0.95891 0.18478 0.40411 0.0
C740 C 0.006 0.25469 0.3851 0.0
C741 C 0.03241 0.23592 0.37683 0.0
N742 N 0.04223 0.17081 0.37041 0.0
N743 N 0.9345 0.23978 0.39935 0.0
C744 C 0.02123 0.19117 0.38148 0.0
C745 C 0.96624 0.22695 0.39651 0.0
N746 N 0.98497 0.13075 0.40749 0.0
N747 N 0.01951 0.29936 0.38264 0.0
H748 H 0.90443 0.21998 0.40713 0.0
H749 H 0.93594 0.26789 0.39195 0.0
H750 H 0.04785 0.32045 0.3739 0.0
H751 H 0.00455 0.31631 0.39077 0.0
H752 H 0.00822 0.11976 0.40519 0.0
H753 H 0.96216 0.11371 0.42004 0.0
H754 H 0.03253 0.13665 0.37139 0.0
H755 H 0.06654 0.187 0.35839 0.0
C756 C 0.78662 0.74241 0.39949 0.0
C757 C 0.8239 0.77842 0.41422 0.0
C758 C 0.80058 0.83232 0.40154 0.0
C759 C 0.76142 0.79579 0.38826 0.0
N760 N 0.71327 0.71505 0.37725 0.0
N761 N 0.86278 0.85592 0.43246 0.0
C762 C 0.75336 0.7505 0.38794 0.0
C763 C 0.82974 0.82288 0.41622 0.0
N764 N 0.78375 0.70084 0.39597 0.0
N765 N 0.81107 0.87626 0.39921 0.0
H766 H 0.88504 0.8503 0.44331 0.0
H767 H 0.86573 0.88761 0.43668 0.0
H768 H 0.79119 0.8844 0.38807 0.0
H769 H 0.84137 0.90468 0.40649 0.0
H770 H 0.76051 0.67482 0.38328 0.0
H771 H 0.80675 0.69329 0.40459 0.0
H772 H 0.70306 0.68092 0.37875 0.0
H773 H 0.68845 0.71965 0.3683 0.0
C774 C 0.2589 0.05332 0.37126 0.0
C775 C 0.27854 0.06715 0.39531 0.0
C776 C 0.27086 0.99187 0.39753 0.0
C777 C 0.23744 0.97503 0.37737 0.0
N778 N 0.19895 0.99208 0.34519 0.0
N779 N 0.33272 0.05917 0.42053 0.0
C780 C 0.23173 0.0064 0.36396 0.0
C781 C 0.29321 0.03918 0.40584 0.0
N782 N 0.27079 0.08443 0.35474 0.0
N783 N 0.28184 0.96317 0.40836 0.0
H784 H 0.35328 0.09462 0.42315 0.0
H785 H 0.3478 0.04155 0.42744 0.0
H786 H 0.27132 0.93032 0.40076 0.0
H787 H 0.30102 0.9719 0.42493 0.0
H788 H 0.25997 0.07505 0.33643 0.0
H789 H 0.29563 0.11856 0.35926 0.0
H790 H 0.19266 0.01487 0.3363 0.0
H791 H 0.17512 0.9579 0.34029 0.0
C792 C 0.56321 0.61892 0.29318 0.0
C793 C 0.52069 0.59413 0.30274 0.0
C794 C 0.54205 0.65737 0.33302 0.0
C795 C 0.58058 0.68572 0.32099 0.0
N796 N 0.63111 0.69176 0.2907 0.0
N797 N 0.4986 0.58051 0.34306 0.0
C798 C 0.59223 0.66608 0.30131 0.0
C799 C 0.51792 0.61018 0.32614 0.0
N800 N 0.57922 0.5957 0.28008 0.0
N801 N 0.52698 0.67506 0.35042 0.0
H802 H 0.48757 0.54582 0.33959 0.0
H803 H 0.49934 0.59143 0.36102 0.0
H804 H 0.54085 0.70998 0.35484 0.0
H805 H 0.49724 0.6547 0.35837 0.0
H806 H 0.61159 0.61077 0.27423 0.0
H807 H 0.56226 0.56009 0.2782 0.0
H808 H 0.63789 0.68102 0.27438 0.0
H809 H 0.65603 0.72438 0.29776 0.0
C810 C 0.32584 0.83356 0.29554 0.0
C811 C 0.36491 0.87771 0.29839 0.0
C812 C 0.32859 0.90352 0.32732 0.0
C813 C 0.29066 0.85857 0.32553 0.0
N814 N 0.25716 0.77892 0.31204 0.0
N815 N 0.40693 0.95298 0.31948 0.0
C816 C 0.29042 0.82304 0.31076 0.0
C817 C 0.3673 0.91221 0.31504 0.0
N818 N 0.32222 0.80194 0.27793 0.0
N819 N 0.32691 0.93828 0.33994 0.0
H820 H 0.43545 0.96107 0.31029 0.0
H821 H 0.41268 0.97756 0.33336 0.0
H822 H 0.29983 0.93318 0.3497 0.0
H823 H 0.35095 0.97257 0.33952 0.0
H824 H 0.29257 0.7709 0.27315 0.0
H825 H 0.34775 0.80823 0.26667 0.0
H826 H 0.25708 0.75087 0.30344 0.0
H827 H 0.23182 0.77007 0.32372 0.0
C828 C 0.13493 0.48425 0.30825 0.0
C829 C 0.088 0.46859 0.30316 0.0
C830 C 0.06885 0.3977 0.32098 0.0
C831 C 0.1156 0.41515 0.3278 0.0
N832 N 0.19234 0.4783 0.33252 0.0
N833 N 0.0101 0.41466 0.30867 0.0
C834 C 0.14841 0.45956 0.32292 0.0
C835 C 0.0548 0.42649 0.31069 0.0
N836 N 0.16654 0.52155 0.29817 0.0
N837 N 0.03806 0.35326 0.32367 0.0
H838 H 0.99856 0.43502 0.30131 0.0
H839 H 0.985 0.38667 0.31615 0.0
H840 H 0.04703 0.33139 0.33153 0.0
H841 H 0.00429 0.33719 0.31655 0.0
H842 H 0.20087 0.53161 0.29921 0.0
H843 H 0.158 0.53994 0.28676 0.0
H844 H 0.21692 0.51221 0.33146 0.0
H845 H 0.20318 0.46111 0.34351 0.0
C846 C 0.36071 0.44262 0.31993 0.0
C847 C 0.35897 0.46611 0.29998 0.0
C848 C 0.27915 0.44083 0.30466 0.0
C849 C 0.28169 0.4198 0.32553 0.0
N850 N 0.32605 0.4061 0.35529 0.0
N851 N 0.31965 0.49494 0.27606 0.0
C852 C 0.323 0.42263 0.33393 0.0
C853 C 0.31905 0.46734 0.29311 0.0
N854 N 0.39768 0.43771 0.32481 0.0
N855 N 0.23828 0.4343 0.29538 0.0
H856 H 0.34817 0.51469 0.2671 0.0
H857 H 0.29318 0.50121 0.27218 0.0
H858 H 0.20874 0.41693 0.30387 0.0
H859 H 0.23306 0.44355 0.27855 0.0
H860 H 0.39917 0.41701 0.33745 0.0
H861 H 0.42567 0.45127 0.31476 0.0
H862 H 0.35636 0.41109 0.36369 0.0
H863 H 0.29875 0.39051 0.36571 0.0
C864 C 0.50253 0.82803 0.28944 0.0
C865 C 0.50752 0.87174 0.29481 0.0
C866 C 0.57397 0.89356 0.32337 0.0
C867 C 0.56758 0.849 0.31894 0.0
N868 N 0.52393 0.77224 0.29965 0.0
N869 N 0.54466 0.94503 0.31804 0.0
C870 C 0.53122 0.81573 0.30254 0.0
C871 C 0.54249 0.9043 0.31204 0.0
N872 N 0.47093 0.79874 0.27138 0.0
N873 N 0.6103 0.92564 0.33843 0.0
H874 H 0.52345 0.95486 0.30943 0.0
H875 H 0.56569 0.9683 0.33236 0.0
H876 H 0.63172 0.91811 0.34871 0.0
H877 H 0.62061 0.96018 0.34014 0.0
H878 H 0.4685 0.76836 0.2646 0.0
H879 H 0.44866 0.80621 0.26187 0.0
H880 H 0.49526 0.74496 0.29019 0.0
H881 H 0.54537 0.76243 0.30795 0.0
C882 C 0.12171 0.65374 0.29248 0.0
C883 C 0.08797 0.61474 0.30226 0.0
C884 C 0.0878 0.66344 0.33637 0.0
C885 C 0.11829 0.70236 0.32527 0.0
N886 N 0.15472 0.73453 0.28969 0.0
N887 N 0.03255 0.58255 0.33106 0.0
C888 C 0.13228 0.69755 0.30236 0.0
C889 C 0.0692 0.61955 0.32359 0.0
N890 N 0.14527 0.64916 0.2745 0.0
N891 N 0.07662 0.66842 0.35905 0.0
H892 H 0.01742 0.55011 0.32181 0.0
H893 H 0.01462 0.5847 0.34511 0.0
H894 H 0.08826 0.70022 0.36852 0.0
H895 H 0.05841 0.64111 0.3691 0.0
H896 H 0.17345 0.6768 0.26857 0.0
H897 H 0.13982 0.61768 0.26722 0.0
H898 H 0.16155 0.73195 0.27187 0.0
H899 H 0.16266 0.76727 0.29609 0.0
C900 C 0.78581 0.03575 0.38727 0.0
C901 C 0.8126 0.04054 0.40876 0.0
C902 C 0.77078 0.95775 0.41018 0.0
C903 C 0.74873 0.95267 0.38702 0.0
N904 N 0.73797 0.98636 0.35218 0.0
N905 N 0.83661 0.00553 0.43822 0.0
C906 C 0.75712 0.99157 0.37512 0.0
C907 C 0.80663 0.00139 0.41965 0.0
N908 N 0.78655 0.0732 0.37896 0.0
N909 N 0.75743 0.92109 0.42327 0.0
H910 H 0.8643 0.03674 0.44527 0.0
H911 H 0.83668 0.97762 0.44503 0.0
H912 H 0.73164 0.88839 0.41692 0.0
H913 H 0.7692 0.92391 0.44124 0.0
H914 H 0.76444 0.07128 0.36476 0.0
H915 H 0.80634 0.10596 0.38772 0.0
H916 H 0.74688 0.01336 0.34162 0.0
H917 H 0.71531 0.95457 0.34306 0.0
C918 C 0.01181 0.83189 0.41569 0.0
C919 C 0.97352 0.78721 0.41161 0.0
C920 C 0.00797 0.76958 0.37809 0.0
C921 C 0.04764 0.81298 0.38331 0.0
N922 N 0.08985 0.88406 0.40837 0.0
N923 N 0.9364 0.71165 0.39088 0.0
C924 C 0.05015 0.8439 0.40239 0.0
C925 C 0.97196 0.75553 0.39331 0.0
N926 N 0.01109 0.8631 0.43198 0.0
N927 N 0.00455 0.74222 0.3582 0.0
H928 H 0.90918 0.70041 0.40146 0.0
H929 H 0.93521 0.68543 0.3797 0.0
H930 H 0.03025 0.75177 0.34667 0.0
H931 H 0.97516 0.71196 0.35189 0.0
H932 H 0.03541 0.89763 0.43391 0.0
H933 H 0.98452 0.85499 0.44276 0.0
H934 H 0.09623 0.90543 0.42396 0.0
H935 H 0.11766 0.89502 0.39826 0.0
C936 C 0.1944 0.18212 0.40334 0.0
C937 C 0.23852 0.19118 0.39896 0.0
C938 C 0.24317 0.24328 0.36919 0.0
C939 C 0.20125 0.23795 0.37552 0.0
N940 N 0.14012 0.20813 0.40124 0.0
N941 N 0.30754 0.23373 0.37995 0.0
C942 C 0.17752 0.20875 0.39322 0.0
C943 C 0.26362 0.22256 0.38239 0.0
N944 N 0.16828 0.14742 0.41676 0.0
N945 N 0.26304 0.26775 0.35035 0.0
H946 H 0.3236 0.21912 0.38929 0.0
H947 H 0.32928 0.25995 0.37016 0.0
H948 H 0.24894 0.28355 0.34042 0.0
H949 H 0.29132 0.26932 0.34326 0.0
H950 H 0.13408 0.13596 0.41834 0.0
H951 H 0.17968 0.12742 0.4247 0.0
H952 H 0.12451 0.1917 0.41608 0.0
H953 H 0.1267 0.22711 0.39423 0.0
C954 C 0.67081 0.51523 0.745 0.0
C955 C 0.63047 0.51683 0.74003 0.0
C956 C 0.6634 0.563 0.70634 0.0
C957 C 0.70361 0.56102 0.71129 0.0
N958 N 0.74019 0.52451 0.73024 0.0
N959 N 0.58514 0.53642 0.71421 0.0
C960 C 0.70568 0.53398 0.7292 0.0
C961 C 0.6258 0.53894 0.7201 0.0
N962 N 0.67603 0.49624 0.76499 0.0
N963 N 0.66169 0.5891 0.68904 0.0
H964 H 0.5579 0.52174 0.72473 0.0
H965 H 0.57737 0.54674 0.69832 0.0
H966 H 0.68668 0.60372 0.67724 0.0
H967 H 0.63634 0.59744 0.68672 0.0
H968 H 0.70661 0.49875 0.77112 0.0
H969 H 0.65072 0.48092 0.7766 0.0
H970 H 0.74196 0.50181 0.74142 0.0
H971 H 0.76458 0.53567 0.71789 0.0
C972 C 0.45498 0.0756 0.73021 0.0
C973 C 0.49231 0.11104 0.74515 0.0
C974 C 0.46962 0.16579 0.73336 0.0
C975 C 0.43029 0.12974 0.71995 0.0
N976 N 0.38172 0.0493 0.70818 0.0
N977 N 0.53174 0.18807 0.76411 0.0
C978 C 0.42192 0.0843 0.71904 0.0
C979 C 0.49856 0.15563 0.74769 0.0
N980 N 0.45185 0.03398 0.72617 0.0
N981 N 0.48043 0.20995 0.73148 0.0
H982 H 0.55396 0.18198 0.77467 0.0
H983 H 0.53488 0.21973 0.76872 0.0
H984 H 0.46071 0.21861 0.72057 0.0
H985 H 0.51086 0.23806 0.73888 0.0
H986 H 0.42851 0.00841 0.71332 0.0
H987 H 0.47476 0.02598 0.73449 0.0
H988 H 0.37132 0.01502 0.70927 0.0
H989 H 0.357 0.05436 0.69949 0.0
C990 C 0.91859 0.38457 0.7034 0.0
C991 C 0.94756 0.40151 0.72509 0.0
C992 C 0.94366 0.32763 0.72593 0.0
C993 C 0.90415 0.30811 0.7093 0.0
N994 N 0.85376 0.31941 0.68193 0.0
N995 N 0.01158 0.39756 0.74183 0.0
C996 C 0.89177 0.33696 0.69772 0.0
C997 C 0.96738 0.37554 0.73241 0.0
N998 N 0.9223 0.41332 0.68647 0.0
N999 N 0.95897 0.30089 0.73521 0.0
H1000 H 0.03159 0.43298 0.74249 0.0
H1001 H 0.02972 0.38112 0.74569 0.0
H1002 H 0.94578 0.26677 0.72897 0.0
H1003 H 0.98394 0.31242 0.74961 0.0
H1004 H 0.90455 0.40178 0.66941 0.0
H1005 H 0.9478 0.4476 0.68856 0.0
H1006 H 0.84232 0.33996 0.6747 0.0
H1007 H 0.83162 0.28451 0.67788 0.0
C1008 C 0.22955 0.95381 0.62591 0.0
C1009 C 0.1881 0.92936 0.63646 0.0
C1010 C 0.21153 0.99281 0.66676 0.0
C1011 C 0.24942 0.02083 0.65421 0.0
N1012 N 0.29857 0.02595 0.62333 0.0
N1013 N 0.17076 0.91635 0.67747 0.0
C1014 C 0.25989 0.00074 0.63421 0.0
C1015 C 0.18719 0.9456 0.66012 0.0
N1016 N 0.24246 0.9303 0.61075 0.0
N1017 N 0.19744 0.0107 0.68458 0.0
H1018 H 0.16154 0.88209 0.6741 0.0
H1019 H 0.17284 0.92764 0.69553 0.0
H1020 H 0.21129 0.04565 0.68887 0.0
H1021 H 0.16837 0.99031 0.69305 0.0
H1022 H 0.27383 0.94455 0.60376 0.0
H1023 H 0.22313 0.89481 0.60747 0.0
H1024 H 0.30495 0.01516 0.60692 0.0
H1025 H 0.32401 0.05834 0.63041 0.0
C1026 C 0.03998 0.24302 0.65176 0.0
C1027 C 0.0368 0.21434 0.63134 0.0
C1028 C 0.95664 0.16197 0.63656 0.0
C1029 C 0.95889 0.19218 0.6561 0.0
N1030 N 0.00022 0.26657 0.6785 0.0
N1031 N 0.99151 0.14928 0.60243 0.0
C1032 C 1e-05 0.23396 0.66284 0.0
C1033 C 0.99491 0.17465 0.6232 0.0
N1034 N 0.08128 0.27911 0.66057 0.0
N1035 N 0.91833 0.12033 0.63118 0.0
H1036 H 0.01924 0.15554 0.59294 0.0
H1037 H 0.96081 0.12378 0.59363 0.0
H1038 H 0.88889 0.10999 0.63974 0.0
H1039 H 0.91649 0.09441 0.61945 0.0
H1040 H 0.08683 0.29777 0.67709 0.0
H1041 H 0.11086 0.2886 0.65214 0.0
H1042 H 0.02776 0.29952 0.68207 0.0
H1043 H 0.97144 0.26255 0.68616 0.0
C1044 C 0.72389 0.76455 0.6513 0.0
C1045 C 0.75067 0.79437 0.6346 0.0
C1046 C 0.81019 0.77566 0.6433 0.0
C1047 C 0.78176 0.74257 0.65835 0.0
N1048 N 0.70961 0.70199 0.67499 0.0
N1049 N 0.81666 0.82497 0.61229 0.0
C1050 C 0.73814 0.73621 0.66203 0.0
C1051 C 0.79293 0.79872 0.62979 0.0
N1052 N 0.68524 0.764 0.6572 0.0
N1053 N 0.85466 0.78712 0.64305 0.0
H1054 H 0.80653 0.84453 0.60288 0.0
H1055 H 0.84465 0.82483 0.60582 0.0
H1056 H 0.86928 0.77266 0.65357 0.0
H1057 H 0.87839 0.81428 0.63449 0.0
H1058 H 0.66715 0.7474 0.6714 0.0
H1059 H 0.67259 0.78261 0.64881 0.0
H1060 H 0.67549 0.6918 0.67575 0.0
H1061 H 0.71918 0.68159 0.68389 0.0
C1062 C 0.00962 0.83031 0.6519 0.0
C1063 C 0.02067 0.80994 0.63231 0.0
C1064 C 0.9503 0.73947 0.63566 0.0
C1065 C 0.94577 0.75578 0.65878 0.0
N1066 N 0.97977 0.81814 0.69071 0.0
N1067 N 0.00517 0.73854 0.61095 0.0
C1068 C 0.97772 0.80177 0.66751 0.0
C1069 C 0.99218 0.76253 0.62571 0.0
N1070 N 0.02822 0.8765 0.65526 0.0
N1071 N 0.91415 0.70386 0.62233 0.0
H1072 H 0.03768 0.75251 0.60532 0.0
H1073 H 0.98526 0.70325 0.60702 0.0
H1074 H 0.88121 0.69104 0.62717 0.0
H1075 H 0.91635 0.69279 0.60489 0.0
H1076 H 0.01845 0.89223 0.66833 0.0
H1077 H 0.04905 0.89824 0.64321 0.0
H1078 H 0.00505 0.85067 0.69783 0.0
H1079 H 0.96035 0.79797 0.70359 0.0
C1080 C 0.21934 0.2446 0.64137 0.0
C1081 C 0.18051 0.21075 0.62665 0.0
C1082 C 0.20175 0.15328 0.63534 0.0
C1083 C 0.23862 0.18636 0.65151 0.0
N1084 N 0.27917 0.26163 0.67271 0.0
N1085 N 0.13166 0.13215 0.61116 0.0
C1086 C 0.24666 0.23163 0.65518 0.0
C1087 C 0.17086 0.16485 0.62407 0.0
N1088 N 0.23022 0.28925 0.642 0.0
N1089 N 0.19735 0.11139 0.62997 0.0
H1090 H 0.10953 0.13966 0.60153 0.0
H1091 H 0.11962 0.09732 0.61105 0.0
H1092 H 0.21875 0.10135 0.63808 0.0
H1093 H 0.17459 0.08761 0.61626 0.0
H1094 H 0.26068 0.3163 0.65014 0.0
H1095 H 0.21018 0.29983 0.63281 0.0
H1096 H 0.28376 0.29359 0.67811 0.0
H1097 H 0.29933 0.25315 0.68345 0.0
C1098 C 0.7278 0.95535 0.64874 0.0
C1099 C 0.75832 0.94396 0.63838 0.0
C1100 C 0.82294 0.0159 0.65654 0.0
C1101 C 0.79251 0.03047 0.66376 0.0
N1102 N 0.71599 0.01357 0.66854 0.0
N1103 N 0.83428 0.96557 0.62909 0.0
C1104 C 0.74484 -3e-05 0.66033 0.0
C1105 C 0.80572 0.97473 0.64146 0.0
N1106 N 0.68292 0.92298 0.64822 0.0
N1107 N 0.86808 0.04056 0.66432 0.0
H1108 H 0.82305 0.93598 0.61756 0.0
H1109 H 0.8685 0.98927 0.62844 0.0
H1110 H 0.88302 0.07141 0.67504 0.0
H1111 H 0.89037 0.02841 0.66178 0.0
H1112 H 0.65952 0.92741 0.65748 0.0
H1113 H 0.66937 0.89007 0.63977 0.0
H1114 H 0.68112 0.99592 0.66387 0.0
H1115 H 0.72728 0.04343 0.67983 0.0
C1116 C 0.47612 0.33418 0.75432 0.0
C1117 C 0.48353 0.37404 0.74375 0.0
C1118 C 0.42999 0.32692 0.70898 0.0
C1119 C 0.42046 0.2872 0.72036 0.0
N1120 N 0.42629 0.25347 0.75639 0.0
N1121 N 0.46063 0.40877 0.71371 0.0
C1122 C 0.44083 0.29097 0.74387 0.0
C1123 C 0.45848 0.37055 0.7218 0.0
N1124 N 0.50424 0.3373 0.77363 0.0
N1125 N 0.41188 0.32298 0.68594 0.0
H1126 H 0.48027 0.44112 0.72294 0.0
H1127 H 0.43982 0.40797 0.69914 0.0
H1128 H 0.38893 0.29167 0.67644 0.0
H1129 H 0.42172 0.35052 0.67568 0.0
H1130 H 0.50363 0.30899 0.7803 0.0
H1131 H 0.53109 0.36823 0.78161 0.0
H1132 H 0.43647 0.25525 0.77453 0.0
H1133 H 0.40108 0.221 0.74934 0.0
C1134 C 0.68218 0.15718 0.75251 0.0
C1135 C 0.64089 0.11682 0.74419 0.0
C1136 C 0.67585 0.10581 0.70896 0.0
C1137 C 0.71818 0.14351 0.71847 0.0
N1138 N 0.76309 0.20435 0.74963 0.0
N1139 N 0.59937 0.04923 0.7164 0.0
C1140 C 0.72172 0.16899 0.74037 0.0
C1141 C 0.63796 0.09021 0.72288 0.0
N1142 N 0.6831 0.18505 0.77148 0.0
N1143 N 0.67176 0.08547 0.6864 0.0
H1144 H 0.57107 0.03665 0.72623 0.0
H1145 H 0.59661 0.02591 0.70255 0.0
H1146 H 0.6988 0.0964 0.67572 0.0
H1147 H 0.64095 0.06061 0.6774 0.0
H1148 H 0.71058 0.21736 0.77686 0.0
H1149 H 0.65504 0.17725 0.78101 0.0
H1150 H 0.76946 0.22058 0.76694 0.0
H1151 H 0.79196 0.21613 0.74034 0.0
C1152 C 0.88679 0.53731 0.74775 0.0
C1153 C 0.92144 0.53432 0.7363 0.0
C1154 C 0.91204 0.57374 0.70288 0.0
C1155 C 0.88014 0.58003 0.71534 0.0
N1156 N 0.84398 0.5762 0.75185 0.0
N1157 N 0.97384 0.55786 0.70563 0.0
C1158 C 0.86965 0.56445 0.73849 0.0
C1159 C 0.93593 0.55477 0.71455 0.0
N1160 N 0.86886 0.51273 0.76683 0.0
N1161 N 0.91975 0.58611 0.67997 0.0
H1162 H 0.99308 0.54558 0.71404 0.0
H1163 H 0.98882 0.57644 0.69126 0.0
H1164 H 0.90466 0.60221 0.67121 0.0
H1165 H 0.93861 0.57751 0.66898 0.0
H1166 H 0.84018 0.50969 0.77419 0.0
H1167 H 0.88011 0.49198 0.77397 0.0
H1168 H 0.83951 0.57016 0.76986 0.0
H1169 H 0.82987 0.59509 0.7455 0.0
C1170 C 0.49726 0.97969 0.22698 0.0
C1171 C 0.4588 0.93576 0.22787 0.0
C1172 C 0.43762 0.93386 0.18479 0.0
C1173 C 0.47898 0.97517 0.18335 0.0
N1174 N 0.55194 0.03347 0.20239 0.0
N1175 N 0.39568 0.86784 0.20677 0.0
C1176 C 0.50981 0.99707 0.20429 0.0
C1177 C 0.42974 0.91199 0.20653 0.0
N1178 N 0.52108 0.0055 0.24791 0.0
N1179 N 0.4053 0.91616 0.16558 0.0
H1180 H 0.38907 0.85047 0.2222 0.0
H1181 H 0.37645 0.84717 0.19127 0.0
H1182 H 0.40977 0.93129 0.14945 0.0
H1183 H 0.37261 0.88892 0.16636 0.0
H1184 H 0.54648 0.03955 0.24855 0.0
H1185 H 0.51249 0.99435 0.2649 0.0
H1186 H 0.5776 0.04763 0.21652 0.0
H1187 H 0.56278 0.04696 0.18611 0.0
C1188 C 0.05101 0.50246 0.21091 0.0
C1189 C 0.02359 0.50197 0.22928 0.0
C1190 C 0.96336 0.48959 0.19869 0.0
C1191 C 0.98936 0.48658 0.18038 0.0
N1192 N 0.05343 0.48008 0.16928 0.0
N1193 N 0.95036 0.48555 0.24096 0.0
C1194 C 0.03186 0.48992 0.18657 0.0
C1195 C 0.97868 0.49257 0.22324 0.0
N1196 N 0.0959 0.51691 0.21653 0.0
N1197 N 0.92516 0.49176 0.19269 0.0
H1198 H 0.96036 0.48712 0.25914 0.0
H1199 H 0.91587 0.474 0.23744 0.0
H1200 H 0.91308 0.49038 0.17494 0.0
H1201 H 0.9077 0.49899 0.20534 0.0
H1202 H 0.1186 0.52273 0.20359 0.0
H1203 H 0.11154 0.52705 0.23409 0.0
H1204 H 0.0822 0.47747 0.17315 0.0
H1205 H 0.04013 0.47019 0.15129 0.0
C1206 C 0.42189 0.49136 0.20717 0.0
C1207 C 0.44421 0.4841 0.22716 0.0
C1208 C 0.46594 0.44085 0.19973 0.0
C1209 C 0.45475 0.4589 0.17989 0.0
N1210 N 0.3894 0.46384 0.16609 0.0
N1211 N 0.4852 0.4485 0.24269 0.0
C1212 C 0.42315 0.47381 0.18367 0.0
C1213 C 0.46539 0.4576 0.22354 0.0
N1214 N 0.40016 0.51558 0.21043 0.0
N1215 N 0.46942 0.40274 0.19589 0.0
H1216 H 0.48396 0.45846 0.26052 0.0
H1217 H 0.50516 0.43344 0.24061 0.0
H1218 H 0.46175 0.38511 0.17879 0.0
H1219 H 0.47333 0.38539 0.20979 0.0
H1220 H 0.38719 0.52534 0.19606 0.0
H1221 H 0.39798 0.52857 0.22738 0.0
H1222 H 0.3629 0.47017 0.16861 0.0
H1223 H 0.38446 0.44299 0.15042 0.0
C1224 C 0.02727 0.5539 0.8157 0.0
C1225 C 0.01859 0.51413 0.80127 0.0
C1226 C 0.03977 0.48701 0.83667 0.0
C1227 C 0.03671 0.5203 0.85168 0.0
N1228 N 0.03008 0.58797 0.85544 0.0
N1229 N 0.0567 0.47094 0.79721 0.0
C1230 C 0.03132 0.55464 0.8412 0.0
C1231 C 0.03617 0.48799 0.81132 0.0
N1232 N 0.03981 0.59331 0.80526 0.0
N1233 N 0.04541 0.454 0.84643 0.0
H1234 H 0.06219 0.47908 0.7795 0.0
H1235 H 0.07374 0.455 0.80398 0.0
H1236 H 0.04839 0.45213 0.86497 0.0
H1237 H 0.04355 0.42663 0.83593 0.0
H1238 H 0.05069 0.62458 0.81508 0.0
H1239 H 0.04556 0.59552 0.78707 0.0
H1240 H 0.02153 0.61085 0.84849 0.0
H1241 H 0.03467 0.59083 0.87421 0.0
C1242 C 0.50394 0.50563 0.81424 0.0
C1243 C 0.54016 0.49668 0.81234 0.0
C1244 C 0.55812 0.51269 0.85629 0.0
C1245 C 0.51799 0.51504 0.85841 0.0
N1246 N 0.44915 0.50765 0.8394 0.0
N1247 N 0.59877 0.48634 0.83187 0.0
C1248 C 0.49006 0.51017 0.83736 0.0
C1249 C 0.56673 0.49909 0.83345 0.0
N1250 N 0.48329 0.51057 0.79391 0.0
N1251 N 0.58856 0.52446 0.87603 0.0
H1252 H 0.60619 0.47623 0.81556 0.0
H1253 H 0.61559 0.48242 0.84685 0.0
H1254 H 0.58352 0.53483 0.89298 0.0
H1255 H 0.62059 0.52807 0.87515 0.0
H1256 H 0.45978 0.52161 0.79426 0.0
H1257 H 0.49296 0.50797 0.77674 0.0
H1258 H 0.42513 0.49901 0.82481 0.0
H1259 H 0.43735 0.5102 0.85593 0.0
C1260 C 0.56992 0.07613 0.83472 0.0
C1261 C 0.54371 0.05125 0.81284 0.0
C1262 C 0.49345 0.9876 0.83534 0.0
C1263 C 0.52136 0.01115 0.85698 0.0
N1264 N 0.59118 0.07379 0.87658 0.0
N1265 N 0.48686 0.97961 0.79166 0.0
C1266 C 0.56116 0.05426 0.85646 0.0
C1267 C 0.50734 0.00583 0.81298 0.0
N1268 N 0.60186 0.12123 0.83497 0.0
N1269 N 0.45272 0.94865 0.83622 0.0
H1270 H 0.49659 0.9915 0.77494 0.0
H1271 H 0.46334 0.94486 0.79058 0.0
H1272 H 0.44117 0.93423 0.85221 0.0
H1273 H 0.42863 0.93282 0.82143 0.0
H1274 H 0.6186 0.14242 0.85074 0.0
H1275 H 0.60914 0.13858 0.81953 0.0
H1276 H 0.62311 0.10265 0.87663 0.0
H1277 H 0.58585 0.05884 0.89279 0.0
C1278 C 0.10505 0.24443 0.53873 0.0
C1279 C 0.12684 0.27318 0.56038 0.0
C1280 C 0.14704 0.33961 0.53783 0.0
C1281 C 0.13543 0.31163 0.51571 0.0
N1282 N 0.07088 0.24024 0.49908 0.0
N1283 N 0.16874 0.3493 0.58064 0.0
C1284 C 0.10517 0.26424 0.51691 0.0
C1285 C 0.14788 0.32114 0.55996 0.0
N1286 N 0.08412 0.19816 0.53889 0.0
N1287 N 0.14876 0.38062 0.53808 0.0
H1288 H 0.16939 0.33715 0.59732 0.0
H1289 H 0.18826 0.38463 0.58071 0.0
H1290 H 0.13874 0.3907 0.5227 0.0
H1291 H 0.15299 0.40072 0.5539 0.0
H1292 H 0.07165 0.17605 0.52312 0.0
H1293 H 0.08228 0.18225 0.55457 0.0
H1294 H 0.04525 0.20666 0.49998 0.0
H1295 H 0.06422 0.2564 0.48539 0.0
C1296 C 0.71435 0.83639 0.5453 0.0
C1297 C 0.68742 0.836 0.56389 0.0
C1298 C 0.62603 0.82226 0.53376 0.0
C1299 C 0.6513 0.81824 0.51535 0.0
N1300 N 0.71555 0.81235 0.50386 0.0
N1301 N 0.61523 0.8216 0.57634 0.0
C1302 C 0.69435 0.82265 0.5212 0.0
C1303 C 0.6425 0.82693 0.55828 0.0
N1304 N 0.7595 0.85163 0.55054 0.0
N1305 N 0.58715 0.8232 0.5278 0.0
H1306 H 0.62622 0.82489 0.59452 0.0
H1307 H 0.58071 0.81021 0.57326 0.0
H1308 H 0.57412 0.82002 0.51002 0.0
H1309 H 0.56989 0.83096 0.54034 0.0
H1310 H 0.78177 0.85718 0.53739 0.0
H1311 H 0.77572 0.86304 0.56794 0.0
H1312 H 0.74465 0.81028 0.50764 0.0
H1313 H 0.70179 0.80164 0.48598 0.0
C1314 C 0.10607 0.80161 0.55184 0.0
C1315 C 0.10127 0.84029 0.55728 0.0
C1316 C 0.09283 0.84639 0.51402 0.0
C1317 C 0.11001 0.81649 0.50941 0.0
N1318 N 0.09463 0.74332 0.52081 0.0
N1319 N 0.08693 0.89825 0.54324 0.0
C1320 C 0.10535 0.78708 0.52742 0.0
C1321 C 0.09351 0.86228 0.53827 0.0
N1322 N 0.1129 0.77957 0.56991 0.0
N1323 N 0.06785 0.85207 0.49613 0.0
H1324 H 0.0859 0.90992 0.56077 0.0
H1325 H 0.08545 0.918 0.52997 0.0
H1326 H 0.05738 0.83165 0.47975 0.0
H1327 H 0.0513 0.87052 0.49893 0.0
H1328 H 0.12132 0.75425 0.56676 0.0
H1329 H 0.11353 0.78884 0.58812 0.0
H1330 H 0.08652 0.71881 0.53298 0.0
H1331 H 0.08829 0.73049 0.50271 0.0
C1332 C 0.68766 0.87783 0.15158 0.0
C1333 C 0.64068 0.84883 0.14447 0.0
C1334 C 0.62463 0.85571 0.18619 0.0
C1335 C 0.67119 0.87339 0.19366 0.0
N1336 N 0.74158 0.93408 0.18256 0.0
N1337 N 0.56323 0.81356 0.15479 0.0
C1338 C 0.70188 0.89436 0.17616 0.0
C1339 C 0.60866 0.83896 0.16169 0.0
N1340 N 0.71888 0.88861 0.13515 0.0
N1341 N 0.59778 0.86204 0.20134 0.0
H1342 H 0.55012 0.80245 0.13684 0.0
H1343 H 0.53892 0.80154 0.16715 0.0
H1344 H 0.61131 0.88168 0.21791 0.0
H1345 H 0.56452 0.85363 0.19619 0.0
H1346 H 0.75371 0.90612 0.14016 0.0
H1347 H 0.71001 0.87719 0.11688 0.0
H1348 H 0.76343 0.95318 0.17008 0.0
H1349 H 0.74903 0.95061 0.19994 0.0
C1350 C 0.21633 0.86709 0.15332 0.0
C1351 C 0.23011 0.83412 0.15021 0.0
C1352 C 0.21969 0.81861 0.19249 0.0
C1353 C 0.20688 0.85235 0.19579 0.0
N1354 N 0.20374 0.91626 0.18124 0.0
N1355 N 0.25587 0.78702 0.16787 0.0
C1356 C 0.20866 0.87904 0.17676 0.0
C1357 C 0.23544 0.81273 0.17021 0.0
N1358 N 0.2085 0.88543 0.13372 0.0
N1359 N 0.21445 0.79043 0.2101 0.0
H1360 H 0.26774 0.78216 0.15175 0.0
H1361 H 0.26494 0.77426 0.18235 0.0
H1362 H 0.2026 0.79313 0.22659 0.0
H1363 H 0.21835 0.76198 0.20767 0.0
H1364 H 0.19321 0.90539 0.13441 0.0
H1365 H 0.21443 0.87818 0.11634 0.0
H1366 H 0.20912 0.93972 0.16877 0.0
H1367 H 0.19842 0.92608 0.19825 0.0
C1368 C 0.16205 0.33928 0.14472 0.0
C1369 C 0.19922 0.38422 0.14441 0.0
C1370 C 0.21791 0.3861 0.18785 0.0
C1371 C 0.17725 0.34379 0.18865 0.0
N1372 N 0.10645 0.28383 0.16826 0.0
N1373 N 0.25888 0.45331 0.16659 0.0
C1374 C 0.14822 0.32131 0.16717 0.0
C1375 C 0.22634 0.4084 0.16623 0.0
N1376 N 0.14069 0.31313 0.1235 0.0
N1377 N 0.24911 0.40442 0.20754 0.0
H1378 H 0.26568 0.47116 0.15133 0.0
H1379 H 0.27642 0.47397 0.1824 0.0
H1380 H 0.24433 0.38893 0.22357 0.0
H1381 H 0.28142 0.43258 0.20725 0.0
H1382 H 0.11644 0.27861 0.12258 0.0
H1383 H 0.15048 0.32466 0.10671 0.0
H1384 H 0.08196 0.26907 0.15358 0.0
H1385 H 0.09453 0.27001 0.18432 0.0
C1386 C 0.80536 0.6617 0.89338 0.0
C1387 C 0.78175 0.61354 0.89348 0.0
C1388 C 0.75873 0.60648 0.85038 0.0
C1389 C 0.79169 0.65314 0.84929 0.0
N1390 N 0.81088 0.72374 0.87204 0.0
N1391 N 0.73391 0.5393 0.87186 0.0
C1392 C 0.80556 0.68114 0.87147 0.0
C1393 C 0.75761 0.58565 0.87193 0.0
N1394 N 0.82769 0.6891 0.91411 0.0
N1395 N 0.72364 0.58467 0.83276 0.0
H1396 H 0.73162 0.52278 0.88737 0.0
H1397 H 0.71941 0.5175 0.85605 0.0
H1398 H 0.71849 0.60223 0.81933 0.0
H1399 H 0.69645 0.55187 0.83359 0.0
H1400 H 0.84917 0.72422 0.91431 0.0
H1401 H 0.82716 0.67643 0.93076 0.0
H1402 H 0.8169 0.74424 0.88797 0.0
H1403 H 0.80231 0.73532 0.8568 0.0
C1404 C 0.31606 0.15627 0.89107 0.0
C1405 C 0.36102 0.1652 0.89641 0.0
C1406 C 0.36599 0.14944 0.85365 0.0
C1407 C 0.32347 0.14638 0.84803 0.0
N1408 N 0.26031 0.15272 0.86095 0.0
N1409 N 0.43169 0.17733 0.88254 0.0
C1410 C 0.29894 0.15115 0.86663 0.0
C1411 C 0.38677 0.16348 0.87765 0.0
N1412 N 0.28948 0.1518 0.90937 0.0
N1413 N 0.38604 0.13793 0.83615 0.0
H1414 H 0.44844 0.18847 0.89982 0.0
H1415 H 0.45334 0.18163 0.86921 0.0
H1416 H 0.37167 0.12718 0.81837 0.0
H1417 H 0.41466 0.13492 0.83971 0.0
H1418 H 0.255 0.14075 0.90655 0.0
H1419 H 0.3009 0.15514 0.92748 0.0
H1420 H 0.24376 0.16121 0.87363 0.0
H1421 H 0.24673 0.14923 0.84326 0.0
C1422 C 0.75411 0.16161 0.87259 0.0
C1423 C 0.77715 0.15738 0.89333 0.0
C1424 C 0.80411 0.11659 0.86777 0.0
C1425 C 0.79247 0.13272 0.84723 0.0
N1426 N 0.72523 0.13208 0.83119 0.0
N1427 N 0.82103 0.12657 0.91104 0.0
C1428 C 0.75817 0.14438 0.84963 0.0
C1429 C 0.80092 0.13319 0.89108 0.0
N1430 N 0.72923 0.18285 0.87462 0.0
N1431 N 0.81098 0.0804 0.86494 0.0
H1432 H 0.81801 0.13671 0.92852 0.0
H1433 H 0.84274 0.11334 0.90999 0.0
H1434 H 0.8056 0.06275 0.84804 0.0
H1435 H 0.81553 0.06439 0.87933 0.0
H1436 H 0.71568 0.1907 0.85969 0.0
H1437 H 0.72457 0.19503 0.89118 0.0
H1438 H 0.69704 0.13605 0.83266 0.0
H1439 H 0.72308 0.11192 0.81578 0.0
C1440 C 0.27305 0.14873 0.49049 0.0
C1441 C 0.30578 0.16588 0.47353 0.0
C1442 C 0.36338 0.21513 0.50616 0.0
C1443 C 0.33361 0.18949 0.52322 0.0
N1444 N 0.25602 0.16515 0.52986 0.0
N1445 N 0.38267 0.21744 0.46503 0.0
C1446 C 0.28668 0.16517 0.51516 0.0
C1447 C 0.35114 0.19986 0.48128 0.0
N1448 N 0.22904 0.1167 0.48318 0.0
N1449 N 0.39896 0.25772 0.51326 0.0
H1450 H 0.37484 0.20781 0.44654 0.0
H1451 H 0.41714 0.23906 0.47024 0.0
H1452 H 0.40349 0.27296 0.53074 0.0
H1453 H 0.41942 0.27983 0.50125 0.0
H1454 H 0.20511 0.10021 0.49532 0.0
H1455 H 0.21746 0.1043 0.46517 0.0
H1456 H 0.22175 0.15148 0.52419 0.0
H1457 H 0.26646 0.18498 0.54642 0.0
C1458 C 0.89876 0.16208 0.49851 0.0
C1459 C 0.87241 0.16162 0.47782 0.0
C1460 C 0.82302 0.17437 0.50363 0.0
C1461 C 0.85042 0.17677 0.52434 0.0
N1462 N 0.92007 0.18339 0.54144 0.0
N1463 N 0.81705 0.17871 0.46051 0.0
C1464 C 0.89016 0.17392 0.52175 0.0
C1465 C 0.83698 0.17149 0.48037 0.0
N1466 N 0.93055 0.14917 0.49609 0.0
N1467 N 0.78246 0.17242 0.50606 0.0
H1468 H 0.82685 0.17732 0.44323 0.0
H1469 H 0.79415 0.19045 0.46146 0.0
H1470 H 0.77052 0.17373 0.52272 0.0
H1471 H 0.75877 0.16548 0.49155 0.0
H1472 H 0.9472 0.14386 0.51063 0.0
H1473 H 0.93804 0.1405 0.47942 0.0
H1474 H 0.95181 0.18639 0.54039 0.0
H1475 H 0.91493 0.19242 0.55868 0.0
C1476 C 0.90564 0.74479 0.50346 0.0
C1477 C 0.87937 0.72029 0.48149 0.0
C1478 C 0.8305 0.65524 0.50371 0.0
C1479 C 0.85821 0.67863 0.52544 0.0
N1480 N 0.9272 0.74195 0.54526 0.0
N1481 N 0.82352 0.64855 0.46 0.0
C1482 C 0.89737 0.72233 0.52507 0.0
C1483 C 0.84378 0.67439 0.48144 0.0
N1484 N 0.93721 0.79005 0.5039 0.0
N1485 N 0.79047 0.61544 0.50441 0.0
H1486 H 0.83287 0.66106 0.44335 0.0
H1487 H 0.80069 0.61361 0.45869 0.0
H1488 H 0.77953 0.60014 0.52027 0.0
H1489 H 0.76631 0.59956 0.48966 0.0
H1490 H 0.95407 0.81101 0.51971 0.0
H1491 H 0.94416 0.80772 0.48858 0.0
H1492 H 0.95878 0.77133 0.5455 0.0
H1493 H 0.92209 0.72663 0.56136 0.0
loop_
_geom_bond_atom_site_label_1
_geom_bond_atom_site_label_2
_geom_bond_distance
_geom_bond_site_symmetry_2
_ccdc_geom_bond_type
H0 C3 0.931 . S
H1 C6 0.928 . S
H2 C8 0.930 . S
C3 H0 0.931 . S
C3 C4 1.413 . S
C3 C5 1.360 . S
C4 C3 1.413 . S
C4 C8 1.429 . S
C5 C3 1.360 . S
C5 C6 1.372 . S
C6 H1 0.928 . S
C6 C5 1.372 . S
C6 C7 1.404 . S
C7 C6 1.404 . S
C7 C8 1.391 . S
C8 H2 0.930 . S
C8 C4 1.429 . S
C8 C7 1.391 . S
H9 C12 0.931 . S
H10 C15 0.928 . S
H11 C17 0.930 . S
C12 H9 0.931 . S
C12 C13 1.413 . S
C12 C14 1.360 . S
C13 C12 1.413 . S
C13 C17 1.429 . S
C14 C12 1.360 . S
C14 C15 1.372 . S
C15 H10 0.928 . S
C15 C14 1.372 . S
C15 C16 1.404 . S
C16 C15 1.404 . S
C16 C17 1.391 . S
C17 H11 0.930 . S
C17 C13 1.429 . S
C17 C16 1.391 . S
H18 C21 0.931 . S
H19 C24 0.928 . S
H20 C26 0.930 . S
C21 H18 0.931 . S
C21 C22 1.413 . S
C21 C23 1.360 . S
C22 C21 1.413 . S
C22 C26 1.429 . S
C23 C21 1.360 . S
C23 C24 1.372 . S
C24 H19 0.928 . S
C24 C23 1.372 . S
C24 C25 1.404 . S
C25 C24 1.404 . S
C25 C26 1.391 . S
C26 H20 0.930 . S
C26 C22 1.429 . S
C26 C25 1.391 . S
H27 C30 0.931 . S
H28 C33 0.928 . S
H29 C35 0.930 . S
C30 H27 0.931 . S
C30 C31 1.413 . S
C30 C32 1.360 . S
C31 C30 1.413 . S
C31 C35 1.429 . S
C32 C30 1.360 . S
C32 C33 1.372 . S
C33 H28 0.928 . S
C33 C32 1.372 . S
C33 C34 1.404 . S
C34 C33 1.404 . S
C34 C35 1.391 . S
C35 H29 0.930 . S
C35 C31 1.429 . S
C35 C34 1.391 . S
H36 C39 0.931 . S
H37 C42 0.928 . S
H38 C44 0.930 . S
C39 H36 0.931 . S
C39 C40 1.413 . S
C39 C41 1.360 . S
C40 C39 1.413 . S
C40 C44 1.429 . S
C41 C39 1.360 . S
C41 C42 1.372 . S
C42 H37 0.928 . S
C42 C41 1.372 . S
C42 C43 1.404 . S
C43 C42 1.404 . S
C43 C44 1.391 . S
C44 H38 0.930 . S
C44 C40 1.429 . S
C44 C43 1.391 . S
H45 C48 0.931 . S
H46 C51 0.928 . S
H47 C53 0.930 . S
C48 H45 0.931 . S
C48 C49 1.413 . S
C48 C50 1.360 . S
C49 C48 1.413 . S
C49 C53 1.429 . S
C50 C48 1.360 . S
C50 C51 1.372 . S
C51 H46 0.928 . S
C51 C50 1.372 . S
C51 C52 1.404 . S
C52 C51 1.404 . S
C52 C53 1.391 . S
C53 H47 0.930 . S
C53 C49 1.429 . S
C53 C52 1.391 . S
H54 C57 0.931 . S
H55 C60 0.928 . S
H56 C62 0.930 . S
C57 H54 0.931 . S
C57 C58 1.413 . S
C57 C59 1.360 . S
C58 C57 1.413 . S
C58 C62 1.429 . S
C59 C57 1.360 . S
C59 C60 1.372 . S
C60 H55 0.928 . S
C60 C59 1.372 . S
C60 C61 1.404 . S
C61 C60 1.404 . S
C61 C62 1.391 . S
C62 H56 0.930 . S
C62 C58 1.429 . S
C62 C61 1.391 . S
H63 C66 0.931 . S
H64 C69 0.928 . S
H65 C71 0.930 . S
C66 H63 0.931 . S
C66 C67 1.413 . S
C66 C68 1.360 . S
C67 C66 1.413 . S
C67 C71 1.429 . S
C68 C66 1.360 . S
C68 C69 1.372 . S
C69 H64 0.928 . S
C69 C68 1.372 . S
C69 C70 1.404 . S
C70 C69 1.404 . S
C70 C71 1.391 . S
C71 H65 0.930 . S
C71 C67 1.429 . S
C71 C70 1.391 . S
H72 C75 0.931 . S
H73 C78 0.928 . S
H74 C80 0.930 . S
C75 H72 0.931 . S
C75 C76 1.413 . S
C75 C77 1.360 . S
C76 C75 1.413 . S
C76 C80 1.429 . S
C77 C75 1.360 . S
C77 C78 1.372 . S
C78 H73 0.928 . S
C78 C77 1.372 . S
C78 C79 1.404 . S
C79 C78 1.404 . S
C79 C80 1.391 . S
C80 H74 0.930 . S
C80 C76 1.429 . S
C80 C79 1.391 . S
H81 C84 0.931 . S
H82 C87 0.928 . S
H83 C89 0.930 . S
C84 H81 0.931 . S
C84 C85 1.413 . S
C84 C86 1.360 . S
C85 C84 1.413 . S
C85 C89 1.429 . S
C86 C84 1.360 . S
C86 C87 1.372 . S
C87 H82 0.928 . S
C87 C86 1.372 . S
C87 C88 1.404 . S
C88 C87 1.404 . S
C88 C89 1.391 . S
C89 H83 0.930 . S
C89 C85 1.429 . S
C89 C88 1.391 . S
H90 C93 0.931 . S
H91 C96 0.928 . S
H92 C98 0.930 . S
C93 H90 0.931 . S
C93 C94 1.413 . S
C93 C95 1.360 . S
C94 C93 1.413 . S
C94 C98 1.429 . S
C95 C93 1.360 . S
C95 C96 1.372 . S
C96 H91 0.928 . S
C96 C95 1.372 . S
C96 C97 1.404 . S
C97 C96 1.404 . S
C97 C98 1.391 . S
C98 H92 0.930 . S
C98 C94 1.429 . S
C98 C97 1.391 . S
H99 C102 0.931 . S
H100 C105 0.928 . S
H101 C107 0.930 . S
C102 H99 0.931 . S
C102 C103 1.413 . S
C102 C104 1.360 . S
C103 C102 1.413 . S
C103 C107 1.429 . S
C104 C102 1.360 . S
C104 C105 1.372 . S
C105 H100 0.928 . S
C105 C104 1.372 . S
C105 C106 1.404 . S
C106 C105 1.404 . S
C106 C107 1.391 . S
C107 H101 0.930 . S
C107 C103 1.429 . S
C107 C106 1.391 . S
H108 C111 0.931 . S
H109 C114 0.928 . S
H110 C116 0.930 . S
C111 H108 0.931 . S
C111 C112 1.413 . S
C111 C113 1.360 . S
C112 C111 1.413 . S
C112 C116 1.429 . S
C113 C111 1.360 . S
C113 C114 1.372 . S
C114 H109 0.928 . S
C114 C113 1.372 . S
C114 C115 1.404 . S
C115 C114 1.404 . S
C115 C116 1.391 . S
C116 H110 0.930 . S
C116 C112 1.429 . S
C116 C115 1.391 . S
H117 C120 0.931 . S
H118 C123 0.928 . S
H119 C125 0.930 . S
C120 H117 0.931 . S
C120 C121 1.413 . S
C120 C122 1.360 . S
C121 C120 1.413 . S
C121 C125 1.429 . S
C122 C120 1.360 . S
C122 C123 1.372 . S
C123 H118 0.928 . S
C123 C122 1.372 . S
C123 C124 1.404 . S
C124 C123 1.404 . S
C124 C125 1.391 . S
C125 H119 0.930 . S
C125 C121 1.429 . S
C125 C124 1.391 . S
H126 C129 0.931 . S
H127 C132 0.928 . S
H128 C134 0.930 . S
C129 H126 0.931 . S
C129 C130 1.413 . S
C129 C131 1.360 . S
C130 C129 1.413 . S
C130 C134 1.429 . S
C131 C129 1.360 . S
C131 C132 1.372 . S
C132 H127 0.928 . S
C132 C131 1.372 . S
C132 C133 1.404 . S
C133 C132 1.404 . S
C133 C134 1.391 . S
C134 H128 0.930 . S
C134 C130 1.429 . S
C134 C133 1.391 . S
H135 C138 0.931 . S
H136 C141 0.928 . S
H137 C143 0.930 . S
C138 H135 0.931 . S
C138 C139 1.413 . S
C138 C140 1.360 . S
C139 C138 1.413 . S
C139 C143 1.429 . S
C140 C138 1.360 . S
C140 C141 1.372 . S
C141 H136 0.928 . S
C141 C140 1.372 . S
C141 C142 1.404 . S
C142 C141 1.404 . S
C142 C143 1.391 . S
C143 H137 0.930 . S
C143 C139 1.429 . S
C143 C142 1.391 . S
H144 C147 0.931 . S
H145 C150 0.928 . S
H146 C152 0.930 . S
C147 H144 0.931 . S
C147 C148 1.413 . S
C147 C149 1.360 . S
C148 C147 1.413 . S
C148 C152 1.429 . S
C149 C147 1.360 . S
C149 C150 1.372 . S
C150 H145 0.928 . S
C150 C149 1.372 . S
C150 C151 1.404 . S
C151 C150 1.404 . S
C151 C152 1.391 . S
C152 H146 0.930 . S
C152 C148 1.429 . S
C152 C151 1.391 . S
H153 C156 0.931 . S
H154 C159 0.928 . S
H155 C161 0.930 . S
C156 H153 0.931 . S
C156 C157 1.413 . S
C156 C158 1.360 . S
C157 C156 1.413 . S
C157 C161 1.429 . S
C158 C156 1.360 . S
C158 C159 1.372 . S
C159 H154 0.928 . S
C159 C158 1.372 . S
C159 C160 1.404 . S
C160 C159 1.404 . S
C160 C161 1.391 . S
C161 H155 0.930 . S
C161 C157 1.429 . S
C161 C160 1.391 . S
Eu162 C171 2.828 . S
Eu162 O173 2.407 . S
Eu162 O175 2.418 . S
Eu162 O180 2.373 1_565 S
Eu162 O183 2.488 . S
Eu162 O184 2.471 . S
Eu162 O185 2.349 1_565 S
Eu163 O172 2.373 1_545 S
Eu163 O176 2.488 . S
Eu163 O177 2.471 . S
Eu163 O178 2.349 1_545 S
Eu163 O181 2.392 . S
Eu163 O182 2.418 . S
Eu163 C192 2.828 . S
C164 O182 1.244 1_556 S
C164 O185 1.265 . S
C165 C166 1.379 1_565 S
C165 C169 1.373 . S
C165 C171 1.505 . S
C166 C165 1.379 1_545 S
C166 C168 1.369 . S
C166 H194 0.930 . S
C167 C169 1.383 . S
C167 C170 1.382 1_565 S
C167 H195 0.930 . S
C168 C166 1.369 . S
C168 C170 1.392 . S
C168 H196 0.930 . S
C169 C165 1.373 . S
C169 C167 1.383 . S
C169 H197 0.931 . S
C170 C167 1.382 1_545 S
C170 C168 1.392 . S
C171 Eu162 2.828 . S
C171 C165 1.505 . S
C171 O183 1.249 . S
C171 O184 1.244 . S
O172 Eu163 2.373 1_565 S
O172 C174 1.258 . S
O173 Eu162 2.407 . S
O173 C174 1.226 1_556 S
C174 O172 1.258 . S
C174 O173 1.226 1_554 S
O175 Eu162 2.418 . S
O175 C179 1.244 1_556 S
O176 Eu163 2.488 . S
O176 C192 1.249 . S
O177 Eu163 2.471 . S
O177 C192 1.244 . S
O178 Eu163 2.349 1_565 S
O178 C179 1.265 . S
C179 O175 1.244 1_554 S
C179 O178 1.265 . S
O180 Eu162 2.373 1_545 S
O180 C193 1.258 . S
O181 Eu163 2.392 . S
O181 C193 1.242 1_554 S
O182 Eu163 2.418 . S
O182 C164 1.244 1_554 S
O183 Eu162 2.488 . S
O183 C171 1.249 . S
O184 Eu162 2.471 . S
O184 C171 1.244 . S
O185 Eu162 2.349 1_545 S
O185 C164 1.265 . S
C186 C187 1.379 1_545 S
C186 C190 1.373 . S
C186 C192 1.505 . S
C187 C186 1.379 1_565 S
C187 C189 1.369 . S
C187 H198 0.930 . S
C188 C190 1.383 . S
C188 C191 1.386 . S
C188 H199 0.930 . S
C189 C187 1.369 . S
C189 C191 1.389 1_565 S
C189 H200 0.930 . S
C190 C186 1.373 . S
C190 C188 1.383 . S
C190 H201 0.931 . S
C191 C188 1.386 . S
C191 C189 1.389 1_545 S
C192 Eu163 2.828 . S
C192 O176 1.249 . S
C192 O177 1.244 . S
C192 C186 1.505 . S
C193 O180 1.258 . S
C193 O181 1.242 1_556 S
H194 C166 0.930 . S
H195 C167 0.930 . S
H196 C168 0.930 . S
H197 C169 0.931 . S
H198 C187 0.930 . S
H199 C188 0.930 . S
H200 C189 0.930 . S
H201 C190 0.931 . S
Eu202 C211 2.828 . S
Eu202 O213 2.392 1_556 S
Eu202 O215 2.418 . S
Eu202 O220 2.373 1_455 S
Eu202 O223 2.488 . S
Eu202 O224 2.471 1_455 S
Eu202 O225 2.349 1_455 S
Eu203 O212 2.373 1_655 S
Eu203 O216 2.488 . S
Eu203 O217 2.471 1_655 S
Eu203 O218 2.349 1_655 S
Eu203 O221 2.392 1_554 S
Eu203 O222 2.418 . S
Eu203 C232 2.828 . S
C204 O222 1.244 1_556 S
C204 O225 1.265 . S
C205 C206 1.379 1_455 S
C205 C209 1.373 . S
C205 C211 1.505 . S
C206 C205 1.379 1_655 S
C206 C208 1.369 . S
C206 H234 0.930 . S
C207 C209 1.383 . S
C207 C210 1.382 1_455 S
C207 H235 0.930 . S
C208 C206 1.369 . S
C208 C210 1.392 . S
C208 H236 0.930 . S
C209 C205 1.373 . S
C209 C207 1.383 . S
C209 H237 0.931 . S
C210 C207 1.382 1_655 S
C210 C208 1.392 . S
C211 Eu202 2.828 . S
C211 C205 1.505 . S
C211 O223 1.249 . S
C211 O224 1.244 1_455 S
O212 Eu203 2.373 1_455 S
O212 C214 1.258 . S
O213 Eu202 2.392 1_554 S
O213 C214 1.242 . S
C214 O212 1.258 . S
C214 O213 1.242 . S
O215 Eu202 2.418 . S
O215 C219 1.244 1_556 S
O216 Eu203 2.488 . S
O216 C232 1.249 . S
O217 Eu203 2.471 1_455 S
O217 C232 1.244 1_455 S
O218 Eu203 2.349 1_455 S
O218 C219 1.265 . S
C219 O215 1.244 1_554 S
C219 O218 1.265 . S
O220 Eu202 2.373 1_655 S
O220 C233 1.258 . S
O221 Eu203 2.392 1_556 S
O221 C233 1.242 . S
O222 Eu203 2.418 . S
O222 C204 1.244 1_554 S
O223 Eu202 2.488 . S
O223 C211 1.249 . S
O224 Eu202 2.471 1_655 S
O224 C211 1.244 1_655 S
O225 Eu202 2.349 1_655 S
O225 C204 1.265 . S
C226 C227 1.379 1_655 S
C226 C230 1.373 . S
C226 C232 1.505 . S
C227 C226 1.379 1_455 S
C227 C229 1.369 . S
C227 H238 0.930 . S
C228 C230 1.383 . S
C228 C231 1.382 1_655 S
C228 H239 0.930 . S
C229 C227 1.369 . S
C229 C231 1.392 . S
C229 H240 0.930 . S
C230 C226 1.373 . S
C230 C228 1.383 . S
C230 H241 0.931 . S
C231 C228 1.382 1_455 S
C231 C229 1.392 . S
C232 Eu203 2.828 . S
C232 O216 1.249 . S
C232 O217 1.244 1_655 S
C232 C226 1.505 . S
C233 O220 1.258 . S
C233 O221 1.242 . S
H234 C206 0.930 . S
H235 C207 0.930 . S
H236 C208 0.930 . S
H237 C209 0.931 . S
H238 C227 0.930 . S
H239 C228 0.930 . S
H240 C229 0.930 . S
H241 C230 0.931 . S
Eu242 C251 2.828 . S
Eu242 O253 2.427 . S
Eu242 O255 2.418 . S
Eu242 O260 2.373 . S
Eu242 O263 2.488 . S
Eu242 O264 2.471 . S
Eu242 O265 2.349 . S
Eu243 O252 2.373 . S
Eu243 O256 2.488 . S
Eu243 O257 2.471 . S
Eu243 O258 2.349 . S
Eu243 O261 2.392 1_556 S
Eu243 O262 2.418 . S
Eu243 C272 2.828 . S
C244 O262 1.244 1_554 S
C244 O265 1.265 . S
C245 C246 1.379 . S
C245 C249 1.373 . S
C245 C251 1.505 . S
C246 C245 1.379 . S
C246 C248 1.369 . S
C246 H274 0.930 . S
C247 C249 1.383 . S
C247 C250 1.382 . S
C247 H275 0.930 . S
C248 C246 1.369 . S
C248 C250 1.392 . S
C248 H276 0.930 . S
C249 C245 1.373 . S
C249 C247 1.383 . S
C249 H277 0.931 . S
C250 C247 1.382 . S
C250 C248 1.392 . S
C251 Eu242 2.828 . S
C251 C245 1.505 . S
C251 O263 1.249 . S
C251 O264 1.244 . S
O252 Eu243 2.373 . S
O252 C254 1.258 . S
O253 Eu242 2.427 . S
O253 C254 1.203 1_554 S
C254 O252 1.258 . S
C254 O253 1.203 1_556 S
O255 Eu242 2.418 . S
O255 C259 1.244 1_554 S
O256 Eu243 2.488 . S
O256 C272 1.249 . S
O257 Eu243 2.471 . S
O257 C272 1.244 . S
O258 Eu243 2.349 . S
O258 C259 1.265 . S
C259 O255 1.244 1_556 S
C259 O258 1.265 . S
O260 Eu242 2.373 . S
O260 C273 1.258 . S
O261 Eu243 2.392 1_554 S
O261 C273 1.242 . S
O262 Eu243 2.418 . S
O262 C244 1.244 1_556 S
O263 Eu242 2.488 . S
O263 C251 1.249 . S
O264 Eu242 2.471 . S
O264 C251 1.244 . S
O265 Eu242 2.349 . S
O265 C244 1.265 . S
C266 C267 1.379 . S
C266 C270 1.373 . S
C266 C272 1.505 . S
C267 C266 1.379 . S
C267 C269 1.369 . S
C267 H278 0.930 . S
C268 C270 1.383 . S
C268 C271 1.382 . S
C268 H279 0.930 . S
C269 C267 1.369 . S
C269 C271 1.392 . S
C269 H280 0.930 . S
C270 C266 1.373 . S
C270 C268 1.383 . S
C270 H281 0.931 . S
C271 C268 1.382 . S
C271 C269 1.392 . S
C272 Eu243 2.828 . S
C272 O256 1.249 . S
C272 O257 1.244 . S
C272 C266 1.505 . S
C273 O260 1.258 . S
C273 O261 1.242 . S
H274 C246 0.930 . S
H275 C247 0.930 . S
H276 C248 0.930 . S
H277 C249 0.931 . S
H278 C267 0.930 . S
H279 C268 0.930 . S
H280 C269 0.930 . S
H281 C270 0.931 . S
Eu282 C291 2.828 . S
Eu282 O293 2.392 . S
Eu282 O295 2.418 . S
Eu282 O300 2.373 . S
Eu282 O303 2.488 . S
Eu282 O304 2.471 . S
Eu282 O305 2.349 . S
Eu283 O292 2.373 . S
Eu283 O296 2.488 . S
Eu283 O297 2.471 . S
Eu283 O298 2.349 . S
Eu283 O301 2.392 . S
Eu283 O302 2.418 . S
Eu283 C312 2.828 . S
C284 O302 1.244 . S
C284 O305 1.265 . S
C285 C286 1.379 . S
C285 C289 1.373 . S
C285 C291 1.505 . S
C286 C285 1.379 . S
C286 C288 1.369 . S
C286 H314 0.930 . S
C287 C289 1.383 . S
C287 C290 1.382 . S
C287 H315 0.930 . S
C288 C286 1.369 . S
C288 C290 1.392 . S
C288 H316 0.930 . S
C289 C285 1.373 . S
C289 C287 1.383 . S
C289 H317 0.931 . S
C290 C287 1.382 . S
C290 C288 1.392 . S
C291 Eu282 2.828 . S
C291 C285 1.505 . S
C291 O303 1.249 . S
C291 O304 1.244 . S
O292 Eu283 2.373 . S
O292 C294 1.258 . S
O293 Eu282 2.392 . S
O293 C294 1.242 . S
C294 O292 1.258 . S
C294 O293 1.242 . S
O295 Eu282 2.418 . S
O295 C299 1.244 . S
O296 Eu283 2.488 . S
O296 C312 1.249 . S
O297 Eu283 2.471 . S
O297 C312 1.244 . S
O298 Eu283 2.349 . S
O298 C299 1.265 . S
C299 O295 1.244 . S
C299 O298 1.265 . S
O300 Eu282 2.373 . S
O300 C313 1.258 . S
O301 Eu283 2.392 . S
O301 C313 1.242 . S
O302 Eu283 2.418 . S
O302 C284 1.244 . S
O303 Eu282 2.488 . S
O303 C291 1.249 . S
O304 Eu282 2.471 . S
O304 C291 1.244 . S
O305 Eu282 2.349 . S
O305 C284 1.265 . S
C306 C307 1.379 . S
C306 C310 1.373 . S
C306 C312 1.505 . S
C307 C306 1.379 . S
C307 C309 1.369 . S
C307 H318 0.930 . S
C308 C310 1.383 . S
C308 C311 1.382 . S
C308 H319 0.930 . S
C309 C307 1.369 . S
C309 C311 1.392 . S
C309 H320 0.930 . S
C310 C306 1.373 . S
C310 C308 1.383 . S
C310 H321 0.931 . S
C311 C308 1.382 . S
C311 C309 1.392 . S
C312 Eu283 2.828 . S
C312 O296 1.249 . S
C312 O297 1.244 . S
C312 C306 1.505 . S
C313 O300 1.258 . S
C313 O301 1.242 . S
H314 C286 0.930 . S
H315 C287 0.930 . S
H316 C288 0.930 . S
H317 C289 0.931 . S
H318 C307 0.930 . S
H319 C308 0.930 . S
H320 C309 0.930 . S
H321 C310 0.931 . S
Eu322 C331 2.828 . S
Eu322 O333 2.392 . S
Eu322 O335 2.418 . S
Eu322 O340 2.373 . S
Eu322 O343 2.488 . S
Eu322 O344 2.471 . S
Eu322 O345 2.349 . S
Eu323 O332 2.373 . S
Eu323 O336 2.488 . S
Eu323 O337 2.471 . S
Eu323 O338 2.349 . S
Eu323 O341 2.392 . S
Eu323 O342 2.418 . S
Eu323 C352 2.828 . S
C324 O342 1.244 . S
C324 O345 1.265 . S
C325 C326 1.379 . S
C325 C329 1.373 . S
C325 C331 1.505 . S
C326 C325 1.379 . S
C326 C328 1.369 . S
C326 H354 0.930 . S
C327 C329 1.383 . S
C327 C330 1.382 . S
C327 H355 0.930 . S
C328 C326 1.369 . S
C328 C330 1.392 . S
C328 H356 0.930 . S
C329 C325 1.373 . S
C329 C327 1.383 . S
C329 H357 0.931 . S
C330 C327 1.382 . S
C330 C328 1.392 . S
C331 Eu322 2.828 . S
C331 C325 1.505 . S
C331 O343 1.249 . S
C331 O344 1.244 . S
O332 Eu323 2.373 . S
O332 C334 1.258 . S
O333 Eu322 2.392 . S
O333 C334 1.242 . S
C334 O332 1.258 . S
C334 O333 1.242 . S
O335 Eu322 2.418 . S
O335 C339 1.244 . S
O336 Eu323 2.488 . S
O336 C352 1.249 . S
O337 Eu323 2.471 . S
O337 C352 1.244 . S
O338 Eu323 2.349 . S
O338 C339 1.265 . S
C339 O335 1.244 . S
C339 O338 1.265 . S
O340 Eu322 2.373 . S
O340 C353 1.258 . S
O341 Eu323 2.392 . S
O341 C353 1.242 . S
O342 Eu323 2.418 . S
O342 C324 1.244 . S
O343 Eu322 2.488 . S
O343 C331 1.249 . S
O344 Eu322 2.471 . S
O344 C331 1.244 . S
O345 Eu322 2.349 . S
O345 C324 1.265 . S
C346 C347 1.379 . S
C346 C350 1.373 . S
C346 C352 1.505 . S
C347 C346 1.379 . S
C347 C349 1.369 . S
C347 H358 0.930 . S
C348 C350 1.383 . S
C348 C351 1.382 . S
C348 H359 0.930 . S
C349 C347 1.369 . S
C349 C351 1.392 . S
C349 H360 0.930 . S
C350 C346 1.373 . S
C350 C348 1.383 . S
C350 H361 0.931 . S
C351 C348 1.382 . S
C351 C349 1.392 . S
C352 Eu323 2.828 . S
C352 O336 1.249 . S
C352 O337 1.244 . S
C352 C346 1.505 . S
C353 O340 1.258 . S
C353 O341 1.242 . S
H354 C326 0.930 . S
H355 C327 0.930 . S
H356 C328 0.930 . S
H357 C329 0.931 . S
H358 C347 0.930 . S
H359 C348 0.930 . S
H360 C349 0.930 . S
H361 C350 0.931 . S
Eu362 C371 2.828 . S
Eu362 O373 2.392 . S
Eu362 O375 2.418 . S
Eu362 O380 2.373 . S
Eu362 O383 2.488 . S
Eu362 O384 2.471 . S
Eu362 O385 2.349 . S
Eu363 O372 2.373 . S
Eu363 O376 2.488 . S
Eu363 O377 2.471 . S
Eu363 O378 2.349 . S
Eu363 O381 2.392 . S
Eu363 O382 2.418 . S
Eu363 C392 2.828 . S
C364 O382 1.244 . S
C364 O385 1.265 . S
C365 C366 1.379 . S
C365 C369 1.373 . S
C365 C371 1.505 . S
C366 C365 1.379 . S
C366 C368 1.369 . S
C366 H394 0.930 . S
C367 C369 1.383 . S
C367 C370 1.382 . S
C367 H395 0.930 . S
C368 C366 1.369 . S
C368 C370 1.392 . S
C368 H396 0.930 . S
C369 C365 1.373 . S
C369 C367 1.383 . S
C369 H397 0.931 . S
C370 C367 1.382 . S
C370 C368 1.392 . S
C371 Eu362 2.828 . S
C371 C365 1.505 . S
C371 O383 1.249 . S
C371 O384 1.244 . S
O372 Eu363 2.373 . S
O372 C374 1.258 . S
O373 Eu362 2.392 . S
O373 C374 1.242 . S
C374 O372 1.258 . S
C374 O373 1.242 . S
O375 Eu362 2.418 . S
O375 C379 1.244 . S
O376 Eu363 2.488 . S
O376 C392 1.249 . S
O377 Eu363 2.471 . S
O377 C392 1.244 . S
O378 Eu363 2.349 . S
O378 C379 1.265 . S
C379 O375 1.244 . S
C379 O378 1.265 . S
O380 Eu362 2.373 . S
O380 C393 1.258 . S
O381 Eu363 2.392 . S
O381 C393 1.242 . S
O382 Eu363 2.418 . S
O382 C364 1.244 . S
O383 Eu362 2.488 . S
O383 C371 1.249 . S
O384 Eu362 2.471 . S
O384 C371 1.244 . S
O385 Eu362 2.349 . S
O385 C364 1.265 . S
C386 C387 1.379 . S
C386 C390 1.373 . S
C386 C392 1.505 . S
C387 C386 1.379 . S
C387 C389 1.369 . S
C387 H398 0.930 . S
C388 C390 1.383 . S
C388 C391 1.382 . S
C388 H399 0.930 . S
C389 C387 1.369 . S
C389 C391 1.392 . S
C389 H400 0.930 . S
C390 C386 1.373 . S
C390 C388 1.383 . S
C390 H401 0.931 . S
C391 C388 1.382 . S
C391 C389 1.392 . S
C392 Eu363 2.828 . S
C392 O376 1.249 . S
C392 O377 1.244 . S
C392 C386 1.505 . S
C393 O380 1.258 . S
C393 O381 1.242 . S
H394 C366 0.930 . S
H395 C367 0.930 . S
H396 C368 0.930 . S
H397 C369 0.931 . S
H398 C387 0.930 . S
H399 C388 0.930 . S
H400 C389 0.930 . S
H401 C390 0.931 . S
Eu402 C411 2.828 . S
Eu402 O413 2.392 . S
Eu402 O415 2.418 . S
Eu402 O420 2.373 . S
Eu402 O423 2.488 . S
Eu402 O424 2.471 . S
Eu402 O425 2.349 . S
Eu403 O412 2.373 . S
Eu403 O416 2.488 . S
Eu403 O417 2.471 . S
Eu403 O418 2.349 . S
Eu403 O421 2.392 . S
Eu403 O422 2.418 . S
Eu403 C432 2.828 . S
C404 O422 1.244 . S
C404 O425 1.265 . S
C405 C406 1.379 . S
C405 C409 1.373 . S
C405 C411 1.505 . S
C406 C405 1.379 . S
C406 C408 1.369 . S
C406 H434 0.930 . S
C407 C409 1.383 . S
C407 C410 1.382 . S
C407 H435 0.930 . S
C408 C406 1.369 . S
C408 C410 1.392 . S
C408 H436 0.930 . S
C409 C405 1.373 . S
C409 C407 1.383 . S
C409 H437 0.931 . S
C410 C407 1.382 . S
C410 C408 1.392 . S
C411 Eu402 2.828 . S
C411 C405 1.505 . S
C411 O423 1.249 . S
C411 O424 1.244 . S
O412 Eu403 2.373 . S
O412 C414 1.258 . S
O413 Eu402 2.392 . S
O413 C414 1.242 . S
C414 O412 1.258 . S
C414 O413 1.242 . S
O415 Eu402 2.418 . S
O415 C419 1.244 . S
O416 Eu403 2.488 . S
O416 C432 1.249 . S
O417 Eu403 2.471 . S
O417 C432 1.244 . S
O418 Eu403 2.349 . S
O418 C419 1.265 . S
C419 O415 1.244 . S
C419 O418 1.265 . S
O420 Eu402 2.373 . S
O420 C433 1.258 . S
O421 Eu403 2.392 . S
O421 C433 1.242 . S
O422 Eu403 2.418 . S
O422 C404 1.244 . S
O423 Eu402 2.488 . S
O423 C411 1.249 . S
O424 Eu402 2.471 . S
O424 C411 1.244 . S
O425 Eu402 2.349 . S
O425 C404 1.265 . S
C426 C427 1.379 . S
C426 C430 1.373 . S
C426 C432 1.505 . S
C427 C426 1.379 . S
C427 C429 1.369 . S
C427 H438 0.930 . S
C428 C430 1.383 . S
C428 C431 1.382 . S
C428 H439 0.930 . S
C429 C427 1.369 . S
C429 C431 1.392 . S
C429 H440 0.930 . S
C430 C426 1.373 . S
C430 C428 1.383 . S
C430 H441 0.931 . S
C431 C428 1.382 . S
C431 C429 1.392 . S
C432 Eu403 2.828 . S
C432 O416 1.249 . S
C432 O417 1.244 . S
C432 C426 1.505 . S
C433 O420 1.258 . S
C433 O421 1.242 . S
H434 C406 0.930 . S
H435 C407 0.930 . S
H436 C408 0.930 . S
H437 C409 0.931 . S
H438 C427 0.930 . S
H439 C428 0.930 . S
H440 C429 0.930 . S
H441 C430 0.931 . S
Eu442 C451 2.828 . S
Eu442 O453 2.392 . S
Eu442 O455 2.418 . S
Eu442 O460 2.373 . S
Eu442 O463 2.488 . S
Eu442 O464 2.471 . S
Eu442 O465 2.349 . S
Eu443 O452 2.373 . S
Eu443 O456 2.488 . S
Eu443 O457 2.471 . S
Eu443 O458 2.349 . S
Eu443 O461 2.392 . S
Eu443 O462 2.418 . S
Eu443 C472 2.828 . S
C444 O462 1.244 . S
C444 O465 1.265 . S
C445 C446 1.379 . S
C445 C449 1.373 . S
C445 C451 1.505 . S
C446 C445 1.379 . S
C446 C448 1.369 . S
C446 H474 0.930 . S
C447 C449 1.383 . S
C447 C450 1.382 . S
C447 H475 0.930 . S
C448 C446 1.369 . S
C448 C450 1.392 . S
C448 H476 0.930 . S
C449 C445 1.373 . S
C449 C447 1.383 . S
C449 H477 0.931 . S
C450 C447 1.382 . S
C450 C448 1.392 . S
C451 Eu442 2.828 . S
C451 C445 1.505 . S
C451 O463 1.249 . S
C451 O464 1.244 . S
O452 Eu443 2.373 . S
O452 C454 1.258 . S
O453 Eu442 2.392 . S
O453 C454 1.242 . S
C454 O452 1.258 . S
C454 O453 1.242 . S
O455 Eu442 2.418 . S
O455 C459 1.244 . S
O456 Eu443 2.488 . S
O456 C472 1.249 . S
O457 Eu443 2.471 . S
O457 C472 1.244 . S
O458 Eu443 2.349 . S
O458 C459 1.265 . S
C459 O455 1.244 . S
C459 O458 1.265 . S
O460 Eu442 2.373 . S
O460 C473 1.258 . S
O461 Eu443 2.392 . S
O461 C473 1.242 . S
O462 Eu443 2.418 . S
O462 C444 1.244 . S
O463 Eu442 2.488 . S
O463 C451 1.249 . S
O464 Eu442 2.471 . S
O464 C451 1.244 . S
O465 Eu442 2.349 . S
O465 C444 1.265 . S
C466 C467 1.379 . S
C466 C470 1.373 . S
C466 C472 1.505 . S
C467 C466 1.379 . S
C467 C469 1.369 . S
C467 H478 0.930 . S
C468 C470 1.383 . S
C468 C471 1.382 . S
C468 H479 0.930 . S
C469 C467 1.369 . S
C469 C471 1.392 . S
C469 H480 0.930 . S
C470 C466 1.373 . S
C470 C468 1.383 . S
C470 H481 0.931 . S
C471 C468 1.382 . S
C471 C469 1.392 . S
C472 Eu443 2.828 . S
C472 O456 1.249 . S
C472 O457 1.244 . S
C472 C466 1.505 . S
C473 O460 1.258 . S
C473 O461 1.242 . S
H474 C446 0.930 . S
H475 C447 0.930 . S
H476 C448 0.930 . S
H477 C449 0.931 . S
H478 C467 0.930 . S
H479 C468 0.930 . S
H480 C469 0.930 . S
H481 C470 0.931 . S
Eu482 C491 2.828 . S
Eu482 O493 2.392 . S
Eu482 O495 2.418 . S
Eu482 O500 2.373 . S
Eu482 O503 2.488 . S
Eu482 O504 2.471 . S
Eu482 O505 2.349 . S
Eu483 O492 2.373 . S
Eu483 O496 2.488 . S
Eu483 O497 2.471 . S
Eu483 O498 2.349 . S
Eu483 O501 2.392 . S
Eu483 O502 2.418 . S
Eu483 C512 2.828 . S
C484 O502 1.244 . S
C484 O505 1.265 . S
C485 C486 1.379 . S
C485 C489 1.373 . S
C485 C491 1.505 . S
C486 C485 1.379 . S
C486 C488 1.369 . S
C486 H514 0.930 . S
C487 C489 1.383 . S
C487 C490 1.382 . S
C487 H515 0.930 . S
C488 C486 1.369 . S
C488 C490 1.392 . S
C488 H516 0.930 . S
C489 C485 1.373 . S
C489 C487 1.383 . S
C489 H517 0.931 . S
C490 C487 1.382 . S
C490 C488 1.392 . S
C491 Eu482 2.828 . S
C491 C485 1.505 . S
C491 O503 1.249 . S
C491 O504 1.244 . S
O492 Eu483 2.373 . S
O492 C494 1.258 . S
O493 Eu482 2.392 . S
O493 C494 1.242 . S
C494 O492 1.258 . S
C494 O493 1.242 . S
O495 Eu482 2.418 . S
O495 C499 1.244 . S
O496 Eu483 2.488 . S
O496 C512 1.249 . S
O497 Eu483 2.471 . S
O497 C512 1.244 . S
O498 Eu483 2.349 . S
O498 C499 1.265 . S
C499 O495 1.244 . S
C499 O498 1.265 . S
O500 Eu482 2.373 . S
O500 C513 1.258 . S
O501 Eu483 2.392 . S
O501 C513 1.242 . S
O502 Eu483 2.418 . S
O502 C484 1.244 . S
O503 Eu482 2.488 . S
O503 C491 1.249 . S
O504 Eu482 2.471 . S
O504 C491 1.244 . S
O505 Eu482 2.349 . S
O505 C484 1.265 . S
C506 C507 1.379 . S
C506 C510 1.373 . S
C506 C512 1.505 . S
C507 C506 1.379 . S
C507 C509 1.369 . S
C507 H518 0.930 . S
C508 C510 1.383 . S
C508 C511 1.382 . S
C508 H519 0.930 . S
C509 C507 1.369 . S
C509 C511 1.392 . S
C509 H520 0.930 . S
C510 C506 1.373 . S
C510 C508 1.383 . S
C510 H521 0.931 . S
C511 C508 1.382 . S
C511 C509 1.392 . S
C512 Eu483 2.828 . S
C512 O496 1.249 . S
C512 O497 1.244 . S
C512 C506 1.505 . S
C513 O500 1.258 . S
C513 O501 1.242 . S
H514 C486 0.930 . S
H515 C487 0.930 . S
H516 C488 0.930 . S
H517 C489 0.931 . S
H518 C507 0.930 . S
H519 C508 0.930 . S
H520 C509 0.930 . S
H521 C510 0.931 . S
C522 C523 1.363 . S
C522 C528 1.379 . S
C522 N530 1.356 . S
C523 C522 1.363 . S
C523 C529 1.363 . S
C524 C525 1.363 . S
C524 C529 1.379 . S
C524 N531 1.356 . S
C525 C524 1.363 . S
C525 C528 1.363 . S
N526 C528 1.356 . S
N526 H538 0.984 . S
N526 H539 0.985 . S
N527 C529 1.356 . S
N527 H532 0.984 . S
N527 H533 0.985 . S
C528 C522 1.379 . S
C528 C525 1.363 . S
C528 N526 1.356 . S
C529 C523 1.363 . S
C529 C524 1.379 . S
C529 N527 1.356 . S
N530 C522 1.356 . S
N530 H536 0.984 . S
N530 H537 0.984 . S
N531 C524 1.356 . S
N531 H534 0.984 . S
N531 H535 0.985 1_565 S
H532 N527 0.984 . S
H533 N527 0.985 . S
H534 N531 0.984 . S
H535 N531 0.985 1_545 S
H536 N530 0.984 . S
H537 N530 0.984 . S
H538 N526 0.984 . S
H539 N526 0.985 . S
C540 C541 1.363 . S
C540 C546 1.379 . S
C540 N548 1.356 . S
C541 C540 1.363 . S
C541 C547 1.363 . S
C542 C543 1.363 . S
C542 C547 1.379 . S
C542 N549 1.356 . S
C543 C542 1.363 . S
C543 C546 1.363 . S
N544 C546 1.356 . S
N544 H556 0.984 . S
N544 H557 0.985 . S
N545 C547 1.356 . S
N545 H550 0.984 . S
N545 H551 0.985 . S
C546 C540 1.379 . S
C546 C543 1.363 . S
C546 N544 1.356 . S
C547 C541 1.363 . S
C547 C542 1.379 . S
C547 N545 1.356 . S
N548 C540 1.356 . S
N548 H554 0.984 . S
N548 H555 0.984 . S
N549 C542 1.356 . S
N549 H552 0.984 . S
N549 H553 0.985 1_554 S
H550 N545 0.984 . S
H551 N545 0.985 . S
H552 N549 0.984 . S
H553 N549 0.985 1_556 S
H554 N548 0.984 . S
H555 N548 0.984 . S
H556 N544 0.984 . S
H557 N544 0.985 . S
C558 C559 1.363 . S
C558 C564 1.379 . S
C558 N566 1.356 . S
C559 C558 1.363 . S
C559 C565 1.363 . S
C560 C561 1.363 . S
C560 C565 1.379 . S
C560 N567 1.356 1_554 S
C561 C560 1.363 . S
C561 C564 1.363 . S
N562 C564 1.356 . S
N562 H574 0.984 . S
N562 H575 0.985 . S
N563 C565 1.356 . S
N563 H568 0.984 . S
N563 H569 0.985 1_554 S
C564 C558 1.379 . S
C564 C561 1.363 . S
C564 N562 1.356 . S
C565 C559 1.363 . S
C565 C560 1.379 . S
C565 N563 1.356 . S
N566 C558 1.356 . S
N566 H572 0.984 . S
N566 H573 0.984 . S
N567 C560 1.356 1_556 S
N567 H570 0.984 . S
N567 H571 0.985 . S
H568 N563 0.984 . S
H569 N563 0.985 1_556 S
H570 N567 0.984 . S
H571 N567 0.985 . S
H572 N566 0.984 . S
H573 N566 0.984 . S
H574 N562 0.984 . S
H575 N562 0.985 . S
C576 C577 1.363 . S
C576 C582 1.379 . S
C576 N584 1.356 . S
C577 C576 1.363 . S
C577 C583 1.363 . S
C578 C579 1.363 . S
C578 C583 1.379 . S
C578 N585 1.356 1_556 S
C579 C578 1.363 . S
C579 C582 1.363 . S
N580 C582 1.356 . S
N580 H592 0.984 . S
N580 H593 0.985 . S
N581 C583 1.356 . S
N581 H586 0.984 . S
N581 H587 0.985 1_556 S
C582 C576 1.379 . S
C582 C579 1.363 . S
C582 N580 1.356 . S
C583 C577 1.363 . S
C583 C578 1.379 . S
C583 N581 1.356 . S
N584 C576 1.356 . S
N584 H590 0.984 . S
N584 H591 0.984 . S
N585 C578 1.356 1_554 S
N585 H588 0.984 . S
N585 H589 0.985 . S
H586 N581 0.984 . S
H587 N581 0.985 1_554 S
H588 N585 0.984 . S
H589 N585 0.985 . S
H590 N584 0.984 . S
H591 N584 0.984 . S
H592 N580 0.984 . S
H593 N580 0.985 . S
C594 C595 1.363 . S
C594 C600 1.379 . S
C594 N602 1.356 . S
C595 C594 1.363 . S
C595 C601 1.363 . S
C596 C597 1.363 . S
C596 C601 1.379 . S
C596 N603 1.356 . S
C597 C596 1.363 . S
C597 C600 1.363 . S
N598 C600 1.356 . S
N598 H610 0.984 1_556 S
N598 H611 0.985 . S
N599 C601 1.356 . S
N599 H604 0.984 . S
N599 H605 0.985 . S
C600 C594 1.379 . S
C600 C597 1.363 . S
C600 N598 1.356 . S
C601 C595 1.363 . S
C601 C596 1.379 . S
C601 N599 1.356 . S
N602 C594 1.356 . S
N602 H608 0.984 . S
N602 H609 0.984 . S
N603 C596 1.356 . S
N603 H606 0.984 . S
N603 H607 0.985 . S
H604 N599 0.984 . S
H605 N599 0.985 . S
H606 N603 0.984 . S
H607 N603 0.985 . S
H608 N602 0.984 . S
H609 N602 0.984 . S
H610 N598 0.984 1_554 S
H611 N598 0.985 . S
C612 C613 1.363 . S
C612 C618 1.377 1_556 S
C612 N620 1.340 1_556 S
C613 C612 1.363 . S
C613 C619 1.363 . S
C614 C615 1.363 . S
C614 C619 1.379 . S
C614 N621 1.356 . S
C615 C614 1.363 . S
C615 C618 1.360 1_556 S
N616 C618 1.361 . S
N616 H628 0.984 . S
N616 H629 0.985 . S
N617 C619 1.356 . S
N617 H622 0.984 . S
N617 H623 0.985 . S
C618 C612 1.377 1_554 S
C618 C615 1.360 1_554 S
C618 N616 1.361 . S
C619 C613 1.363 . S
C619 C614 1.379 . S
C619 N617 1.356 . S
N620 C612 1.340 1_554 S
N620 H626 1.027 . S
N620 H627 0.959 1_554 S
N621 C614 1.356 . S
N621 H624 0.984 . S
N621 H625 0.985 . S
H622 N617 0.984 . S
H623 N617 0.985 . S
H624 N621 0.984 . S
H625 N621 0.985 . S
H626 N620 1.027 . S
H627 N620 0.959 1_556 S
H628 N616 0.984 . S
H629 N616 0.985 . S
C630 C631 1.363 . S
C630 C636 1.379 . S
C630 N638 1.356 . S
C631 C630 1.363 . S
C631 C637 1.363 . S
C632 C633 1.363 . S
C632 C637 1.379 . S
C632 N639 1.356 . S
C633 C632 1.363 . S
C633 C636 1.363 . S
N634 C636 1.356 1_554 S
N634 H646 0.984 . S
N634 H647 0.985 . S
N635 C637 1.356 . S
N635 H640 0.984 . S
N635 H641 0.985 . S
C636 C630 1.379 . S
C636 C633 1.363 . S
C636 N634 1.356 1_556 S
C637 C631 1.363 . S
C637 C632 1.379 . S
C637 N635 1.356 . S
N638 C630 1.356 . S
N638 H644 0.984 1_556 S
N638 H645 0.984 . S
N639 C632 1.356 . S
N639 H642 0.984 . S
N639 H643 0.985 . S
H640 N635 0.984 . S
H641 N635 0.985 . S
H642 N639 0.984 . S
H643 N639 0.985 . S
H644 N638 0.984 1_554 S
H645 N638 0.984 . S
H646 N634 0.984 . S
H647 N634 0.985 . S
C648 C649 1.363 . S
C648 C654 1.379 . S
C648 N656 1.356 . S
C649 C648 1.363 . S
C649 C655 1.363 . S
C650 C651 1.363 . S
C650 C655 1.379 . S
C650 N657 1.356 . S
C651 C650 1.363 . S
C651 C654 1.363 . S
N652 C654 1.356 . S
N652 H664 0.984 . S
N652 H665 0.985 . S
N653 C655 1.356 . S
N653 H658 0.984 . S
N653 H659 0.985 . S
C654 C648 1.379 . S
C654 C651 1.363 . S
C654 N652 1.356 . S
C655 C649 1.363 . S
C655 C650 1.379 . S
C655 N653 1.356 . S
N656 C648 1.356 . S
N656 H662 0.984 . S
N656 H663 0.984 . S
N657 C650 1.356 . S
N657 H660 0.984 . S
N657 H661 0.985 . S
H658 N653 0.984 . S
H659 N653 0.985 . S
H660 N657 0.984 . S
H661 N657 0.985 . S
H662 N656 0.984 . S
H663 N656 0.984 . S
H664 N652 0.984 . S
H665 N652 0.985 . S
C666 C667 1.363 . S
C666 C672 1.379 . S
C666 N674 1.356 . S
C667 C666 1.363 . S
C667 C673 1.363 . S
C668 C669 1.363 . S
C668 C673 1.379 . S
C668 N675 1.356 . S
C669 C668 1.363 . S
C669 C672 1.363 . S
N670 C672 1.356 . S
N670 H682 0.984 . S
N670 H683 0.985 . S
N671 C673 1.356 . S
N671 H676 0.984 . S
N671 H677 0.985 . S
C672 C666 1.379 . S
C672 C669 1.363 . S
C672 N670 1.356 . S
C673 C667 1.363 . S
C673 C668 1.379 . S
C673 N671 1.356 . S
N674 C666 1.356 . S
N674 H680 0.984 . S
N674 H681 0.984 . S
N675 C668 1.356 . S
N675 H678 0.984 . S
N675 H679 0.985 . S
H676 N671 0.984 . S
H677 N671 0.985 . S
H678 N675 0.984 . S
H679 N675 0.985 . S
H680 N674 0.984 . S
H681 N674 0.984 . S
H682 N670 0.984 . S
H683 N670 0.985 . S
C684 C685 1.363 . S
C684 C690 1.379 . S
C684 N692 1.356 . S
C685 C684 1.363 . S
C685 C691 1.363 . S
C686 C687 1.363 . S
C686 C691 1.379 . S
C686 N693 1.356 1_554 S
C687 C686 1.363 . S
C687 C690 1.363 . S
N688 C690 1.356 . S
N688 H700 0.984 . S
N688 H701 0.985 . S
N689 C691 1.356 . S
N689 H694 0.984 . S
N689 H695 1.018 . S
C690 C684 1.379 . S
C690 C687 1.363 . S
C690 N688 1.356 . S
C691 C685 1.363 . S
C691 C686 1.379 . S
C691 N689 1.356 . S
N692 C684 1.356 . S
N692 H698 0.984 . S
N692 H699 0.984 . S
N693 C686 1.356 1_556 S
N693 H696 0.984 . S
N693 H697 0.985 . S
H694 N689 0.984 . S
H695 N689 1.018 . S
H696 N693 0.984 . S
H697 N693 0.985 . S
H698 N692 0.984 . S
H699 N692 0.984 . S
H700 N688 0.984 . S
H701 N688 0.985 . S
C702 C703 1.363 . S
C702 C708 1.379 . S
C702 N710 1.356 . S
C703 C702 1.363 . S
C703 C709 1.363 . S
C704 C705 1.363 . S
C704 C709 1.379 . S
C704 N711 1.356 . S
C705 C704 1.363 . S
C705 C708 1.363 . S
N706 C708 1.356 . S
N706 H718 0.984 . S
N706 H719 0.985 . S
N707 C709 1.356 . S
N707 H712 0.984 . S
N707 H713 0.985 . S
C708 C702 1.379 . S
C708 C705 1.363 . S
C708 N706 1.356 . S
C709 C703 1.363 . S
C709 C704 1.379 . S
C709 N707 1.356 . S
N710 C702 1.356 . S
N710 H716 0.984 . S
N710 H717 0.984 . S
N711 C704 1.356 . S
N711 H714 0.984 . S
N711 H715 0.985 . S
H712 N707 0.984 . S
H713 N707 0.985 . S
H714 N711 0.984 . S
H715 N711 0.985 . S
H716 N710 0.984 . S
H717 N710 0.984 . S
H718 N706 0.984 . S
H719 N706 0.985 . S
C720 C721 1.363 . S
C720 C726 1.379 . S
C720 N728 1.356 . S
C721 C720 1.363 . S
C721 C727 1.363 . S
C722 C723 1.363 . S
C722 C727 1.379 . S
C722 N729 1.356 1_554 S
C723 C722 1.363 . S
C723 C726 1.363 . S
N724 C726 1.356 . S
N724 H736 0.984 . S
N724 H737 0.985 . S
N725 C727 1.356 . S
N725 H730 0.984 . S
N725 H731 0.985 1_554 S
C726 C720 1.379 . S
C726 C723 1.363 . S
C726 N724 1.356 . S
C727 C721 1.363 . S
C727 C722 1.379 . S
C727 N725 1.356 . S
N728 C720 1.356 . S
N728 H734 0.984 . S
N728 H735 0.984 . S
N729 C722 1.356 1_556 S
N729 H732 0.984 . S
N729 H733 0.985 . S
H730 N725 0.984 . S
H731 N725 0.985 1_556 S
H732 N729 0.984 . S
H733 N729 0.985 . S
H734 N728 0.984 . S
H735 N728 0.984 . S
H736 N724 0.984 . S
H737 N724 0.985 . S
C738 C739 1.363 . S
C738 C744 1.379 1_655 S
C738 N746 1.356 . S
C739 C738 1.363 . S
C739 C745 1.363 . S
C740 C741 1.363 . S
C740 C745 1.379 1_455 S
C740 N747 1.356 . S
C741 C740 1.363 . S
C741 C744 1.363 . S
N742 C744 1.356 . S
N742 H754 0.984 . S
N742 H755 0.985 . S
N743 C745 1.356 . S
N743 H748 0.984 . S
N743 H749 0.985 . S
C744 C738 1.379 1_455 S
C744 C741 1.363 . S
C744 N742 1.356 . S
C745 C739 1.363 . S
C745 C740 1.379 1_655 S
C745 N743 1.356 . S
N746 C738 1.356 . S
N746 H752 0.984 . S
N746 H753 0.984 . S
N747 C740 1.356 . S
N747 H750 0.984 . S
N747 H751 0.985 . S
H748 N743 0.984 . S
H749 N743 0.985 . S
H750 N747 0.984 . S
H751 N747 0.985 . S
H752 N746 0.984 . S
H753 N746 0.984 . S
H754 N742 0.984 . S
H755 N742 0.985 . S
C756 C757 1.363 . S
C756 C762 1.379 . S
C756 N764 1.356 . S
C757 C756 1.363 . S
C757 C763 1.363 . S
C758 C759 1.363 . S
C758 C763 1.379 . S
C758 N765 1.356 . S
C759 C758 1.363 . S
C759 C762 1.363 . S
N760 C762 1.356 . S
N760 H772 0.984 . S
N760 H773 0.985 . S
N761 C763 1.356 . S
N761 H766 0.984 . S
N761 H767 0.985 . S
C762 C756 1.379 . S
C762 C759 1.363 . S
C762 N760 1.356 . S
C763 C757 1.363 . S
C763 C758 1.379 . S
C763 N761 1.356 . S
N764 C756 1.356 . S
N764 H770 0.984 . S
N764 H771 0.984 . S
N765 C758 1.356 . S
N765 H768 0.984 . S
N765 H769 0.985 . S
H766 N761 0.984 . S
H767 N761 0.985 . S
H768 N765 0.984 . S
H769 N765 0.985 . S
H770 N764 0.984 . S
H771 N764 0.984 . S
H772 N760 0.984 . S
H773 N760 0.985 . S
C774 C775 1.363 . S
C774 C780 1.379 . S
C774 N782 1.356 . S
C775 C774 1.363 . S
C775 C781 1.363 . S
C776 C777 1.363 . S
C776 C781 1.379 1_565 S
C776 N783 1.356 . S
C777 C776 1.363 . S
C777 C780 1.363 1_565 S
N778 C780 1.356 1_565 S
N778 H790 0.984 . S
N778 H791 0.985 . S
N779 C781 1.356 . S
N779 H784 0.984 . S
N779 H785 0.985 . S
C780 C774 1.379 . S
C780 C777 1.363 1_545 S
C780 N778 1.356 1_545 S
C781 C775 1.363 . S
C781 C776 1.379 1_545 S
C781 N779 1.356 . S
N782 C774 1.356 . S
N782 H788 0.984 . S
N782 H789 0.984 . S
N783 C776 1.356 . S
N783 H786 0.984 . S
N783 H787 0.985 . S
H784 N779 0.984 . S
H785 N779 0.985 . S
H786 N783 0.984 . S
H787 N783 0.985 . S
H788 N782 0.984 . S
H789 N782 0.984 . S
H790 N778 0.984 . S
H791 N778 0.985 . S
C792 C793 1.363 . S
C792 C798 1.379 . S
C792 N800 1.356 . S
C793 C792 1.363 . S
C793 C799 1.363 . S
C794 C795 1.363 . S
C794 C799 1.379 . S
C794 N801 1.356 . S
C795 C794 1.363 . S
C795 C798 1.363 . S
N796 C798 1.356 . S
N796 H808 0.984 . S
N796 H809 0.985 . S
N797 C799 1.356 . S
N797 H802 0.984 . S
N797 H803 0.985 . S
C798 C792 1.379 . S
C798 C795 1.363 . S
C798 N796 1.356 . S
C799 C793 1.363 . S
C799 C794 1.379 . S
C799 N797 1.356 . S
N800 C792 1.356 . S
N800 H806 0.984 . S
N800 H807 0.984 . S
N801 C794 1.356 . S
N801 H804 0.984 . S
N801 H805 0.985 . S
H802 N797 0.984 . S
H803 N797 0.985 . S
H804 N801 0.984 . S
H805 N801 0.985 . S
H806 N800 0.984 . S
H807 N800 0.984 . S
H808 N796 0.984 . S
H809 N796 0.985 . S
C810 C811 1.363 . S
C810 C816 1.379 . S
C810 N818 1.356 . S
C811 C810 1.363 . S
C811 C817 1.363 . S
C812 C813 1.363 . S
C812 C817 1.379 . S
C812 N819 1.356 . S
C813 C812 1.363 . S
C813 C816 1.363 . S
N814 C816 1.356 . S
N814 H826 0.984 . S
N814 H827 0.985 . S
N815 C817 1.356 . S
N815 H820 0.984 . S
N815 H821 1.003 . S
C816 C810 1.379 . S
C816 C813 1.363 . S
C816 N814 1.356 . S
C817 C811 1.363 . S
C817 C812 1.379 . S
C817 N815 1.356 . S
N818 C810 1.356 . S
N818 H824 0.984 . S
N818 H825 0.984 . S
N819 C812 1.356 . S
N819 H822 0.984 . S
N819 H823 0.985 . S
H820 N815 0.984 . S
H821 N815 1.003 . S
H822 N819 0.984 . S
H823 N819 0.985 . S
H824 N818 0.984 . S
H825 N818 0.984 . S
H826 N814 0.984 . S
H827 N814 0.985 . S
C828 C829 1.363 . S
C828 C834 1.379 . S
C828 N836 1.356 . S
C829 C828 1.363 . S
C829 C835 1.363 . S
C830 C831 1.363 . S
C830 C835 1.379 . S
C830 N837 1.356 . S
C831 C830 1.363 . S
C831 C834 1.363 . S
N832 C834 1.356 . S
N832 H844 0.984 . S
N832 H845 0.985 . S
N833 C835 1.367 . S
N833 H838 0.976 1_455 S
N833 H839 0.982 1_455 S
C834 C828 1.379 . S
C834 C831 1.363 . S
C834 N832 1.356 . S
C835 C829 1.363 . S
C835 C830 1.379 . S
C835 N833 1.367 . S
N836 C828 1.356 . S
N836 H842 0.984 . S
N836 H843 0.984 . S
N837 C830 1.356 . S
N837 H840 0.984 . S
N837 H841 0.985 . S
H838 N833 0.976 1_655 S
H839 N833 0.982 1_655 S
H840 N837 0.984 . S
H841 N837 0.985 . S
H842 N836 0.984 . S
H843 N836 0.984 . S
H844 N832 0.984 . S
H845 N832 0.985 . S
C846 C847 1.363 . S
C846 C852 1.379 . S
C846 N854 1.356 . S
C847 C846 1.363 . S
C847 C853 1.363 . S
C848 C849 1.363 . S
C848 C853 1.379 . S
C848 N855 1.356 . S
C849 C848 1.363 . S
C849 C852 1.363 . S
N850 C852 1.356 . S
N850 H862 0.984 . S
N850 H863 0.985 . S
N851 C853 1.356 . S
N851 H856 0.984 . S
N851 H857 0.985 . S
C852 C846 1.379 . S
C852 C849 1.363 . S
C852 N850 1.356 . S
C853 C847 1.363 . S
C853 C848 1.379 . S
C853 N851 1.356 . S
N854 C846 1.356 . S
N854 H860 0.984 . S
N854 H861 0.984 . S
N855 C848 1.356 . S
N855 H858 0.984 . S
N855 H859 0.985 . S
H856 N851 0.984 . S
H857 N851 0.985 . S
H858 N855 0.984 . S
H859 N855 0.985 . S
H860 N854 0.984 . S
H861 N854 0.984 . S
H862 N850 0.984 . S
H863 N850 0.985 . S
C864 C865 1.363 . S
C864 C870 1.379 . S
C864 N872 1.356 . S
C865 C864 1.363 . S
C865 C871 1.363 . S
C866 C867 1.363 . S
C866 C871 1.379 . S
C866 N873 1.356 . S
C867 C866 1.363 . S
C867 C870 1.363 . S
N868 C870 1.356 . S
N868 H880 0.984 . S
N868 H881 0.985 . S
N869 C871 1.356 . S
N869 H874 0.984 . S
N869 H875 0.985 . S
C870 C864 1.379 . S
C870 C867 1.363 . S
C870 N868 1.356 . S
C871 C865 1.363 . S
C871 C866 1.379 . S
C871 N869 1.356 . S
N872 C864 1.356 . S
N872 H878 0.984 . S
N872 H879 0.984 . S
N873 C866 1.356 . S
N873 H876 0.984 . S
N873 H877 0.985 . S
H874 N869 0.984 . S
H875 N869 0.985 . S
H876 N873 0.984 . S
H877 N873 0.985 . S
H878 N872 0.984 . S
H879 N872 0.984 . S
H880 N868 0.984 . S
H881 N868 0.985 . S
C882 C883 1.363 . S
C882 C888 1.379 . S
C882 N890 1.356 . S
C883 C882 1.363 . S
C883 C889 1.363 . S
C884 C885 1.363 . S
C884 C889 1.379 . S
C884 N891 1.356 . S
C885 C884 1.363 . S
C885 C888 1.363 . S
N886 C888 1.356 . S
N886 H898 0.984 . S
N886 H899 0.985 . S
N887 C889 1.356 . S
N887 H892 0.984 . S
N887 H893 0.985 . S
C888 C882 1.379 . S
C888 C885 1.363 . S
C888 N886 1.356 . S
C889 C883 1.363 . S
C889 C884 1.379 . S
C889 N887 1.356 . S
N890 C882 1.356 . S
N890 H896 0.984 . S
N890 H897 0.984 . S
N891 C884 1.356 . S
N891 H894 0.984 . S
N891 H895 0.985 . S
H892 N887 0.984 . S
H893 N887 0.985 . S
H894 N891 0.984 . S
H895 N891 0.985 . S
H896 N890 0.984 . S
H897 N890 0.984 . S
H898 N886 0.984 . S
H899 N886 0.985 . S
C900 C901 1.363 . S
C900 C906 1.379 . S
C900 N908 1.356 . S
C901 C900 1.363 . S
C901 C907 1.363 . S
C902 C903 1.363 . S
C902 C907 1.379 1_565 S
C902 N909 1.356 . S
C903 C902 1.363 . S
C903 C906 1.363 1_565 S
N904 C906 1.356 1_565 S
N904 H916 0.984 . S
N904 H917 0.985 . S
N905 C907 1.356 . S
N905 H910 0.984 . S
N905 H911 0.985 . S
C906 C900 1.379 . S
C906 C903 1.363 1_545 S
C906 N904 1.356 1_545 S
C907 C901 1.363 . S
C907 C902 1.379 1_545 S
C907 N905 1.356 . S
N908 C900 1.356 . S
N908 H914 0.984 . S
N908 H915 0.984 . S
N909 C902 1.356 . S
N909 H912 0.984 . S
N909 H913 0.985 . S
H910 N905 0.984 . S
H911 N905 0.985 . S
H912 N909 0.984 . S
H913 N909 0.985 . S
H914 N908 0.984 . S
H915 N908 0.984 . S
H916 N904 0.984 . S
H917 N904 0.985 . S
C918 C919 1.363 . S
C918 C924 1.379 1_655 S
C918 N926 1.356 . S
C919 C918 1.363 . S
C919 C925 1.363 . S
C920 C921 1.363 . S
C920 C925 1.379 1_455 S
C920 N927 1.356 . S
C921 C920 1.363 . S
C921 C924 1.363 . S
N922 C924 1.356 . S
N922 H934 0.984 . S
N922 H935 0.985 . S
N923 C925 1.356 . S
N923 H928 0.984 . S
N923 H929 0.985 . S
C924 C918 1.379 1_455 S
C924 C921 1.363 . S
C924 N922 1.356 . S
C925 C919 1.363 . S
C925 C920 1.379 1_655 S
C925 N923 1.356 . S
N926 C918 1.356 . S
N926 H932 0.984 . S
N926 H933 0.984 . S
N927 C920 1.356 . S
N927 H930 0.984 . S
N927 H931 0.985 . S
H928 N923 0.984 . S
H929 N923 0.985 . S
H930 N927 0.984 . S
H931 N927 0.985 . S
H932 N926 0.984 . S
H933 N926 0.984 . S
H934 N922 0.984 . S
H935 N922 0.985 . S
C936 C937 1.363 . S
C936 C942 1.379 . S
C936 N944 1.356 . S
C937 C936 1.363 . S
C937 C943 1.363 . S
C938 C939 1.363 . S
C938 C943 1.379 . S
C938 N945 1.356 . S
C939 C938 1.363 . S
C939 C942 1.363 . S
N940 C942 1.356 . S
N940 H952 0.984 . S
N940 H953 0.985 . S
N941 C943 1.356 . S
N941 H946 0.984 . S
N941 H947 0.985 . S
C942 C936 1.379 . S
C942 C939 1.363 . S
C942 N940 1.356 . S
C943 C937 1.363 . S
C943 C938 1.379 . S
C943 N941 1.356 . S
N944 C936 1.356 . S
N944 H950 0.984 . S
N944 H951 0.984 . S
N945 C938 1.356 . S
N945 H948 0.984 . S
N945 H949 0.985 . S
H946 N941 0.984 . S
H947 N941 0.985 . S
H948 N945 0.984 . S
H949 N945 0.985 . S
H950 N944 0.984 . S
H951 N944 0.984 . S
H952 N940 0.984 . S
H953 N940 0.985 . S
C954 C955 1.363 . S
C954 C960 1.379 . S
C954 N962 1.356 . S
C955 C954 1.363 . S
C955 C961 1.363 . S
C956 C957 1.363 . S
C956 C961 1.379 . S
C956 N963 1.356 . S
C957 C956 1.363 . S
C957 C960 1.363 . S
N958 C960 1.356 . S
N958 H970 0.984 . S
N958 H971 0.985 . S
N959 C961 1.356 . S
N959 H964 0.984 . S
N959 H965 0.985 . S
C960 C954 1.379 . S
C960 C957 1.363 . S
C960 N958 1.356 . S
C961 C955 1.363 . S
C961 C956 1.379 . S
C961 N959 1.356 . S
N962 C954 1.356 . S
N962 H968 0.984 . S
N962 H969 0.984 . S
N963 C956 1.356 . S
N963 H966 0.984 . S
N963 H967 0.985 . S
H964 N959 0.984 . S
H965 N959 0.985 . S
H966 N963 0.984 . S
H967 N963 0.985 . S
H968 N962 0.984 . S
H969 N962 0.984 . S
H970 N958 0.984 . S
H971 N958 0.985 . S
C972 C973 1.363 . S
C972 C978 1.379 . S
C972 N980 1.356 . S
C973 C972 1.363 . S
C973 C979 1.363 . S
C974 C975 1.363 . S
C974 C979 1.379 . S
C974 N981 1.356 . S
C975 C974 1.363 . S
C975 C978 1.363 . S
N976 C978 1.356 . S
N976 H988 0.984 . S
N976 H989 0.985 . S
N977 C979 1.356 . S
N977 H982 0.984 . S
N977 H983 0.985 . S
C978 C972 1.379 . S
C978 C975 1.363 . S
C978 N976 1.356 . S
C979 C973 1.363 . S
C979 C974 1.379 . S
C979 N977 1.356 . S
N980 C972 1.356 . S
N980 H986 0.984 . S
N980 H987 0.984 . S
N981 C974 1.356 . S
N981 H984 0.984 . S
N981 H985 0.985 . S
H982 N977 0.984 . S
H983 N977 0.985 . S
H984 N981 0.984 . S
H985 N981 0.985 . S
H986 N980 0.984 . S
H987 N980 0.984 . S
H988 N976 0.984 . S
H989 N976 0.985 . S
C990 C991 1.363 . S
C990 C996 1.379 . S
C990 N998 1.356 . S
C991 C990 1.363 . S
C991 C997 1.363 . S
C992 C993 1.363 . S
C992 C997 1.379 . S
C992 N999 1.356 . S
C993 C992 1.363 . S
C993 C996 1.363 . S
N994 C996 1.356 . S
N994 H1006 0.984 . S
N994 H1007 0.985 . S
N995 C997 1.356 . S
N995 H1000 0.984 . S
N995 H1001 0.985 . S
C996 C990 1.379 . S
C996 C993 1.363 . S
C996 N994 1.356 . S
C997 C991 1.363 . S
C997 C992 1.379 . S
C997 N995 1.356 . S
N998 C990 1.356 . S
N998 H1004 0.984 . S
N998 H1005 0.984 . S
N999 C992 1.356 . S
N999 H1002 0.984 . S
N999 H1003 0.985 . S
H1000 N995 0.984 . S
H1001 N995 0.985 . S
H1002 N999 0.984 . S
H1003 N999 0.985 . S
H1004 N998 0.984 . S
H1005 N998 0.984 . S
H1006 N994 0.984 . S
H1007 N994 0.985 . S
C1008 C1009 1.363 . S
C1008 C1014 1.379 1_565 S
C1008 N1016 1.356 . S
C1009 C1008 1.363 . S
C1009 C1015 1.363 . S
C1010 C1011 1.363 . S
C1010 C1015 1.379 1_545 S
C1010 N1017 1.356 . S
C1011 C1010 1.363 . S
C1011 C1014 1.363 . S
N1012 C1014 1.356 . S
N1012 H1024 0.984 . S
N1012 H1025 0.985 . S
N1013 C1015 1.356 . S
N1013 H1018 0.984 . S
N1013 H1019 0.985 . S
C1014 C1008 1.379 1_545 S
C1014 C1011 1.363 . S
C1014 N1012 1.356 . S
C1015 C1009 1.363 . S
C1015 C1010 1.379 1_565 S
C1015 N1013 1.356 . S
N1016 C1008 1.356 . S
N1016 H1022 0.984 . S
N1016 H1023 0.984 . S
N1017 C1010 1.356 . S
N1017 H1020 0.984 . S
N1017 H1021 0.985 . S
H1018 N1013 0.984 . S
H1019 N1013 0.985 . S
H1020 N1017 0.984 . S
H1021 N1017 0.985 . S
H1022 N1016 0.984 . S
H1023 N1016 0.984 . S
H1024 N1012 0.984 . S
H1025 N1012 0.985 . S
C1026 C1027 1.363 . S
C1026 C1032 1.379 1_455 S
C1026 N1034 1.356 . S
C1027 C1026 1.363 . S
C1027 C1033 1.363 1_455 S
C1028 C1029 1.363 . S
C1028 C1033 1.379 . S
C1028 N1035 1.356 . S
C1029 C1028 1.363 . S
C1029 C1032 1.363 . S
N1030 C1032 1.356 . S
N1030 H1042 0.984 1_655 S
N1030 H1043 0.985 . S
N1031 C1033 1.356 1_455 S
N1031 H1036 0.984 . S
N1031 H1037 0.985 1_455 S
C1032 C1026 1.379 1_655 S
C1032 C1029 1.363 . S
C1032 N1030 1.356 . S
C1033 C1027 1.363 1_655 S
C1033 C1028 1.379 . S
C1033 N1031 1.356 1_655 S
N1034 C1026 1.356 . S
N1034 H1040 0.984 . S
N1034 H1041 0.984 . S
N1035 C1028 1.356 . S
N1035 H1038 0.984 . S
N1035 H1039 0.985 . S
H1036 N1031 0.984 . S
H1037 N1031 0.985 1_655 S
H1038 N1035 0.984 . S
H1039 N1035 0.985 . S
H1040 N1034 0.984 . S
H1041 N1034 0.984 . S
H1042 N1030 0.984 1_455 S
H1043 N1030 0.985 . S
C1044 C1045 1.363 . S
C1044 C1050 1.379 . S
C1044 N1052 1.356 . S
C1045 C1044 1.363 . S
C1045 C1051 1.363 . S
C1046 C1047 1.363 . S
C1046 C1051 1.379 . S
C1046 N1053 1.356 . S
C1047 C1046 1.363 . S
C1047 C1050 1.363 . S
N1048 C1050 1.356 . S
N1048 H1060 0.984 . S
N1048 H1061 0.985 . S
N1049 C1051 1.356 . S
N1049 H1054 0.984 . S
N1049 H1055 0.985 . S
C1050 C1044 1.379 . S
C1050 C1047 1.363 . S
C1050 N1048 1.356 . S
C1051 C1045 1.363 . S
C1051 C1046 1.379 . S
C1051 N1049 1.356 . S
N1052 C1044 1.356 . S
N1052 H1058 0.984 . S
N1052 H1059 0.984 . S
N1053 C1046 1.356 . S
N1053 H1056 0.984 . S
N1053 H1057 0.985 . S
H1054 N1049 0.984 . S
H1055 N1049 0.985 . S
H1056 N1053 0.984 . S
H1057 N1053 0.985 . S
H1058 N1052 0.984 . S
H1059 N1052 0.984 . S
H1060 N1048 0.984 . S
H1061 N1048 0.985 . S
C1062 C1063 1.363 . S
C1062 C1068 1.380 . S
C1062 N1070 1.356 . S
C1063 C1062 1.363 . S
C1063 C1069 1.363 . S
C1064 C1065 1.363 . S
C1064 C1069 1.379 1_655 S
C1064 N1071 1.356 . S
C1065 C1064 1.363 . S
C1065 C1068 1.362 1_655 S
N1066 C1068 1.355 1_655 S
N1066 H1078 0.986 . S
N1066 H1079 0.985 . S
N1067 C1069 1.356 . S
N1067 H1072 0.984 . S
N1067 H1073 0.985 . S
C1068 C1062 1.380 . S
C1068 C1065 1.362 1_455 S
C1068 N1066 1.355 1_455 S
C1069 C1063 1.363 . S
C1069 C1064 1.379 1_455 S
C1069 N1067 1.356 . S
N1070 C1062 1.356 . S
N1070 H1076 0.984 . S
N1070 H1077 0.984 . S
N1071 C1064 1.356 . S
N1071 H1074 0.984 . S
N1071 H1075 0.985 . S
H1072 N1067 0.984 . S
H1073 N1067 0.985 . S
H1074 N1071 0.984 . S
H1075 N1071 0.985 . S
H1076 N1070 0.984 . S
H1077 N1070 0.984 . S
H1078 N1066 0.986 . S
H1079 N1066 0.985 . S
C1080 C1081 1.363 . S
C1080 C1086 1.379 . S
C1080 N1088 1.356 . S
C1081 C1080 1.363 . S
C1081 C1087 1.363 . S
C1082 C1083 1.363 . S
C1082 C1087 1.379 . S
C1082 N1089 1.356 . S
C1083 C1082 1.363 . S
C1083 C1086 1.363 . S
N1084 C1086 1.356 . S
N1084 H1096 0.984 . S
N1084 H1097 0.985 . S
N1085 C1087 1.356 . S
N1085 H1090 0.984 . S
N1085 H1091 0.985 . S
C1086 C1080 1.379 . S
C1086 C1083 1.363 . S
C1086 N1084 1.356 . S
C1087 C1081 1.363 . S
C1087 C1082 1.379 . S
C1087 N1085 1.356 . S
N1088 C1080 1.356 . S
N1088 H1094 0.984 . S
N1088 H1095 0.984 . S
N1089 C1082 1.356 . S
N1089 H1092 0.984 . S
N1089 H1093 0.985 . S
H1090 N1085 0.984 . S
H1091 N1085 0.985 . S
H1092 N1089 0.984 . S
H1093 N1089 0.985 . S
H1094 N1088 0.984 . S
H1095 N1088 0.984 . S
H1096 N1084 0.984 . S
H1097 N1084 0.985 . S
C1098 C1099 1.363 . S
C1098 C1104 1.379 . S
C1098 N1106 1.356 . S
C1099 C1098 1.363 . S
C1099 C1105 1.363 . S
C1100 C1101 1.363 . S
C1100 C1105 1.379 1_545 S
C1100 N1107 1.356 . S
C1101 C1100 1.363 . S
C1101 C1104 1.363 1_545 S
N1102 C1104 1.356 1_545 S
N1102 H1114 0.984 . S
N1102 H1115 0.985 . S
N1103 C1105 1.356 . S
N1103 H1108 0.984 . S
N1103 H1109 0.985 . S
C1104 C1098 1.379 . S
C1104 C1101 1.363 1_565 S
C1104 N1102 1.356 1_565 S
C1105 C1099 1.363 . S
C1105 C1100 1.379 1_565 S
C1105 N1103 1.356 . S
N1106 C1098 1.356 . S
N1106 H1112 0.984 . S
N1106 H1113 0.984 . S
N1107 C1100 1.356 . S
N1107 H1110 0.984 . S
N1107 H1111 0.985 . S
H1108 N1103 0.984 . S
H1109 N1103 0.985 . S
H1110 N1107 0.984 . S
H1111 N1107 0.985 . S
H1112 N1106 0.984 . S
H1113 N1106 0.984 . S
H1114 N1102 0.984 . S
H1115 N1102 0.985 . S
C1116 C1117 1.363 . S
C1116 C1122 1.379 . S
C1116 N1124 1.356 . S
C1117 C1116 1.363 . S
C1117 C1123 1.363 . S
C1118 C1119 1.363 . S
C1118 C1123 1.379 . S
C1118 N1125 1.356 . S
C1119 C1118 1.363 . S
C1119 C1122 1.363 . S
N1120 C1122 1.356 . S
N1120 H1132 0.984 . S
N1120 H1133 0.985 . S
N1121 C1123 1.356 . S
N1121 H1126 0.984 . S
N1121 H1127 0.985 . S
C1122 C1116 1.379 . S
C1122 C1119 1.363 . S
C1122 N1120 1.356 . S
C1123 C1117 1.363 . S
C1123 C1118 1.379 . S
C1123 N1121 1.356 . S
N1124 C1116 1.356 . S
N1124 H1130 0.984 . S
N1124 H1131 0.984 . S
N1125 C1118 1.356 . S
N1125 H1128 0.984 . S
N1125 H1129 0.985 . S
H1126 N1121 0.984 . S
H1127 N1121 0.985 . S
H1128 N1125 0.984 . S
H1129 N1125 0.985 . S
H1130 N1124 0.984 . S
H1131 N1124 0.984 . S
H1132 N1120 0.984 . S
H1133 N1120 0.985 . S
C1134 C1135 1.363 . S
C1134 C1140 1.379 . S
C1134 N1142 1.356 . S
C1135 C1134 1.363 . S
C1135 C1141 1.363 . S
C1136 C1137 1.363 . S
C1136 C1141 1.379 . S
C1136 N1143 1.356 . S
C1137 C1136 1.363 . S
C1137 C1140 1.363 . S
N1138 C1140 1.356 . S
N1138 H1150 0.984 . S
N1138 H1151 0.985 . S
N1139 C1141 1.356 . S
N1139 H1144 0.984 . S
N1139 H1145 0.985 1_545 S
C1140 C1134 1.379 . S
C1140 C1137 1.363 . S
C1140 N1138 1.356 . S
C1141 C1135 1.363 . S
C1141 C1136 1.379 . S
C1141 N1139 1.356 . S
N1142 C1134 1.356 . S
N1142 H1148 0.984 . S
N1142 H1149 0.984 . S
N1143 C1136 1.356 . S
N1143 H1146 0.984 . S
N1143 H1147 0.985 . S
H1144 N1139 0.984 . S
H1145 N1139 0.985 1_565 S
H1146 N1143 0.984 . S
H1147 N1143 0.985 . S
H1148 N1142 0.984 . S
H1149 N1142 0.984 . S
H1150 N1138 0.984 . S
H1151 N1138 0.985 . S
C1152 C1153 1.363 . S
C1152 C1158 1.379 . S
C1152 N1160 1.356 . S
C1153 C1152 1.363 . S
C1153 C1159 1.363 . S
C1154 C1155 1.363 . S
C1154 C1159 1.379 . S
C1154 N1161 1.356 . S
C1155 C1154 1.363 . S
C1155 C1158 1.363 . S
N1156 C1158 1.356 . S
N1156 H1168 0.984 . S
N1156 H1169 0.985 . S
N1157 C1159 1.356 . S
N1157 H1162 0.984 . S
N1157 H1163 0.985 . S
C1158 C1152 1.379 . S
C1158 C1155 1.363 . S
C1158 N1156 1.356 . S
C1159 C1153 1.363 . S
C1159 C1154 1.379 . S
C1159 N1157 1.356 . S
N1160 C1152 1.356 . S
N1160 H1166 0.984 . S
N1160 H1167 0.984 . S
N1161 C1154 1.356 . S
N1161 H1164 0.984 . S
N1161 H1165 0.985 . S
H1162 N1157 0.984 . S
H1163 N1157 0.985 . S
H1164 N1161 0.984 . S
H1165 N1161 0.985 . S
H1166 N1160 0.984 . S
H1167 N1160 0.984 . S
H1168 N1156 0.984 . S
H1169 N1156 0.985 . S
C1170 C1171 1.363 . S
C1170 C1176 1.379 1_565 S
C1170 N1178 1.356 . S
C1171 C1170 1.363 . S
C1171 C1177 1.363 . S
C1172 C1173 1.363 . S
C1172 C1177 1.379 . S
C1172 N1179 1.356 . S
C1173 C1172 1.363 . S
C1173 C1176 1.363 1_565 S
N1174 C1176 1.356 . S
N1174 H1186 0.984 . S
N1174 H1187 0.985 . S
N1175 C1177 1.356 . S
N1175 H1180 0.984 . S
N1175 H1181 0.985 . S
C1176 C1170 1.379 1_545 S
C1176 C1173 1.363 1_545 S
C1176 N1174 1.356 . S
C1177 C1171 1.363 . S
C1177 C1172 1.379 . S
C1177 N1175 1.356 . S
N1178 C1170 1.356 . S
N1178 H1184 0.984 1_565 S
N1178 H1185 0.984 . S
N1179 C1172 1.356 . S
N1179 H1182 0.984 . S
N1179 H1183 0.985 . S
H1180 N1175 0.984 . S
H1181 N1175 0.985 . S
H1182 N1179 0.984 . S
H1183 N1179 0.985 . S
H1184 N1178 0.984 1_545 S
H1185 N1178 0.984 . S
H1186 N1174 0.984 . S
H1187 N1174 0.985 . S
C1188 C1189 1.363 . S
C1188 C1194 1.379 . S
C1188 N1196 1.356 . S
C1189 C1188 1.363 . S
C1189 C1195 1.363 . S
C1190 C1191 1.363 . S
C1190 C1195 1.379 . S
C1190 N1197 1.356 . S
C1191 C1190 1.363 . S
C1191 C1194 1.363 . S
N1192 C1194 1.356 . S
N1192 H1204 0.984 . S
N1192 H1205 0.985 . S
N1193 C1195 1.356 . S
N1193 H1198 0.984 . S
N1193 H1199 0.985 1_455 S
C1194 C1188 1.379 . S
C1194 C1191 1.363 . S
C1194 N1192 1.356 . S
C1195 C1189 1.363 . S
C1195 C1190 1.379 . S
C1195 N1193 1.356 . S
N1196 C1188 1.356 . S
N1196 H1202 0.984 . S
N1196 H1203 0.984 . S
N1197 C1190 1.356 . S
N1197 H1200 0.984 . S
N1197 H1201 0.985 1_455 S
H1198 N1193 0.984 . S
H1199 N1193 0.985 1_655 S
H1200 N1197 0.984 . S
H1201 N1197 0.985 1_655 S
H1202 N1196 0.984 . S
H1203 N1196 0.984 . S
H1204 N1192 0.984 . S
H1205 N1192 0.985 . S
C1206 C1207 1.363 . S
C1206 C1212 1.379 . S
C1206 N1214 1.356 . S
C1207 C1206 1.363 . S
C1207 C1213 1.363 . S
C1208 C1209 1.363 . S
C1208 C1213 1.379 . S
C1208 N1215 1.356 . S
C1209 C1208 1.363 . S
C1209 C1212 1.363 . S
N1210 C1212 1.356 . S
N1210 H1222 0.984 . S
N1210 H1223 0.985 . S
N1211 C1213 1.356 . S
N1211 H1216 0.984 . S
N1211 H1217 0.985 . S
C1212 C1206 1.379 . S
C1212 C1209 1.363 . S
C1212 N1210 1.356 . S
C1213 C1207 1.363 . S
C1213 C1208 1.379 . S
C1213 N1211 1.356 . S
N1214 C1206 1.356 . S
N1214 H1220 0.984 . S
N1214 H1221 0.984 . S
N1215 C1208 1.356 . S
N1215 H1218 0.984 . S
N1215 H1219 0.985 . S
H1216 N1211 0.984 . S
H1217 N1211 0.985 . S
H1218 N1215 0.984 . S
H1219 N1215 0.985 . S
H1220 N1214 0.984 . S
H1221 N1214 0.984 . S
H1222 N1210 0.984 . S
H1223 N1210 0.985 . S
C1224 C1225 1.363 . S
C1224 C1230 1.379 . S
C1224 N1232 1.356 . S
C1225 C1224 1.363 . S
C1225 C1231 1.363 . S
C1226 C1227 1.363 . S
C1226 C1231 1.379 . S
C1226 N1233 1.356 . S
C1227 C1226 1.363 . S
C1227 C1230 1.363 . S
N1228 C1230 1.356 . S
N1228 H1240 0.984 . S
N1228 H1241 0.985 . S
N1229 C1231 1.356 . S
N1229 H1234 0.984 . S
N1229 H1235 0.985 . S
C1230 C1224 1.379 . S
C1230 C1227 1.363 . S
C1230 N1228 1.356 . S
C1231 C1225 1.363 . S
C1231 C1226 1.379 . S
C1231 N1229 1.356 . S
N1232 C1224 1.356 . S
N1232 H1238 0.984 . S
N1232 H1239 0.984 . S
N1233 C1226 1.356 . S
N1233 H1236 0.984 . S
N1233 H1237 0.985 . S
H1234 N1229 0.984 . S
H1235 N1229 0.985 . S
H1236 N1233 0.984 . S
H1237 N1233 0.985 . S
H1238 N1232 0.984 . S
H1239 N1232 0.984 . S
H1240 N1228 0.984 . S
H1241 N1228 0.985 . S
C1242 C1243 1.363 . S
C1242 C1248 1.379 . S
C1242 N1250 1.356 . S
C1243 C1242 1.363 . S
C1243 C1249 1.363 . S
C1244 C1245 1.363 . S
C1244 C1249 1.379 . S
C1244 N1251 1.356 . S
C1245 C1244 1.363 . S
C1245 C1248 1.363 . S
N1246 C1248 1.356 . S
N1246 H1258 0.984 . S
N1246 H1259 0.985 . S
N1247 C1249 1.356 . S
N1247 H1252 0.984 . S
N1247 H1253 0.985 . S
C1248 C1242 1.379 . S
C1248 C1245 1.363 . S
C1248 N1246 1.356 . S
C1249 C1243 1.363 . S
C1249 C1244 1.379 . S
C1249 N1247 1.356 . S
N1250 C1242 1.356 . S
N1250 H1256 0.984 . S
N1250 H1257 0.984 . S
N1251 C1244 1.356 . S
N1251 H1254 0.984 . S
N1251 H1255 0.985 . S
H1252 N1247 0.984 . S
H1253 N1247 0.985 . S
H1254 N1251 0.984 . S
H1255 N1251 0.985 . S
H1256 N1250 0.984 . S
H1257 N1250 0.984 . S
H1258 N1246 0.984 . S
H1259 N1246 0.985 . S
C1260 C1261 1.363 . S
C1260 C1266 1.379 . S
C1260 N1268 1.356 . S
C1261 C1260 1.363 . S
C1261 C1267 1.363 . S
C1262 C1263 1.363 1_565 S
C1262 C1267 1.379 1_565 S
C1262 N1269 1.356 . S
C1263 C1262 1.363 1_545 S
C1263 C1266 1.363 . S
N1264 C1266 1.356 . S
N1264 H1276 0.984 . S
N1264 H1277 0.985 . S
N1265 C1267 1.356 1_565 S
N1265 H1270 0.984 1_565 S
N1265 H1271 0.985 . S
C1266 C1260 1.379 . S
C1266 C1263 1.363 . S
C1266 N1264 1.356 . S
C1267 C1261 1.363 . S
C1267 C1262 1.379 1_545 S
C1267 N1265 1.356 1_545 S
N1268 C1260 1.356 . S
N1268 H1274 0.984 . S
N1268 H1275 0.984 . S
N1269 C1262 1.356 . S
N1269 H1272 0.984 . S
N1269 H1273 0.985 . S
H1270 N1265 0.984 1_545 S
H1271 N1265 0.985 . S
H1272 N1269 0.984 . S
H1273 N1269 0.985 . S
H1274 N1268 0.984 . S
H1275 N1268 0.984 . S
H1276 N1264 0.984 . S
H1277 N1264 0.985 . S
C1278 C1279 1.363 . S
C1278 C1284 1.379 . S
C1278 N1286 1.356 . S
C1279 C1278 1.363 . S
C1279 C1285 1.363 . S
C1280 C1281 1.363 . S
C1280 C1285 1.379 . S
C1280 N1287 1.356 . S
C1281 C1280 1.363 . S
C1281 C1284 1.363 . S
N1282 C1284 1.356 . S
N1282 H1294 0.984 . S
N1282 H1295 0.985 . S
N1283 C1285 1.356 . S
N1283 H1288 0.984 . S
N1283 H1289 0.985 . S
C1284 C1278 1.379 . S
C1284 C1281 1.363 . S
C1284 N1282 1.356 . S
C1285 C1279 1.363 . S
C1285 C1280 1.379 . S
C1285 N1283 1.356 . S
N1286 C1278 1.356 . S
N1286 H1292 0.984 . S
N1286 H1293 0.984 . S
N1287 C1280 1.356 . S
N1287 H1290 0.984 . S
N1287 H1291 0.985 . S
H1288 N1283 0.984 . S
H1289 N1283 0.985 . S
H1290 N1287 0.984 . S
H1291 N1287 0.985 . S
H1292 N1286 0.984 . S
H1293 N1286 0.984 . S
H1294 N1282 0.984 . S
H1295 N1282 0.985 . S
C1296 C1297 1.363 . S
C1296 C1302 1.379 . S
C1296 N1304 1.356 . S
C1297 C1296 1.363 . S
C1297 C1303 1.363 . S
C1298 C1299 1.363 . S
C1298 C1303 1.379 . S
C1298 N1305 1.356 . S
C1299 C1298 1.363 . S
C1299 C1302 1.363 . S
N1300 C1302 1.356 . S
N1300 H1312 0.984 . S
N1300 H1313 0.985 . S
N1301 C1303 1.356 . S
N1301 H1306 0.984 . S
N1301 H1307 0.985 . S
C1302 C1296 1.379 . S
C1302 C1299 1.363 . S
C1302 N1300 1.356 . S
C1303 C1297 1.363 . S
C1303 C1298 1.379 . S
C1303 N1301 1.356 . S
N1304 C1296 1.356 . S
N1304 H1310 0.984 . S
N1304 H1311 0.984 . S
N1305 C1298 1.356 . S
N1305 H1308 0.984 . S
N1305 H1309 0.985 . S
H1306 N1301 0.984 . S
H1307 N1301 0.985 . S
H1308 N1305 0.984 . S
H1309 N1305 0.985 . S
H1310 N1304 0.984 . S
H1311 N1304 0.984 . S
H1312 N1300 0.984 . S
H1313 N1300 0.985 . S
C1314 C1315 1.363 . S
C1314 C1320 1.379 . S
C1314 N1322 1.356 . S
C1315 C1314 1.363 . S
C1315 C1321 1.363 . S
C1316 C1317 1.363 . S
C1316 C1321 1.379 . S
C1316 N1323 1.356 . S
C1317 C1316 1.363 . S
C1317 C1320 1.363 . S
N1318 C1320 1.356 . S
N1318 H1330 0.984 . S
N1318 H1331 0.985 . S
N1319 C1321 1.356 . S
N1319 H1324 0.984 . S
N1319 H1325 0.985 . S
C1320 C1314 1.379 . S
C1320 C1317 1.363 . S
C1320 N1318 1.356 . S
C1321 C1315 1.363 . S
C1321 C1316 1.379 . S
C1321 N1319 1.356 . S
N1322 C1314 1.356 . S
N1322 H1328 0.984 . S
N1322 H1329 0.984 . S
N1323 C1316 1.356 . S
N1323 H1326 0.984 . S
N1323 H1327 0.985 . S
H1324 N1319 0.984 . S
H1325 N1319 0.985 . S
H1326 N1323 0.984 . S
H1327 N1323 0.985 . S
H1328 N1322 0.984 . S
H1329 N1322 0.984 . S
H1330 N1318 0.984 . S
H1331 N1318 0.985 . S
C1332 C1333 1.363 . S
C1332 C1338 1.379 . S
C1332 N1340 1.356 . S
C1333 C1332 1.363 . S
C1333 C1339 1.363 . S
C1334 C1335 1.363 . S
C1334 C1339 1.379 . S
C1334 N1341 1.356 . S
C1335 C1334 1.363 . S
C1335 C1338 1.363 . S
N1336 C1338 1.356 . S
N1336 H1348 0.984 . S
N1336 H1349 0.985 . S
N1337 C1339 1.356 . S
N1337 H1342 0.984 . S
N1337 H1343 0.985 . S
C1338 C1332 1.379 . S
C1338 C1335 1.363 . S
C1338 N1336 1.356 . S
C1339 C1333 1.363 . S
C1339 C1334 1.379 . S
C1339 N1337 1.356 . S
N1340 C1332 1.356 . S
N1340 H1346 0.984 . S
N1340 H1347 0.984 . S
N1341 C1334 1.356 . S
N1341 H1344 0.984 . S
N1341 H1345 0.985 . S
H1342 N1337 0.984 . S
H1343 N1337 0.985 . S
H1344 N1341 0.984 . S
H1345 N1341 0.985 . S
H1346 N1340 0.984 . S
H1347 N1340 0.984 . S
H1348 N1336 0.984 . S
H1349 N1336 0.985 . S
C1350 C1351 1.363 . S
C1350 C1356 1.379 . S
C1350 N1358 1.356 . S
C1351 C1350 1.363 . S
C1351 C1357 1.363 . S
C1352 C1353 1.363 . S
C1352 C1357 1.379 . S
C1352 N1359 1.356 . S
C1353 C1352 1.363 . S
C1353 C1356 1.363 . S
N1354 C1356 1.356 . S
N1354 H1366 0.984 . S
N1354 H1367 0.985 . S
N1355 C1357 1.356 . S
N1355 H1360 0.984 . S
N1355 H1361 0.985 . S
C1356 C1350 1.379 . S
C1356 C1353 1.363 . S
C1356 N1354 1.356 . S
C1357 C1351 1.363 . S
C1357 C1352 1.379 . S
C1357 N1355 1.356 . S
N1358 C1350 1.356 . S
N1358 H1364 0.984 . S
N1358 H1365 0.984 . S
N1359 C1352 1.356 . S
N1359 H1362 0.984 . S
N1359 H1363 0.985 . S
H1360 N1355 0.984 . S
H1361 N1355 0.985 . S
H1362 N1359 0.984 . S
H1363 N1359 0.985 . S
H1364 N1358 0.984 . S
H1365 N1358 0.984 . S
H1366 N1354 0.984 . S
H1367 N1354 0.985 . S
C1368 C1369 1.363 . S
C1368 C1374 1.379 . S
C1368 N1376 1.356 . S
C1369 C1368 1.363 . S
C1369 C1375 1.363 . S
C1370 C1371 1.363 . S
C1370 C1375 1.379 . S
C1370 N1377 1.356 . S
C1371 C1370 1.363 . S
C1371 C1374 1.363 . S
N1372 C1374 1.356 . S
N1372 H1384 0.984 . S
N1372 H1385 0.985 . S
N1373 C1375 1.356 . S
N1373 H1378 0.984 . S
N1373 H1379 0.985 . S
C1374 C1368 1.379 . S
C1374 C1371 1.363 . S
C1374 N1372 1.356 . S
C1375 C1369 1.363 . S
C1375 C1370 1.379 . S
C1375 N1373 1.356 . S
N1376 C1368 1.356 . S
N1376 H1382 0.984 . S
N1376 H1383 0.984 . S
N1377 C1370 1.356 . S
N1377 H1380 0.984 . S
N1377 H1381 0.985 . S
H1378 N1373 0.984 . S
H1379 N1373 0.985 . S
H1380 N1377 0.984 . S
H1381 N1377 0.985 . S
H1382 N1376 0.984 . S
H1383 N1376 0.984 . S
H1384 N1372 0.984 . S
H1385 N1372 0.985 . S
C1386 C1387 1.363 . S
C1386 C1392 1.379 . S
C1386 N1394 1.356 . S
C1387 C1386 1.363 . S
C1387 C1393 1.363 . S
C1388 C1389 1.363 . S
C1388 C1393 1.379 . S
C1388 N1395 1.356 . S
C1389 C1388 1.363 . S
C1389 C1392 1.363 . S
N1390 C1392 1.356 . S
N1390 H1402 0.984 . S
N1390 H1403 0.985 . S
N1391 C1393 1.356 . S
N1391 H1396 0.984 . S
N1391 H1397 0.985 . S
C1392 C1386 1.379 . S
C1392 C1389 1.363 . S
C1392 N1390 1.356 . S
C1393 C1387 1.363 . S
C1393 C1388 1.379 . S
C1393 N1391 1.356 . S
N1394 C1386 1.356 . S
N1394 H1400 0.984 . S
N1394 H1401 0.984 . S
N1395 C1388 1.356 . S
N1395 H1398 0.984 . S
N1395 H1399 0.985 . S
H1396 N1391 0.984 . S
H1397 N1391 0.985 . S
H1398 N1395 0.984 . S
H1399 N1395 0.985 . S
H1400 N1394 0.984 . S
H1401 N1394 0.984 . S
H1402 N1390 0.984 . S
H1403 N1390 0.985 . S
C1404 C1405 1.363 . S
C1404 C1410 1.379 . S
C1404 N1412 1.356 . S
C1405 C1404 1.363 . S
C1405 C1411 1.363 . S
C1406 C1407 1.363 . S
C1406 C1411 1.379 . S
C1406 N1413 1.356 . S
C1407 C1406 1.363 . S
C1407 C1410 1.363 . S
N1408 C1410 1.356 . S
N1408 H1420 0.984 . S
N1408 H1421 0.985 . S
N1409 C1411 1.356 . S
N1409 H1414 0.984 . S
N1409 H1415 0.985 . S
C1410 C1404 1.379 . S
C1410 C1407 1.363 . S
C1410 N1408 1.356 . S
C1411 C1405 1.363 . S
C1411 C1406 1.379 . S
C1411 N1409 1.356 . S
N1412 C1404 1.356 . S
N1412 H1418 0.984 . S
N1412 H1419 0.984 . S
N1413 C1406 1.356 . S
N1413 H1416 0.984 . S
N1413 H1417 0.985 . S
H1414 N1409 0.984 . S
H1415 N1409 0.985 . S
H1416 N1413 0.984 . S
H1417 N1413 0.985 . S
H1418 N1412 0.984 . S
H1419 N1412 0.984 . S
H1420 N1408 0.984 . S
H1421 N1408 0.985 . S
C1422 C1423 1.363 . S
C1422 C1428 1.379 . S
C1422 N1430 1.356 . S
C1423 C1422 1.363 . S
C1423 C1429 1.363 . S
C1424 C1425 1.363 . S
C1424 C1429 1.379 . S
C1424 N1431 1.356 . S
C1425 C1424 1.363 . S
C1425 C1428 1.363 . S
N1426 C1428 1.356 . S
N1426 H1438 0.984 . S
N1426 H1439 0.985 . S
N1427 C1429 1.356 . S
N1427 H1432 0.984 . S
N1427 H1433 0.985 . S
C1428 C1422 1.379 . S
C1428 C1425 1.363 . S
C1428 N1426 1.356 . S
C1429 C1423 1.363 . S
C1429 C1424 1.379 . S
C1429 N1427 1.356 . S
N1430 C1422 1.356 . S
N1430 H1436 0.984 . S
N1430 H1437 0.984 . S
N1431 C1424 1.356 . S
N1431 H1434 0.984 . S
N1431 H1435 0.985 . S
H1432 N1427 0.984 . S
H1433 N1427 0.985 . S
H1434 N1431 0.984 . S
H1435 N1431 0.985 . S
H1436 N1430 0.984 . S
H1437 N1430 0.984 . S
H1438 N1426 0.984 . S
H1439 N1426 0.985 . S
C1440 C1441 1.363 . S
C1440 C1446 1.379 . S
C1440 N1448 1.356 . S
C1441 C1440 1.363 . S
C1441 C1447 1.363 . S
C1442 C1443 1.363 . S
C1442 C1447 1.379 . S
C1442 N1449 1.356 . S
C1443 C1442 1.363 . S
C1443 C1446 1.363 . S
N1444 C1446 1.356 . S
N1444 H1456 0.984 . S
N1444 H1457 0.985 . S
N1445 C1447 1.356 . S
N1445 H1450 0.984 . S
N1445 H1451 0.985 . S
C1446 C1440 1.379 . S
C1446 C1443 1.363 . S
C1446 N1444 1.356 . S
C1447 C1441 1.363 . S
C1447 C1442 1.379 . S
C1447 N1445 1.356 . S
N1448 C1440 1.356 . S
N1448 H1454 0.984 . S
N1448 H1455 0.984 . S
N1449 C1442 1.356 . S
N1449 H1452 0.984 . S
N1449 H1453 0.985 . S
H1450 N1445 0.984 . S
H1451 N1445 0.985 . S
H1452 N1449 0.984 . S
H1453 N1449 0.985 . S
H1454 N1448 0.984 . S
H1455 N1448 0.984 . S
H1456 N1444 0.984 . S
H1457 N1444 0.985 . S
C1458 C1459 1.363 . S
C1458 C1464 1.379 . S
C1458 N1466 1.356 . S
C1459 C1458 1.363 . S
C1459 C1465 1.363 . S
C1460 C1461 1.363 . S
C1460 C1465 1.379 . S
C1460 N1467 1.356 . S
C1461 C1460 1.363 . S
C1461 C1464 1.363 . S
N1462 C1464 1.356 . S
N1462 H1474 0.984 . S
N1462 H1475 0.985 . S
N1463 C1465 1.356 . S
N1463 H1468 0.984 . S
N1463 H1469 0.985 . S
C1464 C1458 1.379 . S
C1464 C1461 1.363 . S
C1464 N1462 1.356 . S
C1465 C1459 1.363 . S
C1465 C1460 1.379 . S
C1465 N1463 1.356 . S
N1466 C1458 1.356 . S
N1466 H1472 0.984 . S
N1466 H1473 0.984 . S
N1467 C1460 1.356 . S
N1467 H1470 0.984 . S
N1467 H1471 0.985 . S
H1468 N1463 0.984 . S
H1469 N1463 0.985 . S
H1470 N1467 0.984 . S
H1471 N1467 0.985 . S
H1472 N1466 0.984 . S
H1473 N1466 0.984 . S
H1474 N1462 0.984 . S
H1475 N1462 0.985 . S
C1476 C1477 1.363 . S
C1476 C1482 1.379 . S
C1476 N1484 1.356 . S
C1477 C1476 1.363 . S
C1477 C1483 1.363 . S
C1478 C1479 1.363 . S
C1478 C1483 1.379 . S
C1478 N1485 1.356 . S
C1479 C1478 1.363 . S
C1479 C1482 1.363 . S
N1480 C1482 1.356 . S
N1480 H1492 0.984 . S
N1480 H1493 0.985 . S
N1481 C1483 1.356 . S
N1481 H1486 0.984 . S
N1481 H1487 0.985 . S
C1482 C1476 1.379 . S
C1482 C1479 1.363 . S
C1482 N1480 1.356 . S
C1483 C1477 1.363 . S
C1483 C1478 1.379 . S
C1483 N1481 1.356 . S
N1484 C1476 1.356 . S
N1484 H1490 0.984 . S
N1484 H1491 0.984 . S
N1485 C1478 1.356 . S
N1485 H1488 0.984 . S
N1485 H1489 0.985 . S
H1486 N1481 0.984 . S
H1487 N1481 0.985 . S
H1488 N1485 0.984 . S
H1489 N1485 0.985 . S
H1490 N1484 0.984 . S
H1491 N1484 0.984 . S
H1492 N1480 0.984 . S
H1493 N1480 0.985 . S
C523 C124 1.568 . S
C525 C174 1.586 . S
C541 C130 1.682 . S
C543 C214 1.690 . S
C559 C115 1.568 . S
C561 C244 1.581 . S
C577 C106 1.495 . S
C579 C204 1.496 . S
C597 C254 1.485 . S
C595 C85 1.470 . S
C613 C97 1.376 . S
C615 C164 1.400 . S
C633 C193 1.605 . S
C631 C103 1.584 . S
C651 C233 1.672 . S
C649 C88 1.661 . S
C667 C94 1.568 . S
C669 C259 1.578 . S
C685 C121 1.494 . S
C687 C219 1.493 . S
C703 C133 1.451 . S
C705 C273 1.464 . S
C723 C179 1.418 . S
C721 C112 1.393 . S
C741 C294 1.586 . S
C739 C16 1.568 . S
C757 C22 1.682 . S
C759 C334 1.690 . S
C775 C7 1.569 . S
C777 C364 1.581 . S
C793 C160 1.496 . S
C795 C324 1.496 . S
C811 C139 1.470 . S
C813 C374 1.485 . S
C829 C151 1.376 . S
C831 C284 1.400 . S
C847 C157 1.585 . S
C849 C313 1.606 . S
C865 C142 1.661 . S
C867 C353 1.672 . S
C885 C379 1.579 . S
C883 C148 1.568 . S
C901 C13 1.495 . S
C903 C339 1.494 . S
C921 C393 1.464 . S
C919 C25 1.450 . S
C937 C4 1.392 . S
C939 C299 1.417 . S
C957 C414 1.587 . S
C955 C70 1.569 . S
C973 C76 1.682 . S
C975 C454 1.690 . S
C993 C484 1.581 . S
C991 C61 1.569 . S
C1011 C444 1.496 . S
C1009 C52 1.495 . S
C1029 C494 1.485 . S
C1027 C31 1.470 . S
C1045 C43 1.375 . S
C1047 C404 1.399 . S
C1063 C49 1.584 . S
C1065 C433 1.605 . S
C1081 C34 1.661 . S
C1083 C473 1.671 . S
C1101 C499 1.578 . S
C1099 C40 1.568 . S
C1117 C67 1.495 . S
C1119 C459 1.494 . S
C1135 C79 1.450 . S
C1137 C513 1.464 . S
C1153 C58 1.393 . S
C1155 C419 1.418 . S
C1171 C140 1.499 . S
C1173 C191 1.471 1_565 S
C1191 C231 1.677 . S
C1189 C149 1.701 . S
C1207 C158 1.548 . S
C1209 C250 1.541 . S
C1225 C59 1.718 . S
C1227 C210 1.691 . S
C1243 C68 1.532 . S
C1245 C271 1.526 . S
C1263 C170 1.473 . S
C1261 C77 1.499 . S
C1279 C32 1.499 . S
C1281 C311 1.472 . S
C1297 C41 1.701 . S
C1299 C351 1.677 . S
C1315 C50 1.548 . S
C1317 C370 1.541 . S
C1333 C113 1.718 . S
C1335 C330 1.691 . S
C1353 C391 1.526 . S
C1351 C122 1.532 . S
C1369 C131 1.499 . S
C1371 C290 1.473 . S
C1387 C86 1.499 . S
C1389 C431 1.472 . S
C1405 C95 1.701 . S
C1407 C471 1.677 . S
C1425 C490 1.541 . S
C1423 C104 1.548 . S
C1441 C5 1.717 . S
C1443 C450 1.691 . S
C1459 C14 1.532 . S
C1461 C511 1.526 . S
C1477 C23 1.498 . S
C1479 C410 1.473 . S
