# Generated by pormake.
# Topology llk, (3,12)-cn, num edge types: 1
# Building blocks:
#     Node 0, Type 0, BuildingBlock: MIDCAF_clean_linker_0, # of connection points: 3
#     Node 1, Type 0, BuildingBlock: MIDCAF_clean_linker_0, # of connection points: 3
#     Node 2, Type 0, BuildingBlock: MIDCAF_clean_linker_0, # of connection points: 3
#     Node 3, Type 0, BuildingBlock: MIDCAF_clean_linker_0, # of connection points: 3
#     Node 4, Type 0, BuildingBlock: MIDCAF_clean_linker_0, # of connection points: 3
#     Node 5, Type 0, BuildingBlock: MIDCAF_clean_linker_0, # of connection points: 3
#     Node 6, Type 0, BuildingBlock: MIDCAF_clean_linker_0, # of connection points: 3
#     Node 7, Type 0, BuildingBlock: MIDCAF_clean_linker_0, # of connection points: 3
#     Node 8, Type 0, BuildingBlock: MIDCAF_clean_linker_0, # of connection points: 3
#     Node 9, Type 0, BuildingBlock: MIDCAF_clean_linker_0, # of connection points: 3
#     Node 10, Type 0, BuildingBlock: MIDCAF_clean_linker_0, # of connection points: 3
#     Node 11, Type 0, BuildingBlock: MIDCAF_clean_linker_0, # of connection points: 3
#     Node 12, Type 0, BuildingBlock: MIDCAF_clean_linker_0, # of connection points: 3
#     Node 13, Type 0, BuildingBlock: MIDCAF_clean_linker_0, # of connection points: 3
#     Node 14, Type 0, BuildingBlock: MIDCAF_clean_linker_0, # of connection points: 3
#     Node 15, Type 0, BuildingBlock: MIDCAF_clean_linker_0, # of connection points: 3
#     Node 16, Type 0, BuildingBlock: MIDCAF_clean_linker_0, # of connection points: 3
#     Node 17, Type 0, BuildingBlock: MIDCAF_clean_linker_0, # of connection points: 3
#     Node 18, Type 0, BuildingBlock: MIDCAF_clean_linker_0, # of connection points: 3
#     Node 19, Type 0, BuildingBlock: MIDCAF_clean_linker_0, # of connection points: 3
#     Node 20, Type 0, BuildingBlock: MIDCAF_clean_linker_0, # of connection points: 3
#     Node 21, Type 0, BuildingBlock: MIDCAF_clean_linker_0, # of connection points: 3
#     Node 22, Type 0, BuildingBlock: MIDCAF_clean_linker_0, # of connection points: 3
#     Node 23, Type 0, BuildingBlock: MIDCAF_clean_linker_0, # of connection points: 3
#     Node 24, Type 1, BuildingBlock: EZIPEK_clean_sbu_0, # of connection points: 12
#     Node 25, Type 1, BuildingBlock: EZIPEK_clean_sbu_0, # of connection points: 12
#     Node 26, Type 1, BuildingBlock: EZIPEK_clean_sbu_0, # of connection points: 12
#     Node 27, Type 1, BuildingBlock: EZIPEK_clean_sbu_0, # of connection points: 12
#     Node 28, Type 1, BuildingBlock: EZIPEK_clean_sbu_0, # of connection points: 12
#     Node 29, Type 1, BuildingBlock: EZIPEK_clean_sbu_0, # of connection points: 12
#     Edge 30, Type (0, 1), BuildingBlock: AJUNOK_clean_linker_0, # of connection points: 2
#     Edge 31, Type (0, 1), BuildingBlock: AJUNOK_clean_linker_0, # of connection points: 2
#     Edge 32, Type (0, 1), BuildingBlock: AJUNOK_clean_linker_0, # of connection points: 2
#     Edge 33, Type (0, 1), BuildingBlock: AJUNOK_clean_linker_0, # of connection points: 2
#     Edge 34, Type (0, 1), BuildingBlock: AJUNOK_clean_linker_0, # of connection points: 2
#     Edge 35, Type (0, 1), BuildingBlock: AJUNOK_clean_linker_0, # of connection points: 2
#     Edge 36, Type (0, 1), BuildingBlock: AJUNOK_clean_linker_0, # of connection points: 2
#     Edge 37, Type (0, 1), BuildingBlock: AJUNOK_clean_linker_0, # of connection points: 2
#     Edge 38, Type (0, 1), BuildingBlock: AJUNOK_clean_linker_0, # of connection points: 2
#     Edge 39, Type (0, 1), BuildingBlock: AJUNOK_clean_linker_0, # of connection points: 2
#     Edge 40, Type (0, 1), BuildingBlock: AJUNOK_clean_linker_0, # of connection points: 2
#     Edge 41, Type (0, 1), BuildingBlock: AJUNOK_clean_linker_0, # of connection points: 2
#     Edge 42, Type (0, 1), BuildingBlock: AJUNOK_clean_linker_0, # of connection points: 2
#     Edge 43, Type (0, 1), BuildingBlock: AJUNOK_clean_linker_0, # of connection points: 2
#     Edge 44, Type (0, 1), BuildingBlock: AJUNOK_clean_linker_0, # of connection points: 2
#     Edge 45, Type (0, 1), BuildingBlock: AJUNOK_clean_linker_0, # of connection points: 2
#     Edge 46, Type (0, 1), BuildingBlock: AJUNOK_clean_linker_0, # of connection points: 2
#     Edge 47, Type (0, 1), BuildingBlock: AJUNOK_clean_linker_0, # of connection points: 2
#     Edge 48, Type (0, 1), BuildingBlock: AJUNOK_clean_linker_0, # of connection points: 2
#     Edge 49, Type (0, 1), BuildingBlock: AJUNOK_clean_linker_0, # of connection points: 2
#     Edge 50, Type (0, 1), BuildingBlock: AJUNOK_clean_linker_0, # of connection points: 2
#     Edge 51, Type (0, 1), BuildingBlock: AJUNOK_clean_linker_0, # of connection points: 2
#     Edge 52, Type (0, 1), BuildingBlock: AJUNOK_clean_linker_0, # of connection points: 2
#     Edge 53, Type (0, 1), BuildingBlock: AJUNOK_clean_linker_0, # of connection points: 2
#     Edge 54, Type (0, 1), BuildingBlock: AJUNOK_clean_linker_0, # of connection points: 2
#     Edge 55, Type (0, 1), BuildingBlock: AJUNOK_clean_linker_0, # of connection points: 2
#     Edge 56, Type (0, 1), BuildingBlock: AJUNOK_clean_linker_0, # of connection points: 2
#     Edge 57, Type (0, 1), BuildingBlock: AJUNOK_clean_linker_0, # of connection points: 2
#     Edge 58, Type (0, 1), BuildingBlock: AJUNOK_clean_linker_0, # of connection points: 2
#     Edge 59, Type (0, 1), BuildingBlock: AJUNOK_clean_linker_0, # of connection points: 2
#     Edge 60, Type (0, 1), BuildingBlock: AJUNOK_clean_linker_0, # of connection points: 2
#     Edge 61, Type (0, 1), BuildingBlock: AJUNOK_clean_linker_0, # of connection points: 2
#     Edge 62, Type (0, 1), BuildingBlock: AJUNOK_clean_linker_0, # of connection points: 2
#     Edge 63, Type (0, 1), BuildingBlock: AJUNOK_clean_linker_0, # of connection points: 2
#     Edge 64, Type (0, 1), BuildingBlock: AJUNOK_clean_linker_0, # of connection points: 2
#     Edge 65, Type (0, 1), BuildingBlock: AJUNOK_clean_linker_0, # of connection points: 2
#     Edge 66, Type (0, 1), BuildingBlock: AJUNOK_clean_linker_0, # of connection points: 2
#     Edge 67, Type (0, 1), BuildingBlock: AJUNOK_clean_linker_0, # of connection points: 2
#     Edge 68, Type (0, 1), BuildingBlock: AJUNOK_clean_linker_0, # of connection points: 2
#     Edge 69, Type (0, 1), BuildingBlock: AJUNOK_clean_linker_0, # of connection points: 2
#     Edge 70, Type (0, 1), BuildingBlock: AJUNOK_clean_linker_0, # of connection points: 2
#     Edge 71, Type (0, 1), BuildingBlock: AJUNOK_clean_linker_0, # of connection points: 2
#     Edge 72, Type (0, 1), BuildingBlock: AJUNOK_clean_linker_0, # of connection points: 2
#     Edge 73, Type (0, 1), BuildingBlock: AJUNOK_clean_linker_0, # of connection points: 2
#     Edge 74, Type (0, 1), BuildingBlock: AJUNOK_clean_linker_0, # of connection points: 2
#     Edge 75, Type (0, 1), BuildingBlock: AJUNOK_clean_linker_0, # of connection points: 2
#     Edge 76, Type (0, 1), BuildingBlock: AJUNOK_clean_linker_0, # of connection points: 2
#     Edge 77, Type (0, 1), BuildingBlock: AJUNOK_clean_linker_0, # of connection points: 2
#     Edge 78, Type (0, 1), BuildingBlock: AJUNOK_clean_linker_0, # of connection points: 2
#     Edge 79, Type (0, 1), BuildingBlock: AJUNOK_clean_linker_0, # of connection points: 2
#     Edge 80, Type (0, 1), BuildingBlock: AJUNOK_clean_linker_0, # of connection points: 2
#     Edge 81, Type (0, 1), BuildingBlock: AJUNOK_clean_linker_0, # of connection points: 2
#     Edge 82, Type (0, 1), BuildingBlock: AJUNOK_clean_linker_0, # of connection points: 2
#     Edge 83, Type (0, 1), BuildingBlock: AJUNOK_clean_linker_0, # of connection points: 2
#     Edge 84, Type (0, 1), BuildingBlock: AJUNOK_clean_linker_0, # of connection points: 2
#     Edge 85, Type (0, 1), BuildingBlock: AJUNOK_clean_linker_0, # of connection points: 2
#     Edge 86, Type (0, 1), BuildingBlock: AJUNOK_clean_linker_0, # of connection points: 2
#     Edge 87, Type (0, 1), BuildingBlock: AJUNOK_clean_linker_0, # of connection points: 2
#     Edge 88, Type (0, 1), BuildingBlock: AJUNOK_clean_linker_0, # of connection points: 2
#     Edge 89, Type (0, 1), BuildingBlock: AJUNOK_clean_linker_0, # of connection points: 2
#     Edge 90, Type (0, 1), BuildingBlock: AJUNOK_clean_linker_0, # of connection points: 2
#     Edge 91, Type (0, 1), BuildingBlock: AJUNOK_clean_linker_0, # of connection points: 2
#     Edge 92, Type (0, 1), BuildingBlock: AJUNOK_clean_linker_0, # of connection points: 2
#     Edge 93, Type (0, 1), BuildingBlock: AJUNOK_clean_linker_0, # of connection points: 2
#     Edge 94, Type (0, 1), BuildingBlock: AJUNOK_clean_linker_0, # of connection points: 2
#     Edge 95, Type (0, 1), BuildingBlock: AJUNOK_clean_linker_0, # of connection points: 2
#     Edge 96, Type (0, 1), BuildingBlock: AJUNOK_clean_linker_0, # of connection points: 2
#     Edge 97, Type (0, 1), BuildingBlock: AJUNOK_clean_linker_0, # of connection points: 2
#     Edge 98, Type (0, 1), BuildingBlock: AJUNOK_clean_linker_0, # of connection points: 2
#     Edge 99, Type (0, 1), BuildingBlock: AJUNOK_clean_linker_0, # of connection points: 2
#     Edge 100, Type (0, 1), BuildingBlock: AJUNOK_clean_linker_0, # of connection points: 2
#     Edge 101, Type (0, 1), BuildingBlock: AJUNOK_clean_linker_0, # of connection points: 2
# Relax obj value: 0.107
# Max RMSD: 0.161
# Mean RMSD: 0.135
data_MOF--net-llk--node1-EZIPEK_clean_sbu_0--node2-MIDCAF_clean_linker_0--edge1-AJUNOK_clean_linker_0
_symmetry_space_group_name_H-M    P1
_symmetry_Int_Tables_number       1
_symmetry_cell_setting            triclinic
loop_
_symmetry_equiv_pos_as_xyz
'x, y, z'
_cell_length_a     44.569729
_cell_length_b     44.557359
_cell_length_c     44.568645
_cell_angle_alpha  89.90015
_cell_angle_beta   90.066861
_cell_angle_gamma 90.009057
loop_
_atom_site_label
_atom_site_type_symbol
_atom_site_fract_x
_atom_site_fract_y
_atom_site_fract_z
_atom_type_partial_charge
C0 C 0.02845 0.32429 0.1871 0.0
C1 C 1.00555 0.32742 0.16558 0.0
C2 C 0.98165 0.30672 0.16598 0.0
C3 C 0.9798 0.28468 0.18839 0.0
H4 H 0.04766 0.21857 0.30279 0.0
H5 H 0.05636 0.17917 0.3404 0.0
H6 H 0.96696 0.14525 0.32511 0.0
H7 H 0.95851 0.1845 0.28759 0.0
H8 H 0.96021 0.27285 0.34708 0.0
H9 H 0.95915 0.31315 0.38391 0.0
H10 H 0.95816 0.37863 0.31234 0.0
H11 H 0.958 0.33876 0.27562 0.0
H12 H 0.04326 0.3019 0.22719 0.0
H13 H 0.04718 0.33978 0.18739 0.0
H14 H 0.96331 0.3088 0.15016 0.0
H15 H 0.95981 0.27088 0.18967 0.0
N16 N 1.00177 0.24198 0.25 0.0
N17 N 0.97859 0.25214 0.29643 0.0
N18 N 0.97822 0.28841 0.25876 0.0
C19 C 0.9937 0.233 0.27831 0.0
C20 C 0.9708 0.27988 0.28687 0.0
C21 C 0.99334 0.26988 0.24017 0.0
C22 C 1.00273 0.20401 0.29165 0.0
C23 C 0.03045 0.2018 0.30652 0.0
C24 C 0.03516 0.17966 0.32852 0.0
C25 C 0.01214 0.1594 0.33616 0.0
C26 C 0.98517 0.16043 0.31975 0.0
C27 C 0.98043 0.18266 0.29797 0.0
C28 C 0.96023 0.30263 0.30841 0.0
C29 C 0.95861 0.29579 0.33917 0.0
C30 C 0.95813 0.31883 0.36028 0.0
C31 C 0.95922 0.34891 0.35091 0.0
C32 C 0.95716 0.35565 0.32024 0.0
C33 C 0.95735 0.33268 0.29915 0.0
C34 C 1.00184 0.28263 0.21082 0.0
C35 C 0.02659 0.30215 0.20947 0.0
C36 C 0.67292 0.02148 0.20319 0.0
C37 C 0.68126 0.01646 0.17323 0.0
C38 C 0.71171 0.00971 0.16726 0.0
C39 C 0.73232 1.00507 0.19086 0.0
H40 H 0.79708 0.04165 0.30242 0.0
H41 H 0.83678 0.04947 0.33995 0.0
H42 H 0.86627 0.95809 0.32752 0.0
H43 H 0.82693 0.95056 0.29016 0.0
H44 H 0.74595 0.94427 0.34624 0.0
H45 H 0.7082 0.94454 0.38572 0.0
H46 H 0.63832 0.94999 0.3187 0.0
H47 H 0.67552 0.94773 0.27944 0.0
H48 H 0.68549 0.01942 0.24938 0.0
H49 H 0.64991 0.02664 0.20898 0.0
H50 H 0.71938 1.00679 0.14442 0.0
H51 H 0.75478 0.99737 0.18575 0.0
N52 N 0.76805 1.00062 0.25456 0.0
N53 N 0.76306 0.96808 0.29616 0.0
N54 N 0.72337 0.97378 0.26279 0.0
C55 C 0.78002 0.98731 0.27971 0.0
C56 C 0.7347 0.96121 0.28791 0.0
C57 C 0.73947 0.99317 0.24587 0.0
C58 C 0.80937 0.99571 0.29282 0.0
C59 C 0.81298 0.02376 0.30675 0.0
C60 C 0.83526 0.02797 0.32876 0.0
C61 C 0.85433 1.00418 0.33726 0.0
C62 C 0.85204 0.9769 0.3216 0.0
C63 C 0.82971 0.97266 0.29989 0.0
C64 C 0.71376 0.94773 0.30976 0.0
C65 C 0.72249 0.94415 0.33988 0.0
C66 C 0.7009 0.94472 0.36253 0.0
C67 C 0.67056 0.94925 0.35522 0.0
C68 C 0.66162 0.94729 0.32509 0.0
C69 C 0.68309 0.94612 0.30249 0.0
C70 C 0.72297 1.00771 0.2208 0.0
C71 C 0.69346 0.01736 0.2265 0.0
C72 C 1.00404 0.66454 0.20758 0.0
C73 C 1.00541 0.67312 0.17725 0.0
C74 C 1.00848 0.70408 0.17069 0.0
C75 C 0.01273 0.7253 0.19381 0.0
H76 H 0.05134 0.83113 0.28366 0.0
H77 H 0.04221 0.86892 0.32242 0.0
H78 H 0.97114 0.81422 0.35884 0.0
H79 H 0.9803 0.77651 0.31978 0.0
H80 H 0.0828 0.74779 0.3444 0.0
H81 H 0.08418 0.71027 0.38415 0.0
H82 H 0.08168 0.63989 0.31773 0.0
H83 H 0.08233 0.67696 0.27817 0.0
H84 H 1.00872 0.67768 0.25344 0.0
H85 H 1.00179 0.64115 0.21379 0.0
H86 H 1.00864 0.71183 0.14767 0.0
H87 H 0.01736 0.74846 0.18801 0.0
N88 N 0.01575 0.76117 0.25823 0.0
N89 N 0.05171 0.76096 0.29717 0.0
N90 N 0.05058 0.72177 0.26281 0.0
C91 C 0.02866 0.77469 0.28277 0.0
C92 C 0.06281 0.73446 0.28745 0.0
C93 C 0.02745 0.73463 0.24788 0.0
C94 C 0.01586 0.80132 0.29799 0.0
C95 C 0.03281 0.82789 0.29905 0.0
C96 C 0.02785 0.84932 0.32157 0.0
C97 C 1.00628 0.8444 0.34411 0.0
C98 C 0.98823 0.81853 0.34213 0.0
C99 C 0.99298 0.79725 0.31933 0.0
C100 C 0.08018 0.71525 0.30824 0.0
C101 C 0.08413 0.72433 0.33819 0.0
C102 C 0.08455 0.70285 0.36101 0.0
C103 C 0.08069 0.67239 0.35391 0.0
C104 C 0.08358 0.66331 0.32392 0.0
C105 C 0.08385 0.68472 0.30114 0.0
C106 C 0.01349 0.71604 0.22393 0.0
C107 C 1.00794 0.68562 0.23045 0.0
C108 C 0.33153 0.98543 0.19616 0.0
C109 C 0.33464 1.00568 0.17204 0.0
C110 C 0.31386 0.02943 0.16978 0.0
C111 C 0.29152 0.03352 0.19148 0.0
H112 H 0.19972 0.07115 0.30476 0.0
H113 H 0.1623 0.06163 0.34344 0.0
H114 H 0.17682 0.96642 0.33457 0.0
H115 H 0.21504 0.97604 0.29564 0.0
H116 H 0.27616 0.08036 0.34218 0.0
H117 H 0.31575 0.08404 0.37963 0.0
H118 H 0.38237 0.07325 0.31017 0.0
H119 H 0.34326 0.07077 0.27273 0.0
H120 H 0.30902 0.9753 0.23766 0.0
H121 H 0.34706 0.96692 0.19869 0.0
H122 H 0.31596 0.04611 0.15221 0.0
H123 H 0.2776 0.05343 0.19025 0.0
N124 N 0.24874 0.01848 0.25561 0.0
N125 N 0.25719 0.05136 0.29614 0.0
N126 N 0.29364 0.0462 0.25925 0.0
C127 C 0.23903 0.03168 0.28171 0.0
C128 C 0.2845 0.05865 0.28525 0.0
C129 C 0.27622 0.02648 0.24417 0.0
C130 C 0.21027 0.02435 0.29695 0.0
C131 C 0.19434 0.04808 0.31033 0.0
C132 C 0.17316 0.04269 0.3328 0.0
C133 C 0.16718 0.01336 0.34258 0.0
C134 C 0.18119 0.9893 0.3276 0.0
C135 C 0.20274 0.99475 0.30504 0.0
C136 C 0.3066 0.07374 0.30471 0.0
C137 C 0.29927 0.08018 0.33469 0.0
C138 C 0.32191 0.08221 0.35619 0.0
C139 C 0.35196 0.07794 0.34786 0.0
C140 C 0.35939 0.07655 0.31731 0.0
C141 C 0.33682 0.07484 0.2958 0.0
C142 C 0.28932 0.01421 0.21629 0.0
C143 C 0.30921 0.98974 0.21808 0.0
C144 C 0.99433 0.70172 0.85278 0.0
C145 C 0.02019 0.68675 0.8632 0.0
C146 C 0.04837 0.69732 0.85376 0.0
C147 C 0.05055 0.7203 0.83236 0.0
H148 H 0.06455 0.82806 0.74047 0.0
H149 H 0.05819 0.86646 0.70172 0.0
H150 H 0.96295 0.84938 0.70055 0.0
H151 H 0.96949 0.81097 0.73942 0.0
H152 H 0.03138 0.74792 0.67852 0.0
H153 H 0.02842 0.71067 0.63897 0.0
H154 H 0.04774 0.64054 0.70313 0.0
H155 H 0.04992 0.67765 0.74321 0.0
H156 H 0.9762 0.73388 0.82155 0.0
H157 H 0.97228 0.69423 0.8597 0.0
H158 H 0.06877 0.6869 0.86191 0.0
H159 H 0.07249 0.72607 0.82363 0.0
N160 N 0.02078 0.77648 0.78322 0.0
N161 N 0.03064 0.76639 0.7323 0.0
N162 N 0.03437 0.72785 0.76738 0.0
C163 C 0.0232 0.78612 0.75404 0.0
C164 C 0.03614 0.73732 0.73866 0.0
C165 C 0.0269 0.74696 0.78977 0.0
C166 C 0.0174 0.81713 0.74375 0.0
C167 C 0.04204 0.83379 0.73324 0.0
C168 C 0.03847 0.8553 0.71051 0.0
C169 C 0.01012 0.86077 0.69775 0.0
C170 C 0.98506 0.84597 0.71006 0.0
C171 C 0.9887 0.82428 0.73273 0.0
C172 C 0.04023 0.71565 0.71415 0.0
C173 C 0.03546 0.72464 0.68426 0.0
C174 C 0.03381 0.70337 0.66154 0.0
C175 C 0.03711 0.67283 0.66829 0.0
C176 C 0.04427 0.66399 0.69766 0.0
C177 C 0.04571 0.68524 0.72049 0.0
C178 C 0.02468 0.73361 0.82011 0.0
C179 C 0.99655 0.72481 0.8313 0.0
C180 C 0.18463 0.97704 0.69689 0.0
C181 C 0.16254 0.99925 0.69279 0.0
C182 C 0.16188 0.02353 0.71295 0.0
C183 C 0.18452 0.02711 0.73458 0.0
H184 H 0.30803 0.06604 0.81246 0.0
H185 H 0.34473 0.05796 0.85217 0.0
H186 H 0.31941 0.9646 0.8568 0.0
H187 H 0.28218 0.97286 0.81673 0.0
H188 H 0.33897 0.06474 0.73684 0.0
H189 H 0.37573 0.0683 0.69654 0.0
H190 H 0.30782 0.04265 0.63231 0.0
H191 H 0.27092 0.04004 0.67204 0.0
H192 H 0.2256 0.96471 0.71907 0.0
H193 H 0.18541 0.95769 0.68224 0.0
H194 H 0.14518 0.04103 0.7105 0.0
H195 H 0.18519 0.04766 0.74752 0.0
N196 N 0.24899 0.01309 0.77535 0.0
N197 N 0.29323 0.03793 0.76033 0.0
N198 N 0.25462 0.03096 0.72587 0.0
C199 C 0.27699 0.02409 0.78206 0.0
C200 C 0.28234 0.04133 0.73223 0.0
C201 C 0.23771 0.01721 0.74697 0.0
C202 C 0.29199 0.02014 0.81159 0.0
C203 C 0.30959 0.04394 0.82256 0.0
C204 C 0.33092 0.03926 0.84508 0.0
C205 C 0.33536 0.01058 0.85739 0.0
C206 C 0.31643 0.98703 0.84789 0.0
C207 C 0.2949 0.99177 0.82516 0.0
C208 C 0.30221 0.05135 0.70775 0.0
C209 C 0.33164 0.06079 0.714 0.0
C210 C 0.35271 0.06279 0.69099 0.0
C211 C 0.34465 0.05537 0.66147 0.0
C212 C 0.31459 0.04882 0.65482 0.0
C213 C 0.29347 0.04708 0.67773 0.0
C214 C 0.20812 1.00632 0.7368 0.0
C215 C 0.20722 0.98063 0.71855 0.0
C216 C 1.00069 0.31788 0.84278 0.0
C217 C 0.02542 0.33362 0.85463 0.0
C218 C 0.05441 0.32479 0.84609 0.0
C219 C 0.05854 0.30268 0.82426 0.0
H220 H 0.07778 0.19822 0.72491 0.0
H221 H 0.06965 0.15962 0.68687 0.0
H222 H 0.97412 0.17369 0.6929 0.0
H223 H 0.98241 0.21257 0.73112 0.0
H224 H 0.05301 0.2788 0.66982 0.0
H225 H 0.05067 0.31757 0.63179 0.0
H226 H 0.06487 0.38543 0.69943 0.0
H227 H 0.06628 0.34662 0.73803 0.0
H228 H 0.98539 0.28603 0.80982 0.0
H229 H 0.97807 0.32412 0.8491 0.0
H230 H 0.07391 0.33601 0.8553 0.0
H231 H 0.08109 0.2982 0.81637 0.0
N232 N 0.03164 0.24731 0.77207 0.0
N233 N 0.047 0.25847 0.72271 0.0
N234 N 0.04859 0.29577 0.75912 0.0
C235 C 0.0367 0.2384 0.74305 0.0
C236 C 0.05283 0.28715 0.73043 0.0
C237 C 0.03826 0.2763 0.78007 0.0
C238 C 0.0307 0.20792 0.73153 0.0
C239 C 0.05497 0.19204 0.71918 0.0
C240 C 0.05035 0.17043 0.69689 0.0
C241 C 0.02132 0.16424 0.68628 0.0
C242 C 0.99678 0.17815 0.70049 0.0
C243 C 1.00145 0.2 0.72277 0.0
C244 C 0.05916 0.30966 0.70706 0.0
C245 C 0.05642 0.30187 0.67664 0.0
C246 C 0.05529 0.32409 0.65474 0.0
C247 C 0.05743 0.35443 0.66279 0.0
C248 C 0.06283 0.36213 0.69282 0.0
C249 C 0.06372 0.33989 0.71483 0.0
C250 C 0.03384 0.2887 0.81048 0.0
C251 C 1.00486 0.29572 0.82069 0.0
C252 C 0.84056 0.02363 0.70341 0.0
C253 C 0.85247 0.99908 0.68748 0.0
C254 C 0.84414 0.96997 0.69624 0.0
C255 C 0.82229 0.96556 0.7183 0.0
H256 H 0.7092 0.04193 0.79283 0.0
H257 H 0.67163 0.04802 0.83239 0.0
H258 H 0.70315 0.9667 0.87462 0.0
H259 H 0.74091 0.96095 0.83512 0.0
H260 H 0.66796 0.96885 0.7434 0.0
H261 H 0.63061 0.96972 0.70392 0.0
H262 H 0.69922 0.95164 0.63805 0.0
H263 H 0.73711 0.95154 0.6775 0.0
H264 H 0.80771 0.03852 0.73553 0.0
H265 H 0.84674 0.04634 0.69729 0.0
H266 H 0.85349 0.95058 0.68499 0.0
H267 H 0.81458 0.94291 0.72274 0.0
N268 N 0.76971 0.99535 0.77323 0.0
N269 N 0.72052 0.97865 0.76327 0.0
N270 N 0.75758 0.97265 0.72706 0.0
C271 C 0.74058 0.99127 0.78225 0.0
C272 C 0.72874 0.96931 0.73569 0.0
C273 C 0.77821 0.98539 0.7454 0.0
C274 C 0.72856 1.00143 0.81136 0.0
C275 C 0.70908 0.02625 0.81144 0.0
C276 C 0.68707 0.02929 0.83367 0.0
C277 C 0.68383 1.00739 0.8562 0.0
C278 C 0.70497 0.98392 0.85753 0.0
C279 C 0.72696 0.98087 0.83521 0.0
C280 C 0.70565 0.96096 0.71351 0.0
C281 C 0.67512 0.96418 0.72067 0.0
C282 C 0.65359 0.96447 0.69804 0.0
C283 C 0.66217 0.96107 0.66797 0.0
C284 C 0.69221 0.95471 0.66111 0.0
C285 C 0.71382 0.95459 0.68373 0.0
C286 C 0.80839 0.99009 0.73241 0.0
C287 C 0.81857 0.01917 0.72563 0.0
C288 C 0.18417 0.3232 0.98847 0.0
C289 C 0.16482 0.33003 0.01244 0.0
C290 C 0.16664 0.31251 0.03868 0.0
C291 C 0.18899 0.29056 0.04187 0.0
H292 H 0.27091 0.18084 0.04589 0.0
H293 H 0.30673 0.13924 0.04071 0.0
H294 H 0.35673 0.19077 0.9757 0.0
H295 H 0.32115 0.23211 0.98112 0.0
H296 H 0.34664 0.27794 0.06026 0.0
H297 H 0.3845 0.31743 0.06039 0.0
H298 H 0.31491 0.3841 0.04983 0.0
H299 H 0.27714 0.34516 0.05087 0.0
H300 H 0.22256 0.29807 0.97375 0.0
H301 H 0.18303 0.33593 0.96778 0.0
H302 H 0.15209 0.31718 0.05755 0.0
H303 H 0.19166 0.27951 0.06339 0.0
N304 N 0.24969 0.24546 0.01767 0.0
N305 N 0.2973 0.25764 0.03725 0.0
N306 N 0.25844 0.29243 0.04024 0.0
C307 C 0.27886 0.23765 0.02368 0.0
C308 C 0.28732 0.28499 0.04569 0.0
C309 C 0.23947 0.27307 0.02657 0.0
C310 C 0.29283 0.20939 0.01335 0.0
C311 C 0.28872 0.18259 0.02946 0.0
C312 C 0.30945 0.15893 0.02669 0.0
C313 C 0.33475 0.16177 1.00791 0.0
C314 C 0.33768 0.18793 0.99051 0.0
C315 C 0.31703 0.21141 0.99324 0.0
C316 C 0.30894 0.30835 0.05473 0.0
C317 C 0.33934 0.30109 0.05901 0.0
C318 C 0.36104 0.32364 0.05899 0.0
C319 C 0.35263 0.35369 0.05464 0.0
C320 C 0.32207 0.36116 0.05353 0.0
C321 C 0.30038 0.3387 0.0539 0.0
C322 C 0.20961 0.28515 0.0187 0.0
C323 C 0.20633 0.301 0.99159 0.0
C324 C 0.20394 0.6618 0.02 0.0
C325 C 0.17417 0.67203 0.02087 0.0
C326 C 0.16894 0.70324 0.01865 0.0
C327 C 0.19278 0.72335 0.01335 0.0
H328 H 0.32124 0.77082 0.04103 0.0
H329 H 0.35931 0.80952 0.05051 0.0
H330 H 0.31647 0.86714 0.98543 0.0
H331 H 0.27872 0.82835 0.97594 0.0
H332 H 0.34041 0.74667 0.93692 0.0
H333 H 0.38161 0.71133 0.93066 0.0
H334 H 0.3195 0.63747 0.93928 0.0
H335 H 0.2783 0.67235 0.94379 0.0
H336 H 0.24999 0.67269 0.01248 0.0
H337 H 0.20895 0.63806 0.02152 0.0
H338 H 0.14633 0.71201 0.01997 0.0
H339 H 0.18798 0.74691 0.00972 0.0
N340 N 0.25665 0.75723 1.00811 0.0
N341 N 0.29561 0.75721 0.97235 0.0
N342 N 0.26138 0.71782 0.97339 0.0
C343 C 0.2812 0.77076 0.9954 0.0
C344 C 0.2859 0.73076 0.96112 0.0
C345 C 0.24643 0.73067 0.99648 0.0
C346 C 0.29634 0.79708 1.00861 0.0
C347 C 0.3192 0.79235 0.02987 0.0
C348 C 0.34133 0.81423 0.03483 0.0
C349 C 0.34093 0.84139 0.01874 0.0
C350 C 0.31717 0.84665 0.99854 0.0
C351 C 0.29529 0.82464 0.99336 0.0
C352 C 0.30641 0.71223 0.94285 0.0
C353 C 0.33531 0.72291 0.93604 0.0
C354 C 0.35898 0.7027 0.9327 0.0
C355 C 0.35388 0.67183 0.93655 0.0
C356 C 0.32423 0.66122 0.93711 0.0
C357 C 0.30053 0.68136 0.93987 0.0
C358 C 0.2222 0.71253 0.01034 0.0
C359 C 0.22753 0.68173 0.01479 0.0
C360 C 0.83078 0.32541 0.98842 0.0
C361 C 0.85219 0.33074 0.01103 0.0
C362 C 0.85252 0.31155 0.03618 0.0
C363 C 0.83035 0.28948 0.0399 0.0
H364 H 0.71836 0.20046 0.07622 0.0
H365 H 0.67986 0.16215 0.06916 0.0
H366 H 0.69182 0.16776 0.97333 0.0
H367 H 0.73058 0.20654 0.9805 0.0
H368 H 0.67067 0.27988 0.05111 0.0
H369 H 0.6346 0.32035 0.04802 0.0
H370 H 0.70527 0.38502 0.06297 0.0
H371 H 0.74197 0.34442 0.06468 0.0
H372 H 0.79087 0.30159 0.97565 0.0
H373 H 0.83028 0.33925 0.96843 0.0
H374 H 0.86868 0.31498 0.05402 0.0
H375 H 0.82946 0.27713 0.06085 0.0
N376 N 0.76907 0.24475 0.02383 0.0
N377 N 0.72267 0.2571 0.04586 0.0
N378 N 0.75931 0.29394 0.04067 0.0
C379 C 0.74101 0.23639 0.03338 0.0
C380 C 0.7315 0.28584 0.04947 0.0
C381 C 0.7783 0.27382 0.0282 0.0
C382 C 0.72786 0.20618 0.02895 0.0
C383 C 0.71369 0.19263 0.05368 0.0
C384 C 0.69121 0.17112 0.04963 0.0
C385 C 0.68221 0.16259 0.02068 0.0
C386 C 0.69815 0.17411 0.99591 0.0
C387 C 0.7207 0.19591 1.0 0.0
C388 C 0.70932 0.30905 0.05713 0.0
C389 C 0.67857 0.30262 0.05449 0.0
C390 C 0.6578 0.32584 0.05278 0.0
C391 C 0.66739 0.3558 0.05415 0.0
C392 C 0.69757 0.36208 0.06066 0.0
C393 C 0.71847 0.33885 0.06191 0.0
C394 C 0.80762 0.28575 0.01839 0.0
C395 C 0.80867 0.30328 0.99215 0.0
C396 C 0.7087 0.85425 0.03518 0.0
C397 C 0.68987 0.85405 0.00983 0.0
C398 C 0.69574 0.83304 0.987 0.0
C399 C 0.7181 0.81109 0.99072 0.0
H400 H 0.83842 0.75086 0.0188 0.0
H401 H 0.87883 0.71437 1.00911 0.0
H402 H 0.81231 0.64546 0.99413 0.0
H403 H 0.77286 0.68173 1.00192 0.0
H404 H 0.73892 0.67978 0.07792 0.0
H405 H 0.69943 0.64194 0.07637 0.0
H406 H 0.63494 0.71032 0.05267 0.0
H407 H 0.67381 0.74822 0.05539 0.0
H408 H 0.74276 0.83107 0.06014 0.0
H409 H 0.70484 0.87009 0.05317 0.0
H410 H 0.68203 0.83263 0.96693 0.0
H411 H 0.72012 0.79351 0.97408 0.0
N412 N 0.77139 0.76645 0.01575 0.0
N413 N 0.75872 0.72269 0.04257 0.0
N414 N 0.72787 0.7646 0.04579 0.0
C415 C 0.77778 0.73745 0.02404 0.0
C416 C 0.73378 0.73589 0.05348 0.0
C417 C 0.74641 0.78019 0.02742 0.0
C418 C 0.80246 0.71927 0.01091 0.0
C419 C 0.83265 0.72824 0.01209 0.0
C420 C 0.85572 0.70716 1.00699 0.0
C421 C 0.849 0.67679 1.00061 0.0
C422 C 0.81869 0.66857 0.99801 0.0
C423 C 0.79591 0.68947 1.00278 0.0
C424 C 0.70968 0.71673 0.06553 0.0
C425 C 0.71606 0.68692 0.07366 0.0
C426 C 0.69357 0.66522 0.07247 0.0
C427 C 0.66463 0.67312 0.06284 0.0
C428 C 0.65726 0.70357 0.05958 0.0
C429 C 0.67963 0.72533 0.0612 0.0
C430 C 0.73502 0.80968 0.01733 0.0
C431 C 0.7308 0.83217 0.03898 0.0
C432 C 0.47066 0.82428 0.66281 0.0
C433 C 0.49936 0.83518 0.65563 0.0
C434 C 0.52446 0.82144 0.66918 0.0
C435 C 0.52072 0.79882 0.69096 0.0
H436 H 0.44576 0.69636 0.7819 0.0
H437 H 0.45294 0.65836 0.82086 0.0
H438 H 0.54849 0.67305 0.81763 0.0
H439 H 0.54116 0.71141 0.77859 0.0
H440 H 0.45405 0.7738 0.83673 0.0
H441 H 0.45585 0.80862 0.87886 0.0
H442 H 0.47791 0.88093 0.81807 0.0
H443 H 0.47525 0.84666 0.77595 0.0
H444 H 0.44443 0.79558 0.69113 0.0
H445 H 0.4509 0.83415 0.65264 0.0
H446 H 0.54688 0.82953 0.66445 0.0
H447 H 0.54021 0.7906 0.70296 0.0
N448 N 0.49289 0.74682 0.73684 0.0
N449 N 0.47663 0.7567 0.78614 0.0
N450 N 0.47649 0.79516 0.75077 0.0
C451 C 0.48711 0.73712 0.76551 0.0
C452 C 0.47143 0.78567 0.7791 0.0
C453 C 0.48687 0.77617 0.72949 0.0
C454 C 0.49294 0.70639 0.77663 0.0
C455 C 0.46843 0.69035 0.78836 0.0
C456 C 0.47248 0.66908 0.81117 0.0
C457 C 0.50119 0.66332 0.82287 0.0
C458 C 0.52607 0.67717 0.80917 0.0
C459 C 0.52196 0.69871 0.7864 0.0
C460 C 0.46521 0.80738 0.80312 0.0
C461 C 0.45861 0.79727 0.83228 0.0
C462 C 0.45986 0.81707 0.85641 0.0
C463 C 0.46795 0.84711 0.85169 0.0
C464 C 0.4718 0.85776 0.82229 0.0
C465 C 0.47028 0.83809 0.79816 0.0
C466 C 0.49185 0.78936 0.69941 0.0
C467 C 0.46698 0.80173 0.68442 0.0
C468 C 0.20264 0.53911 0.66223 0.0
C469 C 0.18506 0.51291 0.6604 0.0
C470 C 0.19146 0.48914 0.68025 0.0
C471 C 0.21315 0.49246 0.70287 0.0
H472 H 0.3193 0.5722 0.79204 0.0
H473 H 0.35916 0.56369 0.82865 0.0
H474 H 0.35196 0.46824 0.8146 0.0
H475 H 0.31147 0.47685 0.77791 0.0
H476 H 0.24442 0.55306 0.84346 0.0
H477 H 0.20766 0.5522 0.88342 0.0
H478 H 0.13617 0.55809 0.81819 0.0
H479 H 0.17295 0.55784 0.77776 0.0
H480 H 0.23562 0.56377 0.68726 0.0
H481 H 0.19832 0.55789 0.64737 0.0
H482 H 0.17887 0.46838 0.67907 0.0
H483 H 0.21585 0.47474 0.71935 0.0
N484 N 0.27177 0.52219 0.7427 0.0
N485 N 0.26225 0.54222 0.79059 0.0
N486 N 0.22333 0.53899 0.75587 0.0
C487 C 0.28174 0.53031 0.77064 0.0
C488 C 0.23311 0.54652 0.78358 0.0
C489 C 0.24231 0.52717 0.73528 0.0
C490 C 0.31261 0.52523 0.78171 0.0
C491 C 0.32718 0.54946 0.79568 0.0
C492 C 0.34966 0.54458 0.817 0.0
C493 C 0.35833 0.51532 0.82478 0.0
C494 C 0.34574 0.49105 0.80894 0.0
C495 C 0.3229 0.49598 0.78761 0.0
C496 C 0.21157 0.5546 0.80734 0.0
C497 C 0.22093 0.55499 0.8375 0.0
C498 C 0.19986 0.55478 0.86054 0.0
C499 C 0.16913 0.55471 0.85381 0.0
C500 C 0.15982 0.55766 0.82383 0.0
C501 C 0.18088 0.55755 0.80074 0.0
C502 C 0.22923 0.51941 0.70585 0.0
C503 C 0.22431 0.54238 0.68483 0.0
C504 C 0.47989 0.20602 0.664 0.0
C505 C 0.50507 0.18695 0.66251 0.0
C506 C 0.52848 0.19141 0.68323 0.0
C507 C 0.52603 0.21324 0.7058 0.0
H508 H 0.4461 0.31798 0.79732 0.0
H509 H 0.45402 0.35763 0.83422 0.0
H510 H 0.54958 0.35156 0.82024 0.0
H511 H 0.54147 0.31172 0.783 0.0
H512 H 0.47271 0.2392 0.84646 0.0
H513 H 0.47453 0.19927 0.88341 0.0
H514 H 0.45802 0.13376 0.814 0.0
H515 H 0.45726 0.1737 0.77651 0.0
H516 H 0.45676 0.24034 0.6886 0.0
H517 H 0.4611 0.20286 0.64891 0.0
H518 H 0.54821 0.17724 0.6827 0.0
H519 H 0.54332 0.21446 0.72287 0.0
N520 N 0.49669 0.27284 0.74618 0.0
N521 N 0.47692 0.26119 0.79381 0.0
N522 N 0.48069 0.22371 0.75771 0.0
C523 C 0.48844 0.28164 0.77451 0.0
C524 C 0.47306 0.23228 0.7857 0.0
C525 C 0.49219 0.24354 0.73779 0.0
C526 C 0.49311 0.31219 0.78673 0.0
C527 C 0.46872 0.32607 0.80111 0.0
C528 C 0.47329 0.34839 0.82267 0.0
C529 C 0.50242 0.3575 0.83052 0.0
C530 C 0.52682 0.34522 0.81457 0.0
C531 C 0.5222 0.32269 0.79291 0.0
C532 C 0.46573 0.20948 0.80845 0.0
C533 C 0.46876 0.2164 0.83904 0.0
C534 C 0.46976 0.19353 0.86028 0.0
C535 C 0.46739 0.16347 0.85129 0.0
C536 C 0.46095 0.15677 0.82122 0.0
C537 C 0.4603 0.17963 0.79987 0.0
C538 C 0.50022 0.23124 0.70811 0.0
C539 C 0.47751 0.22785 0.68653 0.0
C540 C 0.816 0.49187 0.65967 0.0
C541 C 0.83722 0.5152 0.66133 0.0
C542 C 0.83447 0.53642 0.68449 0.0
C543 C 0.81252 0.533 0.7068 0.0
H544 H 0.68797 0.47879 0.76934 0.0
H545 H 0.6481 0.48455 0.80674 0.0
H546 H 0.70362 0.54656 0.85624 0.0
H547 H 0.74348 0.5403 0.81902 0.0
H548 H 0.7825 0.44935 0.83674 0.0
H549 H 0.82092 0.44619 0.87555 0.0
H550 H 0.88907 0.46568 0.80949 0.0
H551 H 0.85119 0.46773 0.77067 0.0
H552 H 0.7802 0.46846 0.68192 0.0
H553 H 0.81754 0.47516 0.64212 0.0
H554 H 0.8502 0.55488 0.68615 0.0
H555 H 0.81264 0.5482 0.72575 0.0
N556 N 0.75362 0.50765 0.74683 0.0
N557 N 0.76435 0.48157 0.7916 0.0
N558 N 0.79867 0.48051 0.75226 0.0
C559 C 0.74547 0.49884 0.77517 0.0
C560 C 0.79091 0.47225 0.78038 0.0
C561 C 0.78034 0.49779 0.73524 0.0
C562 C 0.71839 0.50989 0.79072 0.0
C563 C 0.69101 0.49471 0.78744 0.0
C564 C 0.66834 0.4978 0.8091 0.0
C565 C 0.67265 0.51605 0.83458 0.0
C566 C 0.6996 0.53223 0.83704 0.0
C567 C 0.72219 0.52912 0.81543 0.0
C568 C 0.81372 0.45977 0.80084 0.0
C569 C 0.8058 0.45176 0.83029 0.0
C570 C 0.82774 0.45004 0.85253 0.0
C571 C 0.85779 0.45634 0.84558 0.0
C572 C 0.8661 0.46053 0.8155 0.0
C573 C 0.84424 0.46189 0.79321 0.0
C574 C 0.79287 0.50833 0.70643 0.0
C575 C 0.79429 0.48828 0.68219 0.0
C576 C 0.47729 0.20615 0.34674 0.0
C577 C 0.50546 0.19242 0.35091 0.0
C578 C 0.52968 0.20267 0.33334 0.0
C579 C 0.52544 0.22502 0.31132 0.0
H580 H 0.44413 0.32837 0.22345 0.0
H581 H 0.44969 0.36754 0.18542 0.0
H582 H 0.5455 0.35414 0.18579 0.0
H583 H 0.53981 0.31471 0.22411 0.0
H584 H 0.46799 0.2455 0.16868 0.0
H585 H 0.46921 0.20424 0.13328 0.0
H586 H 0.44775 0.14195 0.20444 0.0
H587 H 0.44745 0.18317 0.24036 0.0
H588 H 0.45069 0.23684 0.32094 0.0
H589 H 0.45782 0.19834 0.35897 0.0
H590 H 0.55167 0.19262 0.33586 0.0
H591 H 0.54388 0.23065 0.29653 0.0
N592 N 0.49515 0.27936 0.26791 0.0
N593 N 0.47311 0.2686 0.221 0.0
N594 N 0.47573 0.23127 0.2575 0.0
C595 C 0.48643 0.28846 0.23973 0.0
C596 C 0.46776 0.24005 0.22963 0.0
C597 C 0.48921 0.25041 0.27679 0.0
C598 C 0.49159 0.31889 0.2273 0.0
C599 C 0.46653 0.33474 0.21643 0.0
C600 C 0.46964 0.35674 0.19417 0.0
C601 C 0.49794 0.36338 0.18199 0.0
C602 C 0.52337 0.3494 0.19462 0.0
C603 C 0.5202 0.32718 0.21693 0.0
C604 C 0.45868 0.21739 0.20747 0.0
C605 C 0.46265 0.22318 0.17674 0.0
C606 C 0.46332 0.19955 0.1564 0.0
C607 C 0.45967 0.16993 0.16649 0.0
C608 C 0.45169 0.16459 0.19645 0.0
C609 C 0.45134 0.18818 0.21689 0.0
C610 C 0.49696 0.23777 0.30654 0.0
C611 C 0.47319 0.22853 0.32503 0.0
C612 C 0.67915 0.49219 0.19133 0.0
C613 C 0.66004 0.51603 0.18314 0.0
C614 C 0.66169 0.54284 0.19969 0.0
C615 C 0.68358 0.54668 0.22194 0.0
H616 H 0.77092 0.55508 0.33185 0.0
H617 H 0.81015 0.55029 0.3703 0.0
H618 H 0.85173 0.47963 0.31902 0.0
H619 H 0.81256 0.48452 0.28078 0.0
H620 H 0.83805 0.57405 0.23761 0.0
H621 H 0.87682 0.57347 0.19912 0.0
H622 H 0.80927 0.55681 0.13157 0.0
H623 H 0.77059 0.55862 0.16943 0.0
H624 H 0.71716 0.47827 0.21768 0.0
H625 H 0.67807 0.471 0.17953 0.0
H626 H 0.6474 0.56169 0.19403 0.0
H627 H 0.68608 0.56857 0.23221 0.0
N628 N 0.74463 0.52263 0.26795 0.0
N629 N 0.79073 0.54599 0.25677 0.0
N630 N 0.75169 0.54808 0.22211 0.0
C631 C 0.77333 0.53026 0.27608 0.0
C632 C 0.78018 0.55497 0.2298 0.0
C633 C 0.73371 0.53229 0.24081 0.0
C634 C 0.7882 0.5196 0.30375 0.0
C635 C 0.78758 0.53752 0.32963 0.0
C636 C 0.81033 0.53509 0.35136 0.0
C637 C 0.83445 0.51507 0.34732 0.0
C638 C 0.83382 0.49569 0.32248 0.0
C639 C 0.81102 0.498 0.30093 0.0
C640 C 0.80138 0.5654 0.20668 0.0
C641 C 0.83136 0.57148 0.21438 0.0
C642 C 0.85357 0.57103 0.19241 0.0
C643 C 0.84607 0.56446 0.16254 0.0
C644 C 0.81574 0.56215 0.15437 0.0
C645 C 0.79351 0.563 0.17623 0.0
C646 C 0.70412 0.5237 0.22857 0.0
C647 C 0.70103 0.49604 0.21377 0.0
C648 C 0.48252 0.83583 0.32257 0.0
C649 C 0.50268 0.83937 0.34664 0.0
C650 C 0.5256 0.81797 0.35037 0.0
C651 C 0.52987 0.79521 0.32914 0.0
H652 H 0.52531 0.68457 0.24398 0.0
H653 H 0.51676 0.64618 0.20547 0.0
H654 H 0.47889 0.71348 0.14685 0.0
H655 H 0.48789 0.75164 0.18516 0.0
H656 H 0.58111 0.7761 0.18019 0.0
H657 H 0.58661 0.81504 0.14217 0.0
H658 H 0.56933 0.88263 0.20943 0.0
H659 H 0.56599 0.84438 0.24735 0.0
H660 H 0.47233 0.81216 0.28182 0.0
H661 H 0.46434 0.85163 0.31935 0.0
H662 H 0.54152 0.82004 0.36863 0.0
H663 H 0.54942 0.78087 0.33111 0.0
N664 N 0.5099 0.7544 0.26292 0.0
N665 N 0.54249 0.76112 0.22187 0.0
N666 N 0.54502 0.79388 0.26242 0.0
C667 C 0.52051 0.7452 0.23558 0.0
C668 C 0.55491 0.78545 0.23506 0.0
C669 C 0.52291 0.77866 0.27662 0.0
C670 C 0.50655 0.7209 0.21785 0.0
C671 C 0.5139 0.69078 0.22342 0.0
C672 C 0.50921 0.66889 0.2012 0.0
C673 C 0.4972 0.67677 0.17296 0.0
C674 C 0.48835 0.70666 0.1682 0.0
C675 C 0.49305 0.72843 0.19032 0.0
C676 C 0.57169 0.80712 0.21646 0.0
C677 C 0.5801 0.79938 0.1871 0.0
C678 C 0.58305 0.82166 0.16528 0.0
C679 C 0.57731 0.85179 0.17257 0.0
C680 C 0.57394 0.85971 0.20287 0.0
C681 C 0.57173 0.83753 0.22476 0.0
C682 C 0.51096 0.79286 0.30403 0.0
C683 C 0.48662 0.81277 0.30149 0.0
C684 C 0.31206 0.51054 0.15767 0.0
C685 C 0.34148 0.51557 0.16764 0.0
C686 C 0.34687 0.51634 0.1989 0.0
C687 C 0.32363 0.51032 0.21951 0.0
H688 H 0.21277 0.54297 0.28111 0.0
H689 H 0.17524 0.55246 0.32022 0.0
H690 H 0.20217 0.47107 0.36545 0.0
H691 H 0.2396 0.46195 0.32661 0.0
H692 H 0.17033 0.45202 0.24732 0.0
H693 H 0.13043 0.45139 0.21041 0.0
H694 H 0.19394 0.42682 0.1417 0.0
H695 H 0.23443 0.42861 0.17844 0.0
H696 H 0.26697 0.49959 0.16923 0.0
H697 H 0.30698 0.50972 0.1339 0.0
H698 H 0.36919 0.5208 0.20739 0.0
H699 H 0.32866 0.50955 0.24327 0.0
N700 N 0.26466 0.50158 0.25706 0.0
N701 N 0.22372 0.46818 0.26004 0.0
N702 N 0.25311 0.46919 0.21701 0.0
C703 C 0.24106 0.48962 0.27279 0.0
C704 C 0.22948 0.45783 0.2322 0.0
C705 C 0.27098 0.49071 0.22898 0.0
C706 C 0.22965 0.50211 0.30123 0.0
C707 C 0.21172 0.52805 0.30031 0.0
C708 C 0.18968 0.53302 0.32228 0.0
C709 C 0.18515 0.51209 0.34556 0.0
C710 C 0.20497 0.48762 0.34785 0.0
C711 C 0.22679 0.4826 0.32584 0.0
C712 C 0.20576 0.44207 0.21535 0.0
C713 C 0.17577 0.44515 0.22467 0.0
C714 C 0.15276 0.44477 0.20348 0.0
C715 C 0.15957 0.44068 0.17306 0.0
C716 C 0.18851 0.4313 0.16495 0.0
C717 C 0.21162 0.43213 0.18603 0.0
C718 C 0.29469 0.50335 0.20915 0.0
C719 C 0.28909 0.50454 0.17805 0.0
C720 C 0.69207 0.84096 0.48475 0.0
C721 C 0.66492 0.83822 0.50056 0.0
C722 C 0.66064 0.81267 0.51876 0.0
C723 C 0.68368 0.79144 0.52249 0.0
H724 H 0.80341 0.73143 0.46946 0.0
H725 H 0.84244 0.69336 0.46135 0.0
H726 H 0.82229 0.65455 0.5478 0.0
H727 H 0.7834 0.69233 0.55557 0.0
H728 H 0.84146 0.7789 0.56089 0.0
H729 H 0.87795 0.81887 0.5642 0.0
H730 H 0.80681 0.88338 0.57697 0.0
H731 H 0.76977 0.84338 0.57217 0.0
H732 H 0.73643 0.8237 0.47771 0.0
H733 H 0.69607 0.86026 0.47049 0.0
H734 H 0.64023 0.81009 0.53167 0.0
H735 H 0.6807 0.77342 0.53857 0.0
N736 N 0.74884 0.75316 0.51108 0.0
N737 N 0.79137 0.75966 0.54181 0.0
N738 N 0.75526 0.79735 0.53935 0.0
C739 C 0.77533 0.74249 0.52258 0.0
C740 C 0.78165 0.7871 0.55028 0.0
C741 C 0.73855 0.78067 0.52023 0.0
C742 C 0.78972 0.71427 0.51275 0.0
C743 C 0.80644 0.71386 0.48602 0.0
C744 C 0.8293 0.69252 0.48175 0.0
C745 C 0.83597 0.67124 0.50421 0.0
C746 C 0.81781 0.67054 0.53001 0.0
C747 C 0.79519 0.69193 0.53432 0.0
C748 C 0.80266 0.8082 0.56473 0.0
C749 C 0.83344 0.8014 0.56535 0.0
C750 C 0.85449 0.82437 0.56738 0.0
C751 C 0.84503 0.85434 0.56936 0.0
C752 C 0.81451 0.86051 0.57408 0.0
C753 C 0.79337 0.83757 0.57155 0.0
C754 C 0.71134 0.79516 0.50791 0.0
C755 C 0.71498 0.81973 0.48843 0.0
C756 C 0.69297 0.18762 0.53043 0.0
C757 C 0.66984 0.18475 0.50913 0.0
C758 C 0.6677 0.20645 0.48621 0.0
C759 C 0.68958 0.22891 0.4832 0.0
H760 H 0.80518 0.29834 0.54413 0.0
H761 H 0.84262 0.33825 0.55028 0.0
H762 H 0.82089 0.37196 0.46208 0.0
H763 H 0.78354 0.33211 0.45615 0.0
H764 H 0.84919 0.24433 0.46524 0.0
H765 H 0.88647 0.20487 0.46496 0.0
H766 H 0.81708 0.13881 0.45032 0.0
H767 H 0.77929 0.1783 0.45152 0.0
H768 H 0.73367 0.21026 0.54275 0.0
H769 H 0.69492 0.17169 0.54871 0.0
H770 H 0.65017 0.20491 0.46943 0.0
H771 H 0.68889 0.24353 0.46375 0.0
N772 N 0.75074 0.27301 0.50078 0.0
N773 N 0.79696 0.26451 0.4766 0.0
N774 N 0.76123 0.2264 0.47824 0.0
C775 C 0.77834 0.28313 0.49169 0.0
C776 C 0.78865 0.23615 0.4698 0.0
C777 C 0.7421 0.24444 0.49335 0.0
C778 C 0.79081 0.31268 0.50003 0.0
C779 C 0.80741 0.3152 0.52672 0.0
C780 C 0.82934 0.33762 0.52992 0.0
C781 C 0.8352 0.35791 0.50639 0.0
C782 C 0.81696 0.35672 0.48063 0.0
C783 C 0.79524 0.33417 0.47737 0.0
C784 C 0.81118 0.21434 0.45936 0.0
C785 C 0.84183 0.22158 0.46092 0.0
C786 C 0.86332 0.19893 0.46057 0.0
C787 C 0.85453 0.16879 0.45807 0.0
C788 C 0.82427 0.1619 0.45279 0.0
C789 C 0.80271 0.18454 0.4534 0.0
C790 C 0.71376 0.23051 0.50334 0.0
C791 C 0.71474 0.21017 0.52748 0.0
C792 C 0.34068 0.82223 0.51158 0.0
C793 C 0.35182 0.83976 0.48768 0.0
C794 C 0.34378 0.8318 0.45828 0.0
C795 C 0.32322 0.80868 0.453 0.0
H796 H 0.23091 0.69414 0.43475 0.0
H797 H 0.19234 0.65623 0.44386 0.0
H798 H 0.19431 0.67679 0.53829 0.0
H799 H 0.23278 0.71533 0.52899 0.0
H800 H 0.17126 0.77318 0.45539 0.0
H801 H 0.13268 0.81045 0.46391 0.0
H802 H 0.19621 0.88115 0.445 0.0
H803 H 0.2355 0.84388 0.43758 0.0
H804 H 0.30954 0.78775 0.52517 0.0
H805 H 0.34666 0.82768 0.53449 0.0
H806 H 0.35252 0.8443 0.43934 0.0
H807 H 0.31584 0.8047 0.43017 0.0
N808 N 0.27415 0.74885 0.47951 0.0
N809 N 0.22515 0.75594 0.46086 0.0
N810 N 0.25934 0.79527 0.45872 0.0
C811 C 0.24601 0.7378 0.47341 0.0
C812 C 0.23143 0.78465 0.45365 0.0
C813 C 0.28087 0.77783 0.4713 0.0
C814 C 0.23548 0.70727 0.48124 0.0
C815 C 0.22431 0.68948 0.45769 0.0
C816 C 0.20174 0.66822 0.4628 0.0
C817 C 0.18986 0.66404 0.49167 0.0
C818 C 0.203 0.67965 0.51578 0.0
C819 C 0.22546 0.70129 0.51056 0.0
C820 C 0.20677 0.80566 0.44715 0.0
C821 C 0.17697 0.79659 0.45217 0.0
C822 C 0.15476 0.81795 0.45704 0.0
C823 C 0.16197 0.84856 0.45644 0.0
C824 C 0.19056 0.85757 0.44681 0.0
C825 C 0.21293 0.83622 0.44231 0.0
C826 C 0.31014 0.79271 0.4769 0.0
C827 C 0.31983 0.79902 0.50625 0.0
C828 C 0.19646 0.35007 0.53383 0.0
C829 C 0.18236 0.35361 0.50581 0.0
C830 C 0.19197 0.33556 0.48175 0.0
C831 C 0.21403 0.3134 0.4861 0.0
H832 H 0.33733 0.25566 0.53195 0.0
H833 H 0.37973 0.22114 0.52537 0.0
H834 H 0.32446 0.16465 0.4693 0.0
H835 H 0.28301 0.19973 0.47489 0.0
H836 H 0.24572 0.17187 0.54778 0.0
H837 H 0.20723 0.13365 0.55025 0.0
H838 H 0.14131 0.20098 0.57257 0.0
H839 H 0.17965 0.23986 0.56869 0.0
H840 H 0.22689 0.32407 0.56064 0.0
H841 H 0.18954 0.36354 0.55282 0.0
H842 H 0.18179 0.33801 0.4598 0.0
H843 H 0.21959 0.29852 0.46773 0.0
N844 N 0.26845 0.27126 0.51005 0.0
N845 N 0.26259 0.22407 0.53311 0.0
N846 N 0.22537 0.26027 0.53876 0.0
C847 C 0.27923 0.24315 0.51636 0.0
C848 C 0.23574 0.23229 0.54442 0.0
C849 C 0.24141 0.27991 0.52189 0.0
C850 C 0.30708 0.23067 0.50346 0.0
C851 C 0.33489 0.23669 0.51698 0.0
C852 C 0.35888 0.21643 0.51383 0.0
C853 C 0.35527 0.18949 0.49759 0.0
C854 C 0.3282 0.18502 0.482 0.0
C855 C 0.30445 0.20532 0.48494 0.0
C856 C 0.21546 0.20911 0.55668 0.0
C857 C 0.22323 0.17863 0.554 0.0
C858 C 0.20117 0.15657 0.55557 0.0
C859 C 0.17114 0.16462 0.56032 0.0
C860 C 0.1642 0.19446 0.56766 0.0
C861 C 0.18619 0.21666 0.56563 0.0
C862 C 0.22675 0.3088 0.51461 0.0
C863 C 0.2181 0.32772 0.53825 0.0
C864 C 1.00537 0.93711 0.59077 0.0
C865 C 1.00478 0.93128 0.44365 0.0
C866 C 1.00888 0.0817 0.58526 0.0
C867 C 0.01518 0.07617 0.43844 0.0
C868 C 0.93968 0.08076 0.50051 0.0
C869 C 0.93383 0.93805 0.52596 0.0
C870 C 0.08305 0.07677 0.52306 0.0
C871 C 0.07818 0.93205 0.50847 0.0
C872 C 0.0832 1.00374 0.44318 0.0
C873 C 0.93805 1.00637 0.4392 0.0
C874 C 0.07934 1.0029 0.59018 0.0
C875 C 0.93484 0.0114 0.58622 0.0
Eu876 Eu 1.00664 0.94945 0.51672 0.0
O877 O 0.98115 0.97931 0.48806 0.0
O878 O 0.03418 0.97956 0.543 0.0
Eu879 Eu 0.95174 1.0087 0.51304 0.0
Eu880 Eu 0.06588 1.00472 0.5163 0.0
O881 O 0.98114 0.98246 0.54062 0.0
O882 O 0.03481 0.97843 0.49041 0.0
Eu883 Eu 1.00743 1.0088 0.57083 0.0
Eu884 Eu 0.0102 1.00431 0.45827 0.0
O885 O 0.98185 0.03595 0.53966 0.0
O886 O 0.98425 0.03275 0.4869 0.0
O887 O 0.03745 0.03165 0.48765 0.0
O888 O 0.03555 0.0332 0.54049 0.0
Eu889 Eu 0.01091 0.06367 0.5124 0.0
O890 O 1.00891 0.92626 0.5629 0.0
O891 O 1.00243 0.92287 0.47254 0.0
O892 O 1.00905 0.09039 0.55641 0.0
O893 O 0.01621 0.08668 0.46661 0.0
O894 O 0.92888 0.05325 0.5053 0.0
O895 O 0.92535 0.96611 0.51996 0.0
O896 O 0.09159 0.04804 0.52303 0.0
O897 O 0.08872 0.95992 0.51123 0.0
O898 O 0.05479 1.00115 0.43401 0.0
O899 O 0.96699 1.006 0.4315 0.0
O900 O 0.05062 1.00685 0.59767 0.0
O901 O 0.96327 0.01079 0.59545 0.0
O902 O 0.05536 0.08692 0.51813 0.0
O903 O 0.96825 0.08929 0.50305 0.0
O904 O 0.04959 0.9235 0.5107 0.0
O905 O 0.96182 0.92746 0.52538 0.0
O906 O 1.00854 0.95954 0.43442 0.0
O907 O 0.01244 0.04726 0.43112 0.0
O908 O 1.00331 0.96608 0.59784 0.0
O909 O 1.00848 0.05336 0.59485 0.0
O910 O 0.92583 0.01156 0.55747 0.0
O911 O 0.92778 1.00633 0.46748 0.0
O912 O 0.08943 1.00064 0.56193 0.0
O913 O 0.09191 1.00673 0.47187 0.0
C914 C 0.52612 0.9355 0.0874 0.0
C915 C 0.49915 0.0784 0.08427 0.0
C916 C 0.50288 0.93092 0.94362 0.0
C917 C 0.5013 0.07533 0.93991 0.0
C918 C 0.58256 1.00598 0.94066 0.0
C919 C 0.58339 0.01139 0.08518 0.0
C920 C 0.43537 1.00061 0.94241 0.0
C921 C 0.43602 1.00275 0.0868 0.0
C922 C 0.43338 0.07418 0.01123 0.0
C923 C 0.5806 0.07978 0.012 0.0
C924 C 0.43864 0.92975 0.01985 0.0
C925 C 0.58566 0.93508 0.01155 0.0
Eu926 Eu 0.50978 1.00621 0.07133 0.0
O927 O 0.53524 0.0334 0.04012 0.0
O928 O 0.48405 0.97685 0.04242 0.0
Eu929 Eu 0.5655 1.00696 0.01311 0.0
Eu930 Eu 0.45375 1.00245 0.01454 0.0
O931 O 0.53621 0.98038 0.04037 0.0
O932 O 0.48273 0.03099 0.04002 0.0
Eu933 Eu 0.51158 0.9474 0.0154 0.0
Eu934 Eu 0.50752 0.06196 0.01257 0.0
O935 O 0.53674 0.97797 0.98718 0.0
O936 O 0.53492 0.03247 0.98574 0.0
O937 O 0.48244 0.02961 0.98711 0.0
O938 O 0.48444 0.97666 0.98824 0.0
Eu939 Eu 0.50916 1.00361 0.95669 0.0
O940 O 0.52116 0.96361 0.09646 0.0
O941 O 0.50247 0.05051 0.09464 0.0
O942 O 0.5051 0.95902 0.93357 0.0
O943 O 0.50432 0.04695 0.93102 0.0
O944 O 0.59094 1.00721 0.96935 0.0
O945 O 0.59156 1.00785 0.05664 0.0
O946 O 0.42747 0.99989 0.97123 0.0
O947 O 0.42835 1.00339 0.05798 0.0
O948 O 0.46149 0.08494 0.01105 0.0
O949 O 0.55179 0.08857 0.01288 0.0
O950 O 0.46744 0.92088 0.0209 0.0
O951 O 0.55751 0.92435 0.01104 0.0
O952 O 0.46368 1.00262 0.93238 0.0
O953 O 0.554 1.00432 0.9312 0.0
O954 O 0.46454 1.0022 0.09679 0.0
O955 O 0.55504 0.01324 0.09512 0.0
O956 O 0.50122 0.08721 0.05576 0.0
O957 O 0.50252 0.08537 0.96804 0.0
O958 O 0.52216 0.9249 0.05967 0.0
O959 O 0.50535 0.92184 0.97207 0.0
O960 O 0.59279 0.96412 0.01323 0.0
O961 O 0.58987 0.05136 0.01156 0.0
O962 O 0.42975 0.95805 0.01634 0.0
O963 O 0.42628 0.04514 0.01274 0.0
C964 C 1.00414 0.42979 0.08214 0.0
C965 C 0.01389 0.43426 0.93813 0.0
C966 C 1.00791 0.57701 0.08695 0.0
C967 C 0.0116 0.58161 0.94209 0.0
C968 C 0.93748 0.57958 1.00635 0.0
C969 C 0.9363 0.43249 0.0093 0.0
C970 C 0.08176 0.57854 0.01913 0.0
C971 C 0.08113 0.43197 0.01142 0.0
C972 C 0.08484 0.51631 0.94421 0.0
C973 C 0.94152 0.49707 0.9357 0.0
C974 C 0.07673 0.49274 0.08775 0.0
C975 C 0.93306 0.51645 0.0794 0.0
Eu976 Eu 1.00876 0.44978 0.01055 0.0
O977 O 0.98413 0.48069 0.98335 0.0
O978 O 0.03359 0.47914 0.03915 0.0
Eu979 Eu 0.95204 0.50601 1.00855 0.0
Eu980 Eu 0.06609 0.50554 0.01535 0.0
O981 O 0.98 0.47836 0.03708 0.0
O982 O 0.03763 0.47982 0.9858 0.0
Eu983 Eu 1.0056 0.5039 0.06944 0.0
Eu984 Eu 0.01234 0.50742 0.95503 0.0
O985 O 0.98145 0.53092 0.03754 0.0
O986 O 0.98381 0.53341 0.98423 0.0
O987 O 0.03691 0.53253 0.98806 0.0
O988 O 0.03464 0.53143 0.04179 0.0
Eu989 Eu 0.0093 0.5621 0.01392 0.0
O990 O 1.00807 0.42289 0.05336 0.0
O991 O 0.00961 0.42522 0.96632 0.0
O992 O 1.00834 0.58638 0.05851 0.0
O993 O 0.01073 0.58918 0.971 0.0
O994 O 0.92823 0.55124 1.00215 0.0
O995 O 0.9267 0.46104 0.0104 0.0
O996 O 0.09098 0.55004 0.02183 0.0
O997 O 0.09095 0.46047 0.01153 0.0
O998 O 0.05734 0.51271 0.93309 0.0
O999 O 0.97013 0.50087 0.92785 0.0
O1000 O 0.04803 0.49525 0.09591 0.0
O1001 O 0.96024 0.51122 0.09095 0.0
O1002 O 0.05342 0.58725 0.0151 0.0
O1003 O 0.9655 0.58782 0.0129 0.0
O1004 O 0.05233 0.42386 0.01172 0.0
O1005 O 0.96503 0.42421 1.00852 0.0
O1006 O 0.01694 0.46295 0.92944 0.0
O1007 O 0.01179 0.55341 0.93149 0.0
O1008 O 1.00141 0.45786 0.09278 0.0
O1009 O 1.00733 0.54821 0.09586 0.0
O1010 O 0.92532 0.51436 0.05058 0.0
O1011 O 0.93025 0.49938 0.96331 0.0
O1012 O 0.08777 0.4969 0.06025 0.0
O1013 O 0.09284 0.51431 0.97302 0.0
C1014 C 0.50631 0.4446 0.07871 0.0
C1015 C 0.50148 0.58916 0.07507 0.0
C1016 C 0.51204 0.44104 0.93147 0.0
C1017 C 0.51118 0.58557 0.92831 0.0
C1018 C 0.58341 0.51573 0.93184 0.0
C1019 C 0.57859 0.51546 0.07931 0.0
C1020 C 0.43899 0.50868 0.92787 0.0
C1021 C 0.43391 0.51824 0.07423 0.0
C1022 C 0.43776 0.58707 0.98739 0.0
C1023 C 0.5803 0.5877 0.01376 0.0
C1024 C 0.43654 0.44328 0.01299 0.0
C1025 C 0.58103 0.44348 0.01367 0.0
Eu1026 Eu 0.50673 0.51662 0.05951 0.0
O1027 O 0.5345 0.54243 0.02988 0.0
O1028 O 0.48154 0.48938 0.02902 0.0
Eu1029 Eu 0.56596 0.51539 1.00512 0.0
Eu1030 Eu 0.45146 0.5152 1.00154 0.0
O1031 O 0.53412 0.48957 0.03068 0.0
O1032 O 0.48035 0.54318 0.02863 0.0
Eu1033 Eu 0.50867 0.45786 1.00472 0.0
Eu1034 Eu 0.50864 0.57241 1.00228 0.0
O1035 O 0.53695 0.48718 0.97836 0.0
O1036 O 0.53664 0.54186 0.97706 0.0
O1037 O 0.48362 0.54055 0.97631 0.0
O1038 O 0.48241 0.48733 0.97666 0.0
Eu1039 Eu 0.51078 0.51355 0.9475 0.0
O1040 O 0.50714 0.47347 0.0865 0.0
O1041 O 0.50401 0.56076 0.0841 0.0
O1042 O 0.51315 0.46959 0.9227 0.0
O1043 O 0.51057 0.55667 0.92059 0.0
O1044 O 0.59249 0.51631 0.96062 0.0
O1045 O 0.58919 0.51421 0.05117 0.0
O1046 O 0.42823 0.50917 0.95597 0.0
O1047 O 0.42518 0.52084 0.04551 0.0
O1048 O 0.46545 0.59683 0.99301 0.0
O1049 O 0.55206 0.59707 0.01052 0.0
O1050 O 0.46452 0.43347 1.00906 0.0
O1051 O 0.55269 0.43397 0.01221 0.0
O1052 O 0.46788 0.51095 0.92043 0.0
O1053 O 0.5549 0.51414 0.92315 0.0
O1054 O 0.4622 0.51533 0.08345 0.0
O1055 O 0.54963 0.51732 0.08659 0.0
O1056 O 0.50224 0.59831 0.04638 0.0
O1057 O 0.51158 0.59606 0.95652 0.0
O1058 O 0.5062 0.43422 0.05048 0.0
O1059 O 0.50963 0.43177 0.96008 0.0
O1060 O 0.59062 0.47156 0.00991 0.0
O1061 O 0.59007 0.55954 0.01106 0.0
O1062 O 0.42714 0.47162 0.01059 0.0
O1063 O 0.42805 0.5588 0.98969 0.0
C1064 C 0.01963 0.44137 0.57449 0.0
C1065 C 0.99986 0.44213 0.43085 0.0
C1066 C 0.01433 0.58572 0.57564 0.0
C1067 C 0.02253 0.58635 0.43154 0.0
C1068 C 0.93783 0.58729 0.50192 0.0
C1069 C 0.9366 0.44236 0.50553 0.0
C1070 C 0.08539 0.58521 0.50285 0.0
C1071 C 0.08346 0.44038 0.5001 0.0
C1072 C 0.08371 0.51287 0.42966 0.0
C1073 C 0.93665 0.51695 0.4309 0.0
C1074 C 0.08473 0.51225 0.57481 0.0
C1075 C 0.93761 0.51461 0.57582 0.0
Eu1076 Eu 0.01031 0.45684 0.50255 0.0
O1077 O 0.98454 0.48824 0.47662 0.0
O1078 O 0.03684 0.48699 0.52905 0.0
Eu1079 Eu 0.95472 0.51474 0.50326 0.0
Eu1080 Eu 0.06705 0.51303 0.50238 0.0
O1081 O 0.98399 0.48688 0.52998 0.0
O1082 O 0.03711 0.48648 0.475 0.0
Eu1083 Eu 0.01108 0.51345 0.55994 0.0
Eu1084 Eu 0.01037 0.51429 0.44543 0.0
O1085 O 0.98482 0.54117 0.53011 0.0
O1086 O 0.98424 0.54171 0.47575 0.0
O1087 O 0.03664 0.53989 0.47664 0.0
O1088 O 0.03752 0.54005 0.52935 0.0
Eu1089 Eu 0.01139 0.5712 0.50302 0.0
O1090 O 0.01773 0.43221 0.5461 0.0
O1091 O 1.00382 0.43249 0.45888 0.0
O1092 O 0.01407 0.59543 0.54733 0.0
O1093 O 0.01765 0.59593 0.45941 0.0
O1094 O 0.92943 0.55859 0.50284 0.0
O1095 O 0.92858 0.47117 0.50364 0.0
O1096 O 0.09345 0.55639 0.50332 0.0
O1097 O 0.09213 0.46895 0.50206 0.0
O1098 O 0.05518 0.51102 0.42016 0.0
O1099 O 0.96507 0.51884 0.42108 0.0
O1100 O 0.05629 0.51313 0.58455 0.0
O1101 O 0.96619 0.51324 0.58523 0.0
O1102 O 0.05702 0.59532 0.50251 0.0
O1103 O 0.96645 0.59678 0.50157 0.0
O1104 O 0.05483 0.43118 0.49883 0.0
O1105 O 0.96504 0.4325 0.5064 0.0
O1106 O 1.00189 0.47045 0.42118 0.0
O1107 O 0.02029 0.55814 0.42176 0.0
O1108 O 0.0157 0.46931 0.58439 0.0
O1109 O 0.01287 0.55728 0.5848 0.0
O1110 O 0.92919 0.51558 0.5471 0.0
O1111 O 0.92875 0.51438 0.45965 0.0
O1112 O 0.09298 0.51199 0.54605 0.0
O1113 O 0.09209 0.51448 0.45836 0.0
C1114 C 0.50518 0.93888 0.5748 0.0
C1115 C 0.5042 0.94143 0.43004 0.0
C1116 C 0.5084 0.08644 0.57689 0.0
C1117 C 0.5135 0.08881 0.43287 0.0
C1118 C 0.43966 0.0892 0.50139 0.0
C1119 C 0.43335 0.94214 0.50125 0.0
C1120 C 0.58398 0.08452 0.50757 0.0
C1121 C 0.57779 0.93745 0.50245 0.0
C1122 C 0.58277 1.00204 0.43443 0.0
C1123 C 0.43933 0.02807 0.42957 0.0
C1124 C 0.57746 1.00096 0.57839 0.0
C1125 C 0.43377 0.02292 0.57316 0.0
Eu1126 Eu 0.5059 0.95772 0.50279 0.0
O1127 O 0.48109 0.98829 0.47448 0.0
O1128 O 0.53258 0.9866 0.53042 0.0
Eu1129 Eu 0.45141 0.0152 0.50151 0.0
Eu1130 Eu 0.56567 0.01163 0.5058 0.0
O1131 O 0.47901 0.98731 0.52995 0.0
O1132 O 0.53435 0.9876 0.47811 0.0
Eu1133 Eu 0.5063 0.01274 0.56115 0.0
Eu1134 Eu 0.51053 0.01469 0.44608 0.0
O1135 O 0.48238 0.03977 0.52926 0.0
O1136 O 0.4846 0.04035 0.47725 0.0
O1137 O 0.53815 0.03979 0.47734 0.0
O1138 O 0.53606 0.03881 0.53285 0.0
Eu1139 Eu 0.51129 0.06926 0.50465 0.0
O1140 O 0.50746 0.93122 0.546 0.0
O1141 O 0.50499 0.93293 0.45873 0.0
O1142 O 0.50966 0.09447 0.54818 0.0
O1143 O 0.51215 0.09589 0.46182 0.0
O1144 O 0.42874 0.06125 0.49995 0.0
O1145 O 0.42465 0.97096 0.49961 0.0
O1146 O 0.59269 0.05567 0.50755 0.0
O1147 O 0.58858 0.96548 0.50461 0.0
O1148 O 0.55488 1.0046 0.42377 0.0
O1149 O 0.46787 0.02573 0.42087 0.0
O1150 O 0.549 1.0043 0.58694 0.0
O1151 O 0.46151 0.01916 0.58383 0.0
O1152 O 0.55553 0.09357 0.50658 0.0
O1153 O 0.46851 0.0967 0.50374 0.0
O1154 O 0.54872 0.93045 0.50144 0.0
O1155 O 0.46172 0.93301 0.50334 0.0
O1156 O 0.50494 0.97008 0.42057 0.0
O1157 O 0.51516 0.06065 0.42214 0.0
O1158 O 0.50234 0.96706 0.58504 0.0
O1159 O 0.5083 0.05787 0.58673 0.0
O1160 O 0.42541 0.02106 0.54449 0.0
O1161 O 0.42863 0.02249 0.45694 0.0
O1162 O 0.58822 1.00434 0.55066 0.0
O1163 O 0.59153 1.00616 0.46273 0.0
C1164 C 0.1489 0.11311 0.56235 0.0
C1165 C 0.14718 0.14305 0.55251 0.0
C1166 C 0.12846 0.09158 0.55211 0.0
C1167 C 0.10558 0.0993 0.53174 0.0
H1168 H 0.16631 0.10625 0.57789 0.0
H1169 H 0.13034 0.06885 0.56061 0.0
S1170 S 0.09238 0.17429 0.49797 0.0
N1171 N 0.12157 0.17902 0.52026 0.0
N1172 N 0.08278 0.1387 0.50156 0.0
C1173 C 0.10358 0.12915 0.52177 0.0
C1174 C 0.12445 0.151 0.53205 0.0
C1175 C 0.86768 0.12351 0.48801 0.0
C1176 C 0.87589 0.14481 0.46614 0.0
C1177 C 0.88851 0.10288 0.49917 0.0
C1178 C 0.91835 0.10319 0.48917 0.0
H1179 H 0.84524 0.12338 0.49732 0.0
H1180 H 0.88137 0.08701 0.51616 0.0
S1181 S 0.95009 0.15197 0.42952 0.0
N1182 N 0.91495 0.16314 0.43289 0.0
N1183 N 0.95449 0.12471 0.45428 0.0
C1184 C 0.92664 0.12375 0.46665 0.0
C1185 C 0.9053 0.14449 0.45503 0.0
C1186 C 0.89566 0.87811 0.57199 0.0
C1187 C 0.86616 0.87846 0.56086 0.0
C1188 C 0.91751 0.89729 0.56022 0.0
C1189 C 0.91053 0.9176 0.53707 0.0
H1190 H 0.90206 0.86242 0.58946 0.0
H1191 H 0.93999 0.89629 0.56947 0.0
S1192 S 0.83667 0.92777 0.50028 0.0
N1193 N 0.83116 0.9009 0.52522 0.0
N1194 N 0.87218 0.93765 0.5039 0.0
C1195 C 0.88099 0.91891 0.52635 0.0
C1196 C 0.85879 0.89917 0.53807 0.0
C1197 C 0.1105 0.86958 0.46204 0.0
C1198 C 0.14105 0.87042 0.46969 0.0
C1199 C 0.09001 0.88878 0.47587 0.0
C1200 C 0.09946 0.9095 0.4977 0.0
H1201 H 0.10242 0.85417 0.44507 0.0
H1202 H 0.06681 0.88806 0.46863 0.0
S1203 S 0.17645 0.91877 0.5276 0.0
N1204 N 0.17941 0.89208 0.50211 0.0
N1205 N 0.14082 0.92886 0.52744 0.0
C1206 C 0.12979 0.91025 0.50595 0.0
C1207 C 0.15063 0.89054 0.49208 0.0
C1208 C 0.45788 0.14438 0.11692 0.0
C1209 C 0.4682 0.14494 0.14668 0.0
C1210 C 0.46844 0.12291 0.09677 0.0
C1211 C 0.48955 0.10123 0.10579 0.0
H1212 H 0.44176 0.16083 0.1091 0.0
H1213 H 0.45974 0.12311 0.07406 0.0
S1214 S 0.52456 0.09381 0.18082 0.0
N1215 N 0.50153 0.12267 0.18394 0.0
N1216 N 0.52074 0.08169 0.14604 0.0
C1217 C 0.49984 0.10129 0.1355 0.0
C1218 C 0.48931 0.12332 0.15598 0.0
C1219 C 0.89061 0.53304 0.15068 0.0
C1220 C 0.86949 0.55463 0.14134 0.0
C1221 C 0.91085 0.52041 0.13041 0.0
C1222 C 0.91036 0.52857 0.09999 0.0
H1223 H 0.89097 0.52516 0.17369 0.0
H1224 H 0.92671 0.50385 0.13854 0.0
S1225 S 0.8612 0.5861 0.06477 0.0
N1226 N 0.8507 0.58523 0.10026 0.0
N1227 N 0.88827 0.56101 0.06179 0.0
C1228 C 0.88971 0.55055 0.09043 0.0
C1229 C 0.86939 0.56371 0.1112 0.0
C1230 C 0.54721 0.86355 0.12695 0.0
C1231 C 0.56781 0.87319 0.14893 0.0
C1232 C 0.53363 0.8839 0.10732 0.0
C1233 C 0.53965 0.91473 0.10928 0.0
H1234 H 0.54053 0.84022 0.12559 0.0
H1235 H 0.51779 0.87546 0.0909 0.0
S1236 S 0.59395 0.95124 0.16092 0.0
N1237 N 0.59554 0.91529 0.16972 0.0
N1238 N 0.56905 0.95387 0.13358 0.0
C1239 C 0.56073 0.92468 0.13063 0.0
C1240 C 0.57506 0.90383 0.15023 0.0
C1241 C 0.10824 0.4456 0.15086 0.0
C1242 C 0.13891 0.45281 0.15014 0.0
C1243 C 0.08801 0.45951 0.13123 0.0
C1244 C 0.0978 0.48108 0.11031 0.0
H1245 H 0.09987 0.42915 0.16671 0.0
H1246 H 0.06467 0.45278 0.13198 0.0
S1247 S 0.17528 0.50989 0.10137 0.0
N1248 N 0.17775 0.48451 0.12828 0.0
N1249 N 0.13972 0.5101 0.09102 0.0
C1250 C 0.12829 0.4888 0.10967 0.0
C1251 C 0.14885 0.47479 0.12968 0.0
C1252 C 0.46401 0.89645 0.8772 0.0
C1253 C 0.47504 0.86696 0.87712 0.0
C1254 C 0.47335 0.91692 0.89888 0.0
C1255 C 0.49387 0.90854 0.92136 0.0
H1256 H 0.44837 0.90387 0.8601 0.0
H1257 H 0.46428 0.93948 0.89808 0.0
S1258 S 0.52942 0.83408 0.93112 0.0
N1259 N 0.50777 0.83034 0.90125 0.0
N1260 N 0.52463 0.86892 0.94275 0.0
C1261 C 0.5045 0.87896 0.92213 0.0
C1262 C 0.49523 0.85811 0.8998 0.0
C1263 C 0.12692 0.52299 0.87149 0.0
C1264 C 0.14723 0.54646 0.87722 0.0
C1265 C 0.10736 0.51279 0.89367 0.0
C1266 C 0.10774 0.52539 0.92249 0.0
H1267 H 0.12645 0.51202 0.84982 0.0
H1268 H 0.09187 0.49484 0.88825 0.0
S1269 S 0.15503 0.58875 0.9484 0.0
N1270 N 0.16548 0.5831 0.9133 0.0
N1271 N 0.12884 0.56345 0.95539 0.0
C1272 C 0.12777 0.54895 0.9286 0.0
C1273 C 0.14751 0.55961 0.90585 0.0
C1274 C 0.46284 0.14025 0.90191 0.0
C1275 C 0.47485 0.13945 0.8728 0.0
C1276 C 0.47199 0.1196 0.92363 0.0
C1277 C 0.49327 0.09734 0.91687 0.0
H1278 H 0.44642 0.1571 0.90798 0.0
H1279 H 0.46201 0.12083 0.94576 0.0
S1280 S 0.53236 0.08633 0.84446 0.0
N1281 N 0.50996 0.11528 0.83865 0.0
N1282 N 0.52642 0.07575 0.87947 0.0
C1283 C 0.50524 0.09602 0.88785 0.0
C1284 C 0.49619 0.11726 0.86578 0.0
C1285 C 0.8702 0.48477 0.8919 0.0
C1286 C 0.87911 0.4642 0.86967 0.0
C1287 C 0.89065 0.49566 0.91299 0.0
C1288 C 0.92081 0.48672 0.91228 0.0
H1289 H 0.84741 0.49323 0.8925 0.0
H1290 H 0.88289 0.51151 0.92969 0.0
S1291 S 0.95483 0.43113 0.8605 0.0
N1292 N 0.91949 0.43361 0.84961 0.0
N1293 N 0.95828 0.4546 0.88893 0.0
C1294 C 0.92995 0.46574 0.89056 0.0
C1295 C 0.909 0.45434 0.86933 0.0
C1296 C 0.61319 0.65135 0.05872 0.0
C1297 C 0.64379 0.65006 0.05137 0.0
C1298 C 0.59265 0.6316 0.04562 0.0
C1299 C 0.60204 0.60983 0.02482 0.0
H1300 H 0.60507 0.66778 0.07466 0.0
H1301 H 0.56935 0.63299 0.05237 0.0
S1302 S 0.67927 0.59846 0.99644 0.0
N1303 N 0.68222 0.62636 0.02059 0.0
N1304 N 0.64356 0.58863 0.99671 0.0
C1305 C 0.63249 0.60832 0.01717 0.0
C1306 C 0.65339 0.62859 0.03028 0.0
C1307 C 0.37977 0.62207 0.9365 0.0
C1308 C 0.3782 0.65175 0.947 0.0
C1309 C 0.39877 0.60112 0.95016 0.0
C1310 C 0.41694 0.60917 0.97463 0.0
H1311 H 0.36571 0.61482 0.91803 0.0
H1312 H 0.3995 0.57855 0.9413 0.0
S1313 S 0.42151 0.68379 0.01073 0.0
N1314 N 0.39649 0.68798 0.98371 0.0
N1315 N 0.43294 0.64864 1.0085 0.0
C1316 C 0.41632 0.63886 0.98485 0.0
C1317 C 0.39678 0.66016 0.97123 0.0
C1318 C 0.39642 0.36956 0.0239 0.0
C1319 C 0.37532 0.37637 0.04636 0.0
C1320 C 0.41597 0.39147 0.0129 0.0
C1321 C 0.4147 0.42103 0.02361 0.0
H1322 H 0.39732 0.34734 0.01413 0.0
H1323 H 0.43187 0.38535 0.99559 0.0
S1324 S 0.36578 0.44953 0.08457 0.0
N1325 N 0.35606 0.414 0.08071 0.0
N1326 N 0.39234 0.45555 0.05946 0.0
C1327 C 0.39421 0.42801 0.04653 0.0
C1328 C 0.37463 0.40557 0.05806 0.0
C1329 C 0.61691 0.37972 0.05601 0.0
C1330 C 0.64651 0.37992 0.04521 0.0
C1331 C 0.59571 0.40005 0.0451 0.0
C1332 C 0.60347 0.42144 0.02324 0.0
H1333 H 0.61002 0.36353 0.07281 0.0
H1334 H 0.57318 0.39928 0.05422 0.0
S1335 S 0.67764 0.43099 0.98708 0.0
N1336 N 0.68228 0.4028 0.01073 0.0
N1337 N 0.64245 0.4418 0.99107 0.0
C1338 C 0.63302 0.42227 0.01256 0.0
C1339 C 0.65457 0.40132 0.02336 0.0
C1340 C 0.04438 0.65311 0.6166 0.0
C1341 C 0.03108 0.65027 0.64502 0.0
C1342 C 0.03814 0.63248 0.5939 0.0
C1343 C 0.01855 0.60832 0.59902 0.0
H1344 H 0.05994 0.67124 0.61201 0.0
H1345 H 0.04932 0.63504 0.57246 0.0
S1346 S 0.97575 0.59267 0.66853 0.0
N1347 N 0.99572 0.62288 0.67637 0.0
N1348 N 0.98451 0.58358 0.63373 0.0
C1349 C 1.00468 0.6055 0.62712 0.0
C1350 C 0.01084 0.62663 0.65015 0.0
C1351 C 0.3924 0.03095 0.6465 0.0
C1352 C 0.36808 0.04957 0.63885 0.0
C1353 C 0.41339 0.02221 0.62501 0.0
C1354 C 0.41063 0.03151 0.59502 0.0
H1355 H 0.39481 0.02234 0.66913 0.0
H1356 H 0.43165 1.00768 0.63189 0.0
S1357 S 0.35226 0.08239 0.56402 0.0
N1358 N 0.34336 0.07857 0.59977 0.0
N1359 N 0.38262 0.06177 0.55901 0.0
C1360 C 0.38668 0.05057 0.58712 0.0
C1361 C 0.36544 0.0597 0.60913 0.0
C1362 C 0.02842 0.39969 0.64766 0.0
C1363 C 0.05006 0.37783 0.64058 0.0
C1364 C 0.01848 0.42017 0.62607 0.0
C1365 C 0.02952 0.4191 0.59663 0.0
H1366 H 0.01847 0.40045 0.66982 0.0
H1367 H 1.00167 0.43658 0.63231 0.0
S1368 S 0.089 0.36852 0.56779 0.0
N1369 N 0.08419 0.35808 0.60301 0.0
N1370 N 0.06503 0.39619 0.56207 0.0
C1371 C 0.05175 0.3979 0.58946 0.0
C1372 C 0.06215 0.37734 0.61155 0.0
C1373 C 0.6492 0.98994 0.62197 0.0
C1374 C 0.64082 0.96875 0.64387 0.0
C1375 C 0.6285 1.00041 0.60084 0.0
C1376 C 0.59867 0.99037 0.60125 0.0
H1377 H 0.67169 0.99917 0.62168 0.0
H1378 H 0.63575 0.01689 0.58447 0.0
S1379 S 0.56644 0.93247 0.6518 0.0
N1380 N 0.60154 0.93618 0.66309 0.0
N1381 N 0.5623 0.95631 0.6237 0.0
C1382 C 0.59019 0.9686 0.62251 0.0
C1383 C 0.61137 0.95767 0.64377 0.0
C1384 C 0.99262 0.36801 0.39127 0.0
C1385 C 0.96778 0.37266 0.37229 0.0
C1386 C 1.00335 0.39092 0.40971 0.0
C1387 C 0.98996 0.4194 0.40935 0.0
H1388 H 1.00429 0.34668 0.39144 0.0
H1389 H 0.02238 0.38641 0.4242 0.0
S1390 S 0.92277 0.44226 0.36587 0.0
N1391 N 0.92884 0.40714 0.35583 0.0
N1392 N 0.94954 0.45065 0.39011 0.0
C1393 C 0.96494 0.42434 0.39081 0.0
C1394 C 0.95371 0.40084 0.37234 0.0
C1395 C 0.61927 0.95133 0.37771 0.0
C1396 C 0.64921 0.96129 0.37759 0.0
C1397 C 0.59767 0.96544 0.39548 0.0
C1398 C 0.60535 0.98975 0.41401 0.0
H1399 H 0.6124 0.9327 0.36369 0.0
H1400 H 0.57491 0.95685 0.39516 0.0
S1401 S 0.6801 0.02516 0.42149 0.0
N1402 N 0.68504 0.9979 0.39693 0.0
N1403 N 0.64447 0.02335 0.4314 0.0
C1404 C 0.63514 0.99971 0.41455 0.0
C1405 C 0.65708 0.98571 0.39611 0.0
C1406 C 0.07677 0.62138 0.37707 0.0
C1407 C 0.06712 0.65139 0.37581 0.0
C1408 C 0.06133 0.60017 0.39431 0.0
C1409 C 0.03588 0.60829 0.41101 0.0
H1410 H 0.09622 0.61418 0.36443 0.0
H1411 H 0.06985 0.57742 0.39516 0.0
S1412 S 1.00077 0.68342 0.41492 0.0
N1413 N 0.02958 0.68777 0.39207 0.0
N1414 N 1.00157 0.64791 0.42549 0.0
C1415 C 0.02613 0.63813 0.41031 0.0
C1416 C 0.04151 0.65969 0.39246 0.0
C1417 C 0.36635 0.04454 0.39013 0.0
C1418 C 0.37411 0.06797 0.37036 0.0
C1419 C 0.38777 0.0313 0.40878 0.0
C1420 C 0.41781 0.04067 0.40799 0.0
H1421 H 0.34372 0.03567 0.39054 0.0
H1422 H 0.38083 0.01334 0.42367 0.0
S1423 S 0.449 0.10292 0.36216 0.0
N1424 N 0.41326 0.10142 0.35261 0.0
N1425 N 0.45395 0.07605 0.38727 0.0
C1426 C 0.42581 0.06443 0.38874 0.0
C1427 C 0.40385 0.07821 0.37004 0.0
C1428 C 1.00722 0.10805 0.35915 0.0
C1429 C 0.01519 0.13841 0.36224 0.0
C1430 C 1.00786 0.08828 0.38372 0.0
C1431 C 0.01621 0.09793 0.41274 0.0
H1432 H 1.00025 0.09948 0.3375 0.0
H1433 H 1.00112 0.06526 0.37984 0.0
S1434 S 0.03857 0.17565 0.43296 0.0
N1435 N 0.03137 0.17744 0.39665 0.0
N1436 N 0.03282 0.14037 0.4428 0.0
C1437 C 0.02452 0.12828 0.41608 0.0
C1438 C 0.02398 0.14843 0.39091 0.0
C1439 C 0.9052 0.99637 0.36063 0.0
C1440 C 0.8755 1.00673 0.36331 0.0
C1441 C 0.92501 0.99645 0.38518 0.0
C1442 C 0.91602 1.00659 0.41379 0.0
H1443 H 0.91326 0.98802 0.33929 0.0
H1444 H 0.94753 0.98804 0.38167 0.0
S1445 S 0.84059 0.0363 0.43292 0.0
N1446 N 0.83802 0.02754 0.39701 0.0
N1447 N 0.87524 0.02788 0.44305 0.0
C1448 C 0.88639 0.01721 0.4168 0.0
C1449 C 0.86623 0.01732 0.39164 0.0
C1450 C 1.00222 0.89673 0.36502 0.0
C1451 C 1.00386 0.86564 0.37014 0.0
C1452 C 1.00187 0.91734 0.38886 0.0
C1453 C 1.00343 0.90802 0.41919 0.0
H1454 H 1.0013 0.90528 0.34227 0.0
H1455 H 1.00063 0.94095 0.38319 0.0
S1456 S 1.0088 0.82879 0.44481 0.0
N1457 N 1.00742 0.82634 0.40786 0.0
N1458 N 1.00678 0.86494 0.45266 0.0
C1459 C 1.00478 0.87685 0.42466 0.0
C1460 C 1.005 0.85578 0.40022 0.0
C1461 C 0.12105 0.99156 0.36714 0.0
C1462 C 0.14751 1.00857 0.36934 0.0
C1463 C 0.10083 0.98958 0.39135 0.0
C1464 C 0.10647 1.00407 0.41898 0.0
H1465 H 0.11542 0.98056 0.34622 0.0
H1466 H 0.08038 0.97681 0.38822 0.0
S1467 S 0.17385 0.04968 0.43681 0.0
N1468 N 0.17907 0.03899 0.40174 0.0
N1469 N 0.14147 0.03495 0.4472 0.0
C1470 C 0.13351 0.02014 0.42178 0.0
C1471 C 0.15386 0.0225 0.397 0.0
C1472 C 0.02621 0.87427 0.64516 0.0
C1473 C 1.00735 0.87967 0.67003 0.0
C1474 C 0.02451 0.89188 0.61891 0.0
C1475 C 1.00422 0.91593 0.61666 0.0
H1476 H 0.04251 0.85626 0.64602 0.0
H1477 H 0.03994 0.88732 0.60071 0.0
S1478 S 0.94878 0.93867 0.67451 0.0
N1479 N 0.96682 0.91014 0.68993 0.0
N1480 N 0.96383 0.94332 0.64098 0.0
C1481 C 0.98476 0.92113 0.64104 0.0
C1482 C 0.98623 0.90299 0.66756 0.0
C1483 C 0.11093 1.00414 0.67015 0.0
C1484 C 0.14172 0.99853 0.66635 0.0
C1485 C 0.0912 1.0052 0.64553 0.0
C1486 C 0.10129 1.00099 0.61575 0.0
H1487 H 0.10193 1.00774 0.69242 0.0
H1488 H 0.06777 0.00967 0.6501 0.0
S1489 S 0.18032 0.98643 0.5935 0.0
N1490 N 0.18166 0.98931 0.63041 0.0
N1491 N 0.14475 0.9911 0.58423 0.0
C1492 C 0.13216 0.99531 0.61166 0.0
C1493 C 0.15225 0.9941 0.63684 0.0
C1494 C 0.99735 0.11991 0.66075 0.0
C1495 C 0.01693 0.14462 0.65945 0.0
C1496 C 0.99426 0.10024 0.63628 0.0
C1497 C 0.01005 0.10487 0.60925 0.0
H1498 H 0.98501 0.11521 0.68115 0.0
H1499 H 0.97959 0.081 0.6387 0.0
S1500 S 0.06301 0.16715 0.5937 0.0
N1501 N 0.05159 0.17326 0.62843 0.0
N1502 N 0.0454 0.13654 0.58246 0.0
C1503 C 0.02891 0.13006 0.60728 0.0
C1504 C 0.03248 0.14982 0.63236 0.0
C1505 C 0.8981 0.02148 0.66272 0.0
C1506 C 0.87216 1.00363 0.66072 0.0
C1507 C 0.91772 0.02457 0.6382 0.0
C1508 C 0.91188 0.01051 0.61045 0.0
H1509 H 0.90375 0.03242 0.68366 0.0
H1510 H 0.93787 0.03785 0.64114 0.0
S1511 S 0.84627 0.96233 0.59309 0.0
N1512 N 0.84115 0.97244 0.62836 0.0
N1513 N 0.87785 0.9785 0.58239 0.0
C1514 C 0.88555 0.99334 0.60788 0.0
C1515 C 0.8658 0.98981 0.63296 0.0
C1516 C 0.38995 0.99836 0.1599 0.0
C1517 C 0.36016 1.0032 0.1501 0.0
C1518 C 0.41436 0.99824 0.13962 0.0
C1519 C 0.41009 1.00285 0.10858 0.0
H1520 H 0.39457 0.99532 0.18357 0.0
H1521 H 0.43673 0.99462 0.14841 0.0
S1522 S 0.33601 0.01571 0.07137 0.0
N1523 N 0.32775 0.01144 0.10714 0.0
N1524 N 0.37278 0.01237 0.06937 0.0
C1525 C 0.38015 1.00743 0.0986 0.0
C1526 C 0.35551 1.00731 0.11919 0.0
C1527 C 0.01011 0.38287 0.15416 0.0
C1528 C 1.0055 0.35323 0.14401 0.0
C1529 C 1.00893 0.40757 0.13435 0.0
C1530 C 1.00346 0.40367 0.10346 0.0
H1531 H 0.01425 0.38706 0.17774 0.0
H1532 H 0.01274 0.42982 0.14332 0.0
S1533 S 0.99012 0.33035 0.06553 0.0
N1534 N 0.99554 0.32141 0.10105 0.0
N1535 N 0.99302 0.36722 0.06395 0.0
C1536 C 0.99877 0.37399 0.09313 0.0
C1537 C 0.99986 0.349 0.11331 0.0
C1538 C 0.6332 0.03651 0.15015 0.0
C1539 C 0.65747 0.01605 0.14921 0.0
C1540 C 0.60901 0.03465 0.12986 0.0
C1541 C 0.60835 0.01269 0.10731 0.0
H1542 H 0.63276 0.05412 0.16685 0.0
H1543 H 0.59093 0.05081 0.13156 0.0
S1544 S 0.66457 0.95244 0.09575 0.0
N1545 N 0.67773 0.97177 0.12447 0.0
N1546 N 0.63329 0.96948 0.0856 0.0
C1547 C 0.63241 0.99231 0.10578 0.0
C1548 C 0.65669 0.99371 0.12682 0.0
C1549 C 0.98704 0.62366 0.15573 0.0
C1550 C 1.00555 0.64935 0.15319 0.0
C1551 C 0.98841 0.59997 0.13482 0.0
C1552 C 1.00803 0.60109 0.11016 0.0
H1553 H 0.97121 0.62181 0.17405 0.0
H1554 H 0.97352 0.58095 0.13763 0.0
S1555 S 0.06269 0.66174 0.09367 0.0
N1556 N 0.04554 0.67306 0.12447 0.0
N1557 N 0.04707 0.62935 0.08479 0.0
C1558 C 0.02663 0.62646 0.10723 0.0
C1559 C 0.02562 0.65035 0.12873 0.0
C1560 C 0.38983 0.01621 0.87144 0.0
C1561 C 0.36091 1.00551 0.87866 0.0
C1562 C 0.414 0.01353 0.89161 0.0
C1563 C 0.41026 1.00037 0.92009 0.0
H1564 H 0.39377 0.02702 0.85002 0.0
H1565 H 0.43554 0.02275 0.88514 0.0
S1566 S 0.33937 0.96745 0.9495 0.0
N1567 N 0.33024 0.98026 0.91591 0.0
N1568 N 0.37537 0.97509 0.95381 0.0
C1569 C 0.38158 0.98884 0.92728 0.0
C1570 C 0.35705 0.99139 0.9066 0.0
C1571 C 1.00417 0.35773 0.901 0.0
C1572 C 0.02122 0.36016 0.87462 0.0
C1573 C 1.00156 0.38198 0.92097 0.0
C1574 C 0.01552 0.40989 0.91522 0.0
H1575 H 0.99341 0.33667 0.90665 0.0
H1576 H 0.98857 0.37869 0.94124 0.0
S1577 S 0.0606 0.42859 0.8478 0.0
N1578 N 0.0508 0.39319 0.8428 0.0
N1579 N 0.04577 0.43873 0.88017 0.0
C1580 C 0.03171 0.41292 0.88832 0.0
C1581 C 0.03463 0.3881 0.86813 0.0
C1582 C 0.6619 1.00373 0.90808 0.0
C1583 C 0.65756 1.00785 0.87713 0.0
C1584 C 0.63759 1.00319 0.9281 0.0
C1585 C 0.60761 1.00646 0.91816 0.0
H1586 H 0.68437 1.00107 0.917 0.0
H1587 H 0.64258 0.99996 0.95167 0.0
S1588 S 0.58398 0.01659 0.83883 0.0
N1589 N 0.62092 0.01434 0.83717 0.0
N1590 N 0.57526 0.01351 0.8747 0.0
C1591 C 0.60294 0.01037 0.88712 0.0
C1592 C 0.62783 0.01107 0.8667 0.0
C1593 C 0.99948 0.65939 0.90826 0.0
C1594 C 0.01776 0.65928 0.88254 0.0
C1595 C 0.99729 0.63402 0.92699 0.0
C1596 C 0.01278 0.6072 0.9205 0.0
H1597 H 0.98721 0.67946 0.91432 0.0
H1598 H 0.98332 0.63548 0.94681 0.0
S1599 S 0.06315 0.59472 0.85555 0.0
N1600 N 0.05129 0.62961 0.8513 0.0
N1601 N 0.04698 0.58211 0.88642 0.0
C1602 C 0.03071 0.60654 0.8946 0.0
C1603 C 0.03329 0.63251 0.87571 0.0
C1604 C 0.11368 0.35294 0.0191 0.0
C1605 C 0.14396 0.35634 0.01102 0.0
C1606 C 0.09386 0.37744 0.01905 0.0
C1607 C 0.10338 0.40671 0.01127 0.0
H1608 H 0.10516 0.33105 0.02542 0.0
H1609 H 0.07081 0.37327 0.02553 0.0
S1610 S 0.18095 0.42787 0.98941 0.0
N1611 N 0.18287 0.39138 0.99571 0.0
N1612 N 0.1457 0.43744 0.99562 0.0
C1613 C 0.13376 0.41047 1.00338 0.0
C1614 C 0.15394 0.38535 1.00318 0.0
C1615 C 0.15093 0.62418 0.04068 0.0
C1616 C 0.14908 0.6496 0.02178 0.0
C1617 C 0.12929 0.60117 0.03966 0.0
C1618 C 0.10467 0.60282 0.01999 0.0
H1619 H 0.16945 0.62188 0.05627 0.0
H1620 H 0.13175 0.58209 0.05456 0.0
S1621 S 0.0902 0.66313 0.96425 0.0
N1622 N 0.12119 0.67383 0.98153 0.0
N1623 N 0.08024 0.63125 0.98032 0.0
C1624 C 0.1024 0.62808 1.00108 0.0
C1625 C 0.12459 0.65129 1.00183 0.0
C1626 C 0.38942 0.148 0.01206 0.0
C1627 C 0.35936 0.13891 1.00817 0.0
C1628 C 0.41306 0.12709 0.0129 0.0
C1629 C 0.4078 0.09606 0.0098 0.0
H1630 H 0.39471 0.17155 0.01495 0.0
H1631 H 0.43564 0.13544 0.01629 0.0
S1632 S 0.33307 0.06079 0.99684 0.0
N1633 N 0.32571 0.09697 0.99982 0.0
N1634 N 0.36971 0.0576 1.00119 0.0
C1635 C 0.37772 0.08673 1.00541 0.0
C1636 C 0.35368 0.10811 1.00469 0.0
C1637 C 0.90371 0.35335 0.01592 0.0
C1638 C 0.87308 0.35708 0.00942 0.0
C1639 C 0.92363 0.37778 0.0157 0.0
C1640 C 0.91391 0.40732 0.00934 0.0
H1641 H 0.91248 0.33127 0.0211 0.0
H1642 H 0.94694 0.37329 0.0208 0.0
S1643 S 0.8356 0.42938 0.99123 0.0
N1644 N 0.83373 0.39277 0.99675 0.0
N1645 N 0.87114 0.43861 0.99621 0.0
C1646 C 0.88324 0.4114 1.00282 0.0
C1647 C 0.86291 0.38637 1.00284 0.0
C1648 C 0.66605 0.90501 0.01508 0.0
C1649 C 0.66305 0.87431 1.00855 0.0
C1650 C 0.64103 0.92419 0.01575 0.0
C1651 C 0.61161 0.91359 0.0103 0.0
H1652 H 0.688 0.91437 0.01974 0.0
H1653 H 0.64498 0.94759 0.02095 0.0
S1654 S 0.59146 0.83454 0.99302 0.0
N1655 N 0.62828 0.83389 0.99708 0.0
N1656 N 0.58129 0.86978 0.9983 0.0
C1657 C 0.6083 0.8828 1.00379 0.0
C1658 C 0.63394 0.86328 1.00288 0.0
C1659 C 0.89606 0.6529 0.02128 0.0
C1660 C 0.87291 0.65301 0.9997 0.0
C1661 C 0.91685 0.62922 0.02307 0.0
C1662 C 0.91513 0.60429 1.00374 0.0
H1663 H 0.89764 0.6708 0.03761 0.0
H1664 H 0.93397 0.63007 0.04033 0.0
S1665 S 0.86139 0.59492 0.94093 0.0
N1666 N 0.85172 0.62713 0.95647 0.0
N1667 N 0.88993 0.58218 0.96088 0.0
C1668 C 0.89268 0.60434 0.98161 0.0
C1669 C 0.87185 0.62875 0.97933 0.0
C1670 C 0.39607 0.85485 0.01776 0.0
C1671 C 0.36591 0.86361 0.02167 0.0
C1672 C 0.41961 0.87606 0.01793 0.0
C1673 C 0.41395 0.9069 0.02215 0.0
H1674 H 0.40144 0.83152 0.01359 0.0
H1675 H 0.44227 0.86828 0.01393 0.0
S1676 S 0.33887 0.94067 0.03701 0.0
N1677 N 0.33192 0.90464 0.03222 0.0
N1678 N 0.37547 0.94441 0.03303 0.0
C1679 C 0.38381 0.91561 0.02737 0.0
C1680 C 0.36003 0.89405 0.02697 0.0
C1681 C 0.6573 0.1161 1.00033 0.0
C1682 C 0.65528 0.14298 0.01664 0.0
C1683 C 0.63276 0.09633 0.99832 0.0
C1684 C 0.60495 0.10283 0.01206 0.0
H1685 H 0.67829 0.10985 0.98984 0.0
H1686 H 0.63576 0.07553 0.98613 0.0
S1687 S 0.58738 0.17154 0.05549 0.0
N1688 N 0.62279 0.17591 0.04546 0.0
N1689 N 0.5767 0.13898 0.04141 0.0
C1690 C 0.60231 0.13024 0.02741 0.0
C1691 C 0.62744 0.15019 0.02981 0.0
C1692 C 0.52405 0.61972 0.85087 0.0
C1693 C 0.50477 0.6447 0.85059 0.0
C1694 C 0.52654 0.60122 0.87639 0.0
C1695 C 0.51044 0.60735 0.90292 0.0
H1696 H 0.5367 0.61395 0.83095 0.0
H1697 H 0.54106 0.58179 0.87528 0.0
S1698 S 0.45799 0.67089 0.91434 0.0
N1699 N 0.46997 0.67514 0.87952 0.0
N1700 N 0.47508 0.64068 0.92744 0.0
C1701 C 0.49182 0.63279 0.90325 0.0
C1702 C 0.48885 0.65132 0.87711 0.0
C1703 C 0.36994 0.5226 0.87937 0.0
C1704 C 0.37819 0.51058 0.85133 0.0
C1705 C 0.38895 0.52042 0.90449 0.0
C1706 C 0.41736 0.50685 0.90237 0.0
H1707 H 0.34867 0.5341 0.88184 0.0
H1708 H 0.38173 0.53041 0.92539 0.0
S1709 S 0.44848 0.46946 0.83469 0.0
N1710 N 0.41563 0.48259 0.82353 0.0
N1711 N 0.45174 0.47903 0.87033 0.0
C1712 C 0.42539 0.49374 0.87469 0.0
C1713 C 0.40574 0.49547 0.84929 0.0
C1714 C 0.4928 0.37218 0.8843 0.0
C1715 C 0.507 0.37814 0.85661 0.0
C1716 C 0.49564 0.39177 0.90893 0.0
C1717 C 0.51245 0.4184 0.90676 0.0
H1718 H 0.47917 0.35221 0.88691 0.0
H1719 H 0.48367 0.38654 0.92943 0.0
S1720 S 0.55521 0.44386 0.83975 0.0
N1721 N 0.53938 0.41213 0.82899 0.0
N1722 N 0.54473 0.44893 0.87489 0.0
C1723 C 0.52737 0.42424 0.8794 0.0
C1724 C 0.52469 0.40414 0.85449 0.0
C1725 C 0.65838 0.51337 0.88949 0.0
C1726 C 0.64981 0.5171 0.8592 0.0
C1727 C 0.63705 0.51322 0.91287 0.0
C1728 C 0.60618 0.51686 0.90699 0.0
H1729 H 0.68177 0.50992 0.89516 0.0
H1730 H 0.64485 0.50981 0.93565 0.0
S1731 S 0.57246 0.53011 0.83142 0.0
N1732 N 0.60867 0.52641 0.82483 0.0
N1733 N 0.56862 0.52599 0.86799 0.0
C1734 C 0.59751 0.52128 0.87666 0.0
C1735 C 0.61924 0.52141 0.85303 0.0
C1736 C 0.52012 0.40809 0.15506 0.0
C1737 C 0.50052 0.38332 0.15501 0.0
C1738 C 0.52204 0.42756 0.13019 0.0
C1739 C 0.50505 0.42262 0.10393 0.0
H1740 H 0.53359 0.41284 0.17473 0.0
H1741 H 0.53702 0.44666 0.13152 0.0
S1742 S 0.45082 0.36066 0.09195 0.0
N1743 N 0.46399 0.35479 0.12613 0.0
N1744 N 0.46806 0.39102 0.07945 0.0
C1745 C 0.48582 0.39764 0.10334 0.0
C1746 C 0.48343 0.37813 0.12884 0.0
C1747 C 0.60981 0.52434 0.15866 0.0
C1748 C 0.63955 0.51402 0.1565 0.0
C1749 C 0.59059 0.52466 0.13368 0.0
C1750 C 0.60017 0.51489 0.10512 0.0
H1751 H 0.60125 0.53233 0.17994 0.0
H1752 H 0.56801 0.53302 0.13689 0.0
S1753 S 0.67603 0.48549 0.08722 0.0
N1754 N 0.6778 0.49375 0.1233 0.0
N1755 N 0.64161 0.49403 0.07646 0.0
C1756 C 0.62986 0.50431 0.10261 0.0
C1757 C 0.64947 0.50386 0.12821 0.0
C1758 C 0.50751 0.66242 0.11918 0.0
C1759 C 0.49614 0.65464 0.14772 0.0
C1760 C 0.50834 0.64156 0.09548 0.0
C1761 C 0.49798 0.61197 0.09937 0.0
H1762 H 0.51662 0.68462 0.11532 0.0
H1763 H 0.51799 0.64845 0.07427 0.0
S1764 S 0.46237 0.5814 0.16844 0.0
N1765 N 0.47177 0.61606 0.17751 0.0
N1766 N 0.47332 0.57691 0.13337 0.0
C1767 C 0.48549 0.60428 0.12748 0.0
C1768 C 0.48463 0.62553 0.15152 0.0
C1769 C 0.36257 0.53493 0.11864 0.0
C1770 C 0.3663 0.51778 0.14508 0.0
C1771 C 0.38427 0.5349 0.09568 0.0
C1772 C 0.41073 0.51792 0.09832 0.0
H1773 H 0.34255 0.54836 0.11555 0.0
H1774 H 0.38037 0.54844 0.07586 0.0
S1775 S 0.43042 0.46718 0.16163 0.0
N1776 N 0.39793 0.48195 0.17145 0.0
N1777 N 0.43878 0.48233 0.12888 0.0
C1778 C 0.41476 0.50067 0.12459 0.0
C1779 C 0.3926 0.50052 0.1478 0.0
C1780 C 0.8584 0.51449 0.60903 0.0
C1781 C 0.86321 0.51607 0.64013 0.0
C1782 C 0.88251 0.5142 0.58873 0.0
C1783 C 0.91271 0.51511 0.59853 0.0
H1784 H 0.83574 0.51358 0.60026 0.0
H1785 H 0.87718 0.51305 0.56505 0.0
S1786 S 0.93733 0.51771 0.6782 0.0
N1787 N 0.90033 0.51758 0.68005 0.0
N1788 N 0.94566 0.51691 0.64211 0.0
C1789 C 0.91778 0.51644 0.62975 0.0
C1790 C 0.89311 0.51698 0.65042 0.0
C1791 C 0.48521 0.88805 0.64089 0.0
C1792 C 0.5026 0.86207 0.63565 0.0
C1793 C 0.48694 0.91333 0.62193 0.0
C1794 C 0.50575 0.91347 0.59663 0.0
H1795 H 0.47003 0.8888 0.65983 0.0
H1796 H 0.47275 0.93249 0.62659 0.0
S1797 S 0.5573 0.85207 0.5738 0.0
N1798 N 0.5403 0.83886 0.60397 0.0
N1799 N 0.54346 0.88601 0.56833 0.0
C1800 C 0.52382 0.88797 0.59157 0.0
C1801 C 0.52232 0.86243 0.61106 0.0
C1802 C 0.1629 0.52074 0.60898 0.0
C1803 C 0.15922 0.51135 0.6389 0.0
C1804 C 0.13878 0.52083 0.58866 0.0
C1805 C 0.10967 0.51183 0.59733 0.0
H1806 H 0.18471 0.52804 0.60111 0.0
H1807 H 0.14306 0.52841 0.56596 0.0
S1808 S 0.08786 0.48525 0.67325 0.0
N1809 N 0.12398 0.49296 0.67632 0.0
N1810 N 0.07879 0.49284 0.63812 0.0
C1811 C 0.10564 0.5023 0.62721 0.0
C1812 C 0.13032 0.50206 0.64792 0.0
C1813 C 0.51394 0.13224 0.64969 0.0
C1814 C 0.50616 0.16157 0.64044 0.0
C1815 C 0.51417 0.10793 0.62938 0.0
C1816 C 0.50694 0.11197 0.59886 0.0
H1817 H 0.51954 0.12793 0.67295 0.0
H1818 H 0.5204 0.08593 0.63764 0.0
S1819 S 0.48511 0.18462 0.56322 0.0
N1820 N 0.49137 0.19322 0.59865 0.0
N1821 N 0.49128 0.14822 0.56071 0.0
C1822 C 0.49902 0.14135 0.58945 0.0
C1823 C 0.49875 0.1659 0.61012 0.0
C1824 C 0.85684 0.51381 0.39915 0.0
C1825 C 0.86094 0.51563 0.36797 0.0
C1826 C 0.88135 0.5144 0.41899 0.0
C1827 C 0.91125 0.5172 0.40868 0.0
H1828 H 0.83445 0.51152 0.40832 0.0
H1829 H 0.87657 0.51251 0.44273 0.0
S1830 S 0.93388 0.52458 0.32877 0.0
N1831 N 0.89698 0.52148 0.32752 0.0
N1832 N 0.94304 0.5229 0.36464 0.0
C1833 C 0.91557 0.51964 0.37743 0.0
C1834 C 0.8905 0.51872 0.35718 0.0
C1835 C 0.50252 0.86177 0.39828 0.0
C1836 C 0.50111 0.86594 0.36708 0.0
C1837 C 0.50312 0.88623 0.41805 0.0
C1838 C 0.50261 0.91627 0.40767 0.0
H1839 H 0.50328 0.8393 0.40758 0.0
H1840 H 0.50435 0.88123 0.4418 0.0
S1841 S 0.49974 0.9394 0.32759 0.0
N1842 N 0.49965 0.90235 0.32643 0.0
N1843 N 0.50078 0.94842 0.36351 0.0
C1844 C 0.50108 0.92077 0.37638 0.0
C1845 C 0.50029 0.89567 0.35618 0.0
C1846 C 0.16301 0.50986 0.39734 0.0
C1847 C 0.15889 0.51426 0.36638 0.0
C1848 C 0.13865 0.50946 0.41724 0.0
C1849 C 0.10878 0.51322 0.40722 0.0
H1850 H 0.18537 0.50658 0.40633 0.0
H1851 H 0.1435 0.50584 0.44078 0.0
S1852 S 0.08566 0.52534 0.32802 0.0
N1853 N 0.12255 0.52231 0.32642 0.0
N1854 N 0.07674 0.52171 0.36379 0.0
C1855 C 0.1043 0.51778 0.37623 0.0
C1856 C 0.12928 0.51836 0.3559 0.0
C1857 C 0.52376 0.1399 0.36392 0.0
C1858 C 0.50881 0.16656 0.37241 0.0
C1859 C 0.5251 0.11463 0.38316 0.0
C1860 C 0.51174 0.11507 0.41179 0.0
H1861 H 0.53393 0.13827 0.34193 0.0
H1862 H 0.53673 0.09471 0.37558 0.0
S1863 S 0.46994 0.1794 0.44493 0.0
N1864 N 0.48105 0.19179 0.41186 0.0
N1865 N 0.48247 0.14466 0.44725 0.0
C1866 C 0.49679 0.14169 0.42047 0.0
C1867 C 0.4956 0.16726 0.40105 0.0
C1868 C 0.65145 0.89305 0.50475 0.0
C1869 C 0.64234 0.86313 0.49995 0.0
C1870 C 0.63062 0.91681 0.50539 0.0
C1871 C 0.59966 0.9118 0.50114 0.0
H1872 H 0.6749 0.89813 0.50864 0.0
H1873 H 0.63896 0.93925 0.50955 0.0
S1874 S 0.56451 0.83755 0.48539 0.0
N1875 N 0.60053 0.82994 0.4894 0.0
N1876 N 0.56136 0.8741 0.49038 0.0
C1877 C 0.59038 0.88188 0.49571 0.0
C1878 C 0.61164 0.85774 0.49522 0.0
C1879 C 0.61772 0.16344 0.50694 0.0
C1880 C 0.64871 0.15863 0.50986 0.0
C1881 C 0.59737 0.13942 0.50643 0.0
C1882 C 0.60694 0.10919 0.50857 0.0
H1883 H 0.60902 0.18608 0.50513 0.0
H1884 H 0.57381 0.14488 0.50413 0.0
S1885 S 0.68621 0.08436 0.51554 0.0
N1886 N 0.68832 0.12135 0.51424 0.0
N1887 N 0.65014 0.07614 0.51337 0.0
C1888 C 0.63802 0.10404 0.51144 0.0
C1889 C 0.65881 0.12869 0.5121 0.0
C1890 C 0.85882 0.61988 0.50883 0.0
C1891 C 0.86231 0.65043 0.50174 0.0
C1892 C 0.88328 0.60005 0.50869 0.0
C1893 C 0.91266 0.6097 0.50164 0.0
H1894 H 0.8369 0.61113 0.51462 0.0
H1895 H 0.87891 0.57686 0.51457 0.0
S1896 S 0.93408 0.68774 0.4815 0.0
N1897 N 0.89757 0.68962 0.48757 0.0
N1898 N 0.94353 0.65231 0.48705 0.0
C1899 C 0.9165 0.64026 0.49433 0.0
C1900 C 0.8914 0.66053 0.49435 0.0
C1901 C 0.39735 0.86478 0.51013 0.0
C1902 C 0.3709 0.86692 0.49307 0.0
C1903 C 0.41678 0.88948 0.51333 0.0
C1904 C 0.41041 0.91761 0.50005 0.0
H1905 H 0.40361 0.84357 0.52027 0.0
H1906 H 0.43727 0.88632 0.52605 0.0
S1907 S 0.3426 0.93566 0.45516 0.0
N1908 N 0.33837 0.89993 0.46418 0.0
N1909 N 0.37469 0.94627 0.47039 0.0
C1910 C 0.38336 0.92037 0.48399 0.0
C1911 C 0.36374 0.89508 0.48041 0.0
C1912 C 0.16055 0.40511 0.5124 0.0
C1913 C 0.15707 0.37541 0.50244 0.0
C1914 C 0.13676 0.42572 0.51119 0.0
C1915 C 0.10813 0.41756 0.50028 0.0
H1916 H 0.18193 0.41252 0.52131 0.0
H1917 H 0.14089 0.44819 0.51944 0.0
S1918 S 0.08701 0.34209 0.47205 0.0
N1919 N 0.12267 0.33859 0.4816 0.0
N1920 N 0.07788 0.37726 0.47933 0.0
C1921 C 0.10432 0.38784 0.49021 0.0
C1922 C 0.12875 0.36686 0.49122 0.0
C1923 C 0.38505 0.14812 0.47273 0.0
C1924 C 0.37819 0.16484 0.49875 0.0
C1925 C 0.40457 0.1233 0.47376 0.0
C1926 C 0.41811 0.11437 0.5008 0.0
H1927 H 0.37524 0.15424 0.45134 0.0
H1928 H 0.40934 0.11122 0.45323 0.0
S1929 S 0.40733 0.14905 0.57542 0.0
N1930 N 0.3861 0.16928 0.5527 0.0
N1931 N 0.42353 0.12351 0.55408 0.0
C1932 C 0.41184 0.13079 0.52684 0.0
C1933 C 0.39173 0.1558 0.52597 0.0
C1934 C 0.85748 0.40945 0.5001 0.0
C1935 C 0.8613 0.37904 0.50763 0.0
C1936 C 0.88183 0.42947 0.49969 0.0
C1937 C 0.91137 0.42004 0.50649 0.0
H1938 H 0.83538 0.4179 0.49449 0.0
H1939 H 0.87731 0.45258 0.49362 0.0
S1940 S 0.93362 0.34223 0.52676 0.0
N1941 N 0.897 0.34016 0.52145 0.0
N1942 N 0.94275 0.37765 0.52079 0.0
C1943 C 0.91551 0.38956 0.51397 0.0
C1944 C 0.89056 0.36917 0.51457 0.0
C1945 C 0.16277 0.62002 0.51482 0.0
C1946 C 0.16235 0.64531 0.49593 0.0
C1947 C 0.13752 0.60118 0.51745 0.0
C1948 C 0.11057 0.60727 0.50189 0.0
H1949 H 0.18304 0.61427 0.52697 0.0
H1950 H 0.13921 0.58148 0.53164 0.0
S1951 S 0.0974 0.67176 0.45083 0.0
N1952 N 0.13244 0.67607 0.46217 0.0
N1953 N 0.08495 0.64112 0.46761 0.0
C1954 C 0.10957 0.6331 0.48375 0.0
C1955 C 0.13545 0.65195 0.48062 0.0
loop_
_geom_bond_atom_site_label_1
_geom_bond_atom_site_label_2
_geom_bond_distance
_geom_bond_site_symmetry_2
_ccdc_geom_bond_type
C0 C1 1.383 1_455 S
C0 H13 0.948 . S
C0 C35 1.382 . S
C1 C0 1.383 1_655 S
C1 C2 1.378 . S
C2 C1 1.378 . S
C2 C3 1.378 . S
C2 H14 0.952 . S
C3 C2 1.378 . S
C3 H15 0.950 . S
C3 C34 1.383 . S
H4 C23 0.947 . S
H5 C24 0.954 . S
H6 C26 0.953 . S
H7 C27 0.945 . S
H8 C29 0.950 1_455 S
H9 C30 0.949 . S
H10 C32 0.950 . S
H11 C33 0.948 . S
H12 C35 0.951 . S
H13 C0 0.948 . S
H14 C2 0.952 . S
H15 C3 0.950 . S
N16 C19 1.382 . S
N16 C21 1.363 . S
N17 C19 1.371 . S
N17 C20 1.372 . S
N18 C20 1.361 . S
N18 C21 1.377 . S
C19 N16 1.382 . S
C19 N17 1.371 . S
C19 C22 1.480 . S
C20 N17 1.372 . S
C20 N18 1.361 . S
C20 C28 1.457 . S
C21 N16 1.363 . S
C21 N18 1.377 . S
C21 C34 1.479 . S
C22 C19 1.480 . S
C22 C23 1.383 . S
C22 C27 1.385 . S
C23 H4 0.947 . S
C23 C22 1.383 . S
C23 C24 1.385 1_655 S
C24 H5 0.954 . S
C24 C23 1.385 1_455 S
C24 C25 1.381 1_455 S
C25 C24 1.381 1_655 S
C25 C26 1.377 . S
C26 H6 0.953 . S
C26 C25 1.377 . S
C26 C27 1.369 . S
C27 H7 0.945 . S
C27 C22 1.385 . S
C27 C26 1.369 . S
C28 C20 1.457 . S
C28 C29 1.375 . S
C28 C33 1.364 . S
C29 H8 0.950 1_655 S
C29 C28 1.375 . S
C29 C30 1.388 1_655 S
C30 H9 0.949 . S
C30 C29 1.388 1_455 S
C30 C31 1.387 1_455 S
C31 C30 1.387 1_655 S
C31 C32 1.372 . S
C32 H10 0.950 . S
C32 C31 1.372 . S
C32 C33 1.379 . S
C33 H11 0.948 . S
C33 C28 1.364 . S
C33 C32 1.379 . S
C34 C3 1.383 . S
C34 C21 1.479 . S
C34 C35 1.398 1_655 S
C35 C0 1.382 . S
C35 H12 0.951 . S
C35 C34 1.398 1_455 S
C36 C37 1.384 1_545 S
C36 H49 0.948 . S
C36 C71 1.382 1_545 S
C37 C36 1.384 1_565 S
C37 C38 1.378 . S
C38 C37 1.378 . S
C38 C39 1.378 . S
C38 H50 0.952 . S
C39 C38 1.378 . S
C39 H51 0.950 . S
C39 C70 1.383 . S
H40 C59 0.947 . S
H41 C60 0.952 . S
H42 C62 0.953 . S
H43 C63 0.945 . S
H44 C65 0.949 1_545 S
H45 C66 0.949 . S
H46 C68 0.950 . S
H47 C69 0.948 . S
H48 C71 0.951 1_545 S
H49 C36 0.948 . S
H50 C38 0.952 . S
H51 C39 0.950 . S
N52 C55 1.382 . S
N52 C57 1.363 . S
N53 C55 1.371 . S
N53 C56 1.372 . S
N54 C56 1.361 . S
N54 C57 1.377 . S
C55 N52 1.382 . S
C55 N53 1.371 . S
C55 C58 1.480 . S
C56 N53 1.372 . S
C56 N54 1.361 . S
C56 C64 1.457 . S
C57 N52 1.363 . S
C57 N54 1.377 . S
C57 C70 1.479 . S
C58 C55 1.480 . S
C58 C59 1.383 . S
C58 C63 1.385 . S
C59 H40 0.947 . S
C59 C58 1.383 . S
C59 C60 1.386 1_565 S
C60 H41 0.952 . S
C60 C59 1.386 1_545 S
C60 C61 1.381 1_545 S
C61 C60 1.381 1_565 S
C61 C62 1.377 . S
C62 H42 0.953 . S
C62 C61 1.377 . S
C62 C63 1.369 . S
C63 H43 0.945 . S
C63 C58 1.385 . S
C63 C62 1.369 . S
C64 C56 1.457 . S
C64 C65 1.377 . S
C64 C69 1.364 . S
C65 H44 0.949 1_565 S
C65 C64 1.377 . S
C65 C66 1.387 1_565 S
C66 H45 0.949 . S
C66 C65 1.387 1_545 S
C66 C67 1.387 1_545 S
C67 C66 1.387 1_565 S
C67 C68 1.372 . S
C68 H46 0.950 . S
C68 C67 1.372 . S
C68 C69 1.379 . S
C69 H47 0.948 . S
C69 C64 1.364 . S
C69 C68 1.379 . S
C70 C39 1.383 . S
C70 C57 1.479 . S
C70 C71 1.398 . S
C71 C36 1.382 1_565 S
C71 H48 0.951 1_565 S
C71 C70 1.398 . S
C72 C73 1.384 . S
C72 H85 0.947 1_455 S
C72 C107 1.382 . S
C73 C72 1.384 . S
C73 C74 1.378 . S
C74 C73 1.378 . S
C74 C75 1.378 . S
C74 H86 0.952 . S
C75 C74 1.378 . S
C75 H87 0.950 . S
C75 C106 1.383 . S
H76 C95 0.947 . S
H77 C96 0.948 . S
H78 C98 0.953 . S
H79 C99 0.945 . S
H80 C101 0.952 1_655 S
H81 C102 0.953 . S
H82 C104 0.950 . S
H83 C105 0.948 . S
H84 C107 0.949 1_655 S
H85 C72 0.947 1_655 S
H86 C74 0.952 . S
H87 C75 0.950 . S
N88 C91 1.382 . S
N88 C93 1.363 . S
N89 C91 1.371 . S
N89 C92 1.372 . S
N90 C92 1.361 . S
N90 C93 1.377 . S
C91 N88 1.382 . S
C91 N89 1.371 . S
C91 C94 1.480 . S
C92 N89 1.372 . S
C92 N90 1.361 . S
C92 C100 1.457 . S
C93 N88 1.363 . S
C93 N90 1.377 . S
C93 C106 1.479 . S
C94 C91 1.480 . S
C94 C95 1.383 . S
C94 C99 1.385 . S
C95 H76 0.947 . S
C95 C94 1.383 . S
C95 C96 1.387 1_455 S
C96 H77 0.948 . S
C96 C95 1.387 1_655 S
C96 C97 1.383 1_655 S
C97 C96 1.383 1_455 S
C97 C98 1.377 . S
C98 H78 0.953 . S
C98 C97 1.377 . S
C98 C99 1.369 . S
C99 H79 0.945 . S
C99 C94 1.385 . S
C99 C98 1.369 . S
C100 C92 1.457 . S
C100 C101 1.372 . S
C100 C105 1.364 . S
C101 H80 0.952 1_455 S
C101 C100 1.372 . S
C101 C102 1.387 1_455 S
C102 H81 0.953 . S
C102 C101 1.387 1_655 S
C102 C103 1.384 1_655 S
C103 C102 1.384 1_455 S
C103 C104 1.372 . S
C104 H82 0.950 . S
C104 C103 1.372 . S
C104 C105 1.379 . S
C105 H83 0.948 . S
C105 C100 1.364 . S
C105 C104 1.379 . S
C106 C75 1.383 . S
C106 C93 1.479 . S
C106 C107 1.401 . S
C107 C72 1.382 . S
C107 H84 0.949 1_455 S
C107 C106 1.401 . S
C108 C109 1.384 1_565 S
C108 H121 0.947 . S
C108 C143 1.382 1_565 S
C109 C108 1.384 1_545 S
C109 C110 1.378 . S
C110 C109 1.378 . S
C110 C111 1.378 . S
C110 H122 0.952 . S
C111 C110 1.378 . S
C111 H123 0.950 . S
C111 C142 1.383 . S
H112 C131 0.947 . S
H113 C132 0.949 . S
H114 C134 0.953 . S
H115 C135 0.945 . S
H116 C137 0.947 1_565 S
H117 C138 0.954 . S
H118 C140 0.950 . S
H119 C141 0.948 . S
H120 C143 0.950 1_565 S
H121 C108 0.947 . S
H122 C110 0.952 . S
H123 C111 0.950 . S
N124 C127 1.382 . S
N124 C129 1.363 . S
N125 C127 1.371 . S
N125 C128 1.372 . S
N126 C128 1.361 . S
N126 C129 1.377 . S
C127 N124 1.382 . S
C127 N125 1.371 . S
C127 C130 1.480 . S
C128 N125 1.372 . S
C128 N126 1.361 . S
C128 C136 1.457 . S
C129 N124 1.363 . S
C129 N126 1.377 . S
C129 C142 1.479 . S
C130 C127 1.480 . S
C130 C131 1.383 . S
C130 C135 1.385 . S
C131 H112 0.947 . S
C131 C130 1.383 . S
C131 C132 1.387 1_545 S
C132 H113 0.949 . S
C132 C131 1.387 1_565 S
C132 C133 1.382 1_565 S
C133 C132 1.382 1_545 S
C133 C134 1.377 . S
C134 H114 0.953 . S
C134 C133 1.377 . S
C134 C135 1.369 . S
C135 H115 0.945 . S
C135 C130 1.385 . S
C135 C134 1.369 . S
C136 C128 1.457 . S
C136 C137 1.379 . S
C136 C141 1.364 . S
C137 H116 0.947 1_545 S
C137 C136 1.379 . S
C137 C138 1.387 1_545 S
C138 H117 0.954 . S
C138 C137 1.387 1_565 S
C138 C139 1.384 1_565 S
C139 C138 1.384 1_545 S
C139 C140 1.372 . S
C140 H118 0.950 . S
C140 C139 1.372 . S
C140 C141 1.379 . S
C141 H119 0.948 . S
C141 C136 1.364 . S
C141 C140 1.379 . S
C142 C111 1.383 . S
C142 C129 1.479 . S
C142 C143 1.399 . S
C143 C108 1.382 1_545 S
C143 H120 0.950 1_545 S
C143 C142 1.399 . S
C144 C145 1.383 1_455 S
C144 H157 0.949 . S
C144 C179 1.382 . S
C145 C144 1.383 1_655 S
C145 C146 1.378 . S
C146 C145 1.378 . S
C146 C147 1.378 . S
C146 H158 0.952 . S
C147 C146 1.378 . S
C147 H159 0.950 . S
C147 C178 1.383 . S
H148 C167 0.947 . S
H149 C168 0.954 . S
H150 C170 0.953 . S
H151 C171 0.945 . S
H152 C173 0.950 1_455 S
H153 C174 0.949 . S
H154 C176 0.950 . S
H155 C177 0.948 . S
H156 C179 0.951 . S
H157 C144 0.949 . S
H158 C146 0.952 . S
H159 C147 0.950 . S
N160 C163 1.382 . S
N160 C165 1.363 . S
N161 C163 1.371 . S
N161 C164 1.372 . S
N162 C164 1.361 . S
N162 C165 1.377 . S
C163 N160 1.382 . S
C163 N161 1.371 . S
C163 C166 1.480 . S
C164 N161 1.372 . S
C164 N162 1.361 . S
C164 C172 1.457 . S
C165 N160 1.363 . S
C165 N162 1.377 . S
C165 C178 1.479 . S
C166 C163 1.480 . S
C166 C167 1.383 . S
C166 C171 1.385 . S
C167 H148 0.947 . S
C167 C166 1.383 . S
C167 C168 1.385 1_655 S
C168 H149 0.954 . S
C168 C167 1.385 1_455 S
C168 C169 1.381 1_455 S
C169 C168 1.381 1_655 S
C169 C170 1.377 . S
C170 H150 0.953 . S
C170 C169 1.377 . S
C170 C171 1.369 . S
C171 H151 0.945 . S
C171 C166 1.385 . S
C171 C170 1.369 . S
C172 C164 1.457 . S
C172 C173 1.375 . S
C172 C177 1.364 . S
C173 H152 0.950 1_655 S
C173 C172 1.375 . S
C173 C174 1.388 1_655 S
C174 H153 0.949 . S
C174 C173 1.388 1_455 S
C174 C175 1.387 1_455 S
C175 C174 1.387 1_655 S
C175 C176 1.372 . S
C176 H154 0.950 . S
C176 C175 1.372 . S
C176 C177 1.379 . S
C177 H155 0.948 . S
C177 C172 1.364 . S
C177 C176 1.379 . S
C178 C147 1.383 . S
C178 C165 1.479 . S
C178 C179 1.398 1_655 S
C179 C144 1.382 . S
C179 H156 0.951 . S
C179 C178 1.398 1_455 S
C180 C181 1.384 . S
C180 H193 0.948 1_545 S
C180 C215 1.382 . S
C181 C180 1.384 . S
C181 C182 1.378 . S
C182 C181 1.378 . S
C182 C183 1.378 . S
C182 H194 0.952 . S
C183 C182 1.378 . S
C183 H195 0.950 . S
C183 C214 1.383 . S
H184 C203 0.947 . S
H185 C204 0.950 . S
H186 C206 0.953 . S
H187 C207 0.945 . S
H188 C209 0.947 1_565 S
H189 C210 0.954 . S
H190 C212 0.950 . S
H191 C213 0.948 . S
H192 C215 0.950 1_565 S
H193 C180 0.948 1_565 S
H194 C182 0.952 . S
H195 C183 0.950 . S
N196 C199 1.382 . S
N196 C201 1.363 . S
N197 C199 1.371 . S
N197 C200 1.372 . S
N198 C200 1.361 . S
N198 C201 1.377 . S
C199 N196 1.382 . S
C199 N197 1.371 . S
C199 C202 1.480 . S
C200 N197 1.372 . S
C200 N198 1.361 . S
C200 C208 1.457 . S
C201 N196 1.363 . S
C201 N198 1.377 . S
C201 C214 1.479 . S
C202 C199 1.480 . S
C202 C203 1.383 . S
C202 C207 1.385 . S
C203 H184 0.947 . S
C203 C202 1.383 . S
C203 C204 1.387 1_545 S
C204 H185 0.950 . S
C204 C203 1.387 1_565 S
C204 C205 1.382 1_565 S
C205 C204 1.382 1_545 S
C205 C206 1.377 . S
C206 H186 0.953 . S
C206 C205 1.377 . S
C206 C207 1.369 . S
C207 H187 0.945 . S
C207 C202 1.385 . S
C207 C206 1.369 . S
C208 C200 1.457 . S
C208 C209 1.379 . S
C208 C213 1.364 . S
C209 H188 0.947 1_545 S
C209 C208 1.379 . S
C209 C210 1.387 1_545 S
C210 H189 0.954 . S
C210 C209 1.387 1_565 S
C210 C211 1.383 1_565 S
C211 C210 1.383 1_545 S
C211 C212 1.372 . S
C212 H190 0.950 . S
C212 C211 1.372 . S
C212 C213 1.379 . S
C213 H191 0.948 . S
C213 C208 1.364 . S
C213 C212 1.379 . S
C214 C183 1.383 . S
C214 C201 1.479 . S
C214 C215 1.400 . S
C215 C180 1.382 . S
C215 H192 0.950 1_545 S
C215 C214 1.400 . S
C216 C217 1.384 . S
C216 H229 0.947 1_455 S
C216 C251 1.382 . S
C217 C216 1.384 . S
C217 C218 1.378 . S
C218 C217 1.378 . S
C218 C219 1.378 . S
C218 H230 0.952 . S
C219 C218 1.378 . S
C219 H231 0.950 . S
C219 C250 1.383 . S
H220 C239 0.947 . S
H221 C240 0.948 . S
H222 C242 0.953 . S
H223 C243 0.945 . S
H224 C245 0.946 1_655 S
H225 C246 0.953 . S
H226 C248 0.950 . S
H227 C249 0.948 . S
H228 C251 0.949 1_655 S
H229 C216 0.947 1_655 S
H230 C218 0.952 . S
H231 C219 0.950 . S
N232 C235 1.382 . S
N232 C237 1.363 . S
N233 C235 1.371 . S
N233 C236 1.372 . S
N234 C236 1.361 . S
N234 C237 1.377 . S
C235 N232 1.382 . S
C235 N233 1.371 . S
C235 C238 1.480 . S
C236 N233 1.372 . S
C236 N234 1.361 . S
C236 C244 1.457 . S
C237 N232 1.363 . S
C237 N234 1.377 . S
C237 C250 1.479 . S
C238 C235 1.480 . S
C238 C239 1.383 . S
C238 C243 1.385 . S
C239 H220 0.947 . S
C239 C238 1.383 . S
C239 C240 1.387 1_455 S
C240 H221 0.948 . S
C240 C239 1.387 1_655 S
C240 C241 1.383 1_655 S
C241 C240 1.383 1_455 S
C241 C242 1.377 . S
C242 H222 0.953 . S
C242 C241 1.377 . S
C242 C243 1.369 . S
C243 H223 0.945 . S
C243 C238 1.385 . S
C243 C242 1.369 . S
C244 C236 1.457 . S
C244 C245 1.381 . S
C244 C249 1.364 . S
C245 H224 0.946 1_455 S
C245 C244 1.381 . S
C245 C246 1.387 1_455 S
C246 H225 0.953 . S
C246 C245 1.387 1_655 S
C246 C247 1.384 1_655 S
C247 C246 1.384 1_455 S
C247 C248 1.372 . S
C248 H226 0.950 . S
C248 C247 1.372 . S
C248 C249 1.379 . S
C249 H227 0.948 . S
C249 C244 1.364 . S
C249 C248 1.379 . S
C250 C219 1.383 . S
C250 C237 1.479 . S
C250 C251 1.401 . S
C251 C216 1.382 . S
C251 H228 0.949 1_455 S
C251 C250 1.401 . S
C252 C253 1.384 1_545 S
C252 H265 0.948 . S
C252 C287 1.382 1_545 S
C253 C252 1.384 1_565 S
C253 C254 1.378 . S
C254 C253 1.378 . S
C254 C255 1.378 . S
C254 H266 0.952 . S
C255 C254 1.378 . S
C255 H267 0.950 . S
C255 C286 1.383 . S
H256 C275 0.947 . S
H257 C276 0.952 . S
H258 C278 0.953 . S
H259 C279 0.945 . S
H260 C281 0.949 1_545 S
H261 C282 0.949 . S
H262 C284 0.950 . S
H263 C285 0.948 . S
H264 C287 0.951 1_545 S
H265 C252 0.948 . S
H266 C254 0.952 . S
H267 C255 0.950 . S
N268 C271 1.382 . S
N268 C273 1.363 . S
N269 C271 1.371 . S
N269 C272 1.372 . S
N270 C272 1.361 . S
N270 C273 1.377 . S
C271 N268 1.382 . S
C271 N269 1.371 . S
C271 C274 1.480 . S
C272 N269 1.372 . S
C272 N270 1.361 . S
C272 C280 1.457 . S
C273 N268 1.363 . S
C273 N270 1.377 . S
C273 C286 1.479 . S
C274 C271 1.480 . S
C274 C275 1.383 . S
C274 C279 1.385 . S
C275 H256 0.947 . S
C275 C274 1.383 . S
C275 C276 1.386 1_565 S
C276 H257 0.952 . S
C276 C275 1.386 1_545 S
C276 C277 1.381 1_545 S
C277 C276 1.381 1_565 S
C277 C278 1.377 . S
C278 H258 0.953 . S
C278 C277 1.377 . S
C278 C279 1.369 . S
C279 H259 0.945 . S
C279 C274 1.385 . S
C279 C278 1.369 . S
C280 C272 1.457 . S
C280 C281 1.377 . S
C280 C285 1.364 . S
C281 H260 0.949 1_565 S
C281 C280 1.377 . S
C281 C282 1.387 1_565 S
C282 H261 0.949 . S
C282 C281 1.387 1_545 S
C282 C283 1.387 1_545 S
C283 C282 1.387 1_565 S
C283 C284 1.372 . S
C284 H262 0.950 . S
C284 C283 1.372 . S
C284 C285 1.379 . S
C285 H263 0.948 . S
C285 C280 1.364 . S
C285 C284 1.379 . S
C286 C255 1.383 . S
C286 C273 1.479 . S
C286 C287 1.398 . S
C287 C252 1.382 1_565 S
C287 H264 0.951 1_565 S
C287 C286 1.398 . S
C288 C289 1.385 . S
C288 H301 0.946 1_554 S
C288 C323 1.382 . S
C289 C288 1.385 . S
C289 C290 1.378 . S
C290 C289 1.378 . S
C290 C291 1.378 . S
C290 H302 0.952 . S
C291 C290 1.378 . S
C291 H303 0.950 . S
C291 C322 1.383 . S
H292 C311 0.947 . S
H293 C312 0.945 . S
H294 C314 0.953 . S
H295 C315 0.945 . S
H296 C317 0.952 1_556 S
H297 C318 0.951 . S
H298 C320 0.950 . S
H299 C321 0.948 . S
H300 C323 0.948 1_556 S
H301 C288 0.946 1_556 S
H302 C290 0.952 . S
H303 C291 0.950 . S
N304 C307 1.382 . S
N304 C309 1.363 . S
N305 C307 1.371 . S
N305 C308 1.372 . S
N306 C308 1.361 . S
N306 C309 1.377 . S
C307 N304 1.382 . S
C307 N305 1.371 . S
C307 C310 1.480 . S
C308 N305 1.372 . S
C308 N306 1.361 . S
C308 C316 1.457 . S
C309 N304 1.363 . S
C309 N306 1.377 . S
C309 C322 1.479 . S
C310 C307 1.480 . S
C310 C311 1.383 . S
C310 C315 1.385 . S
C311 H292 0.947 . S
C311 C310 1.383 . S
C311 C312 1.389 1_554 S
C312 H293 0.945 . S
C312 C311 1.389 1_556 S
C312 C313 1.384 1_556 S
C313 C312 1.384 1_554 S
C313 C314 1.377 . S
C314 H294 0.953 . S
C314 C313 1.377 . S
C314 C315 1.369 . S
C315 H295 0.945 . S
C315 C310 1.385 . S
C315 C314 1.369 . S
C316 C308 1.457 . S
C316 C317 1.372 . S
C316 C321 1.364 . S
C317 H296 0.952 1_554 S
C317 C316 1.372 . S
C317 C318 1.388 1_554 S
C318 H297 0.951 . S
C318 C317 1.388 1_556 S
C318 C319 1.385 1_556 S
C319 C318 1.385 1_554 S
C319 C320 1.372 . S
C320 H298 0.950 . S
C320 C319 1.372 . S
C320 C321 1.379 . S
C321 H299 0.948 . S
C321 C316 1.364 . S
C321 C320 1.379 . S
C322 C291 1.383 . S
C322 C309 1.479 . S
C322 C323 1.402 . S
C323 C288 1.382 . S
C323 H300 0.948 1_554 S
C323 C322 1.402 . S
C324 C325 1.383 1_554 S
C324 H337 0.950 . S
C324 C359 1.382 . S
C325 C324 1.383 1_556 S
C325 C326 1.378 . S
C326 C325 1.378 . S
C326 C327 1.378 . S
C326 H338 0.952 . S
C327 C326 1.378 . S
C327 H339 0.950 . S
C327 C358 1.383 . S
H328 C347 0.947 . S
H329 C348 0.946 . S
H330 C350 0.953 . S
H331 C351 0.945 . S
H332 C353 0.952 1_554 S
H333 C354 0.949 . S
H334 C356 0.950 . S
H335 C357 0.948 . S
H336 C359 0.952 . S
H337 C324 0.950 . S
H338 C326 0.952 . S
H339 C327 0.950 . S
N340 C343 1.382 . S
N340 C345 1.363 . S
N341 C343 1.371 . S
N341 C344 1.372 . S
N342 C344 1.361 . S
N342 C345 1.377 . S
C343 N340 1.382 . S
C343 N341 1.371 . S
C343 C346 1.480 . S
C344 N341 1.372 . S
C344 N342 1.361 . S
C344 C352 1.457 . S
C345 N340 1.363 . S
C345 N342 1.377 . S
C345 C358 1.479 . S
C346 C343 1.480 . S
C346 C347 1.383 . S
C346 C351 1.385 . S
C347 H328 0.947 . S
C347 C346 1.383 . S
C347 C348 1.388 1_556 S
C348 H329 0.946 . S
C348 C347 1.388 1_554 S
C348 C349 1.384 1_554 S
C349 C348 1.384 1_556 S
C349 C350 1.377 . S
C350 H330 0.953 . S
C350 C349 1.377 . S
C350 C351 1.369 . S
C351 H331 0.945 . S
C351 C346 1.385 . S
C351 C350 1.369 . S
C352 C344 1.457 . S
C352 C353 1.372 . S
C352 C357 1.364 . S
C353 H332 0.952 1_556 S
C353 C352 1.372 . S
C353 C354 1.388 1_556 S
C354 H333 0.949 . S
C354 C353 1.388 1_554 S
C354 C355 1.387 1_554 S
C355 C354 1.387 1_556 S
C355 C356 1.372 . S
C356 H334 0.950 . S
C356 C355 1.372 . S
C356 C357 1.379 . S
C357 H335 0.948 . S
C357 C352 1.364 . S
C357 C356 1.379 . S
C358 C327 1.383 . S
C358 C345 1.479 . S
C358 C359 1.397 1_556 S
C359 C324 1.382 . S
C359 H336 0.952 . S
C359 C358 1.397 1_554 S
C360 C361 1.383 1_554 S
C360 H373 0.950 . S
C360 C395 1.382 . S
C361 C360 1.383 1_556 S
C361 C362 1.378 . S
C362 C361 1.378 . S
C362 C363 1.378 . S
C362 H374 0.952 . S
C363 C362 1.378 . S
C363 H375 0.950 . S
C363 C394 1.383 . S
H364 C383 0.947 . S
H365 C384 0.946 . S
H366 C386 0.953 . S
H367 C387 0.945 . S
H368 C389 0.952 1_554 S
H369 C390 0.949 . S
H370 C392 0.950 . S
H371 C393 0.948 . S
H372 C395 0.952 . S
H373 C360 0.950 . S
H374 C362 0.952 . S
H375 C363 0.950 . S
N376 C379 1.382 . S
N376 C381 1.363 . S
N377 C379 1.371 . S
N377 C380 1.372 . S
N378 C380 1.361 . S
N378 C381 1.377 . S
C379 N376 1.382 . S
C379 N377 1.371 . S
C379 C382 1.480 . S
C380 N377 1.372 . S
C380 N378 1.361 . S
C380 C388 1.457 . S
C381 N376 1.363 . S
C381 N378 1.377 . S
C381 C394 1.479 . S
C382 C379 1.480 . S
C382 C383 1.383 . S
C382 C387 1.385 . S
C383 H364 0.947 . S
C383 C382 1.383 . S
C383 C384 1.388 1_556 S
C384 H365 0.946 . S
C384 C383 1.388 1_554 S
C384 C385 1.384 1_554 S
C385 C384 1.384 1_556 S
C385 C386 1.377 . S
C386 H366 0.953 . S
C386 C385 1.377 . S
C386 C387 1.369 . S
C387 H367 0.945 . S
C387 C382 1.385 . S
C387 C386 1.369 . S
C388 C380 1.457 . S
C388 C389 1.372 . S
C388 C393 1.364 . S
C389 H368 0.952 1_556 S
C389 C388 1.372 . S
C389 C390 1.388 1_556 S
C390 H369 0.949 . S
C390 C389 1.388 1_554 S
C390 C391 1.387 1_554 S
C391 C390 1.387 1_556 S
C391 C392 1.372 . S
C392 H370 0.950 . S
C392 C391 1.372 . S
C392 C393 1.379 . S
C393 H371 0.948 . S
C393 C388 1.364 . S
C393 C392 1.379 . S
C394 C363 1.383 . S
C394 C381 1.479 . S
C394 C395 1.397 1_556 S
C395 C360 1.382 . S
C395 H372 0.952 . S
C395 C394 1.397 1_554 S
C396 C397 1.382 1_554 S
C396 H409 0.950 . S
C396 C431 1.382 . S
C397 C396 1.382 1_556 S
C397 C398 1.378 . S
C398 C397 1.378 . S
C398 C399 1.378 . S
C398 H410 0.952 . S
C399 C398 1.378 . S
C399 H411 0.950 . S
C399 C430 1.383 . S
H400 C419 0.947 . S
H401 C420 0.946 . S
H402 C422 0.953 . S
H403 C423 0.945 . S
H404 C425 0.952 1_554 S
H405 C426 0.949 . S
H406 C428 0.950 . S
H407 C429 0.948 . S
H408 C431 0.953 . S
H409 C396 0.950 . S
H410 C398 0.952 . S
H411 C399 0.950 . S
N412 C415 1.382 . S
N412 C417 1.363 . S
N413 C415 1.371 . S
N413 C416 1.372 . S
N414 C416 1.361 . S
N414 C417 1.377 . S
C415 N412 1.382 . S
C415 N413 1.371 . S
C415 C418 1.480 . S
C416 N413 1.372 . S
C416 N414 1.361 . S
C416 C424 1.457 . S
C417 N412 1.363 . S
C417 N414 1.377 . S
C417 C430 1.479 . S
C418 C415 1.480 . S
C418 C419 1.383 . S
C418 C423 1.385 . S
C419 H400 0.947 . S
C419 C418 1.383 . S
C419 C420 1.388 1_556 S
C420 H401 0.946 . S
C420 C419 1.388 1_554 S
C420 C421 1.384 1_554 S
C421 C420 1.384 1_556 S
C421 C422 1.377 . S
C422 H402 0.953 . S
C422 C421 1.377 . S
C422 C423 1.369 . S
C423 H403 0.945 . S
C423 C418 1.385 . S
C423 C422 1.369 . S
C424 C416 1.457 . S
C424 C425 1.372 . S
C424 C429 1.364 . S
C425 H404 0.952 1_556 S
C425 C424 1.372 . S
C425 C426 1.388 1_556 S
C426 H405 0.949 . S
C426 C425 1.388 1_554 S
C426 C427 1.387 1_554 S
C427 C426 1.387 1_556 S
C427 C428 1.372 . S
C428 H406 0.950 . S
C428 C427 1.372 . S
C428 C429 1.379 . S
C429 H407 0.948 . S
C429 C424 1.364 . S
C429 C428 1.379 . S
C430 C399 1.383 . S
C430 C417 1.479 . S
C430 C431 1.397 1_556 S
C431 C396 1.382 . S
C431 H408 0.953 . S
C431 C430 1.397 1_554 S
C432 C433 1.384 . S
C432 H445 0.947 . S
C432 C467 1.382 . S
C433 C432 1.384 . S
C433 C434 1.378 . S
C434 C433 1.378 . S
C434 C435 1.378 . S
C434 H446 0.952 . S
C435 C434 1.378 . S
C435 H447 0.950 . S
C435 C466 1.383 . S
H436 C455 0.947 . S
H437 C456 0.946 . S
H438 C458 0.953 . S
H439 C459 0.945 . S
H440 C461 0.952 . S
H441 C462 0.949 . S
H442 C464 0.950 . S
H443 C465 0.948 . S
H444 C467 0.951 . S
H445 C432 0.947 . S
H446 C434 0.952 . S
H447 C435 0.950 . S
N448 C451 1.382 . S
N448 C453 1.363 . S
N449 C451 1.371 . S
N449 C452 1.372 . S
N450 C452 1.361 . S
N450 C453 1.377 . S
C451 N448 1.382 . S
C451 N449 1.371 . S
C451 C454 1.480 . S
C452 N449 1.372 . S
C452 N450 1.361 . S
C452 C460 1.457 . S
C453 N448 1.363 . S
C453 N450 1.377 . S
C453 C466 1.479 . S
C454 C451 1.480 . S
C454 C455 1.383 . S
C454 C459 1.385 . S
C455 H436 0.947 . S
C455 C454 1.383 . S
C455 C456 1.388 . S
C456 H437 0.946 . S
C456 C455 1.388 . S
C456 C457 1.384 . S
C457 C456 1.384 . S
C457 C458 1.377 . S
C458 H438 0.953 . S
C458 C457 1.377 . S
C458 C459 1.369 . S
C459 H439 0.945 . S
C459 C454 1.385 . S
C459 C458 1.369 . S
C460 C452 1.457 . S
C460 C461 1.372 . S
C460 C465 1.364 . S
C461 H440 0.952 . S
C461 C460 1.372 . S
C461 C462 1.389 . S
C462 H441 0.949 . S
C462 C461 1.389 . S
C462 C463 1.387 . S
C463 C462 1.387 . S
C463 C464 1.372 . S
C464 H442 0.950 . S
C464 C463 1.372 . S
C464 C465 1.379 . S
C465 H443 0.948 . S
C465 C460 1.364 . S
C465 C464 1.379 . S
C466 C435 1.383 . S
C466 C453 1.479 . S
C466 C467 1.398 . S
C467 C432 1.382 . S
C467 H444 0.951 . S
C467 C466 1.398 . S
C468 C469 1.384 . S
C468 H481 0.947 . S
C468 C503 1.382 . S
C469 C468 1.384 . S
C469 C470 1.378 . S
C470 C469 1.378 . S
C470 C471 1.378 . S
C470 H482 0.952 . S
C471 C470 1.378 . S
C471 H483 0.950 . S
C471 C502 1.383 . S
H472 C491 0.947 . S
H473 C492 0.946 . S
H474 C494 0.953 . S
H475 C495 0.945 . S
H476 C497 0.952 . S
H477 C498 0.949 . S
H478 C500 0.950 . S
H479 C501 0.948 . S
H480 C503 0.951 . S
H481 C468 0.947 . S
H482 C470 0.952 . S
H483 C471 0.950 . S
N484 C487 1.382 . S
N484 C489 1.363 . S
N485 C487 1.371 . S
N485 C488 1.372 . S
N486 C488 1.361 . S
N486 C489 1.377 . S
C487 N484 1.382 . S
C487 N485 1.371 . S
C487 C490 1.480 . S
C488 N485 1.372 . S
C488 N486 1.361 . S
C488 C496 1.457 . S
C489 N484 1.363 . S
C489 N486 1.377 . S
C489 C502 1.479 . S
C490 C487 1.480 . S
C490 C491 1.383 . S
C490 C495 1.385 . S
C491 H472 0.947 . S
C491 C490 1.383 . S
C491 C492 1.388 . S
C492 H473 0.946 . S
C492 C491 1.388 . S
C492 C493 1.384 . S
C493 C492 1.384 . S
C493 C494 1.377 . S
C494 H474 0.953 . S
C494 C493 1.377 . S
C494 C495 1.369 . S
C495 H475 0.945 . S
C495 C490 1.385 . S
C495 C494 1.369 . S
C496 C488 1.457 . S
C496 C497 1.372 . S
C496 C501 1.364 . S
C497 H476 0.952 . S
C497 C496 1.372 . S
C497 C498 1.389 . S
C498 H477 0.949 . S
C498 C497 1.389 . S
C498 C499 1.387 . S
C499 C498 1.387 . S
C499 C500 1.372 . S
C500 H478 0.950 . S
C500 C499 1.372 . S
C500 C501 1.379 . S
C501 H479 0.948 . S
C501 C496 1.364 . S
C501 C500 1.379 . S
C502 C471 1.383 . S
C502 C489 1.479 . S
C502 C503 1.398 . S
C503 C468 1.382 . S
C503 H480 0.951 . S
C503 C502 1.398 . S
C504 C505 1.384 . S
C504 H517 0.947 . S
C504 C539 1.382 . S
C505 C504 1.384 . S
C505 C506 1.378 . S
C506 C505 1.378 . S
C506 C507 1.378 . S
C506 H518 0.952 . S
C507 C506 1.378 . S
C507 H519 0.950 . S
C507 C538 1.383 . S
H508 C527 0.947 . S
H509 C528 0.946 . S
H510 C530 0.953 . S
H511 C531 0.945 . S
H512 C533 0.952 . S
H513 C534 0.949 . S
H514 C536 0.950 . S
H515 C537 0.948 . S
H516 C539 0.951 . S
H517 C504 0.947 . S
H518 C506 0.952 . S
H519 C507 0.950 . S
N520 C523 1.382 . S
N520 C525 1.363 . S
N521 C523 1.371 . S
N521 C524 1.372 . S
N522 C524 1.361 . S
N522 C525 1.377 . S
C523 N520 1.382 . S
C523 N521 1.371 . S
C523 C526 1.480 . S
C524 N521 1.372 . S
C524 N522 1.361 . S
C524 C532 1.457 . S
C525 N520 1.363 . S
C525 N522 1.377 . S
C525 C538 1.479 . S
C526 C523 1.480 . S
C526 C527 1.383 . S
C526 C531 1.385 . S
C527 H508 0.947 . S
C527 C526 1.383 . S
C527 C528 1.388 . S
C528 H509 0.946 . S
C528 C527 1.388 . S
C528 C529 1.384 . S
C529 C528 1.384 . S
C529 C530 1.377 . S
C530 H510 0.953 . S
C530 C529 1.377 . S
C530 C531 1.369 . S
C531 H511 0.945 . S
C531 C526 1.385 . S
C531 C530 1.369 . S
C532 C524 1.457 . S
C532 C533 1.372 . S
C532 C537 1.364 . S
C533 H512 0.952 . S
C533 C532 1.372 . S
C533 C534 1.389 . S
C534 H513 0.949 . S
C534 C533 1.389 . S
C534 C535 1.387 . S
C535 C534 1.387 . S
C535 C536 1.372 . S
C536 H514 0.950 . S
C536 C535 1.372 . S
C536 C537 1.379 . S
C537 H515 0.948 . S
C537 C532 1.364 . S
C537 C536 1.379 . S
C538 C507 1.383 . S
C538 C525 1.479 . S
C538 C539 1.398 . S
C539 C504 1.382 . S
C539 H516 0.951 . S
C539 C538 1.398 . S
C540 C541 1.384 . S
C540 H553 0.947 . S
C540 C575 1.382 . S
C541 C540 1.384 . S
C541 C542 1.378 . S
C542 C541 1.378 . S
C542 C543 1.378 . S
C542 H554 0.952 . S
C543 C542 1.378 . S
C543 H555 0.950 . S
C543 C574 1.383 . S
H544 C563 0.947 . S
H545 C564 0.946 . S
H546 C566 0.953 . S
H547 C567 0.945 . S
H548 C569 0.952 . S
H549 C570 0.949 . S
H550 C572 0.950 . S
H551 C573 0.948 . S
H552 C575 0.951 . S
H553 C540 0.947 . S
H554 C542 0.952 . S
H555 C543 0.950 . S
N556 C559 1.382 . S
N556 C561 1.363 . S
N557 C559 1.371 . S
N557 C560 1.372 . S
N558 C560 1.361 . S
N558 C561 1.377 . S
C559 N556 1.382 . S
C559 N557 1.371 . S
C559 C562 1.480 . S
C560 N557 1.372 . S
C560 N558 1.361 . S
C560 C568 1.457 . S
C561 N556 1.363 . S
C561 N558 1.377 . S
C561 C574 1.479 . S
C562 C559 1.480 . S
C562 C563 1.383 . S
C562 C567 1.385 . S
C563 H544 0.947 . S
C563 C562 1.383 . S
C563 C564 1.388 . S
C564 H545 0.946 . S
C564 C563 1.388 . S
C564 C565 1.384 . S
C565 C564 1.384 . S
C565 C566 1.377 . S
C566 H546 0.953 . S
C566 C565 1.377 . S
C566 C567 1.369 . S
C567 H547 0.945 . S
C567 C562 1.385 . S
C567 C566 1.369 . S
C568 C560 1.457 . S
C568 C569 1.372 . S
C568 C573 1.364 . S
C569 H548 0.952 . S
C569 C568 1.372 . S
C569 C570 1.389 . S
C570 H549 0.949 . S
C570 C569 1.389 . S
C570 C571 1.387 . S
C571 C570 1.387 . S
C571 C572 1.372 . S
C572 H550 0.950 . S
C572 C571 1.372 . S
C572 C573 1.379 . S
C573 H551 0.948 . S
C573 C568 1.364 . S
C573 C572 1.379 . S
C574 C543 1.383 . S
C574 C561 1.479 . S
C574 C575 1.398 . S
C575 C540 1.382 . S
C575 H552 0.951 . S
C575 C574 1.398 . S
C576 C577 1.384 . S
C576 H589 0.947 . S
C576 C611 1.382 . S
C577 C576 1.384 . S
C577 C578 1.378 . S
C578 C577 1.378 . S
C578 C579 1.378 . S
C578 H590 0.952 . S
C579 C578 1.378 . S
C579 H591 0.950 . S
C579 C610 1.383 . S
H580 C599 0.947 . S
H581 C600 0.946 . S
H582 C602 0.953 . S
H583 C603 0.945 . S
H584 C605 0.952 . S
H585 C606 0.949 . S
H586 C608 0.950 . S
H587 C609 0.948 . S
H588 C611 0.951 . S
H589 C576 0.947 . S
H590 C578 0.952 . S
H591 C579 0.950 . S
N592 C595 1.382 . S
N592 C597 1.363 . S
N593 C595 1.371 . S
N593 C596 1.372 . S
N594 C596 1.361 . S
N594 C597 1.377 . S
C595 N592 1.382 . S
C595 N593 1.371 . S
C595 C598 1.480 . S
C596 N593 1.372 . S
C596 N594 1.361 . S
C596 C604 1.457 . S
C597 N592 1.363 . S
C597 N594 1.377 . S
C597 C610 1.479 . S
C598 C595 1.480 . S
C598 C599 1.383 . S
C598 C603 1.385 . S
C599 H580 0.947 . S
C599 C598 1.383 . S
C599 C600 1.388 . S
C600 H581 0.946 . S
C600 C599 1.388 . S
C600 C601 1.384 . S
C601 C600 1.384 . S
C601 C602 1.377 . S
C602 H582 0.953 . S
C602 C601 1.377 . S
C602 C603 1.369 . S
C603 H583 0.945 . S
C603 C598 1.385 . S
C603 C602 1.369 . S
C604 C596 1.457 . S
C604 C605 1.372 . S
C604 C609 1.364 . S
C605 H584 0.952 . S
C605 C604 1.372 . S
C605 C606 1.389 . S
C606 H585 0.949 . S
C606 C605 1.389 . S
C606 C607 1.387 . S
C607 C606 1.387 . S
C607 C608 1.372 . S
C608 H586 0.950 . S
C608 C607 1.372 . S
C608 C609 1.379 . S
C609 H587 0.948 . S
C609 C604 1.364 . S
C609 C608 1.379 . S
C610 C579 1.383 . S
C610 C597 1.479 . S
C610 C611 1.398 . S
C611 C576 1.382 . S
C611 H588 0.951 . S
C611 C610 1.398 . S
C612 C613 1.384 . S
C612 H625 0.947 . S
C612 C647 1.382 . S
C613 C612 1.384 . S
C613 C614 1.378 . S
C614 C613 1.378 . S
C614 C615 1.378 . S
C614 H626 0.952 . S
C615 C614 1.378 . S
C615 H627 0.950 . S
C615 C646 1.383 . S
H616 C635 0.947 . S
H617 C636 0.946 . S
H618 C638 0.953 . S
H619 C639 0.945 . S
H620 C641 0.952 . S
H621 C642 0.949 . S
H622 C644 0.950 . S
H623 C645 0.948 . S
H624 C647 0.951 . S
H625 C612 0.947 . S
H626 C614 0.952 . S
H627 C615 0.950 . S
N628 C631 1.382 . S
N628 C633 1.363 . S
N629 C631 1.371 . S
N629 C632 1.372 . S
N630 C632 1.361 . S
N630 C633 1.377 . S
C631 N628 1.382 . S
C631 N629 1.371 . S
C631 C634 1.480 . S
C632 N629 1.372 . S
C632 N630 1.361 . S
C632 C640 1.457 . S
C633 N628 1.363 . S
C633 N630 1.377 . S
C633 C646 1.479 . S
C634 C631 1.480 . S
C634 C635 1.383 . S
C634 C639 1.385 . S
C635 H616 0.947 . S
C635 C634 1.383 . S
C635 C636 1.388 . S
C636 H617 0.946 . S
C636 C635 1.388 . S
C636 C637 1.384 . S
C637 C636 1.384 . S
C637 C638 1.377 . S
C638 H618 0.953 . S
C638 C637 1.377 . S
C638 C639 1.369 . S
C639 H619 0.945 . S
C639 C634 1.385 . S
C639 C638 1.369 . S
C640 C632 1.457 . S
C640 C641 1.372 . S
C640 C645 1.364 . S
C641 H620 0.952 . S
C641 C640 1.372 . S
C641 C642 1.389 . S
C642 H621 0.949 . S
C642 C641 1.389 . S
C642 C643 1.387 . S
C643 C642 1.387 . S
C643 C644 1.372 . S
C644 H622 0.950 . S
C644 C643 1.372 . S
C644 C645 1.379 . S
C645 H623 0.948 . S
C645 C640 1.364 . S
C645 C644 1.379 . S
C646 C615 1.383 . S
C646 C633 1.479 . S
C646 C647 1.398 . S
C647 C612 1.382 . S
C647 H624 0.951 . S
C647 C646 1.398 . S
C648 C649 1.384 . S
C648 H661 0.947 . S
C648 C683 1.382 . S
C649 C648 1.384 . S
C649 C650 1.378 . S
C650 C649 1.378 . S
C650 C651 1.378 . S
C650 H662 0.952 . S
C651 C650 1.378 . S
C651 H663 0.950 . S
C651 C682 1.383 . S
H652 C671 0.947 . S
H653 C672 0.946 . S
H654 C674 0.953 . S
H655 C675 0.945 . S
H656 C677 0.952 . S
H657 C678 0.949 . S
H658 C680 0.950 . S
H659 C681 0.948 . S
H660 C683 0.951 . S
H661 C648 0.947 . S
H662 C650 0.952 . S
H663 C651 0.950 . S
N664 C667 1.382 . S
N664 C669 1.363 . S
N665 C667 1.371 . S
N665 C668 1.372 . S
N666 C668 1.361 . S
N666 C669 1.377 . S
C667 N664 1.382 . S
C667 N665 1.371 . S
C667 C670 1.480 . S
C668 N665 1.372 . S
C668 N666 1.361 . S
C668 C676 1.457 . S
C669 N664 1.363 . S
C669 N666 1.377 . S
C669 C682 1.479 . S
C670 C667 1.480 . S
C670 C671 1.383 . S
C670 C675 1.385 . S
C671 H652 0.947 . S
C671 C670 1.383 . S
C671 C672 1.388 . S
C672 H653 0.946 . S
C672 C671 1.388 . S
C672 C673 1.384 . S
C673 C672 1.384 . S
C673 C674 1.377 . S
C674 H654 0.953 . S
C674 C673 1.377 . S
C674 C675 1.369 . S
C675 H655 0.945 . S
C675 C670 1.385 . S
C675 C674 1.369 . S
C676 C668 1.457 . S
C676 C677 1.372 . S
C676 C681 1.364 . S
C677 H656 0.952 . S
C677 C676 1.372 . S
C677 C678 1.389 . S
C678 H657 0.949 . S
C678 C677 1.389 . S
C678 C679 1.387 . S
C679 C678 1.387 . S
C679 C680 1.372 . S
C680 H658 0.950 . S
C680 C679 1.372 . S
C680 C681 1.379 . S
C681 H659 0.948 . S
C681 C676 1.364 . S
C681 C680 1.379 . S
C682 C651 1.383 . S
C682 C669 1.479 . S
C682 C683 1.398 . S
C683 C648 1.382 . S
C683 H660 0.951 . S
C683 C682 1.398 . S
C684 C685 1.384 . S
C684 H697 0.947 . S
C684 C719 1.382 . S
C685 C684 1.384 . S
C685 C686 1.378 . S
C686 C685 1.378 . S
C686 C687 1.378 . S
C686 H698 0.952 . S
C687 C686 1.378 . S
C687 H699 0.950 . S
C687 C718 1.383 . S
H688 C707 0.947 . S
H689 C708 0.946 . S
H690 C710 0.953 . S
H691 C711 0.945 . S
H692 C713 0.952 . S
H693 C714 0.949 . S
H694 C716 0.950 . S
H695 C717 0.948 . S
H696 C719 0.951 . S
H697 C684 0.947 . S
H698 C686 0.952 . S
H699 C687 0.950 . S
N700 C703 1.382 . S
N700 C705 1.363 . S
N701 C703 1.371 . S
N701 C704 1.372 . S
N702 C704 1.361 . S
N702 C705 1.377 . S
C703 N700 1.382 . S
C703 N701 1.371 . S
C703 C706 1.480 . S
C704 N701 1.372 . S
C704 N702 1.361 . S
C704 C712 1.457 . S
C705 N700 1.363 . S
C705 N702 1.377 . S
C705 C718 1.479 . S
C706 C703 1.480 . S
C706 C707 1.383 . S
C706 C711 1.385 . S
C707 H688 0.947 . S
C707 C706 1.383 . S
C707 C708 1.388 . S
C708 H689 0.946 . S
C708 C707 1.388 . S
C708 C709 1.384 . S
C709 C708 1.384 . S
C709 C710 1.377 . S
C710 H690 0.953 . S
C710 C709 1.377 . S
C710 C711 1.369 . S
C711 H691 0.945 . S
C711 C706 1.385 . S
C711 C710 1.369 . S
C712 C704 1.457 . S
C712 C713 1.372 . S
C712 C717 1.364 . S
C713 H692 0.952 . S
C713 C712 1.372 . S
C713 C714 1.389 . S
C714 H693 0.949 . S
C714 C713 1.389 . S
C714 C715 1.387 . S
C715 C714 1.387 . S
C715 C716 1.372 . S
C716 H694 0.950 . S
C716 C715 1.372 . S
C716 C717 1.379 . S
C717 H695 0.948 . S
C717 C712 1.364 . S
C717 C716 1.379 . S
C718 C687 1.383 . S
C718 C705 1.479 . S
C718 C719 1.398 . S
C719 C684 1.382 . S
C719 H696 0.951 . S
C719 C718 1.398 . S
C720 C721 1.384 . S
C720 H733 0.947 . S
C720 C755 1.382 . S
C721 C720 1.384 . S
C721 C722 1.378 . S
C722 C721 1.378 . S
C722 C723 1.378 . S
C722 H734 0.952 . S
C723 C722 1.378 . S
C723 H735 0.950 . S
C723 C754 1.383 . S
H724 C743 0.947 . S
H725 C744 0.946 . S
H726 C746 0.953 . S
H727 C747 0.945 . S
H728 C749 0.952 . S
H729 C750 0.949 . S
H730 C752 0.950 . S
H731 C753 0.948 . S
H732 C755 0.951 . S
H733 C720 0.947 . S
H734 C722 0.952 . S
H735 C723 0.950 . S
N736 C739 1.382 . S
N736 C741 1.363 . S
N737 C739 1.371 . S
N737 C740 1.372 . S
N738 C740 1.361 . S
N738 C741 1.377 . S
C739 N736 1.382 . S
C739 N737 1.371 . S
C739 C742 1.480 . S
C740 N737 1.372 . S
C740 N738 1.361 . S
C740 C748 1.457 . S
C741 N736 1.363 . S
C741 N738 1.377 . S
C741 C754 1.479 . S
C742 C739 1.480 . S
C742 C743 1.383 . S
C742 C747 1.385 . S
C743 H724 0.947 . S
C743 C742 1.383 . S
C743 C744 1.388 . S
C744 H725 0.946 . S
C744 C743 1.388 . S
C744 C745 1.384 . S
C745 C744 1.384 . S
C745 C746 1.377 . S
C746 H726 0.953 . S
C746 C745 1.377 . S
C746 C747 1.369 . S
C747 H727 0.945 . S
C747 C742 1.385 . S
C747 C746 1.369 . S
C748 C740 1.457 . S
C748 C749 1.372 . S
C748 C753 1.364 . S
C749 H728 0.952 . S
C749 C748 1.372 . S
C749 C750 1.389 . S
C750 H729 0.949 . S
C750 C749 1.389 . S
C750 C751 1.387 . S
C751 C750 1.387 . S
C751 C752 1.372 . S
C752 H730 0.950 . S
C752 C751 1.372 . S
C752 C753 1.379 . S
C753 H731 0.948 . S
C753 C748 1.364 . S
C753 C752 1.379 . S
C754 C723 1.383 . S
C754 C741 1.479 . S
C754 C755 1.398 . S
C755 C720 1.382 . S
C755 H732 0.951 . S
C755 C754 1.398 . S
C756 C757 1.384 . S
C756 H769 0.947 . S
C756 C791 1.382 . S
C757 C756 1.384 . S
C757 C758 1.378 . S
C758 C757 1.378 . S
C758 C759 1.378 . S
C758 H770 0.952 . S
C759 C758 1.378 . S
C759 H771 0.950 . S
C759 C790 1.383 . S
H760 C779 0.947 . S
H761 C780 0.946 . S
H762 C782 0.953 . S
H763 C783 0.945 . S
H764 C785 0.952 . S
H765 C786 0.949 . S
H766 C788 0.950 . S
H767 C789 0.948 . S
H768 C791 0.951 . S
H769 C756 0.947 . S
H770 C758 0.952 . S
H771 C759 0.950 . S
N772 C775 1.382 . S
N772 C777 1.363 . S
N773 C775 1.371 . S
N773 C776 1.372 . S
N774 C776 1.361 . S
N774 C777 1.377 . S
C775 N772 1.382 . S
C775 N773 1.371 . S
C775 C778 1.480 . S
C776 N773 1.372 . S
C776 N774 1.361 . S
C776 C784 1.457 . S
C777 N772 1.363 . S
C777 N774 1.377 . S
C777 C790 1.479 . S
C778 C775 1.480 . S
C778 C779 1.383 . S
C778 C783 1.385 . S
C779 H760 0.947 . S
C779 C778 1.383 . S
C779 C780 1.388 . S
C780 H761 0.946 . S
C780 C779 1.388 . S
C780 C781 1.384 . S
C781 C780 1.384 . S
C781 C782 1.377 . S
C782 H762 0.953 . S
C782 C781 1.377 . S
C782 C783 1.369 . S
C783 H763 0.945 . S
C783 C778 1.385 . S
C783 C782 1.369 . S
C784 C776 1.457 . S
C784 C785 1.372 . S
C784 C789 1.364 . S
C785 H764 0.952 . S
C785 C784 1.372 . S
C785 C786 1.389 . S
C786 H765 0.949 . S
C786 C785 1.389 . S
C786 C787 1.387 . S
C787 C786 1.387 . S
C787 C788 1.372 . S
C788 H766 0.950 . S
C788 C787 1.372 . S
C788 C789 1.379 . S
C789 H767 0.948 . S
C789 C784 1.364 . S
C789 C788 1.379 . S
C790 C759 1.383 . S
C790 C777 1.479 . S
C790 C791 1.398 . S
C791 C756 1.382 . S
C791 H768 0.951 . S
C791 C790 1.398 . S
C792 C793 1.384 . S
C792 H805 0.947 . S
C792 C827 1.382 . S
C793 C792 1.384 . S
C793 C794 1.378 . S
C794 C793 1.378 . S
C794 C795 1.378 . S
C794 H806 0.952 . S
C795 C794 1.378 . S
C795 H807 0.950 . S
C795 C826 1.383 . S
H796 C815 0.947 . S
H797 C816 0.946 . S
H798 C818 0.953 . S
H799 C819 0.945 . S
H800 C821 0.952 . S
H801 C822 0.949 . S
H802 C824 0.950 . S
H803 C825 0.948 . S
H804 C827 0.951 . S
H805 C792 0.947 . S
H806 C794 0.952 . S
H807 C795 0.950 . S
N808 C811 1.382 . S
N808 C813 1.363 . S
N809 C811 1.371 . S
N809 C812 1.372 . S
N810 C812 1.361 . S
N810 C813 1.377 . S
C811 N808 1.382 . S
C811 N809 1.371 . S
C811 C814 1.480 . S
C812 N809 1.372 . S
C812 N810 1.361 . S
C812 C820 1.457 . S
C813 N808 1.363 . S
C813 N810 1.377 . S
C813 C826 1.479 . S
C814 C811 1.480 . S
C814 C815 1.383 . S
C814 C819 1.385 . S
C815 H796 0.947 . S
C815 C814 1.383 . S
C815 C816 1.388 . S
C816 H797 0.946 . S
C816 C815 1.388 . S
C816 C817 1.384 . S
C817 C816 1.384 . S
C817 C818 1.377 . S
C818 H798 0.953 . S
C818 C817 1.377 . S
C818 C819 1.369 . S
C819 H799 0.945 . S
C819 C814 1.385 . S
C819 C818 1.369 . S
C820 C812 1.457 . S
C820 C821 1.372 . S
C820 C825 1.364 . S
C821 H800 0.952 . S
C821 C820 1.372 . S
C821 C822 1.389 . S
C822 H801 0.949 . S
C822 C821 1.389 . S
C822 C823 1.387 . S
C823 C822 1.387 . S
C823 C824 1.372 . S
C824 H802 0.950 . S
C824 C823 1.372 . S
C824 C825 1.379 . S
C825 H803 0.948 . S
C825 C820 1.364 . S
C825 C824 1.379 . S
C826 C795 1.383 . S
C826 C813 1.479 . S
C826 C827 1.398 . S
C827 C792 1.382 . S
C827 H804 0.951 . S
C827 C826 1.398 . S
C828 C829 1.384 . S
C828 H841 0.947 . S
C828 C863 1.382 . S
C829 C828 1.384 . S
C829 C830 1.378 . S
C830 C829 1.378 . S
C830 C831 1.378 . S
C830 H842 0.952 . S
C831 C830 1.378 . S
C831 H843 0.950 . S
C831 C862 1.383 . S
H832 C851 0.947 . S
H833 C852 0.946 . S
H834 C854 0.953 . S
H835 C855 0.945 . S
H836 C857 0.952 . S
H837 C858 0.949 . S
H838 C860 0.950 . S
H839 C861 0.948 . S
H840 C863 0.951 . S
H841 C828 0.947 . S
H842 C830 0.952 . S
H843 C831 0.950 . S
N844 C847 1.382 . S
N844 C849 1.363 . S
N845 C847 1.371 . S
N845 C848 1.372 . S
N846 C848 1.361 . S
N846 C849 1.377 . S
C847 N844 1.382 . S
C847 N845 1.371 . S
C847 C850 1.480 . S
C848 N845 1.372 . S
C848 N846 1.361 . S
C848 C856 1.457 . S
C849 N844 1.363 . S
C849 N846 1.377 . S
C849 C862 1.479 . S
C850 C847 1.480 . S
C850 C851 1.383 . S
C850 C855 1.385 . S
C851 H832 0.947 . S
C851 C850 1.383 . S
C851 C852 1.388 . S
C852 H833 0.946 . S
C852 C851 1.388 . S
C852 C853 1.384 . S
C853 C852 1.384 . S
C853 C854 1.377 . S
C854 H834 0.953 . S
C854 C853 1.377 . S
C854 C855 1.369 . S
C855 H835 0.945 . S
C855 C850 1.385 . S
C855 C854 1.369 . S
C856 C848 1.457 . S
C856 C857 1.372 . S
C856 C861 1.364 . S
C857 H836 0.952 . S
C857 C856 1.372 . S
C857 C858 1.389 . S
C858 H837 0.949 . S
C858 C857 1.389 . S
C858 C859 1.387 . S
C859 C858 1.387 . S
C859 C860 1.372 . S
C860 H838 0.950 . S
C860 C859 1.372 . S
C860 C861 1.379 . S
C861 H839 0.948 . S
C861 C856 1.364 . S
C861 C860 1.379 . S
C862 C831 1.383 . S
C862 C849 1.479 . S
C862 C863 1.398 . S
C863 C828 1.382 . S
C863 H840 0.951 . S
C863 C862 1.398 . S
C864 O890 1.283 . S
C864 O908 1.283 . S
C865 O891 1.283 . S
C865 O906 1.283 . S
C866 O892 1.283 . S
C866 O909 1.283 . S
C867 O893 1.283 . S
C867 O907 1.283 . S
C868 O894 1.283 . S
C868 O903 1.283 . S
C869 O895 1.283 . S
C869 O905 1.283 . S
C870 O896 1.283 . S
C870 O902 1.283 . S
C871 O897 1.283 . S
C871 O904 1.283 . S
C872 O898 1.283 . S
C872 O913 1.283 . S
C873 O899 1.283 . S
C873 O911 1.283 . S
C874 O900 1.283 . S
C874 O912 1.283 . S
C875 O901 1.283 . S
C875 O910 1.283 . S
Eu876 O877 2.366 1_455 S
Eu876 O878 2.374 . S
Eu876 O881 2.366 1_455 S
Eu876 O882 2.374 . S
Eu876 O890 2.363 . S
Eu876 O891 2.363 . S
Eu876 O904 2.369 . S
Eu876 O905 2.357 1_455 S
O877 Eu876 2.366 1_655 S
O877 Eu879 2.369 1_565 S
O877 Eu884 2.365 1_665 S
O878 Eu876 2.374 . S
O878 Eu880 2.368 1_565 S
O878 Eu883 2.372 1_565 S
Eu879 O877 2.369 1_545 S
Eu879 O881 2.369 1_545 S
Eu879 O885 2.371 . S
Eu879 O886 2.371 . S
Eu879 O894 2.365 . S
Eu879 O895 2.361 1_545 S
Eu879 O910 2.363 . S
Eu879 O911 2.363 . S
Eu880 O878 2.368 1_545 S
Eu880 O882 2.368 1_545 S
Eu880 O887 2.372 . S
Eu880 O888 2.372 . S
Eu880 O896 2.366 . S
Eu880 O897 2.360 1_545 S
Eu880 O912 2.363 . S
Eu880 O913 2.363 . S
O881 Eu876 2.366 1_655 S
O881 Eu879 2.369 1_565 S
O881 Eu883 2.365 1_665 S
O882 Eu876 2.374 . S
O882 Eu880 2.368 1_565 S
O882 Eu884 2.372 1_565 S
Eu883 O878 2.372 1_545 S
Eu883 O881 2.365 1_445 S
Eu883 O885 2.368 1_455 S
Eu883 O888 2.375 . S
Eu883 O900 2.369 . S
Eu883 O901 2.357 1_455 S
Eu883 O908 2.360 1_545 S
Eu883 O909 2.365 . S
Eu884 O877 2.365 1_445 S
Eu884 O882 2.372 1_545 S
Eu884 O886 2.368 1_455 S
Eu884 O887 2.375 . S
Eu884 O898 2.369 . S
Eu884 O899 2.357 1_455 S
Eu884 O906 2.360 1_545 S
Eu884 O907 2.365 . S
O885 Eu879 2.371 . S
O885 Eu883 2.368 1_655 S
O885 Eu889 2.367 1_655 S
O886 Eu879 2.371 . S
O886 Eu884 2.368 1_655 S
O886 Eu889 2.367 1_655 S
O887 Eu880 2.372 . S
O887 Eu884 2.375 . S
O887 Eu889 2.374 . S
O888 Eu880 2.372 . S
O888 Eu883 2.375 . S
O888 Eu889 2.374 . S
Eu889 O885 2.367 1_455 S
Eu889 O886 2.367 1_455 S
Eu889 O887 2.374 . S
Eu889 O888 2.374 . S
Eu889 O892 2.363 . S
Eu889 O893 2.363 . S
Eu889 O902 2.369 . S
Eu889 O903 2.357 1_455 S
O890 C864 1.283 . S
O890 Eu876 2.363 . S
O891 C865 1.283 . S
O891 Eu876 2.363 . S
O892 C866 1.283 . S
O892 Eu889 2.363 . S
O893 C867 1.283 . S
O893 Eu889 2.363 . S
O894 C868 1.283 . S
O894 Eu879 2.365 . S
O895 C869 1.283 . S
O895 Eu879 2.361 1_565 S
O896 C870 1.283 . S
O896 Eu880 2.366 . S
O897 C871 1.283 . S
O897 Eu880 2.360 1_565 S
O898 C872 1.283 . S
O898 Eu884 2.369 . S
O899 C873 1.283 . S
O899 Eu884 2.357 1_655 S
O900 C874 1.283 . S
O900 Eu883 2.369 . S
O901 C875 1.283 . S
O901 Eu883 2.357 1_655 S
O902 C870 1.283 . S
O902 Eu889 2.369 . S
O903 C868 1.283 . S
O903 Eu889 2.357 1_655 S
O904 C871 1.283 . S
O904 Eu876 2.369 . S
O905 C869 1.283 . S
O905 Eu876 2.357 1_655 S
O906 C865 1.283 . S
O906 Eu884 2.360 1_565 S
O907 C867 1.283 . S
O907 Eu884 2.365 . S
O908 C864 1.283 . S
O908 Eu883 2.360 1_565 S
O909 C866 1.283 . S
O909 Eu883 2.365 . S
O910 C875 1.283 . S
O910 Eu879 2.363 . S
O911 C873 1.283 . S
O911 Eu879 2.363 . S
O912 C874 1.283 . S
O912 Eu880 2.363 . S
O913 C872 1.283 . S
O913 Eu880 2.363 . S
C914 O940 1.283 . S
C914 O958 1.283 . S
C915 O941 1.283 . S
C915 O956 1.283 . S
C916 O942 1.283 . S
C916 O959 1.283 . S
C917 O943 1.283 . S
C917 O957 1.283 . S
C918 O944 1.283 . S
C918 O953 1.283 . S
C919 O945 1.283 . S
C919 O955 1.283 . S
C920 O946 1.283 . S
C920 O952 1.283 . S
C921 O947 1.283 . S
C921 O954 1.283 . S
C922 O948 1.283 . S
C922 O963 1.283 . S
C923 O949 1.283 . S
C923 O961 1.283 . S
C924 O950 1.283 . S
C924 O962 1.283 . S
C925 O951 1.283 . S
C925 O960 1.283 . S
Eu926 O927 2.370 . S
Eu926 O928 2.370 1_545 S
Eu926 O931 2.370 1_545 S
Eu926 O932 2.370 . S
Eu926 O940 2.363 1_545 S
Eu926 O941 2.363 . S
Eu926 O954 2.363 . S
Eu926 O955 2.363 . S
O927 Eu926 2.370 . S
O927 Eu929 2.384 . S
O927 Eu934 2.384 . S
O928 Eu926 2.370 1_565 S
O928 Eu930 2.384 1_565 S
O928 Eu933 2.384 . S
Eu929 O927 2.384 . S
Eu929 O931 2.384 1_545 S
Eu929 O935 2.356 1_544 S
Eu929 O936 2.356 1_554 S
Eu929 O944 2.340 1_554 S
Eu929 O945 2.386 . S
Eu929 O960 2.363 1_545 S
Eu929 O961 2.363 . S
Eu930 O928 2.384 1_545 S
Eu930 O932 2.384 . S
Eu930 O937 2.356 1_554 S
Eu930 O938 2.356 1_544 S
Eu930 O946 2.340 1_554 S
Eu930 O947 2.386 . S
Eu930 O962 2.363 1_545 S
Eu930 O963 2.363 . S
O931 Eu926 2.370 1_565 S
O931 Eu929 2.384 1_565 S
O931 Eu933 2.384 . S
O932 Eu926 2.370 . S
O932 Eu930 2.384 . S
O932 Eu934 2.384 . S
Eu933 O928 2.384 . S
Eu933 O931 2.384 . S
Eu933 O935 2.356 1_554 S
Eu933 O938 2.356 1_554 S
Eu933 O950 2.363 . S
Eu933 O951 2.363 . S
Eu933 O958 2.386 . S
Eu933 O959 2.340 1_554 S
Eu934 O927 2.384 . S
Eu934 O932 2.384 . S
Eu934 O936 2.356 1_554 S
Eu934 O937 2.356 1_554 S
Eu934 O948 2.363 . S
Eu934 O949 2.363 . S
Eu934 O956 2.386 . S
Eu934 O957 2.340 1_554 S
O935 Eu929 2.356 1_566 S
O935 Eu933 2.356 1_556 S
O935 Eu939 2.370 1_565 S
O936 Eu929 2.356 1_556 S
O936 Eu934 2.356 1_556 S
O936 Eu939 2.370 . S
O937 Eu930 2.356 1_556 S
O937 Eu934 2.356 1_556 S
O937 Eu939 2.370 . S
O938 Eu930 2.356 1_566 S
O938 Eu933 2.356 1_556 S
O938 Eu939 2.370 1_565 S
Eu939 O935 2.370 1_545 S
Eu939 O936 2.370 . S
Eu939 O937 2.370 . S
Eu939 O938 2.370 1_545 S
Eu939 O942 2.363 1_545 S
Eu939 O943 2.363 . S
Eu939 O952 2.363 . S
Eu939 O953 2.363 . S
O940 C914 1.283 . S
O940 Eu926 2.363 1_565 S
O941 C915 1.283 . S
O941 Eu926 2.363 . S
O942 C916 1.283 . S
O942 Eu939 2.363 1_565 S
O943 C917 1.283 . S
O943 Eu939 2.363 . S
O944 C918 1.283 . S
O944 Eu929 2.340 1_556 S
O945 C919 1.283 . S
O945 Eu929 2.386 . S
O946 C920 1.283 . S
O946 Eu930 2.340 1_556 S
O947 C921 1.283 . S
O947 Eu930 2.386 . S
O948 C922 1.283 . S
O948 Eu934 2.363 . S
O949 C923 1.283 . S
O949 Eu934 2.363 . S
O950 C924 1.283 . S
O950 Eu933 2.363 . S
O951 C925 1.283 . S
O951 Eu933 2.363 . S
O952 C920 1.283 . S
O952 Eu939 2.363 . S
O953 C918 1.283 . S
O953 Eu939 2.363 . S
O954 C921 1.283 . S
O954 Eu926 2.363 . S
O955 C919 1.283 . S
O955 Eu926 2.363 . S
O956 C915 1.283 . S
O956 Eu934 2.386 . S
O957 C917 1.283 . S
O957 Eu934 2.340 1_556 S
O958 C914 1.283 . S
O958 Eu933 2.386 . S
O959 C916 1.283 . S
O959 Eu933 2.340 1_556 S
O960 C925 1.283 . S
O960 Eu929 2.363 1_565 S
O961 C923 1.283 . S
O961 Eu929 2.363 . S
O962 C924 1.283 . S
O962 Eu930 2.363 1_565 S
O963 C922 1.283 . S
O963 Eu930 2.363 . S
C964 O990 1.283 . S
C964 O1008 1.283 . S
C965 O991 1.283 . S
C965 O1006 1.283 . S
C966 O992 1.283 . S
C966 O1009 1.283 . S
C967 O993 1.283 . S
C967 O1007 1.283 . S
C968 O994 1.283 . S
C968 O1003 1.283 . S
C969 O995 1.283 . S
C969 O1005 1.283 . S
C970 O996 1.283 . S
C970 O1002 1.283 . S
C971 O997 1.283 . S
C971 O1004 1.283 . S
C972 O998 1.283 . S
C972 O1013 1.283 . S
C973 O999 1.283 . S
C973 O1011 1.283 . S
C974 O1000 1.283 . S
C974 O1012 1.283 . S
C975 O1001 1.283 . S
C975 O1010 1.283 . S
Eu976 O977 2.355 1_454 S
Eu976 O978 2.385 . S
Eu976 O981 2.374 1_455 S
Eu976 O982 2.366 1_554 S
Eu976 O990 2.379 . S
Eu976 O991 2.347 1_554 S
Eu976 O1004 2.372 . S
Eu976 O1005 2.353 1_455 S
O977 Eu976 2.355 1_656 S
O977 Eu979 2.360 1_556 S
O977 Eu984 2.364 1_655 S
O978 Eu976 2.385 . S
O978 Eu980 2.380 . S
O978 Eu983 2.376 . S
Eu979 O977 2.360 1_554 S
Eu979 O981 2.380 . S
Eu979 O985 2.380 . S
Eu979 O986 2.360 1_554 S
Eu979 O994 2.363 . S
Eu979 O995 2.363 . S
Eu979 O1010 2.379 . S
Eu979 O1011 2.347 1_554 S
Eu980 O978 2.380 . S
Eu980 O982 2.360 1_554 S
Eu980 O987 2.360 1_554 S
Eu980 O988 2.380 . S
Eu980 O996 2.363 . S
Eu980 O997 2.363 . S
Eu980 O1012 2.379 . S
Eu980 O1013 2.347 1_554 S
O981 Eu976 2.374 1_655 S
O981 Eu979 2.380 . S
O981 Eu983 2.364 1_655 S
O982 Eu976 2.366 1_556 S
O982 Eu980 2.360 1_556 S
O982 Eu984 2.376 . S
Eu983 O978 2.376 . S
Eu983 O981 2.364 1_455 S
Eu983 O985 2.364 1_455 S
Eu983 O988 2.376 . S
Eu983 O1000 2.372 . S
Eu983 O1001 2.353 1_455 S
Eu983 O1008 2.363 . S
Eu983 O1009 2.363 . S
Eu984 O977 2.364 1_455 S
Eu984 O982 2.376 . S
Eu984 O986 2.364 1_455 S
Eu984 O987 2.376 . S
Eu984 O998 2.372 . S
Eu984 O999 2.353 1_455 S
Eu984 O1006 2.363 . S
Eu984 O1007 2.363 . S
O985 Eu979 2.380 . S
O985 Eu983 2.364 1_655 S
O985 Eu989 2.374 1_655 S
O986 Eu979 2.360 1_556 S
O986 Eu984 2.364 1_655 S
O986 Eu989 2.355 1_656 S
O987 Eu980 2.360 1_556 S
O987 Eu984 2.376 . S
O987 Eu989 2.366 1_556 S
O988 Eu980 2.380 . S
O988 Eu983 2.376 . S
O988 Eu989 2.385 . S
Eu989 O985 2.374 1_455 S
Eu989 O986 2.355 1_454 S
Eu989 O987 2.366 1_554 S
Eu989 O988 2.385 . S
Eu989 O992 2.379 . S
Eu989 O993 2.347 1_554 S
Eu989 O1002 2.373 . S
Eu989 O1003 2.353 1_455 S
O990 C964 1.283 . S
O990 Eu976 2.379 . S
O991 C965 1.283 . S
O991 Eu976 2.347 1_556 S
O992 C966 1.283 . S
O992 Eu989 2.379 . S
O993 C967 1.283 . S
O993 Eu989 2.347 1_556 S
O994 C968 1.283 . S
O994 Eu979 2.363 . S
O995 C969 1.283 . S
O995 Eu979 2.363 . S
O996 C970 1.283 . S
O996 Eu980 2.363 . S
O997 C971 1.283 . S
O997 Eu980 2.363 . S
O998 C972 1.283 . S
O998 Eu984 2.372 . S
O999 C973 1.283 . S
O999 Eu984 2.353 1_655 S
O1000 C974 1.283 . S
O1000 Eu983 2.372 . S
O1001 C975 1.283 . S
O1001 Eu983 2.353 1_655 S
O1002 C970 1.283 . S
O1002 Eu989 2.373 . S
O1003 C968 1.283 . S
O1003 Eu989 2.353 1_655 S
O1004 C971 1.283 . S
O1004 Eu976 2.372 . S
O1005 C969 1.283 . S
O1005 Eu976 2.353 1_655 S
O1006 C965 1.283 . S
O1006 Eu984 2.363 . S
O1007 C967 1.283 . S
O1007 Eu984 2.363 . S
O1008 C964 1.283 . S
O1008 Eu983 2.363 . S
O1009 C966 1.283 . S
O1009 Eu983 2.363 . S
O1010 C975 1.283 . S
O1010 Eu979 2.379 . S
O1011 C973 1.283 . S
O1011 Eu979 2.347 1_556 S
O1012 C974 1.283 . S
O1012 Eu980 2.379 . S
O1013 C972 1.283 . S
O1013 Eu980 2.347 1_556 S
C1014 O1040 1.283 . S
C1014 O1058 1.283 . S
C1015 O1041 1.283 . S
C1015 O1056 1.283 . S
C1016 O1042 1.283 . S
C1016 O1059 1.283 . S
C1017 O1043 1.283 . S
C1017 O1057 1.283 . S
C1018 O1044 1.283 . S
C1018 O1053 1.283 . S
C1019 O1045 1.283 . S
C1019 O1055 1.283 . S
C1020 O1046 1.283 . S
C1020 O1052 1.283 . S
C1021 O1047 1.283 . S
C1021 O1054 1.283 . S
C1022 O1048 1.283 . S
C1022 O1063 1.283 . S
C1023 O1049 1.283 . S
C1023 O1061 1.283 . S
C1024 O1050 1.283 . S
C1024 O1062 1.283 . S
C1025 O1051 1.283 . S
C1025 O1060 1.283 . S
Eu1026 O1027 2.370 . S
Eu1026 O1028 2.370 . S
Eu1026 O1031 2.370 . S
Eu1026 O1032 2.370 . S
Eu1026 O1040 2.363 . S
Eu1026 O1041 2.363 . S
Eu1026 O1054 2.363 . S
Eu1026 O1055 2.363 . S
O1027 Eu1026 2.370 . S
O1027 Eu1029 2.382 . S
O1027 Eu1034 2.382 . S
O1028 Eu1026 2.370 . S
O1028 Eu1030 2.382 . S
O1028 Eu1033 2.382 . S
Eu1029 O1027 2.382 . S
Eu1029 O1031 2.382 . S
Eu1029 O1035 2.358 1_554 S
Eu1029 O1036 2.358 1_554 S
Eu1029 O1044 2.343 1_554 S
Eu1029 O1045 2.383 . S
Eu1029 O1060 2.363 . S
Eu1029 O1061 2.363 . S
Eu1030 O1028 2.382 . S
Eu1030 O1032 2.382 . S
Eu1030 O1037 2.358 1_554 S
Eu1030 O1038 2.358 1_554 S
Eu1030 O1046 2.343 1_554 S
Eu1030 O1047 2.383 . S
Eu1030 O1062 2.363 . S
Eu1030 O1063 2.363 . S
O1031 Eu1026 2.370 . S
O1031 Eu1029 2.382 . S
O1031 Eu1033 2.382 . S
O1032 Eu1026 2.370 . S
O1032 Eu1030 2.382 . S
O1032 Eu1034 2.382 . S
Eu1033 O1028 2.382 . S
Eu1033 O1031 2.382 . S
Eu1033 O1035 2.358 1_554 S
Eu1033 O1038 2.358 1_554 S
Eu1033 O1050 2.363 . S
Eu1033 O1051 2.363 . S
Eu1033 O1058 2.383 . S
Eu1033 O1059 2.343 1_554 S
Eu1034 O1027 2.382 . S
Eu1034 O1032 2.382 . S
Eu1034 O1036 2.358 1_554 S
Eu1034 O1037 2.358 1_554 S
Eu1034 O1048 2.363 . S
Eu1034 O1049 2.363 . S
Eu1034 O1056 2.383 . S
Eu1034 O1057 2.343 1_554 S
O1035 Eu1029 2.358 1_556 S
O1035 Eu1033 2.358 1_556 S
O1035 Eu1039 2.370 . S
O1036 Eu1029 2.358 1_556 S
O1036 Eu1034 2.358 1_556 S
O1036 Eu1039 2.370 . S
O1037 Eu1030 2.358 1_556 S
O1037 Eu1034 2.358 1_556 S
O1037 Eu1039 2.370 . S
O1038 Eu1030 2.358 1_556 S
O1038 Eu1033 2.358 1_556 S
O1038 Eu1039 2.370 . S
Eu1039 O1035 2.370 . S
Eu1039 O1036 2.370 . S
Eu1039 O1037 2.370 . S
Eu1039 O1038 2.370 . S
Eu1039 O1042 2.363 . S
Eu1039 O1043 2.363 . S
Eu1039 O1052 2.363 . S
Eu1039 O1053 2.363 . S
O1040 C1014 1.283 . S
O1040 Eu1026 2.363 . S
O1041 C1015 1.283 . S
O1041 Eu1026 2.363 . S
O1042 C1016 1.283 . S
O1042 Eu1039 2.363 . S
O1043 C1017 1.283 . S
O1043 Eu1039 2.363 . S
O1044 C1018 1.283 . S
O1044 Eu1029 2.343 1_556 S
O1045 C1019 1.283 . S
O1045 Eu1029 2.383 . S
O1046 C1020 1.283 . S
O1046 Eu1030 2.343 1_556 S
O1047 C1021 1.283 . S
O1047 Eu1030 2.383 . S
O1048 C1022 1.283 . S
O1048 Eu1034 2.363 . S
O1049 C1023 1.283 . S
O1049 Eu1034 2.363 . S
O1050 C1024 1.283 . S
O1050 Eu1033 2.363 . S
O1051 C1025 1.283 . S
O1051 Eu1033 2.363 . S
O1052 C1020 1.283 . S
O1052 Eu1039 2.363 . S
O1053 C1018 1.283 . S
O1053 Eu1039 2.363 . S
O1054 C1021 1.283 . S
O1054 Eu1026 2.363 . S
O1055 C1019 1.283 . S
O1055 Eu1026 2.363 . S
O1056 C1015 1.283 . S
O1056 Eu1034 2.383 . S
O1057 C1017 1.283 . S
O1057 Eu1034 2.343 1_556 S
O1058 C1014 1.283 . S
O1058 Eu1033 2.383 . S
O1059 C1016 1.283 . S
O1059 Eu1033 2.343 1_556 S
O1060 C1025 1.283 . S
O1060 Eu1029 2.363 . S
O1061 C1023 1.283 . S
O1061 Eu1029 2.363 . S
O1062 C1024 1.283 . S
O1062 Eu1030 2.363 . S
O1063 C1022 1.283 . S
O1063 Eu1030 2.363 . S
C1064 O1090 1.283 . S
C1064 O1108 1.283 . S
C1065 O1091 1.283 . S
C1065 O1106 1.283 . S
C1066 O1092 1.283 . S
C1066 O1109 1.283 . S
C1067 O1093 1.283 . S
C1067 O1107 1.283 . S
C1068 O1094 1.283 . S
C1068 O1103 1.283 . S
C1069 O1095 1.283 . S
C1069 O1105 1.283 . S
C1070 O1096 1.283 . S
C1070 O1102 1.283 . S
C1071 O1097 1.283 . S
C1071 O1104 1.283 . S
C1072 O1098 1.283 . S
C1072 O1113 1.283 . S
C1073 O1099 1.283 . S
C1073 O1111 1.283 . S
C1074 O1100 1.283 . S
C1074 O1112 1.283 . S
C1075 O1101 1.283 . S
C1075 O1110 1.283 . S
Eu1076 O1077 2.365 1_455 S
Eu1076 O1078 2.375 . S
Eu1076 O1081 2.365 1_455 S
Eu1076 O1082 2.375 . S
Eu1076 O1090 2.363 . S
Eu1076 O1091 2.363 . S
Eu1076 O1104 2.371 . S
Eu1076 O1105 2.355 1_455 S
O1077 Eu1076 2.365 1_655 S
O1077 Eu1079 2.370 . S
O1077 Eu1084 2.365 1_655 S
O1078 Eu1076 2.375 . S
O1078 Eu1080 2.370 . S
O1078 Eu1083 2.375 . S
Eu1079 O1077 2.370 . S
Eu1079 O1081 2.370 . S
Eu1079 O1085 2.370 . S
Eu1079 O1086 2.370 . S
Eu1079 O1094 2.363 . S
Eu1079 O1095 2.363 . S
Eu1079 O1110 2.363 . S
Eu1079 O1111 2.363 . S
Eu1080 O1078 2.370 . S
Eu1080 O1082 2.370 . S
Eu1080 O1087 2.370 . S
Eu1080 O1088 2.370 . S
Eu1080 O1096 2.363 . S
Eu1080 O1097 2.363 . S
Eu1080 O1112 2.363 . S
Eu1080 O1113 2.363 . S
O1081 Eu1076 2.365 1_655 S
O1081 Eu1079 2.370 . S
O1081 Eu1083 2.365 1_655 S
O1082 Eu1076 2.375 . S
O1082 Eu1080 2.370 . S
O1082 Eu1084 2.375 . S
Eu1083 O1078 2.375 . S
Eu1083 O1081 2.365 1_455 S
Eu1083 O1085 2.365 1_455 S
Eu1083 O1088 2.375 . S
Eu1083 O1100 2.371 . S
Eu1083 O1101 2.355 1_455 S
Eu1083 O1108 2.363 . S
Eu1083 O1109 2.363 . S
Eu1084 O1077 2.365 1_455 S
Eu1084 O1082 2.375 . S
Eu1084 O1086 2.365 1_455 S
Eu1084 O1087 2.375 . S
Eu1084 O1098 2.371 . S
Eu1084 O1099 2.355 1_455 S
Eu1084 O1106 2.363 . S
Eu1084 O1107 2.363 . S
O1085 Eu1079 2.370 . S
O1085 Eu1083 2.365 1_655 S
O1085 Eu1089 2.365 1_655 S
O1086 Eu1079 2.370 . S
O1086 Eu1084 2.365 1_655 S
O1086 Eu1089 2.365 1_655 S
O1087 Eu1080 2.370 . S
O1087 Eu1084 2.375 . S
O1087 Eu1089 2.375 . S
O1088 Eu1080 2.370 . S
O1088 Eu1083 2.375 . S
O1088 Eu1089 2.375 . S
Eu1089 O1085 2.365 1_455 S
Eu1089 O1086 2.365 1_455 S
Eu1089 O1087 2.375 . S
Eu1089 O1088 2.375 . S
Eu1089 O1092 2.363 . S
Eu1089 O1093 2.363 . S
Eu1089 O1102 2.371 . S
Eu1089 O1103 2.355 1_455 S
O1090 C1064 1.283 . S
O1090 Eu1076 2.363 . S
O1091 C1065 1.283 . S
O1091 Eu1076 2.363 . S
O1092 C1066 1.283 . S
O1092 Eu1089 2.363 . S
O1093 C1067 1.283 . S
O1093 Eu1089 2.363 . S
O1094 C1068 1.283 . S
O1094 Eu1079 2.363 . S
O1095 C1069 1.283 . S
O1095 Eu1079 2.363 . S
O1096 C1070 1.283 . S
O1096 Eu1080 2.363 . S
O1097 C1071 1.283 . S
O1097 Eu1080 2.363 . S
O1098 C1072 1.283 . S
O1098 Eu1084 2.371 . S
O1099 C1073 1.283 . S
O1099 Eu1084 2.355 1_655 S
O1100 C1074 1.283 . S
O1100 Eu1083 2.371 . S
O1101 C1075 1.283 . S
O1101 Eu1083 2.355 1_655 S
O1102 C1070 1.283 . S
O1102 Eu1089 2.371 . S
O1103 C1068 1.283 . S
O1103 Eu1089 2.355 1_655 S
O1104 C1071 1.283 . S
O1104 Eu1076 2.371 . S
O1105 C1069 1.283 . S
O1105 Eu1076 2.355 1_655 S
O1106 C1065 1.283 . S
O1106 Eu1084 2.363 . S
O1107 C1067 1.283 . S
O1107 Eu1084 2.363 . S
O1108 C1064 1.283 . S
O1108 Eu1083 2.363 . S
O1109 C1066 1.283 . S
O1109 Eu1083 2.363 . S
O1110 C1075 1.283 . S
O1110 Eu1079 2.363 . S
O1111 C1073 1.283 . S
O1111 Eu1079 2.363 . S
O1112 C1074 1.283 . S
O1112 Eu1080 2.363 . S
O1113 C1072 1.283 . S
O1113 Eu1080 2.363 . S
C1114 O1140 1.283 . S
C1114 O1158 1.283 . S
C1115 O1141 1.283 . S
C1115 O1156 1.283 . S
C1116 O1142 1.283 . S
C1116 O1159 1.283 . S
C1117 O1143 1.283 . S
C1117 O1157 1.283 . S
C1118 O1144 1.283 . S
C1118 O1153 1.283 . S
C1119 O1145 1.283 . S
C1119 O1155 1.283 . S
C1120 O1146 1.283 . S
C1120 O1152 1.283 . S
C1121 O1147 1.283 . S
C1121 O1154 1.283 . S
C1122 O1148 1.283 . S
C1122 O1163 1.283 . S
C1123 O1149 1.283 . S
C1123 O1161 1.283 . S
C1124 O1150 1.283 . S
C1124 O1162 1.283 . S
C1125 O1151 1.283 . S
C1125 O1160 1.283 . S
Eu1126 O1127 2.370 . S
Eu1126 O1128 2.370 . S
Eu1126 O1131 2.370 . S
Eu1126 O1132 2.370 . S
Eu1126 O1140 2.363 . S
Eu1126 O1141 2.363 . S
Eu1126 O1154 2.363 . S
Eu1126 O1155 2.363 . S
O1127 Eu1126 2.370 . S
O1127 Eu1129 2.370 1_565 S
O1127 Eu1134 2.370 1_565 S
O1128 Eu1126 2.370 . S
O1128 Eu1130 2.370 1_565 S
O1128 Eu1133 2.370 1_565 S
Eu1129 O1127 2.370 1_545 S
Eu1129 O1131 2.370 1_545 S
Eu1129 O1135 2.370 . S
Eu1129 O1136 2.370 . S
Eu1129 O1144 2.363 . S
Eu1129 O1145 2.362 1_545 S
Eu1129 O1160 2.363 . S
Eu1129 O1161 2.363 . S
Eu1130 O1128 2.370 1_545 S
Eu1130 O1132 2.370 1_545 S
Eu1130 O1137 2.370 . S
Eu1130 O1138 2.370 . S
Eu1130 O1146 2.363 . S
Eu1130 O1147 2.363 1_545 S
Eu1130 O1162 2.363 . S
Eu1130 O1163 2.363 . S
O1131 Eu1126 2.370 . S
O1131 Eu1129 2.370 1_565 S
O1131 Eu1133 2.370 1_565 S
O1132 Eu1126 2.370 . S
O1132 Eu1130 2.370 1_565 S
O1132 Eu1134 2.370 1_565 S
Eu1133 O1128 2.370 1_545 S
Eu1133 O1131 2.370 1_545 S
Eu1133 O1135 2.370 . S
Eu1133 O1138 2.370 . S
Eu1133 O1150 2.363 . S
Eu1133 O1151 2.363 . S
Eu1133 O1158 2.363 1_545 S
Eu1133 O1159 2.363 . S
Eu1134 O1127 2.370 1_545 S
Eu1134 O1132 2.370 1_545 S
Eu1134 O1136 2.370 . S
Eu1134 O1137 2.370 . S
Eu1134 O1148 2.363 . S
Eu1134 O1149 2.363 . S
Eu1134 O1156 2.363 1_545 S
Eu1134 O1157 2.363 . S
O1135 Eu1129 2.370 . S
O1135 Eu1133 2.370 . S
O1135 Eu1139 2.370 . S
O1136 Eu1129 2.370 . S
O1136 Eu1134 2.370 . S
O1136 Eu1139 2.370 . S
O1137 Eu1130 2.370 . S
O1137 Eu1134 2.370 . S
O1137 Eu1139 2.370 . S
O1138 Eu1130 2.370 . S
O1138 Eu1133 2.370 . S
O1138 Eu1139 2.370 . S
Eu1139 O1135 2.370 . S
Eu1139 O1136 2.370 . S
Eu1139 O1137 2.370 . S
Eu1139 O1138 2.370 . S
Eu1139 O1142 2.363 . S
Eu1139 O1143 2.363 . S
Eu1139 O1152 2.363 . S
Eu1139 O1153 2.363 . S
O1140 C1114 1.283 . S
O1140 Eu1126 2.363 . S
O1141 C1115 1.283 . S
O1141 Eu1126 2.363 . S
O1142 C1116 1.283 . S
O1142 Eu1139 2.363 . S
O1143 C1117 1.283 . S
O1143 Eu1139 2.363 . S
O1144 C1118 1.283 . S
O1144 Eu1129 2.363 . S
O1145 C1119 1.283 . S
O1145 Eu1129 2.362 1_565 S
O1146 C1120 1.283 . S
O1146 Eu1130 2.363 . S
O1147 C1121 1.283 . S
O1147 Eu1130 2.363 1_565 S
O1148 C1122 1.283 . S
O1148 Eu1134 2.363 . S
O1149 C1123 1.283 . S
O1149 Eu1134 2.363 . S
O1150 C1124 1.283 . S
O1150 Eu1133 2.363 . S
O1151 C1125 1.283 . S
O1151 Eu1133 2.363 . S
O1152 C1120 1.283 . S
O1152 Eu1139 2.363 . S
O1153 C1118 1.283 . S
O1153 Eu1139 2.363 . S
O1154 C1121 1.283 . S
O1154 Eu1126 2.363 . S
O1155 C1119 1.283 . S
O1155 Eu1126 2.363 . S
O1156 C1115 1.283 . S
O1156 Eu1134 2.363 1_565 S
O1157 C1117 1.283 . S
O1157 Eu1134 2.363 . S
O1158 C1114 1.283 . S
O1158 Eu1133 2.363 1_565 S
O1159 C1116 1.283 . S
O1159 Eu1133 2.363 . S
O1160 C1125 1.283 . S
O1160 Eu1129 2.363 . S
O1161 C1123 1.283 . S
O1161 Eu1129 2.363 . S
O1162 C1124 1.283 . S
O1162 Eu1130 2.363 . S
O1163 C1122 1.283 . S
O1163 Eu1130 2.363 . S
C1164 C1165 1.369 . S
C1164 C1166 1.419 . S
C1164 H1168 0.930 . S
C1165 C1164 1.369 . S
C1165 C1174 1.429 . S
C1166 C1164 1.419 . S
C1166 C1167 1.363 . S
C1166 H1169 0.929 . S
C1167 C1166 1.363 . S
C1167 C1173 1.428 . S
H1168 C1164 0.930 . S
H1169 C1166 0.929 . S
S1170 N1171 1.613 . S
S1170 N1172 1.610 . S
N1171 S1170 1.613 . S
N1171 C1174 1.350 . S
N1172 S1170 1.610 . S
N1172 C1173 1.351 . S
C1173 C1167 1.428 . S
C1173 N1172 1.351 . S
C1173 C1174 1.434 . S
C1174 C1165 1.429 . S
C1174 N1171 1.350 . S
C1174 C1173 1.434 . S
C1175 C1176 1.369 . S
C1175 C1177 1.419 . S
C1175 H1179 0.930 . S
C1176 C1175 1.369 . S
C1176 C1185 1.429 . S
C1177 C1175 1.419 . S
C1177 C1178 1.363 . S
C1177 H1180 0.929 . S
C1178 C1177 1.363 . S
C1178 C1184 1.428 . S
H1179 C1175 0.930 . S
H1180 C1177 0.929 . S
S1181 N1182 1.613 . S
S1181 N1183 1.610 . S
N1182 S1181 1.613 . S
N1182 C1185 1.350 . S
N1183 S1181 1.610 . S
N1183 C1184 1.351 . S
C1184 C1178 1.428 . S
C1184 N1183 1.351 . S
C1184 C1185 1.434 . S
C1185 C1176 1.429 . S
C1185 N1182 1.350 . S
C1185 C1184 1.434 . S
C1186 C1187 1.369 . S
C1186 C1188 1.419 . S
C1186 H1190 0.930 . S
C1187 C1186 1.369 . S
C1187 C1196 1.429 . S
C1188 C1186 1.419 . S
C1188 C1189 1.363 . S
C1188 H1191 0.929 . S
C1189 C1188 1.363 . S
C1189 C1195 1.428 . S
H1190 C1186 0.930 . S
H1191 C1188 0.929 . S
S1192 N1193 1.613 . S
S1192 N1194 1.610 . S
N1193 S1192 1.613 . S
N1193 C1196 1.350 . S
N1194 S1192 1.610 . S
N1194 C1195 1.351 . S
C1195 C1189 1.428 . S
C1195 N1194 1.351 . S
C1195 C1196 1.434 . S
C1196 C1187 1.429 . S
C1196 N1193 1.350 . S
C1196 C1195 1.434 . S
C1197 C1198 1.369 . S
C1197 C1199 1.419 . S
C1197 H1201 0.930 . S
C1198 C1197 1.369 . S
C1198 C1207 1.429 . S
C1199 C1197 1.419 . S
C1199 C1200 1.363 . S
C1199 H1202 0.929 . S
C1200 C1199 1.363 . S
C1200 C1206 1.428 . S
H1201 C1197 0.930 . S
H1202 C1199 0.929 . S
S1203 N1204 1.613 . S
S1203 N1205 1.610 . S
N1204 S1203 1.613 . S
N1204 C1207 1.350 . S
N1205 S1203 1.610 . S
N1205 C1206 1.351 . S
C1206 C1200 1.428 . S
C1206 N1205 1.351 . S
C1206 C1207 1.434 . S
C1207 C1198 1.429 . S
C1207 N1204 1.350 . S
C1207 C1206 1.434 . S
C1208 C1209 1.369 . S
C1208 C1210 1.419 . S
C1208 H1212 0.930 . S
C1209 C1208 1.369 . S
C1209 C1218 1.429 . S
C1210 C1208 1.419 . S
C1210 C1211 1.363 . S
C1210 H1213 0.929 . S
C1211 C1210 1.363 . S
C1211 C1217 1.428 . S
H1212 C1208 0.930 . S
H1213 C1210 0.929 . S
S1214 N1215 1.613 . S
S1214 N1216 1.610 . S
N1215 S1214 1.613 . S
N1215 C1218 1.350 . S
N1216 S1214 1.610 . S
N1216 C1217 1.351 . S
C1217 C1211 1.428 . S
C1217 N1216 1.351 . S
C1217 C1218 1.434 . S
C1218 C1209 1.429 . S
C1218 N1215 1.350 . S
C1218 C1217 1.434 . S
C1219 C1220 1.369 . S
C1219 C1221 1.419 . S
C1219 H1223 0.930 . S
C1220 C1219 1.369 . S
C1220 C1229 1.429 . S
C1221 C1219 1.419 . S
C1221 C1222 1.363 . S
C1221 H1224 0.929 . S
C1222 C1221 1.363 . S
C1222 C1228 1.428 . S
H1223 C1219 0.930 . S
H1224 C1221 0.929 . S
S1225 N1226 1.613 . S
S1225 N1227 1.610 . S
N1226 S1225 1.613 . S
N1226 C1229 1.350 . S
N1227 S1225 1.610 . S
N1227 C1228 1.351 . S
C1228 C1222 1.428 . S
C1228 N1227 1.351 . S
C1228 C1229 1.434 . S
C1229 C1220 1.429 . S
C1229 N1226 1.350 . S
C1229 C1228 1.434 . S
C1230 C1231 1.369 . S
C1230 C1232 1.419 . S
C1230 H1234 0.930 . S
C1231 C1230 1.369 . S
C1231 C1240 1.429 . S
C1232 C1230 1.419 . S
C1232 C1233 1.363 . S
C1232 H1235 0.929 . S
C1233 C1232 1.363 . S
C1233 C1239 1.428 . S
H1234 C1230 0.930 . S
H1235 C1232 0.929 . S
S1236 N1237 1.613 . S
S1236 N1238 1.610 . S
N1237 S1236 1.613 . S
N1237 C1240 1.350 . S
N1238 S1236 1.610 . S
N1238 C1239 1.351 . S
C1239 C1233 1.428 . S
C1239 N1238 1.351 . S
C1239 C1240 1.434 . S
C1240 C1231 1.429 . S
C1240 N1237 1.350 . S
C1240 C1239 1.434 . S
C1241 C1242 1.369 . S
C1241 C1243 1.419 . S
C1241 H1245 0.930 . S
C1242 C1241 1.369 . S
C1242 C1251 1.429 . S
C1243 C1241 1.419 . S
C1243 C1244 1.363 . S
C1243 H1246 0.929 . S
C1244 C1243 1.363 . S
C1244 C1250 1.428 . S
H1245 C1241 0.930 . S
H1246 C1243 0.929 . S
S1247 N1248 1.613 . S
S1247 N1249 1.610 . S
N1248 S1247 1.613 . S
N1248 C1251 1.350 . S
N1249 S1247 1.610 . S
N1249 C1250 1.351 . S
C1250 C1244 1.428 . S
C1250 N1249 1.351 . S
C1250 C1251 1.434 . S
C1251 C1242 1.429 . S
C1251 N1248 1.350 . S
C1251 C1250 1.434 . S
C1252 C1253 1.369 . S
C1252 C1254 1.419 . S
C1252 H1256 0.930 . S
C1253 C1252 1.369 . S
C1253 C1262 1.429 . S
C1254 C1252 1.419 . S
C1254 C1255 1.363 . S
C1254 H1257 0.929 . S
C1255 C1254 1.363 . S
C1255 C1261 1.428 . S
H1256 C1252 0.930 . S
H1257 C1254 0.929 . S
S1258 N1259 1.613 . S
S1258 N1260 1.610 . S
N1259 S1258 1.613 . S
N1259 C1262 1.350 . S
N1260 S1258 1.610 . S
N1260 C1261 1.351 . S
C1261 C1255 1.428 . S
C1261 N1260 1.351 . S
C1261 C1262 1.434 . S
C1262 C1253 1.429 . S
C1262 N1259 1.350 . S
C1262 C1261 1.434 . S
C1263 C1264 1.369 . S
C1263 C1265 1.419 . S
C1263 H1267 0.930 . S
C1264 C1263 1.369 . S
C1264 C1273 1.429 . S
C1265 C1263 1.419 . S
C1265 C1266 1.363 . S
C1265 H1268 0.929 . S
C1266 C1265 1.363 . S
C1266 C1272 1.428 . S
H1267 C1263 0.930 . S
H1268 C1265 0.929 . S
S1269 N1270 1.613 . S
S1269 N1271 1.610 . S
N1270 S1269 1.613 . S
N1270 C1273 1.350 . S
N1271 S1269 1.610 . S
N1271 C1272 1.351 . S
C1272 C1266 1.428 . S
C1272 N1271 1.351 . S
C1272 C1273 1.434 . S
C1273 C1264 1.429 . S
C1273 N1270 1.350 . S
C1273 C1272 1.434 . S
C1274 C1275 1.369 . S
C1274 C1276 1.419 . S
C1274 H1278 0.930 . S
C1275 C1274 1.369 . S
C1275 C1284 1.429 . S
C1276 C1274 1.419 . S
C1276 C1277 1.363 . S
C1276 H1279 0.929 . S
C1277 C1276 1.363 . S
C1277 C1283 1.428 . S
H1278 C1274 0.930 . S
H1279 C1276 0.929 . S
S1280 N1281 1.613 . S
S1280 N1282 1.610 . S
N1281 S1280 1.613 . S
N1281 C1284 1.350 . S
N1282 S1280 1.610 . S
N1282 C1283 1.351 . S
C1283 C1277 1.428 . S
C1283 N1282 1.351 . S
C1283 C1284 1.434 . S
C1284 C1275 1.429 . S
C1284 N1281 1.350 . S
C1284 C1283 1.434 . S
C1285 C1286 1.369 . S
C1285 C1287 1.419 . S
C1285 H1289 0.930 . S
C1286 C1285 1.369 . S
C1286 C1295 1.429 . S
C1287 C1285 1.419 . S
C1287 C1288 1.363 . S
C1287 H1290 0.929 . S
C1288 C1287 1.363 . S
C1288 C1294 1.428 . S
H1289 C1285 0.930 . S
H1290 C1287 0.929 . S
S1291 N1292 1.613 . S
S1291 N1293 1.610 . S
N1292 S1291 1.613 . S
N1292 C1295 1.350 . S
N1293 S1291 1.610 . S
N1293 C1294 1.351 . S
C1294 C1288 1.428 . S
C1294 N1293 1.351 . S
C1294 C1295 1.434 . S
C1295 C1286 1.429 . S
C1295 N1292 1.350 . S
C1295 C1294 1.434 . S
C1296 C1297 1.372 . S
C1296 C1298 1.419 . S
C1296 H1300 0.930 . S
C1297 C1296 1.372 . S
C1297 C1306 1.426 1_554 S
C1298 C1296 1.419 . S
C1298 C1299 1.367 . S
C1298 H1301 0.929 . S
C1299 C1298 1.367 . S
C1299 C1305 1.424 1_554 S
H1300 C1296 0.930 . S
H1301 C1298 0.929 . S
S1302 N1303 1.613 . S
S1302 N1304 1.610 . S
N1303 S1302 1.613 . S
N1303 C1306 1.350 . S
N1304 S1302 1.610 . S
N1304 C1305 1.351 . S
C1305 C1299 1.424 1_556 S
C1305 N1304 1.351 . S
C1305 C1306 1.434 . S
C1306 C1297 1.426 1_556 S
C1306 N1303 1.350 . S
C1306 C1305 1.434 . S
C1307 C1308 1.360 1_556 S
C1307 C1309 1.419 . S
C1307 H1311 0.930 . S
C1308 C1307 1.360 1_554 S
C1308 C1317 1.438 . S
C1309 C1307 1.419 . S
C1309 C1310 1.354 1_556 S
C1309 H1312 0.929 . S
C1310 C1309 1.354 1_554 S
C1310 C1316 1.438 . S
H1311 C1307 0.930 . S
H1312 C1309 0.929 . S
S1313 N1314 1.613 . S
S1313 N1315 1.610 . S
N1314 S1313 1.613 . S
N1314 C1317 1.350 . S
N1315 S1313 1.610 . S
N1315 C1316 1.351 . S
C1316 C1310 1.438 . S
C1316 N1315 1.351 . S
C1316 C1317 1.434 . S
C1317 C1308 1.438 . S
C1317 N1314 1.350 . S
C1317 C1316 1.434 . S
C1318 C1319 1.364 1_556 S
C1318 C1320 1.419 . S
C1318 H1322 0.930 . S
C1319 C1318 1.364 1_554 S
C1319 C1328 1.434 . S
C1320 C1318 1.419 . S
C1320 C1321 1.357 1_556 S
C1320 H1323 0.929 . S
C1321 C1320 1.357 1_554 S
C1321 C1327 1.434 . S
H1322 C1318 0.930 . S
H1323 C1320 0.929 . S
S1324 N1325 1.613 . S
S1324 N1326 1.610 . S
N1325 S1324 1.613 . S
N1325 C1328 1.350 . S
N1326 S1324 1.610 . S
N1326 C1327 1.351 . S
C1327 C1321 1.434 . S
C1327 N1326 1.351 . S
C1327 C1328 1.434 . S
C1328 C1319 1.434 . S
C1328 N1325 1.350 . S
C1328 C1327 1.434 . S
C1329 C1330 1.374 . S
C1329 C1331 1.419 . S
C1329 H1333 0.930 . S
C1330 C1329 1.374 . S
C1330 C1339 1.423 1_554 S
C1331 C1329 1.419 . S
C1331 C1332 1.371 . S
C1331 H1334 0.929 . S
C1332 C1331 1.371 . S
C1332 C1338 1.420 1_554 S
H1333 C1329 0.930 . S
H1334 C1331 0.929 . S
S1335 N1336 1.613 . S
S1335 N1337 1.610 . S
N1336 S1335 1.613 . S
N1336 C1339 1.350 . S
N1337 S1335 1.610 . S
N1337 C1338 1.351 . S
C1338 C1332 1.420 1_556 S
C1338 N1337 1.351 . S
C1338 C1339 1.434 . S
C1339 C1330 1.423 1_556 S
C1339 N1336 1.350 . S
C1339 C1338 1.434 . S
C1340 C1341 1.371 1_455 S
C1340 C1342 1.419 . S
C1340 H1344 0.930 . S
C1341 C1340 1.371 1_655 S
C1341 C1350 1.427 . S
C1342 C1340 1.419 . S
C1342 C1343 1.360 . S
C1342 H1345 0.929 . S
C1343 C1342 1.360 . S
C1343 C1349 1.432 1_455 S
H1344 C1340 0.930 . S
H1345 C1342 0.929 . S
S1346 N1347 1.613 . S
S1346 N1348 1.610 . S
N1347 S1346 1.613 . S
N1347 C1350 1.350 . S
N1348 S1346 1.610 . S
N1348 C1349 1.351 . S
C1349 C1343 1.432 1_655 S
C1349 N1348 1.351 . S
C1349 C1350 1.434 . S
C1350 C1341 1.427 . S
C1350 N1347 1.350 . S
C1350 C1349 1.434 . S
C1351 C1352 1.365 1_565 S
C1351 C1353 1.419 . S
C1351 H1355 0.930 . S
C1352 C1351 1.365 1_545 S
C1352 C1361 1.433 . S
C1353 C1351 1.419 . S
C1353 C1354 1.359 1_565 S
C1353 H1356 0.929 . S
C1354 C1353 1.359 1_545 S
C1354 C1360 1.432 . S
H1355 C1351 0.930 . S
H1356 C1353 0.929 . S
S1357 N1358 1.613 . S
S1357 N1359 1.610 . S
N1358 S1357 1.613 . S
N1358 C1361 1.350 . S
N1359 S1357 1.610 . S
N1359 C1360 1.351 . S
C1360 C1354 1.432 . S
C1360 N1359 1.351 . S
C1360 C1361 1.434 . S
C1361 C1352 1.433 . S
C1361 N1358 1.350 . S
C1361 C1360 1.434 . S
C1362 C1363 1.370 . S
C1362 C1364 1.419 . S
C1362 H1366 0.930 . S
C1363 C1362 1.370 . S
C1363 C1372 1.428 1_455 S
C1364 C1362 1.419 . S
C1364 C1365 1.364 . S
C1364 H1367 0.929 . S
C1365 C1364 1.364 . S
C1365 C1371 1.428 1_455 S
H1366 C1362 0.930 . S
H1367 C1364 0.929 . S
S1368 N1369 1.613 . S
S1368 N1370 1.610 . S
N1369 S1368 1.613 . S
N1369 C1372 1.350 . S
N1370 S1368 1.610 . S
N1370 C1371 1.351 . S
C1371 C1365 1.428 1_655 S
C1371 N1370 1.351 . S
C1371 C1372 1.434 . S
C1372 C1363 1.428 1_655 S
C1372 N1369 1.350 . S
C1372 C1371 1.434 . S
C1373 C1374 1.369 1_545 S
C1373 C1375 1.419 1_545 S
C1373 H1377 0.930 . S
C1374 C1373 1.369 1_565 S
C1374 C1383 1.428 . S
C1375 C1373 1.419 1_565 S
C1375 C1376 1.363 1_565 S
C1375 H1378 0.929 . S
C1376 C1375 1.363 1_545 S
C1376 C1382 1.428 1_545 S
H1377 C1373 0.930 . S
H1378 C1375 0.929 . S
S1379 N1380 1.613 . S
S1379 N1381 1.610 . S
N1380 S1379 1.613 . S
N1380 C1383 1.352 . S
N1381 S1379 1.610 . S
N1381 C1382 1.352 . S
C1382 C1376 1.428 1_565 S
C1382 N1381 1.352 . S
C1382 C1383 1.434 . S
C1383 C1374 1.428 . S
C1383 N1380 1.352 . S
C1383 C1382 1.434 . S
C1384 C1385 1.368 . S
C1384 C1386 1.419 . S
C1384 H1388 0.930 . S
C1385 C1384 1.368 . S
C1385 C1394 1.429 1_455 S
C1386 C1384 1.419 . S
C1386 C1387 1.364 . S
C1386 H1389 0.929 . S
C1387 C1386 1.364 . S
C1387 C1393 1.428 1_455 S
H1388 C1384 0.930 . S
H1389 C1386 0.929 . S
S1390 N1391 1.613 . S
S1390 N1392 1.610 . S
N1391 S1390 1.613 . S
N1391 C1394 1.350 . S
N1392 S1390 1.610 . S
N1392 C1393 1.351 . S
C1393 C1387 1.428 1_655 S
C1393 N1392 1.351 . S
C1393 C1394 1.434 . S
C1394 C1385 1.429 1_655 S
C1394 N1391 1.350 . S
C1394 C1393 1.434 . S
C1395 C1396 1.360 1_565 S
C1395 C1397 1.419 . S
C1395 H1399 0.930 . S
C1396 C1395 1.360 1_545 S
C1396 C1405 1.438 . S
C1397 C1395 1.419 . S
C1397 C1398 1.355 1_565 S
C1397 H1400 0.929 . S
C1398 C1397 1.355 1_545 S
C1398 C1404 1.437 . S
H1399 C1395 0.930 . S
H1400 C1397 0.929 . S
S1401 N1402 1.613 . S
S1401 N1403 1.610 . S
N1402 S1401 1.613 . S
N1402 C1405 1.350 . S
N1403 S1401 1.610 . S
N1403 C1404 1.351 . S
C1404 C1398 1.437 . S
C1404 N1403 1.351 . S
C1404 C1405 1.434 . S
C1405 C1396 1.438 . S
C1405 N1402 1.350 . S
C1405 C1404 1.434 . S
C1406 C1407 1.371 . S
C1406 C1408 1.419 . S
C1406 H1410 0.930 . S
C1407 C1406 1.371 . S
C1407 C1416 1.427 1_455 S
C1408 C1406 1.419 . S
C1408 C1409 1.365 . S
C1408 H1411 0.929 . S
C1409 C1408 1.365 . S
C1409 C1415 1.426 1_455 S
H1410 C1406 0.930 . S
H1411 C1408 0.929 . S
S1412 N1413 1.613 . S
S1412 N1414 1.610 . S
N1413 S1412 1.613 . S
N1413 C1416 1.350 . S
N1414 S1412 1.610 . S
N1414 C1415 1.351 . S
C1415 C1409 1.426 1_655 S
C1415 N1414 1.351 . S
C1415 C1416 1.434 . S
C1416 C1407 1.427 1_655 S
C1416 N1413 1.350 . S
C1416 C1415 1.434 . S
C1417 C1418 1.363 1_565 S
C1417 C1419 1.419 . S
C1417 H1421 0.930 . S
C1418 C1417 1.363 1_545 S
C1418 C1427 1.434 . S
C1419 C1417 1.419 . S
C1419 C1420 1.358 1_565 S
C1419 H1422 0.929 . S
C1420 C1419 1.358 1_545 S
C1420 C1426 1.433 . S
H1421 C1417 0.930 . S
H1422 C1419 0.929 . S
S1423 N1424 1.613 . S
S1423 N1425 1.610 . S
N1424 S1423 1.613 . S
N1424 C1427 1.350 . S
N1425 S1423 1.610 . S
N1425 C1426 1.351 . S
C1426 C1420 1.433 . S
C1426 N1425 1.351 . S
C1426 C1427 1.434 . S
C1427 C1418 1.434 . S
C1427 N1424 1.350 . S
C1427 C1426 1.434 . S
C1428 C1429 1.359 1_655 S
C1428 C1430 1.419 . S
C1428 H1432 0.930 . S
C1429 C1428 1.359 1_455 S
C1429 C1438 1.439 . S
C1430 C1428 1.419 . S
C1430 C1431 1.356 1_655 S
C1430 H1433 0.929 . S
C1431 C1430 1.356 1_455 S
C1431 C1437 1.436 . S
H1432 C1428 0.930 . S
H1433 C1430 0.929 . S
S1434 N1435 1.613 . S
S1434 N1436 1.610 . S
N1435 S1434 1.613 . S
N1435 C1438 1.350 . S
N1436 S1434 1.610 . S
N1436 C1437 1.351 . S
C1437 C1431 1.436 . S
C1437 N1436 1.351 . S
C1437 C1438 1.434 . S
C1438 C1429 1.439 . S
C1438 N1435 1.350 . S
C1438 C1437 1.434 . S
C1439 C1440 1.354 1_565 S
C1439 C1441 1.419 . S
C1439 H1443 0.930 . S
C1440 C1439 1.354 1_545 S
C1440 C1449 1.444 . S
C1441 C1439 1.419 . S
C1441 C1442 1.351 1_565 S
C1441 H1444 0.929 . S
C1442 C1441 1.351 1_545 S
C1442 C1448 1.441 . S
H1443 C1439 0.930 . S
H1444 C1441 0.929 . S
S1445 N1446 1.613 . S
S1445 N1447 1.610 . S
N1446 S1445 1.613 . S
N1446 C1449 1.350 . S
N1447 S1445 1.610 . S
N1447 C1448 1.351 . S
C1448 C1442 1.441 . S
C1448 N1447 1.351 . S
C1448 C1449 1.434 . S
C1449 C1440 1.444 . S
C1449 N1446 1.350 . S
C1449 C1448 1.434 . S
C1450 C1451 1.363 1_655 S
C1450 C1452 1.419 . S
C1450 H1454 0.930 . S
C1451 C1450 1.363 1_455 S
C1451 C1460 1.435 . S
C1452 C1450 1.419 . S
C1452 C1453 1.357 1_655 S
C1452 H1455 0.929 . S
C1453 C1452 1.357 1_455 S
C1453 C1459 1.434 . S
H1454 C1450 0.930 . S
H1455 C1452 0.929 . S
S1456 N1457 1.613 . S
S1456 N1458 1.610 . S
N1457 S1456 1.613 . S
N1457 C1460 1.350 . S
N1458 S1456 1.610 . S
N1458 C1459 1.351 . S
C1459 C1453 1.434 . S
C1459 N1458 1.351 . S
C1459 C1460 1.434 . S
C1460 C1451 1.435 . S
C1460 N1457 1.350 . S
C1460 C1459 1.434 . S
C1461 C1462 1.356 1_565 S
C1461 C1463 1.419 . S
C1461 H1465 0.930 . S
C1462 C1461 1.356 1_545 S
C1462 C1471 1.442 . S
C1463 C1461 1.419 . S
C1463 C1464 1.351 1_565 S
C1463 H1466 0.929 . S
C1464 C1463 1.351 1_545 S
C1464 C1470 1.440 . S
H1465 C1461 0.930 . S
H1466 C1463 0.929 . S
S1467 N1468 1.613 . S
S1467 N1469 1.610 . S
N1468 S1467 1.613 . S
N1468 C1471 1.350 . S
N1469 S1467 1.610 . S
N1469 C1470 1.351 . S
C1470 C1464 1.440 . S
C1470 N1469 1.351 . S
C1470 C1471 1.434 . S
C1471 C1462 1.442 . S
C1471 N1468 1.350 . S
C1471 C1470 1.434 . S
C1472 C1473 1.369 1_455 S
C1472 C1474 1.419 . S
C1472 H1476 0.930 . S
C1473 C1472 1.369 1_655 S
C1473 C1482 1.429 . S
C1474 C1472 1.419 . S
C1474 C1475 1.366 1_455 S
C1474 H1477 0.929 . S
C1475 C1474 1.366 1_655 S
C1475 C1481 1.426 . S
H1476 C1472 0.930 . S
H1477 C1474 0.929 . S
S1478 N1479 1.613 . S
S1478 N1480 1.610 . S
N1479 S1478 1.613 . S
N1479 C1482 1.350 . S
N1480 S1478 1.610 . S
N1480 C1481 1.351 . S
C1481 C1475 1.426 . S
C1481 N1480 1.351 . S
C1481 C1482 1.434 . S
C1482 C1473 1.429 . S
C1482 N1479 1.350 . S
C1482 C1481 1.434 . S
C1483 C1484 1.354 1_565 S
C1483 C1485 1.419 . S
C1483 H1487 0.930 . S
C1484 C1483 1.354 1_545 S
C1484 C1493 1.445 . S
C1485 C1483 1.419 . S
C1485 C1486 1.350 1_565 S
C1485 H1488 0.929 . S
C1486 C1485 1.350 1_545 S
C1486 C1492 1.442 . S
H1487 C1483 0.930 . S
H1488 C1485 0.929 . S
S1489 N1490 1.613 . S
S1489 N1491 1.610 . S
N1490 S1489 1.613 . S
N1490 C1493 1.350 . S
N1491 S1489 1.610 . S
N1491 C1492 1.351 . S
C1492 C1486 1.442 . S
C1492 N1491 1.351 . S
C1492 C1493 1.434 . S
C1493 C1484 1.445 . S
C1493 N1490 1.350 . S
C1493 C1492 1.434 . S
C1494 C1495 1.353 1_655 S
C1494 C1496 1.419 . S
C1494 H1498 0.930 . S
C1495 C1494 1.353 1_455 S
C1495 C1504 1.445 . S
C1496 C1494 1.419 . S
C1496 C1497 1.349 1_655 S
C1496 H1499 0.929 . S
C1497 C1496 1.349 1_455 S
C1497 C1503 1.442 . S
H1498 C1494 0.930 . S
H1499 C1496 0.929 . S
S1500 N1501 1.613 . S
S1500 N1502 1.610 . S
N1501 S1500 1.613 . S
N1501 C1504 1.350 . S
N1502 S1500 1.610 . S
N1502 C1503 1.351 . S
C1503 C1497 1.442 . S
C1503 N1502 1.351 . S
C1503 C1504 1.434 . S
C1504 C1495 1.445 . S
C1504 N1501 1.350 . S
C1504 C1503 1.434 . S
C1505 C1506 1.365 1_545 S
C1505 C1507 1.419 . S
C1505 H1509 0.930 . S
C1506 C1505 1.365 1_565 S
C1506 C1515 1.432 . S
C1507 C1505 1.419 . S
C1507 C1508 1.363 1_545 S
C1507 H1510 0.929 . S
C1508 C1507 1.363 1_565 S
C1508 C1514 1.429 . S
H1509 C1505 0.930 . S
H1510 C1507 0.929 . S
S1511 N1512 1.613 . S
S1511 N1513 1.610 . S
N1512 S1511 1.613 . S
N1512 C1515 1.350 . S
N1513 S1511 1.610 . S
N1513 C1514 1.351 . S
C1514 C1508 1.429 . S
C1514 N1513 1.351 . S
C1514 C1515 1.434 . S
C1515 C1506 1.432 . S
C1515 N1512 1.350 . S
C1515 C1514 1.434 . S
C1516 C1517 1.369 1_545 S
C1516 C1518 1.419 . S
C1516 H1520 0.930 . S
C1517 C1516 1.369 1_565 S
C1517 C1526 1.429 . S
C1518 C1516 1.419 . S
C1518 C1519 1.364 1_545 S
C1518 H1521 0.929 . S
C1519 C1518 1.364 1_565 S
C1519 C1525 1.428 . S
H1520 C1516 0.930 . S
H1521 C1518 0.929 . S
S1522 N1523 1.613 . S
S1522 N1524 1.610 . S
N1523 S1522 1.613 . S
N1523 C1526 1.350 . S
N1524 S1522 1.610 . S
N1524 C1525 1.351 . S
C1525 C1519 1.428 . S
C1525 N1524 1.351 . S
C1525 C1526 1.434 . S
C1526 C1517 1.429 . S
C1526 N1523 1.350 . S
C1526 C1525 1.434 . S
C1527 C1528 1.369 . S
C1527 C1529 1.418 . S
C1527 H1531 0.930 . S
C1528 C1527 1.369 . S
C1528 C1537 1.429 . S
C1529 C1527 1.418 . S
C1529 C1530 1.363 . S
C1529 H1532 0.930 . S
C1530 C1529 1.363 . S
C1530 C1536 1.428 . S
H1531 C1527 0.930 . S
H1532 C1529 0.930 . S
S1533 N1534 1.613 . S
S1533 N1535 1.610 . S
N1534 S1533 1.613 . S
N1534 C1537 1.352 . S
N1535 S1533 1.610 . S
N1535 C1536 1.352 . S
C1536 C1530 1.428 . S
C1536 N1535 1.352 . S
C1536 C1537 1.434 . S
C1537 C1528 1.429 . S
C1537 N1534 1.352 . S
C1537 C1536 1.434 . S
C1538 C1539 1.366 1_545 S
C1538 C1540 1.419 . S
C1538 H1542 0.930 . S
C1539 C1538 1.366 1_565 S
C1539 C1548 1.432 . S
C1540 C1538 1.419 . S
C1540 C1541 1.362 1_545 S
C1540 H1543 0.929 . S
C1541 C1540 1.362 1_565 S
C1541 C1547 1.430 . S
H1542 C1538 0.930 . S
H1543 C1540 0.929 . S
S1544 N1545 1.613 . S
S1544 N1546 1.610 . S
N1545 S1544 1.613 . S
N1545 C1548 1.350 . S
N1546 S1544 1.610 . S
N1546 C1547 1.351 . S
C1547 C1541 1.430 . S
C1547 N1546 1.351 . S
C1547 C1548 1.434 . S
C1548 C1539 1.432 . S
C1548 N1545 1.350 . S
C1548 C1547 1.434 . S
C1549 C1550 1.363 1_655 S
C1549 C1551 1.419 . S
C1549 H1553 0.930 . S
C1550 C1549 1.363 1_455 S
C1550 C1559 1.435 . S
C1551 C1549 1.419 . S
C1551 C1552 1.357 1_655 S
C1551 H1554 0.929 . S
C1552 C1551 1.357 1_455 S
C1552 C1558 1.435 . S
H1553 C1549 0.930 . S
H1554 C1551 0.929 . S
S1555 N1556 1.613 . S
S1555 N1557 1.610 . S
N1556 S1555 1.613 . S
N1556 C1559 1.350 . S
N1557 S1555 1.610 . S
N1557 C1558 1.351 . S
C1558 C1552 1.435 . S
C1558 N1557 1.351 . S
C1558 C1559 1.434 . S
C1559 C1550 1.435 . S
C1559 N1556 1.350 . S
C1559 C1558 1.434 . S
C1560 C1561 1.369 1_545 S
C1560 C1562 1.419 . S
C1560 H1564 0.930 . S
C1561 C1560 1.369 1_565 S
C1561 C1570 1.428 . S
C1562 C1560 1.419 . S
C1562 C1563 1.363 1_545 S
C1562 H1565 0.929 . S
C1563 C1562 1.363 1_565 S
C1563 C1569 1.428 . S
H1564 C1560 0.930 . S
H1565 C1562 0.929 . S
S1566 N1567 1.613 . S
S1566 N1568 1.610 . S
N1567 S1566 1.613 . S
N1567 C1570 1.350 . S
N1568 S1566 1.610 . S
N1568 C1569 1.351 . S
C1569 C1563 1.428 . S
C1569 N1568 1.351 . S
C1569 C1570 1.434 . S
C1570 C1561 1.428 . S
C1570 N1567 1.350 . S
C1570 C1569 1.434 . S
C1571 C1572 1.352 1_655 S
C1571 C1573 1.419 . S
C1571 H1575 0.930 . S
C1572 C1571 1.352 1_455 S
C1572 C1581 1.447 . S
C1573 C1571 1.419 . S
C1573 C1574 1.347 1_655 S
C1573 H1576 0.929 . S
C1574 C1573 1.347 1_455 S
C1574 C1580 1.445 . S
H1575 C1571 0.930 . S
H1576 C1573 0.929 . S
S1577 N1578 1.613 . S
S1577 N1579 1.610 . S
N1578 S1577 1.613 . S
N1578 C1581 1.350 . S
N1579 S1577 1.610 . S
N1579 C1580 1.351 . S
C1580 C1574 1.445 . S
C1580 N1579 1.351 . S
C1580 C1581 1.434 . S
C1581 C1572 1.447 . S
C1581 N1578 1.350 . S
C1581 C1580 1.434 . S
C1582 C1583 1.355 1_565 S
C1582 C1584 1.419 . S
C1582 H1586 0.930 . S
C1583 C1582 1.355 1_545 S
C1583 C1592 1.443 . S
C1584 C1582 1.419 . S
C1584 C1585 1.353 1_565 S
C1584 H1587 0.929 . S
C1585 C1584 1.353 1_545 S
C1585 C1591 1.439 . S
H1586 C1582 0.930 . S
H1587 C1584 0.929 . S
S1588 N1589 1.613 . S
S1588 N1590 1.610 . S
N1589 S1588 1.613 . S
N1589 C1592 1.350 . S
N1590 S1588 1.610 . S
N1590 C1591 1.351 . S
C1591 C1585 1.439 . S
C1591 N1590 1.351 . S
C1591 C1592 1.434 . S
C1592 C1583 1.443 . S
C1592 N1589 1.350 . S
C1592 C1591 1.434 . S
C1593 C1594 1.365 1_655 S
C1593 C1595 1.419 . S
C1593 H1597 0.930 . S
C1594 C1593 1.365 1_455 S
C1594 C1603 1.433 . S
C1595 C1593 1.419 . S
C1595 C1596 1.359 1_655 S
C1595 H1598 0.929 . S
C1596 C1595 1.359 1_455 S
C1596 C1602 1.433 . S
H1597 C1593 0.930 . S
H1598 C1595 0.929 . S
S1599 N1600 1.613 . S
S1599 N1601 1.610 . S
N1600 S1599 1.613 . S
N1600 C1603 1.350 . S
N1601 S1599 1.610 . S
N1601 C1602 1.351 . S
C1602 C1596 1.433 . S
C1602 N1601 1.351 . S
C1602 C1603 1.434 . S
C1603 C1594 1.433 . S
C1603 N1600 1.350 . S
C1603 C1602 1.434 . S
C1604 C1605 1.358 1_556 S
C1604 C1606 1.419 . S
C1604 H1608 0.930 . S
C1605 C1604 1.358 1_554 S
C1605 C1614 1.441 . S
C1606 C1604 1.419 . S
C1606 C1607 1.354 1_556 S
C1606 H1609 0.929 . S
C1607 C1606 1.354 1_554 S
C1607 C1613 1.438 . S
H1608 C1604 0.930 . S
H1609 C1606 0.929 . S
S1610 N1611 1.613 . S
S1610 N1612 1.610 . S
N1611 S1610 1.613 . S
N1611 C1614 1.350 . S
N1612 S1610 1.610 . S
N1612 C1613 1.351 . S
C1613 C1607 1.438 . S
C1613 N1612 1.351 . S
C1613 C1614 1.434 . S
C1614 C1605 1.441 . S
C1614 N1611 1.350 . S
C1614 C1613 1.434 . S
C1615 C1616 1.375 . S
C1615 C1617 1.419 . S
C1615 H1619 0.930 . S
C1616 C1615 1.375 . S
C1616 C1625 1.423 1_554 S
C1617 C1615 1.419 . S
C1617 C1618 1.370 . S
C1617 H1620 0.929 . S
C1618 C1617 1.370 . S
C1618 C1624 1.422 1_554 S
H1619 C1615 0.930 . S
H1620 C1617 0.929 . S
S1621 N1622 1.613 . S
S1621 N1623 1.610 . S
N1622 S1621 1.613 . S
N1622 C1625 1.350 . S
N1623 S1621 1.610 . S
N1623 C1624 1.351 . S
C1624 C1618 1.422 1_556 S
C1624 N1623 1.351 . S
C1624 C1625 1.434 . S
C1625 C1616 1.423 1_556 S
C1625 N1622 1.350 . S
C1625 C1624 1.434 . S
C1626 C1627 1.379 . S
C1626 C1628 1.419 . S
C1626 H1630 0.930 . S
C1627 C1626 1.379 . S
C1627 C1636 1.419 1_554 S
C1628 C1626 1.419 . S
C1628 C1629 1.374 . S
C1628 H1631 0.929 . S
C1629 C1628 1.374 . S
C1629 C1635 1.417 1_554 S
H1630 C1626 0.930 . S
H1631 C1628 0.929 . S
S1632 N1633 1.613 . S
S1632 N1634 1.610 . S
N1633 S1632 1.613 . S
N1633 C1636 1.350 . S
N1634 S1632 1.610 . S
N1634 C1635 1.351 . S
C1635 C1629 1.417 1_556 S
C1635 N1634 1.351 . S
C1635 C1636 1.434 . S
C1636 C1627 1.419 1_556 S
C1636 N1633 1.350 . S
C1636 C1635 1.434 . S
C1637 C1638 1.363 1_556 S
C1637 C1639 1.419 . S
C1637 H1641 0.930 . S
C1638 C1637 1.363 1_554 S
C1638 C1647 1.435 . S
C1639 C1637 1.419 . S
C1639 C1640 1.357 1_556 S
C1639 H1642 0.929 . S
C1640 C1639 1.357 1_554 S
C1640 C1646 1.435 . S
H1641 C1637 0.930 . S
H1642 C1639 0.929 . S
S1643 N1644 1.613 . S
S1643 N1645 1.610 . S
N1644 S1643 1.613 . S
N1644 C1647 1.350 . S
N1645 S1643 1.610 . S
N1645 C1646 1.351 . S
C1646 C1640 1.435 . S
C1646 N1645 1.351 . S
C1646 C1647 1.434 . S
C1647 C1638 1.435 . S
C1647 N1644 1.350 . S
C1647 C1646 1.434 . S
C1648 C1649 1.374 . S
C1648 C1650 1.419 . S
C1648 H1652 0.930 . S
C1649 C1648 1.374 . S
C1649 C1658 1.424 1_554 S
C1650 C1648 1.419 . S
C1650 C1651 1.371 . S
C1650 H1653 0.929 . S
C1651 C1650 1.371 . S
C1651 C1657 1.420 1_554 S
H1652 C1648 0.930 . S
H1653 C1650 0.929 . S
S1654 N1655 1.613 . S
S1654 N1656 1.610 . S
N1655 S1654 1.613 . S
N1655 C1658 1.350 . S
N1656 S1654 1.610 . S
N1656 C1657 1.351 . S
C1657 C1651 1.420 1_556 S
C1657 N1656 1.351 . S
C1657 C1658 1.434 . S
C1658 C1649 1.424 1_556 S
C1658 N1655 1.350 . S
C1658 C1657 1.434 . S
C1659 C1660 1.372 . S
C1659 C1661 1.419 . S
C1659 H1663 0.930 . S
C1660 C1659 1.372 . S
C1660 C1669 1.425 1_554 S
C1661 C1659 1.419 . S
C1661 C1662 1.368 . S
C1661 H1664 0.929 . S
C1662 C1661 1.368 . S
C1662 C1668 1.423 1_554 S
H1663 C1659 0.930 . S
H1664 C1661 0.929 . S
S1665 N1666 1.613 . S
S1665 N1667 1.610 . S
N1666 S1665 1.613 . S
N1666 C1669 1.350 . S
N1667 S1665 1.610 . S
N1667 C1668 1.351 . S
C1668 C1662 1.423 1_556 S
C1668 N1667 1.351 . S
C1668 C1669 1.434 . S
C1669 C1660 1.425 1_556 S
C1669 N1666 1.350 . S
C1669 C1668 1.434 . S
C1670 C1671 1.370 . S
C1670 C1672 1.419 . S
C1670 H1674 0.930 . S
C1671 C1670 1.370 . S
C1671 C1680 1.428 1_554 S
C1672 C1670 1.419 . S
C1672 C1673 1.364 . S
C1672 H1675 0.929 . S
C1673 C1672 1.364 . S
C1673 C1679 1.427 1_554 S
H1674 C1670 0.930 . S
H1675 C1672 0.929 . S
S1676 N1677 1.613 . S
S1676 N1678 1.610 . S
N1677 S1676 1.613 . S
N1677 C1680 1.350 . S
N1678 S1676 1.610 . S
N1678 C1679 1.351 . S
C1679 C1673 1.427 1_556 S
C1679 N1678 1.351 . S
C1679 C1680 1.434 . S
C1680 C1671 1.428 1_556 S
C1680 N1677 1.350 . S
C1680 C1679 1.434 . S
C1681 C1682 1.353 1_556 S
C1681 C1683 1.419 . S
C1681 H1685 0.930 . S
C1682 C1681 1.353 1_554 S
C1682 C1691 1.446 . S
C1683 C1681 1.419 . S
C1683 C1684 1.349 1_556 S
C1683 H1686 0.929 . S
C1684 C1683 1.349 1_554 S
C1684 C1690 1.444 . S
H1685 C1681 0.930 . S
H1686 C1683 0.929 . S
S1687 N1688 1.613 . S
S1687 N1689 1.610 . S
N1688 S1687 1.613 . S
N1688 C1691 1.350 . S
N1689 S1687 1.610 . S
N1689 C1690 1.351 . S
C1690 C1684 1.444 . S
C1690 N1689 1.351 . S
C1690 C1691 1.434 . S
C1691 C1682 1.446 . S
C1691 N1688 1.350 . S
C1691 C1690 1.434 . S
C1692 C1693 1.369 . S
C1692 C1694 1.419 . S
C1692 H1696 0.930 . S
C1693 C1692 1.369 . S
C1693 C1702 1.429 . S
C1694 C1692 1.419 . S
C1694 C1695 1.363 . S
C1694 H1697 0.929 . S
C1695 C1694 1.363 . S
C1695 C1701 1.428 . S
H1696 C1692 0.930 . S
H1697 C1694 0.929 . S
S1698 N1699 1.613 . S
S1698 N1700 1.610 . S
N1699 S1698 1.613 . S
N1699 C1702 1.350 . S
N1700 S1698 1.610 . S
N1700 C1701 1.351 . S
C1701 C1695 1.428 . S
C1701 N1700 1.351 . S
C1701 C1702 1.434 . S
C1702 C1693 1.429 . S
C1702 N1699 1.350 . S
C1702 C1701 1.434 . S
C1703 C1704 1.369 . S
C1703 C1705 1.419 . S
C1703 H1707 0.930 . S
C1704 C1703 1.369 . S
C1704 C1713 1.429 . S
C1705 C1703 1.419 . S
C1705 C1706 1.363 . S
C1705 H1708 0.929 . S
C1706 C1705 1.363 . S
C1706 C1712 1.428 . S
H1707 C1703 0.930 . S
H1708 C1705 0.929 . S
S1709 N1710 1.613 . S
S1709 N1711 1.610 . S
N1710 S1709 1.613 . S
N1710 C1713 1.350 . S
N1711 S1709 1.610 . S
N1711 C1712 1.351 . S
C1712 C1706 1.428 . S
C1712 N1711 1.351 . S
C1712 C1713 1.434 . S
C1713 C1704 1.429 . S
C1713 N1710 1.350 . S
C1713 C1712 1.434 . S
C1714 C1715 1.369 . S
C1714 C1716 1.419 . S
C1714 H1718 0.930 . S
C1715 C1714 1.369 . S
C1715 C1724 1.429 . S
C1716 C1714 1.419 . S
C1716 C1717 1.363 . S
C1716 H1719 0.929 . S
C1717 C1716 1.363 . S
C1717 C1723 1.428 . S
H1718 C1714 0.930 . S
H1719 C1716 0.929 . S
S1720 N1721 1.613 . S
S1720 N1722 1.610 . S
N1721 S1720 1.613 . S
N1721 C1724 1.350 . S
N1722 S1720 1.610 . S
N1722 C1723 1.351 . S
C1723 C1717 1.428 . S
C1723 N1722 1.351 . S
C1723 C1724 1.434 . S
C1724 C1715 1.429 . S
C1724 N1721 1.350 . S
C1724 C1723 1.434 . S
C1725 C1726 1.369 . S
C1725 C1727 1.419 . S
C1725 H1729 0.930 . S
C1726 C1725 1.369 . S
C1726 C1735 1.429 . S
C1727 C1725 1.419 . S
C1727 C1728 1.363 . S
C1727 H1730 0.929 . S
C1728 C1727 1.363 . S
C1728 C1734 1.428 . S
H1729 C1725 0.930 . S
H1730 C1727 0.929 . S
S1731 N1732 1.613 . S
S1731 N1733 1.610 . S
N1732 S1731 1.613 . S
N1732 C1735 1.350 . S
N1733 S1731 1.610 . S
N1733 C1734 1.351 . S
C1734 C1728 1.428 . S
C1734 N1733 1.351 . S
C1734 C1735 1.434 . S
C1735 C1726 1.429 . S
C1735 N1732 1.350 . S
C1735 C1734 1.434 . S
C1736 C1737 1.369 . S
C1736 C1738 1.419 . S
C1736 H1740 0.930 . S
C1737 C1736 1.369 . S
C1737 C1746 1.429 . S
C1738 C1736 1.419 . S
C1738 C1739 1.363 . S
C1738 H1741 0.929 . S
C1739 C1738 1.363 . S
C1739 C1745 1.428 . S
H1740 C1736 0.930 . S
H1741 C1738 0.929 . S
S1742 N1743 1.613 . S
S1742 N1744 1.610 . S
N1743 S1742 1.613 . S
N1743 C1746 1.350 . S
N1744 S1742 1.610 . S
N1744 C1745 1.351 . S
C1745 C1739 1.428 . S
C1745 N1744 1.351 . S
C1745 C1746 1.434 . S
C1746 C1737 1.429 . S
C1746 N1743 1.350 . S
C1746 C1745 1.434 . S
C1747 C1748 1.369 . S
C1747 C1749 1.419 . S
C1747 H1751 0.930 . S
C1748 C1747 1.369 . S
C1748 C1757 1.429 . S
C1749 C1747 1.419 . S
C1749 C1750 1.363 . S
C1749 H1752 0.929 . S
C1750 C1749 1.363 . S
C1750 C1756 1.428 . S
H1751 C1747 0.930 . S
H1752 C1749 0.929 . S
S1753 N1754 1.613 . S
S1753 N1755 1.610 . S
N1754 S1753 1.613 . S
N1754 C1757 1.350 . S
N1755 S1753 1.610 . S
N1755 C1756 1.351 . S
C1756 C1750 1.428 . S
C1756 N1755 1.351 . S
C1756 C1757 1.434 . S
C1757 C1748 1.429 . S
C1757 N1754 1.350 . S
C1757 C1756 1.434 . S
C1758 C1759 1.369 . S
C1758 C1760 1.419 . S
C1758 H1762 0.930 . S
C1759 C1758 1.369 . S
C1759 C1768 1.429 . S
C1760 C1758 1.419 . S
C1760 C1761 1.363 . S
C1760 H1763 0.929 . S
C1761 C1760 1.363 . S
C1761 C1767 1.428 . S
H1762 C1758 0.930 . S
H1763 C1760 0.929 . S
S1764 N1765 1.613 . S
S1764 N1766 1.610 . S
N1765 S1764 1.613 . S
N1765 C1768 1.350 . S
N1766 S1764 1.610 . S
N1766 C1767 1.351 . S
C1767 C1761 1.428 . S
C1767 N1766 1.351 . S
C1767 C1768 1.434 . S
C1768 C1759 1.429 . S
C1768 N1765 1.350 . S
C1768 C1767 1.434 . S
C1769 C1770 1.369 . S
C1769 C1771 1.419 . S
C1769 H1773 0.930 . S
C1770 C1769 1.369 . S
C1770 C1779 1.429 . S
C1771 C1769 1.419 . S
C1771 C1772 1.363 . S
C1771 H1774 0.929 . S
C1772 C1771 1.363 . S
C1772 C1778 1.428 . S
H1773 C1769 0.930 . S
H1774 C1771 0.929 . S
S1775 N1776 1.613 . S
S1775 N1777 1.610 . S
N1776 S1775 1.613 . S
N1776 C1779 1.350 . S
N1777 S1775 1.610 . S
N1777 C1778 1.351 . S
C1778 C1772 1.428 . S
C1778 N1777 1.351 . S
C1778 C1779 1.434 . S
C1779 C1770 1.429 . S
C1779 N1776 1.350 . S
C1779 C1778 1.434 . S
C1780 C1781 1.369 . S
C1780 C1782 1.419 . S
C1780 H1784 0.930 . S
C1781 C1780 1.369 . S
C1781 C1790 1.429 . S
C1782 C1780 1.419 . S
C1782 C1783 1.363 . S
C1782 H1785 0.929 . S
C1783 C1782 1.363 . S
C1783 C1789 1.428 . S
H1784 C1780 0.930 . S
H1785 C1782 0.929 . S
S1786 N1787 1.613 . S
S1786 N1788 1.610 . S
N1787 S1786 1.613 . S
N1787 C1790 1.350 . S
N1788 S1786 1.610 . S
N1788 C1789 1.351 . S
C1789 C1783 1.428 . S
C1789 N1788 1.351 . S
C1789 C1790 1.434 . S
C1790 C1781 1.429 . S
C1790 N1787 1.350 . S
C1790 C1789 1.434 . S
C1791 C1792 1.369 . S
C1791 C1793 1.419 . S
C1791 H1795 0.930 . S
C1792 C1791 1.369 . S
C1792 C1801 1.429 . S
C1793 C1791 1.419 . S
C1793 C1794 1.363 . S
C1793 H1796 0.929 . S
C1794 C1793 1.363 . S
C1794 C1800 1.428 . S
H1795 C1791 0.930 . S
H1796 C1793 0.929 . S
S1797 N1798 1.613 . S
S1797 N1799 1.610 . S
N1798 S1797 1.613 . S
N1798 C1801 1.350 . S
N1799 S1797 1.610 . S
N1799 C1800 1.351 . S
C1800 C1794 1.428 . S
C1800 N1799 1.351 . S
C1800 C1801 1.434 . S
C1801 C1792 1.429 . S
C1801 N1798 1.350 . S
C1801 C1800 1.434 . S
C1802 C1803 1.369 . S
C1802 C1804 1.419 . S
C1802 H1806 0.930 . S
C1803 C1802 1.369 . S
C1803 C1812 1.429 . S
C1804 C1802 1.419 . S
C1804 C1805 1.363 . S
C1804 H1807 0.929 . S
C1805 C1804 1.363 . S
C1805 C1811 1.428 . S
H1806 C1802 0.930 . S
H1807 C1804 0.929 . S
S1808 N1809 1.613 . S
S1808 N1810 1.610 . S
N1809 S1808 1.613 . S
N1809 C1812 1.350 . S
N1810 S1808 1.610 . S
N1810 C1811 1.351 . S
C1811 C1805 1.428 . S
C1811 N1810 1.351 . S
C1811 C1812 1.434 . S
C1812 C1803 1.429 . S
C1812 N1809 1.350 . S
C1812 C1811 1.434 . S
C1813 C1814 1.369 . S
C1813 C1815 1.419 . S
C1813 H1817 0.930 . S
C1814 C1813 1.369 . S
C1814 C1823 1.429 . S
C1815 C1813 1.419 . S
C1815 C1816 1.363 . S
C1815 H1818 0.929 . S
C1816 C1815 1.363 . S
C1816 C1822 1.428 . S
H1817 C1813 0.930 . S
H1818 C1815 0.929 . S
S1819 N1820 1.613 . S
S1819 N1821 1.610 . S
N1820 S1819 1.613 . S
N1820 C1823 1.350 . S
N1821 S1819 1.610 . S
N1821 C1822 1.351 . S
C1822 C1816 1.428 . S
C1822 N1821 1.351 . S
C1822 C1823 1.434 . S
C1823 C1814 1.429 . S
C1823 N1820 1.350 . S
C1823 C1822 1.434 . S
C1824 C1825 1.369 . S
C1824 C1826 1.419 . S
C1824 H1828 0.930 . S
C1825 C1824 1.369 . S
C1825 C1834 1.429 . S
C1826 C1824 1.419 . S
C1826 C1827 1.363 . S
C1826 H1829 0.929 . S
C1827 C1826 1.363 . S
C1827 C1833 1.428 . S
H1828 C1824 0.930 . S
H1829 C1826 0.929 . S
S1830 N1831 1.613 . S
S1830 N1832 1.610 . S
N1831 S1830 1.613 . S
N1831 C1834 1.350 . S
N1832 S1830 1.610 . S
N1832 C1833 1.351 . S
C1833 C1827 1.428 . S
C1833 N1832 1.351 . S
C1833 C1834 1.434 . S
C1834 C1825 1.429 . S
C1834 N1831 1.350 . S
C1834 C1833 1.434 . S
C1835 C1836 1.369 . S
C1835 C1837 1.419 . S
C1835 H1839 0.930 . S
C1836 C1835 1.369 . S
C1836 C1845 1.429 . S
C1837 C1835 1.419 . S
C1837 C1838 1.363 . S
C1837 H1840 0.929 . S
C1838 C1837 1.363 . S
C1838 C1844 1.428 . S
H1839 C1835 0.930 . S
H1840 C1837 0.929 . S
S1841 N1842 1.613 . S
S1841 N1843 1.610 . S
N1842 S1841 1.613 . S
N1842 C1845 1.350 . S
N1843 S1841 1.610 . S
N1843 C1844 1.351 . S
C1844 C1838 1.428 . S
C1844 N1843 1.351 . S
C1844 C1845 1.434 . S
C1845 C1836 1.429 . S
C1845 N1842 1.350 . S
C1845 C1844 1.434 . S
C1846 C1847 1.369 . S
C1846 C1848 1.419 . S
C1846 H1850 0.930 . S
C1847 C1846 1.369 . S
C1847 C1856 1.429 . S
C1848 C1846 1.419 . S
C1848 C1849 1.363 . S
C1848 H1851 0.929 . S
C1849 C1848 1.363 . S
C1849 C1855 1.428 . S
H1850 C1846 0.930 . S
H1851 C1848 0.929 . S
S1852 N1853 1.613 . S
S1852 N1854 1.610 . S
N1853 S1852 1.613 . S
N1853 C1856 1.350 . S
N1854 S1852 1.610 . S
N1854 C1855 1.351 . S
C1855 C1849 1.428 . S
C1855 N1854 1.351 . S
C1855 C1856 1.434 . S
C1856 C1847 1.429 . S
C1856 N1853 1.350 . S
C1856 C1855 1.434 . S
C1857 C1858 1.369 . S
C1857 C1859 1.419 . S
C1857 H1861 0.930 . S
C1858 C1857 1.369 . S
C1858 C1867 1.429 . S
C1859 C1857 1.419 . S
C1859 C1860 1.363 . S
C1859 H1862 0.929 . S
C1860 C1859 1.363 . S
C1860 C1866 1.428 . S
H1861 C1857 0.930 . S
H1862 C1859 0.929 . S
S1863 N1864 1.613 . S
S1863 N1865 1.610 . S
N1864 S1863 1.613 . S
N1864 C1867 1.350 . S
N1865 S1863 1.610 . S
N1865 C1866 1.351 . S
C1866 C1860 1.428 . S
C1866 N1865 1.351 . S
C1866 C1867 1.434 . S
C1867 C1858 1.429 . S
C1867 N1864 1.350 . S
C1867 C1866 1.434 . S
C1868 C1869 1.369 . S
C1868 C1870 1.419 . S
C1868 H1872 0.930 . S
C1869 C1868 1.369 . S
C1869 C1878 1.429 . S
C1870 C1868 1.419 . S
C1870 C1871 1.363 . S
C1870 H1873 0.929 . S
C1871 C1870 1.363 . S
C1871 C1877 1.428 . S
H1872 C1868 0.930 . S
H1873 C1870 0.929 . S
S1874 N1875 1.613 . S
S1874 N1876 1.610 . S
N1875 S1874 1.613 . S
N1875 C1878 1.350 . S
N1876 S1874 1.610 . S
N1876 C1877 1.351 . S
C1877 C1871 1.428 . S
C1877 N1876 1.351 . S
C1877 C1878 1.434 . S
C1878 C1869 1.429 . S
C1878 N1875 1.350 . S
C1878 C1877 1.434 . S
C1879 C1880 1.369 . S
C1879 C1881 1.419 . S
C1879 H1883 0.930 . S
C1880 C1879 1.369 . S
C1880 C1889 1.429 . S
C1881 C1879 1.419 . S
C1881 C1882 1.363 . S
C1881 H1884 0.929 . S
C1882 C1881 1.363 . S
C1882 C1888 1.428 . S
H1883 C1879 0.930 . S
H1884 C1881 0.929 . S
S1885 N1886 1.613 . S
S1885 N1887 1.610 . S
N1886 S1885 1.613 . S
N1886 C1889 1.350 . S
N1887 S1885 1.610 . S
N1887 C1888 1.351 . S
C1888 C1882 1.428 . S
C1888 N1887 1.351 . S
C1888 C1889 1.434 . S
C1889 C1880 1.429 . S
C1889 N1886 1.350 . S
C1889 C1888 1.434 . S
C1890 C1891 1.369 . S
C1890 C1892 1.419 . S
C1890 H1894 0.930 . S
C1891 C1890 1.369 . S
C1891 C1900 1.429 . S
C1892 C1890 1.419 . S
C1892 C1893 1.363 . S
C1892 H1895 0.929 . S
C1893 C1892 1.363 . S
C1893 C1899 1.428 . S
H1894 C1890 0.930 . S
H1895 C1892 0.929 . S
S1896 N1897 1.613 . S
S1896 N1898 1.610 . S
N1897 S1896 1.613 . S
N1897 C1900 1.350 . S
N1898 S1896 1.610 . S
N1898 C1899 1.351 . S
C1899 C1893 1.428 . S
C1899 N1898 1.351 . S
C1899 C1900 1.434 . S
C1900 C1891 1.429 . S
C1900 N1897 1.350 . S
C1900 C1899 1.434 . S
C1901 C1902 1.369 . S
C1901 C1903 1.419 . S
C1901 H1905 0.930 . S
C1902 C1901 1.369 . S
C1902 C1911 1.429 . S
C1903 C1901 1.419 . S
C1903 C1904 1.363 . S
C1903 H1906 0.929 . S
C1904 C1903 1.363 . S
C1904 C1910 1.428 . S
H1905 C1901 0.930 . S
H1906 C1903 0.929 . S
S1907 N1908 1.613 . S
S1907 N1909 1.610 . S
N1908 S1907 1.613 . S
N1908 C1911 1.350 . S
N1909 S1907 1.610 . S
N1909 C1910 1.351 . S
C1910 C1904 1.428 . S
C1910 N1909 1.351 . S
C1910 C1911 1.434 . S
C1911 C1902 1.429 . S
C1911 N1908 1.350 . S
C1911 C1910 1.434 . S
C1912 C1913 1.369 . S
C1912 C1914 1.419 . S
C1912 H1916 0.930 . S
C1913 C1912 1.369 . S
C1913 C1922 1.429 . S
C1914 C1912 1.419 . S
C1914 C1915 1.363 . S
C1914 H1917 0.929 . S
C1915 C1914 1.363 . S
C1915 C1921 1.428 . S
H1916 C1912 0.930 . S
H1917 C1914 0.929 . S
S1918 N1919 1.613 . S
S1918 N1920 1.610 . S
N1919 S1918 1.613 . S
N1919 C1922 1.350 . S
N1920 S1918 1.610 . S
N1920 C1921 1.351 . S
C1921 C1915 1.428 . S
C1921 N1920 1.351 . S
C1921 C1922 1.434 . S
C1922 C1913 1.429 . S
C1922 N1919 1.350 . S
C1922 C1921 1.434 . S
C1923 C1924 1.369 . S
C1923 C1925 1.419 . S
C1923 H1927 0.930 . S
C1924 C1923 1.369 . S
C1924 C1933 1.429 . S
C1925 C1923 1.419 . S
C1925 C1926 1.363 . S
C1925 H1928 0.929 . S
C1926 C1925 1.363 . S
C1926 C1932 1.428 . S
H1927 C1923 0.930 . S
H1928 C1925 0.929 . S
S1929 N1930 1.613 . S
S1929 N1931 1.610 . S
N1930 S1929 1.613 . S
N1930 C1933 1.350 . S
N1931 S1929 1.610 . S
N1931 C1932 1.351 . S
C1932 C1926 1.428 . S
C1932 N1931 1.351 . S
C1932 C1933 1.434 . S
C1933 C1924 1.429 . S
C1933 N1930 1.350 . S
C1933 C1932 1.434 . S
C1934 C1935 1.369 . S
C1934 C1936 1.419 . S
C1934 H1938 0.930 . S
C1935 C1934 1.369 . S
C1935 C1944 1.429 . S
C1936 C1934 1.419 . S
C1936 C1937 1.363 . S
C1936 H1939 0.929 . S
C1937 C1936 1.363 . S
C1937 C1943 1.428 . S
H1938 C1934 0.930 . S
H1939 C1936 0.929 . S
S1940 N1941 1.613 . S
S1940 N1942 1.610 . S
N1941 S1940 1.613 . S
N1941 C1944 1.350 . S
N1942 S1940 1.610 . S
N1942 C1943 1.351 . S
C1943 C1937 1.428 . S
C1943 N1942 1.351 . S
C1943 C1944 1.434 . S
C1944 C1935 1.429 . S
C1944 N1941 1.350 . S
C1944 C1943 1.434 . S
C1945 C1946 1.369 . S
C1945 C1947 1.419 . S
C1945 H1949 0.930 . S
C1946 C1945 1.369 . S
C1946 C1955 1.429 . S
C1947 C1945 1.419 . S
C1947 C1948 1.363 . S
C1947 H1950 0.929 . S
C1948 C1947 1.363 . S
C1948 C1954 1.428 . S
H1949 C1945 0.930 . S
H1950 C1947 0.929 . S
S1951 N1952 1.613 . S
S1951 N1953 1.610 . S
N1952 S1951 1.613 . S
N1952 C1955 1.350 . S
N1953 S1951 1.610 . S
N1953 C1954 1.351 . S
C1954 C1948 1.428 . S
C1954 N1953 1.351 . S
C1954 C1955 1.434 . S
C1955 C1946 1.429 . S
C1955 N1952 1.350 . S
C1955 C1954 1.434 . S
C1167 C870 1.135 . S
C1165 C859 1.132 . S
C1176 C787 1.130 . S
C1178 C868 1.134 . S
C1189 C869 1.135 . S
C1187 C751 1.133 . S
C1198 C823 1.135 . S
C1200 C871 1.136 . S
C1211 C915 1.135 . S
C1209 C607 1.131 . S
C1222 C975 1.136 . S
C1220 C643 1.133 . S
C1231 C679 1.130 . S
C1233 C914 1.135 . S
C1244 C974 1.135 . S
C1242 C715 1.134 . S
C1253 C463 1.134 . S
C1255 C916 1.137 . S
C1266 C972 1.133 . S
C1264 C499 1.132 . S
C1275 C535 1.133 . S
C1277 C917 1.136 . S
C1286 C571 1.133 . S
C1288 C973 1.134 . S
C1299 C1023 1.135 . S
C1297 C427 1.131 1_554 S
C1308 C355 1.131 1_554 S
C1310 C1022 1.134 . S
C1319 C319 1.134 . S
C1321 C1024 1.135 . S
C1332 C1025 1.136 . S
C1330 C391 1.132 1_554 S
C1341 C175 1.130 . S
C1343 C1066 1.134 . S
C1352 C211 1.133 . S
C1354 C1125 1.136 . S
C1363 C247 1.132 . S
C1365 C1064 1.134 . S
C1374 C283 1.132 . S
C1376 C1124 1.135 . S
C1387 C1065 1.136 . S
C1385 C31 1.132 1_455 S
C1398 C1122 1.133 . S
C1396 C67 1.131 1_545 S
C1407 C103 1.135 . S
C1409 C1067 1.137 . S
C1420 C1123 1.134 . S
C1418 C139 1.131 . S
C1431 C867 2.073 . S
C1429 C25 1.853 1_455 S
C1440 C61 1.856 1_545 S
C1442 C873 2.069 . S
C1451 C97 1.853 . S
C1453 C865 2.074 . S
C1462 C133 1.852 . S
C1464 C872 2.071 . S
C1473 C169 1.856 . S
C1475 C864 2.071 1_655 S
C1486 C874 2.068 . S
C1484 C181 1.921 . S
C1495 C241 1.853 . S
C1497 C866 2.072 . S
C1508 C875 2.066 1_565 S
C1506 C253 1.923 . S
C1519 C921 2.066 1_565 S
C1517 C109 1.924 1_565 S
C1528 C1 1.926 1_455 S
C1530 C964 2.067 . S
C1541 C919 2.066 1_565 S
C1539 C37 1.923 . S
C1552 C966 2.067 . S
C1550 C73 1.928 . S
C1561 C205 1.862 1_565 S
C1563 C920 2.068 1_565 S
C1574 C965 2.066 . S
C1572 C217 1.924 . S
C1585 C918 2.070 . S
C1583 C277 1.856 1_545 S
C1596 C967 2.070 . S
C1594 C145 1.915 1_455 S
C1607 C971 2.071 . S
C1605 C289 1.919 . S
C1616 C325 1.924 1_554 S
C1618 C970 2.067 . S
C1629 C922 2.069 . S
C1627 C313 1.864 . S
C1640 C969 2.071 . S
C1638 C361 1.915 1_554 S
C1649 C397 1.920 1_554 S
C1651 C925 2.070 . S
C1660 C421 1.854 1_554 S
C1662 C968 2.072 . S
C1673 C924 2.070 . S
C1671 C349 1.863 1_554 S
C1684 C923 2.073 . S
C1682 C385 1.852 1_554 S
C1695 C1017 2.073 . S
C1693 C457 1.851 . S
C1706 C1020 2.069 . S
C1704 C493 1.855 . S
C1715 C529 1.857 . S
C1717 C1016 2.072 . S
C1728 C1018 2.068 . S
C1726 C565 1.861 . S
C1739 C1014 2.073 . S
C1737 C601 1.851 . S
C1748 C613 1.916 . S
C1750 C1019 2.069 . S
C1759 C673 1.863 . S
C1761 C1015 2.069 . S
C1772 C1021 2.067 . S
C1770 C685 1.920 . S
C1783 C1075 2.069 . S
C1781 C541 1.915 . S
C1792 C433 1.927 . S
C1794 C1114 2.067 . S
C1805 C1074 2.068 . S
C1803 C469 1.917 . S
C1816 C1116 2.069 . S
C1814 C505 1.923 . S
C1827 C1073 2.072 . S
C1825 C637 1.850 . S
C1836 C649 1.915 . S
C1838 C1115 2.070 . S
C1849 C1072 2.071 . S
C1847 C709 1.853 . S
C1860 C1117 2.066 . S
C1858 C577 1.926 . S
C1871 C1121 2.068 . S
C1869 C721 1.926 . S
C1880 C757 1.916 . S
C1882 C1120 2.071 . S
C1893 C1068 2.072 . S
C1891 C745 1.858 . S
C1902 C793 1.923 . S
C1904 C1119 2.068 . S
C1915 C1071 2.070 . S
C1913 C829 1.919 . S
C1926 C1118 2.071 . S
C1924 C853 1.860 . S
C1937 C1069 2.071 . S
C1935 C781 1.860 . S
C1946 C817 1.852 . S
C1948 C1070 2.074 . S
