# Generated by pormake.
# Topology zzz, (3,6)-cn, num edge types: 1
# Building blocks:
#     Node 0, Type 0, BuildingBlock: PAMTOO_clean_linker_0, # of connection points: 3
#     Node 1, Type 0, BuildingBlock: PAMTOO_clean_linker_0, # of connection points: 3
#     Node 2, Type 0, BuildingBlock: PAMTOO_clean_linker_0, # of connection points: 3
#     Node 3, Type 0, BuildingBlock: PAMTOO_clean_linker_0, # of connection points: 3
#     Node 4, Type 0, BuildingBlock: PAMTOO_clean_linker_0, # of connection points: 3
#     Node 5, Type 0, BuildingBlock: PAMTOO_clean_linker_0, # of connection points: 3
#     Node 6, Type 0, BuildingBlock: PAMTOO_clean_linker_0, # of connection points: 3
#     Node 7, Type 0, BuildingBlock: PAMTOO_clean_linker_0, # of connection points: 3
#     Node 8, Type 1, BuildingBlock: MIFKUJ_clean_sbu_0, # of connection points: 6
#     Node 9, Type 1, BuildingBlock: MIFKUJ_clean_sbu_0, # of connection points: 6
#     Node 10, Type 1, BuildingBlock: MIFKUJ_clean_sbu_0, # of connection points: 6
#     Node 11, Type 1, BuildingBlock: MIFKUJ_clean_sbu_0, # of connection points: 6
#     Edge 12, Type (0, 1), BuildingBlock: XUDNAN_clean_linker_2, # of connection points: 2
#     Edge 13, Type (0, 1), BuildingBlock: XUDNAN_clean_linker_2, # of connection points: 2
#     Edge 14, Type (0, 1), BuildingBlock: XUDNAN_clean_linker_2, # of connection points: 2
#     Edge 15, Type (0, 1), BuildingBlock: XUDNAN_clean_linker_2, # of connection points: 2
#     Edge 16, Type (0, 1), BuildingBlock: XUDNAN_clean_linker_2, # of connection points: 2
#     Edge 17, Type (0, 1), BuildingBlock: XUDNAN_clean_linker_2, # of connection points: 2
#     Edge 18, Type (0, 1), BuildingBlock: XUDNAN_clean_linker_2, # of connection points: 2
#     Edge 19, Type (0, 1), BuildingBlock: XUDNAN_clean_linker_2, # of connection points: 2
#     Edge 20, Type (0, 1), BuildingBlock: XUDNAN_clean_linker_2, # of connection points: 2
#     Edge 21, Type (0, 1), BuildingBlock: XUDNAN_clean_linker_2, # of connection points: 2
#     Edge 22, Type (0, 1), BuildingBlock: XUDNAN_clean_linker_2, # of connection points: 2
#     Edge 23, Type (0, 1), BuildingBlock: XUDNAN_clean_linker_2, # of connection points: 2
#     Edge 24, Type (0, 1), BuildingBlock: XUDNAN_clean_linker_2, # of connection points: 2
#     Edge 25, Type (0, 1), BuildingBlock: XUDNAN_clean_linker_2, # of connection points: 2
#     Edge 26, Type (0, 1), BuildingBlock: XUDNAN_clean_linker_2, # of connection points: 2
#     Edge 27, Type (0, 1), BuildingBlock: XUDNAN_clean_linker_2, # of connection points: 2
#     Edge 28, Type (0, 1), BuildingBlock: XUDNAN_clean_linker_2, # of connection points: 2
#     Edge 29, Type (0, 1), BuildingBlock: XUDNAN_clean_linker_2, # of connection points: 2
#     Edge 30, Type (0, 1), BuildingBlock: XUDNAN_clean_linker_2, # of connection points: 2
#     Edge 31, Type (0, 1), BuildingBlock: XUDNAN_clean_linker_2, # of connection points: 2
#     Edge 32, Type (0, 1), BuildingBlock: XUDNAN_clean_linker_2, # of connection points: 2
#     Edge 33, Type (0, 1), BuildingBlock: XUDNAN_clean_linker_2, # of connection points: 2
#     Edge 34, Type (0, 1), BuildingBlock: XUDNAN_clean_linker_2, # of connection points: 2
#     Edge 35, Type (0, 1), BuildingBlock: XUDNAN_clean_linker_2, # of connection points: 2
# Relax obj value: 0.115
# Max RMSD: 0.119
# Mean RMSD: 0.083
data_MOF--net-zzz--node1-MIFKUJ_clean_sbu_0--node2-PAMTOO_clean_linker_0--edge1-XUDNAN_clean_linker_2
_symmetry_space_group_name_H-M    P1
_symmetry_Int_Tables_number       1
_symmetry_cell_setting            triclinic
loop_
_symmetry_equiv_pos_as_xyz
'x, y, z'
_cell_length_a     50.92064
_cell_length_b     50.632491
_cell_length_c     15.991304
_cell_angle_alpha  90.049513
_cell_angle_beta   90.003969
_cell_angle_gamma 89.850497
loop_
_atom_site_label
_atom_site_type_symbol
_atom_site_fract_x
_atom_site_fract_y
_atom_site_fract_z
_atom_type_partial_charge
H0 H 0.79384 0.49153 0.05802 0.0
H1 H 0.71513 0.50227 0.96608 0.0
H2 H 0.73455 0.52435 0.21841 0.0
H3 H 0.66541 0.51856 0.17962 0.0
C4 C 0.67669 0.50742 0.13168 0.0
O5 O 0.69721 0.52299 0.10451 0.0
H6 H 0.68407 0.48921 0.16312 0.0
C7 C 0.77343 0.49666 0.06889 0.0
C8 C 0.76631 0.50707 0.14683 0.0
C9 C 0.75529 0.49462 0.00318 0.0
C10 C 0.7294 0.50323 0.01628 0.0
C11 C 0.72192 0.51375 0.09393 0.0
C12 C 0.74039 0.51584 0.15904 0.0
H13 H 0.00198 0.78639 0.11791 0.0
H14 H 0.00962 0.7142 0.97956 0.0
H15 H 1.001 0.71184 0.24745 0.0
H16 H 0.03541 0.66451 0.17249 0.0
C17 C 0.02884 0.6688 0.10759 0.0
O18 O 0.00585 0.68329 0.11021 0.0
H19 H 0.04478 0.6801 0.07611 0.0
C20 C 0.0022 0.76495 0.11714 0.0
C21 C 1.00037 0.75092 0.1923 0.0
C22 C 0.00559 0.75197 0.04081 0.0
C23 C 0.00709 0.72441 0.03861 0.0
C24 C 0.00535 0.70995 0.1132 0.0
C25 C 0.00223 0.72317 0.19016 0.0
H26 H 0.70303 0.02546 0.07893 0.0
H27 H 0.77811 0.01609 0.95841 0.0
H28 H 0.77204 0.01107 0.22614 0.0
H29 H 0.83562 0.0239 0.14604 0.0
C30 C 0.82441 0.02315 0.08654 0.0
O31 O 0.80356 0.00595 0.09614 0.0
H32 H 0.8173 0.04352 0.0726 0.0
C33 C 0.72413 0.02271 0.08228 0.0
C34 C 0.73565 0.01867 0.1606 0.0
C35 C 0.73912 0.02249 0.00874 0.0
C36 C 0.76616 0.01722 0.01435 0.0
C37 C 0.77803 0.01324 0.09254 0.0
C38 C 0.76288 0.01452 0.16598 0.0
H39 H 0.51473 0.70976 0.07331 0.0
H40 H 0.54009 0.77875 0.94034 0.0
H41 H 0.56379 0.76695 0.19599 0.0
H42 H 0.56681 0.83284 0.13474 0.0
C43 C 0.55479 0.82313 0.08566 0.0
O44 O 0.56597 0.79897 0.06671 0.0
H45 H 0.53469 0.82077 0.1123 0.0
C46 C 0.52451 0.72878 0.07345 0.0
C47 C 0.53864 0.7367 0.14428 0.0
C48 C 0.52499 0.74365 -0.00017 0.0
C49 C 0.53906 0.76736 0.9976 0.0
C50 C 0.55239 0.77611 0.06919 0.0
C51 C 0.55259 0.76057 0.14205 0.0
H52 H 0.19324 0.50992 0.14292 0.0
H53 H 0.2671 0.51759 0.27058 0.0
H54 H 0.26433 0.5199 0.0015 0.0
H55 H 0.32354 0.5002 0.07817 0.0
C56 C 0.31344 0.50206 0.13943 0.0
O57 O 0.2951 0.52223 0.13439 0.0
H58 H 0.30371 0.48283 0.15297 0.0
C59 C 0.21443 0.51208 0.14077 0.0
C60 C 0.22693 0.51426 0.06329 0.0
C61 C 0.22855 0.51368 0.21563 0.0
C62 C 0.2559 0.51637 0.21307 0.0
C63 C 0.26886 0.51825 0.13587 0.0
C64 C 0.25435 0.51757 0.06085 0.0
H65 H 0.02647 0.20088 0.08785 0.0
H66 H 0.01153 0.2695 0.23729 0.0
H67 H 0.02802 0.27799 0.97446 0.0
H68 H 0.04131 0.33475 0.09994 0.0
C69 C 0.0361 0.31979 0.14789 0.0
O70 O 0.01711 0.30332 0.11464 0.0
H71 H 0.05434 0.30863 0.16345 0.0
C72 C 0.02565 0.22224 0.09304 0.0
C73 C 0.02864 0.23787 0.02148 0.0
C74 C 0.01963 0.23342 0.17057 0.0
C75 C 0.01653 0.26076 0.17752 0.0
C76 C 0.02028 0.27689 0.10727 0.0
C77 C 0.02612 0.26548 0.02903 0.0
H78 H 0.31097 0.99181 0.14007 0.0
H79 H 0.23338 0.98396 0.24383 0.0
H80 H 0.24387 0.01646 0.99739 0.0
H81 H 0.18368 0.03395 0.10092 0.0
C82 C 0.19506 0.0236 0.15033 0.0
O83 O 0.20926 0.00339 0.11323 0.0
H84 H 0.20833 0.0384 0.17975 0.0
C85 C 0.28982 0.99379 0.13455 0.0
C86 C 0.27941 0.00446 0.06109 0.0
C87 C 0.27354 0.98629 0.20107 0.0
C88 C 0.2463 0.9897 0.19325 0.0
C89 C 0.23561 0.00083 0.12039 0.0
C90 C 0.25219 0.00834 0.05419 0.0
H91 H 0.51566 0.29112 0.0952 0.0
H92 H 0.50654 0.22606 0.26501 0.0
H93 H 0.46962 0.22384 0.02303 0.0
H94 H 0.438 0.19586 0.1638 0.0
C95 C 0.45487 0.19475 0.20782 0.0
O96 O 0.47792 0.19771 0.16336 0.0
H97 H 0.45252 0.21088 0.25469 0.0
C98 C 0.50881 0.27124 0.10788 0.0
C99 C 0.49293 0.25855 0.0488 0.0
C100 C 0.51352 0.25998 0.18636 0.0
C101 C 0.5034 0.23488 0.20408 0.0
C102 C 0.48794 0.22167 0.14474 0.0
C103 C 0.48231 0.23369 0.06752 0.0
Zn104 Zn 0.00935 0.03562 0.61349 0.0
Zn105 Zn 0.00924 0.95294 0.61609 0.0
C106 C 1.00183 0.0837 0.69228 0.0
O107 O 0.97868 0.07808 0.66066 0.0
C108 C 0.01812 0.90677 0.53066 0.0
O109 O 0.04094 0.91317 0.56317 0.0
O110 O 0.9965 0.05637 0.51464 0.0
O111 O 0.0413 0.0158 0.5703 0.0
O112 O 0.04029 0.97199 0.56766 0.0
C113 C 0.01488 0.07082 0.48673 0.0
O114 O 0.0388 0.06711 0.51515 0.0
O115 O 0.01984 0.0662 0.68919 0.0
C116 C 0.00325 0.91553 0.73709 0.0
O117 O 0.97922 0.91994 0.71054 0.0
O118 O 0.02153 0.93066 0.71224 0.0
O119 O 0.97784 0.97307 0.66073 0.0
O120 O 0.97846 0.01693 0.66595 0.0
O121 O 0.99925 0.9233 0.53585 0.0
C122 C 0.05183 0.99369 0.55263 0.0
C123 C 0.96724 0.99499 0.68034 0.0
Zn124 Zn 0.47022 0.98738 0.60528 0.0
Zn125 Zn 0.54146 0.01063 0.59337 0.0
C126 C 0.44186 0.9901 0.74993 0.0
O127 O 0.44515 0.96472 0.73605 0.0
C128 C 0.57263 0.03155 0.47212 0.0
O129 O 0.56425 0.05209 0.5149 0.0
O130 O 0.43709 0.97285 0.55284 0.0
O131 O 0.48592 0.01174 0.51926 0.0
O132 O 0.51293 0.03864 0.58392 0.0
C133 C 0.41776 0.98882 0.55578 0.0
O134 O 0.42153 0.01305 0.58248 0.0
O135 O 0.45539 0.00627 0.70698 0.0
C136 C 0.59087 0.00621 0.65287 0.0
O137 O 0.58661 0.98511 0.607 0.0
O138 O 0.57185 0.02208 0.66638 0.0
O139 O 0.53256 0.97413 0.63746 0.0
O140 O 0.49261 0.95716 0.64355 0.0
O141 O 0.56099 0.00956 0.48267 0.0
C142 C 0.49287 0.03506 0.53793 0.0
C143 C 0.51719 0.95521 0.65536 0.0
Zn144 Zn 0.49806 0.45923 0.61042 0.0
Zn145 Zn 0.5089 0.5408 0.59692 0.0
C146 C 0.50001 0.41404 0.71006 0.0
O147 O 0.52454 0.41698 0.6864 0.0
C148 C 0.51152 0.57695 0.4688 0.0
O149 O 0.48643 0.57604 0.48772 0.0
O150 O 0.51487 0.43631 0.52258 0.0
O151 O 0.46791 0.4789 0.55559 0.0
O152 O 0.47728 0.5216 0.55166 0.0
C153 C 0.49982 0.41771 0.49946 0.0
O154 O 0.47511 0.41818 0.52321 0.0
O155 O 0.48341 0.43181 0.69029 0.0
C156 C 0.51434 0.58805 0.68045 0.0
O157 O 0.53852 0.582 0.65878 0.0
O158 O 0.49619 0.57145 0.66612 0.0
O159 O 0.5352 0.52155 0.6688 0.0
O160 O 0.52684 0.4786 0.67227 0.0
O161 O 0.52688 0.56021 0.5025 0.0
C162 C 0.46205 0.50244 0.53502 0.0
C163 C 0.54042 0.49842 0.69474 0.0
Zn164 Zn 0.03041 0.49885 0.63675 0.0
Zn165 Zn 0.95296 0.48989 0.61951 0.0
C166 C 0.06504 0.5227 0.74232 0.0
O167 O 0.05788 0.54094 0.68848 0.0
C168 C 0.92974 0.49285 0.46487 0.0
O169 O 0.93264 0.46736 0.47737 0.0
O170 O 0.05931 0.50546 0.55344 0.0
O171 O 0.01762 0.46223 0.6037 0.0
O172 O 0.97429 0.45757 0.59108 0.0
C173 C 0.07718 0.48818 0.56523 0.0
O174 O 0.0725 0.46862 0.61706 0.0
O175 O 0.05246 0.50094 0.74269 0.0
C176 C 0.89996 0.49589 0.65743 0.0
O177 O 0.90659 0.51966 0.63249 0.0
O178 O 0.91766 0.47821 0.66396 0.0
O179 O 0.96822 0.5135 0.70751 0.0
O180 O 0.00274 0.52754 0.63854 0.0
O181 O 0.94178 0.50866 0.51343 0.0
C182 C 0.99751 0.44833 0.58629 0.0
C183 C 0.98815 0.52839 0.70296 0.0
H184 H 0.16075 0.05227 0.24505 0.0
H185 H 0.18636 0.97149 0.20272 0.0
H186 H 0.15506 0.95598 0.30889 0.0
H187 H 0.14988 0.04636 0.47018 0.0
H188 H 0.12097 0.06698 0.46912 0.0
H189 H 0.14658 0.07214 0.39314 0.0
H190 H 0.11273 0.06688 0.27328 0.0
H191 H 0.08708 0.06184 0.34896 0.0
H192 H 0.09283 0.03752 0.26857 0.0
H193 H 0.1196 0.94878 0.41525 0.0
H194 H 0.08136 0.95036 0.50964 0.0
H195 H 0.07853 0.03569 0.48362 0.0
C196 C 0.15987 0.03135 0.25878 0.0
C197 C 0.17623 0.01325 0.21593 0.0
C198 C 0.17432 0.98593 0.23483 0.0
C199 C 0.15656 0.97686 0.29531 0.0
C200 C 0.14077 0.99525 0.33636 0.0
C201 C 0.14216 0.02193 0.31878 0.0
C202 C 0.12213 0.03741 0.36923 0.0
C203 C 0.13571 0.05687 0.42897 0.0
C204 C 0.10253 0.05175 0.31156 0.0
C205 C 0.10901 0.0152 0.41693 0.0
C206 C 0.1202 0.99108 0.39755 0.0
C207 C 0.11078 0.96758 0.43133 0.0
C208 C 0.08902 0.9687 0.48503 0.0
C209 C 0.07679 0.99315 0.50441 0.0
C210 C 0.08739 0.01669 0.47085 0.0
H211 H 0.48918 0.17887 0.33025 0.0
H212 H 0.42168 0.15242 0.1881 0.0
H213 H 0.42265 0.10975 0.26336 0.0
H214 H 0.52312 0.11706 0.33079 0.0
H215 H 0.53573 0.12064 0.4355 0.0
H216 H 0.5289 0.14951 0.37344 0.0
H217 H 0.49832 0.1674 0.49009 0.0
H218 H 0.505 0.13852 0.55244 0.0
H219 H 0.4716 0.14725 0.52702 0.0
H220 H 0.43172 0.06976 0.35041 0.0
H221 H 0.44907 0.03422 0.43985 0.0
H222 H 0.5111 0.08632 0.52605 0.0
C223 C 0.47458 0.16405 0.31551 0.0
C224 C 0.45533 0.16881 0.25368 0.0
C225 C 0.43655 0.14909 0.2354 0.0
C226 C 0.43692 0.12487 0.27792 0.0
C227 C 0.45619 0.12076 0.3385 0.0
C228 C 0.47473 0.13974 0.35723 0.0
C229 C 0.49386 0.12994 0.42302 0.0
C230 C 0.52207 0.12924 0.38861 0.0
C231 C 0.49207 0.14678 0.50288 0.0
C232 C 0.48337 0.10233 0.4376 0.0
C233 C 0.46152 0.09756 0.38861 0.0
C234 C 0.44875 0.0733 0.3893 0.0
C235 C 0.45879 0.05321 0.44041 0.0
C236 C 0.48147 0.05741 0.49014 0.0
C237 C 0.49364 0.08249 0.48936 0.0
H238 H 0.34279 0.46647 0.22936 0.0
H239 H 0.33121 0.55068 0.19529 0.0
H240 H 0.36585 0.55964 0.29946 0.0
H241 H 0.35699 0.46809 0.45349 0.0
H242 H 0.38193 0.44284 0.44677 0.0
H243 H 0.35497 0.44298 0.37376 0.0
H244 H 0.38785 0.44363 0.25012 0.0
H245 H 0.41487 0.44347 0.3227 0.0
H246 H 0.41236 0.46922 0.24533 0.0
H247 H 0.40256 0.55952 0.40422 0.0
H248 H 0.44025 0.55046 0.49654 0.0
H249 H 0.42912 0.46622 0.46023 0.0
C250 C 0.34727 0.48678 0.24505 0.0
C251 C 0.33369 0.50786 0.20621 0.0
C252 C 0.34077 0.5342 0.22595 0.0
C253 C 0.36047 0.53948 0.28495 0.0
C254 C 0.37322 0.51824 0.32288 0.0
C255 C 0.36702 0.4924 0.30346 0.0
C256 C 0.38472 0.47322 0.34984 0.0
C257 C 0.36869 0.45575 0.40951 0.0
C258 C 0.40091 0.4564 0.28832 0.0
C259 C 0.40199 0.49231 0.39778 0.0
C260 C 0.39488 0.51817 0.38178 0.0
C261 C 0.40828 0.53934 0.41728 0.0
C262 C 0.42976 0.53397 0.46954 0.0
C263 C 0.43784 0.50763 0.4856 0.0
C264 C 0.42342 0.48657 0.44986 0.0
H265 H 0.06177 0.35746 0.23786 0.0
H266 H 0.98837 0.31405 0.23353 0.0
H267 H 0.9734 0.33836 0.35799 0.0
H268 H 0.06756 0.36249 0.46811 0.0
H269 H 0.08048 0.39558 0.46379 0.0
H270 H 0.08677 0.37282 0.37933 0.0
H271 H 0.06698 0.40617 0.27361 0.0
H272 H 0.06091 0.42902 0.3576 0.0
H273 H 0.03429 0.41883 0.29073 0.0
H274 H 0.96446 0.37021 0.47435 0.0
H275 H 0.96167 0.40847 0.56971 0.0
H276 H 0.04101 0.43092 0.50133 0.0
C277 C 0.04269 0.35287 0.26397 0.0
C278 C 0.02641 0.33377 0.22588 0.0
C279 C 1.00141 0.32845 0.26125 0.0
C280 C 0.99271 0.34211 0.33244 0.0
C281 C 0.00921 0.36093 0.36804 0.0
C282 C 0.03369 0.36634 0.33504 0.0
C283 C 0.04679 0.38885 0.38154 0.0
C284 C 0.07189 0.37936 0.42583 0.0
C285 C 0.05257 0.41209 0.32235 0.0
C286 C 0.02551 0.39578 0.44417 0.0
C287 C 0.00413 0.37921 0.436 0.0
C288 C 0.98124 0.38303 0.48232 0.0
C289 C 0.97985 0.40481 0.53645 0.0
C290 C 1.00122 0.42253 0.54391 0.0
C291 C 0.02459 0.41739 0.49883 0.0
H292 H 0.86025 0.05247 -0.00115 0.0
H293 H 0.83075 0.97248 0.02212 0.0
H294 H 0.86168 0.95766 0.91317 0.0
H295 H 0.87221 0.05124 0.77308 0.0
H296 H 0.90215 0.07002 0.7808 0.0
H297 H 0.87633 0.07489 0.85638 0.0
H298 H 0.90899 0.0648 0.97652 0.0
H299 H 0.93488 0.05999 0.90135 0.0
H300 H 0.92726 0.03425 0.9752 0.0
H301 H 0.89682 0.95103 0.80545 0.0
H302 H 0.93536 0.95259 0.71239 0.0
H303 H 0.94302 0.03668 0.76053 0.0
C304 C 0.86005 0.03193 0.97986 0.0
C305 C 0.84251 0.01386 0.01729 0.0
C306 C 0.84344 0.98692 0.99297 0.0
C307 C 0.86099 0.97827 0.93109 0.0
C308 C 0.87777 0.99667 0.89475 0.0
C309 C 0.87758 0.02292 0.91849 0.0
C310 C 0.89875 0.0383 0.87309 0.0
C311 C 0.88663 0.05989 0.81753 0.0
C312 C 0.91865 0.05001 0.93525 0.0
C313 C 0.91103 0.01653 0.82084 0.0
C314 C 0.89847 0.99272 0.83379 0.0
C315 C 0.90675 0.96958 0.79455 0.0
C316 C 0.92873 0.97068 0.7418 0.0
C317 C 0.94235 0.99473 0.72893 0.0
C318 C 0.93299 0.018 0.76823 0.0
H319 H 0.51166 0.84241 0.0006 0.0
H320 H 0.59674 0.84271 -0.00051 0.0
H321 H 0.59642 0.87292 0.87766 0.0
H322 H 0.50249 0.84635 0.77156 0.0
H323 H 0.47441 0.8679 0.78062 0.0
H324 H 0.48139 0.84422 0.8618 0.0
H325 H 0.48185 0.88183 0.97186 0.0
H326 H 0.47481 0.90555 0.8912 0.0
H327 H 0.50331 0.90969 0.95672 0.0
H328 H 0.58677 0.90594 0.76486 0.0
H329 H 0.56872 0.94021 0.67157 0.0
H330 H 0.4897 0.91841 0.74584 0.0
C331 C 0.53017 0.84858 0.97378 0.0
C332 C 0.55427 0.84032 0.0089 0.0
C333 C 0.57815 0.84888 0.97292 0.0
C334 C 0.57811 0.86592 0.90377 0.0
C335 C 0.55401 0.87404 0.87116 0.0
C336 C 0.53047 0.86562 0.90485 0.0
C337 C 0.50733 0.87865 0.86168 0.0
C338 C 0.49041 0.85805 0.81621 0.0
C339 C 0.49087 0.8949 0.92408 0.0
C340 C 0.52155 0.89628 0.8001 0.0
C341 C 0.54845 0.89308 0.80589 0.0
C342 C 0.56573 0.90838 0.75902 0.0
C343 C 0.55527 0.92786 0.70624 0.0
C344 C 0.52779 0.93199 0.70088 0.0
C345 C 0.51078 0.9155 0.74722 0.0
H346 H 0.64582 0.54125 0.04011 0.0
H347 H 0.66719 0.45865 0.06207 0.0
H348 H 0.63582 0.44746 0.9492 0.0
H349 H 0.57776 0.53174 0.00486 0.0
H350 H 0.57451 0.55815 0.93 0.0
H351 H 0.59951 0.55975 0.00942 0.0
H352 H 0.63516 0.5654 0.89523 0.0
H353 H 0.61022 0.56389 0.81543 0.0
H354 H 0.63768 0.54136 0.81234 0.0
H355 H 0.60008 0.44507 0.84034 0.0
H356 H 0.56408 0.45174 0.73909 0.0
H357 H 0.56678 0.53622 0.78527 0.0
C358 C 0.64399 0.52087 0.02035 0.0
C359 C 0.65873 0.50075 0.05974 0.0
C360 C 0.65594 0.47429 0.0327 0.0
C361 C 0.63822 0.46778 0.9687 0.0
C362 C 0.62364 0.48803 0.93193 0.0
C363 C 0.6265 0.51408 0.95625 0.0
C364 C 0.60816 0.53202 0.90765 0.0
C365 C 0.58884 0.54624 0.96651 0.0
C366 C 0.62374 0.55183 0.8545 0.0
C367 C 0.59422 0.51195 0.85319 0.0
C368 C 0.60344 0.4867 0.86812 0.0
C369 C 0.59288 0.46479 0.82758 0.0
C370 C 0.57235 0.46877 0.77034 0.0
C371 C 0.56261 0.4945 0.75379 0.0
C372 C 0.57391 0.51632 0.79569 0.0
H373 H 0.03927 0.65722 0.94218 0.0
H374 H 0.00588 0.62404 0.16799 0.0
H375 H 0.99444 0.58329 0.0906 0.0
H376 H 0.99184 0.63309 0.80248 0.0
H377 H 0.0144 0.62591 0.71857 0.0
H378 H 0.02195 0.6515 0.7929 0.0
H379 H 0.06627 0.6285 0.82703 0.0
H380 H 0.05881 0.6029 0.75238 0.0
H381 H 0.0664 0.59436 0.85905 0.0
H382 H 0.98397 0.54784 0.98754 0.0
H383 H 0.97523 0.51944 0.86547 0.0
H384 H 0.01577 0.57515 0.70521 0.0
C385 C 0.03003 0.6411 0.97542 0.0
C386 C 0.02387 0.6434 0.06133 0.0
C387 C 0.01113 0.62233 0.10256 0.0
C388 C 0.00459 0.59919 0.05914 0.0
C389 C 0.01097 0.59747 0.97451 0.0
C390 C 0.02353 0.61777 0.93304 0.0
C391 C 0.02709 0.61128 0.84104 0.0
C392 C 0.01297 0.63166 0.7855 0.0
C393 C 0.05639 0.60914 0.81859 0.0
C394 C 0.01388 0.58452 0.83683 0.0
C395 C 0.00494 0.57687 0.91475 0.0
C396 C 0.99113 0.55348 0.9264 0.0
C397 C 0.98617 0.53754 0.85658 0.0
C398 C 0.99504 0.54497 0.77598 0.0
C399 C 0.00923 0.56872 0.7663 0.0
H400 H 0.05438 0.19829 0.23221 0.0
H401 H 0.97464 0.22674 0.26105 0.0
H402 H 0.96419 0.18783 0.34919 0.0
H403 H 0.03883 0.1337 0.20175 0.0
H404 H 0.06636 0.11978 0.25736 0.0
H405 H 0.06906 0.15193 0.21046 0.0
H406 H 0.08189 0.17264 0.35313 0.0
H407 H 0.08022 0.14035 0.39997 0.0
H408 H 0.06124 0.16721 0.44305 0.0
H409 H 0.96136 0.14246 0.41709 0.0
H410 H 0.968 0.09764 0.47572 0.0
H411 H 0.04945 0.09949 0.39628 0.0
C412 C 0.03505 0.19681 0.26015 0.0
C413 C 0.01535 0.21544 0.2414 0.0
C414 C 0.99005 0.21279 0.27666 0.0
C415 C 0.98392 0.19067 0.32582 0.0
C416 C 0.00345 0.17173 0.339 0.0
C417 C 0.02867 0.17494 0.30859 0.0
C418 C 0.04565 0.15108 0.32573 0.0
C419 C 0.05554 0.13839 0.24397 0.0
C420 C 0.0686 0.15825 0.38397 0.0
C421 C 0.02596 0.13364 0.36909 0.0
C422 C 1.00172 0.14576 0.37638 0.0
C423 C 0.98034 0.1329 0.41246 0.0
C424 C 0.98418 0.10736 0.4445 0.0
C425 C 0.00921 0.09517 0.44006 0.0
C426 C 0.0301 0.10836 0.40051 0.0
H427 H 0.31484 0.95226 0.2183 0.0
H428 H 0.26078 0.00085 0.36083 0.0
H429 H 0.28894 0.99601 0.48503 0.0
H430 H 0.3425 0.91109 0.40353 0.0
H431 H 0.37485 0.91258 0.35799 0.0
H432 H 0.34628 0.9111 0.29144 0.0
H433 H 0.36168 0.95356 0.21606 0.0
H434 H 0.38988 0.9555 0.28272 0.0
H435 H 0.36748 0.98307 0.2765 0.0
H436 H 0.32749 0.99764 0.57661 0.0
H437 H 0.37244 0.00434 0.62939 0.0
H438 H 0.40331 0.95613 0.42804 0.0
C439 C 0.30844 0.96096 0.27676 0.0
C440 C 0.28572 0.977 0.27999 0.0
C441 C 0.2779 0.98817 0.35717 0.0
C442 C 0.29386 0.98554 0.42811 0.0
C443 C 0.31736 0.97148 0.42091 0.0
C444 C 0.32445 0.95893 0.34738 0.0
C445 C 0.35274 0.94959 0.35007 0.0
C446 C 0.35417 0.91929 0.35084 0.0
C447 C 0.36886 0.96114 0.27709 0.0
C448 C 0.36119 0.96094 0.43334 0.0
C449 C 0.34024 0.9727 0.47447 0.0
C450 C 0.34383 0.98783 0.54635 0.0
C451 C 0.36944 0.99175 0.57539 0.0
C452 C 0.3911 0.98063 0.53251 0.0
C453 C 0.38689 0.96423 0.46271 0.0
H454 H 0.48998 0.27233 0.33217 0.0
H455 H 0.55912 0.28838 0.18364 0.0
H456 H 0.56764 0.32846 0.26743 0.0
H457 H 0.46636 0.3316 0.32837 0.0
H458 H 0.45327 0.33377 0.4329 0.0
H459 H 0.45726 0.30208 0.38432 0.0
H460 H 0.48635 0.28591 0.50684 0.0
H461 H 0.48194 0.31739 0.55789 0.0
H462 H 0.51455 0.30499 0.53803 0.0
H463 H 0.56252 0.3715 0.3429 0.0
H464 H 0.5456 0.41232 0.40983 0.0
H465 H 0.47847 0.36872 0.50269 0.0
C466 C 0.50785 0.28335 0.32118 0.0
C467 C 0.52417 0.27716 0.25279 0.0
C468 C 0.54671 0.29267 0.23698 0.0
C469 C 0.55162 0.31549 0.28412 0.0
C470 C 0.53391 0.32231 0.34707 0.0
C471 C 0.51274 0.30634 0.36696 0.0
C472 C 0.49417 0.32007 0.42688 0.0
C473 C 0.46614 0.32199 0.39088 0.0
C474 C 0.49427 0.30627 0.51249 0.0
C475 C 0.50703 0.34686 0.43215 0.0
C476 C 0.53034 0.34761 0.38807 0.0
C477 C 0.54459 0.37097 0.37916 0.0
C478 C 0.53476 0.39407 0.41661 0.0
C479 C 0.51062 0.39367 0.46035 0.0
C480 C 0.49687 0.36968 0.46885 0.0
H481 H 0.18585 0.54285 0.25721 0.0
H482 H 0.23716 0.48093 0.34888 0.0
H483 H 0.2055 0.47145 0.46244 0.0
H484 H 0.15645 0.56311 0.46585 0.0
H485 H 0.12474 0.56797 0.41808 0.0
H486 H 0.15423 0.57419 0.35896 0.0
H487 H 0.13792 0.54195 0.24438 0.0
H488 H 0.10879 0.53504 0.30371 0.0
H489 H 0.13015 0.50838 0.27228 0.0
H490 H 0.16503 0.46306 0.54593 0.0
H491 H 0.12028 0.45831 0.6016 0.0
H492 H 0.09447 0.52496 0.45157 0.0
C493 C 0.19082 0.52799 0.3033 0.0
C494 C 0.21384 0.51261 0.29501 0.0
C495 C 0.21975 0.49311 0.35528 0.0
C496 C 0.20183 0.48756 0.41953 0.0
C497 C 0.17841 0.50194 0.42256 0.0
C498 C 0.17309 0.5221 0.36686 0.0
C499 C 0.14527 0.5323 0.37624 0.0
C500 C 0.14517 0.5611 0.40662 0.0
C501 C 0.12963 0.52921 0.29431 0.0
C502 C 0.13527 0.51387 0.44318 0.0
C503 C 0.1548 0.4968 0.46997 0.0
C504 C 0.14975 0.47665 0.52671 0.0
C505 C 0.12416 0.47399 0.55729 0.0
C506 C 0.10385 0.49127 0.53067 0.0
C507 C 0.10961 0.51157 0.47337 0.0
H508 H 0.96838 0.78295 0.97251 0.0
H509 H 0.0499 0.75987 0.94933 0.0
H510 H 0.0582 0.79879 0.85929 0.0
H511 H 0.96108 0.81426 0.75753 0.0
H512 H 0.9402 0.83967 0.80047 0.0
H513 H 0.93993 0.80697 0.84487 0.0
H514 H 0.95002 0.82734 0.99006 0.0
H515 H 0.95149 0.85993 0.94602 0.0
H516 H 0.97915 0.84706 0.00347 0.0
H517 H 0.05903 0.84454 0.79582 0.0
H518 H 0.05094 0.89012 0.74594 0.0
H519 H 0.96885 0.88291 0.81486 0.0
C520 C 0.98758 0.78538 0.94435 0.0
C521 C 0.00841 0.76836 0.96565 0.0
C522 C 0.03363 0.77245 0.93128 0.0
C523 C 0.03852 0.79462 0.881 0.0
C524 C 0.01787 0.81213 0.86566 0.0
C525 C 0.99271 0.80735 0.8946 0.0
C526 C 0.97455 0.83036 0.8775 0.0
C527 C 0.95265 0.82233 0.81643 0.0
C528 C 0.96316 0.84183 0.95911 0.0
C529 C 0.99359 0.84928 0.83732 0.0
C530 C 0.01844 0.83847 0.83046 0.0
C531 C 0.03953 0.85302 0.79954 0.0
C532 C 0.03484 0.87899 0.77254 0.0
C533 C 0.00928 0.89001 0.77687 0.0
C534 C 0.98858 0.87497 0.81056 0.0
H535 H 0.69797 0.05532 0.97138 0.0
H536 H 0.74856 0.99525 0.86306 0.0
H537 H 0.71906 0.99223 0.74165 0.0
H538 H 0.64302 0.02194 0.93952 0.0
H539 H 0.62159 0.04945 0.91728 0.0
H540 H 0.65039 0.05431 0.98009 0.0
H541 H 0.66678 0.09064 0.87892 0.0
H542 H 0.63768 0.08628 0.81615 0.0
H543 H 0.6697 0.08352 0.76882 0.0
H544 H 0.68028 0.98793 0.65109 0.0
H545 H 0.63546 0.98249 0.59748 0.0
H546 H 0.60734 0.04217 0.77106 0.0
C547 C 0.70326 0.04206 0.92095 0.0
C548 C 0.72555 0.02543 0.92705 0.0
C549 C 0.73189 0.00851 0.85949 0.0
C550 C 0.71513 0.0066 0.79023 0.0
C551 C 0.69221 0.02175 0.78954 0.0
C552 C 0.68635 0.03936 0.8529 0.0
C553 C 0.65842 0.04957 0.84585 0.0
C554 C 0.64243 0.04343 0.92536 0.0
C555 C 0.65814 0.07927 0.82624 0.0
C556 C 0.64891 0.03362 0.77188 0.0
C557 C 0.66899 0.01837 0.73879 0.0
C558 C 0.66455 1.00012 0.6754 0.0
C559 C 0.6389 0.99699 0.6461 0.0
C560 C 0.61788 0.01175 0.68089 0.0
C561 C 0.62309 0.03079 0.74304 0.0
H562 H 0.55344 0.72541 0.8708 0.0
H563 H 0.47422 0.73071 0.96646 0.0
H564 H 0.46051 0.69474 0.87168 0.0
H565 H 0.53615 0.70016 0.6477 0.0
H566 H 0.56435 0.67858 0.65044 0.0
H567 H 0.5655 0.71027 0.70192 0.0
H568 H 0.57889 0.68681 0.83932 0.0
H569 H 0.5769 0.65509 0.78981 0.0
H570 H 0.55774 0.66173 0.88227 0.0
H571 H 0.45833 0.65167 0.79641 0.0
H572 H 0.46708 0.60724 0.73804 0.0
H573 H 0.54844 0.62898 0.69718 0.0
C574 C 0.53285 0.72019 0.86706 0.0
C575 C 0.51465 0.73114 0.9236 0.0
C576 C 0.48815 0.72295 0.92145 0.0
C577 C 0.48029 0.70243 0.86822 0.0
C578 C 0.49922 0.69046 0.81772 0.0
C579 C 0.5249 0.69942 0.81538 0.0
C580 C 0.5425 0.68043 0.76817 0.0
C581 C 0.55272 0.69312 0.68723 0.0
C582 C 0.56532 0.67044 0.82323 0.0
C583 C 0.52316 0.65864 0.74941 0.0
C584 C 0.49817 0.66498 0.7765 0.0
C585 C 0.47767 0.64677 0.77294 0.0
C586 C 0.48286 0.62151 0.74049 0.0
C587 C 0.50845 0.61464 0.71341 0.0
C588 C 0.52865 0.63364 0.71716 0.0
H589 H 0.7898 0.45503 0.96618 0.0
H590 H 0.7444 0.51798 0.85279 0.0
H591 H 0.77225 0.51562 0.72748 0.0
H592 H 0.84587 0.48123 0.92909 0.0
H593 H 0.86508 0.45204 0.90766 0.0
H594 H 0.83611 0.44964 0.97062 0.0
H595 H 0.81668 0.41449 0.87078 0.0
H596 H 0.84604 0.41621 0.80791 0.0
H597 H 0.81433 0.42132 0.76041 0.0
H598 H 0.8115 0.51717 0.6396 0.0
H599 H 0.8574 0.52098 0.59317 0.0
H600 H 0.8802 0.45915 0.76599 0.0
C601 C 0.78502 0.46741 0.91312 0.0
C602 C 0.76507 0.48677 0.9193 0.0
C603 C 0.75933 0.50275 0.84917 0.0
C604 C 0.7752 0.5016 0.77766 0.0
C605 C 0.79655 0.48425 0.7772 0.0
C606 C 0.80123 0.46701 0.84267 0.0
C607 C 0.82829 0.45459 0.83615 0.0
C608 C 0.84478 0.45972 0.91551 0.0
C609 C 0.8262 0.42489 0.81767 0.0
C610 C 0.83903 0.46935 0.76144 0.0
C611 C 0.82008 0.48563 0.72654 0.0
C612 C 0.82624 0.50394 0.66467 0.0
C613 C 0.85244 0.50618 0.63939 0.0
C614 C 0.87222 0.49034 0.67632 0.0
C615 C 0.86528 0.47107 0.7358 0.0
H616 H 0.06014 0.1959 0.98223 0.0
H617 H 1.00002 0.24726 0.87994 0.0
H618 H 0.99199 0.21504 0.76707 0.0
H619 H 0.08148 0.16285 0.77633 0.0
H620 H 0.08494 0.13157 0.82901 0.0
H621 H 0.09186 0.16186 0.88407 0.0
H622 H 0.05877 0.14826 -0.00101 0.0
H623 H 0.05108 0.1184 0.94361 0.0
H624 H 0.02524 0.14129 0.97044 0.0
H625 H 0.98261 0.17363 0.68995 0.0
H626 H 0.97543 0.1278 0.6444 0.0
H627 H 0.0404 0.10167 0.79948 0.0
C628 C 0.04619 0.2009 0.93358 0.0
C629 C 0.03074 0.22412 0.93961 0.0
C630 C 0.0124 0.22988 0.87578 0.0
C631 C 0.00757 0.21152 0.81177 0.0
C632 C 0.02146 0.1877 0.81216 0.0
C633 C 0.04084 0.18256 0.87043 0.0
C634 C 0.05002 0.15404 0.86564 0.0
C635 C 0.07878 0.15249 0.83703 0.0
C636 C 0.04602 0.13967 0.94962 0.0
C637 C 0.0317 0.1435 0.79898 0.0
C638 C 0.01573 0.16338 0.76799 0.0
C639 C 0.99543 0.15807 0.71225 0.0
C640 C 0.99131 0.13187 0.68755 0.0
C641 C 0.00734 0.11115 0.71862 0.0
C642 C 0.02808 0.11716 0.77398 0.0
H643 H 0.30301 0.96854 0.96265 0.0
H644 H 0.29957 0.05228 0.01472 0.0
H645 H 0.34033 0.05897 0.93216 0.0
H646 H 0.3678 0.96115 0.99502 0.0
H647 H 0.37404 0.93717 0.91395 0.0
H648 H 0.34188 0.93967 0.95961 0.0
H649 H 0.32102 0.94746 0.8137 0.0
H650 H 0.35305 0.94414 0.7668 0.0
H651 H 0.33363 0.9733 0.74751 0.0
H652 H 0.38511 0.05489 0.85867 0.0
H653 H 0.42746 0.04087 0.7954 0.0
H654 H 0.40132 0.95939 0.80177 0.0
C655 C 0.31017 0.98843 0.95281 0.0
C656 C 0.29791 0.01003 0.99239 0.0
C657 C 0.30833 0.03568 0.98219 0.0
C658 C 0.33158 0.03956 0.93616 0.0
C659 C 0.34399 0.01754 0.90106 0.0
C660 C 0.3333 0.99252 0.90782 0.0
C661 C 0.35147 0.9717 0.87239 0.0
C662 C 0.35925 0.95124 0.93925 0.0
C663 C 0.33905 0.95837 0.79554 0.0
C664 C 0.37454 0.98864 0.8477 0.0
C665 C 0.36986 0.01509 0.86306 0.0
C666 C 0.38883 0.03423 0.84588 0.0
C667 C 0.41291 0.02609 0.81069 0.0
C668 C 0.41791 0.99901 0.79462 0.0
C669 C 0.3984 0.98022 0.81416 0.0
H670 H 0.52585 0.27683 0.92969 0.0
H671 H 0.44434 0.27656 0.0056 0.0
H672 H 0.43541 0.31426 0.9111 0.0
H673 H 0.53469 0.34118 0.9384 0.0
H674 H 0.55588 0.34498 0.84892 0.0
H675 H 0.55459 0.3139 0.90264 0.0
H676 H 0.54208 0.28981 0.76552 0.0
H677 H 0.5439 0.32073 0.70994 0.0
H678 H 0.51438 0.30122 0.70528 0.0
H679 H 0.43794 0.3577 0.83248 0.0
H680 H 0.45071 0.39995 0.76589 0.0
H681 H 0.53086 0.37143 0.74452 0.0
C682 C 0.50585 0.2838 0.92249 0.0
C683 C 0.48565 0.2736 0.97317 0.0
C684 C 0.45986 0.28373 0.96529 0.0
C685 C 0.45471 0.30528 0.91235 0.0
C686 C 0.47552 0.3161 0.86712 0.0
C687 C 0.50047 0.30521 0.87008 0.0
C688 C 0.52014 0.32215 0.82402 0.0
C689 C 0.54262 0.33108 0.88199 0.0
C690 C 0.53075 0.30762 0.74658 0.0
C691 C 0.5028 0.34509 0.79923 0.0
C692 C 0.47703 0.34115 0.82308 0.0
C693 C 0.45796 0.3607 0.81192 0.0
C694 C 0.46543 0.38472 0.77476 0.0
C695 C 0.4918 0.38905 0.75025 0.0
C696 C 0.51053 0.3688 0.76236 0.0
H697 H 0.18958 0.47908 0.0137 0.0
H698 H 0.22454 0.55433 0.94997 0.0
H699 H 0.18724 0.56381 0.85535 0.0
H700 H 0.15836 0.46593 0.80222 0.0
H701 H 0.13004 0.45122 0.85095 0.0
H702 H 0.16184 0.44844 0.89977 0.0
H703 H 0.14235 0.46863 0.03523 0.0
H704 H 0.11078 0.47239 0.98617 0.0
H705 H 0.1269 0.50069 0.03122 0.0
H706 H 0.14283 0.5685 0.7899 0.0
H707 H 0.09765 0.56522 0.73695 0.0
H708 H 0.0912 0.48636 0.8416 0.0
C709 C 0.18991 0.497 0.97673 0.0
C710 C 0.21004 0.51588 0.98807 0.0
C711 C 0.20961 0.53942 0.94061 0.0
C712 C 0.18834 0.54506 0.88757 0.0
C713 C 0.16795 0.52676 0.88207 0.0
C714 C 0.16889 0.50286 0.92351 0.0
C715 C 0.14361 0.48747 0.91175 0.0
C716 C 0.14878 0.46174 0.86327 0.0
C717 C 0.13013 0.48199 0.99611 0.0
C718 C 0.12789 0.50687 0.85982 0.0
C719 C 0.14233 0.52937 0.84342 0.0
C720 C 0.13157 0.55074 0.80077 0.0
C721 C 0.10572 0.54873 0.7716 0.0
C722 C 0.0908 0.52546 0.78469 0.0
C723 C 0.10203 0.50439 0.83042 0.0
H724 H 0.96924 0.79383 0.2243 0.0
H725 H 0.0289 0.74378 0.33577 0.0
H726 H 0.03485 0.77648 0.44888 0.0
H727 H 0.00253 0.85043 0.24411 0.0
H728 H 0.97515 0.8719 0.26697 0.0
H729 H 0.97001 0.84205 0.20846 0.0
H730 H 0.93534 0.82639 0.31583 0.0
H731 H 0.9399 0.85654 0.37412 0.0
H732 H 0.94371 0.82506 0.4253 0.0
H733 H 0.04116 0.81784 0.52991 0.0
H734 H 0.04527 0.86351 0.58056 0.0
H735 H 0.98226 0.88807 0.41508 0.0
C736 C 0.98286 0.78932 0.27434 0.0
C737 C 0.9986 0.76623 0.27144 0.0
C738 C 0.01635 0.76108 0.33746 0.0
C739 C 0.01996 0.77966 0.40165 0.0
C740 C 0.00545 0.80309 0.39924 0.0
C741 C 0.98688 0.80779 0.33806 0.0
C742 C 0.97639 0.83585 0.34291 0.0
C743 C 0.98133 0.85092 0.26076 0.0
C744 C 0.94709 0.83596 0.36594 0.0
C745 C 0.99295 0.84669 0.41365 0.0
C746 C 0.00927 0.8273 0.44601 0.0
C747 C 0.0281 0.833 0.50632 0.0
C748 C 0.03045 0.8591 0.53403 0.0
C749 C 0.01408 0.87935 0.50157 0.0
C750 C 0.99476 0.87293 0.44168 0.0
H751 H 0.69367 0.98693 0.18822 0.0
H752 H 0.73717 0.05232 0.29389 0.0
H753 H 0.70078 0.06072 0.39342 0.0
H754 H 0.6343 0.01666 0.18451 0.0
H755 H 0.61462 0.98845 0.21227 0.0
H756 H 0.64582 0.98374 0.16165 0.0
H757 H 0.66183 0.95383 0.28283 0.0
H758 H 0.63033 0.95771 0.33287 0.0
H759 H 0.65996 0.96572 0.38898 0.0
H760 H 0.65689 0.067 0.46101 0.0
H761 H 0.61089 0.06727 0.50764 0.0
H762 H 0.59563 0.99695 0.36006 0.0
C763 C 0.69594 0.00226 0.23496 0.0
C764 C 0.71824 0.01882 0.23458 0.0
C765 C 0.72044 0.03915 0.29469 0.0
C766 C 0.69978 0.04415 0.35078 0.0
C767 C 0.67736 0.02838 0.3463 0.0
C768 C 0.67558 0.0074 0.29133 0.0
C769 C 0.64857 0.99484 0.29409 0.0
C770 C 0.63505 0.99601 0.20803 0.0
C771 C 0.65028 0.96633 0.32665 0.0
C772 C 0.63501 0.01272 0.3566 0.0
C773 C 0.65202 0.03186 0.38609 0.0
C774 C 0.64358 0.05181 0.43959 0.0
C775 C 0.61725 0.05195 0.46483 0.0
C776 C 0.59956 0.03217 0.43714 0.0
C777 C 0.60868 0.01227 0.3824 0.0
H778 H 0.49828 0.71236 0.22364 0.0
H779 H 0.58316 0.71743 0.21887 0.0
H780 H 0.58605 0.67753 0.30821 0.0
H781 H 0.49167 0.68481 0.43989 0.0
H782 H 0.46471 0.66414 0.40785 0.0
H783 H 0.46986 0.69557 0.3578 0.0
H784 H 0.47107 0.67191 0.21394 0.0
H785 H 0.46675 0.64036 0.2635 0.0
H786 H 0.49464 0.64586 0.19639 0.0
H787 H 0.5792 0.63317 0.38147 0.0
H788 H 0.56317 0.59145 0.44423 0.0
H789 H 0.48291 0.6157 0.39384 0.0
C790 C 0.51744 0.70561 0.24408 0.0
C791 C 0.54049 0.71802 0.21525 0.0
C792 C 0.56527 0.70845 0.24179 0.0
C793 C 0.56707 0.68567 0.29176 0.0
C794 C 0.5439 0.67295 0.31495 0.0
C795 C 0.51953 0.68295 0.29321 0.0
C796 C 0.49762 0.66472 0.31969 0.0
C797 C 0.47993 0.67811 0.38522 0.0
C798 C 0.4816 0.65516 0.24386 0.0
C799 C 0.5134 0.64248 0.35767 0.0
C800 C 0.54004 0.64752 0.35513 0.0
C801 C 0.55835 0.6292 0.38459 0.0
C802 C 0.5491 0.60545 0.41932 0.0
C803 C 0.52179 0.60025 0.42371 0.0
C804 C 0.5039 0.619 0.39151 0.0
H805 H 0.80122 0.46946 0.19561 0.0
H806 H 0.77911 0.55098 0.23992 0.0
H807 H 0.81948 0.5572 0.3248 0.0
H808 H 0.83173 0.4568 0.3993 0.0
H809 H 0.85691 0.43632 0.35339 0.0
H810 H 0.82499 0.43832 0.30531 0.0
H811 H 0.84704 0.45229 0.16593 0.0
H812 H 0.87895 0.45106 0.21423 0.0
H813 H 0.86792 0.48098 0.16411 0.0
H814 H 0.86473 0.55475 0.39628 0.0
H815 H 0.90751 0.54265 0.45947 0.0
H816 H 0.8996 0.46329 0.3601 0.0
C817 C 0.80459 0.48849 0.22462 0.0
C818 C 0.78706 0.50973 0.21154 0.0
C819 C 0.79214 0.53436 0.25024 0.0
C820 C 0.81514 0.53812 0.2977 0.0
C821 C 0.83269 0.51701 0.30579 0.0
C822 C 0.82738 0.49258 0.2712 0.0
C823 C 0.84956 0.47325 0.28583 0.0
C824 C 0.84024 0.44979 0.33915 0.0
C825 C 0.86157 0.46386 0.20258 0.0
C826 C 0.86843 0.49059 0.33361 0.0
C827 C 0.85849 0.51577 0.34477 0.0
C828 C 0.8726 0.53505 0.38797 0.0
C829 C 0.89703 0.52807 0.42295 0.0
C830 C 0.90702 0.50203 0.41456 0.0
C831 C 0.89267 0.4834 0.36746 0.0
loop_
_geom_bond_atom_site_label_1
_geom_bond_atom_site_label_2
_geom_bond_distance
_geom_bond_site_symmetry_2
_ccdc_geom_bond_type
H0 C7 0.929 . S
H1 C10 0.930 . S
H2 C12 0.929 . S
H3 C4 0.969 . S
C4 H3 0.969 . S
C4 O5 1.550 1_556 S
C4 H6 0.973 . S
O5 C4 1.550 1_554 S
O5 C11 1.412 . S
H6 C4 0.973 . S
C7 H0 0.929 . S
C7 C8 1.400 . S
C7 C9 1.364 1_554 S
C8 C7 1.400 . S
C8 C12 1.377 . S
C9 C7 1.364 1_556 S
C9 C10 1.374 . S
C10 H1 0.930 . S
C10 C9 1.374 . S
C10 C11 1.383 1_556 S
C11 O5 1.412 . S
C11 C10 1.383 1_554 S
C11 C12 1.394 . S
C12 H2 0.929 . S
C12 C8 1.377 . S
C12 C11 1.394 . S
H13 C20 0.929 . S
H14 C23 0.930 . S
H15 C25 0.929 . S
H16 C17 0.969 . S
C17 H16 0.969 . S
C17 O18 1.550 1_556 S
C17 H19 0.973 . S
O18 C17 1.550 1_554 S
O18 C24 1.412 . S
H19 C17 0.973 . S
C20 H13 0.929 . S
C20 C21 1.400 . S
C20 C22 1.364 1_554 S
C21 C20 1.400 . S
C21 C25 1.377 . S
C22 C20 1.364 1_556 S
C22 C23 1.374 . S
C23 H14 0.930 . S
C23 C22 1.374 . S
C23 C24 1.383 1_556 S
C24 O18 1.412 . S
C24 C23 1.383 1_554 S
C24 C25 1.394 . S
C25 H15 0.929 . S
C25 C21 1.377 . S
C25 C24 1.394 . S
H26 C33 0.928 1_565 S
H27 C36 0.931 . S
H28 C38 0.928 1_565 S
H29 C30 0.969 . S
C30 H29 0.969 . S
C30 O31 1.550 1_546 S
C30 H32 0.973 1_545 S
O31 C30 1.550 1_564 S
O31 C37 1.405 1_565 S
H32 C30 0.973 1_565 S
C33 H26 0.928 1_545 S
C33 C34 1.399 . S
C33 C35 1.364 1_554 S
C34 C33 1.399 . S
C34 C38 1.377 . S
C35 C33 1.364 1_556 S
C35 C36 1.374 1_545 S
C36 H27 0.931 . S
C36 C35 1.374 1_565 S
C36 C37 1.382 1_566 S
C37 O31 1.405 1_545 S
C37 C36 1.382 1_544 S
C37 C38 1.394 . S
C38 H28 0.928 1_545 S
C38 C34 1.377 . S
C38 C37 1.394 . S
H39 C46 0.929 . S
H40 C49 0.930 . S
H41 C51 0.929 . S
H42 C43 0.969 . S
C43 H42 0.969 . S
C43 O44 1.550 1_556 S
C43 H45 0.973 . S
O44 C43 1.550 1_554 S
O44 C50 1.412 . S
H45 C43 0.973 . S
C46 H39 0.929 . S
C46 C47 1.400 . S
C46 C48 1.364 1_554 S
C47 C46 1.400 . S
C47 C51 1.377 . S
C48 C46 1.364 1_556 S
C48 C49 1.374 . S
C49 H40 0.930 . S
C49 C48 1.374 . S
C49 C50 1.383 1_556 S
C50 O44 1.412 . S
C50 C49 1.383 1_554 S
C50 C51 1.394 . S
C51 H41 0.929 . S
C51 C47 1.377 . S
C51 C50 1.394 . S
H52 C59 0.929 . S
H53 C62 0.930 . S
H54 C64 0.929 . S
H55 C56 0.969 . S
C56 H55 0.969 . S
C56 O57 1.550 . S
C56 H58 0.973 . S
O57 C56 1.550 . S
O57 C63 1.412 . S
H58 C56 0.973 . S
C59 H52 0.929 . S
C59 C60 1.400 . S
C59 C61 1.364 . S
C60 C59 1.400 . S
C60 C64 1.377 . S
C61 C59 1.364 . S
C61 C62 1.374 . S
C62 H53 0.930 . S
C62 C61 1.374 . S
C62 C63 1.383 . S
C63 O57 1.412 . S
C63 C62 1.383 . S
C63 C64 1.394 . S
C64 H54 0.929 . S
C64 C60 1.377 . S
C64 C63 1.394 . S
H65 C72 0.929 . S
H66 C75 0.930 . S
H67 C77 0.929 . S
H68 C69 0.969 . S
C69 H68 0.969 . S
C69 O70 1.550 . S
C69 H71 0.973 . S
O70 C69 1.550 . S
O70 C76 1.412 . S
H71 C69 0.973 . S
C72 H65 0.929 . S
C72 C73 1.400 . S
C72 C74 1.364 . S
C73 C72 1.400 . S
C73 C77 1.377 . S
C74 C72 1.364 . S
C74 C75 1.374 . S
C75 H66 0.930 . S
C75 C74 1.374 . S
C75 C76 1.383 . S
C76 O70 1.412 . S
C76 C75 1.383 . S
C76 C77 1.394 . S
C77 H67 0.929 . S
C77 C73 1.377 . S
C77 C76 1.394 . S
H78 C85 0.928 1_565 S
H79 C88 0.930 . S
H80 C90 0.928 1_565 S
H81 C82 0.969 . S
C82 H81 0.969 . S
C82 O83 1.550 1_545 S
C82 H84 0.973 1_545 S
O83 C82 1.550 1_565 S
O83 C89 1.402 1_565 S
H84 C82 0.973 1_565 S
C85 H78 0.928 1_545 S
C85 C86 1.400 . S
C85 C87 1.364 . S
C86 C85 1.400 . S
C86 C90 1.377 . S
C87 C85 1.364 . S
C87 C88 1.374 1_545 S
C88 H79 0.930 . S
C88 C87 1.374 1_565 S
C88 C89 1.382 1_565 S
C89 O83 1.402 1_545 S
C89 C88 1.382 1_545 S
C89 C90 1.394 . S
C90 H80 0.928 1_545 S
C90 C86 1.377 . S
C90 C89 1.394 . S
H91 C98 0.929 . S
H92 C101 0.930 . S
H93 C103 0.929 . S
H94 C95 0.969 . S
C95 H94 0.969 . S
C95 O96 1.550 . S
C95 H97 0.973 . S
O96 C95 1.550 . S
O96 C102 1.412 . S
H97 C95 0.973 . S
C98 H91 0.929 . S
C98 C99 1.400 . S
C98 C100 1.364 . S
C99 C98 1.400 . S
C99 C103 1.377 . S
C100 C98 1.364 . S
C100 C101 1.374 . S
C101 H92 0.930 . S
C101 C100 1.374 . S
C101 C102 1.383 . S
C102 O96 1.412 . S
C102 C101 1.383 . S
C102 C103 1.394 . S
C103 H93 0.929 . S
C103 C99 1.377 . S
C103 C102 1.394 . S
Zn104 O110 1.969 1_455 S
Zn104 O111 1.965 . S
Zn104 O115 2.024 . S
Zn104 O120 1.969 1_455 S
Zn105 O112 1.991 . S
Zn105 O118 1.978 . S
Zn105 O119 1.954 1_455 S
Zn105 O121 2.010 1_455 S
C106 O107 1.229 . S
C106 O115 1.058 . S
O107 C106 1.229 . S
C108 O109 1.229 1_655 S
C108 O121 1.058 . S
O109 C108 1.229 1_455 S
O110 Zn104 1.969 1_655 S
O110 C113 1.267 1_655 S
O111 Zn104 1.965 . S
O111 C122 1.260 1_545 S
O112 Zn105 1.991 . S
O112 C122 1.258 . S
C113 O110 1.267 1_455 S
C113 O114 1.228 . S
O114 C113 1.228 . S
O115 Zn104 2.024 . S
O115 C106 1.058 . S
C116 O117 1.228 . S
C116 O118 1.267 1_655 S
O117 C116 1.228 . S
O118 Zn105 1.978 . S
O118 C116 1.267 1_455 S
O119 Zn105 1.954 1_655 S
O119 C123 1.260 1_565 S
O120 Zn104 1.969 1_655 S
O120 C123 1.258 . S
O121 Zn105 2.010 1_655 S
O121 C108 1.058 . S
C122 O111 1.260 1_565 S
C122 O112 1.258 . S
C123 O119 1.260 1_545 S
C123 O120 1.258 . S
Zn124 O130 1.969 . S
Zn124 O131 1.965 1_565 S
Zn124 O135 2.024 1_565 S
Zn124 O140 1.969 . S
Zn125 O132 1.969 . S
Zn125 O138 1.969 . S
Zn125 O139 1.965 1_545 S
Zn125 O141 2.024 1_545 S
C126 O127 1.229 1_545 S
C126 O135 1.058 . S
O127 C126 1.229 1_565 S
C128 O129 1.229 1_565 S
C128 O141 1.058 . S
O129 C128 1.229 1_545 S
O130 Zn124 1.969 . S
O130 C133 1.267 . S
O131 Zn124 1.965 1_545 S
O131 C142 1.260 . S
O132 Zn125 1.969 . S
O132 C142 1.258 . S
C133 O130 1.267 . S
C133 O134 1.228 1_565 S
O134 C133 1.228 1_545 S
O135 Zn124 2.024 1_545 S
O135 C126 1.058 . S
C136 O137 1.228 1_545 S
C136 O138 1.267 . S
O137 C136 1.228 1_565 S
O138 Zn125 1.969 . S
O138 C136 1.267 . S
O139 Zn125 1.965 1_565 S
O139 C143 1.260 . S
O140 Zn124 1.969 . S
O140 C143 1.258 . S
O141 Zn125 2.024 1_565 S
O141 C128 1.058 . S
C142 O131 1.260 . S
C142 O132 1.258 . S
C143 O139 1.260 . S
C143 O140 1.258 . S
Zn144 O150 1.969 . S
Zn144 O151 1.965 . S
Zn144 O155 2.024 . S
Zn144 O160 1.969 . S
Zn145 O152 1.969 . S
Zn145 O158 1.969 . S
Zn145 O159 1.965 . S
Zn145 O161 2.024 . S
C146 O147 1.229 . S
C146 O155 1.058 . S
O147 C146 1.229 . S
C148 O149 1.229 . S
C148 O161 1.058 . S
O149 C148 1.229 . S
O150 Zn144 1.969 . S
O150 C153 1.267 . S
O151 Zn144 1.965 . S
O151 C162 1.260 . S
O152 Zn145 1.969 . S
O152 C162 1.258 . S
C153 O150 1.267 . S
C153 O154 1.228 . S
O154 C153 1.228 . S
O155 Zn144 2.024 . S
O155 C146 1.058 . S
C156 O157 1.228 . S
C156 O158 1.267 . S
O157 C156 1.228 . S
O158 Zn145 1.969 . S
O158 C156 1.267 . S
O159 Zn145 1.965 . S
O159 C163 1.260 . S
O160 Zn144 1.969 . S
O160 C163 1.258 . S
O161 Zn145 2.024 . S
O161 C148 1.058 . S
C162 O151 1.260 . S
C162 O152 1.258 . S
C163 O159 1.260 . S
C163 O160 1.258 . S
Zn164 O170 1.969 . S
Zn164 O171 1.965 . S
Zn164 O175 2.024 . S
Zn164 O180 1.969 . S
Zn165 O172 1.969 . S
Zn165 O178 1.969 . S
Zn165 O179 1.965 . S
Zn165 O181 2.024 . S
C166 O167 1.229 . S
C166 O175 1.058 . S
O167 C166 1.229 . S
C168 O169 1.229 . S
C168 O181 1.058 . S
O169 C168 1.229 . S
O170 Zn164 1.969 . S
O170 C173 1.267 . S
O171 Zn164 1.965 . S
O171 C182 1.260 . S
O172 Zn165 1.969 . S
O172 C182 1.258 1_655 S
C173 O170 1.267 . S
C173 O174 1.228 . S
O174 C173 1.228 . S
O175 Zn164 2.024 . S
O175 C166 1.058 . S
C176 O177 1.228 . S
C176 O178 1.267 . S
O177 C176 1.228 . S
O178 Zn165 1.969 . S
O178 C176 1.267 . S
O179 Zn165 1.965 . S
O179 C183 1.260 1_655 S
O180 Zn164 1.969 . S
O180 C183 1.258 . S
O181 Zn165 2.024 . S
O181 C168 1.058 . S
C182 O171 1.260 . S
C182 O172 1.258 1_455 S
C183 O179 1.260 1_455 S
C183 O180 1.258 . S
H184 C196 0.930 . S
H185 C198 0.930 . S
H186 C199 0.930 . S
H187 C203 0.959 . S
H188 C203 0.959 . S
H189 C203 0.961 . S
H190 C204 0.960 . S
H191 C204 0.961 . S
H192 C204 0.959 . S
H193 C207 0.929 . S
H194 C208 0.931 . S
H195 C210 0.930 . S
C196 H184 0.930 . S
C196 C197 1.399 1_545 S
C196 C201 1.399 . S
C197 C196 1.399 1_565 S
C197 C198 1.376 . S
C198 H185 0.930 . S
C198 C197 1.376 . S
C198 C199 1.388 . S
C199 H186 0.930 . S
C199 C198 1.388 . S
C199 C200 1.390 . S
C200 C199 1.390 . S
C200 C201 1.394 1_565 S
C200 C206 1.465 . S
C201 C196 1.399 . S
C201 C200 1.394 1_545 S
C201 C202 1.516 . S
C202 C201 1.516 . S
C202 C203 1.502 . S
C202 C204 1.561 . S
C202 C205 1.526 . S
C203 H187 0.959 . S
C203 H188 0.959 . S
C203 H189 0.961 . S
C203 C202 1.502 . S
C204 H190 0.960 . S
C204 H191 0.961 . S
C204 H192 0.959 . S
C204 C202 1.561 . S
C205 C202 1.526 . S
C205 C206 1.396 1_545 S
C205 C210 1.390 . S
C206 C200 1.465 . S
C206 C205 1.396 1_565 S
C206 C207 1.399 . S
C207 H193 0.929 . S
C207 C206 1.399 . S
C207 C208 1.385 . S
C208 H194 0.931 . S
C208 C207 1.385 . S
C208 C209 1.389 . S
C209 C208 1.389 . S
C209 C210 1.387 1_565 S
C210 H195 0.930 . S
C210 C205 1.390 . S
C210 C209 1.387 1_545 S
H211 C223 0.930 . S
H212 C225 0.930 . S
H213 C226 0.930 . S
H214 C230 0.959 . S
H215 C230 0.959 . S
H216 C230 0.961 . S
H217 C231 0.960 . S
H218 C231 0.961 . S
H219 C231 0.959 . S
H220 C234 0.929 . S
H221 C235 0.931 . S
H222 C237 0.930 . S
C223 H211 0.930 . S
C223 C224 1.399 . S
C223 C228 1.399 . S
C224 C223 1.399 . S
C224 C225 1.376 . S
C225 H212 0.930 . S
C225 C224 1.376 . S
C225 C226 1.388 . S
C226 H213 0.930 . S
C226 C225 1.388 . S
C226 C227 1.390 . S
C227 C226 1.390 . S
C227 C228 1.394 . S
C227 C233 1.465 . S
C228 C223 1.399 . S
C228 C227 1.394 . S
C228 C229 1.516 . S
C229 C228 1.516 . S
C229 C230 1.502 . S
C229 C231 1.561 . S
C229 C232 1.526 . S
C230 H214 0.959 . S
C230 H215 0.959 . S
C230 H216 0.961 . S
C230 C229 1.502 . S
C231 H217 0.960 . S
C231 H218 0.961 . S
C231 H219 0.959 . S
C231 C229 1.561 . S
C232 C229 1.526 . S
C232 C233 1.396 . S
C232 C237 1.390 . S
C233 C227 1.465 . S
C233 C232 1.396 . S
C233 C234 1.399 . S
C234 H220 0.929 . S
C234 C233 1.399 . S
C234 C235 1.385 . S
C235 H221 0.931 . S
C235 C234 1.385 . S
C235 C236 1.389 . S
C236 C235 1.389 . S
C236 C237 1.387 . S
C237 H222 0.930 . S
C237 C232 1.390 . S
C237 C236 1.387 . S
H238 C250 0.930 . S
H239 C252 0.930 . S
H240 C253 0.930 . S
H241 C257 0.959 . S
H242 C257 0.959 . S
H243 C257 0.961 . S
H244 C258 0.960 . S
H245 C258 0.961 . S
H246 C258 0.959 . S
H247 C261 0.929 . S
H248 C262 0.931 . S
H249 C264 0.930 . S
C250 H238 0.930 . S
C250 C251 1.399 . S
C250 C255 1.399 . S
C251 C250 1.399 . S
C251 C252 1.376 . S
C252 H239 0.930 . S
C252 C251 1.376 . S
C252 C253 1.388 . S
C253 H240 0.930 . S
C253 C252 1.388 . S
C253 C254 1.390 . S
C254 C253 1.390 . S
C254 C255 1.394 . S
C254 C260 1.465 . S
C255 C250 1.399 . S
C255 C254 1.394 . S
C255 C256 1.516 . S
C256 C255 1.516 . S
C256 C257 1.502 . S
C256 C258 1.561 . S
C256 C259 1.526 . S
C257 H241 0.959 . S
C257 H242 0.959 . S
C257 H243 0.961 . S
C257 C256 1.502 . S
C258 H244 0.960 . S
C258 H245 0.961 . S
C258 H246 0.959 . S
C258 C256 1.561 . S
C259 C256 1.526 . S
C259 C260 1.396 . S
C259 C264 1.390 . S
C260 C254 1.465 . S
C260 C259 1.396 . S
C260 C261 1.399 . S
C261 H247 0.929 . S
C261 C260 1.399 . S
C261 C262 1.385 . S
C262 H248 0.931 . S
C262 C261 1.385 . S
C262 C263 1.389 . S
C263 C262 1.389 . S
C263 C264 1.387 . S
C264 H249 0.930 . S
C264 C259 1.390 . S
C264 C263 1.387 . S
H265 C277 0.930 . S
H266 C279 0.930 . S
H267 C280 0.930 1_655 S
H268 C284 0.959 . S
H269 C284 0.959 . S
H270 C284 0.961 . S
H271 C285 0.960 . S
H272 C285 0.961 . S
H273 C285 0.959 . S
H274 C288 0.929 . S
H275 C289 0.931 . S
H276 C291 0.930 . S
C277 H265 0.930 . S
C277 C278 1.399 . S
C277 C282 1.399 . S
C278 C277 1.399 . S
C278 C279 1.376 . S
C279 H266 0.930 . S
C279 C278 1.376 . S
C279 C280 1.388 . S
C280 H267 0.930 1_455 S
C280 C279 1.388 . S
C280 C281 1.390 . S
C281 C280 1.390 . S
C281 C282 1.394 . S
C281 C287 1.465 . S
C282 C277 1.399 . S
C282 C281 1.394 . S
C282 C283 1.516 . S
C283 C282 1.516 . S
C283 C284 1.502 . S
C283 C285 1.561 . S
C283 C286 1.526 . S
C284 H268 0.959 . S
C284 H269 0.959 . S
C284 H270 0.961 . S
C284 C283 1.502 . S
C285 H271 0.960 . S
C285 H272 0.961 . S
C285 H273 0.959 . S
C285 C283 1.561 . S
C286 C283 1.526 . S
C286 C287 1.396 . S
C286 C291 1.390 . S
C287 C281 1.465 . S
C287 C286 1.396 . S
C287 C288 1.399 1_455 S
C288 H274 0.929 . S
C288 C287 1.399 1_655 S
C288 C289 1.385 . S
C289 H275 0.931 . S
C289 C288 1.385 . S
C289 C290 1.389 1_655 S
C290 C289 1.389 1_455 S
C290 C291 1.387 . S
C291 H276 0.930 . S
C291 C286 1.390 . S
C291 C290 1.387 . S
H292 C304 0.930 . S
H293 C306 0.930 . S
H294 C307 0.930 . S
H295 C311 0.959 . S
H296 C311 0.959 . S
H297 C311 0.961 . S
H298 C312 0.960 . S
H299 C312 0.961 . S
H300 C312 0.959 . S
H301 C315 0.929 . S
H302 C316 0.931 . S
H303 C318 0.930 . S
C304 H292 0.930 . S
C304 C305 1.399 1_545 S
C304 C309 1.399 . S
C305 C304 1.399 1_565 S
C305 C306 1.376 . S
C306 H293 0.930 . S
C306 C305 1.376 . S
C306 C307 1.388 . S
C307 H294 0.930 . S
C307 C306 1.388 . S
C307 C308 1.390 . S
C308 C307 1.390 . S
C308 C309 1.394 1_565 S
C308 C314 1.465 . S
C309 C304 1.399 . S
C309 C308 1.394 1_545 S
C309 C310 1.516 . S
C310 C309 1.516 . S
C310 C311 1.502 . S
C310 C312 1.561 . S
C310 C313 1.526 . S
C311 H295 0.959 . S
C311 H296 0.959 . S
C311 H297 0.961 . S
C311 C310 1.502 . S
C312 H298 0.960 . S
C312 H299 0.961 . S
C312 H300 0.959 . S
C312 C310 1.561 . S
C313 C310 1.526 . S
C313 C314 1.396 1_545 S
C313 C318 1.390 . S
C314 C308 1.465 . S
C314 C313 1.396 1_565 S
C314 C315 1.399 . S
C315 H301 0.929 . S
C315 C314 1.399 . S
C315 C316 1.385 . S
C316 H302 0.931 . S
C316 C315 1.385 . S
C316 C317 1.389 . S
C317 C316 1.389 . S
C317 C318 1.387 1_565 S
C318 H303 0.930 . S
C318 C313 1.390 . S
C318 C317 1.387 1_545 S
H319 C331 0.930 . S
H320 C333 0.930 . S
H321 C334 0.930 1_554 S
H322 C338 0.959 . S
H323 C338 0.959 . S
H324 C338 0.961 . S
H325 C339 0.960 . S
H326 C339 0.961 . S
H327 C339 0.959 . S
H328 C342 0.929 . S
H329 C343 0.931 . S
H330 C345 0.930 . S
C331 H319 0.930 . S
C331 C332 1.399 . S
C331 C336 1.399 . S
C332 C331 1.399 . S
C332 C333 1.376 1_556 S
C333 H320 0.930 . S
C333 C332 1.376 1_554 S
C333 C334 1.388 1_554 S
C334 H321 0.930 1_556 S
C334 C333 1.388 1_556 S
C334 C335 1.390 . S
C335 C334 1.390 . S
C335 C336 1.394 . S
C335 C341 1.465 . S
C336 C331 1.399 . S
C336 C335 1.394 . S
C336 C337 1.516 . S
C337 C336 1.516 . S
C337 C338 1.502 . S
C337 C339 1.561 . S
C337 C340 1.526 . S
C338 H322 0.959 . S
C338 H323 0.959 . S
C338 H324 0.961 . S
C338 C337 1.502 . S
C339 H325 0.960 . S
C339 H326 0.961 . S
C339 H327 0.959 . S
C339 C337 1.561 . S
C340 C337 1.526 . S
C340 C341 1.396 . S
C340 C345 1.390 . S
C341 C335 1.465 . S
C341 C340 1.396 . S
C341 C342 1.399 . S
C342 H328 0.929 . S
C342 C341 1.399 . S
C342 C343 1.385 . S
C343 H329 0.931 . S
C343 C342 1.385 . S
C343 C344 1.389 . S
C344 C343 1.389 . S
C344 C345 1.387 . S
C345 H330 0.930 . S
C345 C340 1.390 . S
C345 C344 1.387 . S
H346 C358 0.928 1_554 S
H347 C360 0.930 . S
H348 C361 0.930 . S
H349 C365 0.959 . S
H350 C365 0.959 . S
H351 C365 0.961 1_554 S
H352 C366 0.960 . S
H353 C366 0.961 . S
H354 C366 0.959 . S
H355 C369 0.929 . S
H356 C370 0.931 . S
H357 C372 0.930 . S
C358 H346 0.928 1_556 S
C358 C359 1.399 . S
C358 C363 1.399 . S
C359 C358 1.399 . S
C359 C360 1.376 . S
C360 H347 0.930 . S
C360 C359 1.376 . S
C360 C361 1.388 . S
C361 H348 0.930 . S
C361 C360 1.388 . S
C361 C362 1.390 . S
C362 C361 1.390 . S
C362 C363 1.394 . S
C362 C368 1.465 . S
C363 C358 1.399 . S
C363 C362 1.394 . S
C363 C364 1.516 . S
C364 C363 1.516 . S
C364 C365 1.502 . S
C364 C366 1.561 . S
C364 C367 1.526 . S
C365 H349 0.959 . S
C365 H350 0.959 . S
C365 H351 0.961 1_556 S
C365 C364 1.502 . S
C366 H352 0.960 . S
C366 H353 0.961 . S
C366 H354 0.959 . S
C366 C364 1.561 . S
C367 C364 1.526 . S
C367 C368 1.396 . S
C367 C372 1.390 . S
C368 C362 1.465 . S
C368 C367 1.396 . S
C368 C369 1.399 . S
C369 H355 0.929 . S
C369 C368 1.399 . S
C369 C370 1.385 . S
C370 H356 0.931 . S
C370 C369 1.385 . S
C370 C371 1.389 . S
C371 C370 1.389 . S
C371 C372 1.387 . S
C372 H357 0.930 . S
C372 C367 1.390 . S
C372 C371 1.387 . S
H373 C385 0.930 . S
H374 C387 0.930 1_554 S
H375 C388 0.930 1_455 S
H376 C392 0.959 . S
H377 C392 0.959 . S
H378 C392 0.961 . S
H379 C393 0.960 . S
H380 C393 0.961 . S
H381 C393 0.959 . S
H382 C396 0.929 . S
H383 C397 0.931 . S
H384 C399 0.930 . S
C385 H373 0.930 . S
C385 C386 1.399 . S
C385 C390 1.399 . S
C386 C385 1.399 . S
C386 C387 1.376 . S
C387 H374 0.930 1_556 S
C387 C386 1.376 . S
C387 C388 1.388 . S
C388 H375 0.930 1_655 S
C388 C387 1.388 . S
C388 C389 1.390 . S
C389 C388 1.390 . S
C389 C390 1.394 . S
C389 C395 1.465 . S
C390 C385 1.399 . S
C390 C389 1.394 . S
C390 C391 1.516 . S
C391 C390 1.516 . S
C391 C392 1.502 . S
C391 C393 1.561 . S
C391 C394 1.526 . S
C392 H376 0.959 . S
C392 H377 0.959 . S
C392 H378 0.961 . S
C392 C391 1.502 . S
C393 H379 0.960 . S
C393 H380 0.961 . S
C393 H381 0.959 . S
C393 C391 1.561 . S
C394 C391 1.526 . S
C394 C395 1.396 . S
C394 C399 1.390 . S
C395 C389 1.465 . S
C395 C394 1.396 . S
C395 C396 1.399 1_655 S
C396 H382 0.929 . S
C396 C395 1.399 1_455 S
C396 C397 1.385 . S
C397 H383 0.931 . S
C397 C396 1.385 . S
C397 C398 1.389 1_455 S
C398 C397 1.389 1_655 S
C398 C399 1.387 . S
C399 H384 0.930 . S
C399 C394 1.390 . S
C399 C398 1.387 . S
H400 C412 0.930 . S
H401 C414 0.930 . S
H402 C415 0.930 1_655 S
H403 C419 0.959 . S
H404 C419 0.959 . S
H405 C419 0.961 . S
H406 C420 0.960 . S
H407 C420 0.961 . S
H408 C420 0.959 . S
H409 C423 0.929 . S
H410 C424 0.931 . S
H411 C426 0.930 . S
C412 H400 0.930 . S
C412 C413 1.399 . S
C412 C417 1.399 . S
C413 C412 1.399 . S
C413 C414 1.376 . S
C414 H401 0.930 . S
C414 C413 1.376 . S
C414 C415 1.388 . S
C415 H402 0.930 1_455 S
C415 C414 1.388 . S
C415 C416 1.390 . S
C416 C415 1.390 . S
C416 C417 1.394 . S
C416 C422 1.465 . S
C417 C412 1.399 . S
C417 C416 1.394 . S
C417 C418 1.516 . S
C418 C417 1.516 . S
C418 C419 1.502 . S
C418 C420 1.561 . S
C418 C421 1.526 . S
C419 H403 0.959 . S
C419 H404 0.959 . S
C419 H405 0.961 . S
C419 C418 1.502 . S
C420 H406 0.960 . S
C420 H407 0.961 . S
C420 H408 0.959 . S
C420 C418 1.561 . S
C421 C418 1.526 . S
C421 C422 1.396 . S
C421 C426 1.390 . S
C422 C416 1.465 . S
C422 C421 1.396 . S
C422 C423 1.399 1_455 S
C423 H409 0.929 . S
C423 C422 1.399 1_655 S
C423 C424 1.385 . S
C424 H410 0.931 . S
C424 C423 1.385 . S
C424 C425 1.389 1_655 S
C425 C424 1.389 1_455 S
C425 C426 1.387 . S
C426 H411 0.930 . S
C426 C421 1.390 . S
C426 C425 1.387 . S
H427 C439 0.930 . S
H428 C441 0.930 . S
H429 C442 0.930 . S
H430 C446 0.959 . S
H431 C446 0.959 . S
H432 C446 0.961 . S
H433 C447 0.960 . S
H434 C447 0.961 . S
H435 C447 0.959 . S
H436 C450 0.929 . S
H437 C451 0.931 . S
H438 C453 0.930 . S
C439 H427 0.930 . S
C439 C440 1.399 1_565 S
C439 C444 1.399 . S
C440 C439 1.399 1_545 S
C440 C441 1.376 . S
C441 H428 0.930 . S
C441 C440 1.376 . S
C441 C442 1.388 . S
C442 H429 0.930 . S
C442 C441 1.388 . S
C442 C443 1.390 . S
C443 C442 1.390 . S
C443 C444 1.394 1_545 S
C443 C449 1.465 . S
C444 C439 1.399 . S
C444 C443 1.394 1_565 S
C444 C445 1.516 . S
C445 C444 1.516 . S
C445 C446 1.502 . S
C445 C447 1.561 . S
C445 C448 1.526 . S
C446 H430 0.959 . S
C446 H431 0.959 . S
C446 H432 0.961 . S
C446 C445 1.502 . S
C447 H433 0.960 . S
C447 H434 0.961 . S
C447 H435 0.959 . S
C447 C445 1.561 . S
C448 C445 1.526 . S
C448 C449 1.396 1_565 S
C448 C453 1.390 . S
C449 C443 1.465 . S
C449 C448 1.396 1_545 S
C449 C450 1.399 . S
C450 H436 0.929 . S
C450 C449 1.399 . S
C450 C451 1.385 . S
C451 H437 0.931 . S
C451 C450 1.385 . S
C451 C452 1.389 1_545 S
C452 C451 1.389 1_565 S
C452 C453 1.387 . S
C453 H438 0.930 . S
C453 C448 1.390 . S
C453 C452 1.387 . S
H454 C466 0.930 . S
H455 C468 0.930 . S
H456 C469 0.930 . S
H457 C473 0.959 . S
H458 C473 0.959 . S
H459 C473 0.961 . S
H460 C474 0.960 . S
H461 C474 0.961 . S
H462 C474 0.959 . S
H463 C477 0.929 . S
H464 C478 0.931 . S
H465 C480 0.930 . S
C466 H454 0.930 . S
C466 C467 1.399 . S
C466 C471 1.399 . S
C467 C466 1.399 . S
C467 C468 1.376 . S
C468 H455 0.930 . S
C468 C467 1.376 . S
C468 C469 1.388 . S
C469 H456 0.930 . S
C469 C468 1.388 . S
C469 C470 1.390 . S
C470 C469 1.390 . S
C470 C471 1.394 . S
C470 C476 1.465 . S
C471 C466 1.399 . S
C471 C470 1.394 . S
C471 C472 1.516 . S
C472 C471 1.516 . S
C472 C473 1.502 . S
C472 C474 1.561 . S
C472 C475 1.526 . S
C473 H457 0.959 . S
C473 H458 0.959 . S
C473 H459 0.961 . S
C473 C472 1.502 . S
C474 H460 0.960 . S
C474 H461 0.961 . S
C474 H462 0.959 . S
C474 C472 1.561 . S
C475 C472 1.526 . S
C475 C476 1.396 . S
C475 C480 1.390 . S
C476 C470 1.465 . S
C476 C475 1.396 . S
C476 C477 1.399 . S
C477 H463 0.929 . S
C477 C476 1.399 . S
C477 C478 1.385 . S
C478 H464 0.931 . S
C478 C477 1.385 . S
C478 C479 1.389 . S
C479 C478 1.389 . S
C479 C480 1.387 . S
C480 H465 0.930 . S
C480 C475 1.390 . S
C480 C479 1.387 . S
H481 C493 0.930 . S
H482 C495 0.930 . S
H483 C496 0.930 . S
H484 C500 0.959 . S
H485 C500 0.959 . S
H486 C500 0.961 . S
H487 C501 0.960 . S
H488 C501 0.961 . S
H489 C501 0.959 . S
H490 C504 0.929 . S
H491 C505 0.931 . S
H492 C507 0.930 . S
C493 H481 0.930 . S
C493 C494 1.399 . S
C493 C498 1.399 . S
C494 C493 1.399 . S
C494 C495 1.376 . S
C495 H482 0.930 . S
C495 C494 1.376 . S
C495 C496 1.388 . S
C496 H483 0.930 . S
C496 C495 1.388 . S
C496 C497 1.390 . S
C497 C496 1.390 . S
C497 C498 1.394 . S
C497 C503 1.465 . S
C498 C493 1.399 . S
C498 C497 1.394 . S
C498 C499 1.516 . S
C499 C498 1.516 . S
C499 C500 1.502 . S
C499 C501 1.561 . S
C499 C502 1.526 . S
C500 H484 0.959 . S
C500 H485 0.959 . S
C500 H486 0.961 . S
C500 C499 1.502 . S
C501 H487 0.960 . S
C501 H488 0.961 . S
C501 H489 0.959 . S
C501 C499 1.561 . S
C502 C499 1.526 . S
C502 C503 1.396 . S
C502 C507 1.390 . S
C503 C497 1.465 . S
C503 C502 1.396 . S
C503 C504 1.399 . S
C504 H490 0.929 . S
C504 C503 1.399 . S
C504 C505 1.385 . S
C505 H491 0.931 . S
C505 C504 1.385 . S
C505 C506 1.389 . S
C506 C505 1.389 . S
C506 C507 1.387 . S
C507 H492 0.930 . S
C507 C502 1.390 . S
C507 C506 1.387 . S
H508 C520 0.930 1_554 S
H509 C522 0.930 . S
H510 C523 0.930 1_455 S
H511 C527 0.959 . S
H512 C527 0.959 . S
H513 C527 0.961 . S
H514 C528 0.960 . S
H515 C528 0.961 . S
H516 C528 0.959 . S
H517 C531 0.929 . S
H518 C532 0.931 . S
H519 C534 0.930 . S
C520 H508 0.930 1_556 S
C520 C521 1.399 . S
C520 C525 1.399 . S
C521 C520 1.399 . S
C521 C522 1.376 . S
C522 H509 0.930 . S
C522 C521 1.376 . S
C522 C523 1.388 . S
C523 H510 0.930 1_655 S
C523 C522 1.388 . S
C523 C524 1.390 . S
C524 C523 1.390 . S
C524 C525 1.394 . S
C524 C530 1.465 . S
C525 C520 1.399 . S
C525 C524 1.394 . S
C525 C526 1.516 . S
C526 C525 1.516 . S
C526 C527 1.502 . S
C526 C528 1.561 1_556 S
C526 C529 1.526 . S
C527 H511 0.959 . S
C527 H512 0.959 . S
C527 H513 0.961 . S
C527 C526 1.502 . S
C528 H514 0.960 . S
C528 H515 0.961 . S
C528 H516 0.959 . S
C528 C526 1.561 1_554 S
C529 C526 1.526 . S
C529 C530 1.396 . S
C529 C534 1.390 . S
C530 C524 1.465 . S
C530 C529 1.396 . S
C530 C531 1.399 1_655 S
C531 H517 0.929 . S
C531 C530 1.399 1_455 S
C531 C532 1.385 . S
C532 H518 0.931 . S
C532 C531 1.385 . S
C532 C533 1.389 . S
C533 C532 1.389 . S
C533 C534 1.387 1_455 S
C534 H519 0.930 . S
C534 C529 1.390 . S
C534 C533 1.387 1_655 S
H535 C547 0.930 1_554 S
H536 C549 0.930 . S
H537 C550 0.930 . S
H538 C554 0.959 . S
H539 C554 0.959 . S
H540 C554 0.961 . S
H541 C555 0.960 . S
H542 C555 0.961 . S
H543 C555 0.959 . S
H544 C558 0.929 . S
H545 C559 0.931 . S
H546 C561 0.930 . S
C547 H535 0.930 1_556 S
C547 C548 1.379 1_545 S
C547 C552 1.399 . S
C548 C547 1.379 1_565 S
C548 C549 1.397 . S
C549 H536 0.930 . S
C549 C548 1.397 . S
C549 C550 1.388 . S
C550 H537 0.930 . S
C550 C549 1.388 . S
C550 C551 1.390 . S
C551 C550 1.390 . S
C551 C552 1.394 1_565 S
C551 C557 1.467 . S
C552 C547 1.399 . S
C552 C551 1.394 1_545 S
C552 C553 1.516 . S
C553 C552 1.516 . S
C553 C554 1.502 1_556 S
C553 C555 1.561 . S
C553 C556 1.526 . S
C554 H538 0.959 . S
C554 H539 0.959 . S
C554 H540 0.961 . S
C554 C553 1.502 1_554 S
C555 H541 0.960 . S
C555 H542 0.961 . S
C555 H543 0.959 . S
C555 C553 1.561 . S
C556 C553 1.526 . S
C556 C557 1.382 1_545 S
C556 C561 1.390 . S
C557 C551 1.467 . S
C557 C556 1.382 1_565 S
C557 C558 1.409 . S
C558 H544 0.929 . S
C558 C557 1.409 . S
C558 C559 1.385 . S
C559 H545 0.931 . S
C559 C558 1.385 . S
C559 C560 1.389 1_565 S
C560 C559 1.389 1_545 S
C560 C561 1.387 . S
C561 H546 0.930 . S
C561 C556 1.390 . S
C561 C560 1.387 . S
H562 C574 0.930 . S
H563 C576 0.930 . S
H564 C577 0.930 . S
H565 C581 0.959 . S
H566 C581 0.959 . S
H567 C581 0.961 . S
H568 C582 0.956 1_554 S
H569 C582 0.961 . S
H570 C582 0.958 1_554 S
H571 C585 0.929 . S
H572 C586 0.931 . S
H573 C588 0.930 . S
C574 H562 0.930 . S
C574 C575 1.399 . S
C574 C579 1.399 . S
C575 C574 1.399 . S
C575 C576 1.376 . S
C576 H563 0.930 . S
C576 C575 1.376 . S
C576 C577 1.388 . S
C577 H564 0.930 . S
C577 C576 1.388 . S
C577 C578 1.390 . S
C578 C577 1.390 . S
C578 C579 1.394 . S
C578 C584 1.465 . S
C579 C574 1.399 . S
C579 C578 1.394 . S
C579 C580 1.516 . S
C580 C579 1.516 . S
C580 C581 1.502 . S
C580 C582 1.566 . S
C580 C583 1.526 . S
C581 H565 0.959 . S
C581 H566 0.959 . S
C581 H567 0.961 . S
C581 C580 1.502 . S
C582 H568 0.956 1_556 S
C582 H569 0.961 . S
C582 H570 0.958 1_556 S
C582 C580 1.566 . S
C583 C580 1.526 . S
C583 C584 1.396 . S
C583 C588 1.390 . S
C584 C578 1.465 . S
C584 C583 1.396 . S
C584 C585 1.399 . S
C585 H571 0.929 . S
C585 C584 1.399 . S
C585 C586 1.385 . S
C586 H572 0.931 . S
C586 C585 1.385 . S
C586 C587 1.389 . S
C587 C586 1.389 . S
C587 C588 1.387 . S
C588 H573 0.930 . S
C588 C583 1.390 . S
C588 C587 1.387 . S
H589 C601 0.930 1_554 S
H590 C603 0.930 . S
H591 C604 0.930 . S
H592 C608 0.959 . S
H593 C608 0.959 . S
H594 C608 0.961 . S
H595 C609 0.960 . S
H596 C609 0.961 . S
H597 C609 0.959 . S
H598 C612 0.929 . S
H599 C613 0.931 . S
H600 C615 0.930 . S
C601 H589 0.930 1_556 S
C601 C602 1.399 . S
C601 C606 1.399 . S
C602 C601 1.399 . S
C602 C603 1.376 . S
C603 H590 0.930 . S
C603 C602 1.376 . S
C603 C604 1.388 . S
C604 H591 0.930 . S
C604 C603 1.388 . S
C604 C605 1.390 . S
C605 C604 1.390 . S
C605 C606 1.394 . S
C605 C611 1.465 . S
C606 C601 1.399 . S
C606 C605 1.394 . S
C606 C607 1.516 . S
C607 C606 1.516 . S
C607 C608 1.502 1_556 S
C607 C609 1.561 . S
C607 C610 1.526 . S
C608 H592 0.959 . S
C608 H593 0.959 . S
C608 H594 0.961 . S
C608 C607 1.502 1_554 S
C609 H595 0.960 . S
C609 H596 0.961 . S
C609 H597 0.959 . S
C609 C607 1.561 . S
C610 C607 1.526 . S
C610 C611 1.396 . S
C610 C615 1.390 . S
C611 C605 1.465 . S
C611 C610 1.396 . S
C611 C612 1.399 . S
C612 H598 0.929 . S
C612 C611 1.399 . S
C612 C613 1.385 . S
C613 H599 0.931 . S
C613 C612 1.385 . S
C613 C614 1.389 . S
C614 C613 1.389 . S
C614 C615 1.387 . S
C615 H600 0.930 . S
C615 C610 1.390 . S
C615 C614 1.387 . S
H616 C628 0.930 . S
H617 C630 0.930 . S
H618 C631 0.930 1_655 S
H619 C635 0.959 . S
H620 C635 0.959 . S
H621 C635 0.961 . S
H622 C636 0.960 . S
H623 C636 0.961 . S
H624 C636 0.959 . S
H625 C639 0.929 1_655 S
H626 C640 0.931 1_655 S
H627 C642 0.930 . S
C628 H616 0.930 . S
C628 C629 1.399 . S
C628 C633 1.399 1_554 S
C629 C628 1.399 . S
C629 C630 1.376 1_554 S
C630 H617 0.930 . S
C630 C629 1.376 1_556 S
C630 C631 1.388 . S
C631 H618 0.930 1_455 S
C631 C630 1.388 . S
C631 C632 1.390 . S
C632 C631 1.390 . S
C632 C633 1.394 . S
C632 C638 1.465 . S
C633 C628 1.399 1_556 S
C633 C632 1.394 . S
C633 C634 1.516 . S
C634 C633 1.516 . S
C634 C635 1.502 . S
C634 C636 1.561 1_556 S
C634 C637 1.526 . S
C635 H619 0.959 . S
C635 H620 0.959 . S
C635 H621 0.961 . S
C635 C634 1.502 . S
C636 H622 0.960 . S
C636 H623 0.961 . S
C636 H624 0.959 . S
C636 C634 1.561 1_554 S
C637 C634 1.526 . S
C637 C638 1.396 . S
C637 C642 1.390 . S
C638 C632 1.465 . S
C638 C637 1.396 . S
C638 C639 1.399 . S
C639 H625 0.929 1_455 S
C639 C638 1.399 . S
C639 C640 1.385 . S
C640 H626 0.931 1_455 S
C640 C639 1.385 . S
C640 C641 1.389 . S
C641 C640 1.389 . S
C641 C642 1.387 . S
C642 H627 0.930 . S
C642 C637 1.390 . S
C642 C641 1.387 . S
H643 C655 0.930 . S
H644 C657 0.930 . S
H645 C658 0.930 . S
H646 C662 0.959 . S
H647 C662 0.959 . S
H648 C662 0.961 . S
H649 C663 0.960 . S
H650 C663 0.961 . S
H651 C663 0.959 . S
H652 C666 0.929 . S
H653 C667 0.931 . S
H654 C669 0.930 . S
C655 H643 0.930 . S
C655 C656 1.399 1_566 S
C655 C660 1.399 . S
C656 C655 1.399 1_544 S
C656 C657 1.376 . S
C657 H644 0.930 . S
C657 C656 1.376 . S
C657 C658 1.388 1_554 S
C658 H645 0.930 . S
C658 C657 1.388 1_556 S
C658 C659 1.390 . S
C659 C658 1.390 . S
C659 C660 1.394 1_545 S
C659 C665 1.465 . S
C660 C655 1.399 . S
C660 C659 1.394 1_565 S
C660 C661 1.516 . S
C661 C660 1.516 . S
C661 C662 1.502 . S
C661 C663 1.561 . S
C661 C664 1.526 . S
C662 H646 0.959 . S
C662 H647 0.959 . S
C662 H648 0.961 . S
C662 C661 1.502 . S
C663 H649 0.960 . S
C663 H650 0.961 . S
C663 H651 0.959 . S
C663 C661 1.561 . S
C664 C661 1.526 . S
C664 C665 1.396 1_565 S
C664 C669 1.390 . S
C665 C659 1.465 . S
C665 C664 1.396 1_545 S
C665 C666 1.399 . S
C666 H652 0.929 . S
C666 C665 1.399 . S
C666 C667 1.385 . S
C667 H653 0.931 . S
C667 C666 1.385 . S
C667 C668 1.389 . S
C668 C667 1.389 . S
C668 C669 1.387 1_545 S
C669 H654 0.930 . S
C669 C664 1.390 . S
C669 C668 1.387 1_565 S
H670 C682 0.930 . S
H671 C684 0.930 . S
H672 C685 0.930 . S
H673 C689 0.959 . S
H674 C689 0.959 . S
H675 C689 0.961 . S
H676 C690 0.960 . S
H677 C690 0.961 . S
H678 C690 0.959 . S
H679 C693 0.929 . S
H680 C694 0.931 . S
H681 C696 0.930 . S
C682 H670 0.930 . S
C682 C683 1.399 1_556 S
C682 C687 1.399 . S
C683 C682 1.399 1_554 S
C683 C684 1.376 . S
C684 H671 0.930 . S
C684 C683 1.376 . S
C684 C685 1.388 . S
C685 H672 0.930 . S
C685 C684 1.388 . S
C685 C686 1.390 1_554 S
C686 C685 1.390 1_556 S
C686 C687 1.394 . S
C686 C692 1.465 . S
C687 C682 1.399 . S
C687 C686 1.394 . S
C687 C688 1.516 . S
C688 C687 1.516 . S
C688 C689 1.502 . S
C688 C690 1.561 . S
C688 C691 1.526 . S
C689 H673 0.959 . S
C689 H674 0.959 . S
C689 H675 0.961 . S
C689 C688 1.502 . S
C690 H676 0.960 . S
C690 H677 0.961 . S
C690 H678 0.959 . S
C690 C688 1.561 . S
C691 C688 1.526 . S
C691 C692 1.396 . S
C691 C696 1.390 . S
C692 C686 1.465 . S
C692 C691 1.396 . S
C692 C693 1.399 . S
C693 H679 0.929 . S
C693 C692 1.399 . S
C693 C694 1.385 . S
C694 H680 0.931 . S
C694 C693 1.385 . S
C694 C695 1.389 . S
C695 C694 1.389 . S
C695 C696 1.387 . S
C696 H681 0.930 . S
C696 C691 1.390 . S
C696 C695 1.387 . S
H697 C709 0.930 . S
H698 C711 0.930 . S
H699 C712 0.930 . S
H700 C716 0.959 . S
H701 C716 0.959 . S
H702 C716 0.961 . S
H703 C717 0.960 . S
H704 C717 0.961 . S
H705 C717 0.959 . S
H706 C720 0.929 . S
H707 C721 0.931 . S
H708 C723 0.930 . S
C709 H697 0.930 . S
C709 C710 1.399 1_556 S
C709 C714 1.399 . S
C710 C709 1.399 1_554 S
C710 C711 1.376 . S
C711 H698 0.930 . S
C711 C710 1.376 . S
C711 C712 1.388 . S
C712 H699 0.930 . S
C712 C711 1.388 . S
C712 C713 1.390 1_554 S
C713 C712 1.390 1_556 S
C713 C714 1.394 . S
C713 C719 1.465 . S
C714 C709 1.399 . S
C714 C713 1.394 . S
C714 C715 1.516 . S
C715 C714 1.516 . S
C715 C716 1.502 . S
C715 C717 1.561 . S
C715 C718 1.526 . S
C716 H700 0.959 . S
C716 H701 0.959 . S
C716 H702 0.961 . S
C716 C715 1.502 . S
C717 H703 0.960 . S
C717 H704 0.961 . S
C717 H705 0.959 . S
C717 C715 1.561 . S
C718 C715 1.526 . S
C718 C719 1.396 . S
C718 C723 1.390 . S
C719 C713 1.465 . S
C719 C718 1.396 . S
C719 C720 1.399 . S
C720 H706 0.929 . S
C720 C719 1.399 . S
C720 C721 1.385 . S
C721 H707 0.931 . S
C721 C720 1.385 . S
C721 C722 1.389 . S
C722 C721 1.389 . S
C722 C723 1.387 . S
C723 H708 0.930 . S
C723 C718 1.390 . S
C723 C722 1.387 . S
H724 C736 0.930 . S
H725 C738 0.930 . S
H726 C739 0.930 . S
H727 C743 0.959 . S
H728 C743 0.959 . S
H729 C743 0.961 . S
H730 C744 0.960 . S
H731 C744 0.961 . S
H732 C744 0.959 1_455 S
H733 C747 0.929 . S
H734 C748 0.931 . S
H735 C750 0.930 . S
C736 H724 0.930 . S
C736 C737 1.399 . S
C736 C741 1.399 . S
C737 C736 1.399 . S
C737 C738 1.376 . S
C738 H725 0.930 . S
C738 C737 1.376 . S
C738 C739 1.388 . S
C739 H726 0.930 . S
C739 C738 1.388 . S
C739 C740 1.390 . S
C740 C739 1.390 . S
C740 C741 1.394 . S
C740 C746 1.465 . S
C741 C736 1.399 . S
C741 C740 1.394 . S
C741 C742 1.516 . S
C742 C741 1.516 . S
C742 C743 1.502 . S
C742 C744 1.561 . S
C742 C745 1.526 . S
C743 H727 0.959 . S
C743 H728 0.959 . S
C743 H729 0.961 . S
C743 C742 1.502 . S
C744 H730 0.960 . S
C744 H731 0.961 . S
C744 H732 0.959 1_655 S
C744 C742 1.561 . S
C745 C742 1.526 . S
C745 C746 1.396 . S
C745 C750 1.390 . S
C746 C740 1.465 . S
C746 C745 1.396 . S
C746 C747 1.399 . S
C747 H733 0.929 . S
C747 C746 1.399 . S
C747 C748 1.385 . S
C748 H734 0.931 . S
C748 C747 1.385 . S
C748 C749 1.389 . S
C749 C748 1.389 . S
C749 C750 1.387 . S
C750 H735 0.930 . S
C750 C745 1.390 . S
C750 C749 1.387 . S
H751 C763 0.930 . S
H752 C765 0.930 . S
H753 C766 0.930 . S
H754 C770 0.959 . S
H755 C770 0.959 . S
H756 C770 0.961 . S
H757 C771 0.960 . S
H758 C771 0.961 . S
H759 C771 0.959 . S
H760 C774 0.929 . S
H761 C775 0.931 . S
H762 C777 0.930 . S
C763 H751 0.930 . S
C763 C764 1.399 1_565 S
C763 C768 1.399 . S
C764 C763 1.399 1_545 S
C764 C765 1.376 . S
C765 H752 0.930 . S
C765 C764 1.376 . S
C765 C766 1.388 . S
C766 H753 0.930 . S
C766 C765 1.388 . S
C766 C767 1.390 . S
C767 C766 1.390 . S
C767 C768 1.394 1_545 S
C767 C773 1.465 . S
C768 C763 1.399 . S
C768 C767 1.394 1_565 S
C768 C769 1.516 . S
C769 C768 1.516 . S
C769 C770 1.502 . S
C769 C771 1.561 . S
C769 C772 1.526 . S
C770 H754 0.959 . S
C770 H755 0.959 . S
C770 H756 0.961 . S
C770 C769 1.502 . S
C771 H757 0.960 . S
C771 H758 0.961 . S
C771 H759 0.959 . S
C771 C769 1.561 . S
C772 C769 1.526 . S
C772 C773 1.396 1_565 S
C772 C777 1.390 . S
C773 C767 1.465 . S
C773 C772 1.396 1_545 S
C773 C774 1.399 . S
C774 H760 0.929 . S
C774 C773 1.399 . S
C774 C775 1.385 . S
C775 H761 0.931 . S
C775 C774 1.385 . S
C775 C776 1.389 1_545 S
C776 C775 1.389 1_565 S
C776 C777 1.387 . S
C777 H762 0.930 . S
C777 C772 1.390 . S
C777 C776 1.387 . S
H778 C790 0.930 . S
H779 C792 0.930 . S
H780 C793 0.930 . S
H781 C797 0.959 . S
H782 C797 0.959 . S
H783 C797 0.961 . S
H784 C798 0.960 . S
H785 C798 0.961 . S
H786 C798 0.959 . S
H787 C801 0.929 . S
H788 C802 0.931 . S
H789 C804 0.930 . S
C790 H778 0.930 . S
C790 C791 1.399 . S
C790 C795 1.399 . S
C791 C790 1.399 . S
C791 C792 1.376 . S
C792 H779 0.930 . S
C792 C791 1.376 . S
C792 C793 1.388 . S
C793 H780 0.930 . S
C793 C792 1.388 . S
C793 C794 1.390 . S
C794 C793 1.390 . S
C794 C795 1.394 . S
C794 C800 1.465 . S
C795 C790 1.399 . S
C795 C794 1.394 . S
C795 C796 1.516 . S
C796 C795 1.516 . S
C796 C797 1.502 . S
C796 C798 1.561 . S
C796 C799 1.526 . S
C797 H781 0.959 . S
C797 H782 0.959 . S
C797 H783 0.961 . S
C797 C796 1.502 . S
C798 H784 0.960 . S
C798 H785 0.961 . S
C798 H786 0.959 . S
C798 C796 1.561 . S
C799 C796 1.526 . S
C799 C800 1.396 . S
C799 C804 1.390 . S
C800 C794 1.465 . S
C800 C799 1.396 . S
C800 C801 1.399 . S
C801 H787 0.929 . S
C801 C800 1.399 . S
C801 C802 1.385 . S
C802 H788 0.931 . S
C802 C801 1.385 . S
C802 C803 1.389 . S
C803 C802 1.389 . S
C803 C804 1.387 . S
C804 H789 0.930 . S
C804 C799 1.390 . S
C804 C803 1.387 . S
H805 C817 0.930 . S
H806 C819 0.930 . S
H807 C820 0.930 . S
H808 C824 0.959 . S
H809 C824 0.959 . S
H810 C824 0.961 . S
H811 C825 0.960 . S
H812 C825 0.961 . S
H813 C825 0.959 . S
H814 C828 0.929 . S
H815 C829 0.931 . S
H816 C831 0.930 . S
C817 H805 0.930 . S
C817 C818 1.399 . S
C817 C822 1.399 . S
C818 C817 1.399 . S
C818 C819 1.376 . S
C819 H806 0.930 . S
C819 C818 1.376 . S
C819 C820 1.388 . S
C820 H807 0.930 . S
C820 C819 1.388 . S
C820 C821 1.390 . S
C821 C820 1.390 . S
C821 C822 1.394 . S
C821 C827 1.465 . S
C822 C817 1.399 . S
C822 C821 1.394 . S
C822 C823 1.516 . S
C823 C822 1.516 . S
C823 C824 1.502 . S
C823 C825 1.561 . S
C823 C826 1.526 . S
C824 H808 0.959 . S
C824 H809 0.959 . S
C824 H810 0.961 . S
C824 C823 1.502 . S
C825 H811 0.960 . S
C825 H812 0.961 . S
C825 H813 0.959 . S
C825 C823 1.561 . S
C826 C823 1.526 . S
C826 C827 1.396 . S
C826 C831 1.390 . S
C827 C821 1.465 . S
C827 C826 1.396 . S
C827 C828 1.399 . S
C828 H814 0.929 . S
C828 C827 1.399 . S
C828 C829 1.385 . S
C829 H815 0.931 . S
C829 C828 1.385 . S
C829 C830 1.389 . S
C830 C829 1.389 . S
C830 C831 1.387 . S
C831 H816 0.930 . S
C831 C826 1.390 . S
C831 C830 1.387 . S
C197 C82 1.432 1_565 S
C209 C122 1.429 . S
C236 C142 1.517 . S
C224 C95 1.506 . S
C263 C162 1.430 . S
C251 C56 1.427 . S
C290 C182 1.544 . S
C278 C69 1.463 . S
C317 C123 1.471 1_565 S
C305 C30 1.416 1_565 S
C332 C43 1.445 . S
C344 C143 1.520 . S
C359 C4 1.306 . S
C371 C163 1.479 . S
C386 C17 1.392 . S
C398 C183 1.516 1_655 S
C425 C113 0.881 . S
C413 C74 0.898 . S
C452 C133 0.813 . S
C440 C87 0.821 . S
C479 C153 0.938 . S
C467 C100 0.813 . S
C494 C61 0.808 . S
C506 C173 0.841 . S
C521 C22 0.870 . S
C533 C116 0.869 1_455 S
C560 C136 0.764 . S
C548 C35 0.908 1_565 S
C587 C156 0.896 . S
C575 C48 0.854 . S
C602 C9 0.914 . S
C614 C176 0.773 . S
C629 C73 1.550 . S
C641 C106 1.444 . S
C656 C86 1.502 . S
C668 C126 1.484 . S
C695 C146 1.533 . S
C683 C99 1.532 . S
C722 C166 1.460 . S
C710 C60 1.452 . S
C737 C21 1.501 . S
C749 C108 1.533 . S
C776 C128 1.396 . S
C764 C34 1.535 . S
C803 C148 1.467 . S
C791 C47 1.566 . S
C818 C8 1.456 . S
C830 C168 1.492 . S
