# Generated by pormake.
# Topology apo, (3,6)-cn, num edge types: 1
# Building blocks:
#     Node 0, Type 0, BuildingBlock: BELTOD_clean_linker_0, # of connection points: 3
#     Node 1, Type 0, BuildingBlock: BELTOD_clean_linker_0, # of connection points: 3
#     Node 2, Type 0, BuildingBlock: BELTOD_clean_linker_0, # of connection points: 3
#     Node 3, Type 0, BuildingBlock: BELTOD_clean_linker_0, # of connection points: 3
#     Node 4, Type 0, BuildingBlock: BELTOD_clean_linker_0, # of connection points: 3
#     Node 5, Type 0, BuildingBlock: BELTOD_clean_linker_0, # of connection points: 3
#     Node 6, Type 0, BuildingBlock: BELTOD_clean_linker_0, # of connection points: 3
#     Node 7, Type 0, BuildingBlock: BELTOD_clean_linker_0, # of connection points: 3
#     Node 8, Type 1, BuildingBlock: KUMBUR_clean_sbu_1, # of connection points: 6
#     Node 9, Type 1, BuildingBlock: KUMBUR_clean_sbu_1, # of connection points: 6
#     Node 10, Type 1, BuildingBlock: KUMBUR_clean_sbu_1, # of connection points: 6
#     Node 11, Type 1, BuildingBlock: KUMBUR_clean_sbu_1, # of connection points: 6
#     Edge 12, Type (0, 1), BuildingBlock: KIFKEQ_clean_linker_1, # of connection points: 2
#     Edge 13, Type (0, 1), BuildingBlock: KIFKEQ_clean_linker_1, # of connection points: 2
#     Edge 14, Type (0, 1), BuildingBlock: KIFKEQ_clean_linker_1, # of connection points: 2
#     Edge 15, Type (0, 1), BuildingBlock: KIFKEQ_clean_linker_1, # of connection points: 2
#     Edge 16, Type (0, 1), BuildingBlock: KIFKEQ_clean_linker_1, # of connection points: 2
#     Edge 17, Type (0, 1), BuildingBlock: KIFKEQ_clean_linker_1, # of connection points: 2
#     Edge 18, Type (0, 1), BuildingBlock: KIFKEQ_clean_linker_1, # of connection points: 2
#     Edge 19, Type (0, 1), BuildingBlock: KIFKEQ_clean_linker_1, # of connection points: 2
#     Edge 20, Type (0, 1), BuildingBlock: KIFKEQ_clean_linker_1, # of connection points: 2
#     Edge 21, Type (0, 1), BuildingBlock: KIFKEQ_clean_linker_1, # of connection points: 2
#     Edge 22, Type (0, 1), BuildingBlock: KIFKEQ_clean_linker_1, # of connection points: 2
#     Edge 23, Type (0, 1), BuildingBlock: KIFKEQ_clean_linker_1, # of connection points: 2
#     Edge 24, Type (0, 1), BuildingBlock: KIFKEQ_clean_linker_1, # of connection points: 2
#     Edge 25, Type (0, 1), BuildingBlock: KIFKEQ_clean_linker_1, # of connection points: 2
#     Edge 26, Type (0, 1), BuildingBlock: KIFKEQ_clean_linker_1, # of connection points: 2
#     Edge 27, Type (0, 1), BuildingBlock: KIFKEQ_clean_linker_1, # of connection points: 2
#     Edge 28, Type (0, 1), BuildingBlock: KIFKEQ_clean_linker_1, # of connection points: 2
#     Edge 29, Type (0, 1), BuildingBlock: KIFKEQ_clean_linker_1, # of connection points: 2
#     Edge 30, Type (0, 1), BuildingBlock: KIFKEQ_clean_linker_1, # of connection points: 2
#     Edge 31, Type (0, 1), BuildingBlock: KIFKEQ_clean_linker_1, # of connection points: 2
#     Edge 32, Type (0, 1), BuildingBlock: KIFKEQ_clean_linker_1, # of connection points: 2
#     Edge 33, Type (0, 1), BuildingBlock: KIFKEQ_clean_linker_1, # of connection points: 2
#     Edge 34, Type (0, 1), BuildingBlock: KIFKEQ_clean_linker_1, # of connection points: 2
#     Edge 35, Type (0, 1), BuildingBlock: KIFKEQ_clean_linker_1, # of connection points: 2
# Relax obj value: 0.009
# Max RMSD: 0.110
# Mean RMSD: 0.080
data_MOF--net-apo--node1-KUMBUR_clean_sbu_1--node2-BELTOD_clean_linker_0--edge1-KIFKEQ_clean_linker_1
_symmetry_space_group_name_H-M    P1
_symmetry_Int_Tables_number       1
_symmetry_cell_setting            triclinic
loop_
_symmetry_equiv_pos_as_xyz
'x, y, z'
_cell_length_a     27.473549
_cell_length_b     49.658132
_cell_length_c     59.914983
_cell_angle_alpha  89.991542
_cell_angle_beta   90.356614
_cell_angle_gamma 90.906413
loop_
_atom_site_label
_atom_site_type_symbol
_atom_site_fract_x
_atom_site_fract_y
_atom_site_fract_z
_atom_type_partial_charge
P0 P 0.37059 0.34931 0.41161 0.0
H1 H 0.4095 0.31891 0.44925 0.0
H2 H 0.40903 0.32639 0.4895 0.0
H3 H 0.31755 0.39551 0.47997 0.0
H4 H 0.31874 0.38805 0.43962 0.0
H5 H 0.32707 0.34917 0.36693 0.0
H6 H 0.26569 0.32037 0.34898 0.0
H7 H 0.2466 0.27643 0.41056 0.0
H8 H 0.30744 0.30589 0.42873 0.0
H9 H 0.45618 0.38125 0.39905 0.0
H10 H 0.30026 0.38956 0.39649 0.0
O11 O 0.42087 0.33196 0.40654 0.0
H12 H 0.46641 0.42432 0.37988 0.0
H13 H 0.31018 0.43295 0.37744 0.0
C14 C 0.36505 0.35326 0.44139 0.0
C15 C 0.38912 0.3356 0.45581 0.0
C16 C 0.38853 0.33979 0.47888 0.0
C17 C 0.36364 0.36173 0.48798 0.0
C18 C 0.33782 0.37873 0.47348 0.0
C19 C 0.33833 0.37444 0.45039 0.0
C20 C 0.32062 0.33036 0.39943 0.0
C21 C 0.30863 0.33396 0.37685 0.0
C22 C 0.27368 0.31738 0.36653 0.0
C23 C 0.25112 0.29631 0.37842 0.0
C24 C 0.26335 0.29259 0.40103 0.0
C25 C 0.29782 0.30952 0.41146 0.0
C26 C 0.37746 0.38192 0.39869 0.0
C27 C 0.42411 0.39239 0.3944 0.0
C28 C 0.42991 0.41715 0.38359 0.0
C29 C 0.38908 0.43198 0.37697 0.0
C30 C 0.34233 0.4218 0.38197 0.0
C31 C 0.33661 0.39706 0.3929 0.0
P32 P 0.2993 0.09148 0.92176 0.0
H33 H 0.30908 0.03391 0.91333 0.0
H34 H 0.26179 0.00166 0.89106 0.0
H35 H 0.16113 0.0643 0.87335 0.0
H36 H 0.20849 0.09645 0.89613 0.0
H37 H 0.31164 0.14826 0.93536 0.0
H38 H 0.33676 0.18861 0.91454 0.0
H39 H 0.33622 0.14222 0.85358 0.0
H40 H 0.31133 0.10213 0.87439 0.0
H41 H 0.32119 0.06804 0.96509 0.0
H42 H 0.21695 0.12329 0.93788 0.0
O43 O 0.35461 0.07866 0.9253 0.0
H44 H 0.28466 0.07219 1.00178 0.0
H45 H 0.18042 0.12811 0.97497 0.0
C46 C 0.26277 0.06767 0.90601 0.0
C47 C 0.27688 0.04074 0.90465 0.0
C48 C 0.24988 0.02232 0.8918 0.0
C49 C 0.20798 0.03044 0.88014 0.0
C50 C 0.19309 0.05734 0.88215 0.0
C51 C 0.22023 0.07577 0.89505 0.0
C52 C 0.30826 0.12232 0.90634 0.0
C53 C 0.31558 0.14696 0.91743 0.0
C54 C 0.3301 0.17 0.90553 0.0
C55 C 0.33862 0.16856 0.88243 0.0
C56 C 0.33033 0.14393 0.87138 0.0
C57 C 0.31554 0.12105 0.88324 0.0
C58 C 0.27253 0.09587 0.94888 0.0
C59 C 0.29081 0.08143 0.96709 0.0
C60 C 0.26993 0.08391 0.98815 0.0
C61 C 0.22998 0.10079 0.99147 0.0
C62 C 0.21109 0.1149 0.97302 0.0
C63 C 0.23211 0.11235 0.95186 0.0
P64 P 0.85571 0.14128 0.61268 0.0
H65 H 0.88874 0.17673 0.57697 0.0
H66 H 0.87483 0.1771 0.53678 0.0
H67 H 0.77823 0.10798 0.54307 0.0
H68 H 0.79349 0.1074 0.58343 0.0
H69 H 0.84568 0.1498 0.66029 0.0
H70 H 0.79351 0.1786 0.68254 0.0
H71 H 0.72022 0.20441 0.62236 0.0
H72 H 0.7733 0.17593 0.60021 0.0
H73 H 0.93524 0.10342 0.61693 0.0
H74 H 0.78172 0.1043 0.63125 0.0
O75 O 0.9104 0.15562 0.61674 0.0
H76 H 0.94145 0.05919 0.63427 0.0
H77 H 0.78723 0.05955 0.64821 0.0
C78 C 0.84295 0.14172 0.58312 0.0
C79 C 0.86466 0.1616 0.56971 0.0
C80 C 0.85627 0.16193 0.5467 0.0
C81 C 0.82548 0.14251 0.53658 0.0
C82 C 0.80278 0.12296 0.55022 0.0
C83 C 0.81131 0.12265 0.57332 0.0
C84 C 0.81318 0.16057 0.62864 0.0
C85 C 0.818 0.16146 0.65193 0.0
C86 C 0.78798 0.17787 0.66463 0.0
C87 C 0.75259 0.19387 0.65426 0.0
C88 C 0.74746 0.19261 0.63087 0.0
C89 C 0.77758 0.17615 0.61817 0.0
C90 C 0.85826 0.10734 0.62323 0.0
C91 C 0.90271 0.09393 0.62362 0.0
C92 C 0.9061 0.06848 0.63341 0.0
C93 C 0.86489 0.05579 0.64282 0.0
C94 C 0.81987 0.06891 0.64151 0.0
C95 C 0.81659 0.09444 0.63173 0.0
P96 P 0.78945 0.39146 0.1076 0.0
H97 H 0.80015 0.44985 0.11227 0.0
H98 H 0.7563 0.48302 0.13401 0.0
H99 H 0.65355 0.42117 0.15455 0.0
H100 H 0.69849 0.38788 0.13306 0.0
H101 H 0.80456 0.33415 0.09816 0.0
H102 H 0.82405 0.29603 0.12224 0.0
H103 H 0.8106 0.34713 0.18024 0.0
H104 H 0.7936 0.38523 0.15605 0.0
H105 H 0.83345 0.38783 0.06344 0.0
H106 H 0.69127 0.37544 0.09207 0.0
O107 O 0.84519 0.4046 0.10415 0.0
H108 H 0.8009 0.37687 0.02659 0.0
H109 H 0.65835 0.36391 0.05512 0.0
C110 C 0.75295 0.41634 0.12128 0.0
C111 C 0.76801 0.44342 0.12132 0.0
C112 C 0.7427 0.46243 0.1337 0.0
C113 C 0.70159 0.45474 0.14621 0.0
C114 C 0.68555 0.42768 0.14544 0.0
C115 C 0.71091 0.40868 0.13299 0.0
C116 C 0.79628 0.36239 0.12531 0.0
C117 C 0.805 0.33701 0.11608 0.0
C118 C 0.81604 0.31517 0.12992 0.0
C119 C 0.81887 0.3184 0.15326 0.0
C120 C 0.80936 0.34388 0.16237 0.0
C121 C 0.79884 0.36568 0.14853 0.0
C122 C 0.76465 0.38285 0.0805 0.0
C123 C 0.79513 0.38274 0.06183 0.0
C124 C 0.77651 0.37624 0.04071 0.0
C125 C 0.72693 0.36953 0.03781 0.0
C126 C 0.69654 0.36937 0.05667 0.0
C127 C 0.71532 0.37587 0.07784 0.0
P128 P 0.7983 0.58924 0.60214 0.0
H129 H 0.8044 0.55345 0.56396 0.0
H130 H 0.78102 0.55759 0.52481 0.0
H131 H 0.7232 0.63638 0.53802 0.0
H132 H 0.74731 0.63217 0.5773 0.0
H133 H 0.89066 0.61739 0.61055 0.0
H134 H 0.91215 0.65862 0.63032 0.0
H135 H 0.75946 0.67411 0.64072 0.0
H136 H 0.73841 0.63181 0.62162 0.0
H137 H 0.72177 0.54909 0.59129 0.0
H138 H 0.78375 0.58609 0.6503 0.0
O139 O 0.84915 0.57129 0.60184 0.0
H140 H 0.67357 0.51853 0.61462 0.0
H141 H 0.73575 0.55559 0.67369 0.0
C142 C 0.77825 0.59262 0.57352 0.0
C143 C 0.78665 0.57163 0.55847 0.0
C144 C 0.7729 0.57394 0.53608 0.0
C145 C 0.75027 0.59735 0.52821 0.0
C146 C 0.74111 0.61823 0.54346 0.0
C147 C 0.75473 0.6158 0.56597 0.0
C148 C 0.81295 0.62138 0.6148 0.0
C149 C 0.86171 0.62965 0.61701 0.0
C150 C 0.87395 0.65349 0.6282 0.0
C151 C 0.83761 0.66989 0.6372 0.0
C152 C 0.78851 0.66186 0.63436 0.0
C153 C 0.77634 0.63779 0.62327 0.0
C154 C 0.75562 0.57037 0.61901 0.0
C155 C 0.72428 0.5511 0.60924 0.0
C156 C 0.69702 0.53343 0.62261 0.0
C157 C 0.70083 0.5346 0.64603 0.0
C158 C 0.73136 0.55441 0.65574 0.0
C159 C 0.75879 0.57193 0.64235 0.0
P160 P 0.85297 0.85263 0.1169 0.0
H161 H 0.83127 0.8683 0.16259 0.0
H162 H 0.83922 0.91113 0.18251 0.0
H163 H 0.87696 0.95104 0.12083 0.0
H164 H 0.86828 0.90834 0.10093 0.0
H165 H 0.85009 0.79444 0.12184 0.0
H166 H 0.79187 0.76344 0.13921 0.0
H167 H 0.693 0.82908 0.1493 0.0
H168 H 0.75138 0.86001 0.13141 0.0
H169 H 0.93327 0.86655 0.08785 0.0
H170 H 0.78133 0.84547 0.08014 0.0
O171 O 0.90554 0.83995 0.1258 0.0
H172 H 0.94126 0.8708 0.0476 0.0
H173 H 0.78927 0.8488 0.03942 0.0
C174 C 0.84844 0.88507 0.13019 0.0
C175 C 0.83973 0.8864 0.15321 0.0
C176 C 0.84435 0.91089 0.1646 0.0
C177 C 0.85883 0.9344 0.15323 0.0
C178 C 0.86601 0.93319 0.13004 0.0
C179 C 0.86083 0.90874 0.11862 0.0
C180 C 0.80559 0.82961 0.12589 0.0
C181 C 0.81566 0.80213 0.12754 0.0
C182 C 0.78244 0.78445 0.1376 0.0
C183 C 0.73828 0.79391 0.14613 0.0
C184 C 0.72677 0.82118 0.143 0.0
C185 C 0.76018 0.8389 0.13287 0.0
C186 C 0.85695 0.85528 0.08695 0.0
C187 C 0.90168 0.8625 0.0774 0.0
C188 C 0.90624 0.86476 0.05431 0.0
C189 C 0.86612 0.85973 0.04012 0.0
C190 C 0.82092 0.8529 0.0498 0.0
C191 C 0.81635 0.8508 0.07307 0.0
P192 P 0.30325 0.8951 0.42131 0.0
H193 H 0.34167 0.90031 0.4667 0.0
H194 H 0.30751 0.89063 0.50325 0.0
H195 H 0.17364 0.86295 0.47192 0.0
H196 H 0.20793 0.8736 0.4352 0.0
H197 H 0.39224 0.86504 0.41402 0.0
H198 H 0.41009 0.82522 0.39194 0.0
H199 H 0.25769 0.81664 0.37465 0.0
H200 H 0.24012 0.85689 0.39676 0.0
H201 H 0.23991 0.93951 0.43333 0.0
H202 H 0.28705 0.90046 0.37308 0.0
O203 O 0.35606 0.91161 0.42507 0.0
H204 H 0.19674 0.97291 0.4109 0.0
H205 H 0.24343 0.93341 0.35069 0.0
C206 C 0.27724 0.88781 0.44823 0.0
C207 C 0.30489 0.89227 0.46764 0.0
C208 C 0.28538 0.88649 0.4886 0.0
C209 C 0.23782 0.87586 0.49062 0.0
C210 C 0.21016 0.87139 0.47104 0.0
C211 C 0.22978 0.8773 0.45002 0.0
C212 C 0.31499 0.86417 0.40671 0.0
C213 C 0.36257 0.85456 0.4056 0.0
C214 C 0.3727 0.83165 0.39304 0.0
C215 C 0.33535 0.81784 0.38141 0.0
C216 C 0.28735 0.82707 0.38315 0.0
C217 C 0.27722 0.84994 0.39588 0.0
C218 C 0.26539 0.91695 0.40493 0.0
C219 C 0.24001 0.93772 0.41532 0.0
C220 C 0.21574 0.95692 0.4025 0.0
C221 C 0.21654 0.95566 0.37905 0.0
C222 C 0.24149 0.93461 0.36872 0.0
C223 C 0.26625 0.91567 0.38155 0.0
P224 P 0.36191 0.64838 0.90292 0.0
H225 H 0.39099 0.63407 0.85831 0.0
H226 H 0.40151 0.59128 0.83918 0.0
H227 H 0.35442 0.54885 0.89847 0.0
H228 H 0.34165 0.59199 0.9171 0.0
H229 H 0.35019 0.70573 0.8948 0.0
H230 H 0.28831 0.73155 0.87521 0.0
H231 H 0.20502 0.65832 0.86333 0.0
H232 H 0.26772 0.63253 0.88279 0.0
H233 H 0.41498 0.61889 0.93711 0.0
H234 H 0.29688 0.67504 0.93469 0.0
O235 O 0.41417 0.66498 0.89833 0.0
H236 H 0.41514 0.6211 0.97792 0.0
H237 H 0.29725 0.67753 0.97541 0.0
C238 C 0.3668 0.6162 0.88928 0.0
C239 C 0.38283 0.61553 0.86716 0.0
C240 C 0.38914 0.591 0.8563 0.0
C241 C 0.37981 0.56649 0.86739 0.0
C242 C 0.36198 0.56728 0.88938 0.0
C243 C 0.35518 0.59197 0.90018 0.0
C244 C 0.31396 0.6672 0.88986 0.0
C245 C 0.31858 0.69524 0.88802 0.0
C246 C 0.28294 0.71 0.87695 0.0
C247 C 0.24178 0.69699 0.86758 0.0
C248 C 0.23664 0.66889 0.87004 0.0
C249 C 0.27233 0.65414 0.88123 0.0
C250 C 0.35533 0.64636 0.93281 0.0
C251 C 0.38826 0.63116 0.94537 0.0
C252 C 0.38838 0.63247 0.96869 0.0
C253 C 0.35624 0.64952 0.97987 0.0
C254 C 0.32264 0.66434 0.96725 0.0
C255 C 0.32219 0.66276 0.94393 0.0
Tb256 Tb 0.05702 0.13621 0.24258 0.0
C257 C 0.86168 0.08999 0.27395 0.0
N258 N 0.87659 0.11599 0.2713 0.0
C259 C 0.80372 0.12546 0.25069 0.0
C260 C 0.8178 0.0804 0.26435 0.0
C261 C 0.84783 0.13396 0.26037 0.0
C262 C 0.78879 0.09852 0.25254 0.0
C263 C 0.87774 0.04569 0.28883 0.0
C264 C 0.89139 0.07294 0.28591 0.0
C265 C 0.83454 0.03578 0.27891 0.0
C266 C 0.80458 0.05312 0.26673 0.0
Tb267 Tb 0.94856 0.12801 0.28799 0.0
N268 N 0.93292 0.0833 0.2952 0.0
C269 C 0.90732 0.02938 0.30204 0.0
C270 C 0.95958 0.06795 0.30956 0.0
C271 C 0.94799 0.0407 0.31275 0.0
H272 H 0.85856 0.15491 0.25928 0.0
H273 H 0.96989 0.02859 0.32385 0.0
H274 H 0.14397 0.09351 0.25939 0.0
H275 H 0.07147 0.24088 0.22 0.0
H276 H 0.98879 0.07672 0.31928 0.0
H277 H 0.89815 0.00833 0.30471 0.0
H278 H 0.0333 0.19536 0.22092 0.0
H279 H 0.7812 0.1397 0.24188 0.0
H280 H 0.82363 0.01485 0.28084 0.0
H281 H 0.77119 0.04527 0.25933 0.0
H282 H 0.22368 0.09687 0.27806 0.0
H283 H 0.75474 0.09196 0.24494 0.0
H284 H 0.15038 0.24923 0.23922 0.0
N285 N 0.13372 0.13598 0.25809 0.0
C286 C 0.1562 0.16048 0.2599 0.0
C287 C 0.2047 0.11499 0.27343 0.0
C288 C 0.20295 0.16333 0.26953 0.0
C289 C 0.1587 0.1132 0.26334 0.0
C290 C 0.22654 0.14021 0.27696 0.0
N291 N 0.08901 0.17876 0.24117 0.0
C292 C 0.06743 0.19901 0.22951 0.0
C293 C 0.15685 0.208 0.25054 0.0
C294 C 0.13362 0.18252 0.25061 0.0
C295 C 0.13373 0.22932 0.23968 0.0
C296 C 0.08911 0.2247 0.22886 0.0
H297 H 0.26248 0.14152 0.28447 0.0
H298 H 0.26105 0.19159 0.27814 0.0
H299 H 0.22062 0.23075 0.26147 0.0
O300 O 0.03879 0.13739 0.20841 0.0
O301 O 0.04294 0.16865 0.26662 0.0
O302 O 0.01754 0.14696 0.29835 0.0
O303 O 0.11025 0.12628 0.21896 0.0
O304 O 0.98427 0.151 0.2342 0.0
O305 O 0.94794 0.16454 0.26723 0.0
O306 O 0.92603 0.1228 0.32113 0.0
O307 O 0.9419 0.11127 0.25401 0.0
O308 O 0.01856 0.09752 0.24518 0.0
O309 O 0.90664 0.15834 0.30297 0.0
O310 O 0.02101 0.11329 0.29755 0.0
O311 O 0.05979 0.10081 0.26485 0.0
C312 C 0.04206 0.16638 0.28842 0.0
C313 C 0.08031 0.10676 0.18575 0.0
C314 C 0.09382 0.09083 0.14768 0.0
C315 C 0.0795 0.06474 0.15449 0.0
C316 C 0.0668 0.08059 0.19218 0.0
C317 C 0.06602 0.05974 0.17657 0.0
C318 C 0.09372 0.11183 0.16353 0.0
C319 C 0.95512 0.16682 0.24549 0.0
C320 C 0.08096 0.12888 0.20206 0.0
C321 C 0.22536 0.18895 0.27059 0.0
C322 C 0.20242 0.21124 0.26104 0.0
C323 C 0.97113 0.09383 0.2449 0.0
C324 C 0.85475 0.14387 0.33268 0.0
C325 C 0.80914 0.14219 0.36763 0.0
C326 C 0.76579 0.13899 0.35523 0.0
C327 C 0.81115 0.14075 0.32062 0.0
C328 C 0.85349 0.14465 0.35611 0.0
C329 C 0.7669 0.13837 0.33189 0.0
C330 C 0.05319 0.09895 0.28663 0.0
C331 C 0.90249 0.14518 0.32167 0.0
H332 H 0.0798 0.04801 0.14291 0.0
H333 H 0.05731 0.07631 0.20929 0.0
H334 H 0.05551 0.03957 0.18167 0.0
H335 H 0.10392 0.13215 0.15864 0.0
H336 H 0.73101 0.13725 0.36355 0.0
H337 H 0.8112 0.14003 0.30261 0.0
H338 H 0.88738 0.14658 0.3654 0.0
H339 H 0.73332 0.13596 0.32251 0.0
Tb340 Tb 0.45367 0.35479 0.74666 0.0
C341 C 0.64565 0.40454 0.77854 0.0
N342 N 0.6352 0.37805 0.77529 0.0
C343 C 0.70915 0.3731 0.75475 0.0
C344 C 0.68711 0.41681 0.769 0.0
C345 C 0.66727 0.36192 0.76448 0.0
C346 C 0.7187 0.40077 0.75669 0.0
C347 C 0.62586 0.44619 0.79701 0.0
C348 C 0.61538 0.41893 0.79221 0.0
C349 C 0.66551 0.45911 0.78654 0.0
C350 C 0.69616 0.44441 0.77257 0.0
Tb351 Tb 0.56503 0.36184 0.7909 0.0
N352 N 0.57819 0.40548 0.80231 0.0
C353 C 0.59761 0.4592 0.81296 0.0
C354 C 0.55433 0.41723 0.81962 0.0
C355 C 0.56243 0.44445 0.82471 0.0
H356 H 0.65988 0.34057 0.76297 0.0
H357 H 0.5421 0.45389 0.83791 0.0
H358 H 0.37392 0.3995 0.76713 0.0
H359 H 0.42723 0.25004 0.72651 0.0
H360 H 0.52917 0.40559 0.82965 0.0
H361 H 0.60432 0.48017 0.81713 0.0
H362 H 0.46771 0.29496 0.72465 0.0
H363 H 0.73392 0.36042 0.74571 0.0
H364 H 0.67381 0.48015 0.78978 0.0
H365 H 0.72747 0.45438 0.76515 0.0
H366 H 0.29994 0.39781 0.78985 0.0
H367 H 0.75106 0.4094 0.7491 0.0
H368 H 0.35432 0.24336 0.75012 0.0
N369 N 0.38174 0.35678 0.76599 0.0
C370 C 0.35865 0.33271 0.76935 0.0
C371 C 0.3166 0.37928 0.78457 0.0
C372 C 0.31492 0.33083 0.78148 0.0
C373 C 0.35948 0.38009 0.7721 0.0
C374 C 0.29473 0.3545 0.7897 0.0
N375 N 0.41873 0.31294 0.74731 0.0
C376 C 0.43589 0.29208 0.73494 0.0
C377 C 0.35308 0.28496 0.76097 0.0
C378 C 0.3772 0.3101 0.75925 0.0
C379 C 0.37182 0.26304 0.74928 0.0
C380 C 0.41301 0.26672 0.73594 0.0
H381 H 0.26118 0.35395 0.7991 0.0
H382 H 0.25849 0.30369 0.79371 0.0
H383 H 0.29203 0.26347 0.77575 0.0
O384 O 0.46394 0.35203 0.71196 0.0
O385 O 0.4725 0.32243 0.77011 0.0
O386 O 0.49491 0.34513 0.80163 0.0
O387 O 0.39631 0.3655 0.72515 0.0
O388 O 0.52277 0.33746 0.73609 0.0
O389 O 0.56798 0.32699 0.76808 0.0
O390 O 0.60213 0.36405 0.82183 0.0
O391 O 0.57297 0.37656 0.75632 0.0
O392 O 0.49752 0.39196 0.74647 0.0
O393 O 0.59781 0.32703 0.80358 0.0
O394 O 0.49323 0.3778 0.80001 0.0
O395 O 0.45868 0.39178 0.76681 0.0
C396 C 0.47363 0.32442 0.79191 0.0
C397 C 0.42215 0.38436 0.69109 0.0
C398 C 0.41451 0.4 0.65256 0.0
C399 C 0.42479 0.42643 0.65991 0.0
C400 C 0.43225 0.41083 0.69805 0.0
C401 C 0.43363 0.43173 0.68249 0.0
C402 C 0.41335 0.37901 0.6684 0.0
C403 C 0.55688 0.32383 0.74666 0.0
C404 C 0.42179 0.36206 0.70723 0.0
C405 C 0.29183 0.30558 0.78424 0.0
C406 C 0.31083 0.28269 0.77395 0.0
C407 C 0.54522 0.39366 0.74564 0.0
C408 C 0.59487 0.32416 0.84313 0.0
C409 C 0.59768 0.32029 0.88393 0.0
C410 C 0.56574 0.29791 0.88252 0.0
C411 C 0.56325 0.30163 0.84227 0.0
C412 C 0.61218 0.33329 0.86404 0.0
C413 C 0.54878 0.2887 0.86185 0.0
C414 C 0.46645 0.39466 0.78842 0.0
C415 C 0.60973 0.33835 0.82245 0.0
H416 H 0.42542 0.4431 0.64825 0.0
H417 H 0.43899 0.41532 0.71549 0.0
H418 H 0.44145 0.45213 0.68795 0.0
H419 H 0.40637 0.35844 0.66309 0.0
H420 H 0.55445 0.28719 0.89741 0.0
H421 H 0.54961 0.29394 0.82649 0.0
H422 H 0.63637 0.35073 0.8648 0.0
H423 H 0.52444 0.27137 0.861 0.0
Tb424 Tb 0.05636 0.86444 0.73862 0.0
C425 C 0.82885 0.85091 0.76165 0.0
N426 N 0.86036 0.87173 0.76567 0.0
C427 C 0.79889 0.90325 0.75537 0.0
C428 C 0.78118 0.85543 0.75387 0.0
C429 C 0.84575 0.89773 0.76323 0.0
C430 C 0.76657 0.88201 0.7505 0.0
C431 C 0.81275 0.80274 0.76218 0.0
C432 C 0.8443 0.82496 0.76579 0.0
C433 C 0.7654 0.80705 0.75409 0.0
C434 C 0.74965 0.83334 0.74994 0.0
Tb435 Tb 0.93623 0.86011 0.77752 0.0
N436 N 0.89087 0.82155 0.77294 0.0
C437 C 0.82983 0.7769 0.76682 0.0
C438 C 0.907 0.79653 0.77852 0.0
C439 C 0.87699 0.77383 0.77522 0.0
H440 H 0.86991 0.91422 0.76774 0.0
H441 H 0.89022 0.75397 0.77921 0.0
H442 H 0.13987 0.83114 0.76684 0.0
H443 H 0.04287 0.97005 0.71645 0.0
H444 H 0.94311 0.79394 0.78523 0.0
H445 H 0.80676 0.75927 0.76422 0.0
H446 H 0.02412 0.92178 0.71282 0.0
H447 H 0.7876 0.92389 0.75328 0.0
H448 H 0.74062 0.79023 0.7511 0.0
H449 H 0.71292 0.83638 0.74387 0.0
H450 H 0.21369 0.84195 0.78909 0.0
H451 H 0.73023 0.88635 0.74452 0.0
H452 H 0.10951 0.98544 0.74156 0.0
N453 N 0.12536 0.87201 0.75916 0.0
C454 C 0.14058 0.89811 0.76085 0.0
C455 C 0.19333 0.85794 0.78131 0.0
C456 C 0.18227 0.90525 0.77347 0.0
C457 C 0.15141 0.85187 0.76881 0.0
C458 C 0.2087 0.88475 0.78376 0.0
N459 N 0.07253 0.90996 0.73875 0.0
C460 C 0.04988 0.92822 0.72536 0.0
C461 C 0.12685 0.9451 0.75239 0.0
C462 C 0.11276 0.91774 0.75067 0.0
C463 C 0.09991 0.96422 0.7407 0.0
C464 C 0.06197 0.95564 0.72669 0.0
H465 H 0.24093 0.8894 0.79363 0.0
H466 H 0.22723 0.93847 0.78557 0.0
H467 H 0.17896 0.97336 0.76697 0.0
O468 O 0.07534 0.87404 0.70546 0.0
O469 O 0.05635 0.87489 0.77441 0.0
O470 O 0.98391 0.89558 0.77854 0.0
O471 O 0.11422 0.84409 0.72359 0.0
O472 O 0.98671 0.87938 0.72537 0.0
O473 O 0.95 0.89553 0.75683 0.0
O474 O 0.95189 0.85197 0.81128 0.0
O475 O 0.9314 0.8362 0.74673 0.0
O476 O 1.0075 0.83076 0.73001 0.0
O477 O 0.88729 0.87311 0.80199 0.0
O478 O 0.99807 0.83435 0.78625 0.0
O479 O 0.04888 0.82586 0.75587 0.0
C480 C 0.0301 0.89365 0.78356 0.0
C481 C 0.10363 0.83726 0.6848 0.0
C482 C 0.11193 0.82965 0.64465 0.0
C483 C 0.09241 0.80352 0.64746 0.0
C484 C 0.08516 0.81092 0.68719 0.0
C485 C 0.07925 0.79426 0.66861 0.0
C486 C 0.11726 0.8465 0.6635 0.0
C487 C 0.95413 0.89463 0.73502 0.0
C488 C 0.10774 0.85537 0.70428 0.0
C489 C 0.19559 0.93253 0.77575 0.0
C490 C 0.16792 0.95241 0.76526 0.0
C491 C 0.96085 0.82472 0.73245 0.0
C492 C 0.92351 0.88442 0.8365 0.0
C493 C 0.92479 0.89527 0.87628 0.0
C494 C 0.94372 0.921 0.87112 0.0
C495 C 0.94135 0.91037 0.8317 0.0
C496 C 0.91483 0.877 0.85878 0.0
C497 C 0.95174 0.92848 0.84895 0.0
C498 C 0.03195 0.82037 0.77599 0.0
C499 C 0.91419 0.86489 0.81845 0.0
H500 H 0.08833 0.78998 0.63337 0.0
H501 H 0.07554 0.80325 0.70347 0.0
H502 H 0.06475 0.77401 0.67063 0.0
H503 H 0.13153 0.86684 0.66159 0.0
H504 H 0.95151 0.93551 0.88421 0.0
H505 H 0.947 0.91665 0.81463 0.0
H506 H 0.90094 0.85695 0.86251 0.0
H507 H 0.96581 0.94843 0.84513 0.0
Tb508 Tb 0.43937 0.63181 0.23998 0.0
C509 C 0.63876 0.67101 0.27092 0.0
N510 N 0.6239 0.64496 0.26869 0.0
C511 C 0.69609 0.63518 0.24809 0.0
C512 C 0.68204 0.68054 0.26099 0.0
C513 C 0.65248 0.62679 0.25805 0.0
C514 C 0.71066 0.66226 0.24932 0.0
C515 C 0.62458 0.71505 0.28654 0.0
C516 C 0.61023 0.68794 0.28331 0.0
C517 C 0.66667 0.72508 0.27597 0.0
C518 C 0.69538 0.70784 0.26321 0.0
Tb519 Tb 0.55139 0.63327 0.28475 0.0
N520 N 0.57001 0.67737 0.2933 0.0
C521 C 0.59718 0.73092 0.30091 0.0
C522 C 0.54628 0.69205 0.30903 0.0
C523 C 0.55847 0.71918 0.31259 0.0
H524 H 0.64132 0.60588 0.25706 0.0
H525 H 0.53857 0.73086 0.32464 0.0
H526 H 0.36612 0.68157 0.25652 0.0
H527 H 0.39123 0.52933 0.21918 0.0
H528 H 0.51861 0.68281 0.3193 0.0
H529 H 0.60692 0.75185 0.30387 0.0
H530 H 0.44063 0.57153 0.21748 0.0
H531 H 0.7183 0.62081 0.23939 0.0
H532 H 0.678 0.74593 0.27803 0.0
H533 H 0.7282 0.71569 0.25548 0.0
H534 H 0.2903 0.68535 0.27786 0.0
H535 H 0.74425 0.66875 0.24145 0.0
H536 H 0.31734 0.52724 0.24265 0.0
N537 N 0.36638 0.63864 0.25749 0.0
C538 C 0.33885 0.61613 0.26123 0.0
C539 C 0.304 0.66568 0.27368 0.0
C540 C 0.29399 0.61733 0.27245 0.0
C541 C 0.34773 0.66341 0.26203 0.0
C542 C 0.27753 0.64248 0.27938 0.0
N543 N 0.39568 0.5924 0.2402 0.0
C544 C 0.40833 0.57063 0.22767 0.0
C545 C 0.32438 0.56875 0.25345 0.0
C546 C 0.35355 0.59223 0.25187 0.0
C547 C 0.33881 0.5457 0.24192 0.0
C548 C 0.38048 0.54681 0.22862 0.0
H549 H 0.24328 0.64431 0.28808 0.0
H550 H 0.2317 0.5941 0.28416 0.0
H551 H 0.25842 0.55148 0.26751 0.0
O552 O 0.45477 0.63006 0.20563 0.0
O553 O 0.45042 0.59728 0.26248 0.0
O554 O 0.47891 0.61855 0.29357 0.0
O555 O 0.38608 0.64422 0.21698 0.0
O556 O 0.50522 0.61003 0.23065 0.0
O557 O 0.5494 0.59771 0.26261 0.0
O558 O 0.57979 0.63617 0.31733 0.0
O559 O 0.56052 0.64698 0.25009 0.0
O560 O 0.48843 0.66697 0.2413 0.0
O561 O 0.58328 0.59901 0.29928 0.0
O562 O 0.48086 0.65046 0.29406 0.0
O563 O 0.44839 0.66766 0.26151 0.0
C564 C 0.45809 0.59766 0.28409 0.0
C565 C 0.41678 0.66301 0.1838 0.0
C566 C 0.40926 0.67921 0.14548 0.0
C567 C 0.42064 0.70543 0.15296 0.0
C568 C 0.42834 0.68924 0.19095 0.0
C569 C 0.43037 0.71033 0.17554 0.0
C570 C 0.40766 0.65803 0.16108 0.0
C571 C 0.53691 0.59473 0.2413 0.0
C572 C 0.41375 0.64065 0.1998 0.0
C573 C 0.26599 0.59365 0.27534 0.0
C574 C 0.28114 0.56939 0.26582 0.0
C575 C 0.53593 0.66566 0.23967 0.0
C576 C 0.64337 0.60745 0.32749 0.0
C577 C 0.69442 0.60498 0.36107 0.0
C578 C 0.73498 0.60036 0.34744 0.0
C579 C 0.6842 0.60258 0.31426 0.0
C580 C 0.64868 0.60859 0.35084 0.0
C581 C 0.72978 0.59916 0.32423 0.0
C582 C 0.45431 0.66827 0.28335 0.0
C583 C 0.59473 0.61157 0.31767 0.0
H584 H 0.42257 0.72208 0.1413 0.0
H585 H 0.43548 0.6934 0.20842 0.0
H586 H 0.43938 0.73054 0.18113 0.0
H587 H 0.39848 0.63774 0.15562 0.0
H588 H 0.7706 0.59717 0.35472 0.0
H589 H 0.68097 0.60129 0.29632 0.0
H590 H 0.6171 0.61256 0.36102 0.0
H591 H 0.76118 0.59538 0.31393 0.0
H592 H 0.22465 0.01005 0.38439 0.0
H593 H 0.15706 0.94914 0.34265 0.0
H594 H 0.18906 0.04513 0.36134 0.0
H595 H 0.11986 0.98415 0.31993 0.0
H596 H 0.0938 0.05248 0.27143 0.0
H597 H 0.13585 0.0184 0.29329 0.0
H598 H 0.11451 0.0655 0.35304 0.0
H599 H 0.07516 0.10008 0.33097 0.0
C600 C 0.20158 0.0042 0.37043 0.0
C601 C 0.19343 0.97689 0.36537 0.0
C602 C 0.18108 0.0243 0.3572 0.0
C603 C 0.15141 0.01757 0.33873 0.0
C604 C 0.14319 0.99016 0.33374 0.0
C605 C 0.16421 0.97006 0.34683 0.0
C606 C 0.09897 0.05572 0.28917 0.0
C607 C 0.08123 0.07895 0.29949 0.0
C608 C 0.12246 0.03602 0.30178 0.0
C609 C 0.1284 0.03903 0.32502 0.0
C610 C 0.1113 0.06257 0.33519 0.0
C611 C 0.08832 0.08234 0.32256 0.0
H612 H 0.45583 0.55489 0.83993 0.0
H613 H 0.32734 0.51877 0.86949 0.0
H614 H 0.47188 0.51295 0.8206 0.0
H615 H 0.34443 0.47639 0.85043 0.0
H616 H 0.43306 0.39888 0.83115 0.0
H617 H 0.40913 0.44009 0.85051 0.0
H618 H 0.43257 0.48559 0.78998 0.0
H619 H 0.45659 0.44457 0.77079 0.0
C620 C 0.43066 0.53812 0.84217 0.0
C621 C 0.38991 0.54041 0.85612 0.0
C622 C 0.44001 0.51403 0.83111 0.0
C623 C 0.40916 0.49148 0.83384 0.0
C624 C 0.36894 0.49345 0.8481 0.0
C625 C 0.35928 0.5177 0.85905 0.0
C626 C 0.43259 0.41771 0.82202 0.0
C627 C 0.44713 0.41869 0.79959 0.0
C628 C 0.41873 0.44121 0.83303 0.0
C629 C 0.41948 0.46609 0.82181 0.0
C630 C 0.43231 0.46678 0.79914 0.0
C631 C 0.44567 0.44329 0.7881 0.0
H632 H 0.6929 0.48028 0.63918 0.0
H633 H 0.65221 0.5428 0.68524 0.0
H634 H 0.65459 0.44652 0.6632 0.0
H635 H 0.61473 0.50889 0.70954 0.0
H636 H 0.50832 0.44247 0.73438 0.0
H637 H 0.5445 0.47671 0.71003 0.0
H638 H 0.66938 0.42633 0.70036 0.0
H639 H 0.63234 0.3918 0.72412 0.0
C640 C 0.6754 0.48685 0.65434 0.0
C641 C 0.6755 0.51426 0.66026 0.0
C642 C 0.65396 0.46746 0.66824 0.0
C643 C 0.63184 0.475 0.68833 0.0
C644 C 0.63122 0.50245 0.6941 0.0
C645 C 0.65299 0.52184 0.68027 0.0
C646 C 0.54343 0.43871 0.72699 0.0
C647 C 0.56773 0.41455 0.73128 0.0
C648 C 0.56433 0.4584 0.7132 0.0
C649 C 0.60984 0.45426 0.70327 0.0
C650 C 0.63409 0.43005 0.70759 0.0
C651 C 0.61322 0.41042 0.72143 0.0
H652 H 0.94019 0.9659 0.14931 0.0
H653 H 0.80571 0.95881 0.18595 0.0
H654 H 0.96437 0.00475 0.17199 0.0
H655 H 0.83006 -0.00204 0.2087 0.0
H656 H 0.8814 0.08835 0.22498 0.0
H657 H 0.85039 0.04997 0.2031 0.0
H658 H 0.98565 0.00883 0.21412 0.0
H659 H 0.01559 0.04641 0.23683 0.0
C660 C 0.91546 0.97292 0.16199 0.0
C661 C 0.87102 0.95936 0.16584 0.0
C662 C 0.92951 0.99498 0.17509 0.0
C663 C 0.89919 0.00418 0.19216 0.0
C664 C 0.854 0.99125 0.1956 0.0
C665 C 0.84022 0.96886 0.18268 0.0
C666 C 0.90397 0.07084 0.22315 0.0
C667 C 0.95092 0.07038 0.23257 0.0
C668 C 0.88636 0.04899 0.21053 0.0
C669 C 0.91588 0.02662 0.20675 0.0
C670 C 0.96243 0.02601 0.21652 0.0
C671 C 0.97957 0.04754 0.22945 0.0
H672 H 0.8207 0.04012 0.68173 0.0
H673 H 0.92038 0.01243 0.63151 0.0
H674 H 0.83382 -0.00084 0.70316 0.0
H675 H 0.93537 0.97213 0.65348 0.0
H676 H 0.93164 0.89315 0.69057 0.0
H677 H 0.90275 0.93017 0.66732 0.0
H678 H 0.89863 0.98149 0.72551 0.0
H679 H 0.92676 0.94455 0.74858 0.0
C680 C 0.84497 0.02517 0.6751 0.0
C681 C 0.86969 0.02971 0.65492 0.0
C682 C 0.85297 0.0018 0.68755 0.0
C683 C 0.88599 0.98239 0.68019 0.0
C684 C 0.90937 0.98649 0.65961 0.0
C685 C 0.90126 0.00981 0.64713 0.0
C686 C 0.92371 0.91225 0.69838 0.0
C687 C 0.93096 0.91585 0.72142 0.0
C688 C 0.9075 0.93351 0.68507 0.0
C689 C 0.89844 0.95889 0.69451 0.0
C690 C 0.90432 0.96215 0.7177 0.0
C691 C 0.92037 0.9409 0.73098 0.0
H692 H 0.66567 0.44786 0.18848 0.0
H693 H 0.68098 0.50712 0.13609 0.0
H694 H 0.62552 0.48102 0.21184 0.0
H695 H 0.64272 0.54046 0.15971 0.0
H696 H 0.52497 0.58428 0.19682 0.0
H697 H 0.56357 0.55008 0.17456 0.0
H698 H 0.64227 0.52271 0.2327 0.0
H699 H 0.60247 0.55675 0.25538 0.0
C700 C 0.6603 0.46791 0.18191 0.0
C701 C 0.67641 0.47478 0.16036 0.0
C702 C 0.63788 0.48702 0.19542 0.0
C703 C 0.63088 0.51342 0.18767 0.0
C704 C 0.64699 0.52024 0.16613 0.0
C705 C 0.6694 0.50118 0.15265 0.0
C706 C 0.55037 0.57101 0.20502 0.0
C707 C 0.56064 0.57344 0.22798 0.0
C708 C 0.57281 0.55145 0.19213 0.0
C709 C 0.60633 0.53376 0.20177 0.0
C710 C 0.61633 0.5359 0.22478 0.0
C711 C 0.59374 0.55554 0.23776 0.0
H712 H 0.33759 0.44894 0.34049 0.0
H713 H 0.45532 0.47269 0.38475 0.0
H714 H 0.35087 0.48982 0.31856 0.0
H715 H 0.46957 0.5131 0.36246 0.0
H716 H 0.45319 0.59508 0.32952 0.0
H717 H 0.43304 0.55603 0.35253 0.0
H718 H 0.41314 0.50775 0.2931 0.0
H719 H 0.43354 0.54676 0.27014 0.0
C720 C 0.36602 0.463 0.34565 0.0
C721 C 0.39547 0.45754 0.36434 0.0
C722 C 0.37398 0.48626 0.33294 0.0
C723 C 0.41141 0.50465 0.3387 0.0
C724 C 0.44016 0.49947 0.35767 0.0
C725 C 0.43233 0.47618 0.37032 0.0
C726 C 0.44439 0.57615 0.32135 0.0
C727 C 0.44452 0.57409 0.29795 0.0
C728 C 0.43298 0.55375 0.33455 0.0
C729 C 0.42143 0.52877 0.32466 0.0
C730 C 0.42108 0.5268 0.30124 0.0
C731 C 0.43269 0.54918 0.28805 0.0
H732 H 0.10889 0.02408 0.87554 0.0
H733 H 0.24503 0.99265 0.85202 0.0
H734 H 0.06447 0.99121 0.85251 0.0
H735 H 0.20071 0.95985 0.82913 0.0
H736 H 0.10741 0.88598 0.81121 0.0
H737 H 0.14958 0.9194 0.83448 0.0
H738 H 0.04808 0.97981 0.81289 0.0
H739 H 1.00607 0.94625 0.78951 0.0
C740 C 0.12934 0.01034 0.86533 0.0
C741 C 0.18055 0.0109 0.86577 0.0
C742 C 0.10388 0.9915 0.85214 0.0
C743 C 0.12907 0.97279 0.83912 0.0
C744 C 0.18022 0.97361 0.83932 0.0
C745 C 0.20562 0.99242 0.85246 0.0
C746 C 0.09415 0.90641 0.81149 0.0
C747 C 0.05362 0.91359 0.79857 0.0
C748 C 0.11834 0.92556 0.82474 0.0
C749 C 0.10232 0.95231 0.82546 0.0
C750 C 0.06107 0.95933 0.81285 0.0
C751 C 0.03701 0.94015 0.7995 0.0
H752 H 0.13315 0.10294 1.00255 0.0
H753 H 0.27735 0.10391 0.03171 0.0
H754 H 0.09785 0.10401 0.03984 0.0
H755 H 0.24225 0.10367 0.06883 0.0
H756 H 0.16914 0.12333 0.13344 0.0
H757 H 0.19895 0.12938 0.09557 0.0
H758 H 0.08741 0.07436 0.07118 0.0
H759 H 0.05602 0.06943 0.1089 0.0
C760 C 0.15734 0.10359 0.01689 0.0
C761 C 0.20812 0.10314 0.01409 0.0
C762 C 0.13709 0.10388 0.03829 0.0
C763 C 0.16712 0.10377 0.05742 0.0
C764 C 0.2179 0.10405 0.05456 0.0
C765 C 0.23808 0.10382 0.03321 0.0
C766 C 0.15031 0.11294 0.11997 0.0
C767 C 0.11027 0.09577 0.12432 0.0
C768 C 0.16784 0.11614 0.09824 0.0
C769 C 0.14593 0.10218 0.08027 0.0
C770 C 0.10502 0.08562 0.08453 0.0
C771 C 0.08739 0.08249 0.10625 0.0
H772 H 0.35866 0.32586 0.52277 0.0
H773 H 0.37619 0.41068 0.50834 0.0
H774 H 0.3699 0.33514 0.56249 0.0
H775 H 0.38579 0.42005 0.54807 0.0
H776 H 0.46193 0.42158 0.6165 0.0
H777 H 0.44678 0.41261 0.57708 0.0
H778 H 0.33133 0.35657 0.59449 0.0
H779 H 0.34631 0.36564 0.634 0.0
C780 C 0.36465 0.3465 0.52808 0.0
C781 C 0.36668 0.3675 0.51234 0.0
C782 C 0.37062 0.35185 0.55087 0.0
C783 C 0.37898 0.37833 0.55847 0.0
C784 C 0.38006 0.39938 0.54277 0.0
C785 C 0.37393 0.39404 0.52 0.0
C786 C 0.43295 0.40755 0.61194 0.0
C787 C 0.4053 0.39437 0.62846 0.0
C788 C 0.42425 0.40242 0.58932 0.0
C789 C 0.38773 0.38393 0.5826 0.0
C790 C 0.36014 0.37068 0.59909 0.0
C791 C 0.36878 0.37586 0.62175 0.0
H792 H 0.64001 0.38455 0.0191 0.0
H793 H 0.76937 0.33935 1.00516 0.0
H794 H 0.60879 0.37426 0.98179 0.0
H795 H 0.73822 0.32908 0.96792 0.0
H796 H 0.69029 0.33689 0.89537 0.0
H797 H 0.72095 0.35001 0.93219 0.0
H798 H 0.57762 0.33686 0.95977 0.0
H799 H 0.54667 0.32473 0.92287 0.0
C800 C 0.66162 0.37222 1.00817 0.0
C801 C 0.70727 0.36283 0.01517 0.0
C802 C 0.64374 0.36635 0.98674 0.0
C803 C 0.67104 0.35092 0.97177 0.0
C804 C 0.7166 0.34145 0.97882 0.0
C805 C 0.73445 0.34731 1.00023 0.0
C806 C 0.66517 0.33719 0.90922 0.0
C807 C 0.61605 0.32963 0.90614 0.0
C808 C 0.68287 0.3444 0.93041 0.0
C809 C 0.65186 0.34433 0.94903 0.0
C810 C 0.60251 0.33734 0.94582 0.0
C811 C 0.58486 0.33009 0.92467 0.0
H812 H 0.815 0.18593 0.50873 0.0
H813 H 0.81964 0.099 0.50834 0.0
H814 H 0.80869 0.18605 0.46814 0.0
H815 H 0.81275 0.09917 0.46772 0.0
H816 H 0.75666 0.10952 0.39583 0.0
H817 H 0.75688 0.10985 0.43663 0.0
H818 H 0.86125 0.1758 0.43638 0.0
H819 H 0.86012 0.1759 0.39568 0.0
C820 C 0.8148 0.16683 0.50001 0.0
C821 C 0.81819 0.14246 0.51188 0.0
C822 C 0.81113 0.16691 0.47672 0.0
C823 C 0.81051 0.14263 0.46465 0.0
C824 C 0.81261 0.11822 0.47651 0.0
C825 C 0.81648 0.11813 0.49983 0.0
C826 C 0.77924 0.12427 0.4045 0.0
C827 C 0.8084 0.14268 0.39249 0.0
C828 C 0.77973 0.12428 0.42788 0.0
C829 C 0.8091 0.14284 0.43979 0.0
C830 C 0.83783 0.16142 0.42775 0.0
C831 C 0.83757 0.1613 0.40441 0.0
H832 H 0.80197 0.88022 1.00919 0.0
H833 H 0.94356 0.84403 0.01493 0.0
H834 H 0.81485 0.88655 0.96917 0.0
H835 H 0.95667 0.85102 0.9752 0.0
H836 H 0.98534 0.90247 0.9121 0.0
H837 H 0.96915 0.89193 0.95118 0.0
H838 H 0.82689 0.86055 0.93301 0.0
H839 H 0.84309 0.87126 0.89378 0.0
C840 C 0.83554 0.8733 1.00194 0.0
C841 C 0.87195 0.86191 0.01543 0.0
C842 C 0.84293 0.87699 0.979 0.0
C843 C 0.887 0.86954 0.96909 0.0
C844 C 0.92271 0.85742 0.98242 0.0
C845 C 0.9152 0.85352 1.00524 0.0
C846 C 0.95062 0.89331 0.91645 0.0
C847 C 0.91547 0.88772 0.89989 0.0
C848 C 0.94148 0.88709 0.9388 0.0
C849 C 0.89675 0.87538 0.94517 0.0
C850 C 0.86157 0.8697 0.92862 0.0
C851 C 0.87099 0.87562 0.90617 0.0
H852 H 0.70999 0.55901 0.50058 0.0
H853 H 0.76185 0.64156 0.50117 0.0
H854 H 0.69485 0.56207 0.46056 0.0
H855 H 0.74516 0.64492 0.46118 0.0
H856 H 0.76767 0.62842 0.38601 0.0
H857 H 0.77822 0.62759 0.42646 0.0
H858 H 0.64292 0.58284 0.4328 0.0
H859 H 0.63324 0.58286 0.39232 0.0
C860 C 0.71794 0.57787 0.49219 0.0
C861 C 0.73744 0.59998 0.5041 0.0
C862 C 0.70875 0.57972 0.46925 0.0
C863 C 0.71889 0.60372 0.45759 0.0
C864 C 0.73745 0.62603 0.46958 0.0
C865 C 0.7465 0.6242 0.49256 0.0
C866 C 0.74029 0.61828 0.39602 0.0
C867 C 0.69972 0.60559 0.38586 0.0
C868 C 0.74604 0.61809 0.41925 0.0
C869 C 0.71145 0.60512 0.43293 0.0
C870 C 0.67054 0.59276 0.42278 0.0
C871 C 0.66472 0.59302 0.39956 0.0
H872 H 0.35783 0.69674 1.00306 0.0
H873 H 0.36418 0.61065 0.0121 0.0
H874 H 0.36915 0.70332 0.043 0.0
H875 H 0.37391 0.61704 0.0523 0.0
H876 H 0.44566 0.63944 0.11917 0.0
H877 H 0.43078 0.63181 0.07948 0.0
H878 H 0.33298 0.6992 0.07821 0.0
H879 H 0.34946 0.70726 0.11769 0.0
C880 C 0.36075 0.67918 0.01369 0.0
C881 C 0.36003 0.65318 1.00445 0.0
C882 C 0.36714 0.68293 0.03665 0.0
C883 C 0.37247 0.66074 0.05104 0.0
C884 C 0.37086 0.63466 0.04177 0.0
C885 C 0.36501 0.63095 0.01874 0.0
C886 C 0.42082 0.6525 0.11037 0.0
C887 C 0.39894 0.67403 0.12148 0.0
C888 C 0.41204 0.64808 0.08762 0.0
C889 C 0.38068 0.6649 0.07548 0.0
C890 C 0.35813 0.68615 0.0868 0.0
C891 C 0.3674 0.69075 0.10947 0.0
H892 H 0.1448 0.88344 0.50589 0.0
H893 H 0.28504 0.85355 0.52636 0.0
H894 H 0.11283 0.87374 0.54305 0.0
H895 H 0.25329 0.8443 0.56345 0.0
H896 H 0.1959 0.85675 0.6337 0.0
H897 H 0.22471 0.86897 0.59652 0.0
H898 H 0.09349 0.83471 0.56746 0.0
H899 H 0.06423 0.823 0.6047 0.0
C900 C 0.16873 0.87463 0.51822 0.0
C901 C 0.21763 0.86943 0.5131 0.0
C902 C 0.15043 0.86915 0.53954 0.0
C903 C 0.18063 0.85846 0.55628 0.0
C904 C 0.22932 0.85305 0.55109 0.0
C905 C 0.24753 0.85838 0.52979 0.0
C906 C 0.17289 0.8522 0.61941 0.0
C907 C 0.12787 0.83882 0.62215 0.0
C908 C 0.18962 0.85893 0.59808 0.0
C909 C 0.16157 0.85262 0.57901 0.0
C910 C 0.11588 0.83997 0.5818 0.0
C911 C 0.09931 0.83306 0.60312 0.0
H912 H 0.1741 0.30874 0.35151 0.0
H913 H 0.252 0.24143 0.37881 0.0
H914 H 0.12084 0.27781 0.33077 0.0
H915 H 0.20036 0.21041 0.35743 0.0
H916 H 0.07574 0.15925 0.33086 0.0
H917 H 0.1226 0.19093 0.35373 0.0
H918 H 0.1195 0.24896 0.2999 0.0
H919 H 0.06915 0.21798 0.27793 0.0
C920 C 0.17983 0.28727 0.353 0.0
C921 C 0.21704 0.27746 0.3668 0.0
C922 C 0.14957 0.26951 0.34099 0.0
C923 C 0.15628 0.24149 0.34225 0.0
C924 C 0.19335 0.23175 0.35629 0.0
C925 C 0.22312 0.24952 0.36854 0.0
C926 C 0.08468 0.1789 0.32403 0.0
C927 C 0.06967 0.18595 0.30238 0.0
C928 C 0.1121 0.197 0.33705 0.0
C929 C 0.12549 0.22254 0.32867 0.0
C930 C 0.10965 0.22965 0.30709 0.0
C931 C 0.08156 0.21169 0.29425 0.0
H932 H 0.41349 0.16906 0.85288 0.0
H933 H 0.30998 0.22127 0.88419 0.0
H934 H 0.4466 0.20702 0.83196 0.0
H935 H 0.34236 0.25943 0.86276 0.0
H936 H 0.44356 0.32635 0.83534 0.0
H937 H 0.41162 0.2892 0.85802 0.0
H938 H 0.42593 0.23538 0.80181 0.0
H939 H 0.46041 0.27201 0.77985 0.0
C940 C 0.39743 0.18866 0.85509 0.0
C941 C 0.35877 0.19211 0.87 0.0
C942 C 0.41635 0.21046 0.84305 0.0
C943 C 0.39686 0.23632 0.84543 0.0
C944 C 0.35861 0.23988 0.86064 0.0
C945 C 0.33991 0.21802 0.87287 0.0
C946 C 0.43996 0.30652 0.82792 0.0
C947 C 0.45387 0.30215 0.80571 0.0
C948 C 0.42124 0.28528 0.84084 0.0
C949 C 0.41606 0.25921 0.83178 0.0
C950 C 0.42998 0.25502 0.80951 0.0
C951 C 0.44903 0.27615 0.79674 0.0
H952 H 0.71103 0.18447 0.69515 0.0
H953 H 0.7262 0.24541 0.64409 0.0
H954 H 0.66376 0.21542 0.71768 0.0
H955 H 0.67883 0.27624 0.66655 0.0
H956 H 0.55044 0.31411 0.70177 0.0
H957 H 0.5963 0.28231 0.67979 0.0
H958 H 0.67341 0.25727 0.73911 0.0
H959 H 0.62674 0.28882 0.76134 0.0
C960 C 0.70451 0.2045 0.68877 0.0
C961 C 0.72239 0.2124 0.66776 0.0
C962 C 0.67744 0.22225 0.7017 0.0
C963 C 0.66747 0.24832 0.69394 0.0
C964 C 0.68516 0.25617 0.6729 0.0
C965 C 0.71227 0.23845 0.65998 0.0
C966 C 0.57704 0.30183 0.71024 0.0
C967 C 0.58486 0.30415 0.7334 0.0
C968 C 0.60361 0.28368 0.69755 0.0
C969 C 0.63871 0.2673 0.70764 0.0
C970 C 0.64631 0.2694 0.73083 0.0
C971 C 0.61973 0.28763 0.74356 0.0
H972 H 0.79489 0.2646 0.14939 0.0
H973 H 0.87758 0.32066 0.19044 0.0
H974 H 0.8233 0.22742 0.17247 0.0
H975 H 0.90478 0.28358 0.21371 0.0
H976 H 0.91177 0.21205 0.26187 0.0
H977 H 0.87419 0.24829 0.24045 0.0
H978 H 0.90353 0.20578 0.17925 0.0
H979 H 0.94073 0.16967 0.2005 0.0
C980 C 0.81905 0.26905 0.1633 0.0
C981 C 0.83393 0.29572 0.16797 0.0
C982 C 0.83516 0.24774 0.17657 0.0
C983 C 0.86621 0.25259 0.19492 0.0
C984 C 0.88026 0.27924 0.1999 0.0
C985 C 0.86453 0.30051 0.18654 0.0
C986 C 0.90976 0.21034 0.24387 0.0
C987 C 0.92947 0.18805 0.23289 0.0
C988 C 0.88849 0.23115 0.2316 0.0
C989 C 0.88597 0.22989 0.20816 0.0
C990 C 0.90447 0.20723 0.19729 0.0
C991 C 0.92612 0.18662 0.20949 0.0
H992 H 0.7941 0.69044 0.6747 0.0
H993 H 0.9126 0.70568 0.629 0.0
H994 H 0.82106 0.72893 0.69727 0.0
H995 H 0.94027 0.74335 0.65206 0.0
H996 H 1.00814 0.78137 0.7159 0.0
H997 H 0.97588 0.74587 0.69169 0.0
H998 H 0.83328 0.78086 0.69496 0.0
H999 H 0.86641 0.81743 0.71825 0.0
C1000 C 0.82543 0.70213 0.66925 0.0
C1001 C 0.8514 0.69465 0.65007 0.0
C1002 C 0.84094 0.72412 0.68227 0.0
C1003 C 0.88304 0.73892 0.67654 0.0
C1004 C 0.90815 0.732 0.65708 0.0
C1005 C 0.89235 0.7103 0.64393 0.0
C1006 C 0.97033 0.78201 0.71091 0.0
C1007 C 0.94027 0.80266 0.71847 0.0
C1008 C 0.95168 0.76148 0.69726 0.0
C1009 C 0.90219 0.76077 0.69123 0.0
C1010 C 0.87159 0.78092 0.69935 0.0
C1011 C 0.89054 0.80178 0.71272 0.0
H1012 H 0.63831 0.78875 0.14479 0.0
H1013 H 0.76592 0.75818 0.17806 0.0
H1014 H 0.58693 0.75794 0.16666 0.0
H1015 H 0.715 0.72783 0.19993 0.0
H1016 H 0.61964 0.6564 0.21735 0.0
H1017 H 0.66647 0.68767 0.19444 0.0
H1018 H 0.55807 0.74852 0.20461 0.0
H1019 H 0.51107 0.7169 0.22771 0.0
C1020 C 0.65534 0.77558 0.15683 0.0
C1021 C 0.70626 0.77564 0.15944 0.0
C1022 C 0.62593 0.75798 0.1694 0.0
C1023 C 0.64687 0.74017 0.18487 0.0
C1024 C 0.6977 0.74074 0.18776 0.0
C1025 C 0.72694 0.75817 0.1752 0.0
C1026 C 0.60599 0.67651 0.21484 0.0
C1027 C 0.5622 0.68438 0.22464 0.0
C1028 C 0.6328 0.69446 0.20169 0.0
C1029 C 0.61642 0.72077 0.1979 0.0
C1030 C 0.57165 0.72838 0.2071 0.0
C1031 C 0.54476 0.71032 0.22034 0.0
H1032 H 0.3011 0.80636 0.33935 0.0
H1033 H 0.39648 0.77648 0.39097 0.0
H1034 H 0.32423 0.76915 0.31506 0.0
H1035 H 0.42058 0.73989 0.36657 0.0
H1036 H 0.42242 0.66373 0.326 0.0
H1037 H 0.38847 0.69877 0.34945 0.0
H1038 H 0.39702 0.75478 0.29437 0.0
H1039 H 0.43072 0.71944 0.2708 0.0
C1040 C 0.32663 0.79171 0.34559 0.0
C1041 C 0.34702 0.79439 0.36708 0.0
C1042 C 0.34026 0.77059 0.33159 0.0
C1043 C 0.37428 0.75158 0.33886 0.0
C1044 C 0.39388 0.754 0.36052 0.0
C1045 C 0.38044 0.77513 0.37444 0.0
C1046 C 0.41672 0.6835 0.31887 0.0
C1047 C 0.42955 0.68898 0.29665 0.0
C1048 C 0.39746 0.70359 0.33231 0.0
C1049 C 0.39053 0.72965 0.32386 0.0
C1050 C 0.40158 0.73485 0.30134 0.0
C1051 C 0.42094 0.71468 0.28785 0.0
H1052 H 0.20477 0.74623 0.87799 0.0
H1053 H 0.1966 0.6835 0.82812 0.0
H1054 H 0.15027 0.77366 0.85566 0.0
H1055 H 0.14057 0.71063 0.80607 0.0
H1056 H 0.09777 0.78336 0.76126 0.0
H1057 H 0.1443 0.7518 0.78372 0.0
H1058 H 0.06678 0.77654 0.84256 0.0
H1059 H 0.02114 0.80851 0.82034 0.0
C1060 C 0.19108 0.73821 0.86232 0.0
C1061 C 0.2053 0.71272 0.8548 0.0
C1062 C 0.15936 0.75382 0.84961 0.0
C1063 C 0.14102 0.74436 0.82904 0.0
C1064 C 0.1544 0.71862 0.82173 0.0
C1065 C 0.18608 0.70295 0.83448 0.0
C1066 C 0.09036 0.78196 0.77896 0.0
C1067 C 0.05611 0.79882 0.78898 0.0
C1068 C 0.11686 0.76371 0.79182 0.0
C1069 C 0.10964 0.76183 0.815 0.0
C1070 C 0.07389 0.77783 0.82483 0.0
C1071 C 0.04742 0.79605 0.812 0.0
loop_
_geom_bond_atom_site_label_1
_geom_bond_atom_site_label_2
_geom_bond_distance
_geom_bond_site_symmetry_2
_ccdc_geom_bond_type
P0 O11 1.490 . S
P0 C14 1.812 . S
P0 C20 1.803 . S
P0 C26 1.819 . S
H1 C15 0.941 . S
H2 C16 0.939 . S
H3 C18 0.940 . S
H4 C19 0.940 . S
H5 C21 0.939 . S
H6 C22 0.942 . S
H7 C24 0.940 . S
H8 C25 0.939 . S
H9 C27 0.941 . S
H10 C31 0.939 . S
O11 P0 1.490 . S
H12 C28 0.939 . S
H13 C30 0.940 . S
C14 P0 1.812 . S
C14 C15 1.389 . S
C14 C19 1.391 . S
C15 H1 0.941 . S
C15 C14 1.389 . S
C15 C16 1.397 . S
C16 H2 0.939 . S
C16 C15 1.397 . S
C16 C17 1.378 . S
C17 C16 1.378 . S
C17 C18 1.378 . S
C18 H3 0.940 . S
C18 C17 1.378 . S
C18 C19 1.396 . S
C19 H4 0.940 . S
C19 C14 1.391 . S
C19 C18 1.396 . S
C20 P0 1.803 . S
C20 C21 1.378 . S
C20 C25 1.400 . S
C21 H5 0.939 . S
C21 C20 1.378 . S
C21 C22 1.361 . S
C22 H6 0.942 . S
C22 C21 1.361 . S
C22 C23 1.369 . S
C23 C22 1.369 . S
C23 C24 1.404 . S
C24 H7 0.940 . S
C24 C23 1.404 . S
C24 C25 1.389 . S
C25 H8 0.939 . S
C25 C20 1.400 . S
C25 C24 1.389 . S
C26 P0 1.819 . S
C26 C27 1.391 . S
C26 C31 1.391 . S
C27 H9 0.941 . S
C27 C26 1.391 . S
C27 C28 1.396 . S
C28 H12 0.939 . S
C28 C27 1.396 . S
C28 C29 1.397 . S
C29 C28 1.397 . S
C29 C30 1.385 . S
C30 H13 0.940 . S
C30 C29 1.385 . S
C30 C31 1.388 . S
C31 H10 0.939 . S
C31 C26 1.391 . S
C31 C30 1.388 . S
P32 O43 1.490 . S
P32 C46 1.812 . S
P32 C52 1.803 . S
P32 C58 1.819 . S
H33 C47 0.941 . S
H34 C48 0.939 . S
H35 C50 0.940 . S
H36 C51 0.940 . S
H37 C53 0.939 . S
H38 C54 0.942 . S
H39 C56 0.940 . S
H40 C57 0.939 . S
H41 C59 0.941 . S
H42 C63 0.939 . S
O43 P32 1.490 . S
H44 C60 0.939 . S
H45 C62 0.940 . S
C46 P32 1.812 . S
C46 C47 1.389 . S
C46 C51 1.391 . S
C47 H33 0.941 . S
C47 C46 1.389 . S
C47 C48 1.397 . S
C48 H34 0.939 . S
C48 C47 1.397 . S
C48 C49 1.378 . S
C49 C48 1.378 . S
C49 C50 1.378 . S
C50 H35 0.940 . S
C50 C49 1.378 . S
C50 C51 1.396 . S
C51 H36 0.940 . S
C51 C46 1.391 . S
C51 C50 1.396 . S
C52 P32 1.803 . S
C52 C53 1.378 . S
C52 C57 1.400 . S
C53 H37 0.939 . S
C53 C52 1.378 . S
C53 C54 1.361 . S
C54 H38 0.942 . S
C54 C53 1.361 . S
C54 C55 1.369 . S
C55 C54 1.369 . S
C55 C56 1.404 . S
C56 H39 0.940 . S
C56 C55 1.404 . S
C56 C57 1.389 . S
C57 H40 0.939 . S
C57 C52 1.400 . S
C57 C56 1.389 . S
C58 P32 1.819 . S
C58 C59 1.391 . S
C58 C63 1.391 . S
C59 H41 0.941 . S
C59 C58 1.391 . S
C59 C60 1.396 . S
C60 H44 0.939 . S
C60 C59 1.396 . S
C60 C61 1.397 . S
C61 C60 1.397 . S
C61 C62 1.385 . S
C62 H45 0.940 . S
C62 C61 1.385 . S
C62 C63 1.388 . S
C63 H42 0.939 . S
C63 C58 1.391 . S
C63 C62 1.388 . S
P64 O75 1.490 . S
P64 C78 1.812 . S
P64 C84 1.803 . S
P64 C90 1.819 . S
H65 C79 0.941 . S
H66 C80 0.939 . S
H67 C82 0.940 . S
H68 C83 0.940 . S
H69 C85 0.939 . S
H70 C86 0.942 . S
H71 C88 0.940 . S
H72 C89 0.939 . S
H73 C91 0.941 . S
H74 C95 0.939 . S
O75 P64 1.490 . S
H76 C92 0.939 . S
H77 C94 0.940 . S
C78 P64 1.812 . S
C78 C79 1.389 . S
C78 C83 1.391 . S
C79 H65 0.941 . S
C79 C78 1.389 . S
C79 C80 1.397 . S
C80 H66 0.939 . S
C80 C79 1.397 . S
C80 C81 1.378 . S
C81 C80 1.378 . S
C81 C82 1.378 . S
C82 H67 0.940 . S
C82 C81 1.378 . S
C82 C83 1.396 . S
C83 H68 0.940 . S
C83 C78 1.391 . S
C83 C82 1.396 . S
C84 P64 1.803 . S
C84 C85 1.378 . S
C84 C89 1.400 . S
C85 H69 0.939 . S
C85 C84 1.378 . S
C85 C86 1.361 . S
C86 H70 0.942 . S
C86 C85 1.361 . S
C86 C87 1.369 . S
C87 C86 1.369 . S
C87 C88 1.404 . S
C88 H71 0.940 . S
C88 C87 1.404 . S
C88 C89 1.389 . S
C89 H72 0.939 . S
C89 C84 1.400 . S
C89 C88 1.389 . S
C90 P64 1.819 . S
C90 C91 1.391 . S
C90 C95 1.391 . S
C91 H73 0.941 . S
C91 C90 1.391 . S
C91 C92 1.396 . S
C92 H76 0.939 . S
C92 C91 1.396 . S
C92 C93 1.397 . S
C93 C92 1.397 . S
C93 C94 1.385 . S
C94 H77 0.940 . S
C94 C93 1.385 . S
C94 C95 1.388 . S
C95 H74 0.939 . S
C95 C90 1.391 . S
C95 C94 1.388 . S
P96 O107 1.490 . S
P96 C110 1.812 . S
P96 C116 1.803 . S
P96 C122 1.819 . S
H97 C111 0.941 . S
H98 C112 0.939 . S
H99 C114 0.940 . S
H100 C115 0.940 . S
H101 C117 0.939 . S
H102 C118 0.942 . S
H103 C120 0.940 . S
H104 C121 0.939 . S
H105 C123 0.941 . S
H106 C127 0.939 . S
O107 P96 1.490 . S
H108 C124 0.939 . S
H109 C126 0.940 . S
C110 P96 1.812 . S
C110 C111 1.389 . S
C110 C115 1.391 . S
C111 H97 0.941 . S
C111 C110 1.389 . S
C111 C112 1.397 . S
C112 H98 0.939 . S
C112 C111 1.397 . S
C112 C113 1.378 . S
C113 C112 1.378 . S
C113 C114 1.378 . S
C114 H99 0.940 . S
C114 C113 1.378 . S
C114 C115 1.396 . S
C115 H100 0.940 . S
C115 C110 1.391 . S
C115 C114 1.396 . S
C116 P96 1.803 . S
C116 C117 1.378 . S
C116 C121 1.400 . S
C117 H101 0.939 . S
C117 C116 1.378 . S
C117 C118 1.361 . S
C118 H102 0.942 . S
C118 C117 1.361 . S
C118 C119 1.369 . S
C119 C118 1.369 . S
C119 C120 1.404 . S
C120 H103 0.940 . S
C120 C119 1.404 . S
C120 C121 1.389 . S
C121 H104 0.939 . S
C121 C116 1.400 . S
C121 C120 1.389 . S
C122 P96 1.819 . S
C122 C123 1.391 . S
C122 C127 1.391 . S
C123 H105 0.941 . S
C123 C122 1.391 . S
C123 C124 1.396 . S
C124 H108 0.939 . S
C124 C123 1.396 . S
C124 C125 1.397 . S
C125 C124 1.397 . S
C125 C126 1.385 . S
C126 H109 0.940 . S
C126 C125 1.385 . S
C126 C127 1.388 . S
C127 H106 0.939 . S
C127 C122 1.391 . S
C127 C126 1.388 . S
P128 O139 1.490 . S
P128 C142 1.812 . S
P128 C148 1.803 . S
P128 C154 1.819 . S
H129 C143 0.941 . S
H130 C144 0.939 . S
H131 C146 0.940 . S
H132 C147 0.940 . S
H133 C149 0.939 . S
H134 C150 0.942 . S
H135 C152 0.940 . S
H136 C153 0.939 . S
H137 C155 0.941 . S
H138 C159 0.939 . S
O139 P128 1.490 . S
H140 C156 0.939 . S
H141 C158 0.940 . S
C142 P128 1.812 . S
C142 C143 1.389 . S
C142 C147 1.391 . S
C143 H129 0.941 . S
C143 C142 1.389 . S
C143 C144 1.397 . S
C144 H130 0.939 . S
C144 C143 1.397 . S
C144 C145 1.378 . S
C145 C144 1.378 . S
C145 C146 1.378 . S
C146 H131 0.940 . S
C146 C145 1.378 . S
C146 C147 1.396 . S
C147 H132 0.940 . S
C147 C142 1.391 . S
C147 C146 1.396 . S
C148 P128 1.803 . S
C148 C149 1.378 . S
C148 C153 1.400 . S
C149 H133 0.939 . S
C149 C148 1.378 . S
C149 C150 1.361 . S
C150 H134 0.942 . S
C150 C149 1.361 . S
C150 C151 1.369 . S
C151 C150 1.369 . S
C151 C152 1.404 . S
C152 H135 0.940 . S
C152 C151 1.404 . S
C152 C153 1.389 . S
C153 H136 0.939 . S
C153 C148 1.400 . S
C153 C152 1.389 . S
C154 P128 1.819 . S
C154 C155 1.391 . S
C154 C159 1.391 . S
C155 H137 0.941 . S
C155 C154 1.391 . S
C155 C156 1.396 . S
C156 H140 0.939 . S
C156 C155 1.396 . S
C156 C157 1.397 . S
C157 C156 1.397 . S
C157 C158 1.385 . S
C158 H141 0.940 . S
C158 C157 1.385 . S
C158 C159 1.388 . S
C159 H138 0.939 . S
C159 C154 1.391 . S
C159 C158 1.388 . S
P160 O171 1.490 . S
P160 C174 1.812 . S
P160 C180 1.803 . S
P160 C186 1.819 . S
H161 C175 0.941 . S
H162 C176 0.939 . S
H163 C178 0.940 . S
H164 C179 0.940 . S
H165 C181 0.939 . S
H166 C182 0.942 . S
H167 C184 0.940 . S
H168 C185 0.939 . S
H169 C187 0.941 . S
H170 C191 0.939 . S
O171 P160 1.490 . S
H172 C188 0.939 . S
H173 C190 0.940 . S
C174 P160 1.812 . S
C174 C175 1.389 . S
C174 C179 1.391 . S
C175 H161 0.941 . S
C175 C174 1.389 . S
C175 C176 1.397 . S
C176 H162 0.939 . S
C176 C175 1.397 . S
C176 C177 1.378 . S
C177 C176 1.378 . S
C177 C178 1.378 . S
C178 H163 0.940 . S
C178 C177 1.378 . S
C178 C179 1.396 . S
C179 H164 0.940 . S
C179 C174 1.391 . S
C179 C178 1.396 . S
C180 P160 1.803 . S
C180 C181 1.378 . S
C180 C185 1.400 . S
C181 H165 0.939 . S
C181 C180 1.378 . S
C181 C182 1.361 . S
C182 H166 0.942 . S
C182 C181 1.361 . S
C182 C183 1.369 . S
C183 C182 1.369 . S
C183 C184 1.404 . S
C184 H167 0.940 . S
C184 C183 1.404 . S
C184 C185 1.389 . S
C185 H168 0.939 . S
C185 C180 1.400 . S
C185 C184 1.389 . S
C186 P160 1.819 . S
C186 C187 1.391 . S
C186 C191 1.391 . S
C187 H169 0.941 . S
C187 C186 1.391 . S
C187 C188 1.396 . S
C188 H172 0.939 . S
C188 C187 1.396 . S
C188 C189 1.397 . S
C189 C188 1.397 . S
C189 C190 1.385 . S
C190 H173 0.940 . S
C190 C189 1.385 . S
C190 C191 1.388 . S
C191 H170 0.939 . S
C191 C186 1.391 . S
C191 C190 1.388 . S
P192 O203 1.490 . S
P192 C206 1.812 . S
P192 C212 1.803 . S
P192 C218 1.819 . S
H193 C207 0.941 . S
H194 C208 0.939 . S
H195 C210 0.940 . S
H196 C211 0.940 . S
H197 C213 0.939 . S
H198 C214 0.942 . S
H199 C216 0.940 . S
H200 C217 0.939 . S
H201 C219 0.941 . S
H202 C223 0.939 . S
O203 P192 1.490 . S
H204 C220 0.939 . S
H205 C222 0.940 . S
C206 P192 1.812 . S
C206 C207 1.389 . S
C206 C211 1.391 . S
C207 H193 0.941 . S
C207 C206 1.389 . S
C207 C208 1.397 . S
C208 H194 0.939 . S
C208 C207 1.397 . S
C208 C209 1.378 . S
C209 C208 1.378 . S
C209 C210 1.378 . S
C210 H195 0.940 . S
C210 C209 1.378 . S
C210 C211 1.396 . S
C211 H196 0.940 . S
C211 C206 1.391 . S
C211 C210 1.396 . S
C212 P192 1.803 . S
C212 C213 1.378 . S
C212 C217 1.400 . S
C213 H197 0.939 . S
C213 C212 1.378 . S
C213 C214 1.361 . S
C214 H198 0.942 . S
C214 C213 1.361 . S
C214 C215 1.369 . S
C215 C214 1.369 . S
C215 C216 1.404 . S
C216 H199 0.940 . S
C216 C215 1.404 . S
C216 C217 1.389 . S
C217 H200 0.939 . S
C217 C212 1.400 . S
C217 C216 1.389 . S
C218 P192 1.819 . S
C218 C219 1.391 . S
C218 C223 1.391 . S
C219 H201 0.941 . S
C219 C218 1.391 . S
C219 C220 1.396 . S
C220 H204 0.939 . S
C220 C219 1.396 . S
C220 C221 1.397 . S
C221 C220 1.397 . S
C221 C222 1.385 . S
C222 H205 0.940 . S
C222 C221 1.385 . S
C222 C223 1.388 . S
C223 H202 0.939 . S
C223 C218 1.391 . S
C223 C222 1.388 . S
P224 O235 1.490 . S
P224 C238 1.812 . S
P224 C244 1.803 . S
P224 C250 1.819 . S
H225 C239 0.941 . S
H226 C240 0.939 . S
H227 C242 0.940 . S
H228 C243 0.940 . S
H229 C245 0.939 . S
H230 C246 0.942 . S
H231 C248 0.940 . S
H232 C249 0.939 . S
H233 C251 0.941 . S
H234 C255 0.939 . S
O235 P224 1.490 . S
H236 C252 0.939 . S
H237 C254 0.940 . S
C238 P224 1.812 . S
C238 C239 1.389 . S
C238 C243 1.391 . S
C239 H225 0.941 . S
C239 C238 1.389 . S
C239 C240 1.397 . S
C240 H226 0.939 . S
C240 C239 1.397 . S
C240 C241 1.378 . S
C241 C240 1.378 . S
C241 C242 1.378 . S
C242 H227 0.940 . S
C242 C241 1.378 . S
C242 C243 1.396 . S
C243 H228 0.940 . S
C243 C238 1.391 . S
C243 C242 1.396 . S
C244 P224 1.803 . S
C244 C245 1.378 . S
C244 C249 1.400 . S
C245 H229 0.939 . S
C245 C244 1.378 . S
C245 C246 1.361 . S
C246 H230 0.942 . S
C246 C245 1.361 . S
C246 C247 1.369 . S
C247 C246 1.369 . S
C247 C248 1.404 . S
C248 H231 0.940 . S
C248 C247 1.404 . S
C248 C249 1.389 . S
C249 H232 0.939 . S
C249 C244 1.400 . S
C249 C248 1.389 . S
C250 P224 1.819 . S
C250 C251 1.391 . S
C250 C255 1.391 . S
C251 H233 0.941 . S
C251 C250 1.391 . S
C251 C252 1.396 . S
C252 H236 0.939 . S
C252 C251 1.396 . S
C252 C253 1.397 . S
C253 C252 1.397 . S
C253 C254 1.385 . S
C254 H237 0.940 . S
C254 C253 1.385 . S
C254 C255 1.388 . S
C255 H234 0.939 . S
C255 C250 1.391 . S
C255 C254 1.388 . S
Tb256 N285 2.617 . S
Tb256 N291 2.572 . S
Tb256 O300 2.465 . S
Tb256 O301 2.387 . S
Tb256 O303 2.428 . S
Tb256 O304 2.308 . S
Tb256 O308 2.349 . S
Tb256 O311 2.393 . S
Tb256 C320 2.802 . S
C257 N258 1.379 . S
C257 C260 1.416 . S
C257 C264 1.424 . S
N258 C257 1.379 . S
N258 C261 1.334 . S
N258 Tb267 2.617 . S
C259 C261 1.390 . S
C259 C262 1.339 . S
C259 H279 0.930 . S
C260 C257 1.416 . S
C260 C262 1.416 . S
C260 C266 1.448 . S
C261 N258 1.334 . S
C261 C259 1.390 . S
C261 H272 0.930 . S
C262 C259 1.339 . S
C262 C260 1.416 . S
C262 H283 0.930 . S
C263 C264 1.413 . S
C263 C265 1.427 . S
C263 C269 1.416 . S
C264 C257 1.424 . S
C264 C263 1.413 . S
C264 N268 1.361 . S
C265 C263 1.427 . S
C265 C266 1.328 . S
C265 H280 0.929 . S
C266 C260 1.448 . S
C266 C265 1.328 . S
C266 H281 0.930 . S
Tb267 N258 2.617 . S
Tb267 N268 2.572 . S
Tb267 O302 2.349 1_655 S
Tb267 O305 2.393 . S
Tb267 O306 2.465 . S
Tb267 O307 2.387 . S
Tb267 O309 2.428 . S
Tb267 O310 2.308 1_655 S
Tb267 C331 2.802 . S
N268 C264 1.361 . S
N268 Tb267 2.572 . S
N268 C270 1.340 . S
C269 C263 1.416 . S
C269 C271 1.332 . S
C269 H277 0.931 . S
C270 N268 1.340 . S
C270 C271 1.407 . S
C270 H276 0.930 . S
C271 C269 1.332 . S
C271 C270 1.407 . S
C271 H273 0.929 . S
H272 C261 0.930 . S
H273 C271 0.929 . S
H274 C289 0.930 . S
H275 C296 0.929 . S
H276 C270 0.930 . S
H277 C269 0.931 . S
H278 C292 0.930 . S
H279 C259 0.930 . S
H280 C265 0.929 . S
H281 C266 0.930 . S
H282 C287 0.930 . S
H283 C262 0.930 . S
H284 C295 0.931 . S
N285 Tb256 2.617 . S
N285 C286 1.379 . S
N285 C289 1.334 . S
C286 N285 1.379 . S
C286 C288 1.416 . S
C286 C294 1.424 . S
C287 H282 0.930 . S
C287 C289 1.390 . S
C287 C290 1.339 . S
C288 C286 1.416 . S
C288 C290 1.416 . S
C288 C321 1.448 . S
C289 H274 0.930 . S
C289 N285 1.334 . S
C289 C287 1.390 . S
C290 C287 1.339 . S
C290 C288 1.416 . S
C290 H297 0.930 . S
N291 Tb256 2.572 . S
N291 C292 1.340 . S
N291 C294 1.361 . S
C292 H278 0.930 . S
C292 N291 1.340 . S
C292 C296 1.407 . S
C293 C294 1.413 . S
C293 C295 1.416 . S
C293 C322 1.427 . S
C294 C286 1.424 . S
C294 N291 1.361 . S
C294 C293 1.413 . S
C295 H284 0.931 . S
C295 C293 1.416 . S
C295 C296 1.332 . S
C296 H275 0.929 . S
C296 C292 1.407 . S
C296 C295 1.332 . S
H297 C290 0.930 . S
H298 C321 0.930 . S
H299 C322 0.929 . S
O300 Tb256 2.465 . S
O300 C320 1.264 . S
O301 Tb256 2.387 . S
O301 C312 1.264 . S
O302 Tb267 2.349 1_455 S
O302 C312 1.243 . S
O303 Tb256 2.428 . S
O303 C320 1.256 . S
O304 Tb256 2.308 . S
O304 C319 1.266 1_455 S
O305 Tb267 2.393 . S
O305 C319 1.248 . S
O306 Tb267 2.465 . S
O306 C331 1.264 . S
O307 Tb267 2.387 . S
O307 C323 1.264 . S
O308 Tb256 2.349 . S
O308 C323 1.243 1_455 S
O309 Tb267 2.428 . S
O309 C331 1.256 . S
O310 Tb267 2.308 1_455 S
O310 C330 1.266 . S
O311 Tb256 2.393 . S
O311 C330 1.248 . S
C312 O301 1.264 . S
C312 O302 1.243 . S
C313 C316 1.399 . S
C313 C318 1.383 . S
C313 C320 1.496 . S
C314 C315 1.399 . S
C314 C318 1.389 . S
C315 C314 1.399 . S
C315 C317 1.380 . S
C315 H332 0.929 . S
C316 C313 1.399 . S
C316 C317 1.392 . S
C316 H333 0.929 . S
C317 C315 1.380 . S
C317 C316 1.392 . S
C317 H334 0.929 . S
C318 C313 1.383 . S
C318 C314 1.389 . S
C318 H335 0.931 . S
C319 O304 1.266 1_655 S
C319 O305 1.248 . S
C320 Tb256 2.802 . S
C320 O300 1.264 . S
C320 O303 1.256 . S
C320 C313 1.496 . S
C321 C288 1.448 . S
C321 H298 0.930 . S
C321 C322 1.328 . S
C322 C293 1.427 . S
C322 H299 0.929 . S
C322 C321 1.328 . S
C323 O307 1.264 . S
C323 O308 1.243 1_655 S
C324 C327 1.399 . S
C324 C328 1.383 . S
C324 C331 1.496 . S
C325 C326 1.399 . S
C325 C328 1.389 . S
C326 C325 1.399 . S
C326 C329 1.380 . S
C326 H336 0.929 . S
C327 C324 1.399 . S
C327 C329 1.392 . S
C327 H337 0.929 . S
C328 C324 1.383 . S
C328 C325 1.389 . S
C328 H338 0.931 . S
C329 C326 1.380 . S
C329 C327 1.392 . S
C329 H339 0.929 . S
C330 O310 1.266 . S
C330 O311 1.248 . S
C331 Tb267 2.802 . S
C331 O306 1.264 . S
C331 O309 1.256 . S
C331 C324 1.496 . S
H332 C315 0.929 . S
H333 C316 0.929 . S
H334 C317 0.929 . S
H335 C318 0.931 . S
H336 C326 0.929 . S
H337 C327 0.929 . S
H338 C328 0.931 . S
H339 C329 0.929 . S
Tb340 N369 2.617 . S
Tb340 N375 2.572 . S
Tb340 O384 2.465 . S
Tb340 O385 2.387 . S
Tb340 O387 2.428 . S
Tb340 O388 2.308 . S
Tb340 O392 2.349 . S
Tb340 O395 2.393 . S
Tb340 C404 2.802 . S
C341 N342 1.379 . S
C341 C344 1.416 . S
C341 C348 1.424 . S
N342 C341 1.379 . S
N342 C345 1.334 . S
N342 Tb351 2.617 . S
C343 C345 1.390 . S
C343 C346 1.339 . S
C343 H363 0.930 . S
C344 C341 1.416 . S
C344 C346 1.416 . S
C344 C350 1.448 . S
C345 N342 1.334 . S
C345 C343 1.390 . S
C345 H356 0.930 . S
C346 C343 1.339 . S
C346 C344 1.416 . S
C346 H367 0.930 . S
C347 C348 1.413 . S
C347 C349 1.427 . S
C347 C353 1.416 . S
C348 C341 1.424 . S
C348 C347 1.413 . S
C348 N352 1.361 . S
C349 C347 1.427 . S
C349 C350 1.328 . S
C349 H364 0.929 . S
C350 C344 1.448 . S
C350 C349 1.328 . S
C350 H365 0.930 . S
Tb351 N342 2.617 . S
Tb351 N352 2.572 . S
Tb351 O386 2.349 . S
Tb351 O389 2.393 . S
Tb351 O390 2.465 . S
Tb351 O391 2.387 . S
Tb351 O393 2.428 . S
Tb351 O394 2.308 . S
Tb351 C415 2.802 . S
N352 C348 1.361 . S
N352 Tb351 2.572 . S
N352 C354 1.340 . S
C353 C347 1.416 . S
C353 C355 1.332 . S
C353 H361 0.931 . S
C354 N352 1.340 . S
C354 C355 1.407 . S
C354 H360 0.930 . S
C355 C353 1.332 . S
C355 C354 1.407 . S
C355 H357 0.929 . S
H356 C345 0.930 . S
H357 C355 0.929 . S
H358 C373 0.930 . S
H359 C380 0.929 . S
H360 C354 0.930 . S
H361 C353 0.931 . S
H362 C376 0.930 . S
H363 C343 0.930 . S
H364 C349 0.929 . S
H365 C350 0.930 . S
H366 C371 0.930 . S
H367 C346 0.930 . S
H368 C379 0.931 . S
N369 Tb340 2.617 . S
N369 C370 1.379 . S
N369 C373 1.334 . S
C370 N369 1.379 . S
C370 C372 1.416 . S
C370 C378 1.424 . S
C371 H366 0.930 . S
C371 C373 1.390 . S
C371 C374 1.339 . S
C372 C370 1.416 . S
C372 C374 1.416 . S
C372 C405 1.448 . S
C373 H358 0.930 . S
C373 N369 1.334 . S
C373 C371 1.390 . S
C374 C371 1.339 . S
C374 C372 1.416 . S
C374 H381 0.930 . S
N375 Tb340 2.572 . S
N375 C376 1.340 . S
N375 C378 1.361 . S
C376 H362 0.930 . S
C376 N375 1.340 . S
C376 C380 1.407 . S
C377 C378 1.413 . S
C377 C379 1.416 . S
C377 C406 1.427 . S
C378 C370 1.424 . S
C378 N375 1.361 . S
C378 C377 1.413 . S
C379 H368 0.931 . S
C379 C377 1.416 . S
C379 C380 1.332 . S
C380 H359 0.929 . S
C380 C376 1.407 . S
C380 C379 1.332 . S
H381 C374 0.930 . S
H382 C405 0.930 . S
H383 C406 0.929 . S
O384 Tb340 2.465 . S
O384 C404 1.264 . S
O385 Tb340 2.387 . S
O385 C396 1.264 . S
O386 Tb351 2.349 . S
O386 C396 1.243 . S
O387 Tb340 2.428 . S
O387 C404 1.256 . S
O388 Tb340 2.308 . S
O388 C403 1.266 . S
O389 Tb351 2.393 . S
O389 C403 1.248 . S
O390 Tb351 2.465 . S
O390 C415 1.264 . S
O391 Tb351 2.387 . S
O391 C407 1.264 . S
O392 Tb340 2.349 . S
O392 C407 1.243 . S
O393 Tb351 2.428 . S
O393 C415 1.256 . S
O394 Tb351 2.308 . S
O394 C414 1.266 . S
O395 Tb340 2.393 . S
O395 C414 1.248 . S
C396 O385 1.264 . S
C396 O386 1.243 . S
C397 C400 1.399 . S
C397 C402 1.383 . S
C397 C404 1.496 . S
C398 C399 1.399 . S
C398 C402 1.389 . S
C399 C398 1.399 . S
C399 C401 1.380 . S
C399 H416 0.929 . S
C400 C397 1.399 . S
C400 C401 1.392 . S
C400 H417 0.929 . S
C401 C399 1.380 . S
C401 C400 1.392 . S
C401 H418 0.929 . S
C402 C397 1.383 . S
C402 C398 1.389 . S
C402 H419 0.931 . S
C403 O388 1.266 . S
C403 O389 1.248 . S
C404 Tb340 2.802 . S
C404 O384 1.264 . S
C404 O387 1.256 . S
C404 C397 1.496 . S
C405 C372 1.448 . S
C405 H382 0.930 . S
C405 C406 1.328 . S
C406 C377 1.427 . S
C406 H383 0.929 . S
C406 C405 1.328 . S
C407 O391 1.264 . S
C407 O392 1.243 . S
C408 C411 1.399 . S
C408 C412 1.383 . S
C408 C415 1.496 . S
C409 C410 1.399 . S
C409 C412 1.389 . S
C410 C409 1.399 . S
C410 C413 1.380 . S
C410 H420 0.929 . S
C411 C408 1.399 . S
C411 C413 1.392 . S
C411 H421 0.929 . S
C412 C408 1.383 . S
C412 C409 1.389 . S
C412 H422 0.931 . S
C413 C410 1.380 . S
C413 C411 1.392 . S
C413 H423 0.929 . S
C414 O394 1.266 . S
C414 O395 1.248 . S
C415 Tb351 2.802 . S
C415 O390 1.264 . S
C415 O393 1.256 . S
C415 C408 1.496 . S
H416 C399 0.929 . S
H417 C400 0.929 . S
H418 C401 0.929 . S
H419 C402 0.931 . S
H420 C410 0.929 . S
H421 C411 0.929 . S
H422 C412 0.931 . S
H423 C413 0.929 . S
Tb424 N453 2.617 . S
Tb424 N459 2.572 . S
Tb424 O468 2.465 . S
Tb424 O469 2.387 . S
Tb424 O471 2.428 . S
Tb424 O472 2.308 . S
Tb424 O476 2.349 . S
Tb424 O479 2.393 . S
Tb424 C488 2.802 . S
C425 N426 1.379 . S
C425 C428 1.416 . S
C425 C432 1.424 . S
N426 C425 1.379 . S
N426 C429 1.334 . S
N426 Tb435 2.617 . S
C427 C429 1.390 . S
C427 C430 1.339 . S
C427 H447 0.930 . S
C428 C425 1.416 . S
C428 C430 1.416 . S
C428 C434 1.448 . S
C429 N426 1.334 . S
C429 C427 1.390 . S
C429 H440 0.930 . S
C430 C427 1.339 . S
C430 C428 1.416 . S
C430 H451 0.930 . S
C431 C432 1.413 . S
C431 C433 1.427 . S
C431 C437 1.416 . S
C432 C425 1.424 . S
C432 C431 1.413 . S
C432 N436 1.361 . S
C433 C431 1.427 . S
C433 C434 1.328 . S
C433 H448 0.929 . S
C434 C428 1.448 . S
C434 C433 1.328 . S
C434 H449 0.930 . S
Tb435 N426 2.617 . S
Tb435 N436 2.572 . S
Tb435 O470 2.349 1_655 S
Tb435 O473 2.393 . S
Tb435 O474 2.465 . S
Tb435 O475 2.387 . S
Tb435 O477 2.428 . S
Tb435 O478 2.308 1_655 S
Tb435 C499 2.802 . S
N436 C432 1.361 . S
N436 Tb435 2.572 . S
N436 C438 1.340 . S
C437 C431 1.416 . S
C437 C439 1.332 . S
C437 H445 0.931 . S
C438 N436 1.340 . S
C438 C439 1.407 . S
C438 H444 0.930 . S
C439 C437 1.332 . S
C439 C438 1.407 . S
C439 H441 0.929 . S
H440 C429 0.930 . S
H441 C439 0.929 . S
H442 C457 0.930 . S
H443 C464 0.929 . S
H444 C438 0.930 . S
H445 C437 0.931 . S
H446 C460 0.930 . S
H447 C427 0.930 . S
H448 C433 0.929 . S
H449 C434 0.930 . S
H450 C455 0.930 . S
H451 C430 0.930 . S
H452 C463 0.931 . S
N453 Tb424 2.617 . S
N453 C454 1.379 . S
N453 C457 1.334 . S
C454 N453 1.379 . S
C454 C456 1.416 . S
C454 C462 1.424 . S
C455 H450 0.930 . S
C455 C457 1.390 . S
C455 C458 1.339 . S
C456 C454 1.416 . S
C456 C458 1.416 . S
C456 C489 1.448 . S
C457 H442 0.930 . S
C457 N453 1.334 . S
C457 C455 1.390 . S
C458 C455 1.339 . S
C458 C456 1.416 . S
C458 H465 0.930 . S
N459 Tb424 2.572 . S
N459 C460 1.340 . S
N459 C462 1.361 . S
C460 H446 0.930 . S
C460 N459 1.340 . S
C460 C464 1.407 . S
C461 C462 1.413 . S
C461 C463 1.416 . S
C461 C490 1.427 . S
C462 C454 1.424 . S
C462 N459 1.361 . S
C462 C461 1.413 . S
C463 H452 0.931 . S
C463 C461 1.416 . S
C463 C464 1.332 . S
C464 H443 0.929 . S
C464 C460 1.407 . S
C464 C463 1.332 . S
H465 C458 0.930 . S
H466 C489 0.930 . S
H467 C490 0.929 . S
O468 Tb424 2.465 . S
O468 C488 1.264 . S
O469 Tb424 2.387 . S
O469 C480 1.264 . S
O470 Tb435 2.349 1_455 S
O470 C480 1.243 . S
O471 Tb424 2.428 . S
O471 C488 1.256 . S
O472 Tb424 2.308 . S
O472 C487 1.266 1_455 S
O473 Tb435 2.393 . S
O473 C487 1.248 . S
O474 Tb435 2.465 . S
O474 C499 1.264 . S
O475 Tb435 2.387 . S
O475 C491 1.264 . S
O476 Tb424 2.349 . S
O476 C491 1.243 1_455 S
O477 Tb435 2.428 . S
O477 C499 1.256 . S
O478 Tb435 2.308 1_455 S
O478 C498 1.266 . S
O479 Tb424 2.393 . S
O479 C498 1.248 . S
C480 O469 1.264 . S
C480 O470 1.243 . S
C481 C484 1.399 . S
C481 C486 1.383 . S
C481 C488 1.496 . S
C482 C483 1.399 . S
C482 C486 1.389 . S
C483 C482 1.399 . S
C483 C485 1.380 . S
C483 H500 0.929 . S
C484 C481 1.399 . S
C484 C485 1.392 . S
C484 H501 0.929 . S
C485 C483 1.380 . S
C485 C484 1.392 . S
C485 H502 0.929 . S
C486 C481 1.383 . S
C486 C482 1.389 . S
C486 H503 0.931 . S
C487 O472 1.266 1_655 S
C487 O473 1.248 . S
C488 Tb424 2.802 . S
C488 O468 1.264 . S
C488 O471 1.256 . S
C488 C481 1.496 . S
C489 C456 1.448 . S
C489 H466 0.930 . S
C489 C490 1.328 . S
C490 C461 1.427 . S
C490 H467 0.929 . S
C490 C489 1.328 . S
C491 O475 1.264 . S
C491 O476 1.243 1_655 S
C492 C495 1.399 . S
C492 C496 1.383 . S
C492 C499 1.496 . S
C493 C494 1.399 . S
C493 C496 1.389 . S
C494 C493 1.399 . S
C494 C497 1.380 . S
C494 H504 0.929 . S
C495 C492 1.399 . S
C495 C497 1.392 . S
C495 H505 0.929 . S
C496 C492 1.383 . S
C496 C493 1.389 . S
C496 H506 0.931 . S
C497 C494 1.380 . S
C497 C495 1.392 . S
C497 H507 0.929 . S
C498 O478 1.266 . S
C498 O479 1.248 . S
C499 Tb435 2.802 . S
C499 O474 1.264 . S
C499 O477 1.256 . S
C499 C492 1.496 . S
H500 C483 0.929 . S
H501 C484 0.929 . S
H502 C485 0.929 . S
H503 C486 0.931 . S
H504 C494 0.929 . S
H505 C495 0.929 . S
H506 C496 0.931 . S
H507 C497 0.929 . S
Tb508 N537 2.617 . S
Tb508 N543 2.572 . S
Tb508 O552 2.465 . S
Tb508 O553 2.387 . S
Tb508 O555 2.428 . S
Tb508 O556 2.308 . S
Tb508 O560 2.349 . S
Tb508 O563 2.393 . S
Tb508 C572 2.802 . S
C509 N510 1.379 . S
C509 C512 1.416 . S
C509 C516 1.424 . S
N510 C509 1.379 . S
N510 C513 1.334 . S
N510 Tb519 2.617 . S
C511 C513 1.390 . S
C511 C514 1.339 . S
C511 H531 0.930 . S
C512 C509 1.416 . S
C512 C514 1.416 . S
C512 C518 1.448 . S
C513 N510 1.334 . S
C513 C511 1.390 . S
C513 H524 0.930 . S
C514 C511 1.339 . S
C514 C512 1.416 . S
C514 H535 0.930 . S
C515 C516 1.413 . S
C515 C517 1.427 . S
C515 C521 1.416 . S
C516 C509 1.424 . S
C516 C515 1.413 . S
C516 N520 1.361 . S
C517 C515 1.427 . S
C517 C518 1.328 . S
C517 H532 0.929 . S
C518 C512 1.448 . S
C518 C517 1.328 . S
C518 H533 0.930 . S
Tb519 N510 2.617 . S
Tb519 N520 2.572 . S
Tb519 O554 2.349 . S
Tb519 O557 2.393 . S
Tb519 O558 2.465 . S
Tb519 O559 2.387 . S
Tb519 O561 2.428 . S
Tb519 O562 2.308 . S
Tb519 C583 2.802 . S
N520 C516 1.361 . S
N520 Tb519 2.572 . S
N520 C522 1.340 . S
C521 C515 1.416 . S
C521 C523 1.332 . S
C521 H529 0.931 . S
C522 N520 1.340 . S
C522 C523 1.407 . S
C522 H528 0.930 . S
C523 C521 1.332 . S
C523 C522 1.407 . S
C523 H525 0.929 . S
H524 C513 0.930 . S
H525 C523 0.929 . S
H526 C541 0.930 . S
H527 C548 0.929 . S
H528 C522 0.930 . S
H529 C521 0.931 . S
H530 C544 0.930 . S
H531 C511 0.930 . S
H532 C517 0.929 . S
H533 C518 0.930 . S
H534 C539 0.930 . S
H535 C514 0.930 . S
H536 C547 0.931 . S
N537 Tb508 2.617 . S
N537 C538 1.379 . S
N537 C541 1.334 . S
C538 N537 1.379 . S
C538 C540 1.416 . S
C538 C546 1.424 . S
C539 H534 0.930 . S
C539 C541 1.390 . S
C539 C542 1.339 . S
C540 C538 1.416 . S
C540 C542 1.416 . S
C540 C573 1.448 . S
C541 H526 0.930 . S
C541 N537 1.334 . S
C541 C539 1.390 . S
C542 C539 1.339 . S
C542 C540 1.416 . S
C542 H549 0.930 . S
N543 Tb508 2.572 . S
N543 C544 1.340 . S
N543 C546 1.361 . S
C544 H530 0.930 . S
C544 N543 1.340 . S
C544 C548 1.407 . S
C545 C546 1.413 . S
C545 C547 1.416 . S
C545 C574 1.427 . S
C546 C538 1.424 . S
C546 N543 1.361 . S
C546 C545 1.413 . S
C547 H536 0.931 . S
C547 C545 1.416 . S
C547 C548 1.332 . S
C548 H527 0.929 . S
C548 C544 1.407 . S
C548 C547 1.332 . S
H549 C542 0.930 . S
H550 C573 0.930 . S
H551 C574 0.929 . S
O552 Tb508 2.465 . S
O552 C572 1.264 . S
O553 Tb508 2.387 . S
O553 C564 1.264 . S
O554 Tb519 2.349 . S
O554 C564 1.243 . S
O555 Tb508 2.428 . S
O555 C572 1.256 . S
O556 Tb508 2.308 . S
O556 C571 1.266 . S
O557 Tb519 2.393 . S
O557 C571 1.248 . S
O558 Tb519 2.465 . S
O558 C583 1.264 . S
O559 Tb519 2.387 . S
O559 C575 1.264 . S
O560 Tb508 2.349 . S
O560 C575 1.243 . S
O561 Tb519 2.428 . S
O561 C583 1.256 . S
O562 Tb519 2.308 . S
O562 C582 1.266 . S
O563 Tb508 2.393 . S
O563 C582 1.248 . S
C564 O553 1.264 . S
C564 O554 1.243 . S
C565 C568 1.399 . S
C565 C570 1.383 . S
C565 C572 1.496 . S
C566 C567 1.399 . S
C566 C570 1.389 . S
C567 C566 1.399 . S
C567 C569 1.380 . S
C567 H584 0.929 . S
C568 C565 1.399 . S
C568 C569 1.392 . S
C568 H585 0.929 . S
C569 C567 1.380 . S
C569 C568 1.392 . S
C569 H586 0.929 . S
C570 C565 1.383 . S
C570 C566 1.389 . S
C570 H587 0.931 . S
C571 O556 1.266 . S
C571 O557 1.248 . S
C572 Tb508 2.802 . S
C572 O552 1.264 . S
C572 O555 1.256 . S
C572 C565 1.496 . S
C573 C540 1.448 . S
C573 H550 0.930 . S
C573 C574 1.328 . S
C574 C545 1.427 . S
C574 H551 0.929 . S
C574 C573 1.328 . S
C575 O559 1.264 . S
C575 O560 1.243 . S
C576 C579 1.399 . S
C576 C580 1.383 . S
C576 C583 1.496 . S
C577 C578 1.399 . S
C577 C580 1.389 . S
C578 C577 1.399 . S
C578 C581 1.380 . S
C578 H588 0.929 . S
C579 C576 1.399 . S
C579 C581 1.392 . S
C579 H589 0.929 . S
C580 C576 1.383 . S
C580 C577 1.389 . S
C580 H590 0.931 . S
C581 C578 1.380 . S
C581 C579 1.392 . S
C581 H591 0.929 . S
C582 O562 1.266 . S
C582 O563 1.248 . S
C583 Tb519 2.802 . S
C583 O558 1.264 . S
C583 O561 1.256 . S
C583 C576 1.496 . S
H584 C567 0.929 . S
H585 C568 0.929 . S
H586 C569 0.929 . S
H587 C570 0.931 . S
H588 C578 0.929 . S
H589 C579 0.929 . S
H590 C580 0.931 . S
H591 C581 0.929 . S
H592 C600 0.950 . S
H593 C605 0.950 . S
H594 C602 0.950 . S
H595 C604 0.950 . S
H596 C606 0.950 . S
H597 C608 0.950 . S
H598 C610 0.950 . S
H599 C611 0.950 . S
C600 H592 0.950 . S
C600 C601 1.386 . S
C600 C602 1.391 1_565 S
C601 C600 1.386 . S
C601 C605 1.393 . S
C602 H594 0.950 . S
C602 C600 1.391 1_545 S
C602 C603 1.400 . S
C603 C602 1.400 . S
C603 C604 1.398 1_545 S
C603 C609 1.491 . S
C604 H595 0.950 . S
C604 C603 1.398 1_565 S
C604 C605 1.391 . S
C605 H593 0.950 . S
C605 C601 1.393 . S
C605 C604 1.391 . S
C606 H596 0.950 . S
C606 C607 1.386 . S
C606 C608 1.391 . S
C607 C606 1.386 . S
C607 C611 1.393 . S
C608 H597 0.950 . S
C608 C606 1.391 . S
C608 C609 1.400 . S
C609 C603 1.491 . S
C609 C608 1.400 . S
C609 C610 1.398 . S
C610 H598 0.950 . S
C610 C609 1.398 . S
C610 C611 1.391 . S
C611 H599 0.950 . S
C611 C607 1.393 . S
C611 C610 1.391 . S
H612 C620 0.950 . S
H613 C625 0.950 . S
H614 C622 0.950 . S
H615 C624 0.950 . S
H616 C626 0.950 . S
H617 C628 0.950 . S
H618 C630 0.950 . S
H619 C631 0.950 . S
C620 H612 0.950 . S
C620 C621 1.386 . S
C620 C622 1.391 . S
C621 C620 1.386 . S
C621 C625 1.393 . S
C622 H614 0.950 . S
C622 C620 1.391 . S
C622 C623 1.400 . S
C623 C622 1.400 . S
C623 C624 1.398 . S
C623 C629 1.491 . S
C624 H615 0.950 . S
C624 C623 1.398 . S
C624 C625 1.391 . S
C625 H613 0.950 . S
C625 C621 1.393 . S
C625 C624 1.391 . S
C626 H616 0.950 . S
C626 C627 1.386 . S
C626 C628 1.391 . S
C627 C626 1.386 . S
C627 C631 1.393 . S
C628 H617 0.950 . S
C628 C626 1.391 . S
C628 C629 1.400 . S
C629 C623 1.491 . S
C629 C628 1.400 . S
C629 C630 1.398 . S
C630 H618 0.950 . S
C630 C629 1.398 . S
C630 C631 1.391 . S
C631 H619 0.950 . S
C631 C627 1.393 . S
C631 C630 1.391 . S
H632 C640 0.950 . S
H633 C645 0.950 . S
H634 C642 0.950 . S
H635 C644 0.950 . S
H636 C646 0.950 . S
H637 C648 0.950 . S
H638 C650 0.950 . S
H639 C651 0.950 . S
C640 H632 0.950 . S
C640 C641 1.386 . S
C640 C642 1.391 . S
C641 C640 1.386 . S
C641 C645 1.393 . S
C642 H634 0.950 . S
C642 C640 1.391 . S
C642 C643 1.400 . S
C643 C642 1.400 . S
C643 C644 1.398 . S
C643 C649 1.491 . S
C644 H635 0.950 . S
C644 C643 1.398 . S
C644 C645 1.391 . S
C645 H633 0.950 . S
C645 C641 1.393 . S
C645 C644 1.391 . S
C646 H636 0.950 . S
C646 C647 1.386 . S
C646 C648 1.391 . S
C647 C646 1.386 . S
C647 C651 1.393 . S
C648 H637 0.950 . S
C648 C646 1.391 . S
C648 C649 1.400 . S
C649 C643 1.491 . S
C649 C648 1.400 . S
C649 C650 1.398 . S
C650 H638 0.950 . S
C650 C649 1.398 . S
C650 C651 1.391 . S
C651 H639 0.950 . S
C651 C647 1.393 . S
C651 C650 1.391 . S
H652 C660 0.950 . S
H653 C665 0.950 . S
H654 C662 0.949 1_545 S
H655 C664 0.950 . S
H656 C666 0.950 . S
H657 C668 0.950 . S
H658 C670 0.950 . S
H659 C671 0.950 1_455 S
C660 H652 0.950 . S
C660 C661 1.386 . S
C660 C662 1.413 . S
C661 C660 1.386 . S
C661 C665 1.393 . S
C662 H654 0.949 1_565 S
C662 C660 1.413 . S
C662 C663 1.380 1_565 S
C663 C662 1.380 1_545 S
C663 C664 1.398 . S
C663 C669 1.491 . S
C664 H655 0.950 . S
C664 C663 1.398 . S
C664 C665 1.391 1_545 S
C665 H653 0.950 . S
C665 C661 1.393 . S
C665 C664 1.391 1_565 S
C666 H656 0.950 . S
C666 C667 1.386 . S
C666 C668 1.391 . S
C667 C666 1.386 . S
C667 C671 1.393 . S
C668 H657 0.950 . S
C668 C666 1.391 . S
C668 C669 1.400 . S
C669 C663 1.491 . S
C669 C668 1.400 . S
C669 C670 1.398 . S
C670 H658 0.950 . S
C670 C669 1.398 . S
C670 C671 1.391 . S
C671 H659 0.950 1_655 S
C671 C667 1.393 . S
C671 C670 1.391 . S
H672 C680 0.950 . S
H673 C685 0.950 1_565 S
H674 C682 0.950 . S
H675 C684 0.950 . S
H676 C686 0.950 . S
H677 C688 0.950 . S
H678 C690 0.950 . S
H679 C691 0.950 . S
C680 H672 0.950 . S
C680 C681 1.386 . S
C680 C682 1.391 . S
C681 C680 1.386 . S
C681 C685 1.393 . S
C682 H674 0.950 . S
C682 C680 1.391 . S
C682 C683 1.400 1_545 S
C683 C682 1.400 1_565 S
C683 C684 1.398 . S
C683 C689 1.491 . S
C684 H675 0.950 . S
C684 C683 1.398 . S
C684 C685 1.391 1_565 S
C685 H673 0.950 1_545 S
C685 C681 1.393 . S
C685 C684 1.391 1_545 S
C686 H676 0.950 . S
C686 C687 1.386 . S
C686 C688 1.391 . S
C687 C686 1.386 . S
C687 C691 1.393 . S
C688 H677 0.950 . S
C688 C686 1.391 . S
C688 C689 1.400 . S
C689 C683 1.491 . S
C689 C688 1.400 . S
C689 C690 1.398 . S
C690 H678 0.950 . S
C690 C689 1.398 . S
C690 C691 1.391 . S
C691 H679 0.950 . S
C691 C687 1.393 . S
C691 C690 1.391 . S
H692 C700 0.950 . S
H693 C705 0.950 . S
H694 C702 0.950 . S
H695 C704 0.950 . S
H696 C706 0.950 . S
H697 C708 0.950 . S
H698 C710 0.950 . S
H699 C711 0.950 . S
C700 H692 0.950 . S
C700 C701 1.386 . S
C700 C702 1.391 . S
C701 C700 1.386 . S
C701 C705 1.393 . S
C702 H694 0.950 . S
C702 C700 1.391 . S
C702 C703 1.400 . S
C703 C702 1.400 . S
C703 C704 1.398 . S
C703 C709 1.491 . S
C704 H695 0.950 . S
C704 C703 1.398 . S
C704 C705 1.391 . S
C705 H693 0.950 . S
C705 C701 1.393 . S
C705 C704 1.391 . S
C706 H696 0.950 . S
C706 C707 1.386 . S
C706 C708 1.391 . S
C707 C706 1.386 . S
C707 C711 1.393 . S
C708 H697 0.950 . S
C708 C706 1.391 . S
C708 C709 1.400 . S
C709 C703 1.491 . S
C709 C708 1.400 . S
C709 C710 1.398 . S
C710 H698 0.950 . S
C710 C709 1.398 . S
C710 C711 1.391 . S
C711 H699 0.950 . S
C711 C707 1.393 . S
C711 C710 1.391 . S
H712 C720 0.950 . S
H713 C725 0.950 . S
H714 C722 0.950 . S
H715 C724 0.950 . S
H716 C726 0.950 . S
H717 C728 0.950 . S
H718 C730 0.950 . S
H719 C731 0.950 . S
C720 H712 0.950 . S
C720 C721 1.386 . S
C720 C722 1.391 . S
C721 C720 1.386 . S
C721 C725 1.393 . S
C722 H714 0.950 . S
C722 C720 1.391 . S
C722 C723 1.400 . S
C723 C722 1.400 . S
C723 C724 1.398 . S
C723 C729 1.491 . S
C724 H715 0.950 . S
C724 C723 1.398 . S
C724 C725 1.391 . S
C725 H713 0.950 . S
C725 C721 1.393 . S
C725 C724 1.391 . S
C726 H716 0.950 . S
C726 C727 1.386 . S
C726 C728 1.391 . S
C727 C726 1.386 . S
C727 C731 1.393 . S
C728 H717 0.950 . S
C728 C726 1.391 . S
C728 C729 1.400 . S
C729 C723 1.491 . S
C729 C728 1.400 . S
C729 C730 1.398 . S
C730 H718 0.950 . S
C730 C729 1.398 . S
C730 C731 1.391 . S
C731 H719 0.950 . S
C731 C727 1.393 . S
C731 C730 1.391 . S
H732 C740 0.950 . S
H733 C745 0.950 . S
H734 C742 0.950 . S
H735 C744 0.950 . S
H736 C746 0.950 . S
H737 C748 0.950 . S
H738 C750 0.950 . S
H739 C751 0.950 . S
C740 H732 0.950 . S
C740 C741 1.386 . S
C740 C742 1.391 . S
C741 C740 1.386 . S
C741 C745 1.393 . S
C742 H734 0.950 . S
C742 C740 1.391 . S
C742 C743 1.400 1_545 S
C743 C742 1.400 1_565 S
C743 C744 1.398 . S
C743 C749 1.491 . S
C744 H735 0.950 . S
C744 C743 1.398 . S
C744 C745 1.391 1_565 S
C745 H733 0.950 . S
C745 C741 1.393 . S
C745 C744 1.391 1_545 S
C746 H736 0.950 . S
C746 C747 1.386 . S
C746 C748 1.391 . S
C747 C746 1.386 . S
C747 C751 1.393 . S
C748 H737 0.950 . S
C748 C746 1.391 . S
C748 C749 1.400 . S
C749 C743 1.491 . S
C749 C748 1.400 . S
C749 C750 1.398 . S
C750 H738 0.950 . S
C750 C749 1.398 . S
C750 C751 1.391 . S
C751 H739 0.950 . S
C751 C747 1.393 . S
C751 C750 1.391 . S
H752 C760 0.908 1_556 S
H753 C765 0.950 . S
H754 C762 0.950 . S
H755 C764 0.950 . S
H756 C766 0.950 . S
H757 C768 0.950 . S
H758 C770 0.950 . S
H759 C771 0.950 . S
C760 H752 0.908 1_554 S
C760 C761 1.379 1_554 S
C760 C762 1.441 . S
C761 C760 1.379 1_556 S
C761 C765 1.393 1_556 S
C762 H754 0.950 . S
C762 C760 1.441 . S
C762 C763 1.400 . S
C763 C762 1.400 . S
C763 C764 1.398 . S
C763 C769 1.491 . S
C764 H755 0.950 . S
C764 C763 1.398 . S
C764 C765 1.391 . S
C765 H753 0.950 . S
C765 C761 1.393 1_554 S
C765 C764 1.391 . S
C766 H756 0.950 . S
C766 C767 1.386 . S
C766 C768 1.391 . S
C767 C766 1.386 . S
C767 C771 1.393 . S
C768 H757 0.950 . S
C768 C766 1.391 . S
C768 C769 1.400 . S
C769 C763 1.491 . S
C769 C768 1.400 . S
C769 C770 1.398 . S
C770 H758 0.950 . S
C770 C769 1.398 . S
C770 C771 1.391 . S
C771 H759 0.950 . S
C771 C767 1.393 . S
C771 C770 1.391 . S
H772 C780 0.950 . S
H773 C785 0.950 . S
H774 C782 0.950 . S
H775 C784 0.950 . S
H776 C786 0.950 . S
H777 C788 0.950 . S
H778 C790 0.950 . S
H779 C791 0.950 . S
C780 H772 0.950 . S
C780 C781 1.386 . S
C780 C782 1.391 . S
C781 C780 1.386 . S
C781 C785 1.393 . S
C782 H774 0.950 . S
C782 C780 1.391 . S
C782 C783 1.400 . S
C783 C782 1.400 . S
C783 C784 1.398 . S
C783 C789 1.491 . S
C784 H775 0.950 . S
C784 C783 1.398 . S
C784 C785 1.391 . S
C785 H773 0.950 . S
C785 C781 1.393 . S
C785 C784 1.391 . S
C786 H776 0.950 . S
C786 C787 1.386 . S
C786 C788 1.391 . S
C787 C786 1.386 . S
C787 C791 1.393 . S
C788 H777 0.950 . S
C788 C786 1.391 . S
C788 C789 1.400 . S
C789 C783 1.491 . S
C789 C788 1.400 . S
C789 C790 1.398 . S
C790 H778 0.950 . S
C790 C789 1.398 . S
C790 C791 1.391 . S
C791 H779 0.950 . S
C791 C787 1.393 . S
C791 C790 1.391 . S
H792 C800 0.950 . S
H793 C805 0.950 . S
H794 C802 0.950 . S
H795 C804 0.950 . S
H796 C806 0.950 . S
H797 C808 0.950 . S
H798 C810 0.950 . S
H799 C811 0.950 . S
C800 H792 0.950 . S
C800 C801 1.386 . S
C800 C802 1.391 1_554 S
C801 C800 1.386 . S
C801 C805 1.393 1_554 S
C802 H794 0.950 . S
C802 C800 1.391 1_556 S
C802 C803 1.400 . S
C803 C802 1.400 . S
C803 C804 1.398 . S
C803 C809 1.491 . S
C804 H795 0.950 . S
C804 C803 1.398 . S
C804 C805 1.391 . S
C805 H793 0.950 . S
C805 C801 1.393 1_556 S
C805 C804 1.391 . S
C806 H796 0.950 . S
C806 C807 1.386 . S
C806 C808 1.391 . S
C807 C806 1.386 . S
C807 C811 1.393 . S
C808 H797 0.950 . S
C808 C806 1.391 . S
C808 C809 1.400 . S
C809 C803 1.491 . S
C809 C808 1.400 . S
C809 C810 1.398 . S
C810 H798 0.950 . S
C810 C809 1.398 . S
C810 C811 1.391 . S
C811 H799 0.950 . S
C811 C807 1.393 . S
C811 C810 1.391 . S
H812 C820 0.950 . S
H813 C825 0.950 . S
H814 C822 0.950 . S
H815 C824 0.950 . S
H816 C826 0.950 . S
H817 C828 0.950 . S
H818 C830 0.950 . S
H819 C831 0.950 . S
C820 H812 0.950 . S
C820 C821 1.386 . S
C820 C822 1.391 . S
C821 C820 1.386 . S
C821 C825 1.393 . S
C822 H814 0.950 . S
C822 C820 1.391 . S
C822 C823 1.400 . S
C823 C822 1.400 . S
C823 C824 1.398 . S
C823 C829 1.491 . S
C824 H815 0.950 . S
C824 C823 1.398 . S
C824 C825 1.391 . S
C825 H813 0.950 . S
C825 C821 1.393 . S
C825 C824 1.391 . S
C826 H816 0.950 . S
C826 C827 1.386 . S
C826 C828 1.391 . S
C827 C826 1.386 . S
C827 C831 1.393 . S
C828 H817 0.950 . S
C828 C826 1.391 . S
C828 C829 1.400 . S
C829 C823 1.491 . S
C829 C828 1.400 . S
C829 C830 1.398 . S
C830 H818 0.950 . S
C830 C829 1.398 . S
C830 C831 1.391 . S
C831 H819 0.950 . S
C831 C827 1.393 . S
C831 C830 1.391 . S
H832 C840 0.950 . S
H833 C845 0.950 . S
H834 C842 0.950 . S
H835 C844 0.950 . S
H836 C846 0.950 . S
H837 C848 0.950 . S
H838 C850 0.950 . S
H839 C851 0.950 . S
C840 H832 0.950 . S
C840 C841 1.386 1_556 S
C840 C842 1.391 . S
C841 C840 1.386 1_554 S
C841 C845 1.393 . S
C842 H834 0.950 . S
C842 C840 1.391 . S
C842 C843 1.400 . S
C843 C842 1.400 . S
C843 C844 1.398 . S
C843 C849 1.491 . S
C844 H835 0.950 . S
C844 C843 1.398 . S
C844 C845 1.391 1_556 S
C845 H833 0.950 . S
C845 C841 1.393 . S
C845 C844 1.391 1_554 S
C846 H836 0.950 . S
C846 C847 1.386 . S
C846 C848 1.391 . S
C847 C846 1.386 . S
C847 C851 1.393 . S
C848 H837 0.950 . S
C848 C846 1.391 . S
C848 C849 1.400 . S
C849 C843 1.491 . S
C849 C848 1.400 . S
C849 C850 1.398 . S
C850 H838 0.950 . S
C850 C849 1.398 . S
C850 C851 1.391 . S
C851 H839 0.950 . S
C851 C847 1.393 . S
C851 C850 1.391 . S
H852 C860 0.950 . S
H853 C865 0.950 . S
H854 C862 0.950 . S
H855 C864 0.950 . S
H856 C866 0.950 . S
H857 C868 0.950 . S
H858 C870 0.950 . S
H859 C871 0.950 . S
C860 H852 0.950 . S
C860 C861 1.386 . S
C860 C862 1.391 . S
C861 C860 1.386 . S
C861 C865 1.393 . S
C862 H854 0.950 . S
C862 C860 1.391 . S
C862 C863 1.400 . S
C863 C862 1.400 . S
C863 C864 1.398 . S
C863 C869 1.491 . S
C864 H855 0.950 . S
C864 C863 1.398 . S
C864 C865 1.391 . S
C865 H853 0.950 . S
C865 C861 1.393 . S
C865 C864 1.391 . S
C866 H856 0.950 . S
C866 C867 1.386 . S
C866 C868 1.391 . S
C867 C866 1.386 . S
C867 C871 1.393 . S
C868 H857 0.950 . S
C868 C866 1.391 . S
C868 C869 1.400 . S
C869 C863 1.491 . S
C869 C868 1.400 . S
C869 C870 1.398 . S
C870 H858 0.950 . S
C870 C869 1.398 . S
C870 C871 1.391 . S
C871 H859 0.950 . S
C871 C867 1.393 . S
C871 C870 1.391 . S
H872 C880 0.950 . S
H873 C885 0.950 1_556 S
H874 C882 0.950 . S
H875 C884 0.950 . S
H876 C886 0.950 . S
H877 C888 0.950 . S
H878 C890 0.950 . S
H879 C891 0.950 . S
C880 H872 0.950 . S
C880 C881 1.386 1_554 S
C880 C882 1.391 . S
C881 C880 1.386 1_556 S
C881 C885 1.393 1_556 S
C882 H874 0.950 . S
C882 C880 1.391 . S
C882 C883 1.400 . S
C883 C882 1.400 . S
C883 C884 1.398 . S
C883 C889 1.491 . S
C884 H875 0.950 . S
C884 C883 1.398 . S
C884 C885 1.391 . S
C885 H873 0.950 1_554 S
C885 C881 1.393 1_554 S
C885 C884 1.391 . S
C886 H876 0.950 . S
C886 C887 1.386 . S
C886 C888 1.391 . S
C887 C886 1.386 . S
C887 C891 1.393 . S
C888 H877 0.950 . S
C888 C886 1.391 . S
C888 C889 1.400 . S
C889 C883 1.491 . S
C889 C888 1.400 . S
C889 C890 1.398 . S
C890 H878 0.950 . S
C890 C889 1.398 . S
C890 C891 1.391 . S
C891 H879 0.950 . S
C891 C887 1.393 . S
C891 C890 1.391 . S
H892 C900 0.950 . S
H893 C905 0.950 . S
H894 C902 0.950 . S
H895 C904 0.950 . S
H896 C906 0.950 . S
H897 C908 0.950 . S
H898 C910 0.950 . S
H899 C911 0.950 . S
C900 H892 0.950 . S
C900 C901 1.386 . S
C900 C902 1.391 . S
C901 C900 1.386 . S
C901 C905 1.393 . S
C902 H894 0.950 . S
C902 C900 1.391 . S
C902 C903 1.400 . S
C903 C902 1.400 . S
C903 C904 1.398 . S
C903 C909 1.491 . S
C904 H895 0.950 . S
C904 C903 1.398 . S
C904 C905 1.391 . S
C905 H893 0.950 . S
C905 C901 1.393 . S
C905 C904 1.391 . S
C906 H896 0.950 . S
C906 C907 1.386 . S
C906 C908 1.391 . S
C907 C906 1.386 . S
C907 C911 1.393 . S
C908 H897 0.950 . S
C908 C906 1.391 . S
C908 C909 1.400 . S
C909 C903 1.491 . S
C909 C908 1.400 . S
C909 C910 1.398 . S
C910 H898 0.950 . S
C910 C909 1.398 . S
C910 C911 1.391 . S
C911 H899 0.950 . S
C911 C907 1.393 . S
C911 C910 1.391 . S
H912 C920 0.950 . S
H913 C925 0.950 . S
H914 C922 0.950 . S
H915 C924 0.950 . S
H916 C926 0.950 . S
H917 C928 0.950 . S
H918 C930 0.950 . S
H919 C931 0.950 . S
C920 H912 0.950 . S
C920 C921 1.386 . S
C920 C922 1.391 . S
C921 C920 1.386 . S
C921 C925 1.393 . S
C922 H914 0.950 . S
C922 C920 1.391 . S
C922 C923 1.400 . S
C923 C922 1.400 . S
C923 C924 1.398 . S
C923 C929 1.491 . S
C924 H915 0.950 . S
C924 C923 1.398 . S
C924 C925 1.391 . S
C925 H913 0.950 . S
C925 C921 1.393 . S
C925 C924 1.391 . S
C926 H916 0.950 . S
C926 C927 1.386 . S
C926 C928 1.391 . S
C927 C926 1.386 . S
C927 C931 1.393 . S
C928 H917 0.950 . S
C928 C926 1.391 . S
C928 C929 1.400 . S
C929 C923 1.491 . S
C929 C928 1.400 . S
C929 C930 1.398 . S
C930 H918 0.950 . S
C930 C929 1.398 . S
C930 C931 1.391 . S
C931 H919 0.950 . S
C931 C927 1.393 . S
C931 C930 1.391 . S
H932 C940 0.950 . S
H933 C945 0.950 . S
H934 C942 0.950 . S
H935 C944 0.950 . S
H936 C946 0.950 . S
H937 C948 0.950 . S
H938 C950 0.950 . S
H939 C951 0.950 . S
C940 H932 0.950 . S
C940 C941 1.386 . S
C940 C942 1.391 . S
C941 C940 1.386 . S
C941 C945 1.393 . S
C942 H934 0.950 . S
C942 C940 1.391 . S
C942 C943 1.400 . S
C943 C942 1.400 . S
C943 C944 1.398 . S
C943 C949 1.491 . S
C944 H935 0.950 . S
C944 C943 1.398 . S
C944 C945 1.391 . S
C945 H933 0.950 . S
C945 C941 1.393 . S
C945 C944 1.391 . S
C946 H936 0.950 . S
C946 C947 1.386 . S
C946 C948 1.391 . S
C947 C946 1.386 . S
C947 C951 1.393 . S
C948 H937 0.950 . S
C948 C946 1.391 . S
C948 C949 1.400 . S
C949 C943 1.491 . S
C949 C948 1.400 . S
C949 C950 1.398 . S
C950 H938 0.950 . S
C950 C949 1.398 . S
C950 C951 1.391 . S
C951 H939 0.950 . S
C951 C947 1.393 . S
C951 C950 1.391 . S
H952 C960 0.950 . S
H953 C965 0.950 . S
H954 C962 0.950 . S
H955 C964 0.950 . S
H956 C966 0.950 . S
H957 C968 0.950 . S
H958 C970 0.950 . S
H959 C971 0.950 . S
C960 H952 0.950 . S
C960 C961 1.386 . S
C960 C962 1.391 . S
C961 C960 1.386 . S
C961 C965 1.393 . S
C962 H954 0.950 . S
C962 C960 1.391 . S
C962 C963 1.400 . S
C963 C962 1.400 . S
C963 C964 1.398 . S
C963 C969 1.491 . S
C964 H955 0.950 . S
C964 C963 1.398 . S
C964 C965 1.391 . S
C965 H953 0.950 . S
C965 C961 1.393 . S
C965 C964 1.391 . S
C966 H956 0.950 . S
C966 C967 1.386 . S
C966 C968 1.391 . S
C967 C966 1.386 . S
C967 C971 1.393 . S
C968 H957 0.950 . S
C968 C966 1.391 . S
C968 C969 1.400 . S
C969 C963 1.491 . S
C969 C968 1.400 . S
C969 C970 1.398 . S
C970 H958 0.950 . S
C970 C969 1.398 . S
C970 C971 1.391 . S
C971 H959 0.950 . S
C971 C967 1.393 . S
C971 C970 1.391 . S
H972 C980 0.950 . S
H973 C985 0.950 . S
H974 C982 0.950 . S
H975 C984 0.950 . S
H976 C986 0.950 . S
H977 C988 0.950 . S
H978 C990 0.950 . S
H979 C991 0.950 . S
C980 H972 0.950 . S
C980 C981 1.386 . S
C980 C982 1.391 . S
C981 C980 1.386 . S
C981 C985 1.393 . S
C982 H974 0.950 . S
C982 C980 1.391 . S
C982 C983 1.400 . S
C983 C982 1.400 . S
C983 C984 1.398 . S
C983 C989 1.491 . S
C984 H975 0.950 . S
C984 C983 1.398 . S
C984 C985 1.391 . S
C985 H973 0.950 . S
C985 C981 1.393 . S
C985 C984 1.391 . S
C986 H976 0.950 . S
C986 C987 1.386 . S
C986 C988 1.391 . S
C987 C986 1.386 . S
C987 C991 1.393 . S
C988 H977 0.950 . S
C988 C986 1.391 . S
C988 C989 1.400 . S
C989 C983 1.491 . S
C989 C988 1.400 . S
C989 C990 1.398 . S
C990 H978 0.950 . S
C990 C989 1.398 . S
C990 C991 1.391 . S
C991 H979 0.950 . S
C991 C987 1.393 . S
C991 C990 1.391 . S
H992 C1000 0.950 . S
H993 C1005 0.950 . S
H994 C1002 0.950 . S
H995 C1004 0.950 . S
H996 C1006 0.950 1_455 S
H997 C1008 0.950 . S
H998 C1010 0.950 . S
H999 C1011 0.950 . S
C1000 H992 0.950 . S
C1000 C1001 1.386 . S
C1000 C1002 1.391 . S
C1001 C1000 1.386 . S
C1001 C1005 1.393 . S
C1002 H994 0.950 . S
C1002 C1000 1.391 . S
C1002 C1003 1.400 . S
C1003 C1002 1.400 . S
C1003 C1004 1.398 . S
C1003 C1009 1.491 . S
C1004 H995 0.950 . S
C1004 C1003 1.398 . S
C1004 C1005 1.391 . S
C1005 H993 0.950 . S
C1005 C1001 1.393 . S
C1005 C1004 1.391 . S
C1006 H996 0.950 1_655 S
C1006 C1007 1.386 . S
C1006 C1008 1.391 . S
C1007 C1006 1.386 . S
C1007 C1011 1.393 . S
C1008 H997 0.950 . S
C1008 C1006 1.391 . S
C1008 C1009 1.400 . S
C1009 C1003 1.491 . S
C1009 C1008 1.400 . S
C1009 C1010 1.398 . S
C1010 H998 0.950 . S
C1010 C1009 1.398 . S
C1010 C1011 1.391 . S
C1011 H999 0.950 . S
C1011 C1007 1.393 . S
C1011 C1010 1.391 . S
H1012 C1020 0.950 . S
H1013 C1025 0.950 . S
H1014 C1022 0.950 . S
H1015 C1024 0.950 . S
H1016 C1026 0.950 . S
H1017 C1028 0.950 . S
H1018 C1030 0.950 . S
H1019 C1031 0.950 . S
C1020 H1012 0.950 . S
C1020 C1021 1.386 . S
C1020 C1022 1.391 . S
C1021 C1020 1.386 . S
C1021 C1025 1.393 . S
C1022 H1014 0.950 . S
C1022 C1020 1.391 . S
C1022 C1023 1.400 . S
C1023 C1022 1.400 . S
C1023 C1024 1.398 . S
C1023 C1029 1.491 . S
C1024 H1015 0.950 . S
C1024 C1023 1.398 . S
C1024 C1025 1.391 . S
C1025 H1013 0.950 . S
C1025 C1021 1.393 . S
C1025 C1024 1.391 . S
C1026 H1016 0.950 . S
C1026 C1027 1.386 . S
C1026 C1028 1.391 . S
C1027 C1026 1.386 . S
C1027 C1031 1.393 . S
C1028 H1017 0.950 . S
C1028 C1026 1.391 . S
C1028 C1029 1.400 . S
C1029 C1023 1.491 . S
C1029 C1028 1.400 . S
C1029 C1030 1.398 . S
C1030 H1018 0.950 . S
C1030 C1029 1.398 . S
C1030 C1031 1.391 . S
C1031 H1019 0.950 . S
C1031 C1027 1.393 . S
C1031 C1030 1.391 . S
H1032 C1040 0.950 . S
H1033 C1045 0.950 . S
H1034 C1042 0.950 . S
H1035 C1044 0.950 . S
H1036 C1046 0.950 . S
H1037 C1048 0.950 . S
H1038 C1050 0.950 . S
H1039 C1051 0.950 . S
C1040 H1032 0.950 . S
C1040 C1041 1.386 . S
C1040 C1042 1.391 . S
C1041 C1040 1.386 . S
C1041 C1045 1.393 . S
C1042 H1034 0.950 . S
C1042 C1040 1.391 . S
C1042 C1043 1.400 . S
C1043 C1042 1.400 . S
C1043 C1044 1.398 . S
C1043 C1049 1.491 . S
C1044 H1035 0.950 . S
C1044 C1043 1.398 . S
C1044 C1045 1.391 . S
C1045 H1033 0.950 . S
C1045 C1041 1.393 . S
C1045 C1044 1.391 . S
C1046 H1036 0.950 . S
C1046 C1047 1.386 . S
C1046 C1048 1.391 . S
C1047 C1046 1.386 . S
C1047 C1051 1.393 . S
C1048 H1037 0.950 . S
C1048 C1046 1.391 . S
C1048 C1049 1.400 . S
C1049 C1043 1.491 . S
C1049 C1048 1.400 . S
C1049 C1050 1.398 . S
C1050 H1038 0.950 . S
C1050 C1049 1.398 . S
C1050 C1051 1.391 . S
C1051 H1039 0.950 . S
C1051 C1047 1.393 . S
C1051 C1050 1.391 . S
H1052 C1060 0.950 . S
H1053 C1065 0.950 . S
H1054 C1062 0.950 . S
H1055 C1064 0.950 . S
H1056 C1066 0.950 . S
H1057 C1068 0.950 . S
H1058 C1070 0.950 . S
H1059 C1071 0.950 . S
C1060 H1052 0.950 . S
C1060 C1061 1.386 . S
C1060 C1062 1.391 . S
C1061 C1060 1.386 . S
C1061 C1065 1.393 . S
C1062 H1054 0.950 . S
C1062 C1060 1.391 . S
C1062 C1063 1.400 . S
C1063 C1062 1.400 . S
C1063 C1064 1.398 . S
C1063 C1069 1.491 . S
C1064 H1055 0.950 . S
C1064 C1063 1.398 . S
C1064 C1065 1.391 . S
C1065 H1053 0.950 . S
C1065 C1061 1.393 . S
C1065 C1064 1.391 . S
C1066 H1056 0.950 . S
C1066 C1067 1.386 . S
C1066 C1068 1.391 . S
C1067 C1066 1.386 . S
C1067 C1071 1.393 . S
C1068 H1057 0.950 . S
C1068 C1066 1.391 . S
C1068 C1069 1.400 . S
C1069 C1063 1.491 . S
C1069 C1068 1.400 . S
C1069 C1070 1.398 . S
C1070 H1058 0.950 . S
C1070 C1069 1.398 . S
C1070 C1071 1.391 . S
C1071 H1059 0.950 . S
C1071 C1067 1.393 . S
C1071 C1070 1.391 . S
C601 C221 1.474 . S
C607 C330 1.480 . S
C627 C414 1.466 . S
C621 C241 1.453 . S
C647 C407 1.475 . S
C641 C157 1.465 . S
C661 C177 1.447 . S
C667 C323 1.487 . S
C687 C487 1.477 . S
C681 C93 1.446 . S
C707 C571 1.480 . S
C701 C113 1.476 . S
C721 C29 1.439 . S
C727 C564 1.481 . S
C741 C49 1.475 . S
C747 C480 1.479 . S
C767 C314 1.349 . S
C761 C61 1.503 . S
C787 C398 1.320 . S
C781 C17 1.459 . S
C807 C409 1.375 . S
C801 C125 1.524 . S
C827 C325 1.375 . S
C821 C81 1.488 . S
C847 C493 1.329 . S
C841 C189 1.450 . S
C861 C145 1.508 . S
C867 C577 1.329 . S
C887 C566 1.395 . S
C881 C253 1.490 . S
C901 C209 1.522 . S
C907 C482 1.409 . S
C927 C312 1.560 . S
C921 C23 1.499 . S
C947 C396 1.575 . S
C941 C55 1.566 . S
C961 C87 1.496 . S
C967 C403 1.535 . S
C987 C319 1.545 . S
C981 C119 1.542 . S
C1007 C491 1.556 . S
C1001 C151 1.550 . S
C1021 C183 1.512 . S
C1027 C575 1.575 . S
C1041 C215 1.536 . S
C1047 C582 1.540 . S
C1061 C247 1.495 . S
C1067 C498 1.547 . S
