# Generated by pormake.
# Topology zzz, (3,6)-cn, num edge types: 1
# Building blocks:
#     Node 0, Type 0, BuildingBlock: BELTOD_clean_linker_0, # of connection points: 3
#     Node 1, Type 0, BuildingBlock: BELTOD_clean_linker_0, # of connection points: 3
#     Node 2, Type 0, BuildingBlock: BELTOD_clean_linker_0, # of connection points: 3
#     Node 3, Type 0, BuildingBlock: BELTOD_clean_linker_0, # of connection points: 3
#     Node 4, Type 0, BuildingBlock: BELTOD_clean_linker_0, # of connection points: 3
#     Node 5, Type 0, BuildingBlock: BELTOD_clean_linker_0, # of connection points: 3
#     Node 6, Type 0, BuildingBlock: BELTOD_clean_linker_0, # of connection points: 3
#     Node 7, Type 0, BuildingBlock: BELTOD_clean_linker_0, # of connection points: 3
#     Node 8, Type 1, BuildingBlock: BETDEL_clean_sbu_0, # of connection points: 6
#     Node 9, Type 1, BuildingBlock: BETDEL_clean_sbu_0, # of connection points: 6
#     Node 10, Type 1, BuildingBlock: BETDEL_clean_sbu_0, # of connection points: 6
#     Node 11, Type 1, BuildingBlock: BETDEL_clean_sbu_0, # of connection points: 6
#     Edge 12, Type (0, 1), BuildingBlock: TEMPAE_clean_linker_10, # of connection points: 2
#     Edge 13, Type (0, 1), BuildingBlock: TEMPAE_clean_linker_10, # of connection points: 2
#     Edge 14, Type (0, 1), BuildingBlock: TEMPAE_clean_linker_10, # of connection points: 2
#     Edge 15, Type (0, 1), BuildingBlock: TEMPAE_clean_linker_10, # of connection points: 2
#     Edge 16, Type (0, 1), BuildingBlock: TEMPAE_clean_linker_10, # of connection points: 2
#     Edge 17, Type (0, 1), BuildingBlock: TEMPAE_clean_linker_10, # of connection points: 2
#     Edge 18, Type (0, 1), BuildingBlock: TEMPAE_clean_linker_10, # of connection points: 2
#     Edge 19, Type (0, 1), BuildingBlock: TEMPAE_clean_linker_10, # of connection points: 2
#     Edge 20, Type (0, 1), BuildingBlock: TEMPAE_clean_linker_10, # of connection points: 2
#     Edge 21, Type (0, 1), BuildingBlock: TEMPAE_clean_linker_10, # of connection points: 2
#     Edge 22, Type (0, 1), BuildingBlock: TEMPAE_clean_linker_10, # of connection points: 2
#     Edge 23, Type (0, 1), BuildingBlock: TEMPAE_clean_linker_10, # of connection points: 2
#     Edge 24, Type (0, 1), BuildingBlock: TEMPAE_clean_linker_10, # of connection points: 2
#     Edge 25, Type (0, 1), BuildingBlock: TEMPAE_clean_linker_10, # of connection points: 2
#     Edge 26, Type (0, 1), BuildingBlock: TEMPAE_clean_linker_10, # of connection points: 2
#     Edge 27, Type (0, 1), BuildingBlock: TEMPAE_clean_linker_10, # of connection points: 2
#     Edge 28, Type (0, 1), BuildingBlock: TEMPAE_clean_linker_10, # of connection points: 2
#     Edge 29, Type (0, 1), BuildingBlock: TEMPAE_clean_linker_10, # of connection points: 2
#     Edge 30, Type (0, 1), BuildingBlock: TEMPAE_clean_linker_10, # of connection points: 2
#     Edge 31, Type (0, 1), BuildingBlock: TEMPAE_clean_linker_10, # of connection points: 2
#     Edge 32, Type (0, 1), BuildingBlock: TEMPAE_clean_linker_10, # of connection points: 2
#     Edge 33, Type (0, 1), BuildingBlock: TEMPAE_clean_linker_10, # of connection points: 2
#     Edge 34, Type (0, 1), BuildingBlock: TEMPAE_clean_linker_10, # of connection points: 2
#     Edge 35, Type (0, 1), BuildingBlock: TEMPAE_clean_linker_10, # of connection points: 2
# Relax obj value: 0.314
# Max RMSD: 0.214
# Mean RMSD: 0.200
data_MOF--net-zzz--node1-BETDEL_clean_sbu_0--node2-BELTOD_clean_linker_0--edge1-TEMPAE_clean_linker_10
_symmetry_space_group_name_H-M    P1
_symmetry_Int_Tables_number       1
_symmetry_cell_setting            triclinic
loop_
_symmetry_equiv_pos_as_xyz
'x, y, z'
_cell_length_a     53.62361
_cell_length_b     53.355254
_cell_length_c     18.604243
_cell_angle_alpha  91.401962
_cell_angle_beta   89.181903
_cell_angle_gamma 95.941799
loop_
_atom_site_label
_atom_site_type_symbol
_atom_site_fract_x
_atom_site_fract_y
_atom_site_fract_z
_atom_type_partial_charge
P0 P 0.72611 0.42901 0.12029 0.0
H1 H 0.73228 0.4381 0.2758 0.0
H2 H 0.76792 0.45893 0.34263 0.0
H3 H 0.79956 0.49019 0.14579 0.0
H4 H 0.76386 0.4698 0.07935 0.0
H5 H 0.67864 0.4053 0.06686 0.0
H6 H 0.64811 0.41862 0.98343 0.0
H7 H 0.69085 0.49158 0.97022 0.0
H8 H 0.72128 0.4782 0.05447 0.0
H9 H 0.76325 0.39474 0.14899 0.0
H10 H 0.74029 0.43552 0.9682 0.0
O11 O 0.7128 0.40684 0.17442 0.0
H12 H 0.80242 0.38797 0.08616 0.0
H13 H 0.77941 0.42952 0.90628 0.0
C14 C 0.74536 0.45229 0.17244 0.0
C15 C 0.74626 0.45034 0.24741 0.0
C16 C 0.76668 0.4622 0.28561 0.0
C17 C 0.78657 0.47584 0.24902 0.0
C18 C 0.78449 0.47965 0.17507 0.0
C19 C 0.76394 0.46814 0.13721 0.0
C20 C 0.70206 0.44084 0.06777 0.0
C21 C 0.68117 0.42437 0.04737 0.0
C22 C 0.66371 0.432 0.99966 0.0
C23 C 0.66705 0.45617 0.97039 0.0
C24 C 0.68785 0.47281 0.99172 0.0
C25 C 0.70519 0.46522 0.04021 0.0
C26 C 0.74872 0.41542 0.06314 0.0
C27 C 0.76616 0.40132 0.09459 0.0
C28 C 0.78871 0.3978 0.05906 0.0
C29 C 0.79424 0.40853 0.99166 0.0
C30 C 0.77573 0.42076 0.95778 0.0
C31 C 0.75319 0.4242 0.99329 0.0
P32 P 0.01514 0.73202 0.1542 0.0
H33 H 0.02675 0.75019 0.29931 0.0
H34 H 0.00857 0.78175 0.37152 0.0
H35 H 0.94263 0.77325 0.2378 0.0
H36 H 0.96234 0.743 0.16174 0.0
H37 H 0.02186 0.67839 0.15304 0.0
H38 H 0.00719 0.64347 0.07162 0.0
H39 H 0.96016 0.69151 0.96507 0.0
H40 H 0.97404 0.72628 0.04849 0.0
H41 H 0.03798 0.78246 0.18999 0.0
H42 H 0.01458 0.74117 0.99604 0.0
O43 O 0.04115 0.72335 0.19031 0.0
H44 H 0.04365 0.8213 0.12349 0.0
H45 H 0.01859 0.78016 0.93025 0.0
C46 C 0.99609 0.74429 0.22457 0.0
C47 C 0.00796 0.75435 0.28691 0.0
C48 C 0.99734 0.77261 0.32868 0.0
C49 C 0.97419 0.78086 0.31 0.0
C50 C 0.96089 0.76825 0.25261 0.0
C51 C 0.97194 0.75043 0.20958 0.0
C52 C 0.99967 0.70523 0.10546 0.0
C53 C 0.00791 0.68135 0.11349 0.0
C54 C 0.99944 0.66133 0.06727 0.0
C55 C 0.98278 0.665 0.01201 0.0
C56 C 0.97307 0.68834 0.00737 0.0
C57 C 0.98107 0.70819 0.05491 0.0
C58 C 0.02436 0.75898 0.0993 0.0
C59 C 0.03382 0.78168 0.13321 0.0
C60 C 0.03696 0.80399 0.09512 0.0
C61 C 0.03074 0.80408 0.02202 0.0
C62 C 0.02331 0.78092 0.98671 0.0
C63 C 0.02049 0.75851 0.02487 0.0
P64 P 0.77666 0.06066 0.13308 0.0
H65 H 0.7606 0.06592 0.28284 0.0
H66 H 0.72553 0.04443 0.34864 0.0
H67 H 0.71612 0.98755 0.17918 0.0
H68 H 0.75126 0.00948 0.11287 0.0
H69 H 0.81222 0.08756 0.04004 0.0
H70 H 0.84548 0.07532 0.96186 0.0
H71 H 0.83523 1.00003 0.04629 0.0
H72 H 0.80055 0.01247 0.12258 0.0
H73 H 0.74157 0.09878 0.11606 0.0
H74 H 0.76385 0.03391 0.99832 0.0
O75 O 0.78515 0.0878 0.17691 0.0
H76 H 0.70938 0.10331 0.02599 0.0
H77 H 0.73193 0.03834 0.90887 0.0
C78 C 0.75867 0.03936 0.19275 0.0
C79 C 0.75171 0.0483 0.26089 0.0
C80 C 0.73151 0.03594 0.29866 0.0
C81 C 0.7177 0.01444 0.26877 0.0
C82 C 0.72609 0.00431 0.20322 0.0
C83 C 0.7464 0.01667 0.16559 0.0
C84 C 0.80413 0.05105 0.08771 0.0
C85 C 0.81741 0.06852 0.04283 0.0
C86 C 0.83664 0.06145 0.99817 0.0
C87 C 0.84345 0.03667 0.99783 0.0
C88 C 0.83043 0.01922 0.0445 0.0
C89 C 0.81077 0.02633 0.08881 0.0
C90 C 0.7553 0.06625 0.0632 0.0
C91 C 0.73987 0.08585 0.0702 0.0
C92 C 0.72157 0.08844 0.01882 0.0
C93 C 0.71824 0.07115 0.9607 0.0
C94 C 0.73406 0.05184 0.95338 0.0
C95 C 0.75238 0.04939 0.00428 0.0
P96 P 0.50439 0.76993 0.16404 0.0
H97 H 0.51281 0.76774 0.31896 0.0
H98 H 0.5321 0.7359 0.38436 0.0
H99 H 0.56617 0.71123 0.18659 0.0
H100 H 0.54796 0.74392 0.12258 0.0
H101 H 0.47639 0.80833 0.10819 0.0
H102 H 0.48745 0.84416 0.03142 0.0
H103 H 0.56459 0.82736 0.02599 0.0
H104 H 0.55323 0.79115 0.1032 0.0
H105 H 0.47308 0.72366 0.19375 0.0
H106 H 0.51371 0.75698 0.01226 0.0
O107 O 0.48099 0.77662 0.21903 0.0
H108 H 0.4678 0.68304 0.12915 0.0
H109 H 0.50889 0.71647 0.9479 0.0
C110 C 0.52842 0.75778 0.21557 0.0
C111 C 0.52547 0.75637 0.2903 0.0
C112 C 0.53629 0.7379 0.32753 0.0
C113 C 0.5498 0.72033 0.29013 0.0
C114 C 0.55573 0.72427 0.21714 0.0
C115 C 0.54527 0.74307 0.18029 0.0
C116 C 0.51405 0.79738 0.11243 0.0
C117 C 0.49578 0.81256 0.09154 0.0
C118 C 0.50216 0.83313 0.04781 0.0
C119 C 0.52698 0.83882 0.02335 0.0
C120 C 0.54533 0.82347 0.04411 0.0
C121 C 0.53889 0.80286 0.08846 0.0
C122 C 0.49333 0.74346 0.1073 0.0
C123 C 0.48005 0.72246 0.13896 0.0
C124 C 0.4774 0.69917 0.10245 0.0
C125 C 0.48813 0.69648 0.0337 0.0
C126 C 0.50015 0.71795 0.00046 0.0
C127 C 0.50282 0.74123 0.03713 0.0
P128 P 0.26648 0.46067 0.02884 0.0
H129 H 0.25881 0.44245 0.88006 0.0
H130 H 0.22756 0.45199 0.79377 0.0
H131 H 0.21204 0.51682 0.92441 0.0
H132 H 0.24432 0.50799 0.00781 0.0
H133 H 0.31137 0.43634 0.05772 0.0
H134 H 0.35019 0.4508 0.11733 0.0
H135 H 0.32856 0.52676 0.12565 0.0
H136 H 0.29091 0.51236 0.0577 0.0
H137 H 0.21797 0.4334 0.05846 0.0
H138 H 0.26314 0.4977 0.14997 0.0
O139 O 0.26653 0.42974 0.01271 0.0
H140 H 0.18168 0.44527 0.12792 0.0
H141 H 0.22679 0.50998 0.21618 0.0
C142 C 0.25355 0.47415 0.95139 0.0
C143 C 0.24947 0.45934 0.88858 0.0
C144 C 0.23123 0.46461 0.83974 0.0
C145 C 0.21649 0.48461 0.85339 0.0
C146 C 0.22281 0.50116 0.91198 0.0
C147 C 0.24139 0.4961 0.96007 0.0
C148 C 0.29774 0.47312 0.05523 0.0
C149 C 0.31521 0.45626 0.07045 0.0
C150 C 0.33737 0.46456 0.106 0.0
C151 C 0.34221 0.48982 0.12998 0.0
C152 C 0.32561 0.50712 0.10904 0.0
C153 C 0.30383 0.49887 0.07064 0.0
C154 C 0.24347 0.46451 0.0988 0.0
C155 C 0.2204 0.4495 0.09519 0.0
C156 C 0.19964 0.45637 0.1343 0.0
C157 C 0.20163 0.4786 0.17644 0.0
C158 C 0.22496 0.49279 0.1836 0.0
C159 C 0.24581 0.48567 0.14558 0.0
P160 P 0.10219 0.27489 0.01217 0.0
H161 H 0.12098 0.26517 0.86657 0.0
H162 H 0.10638 0.23174 0.78094 0.0
H163 H 0.03656 0.21935 0.89979 0.0
H164 H 0.05098 0.25321 0.98372 0.0
H165 H 0.12352 0.31072 0.11853 0.0
H166 H 0.10687 0.34467 0.18771 0.0
H167 H 0.0387 0.33393 0.06452 0.0
H168 H 0.05552 0.29955 0.99584 0.0
H169 H 0.11917 0.22518 0.00882 0.0
H170 H 0.07109 0.26695 0.14363 0.0
O171 O 0.133 0.28064 0.99736 0.0
H172 H 0.10215 0.18609 0.06573 0.0
H173 H 0.05466 0.228 0.20183 0.0
C174 C 0.08712 0.26175 0.93178 0.0
C175 C 0.10203 0.25619 0.87218 0.0
C176 C 0.09381 0.23671 0.82382 0.0
C177 C 0.07061 0.22233 0.83473 0.0
C178 C 0.05452 0.22999 0.88954 0.0
C179 C 0.06268 0.24963 0.93744 0.0
C180 C 0.0909 0.30279 0.05159 0.0
C181 C 0.10522 0.31605 0.10521 0.0
C182 C 0.09567 0.33554 0.1447 0.0
C183 C 0.07144 0.34211 0.13164 0.0
C184 C 0.05735 0.32919 0.07631 0.0
C185 C 0.06699 0.30962 0.03668 0.0
C186 C 0.09668 0.24904 0.07247 0.0
C187 C 0.10577 0.22611 0.05268 0.0
C188 C 0.09584 0.20379 0.08445 0.0
C189 C 0.077 0.20418 0.13743 0.0
C190 C 0.06925 0.22735 0.16113 0.0
C191 C 0.07881 0.24963 0.12822 0.0
P192 P 0.25718 0.04374 0.03859 0.0
H193 H 0.29577 0.07875 0.97757 0.0
H194 H 0.32834 0.07306 0.88836 0.0
H195 H 0.29068 0.00048 0.82705 0.0
H196 H 0.25751 0.00638 0.91726 0.0
H197 H 0.20915 0.063 0.01165 0.0
H198 H 0.16762 0.05083 0.06301 0.0
H199 H 0.19383 0.9824 0.13959 0.0
H200 H 0.2343 0.99384 0.08428 0.0
H201 H 0.27208 0.05625 0.18742 0.0
H202 H 0.28178 0.99721 0.02995 0.0
O203 O 0.25718 0.07391 0.06465 0.0
H204 H 0.29756 0.03579 0.27222 0.0
H205 H 0.30743 0.9771 0.11331 0.0
C206 C 0.27402 0.04309 0.95392 0.0
C207 C 0.29376 0.06203 0.94308 0.0
C208 C 0.31259 0.05867 0.89249 0.0
C209 C 0.31223 0.03618 0.8517 0.0
C210 C 0.29135 0.01803 0.85782 0.0
C211 C 0.27233 0.02145 0.90895 0.0
C212 C 0.22513 0.02972 0.04562 0.0
C213 C 0.20559 0.04486 0.0368 0.0
C214 C 0.18192 0.03805 0.06744 0.0
C215 C 0.17747 0.01606 0.10815 0.0
C216 C 0.19632 0.99954 0.10923 0.0
C217 C 0.2198 0.0062 0.07761 0.0
C218 C 0.27563 0.02868 0.10158 0.0
C219 C 0.27979 0.03902 0.17086 0.0
C220 C 0.29427 0.02729 0.21928 0.0
C221 C 0.30451 0.00488 0.19924 0.0
C222 C 0.2996 0.99421 0.13055 0.0
C223 C 0.28527 0.00598 0.08228 0.0
P224 P 0.41519 0.2304 0.97404 0.0
H225 H 0.40251 0.24129 0.82667 0.0
H226 H 0.42023 0.27584 0.75238 0.0
H227 H 0.48509 0.28651 0.88882 0.0
H228 H 0.46744 0.25177 0.96242 0.0
H229 H 0.39287 0.19836 0.08488 0.0
H230 H 0.40849 0.16619 0.15802 0.0
H231 H 0.47848 0.17386 0.03856 0.0
H232 H 0.4623 0.2056 0.96384 0.0
H233 H 0.39163 0.27684 0.96844 0.0
H234 H 0.44267 0.24405 0.10709 0.0
O235 O 0.38575 0.22209 0.94832 0.0
H236 H 0.40342 0.31826 0.02445 0.0
H237 H 0.45429 0.28516 0.16323 0.0
C238 C 0.43364 0.24378 0.90015 0.0
C239 C 0.42115 0.25009 0.8385 0.0
C240 C 0.43113 0.27017 0.79664 0.0
C241 C 0.45372 0.28431 0.81599 0.0
C242 C 0.46766 0.27598 0.87247 0.0
C243 C 0.45767 0.25583 0.91421 0.0
C244 C 0.42639 0.20433 0.019 0.0
C245 C 0.41143 0.19282 0.07363 0.0
C246 C 0.4205 0.17463 0.11594 0.0
C247 C 0.44487 0.16771 0.10481 0.0
C248 C 0.4596 0.17873 0.04833 0.0
C249 C 0.45042 0.19698 0.00578 0.0
C250 C 0.41588 0.25724 0.0344 0.0
C251 C 0.40449 0.27832 0.01308 0.0
C252 C 0.41153 0.30203 0.04424 0.0
C253 C 0.42995 0.30492 0.09759 0.0
C254 C 0.4399 0.28345 0.1226 0.0
C255 C 0.43308 0.25982 0.09084 0.0
Dy256 Dy 0.01458 0.98856 0.61591 0.0
C257 C 0.00527 0.04648 0.3672 0.0
C258 C 0.01617 0.9578 0.7304 0.0
Dy259 Dy 0.99849 0.01678 0.48433 0.0
O260 O 0.99637 0.96027 0.69299 0.0
O261 O 0.03504 0.97257 0.7062 0.0
O262 O 0.05455 0.992 0.57424 0.0
O263 O 0.02484 0.98947 0.50247 0.0
C264 C 0.04826 0.99315 0.50743 0.0
C265 C 0.96411 0.011 0.59004 0.0
O266 O 0.98793 0.97739 0.44409 0.0
O267 O 0.98915 0.95894 0.55604 0.0
O268 O 0.98391 0.04158 0.40082 0.0
O269 O 0.02232 0.03493 0.39712 0.0
O270 O 0.95828 0.01317 0.52279 0.0
O271 O 0.98751 0.01508 0.59731 0.0
O272 O 0.02186 0.02835 0.6588 0.0
O273 O 0.02215 0.04678 0.54723 0.0
C274 C 0.98303 0.95796 0.48702 0.0
C275 C 0.0269 0.04814 0.61705 0.0
Dy276 Dy 0.49357 0.98384 0.50691 0.0
C277 C 0.56999 0.05143 0.64288 0.0
C278 C 0.45067 0.95914 0.45277 0.0
Dy279 Dy 0.52919 0.02466 0.583 0.0
O280 O 0.47154 0.96383 0.4168 0.0
O281 O 0.45369 0.96726 0.51862 0.0
O282 O 0.5266 0.96403 0.46803 0.0
O283 O 0.53002 0.00346 0.48244 0.0
C284 C 0.54186 0.98472 0.46825 0.0
C285 C 0.48069 0.02468 0.6183 0.0
O286 O 0.52096 0.04639 0.48679 0.0
O287 O 0.48577 0.01971 0.45378 0.0
O288 O 0.54732 0.05039 0.66892 0.0
O289 O 0.57028 0.03806 0.58372 0.0
O290 O 0.49622 0.0451 0.61699 0.0
O291 O 0.49233 0.00556 0.60689 0.0
O292 O 0.50274 0.96131 0.59954 0.0
O293 O 0.53589 0.98923 0.64123 0.0
C294 C 0.50048 0.04119 0.44784 0.0
C295 C 0.52197 0.96711 0.64281 0.0
Dy296 Dy 0.50908 0.51686 0.60879 0.0
C297 C 0.50399 0.46179 0.33756 0.0
C298 C 0.50799 0.54105 0.7395 0.0
Dy299 Dy 0.51624 0.48616 0.46428 0.0
O300 O 0.48912 0.52744 0.71043 0.0
O301 O 0.52764 0.5408 0.69791 0.0
O302 O 0.47971 0.53763 0.55643 0.0
O303 O 0.48551 0.50116 0.52148 0.0
C304 C 0.47463 0.52023 0.50753 0.0
C305 C 0.55168 0.48318 0.56256 0.0
O306 O 0.52772 0.52592 0.4301 0.0
O307 O 0.53275 0.54514 0.54403 0.0
O308 O 0.52694 0.46733 0.35958 0.0
O309 O 0.48835 0.46984 0.38414 0.0
O310 O 0.54635 0.46581 0.51311 0.0
O311 O 0.54007 0.50204 0.551 0.0
O312 O 0.50324 0.47678 0.64593 0.0
O313 O 0.49669 0.45682 0.53412 0.0
C314 C 0.53498 0.54563 0.47283 0.0
C315 C 0.49665 0.4564 0.60528 0.0
Dy316 Dy 0.98689 0.47795 0.63217 0.0
C317 C 0.04294 0.52363 0.39923 0.0
C318 C 0.95598 0.46208 0.74329 0.0
Dy319 Dy 0.01095 0.50909 0.5091 0.0
O320 O 0.97056 0.44808 0.70778 0.0
O321 O 0.9588 0.48484 0.71916 0.0
O322 O 0.00431 0.4438 0.59064 0.0
O323 O 0.99403 0.47061 0.51879 0.0
C324 C 0.00497 0.45098 0.52429 0.0
C325 C 0.99274 0.53582 0.61716 0.0
O326 O 0.9723 0.50523 0.46586 0.0
O327 O 0.95345 0.48593 0.56679 0.0
O328 O 0.04226 0.53497 0.46169 0.0
O329 O 0.0252 0.50516 0.39592 0.0
O330 O 0.99305 0.54288 0.55061 0.0
O331 O 0.00411 0.51646 0.62281 0.0
O332 O 0.02531 0.48668 0.67717 0.0
O333 O 0.04347 0.49487 0.56555 0.0
C334 C 0.95217 0.49609 0.50252 0.0
C335 C 0.0454 0.49021 0.63482 0.0
C336 C 0.14568 0.03256 0.19293 0.0
C337 C 0.15498 0.01196 0.15672 0.0
C338 C 0.12689 0.02906 0.24616 0.0
C339 C 0.11747 0.00433 0.26527 0.0
C340 C 0.12608 0.98344 0.22758 0.0
C341 C 0.14446 0.98751 0.17324 0.0
C342 C 0.11812 0.05192 0.28436 0.0
C343 C 0.11676 0.95676 0.24695 0.0
C344 C 0.09186 0.99768 0.4565 0.0
C345 C 0.06593 0.99504 0.44545 0.0
C346 C 0.10882 0.99997 0.39816 0.0
C347 C 0.09961 0.00037 0.32718 0.0
C348 C 0.07342 0.99766 0.31581 0.0
C349 C 0.05692 0.99432 0.37494 0.0
C350 C 0.13661 0.00215 0.41254 0.0
C351 C 0.0628 0.99896 0.24142 0.0
H352 H 0.15383 0.05155 0.18224 0.0
H353 H 0.15106 0.97143 0.145 0.0
H354 H 0.09757 0.04943 0.29422 0.0
H355 H 0.12734 0.05461 0.33738 0.0
H356 H 0.12288 0.06933 0.25331 0.0
H357 H 0.12464 0.94258 0.2109 0.0
H358 H 0.122 0.95333 0.3031 0.0
H359 H 0.09601 0.95386 0.24437 0.0
H360 H 0.09892 0.99793 0.51086 0.0
H361 H 0.0369 0.99156 0.36594 0.0
H362 H 0.14538 0.02094 0.39639 0.0
H363 H 0.14561 0.98782 0.37992 0.0
H364 H 0.14068 0.99965 0.47016 0.0
H365 H 0.06996 0.01709 0.21679 0.0
H366 H 0.04198 0.99741 0.24202 0.0
H367 H 0.06904 0.98362 0.20645 0.0
C368 C 0.46869 0.13046 0.12655 0.0
C369 C 0.45493 0.14964 0.15368 0.0
C370 C 0.47741 0.11282 0.1725 0.0
C371 C 0.47222 0.11444 0.24726 0.0
C372 C 0.45876 0.13405 0.27505 0.0
C373 C 0.45036 0.15142 0.22801 0.0
C374 C 0.4917 0.09215 0.14094 0.0
C375 C 0.4529 0.13648 0.35443 0.0
C376 C 0.47061 0.05588 0.35974 0.0
C377 C 0.49362 0.05977 0.39548 0.0
C378 C 0.46363 0.07331 0.31051 0.0
C379 C 0.48006 0.09519 0.29642 0.0
C380 C 0.50345 0.09911 0.33152 0.0
C381 C 0.50993 0.08139 0.38079 0.0
C382 C 0.43844 0.06852 0.27458 0.0
C383 C 0.5215 0.12217 0.31759 0.0
H384 H 0.47215 0.12887 0.06915 0.0
H385 H 0.44018 0.1665 0.24957 0.0
H386 H 0.50997 0.09216 0.16818 0.0
H387 H 0.481 0.07355 0.15008 0.0
H388 H 0.4952 0.09419 0.08227 0.0
H389 H 0.44277 0.15317 0.3676 0.0
H390 H 0.44121 0.11934 0.37238 0.0
H391 H 0.47048 0.13801 0.38568 0.0
H392 H 0.45782 0.03928 0.3707 0.0
H393 H 0.5278 0.08451 0.40778 0.0
H394 H 0.44074 0.06956 0.21535 0.0
H395 H 0.42639 0.0833 0.29195 0.0
H396 H 0.42859 0.04983 0.28774 0.0
H397 H 0.52582 0.12352 0.25923 0.0
H398 H 0.53936 0.12195 0.34703 0.0
H399 H 0.51277 0.1394 0.33422 0.0
C400 C 0.37566 0.5218 0.18322 0.0
C401 C 0.36314 0.49729 0.18128 0.0
C402 C 0.39428 0.52904 0.23453 0.0
C403 C 0.40115 0.51115 0.28363 0.0
C404 C 0.38903 0.48631 0.28097 0.0
C405 C 0.36995 0.47988 0.23117 0.0
C406 C 0.40649 0.55583 0.23612 0.0
C407 C 0.39604 0.46644 0.33139 0.0
C408 C 0.46392 0.51706 0.37758 0.0
C409 C 0.45665 0.52149 0.44887 0.0
C410 C 0.44626 0.5148 0.32217 0.0
C411 C 0.42088 0.51796 0.33845 0.0
C412 C 0.41397 0.52478 0.40959 0.0
C413 C 0.43198 0.52636 0.46418 0.0
C414 C 0.45468 0.50823 0.24686 0.0
C415 C 0.38734 0.52932 0.42863 0.0
H416 H 0.37098 0.53543 0.14474 0.0
H417 H 0.36005 0.46115 0.2326 0.0
H418 H 0.40774 0.56347 0.29213 0.0
H419 H 0.42587 0.55627 0.21423 0.0
H420 H 0.39611 0.5684 0.20354 0.0
H421 H 0.38669 0.44741 0.31751 0.0
H422 H 0.41662 0.46555 0.3302 0.0
H423 H 0.39065 0.47144 0.38729 0.0
H424 H 0.48339 0.51501 0.36525 0.0
H425 H 0.42655 0.53044 0.51926 0.0
H426 H 0.45349 0.52455 0.21179 0.0
H427 H 0.44225 0.49217 0.22393 0.0
H428 H 0.4743 0.50326 0.24511 0.0
H429 H 0.38009 0.54203 0.38936 0.0
H430 H 0.38574 0.53772 0.48353 0.0
H431 H 0.37516 0.5112 0.42604 0.0
C432 C 0.03583 0.35637 0.20563 0.0
C433 C 0.06051 0.36102 0.17946 0.0
C434 C 0.02627 0.37242 0.25773 0.0
C435 C 0.04178 0.39358 0.2846 0.0
C436 C 0.0663 0.39901 0.2561 0.0
C437 C 0.07535 0.38271 0.20382 0.0
C438 C 0.99994 0.3661 0.28637 0.0
C439 C 0.0834 0.42138 0.28314 0.0
C440 C 0.01089 0.44374 0.39218 0.0
C441 C 0.01481 0.43675 0.46295 0.0
C442 C 0.01995 0.43018 0.33344 0.0
C443 C 0.03293 0.40893 0.34595 0.0
C444 C 0.03709 0.40194 0.41744 0.0
C445 C 0.02798 0.41596 0.47509 0.0
C446 C 0.01544 0.43843 0.25809 0.0
C447 C 0.05102 0.37952 0.43306 0.0
H448 H 0.02431 0.33954 0.1878 0.0
H449 H 0.0943 0.38666 0.18307 0.0
H450 H 1.00062 0.36095 0.34369 0.0
H451 H 0.98923 0.38276 0.28383 0.0
H452 H 0.98964 0.35017 0.25601 0.0
H453 H 0.10047 0.425 0.2489 0.0
H454 H 0.0734 0.43857 0.28548 0.0
H455 H 0.08932 0.41792 0.33862 0.0
H456 H 1.00045 0.45965 0.38262 0.0
H457 H 0.03111 0.41058 0.5298 0.0
H458 H 0.00398 0.42318 0.2283 0.0
H459 H 0.03354 0.442 0.2286 0.0
H460 H 0.00568 0.4558 0.25762 0.0
H461 H 0.04095 0.36214 0.40923 0.0
H462 H 0.05305 0.37685 0.49164 0.0
H463 H 0.06997 0.3819 0.40792 0.0
C464 C 0.86086 0.00551 0.91102 0.0
C465 C 0.86314 0.02928 0.94597 0.0
C466 C 0.87776 0.99967 0.85598 0.0
C467 C 0.89696 0.01824 0.83392 0.0
C468 C 0.89992 0.04187 0.87065 0.0
C469 C 0.88336 0.04688 0.92696 0.0
C470 C 0.87458 0.97391 0.81995 0.0
C471 C 0.91994 0.06236 0.84846 0.0
C472 C 0.95363 0.00469 0.7199 0.0
C473 C 0.94612 0.0106 0.65103 0.0
C474 C 0.93727 0.00557 0.77934 0.0
C475 C 0.91321 0.01367 0.77018 0.0
C476 C 0.90545 0.01938 0.70042 0.0
C477 C 0.92186 0.01734 0.64147 0.0
C478 C 0.94601 0.99845 0.85216 0.0
C479 C 0.88026 0.02878 0.68852 0.0
H480 H 0.84536 0.99173 0.92466 0.0
H481 H 0.88592 0.06498 0.95497 0.0
H482 H 0.86792 0.97548 0.76423 0.0
H483 H 0.89283 0.96584 0.81645 0.0
H484 H 0.86088 0.96063 0.84907 0.0
H485 H 0.91973 0.07973 0.88253 0.0
H486 H 0.93875 0.05561 0.85169 0.0
H487 H 0.91716 0.06727 0.79169 0.0
H488 H 0.97243 0.9996 0.72752 0.0
H489 H 0.91606 0.02206 0.58832 0.0
H490 H 0.93124 0.98582 0.87933 0.0
H491 H 0.94976 0.01562 0.88668 0.0
H492 H 0.96344 0.98886 0.84823 0.0
H493 H 0.86502 0.01517 0.70948 0.0
H494 H 0.87679 0.03181 0.63079 0.0
H495 H 0.87921 0.04688 0.7186 0.0
C496 C 0.54719 0.8567 0.91064 0.0
C497 C 0.53297 0.85998 0.9734 0.0
C498 C 0.54948 0.87511 0.85753 0.0
C499 C 0.53717 0.8972 0.86745 0.0
C500 C 0.52426 0.90134 0.93287 0.0
C501 C 0.52239 0.88272 0.98509 0.0
C502 C 0.56365 0.87013 0.78886 0.0
C503 C 0.51093 0.92466 0.9458 0.0
C504 C 0.54791 0.953 0.74295 0.0
C505 C 0.52722 0.94854 0.69725 0.0
C506 C 0.55197 0.93605 0.7973 0.0
C507 C 0.53483 0.9143 0.80644 0.0
C508 C 0.5143 0.90942 0.75937 0.0
C509 C 0.51081 0.9265 0.70534 0.0
C510 C 0.57422 0.94171 0.84598 0.0
C511 C 0.49549 0.8865 0.76742 0.0
H512 H 0.55536 0.83914 0.90114 0.0
H513 H 0.51181 0.88557 0.03418 0.0
H514 H 0.55014 0.86542 0.74473 0.0
H515 H 0.57594 0.88718 0.77314 0.0
H516 H 0.5753 0.85423 0.79392 0.0
H517 H 0.50407 0.92631 0.00217 0.0
H518 H 0.52356 0.94184 0.93332 0.0
H519 H 0.49462 0.92406 0.90951 0.0
H520 H 0.56078 0.96988 0.73693 0.0
H521 H 0.49479 0.92279 0.67042 0.0
H522 H 0.58506 0.92513 0.84805 0.0
H523 H 0.56764 0.94563 0.90152 0.0
H524 H 0.58693 0.95822 0.8281 0.0
H525 H 0.50519 0.86911 0.76543 0.0
H526 H 0.48106 0.88499 0.72485 0.0
H527 H 0.48589 0.88733 0.82053 0.0
C528 C 0.65918 0.47404 0.85056 0.0
C529 C 0.64967 0.46324 0.91459 0.0
C530 C 0.64316 0.47867 0.79444 0.0
C531 C 0.61695 0.47258 0.8028 0.0
C532 C 0.60716 0.4625 0.86831 0.0
C533 C 0.62365 0.45781 0.92326 0.0
C534 C 0.65435 0.48919 0.72515 0.0
C535 C 0.57931 0.45607 0.87967 0.0
C536 C 0.57414 0.50088 0.67239 0.0
C537 C 0.5684 0.48071 0.62382 0.0
C538 C 0.5896 0.49845 0.73163 0.0
C539 C 0.59995 0.47542 0.74153 0.0
C540 C 0.59433 0.45504 0.69217 0.0
C541 C 0.57852 0.45791 0.63411 0.0
C542 C 0.5949 0.52051 0.78345 0.0
C543 C 0.6051 0.43023 0.70048 0.0
H544 H 0.67929 0.47798 0.84325 0.0
H545 H 0.61621 0.44969 0.97295 0.0
H546 H 0.65046 0.47513 0.68072 0.0
H547 H 0.64558 0.50631 0.71097 0.0
H548 H 0.67496 0.49407 0.72849 0.0
H549 H 0.5746 0.45001 0.93537 0.0
H550 H 0.56918 0.47261 0.8682 0.0
H551 H 0.5723 0.44066 0.84176 0.0
H552 H 0.56664 0.51862 0.66387 0.0
H553 H 0.57409 0.44225 0.59664 0.0
H554 H 0.61524 0.52697 0.78275 0.0
H555 H 0.58983 0.51468 0.83906 0.0
H556 H 0.58438 0.53664 0.77018 0.0
H557 H 0.62588 0.43329 0.69996 0.0
H558 H 0.59905 0.41634 0.6571 0.0
H559 H 0.5992 0.42202 0.75301 0.0
C560 C 0.96725 0.62165 0.96703 0.0
C561 C 0.97877 0.64587 0.95356 0.0
C562 C 0.96613 0.60268 0.913 0.0
C563 C 0.97768 0.60793 0.84525 0.0
C564 C 0.98891 0.63257 0.83133 0.0
C565 C 0.98899 0.65133 0.88542 0.0
C566 C 0.95324 0.57689 0.92904 0.0
C567 C 0.00205 0.63882 0.76066 0.0
C568 C 0.00356 0.55503 0.73708 0.0
C569 C 0.98739 0.55246 0.6784 0.0
C570 C 1.00034 0.57273 0.79252 0.0
C571 C 0.97979 0.5874 0.79054 0.0
C572 C 0.96256 0.58375 0.73328 0.0
C573 C 0.96691 0.56669 0.67686 0.0
C574 C 0.01964 0.57662 0.85118 0.0
C575 C 0.93986 0.59823 0.73084 0.0
H576 H 0.95945 0.61752 0.02002 0.0
H577 H 0.99819 0.67003 0.87568 0.0
H578 H 0.94039 0.57014 0.88481 0.0
H579 H 0.9674 0.56324 0.93287 0.0
H580 H 0.94237 0.57682 0.98033 0.0
H581 H 0.00943 0.65902 0.75801 0.0
H582 H 0.01792 0.62719 0.75286 0.0
H583 H 0.98904 0.63426 0.71533 0.0
H584 H 0.01949 0.54405 0.73785 0.0
H585 H 0.95431 0.56443 0.63156 0.0
H586 H 0.01049 0.57407 0.90468 0.0
H587 H 0.02889 0.5962 0.84998 0.0
H588 H 0.03428 0.5634 0.8454 0.0
H589 H 0.92975 0.5973 0.78333 0.0
H590 H 0.92668 0.59089 0.68793 0.0
H591 H 0.94585 0.61837 0.72082 0.0
C592 C 0.05262 0.16252 0.11469 0.0
C593 C 0.06408 0.18034 0.16368 0.0
C594 C 0.04013 0.13977 0.13842 0.0
C595 C 0.0396 0.13462 0.21269 0.0
C596 C 0.05106 0.15268 0.26238 0.0
C597 C 0.06292 0.17552 0.23725 0.0
C598 C 0.02805 0.12102 0.08403 0.0
C599 C 0.05143 0.14758 0.34187 0.0
C600 C 0.99526 0.08477 0.30328 0.0
C601 C 0.01133 0.06616 0.31392 0.0
C602 C 0.00365 0.10663 0.26564 0.0
C603 C 0.0286 0.10974 0.23864 0.0
C604 C 0.04403 0.08992 0.24389 0.0
C605 C 0.0352 0.06839 0.28172 0.0
C606 C 0.98642 0.12707 0.25904 0.0
C607 C 0.07066 0.09205 0.21538 0.0
H608 H 0.05332 0.1665 0.05776 0.0
H609 H 0.07182 0.18939 0.27485 0.0
H610 H 0.03793 0.10373 0.0829 0.0
H611 H 0.00826 0.11537 0.09966 0.0
H612 H 0.02854 0.12867 0.02895 0.0
H613 H 0.0607 0.16379 0.37344 0.0
H614 H 0.03202 0.14328 0.36277 0.0
H615 H 0.06155 0.13083 0.3509 0.0
H616 H 0.97676 0.08299 0.32805 0.0
H617 H 0.04761 0.05389 0.28947 0.0
H618 H 0.98715 0.13431 0.20357 0.0
H619 H 0.99268 0.14309 0.29585 0.0
H620 H 0.96669 0.1203 0.2729 0.0
H621 H 0.07657 0.07317 0.20137 0.0
H622 H 0.08334 0.10083 0.2577 0.0
H623 H 0.07317 0.10384 0.16709 0.0
C624 C 0.32021 0.96729 0.2549 0.0
C625 C 0.32177 0.99352 0.24732 0.0
C626 C 0.33843 0.95619 0.29305 0.0
C627 C 0.35872 0.97174 0.32343 0.0
C628 C 0.35973 0.9983 0.3187 0.0
C629 C 0.34118 0.00885 0.28085 0.0
C630 C 0.33655 0.92786 0.29785 0.0
C631 C 0.38105 0.01555 0.35082 0.0
C632 C 0.40424 0.95496 0.46217 0.0
C633 C 0.42591 0.95401 0.41955 0.0
C634 C 0.38123 0.95824 0.4308 0.0
C635 C 0.38011 0.96065 0.35541 0.0
C636 C 0.40131 0.9568 0.31183 0.0
C637 C 0.42404 0.95341 0.3446 0.0
C638 C 0.35878 0.96153 0.47867 0.0
C639 C 0.40082 0.9591 0.23114 0.0
H640 H 0.30501 0.95541 0.22971 0.0
H641 H 0.34257 0.0291 0.27455 0.0
H642 H 0.35039 0.92038 0.26032 0.0
H643 H 0.34101 0.92218 0.35278 0.0
H644 H 0.31758 0.91893 0.28348 0.0
H645 H 0.37887 0.03579 0.34301 0.0
H646 H 0.38224 0.01234 0.4093 0.0
H647 H 0.39909 0.01131 0.32583 0.0
H648 H 0.40564 0.95517 0.52029 0.0
H649 H 0.44077 0.95249 0.31162 0.0
H650 H 0.36194 0.95637 0.53508 0.0
H651 H 0.34197 0.94985 0.45804 0.0
H652 H 0.35465 0.98148 0.4784 0.0
H653 H 0.41748 0.95199 0.20457 0.0
H654 H 0.40053 0.97922 0.21763 0.0
H655 H 0.38366 0.94857 0.20867 0.0
C656 C 0.44454 0.33534 0.19601 0.0
C657 C 0.44045 0.33032 0.12271 0.0
C658 C 0.45602 0.35875 0.22015 0.0
C659 C 0.46372 0.37754 0.1696 0.0
C660 C 0.45949 0.37266 0.09546 0.0
C661 C 0.44785 0.34907 0.07286 0.0
C662 C 0.45992 0.36335 0.29987 0.0
C663 C 0.46745 0.39223 0.04013 0.0
C664 C 0.47039 0.44174 0.25972 0.0
C665 C 0.49575 0.44422 0.27843 0.0
C666 C 0.46008 0.42116 0.21814 0.0
C667 C 0.47552 0.40244 0.19568 0.0
C668 C 0.50166 0.40606 0.20871 0.0
C669 C 0.51155 0.42709 0.25 0.0
C670 C 0.43221 0.41835 0.20472 0.0
C671 C 0.51876 0.38664 0.18479 0.0
H672 H 0.43872 0.3209 0.23454 0.0
H673 H 0.44509 0.34505 0.01595 0.0
H674 H 0.48014 0.36827 0.31084 0.0
H675 H 0.44992 0.37954 0.31868 0.0
H676 H 0.45306 0.34667 0.3319 0.0
H677 H 0.46208 0.3857 0.9848 0.0
H678 H 0.45883 0.40987 0.05283 0.0
H679 H 0.48808 0.39692 0.04147 0.0
H680 H 0.45816 0.455 0.28175 0.0
H681 H 0.53117 0.429 0.26456 0.0
H682 H 0.42272 0.40516 0.24412 0.0
H683 H 0.42793 0.41043 0.15009 0.0
H684 H 0.42415 0.43666 0.21088 0.0
H685 H 0.51547 0.36998 0.21958 0.0
H686 H 0.53885 0.39408 0.18831 0.0
H687 H 0.5147 0.38011 0.12871 0.0
C688 C 0.16507 0.47572 0.26085 0.0
C689 C 0.17894 0.48842 0.20629 0.0
C690 C 0.14306 0.4847 0.288 0.0
C691 C 0.13461 0.50655 0.25848 0.0
C692 C 0.14868 0.51941 0.20326 0.0
C693 C 0.17087 0.51026 0.17817 0.0
C694 C 0.12918 0.47106 0.34913 0.0
C695 C 0.14018 0.54263 0.17037 0.0
C696 C 0.06521 0.50973 0.28983 0.0
C697 C 0.06534 0.52487 0.35241 0.0
C698 C 0.08774 0.50501 0.25544 0.0
C699 C 0.11079 0.51551 0.28502 0.0
C700 C 0.11088 0.53236 0.34498 0.0
C701 C 0.08805 0.53702 0.37767 0.0
C702 C 0.08696 0.4874 0.19055 0.0
C703 C 0.13505 0.54376 0.37847 0.0
H704 H 0.17159 0.45891 0.28256 0.0
H705 H 0.18171 0.51988 0.13551 0.0
H706 H 0.13227 0.4825 0.39941 0.0
H707 H 0.10871 0.46862 0.33962 0.0
H708 H 0.13568 0.45225 0.3575 0.0
H709 H 0.15353 0.55066 0.12869 0.0
H710 H 0.12155 0.53795 0.14549 0.0
H711 H 0.13804 0.55728 0.2127 0.0
H712 H 0.04762 0.50034 0.27031 0.0
H713 H 0.08818 0.54862 0.42635 0.0
H714 H 0.0969 0.47074 0.20208 0.0
H715 H 0.09686 0.49703 0.14456 0.0
H716 H 0.06748 0.48076 0.17434 0.0
H717 H 0.14363 0.529 0.40778 0.0
H718 H 0.13197 0.55938 0.4171 0.0
H719 H 0.14869 0.55099 0.33662 0.0
C720 C 0.03791 0.83029 0.91173 0.0
C721 C 0.03053 0.82831 0.98418 0.0
C722 C 0.03601 0.85254 0.87438 0.0
C723 C 0.02683 0.87343 0.91058 0.0
C724 C 0.02004 0.87185 0.98417 0.0
C725 C 0.02178 0.84926 0.0199 0.0
C726 C 0.04329 0.85348 0.79569 0.0
C727 C 0.01036 0.89379 0.02473 0.0
C728 C 0.04042 0.93641 0.81974 0.0
C729 C 0.01795 0.93807 0.78354 0.0
C730 C 0.0433 0.91588 0.86358 0.0
C731 C 0.02333 0.89651 0.87038 0.0
C732 C 1.00029 0.8986 0.83586 0.0
C733 C 0.99784 0.91948 0.79315 0.0
C734 C 0.06797 0.9145 0.90063 0.0
C735 C 0.9786 0.87827 0.8415 0.0
H736 H 0.04504 0.81438 0.88397 0.0
H737 H 0.01558 0.84784 0.07548 0.0
H738 H 0.02678 0.85676 0.76324 0.0
H739 H 0.05786 0.86944 0.78642 0.0
H740 H 0.05058 0.8358 0.77583 0.0
H741 H 0.0076 0.89013 0.083 0.0
H742 H 0.02359 0.91103 0.01851 0.0
H743 H 0.99217 0.89773 0.00212 0.0
H744 H 0.05597 0.95083 0.81239 0.0
H745 H 0.98046 0.92073 0.76503 0.0
H746 H 0.07729 0.89842 0.87781 0.0
H747 H 0.06477 0.9111 0.95879 0.0
H748 H 0.08088 0.93201 0.89451 0.0
H749 H 0.98401 0.86044 0.81689 0.0
H750 H 0.9616 0.88334 0.81416 0.0
H751 H 0.97382 0.8746 0.89874 0.0
C752 C 0.68145 0.04997 0.89568 0.0
C753 C 0.69728 0.07199 0.91039 0.0
C754 C 0.66135 0.05007 0.84866 0.0
C755 C 0.65711 0.07274 0.81503 0.0
C756 C 0.6731 0.09506 0.82934 0.0
C757 C 0.69297 0.09447 0.8775 0.0
C758 C 0.6445 0.02592 0.83557 0.0
C759 C 0.66924 0.11945 0.79371 0.0
C760 C 0.61635 0.05975 0.65168 0.0
C761 C 0.59254 0.06193 0.68165 0.0
C762 C 0.63795 0.0652 0.69312 0.0
C763 C 0.6355 0.07277 0.76615 0.0
C764 C 0.61161 0.07678 0.79491 0.0
C765 C 0.59037 0.07137 0.75206 0.0
C766 C 0.66312 0.06096 0.66028 0.0
C767 C 0.60822 0.08474 0.87259 0.0
H768 H 0.68458 0.03267 0.92197 0.0
H769 H 0.70534 0.11146 0.88871 0.0
H770 H 0.62491 0.02868 0.85126 0.0
H771 H 0.64455 0.02067 0.7775 0.0
H772 H 0.65039 0.00996 0.86621 0.0
H773 H 0.6836 0.13503 0.80968 0.0
H774 H 0.66994 0.11683 0.73439 0.0
H775 H 0.65042 0.12508 0.80796 0.0
H776 H 0.61803 0.05258 0.59695 0.0
H777 H 0.57193 0.07315 0.77514 0.0
H778 H 0.6694 0.04343 0.6815 0.0
H779 H 0.67743 0.07671 0.67503 0.0
H780 H 0.66234 0.05906 0.60072 0.0
H781 H 0.61135 0.06886 0.90769 0.0
H782 H 0.5891 0.09025 0.88386 0.0
H783 H 0.62215 0.10078 0.88748 0.0
C784 C 0.48481 0.66766 0.92516 0.0
C785 C 0.48873 0.67114 0.99918 0.0
C786 C 0.48757 0.64441 0.89076 0.0
C787 C 0.49438 0.62411 0.93139 0.0
C788 C 0.49767 0.62725 0.00651 0.0
C789 C 0.49486 0.65076 0.0395 0.0
C790 C 0.48381 0.64179 0.8105 0.0
C791 C 0.50491 0.60606 0.05163 0.0
C792 C 0.48252 0.56091 0.83386 0.0
C793 C 0.50582 0.55899 0.80026 0.0
C794 C 0.47889 0.58124 0.88083 0.0
C795 C 0.49903 0.60005 0.89399 0.0
C796 C 0.52306 0.59714 0.86433 0.0
C797 C 0.52618 0.57656 0.81786 0.0
C798 C 0.45309 0.58348 0.9123 0.0
C799 C 0.54506 0.61669 0.8774 0.0
H800 H 0.47981 0.68324 0.89393 0.0
H801 H 0.49831 0.65342 0.09658 0.0
H802 H 0.50154 0.63755 0.78362 0.0
H803 H 0.46945 0.62583 0.79808 0.0
H804 H 0.47781 0.65914 0.78716 0.0
H805 H 0.5048 0.61094 0.11004 0.0
H806 H 0.49189 0.58879 0.04206 0.0
H807 H 0.52398 0.6015 0.03589 0.0
H808 H 0.46677 0.54726 0.82055 0.0
H809 H 0.54426 0.57505 0.79214 0.0
H810 H 0.44458 0.59884 0.88555 0.0
H811 H 0.45423 0.58844 0.97049 0.0
H812 H 0.44046 0.56575 0.9051 0.0
H813 H 0.54197 0.63423 0.84951 0.0
H814 H 0.563 0.61023 0.85741 0.0
H815 H 0.54682 0.62146 0.93558 0.0
C816 C 0.84075 0.41667 0.00606 0.0
C817 C 0.82012 0.41019 0.96118 0.0
C818 C 0.8649 0.42264 0.97724 0.0
C819 C 0.86843 0.42243 0.90174 0.0
C820 C 0.84799 0.4145 0.85636 0.0
C821 C 0.82411 0.40835 0.88667 0.0
C822 C 0.88626 0.43071 0.02748 0.0
C823 C 0.85099 0.41403 0.77551 0.0
C824 C 0.91806 0.46852 0.81684 0.0
C825 C 0.93578 0.45256 0.79312 0.0
C826 C 0.89647 0.45904 0.85463 0.0
C827 C 0.89269 0.43302 0.86966 0.0
C828 C 0.91126 0.41709 0.84948 0.0
C829 C 0.93259 0.42705 0.81095 0.0
C830 C 0.8771 0.47667 0.87515 0.0
C831 C 0.90809 0.38937 0.86583 0.0
H832 H 0.83787 0.4185 0.06365 0.0
H833 H 0.80833 0.40299 0.85179 0.0
H834 H 0.90325 0.42163 0.01132 0.0
H835 H 0.89107 0.45139 0.0247 0.0
H836 H 0.88139 0.426 0.08416 0.0
H837 H 0.83376 0.40553 0.74812 0.0
H838 H 0.85546 0.43355 0.75649 0.0
H839 H 0.86681 0.40324 0.75903 0.0
H840 H 0.92051 0.48826 0.80312 0.0
H841 H 0.94634 0.4147 0.79273 0.0
H842 H 0.87252 0.47543 0.93337 0.0
H843 H 0.85953 0.47103 0.84543 0.0
H844 H 0.88351 0.4966 0.86298 0.0
H845 H 0.90285 0.38657 0.9232 0.0
H846 H 0.92543 0.38021 0.85393 0.0
H847 H 0.89266 0.37972 0.83312 0.0
C848 C 0.08364 0.18131 0.78691 0.0
C849 C 0.06481 0.19759 0.79653 0.0
C850 C 0.07828 0.15694 0.7574 0.0
C851 C 0.05344 0.14845 0.73732 0.0
C852 C 0.03437 0.16483 0.74593 0.0
C853 C 0.04028 0.1892 0.77536 0.0
C854 C 0.09916 0.14009 0.74897 0.0
C855 C 0.00766 0.15646 0.72492 0.0
C856 C 0.04288 0.0935 0.60391 0.0
C857 C 0.03535 0.07329 0.64899 0.0
C858 C 0.04896 0.11797 0.63197 0.0
C859 C 0.04746 0.12245 0.70709 0.0
C860 C 0.04032 0.1021 0.75315 0.0
C861 C 0.03441 0.07773 0.72356 0.0
C862 C 0.05668 0.13909 0.58104 0.0
C863 C 0.03851 0.10616 0.8336 0.0
H864 H 0.10252 0.18732 0.80467 0.0
H865 H 0.02565 0.20166 0.7823 0.0
H866 H 0.09494 0.12313 0.78209 0.0
H867 H 0.10061 0.1335 0.69219 0.0
H868 H 0.11761 0.14978 0.76535 0.0
H869 H 0.99506 0.1715 0.73456 0.0
H870 H 0.00692 0.15078 0.66716 0.0
H871 H 1.00039 0.13972 0.75601 0.0
H872 H 0.0438 0.0903 0.54621 0.0
H873 H 0.02848 0.06229 0.75875 0.0
H874 H 0.07554 0.14826 0.59526 0.0
H875 H 0.04344 0.1537 0.58608 0.0
H876 H 0.05716 0.13241 0.52404 0.0
H877 H 0.05677 0.11471 0.85468 0.0
H878 H 0.03303 0.08834 0.8621 0.0
H879 H 0.02448 0.11954 0.84652 0.0
C880 C 0.35815 0.03297 0.84653 0.0
C881 C 0.33515 0.03082 0.81084 0.0
C882 C 0.3806 0.02981 0.80959 0.0
C883 C 0.3802 0.02457 0.73462 0.0
C884 C 0.35691 0.02155 0.69847 0.0
C885 C 0.33457 0.02459 0.73721 0.0
C886 C 0.40487 0.03274 0.85069 0.0
C887 C 0.35566 0.01621 0.61854 0.0
C888 C 0.44239 0.04628 0.64443 0.0
C889 C 0.45403 0.02395 0.64054 0.0
C890 C 0.41773 0.04644 0.67081 0.0
C891 C 0.40445 0.02374 0.69458 0.0
C892 C 0.41573 0.00091 0.68755 0.0
C893 C 0.44041 0.0013 0.66062 0.0
C894 C 0.40629 0.07111 0.67617 0.0
C895 C 0.40216 0.97629 0.71157 0.0
H896 H 0.35857 0.0374 0.90374 0.0
H897 H 0.31679 0.02294 0.70956 0.0
H898 H 0.41516 0.01593 0.84139 0.0
H899 H 0.41706 0.04932 0.83113 0.0
H900 H 0.40179 0.03531 0.90948 0.0
H901 H 0.36174 0.03378 0.58964 0.0
H902 H 0.36851 0.00206 0.60193 0.0
H903 H 0.33635 0.00932 0.60132 0.0
H904 H 0.45276 0.06379 0.62814 0.0
H905 H 0.44936 0.98399 0.65781 0.0
H906 H 0.40408 0.07669 0.73358 0.0
H907 H 0.38735 0.06902 0.65215 0.0
H908 H 0.41798 0.08653 0.64877 0.0
H909 H 0.39973 0.97681 0.77091 0.0
H910 H 0.41248 0.95992 0.69615 0.0
H911 H 0.38317 0.9734 0.6879 0.0
C912 C 0.44238 0.32624 0.77858 0.0
C913 C 0.46071 0.30948 0.78481 0.0
C914 C 0.44848 0.35061 0.75291 0.0
C915 C 0.47355 0.35848 0.73275 0.0
C916 C 0.49224 0.34177 0.73949 0.0
C917 C 0.48561 0.31746 0.76577 0.0
C918 C 0.42804 0.3679 0.74703 0.0
C919 C 0.51916 0.34948 0.71817 0.0
C920 C 0.48285 0.41026 0.5961 0.0
C921 C 0.49017 0.43166 0.63931 0.0
C922 C 0.47772 0.38639 0.62584 0.0
C923 C 0.47982 0.38371 0.70087 0.0
C924 C 0.4871 0.40515 0.74509 0.0
C925 C 0.49222 0.4289 0.71376 0.0
C926 C 0.46998 0.36402 0.57679 0.0
C927 C 0.48938 0.403 0.82544 0.0
H928 H 0.42323 0.32044 0.79512 0.0
H929 H 0.49984 0.30462 0.77083 0.0
H930 H 0.43313 0.38568 0.77798 0.0
H931 H 0.42597 0.37295 0.69008 0.0
H932 H 0.40964 0.35918 0.76721 0.0
H933 H 0.53159 0.33464 0.72913 0.0
H934 H 0.52034 0.35358 0.65997 0.0
H935 H 0.52628 0.36703 0.74771 0.0
H936 H 0.48121 0.41205 0.53851 0.0
H937 H 0.49799 0.44525 0.74757 0.0
H938 H 0.45096 0.35549 0.59215 0.0
H939 H 0.48299 0.34935 0.58265 0.0
H940 H 0.4698 0.36921 0.51934 0.0
H941 H 0.47096 0.3959 0.84901 0.0
H942 H 0.49588 0.42132 0.85211 0.0
H943 H 0.50273 0.38917 0.83772 0.0
C944 C 0.17761 0.46408 0.79384 0.0
C945 C 0.19283 0.48623 0.81295 0.0
C946 C 0.15411 0.46497 0.76232 0.0
C947 C 0.14526 0.48857 0.75035 0.0
C948 C 0.16063 0.51103 0.76809 0.0
C949 C 0.18425 0.5096 0.79882 0.0
C950 C 0.13843 0.44057 0.74367 0.0
C951 C 0.15185 0.53657 0.75613 0.0
C952 C 0.09187 0.49026 0.61865 0.0
C953 C 0.07086 0.48966 0.66484 0.0
C954 C 0.11617 0.49019 0.64569 0.0
C955 C 0.11967 0.48962 0.72087 0.0
C956 C 0.09859 0.4892 0.76787 0.0
C957 C 0.07444 0.48913 0.7393 0.0
C958 C 0.13807 0.4904 0.59366 0.0
C959 C 0.10156 0.48879 0.84841 0.0
H960 H 0.18363 0.44589 0.80585 0.0
H961 H 0.19588 0.52683 0.81256 0.0
H962 H 0.12102 0.43894 0.77692 0.0
H963 H 0.13273 0.44036 0.68654 0.0
H964 H 0.14856 0.4238 0.75264 0.0
H965 H 0.16627 0.55224 0.77098 0.0
H966 H 0.14693 0.53835 0.6989 0.0
H967 H 0.13463 0.53863 0.78863 0.0
H968 H 0.08936 0.49063 0.56099 0.0
H969 H 0.05838 0.48885 0.77543 0.0
H970 H 0.14699 0.47265 0.59782 0.0
H971 H 0.15249 0.50615 0.60737 0.0
H972 H 0.13235 0.49232 0.53706 0.0
H973 H 0.10993 0.47151 0.86335 0.0
H974 H 0.08341 0.48929 0.87768 0.0
H975 H 0.11455 0.50516 0.86671 0.0
C976 C 0.95405 0.82137 0.30123 0.0
C977 C 0.96629 0.80477 0.34284 0.0
C978 C 0.95132 0.84605 0.32571 0.0
C979 C 0.96209 0.85482 0.39175 0.0
C980 C 0.9728 0.83777 0.43633 0.0
C981 C 0.97407 0.8128 0.41225 0.0
C982 C 0.93836 0.86321 0.27855 0.0
C983 C 0.98481 0.84639 0.50689 0.0
C984 C 0.99063 0.9228 0.40372 0.0
C985 C 0.97511 0.93303 0.45518 0.0
C986 C 0.98628 0.89743 0.38173 0.0
C987 C 0.96525 0.88229 0.40978 0.0
C988 C 0.94854 0.89313 0.45822 0.0
C989 C 0.95411 0.91827 0.48209 0.0
C990 C 0.00503 0.88652 0.33169 0.0
C991 C 0.92525 0.87811 0.48665 0.0
H992 H 0.94786 0.81581 0.24753 0.0
H993 H 0.9825 0.8 0.44656 0.0
H994 H 0.92654 0.87512 0.31142 0.0
H995 H 0.95259 0.87597 0.24979 0.0
H996 H 0.92641 0.85239 0.23782 0.0
H997 H 0.99172 0.83063 0.53618 0.0
H998 H 0.00087 0.86078 0.49681 0.0
H999 H 0.97126 0.85534 0.54206 0.0
H1000 H 0.00709 0.93427 0.38405 0.0
H1001 H 0.94222 0.92631 0.52223 0.0
H1002 H 0.99563 0.87868 0.28217 0.0
H1003 H 0.01308 0.87081 0.35812 0.0
H1004 H 0.02062 0.90077 0.31597 0.0
H1005 H 0.91642 0.86521 0.44442 0.0
H1006 H 0.91126 0.8906 0.50706 0.0
H1007 H 0.93027 0.86648 0.53178 0.0
C1008 C 0.68964 0.00379 0.37604 0.0
C1009 C 0.69301 0.00487 0.30113 0.0
C1010 C 0.66565 0.99827 0.40695 0.0
C1011 C 0.64449 0.99381 0.36192 0.0
C1012 C 0.64791 0.99383 0.2863 0.0
C1013 C 0.67207 0.99932 0.25691 0.0
C1014 C 0.66284 0.99826 0.48782 0.0
C1015 C 0.62586 0.98942 0.23629 0.0
C1016 C 0.58097 0.96523 0.4328 0.0
C1017 C 0.56839 0.98676 0.44405 0.0
C1018 C 0.606 0.9672 0.40783 0.0
C1019 C 0.6186 0.99127 0.39338 0.0
C1020 C 0.60602 0.01307 0.4058 0.0
C1021 C 0.58111 0.01053 0.4309 0.0
C1022 C 0.61884 0.94355 0.39594 0.0
C1023 C 0.61867 0.03909 0.3911 0.0
H1024 H 0.70572 0.00782 0.41063 0.0
H1025 H 0.67433 0.00053 0.19907 0.0
H1026 H 0.65291 0.01455 0.50618 0.0
H1027 H 0.65133 0.98092 0.5051 0.0
H1028 H 0.68123 0.99951 0.5151 0.0
H1029 H 0.63181 0.98816 0.17898 0.0
H1030 H 0.61413 0.97178 0.2499 0.0
H1031 H 0.6139 0.00511 0.24286 0.0
H1032 H 0.57121 0.94682 0.44318 0.0
H1033 H 0.57141 0.02724 0.43897 0.0
H1034 H 0.63674 0.94508 0.42571 0.0
H1035 H 0.62352 0.9412 0.33804 0.0
H1036 H 0.60698 0.92643 0.41349 0.0
H1037 H 0.63624 0.0426 0.42218 0.0
H1038 H 0.6065 0.05414 0.40533 0.0
H1039 H 0.62386 0.04049 0.33327 0.0
C1040 C 0.57444 0.68314 0.30729 0.0
C1041 C 0.55315 0.69569 0.32251 0.0
C1042 C 0.57572 0.65828 0.32944 0.0
C1043 C 0.55519 0.64575 0.36736 0.0
C1044 C 0.53402 0.65859 0.38467 0.0
C1045 C 0.53325 0.68329 0.36196 0.0
C1046 C 0.59865 0.6452 0.31051 0.0
C1047 C 0.5117 0.64593 0.42512 0.0
C1048 C 0.53879 0.57503 0.36953 0.0
C1049 C 0.54456 0.56987 0.44057 0.0
C1050 C 0.54389 0.59945 0.34283 0.0
C1051 C 0.55515 0.61903 0.38821 0.0
C1052 C 0.56283 0.61342 0.45792 0.0
C1053 C 0.55735 0.58893 0.48336 0.0
C1054 C 0.53543 0.60468 0.26807 0.0
C1055 C 0.5751 0.63367 0.50772 0.0
H1056 H 0.5899 0.6926 0.27694 0.0
H1057 H 0.51641 0.69246 0.37241 0.0
H1058 H 0.60607 0.63712 0.35923 0.0
H1059 H 0.59351 0.62931 0.27218 0.0
H1060 H 0.61375 0.65813 0.28573 0.0
H1061 H 0.49702 0.65881 0.43612 0.0
H1062 H 0.50324 0.62937 0.39353 0.0
H1063 H 0.51775 0.63896 0.47712 0.0
H1064 H 0.52895 0.5604 0.33611 0.0
H1065 H 0.56222 0.585 0.53801 0.0
H1066 H 0.55038 0.61632 0.23861 0.0
H1067 H 0.51885 0.61551 0.27181 0.0
H1068 H 0.53022 0.58705 0.23634 0.0
H1069 H 0.58998 0.64566 0.47899 0.0
H1070 H 0.58344 0.62562 0.5552 0.0
H1071 H 0.56089 0.64605 0.52712 0.0
C1072 C 0.83244 0.47312 0.25652 0.0
C1073 C 0.81086 0.48251 0.28514 0.0
C1074 C 0.85532 0.47685 0.29272 0.0
C1075 C 0.85678 0.49081 0.35852 0.0
C1076 C 0.8352 0.50111 0.38647 0.0
C1077 C 0.81234 0.49649 0.34992 0.0
C1078 C 0.87766 0.46503 0.26183 0.0
C1079 C 0.83619 0.51662 0.45548 0.0
C1080 C 0.90804 0.47707 0.48623 0.0
C1081 C 0.92731 0.49583 0.46893 0.0
C1082 C 0.88486 0.47546 0.45143 0.0
C1083 C 0.88061 0.49347 0.39946 0.0
C1084 C 0.89968 0.51303 0.3838 0.0
C1085 C 0.92295 0.51377 0.418 0.0
C1086 C 0.86526 0.45393 0.46841 0.0
C1087 C 0.89563 0.53295 0.33012 0.0
H1088 H 0.83118 0.46194 0.20696 0.0
H1089 H 0.79561 0.50372 0.37195 0.0
H1090 H 0.89367 0.47964 0.25398 0.0
H1091 H 0.88372 0.45129 0.30012 0.0
H1092 H 0.87349 0.45511 0.20949 0.0
H1093 H 0.8184 0.52503 0.46674 0.0
H1094 H 0.83998 0.50465 0.50117 0.0
H1095 H 0.85176 0.532 0.45288 0.0
H1096 H 0.91138 0.46306 0.52523 0.0
H1097 H 0.93773 0.52845 0.40502 0.0
H1098 H 0.86124 0.44205 0.41931 0.0
H1099 H 0.84748 0.46128 0.48571 0.0
H1100 H 0.87129 0.44185 0.51135 0.0
H1101 H 0.89346 0.52422 0.27555 0.0
H1102 H 0.91147 0.5481 0.32871 0.0
H1103 H 0.8781 0.54154 0.34332 0.0
loop_
_geom_bond_atom_site_label_1
_geom_bond_atom_site_label_2
_geom_bond_distance
_geom_bond_site_symmetry_2
_ccdc_geom_bond_type
P0 O11 1.490 . S
P0 C14 1.812 . S
P0 C20 1.803 . S
P0 C26 1.819 1_554 S
H1 C15 0.941 . S
H2 C16 0.939 . S
H3 C18 0.940 . S
H4 C19 0.940 . S
H5 C21 0.939 . S
H6 C22 0.942 . S
H7 C24 0.940 . S
H8 C25 0.939 . S
H9 C27 0.941 . S
H10 C31 0.939 . S
O11 P0 1.490 . S
H12 C28 0.939 . S
H13 C30 0.940 . S
C14 P0 1.812 . S
C14 C15 1.389 . S
C14 C19 1.391 . S
C15 H1 0.941 . S
C15 C14 1.389 . S
C15 C16 1.397 . S
C16 H2 0.939 . S
C16 C15 1.397 . S
C16 C17 1.378 . S
C17 C16 1.378 . S
C17 C18 1.378 . S
C18 H3 0.940 . S
C18 C17 1.378 . S
C18 C19 1.396 . S
C19 H4 0.940 . S
C19 C14 1.391 . S
C19 C18 1.396 . S
C20 P0 1.803 . S
C20 C21 1.378 1_554 S
C20 C25 1.400 . S
C21 H5 0.939 . S
C21 C20 1.378 1_556 S
C21 C22 1.361 . S
C22 H6 0.942 . S
C22 C21 1.361 . S
C22 C23 1.369 . S
C23 C22 1.369 . S
C23 C24 1.404 1_556 S
C24 H7 0.940 . S
C24 C23 1.404 1_554 S
C24 C25 1.389 . S
C25 H8 0.939 . S
C25 C20 1.400 . S
C25 C24 1.389 . S
C26 P0 1.819 1_556 S
C26 C27 1.391 . S
C26 C31 1.391 . S
C27 H9 0.941 . S
C27 C26 1.391 . S
C27 C28 1.396 . S
C28 H12 0.939 . S
C28 C27 1.396 . S
C28 C29 1.397 . S
C29 C28 1.397 . S
C29 C30 1.385 . S
C30 H13 0.940 . S
C30 C29 1.385 . S
C30 C31 1.388 . S
C31 H10 0.939 . S
C31 C26 1.391 . S
C31 C30 1.388 . S
P32 O43 1.490 . S
P32 C46 1.812 . S
P32 C52 1.803 1_554 S
P32 C58 1.819 1_554 S
H33 C47 0.941 . S
H34 C48 0.939 . S
H35 C50 0.940 . S
H36 C51 0.940 . S
H37 C53 0.939 . S
H38 C54 0.942 . S
H39 C56 0.940 1_554 S
H40 C57 0.939 . S
H41 C59 0.941 . S
H42 C63 0.939 . S
O43 P32 1.490 . S
H44 C60 0.939 . S
H45 C62 0.940 . S
C46 P32 1.812 . S
C46 C47 1.389 . S
C46 C51 1.391 . S
C47 H33 0.941 . S
C47 C46 1.389 . S
C47 C48 1.397 . S
C48 H34 0.939 . S
C48 C47 1.397 . S
C48 C49 1.378 . S
C49 C48 1.378 . S
C49 C50 1.378 . S
C50 H35 0.940 . S
C50 C49 1.378 . S
C50 C51 1.396 . S
C51 H36 0.940 . S
C51 C46 1.391 . S
C51 C50 1.396 . S
C52 P32 1.803 1_556 S
C52 C53 1.378 . S
C52 C57 1.400 1_556 S
C53 H37 0.939 . S
C53 C52 1.378 . S
C53 C54 1.361 . S
C54 H38 0.942 . S
C54 C53 1.361 . S
C54 C55 1.369 . S
C55 C54 1.369 . S
C55 C56 1.404 . S
C56 H39 0.940 1_556 S
C56 C55 1.404 . S
C56 C57 1.389 1_556 S
C57 H40 0.939 . S
C57 C52 1.400 1_554 S
C57 C56 1.389 1_554 S
C58 P32 1.819 1_556 S
C58 C59 1.391 . S
C58 C63 1.391 . S
C59 H41 0.941 . S
C59 C58 1.391 . S
C59 C60 1.396 . S
C60 H44 0.939 . S
C60 C59 1.396 . S
C60 C61 1.397 . S
C61 C60 1.397 . S
C61 C62 1.385 . S
C62 H45 0.940 . S
C62 C61 1.385 . S
C62 C63 1.388 . S
C63 H42 0.939 . S
C63 C58 1.391 . S
C63 C62 1.388 . S
P64 O75 1.490 . S
P64 C78 1.812 . S
P64 C84 1.803 . S
P64 C90 1.819 1_554 S
H65 C79 0.941 . S
H66 C80 0.939 . S
H67 C82 0.940 . S
H68 C83 0.950 . S
H69 C85 0.939 . S
H70 C86 0.942 . S
H71 C88 0.940 . S
H72 C89 0.958 . S
H73 C91 0.941 1_554 S
H74 C95 0.926 1_565 S
O75 P64 1.490 . S
H76 C92 0.939 . S
H77 C94 0.940 . S
C78 P64 1.812 . S
C78 C79 1.389 . S
C78 C83 1.376 1_545 S
C79 H65 0.941 . S
C79 C78 1.389 . S
C79 C80 1.397 . S
C80 H66 0.939 . S
C80 C79 1.397 . S
C80 C81 1.378 . S
C81 C80 1.378 . S
C81 C82 1.378 1_545 S
C82 H67 0.940 . S
C82 C81 1.378 1_565 S
C82 C83 1.402 . S
C83 H68 0.950 . S
C83 C78 1.376 1_565 S
C83 C82 1.402 . S
C84 P64 1.803 . S
C84 C85 1.378 1_554 S
C84 C89 1.367 1_545 S
C85 H69 0.939 . S
C85 C84 1.378 1_556 S
C85 C86 1.361 . S
C86 H70 0.942 . S
C86 C85 1.361 . S
C86 C87 1.369 . S
C87 C86 1.369 . S
C87 C88 1.404 1_546 S
C88 H71 0.940 . S
C88 C87 1.404 1_564 S
C88 C89 1.405 . S
C89 H72 0.958 . S
C89 C84 1.367 1_565 S
C89 C88 1.405 . S
C90 P64 1.819 1_556 S
C90 C91 1.391 . S
C90 C95 1.391 . S
C91 H73 0.941 1_556 S
C91 C90 1.391 . S
C91 C92 1.396 . S
C92 H76 0.939 . S
C92 C91 1.396 . S
C92 C93 1.397 . S
C93 C92 1.397 . S
C93 C94 1.385 1_545 S
C94 H77 0.940 . S
C94 C93 1.385 1_565 S
C94 C95 1.388 1_565 S
C95 H74 0.926 1_545 S
C95 C90 1.391 . S
C95 C94 1.388 1_545 S
P96 O107 1.490 . S
P96 C110 1.812 . S
P96 C116 1.803 . S
P96 C122 1.830 . S
H97 C111 0.941 . S
H98 C112 0.939 . S
H99 C114 0.940 . S
H100 C115 0.940 . S
H101 C117 0.939 1_556 S
H102 C118 0.942 . S
H103 C120 0.940 . S
H104 C121 0.939 . S
H105 C123 0.941 1_554 S
H106 C127 0.939 . S
O107 P96 1.490 . S
H108 C124 0.939 . S
H109 C126 0.940 . S
C110 P96 1.812 . S
C110 C111 1.389 . S
C110 C115 1.391 . S
C111 H97 0.941 . S
C111 C110 1.389 . S
C111 C112 1.397 . S
C112 H98 0.939 . S
C112 C111 1.397 . S
C112 C113 1.378 . S
C113 C112 1.378 . S
C113 C114 1.378 . S
C114 H99 0.940 . S
C114 C113 1.378 . S
C114 C115 1.396 . S
C115 H100 0.940 . S
C115 C110 1.391 . S
C115 C114 1.396 . S
C116 P96 1.803 . S
C116 C117 1.378 . S
C116 C121 1.400 . S
C117 H101 0.939 1_554 S
C117 C116 1.378 . S
C117 C118 1.361 1_554 S
C118 H102 0.942 . S
C118 C117 1.361 1_556 S
C118 C119 1.369 1_556 S
C119 C118 1.369 1_554 S
C119 C120 1.404 . S
C120 H103 0.940 . S
C120 C119 1.404 . S
C120 C121 1.389 . S
C121 H104 0.939 . S
C121 C116 1.400 . S
C121 C120 1.389 . S
C122 P96 1.830 . S
C122 C123 1.391 1_554 S
C122 C127 1.381 1_554 S
C123 H105 0.941 1_556 S
C123 C122 1.391 1_556 S
C123 C124 1.396 . S
C124 H108 0.939 . S
C124 C123 1.396 . S
C124 C125 1.397 . S
C125 C124 1.397 . S
C125 C126 1.385 . S
C126 H109 0.940 . S
C126 C125 1.385 . S
C126 C127 1.388 . S
C127 H106 0.939 . S
C127 C122 1.381 1_556 S
C127 C126 1.388 . S
P128 O139 1.490 . S
P128 C142 1.812 . S
P128 C148 1.803 . S
P128 C154 1.819 . S
H129 C143 0.941 . S
H130 C144 0.939 . S
H131 C146 0.940 . S
H132 C147 0.940 1_554 S
H133 C149 0.939 . S
H134 C150 0.942 . S
H135 C152 0.940 . S
H136 C153 0.939 . S
H137 C155 0.941 . S
H138 C159 0.939 . S
O139 P128 1.490 . S
H140 C156 0.939 . S
H141 C158 0.940 . S
C142 P128 1.812 . S
C142 C143 1.389 1_554 S
C142 C147 1.391 1_554 S
C143 H129 0.941 . S
C143 C142 1.389 1_556 S
C143 C144 1.397 . S
C144 H130 0.939 . S
C144 C143 1.397 . S
C144 C145 1.378 . S
C145 C144 1.378 . S
C145 C146 1.378 . S
C146 H131 0.940 . S
C146 C145 1.378 . S
C146 C147 1.396 . S
C147 H132 0.940 1_556 S
C147 C142 1.391 1_556 S
C147 C146 1.396 . S
C148 P128 1.803 . S
C148 C149 1.378 . S
C148 C153 1.400 . S
C149 H133 0.939 . S
C149 C148 1.378 . S
C149 C150 1.361 . S
C150 H134 0.942 . S
C150 C149 1.361 . S
C150 C151 1.369 . S
C151 C150 1.369 . S
C151 C152 1.404 . S
C152 H135 0.940 . S
C152 C151 1.404 . S
C152 C153 1.389 . S
C153 H136 0.939 . S
C153 C148 1.400 . S
C153 C152 1.389 . S
C154 P128 1.819 . S
C154 C155 1.391 . S
C154 C159 1.391 . S
C155 H137 0.941 . S
C155 C154 1.391 . S
C155 C156 1.396 . S
C156 H140 0.939 . S
C156 C155 1.396 . S
C156 C157 1.397 . S
C157 C156 1.397 . S
C157 C158 1.385 . S
C158 H141 0.940 . S
C158 C157 1.385 . S
C158 C159 1.388 . S
C159 H138 0.939 . S
C159 C154 1.391 . S
C159 C158 1.388 . S
P160 O171 1.490 . S
P160 C174 1.812 . S
P160 C180 1.803 . S
P160 C186 1.819 . S
H161 C175 0.941 . S
H162 C176 0.939 . S
H163 C178 0.940 . S
H164 C179 0.940 . S
H165 C181 0.939 . S
H166 C182 0.942 . S
H167 C184 0.940 . S
H168 C185 0.939 . S
H169 C187 0.941 . S
H170 C191 0.939 . S
O171 P160 1.490 . S
H172 C188 0.939 . S
H173 C190 0.940 . S
C174 P160 1.812 . S
C174 C175 1.389 1_554 S
C174 C179 1.391 . S
C175 H161 0.941 . S
C175 C174 1.389 1_556 S
C175 C176 1.397 . S
C176 H162 0.939 . S
C176 C175 1.397 . S
C176 C177 1.378 . S
C177 C176 1.378 . S
C177 C178 1.378 . S
C178 H163 0.940 . S
C178 C177 1.378 . S
C178 C179 1.396 1_556 S
C179 H164 0.940 . S
C179 C174 1.391 . S
C179 C178 1.396 1_554 S
C180 P160 1.803 . S
C180 C181 1.378 . S
C180 C185 1.400 . S
C181 H165 0.939 . S
C181 C180 1.378 . S
C181 C182 1.361 . S
C182 H166 0.942 . S
C182 C181 1.361 . S
C182 C183 1.369 . S
C183 C182 1.369 . S
C183 C184 1.404 . S
C184 H167 0.940 . S
C184 C183 1.404 . S
C184 C185 1.389 . S
C185 H168 0.939 . S
C185 C180 1.400 . S
C185 C184 1.389 . S
C186 P160 1.819 . S
C186 C187 1.391 . S
C186 C191 1.391 . S
C187 H169 0.941 . S
C187 C186 1.391 . S
C187 C188 1.396 . S
C188 H172 0.939 . S
C188 C187 1.396 . S
C188 C189 1.397 . S
C189 C188 1.397 . S
C189 C190 1.385 . S
C190 H173 0.940 . S
C190 C189 1.385 . S
C190 C191 1.388 . S
C191 H170 0.939 . S
C191 C186 1.391 . S
C191 C190 1.388 . S
P192 O203 1.490 . S
P192 C206 1.812 1_554 S
P192 C212 1.803 . S
P192 C218 1.819 . S
H193 C207 0.941 . S
H194 C208 0.939 . S
H195 C210 0.940 . S
H196 C211 0.944 1_554 S
H197 C213 0.939 . S
H198 C214 0.942 . S
H199 C216 0.940 . S
H200 C217 0.954 . S
H201 C219 0.941 . S
H202 C223 0.935 1_565 S
O203 P192 1.490 . S
H204 C220 0.939 . S
H205 C222 0.940 . S
C206 P192 1.812 1_556 S
C206 C207 1.389 . S
C206 C211 1.384 1_545 S
C207 H193 0.941 . S
C207 C206 1.389 . S
C207 C208 1.397 . S
C208 H194 0.939 . S
C208 C207 1.397 . S
C208 C209 1.378 . S
C209 C208 1.378 . S
C209 C210 1.378 1_545 S
C210 H195 0.940 . S
C210 C209 1.378 1_565 S
C210 C211 1.399 . S
C211 H196 0.944 1_556 S
C211 C206 1.384 1_565 S
C211 C210 1.399 . S
C212 P192 1.803 . S
C212 C213 1.378 . S
C212 C217 1.379 1_545 S
C213 H197 0.939 . S
C213 C212 1.378 . S
C213 C214 1.361 . S
C214 H198 0.942 . S
C214 C213 1.361 . S
C214 C215 1.369 . S
C215 C214 1.369 . S
C215 C216 1.404 1_545 S
C216 H199 0.940 . S
C216 C215 1.404 1_565 S
C216 C217 1.396 . S
C217 H200 0.954 . S
C217 C212 1.379 1_565 S
C217 C216 1.396 . S
C218 P192 1.819 . S
C218 C219 1.391 . S
C218 C223 1.391 . S
C219 H201 0.941 . S
C219 C218 1.391 . S
C219 C220 1.396 . S
C220 H204 0.939 . S
C220 C219 1.396 . S
C220 C221 1.397 . S
C221 C220 1.397 . S
C221 C222 1.385 1_545 S
C222 H205 0.940 . S
C222 C221 1.385 1_565 S
C222 C223 1.388 1_565 S
C223 H202 0.935 1_545 S
C223 C218 1.391 . S
C223 C222 1.388 1_545 S
P224 O235 1.490 . S
P224 C238 1.812 1_554 S
P224 C244 1.803 . S
P224 C250 1.819 . S
H225 C239 0.941 . S
H226 C240 0.939 . S
H227 C242 0.940 . S
H228 C243 0.940 1_554 S
H229 C245 0.939 . S
H230 C246 0.942 . S
H231 C248 0.940 . S
H232 C249 0.939 . S
H233 C251 0.941 . S
H234 C255 0.939 . S
O235 P224 1.490 . S
H236 C252 0.939 . S
H237 C254 0.940 . S
C238 P224 1.812 1_556 S
C238 C239 1.389 . S
C238 C243 1.391 . S
C239 H225 0.941 . S
C239 C238 1.389 . S
C239 C240 1.397 . S
C240 H226 0.939 . S
C240 C239 1.397 . S
C240 C241 1.378 . S
C241 C240 1.378 . S
C241 C242 1.378 . S
C242 H227 0.940 . S
C242 C241 1.378 . S
C242 C243 1.396 . S
C243 H228 0.940 1_556 S
C243 C238 1.391 . S
C243 C242 1.396 . S
C244 P224 1.803 . S
C244 C245 1.378 . S
C244 C249 1.400 . S
C245 H229 0.939 . S
C245 C244 1.378 . S
C245 C246 1.361 . S
C246 H230 0.942 . S
C246 C245 1.361 . S
C246 C247 1.369 . S
C247 C246 1.369 . S
C247 C248 1.404 . S
C248 H231 0.940 . S
C248 C247 1.404 . S
C248 C249 1.389 . S
C249 H232 0.939 . S
C249 C244 1.400 . S
C249 C248 1.389 . S
C250 P224 1.819 . S
C250 C251 1.391 . S
C250 C255 1.391 . S
C251 H233 0.941 . S
C251 C250 1.391 . S
C251 C252 1.396 . S
C252 H236 0.939 . S
C252 C251 1.396 . S
C252 C253 1.397 . S
C253 C252 1.397 . S
C253 C254 1.385 . S
C254 H237 0.940 . S
C254 C253 1.385 . S
C254 C255 1.388 . S
C255 H234 0.939 . S
C255 C250 1.391 . S
C255 C254 1.388 . S
Dy256 O260 2.398 . S
Dy256 O261 2.491 1_455 S
Dy256 O262 2.403 . S
Dy256 O263 2.664 1_565 S
Dy256 O267 2.326 . S
Dy256 O271 2.310 1_455 S
Dy256 O272 2.351 1_565 S
C257 O268 1.185 1_455 S
C257 O269 1.355 . S
C258 O260 1.185 . S
C258 O261 1.355 1_455 S
Dy259 O263 2.310 1_655 S
Dy259 O266 2.351 1_545 S
Dy259 O268 2.398 . S
Dy259 O269 2.491 1_655 S
Dy259 O270 2.403 . S
Dy259 O271 2.664 1_545 S
Dy259 O273 2.326 1_655 S
O260 Dy256 2.398 . S
O260 C258 1.185 . S
O261 Dy256 2.491 1_655 S
O261 C258 1.355 1_655 S
O262 Dy256 2.403 . S
O262 C264 1.254 . S
O263 Dy256 2.664 1_545 S
O263 Dy259 2.310 1_455 S
O263 C264 1.268 1_545 S
C264 O262 1.254 . S
C264 O263 1.268 1_565 S
C265 O270 1.254 . S
C265 O271 1.268 1_545 S
O266 Dy259 2.351 1_565 S
O266 C274 1.249 . S
O267 Dy256 2.326 . S
O267 C274 1.267 1_455 S
O268 C257 1.185 1_655 S
O268 Dy259 2.398 . S
O269 C257 1.355 . S
O269 Dy259 2.491 1_455 S
O270 Dy259 2.403 . S
O270 C265 1.254 . S
O271 Dy256 2.310 1_655 S
O271 Dy259 2.664 1_565 S
O271 C265 1.268 1_565 S
O272 Dy256 2.351 1_545 S
O272 C275 1.249 . S
O273 Dy259 2.326 1_455 S
O273 C275 1.267 . S
C274 O266 1.249 . S
C274 O267 1.267 1_655 S
C275 O272 1.249 . S
C275 O273 1.267 . S
Dy276 O280 2.398 . S
Dy276 O281 2.491 . S
Dy276 O282 2.403 . S
Dy276 O283 2.664 . S
Dy276 O287 2.326 1_565 S
Dy276 O291 2.310 1_565 S
Dy276 O292 2.351 . S
C277 O288 1.185 . S
C277 O289 1.355 . S
C278 O280 1.185 . S
C278 O281 1.355 . S
Dy279 O283 2.310 1_545 S
Dy279 O286 2.351 . S
Dy279 O288 2.398 . S
Dy279 O289 2.491 . S
Dy279 O290 2.403 . S
Dy279 O291 2.664 . S
Dy279 O293 2.326 1_545 S
O280 Dy276 2.398 . S
O280 C278 1.185 . S
O281 Dy276 2.491 . S
O281 C278 1.355 . S
O282 Dy276 2.403 . S
O282 C284 1.254 . S
O283 Dy276 2.664 . S
O283 Dy279 2.310 1_565 S
O283 C284 1.268 . S
C284 O282 1.254 . S
C284 O283 1.268 . S
C285 O290 1.254 . S
C285 O291 1.268 . S
O286 Dy279 2.351 . S
O286 C294 1.249 . S
O287 Dy276 2.326 1_545 S
O287 C294 1.267 . S
O288 C277 1.185 . S
O288 Dy279 2.398 . S
O289 C277 1.355 . S
O289 Dy279 2.491 . S
O290 Dy279 2.403 . S
O290 C285 1.254 . S
O291 Dy276 2.310 1_545 S
O291 Dy279 2.664 . S
O291 C285 1.268 . S
O292 Dy276 2.351 . S
O292 C295 1.249 . S
O293 Dy279 2.326 1_565 S
O293 C295 1.267 . S
C294 O286 1.249 . S
C294 O287 1.267 . S
C295 O292 1.249 . S
C295 O293 1.267 . S
Dy296 O300 2.398 . S
Dy296 O301 2.491 . S
Dy296 O302 2.403 . S
Dy296 O303 2.664 . S
Dy296 O307 2.326 . S
Dy296 O311 2.310 . S
Dy296 O312 2.351 . S
C297 O308 1.185 . S
C297 O309 1.355 . S
C298 O300 1.185 . S
C298 O301 1.355 . S
Dy299 O303 2.310 . S
Dy299 O306 2.351 . S
Dy299 O308 2.398 . S
Dy299 O309 2.491 . S
Dy299 O310 2.403 . S
Dy299 O311 2.664 . S
Dy299 O313 2.326 . S
O300 Dy296 2.398 . S
O300 C298 1.185 . S
O301 Dy296 2.491 . S
O301 C298 1.355 . S
O302 Dy296 2.403 . S
O302 C304 1.254 . S
O303 Dy296 2.664 . S
O303 Dy299 2.310 . S
O303 C304 1.268 . S
C304 O302 1.254 . S
C304 O303 1.268 . S
C305 O310 1.254 . S
C305 O311 1.268 . S
O306 Dy299 2.351 . S
O306 C314 1.249 . S
O307 Dy296 2.326 . S
O307 C314 1.267 . S
O308 C297 1.185 . S
O308 Dy299 2.398 . S
O309 C297 1.355 . S
O309 Dy299 2.491 . S
O310 Dy299 2.403 . S
O310 C305 1.254 . S
O311 Dy296 2.310 . S
O311 Dy299 2.664 . S
O311 C305 1.268 . S
O312 Dy296 2.351 . S
O312 C315 1.249 . S
O313 Dy299 2.326 . S
O313 C315 1.267 . S
C314 O306 1.249 . S
C314 O307 1.267 . S
C315 O312 1.249 . S
C315 O313 1.267 . S
Dy316 O320 2.398 . S
Dy316 O321 2.491 . S
Dy316 O322 2.403 1_655 S
Dy316 O323 2.664 1_655 S
Dy316 O327 2.326 . S
Dy316 O331 2.310 . S
Dy316 O332 2.351 1_655 S
C317 O328 1.185 . S
C317 O329 1.355 . S
C318 O320 1.185 . S
C318 O321 1.355 . S
Dy319 O323 2.310 . S
Dy319 O326 2.351 1_455 S
Dy319 O328 2.398 . S
Dy319 O329 2.491 . S
Dy319 O330 2.403 . S
Dy319 O331 2.664 1_455 S
Dy319 O333 2.326 . S
O320 Dy316 2.398 . S
O320 C318 1.185 . S
O321 Dy316 2.491 . S
O321 C318 1.355 . S
O322 Dy316 2.403 1_455 S
O322 C324 1.254 . S
O323 Dy316 2.664 1_455 S
O323 Dy319 2.310 . S
O323 C324 1.268 . S
C324 O322 1.254 . S
C324 O323 1.268 . S
C325 O330 1.254 1_655 S
C325 O331 1.268 . S
O326 Dy319 2.351 1_655 S
O326 C334 1.249 . S
O327 Dy316 2.326 . S
O327 C334 1.267 . S
O328 C317 1.185 . S
O328 Dy319 2.398 . S
O329 C317 1.355 . S
O329 Dy319 2.491 . S
O330 Dy319 2.403 . S
O330 C325 1.254 1_455 S
O331 Dy316 2.310 . S
O331 Dy319 2.664 1_655 S
O331 C325 1.268 . S
O332 Dy316 2.351 1_455 S
O332 C335 1.249 . S
O333 Dy319 2.326 . S
O333 C335 1.267 . S
C334 O326 1.249 . S
C334 O327 1.267 . S
C335 O332 1.249 . S
C335 O333 1.267 . S
C336 C337 1.391 . S
C336 C338 1.394 . S
C336 H352 0.931 . S
C337 C336 1.391 . S
C337 C341 1.376 1_545 S
C338 C336 1.394 . S
C338 C339 1.369 . S
C338 C342 1.531 . S
C339 C338 1.369 . S
C339 C340 1.410 1_545 S
C339 C347 1.503 . S
C340 C339 1.410 1_565 S
C340 C341 1.392 . S
C340 C343 1.511 . S
C341 C337 1.376 1_565 S
C341 C340 1.392 . S
C341 H353 0.929 . S
C342 C338 1.531 . S
C342 H354 0.960 . S
C342 H355 0.962 . S
C342 H356 0.960 . S
C343 C340 1.511 . S
C343 H357 0.961 . S
C343 H358 0.961 . S
C343 H359 0.961 . S
C344 C345 1.370 . S
C344 C346 1.363 . S
C344 H360 0.931 . S
C345 C344 1.370 . S
C345 C349 1.408 1_565 S
C346 C344 1.363 . S
C346 C347 1.370 1_565 S
C346 C350 1.524 . S
C347 C339 1.503 . S
C347 C346 1.370 1_545 S
C347 C348 1.403 . S
C348 C347 1.403 . S
C348 C349 1.404 . S
C348 C351 1.539 . S
C349 C345 1.408 1_545 S
C349 C348 1.404 . S
C349 H361 0.930 . S
C350 C346 1.524 . S
C350 H362 0.956 . S
C350 H363 0.961 . S
C350 H364 0.961 . S
C351 C348 1.539 . S
C351 H365 0.958 . S
C351 H366 0.961 . S
C351 H367 0.960 . S
H352 C336 0.931 . S
H353 C341 0.929 . S
H354 C342 0.960 . S
H355 C342 0.962 . S
H356 C342 0.960 . S
H357 C343 0.961 . S
H358 C343 0.961 . S
H359 C343 0.961 . S
H360 C344 0.931 . S
H361 C349 0.930 . S
H362 C350 0.956 . S
H363 C350 0.961 . S
H364 C350 0.961 . S
H365 C351 0.958 . S
H366 C351 0.961 . S
H367 C351 0.960 . S
C368 C369 1.391 . S
C368 C370 1.394 . S
C368 H384 0.931 . S
C369 C368 1.391 . S
C369 C373 1.376 . S
C370 C368 1.394 . S
C370 C371 1.369 . S
C370 C374 1.531 . S
C371 C370 1.369 . S
C371 C372 1.410 . S
C371 C379 1.503 . S
C372 C371 1.410 . S
C372 C373 1.392 . S
C372 C375 1.511 . S
C373 C369 1.376 . S
C373 C372 1.392 . S
C373 H385 0.929 . S
C374 C370 1.531 . S
C374 H386 0.960 . S
C374 H387 0.962 . S
C374 H388 0.960 . S
C375 C372 1.511 . S
C375 H389 0.961 . S
C375 H390 0.961 . S
C375 H391 0.961 . S
C376 C377 1.370 . S
C376 C378 1.363 . S
C376 H392 0.931 . S
C377 C376 1.370 . S
C377 C381 1.408 . S
C378 C376 1.363 . S
C378 C379 1.370 . S
C378 C382 1.524 . S
C379 C371 1.503 . S
C379 C378 1.370 . S
C379 C380 1.403 . S
C380 C379 1.403 . S
C380 C381 1.404 . S
C380 C383 1.539 . S
C381 C377 1.408 . S
C381 C380 1.404 . S
C381 H393 0.930 . S
C382 C378 1.524 . S
C382 H394 0.956 . S
C382 H395 0.961 . S
C382 H396 0.961 . S
C383 C380 1.539 . S
C383 H397 0.958 . S
C383 H398 0.961 . S
C383 H399 0.960 . S
H384 C368 0.931 . S
H385 C373 0.929 . S
H386 C374 0.960 . S
H387 C374 0.962 . S
H388 C374 0.960 . S
H389 C375 0.961 . S
H390 C375 0.961 . S
H391 C375 0.961 . S
H392 C376 0.931 . S
H393 C381 0.930 . S
H394 C382 0.956 . S
H395 C382 0.961 . S
H396 C382 0.961 . S
H397 C383 0.958 . S
H398 C383 0.961 . S
H399 C383 0.960 . S
C400 C401 1.391 . S
C400 C402 1.394 . S
C400 H416 0.931 . S
C401 C400 1.391 . S
C401 C405 1.376 . S
C402 C400 1.394 . S
C402 C403 1.369 . S
C402 C406 1.531 . S
C403 C402 1.369 . S
C403 C404 1.410 . S
C403 C411 1.503 . S
C404 C403 1.410 . S
C404 C405 1.392 . S
C404 C407 1.511 . S
C405 C401 1.376 . S
C405 C404 1.392 . S
C405 H417 0.929 . S
C406 C402 1.531 . S
C406 H418 0.960 . S
C406 H419 0.962 . S
C406 H420 0.960 . S
C407 C404 1.511 . S
C407 H421 0.961 . S
C407 H422 0.961 . S
C407 H423 0.961 . S
C408 C409 1.370 . S
C408 C410 1.363 . S
C408 H424 0.931 . S
C409 C408 1.370 . S
C409 C413 1.408 . S
C410 C408 1.363 . S
C410 C411 1.370 . S
C410 C414 1.524 . S
C411 C403 1.503 . S
C411 C410 1.370 . S
C411 C412 1.403 . S
C412 C411 1.403 . S
C412 C413 1.404 . S
C412 C415 1.539 . S
C413 C409 1.408 . S
C413 C412 1.404 . S
C413 H425 0.930 . S
C414 C410 1.524 . S
C414 H426 0.956 . S
C414 H427 0.961 . S
C414 H428 0.961 . S
C415 C412 1.539 . S
C415 H429 0.958 . S
C415 H430 0.961 . S
C415 H431 0.960 . S
H416 C400 0.931 . S
H417 C405 0.929 . S
H418 C406 0.960 . S
H419 C406 0.962 . S
H420 C406 0.960 . S
H421 C407 0.961 . S
H422 C407 0.961 . S
H423 C407 0.961 . S
H424 C408 0.931 . S
H425 C413 0.930 . S
H426 C414 0.956 . S
H427 C414 0.961 . S
H428 C414 0.961 . S
H429 C415 0.958 . S
H430 C415 0.961 . S
H431 C415 0.960 . S
C432 C433 1.391 . S
C432 C434 1.394 . S
C432 H448 0.931 . S
C433 C432 1.391 . S
C433 C437 1.376 . S
C434 C432 1.394 . S
C434 C435 1.369 . S
C434 C438 1.531 . S
C435 C434 1.369 . S
C435 C436 1.410 . S
C435 C443 1.503 . S
C436 C435 1.410 . S
C436 C437 1.392 . S
C436 C439 1.511 . S
C437 C433 1.376 . S
C437 C436 1.392 . S
C437 H449 0.929 . S
C438 C434 1.531 . S
C438 H450 0.960 . S
C438 H451 0.962 . S
C438 H452 0.960 . S
C439 C436 1.511 . S
C439 H453 0.961 . S
C439 H454 0.961 . S
C439 H455 0.961 . S
C440 C441 1.370 . S
C440 C442 1.363 . S
C440 H456 0.931 . S
C441 C440 1.370 . S
C441 C445 1.408 . S
C442 C440 1.363 . S
C442 C443 1.370 . S
C442 C446 1.524 . S
C443 C435 1.503 . S
C443 C442 1.370 . S
C443 C444 1.403 . S
C444 C443 1.403 . S
C444 C445 1.404 . S
C444 C447 1.539 . S
C445 C441 1.408 . S
C445 C444 1.404 . S
C445 H457 0.930 . S
C446 C442 1.524 . S
C446 H458 0.956 . S
C446 H459 0.961 . S
C446 H460 0.961 . S
C447 C444 1.539 . S
C447 H461 0.958 . S
C447 H462 0.961 . S
C447 H463 0.960 . S
H448 C432 0.931 . S
H449 C437 0.929 . S
H450 C438 0.960 . S
H451 C438 0.962 . S
H452 C438 0.960 . S
H453 C439 0.961 . S
H454 C439 0.961 . S
H455 C439 0.961 . S
H456 C440 0.931 . S
H457 C445 0.930 . S
H458 C446 0.956 . S
H459 C446 0.961 . S
H460 C446 0.961 . S
H461 C447 0.958 . S
H462 C447 0.961 . S
H463 C447 0.960 . S
C464 C465 1.367 1_565 S
C464 C466 1.394 . S
C464 H480 0.931 . S
C465 C464 1.367 1_545 S
C465 C469 1.399 . S
C466 C464 1.394 . S
C466 C467 1.369 1_565 S
C466 C470 1.531 . S
C467 C466 1.369 1_545 S
C467 C468 1.410 . S
C467 C475 1.503 . S
C468 C467 1.410 . S
C468 C469 1.392 . S
C468 C471 1.511 . S
C469 C465 1.399 . S
C469 C468 1.392 . S
C469 H481 0.929 . S
C470 C466 1.531 . S
C470 H482 0.960 . S
C470 H483 0.962 . S
C470 H484 0.960 . S
C471 C468 1.511 . S
C471 H485 0.961 . S
C471 H486 0.961 . S
C471 H487 0.961 . S
C472 C473 1.370 . S
C472 C474 1.363 . S
C472 H488 0.931 . S
C473 C472 1.370 . S
C473 C477 1.408 . S
C474 C472 1.363 . S
C474 C475 1.370 . S
C474 C478 1.524 . S
C475 C467 1.503 . S
C475 C474 1.370 . S
C475 C476 1.403 . S
C476 C475 1.403 . S
C476 C477 1.404 . S
C476 C479 1.539 . S
C477 C473 1.408 . S
C477 C476 1.404 . S
C477 H489 0.930 . S
C478 C474 1.524 . S
C478 H490 0.956 1_545 S
C478 H491 0.961 . S
C478 H492 0.961 . S
C479 C476 1.539 . S
C479 H493 0.958 1_545 S
C479 H494 0.961 . S
C479 H495 0.960 . S
H480 C464 0.931 . S
H481 C469 0.929 . S
H482 C470 0.960 . S
H483 C470 0.962 . S
H484 C470 0.960 . S
H485 C471 0.961 . S
H486 C471 0.961 . S
H487 C471 0.961 . S
H488 C472 0.931 . S
H489 C477 0.930 . S
H490 C478 0.956 1_565 S
H491 C478 0.961 . S
H492 C478 0.961 . S
H493 C479 0.958 1_565 S
H494 C479 0.961 . S
H495 C479 0.960 . S
C496 C497 1.391 . S
C496 C498 1.394 . S
C496 H512 0.931 . S
C497 C496 1.391 . S
C497 C501 1.376 . S
C498 C496 1.394 . S
C498 C499 1.369 . S
C498 C502 1.531 . S
C499 C498 1.369 . S
C499 C500 1.410 . S
C499 C507 1.503 . S
C500 C499 1.410 . S
C500 C501 1.392 . S
C500 C503 1.511 . S
C501 C497 1.376 . S
C501 C500 1.392 . S
C501 H513 0.929 1_556 S
C502 C498 1.531 . S
C502 H514 0.960 . S
C502 H515 0.962 . S
C502 H516 0.960 . S
C503 C500 1.511 . S
C503 H517 0.961 . S
C503 H518 0.961 . S
C503 H519 0.961 . S
C504 C505 1.370 . S
C504 C506 1.363 . S
C504 H520 0.931 . S
C505 C504 1.370 . S
C505 C509 1.408 . S
C506 C504 1.363 . S
C506 C507 1.370 . S
C506 C510 1.524 . S
C507 C499 1.503 . S
C507 C506 1.370 . S
C507 C508 1.403 . S
C508 C507 1.403 . S
C508 C509 1.404 . S
C508 C511 1.539 . S
C509 C505 1.408 . S
C509 C508 1.404 . S
C509 H521 0.930 . S
C510 C506 1.524 . S
C510 H522 0.956 . S
C510 H523 0.961 . S
C510 H524 0.961 . S
C511 C508 1.539 . S
C511 H525 0.958 . S
C511 H526 0.961 . S
C511 H527 0.960 . S
H512 C496 0.931 . S
H513 C501 0.929 1_554 S
H514 C502 0.960 . S
H515 C502 0.962 . S
H516 C502 0.960 . S
H517 C503 0.961 . S
H518 C503 0.961 . S
H519 C503 0.961 . S
H520 C504 0.931 . S
H521 C509 0.930 . S
H522 C510 0.956 . S
H523 C510 0.961 . S
H524 C510 0.961 . S
H525 C511 0.958 . S
H526 C511 0.961 . S
H527 C511 0.960 . S
C528 C529 1.391 . S
C528 C530 1.394 . S
C528 H544 0.931 . S
C529 C528 1.391 . S
C529 C533 1.376 . S
C530 C528 1.394 . S
C530 C531 1.369 . S
C530 C534 1.531 . S
C531 C530 1.369 . S
C531 C532 1.410 . S
C531 C539 1.503 . S
C532 C531 1.410 . S
C532 C533 1.392 . S
C532 C535 1.511 . S
C533 C529 1.376 . S
C533 C532 1.392 . S
C533 H545 0.929 . S
C534 C530 1.531 . S
C534 H546 0.960 . S
C534 H547 0.962 . S
C534 H548 0.960 . S
C535 C532 1.511 . S
C535 H549 0.961 . S
C535 H550 0.961 . S
C535 H551 0.961 . S
C536 C537 1.370 . S
C536 C538 1.363 . S
C536 H552 0.931 . S
C537 C536 1.370 . S
C537 C541 1.408 . S
C538 C536 1.363 . S
C538 C539 1.370 . S
C538 C542 1.524 . S
C539 C531 1.503 . S
C539 C538 1.370 . S
C539 C540 1.403 . S
C540 C539 1.403 . S
C540 C541 1.404 . S
C540 C543 1.539 . S
C541 C537 1.408 . S
C541 C540 1.404 . S
C541 H553 0.930 . S
C542 C538 1.524 . S
C542 H554 0.956 . S
C542 H555 0.961 . S
C542 H556 0.961 . S
C543 C540 1.539 . S
C543 H557 0.958 . S
C543 H558 0.961 . S
C543 H559 0.960 . S
H544 C528 0.931 . S
H545 C533 0.929 . S
H546 C534 0.960 . S
H547 C534 0.962 . S
H548 C534 0.960 . S
H549 C535 0.961 . S
H550 C535 0.961 . S
H551 C535 0.961 . S
H552 C536 0.931 . S
H553 C541 0.930 . S
H554 C542 0.956 . S
H555 C542 0.961 . S
H556 C542 0.961 . S
H557 C543 0.958 . S
H558 C543 0.961 . S
H559 C543 0.960 . S
C560 C561 1.391 . S
C560 C562 1.394 . S
C560 H576 0.931 . S
C561 C560 1.391 . S
C561 C565 1.376 . S
C562 C560 1.394 . S
C562 C563 1.369 . S
C562 C566 1.531 . S
C563 C562 1.369 . S
C563 C564 1.410 . S
C563 C571 1.503 . S
C564 C563 1.410 . S
C564 C565 1.392 . S
C564 C567 1.511 . S
C565 C561 1.376 . S
C565 C564 1.392 . S
C565 H577 0.929 . S
C566 C562 1.531 . S
C566 H578 0.960 . S
C566 H579 0.962 1_655 S
C566 H580 0.960 . S
C567 C564 1.511 . S
C567 H581 0.961 . S
C567 H582 0.961 . S
C567 H583 0.961 . S
C568 C569 1.370 . S
C568 C570 1.363 . S
C568 H584 0.926 1_655 S
C569 C568 1.370 . S
C569 C573 1.408 . S
C570 C568 1.363 . S
C570 C571 1.370 . S
C570 C574 1.524 . S
C571 C563 1.503 . S
C571 C570 1.370 . S
C571 C572 1.403 . S
C572 C571 1.403 . S
C572 C573 1.404 . S
C572 C575 1.539 . S
C573 C569 1.408 . S
C573 C572 1.404 . S
C573 H585 0.930 . S
C574 C570 1.524 . S
C574 H586 0.956 . S
C574 H587 0.961 . S
C574 H588 0.961 . S
C575 C572 1.539 . S
C575 H589 0.958 . S
C575 H590 0.961 . S
C575 H591 0.960 . S
H576 C560 0.931 . S
H577 C565 0.929 . S
H578 C566 0.960 . S
H579 C566 0.962 1_455 S
H580 C566 0.960 . S
H581 C567 0.961 . S
H582 C567 0.961 . S
H583 C567 0.961 . S
H584 C568 0.926 1_455 S
H585 C573 0.930 . S
H586 C574 0.956 . S
H587 C574 0.961 . S
H588 C574 0.961 . S
H589 C575 0.958 . S
H590 C575 0.961 . S
H591 C575 0.960 . S
C592 C593 1.391 . S
C592 C594 1.394 . S
C592 H608 0.931 . S
C593 C592 1.391 . S
C593 C597 1.376 . S
C594 C592 1.394 . S
C594 C595 1.369 . S
C594 C598 1.531 . S
C595 C594 1.369 . S
C595 C596 1.410 . S
C595 C603 1.503 . S
C596 C595 1.410 . S
C596 C597 1.392 . S
C596 C599 1.511 . S
C597 C593 1.376 . S
C597 C596 1.392 . S
C597 H609 0.929 . S
C598 C594 1.531 . S
C598 H610 0.960 . S
C598 H611 0.962 . S
C598 H612 0.960 . S
C599 C596 1.511 . S
C599 H613 0.961 . S
C599 H614 0.961 . S
C599 H615 0.961 . S
C600 C601 1.370 . S
C600 C602 1.363 . S
C600 H616 0.931 1_455 S
C601 C600 1.370 . S
C601 C605 1.408 . S
C602 C600 1.363 . S
C602 C603 1.370 . S
C602 C606 1.524 . S
C603 C595 1.503 . S
C603 C602 1.370 . S
C603 C604 1.403 . S
C604 C603 1.403 . S
C604 C605 1.404 . S
C604 C607 1.539 . S
C605 C601 1.408 . S
C605 C604 1.404 . S
C605 H617 0.930 . S
C606 C602 1.524 . S
C606 H618 0.956 . S
C606 H619 0.961 . S
C606 H620 0.961 . S
C607 C604 1.539 . S
C607 H621 0.958 . S
C607 H622 0.961 . S
C607 H623 0.960 . S
H608 C592 0.931 . S
H609 C597 0.929 . S
H610 C598 0.960 . S
H611 C598 0.962 . S
H612 C598 0.960 . S
H613 C599 0.961 . S
H614 C599 0.961 . S
H615 C599 0.961 . S
H616 C600 0.931 1_655 S
H617 C605 0.930 . S
H618 C606 0.956 . S
H619 C606 0.961 . S
H620 C606 0.961 . S
H621 C607 0.958 . S
H622 C607 0.961 . S
H623 C607 0.960 . S
C624 C625 1.400 . S
C624 C626 1.394 . S
C624 H640 0.931 . S
C625 C624 1.400 . S
C625 C629 1.370 1_565 S
C626 C624 1.394 . S
C626 C627 1.369 . S
C626 C630 1.531 . S
C627 C626 1.369 . S
C627 C628 1.410 1_565 S
C627 C635 1.503 . S
C628 C627 1.410 1_545 S
C628 C629 1.392 . S
C628 C631 1.511 . S
C629 C625 1.370 1_545 S
C629 C628 1.392 . S
C629 H641 0.929 . S
C630 C626 1.531 . S
C630 H642 0.960 . S
C630 H643 0.962 . S
C630 H644 0.960 . S
C631 C628 1.511 . S
C631 H645 0.961 . S
C631 H646 0.961 . S
C631 H647 0.961 . S
C632 C633 1.370 1_545 S
C632 C634 1.363 . S
C632 H648 0.931 . S
C633 C632 1.370 1_565 S
C633 C637 1.408 . S
C634 C632 1.363 . S
C634 C635 1.370 1_545 S
C634 C638 1.524 . S
C635 C627 1.503 . S
C635 C634 1.370 1_565 S
C635 C636 1.403 . S
C636 C635 1.403 . S
C636 C637 1.404 . S
C636 C639 1.539 . S
C637 C633 1.408 . S
C637 C636 1.404 . S
C637 H649 0.930 . S
C638 C634 1.524 . S
C638 H650 0.956 . S
C638 H651 0.961 . S
C638 H652 0.961 . S
C639 C636 1.539 . S
C639 H653 0.958 . S
C639 H654 0.961 . S
C639 H655 0.960 . S
H640 C624 0.931 . S
H641 C629 0.929 . S
H642 C630 0.960 . S
H643 C630 0.962 . S
H644 C630 0.960 . S
H645 C631 0.961 . S
H646 C631 0.961 . S
H647 C631 0.961 . S
H648 C632 0.931 . S
H649 C637 0.930 . S
H650 C638 0.956 . S
H651 C638 0.961 . S
H652 C638 0.961 . S
H653 C639 0.958 . S
H654 C639 0.961 . S
H655 C639 0.960 . S
C656 C657 1.391 . S
C656 C658 1.394 . S
C656 H672 0.931 . S
C657 C656 1.391 . S
C657 C661 1.376 . S
C658 C656 1.394 . S
C658 C659 1.369 . S
C658 C662 1.531 . S
C659 C658 1.369 . S
C659 C660 1.410 . S
C659 C667 1.503 . S
C660 C659 1.410 . S
C660 C661 1.392 . S
C660 C663 1.511 . S
C661 C657 1.376 . S
C661 C660 1.392 . S
C661 H673 0.929 . S
C662 C658 1.531 . S
C662 H674 0.960 . S
C662 H675 0.962 . S
C662 H676 0.960 . S
C663 C660 1.511 . S
C663 H677 0.961 . S
C663 H678 0.961 . S
C663 H679 0.961 . S
C664 C665 1.370 . S
C664 C666 1.363 . S
C664 H680 0.931 . S
C665 C664 1.370 . S
C665 C669 1.408 . S
C666 C664 1.363 . S
C666 C667 1.370 . S
C666 C670 1.524 . S
C667 C659 1.503 . S
C667 C666 1.370 . S
C667 C668 1.403 . S
C668 C667 1.403 . S
C668 C669 1.404 . S
C668 C671 1.539 . S
C669 C665 1.408 . S
C669 C668 1.404 . S
C669 H681 0.930 . S
C670 C666 1.524 . S
C670 H682 0.956 . S
C670 H683 0.961 . S
C670 H684 0.961 . S
C671 C668 1.539 . S
C671 H685 0.958 . S
C671 H686 0.961 . S
C671 H687 0.960 . S
H672 C656 0.931 . S
H673 C661 0.929 . S
H674 C662 0.960 . S
H675 C662 0.962 . S
H676 C662 0.960 . S
H677 C663 0.961 . S
H678 C663 0.961 . S
H679 C663 0.961 . S
H680 C664 0.931 . S
H681 C669 0.930 . S
H682 C670 0.956 . S
H683 C670 0.961 . S
H684 C670 0.961 . S
H685 C671 0.958 . S
H686 C671 0.961 . S
H687 C671 0.960 . S
C688 C689 1.391 . S
C688 C690 1.394 . S
C688 H704 0.931 . S
C689 C688 1.391 . S
C689 C693 1.376 . S
C690 C688 1.394 . S
C690 C691 1.369 . S
C690 C694 1.531 . S
C691 C690 1.369 . S
C691 C692 1.410 . S
C691 C699 1.503 . S
C692 C691 1.410 . S
C692 C693 1.392 . S
C692 C695 1.511 . S
C693 C689 1.376 . S
C693 C692 1.392 . S
C693 H705 0.929 . S
C694 C690 1.531 . S
C694 H706 0.960 . S
C694 H707 0.962 . S
C694 H708 0.960 . S
C695 C692 1.511 . S
C695 H709 0.961 . S
C695 H710 0.961 . S
C695 H711 0.961 . S
C696 C697 1.370 . S
C696 C698 1.363 . S
C696 H712 0.931 . S
C697 C696 1.370 . S
C697 C701 1.408 . S
C698 C696 1.363 . S
C698 C699 1.370 . S
C698 C702 1.524 . S
C699 C691 1.503 . S
C699 C698 1.370 . S
C699 C700 1.403 . S
C700 C699 1.403 . S
C700 C701 1.404 . S
C700 C703 1.539 . S
C701 C697 1.408 . S
C701 C700 1.404 . S
C701 H713 0.930 . S
C702 C698 1.524 . S
C702 H714 0.956 . S
C702 H715 0.961 . S
C702 H716 0.961 . S
C703 C700 1.539 . S
C703 H717 0.958 . S
C703 H718 0.961 . S
C703 H719 0.960 . S
H704 C688 0.931 . S
H705 C693 0.929 . S
H706 C694 0.960 . S
H707 C694 0.962 . S
H708 C694 0.960 . S
H709 C695 0.961 . S
H710 C695 0.961 . S
H711 C695 0.961 . S
H712 C696 0.931 . S
H713 C701 0.930 . S
H714 C702 0.956 . S
H715 C702 0.961 . S
H716 C702 0.961 . S
H717 C703 0.958 . S
H718 C703 0.961 . S
H719 C703 0.960 . S
C720 C721 1.391 . S
C720 C722 1.394 . S
C720 H736 0.931 . S
C721 C720 1.391 . S
C721 C725 1.376 . S
C722 C720 1.394 . S
C722 C723 1.369 . S
C722 C726 1.531 . S
C723 C722 1.369 . S
C723 C724 1.410 . S
C723 C731 1.503 . S
C724 C723 1.410 . S
C724 C725 1.392 . S
C724 C727 1.511 . S
C725 C721 1.376 . S
C725 C724 1.392 . S
C725 H737 0.929 . S
C726 C722 1.531 . S
C726 H738 0.960 . S
C726 H739 0.962 . S
C726 H740 0.960 . S
C727 C724 1.511 . S
C727 H741 0.961 . S
C727 H742 0.961 . S
C727 H743 0.961 . S
C728 C729 1.364 1_455 S
C728 C730 1.363 1_455 S
C728 H744 0.931 . S
C729 C728 1.364 1_655 S
C729 C733 1.424 . S
C730 C728 1.363 1_655 S
C730 C731 1.370 . S
C730 C734 1.524 1_655 S
C731 C723 1.503 . S
C731 C730 1.370 . S
C731 C732 1.403 . S
C732 C731 1.403 . S
C732 C733 1.404 . S
C732 C735 1.539 . S
C733 C729 1.424 . S
C733 C732 1.404 . S
C733 H745 0.930 . S
C734 C730 1.524 1_455 S
C734 H746 0.956 . S
C734 H747 0.961 1_455 S
C734 H748 0.961 . S
C735 C732 1.539 . S
C735 H749 0.958 . S
C735 H750 0.961 . S
C735 H751 0.960 . S
H736 C720 0.931 . S
H737 C725 0.929 . S
H738 C726 0.960 . S
H739 C726 0.962 . S
H740 C726 0.960 . S
H741 C727 0.961 . S
H742 C727 0.961 . S
H743 C727 0.961 . S
H744 C728 0.931 . S
H745 C733 0.930 . S
H746 C734 0.956 . S
H747 C734 0.961 1_655 S
H748 C734 0.961 . S
H749 C735 0.958 . S
H750 C735 0.961 . S
H751 C735 0.960 . S
C752 C753 1.391 . S
C752 C754 1.394 . S
C752 H768 0.931 . S
C753 C752 1.391 . S
C753 C757 1.376 1_565 S
C754 C752 1.394 . S
C754 C755 1.369 1_565 S
C754 C758 1.531 . S
C755 C754 1.369 1_545 S
C755 C756 1.410 . S
C755 C763 1.503 . S
C756 C755 1.410 . S
C756 C757 1.392 . S
C756 C759 1.511 . S
C757 C753 1.376 1_545 S
C757 C756 1.392 . S
C757 H769 0.929 . S
C758 C754 1.531 . S
C758 H770 0.960 . S
C758 H771 0.962 . S
C758 H772 0.960 . S
C759 C756 1.511 . S
C759 H773 0.961 . S
C759 H774 0.961 . S
C759 H775 0.961 . S
C760 C761 1.370 . S
C760 C762 1.363 . S
C760 H776 0.931 . S
C761 C760 1.370 . S
C761 C765 1.408 . S
C762 C760 1.363 . S
C762 C763 1.370 . S
C762 C766 1.524 . S
C763 C755 1.503 . S
C763 C762 1.370 . S
C763 C764 1.403 1_545 S
C764 C763 1.403 1_565 S
C764 C765 1.404 1_565 S
C764 C767 1.539 . S
C765 C761 1.408 . S
C765 C764 1.404 1_545 S
C765 H777 0.930 1_545 S
C766 C762 1.524 . S
C766 H778 0.956 . S
C766 H779 0.961 . S
C766 H780 0.961 . S
C767 C764 1.539 . S
C767 H781 0.958 . S
C767 H782 0.961 . S
C767 H783 0.960 . S
H768 C752 0.931 . S
H769 C757 0.929 . S
H770 C758 0.960 . S
H771 C758 0.962 . S
H772 C758 0.960 . S
H773 C759 0.961 . S
H774 C759 0.961 . S
H775 C759 0.961 . S
H776 C760 0.931 . S
H777 C765 0.930 1_565 S
H778 C766 0.956 . S
H779 C766 0.961 . S
H780 C766 0.961 . S
H781 C767 0.958 . S
H782 C767 0.961 . S
H783 C767 0.960 . S
C784 C785 1.391 . S
C784 C786 1.394 . S
C784 H800 0.931 . S
C785 C784 1.391 . S
C785 C789 1.376 . S
C786 C784 1.394 . S
C786 C787 1.369 . S
C786 C790 1.531 . S
C787 C786 1.369 . S
C787 C788 1.410 . S
C787 C795 1.503 . S
C788 C787 1.410 . S
C788 C789 1.392 . S
C788 C791 1.511 . S
C789 C785 1.376 . S
C789 C788 1.392 . S
C789 H801 0.929 . S
C790 C786 1.531 . S
C790 H802 0.960 . S
C790 H803 0.962 . S
C790 H804 0.960 . S
C791 C788 1.511 . S
C791 H805 0.961 . S
C791 H806 0.961 . S
C791 H807 0.961 . S
C792 C793 1.370 . S
C792 C794 1.363 . S
C792 H808 0.931 . S
C793 C792 1.370 . S
C793 C797 1.408 . S
C794 C792 1.363 . S
C794 C795 1.370 . S
C794 C798 1.524 . S
C795 C787 1.503 . S
C795 C794 1.370 . S
C795 C796 1.403 . S
C796 C795 1.403 . S
C796 C797 1.404 . S
C796 C799 1.539 . S
C797 C793 1.408 . S
C797 C796 1.404 . S
C797 H809 0.930 . S
C798 C794 1.524 . S
C798 H810 0.956 . S
C798 H811 0.961 . S
C798 H812 0.961 . S
C799 C796 1.539 . S
C799 H813 0.958 . S
C799 H814 0.961 . S
C799 H815 0.960 . S
H800 C784 0.931 . S
H801 C789 0.929 . S
H802 C790 0.960 . S
H803 C790 0.962 . S
H804 C790 0.960 . S
H805 C791 0.961 . S
H806 C791 0.961 . S
H807 C791 0.961 . S
H808 C792 0.931 . S
H809 C797 0.930 . S
H810 C798 0.956 . S
H811 C798 0.961 . S
H812 C798 0.961 . S
H813 C799 0.958 . S
H814 C799 0.961 . S
H815 C799 0.960 . S
C816 C817 1.391 . S
C816 C818 1.394 . S
C816 H832 0.931 . S
C817 C816 1.391 . S
C817 C821 1.376 . S
C818 C816 1.394 . S
C818 C819 1.369 . S
C818 C822 1.531 . S
C819 C818 1.369 . S
C819 C820 1.410 . S
C819 C827 1.503 . S
C820 C819 1.410 . S
C820 C821 1.392 . S
C820 C823 1.511 . S
C821 C817 1.376 . S
C821 C820 1.392 . S
C821 H833 0.929 . S
C822 C818 1.531 . S
C822 H834 0.960 . S
C822 H835 0.962 . S
C822 H836 0.960 . S
C823 C820 1.511 . S
C823 H837 0.961 . S
C823 H838 0.961 . S
C823 H839 0.961 . S
C824 C825 1.370 . S
C824 C826 1.363 . S
C824 H840 0.931 . S
C825 C824 1.370 . S
C825 C829 1.408 . S
C826 C824 1.363 . S
C826 C827 1.370 . S
C826 C830 1.524 . S
C827 C819 1.503 . S
C827 C826 1.370 . S
C827 C828 1.403 . S
C828 C827 1.403 . S
C828 C829 1.404 . S
C828 C831 1.539 . S
C829 C825 1.408 . S
C829 C828 1.404 . S
C829 H841 0.930 . S
C830 C826 1.524 . S
C830 H842 0.956 . S
C830 H843 0.961 . S
C830 H844 0.961 . S
C831 C828 1.539 . S
C831 H845 0.958 . S
C831 H846 0.961 . S
C831 H847 0.960 . S
H832 C816 0.931 . S
H833 C821 0.929 . S
H834 C822 0.960 . S
H835 C822 0.962 . S
H836 C822 0.960 . S
H837 C823 0.961 . S
H838 C823 0.961 . S
H839 C823 0.961 . S
H840 C824 0.931 . S
H841 C829 0.930 . S
H842 C830 0.956 . S
H843 C830 0.961 . S
H844 C830 0.961 . S
H845 C831 0.958 . S
H846 C831 0.961 . S
H847 C831 0.960 . S
C848 C849 1.391 . S
C848 C850 1.394 . S
C848 H864 0.931 . S
C849 C848 1.391 . S
C849 C853 1.376 . S
C850 C848 1.394 . S
C850 C851 1.369 . S
C850 C854 1.531 . S
C851 C850 1.369 . S
C851 C852 1.410 . S
C851 C859 1.503 . S
C852 C851 1.410 . S
C852 C853 1.392 . S
C852 C855 1.511 . S
C853 C849 1.376 . S
C853 C852 1.392 . S
C853 H865 0.929 . S
C854 C850 1.531 . S
C854 H866 0.960 . S
C854 H867 0.962 . S
C854 H868 0.960 . S
C855 C852 1.511 . S
C855 H869 0.961 . S
C855 H870 0.961 . S
C855 H871 0.961 . S
C856 C857 1.370 . S
C856 C858 1.363 . S
C856 H872 0.931 . S
C857 C856 1.370 . S
C857 C861 1.408 . S
C858 C856 1.363 . S
C858 C859 1.370 . S
C858 C862 1.524 . S
C859 C851 1.503 . S
C859 C858 1.370 . S
C859 C860 1.403 . S
C860 C859 1.403 . S
C860 C861 1.404 . S
C860 C863 1.539 . S
C861 C857 1.408 . S
C861 C860 1.404 . S
C861 H873 0.930 . S
C862 C858 1.524 . S
C862 H874 0.956 . S
C862 H875 0.961 . S
C862 H876 0.961 . S
C863 C860 1.539 . S
C863 H877 0.958 . S
C863 H878 0.939 1_455 S
C863 H879 0.960 . S
H864 C848 0.931 . S
H865 C853 0.929 . S
H866 C854 0.960 . S
H867 C854 0.962 . S
H868 C854 0.960 . S
H869 C855 0.961 . S
H870 C855 0.961 . S
H871 C855 0.961 . S
H872 C856 0.931 . S
H873 C861 0.930 . S
H874 C862 0.956 . S
H875 C862 0.961 . S
H876 C862 0.961 . S
H877 C863 0.958 . S
H878 C863 0.939 1_655 S
H879 C863 0.960 . S
C880 C881 1.421 . S
C880 C882 1.394 . S
C880 H896 0.931 . S
C881 C880 1.421 . S
C881 C885 1.344 1_545 S
C882 C880 1.394 . S
C882 C883 1.369 . S
C882 C886 1.531 . S
C883 C882 1.369 . S
C883 C884 1.410 1_545 S
C883 C891 1.503 . S
C884 C883 1.410 1_565 S
C884 C885 1.392 . S
C884 C887 1.511 . S
C885 C881 1.344 1_565 S
C885 C884 1.392 . S
C885 H897 0.929 . S
C886 C882 1.531 . S
C886 H898 0.960 . S
C886 H899 0.962 . S
C886 H900 0.960 . S
C887 C884 1.511 . S
C887 H901 0.961 . S
C887 H902 0.961 . S
C887 H903 0.961 . S
C888 C889 1.370 . S
C888 C890 1.363 . S
C888 H904 0.931 . S
C889 C888 1.370 . S
C889 C893 1.408 . S
C890 C888 1.363 . S
C890 C891 1.370 . S
C890 C894 1.524 . S
C891 C883 1.503 . S
C891 C890 1.370 . S
C891 C892 1.403 . S
C892 C891 1.403 . S
C892 C893 1.404 . S
C892 C895 1.539 . S
C893 C889 1.408 . S
C893 C892 1.404 . S
C893 H905 0.930 . S
C894 C890 1.524 . S
C894 H906 0.976 . S
C894 H907 0.944 1_545 S
C894 H908 0.958 1_545 S
C895 C892 1.539 . S
C895 H909 0.958 . S
C895 H910 0.961 1_545 S
C895 H911 0.960 1_545 S
H896 C880 0.931 . S
H897 C885 0.929 . S
H898 C886 0.960 . S
H899 C886 0.962 . S
H900 C886 0.960 . S
H901 C887 0.961 . S
H902 C887 0.961 . S
H903 C887 0.961 . S
H904 C888 0.931 . S
H905 C893 0.930 . S
H906 C894 0.976 . S
H907 C894 0.944 1_565 S
H908 C894 0.958 1_565 S
H909 C895 0.958 . S
H910 C895 0.961 1_565 S
H911 C895 0.960 1_565 S
C912 C913 1.391 . S
C912 C914 1.394 . S
C912 H928 0.931 . S
C913 C912 1.391 . S
C913 C917 1.376 . S
C914 C912 1.394 . S
C914 C915 1.369 . S
C914 C918 1.531 . S
C915 C914 1.369 . S
C915 C916 1.410 . S
C915 C923 1.503 . S
C916 C915 1.410 . S
C916 C917 1.392 . S
C916 C919 1.511 . S
C917 C913 1.376 . S
C917 C916 1.392 . S
C917 H929 0.929 . S
C918 C914 1.531 . S
C918 H930 0.960 . S
C918 H931 0.962 . S
C918 H932 0.960 . S
C919 C916 1.511 . S
C919 H933 0.961 . S
C919 H934 0.961 . S
C919 H935 0.961 . S
C920 C921 1.370 . S
C920 C922 1.363 . S
C920 H936 0.931 . S
C921 C920 1.370 . S
C921 C925 1.408 . S
C922 C920 1.363 . S
C922 C923 1.370 . S
C922 C926 1.524 . S
C923 C915 1.503 . S
C923 C922 1.370 . S
C923 C924 1.403 . S
C924 C923 1.403 . S
C924 C925 1.404 . S
C924 C927 1.539 . S
C925 C921 1.408 . S
C925 C924 1.404 . S
C925 H937 0.930 . S
C926 C922 1.524 . S
C926 H938 0.956 . S
C926 H939 0.961 . S
C926 H940 0.961 . S
C927 C924 1.539 . S
C927 H941 0.958 . S
C927 H942 0.961 . S
C927 H943 0.960 . S
H928 C912 0.931 . S
H929 C917 0.929 . S
H930 C918 0.960 . S
H931 C918 0.962 . S
H932 C918 0.960 . S
H933 C919 0.961 . S
H934 C919 0.961 . S
H935 C919 0.961 . S
H936 C920 0.931 . S
H937 C925 0.930 . S
H938 C926 0.956 . S
H939 C926 0.961 . S
H940 C926 0.961 . S
H941 C927 0.958 . S
H942 C927 0.961 . S
H943 C927 0.960 . S
C944 C945 1.391 . S
C944 C946 1.394 . S
C944 H960 0.931 . S
C945 C944 1.391 . S
C945 C949 1.376 . S
C946 C944 1.394 . S
C946 C947 1.369 . S
C946 C950 1.531 . S
C947 C946 1.369 . S
C947 C948 1.410 . S
C947 C955 1.503 . S
C948 C947 1.410 . S
C948 C949 1.392 . S
C948 C951 1.511 . S
C949 C945 1.376 . S
C949 C948 1.392 . S
C949 H961 0.929 . S
C950 C946 1.531 . S
C950 H962 0.960 . S
C950 H963 0.962 . S
C950 H964 0.960 . S
C951 C948 1.511 . S
C951 H965 0.961 . S
C951 H966 0.961 . S
C951 H967 0.961 . S
C952 C953 1.370 . S
C952 C954 1.363 . S
C952 H968 0.931 . S
C953 C952 1.370 . S
C953 C957 1.408 . S
C954 C952 1.363 . S
C954 C955 1.370 . S
C954 C958 1.524 . S
C955 C947 1.503 . S
C955 C954 1.370 . S
C955 C956 1.403 . S
C956 C955 1.403 . S
C956 C957 1.404 . S
C956 C959 1.539 . S
C957 C953 1.408 . S
C957 C956 1.404 . S
C957 H969 0.930 . S
C958 C954 1.524 . S
C958 H970 0.956 . S
C958 H971 0.961 . S
C958 H972 0.961 . S
C959 C956 1.539 . S
C959 H973 0.958 . S
C959 H974 0.961 . S
C959 H975 0.960 . S
H960 C944 0.931 . S
H961 C949 0.929 . S
H962 C950 0.960 . S
H963 C950 0.962 . S
H964 C950 0.960 . S
H965 C951 0.961 . S
H966 C951 0.961 . S
H967 C951 0.961 . S
H968 C952 0.931 . S
H969 C957 0.930 . S
H970 C958 0.956 . S
H971 C958 0.961 . S
H972 C958 0.961 . S
H973 C959 0.958 . S
H974 C959 0.961 . S
H975 C959 0.960 . S
C976 C977 1.391 . S
C976 C978 1.394 . S
C976 H992 0.931 . S
C977 C976 1.391 . S
C977 C981 1.376 . S
C978 C976 1.394 . S
C978 C979 1.369 . S
C978 C982 1.531 . S
C979 C978 1.369 . S
C979 C980 1.410 . S
C979 C987 1.503 . S
C980 C979 1.410 . S
C980 C981 1.392 . S
C980 C983 1.511 . S
C981 C977 1.376 . S
C981 C980 1.392 . S
C981 H993 0.929 . S
C982 C978 1.531 . S
C982 H994 0.960 . S
C982 H995 0.962 . S
C982 H996 0.960 . S
C983 C980 1.511 . S
C983 H997 0.961 . S
C983 H998 0.961 . S
C983 H999 0.961 . S
C984 C985 1.370 . S
C984 C986 1.363 . S
C984 H1000 0.931 1_655 S
C985 C984 1.370 . S
C985 C989 1.408 . S
C986 C984 1.363 . S
C986 C987 1.370 . S
C986 C990 1.550 . S
C987 C979 1.503 . S
C987 C986 1.370 . S
C987 C988 1.403 . S
C988 C987 1.403 . S
C988 C989 1.404 . S
C988 C991 1.539 . S
C989 C985 1.408 . S
C989 C988 1.404 . S
C989 H1001 0.930 . S
C990 C986 1.550 . S
C990 H1002 0.966 . S
C990 H1003 0.959 . S
C990 H1004 0.928 1_655 S
C991 C988 1.539 . S
C991 H1005 0.958 . S
C991 H1006 0.961 . S
C991 H1007 0.960 . S
H992 C976 0.931 . S
H993 C981 0.929 . S
H994 C982 0.960 . S
H995 C982 0.962 . S
H996 C982 0.960 . S
H997 C983 0.961 . S
H998 C983 0.961 . S
H999 C983 0.961 . S
H1000 C984 0.931 1_455 S
H1001 C989 0.930 . S
H1002 C990 0.966 . S
H1003 C990 0.959 . S
H1004 C990 0.928 1_455 S
H1005 C991 0.958 . S
H1006 C991 0.961 . S
H1007 C991 0.960 . S
C1008 C1009 1.391 . S
C1008 C1010 1.394 . S
C1008 H1024 0.931 . S
C1009 C1008 1.391 . S
C1009 C1013 1.376 1_545 S
C1010 C1008 1.394 . S
C1010 C1011 1.369 . S
C1010 C1014 1.531 . S
C1011 C1010 1.369 . S
C1011 C1012 1.410 1_545 S
C1011 C1019 1.503 . S
C1012 C1011 1.410 1_565 S
C1012 C1013 1.392 . S
C1012 C1015 1.511 . S
C1013 C1009 1.376 1_565 S
C1013 C1012 1.392 . S
C1013 H1025 0.929 . S
C1014 C1010 1.531 . S
C1014 H1026 0.960 . S
C1014 H1027 0.962 . S
C1014 H1028 0.960 . S
C1015 C1012 1.511 . S
C1015 H1029 0.961 . S
C1015 H1030 0.961 . S
C1015 H1031 0.961 . S
C1016 C1017 1.370 . S
C1016 C1018 1.363 . S
C1016 H1032 0.931 . S
C1017 C1016 1.370 . S
C1017 C1021 1.408 1_565 S
C1018 C1016 1.363 . S
C1018 C1019 1.370 1_565 S
C1018 C1022 1.524 . S
C1019 C1011 1.503 . S
C1019 C1018 1.370 1_545 S
C1019 C1020 1.403 . S
C1020 C1019 1.403 . S
C1020 C1021 1.404 . S
C1020 C1023 1.539 . S
C1021 C1017 1.408 1_545 S
C1021 C1020 1.404 . S
C1021 H1033 0.930 . S
C1022 C1018 1.524 . S
C1022 H1034 0.956 . S
C1022 H1035 0.961 . S
C1022 H1036 0.961 . S
C1023 C1020 1.539 . S
C1023 H1037 0.958 . S
C1023 H1038 0.961 . S
C1023 H1039 0.960 . S
H1024 C1008 0.931 . S
H1025 C1013 0.929 . S
H1026 C1014 0.960 . S
H1027 C1014 0.962 . S
H1028 C1014 0.960 . S
H1029 C1015 0.961 . S
H1030 C1015 0.961 . S
H1031 C1015 0.961 . S
H1032 C1016 0.931 . S
H1033 C1021 0.930 . S
H1034 C1022 0.956 . S
H1035 C1022 0.961 . S
H1036 C1022 0.961 . S
H1037 C1023 0.958 . S
H1038 C1023 0.961 . S
H1039 C1023 0.960 . S
C1040 C1041 1.391 . S
C1040 C1042 1.394 . S
C1040 H1056 0.931 . S
C1041 C1040 1.391 . S
C1041 C1045 1.376 . S
C1042 C1040 1.394 . S
C1042 C1043 1.369 . S
C1042 C1046 1.531 . S
C1043 C1042 1.369 . S
C1043 C1044 1.410 . S
C1043 C1051 1.503 . S
C1044 C1043 1.410 . S
C1044 C1045 1.392 . S
C1044 C1047 1.511 . S
C1045 C1041 1.376 . S
C1045 C1044 1.392 . S
C1045 H1057 0.929 . S
C1046 C1042 1.531 . S
C1046 H1058 0.960 . S
C1046 H1059 0.962 . S
C1046 H1060 0.960 . S
C1047 C1044 1.511 . S
C1047 H1061 0.961 . S
C1047 H1062 0.961 . S
C1047 H1063 0.961 . S
C1048 C1049 1.370 . S
C1048 C1050 1.363 . S
C1048 H1064 0.931 . S
C1049 C1048 1.370 . S
C1049 C1053 1.408 . S
C1050 C1048 1.363 . S
C1050 C1051 1.370 . S
C1050 C1054 1.524 . S
C1051 C1043 1.503 . S
C1051 C1050 1.370 . S
C1051 C1052 1.403 . S
C1052 C1051 1.403 . S
C1052 C1053 1.404 . S
C1052 C1055 1.539 . S
C1053 C1049 1.408 . S
C1053 C1052 1.404 . S
C1053 H1065 0.930 . S
C1054 C1050 1.524 . S
C1054 H1066 0.956 . S
C1054 H1067 0.961 . S
C1054 H1068 0.961 . S
C1055 C1052 1.539 . S
C1055 H1069 0.958 . S
C1055 H1070 0.961 . S
C1055 H1071 0.960 . S
H1056 C1040 0.931 . S
H1057 C1045 0.929 . S
H1058 C1046 0.960 . S
H1059 C1046 0.962 . S
H1060 C1046 0.960 . S
H1061 C1047 0.961 . S
H1062 C1047 0.961 . S
H1063 C1047 0.961 . S
H1064 C1048 0.931 . S
H1065 C1053 0.930 . S
H1066 C1054 0.956 . S
H1067 C1054 0.961 . S
H1068 C1054 0.961 . S
H1069 C1055 0.958 . S
H1070 C1055 0.961 . S
H1071 C1055 0.960 . S
C1072 C1073 1.391 . S
C1072 C1074 1.394 . S
C1072 H1088 0.931 . S
C1073 C1072 1.391 . S
C1073 C1077 1.376 . S
C1074 C1072 1.394 . S
C1074 C1075 1.369 . S
C1074 C1078 1.531 . S
C1075 C1074 1.369 . S
C1075 C1076 1.410 . S
C1075 C1083 1.503 . S
C1076 C1075 1.410 . S
C1076 C1077 1.392 . S
C1076 C1079 1.511 . S
C1077 C1073 1.376 . S
C1077 C1076 1.392 . S
C1077 H1089 0.929 . S
C1078 C1074 1.531 . S
C1078 H1090 0.960 . S
C1078 H1091 0.962 . S
C1078 H1092 0.960 . S
C1079 C1076 1.511 . S
C1079 H1093 0.961 . S
C1079 H1094 0.961 . S
C1079 H1095 0.961 . S
C1080 C1081 1.370 . S
C1080 C1082 1.363 . S
C1080 H1096 0.931 . S
C1081 C1080 1.370 . S
C1081 C1085 1.408 . S
C1082 C1080 1.363 . S
C1082 C1083 1.370 . S
C1082 C1086 1.524 . S
C1083 C1075 1.503 . S
C1083 C1082 1.370 . S
C1083 C1084 1.403 . S
C1084 C1083 1.403 . S
C1084 C1085 1.404 . S
C1084 C1087 1.539 . S
C1085 C1081 1.408 . S
C1085 C1084 1.404 . S
C1085 H1097 0.930 . S
C1086 C1082 1.524 . S
C1086 H1098 0.956 . S
C1086 H1099 0.961 . S
C1086 H1100 0.961 . S
C1087 C1084 1.539 . S
C1087 H1101 0.958 . S
C1087 H1102 0.961 . S
C1087 H1103 0.960 . S
H1088 C1072 0.931 . S
H1089 C1077 0.929 . S
H1090 C1078 0.960 . S
H1091 C1078 0.962 . S
H1092 C1078 0.960 . S
H1093 C1079 0.961 . S
H1094 C1079 0.961 . S
H1095 C1079 0.961 . S
H1096 C1080 0.931 . S
H1097 C1085 0.930 . S
H1098 C1086 0.956 . S
H1099 C1086 0.961 . S
H1100 C1086 0.961 . S
H1101 C1087 0.958 . S
H1102 C1087 0.961 . S
H1103 C1087 0.960 . S
C337 C215 1.617 . S
C345 C264 1.697 . S
C377 C294 2.191 . S
C369 C247 2.181 . S
C409 C304 1.727 . S
C401 C151 1.614 . S
C441 C324 1.624 . S
C433 C183 1.548 . S
C473 C265 1.694 . S
C465 C87 1.591 . S
C497 C119 1.967 1_556 S
C505 C295 2.202 . S
C529 C23 1.694 . S
C537 C305 1.724 . S
C561 C55 1.499 . S
C569 C325 1.625 . S
C601 C257 0.772 . S
C593 C189 0.794 . S
C633 C278 0.337 . S
C625 C221 0.359 1_565 S
C665 C297 1.038 . S
C657 C253 1.019 . S
C689 C157 0.709 . S
C697 C317 0.579 . S
C721 C61 0.854 . S
C729 C258 0.761 1_655 S
C761 C277 0.349 . S
C753 C93 0.424 1_565 S
C793 C298 1.036 . S
C785 C125 0.967 . S
C817 C29 0.572 . S
C825 C318 0.584 . S
C849 C177 2.048 . S
C857 C275 2.165 . S
C881 C209 1.551 . S
C889 C285 1.753 . S
C921 C315 2.343 . S
C913 C241 2.189 . S
C953 C335 2.248 . S
C945 C145 2.001 . S
C977 C49 1.990 . S
C985 C274 2.182 . S
C1017 C284 1.755 . S
C1009 C81 1.559 . S
C1049 C314 2.340 . S
C1041 C113 2.108 . S
C1073 C17 2.144 . S
C1081 C334 2.256 . S
