# Generated by pormake.
# Topology eea, (3,6)-cn, num edge types: 1
# Building blocks:
#     Node 0, Type 0, BuildingBlock: BETDIP_clean_linker_0, # of connection points: 3
#     Node 1, Type 0, BuildingBlock: BETDIP_clean_linker_0, # of connection points: 3
#     Node 2, Type 0, BuildingBlock: BETDIP_clean_linker_0, # of connection points: 3
#     Node 3, Type 0, BuildingBlock: BETDIP_clean_linker_0, # of connection points: 3
#     Node 4, Type 0, BuildingBlock: BETDIP_clean_linker_0, # of connection points: 3
#     Node 5, Type 0, BuildingBlock: BETDIP_clean_linker_0, # of connection points: 3
#     Node 6, Type 0, BuildingBlock: BETDIP_clean_linker_0, # of connection points: 3
#     Node 7, Type 0, BuildingBlock: BETDIP_clean_linker_0, # of connection points: 3
#     Node 8, Type 0, BuildingBlock: BETDIP_clean_linker_0, # of connection points: 3
#     Node 9, Type 0, BuildingBlock: BETDIP_clean_linker_0, # of connection points: 3
#     Node 10, Type 0, BuildingBlock: BETDIP_clean_linker_0, # of connection points: 3
#     Node 11, Type 0, BuildingBlock: BETDIP_clean_linker_0, # of connection points: 3
#     Node 12, Type 0, BuildingBlock: BETDIP_clean_linker_0, # of connection points: 3
#     Node 13, Type 0, BuildingBlock: BETDIP_clean_linker_0, # of connection points: 3
#     Node 14, Type 0, BuildingBlock: BETDIP_clean_linker_0, # of connection points: 3
#     Node 15, Type 0, BuildingBlock: BETDIP_clean_linker_0, # of connection points: 3
#     Node 16, Type 0, BuildingBlock: BETDIP_clean_linker_0, # of connection points: 3
#     Node 17, Type 0, BuildingBlock: BETDIP_clean_linker_0, # of connection points: 3
#     Node 18, Type 1, BuildingBlock: HISSIN_clean_sbu_0, # of connection points: 6
#     Node 19, Type 1, BuildingBlock: HISSIN_clean_sbu_0, # of connection points: 6
#     Node 20, Type 1, BuildingBlock: HISSIN_clean_sbu_0, # of connection points: 6
#     Node 21, Type 1, BuildingBlock: HISSIN_clean_sbu_0, # of connection points: 6
#     Node 22, Type 1, BuildingBlock: HISSIN_clean_sbu_0, # of connection points: 6
#     Node 23, Type 1, BuildingBlock: HISSIN_clean_sbu_0, # of connection points: 6
#     Node 24, Type 1, BuildingBlock: HISSIN_clean_sbu_0, # of connection points: 6
#     Node 25, Type 1, BuildingBlock: HISSIN_clean_sbu_0, # of connection points: 6
#     Node 26, Type 1, BuildingBlock: HISSIN_clean_sbu_0, # of connection points: 6
#     Edge 27, Type (0, 1), BuildingBlock: KIFKEQ_clean_linker_1, # of connection points: 2
#     Edge 28, Type (0, 1), BuildingBlock: KIFKEQ_clean_linker_1, # of connection points: 2
#     Edge 29, Type (0, 1), BuildingBlock: KIFKEQ_clean_linker_1, # of connection points: 2
#     Edge 30, Type (0, 1), BuildingBlock: KIFKEQ_clean_linker_1, # of connection points: 2
#     Edge 31, Type (0, 1), BuildingBlock: KIFKEQ_clean_linker_1, # of connection points: 2
#     Edge 32, Type (0, 1), BuildingBlock: KIFKEQ_clean_linker_1, # of connection points: 2
#     Edge 33, Type (0, 1), BuildingBlock: KIFKEQ_clean_linker_1, # of connection points: 2
#     Edge 34, Type (0, 1), BuildingBlock: KIFKEQ_clean_linker_1, # of connection points: 2
#     Edge 35, Type (0, 1), BuildingBlock: KIFKEQ_clean_linker_1, # of connection points: 2
#     Edge 36, Type (0, 1), BuildingBlock: KIFKEQ_clean_linker_1, # of connection points: 2
#     Edge 37, Type (0, 1), BuildingBlock: KIFKEQ_clean_linker_1, # of connection points: 2
#     Edge 38, Type (0, 1), BuildingBlock: KIFKEQ_clean_linker_1, # of connection points: 2
#     Edge 39, Type (0, 1), BuildingBlock: KIFKEQ_clean_linker_1, # of connection points: 2
#     Edge 40, Type (0, 1), BuildingBlock: KIFKEQ_clean_linker_1, # of connection points: 2
#     Edge 41, Type (0, 1), BuildingBlock: KIFKEQ_clean_linker_1, # of connection points: 2
#     Edge 42, Type (0, 1), BuildingBlock: KIFKEQ_clean_linker_1, # of connection points: 2
#     Edge 43, Type (0, 1), BuildingBlock: KIFKEQ_clean_linker_1, # of connection points: 2
#     Edge 44, Type (0, 1), BuildingBlock: KIFKEQ_clean_linker_1, # of connection points: 2
#     Edge 45, Type (0, 1), BuildingBlock: KIFKEQ_clean_linker_1, # of connection points: 2
#     Edge 46, Type (0, 1), BuildingBlock: KIFKEQ_clean_linker_1, # of connection points: 2
#     Edge 47, Type (0, 1), BuildingBlock: KIFKEQ_clean_linker_1, # of connection points: 2
#     Edge 48, Type (0, 1), BuildingBlock: KIFKEQ_clean_linker_1, # of connection points: 2
#     Edge 49, Type (0, 1), BuildingBlock: KIFKEQ_clean_linker_1, # of connection points: 2
#     Edge 50, Type (0, 1), BuildingBlock: KIFKEQ_clean_linker_1, # of connection points: 2
#     Edge 51, Type (0, 1), BuildingBlock: KIFKEQ_clean_linker_1, # of connection points: 2
#     Edge 52, Type (0, 1), BuildingBlock: KIFKEQ_clean_linker_1, # of connection points: 2
#     Edge 53, Type (0, 1), BuildingBlock: KIFKEQ_clean_linker_1, # of connection points: 2
#     Edge 54, Type (0, 1), BuildingBlock: KIFKEQ_clean_linker_1, # of connection points: 2
#     Edge 55, Type (0, 1), BuildingBlock: KIFKEQ_clean_linker_1, # of connection points: 2
#     Edge 56, Type (0, 1), BuildingBlock: KIFKEQ_clean_linker_1, # of connection points: 2
#     Edge 57, Type (0, 1), BuildingBlock: KIFKEQ_clean_linker_1, # of connection points: 2
#     Edge 58, Type (0, 1), BuildingBlock: KIFKEQ_clean_linker_1, # of connection points: 2
#     Edge 59, Type (0, 1), BuildingBlock: KIFKEQ_clean_linker_1, # of connection points: 2
#     Edge 60, Type (0, 1), BuildingBlock: KIFKEQ_clean_linker_1, # of connection points: 2
#     Edge 61, Type (0, 1), BuildingBlock: KIFKEQ_clean_linker_1, # of connection points: 2
#     Edge 62, Type (0, 1), BuildingBlock: KIFKEQ_clean_linker_1, # of connection points: 2
#     Edge 63, Type (0, 1), BuildingBlock: KIFKEQ_clean_linker_1, # of connection points: 2
#     Edge 64, Type (0, 1), BuildingBlock: KIFKEQ_clean_linker_1, # of connection points: 2
#     Edge 65, Type (0, 1), BuildingBlock: KIFKEQ_clean_linker_1, # of connection points: 2
#     Edge 66, Type (0, 1), BuildingBlock: KIFKEQ_clean_linker_1, # of connection points: 2
#     Edge 67, Type (0, 1), BuildingBlock: KIFKEQ_clean_linker_1, # of connection points: 2
#     Edge 68, Type (0, 1), BuildingBlock: KIFKEQ_clean_linker_1, # of connection points: 2
#     Edge 69, Type (0, 1), BuildingBlock: KIFKEQ_clean_linker_1, # of connection points: 2
#     Edge 70, Type (0, 1), BuildingBlock: KIFKEQ_clean_linker_1, # of connection points: 2
#     Edge 71, Type (0, 1), BuildingBlock: KIFKEQ_clean_linker_1, # of connection points: 2
#     Edge 72, Type (0, 1), BuildingBlock: KIFKEQ_clean_linker_1, # of connection points: 2
#     Edge 73, Type (0, 1), BuildingBlock: KIFKEQ_clean_linker_1, # of connection points: 2
#     Edge 74, Type (0, 1), BuildingBlock: KIFKEQ_clean_linker_1, # of connection points: 2
#     Edge 75, Type (0, 1), BuildingBlock: KIFKEQ_clean_linker_1, # of connection points: 2
#     Edge 76, Type (0, 1), BuildingBlock: KIFKEQ_clean_linker_1, # of connection points: 2
#     Edge 77, Type (0, 1), BuildingBlock: KIFKEQ_clean_linker_1, # of connection points: 2
#     Edge 78, Type (0, 1), BuildingBlock: KIFKEQ_clean_linker_1, # of connection points: 2
#     Edge 79, Type (0, 1), BuildingBlock: KIFKEQ_clean_linker_1, # of connection points: 2
#     Edge 80, Type (0, 1), BuildingBlock: KIFKEQ_clean_linker_1, # of connection points: 2
# Relax obj value: 0.060
# Max RMSD: 0.208
# Mean RMSD: 0.146
data_MOF--net-eea--node1-HISSIN_clean_sbu_0--node2-BETDIP_clean_linker_0--edge1-KIFKEQ_clean_linker_1
_symmetry_space_group_name_H-M    P1
_symmetry_Int_Tables_number       1
_symmetry_cell_setting            triclinic
loop_
_symmetry_equiv_pos_as_xyz
'x, y, z'
_cell_length_a     55.254204
_cell_length_b     56.07371
_cell_length_c     70.891627
_cell_angle_alpha  93.116605
_cell_angle_beta   93.074785
_cell_angle_gamma 119.84201
loop_
_atom_site_label
_atom_site_type_symbol
_atom_site_fract_x
_atom_site_fract_y
_atom_site_fract_z
_atom_type_partial_charge
H0 H 0.24047 0.11067 0.37757 0.0
H1 H 0.27988 0.17083 0.42582 0.0
H2 H 0.27975 0.09401 0.42503 0.0
H3 H 0.28807 0.19976 0.40022 0.0
C4 C 0.2663 0.1891 0.39432 0.0
C5 C 0.25207 0.11697 0.39146 0.0
C6 C 0.26001 0.09959 0.40001 0.0
C7 C 0.2597 0.14287 0.4005 0.0
C8 C 0.27454 0.15108 0.4186 0.0
C9 C 0.28189 0.13357 0.42762 0.0
C10 C 0.27479 0.108 0.41808 0.0
N11 N 0.25115 0.15981 0.3915 0.0
H12 H 0.93078 0.12812 0.38794 0.0
H13 H 0.88592 0.10643 0.43755 0.0
H14 H 0.95228 0.18978 0.43477 0.0
H15 H 0.88627 0.06484 0.42837 0.0
C16 C 0.87802 0.06327 0.4138 0.0
C17 C 0.92764 0.13407 0.402 0.0
C18 C 0.94436 0.16145 0.41013 0.0
C19 C 0.90702 0.11408 0.41195 0.0
C20 C 0.90252 0.12162 0.43005 0.0
C21 C 0.91856 0.14892 0.4383 0.0
C22 C 0.93939 0.16883 0.42824 0.0
N23 N 0.89034 0.08669 0.40327 0.0
H24 H 0.89224 0.79305 0.39485 0.0
H25 H 0.91685 0.7591 0.44007 0.0
H26 H 0.83824 0.75724 0.43909 0.0
H27 H 0.95908 0.78348 0.43146 0.0
C28 C 0.95805 0.78751 0.41674 0.0
C29 C 0.888 0.78312 0.40793 0.0
C30 C 0.86247 0.77527 0.41571 0.0
C31 C 0.90814 0.77805 0.41675 0.0
C32 C 0.90229 0.7644 0.4335 0.0
C33 C 0.87697 0.7566 0.44161 0.0
C34 C 0.85738 0.76234 0.43264 0.0
N35 N 0.9336 0.78644 0.40811 0.0
H36 H 0.09455 0.20569 0.62329 0.0
H37 H 0.14596 0.23448 0.57703 0.0
H38 H 0.07374 0.24405 0.57903 0.0
H39 H 0.15443 0.20008 0.58353 0.0
C40 C 0.15666 0.20199 0.59894 0.0
C41 C 0.09869 0.21522 0.61006 0.0
C42 C 0.08117 0.22453 0.60237 0.0
C43 C 0.12167 0.21808 0.60082 0.0
C44 C 0.12759 0.23104 0.58388 0.0
C45 C 0.1105 0.24061 0.57599 0.0
C46 C 0.08737 0.23732 0.58533 0.0
N47 N 0.13892 0.20851 0.60918 0.0
H48 H 0.77884 0.87309 0.64441 0.0
H49 H 0.74374 0.89273 0.59637 0.0
H50 H 0.74077 0.81454 0.59504 0.0
H51 H 0.7314 0.91266 0.62387 0.0
C52 C 0.75335 0.92465 0.62933 0.0
C53 C 0.76806 0.86724 0.63025 0.0
C54 C 0.76036 0.84144 0.62081 0.0
C55 C 0.76117 0.88528 0.62175 0.0
C56 C 0.74759 0.87804 0.60331 0.0
C57 C 0.74039 0.85267 0.59343 0.0
C58 C 0.74644 0.8343 0.60245 0.0
N59 N 0.76922 0.91122 0.63157 0.0
H60 H 0.12914 0.8993 0.63133 0.0
H61 H 0.0978 0.84074 0.58203 0.0
H62 H 0.17725 0.91538 0.58302 0.0
H63 H 0.05605 0.83984 0.59127 0.0
C64 C 0.05864 0.83722 0.60619 0.0
C65 C 0.13179 0.89335 0.61713 0.0
C66 C 0.15616 0.9104 0.60847 0.0
C67 C 0.11034 0.86878 0.60744 0.0
C68 C 0.11382 0.86033 0.58921 0.0
C69 C 0.13839 0.87671 0.58055 0.0
C70 C 0.15906 0.90193 0.59013 0.0
N71 N 0.08552 0.85282 0.61638 0.0
H72 H 0.9105 0.443 0.70885 0.0
H73 H 0.9421 0.49967 0.7593 0.0
H74 H 0.94157 0.42278 0.75883 0.0
H75 H 0.95465 0.53108 0.73437 0.0
C76 C 0.93365 0.52043 0.7271 0.0
C77 C 0.91985 0.44832 0.7234 0.0
C78 C 0.92589 0.4301 0.73259 0.0
C79 C 0.92638 0.47376 0.73274 0.0
C80 C 0.93816 0.48061 0.7517 0.0
C81 C 0.94323 0.46203 0.76127 0.0
C82 C 0.93749 0.43709 0.75152 0.0
N83 N 0.91928 0.49129 0.72314 0.0
H84 H 0.58811 0.46174 0.71809 0.0
H85 H 0.53892 0.44217 0.76576 0.0
H86 H 0.61437 0.52077 0.76723 0.0
H87 H 0.50358 0.4207 0.74013 0.0
C88 C 0.51252 0.40944 0.73326 0.0
C89 C 0.58499 0.46757 0.73219 0.0
C90 C 0.6042 0.49367 0.74153 0.0
C91 C 0.56106 0.44926 0.74062 0.0
C92 C 0.55697 0.45656 0.75894 0.0
C93 C 0.57608 0.4823 0.76859 0.0
C94 C 0.59944 0.50094 0.75972 0.0
N95 N 0.54155 0.42341 0.73062 0.0
H96 H 0.56148 0.12727 0.7275 0.0
H97 H 0.59076 0.10082 0.77505 0.0
H98 H 0.50941 0.09374 0.77299 0.0
H99 H 0.63354 0.13754 0.76673 0.0
C100 C 0.63084 0.13252 0.75146 0.0
C101 C 0.55815 0.11858 0.74106 0.0
C102 C 0.53301 0.11097 0.74922 0.0
C103 C 0.57918 0.11526 0.75031 0.0
C104 C 0.57479 0.1038 0.76789 0.0
C105 C 0.54967 0.09611 0.77625 0.0
C106 C 0.52888 0.09967 0.76673 0.0
N107 N 0.60424 0.12311 0.74142 0.0
H108 H 0.76195 0.54393 0.9569 0.0
H109 H 0.81287 0.57357 0.91043 0.0
H110 H 0.73967 0.58127 0.91263 0.0
H111 H 0.82575 0.54355 0.91746 0.0
C112 C 0.82597 0.5431 0.93275 0.0
C113 C 0.76583 0.55342 0.94364 0.0
C114 C 0.74791 0.56234 0.93604 0.0
C115 C 0.78893 0.55672 0.93435 0.0
C116 C 0.79447 0.56967 0.91738 0.0
C117 C 0.77682 0.57856 0.90947 0.0
C118 C 0.75367 0.57495 0.91892 0.0
N119 N 0.80651 0.54744 0.94264 0.0
H120 H 0.43774 0.20448 0.97901 0.0
H121 H 0.40888 0.22655 0.92902 0.0
H122 H 0.41069 0.15089 0.92702 0.0
H123 H 0.3962 0.24825 0.95128 0.0
C124 C 0.41544 0.25805 0.96071 0.0
C125 C 0.4294 0.1997 0.96424 0.0
C126 C 0.42465 0.17524 0.95417 0.0
C127 C 0.42303 0.21792 0.95546 0.0
C128 C 0.41288 0.21213 0.93619 0.0
C129 C 0.40823 0.18794 0.9259 0.0
C130 C 0.41374 0.16936 0.93504 0.0
N131 N 0.42835 0.24261 0.96596 0.0
H132 H 0.80017 0.23414 0.96608 0.0
H133 H 0.76644 0.17771 0.91555 0.0
H134 H 0.84091 0.25593 0.91442 0.0
H135 H 0.74285 0.1469 0.93539 0.0
C136 C 0.73865 0.15774 0.94673 0.0
C137 C 0.80136 0.22942 0.95126 0.0
C138 C 0.8235 0.24847 0.94152 0.0
C139 C 0.7807 0.20383 0.94217 0.0
C140 C 0.78235 0.19705 0.92302 0.0
C141 C 0.80425 0.21576 0.91309 0.0
C142 C 0.82438 0.24145 0.92232 0.0
N143 N 0.7581 0.18602 0.9525 0.0
H144 H 0.56519 0.77204 0.04535 0.0
H145 H 0.604 0.83235 0.09364 0.0
H146 H 0.5962 0.75252 0.09578 0.0
H147 H 0.61686 0.86176 0.06776 0.0
C148 C 0.59556 0.85193 0.06104 0.0
C149 C 0.57571 0.77794 0.05958 0.0
C150 C 0.57963 0.75891 0.06948 0.0
C151 C 0.58504 0.80461 0.06801 0.0
C152 C 0.59787 0.8122 0.08672 0.0
C153 C 0.60127 0.79316 0.09692 0.0
C154 C 0.59259 0.76683 0.08809 0.0
N155 N 0.57944 0.82272 0.05787 0.0
H156 H 0.26009 0.7978 0.05259 0.0
H157 H 0.20821 0.77734 0.09876 0.0
H158 H 0.28367 0.85633 0.10178 0.0
H159 H 0.17473 0.75976 0.06943 0.0
C160 C 0.18335 0.74696 0.06477 0.0
C161 C 0.25629 0.80342 0.06654 0.0
C162 C 0.27492 0.82955 0.0761 0.0
C163 C 0.23193 0.7849 0.07444 0.0
C164 C 0.22678 0.79193 0.09247 0.0
C165 C 0.2454 0.81756 0.10247 0.0
C166 C 0.26921 0.83651 0.09408 0.0
N167 N 0.21279 0.75915 0.06421 0.0
H168 H 0.22952 0.46537 0.06237 0.0
H169 H 0.25462 0.43015 0.10634 0.0
H170 H 0.17612 0.42883 0.10677 0.0
H171 H 0.27424 0.42074 0.07952 0.0
C172 C 0.28437 0.44131 0.0747 0.0
C173 C 0.22532 0.45504 0.07529 0.0
C174 C 0.20002 0.44723 0.08336 0.0
C175 C 0.24485 0.44854 0.08328 0.0
C176 C 0.23944 0.43487 0.09997 0.0
C177 C 0.21455 0.42753 0.10855 0.0
C178 C 0.19504 0.43379 0.10007 0.0
N179 N 0.26993 0.45639 0.07442 0.0
H180 H 0.42592 0.87641 0.28917 0.0
H181 H 0.4803 0.90927 0.24475 0.0
H182 H 0.4057 0.91477 0.24457 0.0
H183 H 0.49224 0.87844 0.25167 0.0
C184 C 0.49231 0.87815 0.26697 0.0
C185 C 0.43083 0.88687 0.27632 0.0
C186 C 0.41273 0.89513 0.26802 0.0
C187 C 0.45486 0.89116 0.26783 0.0
C188 C 0.46121 0.90457 0.25106 0.0
C189 C 0.44345 0.91287 0.2425 0.0
C190 C 0.41936 0.90824 0.25111 0.0
N191 N 0.47243 0.88216 0.27656 0.0
H192 H 0.10749 0.54183 0.31324 0.0
H193 H 0.07571 0.5603 0.26288 0.0
H194 H 0.07608 0.48398 0.2633 0.0
H195 H 0.06362 0.58293 0.28477 0.0
C196 C 0.08305 0.59338 0.294 0.0
C197 C 0.09814 0.53594 0.29869 0.0
C198 C 0.09261 0.51074 0.28937 0.0
C199 C 0.09107 0.5534 0.28948 0.0
C200 C 0.0795 0.54609 0.27049 0.0
C201 C 0.07391 0.52106 0.26092 0.0
C202 C 0.08031 0.50338 0.27055 0.0
N203 N 0.09686 0.57875 0.29927 0.0
H204 H 0.45928 0.57594 0.29553 0.0
H205 H 0.42954 0.51282 0.24894 0.0
H206 H 0.50548 0.58986 0.24635 0.0
H207 H 0.41302 0.48526 0.27524 0.0
C208 C 0.40397 0.49646 0.28201 0.0
C209 C 0.46202 0.56885 0.2817 0.0
C210 C 0.48509 0.58624 0.27204 0.0
C211 C 0.44226 0.54222 0.2737 0.0
C212 C 0.44519 0.53301 0.25554 0.0
C213 C 0.46764 0.5505 0.24547 0.0
C214 C 0.48761 0.57684 0.2539 0.0
N215 N 0.41893 0.52579 0.28383 0.0
Eu216 Eu 0.49275 0.99307 0.9888 0.0
Eu217 Eu 0.51093 0.02318 0.03282 0.0
C218 C 0.48445 0.04451 1.00144 0.0
C219 C 0.48737 0.98456 0.93491 0.0
C220 C 0.48668 0.00882 0.93209 0.0
C221 C 0.50232 0.98462 0.90326 0.0
C222 C 0.49366 0.02082 0.91495 0.0
C223 C 0.49513 0.97253 0.92035 0.0
C224 C 0.5018 0.00901 0.90033 0.0
C225 C 0.48193 0.97262 0.95331 0.0
O226 O 0.46444 0.99355 0.03024 0.0
O227 O 0.46027 0.96228 0.0062 0.0
C228 C 0.45064 0.96887 0.02098 0.0
O229 O 0.52091 0.97994 0.00333 0.0
O230 O 0.50263 0.04188 0.0577 0.0
O231 O 0.53918 0.03702 0.05877 0.0
O232 O 0.50931 0.9824 0.03348 0.0
C233 C 0.51956 0.97298 0.02075 0.0
O234 O 0.53005 0.03516 0.98741 0.0
O235 O 0.5505 0.04198 0.01767 0.0
O236 O 0.50348 0.05209 0.01588 0.0
O237 O 0.50408 0.97734 0.96398 0.0
O238 O 0.46389 0.97534 0.96304 0.0
O239 O 0.47375 0.02033 0.99163 0.0
C240 C 0.51528 0.02998 0.08648 0.0
C241 C 0.51191 0.00373 0.08851 0.0
C242 C 0.50207 0.03132 0.11854 0.0
C243 C 0.50401 0.99154 0.10548 0.0
C244 C 0.51024 0.04363 0.1016 0.0
C245 C 0.49898 0.00517 0.12069 0.0
C246 C 0.52298 0.04275 0.06848 0.0
C247 C 0.55221 0.04721 0.99977 0.0
H248 H 0.48104 0.01868 0.94321 0.0
H249 H 0.50891 0.97515 0.89253 0.0
H250 H 0.49259 0.03934 0.91316 0.0
H251 H 0.49615 0.95401 0.92234 0.0
H252 H 0.51524 0.99256 0.07694 0.0
H253 H 0.49851 0.04239 0.13004 0.0
H254 H 0.50141 0.97122 0.1066 0.0
H255 H 0.51252 0.06379 0.10027 0.0
Eu256 Eu 0.02394 0.49786 0.99042 0.0
Eu257 Eu 0.996 0.48874 0.03101 0.0
C258 C 0.97166 0.43984 0.99789 0.0
C259 C 0.03569 0.50097 0.93773 0.0
C260 C 0.00999 0.47758 0.93099 0.0
C261 C 0.04141 0.51625 0.90607 0.0
C262 C 1.00016 0.47349 0.91184 0.0
C263 C 0.05135 0.52019 0.92516 0.0
C264 C 0.0157 0.49291 0.89924 0.0
C265 C 0.04579 0.50655 0.95793 0.0
O266 O 0.02645 0.47289 0.03302 0.0
O267 O 0.0562 0.4987 0.01158 0.0
C268 C 0.05081 0.48344 0.02588 0.0
O269 O 0.038 0.53968 0.00553 0.0
O270 O 0.97498 0.46158 0.05289 0.0
O271 O 0.98309 0.50374 0.05526 0.0
O272 O 0.03723 0.52853 0.03603 0.0
C273 C 0.04645 0.54686 0.02361 0.0
O274 O 0.98152 0.49333 0.98373 0.0
O275 O 0.97679 0.50853 0.01322 0.0
O276 O 0.96504 0.45301 0.01054 0.0
O277 O 0.04123 0.52417 0.96753 0.0
O278 O 0.04094 0.48538 0.96724 0.0
O279 O 0.99631 0.45178 0.99122 0.0
C280 C 0.9847 0.48407 0.08365 0.0
C281 C 0.0114 0.50553 0.09083 0.0
C282 C 0.97685 0.46716 0.11481 0.0
C283 C 0.02062 0.50798 0.10995 0.0
C284 C 0.96757 0.46487 0.09573 0.0
C285 C 1.00344 0.48884 0.12219 0.0
C286 C 0.97458 0.48104 0.06359 0.0
C287 C 0.96972 0.5033 0.99481 0.0
H288 H 0.9974 0.4627 0.94055 0.0
H289 H 0.05391 0.53139 0.89663 0.0
H290 H 0.98012 0.45547 0.90697 0.0
H291 H 0.07114 0.53844 0.93018 0.0
H292 H 0.02508 0.52047 0.08169 0.0
H293 H 0.96327 0.45178 0.12373 0.0
H294 H 0.04106 0.52512 0.11518 0.0
H295 H 0.94701 0.44801 0.09037 0.0
Eu296 Eu 0.53106 0.51293 0.02825 0.0
Eu297 Eu 0.50878 0.5186 0.98544 0.0
C298 C 0.53392 0.56905 0.01757 0.0
C299 C 0.53807 0.51138 0.08163 0.0
C300 C 0.53071 0.53158 0.08573 0.0
C301 C 0.52653 0.49564 0.11288 0.0
C302 C 0.5214 0.53386 0.10332 0.0
C303 C 0.53604 0.49354 0.09533 0.0
C304 C 0.51892 0.51573 0.11706 0.0
C305 C 0.54562 0.50718 0.06267 0.0
O306 O 0.55551 0.53641 0.98574 0.0
O307 O 0.56302 0.5138 0.00934 0.0
C308 C 0.57098 0.52781 0.99441 0.0
O309 O 0.50329 0.4702 0.01388 0.0
O310 O 0.51299 0.54398 0.96218 0.0
O311 O 0.48011 0.50102 0.95968 0.0
O312 O 0.51087 0.47957 0.98314 0.0
C313 C 0.50299 0.46211 0.99615 0.0
O314 O 0.49181 0.51489 0.03193 0.0
O315 O 0.4704 0.49824 1.00172 0.0
O316 O 0.514 0.55505 0.00383 0.0
O317 O 0.52539 0.48723 0.05148 0.0
O318 O 0.56021 0.52915 0.0539 0.0
O319 O 0.5473 0.55821 0.02613 0.0
C320 C 0.50224 0.5195 0.9321 0.0
C321 C 0.50816 0.49832 0.92773 0.0
C322 C 0.51563 0.53607 0.90125 0.0
C323 C 0.51757 0.49593 0.91021 0.0
C324 C 0.50598 0.53829 0.91874 0.0
C325 C 0.52163 0.51489 0.89678 0.0
C326 C 0.4938 0.5232 0.95089 0.0
C327 C 0.46925 0.50346 0.01988 0.0
H328 H 0.5318 0.54538 0.07525 0.0
H329 H 0.52451 0.48108 0.12297 0.0
H330 H 0.51618 0.54986 0.10614 0.0
H331 H 0.54125 0.47756 0.09229 0.0
H332 H 0.50571 0.4837 0.9379 0.0
H333 H 0.51889 0.55128 0.89141 0.0
H334 H 0.52152 0.4791 0.90718 0.0
H335 H 0.50186 0.55498 0.92195 0.0
Eu336 Eu 0.16015 0.3284 0.32288 0.0
Eu337 Eu 0.177 0.35637 0.36734 0.0
C338 C 0.15211 0.37973 0.33633 0.0
C339 C 0.15567 0.32041 0.26876 0.0
C340 C 0.15401 0.34404 0.26541 0.0
C341 C 0.17085 0.31998 0.23724 0.0
C342 C 0.16055 0.35544 0.24803 0.0
C343 C 0.16408 0.30847 0.25454 0.0
C344 C 0.1692 0.34362 0.23379 0.0
C345 C 0.15018 0.30874 0.28724 0.0
O346 O 0.13036 0.3277 0.36385 0.0
O347 O 0.12665 0.29716 0.33945 0.0
C348 C 0.11648 0.30344 0.35405 0.0
O349 O 0.18744 0.31426 0.33743 0.0
O350 O 0.16832 0.37397 0.39261 0.0
O351 O 0.2049 0.3692 0.39339 0.0
O352 O 0.17433 0.31503 0.36729 0.0
C353 C 0.1851 0.30619 0.35458 0.0
O354 O 0.19755 0.37078 0.32253 0.0
O355 O 0.217 0.37472 0.35268 0.0
O356 O 0.17063 0.38649 0.351 0.0
O357 O 0.17227 0.31357 0.29804 0.0
O358 O 0.13196 0.31135 0.2968 0.0
O359 O 0.14153 0.35593 0.32602 0.0
C360 C 0.18074 0.36101 0.42101 0.0
C361 C 0.17668 0.33437 0.42233 0.0
C362 C 0.16827 0.36154 0.45336 0.0
C363 C 0.16879 0.32156 0.4391 0.0
C364 C 0.1764 0.37445 0.43662 0.0
C365 C 0.16449 0.33499 0.45481 0.0
C366 C 0.18859 0.3745 0.40328 0.0
C367 C 0.21932 0.38169 0.33518 0.0
H368 H 0.14797 0.35387 0.27628 0.0
H369 H 0.17717 0.31025 0.2265 0.0
H370 H 0.15937 0.37382 0.24588 0.0
H371 H 0.16565 0.29033 0.25689 0.0
H372 H 0.17948 0.32339 0.41038 0.0
H373 H 0.16529 0.37247 0.46525 0.0
H374 H 0.16566 0.30096 0.43967 0.0
H375 H 0.17925 0.39493 0.43584 0.0
Eu376 Eu 0.69065 0.83333 0.32398 0.0
Eu377 Eu 0.6612 0.82168 0.36439 0.0
C378 C 0.63685 0.77455 0.32947 0.0
C379 C 0.70285 0.83804 0.27161 0.0
C380 C 0.67654 0.81518 0.26535 0.0
C381 C 0.70863 0.85175 0.23954 0.0
C382 C 0.66638 0.81058 0.24625 0.0
C383 C 0.71886 0.85621 0.25861 0.0
C384 C 0.68224 0.82895 0.23319 0.0
C385 C 0.71305 0.84423 0.29177 0.0
O386 O 0.69116 0.80517 0.36619 0.0
O387 O 0.72112 0.83005 0.34444 0.0
C388 C 0.71518 0.81462 0.35868 0.0
O389 O 0.70819 0.87438 0.34121 0.0
O390 O 0.64005 0.79401 0.38602 0.0
O391 O 0.64676 0.83566 0.38826 0.0
O392 O 0.70307 0.86008 0.37107 0.0
C393 C 0.71518 0.87936 0.35957 0.0
O394 O 0.6486 0.82966 0.31762 0.0
O395 O 0.64353 0.8435 0.34737 0.0
O396 O 0.63088 0.78634 0.34354 0.0
O397 O 0.70653 0.86041 0.30134 0.0
O398 O 0.70993 0.82351 0.30102 0.0
O399 O 0.66094 0.78732 0.32205 0.0
C400 C 0.64866 0.81643 0.4167 0.0
C401 C 0.67565 0.83754 0.42365 0.0
C402 C 0.64041 0.80084 0.44821 0.0
C403 C 0.68486 0.84045 0.44281 0.0
C404 C 0.63115 0.79809 0.42906 0.0
C405 C 0.66736 0.82211 0.45533 0.0
C406 C 0.63869 0.81302 0.39659 0.0
C407 C 0.63671 0.83916 0.32896 0.0
H408 H 0.66371 0.80115 0.27528 0.0
H409 H 0.72138 0.86608 0.22975 0.0
H410 H 0.64582 0.79303 0.24179 0.0
H411 H 0.73913 0.87407 0.26327 0.0
H412 H 0.68958 0.85183 0.41428 0.0
H413 H 0.62657 0.78609 0.45737 0.0
H414 H 0.70557 0.85727 0.44784 0.0
H415 H 0.61034 0.78153 0.42388 0.0
Eu416 Eu 0.19711 0.8486 0.35992 0.0
Eu417 Eu 0.17358 0.8545 0.31764 0.0
C418 C 0.20318 0.90584 0.34891 0.0
C419 C 0.20397 0.84455 0.41311 0.0
C420 C 0.19771 0.86506 0.41894 0.0
C421 C 0.19087 0.82478 0.44311 0.0
C422 C 0.18839 0.86558 0.43682 0.0
C423 C 0.20045 0.82443 0.4253 0.0
C424 C 0.1848 0.84541 0.44914 0.0
C425 C 0.21275 0.84294 0.39407 0.0
O426 O 0.2199 0.87024 0.31678 0.0
O427 O 0.22749 0.84765 0.34037 0.0
C428 C 0.23512 0.86116 0.32521 0.0
O429 O 0.16653 0.80598 0.34637 0.0
O430 O 0.17802 0.87971 0.29423 0.0
O431 O 0.14405 0.83726 0.29226 0.0
O432 O 0.17357 0.81436 0.31548 0.0
C433 C 0.16541 0.79721 0.32867 0.0
O434 O 0.15911 0.85217 0.36478 0.0
O435 O 0.13594 0.83699 0.33489 0.0
O436 O 0.18183 0.89213 0.33606 0.0
O437 O 0.19433 0.82239 0.38234 0.0
O438 O 0.22536 0.86585 0.38594 0.0
O439 O 0.21612 0.89405 0.35672 0.0
C440 C 0.16596 0.85444 0.26434 0.0
C441 C 0.17092 0.83255 0.26016 0.0
C442 C 0.17925 0.86992 0.2332 0.0
C443 C 0.17975 0.82926 0.24259 0.0
C444 C 0.17015 0.87306 0.25073 0.0
C445 C 0.18415 0.84798 0.22896 0.0
C446 C 0.15819 0.85906 0.28319 0.0
C447 C 0.13607 0.84209 0.35328 0.0
H448 H 0.19995 0.88064 0.40968 0.0
H449 H 0.1879 0.80863 0.45204 0.0
H450 H 0.18434 0.88201 0.44105 0.0
H451 H 0.2048 0.80823 0.42095 0.0
H452 H 0.16833 0.81818 0.27055 0.0
H453 H 0.18228 0.88455 0.22292 0.0
H454 H 0.18372 0.81237 0.23983 0.0
H455 H 0.16667 0.89022 0.25375 0.0
Eu456 Eu 0.82228 0.65455 0.65451 0.0
Eu457 Eu 0.8419 0.6852 0.69848 0.0
C458 C 0.81504 0.70667 0.66745 0.0
C459 C 0.8154 0.64515 0.60071 0.0
C460 C 0.82004 0.67187 0.59887 0.0
C461 C 0.82441 0.64182 0.56777 0.0
C462 C 0.82672 0.68345 0.58157 0.0
C463 C 0.81758 0.63022 0.58505 0.0
C464 C 0.82916 0.66864 0.56579 0.0
C465 C 0.81015 0.63341 0.61915 0.0
O466 O 0.79532 0.65586 0.69634 0.0
O467 O 0.79055 0.62419 0.6724 0.0
C468 C 0.78125 0.63109 0.6872 0.0
O469 O 0.85148 0.6422 0.6685 0.0
O470 O 0.83463 0.70467 0.72341 0.0
O471 O 0.87024 0.69829 0.72435 0.0
O472 O 0.84051 0.6445 0.69882 0.0
C473 C 0.85069 0.6353 0.68591 0.0
O474 O 0.85923 0.69638 0.65244 0.0
O475 O 0.88084 0.70505 0.68261 0.0
O476 O 0.83422 0.71408 0.68175 0.0
O477 O 0.83239 0.63784 0.62958 0.0
O478 O 0.79276 0.63693 0.62907 0.0
O479 O 0.80394 0.68243 0.65762 0.0
C480 C 0.84672 0.69236 0.7522 0.0
C481 C 0.84207 0.66567 0.75427 0.0
C482 C 0.83396 0.69465 0.78428 0.0
C483 C 0.83363 0.65366 0.77125 0.0
C484 C 0.84261 0.70674 0.76731 0.0
C485 C 0.82932 0.66792 0.78648 0.0
C486 C 0.85468 0.70486 0.73412 0.0
C487 C 0.88164 0.70938 0.66452 0.0
H488 H 0.81875 0.68389 0.61087 0.0
H489 H 0.82656 0.62995 0.55608 0.0
H490 H 0.82984 0.70398 0.58055 0.0
H491 H 0.81446 0.60971 0.58627 0.0
H492 H 0.84486 0.65403 0.74274 0.0
H493 H 0.83045 0.70611 0.79553 0.0
H494 H 0.83072 0.63325 0.77247 0.0
H495 H 0.84578 0.72722 0.76592 0.0
Eu496 Eu 0.35765 0.15982 0.65621 0.0
Eu497 Eu 0.32829 0.14938 0.69659 0.0
C498 C 0.30452 0.10189 0.66183 0.0
C499 C 0.37142 0.16547 0.60388 0.0
C500 C 0.34712 0.14176 0.59552 0.0
C501 C 0.37859 0.18493 0.57351 0.0
C502 C 0.33882 0.13956 0.57624 0.0
C503 C 0.38704 0.18701 0.59275 0.0
C504 C 0.35446 0.16114 0.56505 0.0
C505 C 0.38059 0.16836 0.62416 0.0
O506 O 0.37079 0.15386 0.70313 0.0
O507 O 0.37477 0.13811 0.67369 0.0
C508 C 0.3821 0.14342 0.69202 0.0
O509 O 0.38752 0.19585 0.67687 0.0
O510 O 0.31251 0.12309 0.71966 0.0
O511 O 0.3094 0.16012 0.71937 0.0
O512 O 0.35627 0.19543 0.69702 0.0
C513 C 0.38057 0.20826 0.68991 0.0
O514 O 0.32723 0.17558 0.65378 0.0
O515 O 0.29722 0.15099 0.67559 0.0
O516 O 0.31113 0.10784 0.68019 0.0
O517 O 0.37938 0.18746 0.6347 0.0
O518 O 0.37215 0.14564 0.63245 0.0
O519 O 0.31631 0.1206 0.64987 0.0
C520 C 0.31609 0.14606 0.74917 0.0
C521 C 0.34082 0.17055 0.75585 0.0
C522 C 0.31138 0.13128 0.78095 0.0
C523 C 0.35071 0.1754 0.77504 0.0
C524 C 0.30139 0.12656 0.76183 0.0
C525 C 0.33621 0.15568 0.78772 0.0
C526 C 0.30617 0.13963 0.72893 0.0
C527 C 0.30308 0.16601 0.66111 0.0
H528 H 0.33451 0.12497 0.60386 0.0
H529 H 0.39114 0.20177 0.56518 0.0
H530 H 0.31994 0.12113 0.57013 0.0
H531 H 0.4058 0.20549 0.59896 0.0
H532 H 0.35268 0.1857 0.74622 0.0
H533 H 0.29966 0.11586 0.79046 0.0
H534 H 0.37005 0.19426 0.77986 0.0
H535 H 0.28236 0.10748 0.75686 0.0
Eu536 Eu 0.86647 0.17926 0.69499 0.0
Eu537 Eu 0.84348 0.18522 0.65251 0.0
C538 C 0.87202 0.2366 0.68391 0.0
C539 C 0.87386 0.17804 0.7482 0.0
C540 C 0.86767 0.19909 0.75231 0.0
C541 C 0.86141 0.16244 0.77938 0.0
C542 C 0.85859 0.2019 0.76989 0.0
C543 C 0.87073 0.1598 0.76186 0.0
C544 C 0.85513 0.18349 0.78362 0.0
C545 C 0.88149 0.17359 0.72929 0.0
O546 O 0.89001 0.20186 0.65236 0.0
O547 O 0.89674 0.17806 0.6754 0.0
C548 C 0.90491 0.19229 0.66059 0.0
O549 O 0.83512 0.13686 0.68137 0.0
O550 O 0.84787 0.21016 0.62896 0.0
O551 O 0.81453 0.16742 0.62688 0.0
O552 O 0.8442 0.1454 0.65079 0.0
C553 C 0.83477 0.12809 0.66382 0.0
O554 O 0.82884 0.1833 0.69972 0.0
O555 O 0.80578 0.1689 0.66973 0.0
O556 O 0.85151 0.22305 0.67047 0.0
O557 O 0.86136 0.15349 0.71814 0.0
O558 O 0.89602 0.19545 0.72042 0.0
O559 O 0.88438 0.2248 0.69253 0.0
C560 C 0.83678 0.18494 0.5992 0.0
C561 C 0.84611 0.166 0.5962 0.0
C562 C 0.84666 0.19812 0.5672 0.0
C563 C 0.85541 0.16297 0.57878 0.0
C564 C 0.83711 0.20097 0.58461 0.0
C565 C 0.85589 0.17906 0.56411 0.0
C566 C 0.82842 0.18932 0.61785 0.0
C567 C 0.80593 0.17365 0.68817 0.0
H568 H 0.86959 0.21321 0.74188 0.0
H569 H 0.85857 0.14759 0.78943 0.0
H570 H 0.85438 0.2186 0.77272 0.0
H571 H 0.87499 0.14316 0.75882 0.0
H572 H 0.84652 0.15377 0.60741 0.0
H573 H 0.84662 0.21065 0.55612 0.0
H574 H 0.86276 0.14841 0.5769 0.0
H575 H 0.83026 0.21588 0.58675 0.0
H576 H 0.31175 0.81973 0.05747 0.0
H577 H 0.29477 0.8847 0.07443 0.0
H578 H 0.35336 0.85293 0.04324 0.0
H579 H 0.33602 0.91779 0.05999 0.0
H580 H 0.42819 0.97442 0.05309 0.0
H581 H 0.38576 0.94058 0.0656 0.0
H582 H 0.36976 0.88226 0.01754 0.0
H583 H 0.41302 0.91617 0.00514 0.0
C584 C 0.31677 0.84107 0.05799 0.0
C585 C 0.30009 0.84963 0.0672 0.0
C586 C 0.34056 0.86009 0.04977 0.0
C587 C 0.34816 0.8881 0.05051 0.0
C588 C 0.33115 0.89651 0.05947 0.0
C589 C 0.30749 0.87755 0.06776 0.0
C590 C 0.41564 0.95446 0.04506 0.0
C591 C 0.42405 0.94809 0.02803 0.0
C592 C 0.39113 0.93504 0.05223 0.0
C593 C 0.37416 0.90869 0.04255 0.0
C594 C 0.38247 0.90227 0.02547 0.0
C595 C 0.40718 0.92175 0.01829 0.0
H596 H 0.20779 0.4943 0.06816 0.0
H597 H 0.14342 0.41226 0.07811 0.0
H598 H 0.17198 0.50329 0.05433 0.0
H599 H 0.10772 0.42108 0.06418 0.0
H600 H 0.04923 0.45605 0.05707 0.0
H601 H 0.08553 0.44786 0.07078 0.0
H602 H 0.13836 0.49042 0.02706 0.0
H603 H 0.10236 0.49918 0.0136 0.0
C604 C 0.18603 0.4781 0.06722 0.0
C605 C 0.17846 0.45263 0.07435 0.0
C606 C 0.16548 0.48323 0.05929 0.0
C607 C 0.1369 0.46296 0.05822 0.0
C608 C 0.12944 0.43737 0.06512 0.0
C609 C 0.14993 0.43229 0.07308 0.0
C610 C 0.06857 0.46367 0.05037 0.0
C611 C 0.07281 0.47825 0.03421 0.0
C612 C 0.08937 0.45884 0.05818 0.0
C613 C 0.1149 0.46841 0.05001 0.0
C614 C 0.11914 0.48306 0.03388 0.0
C615 C 0.09837 0.48794 0.02608 0.0
H616 H 0.58407 0.74357 0.03298 0.0
H617 H 0.554 0.71044 0.08598 0.0
H618 H 0.57218 0.6975 0.01949 0.0
H619 H 0.5429 0.66481 0.07265 0.0
H620 H 0.56364 0.59924 0.05058 0.0
H621 H 0.57329 0.64513 0.06216 0.0
H622 H 0.52915 0.64875 0.01127 0.0
H623 H 0.51934 0.60265 0.99957 0.0
C624 C 0.57463 0.72645 0.04166 0.0
C625 C 0.57032 0.73073 0.06063 0.0
C626 C 0.56792 0.70015 0.03396 0.0
C627 C 0.557 0.67777 0.04514 0.0
C628 C 0.55182 0.68186 0.06386 0.0
C629 C 0.55825 0.708 0.07148 0.0
C630 C 0.5561 0.60983 0.04179 0.0
C631 C 0.54068 0.5973 0.02418 0.0
C632 C 0.56148 0.63601 0.04849 0.0
C633 C 0.5518 0.65033 0.03764 0.0
C634 C 0.5369 0.63813 0.01985 0.0
C635 C 0.53121 0.61174 0.01323 0.0
H636 H 0.81845 0.28143 0.96952 0.0
H637 H 0.87941 0.27741 0.9357 0.0
H638 H 0.85449 0.32592 0.98461 0.0
H639 H 0.91448 0.32312 0.9491 0.0
H640 H 0.98019 0.3978 0.98588 0.0
H641 H 0.94488 0.35067 0.9742 0.0
H642 H 0.87997 0.3717 0.98021 0.0
H643 H 0.91527 0.418 0.99321 0.0
C644 C 0.83947 0.28995 0.96523 0.0
C645 C 0.84572 0.27566 0.95118 0.0
C646 C 0.86016 0.31588 0.97367 0.0
C647 C 0.88758 0.32861 0.96801 0.0
C648 C 0.89386 0.31412 0.95413 0.0
C649 C 0.8734 0.28793 0.94607 0.0
C650 C 0.95832 0.39215 0.98475 0.0
C651 C 0.95041 0.41143 0.99047 0.0
C652 C 0.93799 0.36516 0.97792 0.0
C653 C 0.9093 0.35706 0.97612 0.0
C654 C 0.90162 0.37668 0.98176 0.0
C655 C 0.92189 0.40339 0.98907 0.0
H656 H 0.71103 0.51673 0.95291 0.0
H657 H 0.7281 0.59817 0.94111 0.0
H658 H 0.66926 0.50911 0.96778 0.0
H659 H 0.68638 0.59059 0.956 0.0
H660 H 0.59306 0.55466 0.96317 0.0
H661 H 0.63606 0.56328 0.94994 0.0
H662 H 0.6531 0.52342 0.99506 0.0
H663 H 0.60961 0.51426 0.00817 0.0
C664 C 0.70608 0.53316 0.9537 0.0
C665 C 0.72292 0.55804 0.94574 0.0
C666 C 0.68211 0.52879 0.96224 0.0
C667 C 0.67434 0.54918 0.96305 0.0
C668 C 0.69142 0.57422 0.95535 0.0
C669 C 0.71537 0.57858 0.9468 0.0
C670 C 0.60596 0.54779 0.97037 0.0
C671 C 0.59779 0.53375 0.98678 0.0
C672 C 0.63078 0.55289 0.9628 0.0
C673 C 0.64816 0.54413 0.97144 0.0
C674 C 0.64008 0.5302 0.98791 0.0
C675 C 0.6152 0.52508 0.9955 0.0
H676 H 0.47296 0.18846 0.97556 0.0
H677 H 0.39296 0.11921 0.95315 0.0
H678 H 0.48672 0.15685 0.98815 0.0
H679 H 0.40632 0.08756 0.96609 0.0
H680 H 0.45287 0.03974 0.96905 0.0
H681 H 0.43773 0.07137 0.95915 0.0
H682 H 0.47862 0.12414 0.01108 0.0
H683 H 0.49456 0.09274 0.0208 0.0
C684 C 0.45814 0.16648 0.97365 0.0
C685 C 0.43199 0.15624 0.96327 0.0
C686 C 0.46598 0.14836 0.98088 0.0
C687 C 0.44772 0.11963 0.97799 0.0
C688 C 0.42114 0.10952 0.96821 0.0
C689 C 0.41342 0.12762 0.96085 0.0
C690 C 0.45857 0.05802 0.97843 0.0
C691 C 0.47492 0.0637 0.99574 0.0
C692 C 0.44972 0.0761 0.97279 0.0
C693 C 0.45679 0.10023 0.98436 0.0
C694 C 0.47305 0.10588 1.00173 0.0
C695 C 0.4821 0.08784 0.00734 0.0
H696 H 0.72143 0.17489 0.97788 0.0
H697 H 0.69608 0.10623 0.93574 0.0
H698 H 0.67651 0.14937 0.99144 0.0
H699 H 0.65131 0.08079 0.94925 0.0
H700 H 0.56362 0.05812 0.96324 0.0
H701 H 0.60901 0.08574 0.95134 0.0
H702 H 0.64904 0.10609 0.0085 0.0
H703 H 0.60334 0.07833 0.02059 0.0
C704 C 0.70631 0.15434 0.97156 0.0
C705 C 0.71214 0.14252 0.95569 0.0
C706 C 0.68067 0.1397 0.97937 0.0
C707 C 0.66033 0.11317 0.97132 0.0
C708 C 0.66641 0.10134 0.9556 0.0
C709 C 0.69206 0.11582 0.94793 0.0
C710 C 0.58199 0.06859 0.97336 0.0
C711 C 0.57979 0.06586 0.9929 0.0
C712 C 0.60805 0.0843 0.96649 0.0
C713 C 0.63261 0.09785 0.97896 0.0
C714 C 0.63044 0.09593 0.99856 0.0
C715 C 0.60428 0.07997 0.00547 0.0
H716 H 0.83023 0.53317 0.97015 0.0
H717 H 0.8679 0.53972 0.91751 0.0
H718 H 0.86411 0.52267 0.9855 0.0
H719 H 0.90236 0.53034 0.93285 0.0
H720 H 0.94246 0.4857 0.95922 0.0
H721 H 0.90692 0.49437 0.94499 0.0
H722 H 0.91233 0.54205 0.99669 0.0
H723 H 0.94726 0.53245 0.01118 0.0
C724 C 0.84587 0.53253 0.9619 0.0
C725 C 0.84641 0.53714 0.94261 0.0
C726 C 0.86541 0.52668 0.97071 0.0
C727 C 0.88598 0.5255 0.96043 0.0
C728 C 0.88654 0.53046 0.94116 0.0
C729 C 0.86691 0.53605 0.93237 0.0
C730 C 0.93608 0.49802 0.96759 0.0
C731 C 0.94784 0.50849 0.98632 0.0
C732 C 0.91575 0.50314 0.95937 0.0
C733 C 0.90683 0.51915 0.96959 0.0
C734 C 0.9184 0.52938 0.98843 0.0
C735 C 0.93858 0.52402 0.99673 0.0
H736 H 0.39968 0.29331 0.94817 0.0
H737 H 0.46164 0.28997 0.98599 0.0
H738 H 0.42236 0.34314 0.95638 0.0
H739 H 0.48434 0.33979 0.99419 0.0
H740 H 0.49288 0.42202 0.01974 0.0
H741 H 0.4725 0.37269 0.01117 0.0
H742 H 0.46822 0.38573 0.95189 0.0
H743 H 0.48857 0.43524 0.96042 0.0
C744 C 0.41811 0.30328 0.95827 0.0
C745 C 0.42891 0.28789 0.96645 0.0
C746 C 0.43119 0.33176 0.96284 0.0
C747 C 0.45517 0.3453 0.97583 0.0
C748 C 0.4658 0.32982 0.9842 0.0
C749 C 0.45285 0.30134 0.97948 0.0
C750 C 0.48774 0.41443 0.00486 0.0
C751 C 0.49222 0.43251 0.99075 0.0
C752 C 0.47621 0.38619 0.99997 0.0
C753 C 0.46871 0.37542 0.98089 0.0
C754 C 0.47357 0.39351 0.96673 0.0
C755 C 0.48536 0.42183 0.97161 0.0
H756 H 0.19526 0.70505 0.06021 0.0
H757 H 0.12769 0.72278 0.05526 0.0
H758 H 0.16192 0.65609 0.05065 0.0
H759 H 0.09455 0.67402 0.04529 0.0
H760 H 0.05595 0.59178 0.00539 0.0
H761 H 0.08957 0.64026 0.01541 0.0
H762 H 0.11657 0.61663 0.06574 0.0
H763 H 0.08244 0.56795 0.05594 0.0
C764 C 0.17336 0.69851 0.05692 0.0
C765 C 0.16396 0.71761 0.05833 0.0
C766 C 0.15432 0.67055 0.05159 0.0
C767 C 0.12577 0.66144 0.04726 0.0
C768 C 0.1165 0.68062 0.04848 0.0
C769 C 0.1354 0.70842 0.05417 0.0
C770 C 0.06901 0.5969 0.01861 0.0
C771 C 0.06656 0.57612 0.02992 0.0
C772 C 0.08815 0.62461 0.02434 0.0
C773 C 0.1056 0.63204 0.04129 0.0
C774 C 0.1034 0.61131 0.05255 0.0
C775 C 0.0838 0.58357 0.04701 0.0
H776 H 0.32224 0.49437 0.06765 0.0
H777 H 0.30712 0.4109 0.0625 0.0
H778 H 0.36701 0.51032 0.05388 0.0
H779 H 0.35149 0.42674 0.04831 0.0
H780 H 0.41708 0.46453 0.0039 0.0
H781 H 0.37205 0.45008 0.01678 0.0
H782 H 0.41434 0.51064 0.06489 0.0
H783 H 0.45948 0.52474 0.0523 0.0
C784 C 0.32839 0.47943 0.06344 0.0
C785 C 0.31122 0.45137 0.06607 0.0
C786 C 0.35401 0.48857 0.05565 0.0
C787 C 0.36259 0.46972 0.04997 0.0
C788 C 0.34524 0.44165 0.05242 0.0
C789 C 0.31996 0.43262 0.06058 0.0
C790 C 0.41677 0.47488 0.01717 0.0
C791 C 0.44184 0.49574 0.0271 0.0
C792 C 0.39102 0.46652 0.02456 0.0
C793 C 0.38977 0.47926 0.04181 0.0
C794 C 0.41473 0.50059 0.05151 0.0
C795 C 0.44054 0.50855 0.04433 0.0
H796 H 0.54067 0.8365 0.05194 0.0
H797 H 0.62484 0.90623 0.05545 0.0
H798 H 0.52211 0.86586 0.04201 0.0
H799 H 0.60621 0.93547 0.04504 0.0
H800 H 0.55767 0.96403 0.00357 0.0
H801 H 0.57629 0.93453 0.01311 0.0
H802 H 0.52401 0.91091 0.05954 0.0
H803 H 0.50578 0.94087 0.05034 0.0
C804 C 0.5552 0.85803 0.05041 0.0
C805 C 0.58421 0.86918 0.05436 0.0
C806 C 0.54456 0.8748 0.04483 0.0
C807 C 0.56279 0.90281 0.04277 0.0
C808 C 0.59181 0.91386 0.04644 0.0
C809 C 0.60241 0.89722 0.05241 0.0
C810 C 0.55011 0.9525 0.01579 0.0
C811 C 0.53028 0.9547 0.02622 0.0
C812 C 0.56086 0.93578 0.02127 0.0
C813 C 0.55151 0.92055 0.03701 0.0
C814 C 0.53141 0.92242 0.04729 0.0
C815 C 0.5211 0.93959 0.04207 0.0
H816 H 0.98239 0.15403 0.39143 0.0
H817 H 0.95908 0.21518 0.40607 0.0
H818 H 0.02208 0.18806 0.3762 0.0
H819 H 0.99861 0.24924 0.39058 0.0
H820 H 0.09132 0.30926 0.38461 0.0
H821 H 0.04857 0.27491 0.39651 0.0
H822 H 0.03666 0.21612 0.34983 0.0
H823 H 0.08021 0.25054 0.33807 0.0
C824 C 0.98549 0.17466 0.39112 0.0
C825 C 0.96766 0.18196 0.40003 0.0
C826 C 0.00822 0.19416 0.38233 0.0
C827 C 0.01363 0.22144 0.38219 0.0
C828 C 0.99536 0.22854 0.3907 0.0
C829 C 0.97269 0.20905 0.39958 0.0
C830 C 0.07958 0.28909 0.37674 0.0
C831 C 0.08932 0.28267 0.36038 0.0
C832 C 0.05486 0.2694 0.38354 0.0
C833 C 0.03908 0.24272 0.37414 0.0
C834 C 0.04849 0.23638 0.35755 0.0
C835 C 0.07337 0.25615 0.35074 0.0
H836 H 0.80573 0.74049 0.41045 0.0
H837 H 0.87056 0.82202 0.39991 0.0
H838 H 0.77023 0.7496 0.39646 0.0
H839 H 0.83501 0.83126 0.386 0.0
H840 H 0.76596 0.82842 0.34581 0.0
H841 H 0.80124 0.81846 0.3589 0.0
H842 H 0.74862 0.77707 0.403 0.0
H843 H 0.71297 0.78651 0.38966 0.0
C844 C 0.8124 0.76045 0.40523 0.0
C845 C 0.84101 0.78057 0.40638 0.0
C846 C 0.79202 0.76569 0.39724 0.0
C847 C 0.79969 0.79123 0.39018 0.0
C848 C 0.82834 0.81123 0.39108 0.0
C849 C 0.84875 0.80595 0.39905 0.0
C850 C 0.76182 0.81715 0.35829 0.0
C851 C 0.73653 0.80825 0.36665 0.0
C852 C 0.7822 0.81158 0.36587 0.0
C853 C 0.77786 0.79699 0.38203 0.0
C854 C 0.75253 0.78803 0.39038 0.0
C855 C 0.73211 0.79357 0.38278 0.0
H856 H 0.294 0.07781 0.39584 0.0
H857 H 0.20911 0.05997 0.38267 0.0
H858 H 0.2812 0.03184 0.38203 0.0
H859 H 0.19598 0.01365 0.36923 0.0
H860 H 0.18663 0.93947 0.33304 0.0
H861 H 0.20137 0.9872 0.34372 0.0
H862 H 0.25468 0.98538 0.38985 0.0
H863 H 0.24064 0.93809 0.37887 0.0
C864 C 0.27256 0.06397 0.39 0.0
C865 C 0.25249 0.07235 0.39041 0.0
C866 C 0.26519 0.03761 0.38215 0.0
C867 C 0.23749 0.01891 0.37468 0.0
C868 C 0.21758 0.0276 0.37466 0.0
C869 C 0.22504 0.0541 0.38238 0.0
C870 C 0.20159 0.94932 0.34541 0.0
C871 C 0.21248 0.93498 0.35509 0.0
C872 C 0.20993 0.97664 0.35159 0.0
C873 C 0.22922 0.99017 0.36764 0.0
C874 C 0.24018 0.97581 0.37723 0.0
C875 C 0.23199 0.94859 0.371 0.0
H876 H 0.51172 0.63434 0.25494 0.0
H877 H 0.5078 0.60105 0.309 0.0
H878 H 0.54908 0.67936 0.26896 0.0
H879 H 0.54486 0.64628 0.32306 0.0
H880 H 0.58881 0.73883 0.34452 0.0
H881 H 0.55213 0.69338 0.33079 0.0
H882 H 0.59904 0.70111 0.28245 0.0
H883 H 0.63581 0.74683 0.2961 0.0
C884 C 0.5189 0.63657 0.26979 0.0
C885 C 0.50682 0.61403 0.28083 0.0
C886 C 0.54031 0.66237 0.2778 0.0
C887 C 0.54999 0.66629 0.29707 0.0
C888 C 0.53765 0.64392 0.3082 0.0
C889 C 0.51635 0.61805 0.30016 0.0
C890 C 0.59139 0.73086 0.33098 0.0
C891 C 0.61524 0.74649 0.32139 0.0
C892 C 0.57042 0.70474 0.32318 0.0
C893 C 0.57269 0.69372 0.30555 0.0
C894 C 0.59661 0.70922 0.29599 0.0
C895 C 0.61774 0.7353 0.30387 0.0
H896 H 0.40568 0.90069 0.30576 0.0
H897 H 0.36061 0.87692 0.25002 0.0
H898 H 0.36306 0.89236 0.31983 0.0
H899 H 0.31814 0.86867 0.26405 0.0
H900 H 0.25624 0.88613 0.29316 0.0
H901 H 0.29907 0.89423 0.27983 0.0
H902 H 0.31645 0.85542 0.32551 0.0
H903 H 0.27373 0.84769 0.3391 0.0
C904 C 0.38664 0.89347 0.29651 0.0
C905 C 0.38666 0.88965 0.27673 0.0
C906 C 0.36219 0.88868 0.30459 0.0
C907 C 0.33716 0.87997 0.29308 0.0
C908 C 0.33715 0.87588 0.27332 0.0
C909 C 0.36154 0.88063 0.26527 0.0
C910 C 0.26917 0.87935 0.30043 0.0
C911 C 0.26145 0.86625 0.31724 0.0
C912 C 0.2937 0.88385 0.29269 0.0
C913 C 0.31121 0.8754 0.30154 0.0
C914 C 0.30362 0.86246 0.31842 0.0
C915 C 0.27901 0.85789 0.32616 0.0
H916 H 0.14201 0.52443 0.30961 0.0
H917 H 0.06016 0.45519 0.29069 0.0
H918 H 0.15596 0.49302 0.32247 0.0
H919 H 0.07378 0.42385 0.3038 0.0
H920 H 0.11921 0.37501 0.30471 0.0
H921 H 0.10438 0.40701 0.29528 0.0
H922 H 0.14892 0.46089 0.34619 0.0
H923 H 0.16445 0.42895 0.35551 0.0
C924 C 0.12686 0.50254 0.30853 0.0
C925 C 0.10013 0.49218 0.29897 0.0
C926 C 0.13481 0.48455 0.31591 0.0
C927 C 0.1161 0.45588 0.31395 0.0
C928 C 0.08893 0.44574 0.30515 0.0
C929 C 0.08108 0.46367 0.29769 0.0
C930 C 0.12581 0.3936 0.31399 0.0
C931 C 0.14298 0.39936 0.33091 0.0
C932 C 0.11712 0.4119 0.30862 0.0
C933 C 0.12524 0.43642 0.32006 0.0
C934 C 0.14247 0.44227 0.337 0.0
C935 C 0.15127 0.42392 0.34237 0.0
H936 H 0.37969 0.44347 0.29085 0.0
H937 H 0.36885 0.51466 0.29339 0.0
H938 H 0.33571 0.41726 0.30544 0.0
H939 H 0.32462 0.48826 0.30755 0.0
H940 H 0.23074 0.41413 0.30592 0.0
H941 H 0.27636 0.44343 0.29429 0.0
H942 H 0.31618 0.42139 0.3386 0.0
H943 H 0.27057 0.39247 0.35056 0.0
C944 C 0.36791 0.45347 0.29458 0.0
C945 C 0.37765 0.48104 0.29108 0.0
C946 C 0.3429 0.43857 0.30298 0.0
C947 C 0.32691 0.45083 0.30764 0.0
C948 C 0.3366 0.47839 0.30407 0.0
C949 C 0.36191 0.49347 0.29603 0.0
C950 C 0.24927 0.41577 0.3133 0.0
C951 C 0.24713 0.40104 0.32915 0.0
C952 C 0.27533 0.43259 0.30669 0.0
C953 C 0.29967 0.43454 0.31554 0.0
C954 C 0.29764 0.4201 0.33151 0.0
C955 C 0.27162 0.40372 0.33839 0.0
H956 H 0.49626 0.86801 0.30442 0.0
H957 H 0.53528 0.87639 0.25218 0.0
H958 H 0.53052 0.85808 0.31994 0.0
H959 H 0.57004 0.86764 0.26769 0.0
H960 H 0.60992 0.82262 0.29328 0.0
H961 H 0.57439 0.83138 0.27929 0.0
H962 H 0.57878 0.87738 0.33156 0.0
H963 H 0.6138 0.86763 0.34587 0.0
C964 C 0.51229 0.86793 0.29631 0.0
C965 C 0.51306 0.8728 0.27706 0.0
C966 C 0.53203 0.8624 0.30521 0.0
C967 C 0.55302 0.86182 0.29506 0.0
C968 C 0.55388 0.86723 0.27588 0.0
C969 C 0.53407 0.87246 0.267 0.0
C970 C 0.60336 0.83462 0.30184 0.0
C971 C 0.61488 0.84458 0.32067 0.0
C972 C 0.58302 0.83979 0.29375 0.0
C973 C 0.57383 0.85539 0.30418 0.0
C974 C 0.58511 0.86508 0.32314 0.0
C975 C 0.60533 0.85964 0.33131 0.0
H976 H 0.06521 0.62705 0.28142 0.0
H977 H 0.12875 0.62666 0.31941 0.0
H978 H 0.08584 0.67665 0.28969 0.0
H979 H 0.14938 0.6763 0.32772 0.0
H980 H 0.1551 0.7575 0.35271 0.0
H981 H 0.13561 0.70815 0.34451 0.0
H982 H 0.13097 0.72014 0.28505 0.0
H983 H 0.15046 0.7696 0.2932 0.0
C984 C 0.08355 0.63761 0.29157 0.0
C985 C 0.09541 0.62311 0.29976 0.0
C986 C 0.09544 0.66597 0.2962 0.0
C987 C 0.11926 0.68029 0.30926 0.0
C988 C 0.13092 0.6657 0.31767 0.0
C989 C 0.11918 0.63734 0.31288 0.0
C990 C 0.14997 0.74965 0.33788 0.0
C991 C 0.15424 0.76744 0.3236 0.0
C992 C 0.13897 0.72142 0.3332 0.0
C993 C 0.13175 0.71036 0.31417 0.0
C994 C 0.13613 0.72813 0.29986 0.0
C995 C 0.14741 0.75643 0.30452 0.0
H996 H 0.84591 0.05264 0.38016 0.0
H997 H 0.8567 0.01405 0.42846 0.0
H998 H 0.8056 0.00875 0.36723 0.0
H999 H 0.81715 0.96978 0.41521 0.0
H1000 H 0.72896 0.90089 0.39663 0.0
H1001 H 0.76777 0.94575 0.40948 0.0
H1002 H 0.79275 0.9645 0.35291 0.0
H1003 H 0.75329 0.92016 0.34004 0.0
C1004 C 0.83985 0.03465 0.38789 0.0
C1005 C 0.85441 0.03663 0.40528 0.0
C1006 C 0.8168 0.00944 0.38045 0.0
C1007 C 0.80803 0.98565 0.39017 0.0
C1008 C 0.82292 0.98773 0.4075 0.0
C1009 C 0.84574 0.013 0.41502 0.0
C1010 C 0.74265 0.91468 0.38694 0.0
C1011 C 0.73804 0.90699 0.36732 0.0
C1012 C 0.76505 0.94034 0.39431 0.0
C1013 C 0.78357 0.95875 0.38226 0.0
C1014 C 0.77872 0.95108 0.36261 0.0
C1015 C 0.75614 0.92556 0.35522 0.0
H1016 H 0.96734 0.80363 0.38041 0.0
H1017 H 1.00593 0.78973 0.42992 0.0
H1018 H 0.0101 0.81793 0.3645 0.0
H1019 H 0.04823 0.80323 0.41399 0.0
H1020 H 0.12989 0.85555 0.3896 0.0
H1021 H 0.08683 0.8433 0.40402 0.0
H1022 H 0.03877 0.80125 0.35061 0.0
H1023 H 0.08219 0.81421 0.33594 0.0
C1024 C 0.9849 0.8035 0.38785 0.0
C1025 C 0.98337 0.79568 0.40646 0.0
C1026 C 0.00937 0.81156 0.37871 0.0
C1027 C 0.03279 0.81196 0.38798 0.0
C1028 C 0.03093 0.80376 0.40652 0.0
C1029 C 1.00659 0.79582 0.41563 0.0
C1030 C 0.1102 0.84381 0.38084 0.0
C1031 C 0.10959 0.83575 0.36159 0.0
C1032 C 0.0854 0.8366 0.38918 0.0
C1033 C 0.05919 0.82095 0.37858 0.0
C1034 C 0.05855 0.81346 0.35919 0.0
C1035 C 0.08347 0.82081 0.35079 0.0
H1036 H 0.29355 0.24313 0.38813 0.0
H1037 H 0.21062 0.17184 0.38641 0.0
H1038 H 0.27313 0.27089 0.37789 0.0
H1039 H 0.19022 0.19978 0.37658 0.0
H1040 H 0.17142 0.27357 0.38397 0.0
H1041 H 0.19041 0.24417 0.3931 0.0
H1042 H 0.24257 0.2687 0.34662 0.0
H1043 H 0.22329 0.29764 0.3372 0.0
C1044 C 0.27099 0.23346 0.38553 0.0
C1045 C 0.25367 0.2054 0.38791 0.0
C1046 C 0.25935 0.24926 0.37965 0.0
C1047 C 0.23016 0.23738 0.37646 0.0
C1048 C 0.21279 0.20937 0.37902 0.0
C1049 C 0.22447 0.19341 0.38453 0.0
C1050 C 0.18683 0.27256 0.37565 0.0
C1051 C 0.19587 0.28785 0.35987 0.0
C1052 C 0.19757 0.25569 0.38083 0.0
C1053 C 0.21793 0.2543 0.37056 0.0
C1054 C 0.22697 0.26957 0.3548 0.0
C1055 C 0.21583 0.28599 0.34938 0.0
H1056 H 0.64002 0.48293 0.72245 0.0
H1057 H 0.62469 0.54888 0.73981 0.0
H1058 H 0.68207 0.51575 0.70843 0.0
H1059 H 0.66638 0.58161 0.72559 0.0
H1060 H 0.75921 0.6367 0.71952 0.0
H1061 H 0.71617 0.60322 0.73169 0.0
H1062 H 0.69918 0.54555 0.68299 0.0
H1063 H 0.74292 0.57901 0.67094 0.0
C1064 C 0.64547 0.50439 0.72306 0.0
C1065 C 0.62918 0.51337 0.73235 0.0
C1066 C 0.66952 0.52319 0.71499 0.0
C1067 C 0.67773 0.55137 0.71597 0.0
C1068 C 0.66102 0.56018 0.7249 0.0
C1069 C 0.6371 0.54142 0.73305 0.0
C1070 C 0.74631 0.61695 0.7113 0.0
C1071 C 0.75453 0.6106 0.69419 0.0
C1072 C 0.72147 0.59776 0.71827 0.0
C1073 C 0.70406 0.57172 0.70828 0.0
C1074 C 0.71223 0.56532 0.69114 0.0
C1075 C 0.73723 0.58455 0.68418 0.0
H1076 H 0.47827 0.07262 0.73899 0.0
H1077 H 0.53864 0.1592 0.73844 0.0
H1078 H 0.44161 0.08026 0.72452 0.0
H1079 H 0.50182 0.16698 0.72442 0.0
H1080 H 0.41668 0.16826 0.72458 0.0
H1081 H 0.4538 0.16043 0.73767 0.0
H1082 H 0.43388 0.09867 0.69125 0.0
H1083 H 0.39718 0.10692 0.67783 0.0
C1084 C 0.48362 0.09323 0.73572 0.0
C1085 C 0.51118 0.11533 0.73974 0.0
C1086 C 0.46275 0.09757 0.72743 0.0
C1087 C 0.46897 0.1242 0.72345 0.0
C1088 C 0.49654 0.14629 0.72746 0.0
C1089 C 0.51755 0.14184 0.73534 0.0
C1090 C 0.4202 0.15299 0.71718 0.0
C1091 C 0.40405 0.1382 0.70018 0.0
C1092 C 0.44151 0.14865 0.72461 0.0
C1093 C 0.44663 0.129 0.71542 0.0
C1094 C 0.43024 0.11389 0.69859 0.0
C1095 C 0.40935 0.11868 0.69092 0.0
H1096 H 0.96021 0.40839 0.73098 0.0
H1097 H 0.87698 0.39142 0.71254 0.0
H1098 H 0.94842 0.36249 0.71764 0.0
H1099 H 0.86477 0.34514 0.6996 0.0
H1100 H 0.85811 0.27056 0.66584 0.0
H1101 H 0.87261 0.31846 0.67568 0.0
H1102 H 0.9202 0.31611 0.72525 0.0
H1103 H 0.90644 0.2686 0.71512 0.0
C1104 C 0.93938 0.39477 0.72402 0.0
C1105 C 0.91943 0.40331 0.72287 0.0
C1106 C 0.93257 0.36846 0.71647 0.0
C1107 C 0.90554 0.34999 0.70776 0.0
C1108 C 0.88587 0.35892 0.70604 0.0
C1109 C 0.8928 0.38539 0.71346 0.0
C1110 C 0.87176 0.28032 0.67881 0.0
C1111 C 0.88114 0.26578 0.6897 0.0
C1112 C 0.87996 0.30774 0.68448 0.0
C1113 C 0.89758 0.32117 0.70124 0.0
C1114 C 0.90704 0.3066 0.71208 0.0
C1115 C 0.89901 0.27927 0.70633 0.0
H1116 H 0.21311 0.93439 0.60791 0.0
H1117 H 0.14944 0.94794 0.63075 0.0
H1118 H 0.24903 0.98064 0.62098 0.0
H1119 H 0.18572 0.99377 0.6445 0.0
H1120 H 0.26533 0.06232 0.6815 0.0
H1121 H 0.22948 0.01533 0.66952 0.0
H1122 H 0.25942 0.03002 0.61395 0.0
H1123 H 0.29514 0.0772 0.62579 0.0
C1124 C 0.20672 0.94716 0.61571 0.0
C1125 C 0.17827 0.93748 0.61808 0.0
C1126 C 0.22734 0.97359 0.62324 0.0
C1127 C 0.22005 0.99074 0.6336 0.0
C1128 C 0.19184 0.98083 0.63662 0.0
C1129 C 0.17112 0.95452 0.62884 0.0
C1130 C 0.26432 0.05552 0.66673 0.0
C1131 C 0.28307 0.07342 0.65457 0.0
C1132 C 0.24372 0.02871 0.65989 0.0
C1133 C 0.2418 0.01914 0.64086 0.0
C1134 C 0.26066 0.03691 0.62873 0.0
C1135 C 0.28096 0.0639 0.63548 0.0
H1136 H 0.06197 0.26087 0.60743 0.0
H1137 H 0.04358 0.1789 0.61884 0.0
H1138 H 0.02019 0.25363 0.6221 0.0
H1139 H 1.00178 0.17164 0.63348 0.0
H1140 H 0.94277 0.17763 0.67402 0.0
H1141 H 0.98598 0.18615 0.66082 0.0
H1142 H 0.96978 0.22684 0.61591 0.0
H1143 H 0.927 0.21884 0.62925 0.0
C1144 C 0.04894 0.24124 0.61298 0.0
C1145 C 0.05614 0.22045 0.6119 0.0
C1146 C 0.02496 0.23708 0.62139 0.0
C1147 C 0.00752 0.21201 0.62894 0.0
C1148 C 0.01491 0.19135 0.62807 0.0
C1149 C 0.03891 0.19552 0.61966 0.0
C1150 C 0.94846 0.18846 0.66136 0.0
C1151 C 0.93138 0.19759 0.65275 0.0
C1152 C 0.97318 0.19322 0.65373 0.0
C1153 C 0.98143 0.20723 0.6373 0.0
C1154 C 0.96435 0.21638 0.62874 0.0
C1155 C 0.93967 0.21164 0.63635 0.0
H1156 H 0.72626 0.7861 0.62236 0.0
H1157 H 0.8102 0.85309 0.63937 0.0
H1158 H 0.73854 0.75354 0.63502 0.0
H1159 H 0.8227 0.8205 0.65181 0.0
H1160 H 0.82918 0.75678 0.68582 0.0
H1161 H 0.81485 0.78936 0.67618 0.0
H1162 H 0.76698 0.73393 0.62653 0.0
H1163 H 0.78069 0.70117 0.63634 0.0
C1164 C 0.74736 0.79383 0.6288 0.0
C1165 C 0.76734 0.82208 0.62977 0.0
C1166 C 0.75443 0.7752 0.63601 0.0
C1167 C 0.78168 0.78437 0.64427 0.0
C1168 C 0.80144 0.81278 0.64573 0.0
C1169 C 0.79431 0.83145 0.63859 0.0
C1170 C 0.8155 0.7515 0.67289 0.0
C1171 C 0.80605 0.72633 0.66187 0.0
C1172 C 0.8074 0.77024 0.66732 0.0
C1173 C 0.78973 0.76424 0.6506 0.0
C1174 C 0.78021 0.73901 0.63966 0.0
C1175 C 0.78822 0.72026 0.64524 0.0
H1176 H 0.05569 0.81834 0.64149 0.0
H1177 H 1.00489 0.81747 0.59277 0.0
H1178 H 0.01335 0.78804 0.65637 0.0
H1179 H 0.96265 0.78846 0.60787 0.0
H1180 H 0.89346 0.71153 0.62783 0.0
H1181 H 0.93651 0.74273 0.61481 0.0
H1182 H 0.97343 0.78338 0.67093 0.0
H1183 H 0.93019 0.75093 0.68418 0.0
C1184 C 0.03544 0.81193 0.63408 0.0
C1185 C 0.03345 0.82004 0.61593 0.0
C1186 C 0.01116 0.79471 0.64265 0.0
C1187 C 0.98447 0.78552 0.63329 0.0
C1188 C 0.98274 0.79446 0.61534 0.0
C1189 C 1.00693 0.81126 0.6067 0.0
C1190 C 0.91069 0.72715 0.63746 0.0
C1191 C 0.90831 0.72887 0.65705 0.0
C1192 C 0.93542 0.74524 0.62993 0.0
C1193 C 0.95844 0.76594 0.64173 0.0
C1194 C 0.95622 0.76757 0.66142 0.0
C1195 C 0.93142 0.74909 0.66902 0.0
H1196 H 0.1692 0.20373 0.63735 0.0
H1197 H 0.19145 0.18818 0.58245 0.0
H1198 H 0.20481 0.19561 0.65272 0.0
H1199 H 0.22665 0.17958 0.59772 0.0
H1200 H 0.30694 0.19537 0.63067 0.0
H1201 H 0.27166 0.20444 0.61632 0.0
H1202 H 0.21521 0.15867 0.65749 0.0
H1203 H 0.2507 0.14997 0.67212 0.0
C1204 C 0.1816 0.19844 0.62857 0.0
C1205 C 0.1776 0.1966 0.60869 0.0
C1206 C 0.20192 0.19366 0.63737 0.0
C1207 C 0.21868 0.18703 0.62646 0.0
C1208 C 0.21445 0.18507 0.60657 0.0
C1209 C 0.19417 0.1898 0.59781 0.0
C1210 C 0.28705 0.18727 0.63673 0.0
C1211 C 0.2817 0.17188 0.65255 0.0
C1212 C 0.26674 0.19235 0.62841 0.0
C1213 C 0.24053 0.18219 0.63569 0.0
C1214 C 0.23526 0.16705 0.65164 0.0
C1215 C 0.25559 0.16193 0.65996 0.0
H1216 H 0.72566 0.95224 0.63583 0.0
H1217 H 0.80901 0.96406 0.63502 0.0
H1218 H 0.74569 0.00184 0.64437 0.0
H1219 H 0.82897 0.01373 0.64311 0.0
H1220 H 0.84495 0.10335 0.63342 0.0
H1221 H 0.8257 0.05375 0.62536 0.0
H1222 H 0.77867 0.03619 0.67443 0.0
H1223 H 0.79825 0.08563 0.68277 0.0
C1224 C 0.74823 0.96548 0.63752 0.0
C1225 C 0.7658 0.95441 0.63494 0.0
C1226 C 0.75964 0.99373 0.6424 0.0
C1227 C 0.7888 0.01143 0.64434 0.0
C1228 C 0.80641 0.00042 0.6416 0.0
C1229 C 0.795 0.97206 0.6371 0.0
C1230 C 0.83052 0.08888 0.64247 0.0
C1231 C 0.8231 0.0983 0.65872 0.0
C1232 C 0.81966 0.0606 0.63792 0.0
C1233 C 0.80077 0.04133 0.6493 0.0
C1234 C 0.79314 0.05072 0.66542 0.0
C1235 C 0.80442 0.07896 0.6702 0.0
H1236 H 0.52685 0.3722 0.71867 0.0
H1237 H 0.45621 0.38041 0.73294 0.0
H1238 H 0.49543 0.32324 0.70884 0.0
H1239 H 0.42459 0.33174 0.72251 0.0
H1240 H 0.37846 0.23841 0.72078 0.0
H1241 H 0.41104 0.28673 0.73146 0.0
H1242 H 0.46006 0.29267 0.68457 0.0
H1243 H 0.42802 0.24417 0.67427 0.0
C1244 C 0.50456 0.36357 0.71952 0.0
C1245 C 0.49388 0.38003 0.72652 0.0
C1246 C 0.48652 0.33554 0.71382 0.0
C1247 C 0.45744 0.32348 0.71491 0.0
C1248 C 0.44688 0.34016 0.72179 0.0
C1249 C 0.46493 0.36809 0.7276 0.0
C1250 C 0.39623 0.25001 0.71278 0.0
C1251 C 0.4006 0.23744 0.69666 0.0
C1252 C 0.41484 0.27778 0.71884 0.0
C1253 C 0.43814 0.29369 0.70882 0.0
C1254 C 0.44259 0.28099 0.69278 0.0
C1255 C 0.42411 0.25318 0.68682 0.0
H1256 H 0.68503 0.16389 0.76545 0.0
H1257 H 0.63307 0.11592 0.71464 0.0
H1258 H 0.72684 0.175 0.74955 0.0
H1259 H 0.67486 0.12568 0.69886 0.0
H1260 H 0.75718 0.16742 0.67057 0.0
H1261 H 0.71473 0.15848 0.68525 0.0
H1262 H 0.75276 0.15558 0.73937 0.0
H1263 H 0.7952 0.16579 0.72497 0.0
C1264 C 0.68262 0.15556 0.75088 0.0
C1265 C 0.65587 0.13907 0.74131 0.0
C1266 C 0.70658 0.16172 0.74175 0.0
C1267 C 0.70444 0.15102 0.72289 0.0
C1268 C 0.6775 0.13462 0.71327 0.0
C1269 C 0.65348 0.12885 0.72235 0.0
C1270 C 0.75639 0.16494 0.68561 0.0
C1271 C 0.77967 0.16758 0.69661 0.0
C1272 C 0.73199 0.15965 0.69404 0.0
C1273 C 0.7302 0.15649 0.71362 0.0
C1274 C 0.75342 0.15862 0.72442 0.0
C1275 C 0.77783 0.16431 0.71609 0.0
H1276 H 0.96077 0.575 0.72215 0.0
H1277 H 0.87838 0.50236 0.71685 0.0
H1278 H 0.94026 0.60246 0.71126 0.0
H1279 H 0.85791 0.52998 0.70648 0.0
H1280 H 0.83757 0.60282 0.71526 0.0
H1281 H 0.85737 0.57416 0.72452 0.0
H1282 H 0.91 0.59979 0.67834 0.0
H1283 H 0.88977 0.62795 0.6687 0.0
C1284 C 0.93833 0.56497 0.71863 0.0
C1285 C 0.92117 0.53663 0.72021 0.0
C1286 C 0.92666 0.5806 0.71238 0.0
C1287 C 0.89758 0.56822 0.70807 0.0
C1288 C 0.88039 0.53991 0.70978 0.0
C1289 C 0.89212 0.52416 0.71561 0.0
C1290 C 0.85326 0.60222 0.70703 0.0
C1291 C 0.86212 0.61754 0.69125 0.0
C1292 C 0.86447 0.58579 0.71229 0.0
C1293 C 0.88515 0.58491 0.70212 0.0
C1294 C 0.89412 0.60028 0.6864 0.0
C1295 C 0.88245 0.61623 0.68087 0.0
H1296 H 0.45895 0.89596 0.21093 0.0
H1297 H 0.443 0.9595 0.2332 0.0
H1298 H 0.47146 0.91803 0.18156 0.0
H1299 H 0.45627 0.98218 0.20396 0.0
H1300 H 0.45739 0.00158 0.14182 0.0
H1301 H 0.44291 0.97901 0.17096 0.0
H1302 H 0.50775 0.95731 0.16958 0.0
H1303 H 0.52162 0.97924 0.14028 0.0
C1304 C 0.45833 0.91481 0.20957 0.0
C1305 C 0.45014 0.92608 0.2244 0.0
C1306 C 0.46562 0.92756 0.19276 0.0
C1307 C 0.46519 0.9521 0.19038 0.0
C1308 C 0.45657 0.96316 0.20516 0.0
C1309 C 0.44902 0.95022 0.22195 0.0
C1310 C 0.4686 0.99209 0.14784 0.0
C1311 C 0.49057 0.99208 0.13871 0.0
C1312 C 0.46036 0.9792 0.16457 0.0
C1313 C 0.47404 0.96616 0.17266 0.0
C1314 C 0.49628 0.96655 0.1636 0.0
C1315 C 0.50433 0.97922 0.14681 0.0
H1316 H 0.08822 0.49723 0.23208 0.0
H1317 H 0.03299 0.52885 0.24406 0.0
H1318 H 0.06995 0.48706 0.1988 0.0
H1319 H 0.01595 0.52022 0.21066 0.0
H1320 H 0.9725 0.47965 0.15269 0.0
H1321 H 0.98825 0.48459 0.1861 0.0
H1322 H 0.07232 0.51101 0.17148 0.0
H1323 H 0.05619 0.50442 0.13798 0.0
C1324 C 0.07207 0.50187 0.22764 0.0
C1325 C 0.06211 0.5139 0.24074 0.0
C1326 C 0.06187 0.49639 0.20851 0.0
C1327 C 0.04158 0.50295 0.202 0.0
C1328 C 0.03134 0.5146 0.21517 0.0
C1329 C 0.04139 0.5199 0.23431 0.0
C1330 C 0.99424 0.48605 0.15656 0.0
C1331 C 0.01306 0.49165 0.14261 0.0
C1332 C 1.00337 0.48925 0.17576 0.0
C1333 C 0.0316 0.49833 0.18152 0.0
C1334 C 0.05037 0.50368 0.16756 0.0
C1335 C 0.0412 0.50029 0.14834 0.0
H1336 H 0.46727 0.50334 0.23279 0.0
H1337 H 0.47473 0.57864 0.21439 0.0
H1338 H 0.47678 0.49189 0.20113 0.0
H1339 H 0.48417 0.56732 0.18291 0.0
H1340 H 0.47694 0.5268 0.12393 0.0
H1341 H 0.4611 0.53224 0.15447 0.0
H1342 H 0.52008 0.51361 0.1827 0.0
H1343 H 0.53658 0.5089 0.15226 0.0
C1344 C 0.47053 0.51718 0.22188 0.0
C1345 C 0.47044 0.54191 0.22598 0.0
C1346 C 0.47615 0.51076 0.20387 0.0
C1347 C 0.48128 0.52877 0.1896 0.0
C1348 C 0.48008 0.55295 0.19356 0.0
C1349 C 0.47486 0.55952 0.21158 0.0
C1350 C 0.48673 0.52407 0.13664 0.0
C1351 C 0.50827 0.51768 0.1356 0.0
C1352 C 0.4775 0.527 0.15411 0.0
C1353 C 0.48936 0.52334 0.17094 0.0
C1354 C 0.5103 0.51618 0.16992 0.0
C1355 C 0.51974 0.5135 0.15246 0.0
H1356 H 0.98749 0.50913 0.77948 0.0
H1357 H 0.92125 0.42783 0.78899 0.0
H1358 H 1.00527 0.51712 0.81293 0.0
H1359 H 0.93831 0.43593 0.8224 0.0
H1360 H 0.99381 0.44597 0.87515 0.0
H1361 H 0.97645 0.4394 0.84187 0.0
H1362 H 0.99557 0.52432 0.84461 0.0
H1363 H 0.01361 0.53096 0.87782 0.0
C1364 C 0.97659 0.49314 0.78881 0.0
C1365 C 0.95323 0.46778 0.78167 0.0
C1366 C 0.98668 0.4977 0.80796 0.0
C1367 C 0.97338 0.47705 0.82034 0.0
C1368 C 0.9495 0.45201 0.8132 0.0
C1369 C 0.93964 0.44739 0.79408 0.0
C1370 C 0.99417 0.46316 0.86863 0.0
C1371 C 1.00502 0.48895 0.87904 0.0
C1372 C 0.98415 0.45942 0.84958 0.0
C1373 C 0.98448 0.48131 0.84055 0.0
C1374 C 0.99537 0.50713 0.85101 0.0
C1375 C 1.00563 0.51093 0.87004 0.0
H1376 H 0.57697 0.52931 0.78224 0.0
H1377 H 0.56443 0.45115 0.79854 0.0
H1378 H 0.56602 0.53939 0.81371 0.0
H1379 H 0.55341 0.46111 0.82987 0.0
H1380 H 0.56124 0.50049 0.88973 0.0
H1381 H 0.57671 0.49449 0.85917 0.0
H1382 H 0.52205 0.51879 0.83131 0.0
H1383 H 0.50587 0.52407 0.86176 0.0
C1384 C 0.57217 0.51447 0.79263 0.0
C1385 C 0.57141 0.48942 0.78798 0.0
C1386 C 0.56571 0.52012 0.81055 0.0
C1387 C 0.55881 0.501 0.8242 0.0
C1388 C 0.55886 0.47632 0.81968 0.0
C1389 C 0.56495 0.47053 0.80173 0.0
C1390 C 0.55229 0.50433 0.87709 0.0
C1391 C 0.53209 0.51254 0.87824 0.0
C1392 C 0.56129 0.50103 0.85961 0.0
C1393 C 0.55056 0.50615 0.84288 0.0
C1394 C 0.53093 0.51503 0.84401 0.0
C1395 C 0.5217 0.51808 0.86149 0.0
H1396 H 0.55836 0.05499 0.78799 0.0
H1397 H 0.53006 0.11082 0.80664 0.0
H1398 H 0.54812 0.03434 0.81823 0.0
H1399 H 0.51959 0.09009 0.8367 0.0
H1400 H 0.53123 0.06436 0.89542 0.0
H1401 H 0.54417 0.0859 0.86585 0.0
H1402 H 0.50493 0.0054 0.83464 0.0
H1403 H 0.49127 0.98373 0.86412 0.0
C1404 C 0.55018 0.06298 0.79861 0.0
C1405 C 0.54492 0.08444 0.79493 0.0
C1406 C 0.54409 0.05102 0.81584 0.0
C1407 C 0.53296 0.06053 0.82983 0.0
C1408 C 0.52832 0.08242 0.82628 0.0
C1409 C 0.53411 0.09415 0.80901 0.0
C1410 C 0.52502 0.05118 0.88227 0.0
C1411 C 0.51005 0.02223 0.88224 0.0
C1412 C 0.53258 0.06357 0.86531 0.0
C1413 C 0.52562 0.04736 0.84791 0.0
C1414 C 0.51095 0.01846 0.84785 0.0
C1415 C 0.50316 0.00605 0.86479 0.0
H1416 H 0.11158 0.28822 0.5676 0.0
H1417 H 0.12398 0.22312 0.54361 0.0
H1418 H 0.12437 0.31117 0.53845 0.0
H1419 H 0.13607 0.24553 0.51433 0.0
H1420 H 0.18617 0.30712 0.473 0.0
H1421 H 0.1726 0.28448 0.50209 0.0
H1422 H 0.10985 0.30873 0.5058 0.0
H1423 H 0.12401 0.33195 0.47688 0.0
C1424 C 0.1167 0.27865 0.55599 0.0
C1425 C 0.11695 0.25397 0.55794 0.0
C1426 C 0.12398 0.29175 0.53925 0.0
C1427 C 0.13145 0.28034 0.524 0.0
C1428 C 0.13108 0.2553 0.52588 0.0
C1429 C 0.12404 0.24236 0.54265 0.0
C1430 C 0.16939 0.30749 0.47999 0.0
C1431 C 0.15615 0.32129 0.47262 0.0
C1432 C 0.1615 0.29442 0.49666 0.0
C1433 C 0.13998 0.29459 0.50632 0.0
C1434 C 0.12677 0.30848 0.49894 0.0
C1435 C 0.13484 0.32176 0.48233 0.0
H1436 H 0.70061 0.86303 0.57748 0.0
H1437 H 0.75205 0.82749 0.564 0.0
H1438 H 0.68275 0.85512 0.54423 0.0
H1439 H 0.73291 0.81802 0.53103 0.0
H1440 H 0.71974 0.83605 0.47074 0.0
H1441 H 0.73632 0.84269 0.50411 0.0
H1442 H 0.65343 0.82015 0.51949 0.0
H1443 H 0.63727 0.81516 0.48612 0.0
C1444 C 0.70798 0.85336 0.56745 0.0
C1445 C 0.72786 0.846 0.57342 0.0
C1446 C 0.69746 0.8485 0.54841 0.0
C1447 C 0.70644 0.83599 0.53491 0.0
C1448 C 0.72584 0.82807 0.54098 0.0
C1449 C 0.73651 0.83312 0.55997 0.0
C1450 C 0.70511 0.83283 0.48124 0.0
C1451 C 0.67719 0.8252 0.47572 0.0
C1452 C 0.71452 0.83623 0.50039 0.0
C1453 C 0.6962 0.83188 0.51452 0.0
C1454 C 0.6682 0.82398 0.50901 0.0
C1455 C 0.65883 0.82076 0.48984 0.0
H1456 H 0.18666 0.88132 0.56892 0.0
H1457 H 0.10036 0.85222 0.5491 0.0
H1458 H 0.1958 0.87137 0.53723 0.0
H1459 H 0.10912 0.8407 0.5174 0.0
H1460 H 0.14586 0.85935 0.4594 0.0
H1461 H 0.13304 0.86399 0.49114 0.0
H1462 H 0.1878 0.83603 0.51385 0.0
H1463 H 0.20205 0.83321 0.48238 0.0
C1464 C 0.16954 0.87258 0.55779 0.0
C1465 C 0.14287 0.86792 0.5615 0.0
C1466 C 0.17469 0.86648 0.53963 0.0
C1467 C 0.15321 0.85523 0.52469 0.0
C1468 C 0.12624 0.84969 0.52851 0.0
C1469 C 0.12112 0.85598 0.54673 0.0
C1470 C 0.15537 0.85443 0.47118 0.0
C1471 C 0.17526 0.84621 0.4683 0.0
C1472 C 0.14765 0.85666 0.48937 0.0
C1473 C 0.15948 0.85053 0.50512 0.0
C1474 C 0.17861 0.84138 0.50212 0.0
C1475 C 0.18652 0.8394 0.48398 0.0
H1476 H 0.64878 0.83949 0.11291 0.0
H1477 H 0.5796 0.76221 0.12626 0.0
H1478 H 0.66905 0.84889 0.14587 0.0
H1479 H 0.59929 0.77173 0.15914 0.0
H1480 H 0.657 0.78082 0.21015 0.0
H1481 H 0.63785 0.77328 0.17721 0.0
H1482 H 0.66261 0.85964 0.178 0.0
H1483 H 0.68229 0.8672 0.21089 0.0
C1484 C 0.63779 0.82472 0.12297 0.0
C1485 C 0.61283 0.80001 0.11704 0.0
C1486 C 0.64932 0.83008 0.14183 0.0
C1487 C 0.63595 0.8109 0.15511 0.0
C1488 C 0.61051 0.78661 0.1492 0.0
C1489 C 0.59916 0.7812 0.13039 0.0
C1490 C 0.65825 0.79814 0.20328 0.0
C1491 C 0.67106 0.82456 0.21307 0.0
C1492 C 0.64722 0.79385 0.18443 0.0
C1493 C 0.64851 0.81583 0.17499 0.0
C1494 C 0.66157 0.84233 0.18476 0.0
C1495 C 0.67279 0.84666 0.2036 0.0
H1496 H 0.23269 0.78569 0.132 0.0
H1497 H 0.24496 0.86392 0.1162 0.0
H1498 H 0.21944 0.79413 0.16278 0.0
H1499 H 0.2308 0.87218 0.14687 0.0
H1500 H 0.22568 0.8877 0.21047 0.0
H1501 H 0.24263 0.8817 0.18044 0.0
H1502 H 0.18098 0.79464 0.17547 0.0
H1503 H 0.16469 0.80063 0.20562 0.0
C1504 C 0.23248 0.80471 0.13515 0.0
C1505 C 0.23964 0.82407 0.12169 0.0
C1506 C 0.22472 0.8095 0.15275 0.0
C1507 C 0.2236 0.83365 0.15726 0.0
C1508 C 0.23162 0.85345 0.14397 0.0
C1509 C 0.23969 0.84874 0.12639 0.0
C1510 C 0.21571 0.86733 0.20286 0.0
C1511 C 0.19394 0.84461 0.21043 0.0
C1512 C 0.22538 0.86388 0.18564 0.0
C1513 C 0.21334 0.83764 0.17554 0.0
C1514 C 0.19125 0.81504 0.18303 0.0
C1515 C 0.18179 0.81845 0.20029 0.0
H1516 H 0.25139 0.43818 0.13977 0.0
H1517 H 0.16467 0.38559 0.11807 0.0
H1518 H 0.24098 0.41753 0.16991 0.0
H1519 H 0.15428 0.36546 0.14825 0.0
H1520 H 0.14071 0.36176 0.21167 0.0
H1521 H 0.15244 0.38148 0.18133 0.0
H1522 H 0.22577 0.37257 0.18386 0.0
H1523 H 0.21424 0.35319 0.21438 0.0
C1524 C 0.2302 0.42201 0.14132 0.0
C1525 C 0.20884 0.41374 0.12651 0.0
C1526 C 0.22423 0.41024 0.15861 0.0
C1527 C 0.19675 0.39007 0.16152 0.0
C1528 C 0.17555 0.38134 0.14658 0.0
C1529 C 0.18153 0.39292 0.12928 0.0
C1530 C 0.15943 0.36419 0.20581 0.0
C1531 C 0.17652 0.35587 0.21541 0.0
C1532 C 0.16601 0.37524 0.18836 0.0
C1533 C 0.18997 0.37847 0.18016 0.0
C1534 C 0.20726 0.37047 0.18985 0.0
C1535 C 0.20052 0.35916 0.20724 0.0
H1536 H 0.77699 0.62558 0.90043 0.0
H1537 H 0.78978 0.56034 0.8772 0.0
H1538 H 0.78825 0.64722 0.87059 0.0
H1539 H 0.80128 0.58204 0.84754 0.0
H1540 H 0.7921 0.6136 0.79091 0.0
H1541 H 0.77821 0.59201 0.82037 0.0
H1542 H 0.83074 0.67101 0.85247 0.0
H1543 H 0.84527 0.69263 0.82305 0.0
C1544 C 0.78202 0.61579 0.88891 0.0
C1545 C 0.78259 0.59132 0.89117 0.0
C1546 C 0.78868 0.62828 0.8719 0.0
C1547 C 0.79569 0.61635 0.85672 0.0
C1548 C 0.79576 0.59162 0.8589 0.0
C1549 C 0.7894 0.57933 0.87594 0.0
C1550 C 0.80097 0.62639 0.80422 0.0
C1551 C 0.82001 0.6549 0.80452 0.0
C1552 C 0.79288 0.614 0.82112 0.0
C1553 C 0.80341 0.62979 0.83875 0.0
C1554 C 0.822 0.65834 0.8391 0.0
C1555 C 0.83029 0.67073 0.8222 0.0
H1556 H 0.42875 0.22356 0.89865 0.0
H1557 H 0.36556 0.14039 0.90718 0.0
H1558 H 0.41192 0.21554 0.86517 0.0
H1559 H 0.34809 0.13244 0.87372 0.0
H1560 H 0.34147 0.11929 0.80915 0.0
H1561 H 0.35954 0.12676 0.84238 0.0
H1562 H 0.373 0.20977 0.84513 0.0
H1563 H 0.35556 0.2024 0.81176 0.0
C1564 C 0.41109 0.20361 0.89334 0.0
C1565 C 0.39834 0.18262 0.90548 0.0
C1566 C 0.40136 0.19903 0.87418 0.0
C1567 C 0.37851 0.17341 0.86675 0.0
C1568 C 0.36596 0.1523 0.8789 0.0
C1569 C 0.37587 0.15683 0.89806 0.0
C1570 C 0.3482 0.13908 0.81692 0.0
C1571 C 0.34712 0.16027 0.80791 0.0
C1572 C 0.35848 0.14335 0.83596 0.0
C1573 C 0.36772 0.16886 0.84645 0.0
C1574 C 0.36653 0.19003 0.8374 0.0
C1575 C 0.35647 0.18582 0.81831 0.0
H1576 H 0.81278 0.24646 0.88294 0.0
H1577 H 0.80226 0.16872 0.89854 0.0
H1578 H 0.82257 0.23669 0.85111 0.0
H1579 H 0.81192 0.15884 0.86663 0.0
H1580 H 0.87175 0.17528 0.81867 0.0
H1581 H 0.85565 0.18036 0.84915 0.0
H1582 H 0.8 0.20364 0.8215 0.0
H1583 H 0.8154 0.19777 0.79084 0.0
C1584 C 0.81228 0.22715 0.87946 0.0
C1585 C 0.80691 0.20839 0.8932 0.0
C1586 C 0.8177 0.22148 0.86124 0.0
C1587 C 0.81817 0.19708 0.85644 0.0
C1588 C 0.81195 0.17793 0.87001 0.0
C1589 C 0.8062 0.18345 0.88818 0.0
C1590 C 0.85572 0.181 0.81898 0.0
C1591 C 0.84497 0.18618 0.80223 0.0
C1592 C 0.84653 0.18394 0.83648 0.0
C1593 C 0.82656 0.19238 0.83769 0.0
C1594 C 0.81562 0.19737 0.821 0.0
C1595 C 0.82459 0.19416 0.80345 0.0
H1596 H 0.32381 0.12544 0.44237 0.0
H1597 H 0.27079 0.15845 0.45758 0.0
H1598 H 0.34292 0.13357 0.47542 0.0
H1599 H 0.29042 0.16711 0.49052 0.0
H1600 H 0.35084 0.19976 0.54511 0.0
H1601 H 0.33569 0.19553 0.51141 0.0
H1602 H 0.32278 0.11283 0.50536 0.0
H1603 H 0.33819 0.11718 0.53894 0.0
C1604 C 0.31629 0.13451 0.45273 0.0
C1605 C 0.29561 0.1411 0.44733 0.0
C1606 C 0.32728 0.13919 0.47164 0.0
C1607 C 0.31802 0.1508 0.48553 0.0
C1608 C 0.29813 0.15836 0.48007 0.0
C1609 C 0.28696 0.15347 0.46118 0.0
C1610 C 0.34497 0.18079 0.53651 0.0
C1611 C 0.34563 0.15877 0.54462 0.0
C1612 C 0.33614 0.17831 0.5173 0.0
C1613 C 0.32813 0.15388 0.50579 0.0
C1614 C 0.32912 0.13201 0.51386 0.0
C1615 C 0.33766 0.13438 0.53309 0.0
H1616 H 0.91421 0.12229 0.46995 0.0
H1617 H 0.91049 0.19167 0.44968 0.0
H1618 H 0.90083 0.13103 0.50061 0.0
H1619 H 0.8962 0.20008 0.48025 0.0
H1620 H 0.89191 0.21983 0.54335 0.0
H1621 H 0.90957 0.21442 0.51349 0.0
H1622 H 0.85977 0.12569 0.51332 0.0
H1623 H 0.84277 0.1312 0.54327 0.0
C1624 C 0.91052 0.13945 0.47211 0.0
C1625 C 0.91316 0.15618 0.45743 0.0
C1626 C 0.90267 0.14438 0.48963 0.0
C1627 C 0.89695 0.16599 0.49285 0.0
C1628 C 0.9006 0.18337 0.47834 0.0
C1629 C 0.90876 0.17858 0.46082 0.0
C1630 C 0.88468 0.1992 0.53684 0.0
C1631 C 0.86606 0.17593 0.54569 0.0
C1632 C 0.89477 0.19608 0.51972 0.0
C1633 C 0.8863 0.16961 0.51103 0.0
C1634 C 0.86732 0.14639 0.5198 0.0
C1635 C 0.85745 0.14952 0.53695 0.0
H1636 H 0.82692 0.71415 0.45053 0.0
H1637 H 0.91303 0.76729 0.4733 0.0
H1638 H 0.81594 0.69332 0.48035 0.0
H1639 H 0.90238 0.7453 0.50286 0.0
H1640 H 0.86657 0.72248 0.56018 0.0
H1641 H 0.87828 0.74304 0.53024 0.0
H1642 H 0.82226 0.66341 0.49974 0.0
H1643 H 0.80931 0.64321 0.52966 0.0
C1644 C 0.84358 0.72135 0.46188 0.0
C1645 C 0.87084 0.7426 0.4595 0.0
C1646 C 0.83734 0.7091 0.47895 0.0
C1647 C 0.85824 0.71758 0.49411 0.0
C1648 C 0.88564 0.73848 0.49162 0.0
C1649 C 0.89185 0.75085 0.47455 0.0
C1650 C 0.85645 0.7094 0.5471 0.0
C1651 C 0.83684 0.68116 0.54742 0.0
C1652 C 0.86352 0.72114 0.52988 0.0
C1653 C 0.85127 0.70494 0.51248 0.0
C1654 C 0.83187 0.67665 0.51281 0.0
C1655 C 0.82469 0.66495 0.53003 0.0
loop_
_geom_bond_atom_site_label_1
_geom_bond_atom_site_label_2
_geom_bond_distance
_geom_bond_site_symmetry_2
_ccdc_geom_bond_type
H0 C5 0.930 . S
H1 C8 0.930 . S
H2 C10 0.930 . S
H3 C4 1.016 . S
C4 H3 1.016 . S
C4 N11 1.286 . S
C5 H0 0.930 . S
C5 C6 1.397 . S
C5 C7 1.361 . S
C6 C5 1.397 . S
C6 C10 1.390 . S
C7 C5 1.361 . S
C7 C8 1.393 . S
C7 N11 1.413 . S
C8 H1 0.930 . S
C8 C7 1.393 . S
C8 C9 1.399 . S
C9 C8 1.399 . S
C9 C10 1.381 . S
C10 H2 0.930 . S
C10 C6 1.390 . S
C10 C9 1.381 . S
N11 C4 1.286 . S
N11 C7 1.413 . S
H12 C17 0.930 . S
H13 C20 0.930 . S
H14 C22 0.930 . S
H15 C16 1.016 . S
C16 H15 1.016 . S
C16 N23 1.286 . S
C17 H12 0.930 . S
C17 C18 1.397 . S
C17 C19 1.361 . S
C18 C17 1.397 . S
C18 C22 1.390 . S
C19 C17 1.361 . S
C19 C20 1.393 . S
C19 N23 1.413 . S
C20 H13 0.930 . S
C20 C19 1.393 . S
C20 C21 1.399 . S
C21 C20 1.399 . S
C21 C22 1.381 . S
C22 H14 0.930 . S
C22 C18 1.390 . S
C22 C21 1.381 . S
N23 C16 1.286 . S
N23 C19 1.413 . S
H24 C29 0.930 . S
H25 C32 0.930 . S
H26 C34 0.930 . S
H27 C28 1.016 . S
C28 H27 1.016 . S
C28 N35 1.286 . S
C29 H24 0.930 . S
C29 C30 1.397 . S
C29 C31 1.361 . S
C30 C29 1.397 . S
C30 C34 1.390 . S
C31 C29 1.361 . S
C31 C32 1.393 . S
C31 N35 1.413 . S
C32 H25 0.930 . S
C32 C31 1.393 . S
C32 C33 1.399 . S
C33 C32 1.399 . S
C33 C34 1.381 . S
C34 H26 0.930 . S
C34 C30 1.390 . S
C34 C33 1.381 . S
N35 C28 1.286 . S
N35 C31 1.413 . S
H36 C41 0.930 . S
H37 C44 0.930 . S
H38 C46 0.930 . S
H39 C40 1.016 . S
C40 H39 1.016 . S
C40 N47 1.286 . S
C41 H36 0.930 . S
C41 C42 1.397 . S
C41 C43 1.361 . S
C42 C41 1.397 . S
C42 C46 1.390 . S
C43 C41 1.361 . S
C43 C44 1.393 . S
C43 N47 1.413 . S
C44 H37 0.930 . S
C44 C43 1.393 . S
C44 C45 1.399 . S
C45 C44 1.399 . S
C45 C46 1.381 . S
C46 H38 0.930 . S
C46 C42 1.390 . S
C46 C45 1.381 . S
N47 C40 1.286 . S
N47 C43 1.413 . S
H48 C53 0.930 . S
H49 C56 0.930 . S
H50 C58 0.930 . S
H51 C52 1.016 . S
C52 H51 1.016 . S
C52 N59 1.286 . S
C53 H48 0.930 . S
C53 C54 1.397 . S
C53 C55 1.361 . S
C54 C53 1.397 . S
C54 C58 1.390 . S
C55 C53 1.361 . S
C55 C56 1.393 . S
C55 N59 1.413 . S
C56 H49 0.930 . S
C56 C55 1.393 . S
C56 C57 1.399 . S
C57 C56 1.399 . S
C57 C58 1.381 . S
C58 H50 0.930 . S
C58 C54 1.390 . S
C58 C57 1.381 . S
N59 C52 1.286 . S
N59 C55 1.413 . S
H60 C65 0.930 . S
H61 C68 0.930 . S
H62 C70 0.930 . S
H63 C64 1.016 . S
C64 H63 1.016 . S
C64 N71 1.286 . S
C65 H60 0.930 . S
C65 C66 1.397 . S
C65 C67 1.361 . S
C66 C65 1.397 . S
C66 C70 1.390 . S
C67 C65 1.361 . S
C67 C68 1.393 . S
C67 N71 1.413 . S
C68 H61 0.930 . S
C68 C67 1.393 . S
C68 C69 1.399 . S
C69 C68 1.399 . S
C69 C70 1.381 . S
C70 H62 0.930 . S
C70 C66 1.390 . S
C70 C69 1.381 . S
N71 C64 1.286 . S
N71 C67 1.413 . S
H72 C77 0.930 . S
H73 C80 0.930 . S
H74 C82 0.930 . S
H75 C76 1.016 . S
C76 H75 1.016 . S
C76 N83 1.286 . S
C77 H72 0.930 . S
C77 C78 1.397 . S
C77 C79 1.361 . S
C78 C77 1.397 . S
C78 C82 1.390 . S
C79 C77 1.361 . S
C79 C80 1.393 . S
C79 N83 1.413 . S
C80 H73 0.930 . S
C80 C79 1.393 . S
C80 C81 1.399 . S
C81 C80 1.399 . S
C81 C82 1.381 . S
C82 H74 0.930 . S
C82 C78 1.390 . S
C82 C81 1.381 . S
N83 C76 1.286 . S
N83 C79 1.413 . S
H84 C89 0.930 . S
H85 C92 0.930 . S
H86 C94 0.930 . S
H87 C88 1.016 . S
C88 H87 1.016 . S
C88 N95 1.286 . S
C89 H84 0.930 . S
C89 C90 1.397 . S
C89 C91 1.361 . S
C90 C89 1.397 . S
C90 C94 1.390 . S
C91 C89 1.361 . S
C91 C92 1.393 . S
C91 N95 1.413 . S
C92 H85 0.930 . S
C92 C91 1.393 . S
C92 C93 1.399 . S
C93 C92 1.399 . S
C93 C94 1.381 . S
C94 H86 0.930 . S
C94 C90 1.390 . S
C94 C93 1.381 . S
N95 C88 1.286 . S
N95 C91 1.413 . S
H96 C101 0.930 . S
H97 C104 0.930 . S
H98 C106 0.930 . S
H99 C100 1.016 . S
C100 H99 1.016 . S
C100 N107 1.286 . S
C101 H96 0.930 . S
C101 C102 1.397 . S
C101 C103 1.361 . S
C102 C101 1.397 . S
C102 C106 1.390 . S
C103 C101 1.361 . S
C103 C104 1.393 . S
C103 N107 1.413 . S
C104 H97 0.930 . S
C104 C103 1.393 . S
C104 C105 1.399 . S
C105 C104 1.399 . S
C105 C106 1.381 . S
C106 H98 0.930 . S
C106 C102 1.390 . S
C106 C105 1.381 . S
N107 C100 1.286 . S
N107 C103 1.413 . S
H108 C113 0.930 . S
H109 C116 0.930 . S
H110 C118 0.930 . S
H111 C112 1.016 . S
C112 H111 1.016 . S
C112 N119 1.286 . S
C113 H108 0.930 . S
C113 C114 1.397 . S
C113 C115 1.361 . S
C114 C113 1.397 . S
C114 C118 1.390 . S
C115 C113 1.361 . S
C115 C116 1.393 . S
C115 N119 1.413 . S
C116 H109 0.930 . S
C116 C115 1.393 . S
C116 C117 1.399 . S
C117 C116 1.399 . S
C117 C118 1.381 . S
C118 H110 0.930 . S
C118 C114 1.390 . S
C118 C117 1.381 . S
N119 C112 1.286 . S
N119 C115 1.413 . S
H120 C125 0.930 . S
H121 C128 0.930 . S
H122 C130 0.930 . S
H123 C124 1.016 . S
C124 H123 1.016 . S
C124 N131 1.286 . S
C125 H120 0.930 . S
C125 C126 1.397 . S
C125 C127 1.361 . S
C126 C125 1.397 . S
C126 C130 1.390 . S
C127 C125 1.361 . S
C127 C128 1.393 . S
C127 N131 1.413 . S
C128 H121 0.930 . S
C128 C127 1.393 . S
C128 C129 1.399 . S
C129 C128 1.399 . S
C129 C130 1.381 . S
C130 H122 0.930 . S
C130 C126 1.390 . S
C130 C129 1.381 . S
N131 C124 1.286 . S
N131 C127 1.413 . S
H132 C137 0.930 . S
H133 C140 0.930 . S
H134 C142 0.930 . S
H135 C136 1.016 . S
C136 H135 1.016 . S
C136 N143 1.286 . S
C137 H132 0.930 . S
C137 C138 1.397 . S
C137 C139 1.361 . S
C138 C137 1.397 . S
C138 C142 1.390 . S
C139 C137 1.361 . S
C139 C140 1.393 . S
C139 N143 1.413 . S
C140 H133 0.930 . S
C140 C139 1.393 . S
C140 C141 1.399 . S
C141 C140 1.399 . S
C141 C142 1.381 . S
C142 H134 0.930 . S
C142 C138 1.390 . S
C142 C141 1.381 . S
N143 C136 1.286 . S
N143 C139 1.413 . S
H144 C149 0.930 . S
H145 C152 0.930 . S
H146 C154 0.930 . S
H147 C148 1.016 . S
C148 H147 1.016 . S
C148 N155 1.286 . S
C149 H144 0.930 . S
C149 C150 1.397 . S
C149 C151 1.361 . S
C150 C149 1.397 . S
C150 C154 1.390 . S
C151 C149 1.361 . S
C151 C152 1.393 . S
C151 N155 1.413 . S
C152 H145 0.930 . S
C152 C151 1.393 . S
C152 C153 1.399 . S
C153 C152 1.399 . S
C153 C154 1.381 . S
C154 H146 0.930 . S
C154 C150 1.390 . S
C154 C153 1.381 . S
N155 C148 1.286 . S
N155 C151 1.413 . S
H156 C161 0.930 . S
H157 C164 0.930 . S
H158 C166 0.930 . S
H159 C160 1.016 . S
C160 H159 1.016 . S
C160 N167 1.286 . S
C161 H156 0.930 . S
C161 C162 1.397 . S
C161 C163 1.361 . S
C162 C161 1.397 . S
C162 C166 1.390 . S
C163 C161 1.361 . S
C163 C164 1.393 . S
C163 N167 1.413 . S
C164 H157 0.930 . S
C164 C163 1.393 . S
C164 C165 1.399 . S
C165 C164 1.399 . S
C165 C166 1.381 . S
C166 H158 0.930 . S
C166 C162 1.390 . S
C166 C165 1.381 . S
N167 C160 1.286 . S
N167 C163 1.413 . S
H168 C173 0.930 . S
H169 C176 0.930 . S
H170 C178 0.930 . S
H171 C172 1.016 . S
C172 H171 1.016 . S
C172 N179 1.286 . S
C173 H168 0.930 . S
C173 C174 1.397 . S
C173 C175 1.361 . S
C174 C173 1.397 . S
C174 C178 1.390 . S
C175 C173 1.361 . S
C175 C176 1.393 . S
C175 N179 1.413 . S
C176 H169 0.930 . S
C176 C175 1.393 . S
C176 C177 1.399 . S
C177 C176 1.399 . S
C177 C178 1.381 . S
C178 H170 0.930 . S
C178 C174 1.390 . S
C178 C177 1.381 . S
N179 C172 1.286 . S
N179 C175 1.413 . S
H180 C185 0.930 . S
H181 C188 0.930 . S
H182 C190 0.930 . S
H183 C184 1.016 . S
C184 H183 1.016 . S
C184 N191 1.286 . S
C185 H180 0.930 . S
C185 C186 1.397 . S
C185 C187 1.361 . S
C186 C185 1.397 . S
C186 C190 1.390 . S
C187 C185 1.361 . S
C187 C188 1.393 . S
C187 N191 1.413 . S
C188 H181 0.930 . S
C188 C187 1.393 . S
C188 C189 1.399 . S
C189 C188 1.399 . S
C189 C190 1.381 . S
C190 H182 0.930 . S
C190 C186 1.390 . S
C190 C189 1.381 . S
N191 C184 1.286 . S
N191 C187 1.413 . S
H192 C197 0.930 . S
H193 C200 0.930 . S
H194 C202 0.930 . S
H195 C196 1.016 . S
C196 H195 1.016 . S
C196 N203 1.286 . S
C197 H192 0.930 . S
C197 C198 1.397 . S
C197 C199 1.361 . S
C198 C197 1.397 . S
C198 C202 1.390 . S
C199 C197 1.361 . S
C199 C200 1.393 . S
C199 N203 1.413 . S
C200 H193 0.930 . S
C200 C199 1.393 . S
C200 C201 1.399 . S
C201 C200 1.399 . S
C201 C202 1.381 . S
C202 H194 0.930 . S
C202 C198 1.390 . S
C202 C201 1.381 . S
N203 C196 1.286 . S
N203 C199 1.413 . S
H204 C209 0.930 . S
H205 C212 0.930 . S
H206 C214 0.930 . S
H207 C208 1.016 . S
C208 H207 1.016 . S
C208 N215 1.286 . S
C209 H204 0.930 . S
C209 C210 1.397 . S
C209 C211 1.361 . S
C210 C209 1.397 . S
C210 C214 1.390 . S
C211 C209 1.361 . S
C211 C212 1.393 . S
C211 N215 1.413 . S
C212 H205 0.930 . S
C212 C211 1.393 . S
C212 C213 1.399 . S
C213 C212 1.399 . S
C213 C214 1.381 . S
C214 H206 0.930 . S
C214 C210 1.390 . S
C214 C213 1.381 . S
N215 C208 1.286 . S
N215 C211 1.413 . S
Eu216 C225 2.828 1_565 S
Eu216 O227 2.433 . S
Eu216 O229 2.418 . S
Eu216 O234 2.373 1_565 S
Eu216 O237 2.488 . S
Eu216 O238 2.471 1_565 S
Eu216 O239 2.349 1_565 S
Eu217 O226 2.373 1_545 S
Eu217 O230 2.488 . S
Eu217 O231 2.471 1_545 S
Eu217 O232 2.349 1_545 S
Eu217 O235 2.392 . S
Eu217 O236 2.418 . S
Eu217 C246 2.828 . S
C218 O236 1.244 . S
C218 O239 1.265 1_554 S
C219 C220 1.379 . S
C219 C223 1.373 1_545 S
C219 C225 1.505 . S
C220 C219 1.379 . S
C220 C222 1.369 . S
C220 H248 0.930 . S
C221 C223 1.383 1_545 S
C221 C224 1.382 . S
C221 H249 0.930 1_545 S
C222 C220 1.369 . S
C222 C224 1.392 . S
C222 H250 0.930 . S
C223 C219 1.373 1_565 S
C223 C221 1.383 1_565 S
C223 H251 0.931 . S
C224 C221 1.382 . S
C224 C222 1.392 . S
C225 Eu216 2.828 1_545 S
C225 C219 1.505 . S
C225 O237 1.249 1_545 S
C225 O238 1.244 . S
O226 Eu217 2.373 1_565 S
O226 C228 1.258 . S
O227 Eu216 2.433 . S
O227 C228 1.188 1_556 S
C228 O226 1.258 . S
C228 O227 1.188 1_554 S
O229 Eu216 2.418 . S
O229 C233 1.244 1_556 S
O230 Eu217 2.488 . S
O230 C246 1.249 . S
O231 Eu217 2.471 1_565 S
O231 C246 1.244 1_565 S
O232 Eu217 2.349 1_565 S
O232 C233 1.265 . S
C233 O229 1.244 1_554 S
C233 O232 1.265 . S
O234 Eu216 2.373 1_545 S
O234 C247 1.258 . S
O235 Eu217 2.392 . S
O235 C247 1.242 1_554 S
O236 Eu217 2.418 . S
O236 C218 1.244 . S
O237 Eu216 2.488 . S
O237 C225 1.249 1_565 S
O238 Eu216 2.471 1_545 S
O238 C225 1.244 . S
O239 Eu216 2.349 1_545 S
O239 C218 1.265 1_556 S
C240 C241 1.379 . S
C240 C244 1.373 1_565 S
C240 C246 1.505 1_565 S
C241 C240 1.379 . S
C241 C243 1.369 . S
C241 H252 0.930 . S
C242 C244 1.383 . S
C242 C245 1.382 1_545 S
C242 H253 0.930 . S
C243 C241 1.369 . S
C243 C245 1.392 . S
C243 H254 0.930 . S
C244 C240 1.373 1_545 S
C244 C242 1.383 . S
C244 H255 0.931 . S
C245 C242 1.382 1_565 S
C245 C243 1.392 . S
C246 Eu217 2.828 . S
C246 O230 1.249 . S
C246 O231 1.244 1_545 S
C246 C240 1.505 1_545 S
C247 O234 1.258 . S
C247 O235 1.242 1_556 S
H248 C220 0.930 . S
H249 C221 0.930 1_565 S
H250 C222 0.930 . S
H251 C223 0.931 . S
H252 C241 0.930 . S
H253 C242 0.930 . S
H254 C243 0.930 . S
H255 C244 0.931 . S
Eu256 C265 2.822 1_455 S
Eu256 O267 2.392 1_556 S
Eu256 O269 2.418 . S
Eu256 O274 2.373 1_455 S
Eu256 O277 2.488 . S
Eu256 O278 2.471 1_455 S
Eu256 O279 2.349 1_455 S
Eu257 O266 2.373 1_655 S
Eu257 O270 2.488 . S
Eu257 O271 2.471 1_655 S
Eu257 O272 2.349 1_655 S
Eu257 O275 2.392 . S
Eu257 O276 2.418 . S
Eu257 C286 2.828 1_655 S
C258 O276 1.244 . S
C258 O279 1.265 1_554 S
C259 C260 1.379 . S
C259 C263 1.373 1_655 S
C259 C265 1.513 . S
C260 C259 1.379 . S
C260 C262 1.369 . S
C260 H288 0.930 . S
C261 C263 1.383 1_655 S
C261 C264 1.382 . S
C261 H289 0.930 1_655 S
C262 C260 1.369 . S
C262 C264 1.392 . S
C262 H290 0.930 . S
C263 C259 1.373 1_455 S
C263 C261 1.383 1_455 S
C263 H291 0.931 . S
C264 C261 1.382 . S
C264 C262 1.392 . S
C265 Eu256 2.822 1_655 S
C265 C259 1.513 . S
C265 O277 1.240 1_655 S
C265 O278 1.247 . S
O266 Eu257 2.373 1_455 S
O266 C268 1.258 . S
O267 Eu256 2.392 1_554 S
O267 C268 1.242 . S
C268 O266 1.258 . S
C268 O267 1.242 . S
O269 Eu256 2.418 . S
O269 C273 1.244 1_556 S
O270 Eu257 2.488 . S
O270 C286 1.249 1_655 S
O271 Eu257 2.471 1_455 S
O271 C286 1.244 . S
O272 Eu257 2.349 1_455 S
O272 C273 1.265 . S
C273 O269 1.244 1_554 S
C273 O272 1.265 . S
O274 Eu256 2.373 1_655 S
O274 C287 1.258 . S
O275 Eu257 2.392 . S
O275 C287 1.242 1_554 S
O276 Eu257 2.418 . S
O276 C258 1.244 . S
O277 Eu256 2.488 . S
O277 C265 1.240 1_455 S
O278 Eu256 2.471 1_655 S
O278 C265 1.247 . S
O279 Eu256 2.349 1_655 S
O279 C258 1.265 1_556 S
C280 C281 1.379 . S
C280 C284 1.366 1_455 S
C280 C286 1.505 . S
C281 C280 1.379 . S
C281 C283 1.369 . S
C281 H292 0.930 . S
C282 C284 1.375 1_455 S
C282 C285 1.382 . S
C282 H293 0.930 1_455 S
C283 C281 1.369 . S
C283 C285 1.392 . S
C283 H294 0.930 . S
C284 C280 1.366 1_655 S
C284 C282 1.375 1_655 S
C284 H295 0.946 . S
C285 C282 1.382 . S
C285 C283 1.392 . S
C286 Eu257 2.828 1_455 S
C286 O270 1.249 1_455 S
C286 O271 1.244 . S
C286 C280 1.505 . S
C287 O274 1.258 . S
C287 O275 1.242 1_556 S
H288 C260 0.930 . S
H289 C261 0.930 1_455 S
H290 C262 0.930 . S
H291 C263 0.931 . S
H292 C281 0.930 . S
H293 C282 0.930 1_655 S
H294 C283 0.930 . S
H295 C284 0.946 . S
Eu296 C305 2.828 . S
Eu296 O307 2.392 . S
Eu296 O309 2.418 . S
Eu296 O314 2.373 . S
Eu296 O317 2.488 . S
Eu296 O318 2.471 . S
Eu296 O319 2.349 . S
Eu297 O306 2.373 . S
Eu297 O310 2.488 . S
Eu297 O311 2.471 . S
Eu297 O312 2.332 1_556 S
Eu297 O315 2.392 1_556 S
Eu297 O316 2.418 . S
Eu297 C326 2.828 . S
C298 O316 1.244 1_554 S
C298 O319 1.265 . S
C299 C300 1.379 . S
C299 C303 1.373 . S
C299 C305 1.505 . S
C300 C299 1.379 . S
C300 C302 1.369 . S
C300 H328 0.930 . S
C301 C303 1.383 . S
C301 C304 1.382 . S
C301 H329 0.930 . S
C302 C300 1.369 . S
C302 C304 1.392 . S
C302 H330 0.930 . S
C303 C299 1.373 . S
C303 C301 1.383 . S
C303 H331 0.931 . S
C304 C301 1.382 . S
C304 C302 1.392 . S
C305 Eu296 2.828 . S
C305 C299 1.505 . S
C305 O317 1.249 . S
C305 O318 1.244 . S
O306 Eu297 2.373 . S
O306 C308 1.258 . S
O307 Eu296 2.392 . S
O307 C308 1.242 1_554 S
C308 O306 1.258 . S
C308 O307 1.242 1_556 S
O309 Eu296 2.418 . S
O309 C313 1.244 . S
O310 Eu297 2.488 . S
O310 C326 1.249 . S
O311 Eu297 2.471 . S
O311 C326 1.244 . S
O312 Eu297 2.332 1_554 S
O312 C313 1.282 . S
C313 O309 1.244 . S
C313 O312 1.282 . S
O314 Eu296 2.373 . S
O314 C327 1.258 . S
O315 Eu297 2.392 1_554 S
O315 C327 1.242 . S
O316 Eu297 2.418 . S
O316 C298 1.244 1_556 S
O317 Eu296 2.488 . S
O317 C305 1.249 . S
O318 Eu296 2.471 . S
O318 C305 1.244 . S
O319 Eu296 2.349 . S
O319 C298 1.265 . S
C320 C321 1.379 . S
C320 C324 1.373 . S
C320 C326 1.505 . S
C321 C320 1.379 . S
C321 C323 1.369 . S
C321 H332 0.930 . S
C322 C324 1.383 . S
C322 C325 1.382 . S
C322 H333 0.930 . S
C323 C321 1.369 . S
C323 C325 1.392 . S
C323 H334 0.930 . S
C324 C320 1.373 . S
C324 C322 1.383 . S
C324 H335 0.931 . S
C325 C322 1.382 . S
C325 C323 1.392 . S
C326 Eu297 2.828 . S
C326 O310 1.249 . S
C326 O311 1.244 . S
C326 C320 1.505 . S
C327 O314 1.258 . S
C327 O315 1.242 . S
H328 C300 0.930 . S
H329 C301 0.930 . S
H330 C302 0.930 . S
H331 C303 0.931 . S
H332 C321 0.930 . S
H333 C322 0.930 . S
H334 C323 0.930 . S
H335 C324 0.931 . S
Eu336 C345 2.828 . S
Eu336 O347 2.392 . S
Eu336 O349 2.418 . S
Eu336 O354 2.373 . S
Eu336 O357 2.488 . S
Eu336 O358 2.471 . S
Eu336 O359 2.349 . S
Eu337 O346 2.373 . S
Eu337 O350 2.488 . S
Eu337 O351 2.471 . S
Eu337 O352 2.349 . S
Eu337 O355 2.392 . S
Eu337 O356 2.418 . S
Eu337 C366 2.828 . S
C338 O356 1.244 . S
C338 O359 1.265 . S
C339 C340 1.379 . S
C339 C343 1.373 . S
C339 C345 1.505 . S
C340 C339 1.379 . S
C340 C342 1.369 . S
C340 H368 0.930 . S
C341 C343 1.383 . S
C341 C344 1.382 . S
C341 H369 0.930 . S
C342 C340 1.369 . S
C342 C344 1.392 . S
C342 H370 0.930 . S
C343 C339 1.373 . S
C343 C341 1.383 . S
C343 H371 0.931 . S
C344 C341 1.382 . S
C344 C342 1.392 . S
C345 Eu336 2.828 . S
C345 C339 1.505 . S
C345 O357 1.249 . S
C345 O358 1.244 . S
O346 Eu337 2.373 . S
O346 C348 1.258 . S
O347 Eu336 2.392 . S
O347 C348 1.242 . S
C348 O346 1.258 . S
C348 O347 1.242 . S
O349 Eu336 2.418 . S
O349 C353 1.244 . S
O350 Eu337 2.488 . S
O350 C366 1.249 . S
O351 Eu337 2.471 . S
O351 C366 1.244 . S
O352 Eu337 2.349 . S
O352 C353 1.265 . S
C353 O349 1.244 . S
C353 O352 1.265 . S
O354 Eu336 2.373 . S
O354 C367 1.258 . S
O355 Eu337 2.392 . S
O355 C367 1.242 . S
O356 Eu337 2.418 . S
O356 C338 1.244 . S
O357 Eu336 2.488 . S
O357 C345 1.249 . S
O358 Eu336 2.471 . S
O358 C345 1.244 . S
O359 Eu336 2.349 . S
O359 C338 1.265 . S
C360 C361 1.379 . S
C360 C364 1.373 . S
C360 C366 1.505 . S
C361 C360 1.379 . S
C361 C363 1.369 . S
C361 H372 0.930 . S
C362 C364 1.383 . S
C362 C365 1.382 . S
C362 H373 0.930 . S
C363 C361 1.369 . S
C363 C365 1.392 . S
C363 H374 0.930 . S
C364 C360 1.373 . S
C364 C362 1.383 . S
C364 H375 0.931 . S
C365 C362 1.382 . S
C365 C363 1.392 . S
C366 Eu337 2.828 . S
C366 O350 1.249 . S
C366 O351 1.244 . S
C366 C360 1.505 . S
C367 O354 1.258 . S
C367 O355 1.242 . S
H368 C340 0.930 . S
H369 C341 0.930 . S
H370 C342 0.930 . S
H371 C343 0.931 . S
H372 C361 0.930 . S
H373 C362 0.930 . S
H374 C363 0.930 . S
H375 C364 0.931 . S
Eu376 C385 2.828 . S
Eu376 O387 2.392 . S
Eu376 O389 2.418 . S
Eu376 O394 2.373 . S
Eu376 O397 2.488 . S
Eu376 O398 2.471 . S
Eu376 O399 2.349 . S
Eu377 O386 2.373 . S
Eu377 O390 2.488 . S
Eu377 O391 2.471 . S
Eu377 O392 2.349 . S
Eu377 O395 2.392 . S
Eu377 O396 2.418 . S
Eu377 C406 2.828 . S
C378 O396 1.244 . S
C378 O399 1.265 . S
C379 C380 1.379 . S
C379 C383 1.373 . S
C379 C385 1.505 . S
C380 C379 1.379 . S
C380 C382 1.369 . S
C380 H408 0.930 . S
C381 C383 1.383 . S
C381 C384 1.382 . S
C381 H409 0.930 . S
C382 C380 1.369 . S
C382 C384 1.392 . S
C382 H410 0.930 . S
C383 C379 1.373 . S
C383 C381 1.383 . S
C383 H411 0.931 . S
C384 C381 1.382 . S
C384 C382 1.392 . S
C385 Eu376 2.828 . S
C385 C379 1.505 . S
C385 O397 1.249 . S
C385 O398 1.244 . S
O386 Eu377 2.373 . S
O386 C388 1.258 . S
O387 Eu376 2.392 . S
O387 C388 1.242 . S
C388 O386 1.258 . S
C388 O387 1.242 . S
O389 Eu376 2.418 . S
O389 C393 1.244 . S
O390 Eu377 2.488 . S
O390 C406 1.249 . S
O391 Eu377 2.471 . S
O391 C406 1.244 . S
O392 Eu377 2.349 . S
O392 C393 1.265 . S
C393 O389 1.244 . S
C393 O392 1.265 . S
O394 Eu376 2.373 . S
O394 C407 1.258 . S
O395 Eu377 2.392 . S
O395 C407 1.242 . S
O396 Eu377 2.418 . S
O396 C378 1.244 . S
O397 Eu376 2.488 . S
O397 C385 1.249 . S
O398 Eu376 2.471 . S
O398 C385 1.244 . S
O399 Eu376 2.349 . S
O399 C378 1.265 . S
C400 C401 1.379 . S
C400 C404 1.373 . S
C400 C406 1.505 . S
C401 C400 1.379 . S
C401 C403 1.369 . S
C401 H412 0.930 . S
C402 C404 1.383 . S
C402 C405 1.382 . S
C402 H413 0.930 . S
C403 C401 1.369 . S
C403 C405 1.392 . S
C403 H414 0.930 . S
C404 C400 1.373 . S
C404 C402 1.383 . S
C404 H415 0.931 . S
C405 C402 1.382 . S
C405 C403 1.392 . S
C406 Eu377 2.828 . S
C406 O390 1.249 . S
C406 O391 1.244 . S
C406 C400 1.505 . S
C407 O394 1.258 . S
C407 O395 1.242 . S
H408 C380 0.930 . S
H409 C381 0.930 . S
H410 C382 0.930 . S
H411 C383 0.931 . S
H412 C401 0.930 . S
H413 C402 0.930 . S
H414 C403 0.930 . S
H415 C404 0.931 . S
Eu416 C425 2.828 . S
Eu416 O427 2.392 . S
Eu416 O429 2.418 . S
Eu416 O434 2.373 . S
Eu416 O437 2.488 . S
Eu416 O438 2.471 . S
Eu416 O439 2.349 . S
Eu417 O426 2.373 . S
Eu417 O430 2.488 . S
Eu417 O431 2.471 . S
Eu417 O432 2.349 . S
Eu417 O435 2.392 . S
Eu417 O436 2.418 . S
Eu417 C446 2.828 . S
C418 O436 1.244 . S
C418 O439 1.265 . S
C419 C420 1.379 . S
C419 C423 1.373 . S
C419 C425 1.505 . S
C420 C419 1.379 . S
C420 C422 1.369 . S
C420 H448 0.930 . S
C421 C423 1.383 . S
C421 C424 1.382 . S
C421 H449 0.930 . S
C422 C420 1.369 . S
C422 C424 1.392 . S
C422 H450 0.930 . S
C423 C419 1.373 . S
C423 C421 1.383 . S
C423 H451 0.931 . S
C424 C421 1.382 . S
C424 C422 1.392 . S
C425 Eu416 2.828 . S
C425 C419 1.505 . S
C425 O437 1.249 . S
C425 O438 1.244 . S
O426 Eu417 2.373 . S
O426 C428 1.258 . S
O427 Eu416 2.392 . S
O427 C428 1.242 . S
C428 O426 1.258 . S
C428 O427 1.242 . S
O429 Eu416 2.418 . S
O429 C433 1.244 . S
O430 Eu417 2.488 . S
O430 C446 1.249 . S
O431 Eu417 2.471 . S
O431 C446 1.244 . S
O432 Eu417 2.349 . S
O432 C433 1.265 . S
C433 O429 1.244 . S
C433 O432 1.265 . S
O434 Eu416 2.373 . S
O434 C447 1.258 . S
O435 Eu417 2.392 . S
O435 C447 1.242 . S
O436 Eu417 2.418 . S
O436 C418 1.244 . S
O437 Eu416 2.488 . S
O437 C425 1.249 . S
O438 Eu416 2.471 . S
O438 C425 1.244 . S
O439 Eu416 2.349 . S
O439 C418 1.265 . S
C440 C441 1.379 . S
C440 C444 1.373 . S
C440 C446 1.505 . S
C441 C440 1.379 . S
C441 C443 1.369 . S
C441 H452 0.930 . S
C442 C444 1.383 . S
C442 C445 1.382 . S
C442 H453 0.930 . S
C443 C441 1.369 . S
C443 C445 1.392 . S
C443 H454 0.930 . S
C444 C440 1.373 . S
C444 C442 1.383 . S
C444 H455 0.931 . S
C445 C442 1.382 . S
C445 C443 1.392 . S
C446 Eu417 2.828 . S
C446 O430 1.249 . S
C446 O431 1.244 . S
C446 C440 1.505 . S
C447 O434 1.258 . S
C447 O435 1.242 . S
H448 C420 0.930 . S
H449 C421 0.930 . S
H450 C422 0.930 . S
H451 C423 0.931 . S
H452 C441 0.930 . S
H453 C442 0.930 . S
H454 C443 0.930 . S
H455 C444 0.931 . S
Eu456 C465 2.828 . S
Eu456 O467 2.392 . S
Eu456 O469 2.418 . S
Eu456 O474 2.373 . S
Eu456 O477 2.488 . S
Eu456 O478 2.471 . S
Eu456 O479 2.349 . S
Eu457 O466 2.373 . S
Eu457 O470 2.488 . S
Eu457 O471 2.471 . S
Eu457 O472 2.349 . S
Eu457 O475 2.392 . S
Eu457 O476 2.418 . S
Eu457 C486 2.828 . S
C458 O476 1.244 . S
C458 O479 1.265 . S
C459 C460 1.379 . S
C459 C463 1.373 . S
C459 C465 1.505 . S
C460 C459 1.379 . S
C460 C462 1.369 . S
C460 H488 0.930 . S
C461 C463 1.383 . S
C461 C464 1.382 . S
C461 H489 0.930 . S
C462 C460 1.369 . S
C462 C464 1.392 . S
C462 H490 0.930 . S
C463 C459 1.373 . S
C463 C461 1.383 . S
C463 H491 0.931 . S
C464 C461 1.382 . S
C464 C462 1.392 . S
C465 Eu456 2.828 . S
C465 C459 1.505 . S
C465 O477 1.249 . S
C465 O478 1.244 . S
O466 Eu457 2.373 . S
O466 C468 1.258 . S
O467 Eu456 2.392 . S
O467 C468 1.242 . S
C468 O466 1.258 . S
C468 O467 1.242 . S
O469 Eu456 2.418 . S
O469 C473 1.244 . S
O470 Eu457 2.488 . S
O470 C486 1.249 . S
O471 Eu457 2.471 . S
O471 C486 1.244 . S
O472 Eu457 2.349 . S
O472 C473 1.265 . S
C473 O469 1.244 . S
C473 O472 1.265 . S
O474 Eu456 2.373 . S
O474 C487 1.258 . S
O475 Eu457 2.392 . S
O475 C487 1.242 . S
O476 Eu457 2.418 . S
O476 C458 1.244 . S
O477 Eu456 2.488 . S
O477 C465 1.249 . S
O478 Eu456 2.471 . S
O478 C465 1.244 . S
O479 Eu456 2.349 . S
O479 C458 1.265 . S
C480 C481 1.379 . S
C480 C484 1.373 . S
C480 C486 1.505 . S
C481 C480 1.379 . S
C481 C483 1.369 . S
C481 H492 0.930 . S
C482 C484 1.383 . S
C482 C485 1.382 . S
C482 H493 0.930 . S
C483 C481 1.369 . S
C483 C485 1.392 . S
C483 H494 0.930 . S
C484 C480 1.373 . S
C484 C482 1.383 . S
C484 H495 0.931 . S
C485 C482 1.382 . S
C485 C483 1.392 . S
C486 Eu457 2.828 . S
C486 O470 1.249 . S
C486 O471 1.244 . S
C486 C480 1.505 . S
C487 O474 1.258 . S
C487 O475 1.242 . S
H488 C460 0.930 . S
H489 C461 0.930 . S
H490 C462 0.930 . S
H491 C463 0.931 . S
H492 C481 0.930 . S
H493 C482 0.930 . S
H494 C483 0.930 . S
H495 C484 0.931 . S
Eu496 C505 2.828 . S
Eu496 O507 2.392 . S
Eu496 O509 2.418 . S
Eu496 O514 2.373 . S
Eu496 O517 2.488 . S
Eu496 O518 2.471 . S
Eu496 O519 2.349 . S
Eu497 O506 2.373 . S
Eu497 O510 2.488 . S
Eu497 O511 2.471 . S
Eu497 O512 2.349 . S
Eu497 O515 2.392 . S
Eu497 O516 2.418 . S
Eu497 C526 2.828 . S
C498 O516 1.244 . S
C498 O519 1.265 . S
C499 C500 1.379 . S
C499 C503 1.373 . S
C499 C505 1.505 . S
C500 C499 1.379 . S
C500 C502 1.369 . S
C500 H528 0.930 . S
C501 C503 1.383 . S
C501 C504 1.382 . S
C501 H529 0.930 . S
C502 C500 1.369 . S
C502 C504 1.392 . S
C502 H530 0.930 . S
C503 C499 1.373 . S
C503 C501 1.383 . S
C503 H531 0.931 . S
C504 C501 1.382 . S
C504 C502 1.392 . S
C505 Eu496 2.828 . S
C505 C499 1.505 . S
C505 O517 1.249 . S
C505 O518 1.244 . S
O506 Eu497 2.373 . S
O506 C508 1.258 . S
O507 Eu496 2.392 . S
O507 C508 1.242 . S
C508 O506 1.258 . S
C508 O507 1.242 . S
O509 Eu496 2.418 . S
O509 C513 1.244 . S
O510 Eu497 2.488 . S
O510 C526 1.249 . S
O511 Eu497 2.471 . S
O511 C526 1.244 . S
O512 Eu497 2.349 . S
O512 C513 1.265 . S
C513 O509 1.244 . S
C513 O512 1.265 . S
O514 Eu496 2.373 . S
O514 C527 1.258 . S
O515 Eu497 2.392 . S
O515 C527 1.242 . S
O516 Eu497 2.418 . S
O516 C498 1.244 . S
O517 Eu496 2.488 . S
O517 C505 1.249 . S
O518 Eu496 2.471 . S
O518 C505 1.244 . S
O519 Eu496 2.349 . S
O519 C498 1.265 . S
C520 C521 1.379 . S
C520 C524 1.373 . S
C520 C526 1.505 . S
C521 C520 1.379 . S
C521 C523 1.369 . S
C521 H532 0.930 . S
C522 C524 1.383 . S
C522 C525 1.382 . S
C522 H533 0.930 . S
C523 C521 1.369 . S
C523 C525 1.392 . S
C523 H534 0.930 . S
C524 C520 1.373 . S
C524 C522 1.383 . S
C524 H535 0.931 . S
C525 C522 1.382 . S
C525 C523 1.392 . S
C526 Eu497 2.828 . S
C526 O510 1.249 . S
C526 O511 1.244 . S
C526 C520 1.505 . S
C527 O514 1.258 . S
C527 O515 1.242 . S
H528 C500 0.930 . S
H529 C501 0.930 . S
H530 C502 0.930 . S
H531 C503 0.931 . S
H532 C521 0.930 . S
H533 C522 0.930 . S
H534 C523 0.930 . S
H535 C524 0.931 . S
Eu536 C545 2.828 . S
Eu536 O547 2.392 . S
Eu536 O549 2.418 . S
Eu536 O554 2.373 . S
Eu536 O557 2.488 . S
Eu536 O558 2.471 . S
Eu536 O559 2.349 . S
Eu537 O546 2.373 . S
Eu537 O550 2.488 . S
Eu537 O551 2.471 . S
Eu537 O552 2.349 . S
Eu537 O555 2.392 . S
Eu537 O556 2.418 . S
Eu537 C566 2.828 . S
C538 O556 1.244 . S
C538 O559 1.265 . S
C539 C540 1.379 . S
C539 C543 1.373 . S
C539 C545 1.505 . S
C540 C539 1.379 . S
C540 C542 1.369 . S
C540 H568 0.930 . S
C541 C543 1.383 . S
C541 C544 1.382 . S
C541 H569 0.930 . S
C542 C540 1.369 . S
C542 C544 1.392 . S
C542 H570 0.930 . S
C543 C539 1.373 . S
C543 C541 1.383 . S
C543 H571 0.931 . S
C544 C541 1.382 . S
C544 C542 1.392 . S
C545 Eu536 2.828 . S
C545 C539 1.505 . S
C545 O557 1.249 . S
C545 O558 1.244 . S
O546 Eu537 2.373 . S
O546 C548 1.258 . S
O547 Eu536 2.392 . S
O547 C548 1.242 . S
C548 O546 1.258 . S
C548 O547 1.242 . S
O549 Eu536 2.418 . S
O549 C553 1.244 . S
O550 Eu537 2.488 . S
O550 C566 1.249 . S
O551 Eu537 2.471 . S
O551 C566 1.244 . S
O552 Eu537 2.349 . S
O552 C553 1.265 . S
C553 O549 1.244 . S
C553 O552 1.265 . S
O554 Eu536 2.373 . S
O554 C567 1.258 . S
O555 Eu537 2.392 . S
O555 C567 1.242 . S
O556 Eu537 2.418 . S
O556 C538 1.244 . S
O557 Eu536 2.488 . S
O557 C545 1.249 . S
O558 Eu536 2.471 . S
O558 C545 1.244 . S
O559 Eu536 2.349 . S
O559 C538 1.265 . S
C560 C561 1.379 . S
C560 C564 1.373 . S
C560 C566 1.505 . S
C561 C560 1.379 . S
C561 C563 1.369 . S
C561 H572 0.930 . S
C562 C564 1.383 . S
C562 C565 1.382 . S
C562 H573 0.930 . S
C563 C561 1.369 . S
C563 C565 1.392 . S
C563 H574 0.930 . S
C564 C560 1.373 . S
C564 C562 1.383 . S
C564 H575 0.931 . S
C565 C562 1.382 . S
C565 C563 1.392 . S
C566 Eu537 2.828 . S
C566 O550 1.249 . S
C566 O551 1.244 . S
C566 C560 1.505 . S
C567 O554 1.258 . S
C567 O555 1.242 . S
H568 C540 0.930 . S
H569 C541 0.930 . S
H570 C542 0.930 . S
H571 C543 0.931 . S
H572 C561 0.930 . S
H573 C562 0.930 . S
H574 C563 0.930 . S
H575 C564 0.931 . S
H576 C584 0.950 . S
H577 C589 0.950 . S
H578 C586 0.950 . S
H579 C588 0.950 . S
H580 C590 0.950 . S
H581 C592 0.950 . S
H582 C594 0.950 . S
H583 C595 0.950 . S
C584 H576 0.950 . S
C584 C585 1.386 . S
C584 C586 1.391 . S
C585 C584 1.386 . S
C585 C589 1.393 . S
C586 H578 0.950 . S
C586 C584 1.391 . S
C586 C587 1.400 . S
C587 C586 1.400 . S
C587 C588 1.398 . S
C587 C593 1.491 . S
C588 H579 0.950 . S
C588 C587 1.398 . S
C588 C589 1.391 . S
C589 H577 0.950 . S
C589 C585 1.393 . S
C589 C588 1.391 . S
C590 H580 0.950 . S
C590 C591 1.386 . S
C590 C592 1.391 . S
C591 C590 1.386 . S
C591 C595 1.393 . S
C592 H581 0.950 . S
C592 C590 1.391 . S
C592 C593 1.400 . S
C593 C587 1.491 . S
C593 C592 1.400 . S
C593 C594 1.398 . S
C594 H582 0.950 . S
C594 C593 1.398 . S
C594 C595 1.391 . S
C595 H583 0.950 . S
C595 C591 1.393 . S
C595 C594 1.391 . S
H596 C604 0.950 . S
H597 C609 0.950 . S
H598 C606 0.950 . S
H599 C608 0.950 . S
H600 C610 0.950 . S
H601 C612 0.950 . S
H602 C614 0.950 . S
H603 C615 0.950 . S
C604 H596 0.950 . S
C604 C605 1.386 . S
C604 C606 1.391 . S
C605 C604 1.386 . S
C605 C609 1.393 . S
C606 H598 0.950 . S
C606 C604 1.391 . S
C606 C607 1.400 . S
C607 C606 1.400 . S
C607 C608 1.398 . S
C607 C613 1.491 . S
C608 H599 0.950 . S
C608 C607 1.398 . S
C608 C609 1.391 . S
C609 H597 0.950 . S
C609 C605 1.393 . S
C609 C608 1.391 . S
C610 H600 0.950 . S
C610 C611 1.386 . S
C610 C612 1.391 . S
C611 C610 1.386 . S
C611 C615 1.393 . S
C612 H601 0.950 . S
C612 C610 1.391 . S
C612 C613 1.400 . S
C613 C607 1.491 . S
C613 C612 1.400 . S
C613 C614 1.398 . S
C614 H602 0.950 . S
C614 C613 1.398 . S
C614 C615 1.391 . S
C615 H603 0.950 . S
C615 C611 1.393 . S
C615 C614 1.391 . S
H616 C624 0.950 . S
H617 C629 0.950 . S
H618 C626 0.950 . S
H619 C628 0.950 . S
H620 C630 0.950 . S
H621 C632 0.950 . S
H622 C634 0.950 1_556 S
H623 C635 0.950 1_556 S
C624 H616 0.950 . S
C624 C625 1.386 . S
C624 C626 1.391 . S
C625 C624 1.386 . S
C625 C629 1.393 . S
C626 H618 0.950 . S
C626 C624 1.391 . S
C626 C627 1.400 . S
C627 C626 1.400 . S
C627 C628 1.398 . S
C627 C633 1.491 . S
C628 H619 0.950 . S
C628 C627 1.398 . S
C628 C629 1.391 . S
C629 H617 0.950 . S
C629 C625 1.393 . S
C629 C628 1.391 . S
C630 H620 0.950 . S
C630 C631 1.386 . S
C630 C632 1.391 . S
C631 C630 1.386 . S
C631 C635 1.393 . S
C632 H621 0.950 . S
C632 C630 1.391 . S
C632 C633 1.400 . S
C633 C627 1.491 . S
C633 C632 1.400 . S
C633 C634 1.398 . S
C634 H622 0.950 1_554 S
C634 C633 1.398 . S
C634 C635 1.391 . S
C635 H623 0.950 1_554 S
C635 C631 1.393 . S
C635 C634 1.391 . S
H636 C644 0.950 . S
H637 C649 0.950 . S
H638 C646 0.950 . S
H639 C648 0.950 . S
H640 C650 0.950 . S
H641 C652 0.950 . S
H642 C654 0.950 . S
H643 C655 0.950 . S
C644 H636 0.950 . S
C644 C645 1.386 . S
C644 C646 1.391 . S
C645 C644 1.386 . S
C645 C649 1.393 . S
C646 H638 0.950 . S
C646 C644 1.391 . S
C646 C647 1.400 . S
C647 C646 1.400 . S
C647 C648 1.398 . S
C647 C653 1.491 . S
C648 H639 0.950 . S
C648 C647 1.398 . S
C648 C649 1.391 . S
C649 H637 0.950 . S
C649 C645 1.393 . S
C649 C648 1.391 . S
C650 H640 0.950 . S
C650 C651 1.386 . S
C650 C652 1.391 . S
C651 C650 1.386 . S
C651 C655 1.393 . S
C652 H641 0.950 . S
C652 C650 1.391 . S
C652 C653 1.400 . S
C653 C647 1.491 . S
C653 C652 1.400 . S
C653 C654 1.398 . S
C654 H642 0.950 . S
C654 C653 1.398 . S
C654 C655 1.391 . S
C655 H643 0.950 . S
C655 C651 1.393 . S
C655 C654 1.391 . S
H656 C664 0.950 . S
H657 C669 0.950 . S
H658 C666 0.950 . S
H659 C668 0.950 . S
H660 C670 0.950 . S
H661 C672 0.950 . S
H662 C674 0.950 . S
H663 C675 0.950 1_554 S
C664 H656 0.950 . S
C664 C665 1.386 . S
C664 C666 1.391 . S
C665 C664 1.386 . S
C665 C669 1.393 . S
C666 H658 0.950 . S
C666 C664 1.391 . S
C666 C667 1.400 . S
C667 C666 1.400 . S
C667 C668 1.398 . S
C667 C673 1.491 . S
C668 H659 0.950 . S
C668 C667 1.398 . S
C668 C669 1.391 . S
C669 H657 0.950 . S
C669 C665 1.393 . S
C669 C668 1.391 . S
C670 H660 0.950 . S
C670 C671 1.386 . S
C670 C672 1.391 . S
C671 C670 1.386 . S
C671 C675 1.393 . S
C672 H661 0.950 . S
C672 C670 1.391 . S
C672 C673 1.400 . S
C673 C667 1.491 . S
C673 C672 1.400 . S
C673 C674 1.398 . S
C674 H662 0.950 . S
C674 C673 1.398 . S
C674 C675 1.391 . S
C675 H663 0.950 1_556 S
C675 C671 1.393 . S
C675 C674 1.391 . S
H676 C684 0.950 1_554 S
H677 C689 0.950 . S
H678 C686 0.950 1_554 S
H679 C688 0.950 . S
H680 C690 0.950 . S
H681 C692 0.950 . S
H682 C694 0.950 . S
H683 C695 0.950 . S
C684 H676 0.950 1_556 S
C684 C685 1.386 . S
C684 C686 1.391 . S
C685 C684 1.386 . S
C685 C689 1.393 . S
C686 H678 0.950 1_556 S
C686 C684 1.391 . S
C686 C687 1.400 . S
C687 C686 1.400 . S
C687 C688 1.398 . S
C687 C693 1.491 . S
C688 H679 0.950 . S
C688 C687 1.398 . S
C688 C689 1.391 . S
C689 H677 0.950 . S
C689 C685 1.393 . S
C689 C688 1.391 . S
C690 H680 0.950 . S
C690 C691 1.386 . S
C690 C692 1.391 . S
C691 C690 1.386 . S
C691 C695 1.393 1_556 S
C692 H681 0.950 . S
C692 C690 1.391 . S
C692 C693 1.400 . S
C693 C687 1.491 . S
C693 C692 1.400 . S
C693 C694 1.398 1_556 S
C694 H682 0.950 . S
C694 C693 1.398 1_554 S
C694 C695 1.391 . S
C695 H683 0.950 . S
C695 C691 1.393 1_554 S
C695 C694 1.391 . S
H696 C704 0.950 . S
H697 C709 0.950 . S
H698 C706 0.950 1_554 S
H699 C708 0.950 . S
H700 C710 0.950 . S
H701 C712 0.950 . S
H702 C714 0.973 . S
H703 C715 0.950 . S
C704 H696 0.950 . S
C704 C705 1.386 . S
C704 C706 1.391 . S
C705 C704 1.386 . S
C705 C709 1.393 . S
C706 H698 0.950 1_556 S
C706 C704 1.391 . S
C706 C707 1.400 . S
C707 C706 1.400 . S
C707 C708 1.398 . S
C707 C713 1.491 . S
C708 H699 0.950 . S
C708 C707 1.398 . S
C708 C709 1.391 . S
C709 H697 0.950 . S
C709 C705 1.393 . S
C709 C708 1.391 . S
C710 H700 0.950 . S
C710 C711 1.386 . S
C710 C712 1.391 . S
C711 C710 1.386 . S
C711 C715 1.393 1_556 S
C712 H701 0.950 . S
C712 C710 1.391 . S
C712 C713 1.400 . S
C713 C707 1.491 . S
C713 C712 1.400 . S
C713 C714 1.366 1_556 S
C714 H702 0.973 . S
C714 C713 1.366 1_554 S
C714 C715 1.401 . S
C715 H703 0.950 . S
C715 C711 1.393 1_554 S
C715 C714 1.401 . S
H716 C724 0.950 . S
H717 C729 0.950 . S
H718 C726 0.950 . S
H719 C728 0.950 . S
H720 C730 0.950 . S
H721 C732 0.950 . S
H722 C734 0.950 . S
H723 C735 0.938 1_554 S
C724 H716 0.950 . S
C724 C725 1.386 . S
C724 C726 1.391 . S
C725 C724 1.386 . S
C725 C729 1.393 . S
C726 H718 0.950 . S
C726 C724 1.391 . S
C726 C727 1.400 . S
C727 C726 1.400 . S
C727 C728 1.398 . S
C727 C733 1.491 . S
C728 H719 0.950 . S
C728 C727 1.398 . S
C728 C729 1.391 . S
C729 H717 0.950 . S
C729 C725 1.393 . S
C729 C728 1.391 . S
C730 H720 0.950 . S
C730 C731 1.386 . S
C730 C732 1.391 . S
C731 C730 1.386 . S
C731 C735 1.393 . S
C732 H721 0.950 . S
C732 C730 1.391 . S
C732 C733 1.400 . S
C733 C727 1.491 . S
C733 C732 1.400 . S
C733 C734 1.398 . S
C734 H722 0.950 . S
C734 C733 1.398 . S
C734 C735 1.391 . S
C735 H723 0.938 1_556 S
C735 C731 1.393 . S
C735 C734 1.391 . S
H736 C744 0.950 . S
H737 C749 0.950 . S
H738 C746 0.950 . S
H739 C748 0.950 . S
H740 C750 0.950 . S
H741 C752 0.950 . S
H742 C754 0.950 . S
H743 C755 0.950 . S
C744 H736 0.950 . S
C744 C745 1.386 . S
C744 C746 1.391 . S
C745 C744 1.386 . S
C745 C749 1.393 1_556 S
C746 H738 0.950 . S
C746 C744 1.391 . S
C746 C747 1.400 . S
C747 C746 1.400 . S
C747 C748 1.398 1_556 S
C747 C753 1.491 . S
C748 H739 0.950 . S
C748 C747 1.398 1_554 S
C748 C749 1.391 . S
C749 H737 0.950 . S
C749 C745 1.393 1_554 S
C749 C748 1.391 . S
C750 H740 0.950 . S
C750 C751 1.425 . S
C750 C752 1.391 . S
C751 C750 1.425 . S
C751 C755 1.354 1_554 S
C752 H741 0.950 . S
C752 C750 1.391 . S
C752 C753 1.400 1_554 S
C753 C747 1.491 . S
C753 C752 1.400 1_556 S
C753 C754 1.398 . S
C754 H742 0.950 . S
C754 C753 1.398 . S
C754 C755 1.391 . S
C755 H743 0.950 . S
C755 C751 1.354 1_556 S
C755 C754 1.391 . S
H756 C764 0.950 . S
H757 C769 0.950 . S
H758 C766 0.950 . S
H759 C768 0.950 . S
H760 C770 0.950 . S
H761 C772 0.950 . S
H762 C774 0.950 . S
H763 C775 0.950 . S
C764 H756 0.950 . S
C764 C765 1.386 . S
C764 C766 1.391 . S
C765 C764 1.386 . S
C765 C769 1.393 . S
C766 H758 0.950 . S
C766 C764 1.391 . S
C766 C767 1.400 . S
C767 C766 1.400 . S
C767 C768 1.398 . S
C767 C773 1.491 . S
C768 H759 0.950 . S
C768 C767 1.398 . S
C768 C769 1.391 . S
C769 H757 0.950 . S
C769 C765 1.393 . S
C769 C768 1.391 . S
C770 H760 0.950 . S
C770 C771 1.386 . S
C770 C772 1.391 . S
C771 C770 1.386 . S
C771 C775 1.393 . S
C772 H761 0.950 . S
C772 C770 1.391 . S
C772 C773 1.400 . S
C773 C767 1.491 . S
C773 C772 1.400 . S
C773 C774 1.398 . S
C774 H762 0.950 . S
C774 C773 1.398 . S
C774 C775 1.391 . S
C775 H763 0.950 . S
C775 C771 1.393 . S
C775 C774 1.391 . S
H776 C784 0.950 . S
H777 C789 0.950 . S
H778 C786 0.950 . S
H779 C788 0.950 . S
H780 C790 0.950 . S
H781 C792 0.950 . S
H782 C794 0.950 . S
H783 C795 0.950 . S
C784 H776 0.950 . S
C784 C785 1.386 . S
C784 C786 1.391 . S
C785 C784 1.386 . S
C785 C789 1.393 . S
C786 H778 0.950 . S
C786 C784 1.391 . S
C786 C787 1.400 . S
C787 C786 1.400 . S
C787 C788 1.398 . S
C787 C793 1.491 . S
C788 H779 0.950 . S
C788 C787 1.398 . S
C788 C789 1.391 . S
C789 H777 0.950 . S
C789 C785 1.393 . S
C789 C788 1.391 . S
C790 H780 0.950 . S
C790 C791 1.386 . S
C790 C792 1.391 . S
C791 C790 1.386 . S
C791 C795 1.393 . S
C792 H781 0.950 . S
C792 C790 1.391 . S
C792 C793 1.400 . S
C793 C787 1.491 . S
C793 C792 1.400 . S
C793 C794 1.398 . S
C794 H782 0.950 . S
C794 C793 1.398 . S
C794 C795 1.391 . S
C795 H783 0.950 . S
C795 C791 1.393 . S
C795 C794 1.391 . S
H796 C804 0.950 . S
H797 C809 0.950 . S
H798 C806 0.950 . S
H799 C808 0.950 . S
H800 C810 0.950 . S
H801 C812 0.950 . S
H802 C814 0.950 . S
H803 C815 0.950 . S
C804 H796 0.950 . S
C804 C805 1.386 . S
C804 C806 1.391 . S
C805 C804 1.386 . S
C805 C809 1.393 . S
C806 H798 0.950 . S
C806 C804 1.391 . S
C806 C807 1.400 . S
C807 C806 1.400 . S
C807 C808 1.398 . S
C807 C813 1.491 . S
C808 H799 0.950 . S
C808 C807 1.398 . S
C808 C809 1.391 . S
C809 H797 0.950 . S
C809 C805 1.393 . S
C809 C808 1.391 . S
C810 H800 0.950 . S
C810 C811 1.386 . S
C810 C812 1.391 . S
C811 C810 1.386 . S
C811 C815 1.393 . S
C812 H801 0.950 . S
C812 C810 1.391 . S
C812 C813 1.400 . S
C813 C807 1.491 . S
C813 C812 1.400 . S
C813 C814 1.398 . S
C814 H802 0.950 . S
C814 C813 1.398 . S
C814 C815 1.391 . S
C815 H803 0.950 . S
C815 C811 1.393 . S
C815 C814 1.391 . S
H816 C824 0.950 . S
H817 C829 0.950 . S
H818 C826 0.950 . S
H819 C828 0.950 . S
H820 C830 0.950 . S
H821 C832 0.950 . S
H822 C834 0.950 . S
H823 C835 0.950 . S
C824 H816 0.950 . S
C824 C825 1.386 . S
C824 C826 1.391 . S
C825 C824 1.386 . S
C825 C829 1.393 . S
C826 H818 0.950 . S
C826 C824 1.391 . S
C826 C827 1.400 . S
C827 C826 1.400 . S
C827 C828 1.398 . S
C827 C833 1.491 1_655 S
C828 H819 0.950 . S
C828 C827 1.398 . S
C828 C829 1.391 . S
C829 H817 0.950 . S
C829 C825 1.393 . S
C829 C828 1.391 . S
C830 H820 0.950 . S
C830 C831 1.386 . S
C830 C832 1.391 . S
C831 C830 1.386 . S
C831 C835 1.393 . S
C832 H821 0.950 . S
C832 C830 1.391 . S
C832 C833 1.400 . S
C833 C827 1.491 1_455 S
C833 C832 1.400 . S
C833 C834 1.398 . S
C834 H822 0.950 . S
C834 C833 1.398 . S
C834 C835 1.391 . S
C835 H823 0.950 . S
C835 C831 1.393 . S
C835 C834 1.391 . S
H836 C844 0.950 . S
H837 C849 0.950 . S
H838 C846 0.950 . S
H839 C848 0.950 . S
H840 C850 0.950 . S
H841 C852 0.950 . S
H842 C854 0.950 . S
H843 C855 0.950 . S
C844 H836 0.950 . S
C844 C845 1.386 . S
C844 C846 1.391 . S
C845 C844 1.386 . S
C845 C849 1.393 . S
C846 H838 0.950 . S
C846 C844 1.391 . S
C846 C847 1.400 . S
C847 C846 1.400 . S
C847 C848 1.398 . S
C847 C853 1.491 . S
C848 H839 0.950 . S
C848 C847 1.398 . S
C848 C849 1.391 . S
C849 H837 0.950 . S
C849 C845 1.393 . S
C849 C848 1.391 . S
C850 H840 0.950 . S
C850 C851 1.386 . S
C850 C852 1.391 . S
C851 C850 1.386 . S
C851 C855 1.393 . S
C852 H841 0.950 . S
C852 C850 1.391 . S
C852 C853 1.400 . S
C853 C847 1.491 . S
C853 C852 1.400 . S
C853 C854 1.398 . S
C854 H842 0.950 . S
C854 C853 1.398 . S
C854 C855 1.391 . S
C855 H843 0.950 . S
C855 C851 1.393 . S
C855 C854 1.391 . S
H856 C864 0.950 . S
H857 C869 0.950 . S
H858 C866 0.950 . S
H859 C868 0.950 . S
H860 C870 0.950 . S
H861 C872 0.950 . S
H862 C874 0.961 . S
H863 C875 0.950 . S
C864 H856 0.950 . S
C864 C865 1.386 . S
C864 C866 1.391 . S
C865 C864 1.386 . S
C865 C869 1.393 . S
C866 H858 0.950 . S
C866 C864 1.391 . S
C866 C867 1.400 . S
C867 C866 1.400 . S
C867 C868 1.398 . S
C867 C873 1.491 . S
C868 H859 0.950 . S
C868 C867 1.398 . S
C868 C869 1.391 . S
C869 H857 0.950 . S
C869 C865 1.393 . S
C869 C868 1.391 . S
C870 H860 0.950 . S
C870 C871 1.386 . S
C870 C872 1.391 . S
C871 C870 1.386 . S
C871 C875 1.393 . S
C872 H861 0.950 . S
C872 C870 1.391 . S
C872 C873 1.400 1_565 S
C873 C867 1.491 . S
C873 C872 1.400 1_545 S
C873 C874 1.428 . S
C874 H862 0.961 . S
C874 C873 1.428 . S
C874 C875 1.351 1_545 S
C875 H863 0.950 . S
C875 C871 1.393 . S
C875 C874 1.351 1_565 S
H876 C884 0.950 . S
H877 C889 0.950 . S
H878 C886 0.950 . S
H879 C888 0.950 . S
H880 C890 0.950 . S
H881 C892 0.950 . S
H882 C894 0.950 . S
H883 C895 0.950 . S
C884 H876 0.950 . S
C884 C885 1.386 . S
C884 C886 1.391 . S
C885 C884 1.386 . S
C885 C889 1.393 . S
C886 H878 0.950 . S
C886 C884 1.391 . S
C886 C887 1.400 . S
C887 C886 1.400 . S
C887 C888 1.398 . S
C887 C893 1.491 . S
C888 H879 0.950 . S
C888 C887 1.398 . S
C888 C889 1.391 . S
C889 H877 0.950 . S
C889 C885 1.393 . S
C889 C888 1.391 . S
C890 H880 0.950 . S
C890 C891 1.386 . S
C890 C892 1.391 . S
C891 C890 1.386 . S
C891 C895 1.393 . S
C892 H881 0.950 . S
C892 C890 1.391 . S
C892 C893 1.400 . S
C893 C887 1.491 . S
C893 C892 1.400 . S
C893 C894 1.398 . S
C894 H882 0.950 . S
C894 C893 1.398 . S
C894 C895 1.391 . S
C895 H883 0.950 . S
C895 C891 1.393 . S
C895 C894 1.391 . S
H896 C904 0.950 . S
H897 C909 0.950 . S
H898 C906 0.950 . S
H899 C908 0.950 . S
H900 C910 0.950 . S
H901 C912 0.950 . S
H902 C914 0.950 . S
H903 C915 0.950 . S
C904 H896 0.950 . S
C904 C905 1.386 . S
C904 C906 1.391 . S
C905 C904 1.386 . S
C905 C909 1.393 . S
C906 H898 0.950 . S
C906 C904 1.391 . S
C906 C907 1.400 . S
C907 C906 1.400 . S
C907 C908 1.398 . S
C907 C913 1.491 . S
C908 H899 0.950 . S
C908 C907 1.398 . S
C908 C909 1.391 . S
C909 H897 0.950 . S
C909 C905 1.393 . S
C909 C908 1.391 . S
C910 H900 0.950 . S
C910 C911 1.386 . S
C910 C912 1.391 . S
C911 C910 1.386 . S
C911 C915 1.393 . S
C912 H901 0.950 . S
C912 C910 1.391 . S
C912 C913 1.400 . S
C913 C907 1.491 . S
C913 C912 1.400 . S
C913 C914 1.398 . S
C914 H902 0.950 . S
C914 C913 1.398 . S
C914 C915 1.391 . S
C915 H903 0.950 . S
C915 C911 1.393 . S
C915 C914 1.391 . S
H916 C924 0.950 . S
H917 C929 0.950 . S
H918 C926 0.950 . S
H919 C928 0.950 . S
H920 C930 0.950 . S
H921 C932 0.950 . S
H922 C934 0.950 . S
H923 C935 0.950 . S
C924 H916 0.950 . S
C924 C925 1.386 . S
C924 C926 1.391 . S
C925 C924 1.386 . S
C925 C929 1.393 . S
C926 H918 0.950 . S
C926 C924 1.391 . S
C926 C927 1.400 . S
C927 C926 1.400 . S
C927 C928 1.398 . S
C927 C933 1.491 . S
C928 H919 0.950 . S
C928 C927 1.398 . S
C928 C929 1.391 . S
C929 H917 0.950 . S
C929 C925 1.393 . S
C929 C928 1.391 . S
C930 H920 0.950 . S
C930 C931 1.386 . S
C930 C932 1.391 . S
C931 C930 1.386 . S
C931 C935 1.393 . S
C932 H921 0.950 . S
C932 C930 1.391 . S
C932 C933 1.400 . S
C933 C927 1.491 . S
C933 C932 1.400 . S
C933 C934 1.398 . S
C934 H922 0.950 . S
C934 C933 1.398 . S
C934 C935 1.391 . S
C935 H923 0.950 . S
C935 C931 1.393 . S
C935 C934 1.391 . S
H936 C944 0.950 . S
H937 C949 0.950 . S
H938 C946 0.950 . S
H939 C948 0.950 . S
H940 C950 0.950 . S
H941 C952 0.950 . S
H942 C954 0.950 . S
H943 C955 0.950 . S
C944 H936 0.950 . S
C944 C945 1.386 . S
C944 C946 1.391 . S
C945 C944 1.386 . S
C945 C949 1.393 . S
C946 H938 0.950 . S
C946 C944 1.391 . S
C946 C947 1.400 . S
C947 C946 1.400 . S
C947 C948 1.398 . S
C947 C953 1.491 . S
C948 H939 0.950 . S
C948 C947 1.398 . S
C948 C949 1.391 . S
C949 H937 0.950 . S
C949 C945 1.393 . S
C949 C948 1.391 . S
C950 H940 0.950 . S
C950 C951 1.386 . S
C950 C952 1.391 . S
C951 C950 1.386 . S
C951 C955 1.393 . S
C952 H941 0.950 . S
C952 C950 1.391 . S
C952 C953 1.400 . S
C953 C947 1.491 . S
C953 C952 1.400 . S
C953 C954 1.398 . S
C954 H942 0.950 . S
C954 C953 1.398 . S
C954 C955 1.391 . S
C955 H943 0.950 . S
C955 C951 1.393 . S
C955 C954 1.391 . S
H956 C964 0.950 . S
H957 C969 0.950 . S
H958 C966 0.950 . S
H959 C968 0.950 . S
H960 C970 0.950 . S
H961 C972 0.950 . S
H962 C974 0.950 . S
H963 C975 0.950 . S
C964 H956 0.950 . S
C964 C965 1.386 . S
C964 C966 1.391 . S
C965 C964 1.386 . S
C965 C969 1.393 . S
C966 H958 0.950 . S
C966 C964 1.391 . S
C966 C967 1.400 . S
C967 C966 1.400 . S
C967 C968 1.398 . S
C967 C973 1.491 . S
C968 H959 0.950 . S
C968 C967 1.398 . S
C968 C969 1.391 . S
C969 H957 0.950 . S
C969 C965 1.393 . S
C969 C968 1.391 . S
C970 H960 0.950 . S
C970 C971 1.386 . S
C970 C972 1.391 . S
C971 C970 1.386 . S
C971 C975 1.393 . S
C972 H961 0.950 . S
C972 C970 1.391 . S
C972 C973 1.400 . S
C973 C967 1.491 . S
C973 C972 1.400 . S
C973 C974 1.398 . S
C974 H962 0.950 . S
C974 C973 1.398 . S
C974 C975 1.391 . S
C975 H963 0.950 . S
C975 C971 1.393 . S
C975 C974 1.391 . S
H976 C984 0.950 . S
H977 C989 0.950 . S
H978 C986 0.950 . S
H979 C988 0.950 . S
H980 C990 0.950 . S
H981 C992 0.950 . S
H982 C994 0.950 . S
H983 C995 0.950 . S
C984 H976 0.950 . S
C984 C985 1.386 . S
C984 C986 1.391 . S
C985 C984 1.386 . S
C985 C989 1.393 . S
C986 H978 0.950 . S
C986 C984 1.391 . S
C986 C987 1.400 . S
C987 C986 1.400 . S
C987 C988 1.398 . S
C987 C993 1.491 . S
C988 H979 0.950 . S
C988 C987 1.398 . S
C988 C989 1.391 . S
C989 H977 0.950 . S
C989 C985 1.393 . S
C989 C988 1.391 . S
C990 H980 0.950 . S
C990 C991 1.386 . S
C990 C992 1.391 . S
C991 C990 1.386 . S
C991 C995 1.393 . S
C992 H981 0.950 . S
C992 C990 1.391 . S
C992 C993 1.400 . S
C993 C987 1.491 . S
C993 C992 1.400 . S
C993 C994 1.398 . S
C994 H982 0.950 . S
C994 C993 1.398 . S
C994 C995 1.391 . S
C995 H983 0.950 . S
C995 C991 1.393 . S
C995 C994 1.391 . S
H996 C1004 0.950 . S
H997 C1009 0.950 . S
H998 C1006 0.950 . S
H999 C1008 0.950 . S
H1000 C1010 0.950 . S
H1001 C1012 0.950 . S
H1002 C1014 0.950 . S
H1003 C1015 0.950 . S
C1004 H996 0.950 . S
C1004 C1005 1.386 . S
C1004 C1006 1.391 1_545 S
C1005 C1004 1.386 . S
C1005 C1009 1.393 . S
C1006 H998 0.950 . S
C1006 C1004 1.391 1_565 S
C1006 C1007 1.400 . S
C1007 C1006 1.400 . S
C1007 C1008 1.398 . S
C1007 C1013 1.491 . S
C1008 H999 0.950 . S
C1008 C1007 1.398 . S
C1008 C1009 1.391 1_565 S
C1009 H997 0.950 . S
C1009 C1005 1.393 . S
C1009 C1008 1.391 1_545 S
C1010 H1000 0.950 . S
C1010 C1011 1.386 . S
C1010 C1012 1.391 . S
C1011 C1010 1.386 . S
C1011 C1015 1.393 . S
C1012 H1001 0.950 . S
C1012 C1010 1.391 . S
C1012 C1013 1.400 . S
C1013 C1007 1.491 . S
C1013 C1012 1.400 . S
C1013 C1014 1.398 . S
C1014 H1002 0.950 . S
C1014 C1013 1.398 . S
C1014 C1015 1.391 . S
C1015 H1003 0.950 . S
C1015 C1011 1.393 . S
C1015 C1014 1.391 . S
H1016 C1024 0.950 . S
H1017 C1029 0.936 1_655 S
H1018 C1026 0.950 . S
H1019 C1028 0.950 . S
H1020 C1030 0.950 . S
H1021 C1032 0.950 . S
H1022 C1034 0.950 . S
H1023 C1035 0.950 . S
C1024 H1016 0.950 . S
C1024 C1025 1.386 . S
C1024 C1026 1.391 1_655 S
C1025 C1024 1.386 . S
C1025 C1029 1.393 1_655 S
C1026 H1018 0.950 . S
C1026 C1024 1.391 1_455 S
C1026 C1027 1.400 . S
C1027 C1026 1.400 . S
C1027 C1028 1.398 . S
C1027 C1033 1.491 . S
C1028 H1019 0.950 . S
C1028 C1027 1.398 . S
C1028 C1029 1.391 . S
C1029 H1017 0.936 1_455 S
C1029 C1025 1.393 1_455 S
C1029 C1028 1.391 . S
C1030 H1020 0.950 . S
C1030 C1031 1.386 . S
C1030 C1032 1.391 . S
C1031 C1030 1.386 . S
C1031 C1035 1.393 . S
C1032 H1021 0.950 . S
C1032 C1030 1.391 . S
C1032 C1033 1.400 . S
C1033 C1027 1.491 . S
C1033 C1032 1.400 . S
C1033 C1034 1.398 . S
C1034 H1022 0.950 . S
C1034 C1033 1.398 . S
C1034 C1035 1.391 . S
C1035 H1023 0.950 . S
C1035 C1031 1.393 . S
C1035 C1034 1.391 . S
H1036 C1044 0.950 . S
H1037 C1049 0.950 . S
H1038 C1046 0.950 . S
H1039 C1048 0.950 . S
H1040 C1050 0.950 . S
H1041 C1052 0.950 . S
H1042 C1054 0.950 . S
H1043 C1055 0.950 . S
C1044 H1036 0.950 . S
C1044 C1045 1.386 . S
C1044 C1046 1.391 . S
C1045 C1044 1.386 . S
C1045 C1049 1.393 . S
C1046 H1038 0.950 . S
C1046 C1044 1.391 . S
C1046 C1047 1.400 . S
C1047 C1046 1.400 . S
C1047 C1048 1.398 . S
C1047 C1053 1.491 . S
C1048 H1039 0.950 . S
C1048 C1047 1.398 . S
C1048 C1049 1.391 . S
C1049 H1037 0.950 . S
C1049 C1045 1.393 . S
C1049 C1048 1.391 . S
C1050 H1040 0.950 . S
C1050 C1051 1.386 . S
C1050 C1052 1.391 . S
C1051 C1050 1.386 . S
C1051 C1055 1.393 . S
C1052 H1041 0.950 . S
C1052 C1050 1.391 . S
C1052 C1053 1.400 . S
C1053 C1047 1.491 . S
C1053 C1052 1.400 . S
C1053 C1054 1.398 . S
C1054 H1042 0.950 . S
C1054 C1053 1.398 . S
C1054 C1055 1.391 . S
C1055 H1043 0.950 . S
C1055 C1051 1.393 . S
C1055 C1054 1.391 . S
H1056 C1064 0.950 . S
H1057 C1069 0.950 . S
H1058 C1066 0.950 . S
H1059 C1068 0.950 . S
H1060 C1070 0.950 . S
H1061 C1072 0.950 . S
H1062 C1074 0.950 . S
H1063 C1075 0.950 . S
C1064 H1056 0.950 . S
C1064 C1065 1.386 . S
C1064 C1066 1.391 . S
C1065 C1064 1.386 . S
C1065 C1069 1.393 . S
C1066 H1058 0.950 . S
C1066 C1064 1.391 . S
C1066 C1067 1.400 . S
C1067 C1066 1.400 . S
C1067 C1068 1.398 . S
C1067 C1073 1.491 . S
C1068 H1059 0.950 . S
C1068 C1067 1.398 . S
C1068 C1069 1.391 . S
C1069 H1057 0.950 . S
C1069 C1065 1.393 . S
C1069 C1068 1.391 . S
C1070 H1060 0.950 . S
C1070 C1071 1.386 . S
C1070 C1072 1.391 . S
C1071 C1070 1.386 . S
C1071 C1075 1.393 . S
C1072 H1061 0.950 . S
C1072 C1070 1.391 . S
C1072 C1073 1.400 . S
C1073 C1067 1.491 . S
C1073 C1072 1.400 . S
C1073 C1074 1.398 . S
C1074 H1062 0.950 . S
C1074 C1073 1.398 . S
C1074 C1075 1.391 . S
C1075 H1063 0.950 . S
C1075 C1071 1.393 . S
C1075 C1074 1.391 . S
H1076 C1084 0.950 . S
H1077 C1089 0.950 . S
H1078 C1086 0.950 . S
H1079 C1088 0.950 . S
H1080 C1090 0.950 . S
H1081 C1092 0.950 . S
H1082 C1094 0.950 . S
H1083 C1095 0.950 . S
C1084 H1076 0.950 . S
C1084 C1085 1.386 . S
C1084 C1086 1.391 . S
C1085 C1084 1.386 . S
C1085 C1089 1.393 . S
C1086 H1078 0.950 . S
C1086 C1084 1.391 . S
C1086 C1087 1.400 . S
C1087 C1086 1.400 . S
C1087 C1088 1.398 . S
C1087 C1093 1.491 . S
C1088 H1079 0.950 . S
C1088 C1087 1.398 . S
C1088 C1089 1.391 . S
C1089 H1077 0.950 . S
C1089 C1085 1.393 . S
C1089 C1088 1.391 . S
C1090 H1080 0.950 . S
C1090 C1091 1.386 . S
C1090 C1092 1.391 . S
C1091 C1090 1.386 . S
C1091 C1095 1.393 . S
C1092 H1081 0.950 . S
C1092 C1090 1.391 . S
C1092 C1093 1.400 . S
C1093 C1087 1.491 . S
C1093 C1092 1.400 . S
C1093 C1094 1.398 . S
C1094 H1082 0.950 . S
C1094 C1093 1.398 . S
C1094 C1095 1.391 . S
C1095 H1083 0.950 . S
C1095 C1091 1.393 . S
C1095 C1094 1.391 . S
H1096 C1104 0.950 . S
H1097 C1109 0.950 . S
H1098 C1106 0.950 . S
H1099 C1108 0.950 . S
H1100 C1110 0.950 . S
H1101 C1112 0.950 . S
H1102 C1114 0.950 . S
H1103 C1115 0.950 . S
C1104 H1096 0.950 . S
C1104 C1105 1.386 . S
C1104 C1106 1.391 . S
C1105 C1104 1.386 . S
C1105 C1109 1.393 . S
C1106 H1098 0.950 . S
C1106 C1104 1.391 . S
C1106 C1107 1.400 . S
C1107 C1106 1.400 . S
C1107 C1108 1.398 . S
C1107 C1113 1.491 . S
C1108 H1099 0.950 . S
C1108 C1107 1.398 . S
C1108 C1109 1.391 . S
C1109 H1097 0.950 . S
C1109 C1105 1.393 . S
C1109 C1108 1.391 . S
C1110 H1100 0.950 . S
C1110 C1111 1.386 . S
C1110 C1112 1.391 . S
C1111 C1110 1.386 . S
C1111 C1115 1.393 . S
C1112 H1101 0.950 . S
C1112 C1110 1.391 . S
C1112 C1113 1.400 . S
C1113 C1107 1.491 . S
C1113 C1112 1.400 . S
C1113 C1114 1.398 . S
C1114 H1102 0.950 . S
C1114 C1113 1.398 . S
C1114 C1115 1.391 . S
C1115 H1103 0.950 . S
C1115 C1111 1.393 . S
C1115 C1114 1.391 . S
H1116 C1124 0.950 . S
H1117 C1129 0.950 . S
H1118 C1126 0.950 . S
H1119 C1128 0.950 . S
H1120 C1130 0.950 . S
H1121 C1132 0.950 . S
H1122 C1134 0.950 . S
H1123 C1135 0.950 . S
C1124 H1116 0.950 . S
C1124 C1125 1.386 . S
C1124 C1126 1.391 . S
C1125 C1124 1.386 . S
C1125 C1129 1.393 . S
C1126 H1118 0.950 . S
C1126 C1124 1.391 . S
C1126 C1127 1.400 . S
C1127 C1126 1.400 . S
C1127 C1128 1.398 . S
C1127 C1133 1.491 1_565 S
C1128 H1119 0.950 . S
C1128 C1127 1.398 . S
C1128 C1129 1.391 . S
C1129 H1117 0.950 . S
C1129 C1125 1.393 . S
C1129 C1128 1.391 . S
C1130 H1120 0.950 . S
C1130 C1131 1.386 . S
C1130 C1132 1.391 . S
C1131 C1130 1.386 . S
C1131 C1135 1.393 . S
C1132 H1121 0.950 . S
C1132 C1130 1.391 . S
C1132 C1133 1.400 . S
C1133 C1127 1.491 1_545 S
C1133 C1132 1.400 . S
C1133 C1134 1.398 . S
C1134 H1122 0.950 . S
C1134 C1133 1.398 . S
C1134 C1135 1.391 . S
C1135 H1123 0.950 . S
C1135 C1131 1.393 . S
C1135 C1134 1.391 . S
H1136 C1144 0.950 . S
H1137 C1149 0.950 . S
H1138 C1146 0.950 . S
H1139 C1148 0.950 . S
H1140 C1150 0.950 . S
H1141 C1152 0.984 . S
H1142 C1154 0.950 . S
H1143 C1155 0.950 . S
C1144 H1136 0.950 . S
C1144 C1145 1.386 . S
C1144 C1146 1.391 . S
C1145 C1144 1.386 . S
C1145 C1149 1.393 . S
C1146 H1138 0.950 . S
C1146 C1144 1.391 . S
C1146 C1147 1.400 . S
C1147 C1146 1.400 . S
C1147 C1148 1.398 . S
C1147 C1153 1.491 1_455 S
C1148 H1139 0.950 . S
C1148 C1147 1.398 . S
C1148 C1149 1.391 . S
C1149 H1137 0.950 . S
C1149 C1145 1.393 . S
C1149 C1148 1.391 . S
C1150 H1140 0.950 . S
C1150 C1151 1.386 . S
C1150 C1152 1.391 . S
C1151 C1150 1.386 . S
C1151 C1155 1.393 . S
C1152 H1141 0.984 . S
C1152 C1150 1.391 . S
C1152 C1153 1.400 . S
C1153 C1147 1.491 1_655 S
C1153 C1152 1.400 . S
C1153 C1154 1.398 . S
C1154 H1142 0.950 . S
C1154 C1153 1.398 . S
C1154 C1155 1.391 . S
C1155 H1143 0.950 . S
C1155 C1151 1.393 . S
C1155 C1154 1.391 . S
H1156 C1164 0.950 . S
H1157 C1169 0.950 . S
H1158 C1166 0.950 . S
H1159 C1168 0.950 . S
H1160 C1170 0.950 . S
H1161 C1172 0.950 . S
H1162 C1174 0.950 . S
H1163 C1175 0.950 . S
C1164 H1156 0.950 . S
C1164 C1165 1.386 . S
C1164 C1166 1.391 . S
C1165 C1164 1.386 . S
C1165 C1169 1.393 . S
C1166 H1158 0.950 . S
C1166 C1164 1.391 . S
C1166 C1167 1.400 . S
C1167 C1166 1.400 . S
C1167 C1168 1.398 . S
C1167 C1173 1.491 . S
C1168 H1159 0.950 . S
C1168 C1167 1.398 . S
C1168 C1169 1.391 . S
C1169 H1157 0.950 . S
C1169 C1165 1.393 . S
C1169 C1168 1.391 . S
C1170 H1160 0.950 . S
C1170 C1171 1.386 . S
C1170 C1172 1.391 . S
C1171 C1170 1.386 . S
C1171 C1175 1.393 . S
C1172 H1161 0.950 . S
C1172 C1170 1.391 . S
C1172 C1173 1.400 . S
C1173 C1167 1.491 . S
C1173 C1172 1.400 . S
C1173 C1174 1.398 . S
C1174 H1162 0.950 . S
C1174 C1173 1.398 . S
C1174 C1175 1.391 . S
C1175 H1163 0.950 . S
C1175 C1171 1.393 . S
C1175 C1174 1.391 . S
H1176 C1184 0.950 . S
H1177 C1189 0.950 . S
H1178 C1186 0.950 . S
H1179 C1188 0.950 . S
H1180 C1190 0.950 . S
H1181 C1192 0.950 . S
H1182 C1194 0.950 . S
H1183 C1195 0.950 . S
C1184 H1176 0.950 . S
C1184 C1185 1.386 . S
C1184 C1186 1.391 1_455 S
C1185 C1184 1.386 . S
C1185 C1189 1.393 . S
C1186 H1178 0.950 . S
C1186 C1184 1.391 1_655 S
C1186 C1187 1.400 . S
C1187 C1186 1.400 . S
C1187 C1188 1.398 . S
C1187 C1193 1.491 . S
C1188 H1179 0.950 . S
C1188 C1187 1.398 . S
C1188 C1189 1.391 1_655 S
C1189 H1177 0.950 . S
C1189 C1185 1.393 . S
C1189 C1188 1.391 1_455 S
C1190 H1180 0.950 . S
C1190 C1191 1.386 . S
C1190 C1192 1.391 . S
C1191 C1190 1.386 . S
C1191 C1195 1.393 . S
C1192 H1181 0.950 . S
C1192 C1190 1.391 . S
C1192 C1193 1.400 . S
C1193 C1187 1.491 . S
C1193 C1192 1.400 . S
C1193 C1194 1.398 . S
C1194 H1182 0.950 . S
C1194 C1193 1.398 . S
C1194 C1195 1.391 . S
C1195 H1183 0.950 . S
C1195 C1191 1.393 . S
C1195 C1194 1.391 . S
H1196 C1204 0.950 . S
H1197 C1209 0.950 . S
H1198 C1206 0.950 . S
H1199 C1208 0.950 . S
H1200 C1210 0.950 . S
H1201 C1212 0.950 . S
H1202 C1214 0.950 . S
H1203 C1215 0.950 . S
C1204 H1196 0.950 . S
C1204 C1205 1.386 . S
C1204 C1206 1.391 . S
C1205 C1204 1.386 . S
C1205 C1209 1.393 . S
C1206 H1198 0.950 . S
C1206 C1204 1.391 . S
C1206 C1207 1.400 . S
C1207 C1206 1.400 . S
C1207 C1208 1.398 . S
C1207 C1213 1.491 . S
C1208 H1199 0.950 . S
C1208 C1207 1.398 . S
C1208 C1209 1.391 . S
C1209 H1197 0.950 . S
C1209 C1205 1.393 . S
C1209 C1208 1.391 . S
C1210 H1200 0.950 . S
C1210 C1211 1.386 . S
C1210 C1212 1.391 . S
C1211 C1210 1.386 . S
C1211 C1215 1.393 . S
C1212 H1201 0.950 . S
C1212 C1210 1.391 . S
C1212 C1213 1.400 . S
C1213 C1207 1.491 . S
C1213 C1212 1.400 . S
C1213 C1214 1.398 . S
C1214 H1202 0.950 . S
C1214 C1213 1.398 . S
C1214 C1215 1.391 . S
C1215 H1203 0.950 . S
C1215 C1211 1.393 . S
C1215 C1214 1.391 . S
H1216 C1224 0.950 . S
H1217 C1229 0.950 . S
H1218 C1226 0.950 . S
H1219 C1228 0.950 . S
H1220 C1230 0.950 . S
H1221 C1232 0.950 . S
H1222 C1234 0.950 . S
H1223 C1235 0.950 . S
C1224 H1216 0.950 . S
C1224 C1225 1.386 . S
C1224 C1226 1.391 1_565 S
C1225 C1224 1.386 . S
C1225 C1229 1.393 . S
C1226 H1218 0.950 . S
C1226 C1224 1.391 1_545 S
C1226 C1227 1.400 . S
C1227 C1226 1.400 . S
C1227 C1228 1.398 . S
C1227 C1233 1.491 . S
C1228 H1219 0.950 . S
C1228 C1227 1.398 . S
C1228 C1229 1.391 1_545 S
C1229 H1217 0.950 . S
C1229 C1225 1.393 . S
C1229 C1228 1.391 1_565 S
C1230 H1220 0.950 . S
C1230 C1231 1.386 . S
C1230 C1232 1.391 . S
C1231 C1230 1.386 . S
C1231 C1235 1.393 . S
C1232 H1221 0.950 . S
C1232 C1230 1.391 . S
C1232 C1233 1.400 . S
C1233 C1227 1.491 . S
C1233 C1232 1.400 . S
C1233 C1234 1.398 . S
C1234 H1222 0.950 . S
C1234 C1233 1.398 . S
C1234 C1235 1.391 . S
C1235 H1223 0.950 . S
C1235 C1231 1.393 . S
C1235 C1234 1.391 . S
H1236 C1244 0.950 . S
H1237 C1249 0.950 . S
H1238 C1246 0.950 . S
H1239 C1248 0.950 . S
H1240 C1250 0.950 . S
H1241 C1252 0.950 . S
H1242 C1254 0.950 . S
H1243 C1255 0.950 . S
C1244 H1236 0.950 . S
C1244 C1245 1.386 . S
C1244 C1246 1.391 . S
C1245 C1244 1.386 . S
C1245 C1249 1.393 . S
C1246 H1238 0.950 . S
C1246 C1244 1.391 . S
C1246 C1247 1.400 . S
C1247 C1246 1.400 . S
C1247 C1248 1.398 . S
C1247 C1253 1.491 . S
C1248 H1239 0.950 . S
C1248 C1247 1.398 . S
C1248 C1249 1.391 . S
C1249 H1237 0.950 . S
C1249 C1245 1.393 . S
C1249 C1248 1.391 . S
C1250 H1240 0.950 . S
C1250 C1251 1.386 . S
C1250 C1252 1.391 . S
C1251 C1250 1.386 . S
C1251 C1255 1.393 . S
C1252 H1241 0.950 . S
C1252 C1250 1.391 . S
C1252 C1253 1.400 . S
C1253 C1247 1.491 . S
C1253 C1252 1.400 . S
C1253 C1254 1.398 . S
C1254 H1242 0.950 . S
C1254 C1253 1.398 . S
C1254 C1255 1.391 . S
C1255 H1243 0.950 . S
C1255 C1251 1.393 . S
C1255 C1254 1.391 . S
H1256 C1264 0.950 . S
H1257 C1269 0.950 . S
H1258 C1266 0.950 . S
H1259 C1268 0.950 . S
H1260 C1270 0.950 . S
H1261 C1272 0.950 . S
H1262 C1274 0.950 . S
H1263 C1275 0.950 . S
C1264 H1256 0.950 . S
C1264 C1265 1.386 . S
C1264 C1266 1.391 . S
C1265 C1264 1.386 . S
C1265 C1269 1.393 . S
C1266 H1258 0.950 . S
C1266 C1264 1.391 . S
C1266 C1267 1.400 . S
C1267 C1266 1.400 . S
C1267 C1268 1.398 . S
C1267 C1273 1.491 . S
C1268 H1259 0.950 . S
C1268 C1267 1.398 . S
C1268 C1269 1.391 . S
C1269 H1257 0.950 . S
C1269 C1265 1.393 . S
C1269 C1268 1.391 . S
C1270 H1260 0.950 . S
C1270 C1271 1.386 . S
C1270 C1272 1.391 . S
C1271 C1270 1.386 . S
C1271 C1275 1.393 . S
C1272 H1261 0.950 . S
C1272 C1270 1.391 . S
C1272 C1273 1.400 . S
C1273 C1267 1.491 . S
C1273 C1272 1.400 . S
C1273 C1274 1.398 . S
C1274 H1262 0.950 . S
C1274 C1273 1.398 . S
C1274 C1275 1.391 . S
C1275 H1263 0.950 . S
C1275 C1271 1.393 . S
C1275 C1274 1.391 . S
H1276 C1284 0.950 . S
H1277 C1289 0.950 . S
H1278 C1286 0.950 . S
H1279 C1288 0.950 . S
H1280 C1290 0.950 . S
H1281 C1292 0.950 . S
H1282 C1294 0.950 . S
H1283 C1295 0.950 . S
C1284 H1276 0.950 . S
C1284 C1285 1.386 . S
C1284 C1286 1.391 . S
C1285 C1284 1.386 . S
C1285 C1289 1.393 . S
C1286 H1278 0.950 . S
C1286 C1284 1.391 . S
C1286 C1287 1.400 . S
C1287 C1286 1.400 . S
C1287 C1288 1.398 . S
C1287 C1293 1.491 . S
C1288 H1279 0.950 . S
C1288 C1287 1.398 . S
C1288 C1289 1.391 . S
C1289 H1277 0.950 . S
C1289 C1285 1.393 . S
C1289 C1288 1.391 . S
C1290 H1280 0.950 . S
C1290 C1291 1.386 . S
C1290 C1292 1.391 . S
C1291 C1290 1.386 . S
C1291 C1295 1.393 . S
C1292 H1281 0.950 . S
C1292 C1290 1.391 . S
C1292 C1293 1.400 . S
C1293 C1287 1.491 . S
C1293 C1292 1.400 . S
C1293 C1294 1.398 . S
C1294 H1282 0.950 . S
C1294 C1293 1.398 . S
C1294 C1295 1.391 . S
C1295 H1283 0.950 . S
C1295 C1291 1.393 . S
C1295 C1294 1.391 . S
H1296 C1304 0.950 . S
H1297 C1309 0.950 . S
H1298 C1306 0.950 . S
H1299 C1308 0.950 . S
H1300 C1310 0.950 . S
H1301 C1312 0.950 . S
H1302 C1314 0.950 . S
H1303 C1315 0.950 . S
C1304 H1296 0.950 . S
C1304 C1305 1.386 . S
C1304 C1306 1.391 . S
C1305 C1304 1.386 . S
C1305 C1309 1.393 . S
C1306 H1298 0.950 . S
C1306 C1304 1.391 . S
C1306 C1307 1.400 . S
C1307 C1306 1.400 . S
C1307 C1308 1.398 . S
C1307 C1313 1.491 . S
C1308 H1299 0.950 . S
C1308 C1307 1.398 . S
C1308 C1309 1.391 . S
C1309 H1297 0.950 . S
C1309 C1305 1.393 . S
C1309 C1308 1.391 . S
C1310 H1300 0.950 . S
C1310 C1311 1.386 . S
C1310 C1312 1.391 . S
C1311 C1310 1.386 . S
C1311 C1315 1.393 . S
C1312 H1301 0.950 . S
C1312 C1310 1.391 . S
C1312 C1313 1.400 . S
C1313 C1307 1.491 . S
C1313 C1312 1.400 . S
C1313 C1314 1.398 . S
C1314 H1302 0.950 . S
C1314 C1313 1.398 . S
C1314 C1315 1.391 . S
C1315 H1303 0.950 . S
C1315 C1311 1.393 . S
C1315 C1314 1.391 . S
H1316 C1324 0.950 . S
H1317 C1329 0.950 . S
H1318 C1326 0.950 . S
H1319 C1328 0.950 . S
H1320 C1330 0.950 . S
H1321 C1332 0.950 . S
H1322 C1334 0.950 . S
H1323 C1335 0.950 . S
C1324 H1316 0.950 . S
C1324 C1325 1.386 . S
C1324 C1326 1.391 . S
C1325 C1324 1.386 . S
C1325 C1329 1.393 . S
C1326 H1318 0.950 . S
C1326 C1324 1.391 . S
C1326 C1327 1.400 . S
C1327 C1326 1.400 . S
C1327 C1328 1.398 . S
C1327 C1333 1.491 . S
C1328 H1319 0.950 . S
C1328 C1327 1.398 . S
C1328 C1329 1.391 . S
C1329 H1317 0.950 . S
C1329 C1325 1.393 . S
C1329 C1328 1.391 . S
C1330 H1320 0.950 . S
C1330 C1331 1.386 . S
C1330 C1332 1.391 . S
C1331 C1330 1.386 . S
C1331 C1335 1.393 . S
C1332 H1321 0.950 . S
C1332 C1330 1.391 . S
C1332 C1333 1.400 . S
C1333 C1327 1.491 . S
C1333 C1332 1.400 . S
C1333 C1334 1.398 . S
C1334 H1322 0.950 . S
C1334 C1333 1.398 . S
C1334 C1335 1.391 . S
C1335 H1323 0.950 . S
C1335 C1331 1.393 . S
C1335 C1334 1.391 . S
H1336 C1344 0.950 . S
H1337 C1349 0.950 . S
H1338 C1346 0.950 . S
H1339 C1348 0.950 . S
H1340 C1350 0.950 . S
H1341 C1352 0.950 . S
H1342 C1354 0.950 . S
H1343 C1355 0.950 . S
C1344 H1336 0.950 . S
C1344 C1345 1.386 . S
C1344 C1346 1.391 . S
C1345 C1344 1.386 . S
C1345 C1349 1.393 . S
C1346 H1338 0.950 . S
C1346 C1344 1.391 . S
C1346 C1347 1.400 . S
C1347 C1346 1.400 . S
C1347 C1348 1.398 . S
C1347 C1353 1.491 . S
C1348 H1339 0.950 . S
C1348 C1347 1.398 . S
C1348 C1349 1.391 . S
C1349 H1337 0.950 . S
C1349 C1345 1.393 . S
C1349 C1348 1.391 . S
C1350 H1340 0.950 . S
C1350 C1351 1.386 . S
C1350 C1352 1.391 . S
C1351 C1350 1.386 . S
C1351 C1355 1.393 . S
C1352 H1341 0.950 . S
C1352 C1350 1.391 . S
C1352 C1353 1.400 . S
C1353 C1347 1.491 . S
C1353 C1352 1.400 . S
C1353 C1354 1.398 . S
C1354 H1342 0.950 . S
C1354 C1353 1.398 . S
C1354 C1355 1.391 . S
C1355 H1343 0.950 . S
C1355 C1351 1.393 . S
C1355 C1354 1.391 . S
H1356 C1364 0.950 . S
H1357 C1369 0.950 . S
H1358 C1366 0.950 . S
H1359 C1368 0.950 . S
H1360 C1370 0.950 . S
H1361 C1372 0.950 . S
H1362 C1374 0.950 . S
H1363 C1375 0.950 . S
C1364 H1356 0.950 . S
C1364 C1365 1.386 . S
C1364 C1366 1.391 . S
C1365 C1364 1.386 . S
C1365 C1369 1.393 . S
C1366 H1358 0.950 . S
C1366 C1364 1.391 . S
C1366 C1367 1.400 . S
C1367 C1366 1.400 . S
C1367 C1368 1.398 . S
C1367 C1373 1.491 . S
C1368 H1359 0.950 . S
C1368 C1367 1.398 . S
C1368 C1369 1.391 . S
C1369 H1357 0.950 . S
C1369 C1365 1.393 . S
C1369 C1368 1.391 . S
C1370 H1360 0.950 . S
C1370 C1371 1.386 . S
C1370 C1372 1.391 . S
C1371 C1370 1.386 . S
C1371 C1375 1.393 . S
C1372 H1361 0.950 . S
C1372 C1370 1.391 . S
C1372 C1373 1.400 . S
C1373 C1367 1.491 . S
C1373 C1372 1.400 . S
C1373 C1374 1.398 . S
C1374 H1362 0.950 . S
C1374 C1373 1.398 . S
C1374 C1375 1.391 . S
C1375 H1363 0.950 . S
C1375 C1371 1.393 . S
C1375 C1374 1.391 . S
H1376 C1384 0.950 . S
H1377 C1389 0.950 . S
H1378 C1386 0.950 . S
H1379 C1388 0.950 . S
H1380 C1390 0.950 . S
H1381 C1392 0.950 . S
H1382 C1394 0.950 . S
H1383 C1395 0.950 . S
C1384 H1376 0.950 . S
C1384 C1385 1.386 . S
C1384 C1386 1.391 . S
C1385 C1384 1.386 . S
C1385 C1389 1.393 . S
C1386 H1378 0.950 . S
C1386 C1384 1.391 . S
C1386 C1387 1.400 . S
C1387 C1386 1.400 . S
C1387 C1388 1.398 . S
C1387 C1393 1.491 . S
C1388 H1379 0.950 . S
C1388 C1387 1.398 . S
C1388 C1389 1.391 . S
C1389 H1377 0.950 . S
C1389 C1385 1.393 . S
C1389 C1388 1.391 . S
C1390 H1380 0.950 . S
C1390 C1391 1.386 . S
C1390 C1392 1.391 . S
C1391 C1390 1.386 . S
C1391 C1395 1.393 . S
C1392 H1381 0.950 . S
C1392 C1390 1.391 . S
C1392 C1393 1.400 . S
C1393 C1387 1.491 . S
C1393 C1392 1.400 . S
C1393 C1394 1.398 . S
C1394 H1382 0.950 . S
C1394 C1393 1.398 . S
C1394 C1395 1.391 . S
C1395 H1383 0.950 . S
C1395 C1391 1.393 . S
C1395 C1394 1.391 . S
H1396 C1404 0.950 . S
H1397 C1409 0.950 . S
H1398 C1406 0.950 . S
H1399 C1408 0.950 . S
H1400 C1410 0.950 . S
H1401 C1412 0.950 . S
H1402 C1414 0.950 . S
H1403 C1415 0.950 . S
C1404 H1396 0.950 . S
C1404 C1405 1.386 . S
C1404 C1406 1.391 . S
C1405 C1404 1.386 . S
C1405 C1409 1.393 . S
C1406 H1398 0.950 . S
C1406 C1404 1.391 . S
C1406 C1407 1.400 . S
C1407 C1406 1.400 . S
C1407 C1408 1.398 . S
C1407 C1413 1.491 . S
C1408 H1399 0.950 . S
C1408 C1407 1.398 . S
C1408 C1409 1.391 . S
C1409 H1397 0.950 . S
C1409 C1405 1.393 . S
C1409 C1408 1.391 . S
C1410 H1400 0.950 . S
C1410 C1411 1.386 . S
C1410 C1412 1.391 . S
C1411 C1410 1.386 . S
C1411 C1415 1.393 . S
C1412 H1401 0.950 . S
C1412 C1410 1.391 . S
C1412 C1413 1.400 . S
C1413 C1407 1.491 . S
C1413 C1412 1.400 . S
C1413 C1414 1.398 . S
C1414 H1402 0.950 . S
C1414 C1413 1.398 . S
C1414 C1415 1.391 . S
C1415 H1403 0.950 . S
C1415 C1411 1.393 . S
C1415 C1414 1.391 . S
H1416 C1424 0.950 . S
H1417 C1429 0.950 . S
H1418 C1426 0.950 . S
H1419 C1428 0.950 . S
H1420 C1430 0.950 . S
H1421 C1432 0.950 . S
H1422 C1434 0.950 . S
H1423 C1435 0.950 . S
C1424 H1416 0.950 . S
C1424 C1425 1.386 . S
C1424 C1426 1.391 . S
C1425 C1424 1.386 . S
C1425 C1429 1.393 . S
C1426 H1418 0.950 . S
C1426 C1424 1.391 . S
C1426 C1427 1.400 . S
C1427 C1426 1.400 . S
C1427 C1428 1.398 . S
C1427 C1433 1.491 . S
C1428 H1419 0.950 . S
C1428 C1427 1.398 . S
C1428 C1429 1.391 . S
C1429 H1417 0.950 . S
C1429 C1425 1.393 . S
C1429 C1428 1.391 . S
C1430 H1420 0.950 . S
C1430 C1431 1.386 . S
C1430 C1432 1.391 . S
C1431 C1430 1.386 . S
C1431 C1435 1.393 . S
C1432 H1421 0.950 . S
C1432 C1430 1.391 . S
C1432 C1433 1.400 . S
C1433 C1427 1.491 . S
C1433 C1432 1.400 . S
C1433 C1434 1.398 . S
C1434 H1422 0.950 . S
C1434 C1433 1.398 . S
C1434 C1435 1.391 . S
C1435 H1423 0.950 . S
C1435 C1431 1.393 . S
C1435 C1434 1.391 . S
H1436 C1444 0.950 . S
H1437 C1449 0.950 . S
H1438 C1446 0.950 . S
H1439 C1448 0.950 . S
H1440 C1450 0.950 . S
H1441 C1452 0.950 . S
H1442 C1454 0.950 . S
H1443 C1455 0.950 . S
C1444 H1436 0.950 . S
C1444 C1445 1.386 . S
C1444 C1446 1.391 . S
C1445 C1444 1.386 . S
C1445 C1449 1.393 . S
C1446 H1438 0.950 . S
C1446 C1444 1.391 . S
C1446 C1447 1.400 . S
C1447 C1446 1.400 . S
C1447 C1448 1.398 . S
C1447 C1453 1.491 . S
C1448 H1439 0.950 . S
C1448 C1447 1.398 . S
C1448 C1449 1.391 . S
C1449 H1437 0.950 . S
C1449 C1445 1.393 . S
C1449 C1448 1.391 . S
C1450 H1440 0.950 . S
C1450 C1451 1.386 . S
C1450 C1452 1.391 . S
C1451 C1450 1.386 . S
C1451 C1455 1.393 . S
C1452 H1441 0.950 . S
C1452 C1450 1.391 . S
C1452 C1453 1.400 . S
C1453 C1447 1.491 . S
C1453 C1452 1.400 . S
C1453 C1454 1.398 . S
C1454 H1442 0.950 . S
C1454 C1453 1.398 . S
C1454 C1455 1.391 . S
C1455 H1443 0.950 . S
C1455 C1451 1.393 . S
C1455 C1454 1.391 . S
H1456 C1464 0.950 . S
H1457 C1469 0.950 . S
H1458 C1466 0.950 . S
H1459 C1468 0.950 . S
H1460 C1470 0.950 . S
H1461 C1472 0.950 . S
H1462 C1474 0.950 . S
H1463 C1475 0.950 . S
C1464 H1456 0.950 . S
C1464 C1465 1.386 . S
C1464 C1466 1.391 . S
C1465 C1464 1.386 . S
C1465 C1469 1.393 . S
C1466 H1458 0.950 . S
C1466 C1464 1.391 . S
C1466 C1467 1.400 . S
C1467 C1466 1.400 . S
C1467 C1468 1.398 . S
C1467 C1473 1.491 . S
C1468 H1459 0.950 . S
C1468 C1467 1.398 . S
C1468 C1469 1.391 . S
C1469 H1457 0.950 . S
C1469 C1465 1.393 . S
C1469 C1468 1.391 . S
C1470 H1460 0.950 . S
C1470 C1471 1.386 . S
C1470 C1472 1.391 . S
C1471 C1470 1.386 . S
C1471 C1475 1.393 . S
C1472 H1461 0.950 . S
C1472 C1470 1.391 . S
C1472 C1473 1.400 . S
C1473 C1467 1.491 . S
C1473 C1472 1.400 . S
C1473 C1474 1.398 . S
C1474 H1462 0.950 . S
C1474 C1473 1.398 . S
C1474 C1475 1.391 . S
C1475 H1463 0.950 . S
C1475 C1471 1.393 . S
C1475 C1474 1.391 . S
H1476 C1484 0.950 . S
H1477 C1489 0.950 . S
H1478 C1486 0.950 . S
H1479 C1488 0.950 . S
H1480 C1490 0.950 . S
H1481 C1492 0.950 . S
H1482 C1494 0.950 . S
H1483 C1495 0.950 . S
C1484 H1476 0.950 . S
C1484 C1485 1.386 . S
C1484 C1486 1.391 . S
C1485 C1484 1.386 . S
C1485 C1489 1.393 . S
C1486 H1478 0.950 . S
C1486 C1484 1.391 . S
C1486 C1487 1.400 . S
C1487 C1486 1.400 . S
C1487 C1488 1.398 . S
C1487 C1493 1.491 . S
C1488 H1479 0.950 . S
C1488 C1487 1.398 . S
C1488 C1489 1.391 . S
C1489 H1477 0.950 . S
C1489 C1485 1.393 . S
C1489 C1488 1.391 . S
C1490 H1480 0.950 . S
C1490 C1491 1.386 . S
C1490 C1492 1.391 . S
C1491 C1490 1.386 . S
C1491 C1495 1.393 . S
C1492 H1481 0.950 . S
C1492 C1490 1.391 . S
C1492 C1493 1.400 . S
C1493 C1487 1.491 . S
C1493 C1492 1.400 . S
C1493 C1494 1.398 . S
C1494 H1482 0.950 . S
C1494 C1493 1.398 . S
C1494 C1495 1.391 . S
C1495 H1483 0.950 . S
C1495 C1491 1.393 . S
C1495 C1494 1.391 . S
H1496 C1504 0.950 . S
H1497 C1509 0.950 . S
H1498 C1506 0.950 . S
H1499 C1508 0.950 . S
H1500 C1510 0.950 . S
H1501 C1512 0.950 . S
H1502 C1514 0.950 . S
H1503 C1515 0.950 . S
C1504 H1496 0.950 . S
C1504 C1505 1.386 . S
C1504 C1506 1.391 . S
C1505 C1504 1.386 . S
C1505 C1509 1.393 . S
C1506 H1498 0.950 . S
C1506 C1504 1.391 . S
C1506 C1507 1.400 . S
C1507 C1506 1.400 . S
C1507 C1508 1.398 . S
C1507 C1513 1.491 . S
C1508 H1499 0.950 . S
C1508 C1507 1.398 . S
C1508 C1509 1.391 . S
C1509 H1497 0.950 . S
C1509 C1505 1.393 . S
C1509 C1508 1.391 . S
C1510 H1500 0.950 . S
C1510 C1511 1.386 . S
C1510 C1512 1.391 . S
C1511 C1510 1.386 . S
C1511 C1515 1.393 . S
C1512 H1501 0.950 . S
C1512 C1510 1.391 . S
C1512 C1513 1.400 . S
C1513 C1507 1.491 . S
C1513 C1512 1.400 . S
C1513 C1514 1.398 . S
C1514 H1502 0.950 . S
C1514 C1513 1.398 . S
C1514 C1515 1.391 . S
C1515 H1503 0.950 . S
C1515 C1511 1.393 . S
C1515 C1514 1.391 . S
H1516 C1524 0.950 . S
H1517 C1529 0.950 . S
H1518 C1526 0.950 . S
H1519 C1528 0.950 . S
H1520 C1530 0.950 . S
H1521 C1532 0.950 . S
H1522 C1534 0.950 . S
H1523 C1535 0.950 . S
C1524 H1516 0.950 . S
C1524 C1525 1.386 . S
C1524 C1526 1.391 . S
C1525 C1524 1.386 . S
C1525 C1529 1.393 . S
C1526 H1518 0.950 . S
C1526 C1524 1.391 . S
C1526 C1527 1.400 . S
C1527 C1526 1.400 . S
C1527 C1528 1.398 . S
C1527 C1533 1.491 . S
C1528 H1519 0.950 . S
C1528 C1527 1.398 . S
C1528 C1529 1.391 . S
C1529 H1517 0.950 . S
C1529 C1525 1.393 . S
C1529 C1528 1.391 . S
C1530 H1520 0.950 . S
C1530 C1531 1.386 . S
C1530 C1532 1.391 . S
C1531 C1530 1.386 . S
C1531 C1535 1.393 . S
C1532 H1521 0.950 . S
C1532 C1530 1.391 . S
C1532 C1533 1.400 . S
C1533 C1527 1.491 . S
C1533 C1532 1.400 . S
C1533 C1534 1.398 . S
C1534 H1522 0.950 . S
C1534 C1533 1.398 . S
C1534 C1535 1.391 . S
C1535 H1523 0.950 . S
C1535 C1531 1.393 . S
C1535 C1534 1.391 . S
H1536 C1544 0.950 . S
H1537 C1549 0.950 . S
H1538 C1546 0.950 . S
H1539 C1548 0.950 . S
H1540 C1550 0.950 . S
H1541 C1552 0.950 . S
H1542 C1554 0.950 . S
H1543 C1555 0.950 . S
C1544 H1536 0.950 . S
C1544 C1545 1.386 . S
C1544 C1546 1.391 . S
C1545 C1544 1.386 . S
C1545 C1549 1.393 . S
C1546 H1538 0.950 . S
C1546 C1544 1.391 . S
C1546 C1547 1.400 . S
C1547 C1546 1.400 . S
C1547 C1548 1.398 . S
C1547 C1553 1.491 . S
C1548 H1539 0.950 . S
C1548 C1547 1.398 . S
C1548 C1549 1.391 . S
C1549 H1537 0.950 . S
C1549 C1545 1.393 . S
C1549 C1548 1.391 . S
C1550 H1540 0.950 . S
C1550 C1551 1.386 . S
C1550 C1552 1.391 . S
C1551 C1550 1.386 . S
C1551 C1555 1.393 . S
C1552 H1541 0.950 . S
C1552 C1550 1.391 . S
C1552 C1553 1.400 . S
C1553 C1547 1.491 . S
C1553 C1552 1.400 . S
C1553 C1554 1.398 . S
C1554 H1542 0.950 . S
C1554 C1553 1.398 . S
C1554 C1555 1.391 . S
C1555 H1543 0.950 . S
C1555 C1551 1.393 . S
C1555 C1554 1.391 . S
H1556 C1564 0.950 . S
H1557 C1569 0.950 . S
H1558 C1566 0.950 . S
H1559 C1568 0.950 . S
H1560 C1570 0.950 . S
H1561 C1572 0.950 . S
H1562 C1574 0.950 . S
H1563 C1575 0.950 . S
C1564 H1556 0.950 . S
C1564 C1565 1.386 . S
C1564 C1566 1.391 . S
C1565 C1564 1.386 . S
C1565 C1569 1.393 . S
C1566 H1558 0.950 . S
C1566 C1564 1.391 . S
C1566 C1567 1.400 . S
C1567 C1566 1.400 . S
C1567 C1568 1.398 . S
C1567 C1573 1.491 . S
C1568 H1559 0.950 . S
C1568 C1567 1.398 . S
C1568 C1569 1.391 . S
C1569 H1557 0.950 . S
C1569 C1565 1.393 . S
C1569 C1568 1.391 . S
C1570 H1560 0.950 . S
C1570 C1571 1.386 . S
C1570 C1572 1.391 . S
C1571 C1570 1.386 . S
C1571 C1575 1.393 . S
C1572 H1561 0.950 . S
C1572 C1570 1.391 . S
C1572 C1573 1.400 . S
C1573 C1567 1.491 . S
C1573 C1572 1.400 . S
C1573 C1574 1.398 . S
C1574 H1562 0.950 . S
C1574 C1573 1.398 . S
C1574 C1575 1.391 . S
C1575 H1563 0.950 . S
C1575 C1571 1.393 . S
C1575 C1574 1.391 . S
H1576 C1584 0.950 . S
H1577 C1589 0.950 . S
H1578 C1586 0.950 . S
H1579 C1588 0.950 . S
H1580 C1590 0.950 . S
H1581 C1592 0.950 . S
H1582 C1594 0.950 . S
H1583 C1595 0.950 . S
C1584 H1576 0.950 . S
C1584 C1585 1.386 . S
C1584 C1586 1.391 . S
C1585 C1584 1.386 . S
C1585 C1589 1.393 . S
C1586 H1578 0.950 . S
C1586 C1584 1.391 . S
C1586 C1587 1.400 . S
C1587 C1586 1.400 . S
C1587 C1588 1.398 . S
C1587 C1593 1.491 . S
C1588 H1579 0.950 . S
C1588 C1587 1.398 . S
C1588 C1589 1.391 . S
C1589 H1577 0.950 . S
C1589 C1585 1.393 . S
C1589 C1588 1.391 . S
C1590 H1580 0.950 . S
C1590 C1591 1.386 . S
C1590 C1592 1.391 . S
C1591 C1590 1.386 . S
C1591 C1595 1.393 . S
C1592 H1581 0.950 . S
C1592 C1590 1.391 . S
C1592 C1593 1.400 . S
C1593 C1587 1.491 . S
C1593 C1592 1.400 . S
C1593 C1594 1.398 . S
C1594 H1582 0.950 . S
C1594 C1593 1.398 . S
C1594 C1595 1.391 . S
C1595 H1583 0.950 . S
C1595 C1591 1.393 . S
C1595 C1594 1.391 . S
H1596 C1604 0.950 . S
H1597 C1609 0.950 . S
H1598 C1606 0.950 . S
H1599 C1608 0.950 . S
H1600 C1610 0.950 . S
H1601 C1612 0.950 . S
H1602 C1614 0.950 . S
H1603 C1615 0.950 . S
C1604 H1596 0.950 . S
C1604 C1605 1.386 . S
C1604 C1606 1.391 . S
C1605 C1604 1.386 . S
C1605 C1609 1.393 . S
C1606 H1598 0.950 . S
C1606 C1604 1.391 . S
C1606 C1607 1.400 . S
C1607 C1606 1.400 . S
C1607 C1608 1.398 . S
C1607 C1613 1.491 . S
C1608 H1599 0.950 . S
C1608 C1607 1.398 . S
C1608 C1609 1.391 . S
C1609 H1597 0.950 . S
C1609 C1605 1.393 . S
C1609 C1608 1.391 . S
C1610 H1600 0.950 . S
C1610 C1611 1.386 . S
C1610 C1612 1.391 . S
C1611 C1610 1.386 . S
C1611 C1615 1.393 . S
C1612 H1601 0.950 . S
C1612 C1610 1.391 . S
C1612 C1613 1.400 . S
C1613 C1607 1.491 . S
C1613 C1612 1.400 . S
C1613 C1614 1.398 . S
C1614 H1602 0.950 . S
C1614 C1613 1.398 . S
C1614 C1615 1.391 . S
C1615 H1603 0.950 . S
C1615 C1611 1.393 . S
C1615 C1614 1.391 . S
H1616 C1624 0.950 . S
H1617 C1629 0.950 . S
H1618 C1626 0.950 . S
H1619 C1628 0.950 . S
H1620 C1630 0.950 . S
H1621 C1632 0.950 . S
H1622 C1634 0.950 . S
H1623 C1635 0.950 . S
C1624 H1616 0.950 . S
C1624 C1625 1.386 . S
C1624 C1626 1.391 . S
C1625 C1624 1.386 . S
C1625 C1629 1.393 . S
C1626 H1618 0.950 . S
C1626 C1624 1.391 . S
C1626 C1627 1.400 . S
C1627 C1626 1.400 . S
C1627 C1628 1.398 . S
C1627 C1633 1.491 . S
C1628 H1619 0.950 . S
C1628 C1627 1.398 . S
C1628 C1629 1.391 . S
C1629 H1617 0.950 . S
C1629 C1625 1.393 . S
C1629 C1628 1.391 . S
C1630 H1620 0.950 . S
C1630 C1631 1.386 . S
C1630 C1632 1.391 . S
C1631 C1630 1.386 . S
C1631 C1635 1.393 . S
C1632 H1621 0.950 . S
C1632 C1630 1.391 . S
C1632 C1633 1.400 . S
C1633 C1627 1.491 . S
C1633 C1632 1.400 . S
C1633 C1634 1.398 . S
C1634 H1622 0.950 . S
C1634 C1633 1.398 . S
C1634 C1635 1.391 . S
C1635 H1623 0.950 . S
C1635 C1631 1.393 . S
C1635 C1634 1.391 . S
H1636 C1644 0.950 . S
H1637 C1649 0.950 . S
H1638 C1646 0.950 . S
H1639 C1648 0.950 . S
H1640 C1650 0.950 . S
H1641 C1652 0.950 . S
H1642 C1654 0.950 . S
H1643 C1655 0.950 . S
C1644 H1636 0.950 . S
C1644 C1645 1.386 . S
C1644 C1646 1.391 . S
C1645 C1644 1.386 . S
C1645 C1649 1.393 . S
C1646 H1638 0.950 . S
C1646 C1644 1.391 . S
C1646 C1647 1.400 . S
C1647 C1646 1.400 . S
C1647 C1648 1.398 . S
C1647 C1653 1.491 . S
C1648 H1639 0.950 . S
C1648 C1647 1.398 . S
C1648 C1649 1.391 . S
C1649 H1637 0.950 . S
C1649 C1645 1.393 . S
C1649 C1648 1.391 . S
C1650 H1640 0.950 . S
C1650 C1651 1.386 . S
C1650 C1652 1.391 . S
C1651 C1650 1.386 . S
C1651 C1655 1.393 . S
C1652 H1641 0.950 . S
C1652 C1650 1.391 . S
C1652 C1653 1.400 . S
C1653 C1647 1.491 . S
C1653 C1652 1.400 . S
C1653 C1654 1.398 . S
C1654 H1642 0.950 . S
C1654 C1653 1.398 . S
C1654 C1655 1.391 . S
C1655 H1643 0.950 . S
C1655 C1651 1.393 . S
C1655 C1654 1.391 . S
C585 C162 1.676 . S
C591 C228 1.679 . S
C605 C174 1.801 . S
C611 C268 1.797 . S
C625 C150 1.602 . S
C631 C298 1.576 . S
C645 C138 1.485 . S
C651 C258 1.463 1_556 S
C671 C308 1.502 . S
C665 C114 1.506 . S
C685 C126 1.363 . S
C691 C218 1.350 1_556 S
C711 C247 1.665 . S
C705 C136 1.638 . S
C731 C287 1.676 . S
C725 C112 1.662 . S
C745 C124 1.656 . S
C751 C313 1.696 . S
C765 C160 1.488 . S
C771 C273 1.501 . S
C785 C172 1.445 . S
C791 C327 1.458 . S
C811 C233 1.465 . S
C805 C148 1.438 . S
C831 C348 1.679 . S
C825 C18 1.676 . S
C845 C30 1.798 . S
C851 C388 1.795 . S
C865 C6 1.593 . S
C871 C418 1.575 . S
C885 C210 1.484 . S
C891 C378 1.465 . S
C905 C186 1.506 . S
C911 C428 1.502 . S
C925 C198 1.364 . S
C931 C338 1.351 . S
C945 C208 1.652 . S
C951 C367 1.671 . S
C965 C184 1.662 . S
C971 C407 1.677 . S
C991 C433 1.682 . S
C985 C196 1.655 . S
C1005 C16 1.490 . S
C1011 C393 1.509 . S
C1031 C447 1.461 . S
C1025 C28 1.456 . S
C1045 C4 1.455 . S
C1051 C353 1.481 . S
C1071 C468 1.679 . S
C1065 C90 1.676 . S
C1085 C102 1.798 . S
C1091 C508 1.794 . S
C1111 C538 1.573 . S
C1105 C78 1.593 . S
C1131 C498 1.454 . S
C1125 C66 1.475 . S
C1151 C548 1.507 . S
C1145 C42 1.506 . S
C1165 C54 1.351 . S
C1171 C458 1.348 . S
C1185 C64 1.650 . S
C1191 C487 1.670 . S
C1205 C40 1.649 . S
C1211 C527 1.670 . S
C1231 C553 1.681 . S
C1225 C52 1.646 . S
C1245 C88 1.483 . S
C1251 C513 1.499 . S
C1265 C100 1.459 . S
C1271 C567 1.465 . S
C1285 C76 1.453 . S
C1291 C473 1.480 . S
C1305 C189 1.497 . S
C1311 C245 1.463 . S
C1331 C285 1.913 . S
C1325 C201 1.955 . S
C1345 C213 1.574 . S
C1351 C304 1.580 . S
C1365 C81 1.785 . S
C1371 C264 1.778 . S
C1385 C93 1.696 . S
C1391 C325 1.676 . S
C1411 C224 1.311 . S
C1405 C105 1.313 . S
C1425 C45 1.504 . S
C1431 C365 1.479 . S
C1445 C57 1.961 . S
C1451 C405 1.923 . S
C1465 C69 1.574 . S
C1471 C424 1.582 . S
C1485 C153 1.786 . S
C1491 C384 1.779 . S
C1511 C445 1.660 . S
C1505 C165 1.687 . S
C1525 C177 1.303 . S
C1531 C344 1.312 . S
C1545 C117 1.510 . S
C1551 C485 1.485 . S
C1565 C129 1.951 . S
C1571 C525 1.906 . S
C1591 C544 1.578 . S
C1585 C141 1.560 . S
C1605 C9 1.792 . S
C1611 C504 1.790 . S
C1625 C21 1.687 . S
C1631 C565 1.661 . S
C1645 C33 1.313 . S
C1651 C464 1.312 . S
