# Generated by pormake.
# Topology dag, (6,3)-cn, num edge types: 1
# Building blocks:
#     Node 0, Type 0, BuildingBlock: OJICUG_clean_sbu_0, # of connection points: 6
#     Node 1, Type 0, BuildingBlock: OJICUG_clean_sbu_0, # of connection points: 6
#     Node 2, Type 0, BuildingBlock: OJICUG_clean_sbu_0, # of connection points: 6
#     Node 3, Type 0, BuildingBlock: OJICUG_clean_sbu_0, # of connection points: 6
#     Node 4, Type 1, BuildingBlock: KAKCAD_clean_linker_0, # of connection points: 3
#     Node 5, Type 1, BuildingBlock: KAKCAD_clean_linker_0, # of connection points: 3
#     Node 6, Type 1, BuildingBlock: KAKCAD_clean_linker_0, # of connection points: 3
#     Node 7, Type 1, BuildingBlock: KAKCAD_clean_linker_0, # of connection points: 3
#     Node 8, Type 1, BuildingBlock: KAKCAD_clean_linker_0, # of connection points: 3
#     Node 9, Type 1, BuildingBlock: KAKCAD_clean_linker_0, # of connection points: 3
#     Node 10, Type 1, BuildingBlock: KAKCAD_clean_linker_0, # of connection points: 3
#     Node 11, Type 1, BuildingBlock: KAKCAD_clean_linker_0, # of connection points: 3
#     Edge 12, Type (0, 1), None
#     Edge 13, Type (0, 1), None
#     Edge 14, Type (0, 1), None
#     Edge 15, Type (0, 1), None
#     Edge 16, Type (0, 1), None
#     Edge 17, Type (0, 1), None
#     Edge 18, Type (0, 1), None
#     Edge 19, Type (0, 1), None
#     Edge 20, Type (0, 1), None
#     Edge 21, Type (0, 1), None
#     Edge 22, Type (0, 1), None
#     Edge 23, Type (0, 1), None
#     Edge 24, Type (0, 1), None
#     Edge 25, Type (0, 1), None
#     Edge 26, Type (0, 1), None
#     Edge 27, Type (0, 1), None
#     Edge 28, Type (0, 1), None
#     Edge 29, Type (0, 1), None
#     Edge 30, Type (0, 1), None
#     Edge 31, Type (0, 1), None
#     Edge 32, Type (0, 1), None
#     Edge 33, Type (0, 1), None
#     Edge 34, Type (0, 1), None
#     Edge 35, Type (0, 1), None
# Relax obj value: 0.251
# Max RMSD: 0.200
# Mean RMSD: 0.165
data_MOF--net-dag--node1-OJICUG_clean_sbu_0--node2-KAKCAD_clean_linker_0--edge1-none
_symmetry_space_group_name_H-M    P1
_symmetry_Int_Tables_number       1
_symmetry_cell_setting            triclinic
loop_
_symmetry_equiv_pos_as_xyz
'x, y, z'
_cell_length_a     24.484824
_cell_length_b     25.968383
_cell_length_c     25.195239
_cell_angle_alpha  95.502965
_cell_angle_beta   90.018516
_cell_angle_gamma 90.043752
loop_
_atom_site_label
_atom_site_type_symbol
_atom_site_fract_x
_atom_site_fract_y
_atom_site_fract_z
_atom_type_partial_charge
Sc0 Sc 0.11824 0.87219 0.01751 0.0
Sc1 Sc 0.13637 0.74286 0.04123 0.0
Sc2 Sc 0.23141 0.83984 0.09191 0.0
O3 O 0.16206 0.81819 0.0506 0.0
C4 C 0.23803 0.91506 0.00015 0.0
C5 C 0.11191 0.78032 0.92617 0.0
C6 C 0.2651 0.73745 0.01873 0.0
C7 C 0.02439 0.80094 0.06132 0.0
C8 C 0.14643 0.9277 0.13291 0.0
C9 C 0.18425 0.75187 0.15965 0.0
O10 O 0.18776 0.91065 0.98899 0.0
O11 O 0.11315 0.74502 0.95788 0.0
O12 O 0.27733 0.77953 0.04655 0.0
O13 O 0.04255 0.84066 0.04143 0.0
O14 O 0.19007 0.90225 0.13933 0.0
O15 O 0.15536 0.72919 0.12255 0.0
O16 O 0.11692 0.92098 0.09125 0.0
O17 O 0.05372 0.76143 0.06705 0.0
O18 O 0.21293 0.79153 0.1536 0.0
O19 O 0.1165 0.82799 0.94179 0.0
O20 O 0.26027 0.89283 0.03721 0.0
O21 O 0.2166 0.71964 0.01436 0.0
Sc22 Sc 0.73255 0.64544 0.46304 0.0
Sc23 Sc 0.63721 0.74232 0.51207 0.0
Sc24 Sc 0.62021 0.6128 0.53748 0.0
O25 O 0.66315 0.66707 0.50382 0.0
C26 C 0.6533 0.55391 0.42414 0.0
C27 C 0.68722 0.73379 0.39481 0.0
C28 C 0.52705 0.68045 0.48749 0.0
C29 C 0.76554 0.74704 0.53756 0.0
C30 C 0.73858 0.57238 0.55784 0.0
C31 C 0.60702 0.70737 0.6263 0.0
O32 O 0.69091 0.58511 0.41321 0.0
O33 O 0.65584 0.75498 0.43055 0.0
O34 O 0.54574 0.63965 0.50509 0.0
O35 O 0.77788 0.70414 0.51131 0.0
O36 O 0.69012 0.58158 0.5735 0.0
O37 O 0.61368 0.74257 0.59524 0.0
O38 O 0.75827 0.58962 0.51643 0.0
O39 O 0.7175 0.76617 0.53915 0.0
O40 O 0.60923 0.65965 0.6107 0.0
O41 O 0.71738 0.69551 0.40213 0.0
O42 O 0.62731 0.55826 0.46804 0.0
O43 O 0.55479 0.72192 0.48665 0.0
Sc44 Sc 0.85549 0.24373 0.01348 0.0
Sc45 Sc 0.76943 0.14162 0.9594 0.0
Sc46 Sc 0.88059 0.11577 0.03951 0.0
O47 O 0.83517 0.1671 0.00376 0.0
C48 C 0.97137 0.19253 -0.00136 0.0
C49 C 0.81146 0.23282 0.89384 0.0
C50 C 0.86096 0.05887 0.92302 0.0
C51 C 0.72665 0.2414 0.03194 0.0
C52 C 0.88002 0.20794 0.12942 0.0
C53 C 0.7627 0.06585 0.05095 0.0
O54 O 0.93867 0.22836 0.98856 0.0
O55 O 0.78621 0.19099 0.89853 0.0
O56 O 0.88728 0.06613 0.96668 0.0
O57 O 0.77334 0.26287 0.03862 0.0
O58 O 0.87606 0.16015 0.11452 0.0
O59 O 0.74171 0.08654 0.01226 0.0
O60 O 0.87884 0.24265 0.09701 0.0
O61 O 0.71864 0.19848 0.00387 0.0
O62 O 0.81186 0.07342 0.06534 0.0
O63 O 0.83696 0.25739 0.93216 0.0
O64 O 0.95639 0.15227 0.01989 0.0
O65 O 0.8174 0.08324 0.91349 0.0
Sc66 Sc 0.38319 0.36954 0.51873 0.0
Sc67 Sc 0.26944 0.34263 0.59482 0.0
Sc68 Sc 0.35584 0.24113 0.54049 0.0
O69 O 0.33599 0.31765 0.55162 0.0
C70 C 0.38009 0.28082 0.42582 0.0
C71 C 0.26533 0.42038 0.50612 0.0
C72 C 0.22729 0.24287 0.52188 0.0
C73 C 0.36275 0.42303 0.6357 0.0
C74 C 0.47246 0.28991 0.55581 0.0
C75 C 0.31127 0.25136 0.66015 0.0
O76 O 0.37577 0.32833 0.44213 0.0
O77 O 0.24157 0.39602 0.54061 0.0
O78 O 0.27413 0.22224 0.51393 0.0
O79 O 0.39262 0.41414 0.59449 0.0
O80 O 0.43884 0.25523 0.56694 0.0
O81 O 0.28712 0.29387 0.65599 0.0
O82 O 0.45823 0.33019 0.53439 0.0
O83 O 0.31595 0.40235 0.64054 0.0
O84 O 0.33579 0.22633 0.62139 0.0
O85 O 0.31592 0.41581 0.49614 0.0
O86 O 0.37987 0.24508 0.45724 0.0
O87 O 0.21912 0.28504 0.55102 0.0
C88 C 0.94732 0.24778 0.19416 0.0
C89 C 0.89833 0.22028 0.1848 0.0
C90 C 0.98111 0.23684 0.23645 0.0
C91 C 0.96566 0.19888 0.26964 0.0
C92 C 0.91277 0.1783 0.26564 0.0
C93 C 0.87904 0.18926 0.22358 0.0
C94 C 0.00862 0.16887 0.29341 0.0
C95 C 0.03371 0.18605 0.34165 0.0
C96 C 0.07872 0.15895 0.36023 0.0
C97 C 0.09686 0.11356 0.32991 0.0
C98 C 0.07107 0.0955 0.28189 0.0
C99 C 0.02716 0.12383 0.26402 0.0
C100 C 0.09112 0.04887 0.24844 0.0
C101 C 0.14739 0.03856 0.24232 0.0
C102 C 0.05375 0.01597 0.21947 0.0
C103 C 0.07203 0.97598 0.18298 0.0
C104 C 0.12814 0.967 0.17538 0.0
C105 C 0.10981 0.18016 0.40837 0.0
C106 C 0.11474 0.23403 0.42076 0.0
C107 C 0.13884 0.14717 0.43961 0.0
C108 C 0.17544 0.16747 0.47871 0.0
C109 C 0.18193 0.2211 0.48889 0.0
C110 C 0.14979 0.2542 0.46113 0.0
C111 C 0.16571 -0.00236 0.20643 0.0
H112 H 0.96324 0.27161 0.16469 0.0
H113 H 0.02206 0.25276 0.23875 0.0
H114 H 0.90033 0.14874 0.29072 0.0
H115 H 0.84126 0.16776 0.2172 0.0
H116 H 0.01843 0.22077 0.36395 0.0
H117 H 0.00834 0.1121 0.22578 0.0
H118 H 0.13196 0.09277 0.34282 0.0
H119 H 0.17743 0.0633 0.26351 0.0
H120 H 0.01015 0.0217 0.22417 0.0
H121 H 0.04211 0.95231 0.16022 0.0
H122 H 0.09418 0.26103 0.39743 0.0
H123 H 0.13487 0.10556 0.43277 0.0
H124 H 0.20921 0.99153 0.20119 0.0
H125 H 0.15477 0.2958 0.46782 0.0
H126 H 0.19977 0.1413 0.49998 0.0
C127 C 0.34673 0.48694 0.71485 0.0
C128 C 0.38322 0.45992 0.67942 0.0
C129 C 0.36581 0.52545 0.75281 0.0
C130 C 0.42192 0.53719 0.75677 0.0
C131 C 0.45866 0.50779 0.7234 0.0
C132 C 0.43947 0.46989 0.68485 0.0
C133 C 0.44076 0.58385 0.79075 0.0
C134 C 0.41445 0.59973 0.83886 0.0
C135 C 0.4219 0.65001 0.86421 0.0
C136 C 0.46075 0.6829 0.84342 0.0
C137 C 0.49054 0.6656 0.79763 0.0
C138 C 0.47984 0.6166 0.77133 0.0
C139 C 0.52859 0.69907 0.77139 0.0
C140 C 0.50732 0.73249 0.73589 0.0
C141 C 0.5833 0.68345 0.76636 0.0
C142 C 0.61328 0.69378 0.72154 0.0
C143 C 0.58893 0.72016 0.68158 0.0
C144 C 0.38389 0.66953 0.90763 0.0
C145 C 0.32889 0.65375 0.90522 0.0
C146 C 0.40061 0.70552 0.94983 0.0
C147 C 0.36268 0.72629 0.9877 0.0
C148 C 0.30751 0.71102 0.98427 0.0
C149 C 0.29155 0.67362 0.94325 0.0
C150 C 0.53758 0.7432 0.69106 0.0
H151 H 0.30317 0.48007 0.71165 0.0
H152 H 0.33609 0.54776 0.77709 0.0
H153 H 0.50218 0.51503 0.72602 0.0
H154 H 0.4687 0.44891 0.65872 0.0
H155 H 0.38583 0.57358 0.85514 0.0
H156 H 0.4998 0.60562 0.73351 0.0
H157 H 0.46629 0.72222 0.86115 0.0
H158 H 0.46491 0.74432 0.7387 0.0
H159 H 0.60022 0.65721 0.79301 0.0
H160 H 0.65278 0.67548 0.71484 0.0
H161 H 0.3137 0.62745 0.87262 0.0
H162 H 0.44272 0.71819 0.9532 0.0
H163 H 0.51779 0.76314 0.66045 0.0
H164 H 0.24937 0.66128 0.9387 0.0
H165 H 0.3763 0.75509 0.01881 0.0
C166 C 0.93606 0.75895 0.08695 0.0
C167 C 0.96719 0.80344 0.08015 0.0
C168 C 0.88089 0.76362 0.10219 0.0
C169 C 0.85653 0.81278 0.1107 0.0
C170 C 0.88862 0.85688 0.10587 0.0
C171 C 0.94287 0.8523 0.09059 0.0
C172 C 0.79847 0.82015 0.1263 0.0
C173 C 0.77718 0.7976 0.17012 0.0
C174 C 0.72805 0.81597 0.19437 0.0
C175 C 0.7012 0.85827 0.17466 0.0
C176 C 0.72163 0.87979 0.12968 0.0
C177 C 0.76829 0.85853 0.1042 0.0
C178 C 0.70624 0.93211 0.117 0.0
C179 C 0.69197 0.94001 0.06438 0.0
C180 C 0.72602 0.97397 0.151 0.0
C181 C 0.73958 0.02037 0.13048 0.0
C182 C 0.73191 0.02593 0.07612 0.0
C183 C 0.70943 0.79448 0.24384 0.0
C184 C 0.71448 0.74123 0.24854 0.0
C185 C 0.69135 0.82709 0.28823 0.0
C186 C 0.68141 0.80712 0.337 0.0
C187 C 0.69014 0.75442 0.3423 0.0
C188 C 0.70538 0.72151 0.29726 0.0
C189 C 0.70423 0.987 0.04415 0.0
H190 H 0.95391 0.72081 0.07947 0.0
H191 H 0.85715 0.72904 0.1064 0.0
H192 H 0.87181 0.8954 0.11421 0.0
H193 H 0.96583 0.88752 0.08713 0.0
H194 H 0.80124 0.76887 0.18812 0.0
H195 H 0.78518 0.87666 0.07075 0.0
H196 H 0.66579 0.87558 0.19504 0.0
H197 H 0.67748 0.90797 0.0373 0.0
H198 H 0.73805 0.96855 0.19149 0.0
H199 H 0.76055 0.05008 0.15594 0.0
H200 H 0.72716 0.71491 0.21483 0.0
H201 H 0.68753 0.86838 0.28617 0.0
H202 H 0.69798 0.99039 0.00206 0.0
H203 H 0.71141 0.6805 0.29993 0.0
H204 H 0.66965 0.83331 0.37114 0.0
C205 C 0.54493 0.27492 0.62226 0.0
C206 C 0.53031 0.28578 0.57071 0.0
C207 C 0.59895 0.28174 0.63977 0.0
C208 C 0.63954 0.29843 0.60556 0.0
C209 C 0.62527 0.30455 0.55238 0.0
C210 C 0.5711 0.29919 0.53546 0.0
C211 C 0.69414 0.31586 0.62685 0.0
C212 C 0.71881 0.29303 0.66917 0.0
C213 C 0.76535 0.31537 0.69519 0.0
C214 C 0.78807 0.36045 0.67756 0.0
C215 C 0.76482 0.38267 0.63448 0.0
C216 C 0.71839 0.36019 0.60928 0.0
C217 C 0.78117 0.43442 0.62111 0.0
C218 C 0.76646 0.47739 0.65614 0.0
C219 C 0.79622 0.44156 0.56859 0.0
C220 C 0.79014 0.49 0.54953 0.0
C221 C 0.76751 0.53118 0.58254 0.0
C222 C 0.78607 0.29434 0.74406 0.0
C223 C 0.78765 0.24067 0.7471 0.0
C224 C 0.79939 0.32765 0.78966 0.0
C225 C 0.81083 0.30766 0.83805 0.0
C226 C 0.80844 0.25412 0.84173 0.0
C227 C 0.79838 0.22079 0.79546 0.0
C228 C 0.75918 0.52551 0.63682 0.0
H229 H 0.51397 0.26487 0.65022 0.0
H230 H 0.60783 0.27716 0.68113 0.0
H231 H 0.6555 0.31585 0.52435 0.0
H232 H 0.56073 0.30722 0.49525 0.0
H233 H 0.70019 0.25922 0.68362 0.0
H234 H 0.69862 0.38021 0.5787 0.0
H235 H 0.82287 0.37903 0.69799 0.0
H236 H 0.75419 0.47249 0.69668 0.0
H237 H 0.8072 0.40865 0.54093 0.0
H238 H 0.79649 0.4933 0.50743 0.0
H239 H 0.77881 0.21399 0.71243 0.0
H240 H 0.79808 0.36924 0.78879 0.0
H241 H 0.7417 0.55679 0.66296 0.0
H242 H 0.79728 0.17924 0.79692 0.0
H243 H 0.81845 0.33421 0.87313 0.0
C244 C 0.64271 0.51306 0.32987 0.0
C245 C 0.63845 0.51 0.38511 0.0
C246 C 0.62329 0.47252 0.29393 0.0
C247 C 0.59989 0.42817 0.31277 0.0
C248 C 0.5985 0.42439 0.36804 0.0
C249 C 0.61701 0.4649 0.40366 0.0
C250 C 0.57552 0.38618 0.2758 0.0
C251 C 0.60133 0.36809 0.22792 0.0
C252 C 0.58013 0.32541 0.19525 0.0
C253 C 0.53274 0.30045 0.21193 0.0
C254 C 0.50706 0.31823 0.25974 0.0
C255 C 0.52765 0.36164 0.29049 0.0
C256 C 0.46258 0.28944 0.28286 0.0
C257 C 0.4765 0.24957 0.31432 0.0
C258 C 0.41135 0.31313 0.28954 0.0
C259 C 0.37852 0.30319 0.33263 0.0
C260 C 0.39701 0.26996 0.36974 0.0
C261 C 0.61058 0.30448 0.14668 0.0
C262 C 0.64153 0.33754 0.11716 0.0
C263 C 0.61279 0.25081 0.13201 0.0
C264 C 0.64736 0.23067 0.09118 0.0
C265 C 0.68148 0.26358 0.06509 0.0
C266 C 0.67735 0.31722 0.07742 0.0
C267 C 0.44366 0.23969 0.35768 0.0
H268 H 0.65909 0.54744 0.31454 0.0
H269 H 0.62502 0.47659 0.25159 0.0
H270 H 0.58259 0.39015 0.38404 0.0
H271 H 0.61419 0.46094 0.44601 0.0
H272 H 0.6396 0.38559 0.21775 0.0
H273 H 0.50709 0.37508 0.32737 0.0
H274 H 0.51598 0.26703 0.18845 0.0
H275 H 0.5162 0.23122 0.31001 0.0
H276 H 0.40009 0.34421 0.26591 0.0
H277 H 0.34241 0.32672 0.34092 0.0
H278 H 0.63969 0.37913 0.12598 0.0
H279 H 0.59046 0.22381 0.15397 0.0
H280 H 0.45893 0.21399 0.38569 0.0
H281 H 0.70312 0.34335 0.05754 0.0
H282 H 0.65036 0.18905 0.08286 0.0
C283 C 0.04354 0.20662 0.93158 0.0
C284 C 0.02916 0.19586 0.98323 0.0
C285 C 0.09756 0.20025 0.914 0.0
C286 C 0.13844 0.18417 0.94825 0.0
C287 C 0.12431 0.178 0.00148 0.0
C288 C 0.07012 0.18282 0.01844 0.0
C289 C 0.1933 0.1675 0.92704 0.0
C290 C 0.21752 0.1903 0.88444 0.0
C291 C 0.26444 0.16851 0.85869 0.0
C292 C 0.28797 0.12405 0.87684 0.0
C293 C 0.26523 0.10199 0.92026 0.0
C294 C 0.21842 0.12387 0.94515 0.0
C295 C 0.28232 0.05069 0.93423 0.0
C296 C 0.26727 0.00727 0.89996 0.0
C297 C 0.29755 0.04439 0.98694 0.0
C298 C 0.29107 -0.00359 0.00697 0.0
C299 C 0.268 0.95498 0.9747 0.0
C300 C 0.28501 0.18956 0.80977 0.0
C301 C 0.2865 0.24321 0.80675 0.0
C302 C 0.29859 0.15629 0.76424 0.0
C303 C 0.31026 0.17633 0.71589 0.0
C304 C 0.30795 0.22988 0.71222 0.0
C305 C 0.29758 0.26314 0.7585 0.0
C306 C 0.25954 0.95968 0.92027 0.0
H307 H 0.01243 0.21649 0.90369 0.0
H308 H 0.10629 0.20483 0.87262 0.0
H309 H 0.15472 0.16723 0.02959 0.0
H310 H 0.05994 0.175 0.05875 0.0
H311 H 0.19837 0.22363 0.86959 0.0
H312 H 0.19907 0.10382 0.97595 0.0
H313 H 0.32304 0.10586 0.85659 0.0
H314 H 0.25478 0.01153 0.85935 0.0
H315 H 0.30869 0.07768 0.01404 0.0
H316 H 0.29728 -0.00625 0.0492 0.0
H317 H 0.2774 0.26984 0.84138 0.0
H318 H 0.29739 0.11471 0.76516 0.0
H319 H 0.24149 0.92816 0.89483 0.0
H320 H 0.2965 0.30469 0.75712 0.0
H321 H 0.3181 0.14981 0.68085 0.0
C322 C 0.43866 0.72288 0.46354 0.0
C323 C 0.47035 0.67812 0.46726 0.0
C324 C 0.38349 0.71856 0.44838 0.0
C325 C 0.35966 0.66949 0.43695 0.0
C326 C 0.39229 0.62523 0.43829 0.0
C327 C 0.44667 0.62944 0.4534 0.0
C328 C 0.30116 0.66249 0.42327 0.0
C329 C 0.27819 0.68571 0.38067 0.0
C330 C 0.22807 0.66778 0.35815 0.0
C331 C 0.20179 0.62544 0.37845 0.0
C332 C 0.22389 0.60351 0.42245 0.0
C333 C 0.27187 0.62399 0.44604 0.0
C334 C 0.20835 0.55158 0.43599 0.0
C335 C 0.19365 0.54481 0.48878 0.0
C336 C 0.22923 0.50937 0.40328 0.0
C337 C 0.24339 0.46391 0.42527 0.0
C338 C 0.23497 0.45955 0.47972 0.0
C339 C 0.20774 0.68973 0.30962 0.0
C340 C 0.21181 0.74317 0.3057 0.0
C341 C 0.18953 0.6574 0.26507 0.0
C342 C 0.17888 0.67786 0.21668 0.0
C343 C 0.18686 0.7308 0.212 0.0
C344 C 0.20181 0.76342 0.25741 0.0
C345 C 0.20639 0.49865 0.51043 0.0
H346 H 0.45597 0.76092 0.47375 0.0
H347 H 0.35921 0.75325 0.44694 0.0
H348 H 0.37556 0.58693 0.42789 0.0
H349 H 0.47008 0.59417 0.45461 0.0
H350 H 0.30156 0.71464 0.36221 0.0
H351 H 0.29017 0.60532 0.47848 0.0
H352 H 0.1655 0.60853 0.35926 0.0
H353 H 0.17848 0.57722 0.5149 0.0
H354 H 0.24172 0.51403 0.36275 0.0
H355 H 0.26516 0.43399 0.40087 0.0
H356 H 0.22467 0.76919 0.3396 0.0
H357 H 0.1864 0.61599 0.26666 0.0
H358 H 0.19968 0.49605 0.5526 0.0
H359 H 0.2073 0.80457 0.25529 0.0
H360 H 0.16734 0.65183 0.1823 0.0
C361 C 0.12056 0.79668 0.83149 0.0
C362 C 0.09634 0.76817 0.86989 0.0
C363 C 0.09176 0.806 0.78559 0.0
C364 C 0.0382 0.78745 0.77809 0.0
C365 C 0.01821 0.75141 0.81155 0.0
C366 C 0.04729 0.74173 0.85744 0.0
C367 C 0.99831 0.82047 0.75344 0.0
C368 C 0.9644 0.8019 0.71098 0.0
C369 C 0.92082 0.83258 0.69516 0.0
C370 C 0.91076 0.88097 0.72394 0.0
C371 C 0.94242 0.89821 0.76846 0.0
C372 C 0.98805 0.86912 0.78057 0.0
C373 C 0.92347 0.94159 0.80706 0.0
C374 C 0.89606 0.98488 0.79028 0.0
C375 C 0.92946 0.93776 0.86213 0.0
C376 C 0.90955 0.97619 0.89926 0.0
C377 C 0.88176 0.01896 0.8826 0.0
C378 C 0.88214 0.8124 0.65253 0.0
C379 C 0.90019 0.78163 0.60687 0.0
C380 C 0.82603 0.82321 0.65802 0.0
C381 C 0.78907 0.8042 0.61909 0.0
C382 C 0.80673 0.77252 0.57411 0.0
C383 C 0.86274 0.7615 0.56819 0.0
C384 C 0.87492 0.02303 0.8278 0.0
H385 H 0.15857 0.81721 0.84017 0.0
H386 H 0.1079 0.83398 0.76042 0.0
H387 H 0.9768 0.73694 0.80674 0.0
H388 H 0.02774 0.71969 0.88653 0.0
H389 H 0.9707 0.76315 0.69196 0.0
H390 H 0.01361 0.8825 0.81429 0.0
H391 H 0.87629 0.90398 0.71347 0.0
H392 H 0.89091 0.98935 0.7483 0.0
H393 H 0.94828 0.90428 0.87702 0.0
H394 H 0.91479 0.9717 0.94129 0.0
H395 H 0.94314 0.77287 0.60114 0.0
H396 H 0.80999 0.84513 0.69328 0.0
H397 H 0.85396 0.05597 0.81401 0.0
H398 H 0.87751 0.73693 0.53406 0.0
H399 H 0.7461 0.81253 0.62568 0.0
loop_
_geom_bond_atom_site_label_1
_geom_bond_atom_site_label_2
_geom_bond_distance
_geom_bond_site_symmetry_2
_ccdc_geom_bond_type
Sc0 O3 2.025 . S
Sc0 O10 2.105 . S
Sc0 O13 2.105 . S
Sc0 O16 2.105 . S
Sc0 O19 2.105 1_554 S
Sc1 O3 2.025 . S
Sc1 O11 2.105 1_554 S
Sc1 O15 2.105 . S
Sc1 O17 2.105 . S
Sc1 O21 2.105 1_554 S
Sc2 O3 2.025 . S
Sc2 O12 2.105 . S
Sc2 O14 2.105 . S
Sc2 O18 2.105 . S
Sc2 O20 2.105 . S
O3 Sc0 2.025 . S
O3 Sc1 2.025 . S
O3 Sc2 2.025 . S
C4 O10 1.268 . S
C4 O20 1.268 . S
C5 O11 1.268 . S
C5 O19 1.268 . S
C6 O12 1.268 1_556 S
C6 O21 1.268 . S
C7 O13 1.268 . S
C7 O17 1.268 . S
C8 O14 1.268 . S
C8 O16 1.268 . S
C9 O15 1.268 . S
C9 O18 1.268 . S
O10 Sc0 2.105 . S
O10 C4 1.268 . S
O11 Sc1 2.105 1_556 S
O11 C5 1.268 . S
O12 Sc2 2.105 . S
O12 C6 1.268 1_554 S
O13 Sc0 2.105 . S
O13 C7 1.268 . S
O14 Sc2 2.105 . S
O14 C8 1.268 . S
O15 Sc1 2.105 . S
O15 C9 1.268 . S
O16 Sc0 2.105 . S
O16 C8 1.268 . S
O17 Sc1 2.105 . S
O17 C7 1.268 . S
O18 Sc2 2.105 . S
O18 C9 1.268 . S
O19 Sc0 2.105 1_556 S
O19 C5 1.268 . S
O20 Sc2 2.105 . S
O20 C4 1.268 . S
O21 Sc1 2.105 1_556 S
O21 C6 1.268 . S
Sc22 O25 2.025 . S
Sc22 O32 2.105 . S
Sc22 O35 2.105 . S
Sc22 O38 2.105 . S
Sc22 O41 2.105 . S
Sc23 O25 2.025 . S
Sc23 O33 2.105 . S
Sc23 O37 2.105 . S
Sc23 O39 2.105 . S
Sc23 O43 2.105 . S
Sc24 O25 2.025 . S
Sc24 O34 2.105 . S
Sc24 O36 2.105 . S
Sc24 O40 2.105 . S
Sc24 O42 2.105 . S
O25 Sc22 2.025 . S
O25 Sc23 2.025 . S
O25 Sc24 2.025 . S
C26 O32 1.268 . S
C26 O42 1.268 . S
C27 O33 1.268 . S
C27 O41 1.268 . S
C28 O34 1.268 . S
C28 O43 1.268 . S
C29 O35 1.268 . S
C29 O39 1.268 . S
C30 O36 1.268 . S
C30 O38 1.268 . S
C31 O37 1.268 . S
C31 O40 1.268 . S
O32 Sc22 2.105 . S
O32 C26 1.268 . S
O33 Sc23 2.105 . S
O33 C27 1.268 . S
O34 Sc24 2.105 . S
O34 C28 1.268 . S
O35 Sc22 2.105 . S
O35 C29 1.268 . S
O36 Sc24 2.105 . S
O36 C30 1.268 . S
O37 Sc23 2.105 . S
O37 C31 1.268 . S
O38 Sc22 2.105 . S
O38 C30 1.268 . S
O39 Sc23 2.105 . S
O39 C29 1.268 . S
O40 Sc24 2.105 . S
O40 C31 1.268 . S
O41 Sc22 2.105 . S
O41 C27 1.268 . S
O42 Sc24 2.105 . S
O42 C26 1.268 . S
O43 Sc23 2.105 . S
O43 C28 1.268 . S
Sc44 O47 2.025 . S
Sc44 O54 2.105 1_554 S
Sc44 O57 2.105 . S
Sc44 O60 2.105 . S
Sc44 O63 2.105 1_554 S
Sc45 O47 2.025 1_556 S
Sc45 O55 2.105 . S
Sc45 O59 2.105 1_556 S
Sc45 O61 2.105 1_556 S
Sc45 O65 2.105 . S
Sc46 O47 2.025 . S
Sc46 O56 2.105 1_554 S
Sc46 O58 2.105 . S
Sc46 O62 2.105 . S
Sc46 O64 2.105 1_554 S
O47 Sc44 2.025 . S
O47 Sc45 2.025 1_554 S
O47 Sc46 2.025 . S
C48 O54 1.268 . S
C48 O64 1.268 . S
C49 O55 1.268 . S
C49 O63 1.268 . S
C50 O56 1.268 . S
C50 O65 1.268 . S
C51 O57 1.268 . S
C51 O61 1.268 . S
C52 O58 1.268 . S
C52 O60 1.268 . S
C53 O59 1.268 . S
C53 O62 1.268 . S
O54 Sc44 2.105 1_556 S
O54 C48 1.268 . S
O55 Sc45 2.105 . S
O55 C49 1.268 . S
O56 Sc46 2.105 1_556 S
O56 C50 1.268 . S
O57 Sc44 2.105 . S
O57 C51 1.268 . S
O58 Sc46 2.105 . S
O58 C52 1.268 . S
O59 Sc45 2.105 1_554 S
O59 C53 1.268 . S
O60 Sc44 2.105 . S
O60 C52 1.268 . S
O61 Sc45 2.105 1_554 S
O61 C51 1.268 . S
O62 Sc46 2.105 . S
O62 C53 1.268 . S
O63 Sc44 2.105 1_556 S
O63 C49 1.268 . S
O64 Sc46 2.105 1_556 S
O64 C48 1.268 . S
O65 Sc45 2.105 . S
O65 C50 1.268 . S
Sc66 O69 2.025 . S
Sc66 O76 2.105 . S
Sc66 O79 2.105 . S
Sc66 O82 2.105 . S
Sc66 O85 2.105 . S
Sc67 O69 2.025 . S
Sc67 O77 2.105 . S
Sc67 O81 2.105 . S
Sc67 O83 2.105 . S
Sc67 O87 2.105 . S
Sc68 O69 2.025 . S
Sc68 O78 2.105 . S
Sc68 O80 2.105 . S
Sc68 O84 2.105 . S
Sc68 O86 2.105 . S
O69 Sc66 2.025 . S
O69 Sc67 2.025 . S
O69 Sc68 2.025 . S
C70 O76 1.268 . S
C70 O86 1.268 . S
C71 O77 1.268 . S
C71 O85 1.268 . S
C72 O78 1.268 . S
C72 O87 1.268 . S
C73 O79 1.268 . S
C73 O83 1.268 . S
C74 O80 1.268 . S
C74 O82 1.268 . S
C75 O81 1.268 . S
C75 O84 1.268 . S
O76 Sc66 2.105 . S
O76 C70 1.268 . S
O77 Sc67 2.105 . S
O77 C71 1.268 . S
O78 Sc68 2.105 . S
O78 C72 1.268 . S
O79 Sc66 2.105 . S
O79 C73 1.268 . S
O80 Sc68 2.105 . S
O80 C74 1.268 . S
O81 Sc67 2.105 . S
O81 C75 1.268 . S
O82 Sc66 2.105 . S
O82 C74 1.268 . S
O83 Sc67 2.105 . S
O83 C73 1.268 . S
O84 Sc68 2.105 . S
O84 C75 1.268 . S
O85 Sc66 2.105 . S
O85 C71 1.268 . S
O86 Sc68 2.105 . S
O86 C70 1.268 . S
O87 Sc67 2.105 . S
O87 C72 1.268 . S
C88 C89 1.386 . S
C88 C90 1.397 . S
C88 H112 0.931 . S
C89 C88 1.386 . S
C89 C93 1.397 . S
C90 C88 1.397 . S
C90 C91 1.384 . S
C90 H113 0.930 1_655 S
C91 C90 1.384 . S
C91 C92 1.377 . S
C91 C94 1.481 1_655 S
C92 C91 1.377 . S
C92 C93 1.389 . S
C92 H114 0.929 . S
C93 C89 1.397 . S
C93 C92 1.389 . S
C93 H115 0.931 . S
C94 C91 1.481 1_455 S
C94 C95 1.387 . S
C94 C99 1.390 . S
C95 C94 1.387 . S
C95 C96 1.401 . S
C95 H116 0.930 . S
C96 C95 1.401 . S
C96 C97 1.376 . S
C96 C105 1.511 . S
C97 C96 1.376 . S
C97 C98 1.392 . S
C97 H118 0.931 . S
C98 C97 1.392 . S
C98 C99 1.361 . S
C98 C100 1.500 . S
C99 C94 1.390 . S
C99 C98 1.361 . S
C99 H117 0.931 . S
C100 C98 1.500 . S
C100 C101 1.371 . S
C100 C102 1.365 1_545 S
C101 C100 1.371 . S
C101 C111 1.386 1_545 S
C101 H119 0.931 . S
C102 C100 1.365 1_565 S
C102 C103 1.409 . S
C102 H120 0.929 . S
C103 C102 1.409 . S
C103 C104 1.380 . S
C103 H121 0.930 . S
C104 C103 1.380 . S
C104 C111 1.357 . S
C105 C96 1.511 . S
C105 C106 1.341 . S
C105 C107 1.371 . S
C106 C105 1.341 . S
C106 C110 1.394 . S
C106 H122 0.930 . S
C107 C105 1.371 . S
C107 C108 1.392 . S
C107 H123 0.931 . S
C108 C107 1.392 . S
C108 C109 1.331 . S
C108 H126 0.932 . S
C109 C108 1.331 . S
C109 C110 1.336 . S
C110 C106 1.394 . S
C110 C109 1.336 . S
C110 H125 0.929 . S
C111 C101 1.386 1_565 S
C111 C104 1.357 . S
C111 H124 0.928 . S
H112 C88 0.931 . S
H113 C90 0.930 1_455 S
H114 C92 0.929 . S
H115 C93 0.931 . S
H116 C95 0.930 . S
H117 C99 0.931 . S
H118 C97 0.931 . S
H119 C101 0.931 . S
H120 C102 0.929 . S
H121 C103 0.930 . S
H122 C106 0.930 . S
H123 C107 0.931 . S
H124 C111 0.928 . S
H125 C110 0.929 . S
H126 C108 0.932 . S
C127 C128 1.386 . S
C127 C129 1.397 . S
C127 H151 0.931 . S
C128 C127 1.386 . S
C128 C132 1.397 . S
C129 C127 1.397 . S
C129 C130 1.384 . S
C129 H152 0.930 . S
C130 C129 1.384 . S
C130 C131 1.377 . S
C130 C133 1.481 . S
C131 C130 1.377 . S
C131 C132 1.389 . S
C131 H153 0.929 . S
C132 C128 1.397 . S
C132 C131 1.389 . S
C132 H154 0.931 . S
C133 C130 1.481 . S
C133 C134 1.387 . S
C133 C138 1.390 . S
C134 C133 1.387 . S
C134 C135 1.401 . S
C134 H155 0.930 . S
C135 C134 1.401 . S
C135 C136 1.376 . S
C135 C144 1.511 . S
C136 C135 1.376 . S
C136 C137 1.392 . S
C136 H157 0.931 . S
C137 C136 1.392 . S
C137 C138 1.361 . S
C137 C139 1.500 . S
C138 C133 1.390 . S
C138 C137 1.361 . S
C138 H156 0.931 . S
C139 C137 1.500 . S
C139 C140 1.371 . S
C139 C141 1.365 . S
C140 C139 1.371 . S
C140 C150 1.386 . S
C140 H158 0.931 . S
C141 C139 1.365 . S
C141 C142 1.409 . S
C141 H159 0.929 . S
C142 C141 1.409 . S
C142 C143 1.380 . S
C142 H160 0.930 . S
C143 C142 1.380 . S
C143 C150 1.357 . S
C144 C135 1.511 . S
C144 C145 1.341 . S
C144 C146 1.371 . S
C145 C144 1.341 . S
C145 C149 1.394 . S
C145 H161 0.930 . S
C146 C144 1.371 . S
C146 C147 1.392 . S
C146 H162 0.931 . S
C147 C146 1.392 . S
C147 C148 1.337 . S
C147 H165 0.932 1_556 S
C148 C147 1.337 . S
C148 C149 1.346 . S
C149 C145 1.394 . S
C149 C148 1.346 . S
C149 H164 0.929 . S
C150 C140 1.386 . S
C150 C143 1.357 . S
C150 H163 0.928 . S
H151 C127 0.931 . S
H152 C129 0.930 . S
H153 C131 0.929 . S
H154 C132 0.931 . S
H155 C134 0.930 . S
H156 C138 0.931 . S
H157 C136 0.931 . S
H158 C140 0.931 . S
H159 C141 0.929 . S
H160 C142 0.930 . S
H161 C145 0.930 . S
H162 C146 0.931 . S
H163 C150 0.928 . S
H164 C149 0.929 . S
H165 C147 0.932 1_554 S
C166 C167 1.386 . S
C166 C168 1.397 . S
C166 H190 0.931 . S
C167 C166 1.386 . S
C167 C171 1.397 . S
C168 C166 1.397 . S
C168 C169 1.384 . S
C168 H191 0.930 . S
C169 C168 1.384 . S
C169 C170 1.377 . S
C169 C172 1.481 . S
C170 C169 1.377 . S
C170 C171 1.389 . S
C170 H192 0.929 . S
C171 C167 1.397 . S
C171 C170 1.389 . S
C171 H193 0.931 . S
C172 C169 1.481 . S
C172 C173 1.387 . S
C172 C177 1.390 . S
C173 C172 1.387 . S
C173 C174 1.401 . S
C173 H194 0.930 . S
C174 C173 1.401 . S
C174 C175 1.376 . S
C174 C183 1.511 . S
C175 C174 1.376 . S
C175 C176 1.392 . S
C175 H196 0.931 . S
C176 C175 1.392 . S
C176 C177 1.361 . S
C176 C178 1.500 . S
C177 C172 1.390 . S
C177 C176 1.361 . S
C177 H195 0.931 . S
C178 C176 1.500 . S
C178 C179 1.371 . S
C178 C180 1.365 . S
C179 C178 1.371 . S
C179 C189 1.386 . S
C179 H197 0.931 . S
C180 C178 1.365 . S
C180 C181 1.409 1_565 S
C180 H198 0.929 . S
C181 C180 1.409 1_545 S
C181 C182 1.380 . S
C181 H199 0.930 . S
C182 C181 1.380 . S
C182 C189 1.357 1_545 S
C183 C174 1.511 . S
C183 C184 1.341 . S
C183 C185 1.371 . S
C184 C183 1.341 . S
C184 C188 1.394 . S
C184 H200 0.930 . S
C185 C183 1.371 . S
C185 C186 1.392 . S
C185 H201 0.931 . S
C186 C185 1.392 . S
C186 C187 1.331 . S
C186 H204 0.932 . S
C187 C186 1.331 . S
C187 C188 1.336 . S
C188 C184 1.394 . S
C188 C187 1.336 . S
C188 H203 0.929 . S
C189 C179 1.386 . S
C189 C182 1.357 1_565 S
C189 H202 0.928 . S
H190 C166 0.931 . S
H191 C168 0.930 . S
H192 C170 0.929 . S
H193 C171 0.931 . S
H194 C173 0.930 . S
H195 C177 0.931 . S
H196 C175 0.931 . S
H197 C179 0.931 . S
H198 C180 0.929 . S
H199 C181 0.930 . S
H200 C184 0.930 . S
H201 C185 0.931 . S
H202 C189 0.928 . S
H203 C188 0.929 . S
H204 C186 0.932 . S
C205 C206 1.386 . S
C205 C207 1.397 . S
C205 H229 0.931 . S
C206 C205 1.386 . S
C206 C210 1.397 . S
C207 C205 1.397 . S
C207 C208 1.384 . S
C207 H230 0.930 . S
C208 C207 1.384 . S
C208 C209 1.377 . S
C208 C211 1.481 . S
C209 C208 1.377 . S
C209 C210 1.389 . S
C209 H231 0.929 . S
C210 C206 1.397 . S
C210 C209 1.389 . S
C210 H232 0.931 . S
C211 C208 1.481 . S
C211 C212 1.387 . S
C211 C216 1.390 . S
C212 C211 1.387 . S
C212 C213 1.401 . S
C212 H233 0.930 . S
C213 C212 1.401 . S
C213 C214 1.376 . S
C213 C222 1.511 . S
C214 C213 1.376 . S
C214 C215 1.392 . S
C214 H235 0.931 . S
C215 C214 1.392 . S
C215 C216 1.361 . S
C215 C217 1.500 . S
C216 C211 1.390 . S
C216 C215 1.361 . S
C216 H234 0.931 . S
C217 C215 1.500 . S
C217 C218 1.371 . S
C217 C219 1.365 . S
C218 C217 1.371 . S
C218 C228 1.386 . S
C218 H236 0.931 . S
C219 C217 1.365 . S
C219 C220 1.409 . S
C219 H237 0.929 . S
C220 C219 1.409 . S
C220 C221 1.380 . S
C220 H238 0.930 . S
C221 C220 1.380 . S
C221 C228 1.357 . S
C222 C213 1.511 . S
C222 C223 1.341 . S
C222 C224 1.371 . S
C223 C222 1.341 . S
C223 C227 1.394 . S
C223 H239 0.930 . S
C224 C222 1.371 . S
C224 C225 1.392 . S
C224 H240 0.931 . S
C225 C224 1.392 . S
C225 C226 1.331 . S
C225 H243 0.932 . S
C226 C225 1.331 . S
C226 C227 1.336 . S
C227 C223 1.394 . S
C227 C226 1.336 . S
C227 H242 0.929 . S
C228 C218 1.386 . S
C228 C221 1.357 . S
C228 H241 0.928 . S
H229 C205 0.931 . S
H230 C207 0.930 . S
H231 C209 0.929 . S
H232 C210 0.931 . S
H233 C212 0.930 . S
H234 C216 0.931 . S
H235 C214 0.931 . S
H236 C218 0.931 . S
H237 C219 0.929 . S
H238 C220 0.930 . S
H239 C223 0.930 . S
H240 C224 0.931 . S
H241 C228 0.928 . S
H242 C227 0.929 . S
H243 C225 0.932 . S
C244 C245 1.386 . S
C244 C246 1.397 . S
C244 H268 0.931 . S
C245 C244 1.386 . S
C245 C249 1.397 . S
C246 C244 1.397 . S
C246 C247 1.384 . S
C246 H269 0.930 . S
C247 C246 1.384 . S
C247 C248 1.377 . S
C247 C250 1.481 . S
C248 C247 1.377 . S
C248 C249 1.389 . S
C248 H270 0.929 . S
C249 C245 1.397 . S
C249 C248 1.389 . S
C249 H271 0.931 . S
C250 C247 1.481 . S
C250 C251 1.387 . S
C250 C255 1.390 . S
C251 C250 1.387 . S
C251 C252 1.401 . S
C251 H272 0.930 . S
C252 C251 1.401 . S
C252 C253 1.376 . S
C252 C261 1.511 . S
C253 C252 1.376 . S
C253 C254 1.392 . S
C253 H274 0.931 . S
C254 C253 1.392 . S
C254 C255 1.361 . S
C254 C256 1.500 . S
C255 C250 1.390 . S
C255 C254 1.361 . S
C255 H273 0.931 . S
C256 C254 1.500 . S
C256 C257 1.371 . S
C256 C258 1.365 . S
C257 C256 1.371 . S
C257 C267 1.386 . S
C257 H275 0.931 . S
C258 C256 1.365 . S
C258 C259 1.409 . S
C258 H276 0.929 . S
C259 C258 1.409 . S
C259 C260 1.380 . S
C259 H277 0.930 . S
C260 C259 1.380 . S
C260 C267 1.357 . S
C261 C252 1.511 . S
C261 C262 1.341 . S
C261 C263 1.371 . S
C262 C261 1.341 . S
C262 C266 1.394 . S
C262 H278 0.930 . S
C263 C261 1.371 . S
C263 C264 1.392 . S
C263 H279 0.931 . S
C264 C263 1.392 . S
C264 C265 1.331 . S
C264 H282 0.932 . S
C265 C264 1.331 . S
C265 C266 1.336 . S
C266 C262 1.394 . S
C266 C265 1.336 . S
C266 H281 0.929 . S
C267 C257 1.386 . S
C267 C260 1.357 . S
C267 H280 0.928 . S
H268 C244 0.931 . S
H269 C246 0.930 . S
H270 C248 0.929 . S
H271 C249 0.931 . S
H272 C251 0.930 . S
H273 C255 0.931 . S
H274 C253 0.931 . S
H275 C257 0.931 . S
H276 C258 0.929 . S
H277 C259 0.930 . S
H278 C262 0.930 . S
H279 C263 0.931 . S
H280 C267 0.928 . S
H281 C266 0.929 . S
H282 C264 0.932 . S
C283 C284 1.386 . S
C283 C285 1.397 . S
C283 H307 0.931 . S
C284 C283 1.386 . S
C284 C288 1.397 1_556 S
C285 C283 1.397 . S
C285 C286 1.384 . S
C285 H308 0.930 . S
C286 C285 1.384 . S
C286 C287 1.377 . S
C286 C289 1.481 . S
C287 C286 1.377 . S
C287 C288 1.389 1_556 S
C287 H309 0.929 1_556 S
C288 C284 1.397 1_554 S
C288 C287 1.389 1_554 S
C288 H310 0.931 . S
C289 C286 1.481 . S
C289 C290 1.387 . S
C289 C294 1.390 . S
C290 C289 1.387 . S
C290 C291 1.401 . S
C290 H311 0.930 . S
C291 C290 1.401 . S
C291 C292 1.376 . S
C291 C300 1.511 . S
C292 C291 1.376 . S
C292 C293 1.392 . S
C292 H313 0.931 . S
C293 C292 1.392 . S
C293 C294 1.361 . S
C293 C295 1.500 . S
C294 C289 1.390 . S
C294 C293 1.361 . S
C294 H312 0.931 . S
C295 C293 1.500 . S
C295 C296 1.371 . S
C295 C297 1.365 . S
C296 C295 1.371 . S
C296 C306 1.386 1_545 S
C296 H314 0.931 . S
C297 C295 1.365 . S
C297 C298 1.409 1_556 S
C297 H315 0.929 1_556 S
C298 C297 1.409 1_554 S
C298 C299 1.380 1_544 S
C298 H316 0.930 . S
C299 C298 1.380 1_566 S
C299 C306 1.357 . S
C300 C291 1.511 . S
C300 C301 1.341 . S
C300 C302 1.371 . S
C301 C300 1.341 . S
C301 C305 1.394 . S
C301 H317 0.930 . S
C302 C300 1.371 . S
C302 C303 1.392 . S
C302 H318 0.931 . S
C303 C302 1.392 . S
C303 C304 1.331 . S
C303 H321 0.932 . S
C304 C303 1.331 . S
C304 C305 1.336 . S
C305 C301 1.394 . S
C305 C304 1.336 . S
C305 H320 0.929 . S
C306 C296 1.386 1_565 S
C306 C299 1.357 . S
C306 H319 0.928 . S
H307 C283 0.931 . S
H308 C285 0.930 . S
H309 C287 0.929 1_554 S
H310 C288 0.931 . S
H311 C290 0.930 . S
H312 C294 0.931 . S
H313 C292 0.931 . S
H314 C296 0.931 . S
H315 C297 0.929 1_554 S
H316 C298 0.930 . S
H317 C301 0.930 . S
H318 C302 0.931 . S
H319 C306 0.928 . S
H320 C305 0.929 . S
H321 C303 0.932 . S
C322 C323 1.386 . S
C322 C324 1.397 . S
C322 H346 0.931 . S
C323 C322 1.386 . S
C323 C327 1.397 . S
C324 C322 1.397 . S
C324 C325 1.384 . S
C324 H347 0.930 . S
C325 C324 1.384 . S
C325 C326 1.377 . S
C325 C328 1.481 . S
C326 C325 1.377 . S
C326 C327 1.389 . S
C326 H348 0.929 . S
C327 C323 1.397 . S
C327 C326 1.389 . S
C327 H349 0.931 . S
C328 C325 1.481 . S
C328 C329 1.387 . S
C328 C333 1.390 . S
C329 C328 1.387 . S
C329 C330 1.401 . S
C329 H350 0.930 . S
C330 C329 1.401 . S
C330 C331 1.376 . S
C330 C339 1.511 . S
C331 C330 1.376 . S
C331 C332 1.392 . S
C331 H352 0.931 . S
C332 C331 1.392 . S
C332 C333 1.361 . S
C332 C334 1.500 . S
C333 C328 1.390 . S
C333 C332 1.361 . S
C333 H351 0.931 . S
C334 C332 1.500 . S
C334 C335 1.371 . S
C334 C336 1.365 . S
C335 C334 1.371 . S
C335 C345 1.386 . S
C335 H353 0.931 . S
C336 C334 1.365 . S
C336 C337 1.409 . S
C336 H354 0.929 . S
C337 C336 1.409 . S
C337 C338 1.380 . S
C337 H355 0.930 . S
C338 C337 1.380 . S
C338 C345 1.357 . S
C339 C330 1.511 . S
C339 C340 1.341 . S
C339 C341 1.371 . S
C340 C339 1.341 . S
C340 C344 1.394 . S
C340 H356 0.930 . S
C341 C339 1.371 . S
C341 C342 1.392 . S
C341 H357 0.931 . S
C342 C341 1.392 . S
C342 C343 1.331 . S
C342 H360 0.932 . S
C343 C342 1.331 . S
C343 C344 1.336 . S
C344 C340 1.394 . S
C344 C343 1.336 . S
C344 H359 0.929 . S
C345 C335 1.386 . S
C345 C338 1.357 . S
C345 H358 0.928 . S
H346 C322 0.931 . S
H347 C324 0.930 . S
H348 C326 0.929 . S
H349 C327 0.931 . S
H350 C329 0.930 . S
H351 C333 0.931 . S
H352 C331 0.931 . S
H353 C335 0.931 . S
H354 C336 0.929 . S
H355 C337 0.930 . S
H356 C340 0.930 . S
H357 C341 0.931 . S
H358 C345 0.928 . S
H359 C344 0.929 . S
H360 C342 0.932 . S
C361 C362 1.386 . S
C361 C363 1.397 . S
C361 H385 0.931 . S
C362 C361 1.386 . S
C362 C366 1.397 . S
C363 C361 1.397 . S
C363 C364 1.384 . S
C363 H386 0.930 . S
C364 C363 1.384 . S
C364 C365 1.377 . S
C364 C367 1.481 1_455 S
C365 C364 1.377 . S
C365 C366 1.389 . S
C365 H387 0.929 . S
C366 C362 1.397 . S
C366 C365 1.389 . S
C366 H388 0.931 . S
C367 C364 1.481 1_655 S
C367 C368 1.387 . S
C367 C372 1.390 . S
C368 C367 1.387 . S
C368 C369 1.401 . S
C368 H389 0.930 . S
C369 C368 1.401 . S
C369 C370 1.376 . S
C369 C378 1.511 . S
C370 C369 1.376 . S
C370 C371 1.392 . S
C370 H391 0.931 . S
C371 C370 1.392 . S
C371 C372 1.361 . S
C371 C373 1.500 . S
C372 C367 1.390 . S
C372 C371 1.361 . S
C372 H390 0.931 . S
C373 C371 1.500 . S
C373 C374 1.371 1_565 S
C373 C375 1.365 . S
C374 C373 1.371 1_545 S
C374 C384 1.386 . S
C374 H392 0.931 . S
C375 C373 1.365 . S
C375 C376 1.409 1_565 S
C375 H393 0.929 . S
C376 C375 1.409 1_545 S
C376 C377 1.380 . S
C376 H394 0.930 . S
C377 C376 1.380 . S
C377 C384 1.357 . S
C378 C369 1.511 . S
C378 C379 1.341 . S
C378 C380 1.371 . S
C379 C378 1.341 . S
C379 C383 1.394 . S
C379 H395 0.930 . S
C380 C378 1.371 . S
C380 C381 1.392 . S
C380 H396 0.931 . S
C381 C380 1.392 . S
C381 C382 1.331 . S
C381 H399 0.932 . S
C382 C381 1.331 . S
C382 C383 1.336 . S
C383 C379 1.394 . S
C383 C382 1.336 . S
C383 H398 0.929 . S
C384 C374 1.386 . S
C384 C377 1.357 . S
C384 H397 0.928 . S
H385 C361 0.931 . S
H386 C363 0.930 . S
H387 C365 0.929 . S
H388 C366 0.931 . S
H389 C368 0.930 . S
H390 C372 0.931 . S
H391 C370 0.931 . S
H392 C374 0.931 . S
H393 C375 0.929 . S
H394 C376 0.930 . S
H395 C379 0.930 . S
H396 C380 0.931 . S
H397 C384 0.928 . S
H398 C383 0.929 . S
H399 C381 0.932 . S
C8 C104 2.597 . S
C31 C143 2.784 . S
C53 C182 3.012 . S
C206 C74 1.940 . S
C245 C26 2.593 . S
C48 C284 1.954 1_655 S
C71 C338 3.006 . S
C5 C362 2.790 . S
C50 C377 2.583 . S
C260 C70 2.771 . S
C299 C4 3.020 1_556 S
C28 C323 1.959 . S
C128 C73 2.569 . S
C7 C167 1.973 1_455 S
C221 C30 3.014 . S
C89 C52 2.768 . S
C343 C9 2.757 . S
C382 C29 1.924 . S
C51 C265 1.940 . S
C304 C75 2.717 . S
C187 C27 2.770 . S
C49 C226 2.704 . S
C109 C72 1.879 . S
C148 C6 1.898 . S
