# Generated by pormake.
# Topology zzz, (3,6)-cn, num edge types: 1
# Building blocks:
#     Node 0, Type 0, BuildingBlock: PAMTOO_clean_linker_0, # of connection points: 3
#     Node 1, Type 0, BuildingBlock: PAMTOO_clean_linker_0, # of connection points: 3
#     Node 2, Type 0, BuildingBlock: PAMTOO_clean_linker_0, # of connection points: 3
#     Node 3, Type 0, BuildingBlock: PAMTOO_clean_linker_0, # of connection points: 3
#     Node 4, Type 0, BuildingBlock: PAMTOO_clean_linker_0, # of connection points: 3
#     Node 5, Type 0, BuildingBlock: PAMTOO_clean_linker_0, # of connection points: 3
#     Node 6, Type 0, BuildingBlock: PAMTOO_clean_linker_0, # of connection points: 3
#     Node 7, Type 0, BuildingBlock: PAMTOO_clean_linker_0, # of connection points: 3
#     Node 8, Type 1, BuildingBlock: KUMBUR_clean_sbu_1, # of connection points: 6
#     Node 9, Type 1, BuildingBlock: KUMBUR_clean_sbu_1, # of connection points: 6
#     Node 10, Type 1, BuildingBlock: KUMBUR_clean_sbu_1, # of connection points: 6
#     Node 11, Type 1, BuildingBlock: KUMBUR_clean_sbu_1, # of connection points: 6
#     Edge 12, Type (0, 1), BuildingBlock: UVAHIK_clean_linker_0, # of connection points: 2
#     Edge 13, Type (0, 1), BuildingBlock: UVAHIK_clean_linker_0, # of connection points: 2
#     Edge 14, Type (0, 1), BuildingBlock: UVAHIK_clean_linker_0, # of connection points: 2
#     Edge 15, Type (0, 1), BuildingBlock: UVAHIK_clean_linker_0, # of connection points: 2
#     Edge 16, Type (0, 1), BuildingBlock: UVAHIK_clean_linker_0, # of connection points: 2
#     Edge 17, Type (0, 1), BuildingBlock: UVAHIK_clean_linker_0, # of connection points: 2
#     Edge 18, Type (0, 1), BuildingBlock: UVAHIK_clean_linker_0, # of connection points: 2
#     Edge 19, Type (0, 1), BuildingBlock: UVAHIK_clean_linker_0, # of connection points: 2
#     Edge 20, Type (0, 1), BuildingBlock: UVAHIK_clean_linker_0, # of connection points: 2
#     Edge 21, Type (0, 1), BuildingBlock: UVAHIK_clean_linker_0, # of connection points: 2
#     Edge 22, Type (0, 1), BuildingBlock: UVAHIK_clean_linker_0, # of connection points: 2
#     Edge 23, Type (0, 1), BuildingBlock: UVAHIK_clean_linker_0, # of connection points: 2
#     Edge 24, Type (0, 1), BuildingBlock: UVAHIK_clean_linker_0, # of connection points: 2
#     Edge 25, Type (0, 1), BuildingBlock: UVAHIK_clean_linker_0, # of connection points: 2
#     Edge 26, Type (0, 1), BuildingBlock: UVAHIK_clean_linker_0, # of connection points: 2
#     Edge 27, Type (0, 1), BuildingBlock: UVAHIK_clean_linker_0, # of connection points: 2
#     Edge 28, Type (0, 1), BuildingBlock: UVAHIK_clean_linker_0, # of connection points: 2
#     Edge 29, Type (0, 1), BuildingBlock: UVAHIK_clean_linker_0, # of connection points: 2
#     Edge 30, Type (0, 1), BuildingBlock: UVAHIK_clean_linker_0, # of connection points: 2
#     Edge 31, Type (0, 1), BuildingBlock: UVAHIK_clean_linker_0, # of connection points: 2
#     Edge 32, Type (0, 1), BuildingBlock: UVAHIK_clean_linker_0, # of connection points: 2
#     Edge 33, Type (0, 1), BuildingBlock: UVAHIK_clean_linker_0, # of connection points: 2
#     Edge 34, Type (0, 1), BuildingBlock: UVAHIK_clean_linker_0, # of connection points: 2
#     Edge 35, Type (0, 1), BuildingBlock: UVAHIK_clean_linker_0, # of connection points: 2
# Relax obj value: 0.146
# Max RMSD: 0.091
# Mean RMSD: 0.075
data_MOF--net-zzz--node1-KUMBUR_clean_sbu_1--node2-PAMTOO_clean_linker_0--edge1-UVAHIK_clean_linker_0
_symmetry_space_group_name_H-M    P1
_symmetry_Int_Tables_number       1
_symmetry_cell_setting            triclinic
loop_
_symmetry_equiv_pos_as_xyz
'x, y, z'
_cell_length_a     63.699256
_cell_length_b     64.024382
_cell_length_c     20.170808
_cell_angle_alpha  89.921929
_cell_angle_beta   90.17858
_cell_angle_gamma 90.31271
loop_
_atom_site_label
_atom_site_type_symbol
_atom_site_fract_x
_atom_site_fract_y
_atom_site_fract_z
_atom_type_partial_charge
H0 H 0.80605 0.5747 0.27599 0.0
H1 H 0.74579 0.57302 0.17962 0.0
H2 H 0.75465 0.54177 0.3668 0.0
H3 H 0.71567 0.52119 0.26629 0.0
C4 C 0.72058 0.53385 0.23183 0.0
O5 O 0.7271 0.55093 0.26928 0.0
H6 H 0.73384 0.52741 0.20243 0.0
C7 C 0.78949 0.57062 0.27666 0.0
C8 C 0.78189 0.55859 0.32943 0.0
C9 C 0.77687 0.57536 0.22166 0.0
C10 C 0.75569 0.5694 0.22183 0.0
C11 C 0.74751 0.55729 0.2735 0.0
C12 C 0.76074 0.55155 0.32739 0.0
H13 H 0.98637 0.80997 0.26987 0.0
H14 H 0.99621 0.75337 0.16159 0.0
H15 H 1.00753 0.75484 0.37259 0.0
H16 H 0.97653 0.72076 0.24395 0.0
C17 C 0.99238 0.71451 0.25594 0.0
O18 O 1.00697 0.73067 0.26245 0.0
H19 H 0.99115 0.70643 0.30459 0.0
C20 C 0.99007 0.79343 0.27007 0.0
C21 C 0.9967 0.78401 0.32905 0.0
C22 C 0.98995 0.78256 0.21013 0.0
C23 C 0.99586 0.76161 0.20846 0.0
C24 C 1.00145 0.75119 0.26686 0.0
C25 C 1.0023 0.76252 0.32769 0.0
H26 H 0.74514 0.97964 0.25974 0.0
H27 H 0.80623 0.98101 0.17075 0.0
H28 H 0.79653 1.00977 0.3612 0.0
H29 H 0.83691 0.03097 0.2641 0.0
C30 C 0.83204 0.01867 0.22834 0.0
O31 O 0.82471 1.00154 0.26428 0.0
H32 H 0.8192 0.02563 0.19798 0.0
C33 C 0.76174 0.98343 0.26294 0.0
C34 C 0.76913 0.99432 0.31854 0.0
C35 C 0.77482 0.97911 0.20894 0.0
C36 C 0.79607 0.98447 0.21218 0.0
C37 C 0.80408 0.99569 0.26603 0.0
C38 C 0.79051 1.00091 0.31956 0.0
H39 H 0.57394 0.74522 0.27026 0.0
H40 H 0.57181 0.80411 0.16812 0.0
H41 H 0.54192 0.79713 0.35828 0.0
H42 H 0.52046 0.83294 0.2619 0.0
C43 C 0.53268 0.82944 0.2244 0.0
O44 O 0.55091 0.82379 0.25808 0.0
H45 H 0.52671 0.81614 0.19403 0.0
C46 C 0.57009 0.76172 0.27 0.0
C47 C 0.55816 0.76961 0.3222 0.0
C48 C 0.5745 0.77373 0.21359 0.0
C49 C 0.5687 0.79479 0.21196 0.0
C50 C 0.55729 0.80354 0.26411 0.0
C51 C 0.55167 0.79081 0.31938 0.0
H52 H 0.24814 0.48955 0.03647 0.0
H53 H 0.30849 0.50015 0.12461 0.0
H54 H 0.29962 0.51073 0.91496 0.0
H55 H 0.35443 0.49922 0.97841 0.0
C56 C 0.34418 0.49704 0.02233 0.0
O57 O 0.32752 0.51101 0.01724 0.0
H58 H 0.3383 0.48062 0.02047 0.0
C59 C 0.26463 0.49346 0.03032 0.0
C60 C 0.27188 0.49991 0.96819 0.0
C61 C 0.27773 0.49341 0.08601 0.0
C62 C 0.29861 0.4996 0.08077 0.0
C63 C 0.30693 0.50513 0.01924 0.0
C64 C 0.29347 0.50566 0.96232 0.0
H65 H 0.07573 0.24328 0.98807 0.0
H66 H 0.08961 0.30027 0.08435 0.0
H67 H 0.03464 0.29546 0.95702 0.0
H68 H 0.07773 0.33749 0.0878 0.0
C69 C 0.06332 0.3296 0.10642 0.0
O70 O 0.05319 0.31962 0.05281 0.0
H71 H 0.06825 0.3173 0.14199 0.0
C72 C 0.07252 0.2598 0.99441 0.0
C73 C 0.05589 0.26878 0.95922 0.0
C74 C 0.0826 0.27064 0.04507 0.0
C75 C 0.07939 0.29207 0.05026 0.0
C76 C 0.06065 0.30111 0.02566 0.0
C77 C 0.04888 0.28914 0.97825 0.0
H78 H 0.30619 0.0609 0.0448 0.0
H79 H 0.24544 0.05161 0.13113 0.0
H80 H 0.25234 0.05029 0.91867 0.0
H81 H 0.20011 0.06397 0.98591 0.0
C82 C 0.2099 0.06291 0.03144 0.0
O83 O 0.22508 0.04769 0.02119 0.0
H84 H 0.21737 0.07854 0.03846 0.0
C85 C 0.28939 0.05875 0.03825 0.0
C86 C 0.28116 0.056 0.97428 0.0
C87 C 0.27661 0.05712 0.09434 0.0
C88 C 0.25518 0.05332 0.08745 0.0
C89 C 0.24611 0.05153 0.02468 0.0
C90 C 0.25916 0.05251 0.96739 0.0
H91 H 0.47256 0.30657 1.00902 0.0
H92 H 0.47374 0.24787 0.11216 0.0
H93 H 0.50973 0.25608 0.93353 0.0
H94 H 0.51749 0.23889 0.11313 0.0
C95 C 0.51562 0.22556 0.0781 0.0
O96 O 0.49928 0.22941 0.03356 0.0
H97 H 0.5304 0.22461 0.04915 0.0
C98 C 0.47701 0.29024 1.01072 0.0
C99 C 0.49062 0.28271 0.96206 0.0
C100 C 0.47171 0.27821 0.06632 0.0
C101 C 0.47783 0.25726 0.06927 0.0
C102 C 0.49165 0.24907 0.02251 0.0
C103 C 0.49844 0.26198 0.96877 0.0
Tb104 Tb 1.00678 0.03618 0.57841 0.0
C105 C 0.0741 0.04977 0.78879 0.0
N106 N 0.07436 0.03949 0.72995 0.0
C107 C 0.108 0.05444 0.70469 0.0
C108 C 0.09047 0.06357 0.80664 0.0
C109 C 0.09134 0.04099 0.68907 0.0
C110 C 0.10746 0.06596 0.7634 0.0
C111 C 0.05684 0.05621 0.89354 0.0
C112 C 0.05752 0.04602 0.83161 0.0
C113 C 0.07275 0.07053 0.91072 0.0
C114 C 0.08957 0.07413 0.86751 0.0
Tb115 Tb 0.04758 1.01649 0.7119 0.0
N116 N 0.04276 0.03153 0.81414 0.0
C117 C 0.04064 0.05115 0.93737 0.0
C118 C 0.02802 0.02534 0.85935 0.0
C119 C 0.02634 0.03544 0.92054 0.0
H120 H 0.09232 0.03154 0.64506 0.0
H121 H 1.01436 0.03068 0.95545 0.0
H122 H 0.95962 0.03398 0.65329 0.0
H123 H 0.03202 1.00862 0.34014 0.0
H124 H 1.01796 1.0121 0.85021 0.0
H125 H 0.03954 0.05865 0.98535 0.0
H126 H 0.03523 0.02798 0.44513 0.0
H127 H 0.12136 0.05568 0.67189 0.0
H128 H 0.07247 0.0785 0.95807 0.0
H129 H 0.10198 0.08483 0.88211 0.0
H130 H 0.92634 1.01534 0.63776 0.0
H131 H 0.12046 0.07627 0.77559 0.0
H132 H 0.99988 0.988 0.31662 0.0
N133 N 0.97495 0.01929 0.57181 0.0
C134 C 0.97207 1.00736 0.51667 0.0
C135 C 0.9392 1.01264 0.60395 0.0
C136 C 0.95272 0.99731 0.5037 0.0
C137 C 0.95847 0.02275 0.61373 0.0
C138 C 0.93636 0.9997 0.54905 0.0
N139 N 1.00625 1.01683 0.4838 0.0
C140 C 0.0216 0.01832 0.43682 0.0
C141 C 0.98526 0.99562 0.4103 0.0
C142 C 0.98809 1.00645 0.47054 0.0
C143 C 1.00147 0.99608 0.36357 0.0
C144 C 0.01966 1.00763 0.37673 0.0
H145 H 0.92125 0.99229 0.54082 0.0
H146 H 0.93525 0.97818 0.43389 0.0
H147 H 0.96376 0.97672 0.35207 0.0
O148 O 1.01477 0.06152 0.51722 0.0
O149 O 0.01945 1.00408 0.5678 0.0
O150 O 0.02478 0.9933 0.67479 0.0
O151 O 0.98244 0.05404 0.53665 0.0
O152 O 0.04016 0.04351 0.56147 0.0
O153 O 0.05813 1.01602 0.60774 0.0
O154 O 0.06056 0.99926 0.79041 0.0
O155 O 0.04604 0.05026 0.68668 0.0
O156 O 1.01119 0.05575 0.66691 0.0
O157 O 0.07093 0.99441 0.69038 0.0
O158 O 1.01426 1.00914 0.73459 0.0
O159 O 0.99527 0.03515 0.68211 0.0
C160 C 0.02086 0.989 0.61216 0.0
C161 C 0.99083 0.08941 0.51144 0.0
C162 C 0.99942 0.12467 0.47498 0.0
C163 C 0.98244 0.1324 0.51146 0.0
C164 C 0.97373 0.09726 0.54738 0.0
C165 C 0.96957 0.11869 0.5471 0.0
C166 C 1.00344 0.1032 0.47475 0.0
C167 C 0.05647 0.03094 0.56295 0.0
C168 C 0.99534 0.06692 0.50791 0.0
C169 C 0.95002 0.98595 0.44469 0.0
C170 C 0.96624 0.98514 0.39803 0.0
C171 C 0.02937 0.06228 0.69026 0.0
C172 C 0.06951 0.96497 0.75952 0.0
C173 C 0.04974 0.93443 0.79639 0.0
C174 C 0.06544 0.92152 0.77006 0.0
C175 C 0.08506 0.95186 0.73391 0.0
C176 C 0.05189 0.95618 0.79108 0.0
C177 C 0.08299 0.93022 0.73917 0.0
C178 C 0.9972 0.02073 0.72879 0.0
C179 C 0.07164 0.98767 0.75116 0.0
H180 H 0.97907 0.14896 0.51178 0.0
H181 H 0.96354 0.08692 0.57526 0.0
H182 H 0.95633 0.12468 0.57454 0.0
H183 H 1.01654 0.09726 0.44632 0.0
H184 H 0.06436 0.90469 0.77458 0.0
H185 H 0.09874 0.95838 0.70952 0.0
H186 H 0.03969 0.96618 0.81048 0.0
H187 H 0.09505 0.92017 0.71946 0.0
Tb188 Tb 0.53278 0.04485 0.71346 0.0
C189 C 0.51973 0.95564 0.56749 0.0
N190 N 0.53029 0.97295 0.54731 0.0
C191 C 0.55465 0.95178 0.48709 0.0
C192 C 0.52642 0.93554 0.54845 0.0
C193 C 0.54746 0.97135 0.50715 0.0
C194 C 0.54408 0.93379 0.50778 0.0
C195 C 0.4911 0.94018 0.6298 0.0
C196 C 0.50209 0.95804 0.60712 0.0
C197 C 0.49773 0.92018 0.61094 0.0
C198 C 0.51527 0.91787 0.57014 0.0
Tb199 Tb 0.51616 1.00398 0.57803 0.0
N200 N 0.49582 0.97772 0.62365 0.0
C201 C 0.47375 0.94288 0.67094 0.0
C202 C 0.47873 0.9802 0.6637 0.0
C203 C 0.46762 0.96297 0.68813 0.0
H204 H 0.5556 0.9852 0.49007 0.0
H205 H 0.45418 0.96524 0.71999 0.0
H206 H 0.48903 0.06398 0.78029 0.0
H207 H 0.60807 0.08267 0.6775 0.0
H208 H 0.47313 0.99511 0.67755 0.0
H209 H 0.46498 0.92958 0.68963 0.0
H210 H 0.58438 0.05282 0.69759 0.0
H211 H 0.56826 0.9506 0.45534 0.0
H212 H 0.48935 0.90637 0.6276 0.0
H213 H 0.52013 0.90233 0.55579 0.0
H214 H 0.47299 0.09843 0.79593 0.0
H215 H 0.54964 0.91863 0.4919 0.0
H216 H 0.5939 0.11856 0.67425 0.0
N217 N 0.51691 0.07591 0.73658 0.0
C218 C 0.52829 0.09333 0.72213 0.0
C219 C 0.48847 0.09722 0.77428 0.0
C220 C 0.52 0.11346 0.73201 0.0
C221 C 0.49748 0.07761 0.76429 0.0
C222 C 0.49966 0.11524 0.75726 0.0
N223 N 0.5566 0.07127 0.69749 0.0
C224 C 0.57781 0.06829 0.69315 0.0
C225 C 0.56193 0.10854 0.69292 0.0
C226 C 0.54887 0.09091 0.70196 0.0
C227 C 0.58332 0.10544 0.68125 0.0
C228 C 0.59138 0.08522 0.68297 0.0
H229 H 0.49275 0.13042 0.76582 0.0
H230 H 0.52638 0.1467 0.72565 0.0
H231 H 0.5632 0.14238 0.69194 0.0
O232 O 0.55601 0.03033 0.77066 0.0
O233 O 0.51724 0.05976 0.62797 0.0
O234 O 0.52524 0.03598 0.54651 0.0
O235 O 0.53504 0.05343 0.8133 0.0
O236 O 0.55561 0.03779 0.63354 0.0
O237 O 0.54994 1.00406 0.59963 0.0
O238 O 0.49513 0.99267 0.50633 0.0
O239 O 0.532 0.99064 0.66465 0.0
O240 O 0.52008 1.0138 0.74064 0.0
O241 O 0.52367 1.00868 0.47789 0.0
O242 O 0.48994 0.0235 0.61684 0.0
O243 O 0.50047 0.03314 0.7224 0.0
C244 C 0.51874 0.05466 0.56486 0.0
C245 C 0.56979 0.05191 0.85564 0.0
C246 C 0.60584 0.04934 0.8953 0.0
C247 C 0.60443 0.06958 0.92161 0.0
C248 C 0.56851 0.07209 0.88276 0.0
C249 C 0.5858 0.08084 0.91546 0.0
C250 C 0.58847 0.04066 0.86233 0.0
C251 C 0.56257 0.01999 0.60973 0.0
C252 C 0.55173 0.04196 0.82232 0.0
C253 C 0.53252 0.1311 0.71878 0.0
C254 C 0.55347 0.12865 0.69941 0.0
C255 C 0.5285 0.99563 0.72658 0.0
C256 C 0.49396 1.01459 0.41197 0.0
C257 C 0.46193 0.03276 0.38144 0.0
C258 C 0.47229 0.04164 0.3268 0.0
C259 C 0.50403 0.02322 0.35642 0.0
C260 C 0.47287 0.01943 0.42412 0.0
C261 C 0.49326 0.03682 0.31437 0.0
C262 C 0.48581 0.0313 0.67634 0.0
C263 C 0.50572 1.00112 0.45781 0.0
H264 H 0.61752 0.07645 0.94836 0.0
H265 H 0.5542 0.08108 0.87906 0.0
H266 H 0.58469 0.09631 0.93669 0.0
H267 H 0.58949 0.02503 0.84198 0.0
H268 H 0.46398 0.05175 0.29264 0.0
H269 H 0.5203 0.01963 0.34605 0.0
H270 H 0.46481 1.01282 0.46658 0.0
H271 H 0.50111 0.04349 0.27174 0.0
Tb272 Tb 0.54385 0.51553 0.59091 0.0
C273 C 0.47492 0.50703 0.79496 0.0
N274 N 0.47521 0.51732 0.736 0.0
C275 C 0.44089 0.50408 0.70993 0.0
C276 C 0.45786 0.49407 0.81246 0.0
C277 C 0.45824 0.51664 0.69456 0.0
C278 C 0.44078 0.49258 0.76883 0.0
C279 C 0.49205 0.49919 0.89937 0.0
C280 C 0.49182 0.50964 0.83775 0.0
C281 C 0.47535 0.4858 0.91636 0.0
C282 C 0.45825 0.48332 0.87315 0.0
Tb283 Tb 0.50329 0.53869 0.71825 0.0
N284 N 0.50751 0.52312 0.82023 0.0
C285 C 0.50872 0.50301 0.94301 0.0
C286 C 0.52279 0.52817 0.86536 0.0
C287 C 0.52398 0.51778 0.92628 0.0
H288 H 0.45783 0.52604 0.65023 0.0
H289 H 0.53638 0.52161 0.9611 0.0
H290 H 0.59062 0.52152 0.6679 0.0
H291 H 0.5194 0.53392 0.34202 0.0
H292 H 0.53365 0.54076 0.85659 0.0
H293 H 0.5095 0.49526 0.99075 0.0
H294 H 0.51619 0.51794 0.45242 0.0
H295 H 0.42753 0.50347 0.67672 0.0
H296 H 0.47529 0.47765 0.96347 0.0
H297 H 0.44531 0.47326 0.88747 0.0
H298 H 0.62353 0.5403 0.6479 0.0
H299 H 0.42728 0.48293 0.78072 0.0
H300 H 0.55131 0.55413 0.31321 0.0
N301 N 0.57559 0.53237 0.57967 0.0
C302 C 0.57865 0.54204 0.52029 0.0
C303 C 0.61088 0.54125 0.61208 0.0
C304 C 0.59778 0.55218 0.5053 0.0
C305 C 0.59179 0.53108 0.62417 0.0
C306 C 0.61382 0.55207 0.55273 0.0
N307 N 0.5449 0.53062 0.48866 0.0
C308 C 0.52968 0.5275 0.44185 0.0
C309 C 0.56581 0.54966 0.40943 0.0
C310 C 0.56296 0.54076 0.47281 0.0
C311 C 0.54974 0.54752 0.36243 0.0
C312 C 0.53166 0.53622 0.37859 0.0
H313 H 0.62876 0.55963 0.54307 0.0
H314 H 0.61513 0.56938 0.4305 0.0
H315 H 0.58707 0.56723 0.34663 0.0
O316 O 0.53591 0.48735 0.54285 0.0
O317 O 0.53295 0.54799 0.57224 0.0
O318 O 0.52644 0.56066 0.67663 0.0
O319 O 0.56865 0.49634 0.55915 0.0
O320 O 0.5102 0.50988 0.57085 0.0
O321 O 0.49306 0.53849 0.61341 0.0
O322 O 0.49196 0.55683 0.79684 0.0
O323 O 0.50338 0.50457 0.6967 0.0
O324 O 0.53819 0.49862 0.68384 0.0
O325 O 0.48052 0.56156 0.69771 0.0
O326 O 0.5367 0.54579 0.74153 0.0
O327 O 0.55489 0.5184 0.69447 0.0
C328 C 0.53074 0.56381 0.6136 0.0
C329 C 0.56253 0.46334 0.50262 0.0
C330 C 0.55418 0.43173 0.44105 0.0
C331 C 0.57566 0.42733 0.43576 0.0
C332 C 0.58399 0.45865 0.49779 0.0
C333 C 0.59048 0.44068 0.4646 0.0
C334 C 0.54767 0.44965 0.4748 0.0
C335 C 0.49441 0.52314 0.56999 0.0
C336 C 0.55561 0.48261 0.53523 0.0
C337 C 0.60055 0.56151 0.44279 0.0
C338 C 0.58461 0.56023 0.39494 0.0
C339 C 0.51959 0.49202 0.70224 0.0
C340 C 0.48236 0.59125 0.76695 0.0
C341 C 0.49857 0.62199 0.817 0.0
C342 C 0.4838 0.63469 0.78499 0.0
C343 C 0.46772 0.60421 0.73521 0.0
C344 C 0.49796 0.60029 0.80775 0.0
C345 C 0.46851 0.62581 0.74405 0.0
C346 C 0.55354 0.53385 0.73755 0.0
C347 C 0.48055 0.56845 0.75834 0.0
H348 H 0.58091 0.41348 0.41003 0.0
H349 H 0.59576 0.4689 0.51928 0.0
H350 H 0.60704 0.43715 0.46098 0.0
H351 H 0.53105 0.45308 0.47816 0.0
H352 H 0.48417 0.65148 0.79164 0.0
H353 H 0.45557 0.59757 0.7038 0.0
H354 H 0.50945 0.59059 0.83264 0.0
H355 H 0.45716 0.63569 0.71943 0.0
Tb356 Tb 0.03649 0.54732 0.58556 0.0
C357 C 0.0399 0.4732 0.79273 0.0
N358 N 0.03099 0.47636 0.73226 0.0
C359 C 0.04285 0.44266 0.69657 0.0
C360 C 0.05121 0.45482 0.80678 0.0
C361 C 0.03167 0.46105 0.68515 0.0
C362 C 0.05289 0.43963 0.75736 0.0
C363 C 0.04497 0.48482 0.90597 0.0
C364 C 0.03694 0.48808 0.84148 0.0
C365 C 0.05688 0.46692 0.91954 0.0
C366 C 0.06 0.45195 0.87004 0.0
Tb367 Tb 1.01371 0.50735 0.71882 0.0
N368 N 0.02508 0.50506 0.8269 0.0
C369 C 0.04013 0.49924 0.95558 0.0
C370 C 1.01895 0.51821 0.87675 0.0
C371 C 0.02677 0.51581 0.9411 0.0
H372 H 0.02319 0.46255 0.63928 0.0
H373 H 0.02227 0.52663 0.97967 0.0
H374 H 0.03363 0.59643 0.64588 0.0
H375 H 0.02017 0.51799 0.3401 0.0
H376 H 1.00803 0.53074 0.86719 0.0
H377 H 0.04598 0.49728 1.0057 0.0
H378 H 0.03617 0.5176 0.45114 0.0
H379 H 0.04346 0.4307 0.65876 0.0
H380 H 0.06327 0.46423 0.96865 0.0
H381 H 0.06882 0.43798 0.88164 0.0
H382 H 1.01667 0.62934 0.61444 0.0
H383 H 0.06138 0.42527 0.76627 0.0
H384 H 0.9997 0.54865 0.30338 0.0
N385 N 0.02195 0.57942 0.56226 0.0
C386 C 1.01219 0.58096 0.50242 0.0
C387 C 1.01499 0.61576 0.58291 0.0
C388 C 1.00285 0.5998 0.48145 0.0
C389 C 0.02426 0.59686 0.60114 0.0
C390 C 1.00399 0.61718 0.52322 0.0
N391 N 0.02291 0.54653 0.48064 0.0
C392 C 0.02635 0.53051 0.43741 0.0
C393 C 1.00402 0.5653 0.39588 0.0
C394 C 1.01282 0.56401 0.46001 0.0
C395 C 1.00619 0.54827 0.35308 0.0
C396 C 1.01767 0.53091 0.37367 0.0
H397 H 0.99709 0.63194 0.50881 0.0
H398 H 0.98608 0.61526 0.40175 0.0
H399 H 0.98705 0.58499 0.32687 0.0
O400 O 0.06329 0.54028 0.53075 0.0
O401 O 1.00463 0.53598 0.56384 0.0
O402 O 0.99391 0.53139 0.67064 0.0
O403 O 0.05857 0.5717 0.56973 0.0
O404 O 0.04149 0.51334 0.5731 0.0
O405 O 1.01171 0.49772 0.61404 0.0
O406 O 0.98704 0.5112 0.77698 0.0
O407 O 0.04806 0.50594 0.70116 0.0
O408 O 0.05518 0.54018 0.67506 0.0
O409 O 0.99182 0.48205 0.72326 0.0
O410 O 0.02396 0.53754 0.76035 0.0
O411 O 0.02293 0.56191 0.67543 0.0
C412 C 0.98947 0.53351 0.60716 0.0
C413 C 0.09021 0.5657 0.50535 0.0
C414 C 0.12096 0.55612 0.44275 0.0
C415 C 0.12965 0.576 0.45353 0.0
C416 C 0.09871 0.58574 0.51554 0.0
C417 C 0.11839 0.59086 0.4893 0.0
C418 C 0.10126 0.55113 0.4679 0.0
C419 C 0.02696 0.49863 0.57017 0.0
C420 C 0.07035 0.55931 0.53548 0.0
C421 C 0.99339 0.60094 0.41854 0.0
C422 C 0.99396 0.58372 0.37586 0.0
C423 C 0.0615 0.52164 0.69543 0.0
C424 C 0.95993 0.48523 0.79071 0.0
C425 C 0.92748 0.49295 0.84922 0.0
C426 C 0.9224 0.47158 0.84934 0.0
C427 C 0.95451 0.46397 0.78998 0.0
C428 C 0.94623 0.49964 0.81979 0.0
C429 C 0.9358 0.45721 0.81933 0.0
C430 C 0.02216 0.55689 0.73891 0.0
C431 C 0.98001 0.49263 0.76349 0.0
H432 H 0.14509 0.5799 0.43466 0.0
H433 H 0.09036 0.59726 0.54439 0.0
H434 H 0.12504 0.60623 0.49762 0.0
H435 H 0.09495 0.53555 0.46006 0.0
H436 H 0.90795 0.46609 0.87173 0.0
H437 H 0.96484 0.45259 0.76768 0.0
H438 H 0.95025 0.51612 0.82048 0.0
H439 H 0.93172 0.44078 0.81904 0.0
C440 C 0.17957 0.07307 0.10508 0.0
C441 C 0.19544 0.05858 0.09067 0.0
C442 C 0.16553 0.06985 0.15771 0.0
C443 C 0.15678 0.03882 0.3138 0.0
H444 H 0.09928 0.05668 0.28854 0.0
C445 C 0.0895 0.01914 0.50322 0.0
C446 C 0.07362 0.03409 0.51271 0.0
C447 C 0.10499 0.02194 0.45413 0.0
C448 C 0.11531 0.05181 0.29722 0.0
H449 H 0.20895 0.02917 0.12217 0.0
H450 H 0.18436 0.0234 0.21372 0.0
H451 H 0.1246 0.06159 0.20006 0.0
H452 H 0.06228 0.06411 0.47845 0.0
H453 H 0.08914 0.06906 0.39432 0.0
H454 H 0.14728 0.02892 0.41117 0.0
C455 C 0.18287 0.03748 0.18439 0.0
C456 C 0.12997 0.05465 0.24601 0.0
C457 C 0.19698 0.04073 0.13139 0.0
C458 C 0.07402 0.05208 0.47246 0.0
C459 C 0.08946 0.05488 0.4236 0.0
C460 C 0.14205 0.03594 0.36519 0.0
C461 C 0.16674 0.05192 0.19814 0.0
C462 C 0.15104 0.04834 0.2533 0.0
C463 C 0.10511 0.03976 0.41284 0.0
C464 C 0.12105 0.04251 0.35796 0.0
H465 H 0.17799 0.08704 0.07513 0.0
H466 H 0.15377 0.08164 0.16691 0.0
H467 H 0.17282 0.03393 0.32216 0.0
H468 H 0.08978 1.00507 0.53305 0.0
H469 H 0.11658 1.00982 0.4475 0.0
C470 C 0.49373 0.19659 0.13762 0.0
C471 C 0.51321 0.20566 0.12038 0.0
C472 C 0.49264 0.17956 0.18266 0.0
C473 C 0.52713 0.13891 0.26581 0.0
H474 H 0.48108 0.13292 0.38942 0.0
C475 C 0.52287 0.06801 0.44693 0.0
C476 C 0.51618 0.0714 0.51258 0.0
C477 C 0.52094 0.0836 0.39795 0.0
C478 C 0.49417 0.13438 0.3556 0.0
H479 H 0.54652 0.20444 0.14064 0.0
H480 H 0.54474 0.17557 0.21839 0.0
H481 H 0.48053 0.16101 0.3068 0.0
H482 H 0.5017 0.09426 0.57682 0.0
H483 H 0.49835 0.12141 0.49166 0.0
H484 H 0.54105 0.11272 0.31515 0.0
C485 C 0.53026 0.18072 0.19559 0.0
C486 C 0.49373 0.15045 0.30733 0.0
C487 C 0.53132 0.19747 0.15069 0.0
C488 C 0.50715 0.09095 0.52714 0.0
C489 C 0.50508 0.10655 0.47786 0.0
C490 C 0.52753 0.1229 0.31372 0.0
C491 C 0.51096 0.17127 0.2126 0.0
C492 C 0.51038 0.15323 0.26191 0.0
C493 C 0.51217 0.10327 0.41239 0.0
C494 C 0.51117 0.12034 0.35999 0.0
H495 H 0.47934 0.20275 0.11687 0.0
H496 H 0.47741 0.17288 0.19384 0.0
H497 H 0.54014 0.13997 0.23157 0.0
H498 H 0.52993 0.0533 0.43323 0.0
H499 H 0.52632 0.08012 0.34834 0.0
C500 C 0.3568 0.51772 0.1257 0.0
C501 C 0.35766 0.49986 0.08506 0.0
C502 C 0.37056 0.52012 0.1803 0.0
C503 C 0.42195 0.50002 0.24809 0.0
H504 H 0.40494 0.52812 0.40904 0.0
C505 C 0.47615 0.50176 0.48091 0.0
C506 C 0.47739 0.52026 0.51861 0.0
C507 C 0.461 0.49926 0.43061 0.0
C508 C 0.4101 0.5204 0.36429 0.0
H509 H 0.37395 0.47069 0.07044 0.0
H510 H 0.39751 0.47459 0.16512 0.0
H511 H 0.37986 0.52382 0.31806 0.0
H512 H 0.46288 0.55043 0.53305 0.0
H513 H 0.43651 0.54611 0.44543 0.0
H514 H 0.45212 0.49654 0.29415 0.0
C515 C 0.38642 0.48695 0.15504 0.0
C516 C 0.39562 0.51794 0.31168 0.0
C517 C 0.37268 0.48457 0.10081 0.0
C518 C 0.46253 0.53596 0.50531 0.0
C519 C 0.44728 0.53343 0.45495 0.0
C520 C 0.43635 0.50242 0.30064 0.0
C521 C 0.38581 0.50486 0.19565 0.0
C522 C 0.40125 0.50766 0.25249 0.0
C523 C 0.4464 0.51511 0.41605 0.0
C524 C 0.43074 0.51263 0.35985 0.0
H525 H 0.34567 0.52999 0.11499 0.0
H526 H 0.36957 0.53426 0.20941 0.0
H527 H 0.42728 0.49243 0.20334 0.0
H528 H 0.48706 0.48914 0.48988 0.0
H529 H 0.4607 0.48473 0.40322 0.0
C530 C 0.05598 0.34538 0.21766 0.0
C531 C 0.05136 0.34541 0.14918 0.0
C532 C 0.05083 0.36209 0.25878 0.0
C533 C 0.03458 0.41888 0.25752 0.0
H534 H 0.03221 0.40864 0.44699 0.0
C535 C 1.01068 0.47648 0.47965 0.0
C536 C 0.02833 0.48201 0.51813 0.0
C537 C 1.01201 0.46095 0.43034 0.0
C538 C 0.03282 0.41178 0.39424 0.0
H539 H 0.03759 0.36401 0.07102 0.0
H540 H 0.02679 0.39284 0.14423 0.0
H541 H 0.03447 0.37941 0.37106 0.0
H542 H 0.06116 0.47535 0.53527 0.0
H543 H 0.06317 0.44741 0.45179 0.0
H544 H 0.03168 0.45153 0.28269 0.0
C545 C 0.03499 0.37973 0.16586 0.0
C546 C 0.03441 0.39494 0.35 0.0
C547 C 0.04075 0.36294 0.12368 0.0
C548 C 0.04732 0.47154 0.50627 0.0
C549 C 0.04848 0.45558 0.45843 0.0
C550 C 0.03242 0.43577 0.3021 0.0
C551 C 0.04026 0.37976 0.23437 0.0
C552 C 0.03596 0.39805 0.28061 0.0
C553 C 0.03087 0.45015 0.41958 0.0
C554 C 0.03195 0.43241 0.3711 0.0
H555 H 0.06497 0.33279 0.23953 0.0
H556 H 0.05625 0.36132 0.30956 0.0
H557 H 0.03576 0.42232 0.20514 0.0
H558 H 0.99588 0.48438 0.48716 0.0
H559 H 0.99816 0.45706 0.40151 0.0
C560 C 0.84677 1.00419 0.11963 0.0
C561 C 0.85033 1.01335 0.18219 0.0
C562 C 0.86308 1.00252 0.0728 0.0
C563 C 0.91329 0.02857 0.02701 0.0
H564 H 0.92068 0.98198 0.90699 0.0
C565 C 0.96679 0.03522 0.79455 0.0
C566 C 0.98002 0.01836 0.77931 0.0
C567 C 0.95119 0.0334 0.84348 0.0
C568 C 0.91893 0.99512 0.94022 0.0
H569 H 0.87428 0.02706 0.24505 0.0
H570 H 0.90259 0.02427 0.16385 0.0
H571 H 0.89379 0.98012 0.99368 0.0
H572 H 0.98669 0.9861 0.80362 0.0
H573 H 0.95938 0.98284 0.88856 0.0
H574 H 0.9382 0.04367 0.97366 0.0
C575 C 0.88713 0.0185 0.15051 0.0
C576 C 0.90335 0.99411 0.9898 0.0
C577 C 0.8709 0.01994 0.1975 0.0
C578 C 0.97687 0.99946 0.81395 0.0
C579 C 0.96108 0.99755 0.86254 0.0
C580 C 0.92861 0.02969 0.97706 0.0
C581 C 0.88341 1.01022 0.08674 0.0
C582 C 0.90029 1.01083 0.03419 0.0
C583 C 0.9481 1.01458 0.87868 0.0
C584 C 0.93172 1.01303 0.93262 0.0
H585 H 0.83112 0.99923 0.10558 0.0
H586 H 0.85947 0.99612 0.0244 0.0
H587 H 0.91136 0.0419 0.05939 0.0
H588 H 0.96872 0.05005 0.76933 0.0
H589 H 0.94142 0.04681 0.85353 0.0
C590 C 0.51671 0.85703 0.15091 0.0
C591 C 0.53507 0.84832 0.17805 0.0
C592 C 0.5176 0.87316 0.10384 0.0
C593 C 0.55014 0.916 0.0346 0.0
H594 H 0.51317 0.91024 0.88248 0.0
C595 C 0.53091 0.98419 0.84724 0.0
C596 C 0.53085 0.97912 0.77924 0.0
C597 C 0.53312 0.96856 0.89616 0.0
C598 C 0.52366 0.91214 0.92441 0.0
H599 H 0.56906 0.85004 0.17572 0.0
H600 H 0.57064 0.87875 0.09423 0.0
H601 H 0.51425 0.88276 0.96639 0.0
H602 H 0.53344 0.95328 0.71036 0.0
H603 H 0.53639 0.92622 0.79495 0.0
H604 H 0.55921 0.94569 0.99269 0.0
C605 C 0.55544 0.87298 0.11003 0.0
C606 C 0.5242 0.89638 0.97296 0.0
C607 C 0.55455 0.8565 0.15686 0.0
C608 C 0.53316 0.95793 0.76188 0.0
C609 C 0.53487 0.94231 0.81064 0.0
C610 C 0.54931 0.93203 0.98643 0.0
C611 C 0.53693 0.88134 0.08204 0.0
C612 C 0.53736 0.89803 0.02905 0.0
C613 C 0.53488 0.94732 0.87864 0.0
C614 C 0.53603 0.93034 0.93052 0.0
H615 H 0.50148 0.85103 0.1655 0.0
H616 H 0.503 0.87925 0.08432 0.0
H617 H 0.56042 0.91791 0.07704 0.0
H618 H 0.52932 1.00029 0.86276 0.0
H619 H 0.53297 0.97306 0.94788 0.0
C620 C 0.70646 0.5466 0.12018 0.0
C621 C 0.70253 0.53916 0.18472 0.0
C622 C 0.69006 0.54853 0.07354 0.0
C623 C 0.63714 0.52643 0.03698 0.0
H624 H 0.63387 0.57005 0.90389 0.0
C625 C 0.58273 0.51879 0.80715 0.0
C626 C 0.57074 0.53621 0.78808 0.0
C627 C 0.59857 0.52052 0.85542 0.0
C628 C 0.63447 0.5578 0.94091 0.0
H629 H 0.67801 0.52916 0.25175 0.0
H630 H 0.64945 0.53261 0.17107 0.0
H631 H 0.66146 0.57142 0.989 0.0
H632 H 0.5664 0.5693 0.80478 0.0
H633 H 0.59435 0.57244 0.88863 0.0
H634 H 0.61036 0.5127 0.98891 0.0
C635 C 0.66526 0.53659 0.15577 0.0
C636 C 0.65043 0.55849 0.98953 0.0
C637 C 0.68162 0.53478 0.20239 0.0
C638 C 0.57528 0.55555 0.81829 0.0
C639 C 0.5914 0.55736 0.86613 0.0
C640 C 0.62141 0.52562 0.98808 0.0
C641 C 0.66925 0.54301 0.09005 0.0
C642 C 0.65201 0.5428 0.03849 0.0
C643 C 0.60315 0.53979 0.88597 0.0
C644 C 0.61981 0.54122 0.93907 0.0
H645 H 0.72239 0.55007 0.10491 0.0
H646 H 0.69388 0.55347 0.02363 0.0
H647 H 0.63787 0.5139 0.07298 0.0
H648 H 0.57969 0.50362 0.78531 0.0
H649 H 0.60736 0.50669 0.86857 0.0
C650 C 1.00941 0.70407 0.14477 0.0
C651 C 0.99802 0.69865 0.20209 0.0
C652 C 1.01272 0.68937 0.09377 0.0
C653 C 1.00995 0.6315 0.05895 0.0
H654 H 1.01223 0.6489 0.87511 0.0
C655 C 0.03024 0.5721 0.85161 0.0
C656 C 0.02051 0.57401 0.78922 0.0
C657 C 0.02823 0.58775 0.89997 0.0
C658 C 1.01147 0.64363 0.92606 0.0
H659 H 0.98021 0.67374 0.24822 0.0
H660 H 0.98567 0.6484 0.16019 0.0
H661 H 1.007 0.67488 0.96182 0.0
H662 H 1.00107 0.59422 0.72901 0.0
H663 H 0.99723 0.62134 0.8133 0.0
H664 H 1.01366 0.60025 0.02353 0.0
C665 C 0.99283 0.66369 0.15511 0.0
C666 C 1.00875 0.65869 0.97626 0.0
C667 C 0.98963 0.6783 0.20591 0.0
C668 C 1.00895 0.59226 0.77624 0.0
C669 C 1.00679 0.6079 0.82486 0.0
C670 C 1.01258 0.61649 1.00892 0.0
C671 C 1.00451 0.66886 0.09804 0.0
C672 C 1.00788 0.6529 0.04375 0.0
C673 C 1.01625 0.60586 0.88798 0.0
C674 C 1.01342 0.62221 0.94142 0.0
H675 H 1.01572 0.7197 0.1391 0.0
H676 H 0.02188 0.69411 0.05116 0.0
H677 H 1.00971 0.62621 0.10993 0.0
H678 H 0.03967 0.55854 0.86298 0.0
H679 H 0.03629 0.58563 0.94677 0.0
C680 C 0.07488 0.26334 0.16235 0.0
C681 C 0.08711 0.25876 0.10642 0.0
C682 C 0.07196 0.24859 0.21189 0.0
C683 C 0.07278 0.19124 0.23077 0.0
H684 H 0.04939 0.20667 0.40064 0.0
C685 C 1.01503 0.13729 0.3689 0.0
C686 C 1.01328 0.13893 0.43794 0.0
C687 C 0.02821 0.15086 0.33395 0.0
C688 C 0.05628 0.20176 0.35429 0.0
H689 H 0.10784 0.23605 0.06235 0.0
H690 H 0.10408 0.21058 0.15232 0.0
H691 H 0.06867 0.23223 0.33765 0.0
H692 H 0.02441 0.15503 0.5254 0.0
H693 H 0.04835 0.17797 0.46553 0.0
H694 H 0.06138 0.16037 0.24948 0.0
C695 C 0.09586 0.22528 0.15599 0.0
C696 C 0.06708 0.21668 0.3172 0.0
C697 C 0.09837 0.23998 0.10503 0.0
C698 C 0.02531 0.15383 0.47191 0.0
C699 C 0.03892 0.16702 0.43731 0.0
C700 C 0.06259 0.17607 0.26902 0.0
C701 C 0.08168 0.22897 0.20821 0.0
C702 C 0.07466 0.21193 0.2536 0.0
C703 C 0.04034 0.16599 0.36766 0.0
C704 C 0.05351 0.18131 0.33031 0.0
H705 H 0.06552 0.2774 0.16455 0.0
H706 H 0.06055 0.25211 0.24982 0.0
H707 H 0.07822 0.18686 0.18197 0.0
H708 H 1.00587 0.12577 0.34194 0.0
H709 H 0.02845 0.14973 0.28043 0.0
C710 C 0.29717 0.07386 0.18495 0.0
C711 C 0.2865 0.05635 0.1599 0.0
C712 C 0.31118 0.07157 0.2378 0.0
C713 C 0.34966 0.03552 0.26878 0.0
H714 H 0.36262 0.06212 0.43691 0.0
C715 C 0.42603 1.01814 0.39433 0.0
C716 C 0.43922 0.03572 0.39032 0.0
C717 C 0.40436 0.02046 0.39057 0.0
C718 C 0.359 0.05456 0.39022 0.0
H719 H 0.28051 0.02327 0.17204 0.0
H720 H 0.30556 0.01913 0.2631 0.0
H721 H 0.32768 0.06702 0.38557 0.0
H722 H 0.44042 0.0695 0.38634 0.0
H723 H 0.40216 0.07359 0.37962 0.0
H724 H 0.3809 0.0238 0.27107 0.0
C725 C 0.30269 0.03461 0.24344 0.0
C726 C 0.33919 0.05733 0.36117 0.0
C727 C 0.28849 0.03696 0.19146 0.0
C728 C 0.43044 0.05576 0.38861 0.0
C729 C 0.40867 0.0581 0.38568 0.0
C730 C 0.36924 0.03279 0.29749 0.0
C731 C 0.31483 0.0517 0.26468 0.0
C732 C 0.33453 0.04779 0.30025 0.0
C733 C 0.39562 0.0404 0.38341 0.0
C734 C 0.37408 0.04228 0.35822 0.0
H735 H 0.29579 0.08889 0.16066 0.0
H736 H 0.32063 0.08485 0.25308 0.0
H737 H 0.34655 0.02859 0.2207 0.0
H738 H 0.43249 1.00252 0.39553 0.0
H739 H 0.39449 1.00663 0.38837 0.0
C740 C 0.47925 0.28693 0.18311 0.0
C741 C 0.46609 0.28941 0.12775 0.0
C742 C 0.48066 0.30253 0.2308 0.0
C743 C 0.47621 0.35919 0.23236 0.0
H744 H 0.49997 0.35144 0.40775 0.0
C745 C 0.53849 0.41398 0.34286 0.0
C746 C 0.53847 0.41765 0.41131 0.0
C747 C 0.52395 0.40017 0.31491 0.0
C748 C 0.49297 0.35405 0.35947 0.0
H749 H 0.44174 0.30854 0.08401 0.0
H750 H 0.44366 0.33565 0.16913 0.0
H751 H 0.48158 0.32266 0.35447 0.0
H752 H 0.52326 0.41044 0.50441 0.0
H753 H 0.49791 0.38597 0.45579 0.0
H754 H 0.48785 0.39057 0.23735 0.0
C755 C 0.45347 0.32199 0.17421 0.0
C756 C 0.48259 0.33746 0.32861 0.0
C757 C 0.45218 0.30638 0.12594 0.0
C758 C 0.52349 0.40773 0.4514 0.0
C759 C 0.50909 0.39373 0.42362 0.0
C760 C 0.48641 0.37586 0.26357 0.0
C761 C 0.4687 0.32082 0.22475 0.0
C762 C 0.47484 0.33957 0.26365 0.0
C763 C 0.50932 0.38962 0.35517 0.0
C764 C 0.49555 0.37322 0.32645 0.0
H765 H 0.49038 0.27422 0.18571 0.0
H766 H 0.49273 0.30107 0.26842 0.0
H767 H 0.47065 0.36139 0.18206 0.0
H768 H 0.54983 0.42172 0.31116 0.0
H769 H 0.52469 0.39719 0.26212 0.0
C770 C 0.26222 0.50736 0.1873 0.0
C771 C 0.268 0.48981 0.15046 0.0
C772 C 0.24493 0.50618 0.22897 0.0
C773 C 0.20493 0.47785 0.31306 0.0
H774 H 0.16892 0.51758 0.22269 0.0
C775 C 0.14976 0.53059 0.44333 0.0
C776 C 0.13289 0.53973 0.40999 0.0
C777 C 0.16139 0.5151 0.41259 0.0
C778 C 0.17834 0.50587 0.24748 0.0
H779 H 0.26281 0.45679 0.13441 0.0
H780 H 0.23261 0.45461 0.2092 0.0
H781 H 0.20278 0.50908 0.17605 0.0
H782 H 0.11328 0.53893 0.32223 0.0
H783 H 0.13417 0.51209 0.26665 0.0
H784 H 0.18083 0.47551 0.38651 0.0
C785 C 0.24126 0.46917 0.20532 0.0
C786 C 0.19788 0.50131 0.22127 0.0
C787 C 0.2585 0.47039 0.1631 0.0
C788 C 0.12672 0.53231 0.34757 0.0
C789 C 0.13846 0.51687 0.31642 0.0
C790 C 0.18526 0.48243 0.33954 0.0
C791 C 0.23354 0.48742 0.23422 0.0
C792 C 0.21171 0.48832 0.25606 0.0
C793 C 0.15639 0.50869 0.34775 0.0
C794 C 0.17245 0.49758 0.30917 0.0
H795 H 0.26924 0.5225 0.17733 0.0
H796 H 0.2391 0.52039 0.25138 0.0
H797 H 0.21535 0.46741 0.33945 0.0
H798 H 0.1542 0.53577 0.49256 0.0
H799 H 0.1752 0.5093 0.43793 0.0
C800 C 1.00455 0.79892 0.10976 0.0
C801 C 0.98696 0.79463 0.14906 0.0
C802 C 1.00436 0.8159 0.06661 0.0
C803 C 0.97504 0.85439 0.9759 0.0
H804 H 0.02085 0.89097 0.02915 0.0
C805 C 0.02169 0.90724 0.80627 0.0
C806 C 0.03174 0.92504 0.83193 0.0
C807 C 1.00777 0.89578 0.84525 0.0
C808 C 1.00761 0.88128 0.01465 0.0
H809 H 0.95482 0.80305 0.17039 0.0
H810 H 0.95424 0.83253 0.09239 0.0
H811 H 1.01399 0.85917 0.09143 0.0
H812 H 0.03354 0.94609 0.91597 0.0
H813 H 1.00948 0.92569 0.98496 0.0
H814 H 0.96949 0.87604 0.89653 0.0
C815 C 0.96815 0.82292 0.09569 0.0
C816 C 1.00394 0.86293 0.04967 0.0
C817 C 0.96844 0.80609 0.13974 0.0
C818 C 0.02608 0.93234 0.89504 0.0
C819 C 1.01232 0.92071 0.93447 0.0
C820 C 0.9789 0.87274 0.94008 0.0
C821 C 0.98649 0.82856 0.06177 0.0
C822 C 0.98818 0.849 0.02899 0.0
C823 C 1.00394 0.90174 0.91103 0.0
C824 C 0.99574 0.88593 0.9578 0.0
H825 H 1.01906 0.79044 0.11712 0.0
H826 H 1.01862 0.81999 0.04034 0.0
H827 H 0.96263 0.8439 0.95994 0.0
H828 H 0.02563 0.90138 0.7576 0.0
H829 H 1.00167 0.88117 0.82593 0.0
C830 C 0.768 0.98684 0.09054 0.0
C831 C 0.76503 0.97345 0.145 0.0
C832 C 0.75285 0.98786 0.04062 0.0
C833 C 0.69685 0.9841 0.04854 0.0
H834 H 0.69822 1.00582 0.869 0.0
C835 C 0.62301 1.01602 0.92814 0.0
C836 C 0.62489 0.03668 0.90535 0.0
C837 C 0.64084 1.00431 0.94182 0.0
C838 C 0.69769 0.99969 0.91905 0.0
H839 H 0.7464 0.94789 0.18393 0.0
H840 H 0.72016 0.94926 0.0957 0.0
H841 H 0.72956 0.98898 0.91574 0.0
H842 H 0.64675 0.06097 0.87569 0.0
H843 H 0.67821 0.04038 0.90047 0.0
H844 H 0.66549 0.99546 0.05334 0.0
C845 C 0.73373 0.95949 0.0927 0.0
C846 C 0.7155 0.99 0.94558 0.0
C847 C 0.74876 0.95861 0.14298 0.0
C848 C 0.64495 0.04515 0.89399 0.0
C849 C 0.66287 0.03332 0.90729 0.0
C850 C 0.67917 0.99363 0.02211 0.0
C851 C 0.73471 0.97537 0.04456 0.0
C852 C 0.71528 0.98229 1.01091 0.0
C853 C 0.66091 1.01299 0.93281 0.0
C854 C 0.67947 1.00168 0.95749 0.0
H855 H 0.78049 0.9984 0.09072 0.0
H856 H 0.75415 1.00016 1.00392 0.0
H857 H 0.69636 0.97913 0.09988 0.0
H858 H 0.60773 1.00915 0.93767 0.0
H859 H 0.63897 0.98864 0.96132 0.0
C860 C 0.59472 0.74629 0.15411 0.0
C861 C 0.57985 0.76243 0.15217 0.0
C862 C 0.59344 0.72983 0.10891 0.0
C863 C 0.56733 0.69202 0.06263 0.0
H864 H 0.55661 0.69327 0.87341 0.0
C865 C 0.50914 0.63844 0.92363 0.0
C866 C 0.51454 0.63179 0.85976 0.0
C867 C 0.52283 0.65127 0.95963 0.0
C868 C 0.55993 0.69253 0.92606 0.0
H869 H 0.55393 0.77554 0.09629 0.0
H870 H 0.55219 0.74723 0.01626 0.0
H871 H 0.57191 0.72389 0.92778 0.0
H872 H 0.53853 0.63214 0.78419 0.0
H873 H 0.56255 0.65484 0.84697 0.0
H874 H 0.55399 0.66119 0.06174 0.0
C875 C 0.56462 0.74712 0.05305 0.0
C876 C 0.5686 0.71006 0.95702 0.0
C877 C 0.56575 0.76345 0.0986 0.0
C878 C 0.53421 0.6371 0.83362 0.0
C879 C 0.54782 0.6501 0.8693 0.0
C880 C 0.55833 0.67459 0.03183 0.0
C881 C 0.57759 0.72961 0.06045 0.0
C882 C 0.57205 0.71007 0.02566 0.0
C883 C 0.54195 0.65786 0.93167 0.0
C884 C 0.55421 0.67484 0.9634 0.0
H885 H 0.60582 0.74528 0.19478 0.0
H886 H 0.60376 0.71657 0.11488 0.0
H887 H 0.56948 0.69183 0.11595 0.0
H888 H 0.49392 0.63455 0.94423 0.0
H889 H 0.51783 0.65715 1.00734 0.0
C890 C 0.78429 0.56952 0.10264 0.0
C891 C 0.78734 0.58182 0.15949 0.0
C892 C 0.79967 0.56889 0.05373 0.0
C893 C 0.85594 0.57032 0.05926 0.0
H894 H 0.85037 0.5519 0.87705 0.0
C895 C 0.90638 0.50589 0.94486 0.0
C896 C 0.91333 0.50843 0.87942 0.0
C897 C 0.893 0.52057 0.97317 0.0
C898 C 0.85232 0.55735 0.92752 0.0
H899 H 0.80674 0.60593 0.20407 0.0
H900 H 0.83367 0.60488 0.11816 0.0
H901 H 0.82165 0.57089 0.92903 0.0
H902 H 0.91217 0.52828 0.79242 0.0
H903 H 0.88832 0.55378 0.84154 0.0
H904 H 0.88618 0.55588 0.05873 0.0
C905 C 0.81972 0.5953 0.11239 0.0
C906 C 0.83586 0.56816 0.95727 0.0
C907 C 0.80428 0.59597 0.1613 0.0
C908 C 0.90694 0.526 0.843 0.0
C909 C 0.89332 0.54053 0.87096 0.0
C910 C 0.87232 0.55943 0.02963 0.0
C911 C 0.81825 0.58061 0.06085 0.0
C912 C 0.83723 0.57414 0.02411 0.0
C913 C 0.88612 0.53788 0.93615 0.0
C914 C 0.87037 0.55225 0.96419 0.0
H915 H 0.77142 0.55842 0.09971 0.0
H916 H 0.79802 0.55741 0.01464 0.0
H917 H 0.8574 0.57443 0.11115 0.0
H918 H 0.91135 0.49258 0.97409 0.0
H919 H 0.88753 0.51805 0.02337 0.0
C920 C 0.02837 0.24194 0.93064 0.0
C921 C 0.04548 0.25436 0.9105 0.0
C922 C 0.02438 0.22234 0.90099 0.0
C923 C 0.04332 0.18558 0.76411 0.0
H924 H 0.01993 0.14326 0.88028 0.0
C925 C 0.05016 0.09535 0.71521 0.0
C926 C 0.03108 0.08412 0.71688 0.0
C927 C 0.05125 0.11626 0.737 0.0
C928 C 0.02644 0.15489 0.84705 0.0
H929 H 0.07116 0.25608 0.84092 0.0
H930 H 0.06457 0.22244 0.79 0.0
H931 H 0.02181 0.17941 0.91732 0.0
H932 H 0.99838 0.08609 0.7453 0.0
H933 H 1.00048 0.12215 0.78534 0.0
H934 H 0.04882 0.16052 0.69534 0.0
C935 C 0.05371 0.22763 0.82754 0.0
C936 C 0.02735 0.17588 0.868 0.0
C937 C 0.05744 0.24729 0.85645 0.0
C938 C 1.01332 0.09423 0.74279 0.0
C939 C 1.01453 0.11492 0.76604 0.0
C940 C 0.04285 0.16451 0.7439 0.0
C941 C 0.03763 0.21427 0.85101 0.0
C942 C 0.03577 0.19177 0.82699 0.0
C943 C 0.03342 0.12639 0.76266 0.0
C944 C 0.03436 0.14884 0.78495 0.0
H945 H 1.01917 0.24654 0.97321 0.0
H946 H 1.01137 0.21317 0.9197 0.0
H947 H 0.04955 0.19699 0.7297 0.0
H948 H 0.06417 0.08815 0.69556 0.0
H949 H 0.06611 0.12451 0.7341 0.0
C950 C 0.30215 0.03661 0.88767 0.0
C951 C 0.2967 0.05557 0.91831 0.0
C952 C 0.32095 0.03481 0.85104 0.0
C953 C 0.37405 0.05998 0.84194 0.0
H954 H 0.38309 0.02294 0.69306 0.0
C955 C 0.45787 0.03517 0.76473 0.0
C956 C 0.4632 0.03438 0.69696 0.0
C957 C 0.43707 0.0382 0.78539 0.0
C958 C 0.38087 0.03348 0.73433 0.0
H959 H 0.30641 0.08772 0.93131 0.0
H960 H 0.33849 0.0849 0.86611 0.0
H961 H 0.34751 0.02778 0.73666 0.0
H962 H 0.44995 0.03508 0.5979 0.0
H963 H 0.41346 0.04005 0.63408 0.0
H964 H 0.40725 0.06563 0.84022 0.0
C965 C 0.3286 0.07119 0.8712 0.0
C966 C 0.36039 0.03613 0.75985 0.0
C967 C 0.30992 0.07295 0.90776 0.0
C968 C 0.44666 0.0359 0.65048 0.0
C969 C 0.42565 0.03867 0.67133 0.0
C970 C 0.39443 0.05719 0.81695 0.0
C971 C 0.33493 0.0519 0.84429 0.0
C972 C 0.3566 0.04941 0.81435 0.0
C973 C 0.42054 0.04015 0.73929 0.0
C974 C 0.39831 0.04377 0.76305 0.0
H975 H 0.29266 0.02277 0.89608 0.0
H976 H 0.32512 0.01964 0.83159 0.0
H977 H 0.37211 0.07012 0.88436 0.0
H978 H 0.46981 0.03327 0.80251 0.0
H979 H 0.4339 0.03868 0.83808 0.0
C980 C 0.51711 0.30907 0.92087 0.0
C981 C 0.49785 0.29858 0.91185 0.0
C982 C 0.52083 0.32881 0.89166 0.0
C983 C 0.4981 0.36877 0.77105 0.0
H984 H 0.53034 0.40778 0.87768 0.0
C985 C 0.49748 0.45951 0.72499 0.0
C986 C 0.51705 0.46988 0.72642 0.0
C987 C 0.49559 0.43842 0.7449 0.0
C988 C 0.5214 0.39711 0.84685 0.0
H989 H 0.46772 0.30057 0.86275 0.0
H990 H 0.4741 0.33444 0.81143 0.0
H991 H 0.52716 0.37147 0.91271 0.0
H992 H 0.54986 0.466 0.75202 0.0
H993 H 0.54649 0.42967 0.788 0.0
H994 H 0.49187 0.39481 0.7064 0.0
C995 C 0.48664 0.32756 0.84024 0.0
C996 C 0.51966 0.37604 0.86677 0.0
C997 C 0.48297 0.30786 0.86936 0.0
C998 C 0.53454 0.45862 0.74981 0.0
C999 C 0.53258 0.43771 0.77084 0.0
C1000 C 0.49962 0.38992 0.75164 0.0
C1001 C 0.50533 0.33887 0.8528 0.0
C1002 C 0.50797 0.36136 0.82936 0.0
C1003 C 0.51313 0.42713 0.76815 0.0
C1004 C 0.51129 0.40448 0.7892 0.0
H1005 H 0.52871 0.30276 0.95465 0.0
H1006 H 0.53567 0.3365 0.90176 0.0
H1007 H 0.48925 0.3582 0.73968 0.0
H1008 H 0.48365 0.46757 0.70724 0.0
H1009 H 0.4803 0.43098 0.74261 0.0
C1010 C 0.24308 0.4836 0.89986 0.0
C1011 C 0.25549 0.50134 0.91428 0.0
C1012 C 0.22338 0.48538 0.86864 0.0
C1013 C 0.1873 0.5217 0.77592 0.0
H1014 H 0.14369 0.48696 0.85279 0.0
C1015 C 0.09835 0.53578 0.71628 0.0
C1016 C 0.08409 0.51885 0.7169 0.0
C1017 C 0.11943 0.53334 0.73647 0.0
C1018 C 0.15556 0.49662 0.82955 0.0
H1019 H 0.25684 0.53493 0.90399 0.0
H1020 H 0.22277 0.53808 0.84758 0.0
H1021 H 0.17981 0.48328 0.89008 0.0
H1022 H 0.08154 0.48578 0.73861 0.0
H1023 H 0.11802 0.48142 0.77263 0.0
H1024 H 0.16309 0.53495 0.71499 0.0
C1025 C 0.22833 0.52265 0.86047 0.0
C1026 C 0.17651 0.4945 0.85127 0.0
C1027 C 0.24809 0.52085 0.89222 0.0
C1028 C 0.09179 0.49932 0.73794 0.0
C1029 C 0.11291 0.49685 0.75794 0.0
C1030 C 0.16633 0.52372 0.75377 0.0
C1031 C 0.21523 0.50501 0.85044 0.0
C1032 C 0.19283 0.50704 0.82513 0.0
C1033 C 0.12722 0.51383 0.75785 0.0
C1034 C 0.14994 0.51131 0.78038 0.0
H1035 H 0.24802 0.46835 0.91703 0.0
H1036 H 0.2142 0.47131 0.8608 0.0
H1037 H 0.19925 0.53151 0.75368 0.0
H1038 H 0.09323 0.5511 0.70048 0.0
H1039 H 0.1295 0.547 0.73629 0.0
C1040 C 1.01897 0.80591 0.40594 0.0
C1041 C 0.999 0.79834 0.38749 0.0
C1042 C 0.02119 0.82491 0.44082 0.0
C1043 C 0.99257 0.87508 0.4605 0.0
H1044 H 0.03598 0.88884 0.58846 0.0
C1045 C 1.01543 0.96117 0.52373 0.0
C1046 C 1.01842 0.96652 0.59086 0.0
C1047 C 1.01273 0.94026 0.50385 0.0
C1048 C 0.02369 0.88528 0.55295 0.0
H1049 H 0.96572 0.80437 0.39492 0.0
H1050 H 0.96947 0.83694 0.45684 0.0
H1051 H 0.03181 0.85269 0.55018 0.0
H1052 H 0.02135 0.95332 0.68939 0.0
H1053 H 1.01762 0.91688 0.65434 0.0
H1054 H 0.98463 0.90763 0.46236 0.0
C1055 C 0.98352 0.82846 0.44373 0.0
C1056 C 0.02138 0.8645 0.5306 0.0
C1057 C 0.98132 0.80949 0.40932 0.0
C1058 C 1.01919 0.95003 0.63726 0.0
C1059 C 1.01703 0.92903 0.61715 0.0
C1060 C 0.99508 0.89584 0.48203 0.0
C1061 C 1.0035 0.837 0.4576 0.0
C1062 C 1.00576 0.85902 0.48395 0.0
C1063 C 1.01355 0.92378 0.55017 0.0
C1064 C 1.01071 0.90136 0.52846 0.0
H1065 H 0.03293 0.79809 0.38842 0.0
H1066 H 0.03686 0.83085 0.45032 0.0
H1067 H 0.98052 0.87173 0.42401 0.0
H1068 H 1.01539 0.97311 0.48601 0.0
H1069 H 1.01041 0.93697 0.45168 0.0
C1070 C 0.74413 0.01925 0.37477 0.0
C1071 C 0.75315 0.99926 0.37088 0.0
C1072 C 0.72481 0.02233 0.40761 0.0
C1073 C 0.67659 0.99211 0.45519 0.0
H1074 H 0.66103 0.04233 0.54937 0.0
C1075 C 0.5948 0.99872 0.58237 0.0
C1076 C 0.58493 0.0183 0.58631 0.0
C1077 C 0.61561 0.99687 0.55978 0.0
C1078 C 0.66489 0.02825 0.52251 0.0
H1079 H 0.74912 0.96705 0.40078 0.0
H1080 H 0.71614 0.97242 0.45955 0.0
H1081 H 0.69669 0.03864 0.50684 0.0
H1082 H 0.58943 0.05129 0.56697 0.0
H1083 H 0.62543 0.04816 0.52705 0.0
H1084 H 0.64487 0.98181 0.46915 0.0
C1085 C 0.72366 0.98577 0.43648 0.0
C1086 C 0.68554 0.02611 0.49814 0.0
C1087 C 0.74288 0.98272 0.4038 0.0
C1088 C 0.59656 0.03599 0.56632 0.0
C1089 C 0.61737 0.03415 0.54325 0.0
C1090 C 0.65597 0.99429 0.47907 0.0
C1091 C 0.71384 1.00547 0.43703 0.0
C1092 C 0.69182 1.00794 0.46426 0.0
C1093 C 0.62735 1.01452 0.53937 0.0
C1094 C 0.64964 1.01236 0.5135 0.0
H1095 H 0.75123 0.03221 0.34838 0.0
H1096 H 0.71789 0.03773 0.40636 0.0
H1097 H 0.68042 0.97805 0.42813 0.0
H1098 H 0.58648 0.98471 0.59748 0.0
H1099 H 0.62253 0.98148 0.55916 0.0
C1100 C 0.53458 0.73969 0.35016 0.0
C1101 C 0.55032 0.75373 0.37102 0.0
C1102 C 0.53165 0.72034 0.38184 0.0
C1103 C 0.54474 0.68823 0.53225 0.0
H1104 H 0.53484 0.64218 0.41154 0.0
C1105 C 0.52735 0.60318 0.62835 0.0
C1106 C 0.53322 0.58598 0.58893 0.0
C1107 C 0.52939 0.62388 0.60492 0.0
C1108 C 0.53782 0.65466 0.44649 0.0
H1109 H 0.57514 0.75833 0.44299 0.0
H1110 H 0.56947 0.72489 0.50052 0.0
H1111 H 0.53831 0.67737 0.3684 0.0
H1112 H 0.54585 0.57782 0.49323 0.0
H1113 H 0.55067 0.61325 0.45416 0.0
H1114 H 0.54483 0.66538 0.61029 0.0
C1115 C 0.55927 0.7289 0.45947 0.0
C1116 C 0.53948 0.67512 0.4215 0.0
C1117 C 0.56238 0.74826 0.42701 0.0
C1118 C 0.54132 0.59034 0.52557 0.0
C1119 C 0.54378 0.61096 0.50262 0.0
C1120 C 0.54308 0.66768 0.55741 0.0
C1121 C 0.54436 0.71426 0.43578 0.0
C1122 C 0.54282 0.69234 0.46379 0.0
C1123 C 0.53766 0.62823 0.5414 0.0
C1124 C 0.53956 0.65043 0.51501 0.0
H1125 H 0.5255 0.74306 0.30593 0.0
H1126 H 0.5198 0.70981 0.36239 0.0
H1127 H 0.54726 0.70096 0.5667 0.0
H1128 H 0.52085 0.60067 0.67725 0.0
H1129 H 0.52408 0.63643 0.6365 0.0
C1130 C 0.80731 0.56804 0.41977 0.0
C1131 C 0.79765 0.55243 0.38097 0.0
C1132 C 0.82665 0.5645 0.45157 0.0
C1133 C 0.87428 0.53126 0.43492 0.0
H1134 H 0.89101 0.55788 0.59936 0.0
C1135 C 0.96205 0.53679 0.51653 0.0
C1136 C 0.96704 0.53493 0.58441 0.0
C1137 C 0.94108 0.5381 0.49491 0.0
C1138 C 0.88665 0.55014 0.55362 0.0
H1139 H 0.80067 0.52064 0.34672 0.0
H1140 H 0.83408 0.51412 0.40357 0.0
H1141 H 0.85477 0.56058 0.56088 0.0
H1142 H 0.9534 0.53275 0.68253 0.0
H1143 H 0.91697 0.5349 0.64503 0.0
H1144 H 0.9061 0.52071 0.42778 0.0
C1145 C 0.8268 0.52925 0.4092 0.0
C1146 C 0.86578 0.55188 0.53107 0.0
C1147 C 0.80736 0.5328 0.37767 0.0
C1148 C 0.95031 0.53431 0.62993 0.0
C1149 C 0.92931 0.53566 0.6083 0.0
C1150 C 0.89515 0.52959 0.45733 0.0
C1151 C 0.83713 0.54527 0.44493 0.0
C1152 C 0.85921 0.54252 0.47117 0.0
C1153 C 0.92429 0.53758 0.54036 0.0
C1154 C 0.90177 0.53907 0.51697 0.0
H1155 H 0.80059 0.58354 0.4217 0.0
H1156 H 0.83399 0.57735 0.47782 0.0
H1157 H 0.87011 0.52406 0.38814 0.0
H1158 H 0.97437 0.5372 0.47971 0.0
H1159 H 0.93808 0.53982 0.44233 0.0
loop_
_geom_bond_atom_site_label_1
_geom_bond_atom_site_label_2
_geom_bond_distance
_geom_bond_site_symmetry_2
_ccdc_geom_bond_type
H0 C7 0.929 . S
H1 C10 0.930 . S
H2 C12 0.929 . S
H3 C4 0.969 . S
C4 H3 0.969 . S
C4 O5 1.550 . S
C4 H6 0.973 . S
O5 C4 1.550 . S
O5 C11 1.412 . S
H6 C4 0.973 . S
C7 H0 0.929 . S
C7 C8 1.400 . S
C7 C9 1.364 . S
C8 C7 1.400 . S
C8 C12 1.377 . S
C9 C7 1.364 . S
C9 C10 1.374 . S
C10 H1 0.930 . S
C10 C9 1.374 . S
C10 C11 1.383 . S
C11 O5 1.412 . S
C11 C10 1.383 . S
C11 C12 1.394 . S
C12 H2 0.929 . S
C12 C8 1.377 . S
C12 C11 1.394 . S
H13 C20 0.929 . S
H14 C23 0.930 . S
H15 C25 0.929 . S
H16 C17 0.969 . S
C17 H16 0.969 . S
C17 O18 1.550 . S
C17 H19 0.973 . S
O18 C17 1.550 . S
O18 C24 1.412 . S
H19 C17 0.973 . S
C20 H13 0.929 . S
C20 C21 1.400 . S
C20 C22 1.364 . S
C21 C20 1.400 . S
C21 C25 1.377 . S
C22 C20 1.364 . S
C22 C23 1.374 . S
C23 H14 0.930 . S
C23 C22 1.374 . S
C23 C24 1.383 . S
C24 O18 1.412 . S
C24 C23 1.383 . S
C24 C25 1.394 . S
C25 H15 0.929 . S
C25 C21 1.377 . S
C25 C24 1.394 . S
H26 C33 0.929 . S
H27 C36 0.930 . S
H28 C38 0.929 . S
H29 C30 0.969 . S
C30 H29 0.969 . S
C30 O31 1.550 . S
C30 H32 0.973 . S
O31 C30 1.550 . S
O31 C37 1.412 . S
H32 C30 0.973 . S
C33 H26 0.929 . S
C33 C34 1.400 . S
C33 C35 1.364 . S
C34 C33 1.400 . S
C34 C38 1.377 . S
C35 C33 1.364 . S
C35 C36 1.374 . S
C36 H27 0.930 . S
C36 C35 1.374 . S
C36 C37 1.383 . S
C37 O31 1.412 . S
C37 C36 1.383 . S
C37 C38 1.394 . S
C38 H28 0.929 . S
C38 C34 1.377 . S
C38 C37 1.394 . S
H39 C46 0.929 . S
H40 C49 0.930 . S
H41 C51 0.929 . S
H42 C43 0.969 . S
C43 H42 0.969 . S
C43 O44 1.550 . S
C43 H45 0.973 . S
O44 C43 1.550 . S
O44 C50 1.412 . S
H45 C43 0.973 . S
C46 H39 0.929 . S
C46 C47 1.400 . S
C46 C48 1.364 . S
C47 C46 1.400 . S
C47 C51 1.377 . S
C48 C46 1.364 . S
C48 C49 1.374 . S
C49 H40 0.930 . S
C49 C48 1.374 . S
C49 C50 1.383 . S
C50 O44 1.412 . S
C50 C49 1.383 . S
C50 C51 1.394 . S
C51 H41 0.929 . S
C51 C47 1.377 . S
C51 C50 1.394 . S
H52 C59 0.929 . S
H53 C62 0.930 . S
H54 C64 0.929 . S
H55 C56 0.969 . S
C56 H55 0.969 . S
C56 O57 1.550 . S
C56 H58 0.973 . S
O57 C56 1.550 . S
O57 C63 1.412 . S
H58 C56 0.973 . S
C59 H52 0.929 . S
C59 C60 1.400 1_554 S
C59 C61 1.364 . S
C60 C59 1.400 1_556 S
C60 C64 1.377 . S
C61 C59 1.364 . S
C61 C62 1.374 . S
C62 H53 0.930 . S
C62 C61 1.374 . S
C62 C63 1.383 . S
C63 O57 1.412 . S
C63 C62 1.383 . S
C63 C64 1.394 1_554 S
C64 H54 0.929 . S
C64 C60 1.377 . S
C64 C63 1.394 1_556 S
H65 C72 0.929 . S
H66 C75 0.930 . S
H67 C77 0.929 . S
H68 C69 0.969 . S
C69 H68 0.969 . S
C69 O70 1.550 . S
C69 H71 0.973 . S
O70 C69 1.550 . S
O70 C76 1.412 . S
H71 C69 0.973 . S
C72 H65 0.929 . S
C72 C73 1.400 1_554 S
C72 C74 1.364 . S
C73 C72 1.400 1_556 S
C73 C77 1.377 . S
C74 C72 1.364 . S
C74 C75 1.374 . S
C75 H66 0.930 . S
C75 C74 1.374 . S
C75 C76 1.383 . S
C76 O70 1.412 . S
C76 C75 1.383 . S
C76 C77 1.394 1_554 S
C77 H67 0.929 . S
C77 C73 1.377 . S
C77 C76 1.394 1_556 S
H78 C85 0.929 . S
H79 C88 0.930 . S
H80 C90 0.929 . S
H81 C82 0.969 . S
C82 H81 0.969 . S
C82 O83 1.550 . S
C82 H84 0.973 . S
O83 C82 1.550 . S
O83 C89 1.412 . S
H84 C82 0.973 . S
C85 H78 0.929 . S
C85 C86 1.400 1_554 S
C85 C87 1.364 . S
C86 C85 1.400 1_556 S
C86 C90 1.377 . S
C87 C85 1.364 . S
C87 C88 1.374 . S
C88 H79 0.930 . S
C88 C87 1.374 . S
C88 C89 1.383 . S
C89 O83 1.412 . S
C89 C88 1.383 . S
C89 C90 1.394 1_554 S
C90 H80 0.929 . S
C90 C86 1.377 . S
C90 C89 1.394 1_556 S
H91 C98 0.929 . S
H92 C101 0.930 . S
H93 C103 0.929 . S
H94 C95 0.969 . S
C95 H94 0.969 . S
C95 O96 1.550 . S
C95 H97 0.973 . S
O96 C95 1.550 . S
O96 C102 1.412 . S
H97 C95 0.973 . S
C98 H91 0.929 . S
C98 C99 1.400 1_554 S
C98 C100 1.364 . S
C99 C98 1.400 1_556 S
C99 C103 1.377 . S
C100 C98 1.364 . S
C100 C101 1.374 . S
C101 H92 0.930 . S
C101 C100 1.374 . S
C101 C102 1.383 . S
C102 O96 1.412 . S
C102 C101 1.383 . S
C102 C103 1.394 1_554 S
C103 H93 0.929 . S
C103 C99 1.377 . S
C103 C102 1.394 1_556 S
Tb104 N133 2.617 . S
Tb104 N139 2.572 . S
Tb104 O148 2.465 1_655 S
Tb104 O149 2.387 1_545 S
Tb104 O151 2.428 . S
Tb104 O152 2.308 1_655 S
Tb104 O156 2.349 1_655 S
Tb104 O159 2.393 . S
Tb104 C168 2.802 . S
C105 N106 1.379 . S
C105 C108 1.416 . S
C105 C112 1.424 . S
N106 C105 1.379 . S
N106 C109 1.339 . S
N106 Tb115 2.617 1_545 S
C107 C109 1.404 . S
C107 C110 1.339 . S
C107 H127 0.930 . S
C108 C105 1.416 . S
C108 C110 1.416 . S
C108 C114 1.448 . S
C109 N106 1.339 . S
C109 C107 1.404 . S
C109 H120 0.913 1_545 S
C110 C107 1.339 . S
C110 C108 1.416 . S
C110 H131 0.930 . S
C111 C112 1.413 . S
C111 C113 1.427 . S
C111 C117 1.416 . S
C112 C105 1.424 . S
C112 C111 1.413 . S
C112 N116 1.361 . S
C113 C111 1.427 . S
C113 C114 1.328 . S
C113 H128 0.929 . S
C114 C108 1.448 . S
C114 C113 1.328 . S
C114 H129 0.930 . S
Tb115 N106 2.617 1_565 S
Tb115 N116 2.572 1_565 S
Tb115 O150 2.349 . S
Tb115 O153 2.393 . S
Tb115 O154 2.465 . S
Tb115 O155 2.387 1_565 S
Tb115 O157 2.428 . S
Tb115 O158 2.308 1_465 S
Tb115 C179 2.802 . S
N116 C112 1.361 . S
N116 Tb115 2.572 1_545 S
N116 C118 1.340 . S
C117 C111 1.416 . S
C117 C119 1.332 . S
C117 H125 0.931 . S
C118 N116 1.340 . S
C118 C119 1.407 . S
C118 H124 0.930 1_455 S
C119 C117 1.332 . S
C119 C118 1.407 . S
C119 H121 0.929 1_455 S
H120 C109 0.913 1_565 S
H121 C119 0.929 1_655 S
H122 C137 0.930 . S
H123 C144 0.934 . S
H124 C118 0.930 1_655 S
H125 C117 0.931 . S
H126 C140 0.930 . S
H127 C107 0.930 . S
H128 C113 0.929 . S
H129 C114 0.930 . S
H130 C135 0.930 . S
H131 C110 0.930 . S
H132 C143 0.931 . S
N133 Tb104 2.617 . S
N133 C134 1.379 . S
N133 C137 1.334 . S
C134 N133 1.379 . S
C134 C136 1.416 1_545 S
C134 C142 1.424 . S
C135 H130 0.930 . S
C135 C137 1.390 . S
C135 C138 1.335 1_545 S
C136 C134 1.416 1_565 S
C136 C138 1.417 . S
C136 C169 1.448 . S
C137 H122 0.930 . S
C137 N133 1.334 . S
C137 C135 1.390 . S
C138 C135 1.335 1_565 S
C138 C136 1.417 . S
C138 H145 0.933 . S
N139 Tb104 2.572 . S
N139 C140 1.340 1_655 S
N139 C142 1.361 . S
C140 H126 0.930 . S
C140 N139 1.340 1_455 S
C140 C144 1.388 1_545 S
C141 C142 1.413 1_565 S
C141 C143 1.416 . S
C141 C170 1.427 . S
C142 C134 1.424 . S
C142 N139 1.361 . S
C142 C141 1.413 1_545 S
C143 H132 0.931 . S
C143 C141 1.416 . S
C143 C144 1.348 1_655 S
C144 H123 0.934 . S
C144 C140 1.388 1_565 S
C144 C143 1.348 1_455 S
H145 C138 0.933 . S
H146 C169 0.930 . S
H147 C170 0.929 . S
O148 Tb104 2.465 1_455 S
O148 C168 1.264 1_455 S
O149 Tb104 2.387 1_565 S
O149 C160 1.264 . S
O150 Tb115 2.349 . S
O150 C160 1.243 1_455 S
O151 Tb104 2.428 . S
O151 C168 1.256 . S
O152 Tb104 2.308 1_455 S
O152 C167 1.266 . S
O153 Tb115 2.393 . S
O153 C167 1.248 1_565 S
O154 Tb115 2.465 . S
O154 C179 1.264 . S
O155 Tb115 2.387 1_545 S
O155 C171 1.264 . S
O156 Tb104 2.349 1_455 S
O156 C171 1.243 . S
O157 Tb115 2.428 . S
O157 C179 1.256 . S
O158 Tb115 2.308 1_645 S
O158 C178 1.266 . S
O159 Tb104 2.393 . S
O159 C178 1.248 . S
C160 O149 1.264 . S
C160 O150 1.243 1_655 S
C161 C164 1.399 . S
C161 C166 1.357 1_655 S
C161 C168 1.496 . S
C162 C163 1.399 . S
C162 C166 1.386 1_655 S
C163 C162 1.399 . S
C163 C165 1.380 . S
C163 H180 0.929 . S
C164 C161 1.399 . S
C164 C165 1.392 . S
C164 H181 0.929 . S
C165 C163 1.380 . S
C165 C164 1.392 . S
C165 H182 0.929 . S
C166 C161 1.357 1_455 S
C166 C162 1.386 1_455 S
C166 H183 0.962 . S
C167 O152 1.266 . S
C167 O153 1.248 1_545 S
C168 Tb104 2.802 . S
C168 O148 1.264 1_655 S
C168 O151 1.256 . S
C168 C161 1.496 . S
C169 C136 1.448 . S
C169 H146 0.930 . S
C169 C170 1.328 . S
C170 C141 1.427 . S
C170 H147 0.929 . S
C170 C169 1.328 . S
C171 O155 1.264 . S
C171 O156 1.243 . S
C172 C175 1.399 . S
C172 C176 1.383 . S
C172 C179 1.496 . S
C173 C174 1.399 . S
C173 C176 1.389 . S
C174 C173 1.399 . S
C174 C177 1.380 . S
C174 H184 0.929 . S
C175 C172 1.399 . S
C175 C177 1.392 . S
C175 H185 0.929 . S
C176 C172 1.383 . S
C176 C173 1.389 . S
C176 H186 0.889 1_455 S
C177 C174 1.380 . S
C177 C175 1.392 . S
C177 H187 0.929 . S
C178 O158 1.266 . S
C178 O159 1.248 . S
C179 Tb115 2.802 . S
C179 O154 1.264 . S
C179 O157 1.256 . S
C179 C172 1.496 . S
H180 C163 0.929 . S
H181 C164 0.929 . S
H182 C165 0.929 . S
H183 C166 0.962 . S
H184 C174 0.929 . S
H185 C175 0.929 . S
H186 C176 0.889 1_655 S
H187 C177 0.929 . S
Tb188 N217 2.617 . S
Tb188 N223 2.572 . S
Tb188 O232 2.465 . S
Tb188 O233 2.387 . S
Tb188 O235 2.428 . S
Tb188 O236 2.308 . S
Tb188 O240 2.349 1_545 S
Tb188 O243 2.393 . S
Tb188 C252 2.802 . S
C189 N190 1.379 . S
C189 C192 1.416 . S
C189 C196 1.424 . S
N190 C189 1.379 . S
N190 C193 1.334 . S
N190 Tb199 2.617 . S
C191 C193 1.390 . S
C191 C194 1.339 . S
C191 H211 0.930 . S
C192 C189 1.416 . S
C192 C194 1.416 . S
C192 C198 1.448 . S
C193 N190 1.334 . S
C193 C191 1.390 . S
C193 H204 0.930 . S
C194 C191 1.339 . S
C194 C192 1.416 . S
C194 H215 0.930 . S
C195 C196 1.413 . S
C195 C197 1.427 . S
C195 C201 1.416 . S
C196 C189 1.424 . S
C196 C195 1.413 . S
C196 N200 1.361 . S
C197 C195 1.427 . S
C197 C198 1.328 . S
C197 H212 0.929 . S
C198 C192 1.448 . S
C198 C197 1.328 . S
C198 H213 0.930 . S
Tb199 N190 2.617 . S
Tb199 N200 2.572 . S
Tb199 O234 2.349 1_565 S
Tb199 O237 2.393 . S
Tb199 O238 2.473 . S
Tb199 O239 2.387 . S
Tb199 O241 2.428 . S
Tb199 O242 2.308 1_565 S
Tb199 C263 2.802 . S
N200 C196 1.361 . S
N200 Tb199 2.572 . S
N200 C202 1.340 . S
C201 C195 1.416 . S
C201 C203 1.332 . S
C201 H209 0.931 . S
C202 N200 1.340 . S
C202 C203 1.407 . S
C202 H208 0.930 . S
C203 C201 1.332 . S
C203 C202 1.407 . S
C203 H205 0.929 . S
H204 C193 0.930 . S
H205 C203 0.929 . S
H206 C221 0.930 . S
H207 C228 0.929 . S
H208 C202 0.930 . S
H209 C201 0.931 . S
H210 C224 0.930 . S
H211 C191 0.930 . S
H212 C197 0.929 . S
H213 C198 0.930 . S
H214 C219 0.930 . S
H215 C194 0.930 . S
H216 C227 0.931 . S
N217 Tb188 2.617 . S
N217 C218 1.379 . S
N217 C221 1.334 . S
C218 N217 1.379 . S
C218 C220 1.416 . S
C218 C226 1.424 . S
C219 H214 0.930 . S
C219 C221 1.390 . S
C219 C222 1.339 . S
C220 C218 1.416 . S
C220 C222 1.416 . S
C220 C253 1.448 . S
C221 H206 0.930 . S
C221 N217 1.334 . S
C221 C219 1.390 . S
C222 C219 1.339 . S
C222 C220 1.416 . S
C222 H229 0.930 . S
N223 Tb188 2.572 . S
N223 C224 1.340 . S
N223 C226 1.361 . S
C224 H210 0.930 . S
C224 N223 1.340 . S
C224 C228 1.407 . S
C225 C226 1.413 . S
C225 C227 1.416 . S
C225 C254 1.427 . S
C226 C218 1.424 . S
C226 N223 1.361 . S
C226 C225 1.413 . S
C227 H216 0.931 . S
C227 C225 1.416 . S
C227 C228 1.332 . S
C228 H207 0.929 . S
C228 C224 1.407 . S
C228 C227 1.332 . S
H229 C222 0.930 . S
H230 C253 0.930 . S
H231 C254 0.929 . S
O232 Tb188 2.465 . S
O232 C252 1.264 . S
O233 Tb188 2.387 . S
O233 C244 1.264 . S
O234 Tb199 2.349 1_545 S
O234 C244 1.243 . S
O235 Tb188 2.428 . S
O235 C252 1.256 . S
O236 Tb188 2.308 . S
O236 C251 1.266 . S
O237 Tb199 2.393 . S
O237 C251 1.248 1_565 S
O238 Tb199 2.473 . S
O238 C263 1.269 . S
O239 Tb199 2.387 . S
O239 C255 1.264 . S
O240 Tb188 2.349 1_565 S
O240 C255 1.243 . S
O241 Tb199 2.428 . S
O241 C263 1.256 . S
O242 Tb199 2.308 1_545 S
O242 C262 1.266 . S
O243 Tb188 2.393 . S
O243 C262 1.248 . S
C244 O233 1.264 . S
C244 O234 1.243 . S
C245 C248 1.399 . S
C245 C250 1.383 . S
C245 C252 1.496 . S
C246 C247 1.399 . S
C246 C250 1.389 . S
C247 C246 1.399 . S
C247 C249 1.380 . S
C247 H264 0.929 . S
C248 C245 1.399 . S
C248 C249 1.392 . S
C248 H265 0.929 . S
C249 C247 1.380 . S
C249 C248 1.392 . S
C249 H266 0.929 1_556 S
C250 C245 1.383 . S
C250 C246 1.389 . S
C250 H267 0.931 . S
C251 O236 1.266 . S
C251 O237 1.248 1_545 S
C252 Tb188 2.802 . S
C252 O232 1.264 . S
C252 O235 1.256 . S
C252 C245 1.496 . S
C253 C220 1.448 . S
C253 H230 0.930 . S
C253 C254 1.328 . S
C254 C225 1.427 . S
C254 H231 0.929 . S
C254 C253 1.328 . S
C255 O239 1.264 . S
C255 O240 1.243 . S
C256 C259 1.406 . S
C256 C260 1.374 1_565 S
C256 C263 1.500 . S
C257 C258 1.399 . S
C257 C260 1.389 . S
C258 C257 1.399 . S
C258 C261 1.380 1_545 S
C258 H268 0.929 . S
C259 C256 1.406 . S
C259 C261 1.392 . S
C259 H269 0.929 . S
C260 C256 1.374 1_545 S
C260 C257 1.389 . S
C260 H270 0.931 . S
C261 C258 1.380 1_565 S
C261 C259 1.392 . S
C261 H271 0.929 . S
C262 O242 1.266 . S
C262 O243 1.248 . S
C263 Tb199 2.802 . S
C263 O238 1.269 . S
C263 O241 1.256 . S
C263 C256 1.500 . S
H264 C247 0.929 . S
H265 C248 0.929 . S
H266 C249 0.929 1_554 S
H267 C250 0.931 . S
H268 C258 0.929 . S
H269 C259 0.929 . S
H270 C260 0.931 . S
H271 C261 0.929 . S
Tb272 N301 2.617 . S
Tb272 N307 2.572 . S
Tb272 O316 2.465 . S
Tb272 O317 2.387 . S
Tb272 O319 2.428 . S
Tb272 O320 2.308 . S
Tb272 O324 2.349 . S
Tb272 O327 2.393 . S
Tb272 C336 2.802 . S
C273 N274 1.379 . S
C273 C276 1.416 . S
C273 C280 1.424 . S
N274 C273 1.379 . S
N274 C277 1.334 . S
N274 Tb283 2.617 . S
C275 C277 1.390 . S
C275 C278 1.339 . S
C275 H295 0.930 . S
C276 C273 1.416 . S
C276 C278 1.416 . S
C276 C282 1.448 . S
C277 N274 1.334 . S
C277 C275 1.390 . S
C277 H288 0.930 . S
C278 C275 1.339 . S
C278 C276 1.416 . S
C278 H299 0.930 . S
C279 C280 1.413 . S
C279 C281 1.427 . S
C279 C285 1.416 . S
C280 C273 1.424 . S
C280 C279 1.413 . S
C280 N284 1.361 . S
C281 C279 1.427 . S
C281 C282 1.328 . S
C281 H296 0.929 . S
C282 C276 1.448 . S
C282 C281 1.328 . S
C282 H297 0.930 . S
Tb283 N274 2.617 . S
Tb283 N284 2.572 . S
Tb283 O318 2.349 . S
Tb283 O321 2.393 . S
Tb283 O322 2.465 . S
Tb283 O323 2.387 . S
Tb283 O325 2.428 . S
Tb283 O326 2.308 . S
Tb283 C347 2.802 . S
N284 C280 1.361 . S
N284 Tb283 2.572 . S
N284 C286 1.340 . S
C285 C279 1.416 . S
C285 C287 1.332 . S
C285 H293 0.931 . S
C286 N284 1.340 . S
C286 C287 1.407 . S
C286 H292 0.930 . S
C287 C285 1.332 . S
C287 C286 1.407 . S
C287 H289 0.929 . S
H288 C277 0.930 . S
H289 C287 0.929 . S
H290 C305 0.930 . S
H291 C312 0.929 . S
H292 C286 0.930 . S
H293 C285 0.931 . S
H294 C308 0.930 . S
H295 C275 0.930 . S
H296 C281 0.929 . S
H297 C282 0.930 . S
H298 C303 0.930 . S
H299 C278 0.930 . S
H300 C311 0.931 . S
N301 Tb272 2.617 . S
N301 C302 1.379 . S
N301 C305 1.334 . S
C302 N301 1.379 . S
C302 C304 1.416 . S
C302 C310 1.424 . S
C303 H298 0.930 . S
C303 C305 1.390 . S
C303 C306 1.339 . S
C304 C302 1.416 . S
C304 C306 1.416 . S
C304 C337 1.448 . S
C305 H290 0.930 . S
C305 N301 1.334 . S
C305 C303 1.390 . S
C306 C303 1.339 . S
C306 C304 1.416 . S
C306 H313 0.930 . S
N307 Tb272 2.572 . S
N307 C308 1.340 . S
N307 C310 1.361 . S
C308 H294 0.930 . S
C308 N307 1.340 . S
C308 C312 1.407 . S
C309 C310 1.413 . S
C309 C311 1.416 . S
C309 C338 1.427 . S
C310 C302 1.424 . S
C310 N307 1.361 . S
C310 C309 1.413 . S
C311 H300 0.931 . S
C311 C309 1.416 . S
C311 C312 1.332 . S
C312 H291 0.929 . S
C312 C308 1.407 . S
C312 C311 1.332 . S
H313 C306 0.930 . S
H314 C337 0.930 . S
H315 C338 0.929 . S
O316 Tb272 2.465 . S
O316 C336 1.264 . S
O317 Tb272 2.387 . S
O317 C328 1.264 . S
O318 Tb283 2.349 . S
O318 C328 1.243 . S
O319 Tb272 2.428 . S
O319 C336 1.256 . S
O320 Tb272 2.308 . S
O320 C335 1.266 . S
O321 Tb283 2.393 . S
O321 C335 1.248 . S
O322 Tb283 2.465 . S
O322 C347 1.264 . S
O323 Tb283 2.387 . S
O323 C339 1.264 . S
O324 Tb272 2.349 . S
O324 C339 1.243 . S
O325 Tb283 2.428 . S
O325 C347 1.256 . S
O326 Tb283 2.308 . S
O326 C346 1.266 . S
O327 Tb272 2.393 . S
O327 C346 1.248 . S
C328 O317 1.264 . S
C328 O318 1.243 . S
C329 C332 1.399 . S
C329 C334 1.383 . S
C329 C336 1.496 . S
C330 C331 1.399 . S
C330 C334 1.389 . S
C331 C330 1.399 . S
C331 C333 1.380 . S
C331 H348 0.929 . S
C332 C329 1.399 . S
C332 C333 1.392 . S
C332 H349 0.929 . S
C333 C331 1.380 . S
C333 C332 1.392 . S
C333 H350 0.929 . S
C334 C329 1.383 . S
C334 C330 1.389 . S
C334 H351 0.931 . S
C335 O320 1.266 . S
C335 O321 1.248 . S
C336 Tb272 2.802 . S
C336 O316 1.264 . S
C336 O319 1.256 . S
C336 C329 1.496 . S
C337 C304 1.448 . S
C337 H314 0.930 . S
C337 C338 1.328 . S
C338 C309 1.427 . S
C338 H315 0.929 . S
C338 C337 1.328 . S
C339 O323 1.264 . S
C339 O324 1.243 . S
C340 C343 1.399 . S
C340 C344 1.383 . S
C340 C347 1.496 . S
C341 C342 1.399 . S
C341 C344 1.389 . S
C342 C341 1.399 . S
C342 C345 1.380 . S
C342 H352 0.929 . S
C343 C340 1.399 . S
C343 C345 1.392 . S
C343 H353 0.929 . S
C344 C340 1.383 . S
C344 C341 1.389 . S
C344 H354 0.931 . S
C345 C342 1.380 . S
C345 C343 1.392 . S
C345 H355 0.929 . S
C346 O326 1.266 . S
C346 O327 1.248 . S
C347 Tb283 2.802 . S
C347 O322 1.264 . S
C347 O325 1.256 . S
C347 C340 1.496 . S
H348 C331 0.929 . S
H349 C332 0.929 . S
H350 C333 0.929 . S
H351 C334 0.931 . S
H352 C342 0.929 . S
H353 C343 0.929 . S
H354 C344 0.931 . S
H355 C345 0.929 . S
Tb356 N385 2.617 . S
Tb356 N391 2.572 . S
Tb356 O400 2.465 . S
Tb356 O401 2.387 1_455 S
Tb356 O403 2.428 . S
Tb356 O404 2.308 . S
Tb356 O408 2.349 . S
Tb356 O411 2.393 . S
Tb356 C420 2.802 . S
C357 N358 1.363 1_455 S
C357 C360 1.416 . S
C357 C364 1.424 . S
N358 C357 1.363 1_655 S
N358 C361 1.339 . S
N358 Tb367 2.626 . S
C359 C361 1.390 1_455 S
C359 C362 1.339 . S
C359 H379 0.930 . S
C360 C357 1.416 . S
C360 C362 1.416 . S
C360 C366 1.448 . S
C361 N358 1.339 . S
C361 C359 1.390 1_655 S
C361 H372 0.930 . S
C362 C359 1.339 . S
C362 C360 1.416 . S
C362 H383 0.930 . S
C363 C364 1.413 . S
C363 C365 1.427 . S
C363 C369 1.416 . S
C364 C357 1.424 . S
C364 C363 1.413 . S
C364 N368 1.361 . S
C365 C363 1.427 . S
C365 C366 1.328 . S
C365 H380 0.929 . S
C366 C360 1.448 . S
C366 C365 1.328 . S
C366 H381 0.930 . S
Tb367 N358 2.626 . S
Tb367 N368 2.572 1_655 S
Tb367 O402 2.349 . S
Tb367 O405 2.393 . S
Tb367 O406 2.465 . S
Tb367 O407 2.387 1_655 S
Tb367 O409 2.428 . S
Tb367 O410 2.293 1_655 S
Tb367 C431 2.802 . S
N368 C364 1.361 . S
N368 Tb367 2.572 1_455 S
N368 C370 1.340 . S
C369 C363 1.416 . S
C369 C371 1.332 . S
C369 H377 0.931 . S
C370 N368 1.340 . S
C370 C371 1.407 . S
C370 H376 0.941 . S
C371 C369 1.332 . S
C371 C370 1.407 . S
C371 H373 0.929 . S
H372 C361 0.930 . S
H373 C371 0.929 . S
H374 C389 0.930 . S
H375 C396 0.929 . S
H376 C370 0.941 . S
H377 C369 0.931 . S
H378 C392 0.930 . S
H379 C359 0.930 . S
H380 C365 0.929 . S
H381 C366 0.930 . S
H382 C387 0.930 . S
H383 C362 0.930 . S
H384 C395 0.931 . S
N385 Tb356 2.617 . S
N385 C386 1.379 . S
N385 C389 1.334 . S
C386 N385 1.379 . S
C386 C388 1.416 1_455 S
C386 C394 1.424 . S
C387 H382 0.930 . S
C387 C389 1.390 . S
C387 C390 1.339 1_455 S
C388 C386 1.416 1_655 S
C388 C390 1.416 . S
C388 C421 1.448 . S
C389 H374 0.930 . S
C389 N385 1.334 . S
C389 C387 1.390 . S
C390 C387 1.339 1_655 S
C390 C388 1.416 . S
C390 H397 0.930 . S
N391 Tb356 2.572 . S
N391 C392 1.340 . S
N391 C394 1.361 . S
C392 H378 0.930 . S
C392 N391 1.340 . S
C392 C396 1.407 1_455 S
C393 C394 1.413 1_655 S
C393 C395 1.416 . S
C393 C422 1.427 . S
C394 C386 1.424 . S
C394 N391 1.361 . S
C394 C393 1.413 1_455 S
C395 H384 0.931 . S
C395 C393 1.416 . S
C395 C396 1.332 . S
C396 H375 0.929 . S
C396 C392 1.407 1_655 S
C396 C395 1.332 . S
H397 C390 0.930 . S
H398 C421 0.930 . S
H399 C422 0.929 . S
O400 Tb356 2.465 . S
O400 C420 1.264 . S
O401 Tb356 2.387 1_655 S
O401 C412 1.264 . S
O402 Tb367 2.349 . S
O402 C412 1.243 . S
O403 Tb356 2.428 . S
O403 C420 1.256 . S
O404 Tb356 2.308 . S
O404 C419 1.266 . S
O405 Tb367 2.393 . S
O405 C419 1.248 1_655 S
O406 Tb367 2.465 . S
O406 C431 1.264 . S
O407 Tb367 2.387 1_455 S
O407 C423 1.264 . S
O408 Tb356 2.349 . S
O408 C423 1.243 . S
O409 Tb367 2.428 . S
O409 C431 1.256 . S
O410 Tb367 2.293 1_455 S
O410 C430 1.279 . S
O411 Tb356 2.393 . S
O411 C430 1.248 . S
C412 O401 1.264 . S
C412 O402 1.243 . S
C413 C416 1.399 . S
C413 C418 1.383 . S
C413 C420 1.496 . S
C414 C415 1.399 . S
C414 C418 1.389 . S
C415 C414 1.399 . S
C415 C417 1.380 . S
C415 H432 0.929 . S
C416 C413 1.399 . S
C416 C417 1.392 . S
C416 H433 0.929 . S
C417 C415 1.380 . S
C417 C416 1.392 . S
C417 H434 0.929 . S
C418 C413 1.383 . S
C418 C414 1.389 . S
C418 H435 0.931 . S
C419 O404 1.266 . S
C419 O405 1.248 1_455 S
C420 Tb356 2.802 . S
C420 O400 1.264 . S
C420 O403 1.256 . S
C420 C413 1.496 . S
C421 C388 1.448 . S
C421 H398 0.930 . S
C421 C422 1.328 . S
C422 C393 1.427 . S
C422 H399 0.929 . S
C422 C421 1.328 . S
C423 O407 1.264 . S
C423 O408 1.243 . S
C424 C427 1.399 . S
C424 C428 1.383 . S
C424 C431 1.496 . S
C425 C426 1.399 . S
C425 C428 1.389 . S
C426 C425 1.399 . S
C426 C429 1.380 . S
C426 H436 0.929 . S
C427 C424 1.399 . S
C427 C429 1.392 . S
C427 H437 0.929 . S
C428 C424 1.383 . S
C428 C425 1.389 . S
C428 H438 0.931 . S
C429 C426 1.380 . S
C429 C427 1.392 . S
C429 H439 0.929 . S
C430 O410 1.279 . S
C430 O411 1.248 . S
C431 Tb367 2.802 . S
C431 O406 1.264 . S
C431 O409 1.256 . S
C431 C424 1.496 . S
H432 C415 0.929 . S
H433 C416 0.929 . S
H434 C417 0.929 . S
H435 C418 0.931 . S
H436 C426 0.929 . S
H437 C427 0.929 . S
H438 C428 0.931 . S
H439 C429 0.929 . S
C440 C441 1.349 . S
C440 C442 1.327 . S
C440 H465 0.950 . S
C441 C440 1.349 . S
C441 C457 1.349 . S
C442 C440 1.327 . S
C442 C461 1.429 . S
C442 H466 0.950 . S
C443 C460 1.574 . S
C443 C462 1.368 . S
C443 H467 0.949 . S
H444 C448 0.949 . S
C445 C446 1.349 . S
C445 C447 1.327 . S
C445 H468 0.950 1_545 S
C446 C445 1.349 . S
C446 C458 1.349 . S
C447 C445 1.327 . S
C447 C463 1.429 . S
C447 H469 0.939 1_545 S
C448 H444 0.949 . S
C448 C456 1.574 . S
C448 C464 1.368 . S
H449 C457 0.950 . S
H450 C455 0.950 . S
H451 C456 0.949 . S
H452 C458 0.950 . S
H453 C459 0.950 . S
H454 C460 0.949 . S
C455 H450 0.950 . S
C455 C457 1.327 . S
C455 C461 1.429 . S
C456 C448 1.574 . S
C456 H451 0.949 . S
C456 C462 1.368 . S
C457 C441 1.349 . S
C457 H449 0.950 . S
C457 C455 1.327 . S
C458 C446 1.349 . S
C458 H452 0.950 . S
C458 C459 1.327 . S
C459 H453 0.950 . S
C459 C458 1.327 . S
C459 C463 1.429 . S
C460 C443 1.574 . S
C460 H454 0.949 . S
C460 C464 1.368 . S
C461 C442 1.429 . S
C461 C455 1.429 . S
C461 C462 1.523 . S
C462 C443 1.368 . S
C462 C456 1.368 . S
C462 C461 1.523 . S
C463 C447 1.429 . S
C463 C459 1.429 . S
C463 C464 1.523 . S
C464 C448 1.368 . S
C464 C460 1.368 . S
C464 C463 1.523 . S
H465 C440 0.950 . S
H466 C442 0.950 . S
H467 C443 0.949 . S
H468 C445 0.950 1_565 S
H469 C447 0.939 1_565 S
C470 C471 1.349 . S
C470 C472 1.327 . S
C470 H495 0.950 . S
C471 C470 1.349 . S
C471 C487 1.349 . S
C472 C470 1.327 . S
C472 C491 1.429 . S
C472 H496 0.950 . S
C473 C490 1.574 . S
C473 C492 1.368 . S
C473 H497 0.949 . S
H474 C478 0.949 . S
C475 C476 1.349 . S
C475 C477 1.327 . S
C475 H498 0.950 . S
C476 C475 1.349 . S
C476 C488 1.349 . S
C477 C475 1.327 . S
C477 C493 1.429 . S
C477 H499 0.950 . S
C478 H474 0.949 . S
C478 C486 1.574 . S
C478 C494 1.368 . S
H479 C487 0.950 . S
H480 C485 0.950 . S
H481 C486 0.949 . S
H482 C488 0.950 . S
H483 C489 0.950 . S
H484 C490 0.949 . S
C485 H480 0.950 . S
C485 C487 1.327 . S
C485 C491 1.429 . S
C486 C478 1.574 . S
C486 H481 0.949 . S
C486 C492 1.368 . S
C487 C471 1.349 . S
C487 H479 0.950 . S
C487 C485 1.327 . S
C488 C476 1.349 . S
C488 H482 0.950 . S
C488 C489 1.327 . S
C489 H483 0.950 . S
C489 C488 1.327 . S
C489 C493 1.429 . S
C490 C473 1.574 . S
C490 H484 0.949 . S
C490 C494 1.368 . S
C491 C472 1.429 . S
C491 C485 1.429 . S
C491 C492 1.523 . S
C492 C473 1.368 . S
C492 C486 1.368 . S
C492 C491 1.523 . S
C493 C477 1.429 . S
C493 C489 1.429 . S
C493 C494 1.523 . S
C494 C478 1.368 . S
C494 C490 1.368 . S
C494 C493 1.523 . S
H495 C470 0.950 . S
H496 C472 0.950 . S
H497 C473 0.949 . S
H498 C475 0.950 . S
H499 C477 0.950 . S
C500 C501 1.349 . S
C500 C502 1.327 . S
C500 H525 0.950 . S
C501 C500 1.349 . S
C501 C517 1.349 . S
C502 C500 1.327 . S
C502 C521 1.429 . S
C502 H526 0.950 . S
C503 C520 1.574 . S
C503 C522 1.368 . S
C503 H527 0.949 . S
H504 C508 0.949 . S
C505 C506 1.349 . S
C505 C507 1.327 . S
C505 H528 0.950 . S
C506 C505 1.349 . S
C506 C518 1.349 . S
C507 C505 1.327 . S
C507 C523 1.429 . S
C507 H529 0.950 . S
C508 H504 0.949 . S
C508 C516 1.574 . S
C508 C524 1.368 . S
H509 C517 0.950 . S
H510 C515 0.950 . S
H511 C516 0.949 . S
H512 C518 0.950 . S
H513 C519 0.950 . S
H514 C520 0.949 . S
C515 H510 0.950 . S
C515 C517 1.327 . S
C515 C521 1.429 . S
C516 C508 1.574 . S
C516 H511 0.949 . S
C516 C522 1.368 . S
C517 C501 1.349 . S
C517 H509 0.950 . S
C517 C515 1.327 . S
C518 C506 1.349 . S
C518 H512 0.950 . S
C518 C519 1.327 . S
C519 H513 0.950 . S
C519 C518 1.327 . S
C519 C523 1.429 . S
C520 C503 1.574 . S
C520 H514 0.949 . S
C520 C524 1.368 . S
C521 C502 1.429 . S
C521 C515 1.429 . S
C521 C522 1.523 . S
C522 C503 1.368 . S
C522 C516 1.368 . S
C522 C521 1.523 . S
C523 C507 1.429 . S
C523 C519 1.429 . S
C523 C524 1.523 . S
C524 C508 1.368 . S
C524 C520 1.368 . S
C524 C523 1.523 . S
H525 C500 0.950 . S
H526 C502 0.950 . S
H527 C503 0.949 . S
H528 C505 0.950 . S
H529 C507 0.950 . S
C530 C531 1.349 . S
C530 C532 1.327 . S
C530 H555 0.950 . S
C531 C530 1.349 . S
C531 C547 1.349 . S
C532 C530 1.327 . S
C532 C551 1.429 . S
C532 H556 0.950 . S
C533 C550 1.574 . S
C533 C552 1.368 . S
C533 H557 0.949 . S
H534 C538 0.949 . S
C535 C536 1.349 . S
C535 C537 1.327 . S
C535 H558 0.950 . S
C536 C535 1.349 . S
C536 C548 1.349 . S
C537 C535 1.327 . S
C537 C553 1.429 . S
C537 H559 0.950 . S
C538 H534 0.949 . S
C538 C546 1.574 . S
C538 C554 1.368 . S
H539 C547 0.950 . S
H540 C545 0.950 . S
H541 C546 0.949 . S
H542 C548 0.950 . S
H543 C549 0.950 . S
H544 C550 0.949 . S
C545 H540 0.950 . S
C545 C547 1.327 . S
C545 C551 1.429 . S
C546 C538 1.574 . S
C546 H541 0.949 . S
C546 C552 1.368 . S
C547 C531 1.349 . S
C547 H539 0.950 . S
C547 C545 1.327 . S
C548 C536 1.349 . S
C548 H542 0.950 . S
C548 C549 1.327 . S
C549 H543 0.950 . S
C549 C548 1.327 . S
C549 C553 1.429 . S
C550 C533 1.574 . S
C550 H544 0.949 . S
C550 C554 1.368 . S
C551 C532 1.429 . S
C551 C545 1.429 . S
C551 C552 1.523 . S
C552 C533 1.368 . S
C552 C546 1.368 . S
C552 C551 1.523 . S
C553 C537 1.429 . S
C553 C549 1.429 . S
C553 C554 1.523 . S
C554 C538 1.368 . S
C554 C550 1.368 . S
C554 C553 1.523 . S
H555 C530 0.950 . S
H556 C532 0.950 . S
H557 C533 0.949 . S
H558 C535 0.950 . S
H559 C537 0.950 . S
C560 C561 1.349 . S
C560 C562 1.327 . S
C560 H585 0.950 . S
C561 C560 1.349 . S
C561 C577 1.349 . S
C562 C560 1.327 . S
C562 C581 1.429 . S
C562 H586 0.950 . S
C563 C580 1.574 1_554 S
C563 C582 1.368 1_544 S
C563 H587 0.949 . S
H564 C568 0.949 . S
C565 C566 1.352 . S
C565 C567 1.327 . S
C565 H588 0.950 . S
C566 C565 1.352 . S
C566 C578 1.345 1_545 S
C567 C565 1.327 . S
C567 C583 1.429 1_545 S
C567 H589 0.950 . S
C568 H564 0.949 . S
C568 C576 1.574 . S
C568 C584 1.368 . S
H569 C577 0.950 1_545 S
H570 C575 0.950 1_545 S
H571 C576 0.949 . S
H572 C578 0.950 . S
H573 C579 0.950 . S
H574 C580 0.949 . S
C575 H570 0.950 1_565 S
C575 C577 1.327 . S
C575 C581 1.429 . S
C576 C568 1.574 . S
C576 H571 0.949 . S
C576 C582 1.368 . S
C577 C561 1.349 . S
C577 H569 0.950 1_565 S
C577 C575 1.327 . S
C578 C566 1.345 1_565 S
C578 H572 0.950 . S
C578 C579 1.327 . S
C579 H573 0.950 . S
C579 C578 1.327 . S
C579 C583 1.429 . S
C580 C563 1.574 1_556 S
C580 H574 0.949 . S
C580 C584 1.368 1_545 S
C581 C562 1.429 . S
C581 C575 1.429 . S
C581 C582 1.523 1_554 S
C582 C563 1.368 1_566 S
C582 C576 1.368 . S
C582 C581 1.523 1_556 S
C583 C567 1.429 1_565 S
C583 C579 1.429 . S
C583 C584 1.523 . S
C584 C568 1.368 . S
C584 C580 1.368 1_565 S
C584 C583 1.523 . S
H585 C560 0.950 . S
H586 C562 0.950 . S
H587 C563 0.949 . S
H588 C565 0.950 . S
H589 C567 0.950 . S
C590 C591 1.349 . S
C590 C592 1.327 . S
C590 H615 0.950 . S
C591 C590 1.349 . S
C591 C607 1.349 . S
C592 C590 1.327 . S
C592 C611 1.429 . S
C592 H616 0.950 . S
C593 C610 1.574 1_554 S
C593 C612 1.368 . S
C593 H617 0.949 . S
H594 C598 0.949 . S
C595 C596 1.349 . S
C595 C597 1.327 . S
C595 H618 0.950 . S
C596 C595 1.349 . S
C596 C608 1.349 . S
C597 C595 1.327 . S
C597 C613 1.429 . S
C597 H619 0.950 . S
C598 H594 0.949 . S
C598 C606 1.574 . S
C598 C614 1.368 . S
H599 C607 0.950 . S
H600 C605 0.950 . S
H601 C606 0.949 . S
H602 C608 0.950 . S
H603 C609 0.950 . S
H604 C610 0.949 . S
C605 H600 0.950 . S
C605 C607 1.327 . S
C605 C611 1.429 . S
C606 C598 1.574 . S
C606 H601 0.949 . S
C606 C612 1.368 1_556 S
C607 C591 1.349 . S
C607 H599 0.950 . S
C607 C605 1.327 . S
C608 C596 1.349 . S
C608 H602 0.950 . S
C608 C609 1.327 . S
C609 H603 0.950 . S
C609 C608 1.327 . S
C609 C613 1.429 . S
C610 C593 1.574 1_556 S
C610 H604 0.949 . S
C610 C614 1.368 . S
C611 C592 1.429 . S
C611 C605 1.429 . S
C611 C612 1.523 . S
C612 C593 1.368 . S
C612 C606 1.368 1_554 S
C612 C611 1.523 . S
C613 C597 1.429 . S
C613 C609 1.429 . S
C613 C614 1.523 . S
C614 C598 1.368 . S
C614 C610 1.368 . S
C614 C613 1.523 . S
H615 C590 0.950 . S
H616 C592 0.950 . S
H617 C593 0.949 . S
H618 C595 0.950 . S
H619 C597 0.950 . S
C620 C621 1.349 . S
C620 C622 1.327 . S
C620 H645 0.950 . S
C621 C620 1.349 . S
C621 C637 1.349 . S
C622 C620 1.327 . S
C622 C641 1.429 . S
C622 H646 0.950 . S
C623 C640 1.574 1_554 S
C623 C642 1.368 1_554 S
C623 H647 0.949 . S
H624 C628 0.949 . S
C625 C626 1.349 . S
C625 C627 1.327 . S
C625 H648 0.950 . S
C626 C625 1.349 . S
C626 C638 1.349 . S
C627 C625 1.327 . S
C627 C643 1.429 . S
C627 H649 0.950 . S
C628 H624 0.949 . S
C628 C636 1.574 . S
C628 C644 1.368 . S
H629 C637 0.950 . S
H630 C635 0.950 . S
H631 C636 0.949 . S
H632 C638 0.950 . S
H633 C639 0.950 . S
H634 C640 0.949 . S
C635 H630 0.950 . S
C635 C637 1.327 . S
C635 C641 1.429 . S
C636 C628 1.574 . S
C636 H631 0.949 . S
C636 C642 1.368 . S
C637 C621 1.349 . S
C637 H629 0.950 . S
C637 C635 1.327 . S
C638 C626 1.349 . S
C638 H632 0.950 . S
C638 C639 1.327 . S
C639 H633 0.950 . S
C639 C638 1.327 . S
C639 C643 1.429 . S
C640 C623 1.574 1_556 S
C640 H634 0.949 . S
C640 C644 1.368 . S
C641 C622 1.429 . S
C641 C635 1.429 . S
C641 C642 1.523 1_554 S
C642 C623 1.368 1_556 S
C642 C636 1.368 . S
C642 C641 1.523 1_556 S
C643 C627 1.429 . S
C643 C639 1.429 . S
C643 C644 1.523 . S
C644 C628 1.368 . S
C644 C640 1.368 . S
C644 C643 1.523 . S
H645 C620 0.950 . S
H646 C622 0.950 . S
H647 C623 0.949 . S
H648 C625 0.950 . S
H649 C627 0.950 . S
C650 C651 1.349 . S
C650 C652 1.327 . S
C650 H675 0.950 . S
C651 C650 1.349 . S
C651 C667 1.349 . S
C652 C650 1.327 . S
C652 C671 1.429 . S
C652 H676 0.950 1_554 S
C653 C670 1.574 1_554 S
C653 C672 1.368 1_554 S
C653 H677 0.949 . S
H654 C658 0.949 . S
C655 C656 1.349 . S
C655 C657 1.327 . S
C655 H678 0.950 . S
C656 C655 1.349 . S
C656 C668 1.349 . S
C657 C655 1.327 . S
C657 C673 1.429 . S
C657 H679 0.950 . S
C658 H654 0.949 . S
C658 C666 1.574 . S
C658 C674 1.368 . S
H659 C667 0.950 . S
H660 C665 0.950 . S
H661 C666 0.949 . S
H662 C668 0.950 . S
H663 C669 0.950 . S
H664 C670 0.949 . S
C665 H660 0.950 . S
C665 C667 1.327 . S
C665 C671 1.429 . S
C666 C658 1.574 . S
C666 H661 0.949 . S
C666 C672 1.368 . S
C667 C651 1.349 . S
C667 H659 0.950 . S
C667 C665 1.327 . S
C668 C656 1.349 . S
C668 H662 0.950 . S
C668 C669 1.327 . S
C669 H663 0.950 . S
C669 C668 1.327 . S
C669 C673 1.429 . S
C670 C653 1.574 1_556 S
C670 H664 0.949 . S
C670 C674 1.368 . S
C671 C652 1.429 . S
C671 C665 1.429 . S
C671 C672 1.523 1_554 S
C672 C653 1.368 1_556 S
C672 C666 1.368 . S
C672 C671 1.523 1_556 S
C673 C657 1.429 . S
C673 C669 1.429 . S
C673 C674 1.523 . S
C674 C658 1.368 . S
C674 C670 1.368 . S
C674 C673 1.523 . S
H675 C650 0.950 . S
H676 C652 0.950 1_556 S
H677 C653 0.949 . S
H678 C655 0.950 . S
H679 C657 0.950 . S
C680 C681 1.349 . S
C680 C682 1.327 . S
C680 H705 0.950 . S
C681 C680 1.349 . S
C681 C697 1.349 . S
C682 C680 1.327 . S
C682 C701 1.429 . S
C682 H706 0.950 . S
C683 C700 1.574 . S
C683 C702 1.368 . S
C683 H707 0.949 . S
H684 C688 0.949 . S
C685 C686 1.349 . S
C685 C687 1.327 . S
C685 H708 0.950 . S
C686 C685 1.349 . S
C686 C698 1.349 1_455 S
C687 C685 1.327 . S
C687 C703 1.429 . S
C687 H709 0.950 . S
C688 H684 0.949 . S
C688 C696 1.574 . S
C688 C704 1.368 . S
H689 C697 0.950 . S
H690 C695 0.950 . S
H691 C696 0.949 . S
H692 C698 0.950 . S
H693 C699 0.950 1_655 S
H694 C700 0.949 . S
C695 H690 0.950 . S
C695 C697 1.327 . S
C695 C701 1.429 . S
C696 C688 1.574 . S
C696 H691 0.949 . S
C696 C702 1.368 . S
C697 C681 1.349 . S
C697 H689 0.950 . S
C697 C695 1.327 . S
C698 C686 1.349 1_655 S
C698 H692 0.950 . S
C698 C699 1.327 1_655 S
C699 H693 0.950 1_455 S
C699 C698 1.327 1_455 S
C699 C703 1.429 . S
C700 C683 1.574 . S
C700 H694 0.949 . S
C700 C704 1.368 . S
C701 C682 1.429 . S
C701 C695 1.429 . S
C701 C702 1.523 . S
C702 C683 1.368 . S
C702 C696 1.368 . S
C702 C701 1.523 . S
C703 C687 1.429 . S
C703 C699 1.429 . S
C703 C704 1.523 . S
C704 C688 1.368 . S
C704 C700 1.368 . S
C704 C703 1.523 . S
H705 C680 0.950 . S
H706 C682 0.950 . S
H707 C683 0.949 . S
H708 C685 0.950 . S
H709 C687 0.950 . S
C710 C711 1.349 . S
C710 C712 1.327 . S
C710 H735 0.950 . S
C711 C710 1.349 . S
C711 C727 1.349 . S
C712 C710 1.327 . S
C712 C731 1.429 . S
C712 H736 0.950 . S
C713 C730 1.574 . S
C713 C732 1.368 . S
C713 H737 0.949 . S
H714 C718 0.949 . S
C715 C716 1.349 . S
C715 C717 1.327 . S
C715 H738 0.950 1_545 S
C716 C715 1.349 . S
C716 C728 1.349 . S
C717 C715 1.327 . S
C717 C733 1.429 . S
C717 H739 0.950 1_545 S
C718 H714 0.949 . S
C718 C726 1.574 . S
C718 C734 1.368 . S
H719 C727 0.950 . S
H720 C725 0.950 . S
H721 C726 0.949 . S
H722 C728 0.950 . S
H723 C729 0.950 . S
H724 C730 0.949 . S
C725 H720 0.950 . S
C725 C727 1.327 . S
C725 C731 1.429 . S
C726 C718 1.574 . S
C726 H721 0.949 . S
C726 C732 1.368 . S
C727 C711 1.349 . S
C727 H719 0.950 . S
C727 C725 1.327 . S
C728 C716 1.349 . S
C728 H722 0.950 . S
C728 C729 1.327 . S
C729 H723 0.950 . S
C729 C728 1.327 . S
C729 C733 1.429 . S
C730 C713 1.574 . S
C730 H724 0.949 . S
C730 C734 1.368 . S
C731 C712 1.429 . S
C731 C725 1.429 . S
C731 C732 1.523 . S
C732 C713 1.368 . S
C732 C726 1.368 . S
C732 C731 1.523 . S
C733 C717 1.429 . S
C733 C729 1.429 . S
C733 C734 1.523 . S
C734 C718 1.368 . S
C734 C730 1.368 . S
C734 C733 1.523 . S
H735 C710 0.950 . S
H736 C712 0.950 . S
H737 C713 0.949 . S
H738 C715 0.950 1_565 S
H739 C717 0.950 1_565 S
C740 C741 1.349 . S
C740 C742 1.327 . S
C740 H765 0.950 . S
C741 C740 1.349 . S
C741 C757 1.349 . S
C742 C740 1.327 . S
C742 C761 1.429 . S
C742 H766 0.950 . S
C743 C760 1.574 . S
C743 C762 1.368 . S
C743 H767 0.949 . S
H744 C748 0.949 . S
C745 C746 1.349 . S
C745 C747 1.327 . S
C745 H768 0.950 . S
C746 C745 1.349 . S
C746 C758 1.349 . S
C747 C745 1.327 . S
C747 C763 1.429 . S
C747 H769 0.950 . S
C748 H744 0.949 . S
C748 C756 1.574 . S
C748 C764 1.368 . S
H749 C757 0.950 . S
H750 C755 0.950 . S
H751 C756 0.949 . S
H752 C758 0.950 . S
H753 C759 0.950 . S
H754 C760 0.949 . S
C755 H750 0.950 . S
C755 C757 1.327 . S
C755 C761 1.429 . S
C756 C748 1.574 . S
C756 H751 0.949 . S
C756 C762 1.368 . S
C757 C741 1.349 . S
C757 H749 0.950 . S
C757 C755 1.327 . S
C758 C746 1.349 . S
C758 H752 0.950 . S
C758 C759 1.327 . S
C759 H753 0.950 . S
C759 C758 1.327 . S
C759 C763 1.429 . S
C760 C743 1.574 . S
C760 H754 0.949 . S
C760 C764 1.368 . S
C761 C742 1.429 . S
C761 C755 1.429 . S
C761 C762 1.523 . S
C762 C743 1.368 . S
C762 C756 1.368 . S
C762 C761 1.523 . S
C763 C747 1.429 . S
C763 C759 1.429 . S
C763 C764 1.523 . S
C764 C748 1.368 . S
C764 C760 1.368 . S
C764 C763 1.523 . S
H765 C740 0.950 . S
H766 C742 0.950 . S
H767 C743 0.949 . S
H768 C745 0.950 . S
H769 C747 0.950 . S
C770 C771 1.349 . S
C770 C772 1.327 . S
C770 H795 0.950 . S
C771 C770 1.349 . S
C771 C787 1.349 . S
C772 C770 1.327 . S
C772 C791 1.429 . S
C772 H796 0.950 . S
C773 C790 1.574 . S
C773 C792 1.368 . S
C773 H797 0.949 . S
H774 C778 0.949 . S
C775 C776 1.349 . S
C775 C777 1.327 . S
C775 H798 0.950 . S
C776 C775 1.349 . S
C776 C788 1.349 . S
C777 C775 1.327 . S
C777 C793 1.429 . S
C777 H799 0.950 . S
C778 H774 0.949 . S
C778 C786 1.574 . S
C778 C794 1.368 . S
H779 C787 0.950 . S
H780 C785 0.950 . S
H781 C786 0.949 . S
H782 C788 0.950 . S
H783 C789 0.950 . S
H784 C790 0.949 . S
C785 H780 0.950 . S
C785 C787 1.327 . S
C785 C791 1.429 . S
C786 C778 1.574 . S
C786 H781 0.949 . S
C786 C792 1.368 . S
C787 C771 1.349 . S
C787 H779 0.950 . S
C787 C785 1.327 . S
C788 C776 1.349 . S
C788 H782 0.950 . S
C788 C789 1.327 . S
C789 H783 0.950 . S
C789 C788 1.327 . S
C789 C793 1.429 . S
C790 C773 1.574 . S
C790 H784 0.949 . S
C790 C794 1.368 . S
C791 C772 1.429 . S
C791 C785 1.429 . S
C791 C792 1.523 . S
C792 C773 1.368 . S
C792 C786 1.368 . S
C792 C791 1.523 . S
C793 C777 1.429 . S
C793 C789 1.429 . S
C793 C794 1.523 . S
C794 C778 1.368 . S
C794 C790 1.368 . S
C794 C793 1.523 . S
H795 C770 0.950 . S
H796 C772 0.950 . S
H797 C773 0.949 . S
H798 C775 0.950 . S
H799 C777 0.950 . S
C800 C801 1.349 . S
C800 C802 1.327 . S
C800 H825 0.950 . S
C801 C800 1.349 . S
C801 C817 1.349 . S
C802 C800 1.327 . S
C802 C821 1.429 . S
C802 H826 0.950 1_655 S
C803 C820 1.574 1_554 S
C803 C822 1.368 . S
C803 H827 0.949 1_554 S
H804 C808 0.949 . S
C805 C806 1.349 1_655 S
C805 C807 1.327 . S
C805 H828 0.950 . S
C806 C805 1.349 1_455 S
C806 C818 1.349 . S
C807 C805 1.327 . S
C807 C823 1.429 . S
C807 H829 0.950 . S
C808 H804 0.949 . S
C808 C816 1.578 . S
C808 C824 1.368 1_454 S
H809 C817 0.950 . S
H810 C815 0.950 . S
H811 C816 0.961 . S
H812 C818 0.950 . S
H813 C819 0.950 1_554 S
H814 C820 0.949 . S
C815 H810 0.950 . S
C815 C817 1.327 . S
C815 C821 1.429 . S
C816 C808 1.578 . S
C816 H811 0.961 . S
C816 C822 1.352 1_455 S
C817 C801 1.349 . S
C817 H809 0.950 . S
C817 C815 1.327 . S
C818 C806 1.349 . S
C818 H812 0.950 . S
C818 C819 1.327 . S
C819 H813 0.950 1_556 S
C819 C818 1.327 . S
C819 C823 1.429 1_455 S
C820 C803 1.574 1_556 S
C820 H814 0.949 . S
C820 C824 1.368 . S
C821 C802 1.429 . S
C821 C815 1.429 . S
C821 C822 1.523 . S
C822 C803 1.368 . S
C822 C816 1.352 1_655 S
C822 C821 1.523 . S
C823 C807 1.429 . S
C823 C819 1.429 1_655 S
C823 C824 1.523 . S
C824 C808 1.368 1_656 S
C824 C820 1.368 . S
C824 C823 1.523 . S
H825 C800 0.950 . S
H826 C802 0.950 1_455 S
H827 C803 0.949 1_556 S
H828 C805 0.950 . S
H829 C807 0.950 . S
C830 C831 1.349 . S
C830 C832 1.327 . S
C830 H855 0.950 . S
C831 C830 1.349 . S
C831 C847 1.349 . S
C832 C830 1.327 . S
C832 C851 1.429 . S
C832 H856 0.950 . S
C833 C850 1.574 . S
C833 C852 1.368 . S
C833 H857 0.949 . S
H834 C838 0.949 . S
C835 C836 1.349 . S
C835 C837 1.331 . S
C835 H858 0.950 . S
C836 C835 1.349 . S
C836 C848 1.349 . S
C837 C835 1.331 . S
C837 C853 1.426 1_545 S
C837 H859 0.947 1_546 S
C838 H834 0.949 . S
C838 C846 1.574 . S
C838 C854 1.368 . S
H839 C847 0.950 . S
H840 C845 0.950 . S
H841 C846 0.949 . S
H842 C848 0.950 . S
H843 C849 0.950 . S
H844 C850 0.949 . S
C845 H840 0.950 . S
C845 C847 1.327 . S
C845 C851 1.429 . S
C846 C838 1.574 . S
C846 H841 0.949 . S
C846 C852 1.368 1_556 S
C847 C831 1.349 . S
C847 H839 0.950 . S
C847 C845 1.327 . S
C848 C836 1.349 . S
C848 H842 0.950 . S
C848 C849 1.327 . S
C849 H843 0.950 . S
C849 C848 1.327 . S
C849 C853 1.421 1_545 S
C850 C833 1.574 . S
C850 H844 0.949 . S
C850 C854 1.368 1_554 S
C851 C832 1.429 . S
C851 C845 1.429 . S
C851 C852 1.523 . S
C852 C833 1.368 . S
C852 C846 1.368 1_554 S
C852 C851 1.523 . S
C853 C837 1.426 1_565 S
C853 C849 1.421 1_565 S
C853 C854 1.535 . S
C854 C838 1.368 . S
C854 C850 1.368 1_556 S
C854 C853 1.535 . S
H855 C830 0.950 . S
H856 C832 0.950 . S
H857 C833 0.949 . S
H858 C835 0.950 . S
H859 C837 0.947 1_564 S
C860 C861 1.349 . S
C860 C862 1.327 . S
C860 H885 0.950 . S
C861 C860 1.349 . S
C861 C877 1.349 . S
C862 C860 1.327 . S
C862 C881 1.429 . S
C862 H886 0.950 . S
C863 C880 1.574 . S
C863 C882 1.368 . S
C863 H887 0.949 . S
H864 C868 0.949 . S
C865 C866 1.349 . S
C865 C867 1.327 . S
C865 H888 0.950 . S
C866 C865 1.349 . S
C866 C878 1.349 . S
C867 C865 1.327 . S
C867 C883 1.429 . S
C867 H889 0.950 1_556 S
C868 H864 0.949 . S
C868 C876 1.574 1_556 S
C868 C884 1.368 . S
H869 C877 0.950 . S
H870 C875 0.950 . S
H871 C876 0.949 1_556 S
H872 C878 0.950 . S
H873 C879 0.950 . S
H874 C880 0.949 . S
C875 H870 0.950 . S
C875 C877 1.327 . S
C875 C881 1.429 . S
C876 C868 1.574 1_554 S
C876 H871 0.949 1_554 S
C876 C882 1.368 . S
C877 C861 1.349 . S
C877 H869 0.950 . S
C877 C875 1.327 . S
C878 C866 1.349 . S
C878 H872 0.950 . S
C878 C879 1.327 . S
C879 H873 0.950 . S
C879 C878 1.327 . S
C879 C883 1.429 . S
C880 C863 1.574 . S
C880 H874 0.949 . S
C880 C884 1.368 1_554 S
C881 C862 1.429 . S
C881 C875 1.429 . S
C881 C882 1.523 . S
C882 C863 1.368 . S
C882 C876 1.368 . S
C882 C881 1.523 . S
C883 C867 1.429 . S
C883 C879 1.429 . S
C883 C884 1.523 . S
C884 C868 1.368 . S
C884 C880 1.368 1_556 S
C884 C883 1.523 . S
H885 C860 0.950 . S
H886 C862 0.950 . S
H887 C863 0.949 . S
H888 C865 0.950 . S
H889 C867 0.950 1_554 S
C890 C891 1.349 . S
C890 C892 1.327 . S
C890 H915 0.950 . S
C891 C890 1.349 . S
C891 C907 1.349 . S
C892 C890 1.327 . S
C892 C911 1.429 . S
C892 H916 0.950 . S
C893 C910 1.574 . S
C893 C912 1.368 . S
C893 H917 0.949 . S
H894 C898 0.949 . S
C895 C896 1.349 . S
C895 C897 1.327 . S
C895 H918 0.950 . S
C896 C895 1.349 . S
C896 C908 1.349 . S
C897 C895 1.327 . S
C897 C913 1.429 . S
C897 H919 0.950 1_556 S
C898 H894 0.949 . S
C898 C906 1.574 . S
C898 C914 1.368 . S
H899 C907 0.950 . S
H900 C905 0.950 . S
H901 C906 0.949 . S
H902 C908 0.950 . S
H903 C909 0.950 . S
H904 C910 0.949 . S
C905 H900 0.950 . S
C905 C907 1.327 . S
C905 C911 1.429 . S
C906 C898 1.574 . S
C906 H901 0.949 . S
C906 C912 1.368 1_556 S
C907 C891 1.349 . S
C907 H899 0.950 . S
C907 C905 1.327 . S
C908 C896 1.349 . S
C908 H902 0.950 . S
C908 C909 1.327 . S
C909 H903 0.950 . S
C909 C908 1.327 . S
C909 C913 1.429 . S
C910 C893 1.574 . S
C910 H904 0.949 . S
C910 C914 1.368 1_554 S
C911 C892 1.429 . S
C911 C905 1.429 . S
C911 C912 1.523 . S
C912 C893 1.368 . S
C912 C906 1.368 1_554 S
C912 C911 1.523 . S
C913 C897 1.429 . S
C913 C909 1.429 . S
C913 C914 1.523 . S
C914 C898 1.368 . S
C914 C910 1.368 1_556 S
C914 C913 1.523 . S
H915 C890 0.950 . S
H916 C892 0.950 . S
H917 C893 0.949 . S
H918 C895 0.950 . S
H919 C897 0.950 1_554 S
C920 C921 1.349 . S
C920 C922 1.327 . S
C920 H945 0.950 . S
C921 C920 1.349 . S
C921 C937 1.349 . S
C922 C920 1.327 . S
C922 C941 1.429 . S
C922 H946 0.950 . S
C923 C940 1.574 . S
C923 C942 1.368 . S
C923 H947 0.949 . S
H924 C928 0.949 . S
C925 C926 1.349 . S
C925 C927 1.327 . S
C925 H948 0.950 . S
C926 C925 1.349 . S
C926 C938 1.349 . S
C927 C925 1.327 . S
C927 C943 1.429 . S
C927 H949 0.950 . S
C928 H924 0.949 . S
C928 C936 1.574 . S
C928 C944 1.368 . S
H929 C937 0.950 . S
H930 C935 0.950 . S
H931 C936 0.949 . S
H932 C938 0.950 1_655 S
H933 C939 0.960 . S
H934 C940 0.949 . S
C935 H930 0.950 . S
C935 C937 1.327 . S
C935 C941 1.429 . S
C936 C928 1.574 . S
C936 H931 0.949 . S
C936 C942 1.368 . S
C937 C921 1.349 . S
C937 H929 0.950 . S
C937 C935 1.327 . S
C938 C926 1.349 . S
C938 H932 0.950 1_455 S
C938 C939 1.327 . S
C939 H933 0.960 . S
C939 C938 1.327 . S
C939 C943 1.429 . S
C940 C923 1.574 . S
C940 H934 0.949 . S
C940 C944 1.368 . S
C941 C922 1.429 . S
C941 C935 1.429 . S
C941 C942 1.523 . S
C942 C923 1.368 . S
C942 C936 1.368 . S
C942 C941 1.523 . S
C943 C927 1.429 . S
C943 C939 1.429 . S
C943 C944 1.523 . S
C944 C928 1.368 . S
C944 C940 1.368 . S
C944 C943 1.523 . S
H945 C920 0.950 . S
H946 C922 0.950 . S
H947 C923 0.949 . S
H948 C925 0.950 . S
H949 C927 0.950 . S
C950 C951 1.349 . S
C950 C952 1.327 . S
C950 H975 0.950 . S
C951 C950 1.349 . S
C951 C967 1.349 . S
C952 C950 1.327 . S
C952 C971 1.429 . S
C952 H976 0.950 . S
C953 C970 1.574 . S
C953 C972 1.368 . S
C953 H977 0.949 . S
H954 C958 0.949 . S
C955 C956 1.349 . S
C955 C957 1.327 . S
C955 H978 0.950 . S
C956 C955 1.349 . S
C956 C968 1.349 . S
C957 C955 1.327 . S
C957 C973 1.429 . S
C957 H979 0.950 . S
C958 H954 0.949 . S
C958 C966 1.574 . S
C958 C974 1.368 . S
H959 C967 0.950 . S
H960 C965 0.950 . S
H961 C966 0.949 . S
H962 C968 0.985 . S
H963 C969 0.950 . S
H964 C970 0.949 . S
C965 H960 0.950 . S
C965 C967 1.327 . S
C965 C971 1.429 . S
C966 C958 1.574 . S
C966 H961 0.949 . S
C966 C972 1.368 . S
C967 C951 1.349 . S
C967 H959 0.950 . S
C967 C965 1.327 . S
C968 C956 1.349 . S
C968 H962 0.985 . S
C968 C969 1.327 . S
C969 H963 0.950 . S
C969 C968 1.327 . S
C969 C973 1.429 . S
C970 C953 1.574 . S
C970 H964 0.949 . S
C970 C974 1.368 . S
C971 C952 1.429 . S
C971 C965 1.429 . S
C971 C972 1.523 . S
C972 C953 1.368 . S
C972 C966 1.368 . S
C972 C971 1.523 . S
C973 C957 1.429 . S
C973 C969 1.429 . S
C973 C974 1.523 . S
C974 C958 1.368 . S
C974 C970 1.368 . S
C974 C973 1.523 . S
H975 C950 0.950 . S
H976 C952 0.950 . S
H977 C953 0.949 . S
H978 C955 0.950 . S
H979 C957 0.950 . S
C980 C981 1.349 . S
C980 C982 1.327 . S
C980 H1005 0.950 . S
C981 C980 1.349 . S
C981 C997 1.349 . S
C982 C980 1.327 . S
C982 C1001 1.429 . S
C982 H1006 0.950 . S
C983 C1000 1.574 . S
C983 C1002 1.368 . S
C983 H1007 0.949 . S
H984 C988 0.949 . S
C985 C986 1.349 . S
C985 C987 1.327 . S
C985 H1008 0.950 . S
C986 C985 1.349 . S
C986 C998 1.349 . S
C987 C985 1.327 . S
C987 C1003 1.429 . S
C987 H1009 0.950 . S
C988 H984 0.949 . S
C988 C996 1.574 . S
C988 C1004 1.368 . S
H989 C997 0.950 . S
H990 C995 0.950 . S
H991 C996 0.949 . S
H992 C998 0.950 . S
H993 C999 0.950 . S
H994 C1000 0.949 . S
C995 H990 0.950 . S
C995 C997 1.327 . S
C995 C1001 1.429 . S
C996 C988 1.574 . S
C996 H991 0.949 . S
C996 C1002 1.368 . S
C997 C981 1.349 . S
C997 H989 0.950 . S
C997 C995 1.327 . S
C998 C986 1.349 . S
C998 H992 0.950 . S
C998 C999 1.327 . S
C999 H993 0.950 . S
C999 C998 1.327 . S
C999 C1003 1.429 . S
C1000 C983 1.574 . S
C1000 H994 0.949 . S
C1000 C1004 1.368 . S
C1001 C982 1.429 . S
C1001 C995 1.429 . S
C1001 C1002 1.523 . S
C1002 C983 1.368 . S
C1002 C996 1.368 . S
C1002 C1001 1.523 . S
C1003 C987 1.429 . S
C1003 C999 1.429 . S
C1003 C1004 1.523 . S
C1004 C988 1.368 . S
C1004 C1000 1.368 . S
C1004 C1003 1.523 . S
H1005 C980 0.950 . S
H1006 C982 0.950 . S
H1007 C983 0.949 . S
H1008 C985 0.950 . S
H1009 C987 0.950 . S
C1010 C1011 1.349 . S
C1010 C1012 1.327 . S
C1010 H1035 0.950 . S
C1011 C1010 1.349 . S
C1011 C1027 1.349 . S
C1012 C1010 1.327 . S
C1012 C1031 1.429 . S
C1012 H1036 0.950 . S
C1013 C1030 1.574 . S
C1013 C1032 1.368 . S
C1013 H1037 0.949 . S
H1014 C1018 0.949 . S
C1015 C1016 1.349 . S
C1015 C1017 1.327 . S
C1015 H1038 0.950 . S
C1016 C1015 1.349 . S
C1016 C1028 1.349 . S
C1017 C1015 1.327 . S
C1017 C1033 1.429 . S
C1017 H1039 0.950 . S
C1018 H1014 0.949 . S
C1018 C1026 1.574 . S
C1018 C1034 1.368 . S
H1019 C1027 0.950 . S
H1020 C1025 0.950 . S
H1021 C1026 0.949 . S
H1022 C1028 0.950 . S
H1023 C1029 0.950 . S
H1024 C1030 0.949 . S
C1025 H1020 0.950 . S
C1025 C1027 1.327 . S
C1025 C1031 1.429 . S
C1026 C1018 1.574 . S
C1026 H1021 0.949 . S
C1026 C1032 1.368 . S
C1027 C1011 1.349 . S
C1027 H1019 0.950 . S
C1027 C1025 1.327 . S
C1028 C1016 1.349 . S
C1028 H1022 0.950 . S
C1028 C1029 1.327 . S
C1029 H1023 0.950 . S
C1029 C1028 1.327 . S
C1029 C1033 1.429 . S
C1030 C1013 1.574 . S
C1030 H1024 0.949 . S
C1030 C1034 1.368 . S
C1031 C1012 1.429 . S
C1031 C1025 1.429 . S
C1031 C1032 1.523 . S
C1032 C1013 1.368 . S
C1032 C1026 1.368 . S
C1032 C1031 1.523 . S
C1033 C1017 1.429 . S
C1033 C1029 1.429 . S
C1033 C1034 1.523 . S
C1034 C1018 1.368 . S
C1034 C1030 1.368 . S
C1034 C1033 1.523 . S
H1035 C1010 0.950 . S
H1036 C1012 0.950 . S
H1037 C1013 0.949 . S
H1038 C1015 0.950 . S
H1039 C1017 0.950 . S
C1040 C1041 1.349 . S
C1040 C1042 1.327 . S
C1040 H1065 0.950 . S
C1041 C1040 1.349 . S
C1041 C1057 1.349 . S
C1042 C1040 1.327 . S
C1042 C1061 1.429 . S
C1042 H1066 0.975 . S
C1043 C1060 1.574 . S
C1043 C1062 1.368 . S
C1043 H1067 0.949 . S
H1044 C1048 0.949 1_455 S
C1045 C1046 1.349 . S
C1045 C1047 1.327 . S
C1045 H1068 0.950 . S
C1046 C1045 1.349 . S
C1046 C1058 1.349 1_655 S
C1047 C1045 1.327 . S
C1047 C1063 1.429 . S
C1047 H1069 0.950 . S
C1048 H1044 0.949 1_655 S
C1048 C1056 1.574 . S
C1048 C1064 1.368 . S
H1049 C1057 0.950 . S
H1050 C1055 0.950 . S
H1051 C1056 0.949 1_455 S
H1052 C1058 0.950 . S
H1053 C1059 0.950 . S
H1054 C1060 0.949 . S
C1055 H1050 0.950 . S
C1055 C1057 1.327 . S
C1055 C1061 1.429 . S
C1056 C1048 1.574 . S
C1056 H1051 0.949 1_655 S
C1056 C1062 1.368 . S
C1057 C1041 1.349 . S
C1057 H1049 0.950 . S
C1057 C1055 1.327 . S
C1058 C1046 1.349 1_455 S
C1058 H1052 0.950 . S
C1058 C1059 1.327 . S
C1059 H1053 0.950 . S
C1059 C1058 1.327 . S
C1059 C1063 1.429 1_455 S
C1060 C1043 1.574 . S
C1060 H1054 0.949 . S
C1060 C1064 1.368 . S
C1061 C1042 1.429 . S
C1061 C1055 1.429 . S
C1061 C1062 1.523 . S
C1062 C1043 1.368 . S
C1062 C1056 1.368 . S
C1062 C1061 1.523 . S
C1063 C1047 1.429 . S
C1063 C1059 1.429 1_655 S
C1063 C1064 1.523 . S
C1064 C1048 1.368 . S
C1064 C1060 1.368 . S
C1064 C1063 1.523 . S
H1065 C1040 0.950 . S
H1066 C1042 0.975 . S
H1067 C1043 0.949 . S
H1068 C1045 0.950 . S
H1069 C1047 0.950 . S
C1070 C1071 1.349 . S
C1070 C1072 1.327 . S
C1070 H1095 0.950 1_565 S
C1071 C1070 1.349 . S
C1071 C1087 1.349 . S
C1072 C1070 1.327 . S
C1072 C1091 1.429 . S
C1072 H1096 0.950 1_565 S
C1073 C1090 1.574 . S
C1073 C1092 1.368 . S
C1073 H1097 0.949 . S
H1074 C1078 0.949 . S
C1075 C1076 1.349 . S
C1075 C1077 1.327 . S
C1075 H1098 0.950 . S
C1076 C1075 1.349 . S
C1076 C1088 1.349 1_565 S
C1077 C1075 1.327 . S
C1077 C1093 1.429 . S
C1077 H1099 0.950 . S
C1078 H1074 0.949 . S
C1078 C1086 1.574 . S
C1078 C1094 1.368 1_545 S
H1079 C1087 0.950 . S
H1080 C1085 0.950 . S
H1081 C1086 0.949 . S
H1082 C1088 0.950 . S
H1083 C1089 0.950 . S
H1084 C1090 0.949 . S
C1085 H1080 0.950 . S
C1085 C1087 1.327 . S
C1085 C1091 1.429 . S
C1086 C1078 1.574 . S
C1086 H1081 0.949 . S
C1086 C1092 1.368 1_545 S
C1087 C1071 1.349 . S
C1087 H1079 0.950 . S
C1087 C1085 1.327 . S
C1088 C1076 1.349 1_545 S
C1088 H1082 0.950 . S
C1088 C1089 1.327 . S
C1089 H1083 0.950 . S
C1089 C1088 1.327 . S
C1089 C1093 1.429 1_545 S
C1090 C1073 1.574 . S
C1090 H1084 0.949 . S
C1090 C1094 1.368 . S
C1091 C1072 1.429 . S
C1091 C1085 1.429 . S
C1091 C1092 1.523 . S
C1092 C1073 1.368 . S
C1092 C1086 1.368 1_565 S
C1092 C1091 1.523 . S
C1093 C1077 1.429 . S
C1093 C1089 1.429 1_565 S
C1093 C1094 1.523 . S
C1094 C1078 1.368 1_565 S
C1094 C1090 1.368 . S
C1094 C1093 1.523 . S
H1095 C1070 0.950 1_545 S
H1096 C1072 0.950 1_545 S
H1097 C1073 0.949 . S
H1098 C1075 0.950 . S
H1099 C1077 0.950 . S
C1100 C1101 1.349 . S
C1100 C1102 1.327 . S
C1100 H1125 0.950 . S
C1101 C1100 1.349 . S
C1101 C1117 1.349 . S
C1102 C1100 1.327 . S
C1102 C1121 1.429 . S
C1102 H1126 0.950 . S
C1103 C1120 1.574 . S
C1103 C1122 1.368 . S
C1103 H1127 0.949 . S
H1104 C1108 0.949 . S
C1105 C1106 1.349 . S
C1105 C1107 1.327 . S
C1105 H1128 0.950 . S
C1106 C1105 1.349 . S
C1106 C1118 1.349 . S
C1107 C1105 1.327 . S
C1107 C1123 1.429 . S
C1107 H1129 0.950 . S
C1108 H1104 0.949 . S
C1108 C1116 1.574 . S
C1108 C1124 1.368 . S
H1109 C1117 0.950 . S
H1110 C1115 0.950 . S
H1111 C1116 0.949 . S
H1112 C1118 0.950 . S
H1113 C1119 0.950 . S
H1114 C1120 0.949 . S
C1115 H1110 0.950 . S
C1115 C1117 1.327 . S
C1115 C1121 1.429 . S
C1116 C1108 1.574 . S
C1116 H1111 0.949 . S
C1116 C1122 1.368 . S
C1117 C1101 1.349 . S
C1117 H1109 0.950 . S
C1117 C1115 1.327 . S
C1118 C1106 1.349 . S
C1118 H1112 0.950 . S
C1118 C1119 1.327 . S
C1119 H1113 0.950 . S
C1119 C1118 1.327 . S
C1119 C1123 1.429 . S
C1120 C1103 1.574 . S
C1120 H1114 0.949 . S
C1120 C1124 1.368 . S
C1121 C1102 1.429 . S
C1121 C1115 1.429 . S
C1121 C1122 1.523 . S
C1122 C1103 1.368 . S
C1122 C1116 1.368 . S
C1122 C1121 1.523 . S
C1123 C1107 1.429 . S
C1123 C1119 1.429 . S
C1123 C1124 1.523 . S
C1124 C1108 1.368 . S
C1124 C1120 1.368 . S
C1124 C1123 1.523 . S
H1125 C1100 0.950 . S
H1126 C1102 0.950 . S
H1127 C1103 0.949 . S
H1128 C1105 0.950 . S
H1129 C1107 0.950 . S
C1130 C1131 1.349 . S
C1130 C1132 1.327 . S
C1130 H1155 0.950 . S
C1131 C1130 1.349 . S
C1131 C1147 1.349 . S
C1132 C1130 1.327 . S
C1132 C1151 1.429 . S
C1132 H1156 0.950 . S
C1133 C1150 1.574 . S
C1133 C1152 1.368 . S
C1133 H1157 0.949 . S
H1134 C1138 0.949 . S
C1135 C1136 1.349 . S
C1135 C1137 1.327 . S
C1135 H1158 0.950 . S
C1136 C1135 1.349 . S
C1136 C1148 1.349 . S
C1137 C1135 1.327 . S
C1137 C1153 1.429 . S
C1137 H1159 0.950 . S
C1138 H1134 0.949 . S
C1138 C1146 1.574 . S
C1138 C1154 1.368 . S
H1139 C1147 0.950 . S
H1140 C1145 0.950 . S
H1141 C1146 0.949 . S
H1142 C1148 0.950 . S
H1143 C1149 0.950 . S
H1144 C1150 0.949 . S
C1145 H1140 0.950 . S
C1145 C1147 1.327 . S
C1145 C1151 1.429 . S
C1146 C1138 1.574 . S
C1146 H1141 0.949 . S
C1146 C1152 1.368 . S
C1147 C1131 1.349 . S
C1147 H1139 0.950 . S
C1147 C1145 1.327 . S
C1148 C1136 1.349 . S
C1148 H1142 0.950 . S
C1148 C1149 1.327 . S
C1149 H1143 0.950 . S
C1149 C1148 1.327 . S
C1149 C1153 1.429 . S
C1150 C1133 1.574 . S
C1150 H1144 0.949 . S
C1150 C1154 1.368 . S
C1151 C1132 1.429 . S
C1151 C1145 1.429 . S
C1151 C1152 1.523 . S
C1152 C1133 1.368 . S
C1152 C1146 1.368 . S
C1152 C1151 1.523 . S
C1153 C1137 1.429 . S
C1153 C1149 1.429 . S
C1153 C1154 1.523 . S
C1154 C1138 1.368 . S
C1154 C1150 1.368 . S
C1154 C1153 1.523 . S
H1155 C1130 0.950 . S
H1156 C1132 0.950 . S
H1157 C1133 0.949 . S
H1158 C1135 0.950 . S
H1159 C1137 0.950 . S
C441 C82 1.729 . S
C446 C167 1.928 . S
C476 C244 1.947 . S
C471 C95 1.735 . S
C506 C335 1.917 . S
C501 C56 1.716 . S
C536 C419 1.906 . S
C531 C69 1.708 . S
C566 C178 1.929 . S
C561 C30 1.691 . S
C591 C43 1.695 . S
C596 C255 1.947 . S
C621 C4 1.678 . S
C626 C346 1.916 . S
C651 C17 1.671 . S
C656 C430 1.906 1_655 S
C686 C162 0.557 1_455 S
C681 C74 0.482 . S
C716 C257 0.554 . S
C711 C87 0.454 . S
C746 C330 0.557 . S
C741 C100 0.484 . S
C771 C61 0.465 . S
C776 C414 0.547 . S
C801 C22 0.484 . S
C806 C173 0.557 . S
C836 C246 0.554 . S
C831 C35 0.457 . S
C866 C341 0.557 . S
C861 C48 0.487 . S
C891 C9 0.468 . S
C896 C425 0.547 . S
C921 C73 1.855 . S
C926 C171 2.001 . S
C951 C86 1.850 . S
C956 C262 1.996 . S
C986 C339 2.021 . S
C981 C99 1.872 . S
C1016 C423 2.027 . S
C1011 C60 1.879 . S
C1041 C21 1.852 . S
C1046 C160 2.002 . S
C1076 C251 1.996 1_565 S
C1071 C34 1.846 . S
C1106 C328 2.021 . S
C1101 C47 1.868 . S
C1131 C8 1.875 . S
C1136 C412 2.026 . S
