# Generated by pormake.
# Topology anh, (6,3)-cn, num edge types: 1
# Building blocks:
#     Node 0, Type 0, BuildingBlock: MIFKUJ_clean_sbu_0, # of connection points: 6
#     Node 1, Type 0, BuildingBlock: MIFKUJ_clean_sbu_0, # of connection points: 6
#     Node 2, Type 0, BuildingBlock: MIFKUJ_clean_sbu_0, # of connection points: 6
#     Node 3, Type 1, BuildingBlock: QEWDON_clean_linker_0, # of connection points: 3
#     Node 4, Type 1, BuildingBlock: QEWDON_clean_linker_0, # of connection points: 3
#     Node 5, Type 1, BuildingBlock: QEWDON_clean_linker_0, # of connection points: 3
#     Node 6, Type 1, BuildingBlock: QEWDON_clean_linker_0, # of connection points: 3
#     Node 7, Type 1, BuildingBlock: QEWDON_clean_linker_0, # of connection points: 3
#     Node 8, Type 1, BuildingBlock: QEWDON_clean_linker_0, # of connection points: 3
#     Edge 9, Type (0, 1), BuildingBlock: XUDNAN_clean_linker_2, # of connection points: 2
#     Edge 10, Type (0, 1), BuildingBlock: XUDNAN_clean_linker_2, # of connection points: 2
#     Edge 11, Type (0, 1), BuildingBlock: XUDNAN_clean_linker_2, # of connection points: 2
#     Edge 12, Type (0, 1), BuildingBlock: XUDNAN_clean_linker_2, # of connection points: 2
#     Edge 13, Type (0, 1), BuildingBlock: XUDNAN_clean_linker_2, # of connection points: 2
#     Edge 14, Type (0, 1), BuildingBlock: XUDNAN_clean_linker_2, # of connection points: 2
#     Edge 15, Type (0, 1), BuildingBlock: XUDNAN_clean_linker_2, # of connection points: 2
#     Edge 16, Type (0, 1), BuildingBlock: XUDNAN_clean_linker_2, # of connection points: 2
#     Edge 17, Type (0, 1), BuildingBlock: XUDNAN_clean_linker_2, # of connection points: 2
#     Edge 18, Type (0, 1), BuildingBlock: XUDNAN_clean_linker_2, # of connection points: 2
#     Edge 19, Type (0, 1), BuildingBlock: XUDNAN_clean_linker_2, # of connection points: 2
#     Edge 20, Type (0, 1), BuildingBlock: XUDNAN_clean_linker_2, # of connection points: 2
#     Edge 21, Type (0, 1), BuildingBlock: XUDNAN_clean_linker_2, # of connection points: 2
#     Edge 22, Type (0, 1), BuildingBlock: XUDNAN_clean_linker_2, # of connection points: 2
#     Edge 23, Type (0, 1), BuildingBlock: XUDNAN_clean_linker_2, # of connection points: 2
#     Edge 24, Type (0, 1), BuildingBlock: XUDNAN_clean_linker_2, # of connection points: 2
#     Edge 25, Type (0, 1), BuildingBlock: XUDNAN_clean_linker_2, # of connection points: 2
#     Edge 26, Type (0, 1), BuildingBlock: XUDNAN_clean_linker_2, # of connection points: 2
# Relax obj value: 0.064
# Max RMSD: 0.126
# Mean RMSD: 0.114
data_MOF--net-anh--node1-MIFKUJ_clean_sbu_0--node2-QEWDON_clean_linker_0--edge1-XUDNAN_clean_linker_2
_symmetry_space_group_name_H-M    P1
_symmetry_Int_Tables_number       1
_symmetry_cell_setting            triclinic
loop_
_symmetry_equiv_pos_as_xyz
'x, y, z'
_cell_length_a     33.602486
_cell_length_b     33.65275
_cell_length_c     45.798631
_cell_angle_alpha  98.227855
_cell_angle_beta   95.005992
_cell_angle_gamma 120.1633
loop_
_atom_site_label
_atom_site_type_symbol
_atom_site_fract_x
_atom_site_fract_y
_atom_site_fract_z
_atom_type_partial_charge
Zn0 Zn 0.08364 0.60696 0.16728 0.0
Zn1 Zn 0.93944 0.51509 0.15256 0.0
C2 C 0.15964 0.59843 0.17671 0.0
O3 O 0.16909 0.63432 0.19791 0.0
C4 C 0.85727 0.52329 0.14997 0.0
O5 O 0.83416 0.4771 0.14363 0.0
O6 O 0.12223 0.67457 0.16368 0.0
O7 O 0.02311 0.56892 0.14047 0.0
O8 O 0.95798 0.51835 0.11127 0.0
C9 C 0.14825 0.68255 0.14402 0.0
O10 O 0.14593 0.64689 0.12624 0.0
O11 O 0.12044 0.5765 0.15903 0.0
C12 C 0.88248 0.44276 0.17921 0.0
O13 O 0.89354 0.48024 0.19953 0.0
O14 O 0.89978 0.44822 0.15554 0.0
O15 O 0.99375 0.54915 0.18924 0.0
O16 O 0.06854 0.59997 0.20857 0.0
O17 O 0.90176 0.54648 0.15466 0.0
C18 C 0.00073 0.54937 0.114 0.0
C19 C 0.02735 0.57022 0.21184 0.0
Zn20 Zn 0.56136 0.11545 0.50249 0.0
Zn21 Zn 0.50845 0.97714 0.49958 0.0
C22 C 0.65756 0.19037 0.52823 0.0
O23 O 0.64172 0.18737 0.55353 0.0
C24 C 0.4092 0.91451 0.48911 0.0
O25 O 0.41703 0.91175 0.4615 0.0
O26 O 0.53203 0.15325 0.49684 0.0
O27 O 0.53865 0.0651 0.46502 0.0
O28 O 0.50784 0.98796 0.45758 0.0
C29 C 0.53966 0.17173 0.47405 0.0
O30 O 0.5615 0.161 0.45491 0.0
O31 O 0.6303 0.16227 0.50401 0.0
C32 C 0.54237 0.92593 0.5251 0.0
O33 O 0.54445 0.95267 0.54979 0.0
O34 O 0.52789 0.93022 0.49987 0.0
O35 O 0.55863 0.03403 0.53026 0.0
O36 O 0.55139 0.09507 0.54209 0.0
O37 O 0.44322 0.94387 0.51033 0.0
C38 C 0.52141 0.02515 0.44753 0.0
C39 C 0.55195 0.06026 0.54928 0.0
Zn40 Zn 0.60664 0.48848 0.83615 0.0
Zn41 Zn 0.52475 0.55271 0.83168 0.0
C42 C 0.59461 0.40936 0.85413 0.0
O43 O 0.62516 0.44446 0.87615 0.0
C44 C 0.55588 0.64562 0.82252 0.0
O45 O 0.53822 0.62244 0.79447 0.0
O46 O 0.67315 0.50967 0.83253 0.0
O47 O 0.57776 0.50767 0.80284 0.0
O48 O 0.53238 0.53514 0.79004 0.0
C49 C 0.67825 0.48502 0.81111 0.0
O50 O 0.64101 0.45184 0.79158 0.0
O51 O 0.57702 0.41833 0.83208 0.0
C52 C 0.45389 0.54343 0.86137 0.0
O53 O 0.49212 0.56923 0.88177 0.0
O54 O 0.45695 0.52498 0.83613 0.0
O55 O 0.56161 0.53418 0.85517 0.0
O56 O 0.60339 0.51299 0.87885 0.0
O57 O 0.55528 0.62318 0.84273 0.0
C58 C 0.55901 0.51985 0.78319 0.0
C59 C 0.5786 0.53136 0.87983 0.0
H60 H 0.53629 0.11478 0.23747 0.0
C61 C 0.50626 0.08152 0.22512 0.0
C62 C 0.48985 0.04151 0.23758 0.0
C63 C 0.48341 0.07847 0.19683 0.0
H64 H 0.43705 0.96816 0.23174 0.0
C65 C 0.45033 -0.00109 0.2219 0.0
C66 C 0.42704 0.99576 0.19405 0.0
C67 C 0.44403 0.03536 0.18139 0.0
C68 C 0.49999 0.12004 0.18321 0.0
H69 H 0.42613 0.03276 0.15968 0.0
C70 C 0.54759 0.14809 0.18196 0.0
C71 C 0.56322 0.18693 0.16845 0.0
C72 C 0.46803 0.13106 0.17058 0.0
H73 H 0.43111 0.11 0.17134 0.0
C74 C 0.48352 0.16967 0.15708 0.0
H75 H 0.57248 0.13979 0.19155 0.0
C76 C 0.53095 0.19766 0.15608 0.0
H77 H 0.54244 0.22756 0.14557 0.0
H78 H 0.45874 0.17798 0.14745 0.0
H79 H 0.5613 0.5799 0.57109 0.0
C80 C 0.56342 0.55139 0.55851 0.0
C81 C 0.58272 0.52967 0.57362 0.0
C82 C 0.54451 0.53474 0.52757 0.0
H83 H 0.59704 0.47368 0.56893 0.0
C84 C 0.58359 0.49161 0.55733 0.0
C85 C 0.56397 0.47398 0.52667 0.0
C86 C 0.54551 0.49636 0.51179 0.0
C87 C 0.52019 0.55472 0.51222 0.0
H88 H 0.52999 0.48255 0.48814 0.0
C89 C 0.53915 0.60358 0.51792 0.0
C90 C 0.51521 0.62253 0.50439 0.0
C91 C 0.4771 0.5248 0.49238 0.0
H92 H 0.4611 0.48693 0.48797 0.0
C93 C 0.45352 0.54338 0.47856 0.0
H94 H 0.57275 0.62685 0.53274 0.0
C95 C 0.47222 0.59185 0.48457 0.0
H96 H 0.45236 0.60512 0.47427 0.0
H97 H 0.42018 0.52004 0.46353 0.0
H98 H 0.11483 0.57399 0.90166 0.0
C99 C 0.07872 0.55842 0.89089 0.0
C100 C 0.04449 0.54866 0.90884 0.0
C101 C 0.06626 0.54845 0.8593 0.0
H102 H 0.97188 0.52444 0.90935 0.0
C103 C -0.00197 0.53074 0.89537 0.0
C104 C 0.98528 0.52214 0.86415 0.0
C105 C 0.01912 0.52954 0.84625 0.0
C106 C 0.10224 0.5588 0.83987 0.0
H107 H 0.00871 0.52172 0.82209 0.0
C108 C 0.141 0.55435 0.84796 0.0
C109 C 0.17498 0.56472 0.82978 0.0
C110 C 0.09837 0.57381 0.81309 0.0
H111 H 0.07007 0.57925 0.80646 0.0
C112 C 0.13173 0.58312 0.79472 0.0
H113 H 0.1452 0.54311 0.86843 0.0
C114 C 0.17 0.5787 0.80302 0.0
H115 H 0.19636 0.58742 0.78901 0.0
H116 H 0.12835 0.59471 0.77428 0.0
H117 H 0.97276 0.52632 0.43593 0.0
C118 C 0.00866 0.55364 0.4457 0.0
C119 C 0.04144 0.57298 0.42696 0.0
C120 C 0.0213 0.57216 0.47694 0.0
H121 H 0.11362 0.62092 0.4258 0.0
C122 C 0.08766 0.60855 0.44007 0.0
C123 C 0.10024 0.6304 0.47062 0.0
C124 C 0.06695 0.61115 0.4891 0.0
C125 C 0.98564 0.55433 0.49653 0.0
H126 H 0.07592 0.62726 0.51279 0.0
C127 C 0.95653 0.50565 0.4955 0.0
C128 C 0.92442 0.49015 0.51521 0.0
C129 C 0.98097 0.58668 0.5168 0.0
H130 H 0.00216 0.62411 0.51774 0.0
C131 C 0.94873 0.57119 0.53594 0.0
H132 H 0.95986 0.48019 0.48022 0.0
C133 C 0.92084 0.52331 0.53532 0.0
H134 H 0.89648 0.51203 0.55069 0.0
H135 H 0.94557 0.59646 0.55148 0.0
H136 H 0.56357 0.99049 0.764 0.0
C137 C 0.56864 0.02355 0.77565 0.0
C138 C 0.58565 0.06217 0.76172 0.0
C139 C 0.55713 0.02747 0.80434 0.0
H140 H 0.60337 0.13397 0.76557 0.0
C141 C 0.59083 0.10444 0.77653 0.0
C142 C 0.57859 0.10859 0.80477 0.0
C143 C 0.56253 0.07022 0.81873 0.0
C144 C 0.53729 0.98686 0.81918 0.0
H145 H 0.553 0.07319 0.84059 0.0
C146 C 0.55852 0.96016 0.82166 0.0
C147 C 0.54175 0.92497 0.83852 0.0
C148 C 0.49794 0.97636 0.83254 0.0
H149 H 0.48041 0.99572 0.83052 0.0
C150 C 0.48095 0.94105 0.84882 0.0
H151 H 0.58889 0.96785 0.81154 0.0
C152 C 0.50293 0.91579 0.85207 0.0
H153 H 0.48918 0.8885 0.86485 0.0
H154 H 0.45078 0.93343 0.8591 0.0
H155 H 0.49915 0.59617 0.1004 0.0
C156 C 0.52908 0.59329 0.10729 0.0
C157 C 0.55215 0.58525 0.08525 0.0
C158 C 0.54553 0.59877 0.13795 0.0
H159 H 0.61165 0.58045 0.0766 0.0
C160 C 0.59294 0.58495 0.09369 0.0
C161 C 0.61071 0.59177 0.12386 0.0
C162 C 0.58602 0.59671 0.14582 0.0
C163 C 0.52257 0.60963 0.16178 0.0
H164 H 0.59946 0.60039 0.16903 0.0
C165 C 0.47419 0.59323 0.15629 0.0
C166 C 0.45383 0.60673 0.17816 0.0
C167 C 0.54961 0.63863 0.18999 0.0
H168 H 0.58705 0.65351 0.19496 0.0
C169 C 0.52902 0.65024 0.21212 0.0
H170 H 0.45248 0.57108 0.13484 0.0
C171 C 0.48155 0.63459 0.20629 0.0
H172 H 0.46657 0.64484 0.2237 0.0
H173 H 0.55022 0.6724 0.23369 0.0
H174 H 0.25239 0.66089 0.19055 0.0
H175 H 0.14993 0.51471 0.14957 0.0
H176 H 0.21441 0.50031 0.142 0.0
H177 H 0.33551 0.67444 0.14086 0.0
H178 H 0.38505 0.71402 0.17052 0.0
H179 H 0.33035 0.71175 0.17074 0.0
H180 H 0.3295 0.69447 0.22413 0.0
H181 H 0.3839 0.69632 0.22416 0.0
H182 H 0.33339 0.64486 0.23067 0.0
H183 H 0.29243 0.50244 0.14294 0.0
H184 H 0.37459 0.52093 0.15117 0.0
H185 H 0.42252 0.66646 0.18972 0.0
C186 C 0.24343 0.62577 0.18001 0.0
C187 C 0.19655 0.58869 0.1711 0.0
C188 C 0.18598 0.54347 0.15672 0.0
C189 C 0.22227 0.53508 0.15229 0.0
C190 C 0.26851 0.57262 0.16182 0.0
C191 C 0.27885 0.61714 0.17501 0.0
C192 C 0.3308 0.65172 0.1837 0.0
C193 C 0.34634 0.69025 0.16536 0.0
C194 C 0.34522 0.67306 0.21768 0.0
C195 C 0.34854 0.61945 0.17472 0.0
C196 C 0.3124 0.57403 0.16176 0.0
C197 C 0.32095 0.538 0.15277 0.0
C198 C 0.36759 0.54877 0.15748 0.0
C199 C 0.40473 0.59501 0.17131 0.0
C200 C 0.39481 0.63065 0.17947 0.0
H201 H 0.68541 0.24332 0.48568 0.0
H202 H 0.73608 0.22636 0.57052 0.0
H203 H 0.81439 0.29575 0.57218 0.0
H204 H 0.79551 0.29008 0.45532 0.0
H205 H 0.78664 0.332 0.43989 0.0
H206 H 0.73692 0.27688 0.44292 0.0
H207 H 0.70486 0.32173 0.4736 0.0
H208 H 0.75425 0.3769 0.47063 0.0
H209 H 0.74162 0.36574 0.50706 0.0
H210 H 0.88446 0.37047 0.56709 0.0
H211 H 0.93948 0.44895 0.55787 0.0
H212 H 0.84311 0.42043 0.47749 0.0
C213 C 0.71349 0.25351 0.50412 0.0
C214 C 0.70522 0.22906 0.5277 0.0
C215 C 0.74205 0.2444 0.55211 0.0
C216 C 0.78661 0.28361 0.55315 0.0
C217 C 0.79358 0.30748 0.52977 0.0
C218 C 0.75793 0.29329 0.50583 0.0
C219 C 0.77294 0.32835 0.48557 0.0
C220 C 0.77301 0.30545 0.45405 0.0
C221 C 0.74156 0.34942 0.48415 0.0
C222 C 0.82237 0.36487 0.50209 0.0
C223 C 0.83377 0.35163 0.52726 0.0
C224 C 0.87624 0.38085 0.54721 0.0
C225 C 0.90734 0.42521 0.54177 0.0
C226 C 0.89586 0.44 0.51666 0.0
C227 C 0.8532 0.40916 0.4963 0.0
H228 H 0.55752 0.70229 0.78482 0.0
H229 H 0.5867 0.70211 0.87899 0.0
H230 H 0.60116 0.78245 0.89293 0.0
H231 H 0.64233 0.83242 0.79136 0.0
H232 H 0.60237 0.83548 0.76416 0.0
H233 H 0.60374 0.78219 0.76135 0.0
H234 H 0.51472 0.73471 0.76169 0.0
H235 H 0.513 0.78756 0.76449 0.0
H236 H 0.49246 0.75234 0.79218 0.0
H237 H 0.59802 0.85533 0.89697 0.0
H238 H 0.57718 0.91476 0.89072 0.0
H239 H 0.55151 0.86903 0.79409 0.0
C240 C 0.56832 0.71966 0.80834 0.0
C241 C 0.57111 0.69597 0.8308 0.0
C242 C 0.58462 0.71965 0.86136 0.0
C243 C 0.5931 0.76541 0.8695 0.0
C244 C 0.58856 0.78722 0.84681 0.0
C245 C 0.57694 0.7653 0.81682 0.0
C246 C 0.56901 0.79396 0.79697 0.0
C247 C 0.60661 0.8121 0.7773 0.0
C248 C 0.51936 0.76544 0.77773 0.0
C249 C 0.57495 0.83394 0.82055 0.0
C250 C 0.5873 0.82996 0.84915 0.0
C251 C 0.58957 0.85955 0.87471 0.0
C252 C 0.57758 0.89307 0.87098 0.0
C253 C 0.56346 0.89667 0.84194 0.0
C254 C 0.56356 0.86776 0.81646 0.0
H255 H 0.77571 0.498 0.16983 0.0
H256 H 0.88026 0.60273 0.12926 0.0
H257 H 0.83172 0.63825 0.12366 0.0
H258 H 0.67752 0.47679 0.12552 0.0
H259 H 0.64355 0.47217 0.15464 0.0
H260 H 0.68919 0.4592 0.15906 0.0
H261 H 0.72866 0.52102 0.20932 0.0
H262 H 0.68288 0.53416 0.20521 0.0
H263 H 0.74334 0.58067 0.21033 0.0
H264 H 0.76697 0.65402 0.11557 0.0
H265 H 0.69234 0.65219 0.108 0.0
H266 H 0.63147 0.54026 0.15661 0.0
C267 C 0.78866 0.52901 0.16034 0.0
C268 C 0.83142 0.54778 0.14992 0.0
C269 C 0.84765 0.58828 0.13761 0.0
C270 C 0.82038 0.60862 0.13437 0.0
C271 C 0.77781 0.58874 0.1444 0.0
C272 C 0.76248 0.55043 0.1577 0.0
C273 C 0.71454 0.53453 0.16537 0.0
C274 C 0.67913 0.48261 0.15022 0.0
C275 C 0.71754 0.54311 0.19959 0.0
C276 C 0.70362 0.56747 0.15218 0.0
C277 C 0.74099 0.59905 0.1407 0.0
C278 C 0.73793 0.63029 0.12509 0.0
C279 C 0.69543 0.62883 0.12077 0.0
C280 C 0.65657 0.59633 0.13196 0.0
C281 C 0.66106 0.56603 0.14843 0.0
H282 H 0.32638 0.86156 0.44944 0.0
H283 H 0.38856 0.88556 0.54209 0.0
H284 H 0.31467 0.81754 0.5492 0.0
H285 H 0.20711 0.82452 0.46227 0.0
H286 H 0.18064 0.78159 0.42724 0.0
H287 H 0.23699 0.83425 0.43079 0.0
H288 H 0.27166 0.78298 0.4138 0.0
H289 H 0.21559 0.7303 0.41065 0.0
H290 H 0.26642 0.73904 0.43418 0.0
H291 H 0.23535 0.73938 0.54352 0.0
H292 H 0.15811 0.66523 0.52697 0.0
H293 H 0.14788 0.69929 0.43969 0.0
C294 C 0.32425 0.85318 0.47143 0.0
C295 C 0.36326 0.87894 0.49521 0.0
C296 C 0.35899 0.8666 0.5236 0.0
C297 C 0.31721 0.82784 0.52779 0.0
C298 C 0.27979 0.80228 0.50352 0.0
C299 C 0.28283 0.81519 0.47607 0.0
C300 C 0.23857 0.78163 0.4532 0.0
C301 C 0.2144 0.80702 0.44278 0.0
C302 C 0.24869 0.75705 0.42639 0.0
C303 C 0.21031 0.74732 0.47181 0.0
C304 C 0.23445 0.75924 0.50071 0.0
C305 C 0.21592 0.7303 0.52105 0.0
C306 C 0.17183 0.68822 0.51146 0.0
C307 C 0.14655 0.67552 0.48182 0.0
C308 C 0.16619 0.70653 0.46224 0.0
H309 H 0.55754 0.33444 0.80593 0.0
H310 H 0.61583 0.3781 0.90127 0.0
H311 H 0.61376 0.30359 0.89977 0.0
H312 H 0.481 0.20707 0.80414 0.0
H313 H 0.49224 0.1901 0.7681 0.0
H314 H 0.49319 0.24447 0.77749 0.0
H315 H 0.57714 0.28995 0.76608 0.0
H316 H 0.57677 0.23592 0.75707 0.0
H317 H 0.6226 0.28448 0.78549 0.0
H318 H 0.61283 0.22809 0.88699 0.0
H319 H 0.60988 0.15534 0.86398 0.0
H320 H 0.55123 0.16042 0.77728 0.0
C321 C 0.56863 0.32773 0.82663 0.0
C322 C 0.58659 0.36192 0.85373 0.0
C323 C 0.60181 0.35232 0.88024 0.0
C324 C 0.60076 0.31008 0.87964 0.0
C325 C 0.58423 0.2777 0.85239 0.0
C326 C 0.568 0.28577 0.82642 0.0
C327 C 0.55482 0.24655 0.79971 0.0
C328 C 0.50218 0.2205 0.7866 0.0
C329 C 0.58462 0.26537 0.77568 0.0
C330 C 0.56711 0.21579 0.81462 0.0
C331 C 0.58375 0.23418 0.84504 0.0
C332 C 0.59917 0.21293 0.86326 0.0
C333 C 0.5973 0.17161 0.85003 0.0
C334 C 0.58032 0.15216 0.81886 0.0
C335 C 0.56485 0.17461 0.8011 0.0
H336 H 0.52743 0.85571 0.47916 0.0
H337 H 0.57962 0.91132 0.575 0.0
H338 H 0.58895 0.84393 0.57868 0.0
H339 H 0.45814 0.7408 0.48329 0.0
H340 H 0.46838 0.7154 0.44953 0.0
H341 H 0.47379 0.77188 0.45323 0.0
H342 H 0.55859 0.80889 0.44313 0.0
H343 H 0.55338 0.7523 0.43915 0.0
H344 H 0.60074 0.80248 0.46586 0.0
H345 H 0.58161 0.76583 0.57336 0.0
H346 H 0.55817 0.68256 0.55955 0.0
H347 H 0.51251 0.67829 0.46685 0.0
C348 C 0.54204 0.85441 0.50078 0.0
C349 C 0.55297 0.88876 0.52678 0.0
C350 C 0.57112 0.88538 0.55477 0.0
C351 C 0.57677 0.84738 0.55706 0.0
C352 C 0.5644 0.81337 0.53113 0.0
C353 C 0.54773 0.81669 0.50347 0.0
C354 C 0.5323 0.7731 0.47966 0.0
C355 C 0.48007 0.74889 0.46563 0.0
C356 C 0.56311 0.78491 0.45553 0.0
C357 C 0.541 0.7439 0.49853 0.0
C358 C 0.56024 0.76805 0.52804 0.0
C359 C 0.56761 0.7469 0.55019 0.0
C360 C 0.5543 0.69957 0.54208 0.0
C361 C 0.53372 0.67385 0.51205 0.0
C362 C 0.52802 0.69686 0.48999 0.0
H363 H 0.76111 0.54594 0.85019 0.0
H364 H 0.69757 0.42983 0.77229 0.0
H365 H 0.77024 0.42785 0.77619 0.0
H366 H 0.88085 0.60323 0.83368 0.0
H367 H 0.90718 0.6202 0.87284 0.0
H368 H 0.85177 0.61521 0.86186 0.0
H369 H 0.81516 0.55687 0.89667 0.0
H370 H 0.87015 0.56102 0.90739 0.0
H371 H 0.81809 0.50433 0.89173 0.0
H372 H 0.84817 0.43476 0.79111 0.0
H373 H 0.92636 0.45283 0.81465 0.0
H374 H 0.93749 0.56366 0.88262 0.0
C375 C 0.76273 0.5207 0.83358 0.0
C376 C 0.72368 0.48811 0.81093 0.0
C377 C 0.72713 0.45534 0.78978 0.0
C378 C 0.76824 0.45385 0.79183 0.0
C379 C 0.80563 0.48558 0.815 0.0
C380 C 0.80341 0.51875 0.83527 0.0
C381 C 0.84763 0.54762 0.85882 0.0
C382 C 0.87338 0.59964 0.85666 0.0
C383 C 0.8371 0.5421 0.89052 0.0
C384 C 0.87453 0.52467 0.84917 0.0
C385 C 0.85003 0.48924 0.82369 0.0
C386 C 0.86784 0.46271 0.81092 0.0
C387 C 0.91214 0.47313 0.82441 0.0
C388 C 0.9377 0.50941 0.8505 0.0
C389 C 0.91842 0.53528 0.86294 0.0
H390 H 0.18607 0.76155 0.18888 0.0
H391 H 0.19442 0.71174 0.09817 0.0
H392 H 0.26313 0.78992 0.09932 0.0
H393 H 0.22702 0.88521 0.18325 0.0
H394 H 0.26018 0.90843 0.22103 0.0
H395 H 0.20747 0.85096 0.21152 0.0
H396 H 0.25413 0.81498 0.23141 0.0
H397 H 0.30688 0.87218 0.24075 0.0
H398 H 0.3052 0.82411 0.21636 0.0
H399 H 0.33516 0.87057 0.11199 0.0
H400 H 0.40604 0.94786 0.13594 0.0
H401 H 0.35134 0.94382 0.21848 0.0
C402 C 0.20147 0.76757 0.16894 0.0
C403 C 0.18475 0.73088 0.14332 0.0
C404 C 0.20663 0.73957 0.11797 0.0
C405 C 0.24555 0.78384 0.11836 0.0
C406 C 0.26204 0.81895 0.14427 0.0
C407 C 0.24062 0.81141 0.16908 0.0
C408 C 0.26783 0.85354 0.19508 0.0
C409 C 0.23889 0.87585 0.20318 0.0
C410 C 0.28449 0.84039 0.2225 0.0
C411 C 0.30845 0.88526 0.18128 0.0
C412 C 0.30419 0.86508 0.15182 0.0
C413 C 0.33861 0.88705 0.13491 0.0
C414 C 0.37861 0.93078 0.14861 0.0
C415 C 0.38383 0.95136 0.17893 0.0
C416 C 0.34808 0.92854 0.19526 0.0
H417 H 0.51497 0.21611 0.51681 0.0
H418 H 0.55234 0.21898 0.42844 0.0
H419 H 0.55656 0.29473 0.43028 0.0
H420 H 0.44673 0.27499 0.50947 0.0
H421 H 0.46918 0.3067 0.54806 0.0
H422 H 0.46126 0.24918 0.5373 0.0
H423 H 0.54838 0.28394 0.56046 0.0
H424 H 0.55688 0.34166 0.57066 0.0
H425 H 0.59349 0.33236 0.54757 0.0
H426 H 0.56716 0.37523 0.44489 0.0
H427 H 0.57878 0.45154 0.47007 0.0
H428 H 0.53432 0.39448 0.54846 0.0
C429 C 0.52253 0.23181 0.4974 0.0
C430 C 0.53324 0.21166 0.47246 0.0
C431 C 0.54389 0.23381 0.44776 0.0
C432 C 0.54638 0.27683 0.4486 0.0
C433 C 0.53778 0.29689 0.47418 0.0
C434 C 0.52543 0.27474 0.49795 0.0
C435 C 0.52213 0.30538 0.52397 0.0
C436 C 0.47182 0.2827 0.53004 0.0
C437 C 0.55732 0.31648 0.55232 0.0
C438 C 0.53569 0.34867 0.51144 0.0
C439 C 0.54427 0.34316 0.48264 0.0
C440 C 0.55978 0.37967 0.46725 0.0
C441 C 0.56635 0.42281 0.4817 0.0
C442 C 0.55775 0.42894 0.51124 0.0
C443 C 0.54187 0.39113 0.52603 0.0
H444 H 0.36071 0.48264 0.83432 0.0
H445 H 0.45669 0.61781 0.89486 0.0
H446 H 0.394 0.63503 0.8954 0.0
H447 H 0.29901 0.51533 0.79009 0.0
H448 H 0.24131 0.46481 0.78743 0.0
H449 H 0.29193 0.45965 0.79396 0.0
H450 H 0.26743 0.429 0.84201 0.0
H451 H 0.21627 0.4335 0.83546 0.0
H452 H 0.25667 0.46307 0.87077 0.0
H453 H 0.32585 0.64297 0.88488 0.0
H454 H 0.2511 0.63727 0.86731 0.0
H455 H 0.19606 0.49617 0.81554 0.0
C456 C 0.368 0.51529 0.84816 0.0
C457 C 0.4135 0.54883 0.86457 0.0
C458 C 0.42199 0.59131 0.8824 0.0
C459 C 0.38664 0.60158 0.88281 0.0
C460 C 0.34253 0.56848 0.86595 0.0
C461 C 0.33251 0.52567 0.84953 0.0
C462 C 0.28187 0.49689 0.83321 0.0
C463 C 0.27837 0.48342 0.79915 0.0
C464 C 0.25391 0.45301 0.84613 0.0
C465 C 0.26653 0.53188 0.84116 0.0
C466 C 0.30199 0.57257 0.86053 0.0
C467 C 0.29738 0.61096 0.87024 0.0
C468 C 0.25508 0.60755 0.86014 0.0
C469 C 0.21832 0.56627 0.84047 0.0
C470 C 0.22388 0.52789 0.83083 0.0
H471 H 0.80507 0.42934 0.2 0.0
H472 H 0.86581 0.35473 0.157 0.0
H473 H 0.79078 0.27901 0.15154 0.0
H474 H 0.72822 0.34076 0.23895 0.0
H475 H 0.68189 0.35223 0.23101 0.0
H476 H 0.74209 0.39872 0.23511 0.0
H477 H 0.72344 0.41236 0.1827 0.0
H478 H 0.66338 0.36548 0.17807 0.0
H479 H 0.698 0.36407 0.15046 0.0
H480 H 0.70754 0.21224 0.14922 0.0
H481 H 0.62252 0.16041 0.14831 0.0
H482 H 0.61675 0.28153 0.18884 0.0
C483 C 0.80305 0.39691 0.19033 0.0
C484 C 0.84117 0.39733 0.17956 0.0
C485 C 0.83685 0.35462 0.16579 0.0
C486 C 0.79452 0.31168 0.16258 0.0
C487 C 0.75701 0.31262 0.17277 0.0
C488 C 0.76093 0.35424 0.18622 0.0
C489 C 0.7146 0.34676 0.19254 0.0
C490 C 0.71685 0.36041 0.22642 0.0
C491 C 0.69894 0.37375 0.17488 0.0
C492 C 0.68383 0.2943 0.18074 0.0
C493 C 0.70886 0.27502 0.1697 0.0
C494 C 0.68761 0.22694 0.1578 0.0
C495 C 0.63953 0.19788 0.15737 0.0
C496 C 0.61349 0.21733 0.16833 0.0
C497 C 0.63595 0.26605 0.18002 0.0
H498 H 0.98606 0.48521 0.06463 0.0
H499 H 0.0622 0.63468 0.10307 0.0
H500 H 0.09395 0.65092 0.05644 0.0
H501 H 0.07163 0.48453 0.01733 0.0
H502 H 0.02481 0.44082 0.98729 0.0
H503 H 0.01676 0.44137 0.02573 0.0
H504 H 0.9428 0.44612 0.01255 0.0
H505 H 0.95081 0.44602 0.97428 0.0
H506 H 0.9475 0.49322 0.99572 0.0
H507 H 0.10889 0.65046 0.00306 0.0
H508 H 0.10144 0.63385 0.94761 0.0
H509 H 0.01177 0.48487 0.94396 0.0
C510 C 0.01055 0.52122 0.06345 0.0
C511 C 0.02339 0.55874 0.08767 0.0
C512 C 0.05404 0.60553 0.08516 0.0
C513 C 0.07186 0.61498 0.05869 0.0
C514 C 0.0583 0.57707 0.03497 0.0
C515 C 0.0283 0.53109 0.0372 0.0
C516 C 0.0142 0.49695 0.00754 0.0
C517 C 0.03298 0.46397 0.00961 0.0
C518 C 0.96067 0.46897 0.9969 0.0
C519 C 0.03907 0.53088 0.98785 0.0
C520 C 0.06538 0.57688 0.00414 0.0
C521 C 0.08907 0.61452 0.99022 0.0
C522 C 0.08482 0.60485 0.95882 0.0
C523 C 0.05645 0.55812 0.94187 0.0
C524 C 0.03419 0.52079 0.95665 0.0
H525 H 0.50968 0.08073 0.41387 0.0
H526 H 0.5327 0.96429 0.40822 0.0
H527 H 0.53863 0.96419 0.35481 0.0
H528 H 0.43642 0.03873 0.34207 0.0
H529 H 0.45803 0.09645 0.33436 0.0
H530 H 0.45918 0.08928 0.37253 0.0
H531 H 0.54826 0.15069 0.3849 0.0
H532 H 0.54758 0.15735 0.34654 0.0
H533 H 0.58669 0.14163 0.36352 0.0
H534 H 0.53994 0.97501 0.30229 0.0
H535 H 0.52428 0.9877 0.25181 0.0
H536 H 0.49915 0.09633 0.29089 0.0
C537 C 0.51654 0.05565 0.40143 0.0
C538 C 0.52137 0.02292 0.41516 0.0
C539 C 0.52886 0.9896 0.39804 0.0
C540 C 0.53281 0.98965 0.36784 0.0
C541 C 0.52881 0.023 0.35511 0.0
C542 C 0.51998 0.05484 0.37117 0.0
C543 C 0.51307 0.08419 0.35143 0.0
C544 C 0.46374 0.07668 0.35001 0.0
C545 C 0.55118 0.13657 0.36225 0.0
C546 C 0.51867 0.06334 0.3216 0.0
C547 C 0.52864 0.02872 0.32443 0.0
C548 C 0.53253 0.00227 0.29979 0.0
C549 C 0.52381 0.00982 0.27128 0.0
C550 C 0.51109 0.04328 0.2677 0.0
C551 C 0.51005 0.07146 0.29323 0.0
H552 H 0.51539 0.53036 0.73445 0.0
H553 H 0.63227 0.5151 0.76422 0.0
H554 H 0.65713 0.52592 0.71521 0.0
H555 H 0.48753 0.46748 0.65953 0.0
H556 H 0.47217 0.50538 0.64407 0.0
H557 H 0.46575 0.49833 0.68188 0.0
H558 H 0.5182 0.58893 0.70087 0.0
H559 H 0.5256 0.59606 0.66308 0.0
H560 H 0.57619 0.61971 0.69226 0.0
H561 H 0.66799 0.53713 0.66241 0.0
H562 H 0.65831 0.53748 0.60834 0.0
H563 H 0.53377 0.54467 0.6139 0.0
C564 C 0.5462 0.52916 0.73073 0.0
C565 C 0.57174 0.52155 0.75311 0.0
C566 C 0.61177 0.52017 0.74725 0.0
C567 C 0.6265 0.52694 0.71964 0.0
C568 C 0.6009 0.53522 0.69829 0.0
C569 C 0.56131 0.53584 0.70345 0.0
C570 C 0.53843 0.54296 0.67642 0.0
C571 C 0.48801 0.50103 0.66479 0.0
C572 C 0.5397 0.5897 0.6836 0.0
C573 C 0.57051 0.54484 0.65477 0.0
C574 C 0.6069 0.54131 0.66797 0.0
C575 C 0.63971 0.54003 0.65189 0.0
C576 C 0.63391 0.54022 0.62121 0.0
C577 C 0.59525 0.54104 0.60689 0.0
C578 C 0.56421 0.54503 0.62425 0.0
H579 H 0.50218 0.00294 0.58568 0.0
H580 H 0.63616 0.12535 0.58397 0.0
H581 H 0.66346 0.13158 0.63723 0.0
H582 H 0.49161 0.0444 0.65807 0.0
H583 H 0.46486 0.98797 0.66835 0.0
H584 H 0.45787 0.99095 0.62949 0.0
H585 H 0.49122 0.93704 0.61737 0.0
H586 H 0.49909 0.93458 0.65639 0.0
H587 H 0.54807 0.95405 0.63715 0.0
H588 H 0.67446 0.12781 0.69076 0.0
H589 H 0.66571 0.11965 0.7429 0.0
H590 H 0.52467 -0.00035 0.71087 0.0
C591 C 0.53728 0.03082 0.59666 0.0
C592 C 0.56708 0.06411 0.58114 0.0
C593 C 0.61275 0.10018 0.59585 0.0
C594 C 0.62869 0.10353 0.62591 0.0
C595 C 0.59855 0.07027 0.64077 0.0
C596 C 0.55369 0.03478 0.62678 0.0
C597 C 0.52733 0.00578 0.64859 0.0
C598 C 0.48281 0.00741 0.65129 0.0
C599 C 0.51575 0.95484 0.63932 0.0
C600 C 0.56373 0.03174 0.67727 0.0
C601 C 0.60494 0.0681 0.672 0.0
C602 C 0.64265 0.09913 0.69515 0.0
C603 C 0.63746 0.09418 0.72464 0.0
C604 C 0.59477 0.05875 0.73072 0.0
C605 C 0.55805 0.02618 0.70667 0.0
H606 H 0.54349 0.47907 0.92087 0.0
H607 H 0.59263 0.61772 0.9031 0.0
H608 H 0.57473 0.64206 0.95156 0.0
H609 H 0.44892 0.47174 0.96094 0.0
H610 H 0.46011 0.44182 0.9872 0.0
H611 H 0.4704 0.43361 0.94943 0.0
H612 H 0.55639 0.4599 0.96996 0.0
H613 H 0.54593 0.46709 0.00757 0.0
H614 H 0.59326 0.51562 0.99614 0.0
H615 H 0.55858 0.65298 0.0037 0.0
H616 H 0.55705 0.65349 0.05771 0.0
H617 H 0.51894 0.50779 0.04121 0.0
C618 C 0.54978 0.51432 0.92712 0.0
C619 C 0.56845 0.54643 0.90837 0.0
C620 C 0.5775 0.5926 0.91723 0.0
C621 C 0.56707 0.60646 0.94448 0.0
C622 C 0.54763 0.57356 0.96236 0.0
C623 C 0.53947 0.52853 0.9541 0.0
C624 C 0.52339 0.50148 0.9786 0.0
C625 C 0.47269 0.45969 0.96843 0.0
C626 C 0.55675 0.48512 0.98867 0.0
C627 C 0.52639 0.53916 0.00268 0.0
C628 C 0.53887 0.58001 0.99258 0.0
C629 C 0.5479 0.62097 0.0117 0.0
C630 C 0.5466 0.62092 0.04224 0.0
C631 C 0.53704 0.58042 0.05316 0.0
C632 C 0.52496 0.53863 0.033 0.0
H633 H 0.06677 0.63322 0.26561 0.0
H634 H 0.97061 0.48528 0.2258 0.0
H635 H 0.95927 0.46876 0.27646 0.0
H636 H 0.12256 0.61874 0.32871 0.0
H637 H 0.12798 0.66799 0.35419 0.0
H638 H 0.1265 0.66786 0.31481 0.0
H639 H 0.05612 0.68019 0.31289 0.0
H640 H 0.05754 0.68047 0.35233 0.0
H641 H 0.0043 0.63969 0.32565 0.0
H642 H 0.96323 0.46866 0.3329 0.0
H643 H 0.9809 0.48574 0.38867 0.0
H644 H 0.0704 0.63427 0.38962 0.0
C645 C 0.043 0.59743 0.26758 0.0
C646 C 0.01886 0.56059 0.24188 0.0
C647 C 0.98832 0.51415 0.24527 0.0
C648 C 0.98202 0.50442 0.27394 0.0
C649 C 0.00628 0.54166 0.29894 0.0
C650 C 0.03586 0.58731 0.29592 0.0
C651 C 0.05829 0.62115 0.3261 0.0
C652 C 0.112 0.64533 0.33124 0.0
C653 C 0.04314 0.65751 0.32943 0.0
C654 C 0.03761 0.5874 0.34662 0.0
C655 C 0.00771 0.54166 0.33079 0.0
C656 C 0.98632 0.50449 0.34549 0.0
C657 C 0.9964 0.51447 0.37714 0.0
C658 C 0.02763 0.56121 0.39361 0.0
C659 C 0.04728 0.59792 0.37786 0.0
loop_
_geom_bond_atom_site_label_1
_geom_bond_atom_site_label_2
_geom_bond_distance
_geom_bond_site_symmetry_2
_ccdc_geom_bond_type
Zn0 O6 1.969 . S
Zn0 O7 1.965 . S
Zn0 O11 2.024 . S
Zn0 O16 1.969 . S
Zn1 O8 1.969 . S
Zn1 O14 1.969 . S
Zn1 O15 1.960 1_655 S
Zn1 O17 2.024 . S
C2 O3 1.229 . S
C2 O11 1.058 . S
O3 C2 1.229 . S
C4 O5 1.229 . S
C4 O17 1.058 . S
O5 C4 1.229 . S
O6 Zn0 1.969 . S
O6 C9 1.267 . S
O7 Zn0 1.965 . S
O7 C18 1.260 . S
O8 Zn1 1.969 . S
O8 C18 1.258 1_655 S
C9 O6 1.267 . S
C9 O10 1.228 . S
O10 C9 1.228 . S
O11 Zn0 2.024 . S
O11 C2 1.058 . S
C12 O13 1.228 . S
C12 O14 1.267 . S
O13 C12 1.228 . S
O14 Zn1 1.969 . S
O14 C12 1.267 . S
O15 Zn1 1.960 1_455 S
O15 C19 1.262 . S
O16 Zn0 1.969 . S
O16 C19 1.258 . S
O17 Zn1 2.024 . S
O17 C4 1.058 . S
C18 O7 1.260 . S
C18 O8 1.258 1_455 S
C19 O15 1.262 . S
C19 O16 1.258 . S
Zn20 O26 1.969 . S
Zn20 O27 1.965 . S
Zn20 O31 2.024 . S
Zn20 O36 1.969 . S
Zn21 O28 1.969 . S
Zn21 O34 1.969 . S
Zn21 O35 1.965 1_565 S
Zn21 O37 2.024 . S
C22 O23 1.229 . S
C22 O31 1.058 . S
O23 C22 1.229 . S
C24 O25 1.229 . S
C24 O37 1.058 . S
O25 C24 1.229 . S
O26 Zn20 1.969 . S
O26 C29 1.267 . S
O27 Zn20 1.965 . S
O27 C38 1.260 . S
O28 Zn21 1.969 . S
O28 C38 1.258 1_565 S
C29 O26 1.267 . S
C29 O30 1.228 . S
O30 C29 1.228 . S
O31 Zn20 2.024 . S
O31 C22 1.058 . S
C32 O33 1.228 . S
C32 O34 1.267 . S
O33 C32 1.228 . S
O34 Zn21 1.969 . S
O34 C32 1.267 . S
O35 Zn21 1.965 1_545 S
O35 C39 1.260 . S
O36 Zn20 1.969 . S
O36 C39 1.258 . S
O37 Zn21 2.024 . S
O37 C24 1.058 . S
C38 O27 1.260 . S
C38 O28 1.258 1_545 S
C39 O35 1.260 . S
C39 O36 1.258 . S
Zn40 O46 1.969 . S
Zn40 O47 1.965 . S
Zn40 O51 2.024 . S
Zn40 O56 1.969 . S
Zn41 O48 1.969 . S
Zn41 O54 1.969 . S
Zn41 O55 1.965 . S
Zn41 O57 2.024 . S
C42 O43 1.229 . S
C42 O51 1.058 . S
O43 C42 1.229 . S
C44 O45 1.229 . S
C44 O57 1.058 . S
O45 C44 1.229 . S
O46 Zn40 1.969 . S
O46 C49 1.267 . S
O47 Zn40 1.965 . S
O47 C58 1.260 . S
O48 Zn41 1.969 . S
O48 C58 1.258 . S
C49 O46 1.267 . S
C49 O50 1.228 . S
O50 C49 1.228 . S
O51 Zn40 2.024 . S
O51 C42 1.058 . S
C52 O53 1.228 . S
C52 O54 1.267 . S
O53 C52 1.228 . S
O54 Zn41 1.969 . S
O54 C52 1.267 . S
O55 Zn41 1.965 . S
O55 C59 1.260 . S
O56 Zn40 1.969 . S
O56 C59 1.258 . S
O57 Zn41 2.024 . S
O57 C44 1.058 . S
C58 O47 1.260 . S
C58 O48 1.258 . S
C59 O55 1.260 . S
C59 O56 1.258 . S
H60 C61 0.949 . S
C61 H60 0.949 . S
C61 C62 1.395 . S
C61 C63 1.391 . S
C62 C61 1.395 . S
C62 C65 1.390 . S
C63 C61 1.391 . S
C63 C67 1.387 . S
C63 C68 1.491 . S
H64 C65 0.950 1_565 S
C65 C62 1.390 . S
C65 H64 0.950 1_545 S
C65 C66 1.378 1_545 S
C66 C65 1.378 1_565 S
C66 C67 1.409 1_565 S
C67 C63 1.387 . S
C67 C66 1.409 1_545 S
C67 H69 0.951 . S
C68 C63 1.491 . S
C68 C70 1.382 . S
C68 C72 1.404 . S
H69 C67 0.951 . S
C70 C68 1.382 . S
C70 C71 1.390 . S
C70 H75 0.949 . S
C71 C70 1.390 . S
C71 C76 1.399 . S
C72 C68 1.404 . S
C72 H73 0.950 . S
C72 C74 1.375 . S
H73 C72 0.950 . S
C74 C72 1.375 . S
C74 C76 1.382 . S
C74 H78 0.950 . S
H75 C70 0.949 . S
C76 C71 1.399 . S
C76 C74 1.382 . S
C76 H77 0.952 . S
H77 C76 0.952 . S
H78 C74 0.950 . S
H79 C80 0.949 . S
C80 H79 0.949 . S
C80 C81 1.395 . S
C80 C82 1.391 . S
C81 C80 1.395 . S
C81 C84 1.390 . S
C82 C80 1.391 . S
C82 C86 1.387 . S
C82 C87 1.491 . S
H83 C84 0.950 . S
C84 C81 1.390 . S
C84 H83 0.950 . S
C84 C85 1.378 . S
C85 C84 1.378 . S
C85 C86 1.409 . S
C86 C82 1.387 . S
C86 C85 1.409 . S
C86 H88 0.951 . S
C87 C82 1.491 . S
C87 C89 1.382 . S
C87 C91 1.404 . S
H88 C86 0.951 . S
C89 C87 1.382 . S
C89 C90 1.390 . S
C89 H94 0.949 . S
C90 C89 1.390 . S
C90 C95 1.399 . S
C91 C87 1.404 . S
C91 H92 0.950 . S
C91 C93 1.375 . S
H92 C91 0.950 . S
C93 C91 1.375 . S
C93 C95 1.382 . S
C93 H97 0.950 . S
H94 C89 0.949 . S
C95 C90 1.399 . S
C95 C93 1.382 . S
C95 H96 0.952 . S
H96 C95 0.952 . S
H97 C93 0.950 . S
H98 C99 0.949 . S
C99 H98 0.949 . S
C99 C100 1.395 . S
C99 C101 1.391 . S
C100 C99 1.395 . S
C100 C103 1.390 1_455 S
C101 C99 1.391 . S
C101 C105 1.387 . S
C101 C106 1.491 . S
H102 C103 0.950 . S
C103 C100 1.390 1_655 S
C103 H102 0.950 . S
C103 C104 1.378 . S
C104 C103 1.378 . S
C104 C105 1.409 1_655 S
C105 C101 1.387 . S
C105 C104 1.409 1_455 S
C105 H107 0.951 . S
C106 C101 1.491 . S
C106 C108 1.382 . S
C106 C110 1.404 . S
H107 C105 0.951 . S
C108 C106 1.382 . S
C108 C109 1.390 . S
C108 H113 0.949 . S
C109 C108 1.390 . S
C109 C114 1.399 . S
C110 C106 1.404 . S
C110 H111 0.950 . S
C110 C112 1.375 . S
H111 C110 0.950 . S
C112 C110 1.375 . S
C112 C114 1.382 . S
C112 H116 0.950 . S
H113 C108 0.949 . S
C114 C109 1.399 . S
C114 C112 1.382 . S
C114 H115 0.952 . S
H115 C114 0.952 . S
H116 C112 0.950 . S
H117 C118 0.949 1_655 S
C118 H117 0.949 1_455 S
C118 C119 1.395 . S
C118 C120 1.391 . S
C119 C118 1.395 . S
C119 C122 1.390 . S
C120 C118 1.391 . S
C120 C124 1.387 . S
C120 C125 1.491 1_455 S
H121 C122 0.950 . S
C122 C119 1.390 . S
C122 H121 0.950 . S
C122 C123 1.378 . S
C123 C122 1.378 . S
C123 C124 1.409 . S
C124 C120 1.387 . S
C124 C123 1.409 . S
C124 H126 0.951 . S
C125 C120 1.491 1_655 S
C125 C127 1.382 . S
C125 C129 1.404 . S
H126 C124 0.951 . S
C127 C125 1.382 . S
C127 C128 1.390 . S
C127 H132 0.949 . S
C128 C127 1.390 . S
C128 C133 1.399 . S
C129 C125 1.404 . S
C129 H130 0.950 1_655 S
C129 C131 1.375 . S
H130 C129 0.950 1_455 S
C131 C129 1.375 . S
C131 C133 1.382 . S
C131 H135 0.950 . S
H132 C127 0.949 . S
C133 C128 1.399 . S
C133 C131 1.382 . S
C133 H134 0.952 . S
H134 C133 0.952 . S
H135 C131 0.950 . S
H136 C137 0.949 . S
C137 H136 0.949 . S
C137 C138 1.395 . S
C137 C139 1.391 . S
C138 C137 1.395 . S
C138 C141 1.390 . S
C139 C137 1.391 . S
C139 C143 1.387 . S
C139 C144 1.491 . S
H140 C141 0.950 . S
C141 C138 1.390 . S
C141 H140 0.950 . S
C141 C142 1.378 . S
C142 C141 1.378 . S
C142 C143 1.409 . S
C143 C139 1.387 . S
C143 C142 1.409 . S
C143 H145 0.951 . S
C144 C139 1.491 . S
C144 C146 1.382 1_545 S
C144 C148 1.404 1_545 S
H145 C143 0.951 . S
C146 C144 1.382 1_565 S
C146 C147 1.390 . S
C146 H151 0.949 . S
C147 C146 1.390 . S
C147 C152 1.399 . S
C148 C144 1.404 1_565 S
C148 H149 0.950 1_565 S
C148 C150 1.375 . S
H149 C148 0.950 1_545 S
C150 C148 1.375 . S
C150 C152 1.382 . S
C150 H154 0.950 . S
H151 C146 0.949 . S
C152 C147 1.399 . S
C152 C150 1.382 . S
C152 H153 0.952 . S
H153 C152 0.952 . S
H154 C150 0.950 . S
H155 C156 0.949 . S
C156 H155 0.949 . S
C156 C157 1.395 . S
C156 C158 1.391 . S
C157 C156 1.395 . S
C157 C160 1.390 . S
C158 C156 1.391 . S
C158 C162 1.387 . S
C158 C163 1.491 . S
H159 C160 0.950 . S
C160 C157 1.390 . S
C160 H159 0.950 . S
C160 C161 1.378 . S
C161 C160 1.378 . S
C161 C162 1.409 . S
C162 C158 1.387 . S
C162 C161 1.409 . S
C162 H164 0.951 . S
C163 C158 1.491 . S
C163 C165 1.382 . S
C163 C167 1.404 . S
H164 C162 0.951 . S
C165 C163 1.382 . S
C165 C166 1.390 . S
C165 H170 0.949 . S
C166 C165 1.390 . S
C166 C171 1.399 . S
C167 C163 1.404 . S
C167 H168 0.950 . S
C167 C169 1.375 . S
H168 C167 0.950 . S
C169 C167 1.375 . S
C169 C171 1.382 . S
C169 H173 0.950 . S
H170 C165 0.949 . S
C171 C166 1.399 . S
C171 C169 1.382 . S
C171 H172 0.952 . S
H172 C171 0.952 . S
H173 C169 0.950 . S
H174 C186 0.930 . S
H175 C188 0.930 . S
H176 C189 0.930 . S
H177 C193 0.959 . S
H178 C193 0.959 . S
H179 C193 0.961 . S
H180 C194 0.960 . S
H181 C194 0.961 . S
H182 C194 0.959 . S
H183 C197 0.929 . S
H184 C198 0.931 . S
H185 C200 0.930 . S
C186 H174 0.930 . S
C186 C187 1.399 . S
C186 C191 1.399 . S
C187 C186 1.399 . S
C187 C188 1.376 . S
C188 H175 0.930 . S
C188 C187 1.376 . S
C188 C189 1.388 . S
C189 H176 0.930 . S
C189 C188 1.388 . S
C189 C190 1.390 . S
C190 C189 1.390 . S
C190 C191 1.394 . S
C190 C196 1.465 . S
C191 C186 1.399 . S
C191 C190 1.394 . S
C191 C192 1.516 . S
C192 C191 1.516 . S
C192 C193 1.502 . S
C192 C194 1.561 . S
C192 C195 1.526 . S
C193 H177 0.959 . S
C193 H178 0.959 . S
C193 H179 0.961 . S
C193 C192 1.502 . S
C194 H180 0.960 . S
C194 H181 0.961 . S
C194 H182 0.959 . S
C194 C192 1.561 . S
C195 C192 1.526 . S
C195 C196 1.396 . S
C195 C200 1.390 . S
C196 C190 1.465 . S
C196 C195 1.396 . S
C196 C197 1.399 . S
C197 H183 0.929 . S
C197 C196 1.399 . S
C197 C198 1.385 . S
C198 H184 0.931 . S
C198 C197 1.385 . S
C198 C199 1.389 . S
C199 C198 1.389 . S
C199 C200 1.387 . S
C200 H185 0.930 . S
C200 C195 1.390 . S
C200 C199 1.387 . S
H201 C213 0.930 . S
H202 C215 0.930 . S
H203 C216 0.930 . S
H204 C220 0.959 . S
H205 C220 0.959 . S
H206 C220 0.961 . S
H207 C221 0.960 . S
H208 C221 0.961 . S
H209 C221 0.959 . S
H210 C224 0.929 . S
H211 C225 0.931 . S
H212 C227 0.930 . S
C213 H201 0.930 . S
C213 C214 1.399 . S
C213 C218 1.399 . S
C214 C213 1.399 . S
C214 C215 1.376 . S
C215 H202 0.930 . S
C215 C214 1.376 . S
C215 C216 1.388 . S
C216 H203 0.930 . S
C216 C215 1.388 . S
C216 C217 1.390 . S
C217 C216 1.390 . S
C217 C218 1.394 . S
C217 C223 1.465 . S
C218 C213 1.399 . S
C218 C217 1.394 . S
C218 C219 1.516 . S
C219 C218 1.516 . S
C219 C220 1.502 . S
C219 C221 1.561 . S
C219 C222 1.526 . S
C220 H204 0.959 . S
C220 H205 0.959 . S
C220 H206 0.961 . S
C220 C219 1.502 . S
C221 H207 0.960 . S
C221 H208 0.961 . S
C221 H209 0.959 . S
C221 C219 1.561 . S
C222 C219 1.526 . S
C222 C223 1.396 . S
C222 C227 1.390 . S
C223 C217 1.465 . S
C223 C222 1.396 . S
C223 C224 1.399 . S
C224 H210 0.929 . S
C224 C223 1.399 . S
C224 C225 1.385 . S
C225 H211 0.931 . S
C225 C224 1.385 . S
C225 C226 1.389 . S
C226 C225 1.389 . S
C226 C227 1.387 . S
C227 H212 0.930 . S
C227 C222 1.390 . S
C227 C226 1.387 . S
H228 C240 0.930 . S
H229 C242 0.930 . S
H230 C243 0.930 . S
H231 C247 0.959 . S
H232 C247 0.959 . S
H233 C247 0.961 . S
H234 C248 0.960 . S
H235 C248 0.961 . S
H236 C248 0.959 . S
H237 C251 0.929 . S
H238 C252 0.931 . S
H239 C254 0.930 . S
C240 H228 0.930 . S
C240 C241 1.399 . S
C240 C245 1.399 . S
C241 C240 1.399 . S
C241 C242 1.376 . S
C242 H229 0.930 . S
C242 C241 1.376 . S
C242 C243 1.388 . S
C243 H230 0.930 . S
C243 C242 1.388 . S
C243 C244 1.390 . S
C244 C243 1.390 . S
C244 C245 1.394 . S
C244 C250 1.465 . S
C245 C240 1.399 . S
C245 C244 1.394 . S
C245 C246 1.516 . S
C246 C245 1.516 . S
C246 C247 1.502 . S
C246 C248 1.561 . S
C246 C249 1.526 . S
C247 H231 0.959 . S
C247 H232 0.959 . S
C247 H233 0.961 . S
C247 C246 1.502 . S
C248 H234 0.960 . S
C248 H235 0.961 . S
C248 H236 0.959 . S
C248 C246 1.561 . S
C249 C246 1.526 . S
C249 C250 1.396 . S
C249 C254 1.390 . S
C250 C244 1.465 . S
C250 C249 1.396 . S
C250 C251 1.399 . S
C251 H237 0.929 . S
C251 C250 1.399 . S
C251 C252 1.385 . S
C252 H238 0.931 . S
C252 C251 1.385 . S
C252 C253 1.389 . S
C253 C252 1.389 . S
C253 C254 1.387 . S
C254 H239 0.930 . S
C254 C249 1.390 . S
C254 C253 1.387 . S
H255 C267 0.930 . S
H256 C269 0.930 . S
H257 C270 0.930 . S
H258 C274 0.959 . S
H259 C274 0.959 . S
H260 C274 0.961 . S
H261 C275 0.960 . S
H262 C275 0.961 . S
H263 C275 0.959 . S
H264 C278 0.929 . S
H265 C279 0.931 . S
H266 C281 0.930 . S
C267 H255 0.930 . S
C267 C268 1.399 . S
C267 C272 1.399 . S
C268 C267 1.399 . S
C268 C269 1.376 . S
C269 H256 0.930 . S
C269 C268 1.376 . S
C269 C270 1.388 . S
C270 H257 0.930 . S
C270 C269 1.388 . S
C270 C271 1.390 . S
C271 C270 1.390 . S
C271 C272 1.394 . S
C271 C277 1.465 . S
C272 C267 1.399 . S
C272 C271 1.394 . S
C272 C273 1.516 . S
C273 C272 1.516 . S
C273 C274 1.502 . S
C273 C275 1.561 . S
C273 C276 1.526 . S
C274 H258 0.959 . S
C274 H259 0.959 . S
C274 H260 0.961 . S
C274 C273 1.502 . S
C275 H261 0.960 . S
C275 H262 0.961 . S
C275 H263 0.959 . S
C275 C273 1.561 . S
C276 C273 1.526 . S
C276 C277 1.396 . S
C276 C281 1.390 . S
C277 C271 1.465 . S
C277 C276 1.396 . S
C277 C278 1.399 . S
C278 H264 0.929 . S
C278 C277 1.399 . S
C278 C279 1.385 . S
C279 H265 0.931 . S
C279 C278 1.385 . S
C279 C280 1.389 . S
C280 C279 1.389 . S
C280 C281 1.387 . S
C281 H266 0.930 . S
C281 C276 1.390 . S
C281 C280 1.387 . S
H282 C294 0.930 . S
H283 C296 0.930 . S
H284 C297 0.930 . S
H285 C301 0.959 . S
H286 C301 0.959 . S
H287 C301 0.961 . S
H288 C302 0.960 . S
H289 C302 0.961 . S
H290 C302 0.959 . S
H291 C305 0.929 . S
H292 C306 0.931 . S
H293 C308 0.930 . S
C294 H282 0.930 . S
C294 C295 1.399 . S
C294 C299 1.399 . S
C295 C294 1.399 . S
C295 C296 1.376 . S
C296 H283 0.930 . S
C296 C295 1.376 . S
C296 C297 1.388 . S
C297 H284 0.930 . S
C297 C296 1.388 . S
C297 C298 1.390 . S
C298 C297 1.390 . S
C298 C299 1.394 . S
C298 C304 1.465 . S
C299 C294 1.399 . S
C299 C298 1.394 . S
C299 C300 1.516 . S
C300 C299 1.516 . S
C300 C301 1.502 . S
C300 C302 1.561 . S
C300 C303 1.526 . S
C301 H285 0.959 . S
C301 H286 0.959 . S
C301 H287 0.961 . S
C301 C300 1.502 . S
C302 H288 0.960 . S
C302 H289 0.961 . S
C302 H290 0.959 . S
C302 C300 1.561 . S
C303 C300 1.526 . S
C303 C304 1.396 . S
C303 C308 1.390 . S
C304 C298 1.465 . S
C304 C303 1.396 . S
C304 C305 1.399 . S
C305 H291 0.929 . S
C305 C304 1.399 . S
C305 C306 1.385 . S
C306 H292 0.931 . S
C306 C305 1.385 . S
C306 C307 1.389 . S
C307 C306 1.389 . S
C307 C308 1.387 . S
C308 H293 0.930 . S
C308 C303 1.390 . S
C308 C307 1.387 . S
H309 C321 0.930 . S
H310 C323 0.930 . S
H311 C324 0.930 . S
H312 C328 0.959 . S
H313 C328 0.959 . S
H314 C328 0.961 . S
H315 C329 0.960 . S
H316 C329 0.961 . S
H317 C329 0.959 . S
H318 C332 0.929 . S
H319 C333 0.931 . S
H320 C335 0.930 . S
C321 H309 0.930 . S
C321 C322 1.399 . S
C321 C326 1.399 . S
C322 C321 1.399 . S
C322 C323 1.376 . S
C323 H310 0.930 . S
C323 C322 1.376 . S
C323 C324 1.388 . S
C324 H311 0.930 . S
C324 C323 1.388 . S
C324 C325 1.390 . S
C325 C324 1.390 . S
C325 C326 1.394 . S
C325 C331 1.465 . S
C326 C321 1.399 . S
C326 C325 1.394 . S
C326 C327 1.516 . S
C327 C326 1.516 . S
C327 C328 1.502 . S
C327 C329 1.561 . S
C327 C330 1.526 . S
C328 H312 0.959 . S
C328 H313 0.959 . S
C328 H314 0.961 . S
C328 C327 1.502 . S
C329 H315 0.960 . S
C329 H316 0.961 . S
C329 H317 0.959 . S
C329 C327 1.561 . S
C330 C327 1.526 . S
C330 C331 1.396 . S
C330 C335 1.390 . S
C331 C325 1.465 . S
C331 C330 1.396 . S
C331 C332 1.399 . S
C332 H318 0.929 . S
C332 C331 1.399 . S
C332 C333 1.385 . S
C333 H319 0.931 . S
C333 C332 1.385 . S
C333 C334 1.389 . S
C334 C333 1.389 . S
C334 C335 1.387 . S
C335 H320 0.930 . S
C335 C330 1.390 . S
C335 C334 1.387 . S
H336 C348 0.930 . S
H337 C350 0.930 . S
H338 C351 0.930 . S
H339 C355 0.959 . S
H340 C355 0.959 . S
H341 C355 0.961 . S
H342 C356 0.960 . S
H343 C356 0.961 . S
H344 C356 0.959 . S
H345 C359 0.929 . S
H346 C360 0.931 . S
H347 C362 0.930 . S
C348 H336 0.930 . S
C348 C349 1.399 . S
C348 C353 1.399 . S
C349 C348 1.399 . S
C349 C350 1.376 . S
C350 H337 0.930 . S
C350 C349 1.376 . S
C350 C351 1.388 . S
C351 H338 0.930 . S
C351 C350 1.388 . S
C351 C352 1.390 . S
C352 C351 1.390 . S
C352 C353 1.394 . S
C352 C358 1.465 . S
C353 C348 1.399 . S
C353 C352 1.394 . S
C353 C354 1.516 . S
C354 C353 1.516 . S
C354 C355 1.502 . S
C354 C356 1.561 . S
C354 C357 1.526 . S
C355 H339 0.959 . S
C355 H340 0.959 . S
C355 H341 0.961 . S
C355 C354 1.502 . S
C356 H342 0.960 . S
C356 H343 0.961 . S
C356 H344 0.959 . S
C356 C354 1.561 . S
C357 C354 1.526 . S
C357 C358 1.396 . S
C357 C362 1.390 . S
C358 C352 1.465 . S
C358 C357 1.396 . S
C358 C359 1.399 . S
C359 H345 0.929 . S
C359 C358 1.399 . S
C359 C360 1.385 . S
C360 H346 0.931 . S
C360 C359 1.385 . S
C360 C361 1.389 . S
C361 C360 1.389 . S
C361 C362 1.387 . S
C362 H347 0.930 . S
C362 C357 1.390 . S
C362 C361 1.387 . S
H363 C375 0.930 . S
H364 C377 0.930 . S
H365 C378 0.930 . S
H366 C382 0.959 . S
H367 C382 0.959 . S
H368 C382 0.961 . S
H369 C383 0.960 . S
H370 C383 0.961 . S
H371 C383 0.959 . S
H372 C386 0.929 . S
H373 C387 0.931 . S
H374 C389 0.930 . S
C375 H363 0.930 . S
C375 C376 1.399 . S
C375 C380 1.399 . S
C376 C375 1.399 . S
C376 C377 1.376 . S
C377 H364 0.930 . S
C377 C376 1.376 . S
C377 C378 1.388 . S
C378 H365 0.930 . S
C378 C377 1.388 . S
C378 C379 1.390 . S
C379 C378 1.390 . S
C379 C380 1.394 . S
C379 C385 1.465 . S
C380 C375 1.399 . S
C380 C379 1.394 . S
C380 C381 1.516 . S
C381 C380 1.516 . S
C381 C382 1.502 . S
C381 C383 1.561 . S
C381 C384 1.526 . S
C382 H366 0.959 . S
C382 H367 0.959 . S
C382 H368 0.961 . S
C382 C381 1.502 . S
C383 H369 0.960 . S
C383 H370 0.961 . S
C383 H371 0.959 . S
C383 C381 1.561 . S
C384 C381 1.526 . S
C384 C385 1.396 . S
C384 C389 1.390 . S
C385 C379 1.465 . S
C385 C384 1.396 . S
C385 C386 1.399 . S
C386 H372 0.929 . S
C386 C385 1.399 . S
C386 C387 1.385 . S
C387 H373 0.931 . S
C387 C386 1.385 . S
C387 C388 1.389 . S
C388 C387 1.389 . S
C388 C389 1.387 . S
C389 H374 0.930 . S
C389 C384 1.390 . S
C389 C388 1.387 . S
H390 C402 0.930 . S
H391 C404 0.930 . S
H392 C405 0.930 . S
H393 C409 0.959 . S
H394 C409 0.959 . S
H395 C409 0.961 . S
H396 C410 0.960 . S
H397 C410 0.961 . S
H398 C410 0.959 . S
H399 C413 0.929 . S
H400 C414 0.931 . S
H401 C416 0.930 . S
C402 H390 0.930 . S
C402 C403 1.399 . S
C402 C407 1.399 . S
C403 C402 1.399 . S
C403 C404 1.376 . S
C404 H391 0.930 . S
C404 C403 1.376 . S
C404 C405 1.388 . S
C405 H392 0.930 . S
C405 C404 1.388 . S
C405 C406 1.390 . S
C406 C405 1.390 . S
C406 C407 1.394 . S
C406 C412 1.465 . S
C407 C402 1.399 . S
C407 C406 1.394 . S
C407 C408 1.516 . S
C408 C407 1.516 . S
C408 C409 1.502 . S
C408 C410 1.561 . S
C408 C411 1.526 . S
C409 H393 0.959 . S
C409 H394 0.959 . S
C409 H395 0.961 . S
C409 C408 1.502 . S
C410 H396 0.960 . S
C410 H397 0.961 . S
C410 H398 0.959 . S
C410 C408 1.561 . S
C411 C408 1.526 . S
C411 C412 1.396 . S
C411 C416 1.390 . S
C412 C406 1.465 . S
C412 C411 1.396 . S
C412 C413 1.399 . S
C413 H399 0.929 . S
C413 C412 1.399 . S
C413 C414 1.385 . S
C414 H400 0.931 . S
C414 C413 1.385 . S
C414 C415 1.389 . S
C415 C414 1.389 . S
C415 C416 1.387 . S
C416 H401 0.930 . S
C416 C411 1.390 . S
C416 C415 1.387 . S
H417 C429 0.930 . S
H418 C431 0.930 . S
H419 C432 0.930 . S
H420 C436 0.959 . S
H421 C436 0.959 . S
H422 C436 0.961 . S
H423 C437 0.960 . S
H424 C437 0.961 . S
H425 C437 0.959 . S
H426 C440 0.929 . S
H427 C441 0.931 . S
H428 C443 0.930 . S
C429 H417 0.930 . S
C429 C430 1.399 . S
C429 C434 1.399 . S
C430 C429 1.399 . S
C430 C431 1.376 . S
C431 H418 0.930 . S
C431 C430 1.376 . S
C431 C432 1.388 . S
C432 H419 0.930 . S
C432 C431 1.388 . S
C432 C433 1.390 . S
C433 C432 1.390 . S
C433 C434 1.394 . S
C433 C439 1.465 . S
C434 C429 1.399 . S
C434 C433 1.394 . S
C434 C435 1.516 . S
C435 C434 1.516 . S
C435 C436 1.502 . S
C435 C437 1.561 . S
C435 C438 1.526 . S
C436 H420 0.959 . S
C436 H421 0.959 . S
C436 H422 0.961 . S
C436 C435 1.502 . S
C437 H423 0.960 . S
C437 H424 0.961 . S
C437 H425 0.959 . S
C437 C435 1.561 . S
C438 C435 1.526 . S
C438 C439 1.396 . S
C438 C443 1.390 . S
C439 C433 1.465 . S
C439 C438 1.396 . S
C439 C440 1.399 . S
C440 H426 0.929 . S
C440 C439 1.399 . S
C440 C441 1.385 . S
C441 H427 0.931 . S
C441 C440 1.385 . S
C441 C442 1.389 . S
C442 C441 1.389 . S
C442 C443 1.387 . S
C443 H428 0.930 . S
C443 C438 1.390 . S
C443 C442 1.387 . S
H444 C456 0.930 . S
H445 C458 0.930 . S
H446 C459 0.930 . S
H447 C463 0.959 . S
H448 C463 0.959 . S
H449 C463 0.961 . S
H450 C464 0.960 . S
H451 C464 0.961 . S
H452 C464 0.959 . S
H453 C467 0.929 . S
H454 C468 0.931 . S
H455 C470 0.930 . S
C456 H444 0.930 . S
C456 C457 1.399 . S
C456 C461 1.399 . S
C457 C456 1.399 . S
C457 C458 1.376 . S
C458 H445 0.930 . S
C458 C457 1.376 . S
C458 C459 1.388 . S
C459 H446 0.930 . S
C459 C458 1.388 . S
C459 C460 1.390 . S
C460 C459 1.390 . S
C460 C461 1.394 . S
C460 C466 1.465 . S
C461 C456 1.399 . S
C461 C460 1.394 . S
C461 C462 1.516 . S
C462 C461 1.516 . S
C462 C463 1.502 . S
C462 C464 1.561 . S
C462 C465 1.526 . S
C463 H447 0.959 . S
C463 H448 0.959 . S
C463 H449 0.961 . S
C463 C462 1.502 . S
C464 H450 0.960 . S
C464 H451 0.961 . S
C464 H452 0.959 . S
C464 C462 1.561 . S
C465 C462 1.526 . S
C465 C466 1.396 . S
C465 C470 1.390 . S
C466 C460 1.465 . S
C466 C465 1.396 . S
C466 C467 1.399 . S
C467 H453 0.929 . S
C467 C466 1.399 . S
C467 C468 1.385 . S
C468 H454 0.931 . S
C468 C467 1.385 . S
C468 C469 1.389 . S
C469 C468 1.389 . S
C469 C470 1.387 . S
C470 H455 0.930 . S
C470 C465 1.390 . S
C470 C469 1.387 . S
H471 C483 0.930 . S
H472 C485 0.930 . S
H473 C486 0.930 . S
H474 C490 0.959 . S
H475 C490 0.959 . S
H476 C490 0.961 . S
H477 C491 0.960 . S
H478 C491 0.961 . S
H479 C491 0.959 . S
H480 C494 0.929 . S
H481 C495 0.931 . S
H482 C497 0.930 . S
C483 H471 0.930 . S
C483 C484 1.399 . S
C483 C488 1.399 . S
C484 C483 1.399 . S
C484 C485 1.376 . S
C485 H472 0.930 . S
C485 C484 1.376 . S
C485 C486 1.388 . S
C486 H473 0.930 . S
C486 C485 1.388 . S
C486 C487 1.390 . S
C487 C486 1.390 . S
C487 C488 1.394 . S
C487 C493 1.465 . S
C488 C483 1.399 . S
C488 C487 1.394 . S
C488 C489 1.516 . S
C489 C488 1.516 . S
C489 C490 1.502 . S
C489 C491 1.561 . S
C489 C492 1.526 . S
C490 H474 0.959 . S
C490 H475 0.959 . S
C490 H476 0.961 . S
C490 C489 1.502 . S
C491 H477 0.960 . S
C491 H478 0.961 . S
C491 H479 0.959 . S
C491 C489 1.561 . S
C492 C489 1.526 . S
C492 C493 1.396 . S
C492 C497 1.390 . S
C493 C487 1.465 . S
C493 C492 1.396 . S
C493 C494 1.399 . S
C494 H480 0.929 . S
C494 C493 1.399 . S
C494 C495 1.385 . S
C495 H481 0.931 . S
C495 C494 1.385 . S
C495 C496 1.389 . S
C496 C495 1.389 . S
C496 C497 1.387 . S
C497 H482 0.930 . S
C497 C492 1.390 . S
C497 C496 1.387 . S
H498 C510 0.930 1_655 S
H499 C512 0.930 . S
H500 C513 0.930 . S
H501 C517 0.959 . S
H502 C517 0.959 . S
H503 C517 0.961 . S
H504 C518 0.960 . S
H505 C518 0.961 1_556 S
H506 C518 0.959 1_556 S
H507 C521 0.929 . S
H508 C522 0.931 . S
H509 C524 0.930 . S
C510 H498 0.930 1_455 S
C510 C511 1.399 . S
C510 C515 1.399 . S
C511 C510 1.399 . S
C511 C512 1.376 . S
C512 H499 0.930 . S
C512 C511 1.376 . S
C512 C513 1.388 . S
C513 H500 0.930 . S
C513 C512 1.388 . S
C513 C514 1.390 . S
C514 C513 1.390 . S
C514 C515 1.394 . S
C514 C520 1.465 1_554 S
C515 C510 1.399 . S
C515 C514 1.394 . S
C515 C516 1.516 . S
C516 C515 1.516 . S
C516 C517 1.502 . S
C516 C518 1.561 1_455 S
C516 C519 1.526 1_554 S
C517 H501 0.959 . S
C517 H502 0.959 . S
C517 H503 0.961 . S
C517 C516 1.502 . S
C518 H504 0.960 . S
C518 H505 0.961 1_554 S
C518 H506 0.959 1_554 S
C518 C516 1.561 1_655 S
C519 C516 1.526 1_556 S
C519 C520 1.396 . S
C519 C524 1.390 . S
C520 C514 1.465 1_556 S
C520 C519 1.396 . S
C520 C521 1.399 . S
C521 H507 0.929 . S
C521 C520 1.399 . S
C521 C522 1.385 . S
C522 H508 0.931 . S
C522 C521 1.385 . S
C522 C523 1.389 . S
C523 C522 1.389 . S
C523 C524 1.387 . S
C524 H509 0.930 . S
C524 C519 1.390 . S
C524 C523 1.387 . S
H525 C537 0.930 . S
H526 C539 0.930 1_565 S
H527 C540 0.930 . S
H528 C544 0.959 . S
H529 C544 0.959 . S
H530 C544 0.961 . S
H531 C545 0.960 . S
H532 C545 0.961 . S
H533 C545 0.959 . S
H534 C548 0.929 . S
H535 C549 0.931 1_565 S
H536 C551 0.930 . S
C537 H525 0.930 . S
C537 C538 1.399 . S
C537 C542 1.399 . S
C538 C537 1.399 . S
C538 C539 1.376 . S
C539 H526 0.930 1_545 S
C539 C538 1.376 . S
C539 C540 1.388 1_545 S
C540 H527 0.930 . S
C540 C539 1.388 1_565 S
C540 C541 1.390 1_565 S
C541 C540 1.390 1_545 S
C541 C542 1.394 . S
C541 C547 1.465 . S
C542 C537 1.399 . S
C542 C541 1.394 . S
C542 C543 1.516 . S
C543 C542 1.516 . S
C543 C544 1.502 . S
C543 C545 1.561 . S
C543 C546 1.526 . S
C544 H528 0.959 . S
C544 H529 0.959 . S
C544 H530 0.961 . S
C544 C543 1.502 . S
C545 H531 0.960 . S
C545 H532 0.961 . S
C545 H533 0.959 . S
C545 C543 1.561 . S
C546 C543 1.526 . S
C546 C547 1.396 . S
C546 C551 1.390 . S
C547 C541 1.465 . S
C547 C546 1.396 . S
C547 C548 1.399 1_545 S
C548 H534 0.929 . S
C548 C547 1.399 1_565 S
C548 C549 1.385 1_565 S
C549 H535 0.931 1_545 S
C549 C548 1.385 1_545 S
C549 C550 1.389 . S
C550 C549 1.389 . S
C550 C551 1.387 . S
C551 H536 0.930 . S
C551 C546 1.390 . S
C551 C550 1.387 . S
H552 C564 0.930 . S
H553 C566 0.930 . S
H554 C567 0.930 . S
H555 C571 0.959 . S
H556 C571 0.959 . S
H557 C571 0.961 . S
H558 C572 0.960 . S
H559 C572 0.961 . S
H560 C572 0.959 . S
H561 C575 0.929 . S
H562 C576 0.931 . S
H563 C578 0.930 . S
C564 H552 0.930 . S
C564 C565 1.399 . S
C564 C569 1.399 . S
C565 C564 1.399 . S
C565 C566 1.376 . S
C566 H553 0.930 . S
C566 C565 1.376 . S
C566 C567 1.388 . S
C567 H554 0.930 . S
C567 C566 1.388 . S
C567 C568 1.390 . S
C568 C567 1.390 . S
C568 C569 1.394 . S
C568 C574 1.465 . S
C569 C564 1.399 . S
C569 C568 1.394 . S
C569 C570 1.516 . S
C570 C569 1.516 . S
C570 C571 1.502 . S
C570 C572 1.561 . S
C570 C573 1.526 . S
C571 H555 0.959 . S
C571 H556 0.959 . S
C571 H557 0.961 . S
C571 C570 1.502 . S
C572 H558 0.960 . S
C572 H559 0.961 . S
C572 H560 0.959 . S
C572 C570 1.561 . S
C573 C570 1.526 . S
C573 C574 1.396 . S
C573 C578 1.390 . S
C574 C568 1.465 . S
C574 C573 1.396 . S
C574 C575 1.399 . S
C575 H561 0.929 . S
C575 C574 1.399 . S
C575 C576 1.385 . S
C576 H562 0.931 . S
C576 C575 1.385 . S
C576 C577 1.389 . S
C577 C576 1.389 . S
C577 C578 1.387 . S
C578 H563 0.930 . S
C578 C573 1.390 . S
C578 C577 1.387 . S
H579 C591 0.930 1_565 S
H580 C593 0.930 . S
H581 C594 0.930 . S
H582 C598 0.959 1_545 S
H583 C598 0.959 . S
H584 C598 0.961 . S
H585 C599 0.960 . S
H586 C599 0.961 . S
H587 C599 0.959 . S
H588 C602 0.929 . S
H589 C603 0.931 . S
H590 C605 0.937 . S
C591 H579 0.930 1_545 S
C591 C592 1.399 . S
C591 C596 1.399 . S
C592 C591 1.399 . S
C592 C593 1.376 . S
C593 H580 0.930 . S
C593 C592 1.376 . S
C593 C594 1.388 . S
C594 H581 0.930 . S
C594 C593 1.388 . S
C594 C595 1.390 . S
C595 C594 1.390 . S
C595 C596 1.394 . S
C595 C601 1.465 . S
C596 C591 1.399 . S
C596 C595 1.394 . S
C596 C597 1.516 . S
C597 C596 1.516 . S
C597 C598 1.502 1_545 S
C597 C599 1.561 1_545 S
C597 C600 1.526 . S
C598 H582 0.959 1_565 S
C598 H583 0.959 . S
C598 H584 0.961 . S
C598 C597 1.502 1_565 S
C599 H585 0.960 . S
C599 H586 0.961 . S
C599 H587 0.959 . S
C599 C597 1.561 1_565 S
C600 C597 1.526 . S
C600 C601 1.396 . S
C600 C605 1.390 . S
C601 C595 1.465 . S
C601 C600 1.396 . S
C601 C602 1.399 . S
C602 H588 0.929 . S
C602 C601 1.399 . S
C602 C603 1.385 . S
C603 H589 0.931 . S
C603 C602 1.385 . S
C603 C604 1.389 . S
C604 C603 1.389 . S
C604 C605 1.387 . S
C605 H590 0.937 . S
C605 C600 1.390 . S
C605 C604 1.387 . S
H606 C618 0.930 . S
H607 C620 0.930 . S
H608 C621 0.930 . S
H609 C625 0.959 . S
H610 C625 0.959 . S
H611 C625 0.961 . S
H612 C626 0.960 . S
H613 C626 0.961 . S
H614 C626 0.959 . S
H615 C629 0.929 . S
H616 C630 0.931 . S
H617 C632 0.930 . S
C618 H606 0.930 . S
C618 C619 1.399 . S
C618 C623 1.399 . S
C619 C618 1.399 . S
C619 C620 1.376 . S
C620 H607 0.930 . S
C620 C619 1.376 . S
C620 C621 1.388 . S
C621 H608 0.930 . S
C621 C620 1.388 . S
C621 C622 1.390 . S
C622 C621 1.390 . S
C622 C623 1.394 . S
C622 C628 1.465 1_556 S
C623 C618 1.399 . S
C623 C622 1.394 . S
C623 C624 1.516 . S
C624 C623 1.516 . S
C624 C625 1.502 . S
C624 C626 1.561 . S
C624 C627 1.526 1_556 S
C625 H609 0.959 . S
C625 H610 0.959 . S
C625 H611 0.961 . S
C625 C624 1.502 . S
C626 H612 0.960 . S
C626 H613 0.961 . S
C626 H614 0.959 . S
C626 C624 1.561 . S
C627 C624 1.526 1_554 S
C627 C628 1.396 . S
C627 C632 1.390 . S
C628 C622 1.465 1_554 S
C628 C627 1.396 . S
C628 C629 1.399 . S
C629 H615 0.929 . S
C629 C628 1.399 . S
C629 C630 1.385 . S
C630 H616 0.931 . S
C630 C629 1.385 . S
C630 C631 1.389 . S
C631 C630 1.389 . S
C631 C632 1.387 . S
C632 H617 0.930 . S
C632 C627 1.390 . S
C632 C631 1.387 . S
H633 C645 0.930 . S
H634 C647 0.930 . S
H635 C648 0.930 . S
H636 C652 0.959 . S
H637 C652 0.959 . S
H638 C652 0.961 . S
H639 C653 0.960 . S
H640 C653 0.961 . S
H641 C653 0.959 . S
H642 C656 0.929 . S
H643 C657 0.931 . S
H644 C659 0.930 . S
C645 H633 0.930 . S
C645 C646 1.399 . S
C645 C650 1.399 . S
C646 C645 1.399 . S
C646 C647 1.376 1_455 S
C647 H634 0.930 . S
C647 C646 1.376 1_655 S
C647 C648 1.388 . S
C648 H635 0.930 . S
C648 C647 1.388 . S
C648 C649 1.390 1_655 S
C649 C648 1.390 1_455 S
C649 C650 1.394 . S
C649 C655 1.465 . S
C650 C645 1.399 . S
C650 C649 1.394 . S
C650 C651 1.516 . S
C651 C650 1.516 . S
C651 C652 1.502 . S
C651 C653 1.561 . S
C651 C654 1.526 . S
C652 H636 0.959 . S
C652 H637 0.959 . S
C652 H638 0.961 . S
C652 C651 1.502 . S
C653 H639 0.960 . S
C653 H640 0.961 . S
C653 H641 0.959 . S
C653 C651 1.561 . S
C654 C651 1.526 . S
C654 C655 1.396 . S
C654 C659 1.390 . S
C655 C649 1.465 . S
C655 C654 1.396 . S
C655 C656 1.399 1_455 S
C656 H642 0.929 . S
C656 C655 1.399 1_655 S
C656 C657 1.385 . S
C657 H643 0.931 . S
C657 C656 1.385 . S
C657 C658 1.389 1_655 S
C658 C657 1.389 1_455 S
C658 C659 1.387 . S
C659 H644 0.930 . S
C659 C654 1.390 . S
C659 C658 1.387 . S
C187 C2 1.536 . S
C199 C166 1.544 . S
C214 C22 1.493 . S
C226 C128 1.500 . S
C241 C44 1.492 . S
C253 C147 1.500 . S
C268 C4 1.440 . S
C280 C161 1.480 . S
C307 C123 1.542 . S
C295 C24 1.423 . S
C334 C142 1.510 . S
C322 C42 1.339 . S
C349 C32 1.489 . S
C361 C90 1.458 . S
C376 C49 1.089 . S
C388 C104 1.174 . S
C403 C9 1.081 . S
C415 C66 1.184 . S
C442 C85 1.212 . S
C430 C29 1.093 . S
C469 C109 1.333 . S
C457 C52 1.313 . S
C484 C12 1.406 . S
C496 C71 1.385 . S
C523 C100 1.526 . S
C511 C18 1.551 . S
C538 C38 1.507 . S
C550 C62 1.494 . S
C565 C58 1.513 . S
C577 C81 1.525 . S
C604 C138 1.533 . S
C592 C39 1.510 . S
C631 C157 1.539 . S
C619 C59 1.567 . S
C646 C19 1.553 . S
C658 C119 1.584 . S
