# Generated by pormake.
# Topology nom, (4,4)-cn, num edge types: 1
# Building blocks:
#     Node 0, Type 0, BuildingBlock: NAHDIM_clean_linker_0, # of connection points: 4
#     Node 1, Type 0, BuildingBlock: NAHDIM_clean_linker_0, # of connection points: 4
#     Node 2, Type 0, BuildingBlock: NAHDIM_clean_linker_0, # of connection points: 4
#     Node 3, Type 0, BuildingBlock: NAHDIM_clean_linker_0, # of connection points: 4
#     Node 4, Type 0, BuildingBlock: NAHDIM_clean_linker_0, # of connection points: 4
#     Node 5, Type 0, BuildingBlock: NAHDIM_clean_linker_0, # of connection points: 4
#     Node 6, Type 1, BuildingBlock: UXUYUI_clean_sbu_0, # of connection points: 4
#     Node 7, Type 1, BuildingBlock: UXUYUI_clean_sbu_0, # of connection points: 4
#     Node 8, Type 1, BuildingBlock: UXUYUI_clean_sbu_0, # of connection points: 4
#     Node 9, Type 1, BuildingBlock: UXUYUI_clean_sbu_0, # of connection points: 4
#     Node 10, Type 1, BuildingBlock: UXUYUI_clean_sbu_0, # of connection points: 4
#     Node 11, Type 1, BuildingBlock: UXUYUI_clean_sbu_0, # of connection points: 4
#     Edge 12, Type (0, 1), BuildingBlock: UVAHIK_clean_linker_0, # of connection points: 2
#     Edge 13, Type (0, 1), BuildingBlock: UVAHIK_clean_linker_0, # of connection points: 2
#     Edge 14, Type (0, 1), BuildingBlock: UVAHIK_clean_linker_0, # of connection points: 2
#     Edge 15, Type (0, 1), BuildingBlock: UVAHIK_clean_linker_0, # of connection points: 2
#     Edge 16, Type (0, 1), BuildingBlock: UVAHIK_clean_linker_0, # of connection points: 2
#     Edge 17, Type (0, 1), BuildingBlock: UVAHIK_clean_linker_0, # of connection points: 2
#     Edge 18, Type (0, 1), BuildingBlock: UVAHIK_clean_linker_0, # of connection points: 2
#     Edge 19, Type (0, 1), BuildingBlock: UVAHIK_clean_linker_0, # of connection points: 2
#     Edge 20, Type (0, 1), BuildingBlock: UVAHIK_clean_linker_0, # of connection points: 2
#     Edge 21, Type (0, 1), BuildingBlock: UVAHIK_clean_linker_0, # of connection points: 2
#     Edge 22, Type (0, 1), BuildingBlock: UVAHIK_clean_linker_0, # of connection points: 2
#     Edge 23, Type (0, 1), BuildingBlock: UVAHIK_clean_linker_0, # of connection points: 2
#     Edge 24, Type (0, 1), BuildingBlock: UVAHIK_clean_linker_0, # of connection points: 2
#     Edge 25, Type (0, 1), BuildingBlock: UVAHIK_clean_linker_0, # of connection points: 2
#     Edge 26, Type (0, 1), BuildingBlock: UVAHIK_clean_linker_0, # of connection points: 2
#     Edge 27, Type (0, 1), BuildingBlock: UVAHIK_clean_linker_0, # of connection points: 2
#     Edge 28, Type (0, 1), BuildingBlock: UVAHIK_clean_linker_0, # of connection points: 2
#     Edge 29, Type (0, 1), BuildingBlock: UVAHIK_clean_linker_0, # of connection points: 2
#     Edge 30, Type (0, 1), BuildingBlock: UVAHIK_clean_linker_0, # of connection points: 2
#     Edge 31, Type (0, 1), BuildingBlock: UVAHIK_clean_linker_0, # of connection points: 2
#     Edge 32, Type (0, 1), BuildingBlock: UVAHIK_clean_linker_0, # of connection points: 2
#     Edge 33, Type (0, 1), BuildingBlock: UVAHIK_clean_linker_0, # of connection points: 2
#     Edge 34, Type (0, 1), BuildingBlock: UVAHIK_clean_linker_0, # of connection points: 2
#     Edge 35, Type (0, 1), BuildingBlock: UVAHIK_clean_linker_0, # of connection points: 2
# Relax obj value: 0.084
# Max RMSD: 0.155
# Mean RMSD: 0.137
data_MOF--net-nom--node1-UXUYUI_clean_sbu_0--node2-NAHDIM_clean_linker_0--edge1-UVAHIK_clean_linker_0
_symmetry_space_group_name_H-M    P1
_symmetry_Int_Tables_number       1
_symmetry_cell_setting            triclinic
loop_
_symmetry_equiv_pos_as_xyz
'x, y, z'
_cell_length_a     79.039704
_cell_length_b     79.034545
_cell_length_c     96.754971
_cell_angle_alpha  90.064383
_cell_angle_beta   90.065001
_cell_angle_gamma 119.98199
loop_
_atom_site_label
_atom_site_type_symbol
_atom_site_fract_x
_atom_site_fract_y
_atom_site_fract_z
_atom_type_partial_charge
C0 C 0.1314 0.57004 0.26561 0.0
C1 C 0.14204 0.57686 0.27955 0.0
C2 C 0.1131 0.5678 0.29382 0.0
C3 C 0.10648 0.5477 0.29482 0.0
C4 C 0.08732 0.53456 0.29904 0.0
C5 C 0.07448 0.54163 0.30219 0.0
C6 C 0.08136 0.56195 0.30172 0.0
C7 C 0.10072 0.57479 0.29775 0.0
C8 C 0.0806 0.51304 0.29974 0.0
C9 C 0.06805 0.57004 0.30484 0.0
C10 C 0.96426 0.48157 0.22235 0.0
C11 C 0.97871 0.49279 0.2334 0.0
C12 C 0.98998 0.48763 0.25568 0.0
C13 C 0.99676 0.50672 0.26059 0.0
C14 C 0.00649 0.51284 0.2733 0.0
C15 C 0.01016 0.49986 0.28108 0.0
C16 C 0.00366 0.48073 0.27608 0.0
C17 C 0.9933 0.47476 0.26355 0.0
C18 C 0.01305 0.53331 0.27831 0.0
C19 C 0.0079 0.46671 0.28385 0.0
C20 C 0.92521 0.44914 0.3507 0.0
C21 C 0.9317 0.46878 0.34757 0.0
C22 C 0.95175 0.48246 0.3469 0.0
C23 C 0.9655 0.47624 0.34919 0.0
C24 C 0.95895 0.4566 0.35288 0.0
C25 C 0.93883 0.44336 0.35378 0.0
C26 C 0.95824 0.50346 0.3435 0.0
C27 C 0.97317 0.44949 0.35555 0.0
C28 C 0.10083 0.57318 0.39516 0.0
C29 C 0.08807 0.55369 0.40249 0.0
C30 C 0.05565 0.5393 0.39245 0.0
C31 C 0.04489 0.54712 0.38662 0.0
C32 C 0.0322 0.53782 0.37547 0.0
C33 C 0.03002 0.52008 0.3703 0.0
C34 C 0.03994 0.51147 0.37677 0.0
C35 C 0.05271 0.52121 0.38779 0.0
C36 C 0.02165 0.54725 0.36891 0.0
C37 C 0.03745 0.49226 0.37178 0.0
C38 C 0.05344 0.52767 0.30457 0.0
C39 C 0.04175 0.51918 0.29293 0.0
C40 C 0.02161 0.50678 0.29408 0.0
C41 C 0.01277 0.50236 0.30727 0.0
C42 C 0.99252 0.49001 0.30883 0.0
C43 C 0.98399 0.4857 0.32187 0.0
C44 C 0.99528 0.494 0.33384 0.0
C45 C 0.98669 0.48999 0.34714 0.0
C46 C 0.99833 0.4987 0.35879 0.0
C47 C 0.01846 0.51124 0.35757 0.0
C48 C 0.02736 0.51526 0.34439 0.0
C49 C 0.04763 0.5277 0.34281 0.0
C50 C 0.05625 0.53159 0.32981 0.0
C51 C 0.04492 0.52342 0.31786 0.0
C52 C 0.02448 0.51073 0.31921 0.0
C53 C 0.0157 0.50665 0.33249 0.0
C54 C 0.88002 0.41432 0.33603 0.0
C55 C 0.89171 0.43483 0.3422 0.0
O56 O 0.13103 0.58081 0.28879 0.0
O57 O 0.06882 0.54952 0.4025 0.0
O58 O 0.90598 0.4354 0.35087 0.0
O59 O 0.98024 0.48115 0.24348 0.0
H60 H 0.1446 0.56529 0.28386 0.0
H61 H 0.14044 0.56738 0.25809 0.0
H62 H 0.12828 0.58124 0.26132 0.0
H63 H 0.11738 0.55616 0.26683 0.0
H64 H 0.11605 0.54211 0.29215 0.0
H65 H 0.10603 0.59034 0.29709 0.0
H66 H 0.07034 0.50536 0.29109 0.0
H67 H 0.09298 0.51018 0.29899 0.0
H68 H 0.07265 0.50674 0.30955 0.0
H69 H 0.07536 0.58608 0.30322 0.0
H70 H 0.05486 0.56285 0.29815 0.0
H71 H 0.06309 0.56686 0.31573 0.0
H72 H 0.99325 0.50455 0.22973 0.0
H73 H 0.94287 0.4897 0.22473 0.0
H74 H 0.9732 0.48465 0.21266 0.0
H75 H 0.96092 0.46597 0.22323 0.0
H76 H 0.99447 0.51696 0.25462 0.0
H77 H 0.98809 0.4601 0.25969 0.0
H78 H 0.02916 0.54234 0.27734 0.0
H79 H 0.00634 0.5404 0.27226 0.0
H80 H 0.00929 0.53317 0.28938 0.0
H81 H 0.00381 0.45324 0.27781 0.0
H82 H 0.02367 0.47387 0.2865 0.0
H83 H 0.99959 0.46247 0.29369 0.0
H84 H 0.89852 0.44506 0.33336 0.0
H85 H 0.92113 0.47344 0.34569 0.0
H86 H 0.93362 0.42822 0.35641 0.0
H87 H 0.9647 0.5069 0.33299 0.0
H88 H 0.94594 0.50647 0.3438 0.0
H89 H 0.96971 0.51339 0.35088 0.0
H90 H 0.96568 0.43353 0.3576 0.0
H91 H 0.98298 0.45278 0.34652 0.0
H92 H 0.98244 0.45731 0.36461 0.0
H93 H 0.08956 0.54232 0.39671 0.0
H94 H 0.11636 0.57684 0.3952 0.0
H95 H 0.09602 0.57213 0.38424 0.0
H96 H 0.09967 0.58514 0.4003 0.0
H97 H 0.04704 0.56093 0.3905 0.0
H98 H 0.0604 0.51474 0.39274 0.0
H99 H 0.02608 0.55062 0.35792 0.0
H100 H 0.00565 0.53694 0.3691 0.0
H101 H 0.02474 0.56095 0.37426 0.0
H102 H 0.04472 0.48661 0.37871 0.0
H103 H 0.02169 0.4812 0.37104 0.0
H104 H 0.04378 0.49415 0.36128 0.0
H105 H 0.04839 0.5227 0.28274 0.0
H106 H 0.98304 0.48343 0.29999 0.0
H107 H 0.96837 0.47589 0.32242 0.0
H108 H 0.99165 0.4956 0.36895 0.0
H109 H 0.05709 0.53458 0.35161 0.0
H110 H 0.07191 0.54119 0.32921 0.0
H111 H 0.86867 0.41348 0.32882 0.0
H112 H 0.88993 0.41077 0.33016 0.0
H113 H 0.87284 0.40327 0.34432 0.0
C114 C 0.47661 0.91676 0.55291 0.0
C115 C 0.47005 0.90647 0.53883 0.0
C116 C 0.47928 0.93573 0.52488 0.0
C117 C 0.49942 0.94247 0.52411 0.0
C118 C 0.51259 0.96173 0.5201 0.0
C119 C 0.5055 0.97455 0.51694 0.0
C120 C 0.48515 0.96757 0.51719 0.0
C121 C 0.47229 0.94812 0.52095 0.0
C122 C 0.53414 0.96857 0.51964 0.0
C123 C 0.47704 0.98085 0.51402 0.0
C124 C 0.56379 0.08577 0.59667 0.0
C125 C 0.55263 0.07155 0.58549 0.0
C126 C 0.55812 0.05888 0.56395 0.0
C127 C 0.53942 0.05273 0.55851 0.0
C128 C 0.53364 0.04294 0.5458 0.0
C129 C 0.5466 0.0387 0.53853 0.0
C130 C 0.56534 0.04462 0.54403 0.0
C131 C 0.57096 0.05491 0.5566 0.0
C132 C 0.51355 0.03696 0.54023 0.0
C133 C 0.57931 0.03985 0.53674 0.0
C134 C 0.59908 0.12443 0.46989 0.0
C135 C 0.57944 0.1179 0.47304 0.0
C136 C 0.56569 0.09785 0.47336 0.0
C137 C 0.57185 0.08412 0.47074 0.0
C138 C 0.59149 0.09074 0.46699 0.0
C139 C 0.60479 0.11087 0.46641 0.0
C140 C 0.5447 0.09134 0.47678 0.0
C141 C 0.59855 0.07657 0.46396 0.0
C142 C 0.47841 0.94841 0.42609 0.0
C143 C 0.49666 0.96121 0.41746 0.0
C144 C 0.51009 0.99378 0.42703 0.0
C145 C 0.50171 0.00407 0.43279 0.0
C146 C 0.51071 0.01695 0.4439 0.0
C147 C 0.52867 0.01978 0.44911 0.0
C148 C 0.53785 0.01039 0.44268 0.0
C149 C 0.52845 0.99748 0.43167 0.0
C150 C 0.50069 0.02695 0.45041 0.0
C151 C 0.55729 0.01355 0.44773 0.0
C152 C 0.51943 0.99564 0.51474 0.0
C153 C 0.52758 0.0072 0.52649 0.0
C154 C 0.54005 0.02735 0.52547 0.0
C155 C 0.54487 0.03633 0.51232 0.0
C156 C 0.55739 0.05657 0.51091 0.0
C157 C 0.562 0.06526 0.49792 0.0
C158 C 0.55384 0.05413 0.48586 0.0
C159 C 0.55809 0.0629 0.47262 0.0
C160 C 0.5496 0.05141 0.46086 0.0
C161 C 0.53707 0.03125 0.46195 0.0
C162 C 0.53278 0.02218 0.47507 0.0
C163 C 0.52035 0.00189 0.4765 0.0
C164 C 0.51616 0.99312 0.48946 0.0
C165 C 0.52402 0.00431 0.5015 0.0
C166 C 0.53675 0.02476 0.5003 0.0
C167 C 0.54113 0.0337 0.48707 0.0
C168 C 0.63419 0.16893 0.4854 0.0
C169 C 0.61353 0.15731 0.47947 0.0
O170 O 0.46622 0.91768 0.5297 0.0
O171 O 0.50007 0.9802 0.41716 0.0
O172 O 0.61288 0.14364 0.47017 0.0
O173 O 0.56427 0.06862 0.57618 0.0
H174 H 0.48171 0.90405 0.53453 0.0
H175 H 0.49048 0.93084 0.55189 0.0
H176 H 0.46531 0.91974 0.5572 0.0
H177 H 0.47917 0.90756 0.56033 0.0
H178 H 0.50502 0.93291 0.52679 0.0
H179 H 0.45672 0.94272 0.52144 0.0
H180 H 0.5416 0.97877 0.52837 0.0
H181 H 0.53708 0.95624 0.52043 0.0
H182 H 0.54062 0.97664 0.5099 0.0
H183 H 0.46095 0.97342 0.51541 0.0
H184 H 0.48396 0.99389 0.52085 0.0
H185 H 0.48052 0.98605 0.50319 0.0
H186 H 0.53979 0.05757 0.58898 0.0
H187 H 0.55843 0.10886 0.59304 0.0
H188 H 0.55921 0.07694 0.60647 0.0
H189 H 0.57893 0.08773 0.59662 0.0
H190 H 0.52921 0.05554 0.56408 0.0
H191 H 0.58533 0.05965 0.56087 0.0
H192 H 0.50423 0.02083 0.54083 0.0
H193 H 0.50633 0.04367 0.54611 0.0
H194 H 0.51446 0.04118 0.52919 0.0
H195 H 0.59268 0.04406 0.54295 0.0
H196 H 0.57201 0.02396 0.53448 0.0
H197 H 0.58372 0.04768 0.52672 0.0
H198 H 0.60363 0.14988 0.48838 0.0
H199 H 0.57486 0.12845 0.47526 0.0
H200 H 0.61993 0.11613 0.46376 0.0
H201 H 0.54133 0.08501 0.48733 0.0
H202 H 0.54167 0.10364 0.47642 0.0
H203 H 0.53473 0.0798 0.46946 0.0
H204 H 0.61455 0.08408 0.46206 0.0
H205 H 0.59502 0.0663 0.47274 0.0
H206 H 0.5909 0.06778 0.45468 0.0
H207 H 0.50907 0.96066 0.42245 0.0
H208 H 0.47528 0.93305 0.42616 0.0
H209 H 0.48082 0.95379 0.43693 0.0
H210 H 0.46552 0.94881 0.4219 0.0
H211 H 0.48768 0.00135 0.42893 0.0
H212 H 0.53538 0.99019 0.42677 0.0
H213 H 0.49695 0.0221 0.46131 0.0
H214 H 0.51074 0.043 0.45055 0.0
H215 H 0.48711 0.02376 0.44484 0.0
H216 H 0.56326 0.00647 0.44092 0.0
H217 H 0.56801 0.02943 0.44835 0.0
H218 H 0.55559 0.00746 0.4583 0.0
H219 H 0.52376 0.00048 0.53663 0.0
H220 H 0.56387 0.06592 0.51982 0.0
H221 H 0.57192 0.08086 0.4975 0.0
H222 H 0.55289 0.05821 0.45074 0.0
H223 H 0.5137 0.99252 0.46762 0.0
H224 H 0.50655 0.97745 0.48994 0.0
H225 H 0.64499 0.1766 0.47704 0.0
H226 H 0.63507 0.17987 0.49303 0.0
H227 H 0.63806 0.15889 0.49073 0.0
C228 C 0.57687 0.4743 0.7225 0.0
C229 C 0.58182 0.46791 0.70883 0.0
C230 C 0.563 0.47712 0.69364 0.0
C231 C 0.5773 0.49666 0.69123 0.0
C232 C 0.57207 0.51023 0.68658 0.0
C233 C 0.55212 0.50422 0.6845 0.0
C234 C 0.53774 0.48438 0.68646 0.0
C235 C 0.54346 0.47101 0.69076 0.0
C236 C 0.58785 0.53113 0.68421 0.0
C237 C 0.51631 0.47746 0.68453 0.0
C238 C 0.5762 0.59593 0.75724 0.0
C239 C 0.55545 0.58365 0.75158 0.0
C240 C 0.55019 0.57989 0.72683 0.0
C241 C 0.53374 0.56119 0.72592 0.0
C242 C 0.53001 0.54991 0.71389 0.0
C243 C 0.54329 0.55741 0.7027 0.0
C244 C 0.55971 0.57651 0.70354 0.0
C245 C 0.56265 0.58768 0.71552 0.0
C246 C 0.51214 0.52984 0.71327 0.0
C247 C 0.57457 0.58489 0.69206 0.0
C248 C 0.50153 0.59962 0.6324 0.0
C249 C 0.48782 0.58078 0.63691 0.0
C250 C 0.49291 0.56617 0.63803 0.0
C251 C 0.51219 0.57064 0.63482 0.0
C252 C 0.52578 0.58941 0.62978 0.0
C253 C 0.52014 0.60358 0.62845 0.0
C254 C 0.47782 0.54608 0.64291 0.0
C255 C 0.5464 0.59469 0.62614 0.0
C256 C 0.54521 0.46815 0.59136 0.0
C257 C 0.5527 0.4878 0.58408 0.0
C258 C 0.53517 0.50301 0.59369 0.0
C259 C 0.51644 0.49586 0.59909 0.0
C260 C 0.51311 0.50547 0.61007 0.0
C261 C 0.5289 0.52283 0.6155 0.0
C262 C 0.54765 0.53076 0.60947 0.0
C263 C 0.55058 0.52075 0.59861 0.0
C264 C 0.49291 0.49679 0.61615 0.0
C265 C 0.56468 0.54958 0.61472 0.0
C266 C 0.54623 0.51898 0.68151 0.0
C267 C 0.5463 0.53045 0.69252 0.0
C268 C 0.54102 0.54472 0.69067 0.0
C269 C 0.53488 0.54731 0.67751 0.0
C270 C 0.52864 0.56093 0.67538 0.0
C271 C 0.52322 0.5638 0.66229 0.0
C272 C 0.5237 0.55307 0.65083 0.0
C273 C 0.51846 0.55607 0.63743 0.0
C274 C 0.5198 0.54566 0.62619 0.0
C275 C 0.52617 0.53218 0.62796 0.0
C276 C 0.53086 0.52852 0.64133 0.0
C277 C 0.53685 0.51468 0.64351 0.0
C278 C 0.54181 0.51146 0.65666 0.0
C279 C 0.54104 0.52199 0.66812 0.0
C280 C 0.53514 0.53607 0.66616 0.0
C281 C 0.52978 0.53914 0.65277 0.0
C282 C 0.49326 0.63801 0.64402 0.0
C283 C 0.48442 0.61644 0.64023 0.0
O284 O 0.56741 0.46392 0.69906 0.0
O285 O 0.538 0.49254 0.58376 0.0
O286 O 0.49739 0.61432 0.63178 0.0
O287 O 0.55453 0.59056 0.7386 0.0
H288 H 0.59613 0.47978 0.70502 0.0
H289 H 0.57635 0.48796 0.72103 0.0
H290 H 0.56244 0.46276 0.72639 0.0
H291 H 0.5882 0.47722 0.73043 0.0
H292 H 0.59255 0.50146 0.693 0.0
H293 H 0.53256 0.45586 0.69253 0.0
H294 H 0.58741 0.54045 0.69263 0.0
H295 H 0.60265 0.53276 0.68405 0.0
H296 H 0.58535 0.5366 0.67429 0.0
H297 H 0.5069 0.46183 0.68732 0.0
H298 H 0.51207 0.48638 0.69098 0.0
H299 H 0.51344 0.4794 0.67358 0.0
H300 H 0.55239 0.56828 0.75089 0.0
H301 H 0.57744 0.5905 0.76757 0.0
H302 H 0.58671 0.5949 0.75016 0.0
H303 H 0.58022 0.61152 0.75814 0.0
H304 H 0.52389 0.55543 0.73465 0.0
H305 H 0.57523 0.60223 0.71636 0.0
H306 H 0.51662 0.51865 0.71436 0.0
H307 H 0.50161 0.52758 0.72165 0.0
H308 H 0.50467 0.52748 0.70314 0.0
H309 H 0.5878 0.59872 0.69516 0.0
H310 H 0.5791 0.57424 0.68883 0.0
H311 H 0.56799 0.58792 0.68294 0.0
H312 H 0.48239 0.60841 0.65012 0.0
H313 H 0.47316 0.57745 0.63954 0.0
H314 H 0.53049 0.61809 0.62478 0.0
H315 H 0.48152 0.54373 0.65354 0.0
H316 H 0.46289 0.54413 0.64303 0.0
H317 H 0.47781 0.53471 0.63615 0.0
H318 H 0.55557 0.61033 0.62331 0.0
H319 H 0.55333 0.59151 0.635 0.0
H320 H 0.54613 0.58562 0.61728 0.0
H321 H 0.56551 0.49883 0.59007 0.0
H322 H 0.55675 0.46402 0.59156 0.0
H323 H 0.54121 0.46924 0.6022 0.0
H324 H 0.53208 0.45648 0.58603 0.0
H325 H 0.50458 0.48232 0.59502 0.0
H326 H 0.56491 0.52677 0.59398 0.0
H327 H 0.49332 0.49332 0.62722 0.0
H328 H 0.48787 0.50761 0.61563 0.0
H329 H 0.48215 0.48326 0.61069 0.0
H330 H 0.57783 0.55474 0.60811 0.0
H331 H 0.56063 0.56115 0.61519 0.0
H332 H 0.56845 0.54739 0.62537 0.0
H333 H 0.55087 0.52844 0.70268 0.0
H334 H 0.52796 0.56957 0.68382 0.0
H335 H 0.51876 0.57466 0.66128 0.0
H336 H 0.5162 0.54835 0.61591 0.0
H337 H 0.53776 0.50616 0.63508 0.0
H338 H 0.54639 0.5007 0.65772 0.0
H339 H 0.48332 0.64012 0.65101 0.0
H340 H 0.50741 0.64319 0.64944 0.0
H341 H 0.49591 0.64701 0.63458 0.0
C342 C 0.13036 0.58759 0.88803 0.0
C343 C 0.13773 0.58559 0.8738 0.0
C344 C 0.1063 0.56338 0.86266 0.0
C345 C 0.1009 0.57745 0.85964 0.0
C346 C 0.0819 0.57183 0.85522 0.0
C347 C 0.06793 0.55175 0.85398 0.0
C348 C 0.07342 0.53756 0.85668 0.0
C349 C 0.09265 0.54361 0.8608 0.0
C350 C 0.07664 0.58737 0.85216 0.0
C351 C 0.05883 0.51602 0.85559 0.0
C352 C 0.99935 0.57328 0.92793 0.0
C353 C 0.99064 0.55341 0.92075 0.0
C354 C 0.99065 0.55048 0.89576 0.0
C355 C 0.99195 0.53349 0.89455 0.0
C356 C 0.99939 0.52974 0.88249 0.0
C357 C 0.00596 0.54346 0.87155 0.0
C358 C 0.00412 0.56036 0.87264 0.0
C359 C 0.99604 0.56338 0.88465 0.0
C360 C 0.00068 0.51136 0.88158 0.0
C361 C 0.01139 0.57563 0.86141 0.0
C362 C 0.92445 0.507 0.80064 0.0
C363 C 0.92868 0.49233 0.80438 0.0
C364 C 0.94807 0.49644 0.80545 0.0
C365 C 0.9635 0.51564 0.80291 0.0
C366 C 0.95925 0.53019 0.79852 0.0
C367 C 0.93971 0.52558 0.79729 0.0
C368 C 0.95211 0.48042 0.80967 0.0
C369 C 0.97534 0.55077 0.79559 0.0
C370 C 0.09428 0.53113 0.76034 0.0
C371 C 0.086 0.54391 0.75538 0.0
C372 C 0.05287 0.53119 0.76343 0.0
C373 C 0.03915 0.51286 0.7685 0.0
C374 C 0.02641 0.51109 0.77922 0.0
C375 C 0.0272 0.5281 0.78468 0.0
C376 C 0.04024 0.54659 0.77892 0.0
C377 C 0.05307 0.54794 0.7684 0.0
C378 C 0.01257 0.49115 0.78502 0.0
C379 C 0.04095 0.56496 0.78408 0.0
C380 C 0.04729 0.54567 0.85085 0.0
C381 C 0.03582 0.54593 0.86172 0.0
C382 C 0.01644 0.54115 0.85962 0.0
C383 C 0.00803 0.53551 0.84631 0.0
C384 C 0.98843 0.5301 0.84388 0.0
C385 C 0.98051 0.52526 0.83065 0.0
C386 C 0.99182 0.52547 0.81935 0.0
C387 C 0.98398 0.52086 0.80581 0.0
C388 C 0.99573 0.5216 0.79478 0.0
C389 C 0.01522 0.52674 0.79688 0.0
C390 C 0.02323 0.53103 0.81038 0.0
C391 C 0.0427 0.53594 0.81291 0.0
C392 C 0.05061 0.54069 0.82615 0.0
C393 C 0.03932 0.54057 0.8374 0.0
C394 C 0.01959 0.53544 0.83513 0.0
C395 C 0.01152 0.53056 0.82162 0.0
C396 C 0.87737 0.49839 0.81222 0.0
C397 C 0.89029 0.48997 0.8079 0.0
O398 O 0.12427 0.56814 0.86759 0.0
O399 O 0.06592 0.53245 0.75384 0.0
O400 O 0.90592 0.50386 0.80031 0.0
O401 O 0.98457 0.55495 0.90759 0.0
H402 H 0.14012 0.59806 0.86715 0.0
H403 H 0.11654 0.58791 0.88698 0.0
H404 H 0.12764 0.57508 0.89475 0.0
H405 H 0.14127 0.60141 0.89311 0.0
H406 H 0.1113 0.59284 0.86078 0.0
H407 H 0.09696 0.53287 0.86306 0.0
H408 H 0.06662 0.58713 0.86029 0.0
H409 H 0.08969 0.60223 0.85185 0.0
H410 H 0.06886 0.58436 0.84211 0.0
H411 H 0.06526 0.50682 0.8585 0.0
H412 H 0.04615 0.51228 0.86242 0.0
H413 H 0.05325 0.51237 0.84484 0.0
H414 H 0.00249 0.54968 0.92018 0.0
H415 H 0.00457 0.57252 0.93846 0.0
H416 H 0.01197 0.58437 0.92189 0.0
H417 H 0.98832 0.57803 0.92876 0.0
H418 H 0.98724 0.52324 0.90306 0.0
H419 H 0.99476 0.57636 0.88569 0.0
H420 H 0.99545 0.50429 0.87133 0.0
H421 H 0.01617 0.51516 0.88269 0.0
H422 H 0.99202 0.50072 0.88979 0.0
H423 H 0.01105 0.58897 0.86461 0.0
H424 H 0.02658 0.57987 0.85849 0.0
H425 H 0.00211 0.56954 0.85207 0.0
H426 H 0.89566 0.48676 0.81766 0.0
H427 H 0.91691 0.47771 0.80654 0.0
H428 H 0.93627 0.53669 0.79421 0.0
H429 H 0.95831 0.48335 0.82028 0.0
H430 H 0.93868 0.46581 0.80956 0.0
H431 H 0.96307 0.48013 0.80265 0.0
H432 H 0.96958 0.56048 0.79252 0.0
H433 H 0.98465 0.55699 0.80492 0.0
H434 H 0.98478 0.5506 0.78717 0.0
H435 H 0.08968 0.55542 0.76337 0.0
H436 H 0.11036 0.54006 0.76171 0.0
H437 H 0.08769 0.52444 0.77045 0.0
H438 H 0.09093 0.51924 0.7528 0.0
H439 H 0.03898 0.50001 0.7644 0.0
H440 H 0.06333 0.56206 0.76409 0.0
H441 H 0.0152 0.49095 0.79629 0.0
H442 H 0.99728 0.48789 0.78367 0.0
H443 H 0.01419 0.47943 0.77993 0.0
H444 H 0.04982 0.57767 0.77726 0.0
H445 H 0.02596 0.56275 0.78482 0.0
H446 H 0.04745 0.56845 0.7946 0.0
H447 H 0.04222 0.55035 0.87194 0.0
H448 H 0.97905 0.52967 0.85218 0.0
H449 H 0.9654 0.52146 0.82939 0.0
H450 H 0.98968 0.51833 0.7844 0.0
H451 H 0.0521 0.53625 0.80466 0.0
H452 H 0.06573 0.54453 0.82745 0.0
H453 H 0.86476 0.48751 0.81838 0.0
H454 H 0.88594 0.51162 0.81869 0.0
H455 H 0.87184 0.50254 0.80301 0.0
C456 C 0.47398 0.92497 0.9266 0.0
C457 C 0.47025 0.91418 0.94044 0.0
C458 C 0.48827 0.94303 0.95516 0.0
C459 C 0.47331 0.94742 0.95734 0.0
C460 C 0.47763 0.96597 0.96202 0.0
C461 C 0.49732 0.98051 0.96432 0.0
C462 C 0.51236 0.97594 0.9625 0.0
C463 C 0.50756 0.95709 0.95818 0.0
C464 C 0.46116 0.97015 0.96421 0.0
C465 C 0.53355 0.99113 0.96465 0.0
C466 C 0.47466 0.05003 0.89119 0.0
C467 C 0.49472 0.05779 0.89792 0.0
C468 C 0.49827 0.05832 0.9228 0.0
C469 C 0.51507 0.05674 0.92419 0.0
C470 C 0.51833 0.0489 0.93624 0.0
C471 C 0.50424 0.04211 0.94694 0.0
C472 C 0.48743 0.04406 0.94561 0.0
C473 C 0.48494 0.05262 0.93365 0.0
C474 C 0.53663 0.04748 0.93738 0.0
C475 C 0.47171 0.03648 0.95654 0.0
C476 C 0.53737 0.12239 0.01914 0.0
C477 C 0.55216 0.11871 0.01472 0.0
C478 C 0.54848 0.09949 0.01328 0.0
C479 C 0.52954 0.08369 0.01602 0.0
C480 C 0.51485 0.0874 0.02096 0.0
C481 C 0.51909 0.10676 0.02264 0.0
C482 C 0.56472 0.09607 0.00854 0.0
C483 C 0.49454 0.07093 0.0241 0.0
C484 C 0.51442 0.95343 0.05732 0.0
C485 C 0.50166 0.96122 0.06321 0.0
C486 C 0.51428 0.99438 0.05531 0.0
C487 C 0.53268 0.0081 0.05033 0.0
C488 C 0.53458 0.02087 0.0396 0.0
C489 C 0.51765 0.02011 0.03404 0.0
C490 C 0.49909 0.00705 0.03968 0.0
C491 C 0.4976 0.99421 0.05022 0.0
C492 C 0.55459 0.03472 0.03391 0.0
C493 C 0.48079 0.00636 0.03437 0.0
C494 C 0.50221 0.0008 0.96763 0.0
C495 C 0.50197 0.0123 0.95676 0.0
C496 C 0.50623 0.0315 0.95894 0.0
C497 C 0.51131 0.03974 0.97233 0.0
C498 C 0.51628 0.0592 0.97484 0.0
C499 C 0.52065 0.06696 0.98814 0.0
C500 C 0.52048 0.05564 0.99942 0.0
C501 C 0.52477 0.06336 0.013 0.0
C502 C 0.52403 0.05157 0.02401 0.0
C503 C 0.51916 0.03216 0.02184 0.0
C504 C 0.51522 0.0243 0.0083 0.0
C505 C 0.5106 0.00492 0.00573 0.0
C506 C 0.50632 0.99718 0.99243 0.0
C507 C 0.50663 0.00854 0.98117 0.0
C508 C 0.51131 0.02813 0.98351 0.0
C509 C 0.51576 0.03606 0.99708 0.0
C510 C 0.54411 0.16943 0.00928 0.0
C511 C 0.55317 0.15666 0.01228 0.0
O512 O 0.48476 0.92562 0.94988 0.0
O513 O 0.51289 0.98129 0.06491 0.0
O514 O 0.54015 0.14074 0.02006 0.0
O515 O 0.49442 0.06491 0.91096 0.0
H516 H 0.45576 0.91085 0.94451 0.0
H517 H 0.47357 0.93871 0.92797 0.0
H518 H 0.48852 0.92864 0.92244 0.0
H519 H 0.46255 0.91582 0.91893 0.0
H520 H 0.45826 0.93651 0.95541 0.0
H521 H 0.51896 0.95349 0.95657 0.0
H522 H 0.46148 0.98 0.95591 0.0
H523 H 0.44664 0.95663 0.96403 0.0
H524 H 0.46298 0.97772 0.97424 0.0
H525 H 0.54355 0.98563 0.96181 0.0
H526 H 0.53731 0.0043 0.95836 0.0
H527 H 0.53606 0.9957 0.97565 0.0
H528 H 0.49736 0.04521 0.89869 0.0
H529 H 0.47441 0.04397 0.88078 0.0
H530 H 0.46332 0.03818 0.89765 0.0
H531 H 0.47101 0.06185 0.89019 0.0
H532 H 0.52555 0.06157 0.91581 0.0
H533 H 0.47208 0.05406 0.93244 0.0
H534 H 0.53282 0.03203 0.93601 0.0
H535 H 0.5476 0.05643 0.92942 0.0
H536 H 0.54331 0.0523 0.94778 0.0
H537 H 0.45837 0.03654 0.95299 0.0
H538 H 0.46763 0.02134 0.95952 0.0
H539 H 0.47729 0.04576 0.96591 0.0
H540 H 0.55556 0.15161 0.00208 0.0
H541 H 0.56656 0.13078 0.0124 0.0
H542 H 0.50789 0.10979 0.02623 0.0
H543 H 0.5618 0.09045 0.99777 0.0
H544 H 0.57918 0.10966 0.00883 0.0
H545 H 0.56533 0.08488 0.01512 0.0
H546 H 0.48447 0.0763 0.02709 0.0
H547 H 0.48841 0.06126 0.01492 0.0
H548 H 0.49518 0.06195 0.03268 0.0
H549 H 0.48959 0.9575 0.05571 0.0
H550 H 0.50566 0.93735 0.05583 0.0
H551 H 0.52036 0.96028 0.04713 0.0
H552 H 0.52685 0.95686 0.06437 0.0
H553 H 0.54547 0.00823 0.05452 0.0
H554 H 0.48343 0.98395 0.05446 0.0
H555 H 0.55495 0.03204 0.02267 0.0
H556 H 0.55779 0.05001 0.03518 0.0
H557 H 0.56626 0.03316 0.03914 0.0
H558 H 0.46794 0.9973 0.04103 0.0
H559 H 0.48296 0.02135 0.03375 0.0
H560 H 0.47756 0.00011 0.02378 0.0
H561 H 0.49812 0.00608 0.94645 0.0
H562 H 0.51674 0.06861 0.96656 0.0
H563 H 0.52411 0.08196 0.98944 0.0
H564 H 0.52704 0.0575 0.03442 0.0
H565 H 0.51019 0.99548 0.01398 0.0
H566 H 0.5027 0.98213 0.99109 0.0
H567 H 0.54103 0.17478 0.01905 0.0
H568 H 0.55413 0.18216 0.00283 0.0
H569 H 0.53017 0.16081 0.00354 0.0
C570 C 0.56776 0.45873 0.09994 0.0
C571 C 0.57718 0.46043 0.11412 0.0
C572 C 0.56873 0.48306 0.12548 0.0
C573 C 0.54921 0.46927 0.12858 0.0
C574 C 0.53617 0.47524 0.13314 0.0
C575 C 0.54266 0.4954 0.13443 0.0
C576 C 0.56239 0.50931 0.13165 0.0
C577 C 0.57523 0.5029 0.12739 0.0
C578 C 0.51531 0.45999 0.13628 0.0
C579 C 0.56975 0.53093 0.13278 0.0
C580 C 0.45098 0.47295 0.0621 0.0
C581 C 0.46246 0.49334 0.06848 0.0
C582 C 0.46633 0.49741 0.09337 0.0
C583 C 0.48483 0.51418 0.09424 0.0
C584 C 0.49634 0.51802 0.10616 0.0
C585 C 0.48929 0.50461 0.11728 0.0
C586 C 0.47036 0.48794 0.11652 0.0
C587 C 0.45894 0.48483 0.10465 0.0
C588 C 0.51623 0.53616 0.10671 0.0
C589 C 0.46244 0.47298 0.12796 0.0
C590 C 0.44839 0.54536 0.18854 0.0
C591 C 0.46691 0.55917 0.18358 0.0
C592 C 0.48178 0.55448 0.18231 0.0
C593 C 0.47786 0.53545 0.18577 0.0
C594 C 0.45943 0.52179 0.1913 0.0
C595 C 0.44503 0.52708 0.19282 0.0
C596 C 0.50152 0.56971 0.17696 0.0
C597 C 0.45475 0.50142 0.19521 0.0
C598 C 0.58719 0.50854 0.22731 0.0
C599 C 0.56639 0.49885 0.23304 0.0
C600 C 0.54911 0.51501 0.22474 0.0
C601 C 0.55511 0.53366 0.21958 0.0
C602 C 0.54455 0.53645 0.20902 0.0
C603 C 0.52738 0.52019 0.2038 0.0
C604 C 0.52056 0.50149 0.20967 0.0
C605 C 0.53156 0.49909 0.22008 0.0
C606 C 0.55207 0.5566 0.20311 0.0
C607 C 0.50194 0.48394 0.20471 0.0
C608 C 0.52842 0.50187 0.13766 0.0
C609 C 0.51658 0.50172 0.12689 0.0
C610 C 0.50234 0.50696 0.12908 0.0
C611 C 0.50011 0.51307 0.14236 0.0
C612 C 0.48635 0.51901 0.14486 0.0
C613 C 0.48382 0.52436 0.15807 0.0
C614 C 0.49511 0.52418 0.16927 0.0
C615 C 0.49253 0.52943 0.18278 0.0
C616 C 0.50353 0.52843 0.19375 0.0
C617 C 0.51721 0.52239 0.19161 0.0
C618 C 0.52042 0.51767 0.17812 0.0
C619 C 0.53442 0.51201 0.17555 0.0
C620 C 0.53714 0.50691 0.16231 0.0
C621 C 0.52599 0.5073 0.15112 0.0
C622 C 0.51185 0.51304 0.15345 0.0
C623 C 0.50921 0.51842 0.16694 0.0
C624 C 0.40844 0.55126 0.17709 0.0
C625 C 0.43032 0.5608 0.18009 0.0
O626 O 0.58162 0.47796 0.12041 0.0
O627 O 0.56056 0.5127 0.23412 0.0
O628 O 0.43342 0.54911 0.18921 0.0
O629 O 0.45543 0.49286 0.08168 0.0
H630 H 0.56697 0.44803 0.12075 0.0
H631 H 0.55381 0.45876 0.10108 0.0
H632 H 0.57767 0.47117 0.09323 0.0
H633 H 0.56449 0.44484 0.0948 0.0
H634 H 0.54392 0.45382 0.12739 0.0
H635 H 0.59033 0.51344 0.12507 0.0
H636 H 0.50555 0.46035 0.12817 0.0
H637 H 0.51323 0.44501 0.13663 0.0
H638 H 0.51073 0.46318 0.14633 0.0
H639 H 0.58533 0.53988 0.12973 0.0
H640 H 0.56085 0.53491 0.12609 0.0
H641 H 0.56816 0.53467 0.14358 0.0
H642 H 0.47807 0.49712 0.06887 0.0
H643 H 0.45651 0.47284 0.05156 0.0
H644 H 0.45273 0.46232 0.06857 0.0
H645 H 0.43518 0.46819 0.06145 0.0
H646 H 0.49026 0.52417 0.08558 0.0
H647 H 0.44453 0.47203 0.10386 0.0
H648 H 0.51854 0.54355 0.11688 0.0
H649 H 0.52765 0.532 0.10552 0.0
H650 H 0.51818 0.54666 0.09839 0.0
H651 H 0.44853 0.45974 0.12501 0.0
H652 H 0.47326 0.46851 0.13081 0.0
H653 H 0.45973 0.47947 0.13728 0.0
H654 H 0.43754 0.56164 0.17001 0.0
H655 H 0.46977 0.57359 0.18066 0.0
H656 H 0.43076 0.51665 0.19683 0.0
H657 H 0.50334 0.566 0.1662 0.0
H658 H 0.50325 0.58455 0.17697 0.0
H659 H 0.51335 0.56995 0.18332 0.0
H660 H 0.4393 0.49213 0.19846 0.0
H661 H 0.45762 0.4943 0.18633 0.0
H662 H 0.46437 0.5022 0.20385 0.0
H663 H 0.55693 0.48711 0.22561 0.0
H664 H 0.59219 0.4977 0.22647 0.0
H665 H 0.58753 0.51444 0.21683 0.0
H666 H 0.59745 0.52078 0.23407 0.0
H667 H 0.56853 0.5459 0.22346 0.0
H668 H 0.52652 0.48478 0.22452 0.0
H669 H 0.55497 0.55647 0.19189 0.0
H670 H 0.54078 0.56096 0.20422 0.0
H671 H 0.56569 0.56773 0.20828 0.0
H672 H 0.49741 0.471 0.21144 0.0
H673 H 0.48993 0.48739 0.20432 0.0
H674 H 0.50409 0.48011 0.19406 0.0
H675 H 0.51819 0.49701 0.11667 0.0
H676 H 0.47729 0.51946 0.13663 0.0
H677 H 0.4728 0.52854 0.15938 0.0
H678 H 0.50119 0.53208 0.20412 0.0
H679 H 0.54343 0.51142 0.18375 0.0
H680 H 0.54803 0.50256 0.16096 0.0
H681 H 0.40015 0.54955 0.18676 0.0
H682 H 0.40558 0.56026 0.16966 0.0
H683 H 0.40308 0.53658 0.17245 0.0
Li684 Li 0.63561 0.41918 0.42069 0.0
Li685 Li 0.62941 0.3878 0.4125 0.0
Li686 Li 0.65941 0.41729 0.40632 0.0
Li687 Li 0.6288 0.41114 0.39658 0.0
C688 C 0.64724 0.39865 0.43812 0.0
N689 N 0.64018 0.38378 0.46463 0.0
C690 C 0.62849 0.39044 0.44374 0.0
C691 C 0.66239 0.39927 0.44597 0.0
C692 C 0.62522 0.383 0.45716 0.0
C693 C 0.65853 0.39168 0.45936 0.0
C694 C 0.59308 0.38423 0.40775 0.0
C695 C 0.57297 0.35765 0.39232 0.0
N696 N 0.55671 0.35615 0.39832 0.0
C697 C 0.57619 0.38244 0.41374 0.0
C698 C 0.59148 0.37174 0.39695 0.0
C699 C 0.55793 0.36814 0.40884 0.0
C700 C 0.61581 0.43564 0.43334 0.0
N701 N 0.63095 0.43238 0.43532 0.0
C702 C 0.63597 0.44546 0.45819 0.0
C703 C 0.64134 0.4375 0.44731 0.0
C704 C 0.61989 0.44837 0.45665 0.0
C705 C 0.61007 0.44375 0.44387 0.0
H706 H 0.60795 0.43157 0.42363 0.0
H707 H 0.65346 0.43493 0.44858 0.0
C708 C 0.63247 0.35463 0.41408 0.0
N709 N 0.61992 0.36118 0.41696 0.0
C710 C 0.62785 0.33575 0.41775 0.0
C711 C 0.59728 0.33055 0.42714 0.0
C712 C 0.60255 0.34963 0.42334 0.0
C713 C 0.61009 0.32343 0.42445 0.0
H714 H 0.64631 0.3643 0.4092 0.0
H715 H 0.59296 0.3553 0.42571 0.0
C716 C 0.66344 0.45411 0.40913 0.0
N717 N 0.69125 0.49081 0.4182 0.0
C718 C 0.66543 0.47077 0.40261 0.0
C719 C 0.67558 0.4561 0.42028 0.0
C720 C 0.67959 0.4892 0.40734 0.0
C721 C 0.68955 0.47478 0.42471 0.0
C722 C 0.64933 0.39618 0.3814 0.0
C723 C 0.65861 0.4138 0.37416 0.0
C724 C 0.64783 0.37934 0.37549 0.0
C725 C 0.66631 0.41428 0.36107 0.0
C726 C 0.65567 0.38041 0.36238 0.0
N727 N 0.66468 0.39772 0.3555 0.0
C728 C 0.69302 0.41465 0.40732 0.0
C729 C 0.69772 0.44282 0.39534 0.0
C730 C 0.71212 0.4192 0.40444 0.0
N731 N 0.68621 0.42635 0.40271 0.0
C732 C 0.71698 0.44798 0.39226 0.0
C733 C 0.72439 0.43601 0.39673 0.0
H734 H 0.68341 0.40151 0.41299 0.0
H735 H 0.69186 0.45177 0.39165 0.0
C736 C 0.61217 0.42963 0.38254 0.0
N737 N 0.61647 0.4151 0.38106 0.0
C738 C 0.60406 0.43464 0.37158 0.0
C739 C 0.60462 0.40938 0.35782 0.0
C740 C 0.61253 0.40471 0.36912 0.0
C741 C 0.60051 0.42473 0.35889 0.0
H742 H 0.61528 0.43748 0.39223 0.0
H743 H 0.61584 0.39303 0.36826 0.0
O744 O 0.6509 0.40602 0.42499 0.0
O745 O 0.61099 0.39817 0.41252 0.0
O746 O 0.64961 0.43602 0.40455 0.0
O747 O 0.64162 0.39523 0.39419 0.0
H748 H 0.61659 0.38987 0.43784 0.0
H749 H 0.67698 0.40557 0.44175 0.0
H750 H 0.61079 0.37663 0.46165 0.0
H751 H 0.67012 0.39208 0.46557 0.0
H752 H 0.57152 0.34788 0.38398 0.0
H753 H 0.57719 0.39199 0.42212 0.0
H754 H 0.60435 0.37282 0.39219 0.0
H755 H 0.54473 0.36658 0.41339 0.0
H756 H 0.64389 0.44862 0.46786 0.0
H757 H 0.59789 0.44611 0.44207 0.0
H758 H 0.63838 0.3311 0.41573 0.0
H759 H 0.5834 0.32155 0.43221 0.0
H760 H 0.65613 0.46946 0.39397 0.0
H761 H 0.67432 0.44341 0.42544 0.0
H762 H 0.6813 0.50223 0.40239 0.0
H763 H 0.69905 0.47654 0.43331 0.0
H764 H 0.65977 0.42694 0.37856 0.0
H765 H 0.64062 0.36558 0.38098 0.0
H766 H 0.67353 0.42782 0.35533 0.0
H767 H 0.65458 0.36748 0.35767 0.0
H768 H 0.71701 0.40931 0.40787 0.0
H769 H 0.72593 0.46114 0.38638 0.0
H770 H 0.60074 0.44625 0.37303 0.0
H771 H 0.60231 0.40142 0.34824 0.0
Li772 Li 0.23716 0.62605 0.59205 0.0
Li773 Li 0.26183 0.61943 0.58152 0.0
Li774 Li 0.26109 0.64957 0.57599 0.0
Li775 Li 0.23579 0.61838 0.56721 0.0
C776 C 0.27284 0.65628 0.60335 0.0
N777 N 0.28689 0.68741 0.6215 0.0
C778 C 0.2904 0.66234 0.61037 0.0
C779 C 0.26245 0.66607 0.60551 0.0
C780 C 0.29726 0.6781 0.61953 0.0
C781 C 0.26979 0.68177 0.61473 0.0
C782 C 0.22785 0.5828 0.57903 0.0
C783 C 0.2313 0.56106 0.56327 0.0
N784 N 0.2173 0.54549 0.57034 0.0
C785 C 0.21349 0.5666 0.58614 0.0
C786 C 0.23683 0.58004 0.5675 0.0
C787 C 0.20836 0.54785 0.58158 0.0
C788 C 0.203 0.6181 0.6061 0.0
N789 N 0.22174 0.62226 0.60793 0.0
C790 C 0.21757 0.61957 0.63242 0.0
C791 C 0.22919 0.62304 0.62073 0.0
C792 C 0.19805 0.61499 0.63086 0.0
C793 C 0.1908 0.61434 0.61749 0.0
H794 H 0.1975 0.6175 0.59576 0.0
H795 H 0.24408 0.62613 0.62185 0.0
C796 C 0.29757 0.62144 0.57923 0.0
N797 N 0.2794 0.61011 0.58451 0.0
C798 C 0.31211 0.61671 0.58155 0.0
C799 C 0.28894 0.5886 0.59468 0.0
C800 C 0.27478 0.59388 0.59207 0.0
C801 C 0.30796 0.60019 0.58947 0.0
H802 H 0.30085 0.63444 0.57345 0.0
H803 H 0.26024 0.58526 0.59628 0.0
C804 C 0.22641 0.65072 0.5704 0.0
N805 N 0.21398 0.67436 0.55842 0.0
C806 C 0.22669 0.65272 0.55605 0.0
C807 C 0.21949 0.66049 0.57866 0.0
C808 C 0.22043 0.6648 0.55019 0.0
C809 C 0.21337 0.67245 0.57241 0.0
C810 C 0.27075 0.63466 0.55015 0.0
C811 C 0.27008 0.64894 0.54204 0.0
C812 C 0.27863 0.62373 0.54464 0.0
C813 C 0.27693 0.65178 0.52847 0.0
C814 C 0.28533 0.62699 0.53101 0.0
N815 N 0.28433 0.64082 0.52327 0.0
C816 C 0.29644 0.68039 0.56786 0.0
C817 C 0.27428 0.69094 0.5743 0.0
C818 C 0.31096 0.69953 0.56521 0.0
N819 N 0.27851 0.67643 0.57223 0.0
C820 C 0.28847 0.71041 0.57188 0.0
C821 C 0.30717 0.71492 0.56734 0.0
H822 H 0.29949 0.66859 0.5665 0.0
H823 H 0.26008 0.6875 0.57811 0.0
C824 C 0.1993 0.60176 0.55477 0.0
N825 N 0.21786 0.60562 0.55251 0.0
C826 C 0.18539 0.59394 0.54424 0.0
C827 C 0.2098 0.59363 0.52938 0.0
C828 C 0.22321 0.60135 0.54023 0.0
C829 C 0.19066 0.59011 0.53123 0.0
H830 H 0.19545 0.60518 0.56469 0.0
H831 H 0.23793 0.60426 0.53872 0.0
O832 O 0.26608 0.64104 0.59422 0.0
O833 O 0.233 0.60123 0.58338 0.0
O834 O 0.23233 0.63886 0.57639 0.0
O835 O 0.26424 0.63169 0.56352 0.0
H836 H 0.29866 0.65495 0.60874 0.0
H837 H 0.24891 0.66164 0.60008 0.0
H838 H 0.31082 0.68296 0.62505 0.0
H839 H 0.2619 0.68949 0.6165 0.0
H840 H 0.23814 0.55872 0.55436 0.0
H841 H 0.20639 0.56852 0.59508 0.0
H842 H 0.24795 0.59239 0.5619 0.0
H843 H 0.19727 0.53517 0.58699 0.0
H844 H 0.22362 0.61993 0.64254 0.0
H845 H 0.17587 0.61097 0.61587 0.0
H846 H 0.32664 0.6263 0.57758 0.0
H847 H 0.2851 0.5757 0.60078 0.0
H848 H 0.23146 0.64487 0.54947 0.0
H849 H 0.2189 0.65888 0.58979 0.0
H850 H 0.22061 0.6665 0.53909 0.0
H851 H 0.2081 0.68019 0.57868 0.0
H852 H 0.26458 0.65794 0.54623 0.0
H853 H 0.27952 0.61278 0.55081 0.0
H854 H 0.27647 0.66276 0.52208 0.0
H855 H 0.29135 0.61856 0.5266 0.0
H856 H 0.32501 0.70221 0.56151 0.0
H857 H 0.28499 0.7218 0.57387 0.0
H858 H 0.17073 0.59114 0.54622 0.0
H859 H 0.2146 0.59107 0.51952 0.0
Li860 Li 0.67054 0.26598 0.74743 0.0
Li861 Li 0.64124 0.2409 0.75737 0.0
Li862 Li 0.6466 0.24104 0.73271 0.0
Li863 Li 0.64057 0.2658 0.7432 0.0
C864 C 0.67204 0.23354 0.7572 0.0
N865 N 0.69267 0.22514 0.77641 0.0
C866 C 0.67836 0.24422 0.76951 0.0
C867 C 0.6762 0.2186 0.75467 0.0
C868 C 0.68877 0.23974 0.77909 0.0
C869 C 0.68666 0.21457 0.76451 0.0
C870 C 0.64415 0.27327 0.77107 0.0
C871 C 0.61405 0.26656 0.78208 0.0
N872 N 0.62438 0.28128 0.79122 0.0
C873 C 0.65445 0.28834 0.78056 0.0
C874 C 0.62377 0.26228 0.77181 0.0
C875 C 0.6442 0.29216 0.79068 0.0
C876 C 0.70086 0.30303 0.75114 0.0
N877 N 0.69745 0.28446 0.74997 0.0
C878 C 0.73159 0.29557 0.75185 0.0
C879 C 0.7123 0.28043 0.75015 0.0
C880 C 0.73546 0.3149 0.753 0.0
C881 C 0.71984 0.31855 0.75257 0.0
H882 H 0.68873 0.30573 0.75085 0.0
H883 H 0.70923 0.26557 0.7489 0.0
C884 C 0.61613 0.20516 0.76994 0.0
N885 N 0.62985 0.22395 0.77275 0.0
C886 C 0.60709 0.19186 0.78068 0.0
C887 C 0.62647 0.21753 0.79702 0.0
C888 C 0.63526 0.23029 0.78596 0.0
C889 C 0.61217 0.19804 0.79444 0.0
H890 H 0.6122 0.20053 0.75932 0.0
H891 H 0.6464 0.24525 0.78793 0.0
C892 C 0.67704 0.27855 0.72155 0.0
N893 N 0.71117 0.29735 0.70642 0.0
C894 C 0.68361 0.29738 0.7165 0.0
C895 C 0.68778 0.26924 0.71883 0.0
C896 C 0.70091 0.30665 0.70889 0.0
C897 C 0.705 0.27899 0.71118 0.0
C898 C 0.60783 0.23215 0.73301 0.0
C899 C 0.61152 0.24264 0.72068 0.0
C900 C 0.58908 0.21665 0.73568 0.0
C901 C 0.59632 0.23741 0.71123 0.0
C902 C 0.57427 0.21188 0.72596 0.0
N903 N 0.57817 0.22227 0.71404 0.0
C904 C 0.63215 0.20536 0.71851 0.0
C905 C 0.64539 0.23328 0.70408 0.0
C906 C 0.62661 0.19306 0.70697 0.0
N907 N 0.64126 0.22504 0.71684 0.0
C908 C 0.64036 0.22159 0.6923 0.0
C909 C 0.63057 0.20114 0.69361 0.0
H910 H 0.62877 0.19923 0.7288 0.0
H911 H 0.65223 0.24894 0.70301 0.0
C912 C 0.64367 0.30166 0.73858 0.0
N913 N 0.63013 0.28267 0.74083 0.0
C914 C 0.63796 0.31557 0.73675 0.0
C915 C 0.60439 0.29023 0.74003 0.0
C916 C 0.61078 0.27674 0.7417 0.0
C917 C 0.61807 0.30998 0.73749 0.0
H918 H 0.65897 0.306 0.7383 0.0
H919 H 0.60032 0.26161 0.74382 0.0
O920 O 0.66173 0.2375 0.74764 0.0
O921 O 0.65411 0.26949 0.76112 0.0
O922 O 0.66045 0.2694 0.7294 0.0
O923 O 0.62244 0.23684 0.74244 0.0
H924 H 0.67538 0.2559 0.77164 0.0
H925 H 0.67138 0.21019 0.74519 0.0
H926 H 0.69376 0.24789 0.78865 0.0
H927 H 0.68999 0.20305 0.76267 0.0
H928 H 0.5983 0.25816 0.78278 0.0
H929 H 0.67023 0.29699 0.78011 0.0
H930 H 0.61551 0.25054 0.76459 0.0
H931 H 0.652 0.30378 0.7981 0.0
H932 H 0.74335 0.29228 0.75209 0.0
H933 H 0.72226 0.33326 0.75358 0.0
H934 H 0.59601 0.17699 0.77825 0.0
H935 H 0.63096 0.2228 0.80748 0.0
H936 H 0.67546 0.30478 0.71841 0.0
H937 H 0.68298 0.25471 0.72275 0.0
H938 H 0.70619 0.32124 0.70495 0.0
H939 H 0.71351 0.272 0.70907 0.0
H940 H 0.6259 0.25472 0.71843 0.0
H941 H 0.58602 0.20839 0.74517 0.0
H942 H 0.59896 0.2454 0.70165 0.0
H943 H 0.55968 0.19992 0.7279 0.0
H944 H 0.61879 0.1774 0.70853 0.0
H945 H 0.64399 0.22854 0.68226 0.0
H946 H 0.64905 0.33052 0.73464 0.0
H947 H 0.58896 0.2853 0.74094 0.0
Li948 Li 0.41697 0.62633 0.92263 0.0
Li949 Li 0.42302 0.65669 0.91102 0.0
Li950 Li 0.3934 0.62708 0.90744 0.0
Li951 Li 0.42229 0.63055 0.8972 0.0
C952 C 0.38667 0.63434 0.93302 0.0
N953 N 0.35268 0.62015 0.94823 0.0
C954 C 0.37828 0.64602 0.93534 0.0
C955 C 0.37776 0.61545 0.93846 0.0
C956 C 0.36108 0.63857 0.94304 0.0
C957 C 0.36061 0.60855 0.94613 0.0
C958 C 0.45591 0.65583 0.92158 0.0
C959 C 0.48939 0.6685 0.9286 0.0
N960 N 0.48589 0.67581 0.9403 0.0
C961 C 0.45264 0.66349 0.93367 0.0
C962 C 0.47442 0.65835 0.91902 0.0
C963 C 0.46799 0.67354 0.943 0.0
C964 C 0.4275 0.60199 0.93673 0.0
N965 N 0.42219 0.61574 0.93858 0.0
C966 C 0.42493 0.61432 0.96308 0.0
C967 C 0.42096 0.62209 0.9514 0.0
C968 C 0.43042 0.60004 0.96152 0.0
C969 C 0.43175 0.59392 0.94812 0.0
H970 H 0.42842 0.59731 0.92638 0.0
H971 H 0.41691 0.63322 0.95255 0.0
C972 C 0.41943 0.68932 0.91325 0.0
N973 N 0.43335 0.68407 0.91265 0.0
C974 C 0.42467 0.70888 0.9145 0.0
C975 C 0.45863 0.71753 0.91387 0.0
C976 C 0.45269 0.69768 0.91276 0.0
C977 C 0.44451 0.72337 0.91481 0.0
H978 H 0.4042 0.6782 0.91268 0.0
H979 H 0.46351 0.69319 0.91186 0.0
C980 C 0.38702 0.59054 0.90349 0.0
N981 N 0.35521 0.55571 0.89515 0.0
C982 C 0.37985 0.58846 0.89002 0.0
C983 C 0.37815 0.57489 0.9127 0.0
C984 C 0.3637 0.57074 0.88601 0.0
C985 C 0.36205 0.5574 0.90829 0.0
C986 C 0.42006 0.65927 0.88291 0.0
C987 C 0.41032 0.66293 0.87228 0.0
C988 C 0.44048 0.66895 0.88295 0.0
C989 C 0.42116 0.67625 0.86191 0.0
C990 C 0.4508 0.68217 0.87241 0.0
N991 N 0.44101 0.68553 0.86219 0.0
C992 C 0.36289 0.63045 0.89685 0.0
C993 C 0.35128 0.60127 0.90974 0.0
C994 C 0.34388 0.62636 0.8943 0.0
N995 N 0.36627 0.61797 0.9044 0.0
C996 C 0.33195 0.59667 0.90755 0.0
C997 C 0.32805 0.60938 0.8998 0.0
H998 H 0.37502 0.6438 0.89296 0.0
H999 H 0.35426 0.59172 0.91595 0.0
C1000 C 0.44782 0.62036 0.88441 0.0
N1001 N 0.43309 0.62412 0.88197 0.0
C1002 C 0.45618 0.61554 0.87349 0.0
C1003 C 0.43407 0.61863 0.85777 0.0
C1004 C 0.42601 0.62319 0.869 0.0
C1005 C 0.44935 0.61472 0.85995 0.0
H1006 H 0.45306 0.62113 0.89485 0.0
H1007 H 0.41409 0.62598 0.86738 0.0
O1008 O 0.40332 0.6412 0.92529 0.0
O1009 O 0.44112 0.64581 0.9123 0.0
O1010 O 0.40269 0.60778 0.90766 0.0
O1011 O 0.40949 0.64615 0.89308 0.0
H1012 H 0.38495 0.66069 0.93129 0.0
H1013 H 0.3838 0.60604 0.93656 0.0
H1014 H 0.35442 0.64745 0.94489 0.0
H1015 H 0.35352 0.59392 0.95033 0.0
H1016 H 0.5038 0.67055 0.92675 0.0
H1017 H 0.43846 0.6618 0.9358 0.0
H1018 H 0.47717 0.65251 0.9097 0.0
H1019 H 0.46567 0.67955 0.95238 0.0
H1020 H 0.42396 0.61959 0.97322 0.0
H1021 H 0.43574 0.58281 0.94647 0.0
H1022 H 0.41322 0.71255 0.91535 0.0
H1023 H 0.47408 0.72818 0.91379 0.0
H1024 H 0.38653 0.60049 0.88281 0.0
H1025 H 0.38359 0.57629 0.92316 0.0
H1026 H 0.3579 0.56895 0.87565 0.0
H1027 H 0.35497 0.54517 0.91531 0.0
H1028 H 0.39453 0.65548 0.87199 0.0
H1029 H 0.44837 0.66631 0.89098 0.0
H1030 H 0.4138 0.6792 0.85363 0.0
H1031 H 0.46659 0.68976 0.87234 0.0
H1032 H 0.34165 0.63646 0.88807 0.0
H1033 H 0.32024 0.58356 0.91216 0.0
H1034 H 0.46804 0.61277 0.87558 0.0
H1035 H 0.42824 0.61791 0.84751 0.0
Li1036 Li 0.78335 0.40814 0.07678 0.0
Li1037 Li 0.8074 0.40258 0.08703 0.0
Li1038 Li 0.80757 0.40908 0.06152 0.0
Li1039 Li 0.78155 0.37804 0.07214 0.0
C1040 C 0.81405 0.44398 0.08116 0.0
N1041 N 0.81807 0.47944 0.08888 0.0
C1042 C 0.80955 0.44675 0.09464 0.0
C1043 C 0.82077 0.45926 0.07164 0.0
C1044 C 0.81162 0.46478 0.09832 0.0
C1045 C 0.82267 0.47708 0.07574 0.0
C1046 C 0.77547 0.3737 0.10012 0.0
C1047 C 0.781 0.34837 0.10907 0.0
N1048 N 0.76862 0.34551 0.1197 0.0
C1049 C 0.7628 0.37049 0.11115 0.0
C1050 C 0.78467 0.36253 0.09908 0.0
C1051 C 0.75953 0.35619 0.12093 0.0
C1052 C 0.75088 0.40697 0.08848 0.0
N1053 N 0.76641 0.41854 0.08035 0.0
C1054 C 0.75464 0.44094 0.07736 0.0
C1055 C 0.76857 0.43534 0.07482 0.0
C1056 C 0.73836 0.42913 0.08567 0.0
C1057 C 0.73676 0.41207 0.09138 0.0
H1058 H 0.74924 0.39352 0.09252 0.0
H1059 H 0.78077 0.44414 0.06814 0.0
C1060 C 0.84255 0.41199 0.10107 0.0
N1061 N 0.82371 0.4076 0.10267 0.0
C1062 C 0.85495 0.41711 0.11254 0.0
C1063 C 0.82807 0.41242 0.12705 0.0
C1064 C 0.81637 0.40779 0.11531 0.0
C1065 C 0.84779 0.41754 0.12578 0.0
H1066 H 0.84806 0.41199 0.09083 0.0
H1067 H 0.80148 0.40469 0.11629 0.0
C1068 C 0.76712 0.40081 0.05235 0.0
N1069 N 0.74272 0.41252 0.04066 0.0
C1070 C 0.74686 0.38896 0.0534 0.0
C1071 C 0.77497 0.41858 0.0453 0.0
C1072 C 0.73477 0.39516 0.04745 0.0
C1073 C 0.76239 0.42423 0.03945 0.0
C1074 C 0.81607 0.37788 0.06277 0.0
C1075 C 0.80935 0.3739 0.04913 0.0
C1076 C 0.82883 0.3718 0.0676 0.0
C1077 C 0.81554 0.36385 0.04052 0.0
C1078 C 0.83464 0.36174 0.05868 0.0
N1079 N 0.82794 0.35802 0.04544 0.0
C1080 C 0.84337 0.43312 0.04836 0.0
C1081 C 0.81659 0.41656 0.033 0.0
C1082 C 0.85606 0.44209 0.03728 0.0
N1083 N 0.82406 0.42071 0.04603 0.0
C1084 C 0.82872 0.42526 0.02163 0.0
C1085 C 0.84874 0.43826 0.0237 0.0
H1086 H 0.84886 0.43611 0.05885 0.0
H1087 H 0.80119 0.40646 0.03144 0.0
C1088 C 0.74485 0.34694 0.0743 0.0
N1089 N 0.76267 0.35114 0.06953 0.0
C1090 C 0.7286 0.3286 0.07212 0.0
C1091 C 0.74937 0.31871 0.06057 0.0
C1092 C 0.76535 0.33733 0.0631 0.0
C1093 C 0.7306 0.31435 0.0648 0.0
H1094 H 0.74316 0.35812 0.07952 0.0
H1095 H 0.77967 0.34078 0.05961 0.0
O1096 O 0.8121 0.42646 0.07733 0.0
O1097 O 0.77879 0.38778 0.09051 0.0
O1098 O 0.77922 0.39516 0.0583 0.0
O1099 O 0.81058 0.38806 0.07132 0.0
H1100 H 0.80434 0.43503 0.10211 0.0
H1101 H 0.82434 0.45731 0.06118 0.0
H1102 H 0.80807 0.46711 0.10869 0.0
H1103 H 0.82776 0.48903 0.06847 0.0
H1104 H 0.78801 0.33963 0.10837 0.0
H1105 H 0.75564 0.37905 0.11221 0.0
H1106 H 0.79451 0.36467 0.09069 0.0
H1107 H 0.74978 0.3536 0.12952 0.0
H1108 H 0.75635 0.45408 0.07257 0.0
H1109 H 0.72468 0.40264 0.09803 0.0
H1110 H 0.87009 0.42124 0.11096 0.0
H1111 H 0.8217 0.41214 0.137 0.0
H1112 H 0.74052 0.37518 0.0588 0.0
H1113 H 0.79061 0.42811 0.0446 0.0
H1114 H 0.71907 0.38619 0.04825 0.0
H1115 H 0.76827 0.438 0.03404 0.0
H1116 H 0.79924 0.37826 0.0453 0.0
H1117 H 0.83419 0.37484 0.07813 0.0
H1118 H 0.81042 0.36061 0.02995 0.0
H1119 H 0.8445 0.35692 0.06228 0.0
H1120 H 0.87135 0.45218 0.03934 0.0
H1121 H 0.82254 0.42172 0.01132 0.0
H1122 H 0.71452 0.32575 0.07589 0.0
H1123 H 0.75158 0.30815 0.05491 0.0
Li1124 Li 0.42947 0.81043 0.25302 0.0
Li1125 Li 0.39911 0.7856 0.24312 0.0
Li1126 Li 0.42948 0.7848 0.23871 0.0
Li1127 Li 0.42372 0.81004 0.22785 0.0
C1128 C 0.41181 0.77484 0.26943 0.0
N1129 N 0.40332 0.76036 0.29605 0.0
C1130 C 0.39733 0.7759 0.27702 0.0
C1131 C 0.42176 0.76615 0.27531 0.0
C1132 C 0.3933 0.76856 0.29048 0.0
C1133 C 0.41732 0.759 0.28881 0.0
C1134 C 0.39728 0.82007 0.24803 0.0
C1135 C 0.37555 0.83278 0.24425 0.0
N1136 N 0.37225 0.83206 0.25808 0.0
C1137 C 0.39386 0.81969 0.26222 0.0
C1138 C 0.38824 0.82688 0.23897 0.0
C1139 C 0.38109 0.82572 0.2671 0.0
C1140 C 0.44415 0.84599 0.26681 0.0
N1141 N 0.44097 0.82753 0.26832 0.0
C1142 C 0.45151 0.83392 0.29184 0.0
C1143 C 0.44493 0.82146 0.28041 0.0
C1144 C 0.45425 0.85284 0.29073 0.0
C1145 C 0.45087 0.85899 0.27793 0.0
H1146 H 0.44092 0.85041 0.25703 0.0
H1147 H 0.44272 0.8069 0.2813 0.0
C1148 C 0.36784 0.74999 0.25018 0.0
N1149 N 0.37201 0.76804 0.24595 0.0
C1150 C 0.34858 0.73545 0.25245 0.0
C1151 C 0.33805 0.75816 0.24563 0.0
C1152 C 0.35762 0.77236 0.24357 0.0
C1153 C 0.33332 0.73937 0.25011 0.0
H1154 H 0.37955 0.74687 0.25178 0.0
H1155 H 0.36124 0.78665 0.23987 0.0
C1156 C 0.46589 0.81893 0.24273 0.0
N1157 N 0.50242 0.82963 0.2532 0.0
C1158 C 0.48255 0.83445 0.23685 0.0
C1159 C 0.46779 0.80886 0.25393 0.0
C1160 C 0.5009 0.83964 0.24229 0.0
C1161 C 0.48638 0.81449 0.25908 0.0
C1162 C 0.39377 0.7735 0.21612 0.0
C1163 C 0.38756 0.7551 0.21036 0.0
C1164 C 0.38414 0.78369 0.21268 0.0
C1165 C 0.37184 0.74723 0.20113 0.0
C1166 C 0.36846 0.77532 0.20343 0.0
N1167 N 0.36269 0.75742 0.19789 0.0
C1168 C 0.42702 0.7487 0.23998 0.0
C1169 C 0.45583 0.77262 0.22887 0.0
C1170 C 0.43176 0.73428 0.23712 0.0
N1171 N 0.43893 0.76736 0.23575 0.0
C1172 C 0.46119 0.75864 0.22582 0.0
C1173 C 0.44893 0.73909 0.22979 0.0
H1174 H 0.41351 0.74494 0.24523 0.0
H1175 H 0.4649 0.78754 0.22548 0.0
C1176 C 0.43255 0.84416 0.21297 0.0
N1177 N 0.42866 0.82542 0.21181 0.0
C1178 C 0.43704 0.85592 0.20123 0.0
C1179 C 0.43308 0.82868 0.18737 0.0
C1180 C 0.42883 0.81754 0.19937 0.0
C1181 C 0.43749 0.84824 0.18819 0.0
H1182 H 0.43244 0.85005 0.22305 0.0
H1183 H 0.42579 0.80261 0.19879 0.0
O1184 O 0.41597 0.78184 0.25621 0.0
O1185 O 0.40986 0.81441 0.24301 0.0
O1186 O 0.44784 0.81375 0.23753 0.0
O1187 O 0.409 0.78133 0.22528 0.0
H1188 H 0.38909 0.78205 0.27253 0.0
H1189 H 0.43286 0.76499 0.26953 0.0
H1190 H 0.38214 0.7693 0.29647 0.0
H1191 H 0.42499 0.75234 0.29351 0.0
H1192 H 0.36835 0.83796 0.23734 0.0
H1193 H 0.40115 0.81501 0.26943 0.0
H1194 H 0.39095 0.82755 0.22796 0.0
H1195 H 0.37828 0.82545 0.27806 0.0
H1196 H 0.45427 0.82876 0.30148 0.0
H1197 H 0.45271 0.87343 0.27668 0.0
H1198 H 0.34572 0.72132 0.25609 0.0
H1199 H 0.32676 0.76174 0.24347 0.0
H1200 H 0.4813 0.84241 0.22817 0.0
H1201 H 0.45506 0.79683 0.25859 0.0
H1202 H 0.51394 0.85162 0.23784 0.0
H1203 H 0.48805 0.80682 0.26775 0.0
H1204 H 0.39483 0.747 0.21299 0.0
H1205 H 0.38866 0.79786 0.21715 0.0
H1206 H 0.36689 0.73302 0.19655 0.0
H1207 H 0.36086 0.78304 0.20069 0.0
H1208 H 0.42166 0.71937 0.24015 0.0
H1209 H 0.47463 0.76303 0.22024 0.0
H1210 H 0.44059 0.87096 0.20241 0.0
H1211 H 0.43291 0.82201 0.17755 0.0
C1212 C 0.16413 0.61383 0.27817 0.0
C1213 C 0.16174 0.59497 0.2773 0.0
C1214 C 0.18215 0.63028 0.27511 0.0
C1215 C 0.2261 0.64555 0.25461 0.0
H1216 H 0.25126 0.68941 0.27989 0.0
C1217 C 0.30667 0.70435 0.24857 0.0
C1218 C 0.31268 0.72378 0.2522 0.0
C1219 C 0.28761 0.68945 0.25111 0.0
C1220 C 0.24429 0.67747 0.27259 0.0
H1221 H 0.17608 0.57857 0.27206 0.0
H1222 H 0.20749 0.60731 0.26655 0.0
H1223 H 0.21911 0.66186 0.28552 0.0
H1224 H 0.30314 0.74278 0.26115 0.0
H1225 H 0.2696 0.71682 0.26516 0.0
H1226 H 0.25096 0.66107 0.24156 0.0
C1227 C 0.19552 0.60934 0.26981 0.0
C1228 C 0.22593 0.66166 0.27586 0.0
C1229 C 0.17763 0.59294 0.27307 0.0
C1230 C 0.29897 0.728 0.25814 0.0
C1231 C 0.2798 0.71307 0.2606 0.0
C1232 C 0.24431 0.66142 0.25125 0.0
C1233 C 0.19793 0.62815 0.27077 0.0
C1234 C 0.21683 0.64543 0.267 0.0
C1235 C 0.27393 0.69357 0.25722 0.0
C1236 C 0.25383 0.67744 0.26031 0.0
H1237 H 0.15204 0.61587 0.28105 0.0
H1238 H 0.18359 0.64463 0.27578 0.0
H1239 H 0.21923 0.63335 0.24749 0.0
H1240 H 0.31672 0.70058 0.24376 0.0
H1241 H 0.28376 0.67462 0.24853 0.0
C1242 C 0.61469 0.1782 0.45916 0.0
C1243 C 0.60795 0.17097 0.47251 0.0
C1244 C 0.61137 0.19253 0.45345 0.0
C1245 C 0.60375 0.23264 0.46415 0.0
H1246 H 0.5907 0.23339 0.4256 0.0
C1247 C 0.59675 0.29643 0.44205 0.0
C1248 C 0.60553 0.30366 0.42913 0.0
C1249 C 0.59403 0.27862 0.44696 0.0
C1250 C 0.59448 0.23347 0.43637 0.0
H1251 H 0.59244 0.17298 0.49029 0.0
H1252 H 0.58652 0.19794 0.4803 0.0
H1253 H 0.59149 0.20503 0.43481 0.0
H1254 H 0.61742 0.29725 0.41096 0.0
H1255 H 0.6133 0.26658 0.4197 0.0
H1256 H 0.60738 0.26123 0.46568 0.0
C1257 C 0.59435 0.19252 0.47425 0.0
C1258 C 0.59489 0.2172 0.44164 0.0
C1259 C 0.5976 0.17815 0.47993 0.0
C1260 C 0.6109 0.29229 0.42105 0.0
C1261 C 0.60829 0.27454 0.426 0.0
C1262 C 0.60345 0.24892 0.45887 0.0
C1263 C 0.60146 0.20009 0.46104 0.0
C1264 C 0.5997 0.21669 0.45556 0.0
C1265 C 0.60011 0.26763 0.43911 0.0
C1266 C 0.59901 0.24964 0.44488 0.0
H1267 H 0.62303 0.17319 0.45332 0.0
H1268 H 0.61727 0.19826 0.44333 0.0
H1269 H 0.60782 0.23284 0.47487 0.0
H1270 H 0.59256 0.30484 0.44861 0.0
H1271 H 0.58741 0.2736 0.45702 0.0
C1272 C 0.4639 0.61234 0.61891 0.0
C1273 C 0.46493 0.60921 0.63311 0.0
C1274 C 0.44605 0.60761 0.61277 0.0
C1275 C 0.39219 0.58108 0.6186 0.0
H1276 H 0.39383 0.62004 0.59346 0.0
C1277 C 0.32571 0.59044 0.60636 0.0
C1278 C 0.3238 0.59594 0.59289 0.0
C1279 C 0.34194 0.58877 0.61002 0.0
C1280 C 0.39311 0.60882 0.60027 0.0
H1281 H 0.4482 0.59878 0.65198 0.0
H1282 H 0.41709 0.59084 0.64137 0.0
H1283 H 0.42417 0.62322 0.60208 0.0
H1284 H 0.33677 0.60268 0.57245 0.0
H1285 H 0.36513 0.59988 0.57886 0.0
H1286 H 0.361 0.56711 0.6171 0.0
C1287 C 0.42991 0.5964 0.63487 0.0
C1288 C 0.41054 0.61063 0.60521 0.0
C1289 C 0.44774 0.60103 0.64098 0.0
C1290 C 0.33801 0.5988 0.58299 0.0
C1291 C 0.35424 0.59719 0.58665 0.0
C1292 C 0.37473 0.57933 0.6137 0.0
C1293 C 0.42889 0.59993 0.62073 0.0
C1294 C 0.41032 0.59693 0.61458 0.0
C1295 C 0.35662 0.59261 0.60029 0.0
C1296 C 0.37501 0.59333 0.60461 0.0
H1297 H 0.47697 0.61888 0.61263 0.0
H1298 H 0.44577 0.61031 0.60183 0.0
H1299 H 0.39149 0.5701 0.62563 0.0
H1300 H 0.31515 0.58833 0.61428 0.0
H1301 H 0.34344 0.58541 0.62064 0.0
C1302 C 0.87201 0.45318 0.80564 0.0
C1303 C 0.87861 0.47152 0.79951 0.0
C1304 C 0.85969 0.43606 0.79838 0.0
C1305 C 0.8226 0.41865 0.77138 0.0
H1306 H 0.82557 0.37118 0.77329 0.0
C1307 C 0.76251 0.34821 0.74697 0.0
C1308 C 0.75551 0.33135 0.75511 0.0
C1309 C 0.78019 0.36491 0.7502 0.0
C1310 C 0.82448 0.38429 0.77271 0.0
H1311 H 0.87783 0.4864 0.78095 0.0
H1312 H 0.85622 0.45644 0.76822 0.0
H1313 H 0.85183 0.40147 0.78319 0.0
H1314 H 0.76179 0.31828 0.77257 0.0
H1315 H 0.79245 0.34763 0.77854 0.0
H1316 H 0.79499 0.40155 0.7615 0.0
C1317 C 0.86059 0.45531 0.77864 0.0
C1318 C 0.83954 0.40163 0.77835 0.0
C1319 C 0.873 0.47242 0.78587 0.0
C1320 C 0.76697 0.3311 0.7661 0.0
C1321 C 0.78456 0.34792 0.76947 0.0
C1322 C 0.80752 0.40134 0.76585 0.0
C1323 C 0.85355 0.43696 0.7849 0.0
C1324 C 0.83862 0.41893 0.77788 0.0
C1325 C 0.79109 0.36521 0.7618 0.0
C1326 C 0.80813 0.38388 0.76658 0.0
H1327 H 0.87601 0.4521 0.81618 0.0
H1328 H 0.85431 0.42215 0.80355 0.0
H1329 H 0.82129 0.43165 0.77106 0.0
H1330 H 0.75401 0.34863 0.73831 0.0
H1331 H 0.78501 0.37778 0.74385 0.0
C1332 C 0.45259 0.87907 0.93261 0.0
C1333 C 0.46959 0.89489 0.93816 0.0
C1334 C 0.45192 0.86148 0.92958 0.0
C1335 C 0.47182 0.83069 0.93895 0.0
H1336 H 0.45488 0.8081 0.90246 0.0
C1337 C 0.4664 0.75722 0.92426 0.0
C1338 C 0.45022 0.74432 0.91619 0.0
C1339 C 0.47092 0.77658 0.92621 0.0
C1340 C 0.45941 0.81404 0.91276 0.0
H1341 H 0.49945 0.90472 0.94459 0.0
H1342 H 0.49792 0.87358 0.93978 0.0
H1343 H 0.45803 0.83972 0.90771 0.0
H1344 H 0.42666 0.74207 0.90331 0.0
H1345 H 0.43384 0.77525 0.90727 0.0
H1346 H 0.47233 0.80472 0.9443 0.0
C1347 C 0.48516 0.87494 0.93782 0.0
C1348 C 0.46131 0.83221 0.91571 0.0
C1349 C 0.48597 0.89271 0.9406 0.0
C1350 C 0.43899 0.75142 0.90984 0.0
C1351 C 0.44334 0.77065 0.91192 0.0
C1352 C 0.4696 0.81234 0.93609 0.0
C1353 C 0.46818 0.85926 0.93217 0.0
C1354 C 0.46732 0.84058 0.92887 0.0
C1355 C 0.45927 0.78347 0.92022 0.0
C1356 C 0.46312 0.80365 0.92299 0.0
H1357 H 0.43988 0.88044 0.93045 0.0
H1358 H 0.43864 0.84954 0.92528 0.0
H1359 H 0.47638 0.83685 0.94921 0.0
H1360 H 0.47531 0.75225 0.92939 0.0
H1361 H 0.48348 0.78609 0.93249 0.0
C1362 C 0.61367 0.47574 0.10956 0.0
C1363 C 0.59551 0.4591 0.11238 0.0
C1364 C 0.63023 0.47402 0.10728 0.0
C1365 C 0.64883 0.43947 0.11198 0.0
H1366 H 0.68586 0.47062 0.08351 0.0
C1367 C 0.70317 0.41935 0.08895 0.0
C1368 C 0.72286 0.4342 0.08824 0.0
C1369 C 0.68861 0.42375 0.09214 0.0
C1370 C 0.67573 0.46198 0.09158 0.0
H1371 H 0.58026 0.42761 0.11427 0.0
H1372 H 0.60891 0.42449 0.10999 0.0
H1373 H 0.6585 0.47572 0.08883 0.0
H1374 H 0.74253 0.46547 0.08996 0.0
H1375 H 0.71683 0.47319 0.09521 0.0
H1376 H 0.66571 0.42531 0.11439 0.0
C1377 C 0.61063 0.43897 0.1101 0.0
C1378 C 0.6601 0.46493 0.09467 0.0
C1379 C 0.59417 0.44071 0.1125 0.0
C1380 C 0.72751 0.45369 0.09032 0.0
C1381 C 0.71284 0.45812 0.09338 0.0
C1382 C 0.66429 0.4364 0.10878 0.0
C1383 C 0.6289 0.45559 0.10751 0.0
C1384 C 0.64629 0.4535 0.10479 0.0
C1385 C 0.6933 0.44313 0.09453 0.0
C1386 C 0.67773 0.44743 0.09844 0.0
H1387 H 0.61507 0.49007 0.10908 0.0
H1388 H 0.64406 0.48714 0.10537 0.0
H1389 H 0.6388 0.43074 0.12007 0.0
H1390 H 0.69894 0.40424 0.08702 0.0
H1391 H 0.6736 0.41196 0.0927 0.0
C1392 C 0.43307 0.88428 0.5399 0.0
C1393 C 0.45193 0.88669 0.54081 0.0
C1394 C 0.41661 0.86619 0.54276 0.0
C1395 C 0.40121 0.82195 0.56291 0.0
H1396 H 0.35752 0.79711 0.53747 0.0
C1397 C 0.34227 0.74142 0.56868 0.0
C1398 C 0.32285 0.73548 0.56508 0.0
C1399 C 0.35722 0.76044 0.56612 0.0
C1400 C 0.36942 0.80398 0.54481 0.0
H1401 H 0.46831 0.87228 0.54591 0.0
H1402 H 0.43954 0.84073 0.55107 0.0
H1403 H 0.38512 0.82933 0.53204 0.0
H1404 H 0.30394 0.74514 0.55612 0.0
H1405 H 0.33001 0.77863 0.55209 0.0
H1406 H 0.3856 0.79695 0.57582 0.0
C1407 C 0.43753 0.85276 0.54793 0.0
C1408 C 0.38525 0.82238 0.54166 0.0
C1409 C 0.45395 0.87073 0.54487 0.0
C1410 C 0.31871 0.74924 0.55912 0.0
C1411 C 0.3337 0.76838 0.55664 0.0
C1412 C 0.38532 0.8037 0.56615 0.0
C1413 C 0.41871 0.85033 0.54694 0.0
C1414 C 0.40142 0.83137 0.55057 0.0
C1415 C 0.35318 0.77418 0.56004 0.0
C1416 C 0.36936 0.7943 0.55704 0.0
H1417 H 0.43104 0.89643 0.53714 0.0
H1418 H 0.40226 0.86473 0.54207 0.0
H1419 H 0.41336 0.82874 0.57008 0.0
H1420 H 0.34599 0.73135 0.57352 0.0
H1421 H 0.37204 0.76423 0.5687 0.0
C1422 C 0.56806 0.431 0.70935 0.0
C1423 C 0.58384 0.45008 0.71128 0.0
C1424 C 0.57008 0.4148 0.71242 0.0
C1425 C 0.59749 0.39951 0.73439 0.0
H1426 H 0.58507 0.35881 0.70725 0.0
C1427 C 0.62344 0.34385 0.74072 0.0
C1428 C 0.61183 0.32476 0.73561 0.0
C1429 C 0.61831 0.35811 0.73832 0.0
C1430 C 0.58826 0.36982 0.71506 0.0
H1431 H 0.61374 0.46706 0.71844 0.0
H1432 H 0.61715 0.43875 0.72402 0.0
H1433 H 0.57912 0.38558 0.70186 0.0
H1434 H 0.58537 0.30564 0.72421 0.0
H1435 H 0.57596 0.33033 0.7205 0.0
H1436 H 0.60635 0.38382 0.74771 0.0
C1437 C 0.60337 0.43639 0.71991 0.0
C1438 C 0.58492 0.38519 0.71193 0.0
C1439 C 0.60148 0.45255 0.71664 0.0
C1440 C 0.5946 0.32015 0.72838 0.0
C1441 C 0.58934 0.3344 0.72609 0.0
C1442 C 0.60056 0.38404 0.73761 0.0
C1443 C 0.58771 0.41737 0.71784 0.0
C1444 C 0.58985 0.40034 0.72147 0.0
C1445 C 0.60125 0.35363 0.7309 0.0
C1446 C 0.59636 0.36918 0.72789 0.0
H1447 H 0.55413 0.42858 0.70556 0.0
H1448 H 0.55774 0.40026 0.71086 0.0
H1449 H 0.60112 0.41088 0.74201 0.0
H1450 H 0.63663 0.34788 0.74655 0.0
H1451 H 0.62801 0.37278 0.74204 0.0
C1452 C 0.15824 0.56944 0.87797 0.0
C1453 C 0.15716 0.58639 0.87543 0.0
C1454 C 0.17632 0.57064 0.8801 0.0
C1455 C 0.22964 0.60431 0.87545 0.0
H1456 H 0.23458 0.57137 0.90297 0.0
C1457 C 0.3037 0.62076 0.89744 0.0
C1458 C 0.30773 0.60531 0.89756 0.0
C1459 C 0.28495 0.61728 0.89456 0.0
C1460 C 0.23334 0.58052 0.89516 0.0
H1461 H 0.17399 0.6179 0.87387 0.0
H1462 H 0.20543 0.62013 0.87792 0.0
H1463 H 0.20251 0.56758 0.89812 0.0
H1464 H 0.2949 0.57396 0.8951 0.0
H1465 H 0.26188 0.56786 0.89043 0.0
H1466 H 0.26058 0.61765 0.87284 0.0
C1467 C 0.19247 0.6058 0.87771 0.0
C1468 C 0.21498 0.57832 0.89234 0.0
C1469 C 0.17446 0.60457 0.87544 0.0
C1470 C 0.29231 0.58617 0.8952 0.0
C1471 C 0.27342 0.58267 0.89248 0.0
C1472 C 0.24797 0.60665 0.87839 0.0
C1473 C 0.19367 0.58886 0.88001 0.0
C1474 C 0.21295 0.59036 0.88254 0.0
C1475 C 0.26968 0.59826 0.89192 0.0
C1476 C 0.25002 0.59492 0.88837 0.0
H1477 H 0.14512 0.55524 0.87834 0.0
H1478 H 0.17668 0.55728 0.88176 0.0
H1479 H 0.22859 0.61351 0.8676 0.0
H1480 H 0.31506 0.63561 0.89958 0.0
H1481 H 0.28235 0.62951 0.89446 0.0
C1482 C 0.57293 0.1717 0.03412 0.0
C1483 C 0.5724 0.16847 0.0198 0.0
C1484 C 0.59056 0.1844 0.0407 0.0
C1485 C 0.62544 0.22299 0.04902 0.0
H1486 H 0.6757 0.23051 0.03739 0.0
C1487 C 0.69593 0.29562 0.05672 0.0
C1488 C 0.71295 0.29562 0.06096 0.0
C1489 C 0.67916 0.27825 0.05317 0.0
C1490 C 0.66177 0.22842 0.0409 0.0
H1491 H 0.5898 0.17587 0.00118 0.0
H1492 H 0.62053 0.1983 0.01258 0.0
H1493 H 0.64568 0.20238 0.02883 0.0
H1494 H 0.72572 0.2773 0.06462 0.0
H1495 H 0.69623 0.24675 0.05825 0.0
H1496 H 0.64145 0.24905 0.06098 0.0
C1497 C 0.60748 0.19065 0.01882 0.0
C1498 C 0.64458 0.21244 0.03589 0.0
C1499 C 0.58987 0.1779 0.01226 0.0
C1500 C 0.71287 0.27779 0.06134 0.0
C1501 C 0.696 0.26032 0.05772 0.0
C1502 C 0.64258 0.23892 0.05401 0.0
C1503 C 0.60798 0.19434 0.03308 0.0
C1504 C 0.62622 0.20979 0.03966 0.0
C1505 C 0.67893 0.26038 0.0537 0.0
C1506 C 0.66092 0.2421 0.04973 0.0
H1507 H 0.55964 0.16478 0.04016 0.0
H1508 H 0.59046 0.18676 0.05172 0.0
H1509 H 0.6116 0.22154 0.05206 0.0
H1510 H 0.69562 0.30913 0.05592 0.0
H1511 H 0.66642 0.27887 0.04977 0.0
C1512 C 0.44707 0.59742 0.17732 0.0
C1513 C 0.43788 0.58106 0.186 0.0
C1514 C 0.45228 0.616 0.18229 0.0
C1515 C 0.45943 0.64484 0.21422 0.0
H1516 H 0.44441 0.67485 0.1907 0.0
C1517 C 0.44878 0.7077 0.23437 0.0
C1518 C 0.45315 0.72348 0.22553 0.0
C1519 C 0.45047 0.69185 0.22974 0.0
C1520 C 0.44908 0.66689 0.19731 0.0
H1521 H 0.427 0.57125 0.2067 0.0
H1522 H 0.43604 0.60374 0.21542 0.0
H1523 H 0.44093 0.64431 0.18226 0.0
H1524 H 0.46357 0.73531 0.20507 0.0
H1525 H 0.46706 0.70797 0.19716 0.0
H1526 H 0.46724 0.66734 0.22938 0.0
C1527 C 0.43956 0.60228 0.20483 0.0
C1528 C 0.44705 0.64933 0.19246 0.0
C1529 C 0.43433 0.58368 0.19985 0.0
C1530 C 0.46019 0.72348 0.21219 0.0
C1531 C 0.46195 0.70767 0.20759 0.0
C1532 C 0.46152 0.66247 0.21907 0.0
C1533 C 0.44829 0.6186 0.19604 0.0
C1534 C 0.45196 0.63797 0.20092 0.0
C1535 C 0.45664 0.69144 0.21618 0.0
C1536 C 0.45612 0.67359 0.21072 0.0
H1537 H 0.44983 0.59577 0.16658 0.0
H1538 H 0.45917 0.6283 0.1753 0.0
H1539 H 0.46356 0.63652 0.22091 0.0
H1540 H 0.44361 0.70737 0.24478 0.0
H1541 H 0.44614 0.67957 0.23662 0.0
C1542 C 0.87296 0.43399 0.36377 0.0
C1543 C 0.87821 0.43987 0.34999 0.0
C1544 C 0.85872 0.43669 0.37031 0.0
C1545 C 0.82949 0.46176 0.36692 0.0
H1546 H 0.79208 0.41825 0.38908 0.0
C1547 C 0.75187 0.44733 0.37962 0.0
C1548 C 0.74441 0.4404 0.3929 0.0
C1549 C 0.76999 0.44985 0.37564 0.0
C1550 C 0.80256 0.43067 0.3831 0.0
H1551 H 0.87256 0.45297 0.33224 0.0
H1552 H 0.84743 0.45733 0.34351 0.0
H1553 H 0.82055 0.41794 0.37992 0.0
H1554 H 0.75073 0.43172 0.41264 0.0
H1555 H 0.78219 0.43585 0.40559 0.0
H1556 H 0.81094 0.47407 0.36974 0.0
C1557 C 0.8547 0.45121 0.34945 0.0
C1558 C 0.81894 0.43053 0.37786 0.0
C1559 C 0.86905 0.44865 0.34295 0.0
C1560 C 0.75583 0.43669 0.40224 0.0
C1561 C 0.77388 0.4391 0.39823 0.0
C1562 C 0.81299 0.46182 0.37208 0.0
C1563 C 0.84913 0.44499 0.36315 0.0
C1564 C 0.83253 0.44597 0.36958 0.0
C1565 C 0.78101 0.44541 0.38481 0.0
C1566 C 0.79925 0.44617 0.38011 0.0
H1567 H 0.87955 0.4269 0.36939 0.0
H1568 H 0.85499 0.43195 0.38092 0.0
H1569 H 0.8398 0.47405 0.36077 0.0
H1570 H 0.74339 0.45009 0.3721 0.0
H1571 H 0.77499 0.45452 0.36517 0.0
C1572 C 0.10636 0.54601 0.42055 0.0
C1573 C 0.09508 0.55463 0.41716 0.0
C1574 C 0.11407 0.54799 0.43383 0.0
C1575 C 0.12929 0.58074 0.46379 0.0
H1576 H 0.13128 0.53828 0.48232 0.0
C1577 C 0.16425 0.59126 0.51756 0.0
C1578 C 0.17666 0.58347 0.51947 0.0
C1579 C 0.15208 0.58615 0.50599 0.0
C1580 C 0.13096 0.55031 0.47723 0.0
H1581 H 0.08305 0.57211 0.42496 0.0
H1582 H 0.09643 0.57549 0.44825 0.0
H1583 H 0.11393 0.53223 0.46035 0.0
H1584 H 0.18537 0.56356 0.51097 0.0
H1585 H 0.16458 0.55512 0.49058 0.0
H1586 H 0.14669 0.59896 0.48041 0.0
C1587 C 0.09931 0.56721 0.44063 0.0
C1588 C 0.121 0.54684 0.46467 0.0
C1589 C 0.09155 0.56518 0.42735 0.0
C1590 C 0.1762 0.57004 0.50972 0.0
C1591 C 0.16408 0.565 0.49811 0.0
C1592 C 0.13929 0.58423 0.47631 0.0
C1593 C 0.1108 0.55879 0.44397 0.0
C1594 C 0.12022 0.56206 0.45775 0.0
C1595 C 0.15209 0.57322 0.49601 0.0
C1596 C 0.14041 0.56911 0.48312 0.0
H1597 H 0.10952 0.53803 0.41284 0.0
H1598 H 0.12312 0.5416 0.43602 0.0
H1599 H 0.12922 0.59285 0.45861 0.0
H1600 H 0.16435 0.60179 0.52477 0.0
H1601 H 0.14283 0.59254 0.50479 0.0
C1602 C 0.53413 0.08507 0.59684 0.0
C1603 C 0.54869 0.08627 0.58142 0.0
C1604 C 0.54838 0.09903 0.61143 0.0
C1605 C 0.5996 0.14716 0.62029 0.0
H1606 H 0.58412 0.12508 0.65701 0.0
C1607 C 0.6171 0.19386 0.66946 0.0
C1608 C 0.62391 0.18842 0.68112 0.0
C1609 C 0.6106 0.18193 0.65776 0.0
C1610 C 0.58874 0.13137 0.64682 0.0
H1611 H 0.58126 0.10848 0.56845 0.0
H1612 H 0.60205 0.13102 0.59255 0.0
H1613 H 0.56882 0.10453 0.63672 0.0
H1614 H 0.62936 0.16608 0.68948 0.0
H1615 H 0.61739 0.14494 0.66912 0.0
H1616 H 0.61914 0.17415 0.63039 0.0
C1617 C 0.5867 0.1203 0.59331 0.0
C1618 C 0.57987 0.11967 0.63522 0.0
C1619 C 0.57373 0.10703 0.57809 0.0
C1620 C 0.62397 0.17064 0.68078 0.0
C1621 C 0.61722 0.15856 0.66911 0.0
C1622 C 0.60829 0.15892 0.63188 0.0
C1623 C 0.5743 0.1158 0.60975 0.0
C1624 C 0.58502 0.12756 0.62188 0.0
C1625 C 0.61051 0.16413 0.65749 0.0
C1626 C 0.60272 0.15121 0.64525 0.0
H1627 H 0.519 0.07383 0.59801 0.0
H1628 H 0.54123 0.09746 0.62125 0.0
H1629 H 0.60372 0.1537 0.61014 0.0
H1630 H 0.61636 0.20718 0.66943 0.0
H1631 H 0.60516 0.1864 0.64904 0.0
C1632 C 0.53252 0.57067 0.7719 0.0
C1633 C 0.54101 0.58459 0.76133 0.0
C1634 C 0.52083 0.57248 0.78193 0.0
C1635 C 0.4921 0.59629 0.78991 0.0
H1636 H 0.50401 0.59084 0.82798 0.0
C1637 C 0.46306 0.62096 0.83595 0.0
C1638 C 0.45821 0.60993 0.84817 0.0
C1639 C 0.47193 0.61681 0.82499 0.0
C1640 C 0.50022 0.59209 0.81742 0.0
H1641 H 0.54408 0.61147 0.75306 0.0
H1642 H 0.52338 0.6145 0.77051 0.0
H1643 H 0.52118 0.58509 0.80934 0.0
H1644 H 0.4582 0.58553 0.85834 0.0
H1645 H 0.47331 0.57799 0.83914 0.0
H1646 H 0.47107 0.6032 0.79798 0.0
C1647 C 0.52555 0.60202 0.77089 0.0
C1648 C 0.51011 0.58883 0.80673 0.0
C1649 C 0.53738 0.60029 0.76091 0.0
C1650 C 0.46207 0.59445 0.84912 0.0
C1651 C 0.47077 0.59018 0.83812 0.0
C1652 C 0.48207 0.5994 0.80061 0.0
C1653 C 0.5174 0.58829 0.78162 0.0
C1654 C 0.50625 0.59101 0.79287 0.0
C1655 C 0.47599 0.60142 0.82596 0.0
C1656 C 0.4861 0.59746 0.81451 0.0
H1657 H 0.53531 0.55859 0.77257 0.0
H1658 H 0.51463 0.56161 0.79003 0.0
H1659 H 0.48869 0.59789 0.77931 0.0
H1660 H 0.46044 0.63311 0.83499 0.0
H1661 H 0.47602 0.62598 0.8159 0.0
C1662 C 0.95515 0.53626 0.92831 0.0
C1663 C 0.97376 0.53811 0.92909 0.0
C1664 C 0.9402 0.52354 0.93715 0.0
C1665 C 0.92591 0.48228 0.96163 0.0
H1666 H 0.8945 0.50202 0.97818 0.0
C1667 C 0.88051 0.44987 0.01126 0.0
C1668 C 0.86187 0.44796 0.01178 0.0
C1669 C 0.89303 0.45942 0.00019 0.0
C1670 C 0.90296 0.49617 0.97351 0.0
H1671 H 0.99137 0.5283 0.93979 0.0
H1672 H 0.96542 0.50629 0.95535 0.0
H1673 H 0.9182 0.52104 0.9604 0.0
H1674 H 0.84172 0.45454 0.00108 0.0
H1675 H 0.86355 0.47113 0.98171 0.0
H1676 H 0.91093 0.45761 0.97505 0.0
C1677 C 0.96216 0.51423 0.94768 0.0
C1678 C 0.91652 0.50705 0.96329 0.0
C1679 C 0.97706 0.52688 0.93881 0.0
C1680 C 0.85594 0.45564 0.00092 0.0
C1681 C 0.8685 0.46529 0.9899 0.0
C1682 C 0.91239 0.47144 0.97191 0.0
C1683 C 0.94361 0.51258 0.94708 0.0
C1684 C 0.9283 0.50033 0.9573 0.0
C1685 C 0.88722 0.46738 0.98945 0.0
C1686 C 0.90089 0.47835 0.97805 0.0
H1687 H 0.95228 0.54496 0.92106 0.0
H1688 H 0.92604 0.52247 0.93631 0.0
H1689 H 0.93452 0.47652 0.95708 0.0
H1690 H 0.88542 0.44394 0.0194 0.0
H1691 H 0.90743 0.46095 0.0002 0.0
C1692 C 0.47445 0.93449 0.0771 0.0
C1693 C 0.49295 0.95142 0.07685 0.0
C1694 C 0.467 0.92412 0.08937 0.0
C1695 C 0.47226 0.92729 0.12732 0.0
H1696 H 0.45108 0.87126 0.12491 0.0
C1697 C 0.43692 0.87444 0.17371 0.0
C1698 C 0.44297 0.8606 0.17557 0.0
C1699 C 0.44213 0.88597 0.16179 0.0
C1700 C 0.45696 0.88689 0.12574 0.0
H1701 H 0.51827 0.97063 0.08924 0.0
H1702 H 0.50515 0.95257 0.11076 0.0
H1703 H 0.46163 0.89095 0.10394 0.0
H1704 H 0.45973 0.84849 0.16647 0.0
H1705 H 0.46841 0.86826 0.14563 0.0
H1706 H 0.46782 0.92316 0.1492 0.0
C1707 C 0.49628 0.94755 0.10149 0.0
C1708 C 0.46283 0.89814 0.11373 0.0
C1709 C 0.50379 0.95787 0.08919 0.0
C1710 C 0.45441 0.85865 0.16526 0.0
C1711 C 0.45946 0.87003 0.15333 0.0
C1712 C 0.4662 0.91598 0.13935 0.0
C1713 C 0.47793 0.9304 0.10166 0.0
C1714 C 0.47072 0.91847 0.1144 0.0
C1715 C 0.45335 0.88377 0.15145 0.0
C1716 C 0.45873 0.8957 0.13868 0.0
H1717 H 0.46592 0.92905 0.06771 0.0
H1718 H 0.45276 0.91103 0.08921 0.0
H1719 H 0.47817 0.94292 0.12813 0.0
H1720 H 0.4279 0.87618 0.18135 0.0
H1721 H 0.43709 0.89636 0.16055 0.0
C1722 C 0.55719 0.46953 0.24826 0.0
C1723 C 0.56545 0.48985 0.24701 0.0
C1724 C 0.55785 0.46123 0.26085 0.0
C1725 C 0.56765 0.47172 0.29844 0.0
H1726 H 0.58111 0.43082 0.29665 0.0
C1727 C 0.59992 0.45083 0.34443 0.0
C1728 C 0.59334 0.43091 0.34673 0.0
C1729 C 0.59391 0.45682 0.33277 0.0
C1730 C 0.57705 0.44202 0.29733 0.0
H1731 H 0.58073 0.51741 0.25796 0.0
H1732 H 0.58222 0.50301 0.27991 0.0
H1733 H 0.57533 0.44358 0.27537 0.0
H1734 H 0.57475 0.40165 0.33866 0.0
H1735 H 0.56461 0.41223 0.31811 0.0
H1736 H 0.57003 0.47052 0.32044 0.0
C1737 C 0.57484 0.4934 0.27126 0.0
C1738 C 0.5737 0.44933 0.28513 0.0
C1739 C 0.57409 0.50169 0.25868 0.0
C1740 C 0.58038 0.41713 0.33712 0.0
C1741 C 0.5745 0.42316 0.32537 0.0
C1742 C 0.57113 0.46449 0.31064 0.0
C1743 C 0.56696 0.47308 0.27245 0.0
C1744 C 0.56918 0.46443 0.28551 0.0
C1745 C 0.5813 0.44309 0.32304 0.0
C1746 C 0.57609 0.44972 0.3102 0.0
H1747 H 0.55051 0.46006 0.23942 0.0
H1748 H 0.55138 0.44551 0.26144 0.0
H1749 H 0.56386 0.48311 0.29913 0.0
H1750 H 0.6102 0.46191 0.35143 0.0
H1751 H 0.59965 0.47231 0.33114 0.0
C1752 C 0.50421 0.94378 0.39864 0.0
C1753 C 0.49412 0.9533 0.40292 0.0
C1754 C 0.50093 0.93525 0.38555 0.0
C1755 C 0.49779 0.92654 0.35467 0.0
H1756 H 0.44365 0.89297 0.34405 0.0
C1757 C 0.47409 0.88557 0.30215 0.0
C1758 C 0.45969 0.86574 0.30301 0.0
C1759 C 0.4788 0.89772 0.31374 0.0
C1760 C 0.45883 0.90231 0.34688 0.0
H1761 H 0.47285 0.96156 0.39682 0.0
H1762 H 0.46701 0.94651 0.37388 0.0
H1763 H 0.45139 0.91216 0.36528 0.0
H1764 H 0.43875 0.84315 0.31655 0.0
H1765 H 0.44699 0.86434 0.33675 0.0
H1766 H 0.50518 0.91632 0.33639 0.0
C1767 C 0.47746 0.94568 0.38069 0.0
C1768 C 0.46327 0.91343 0.35895 0.0
C1769 C 0.48085 0.95434 0.39375 0.0
C1770 C 0.45006 0.85832 0.31563 0.0
C1771 C 0.45462 0.87049 0.32715 0.0
C1772 C 0.49335 0.91553 0.34252 0.0
C1773 C 0.48734 0.93589 0.37651 0.0
C1774 C 0.48278 0.92544 0.36308 0.0
C1775 C 0.46901 0.89031 0.32632 0.0
C1776 C 0.47381 0.90306 0.33864 0.0
H1777 H 0.51439 0.94262 0.40553 0.0
H1778 H 0.50856 0.92758 0.38269 0.0
H1779 H 0.51296 0.93579 0.35756 0.0
H1780 H 0.48179 0.89163 0.29255 0.0
H1781 H 0.48991 0.91296 0.31281 0.0
C1782 C 0.57915 0.49519 0.5665 0.0
C1783 C 0.55917 0.48681 0.56954 0.0
C1784 C 0.58523 0.49294 0.55341 0.0
C1785 C 0.56833 0.45948 0.52387 0.0
H1786 H 0.61321 0.50118 0.50524 0.0
C1787 C 0.59258 0.44723 0.47063 0.0
C1788 C 0.61274 0.45513 0.46849 0.0
C1789 C 0.5857 0.4526 0.48214 0.0
C1790 C 0.60076 0.48934 0.51037 0.0
H1791 H 0.5299 0.46958 0.56127 0.0
H1792 H 0.54051 0.46567 0.53833 0.0
H1793 H 0.6017 0.50797 0.52683 0.0
H1794 H 0.64148 0.47544 0.47665 0.0
H1795 H 0.62946 0.48428 0.49701 0.0
H1796 H 0.5676 0.4407 0.50771 0.0
C1797 C 0.55147 0.47398 0.54609 0.0
C1798 C 0.59414 0.49325 0.52271 0.0
C1799 C 0.54539 0.47631 0.55916 0.0
C1800 C 0.62586 0.46885 0.47805 0.0
C1801 C 0.61896 0.47413 0.48964 0.0
C1802 C 0.57499 0.45555 0.5116 0.0
C1803 C 0.57145 0.48208 0.54312 0.0
C1804 C 0.57791 0.47833 0.52963 0.0
C1805 C 0.59878 0.46587 0.49192 0.0
C1806 C 0.59135 0.47039 0.50472 0.0
H1807 H 0.59008 0.50316 0.57435 0.0
H1808 H 0.60071 0.49913 0.55151 0.0
H1809 H 0.556 0.44759 0.52908 0.0
H1810 H 0.582 0.43644 0.46361 0.0
H1811 H 0.57008 0.44618 0.48344 0.0
C1812 C 0.11186 0.57245 0.7419 0.0
C1813 C 0.09539 0.55362 0.74185 0.0
C1814 C 0.12193 0.58085 0.72967 0.0
C1815 C 0.11829 0.57743 0.69161 0.0
H1816 H 0.17459 0.60064 0.69343 0.0
C1817 C 0.16631 0.5938 0.64296 0.0
C1818 C 0.18519 0.61019 0.64311 0.0
C1819 C 0.15467 0.58846 0.65481 0.0
C1820 C 0.15893 0.59456 0.69274 0.0
H1821 H 0.07666 0.52872 0.72896 0.0
H1822 H 0.09418 0.54348 0.70751 0.0
H1823 H 0.15535 0.58862 0.71442 0.0
H1824 H 0.20635 0.63439 0.65554 0.0
H1825 H 0.18593 0.62533 0.67615 0.0
H1826 H 0.12187 0.58332 0.66989 0.0
C1827 C 0.09908 0.55187 0.717 0.0
C1828 C 0.14789 0.58762 0.7048 0.0
C1829 C 0.08907 0.54342 0.72926 0.0
C1830 C 0.19196 0.6215 0.6552 0.0
C1831 C 0.18027 0.61627 0.66701 0.0
C1832 C 0.12935 0.5845 0.67954 0.0
C1833 C 0.11579 0.57056 0.71712 0.0
C1834 C 0.12745 0.57883 0.70436 0.0
C1835 C 0.1616 0.59949 0.66704 0.0
C1836 C 0.14981 0.59299 0.67994 0.0
H1837 H 0.1172 0.58052 0.75149 0.0
H1838 H 0.13467 0.59533 0.73007 0.0
H1839 H 0.10257 0.57092 0.69098 0.0
H1840 H 0.16078 0.58468 0.63383 0.0
H1841 H 0.1405 0.57531 0.65449 0.0
C1842 C 0.5138 0.09282 0.88938 0.0
C1843 C 0.51034 0.07356 0.88901 0.0
C1844 C 0.52675 0.10676 0.88003 0.0
C1845 C 0.54668 0.11015 0.84536 0.0
H1846 H 0.58368 0.16362 0.85564 0.0
C1847 C 0.59932 0.16515 0.80543 0.0
C1848 C 0.60242 0.18425 0.80602 0.0
C1849 C 0.58957 0.15196 0.81612 0.0
C1850 C 0.57328 0.1488 0.85258 0.0
H1851 H 0.5176 0.05378 0.87857 0.0
H1852 H 0.54029 0.07812 0.86228 0.0
H1853 H 0.56405 0.14012 0.87348 0.0
H1854 H 0.59777 0.20454 0.81827 0.0
H1855 H 0.58041 0.18144 0.83682 0.0
H1856 H 0.55543 0.11879 0.82448 0.0
C1857 C 0.53305 0.08246 0.86981 0.0
C1858 C 0.56209 0.13534 0.86281 0.0
C1859 C 0.5202 0.06858 0.87919 0.0
C1860 C 0.59578 0.18997 0.8176 0.0
C1861 C 0.58588 0.17673 0.82825 0.0
C1862 C 0.55775 0.12361 0.83514 0.0
C1863 C 0.53626 0.10163 0.87 0.0
C1864 C 0.54865 0.11588 0.85929 0.0
C1865 C 0.58252 0.15751 0.8276 0.0
C1866 C 0.57117 0.14312 0.8386 0.0
H1867 H 0.50609 0.09696 0.89665 0.0
H1868 H 0.52874 0.12135 0.88031 0.0
H1869 H 0.5362 0.09535 0.8423 0.0
H1870 H 0.60455 0.16043 0.79673 0.0
H1871 H 0.58759 0.13741 0.81539 0.0
C1872 C 0.47431 0.51794 0.04911 0.0
C1873 C 0.46053 0.50798 0.05954 0.0
C1874 C 0.47166 0.52989 0.03978 0.0
C1875 C 0.43265 0.53691 0.02479 0.0
H1876 H 0.47625 0.58413 0.00993 0.0
C1877 C 0.42219 0.58574 0.98535 0.0
C1878 C 0.43456 0.59144 0.97378 0.0
C1879 C 0.42572 0.57703 0.99671 0.0
C1880 C 0.46395 0.57093 0.01395 0.0
H1881 H 0.43309 0.50262 0.06835 0.0
H1882 H 0.42871 0.52396 0.05232 0.0
H1883 H 0.48185 0.56666 0.02854 0.0
H1884 H 0.46063 0.593 0.9652 0.0
H1885 H 0.46676 0.57771 0.98503 0.0
H1886 H 0.41479 0.54116 0.01016 0.0
C1887 C 0.44151 0.52243 0.05127 0.0
C1888 C 0.46715 0.5609 0.02459 0.0
C1889 C 0.44411 0.51037 0.06055 0.0
C1890 C 0.45074 0.58858 0.97391 0.0
C1891 C 0.45436 0.58002 0.98532 0.0
C1892 C 0.42945 0.54701 0.01422 0.0
C1893 C 0.45511 0.53211 0.04064 0.0
C1894 C 0.45157 0.54362 0.03003 0.0
C1895 C 0.44179 0.574 0.99679 0.0
C1896 C 0.44509 0.56399 0.00857 0.0
H1897 H 0.48689 0.51604 0.04795 0.0
H1898 H 0.48225 0.53681 0.03159 0.0
H1899 H 0.42036 0.52348 0.02853 0.0
H1900 H 0.40953 0.58763 0.9855 0.0
H1901 H 0.41587 0.57267 0.00545 0.0
C1902 C 0.94295 0.47486 0.24063 0.0
C1903 C 0.96511 0.49867 0.23661 0.0
C1904 C 0.92926 0.4613 0.2257 0.0
C1905 C 0.93074 0.46442 0.18358 0.0
H1906 H 0.87489 0.43123 0.18867 0.0
C1907 C 0.87617 0.41989 0.13942 0.0
C1908 C 0.86084 0.42401 0.13813 0.0
C1909 C 0.88846 0.4263 0.151 0.0
C1910 C 0.8905 0.44028 0.18715 0.0
H1911 H 0.97997 0.52701 0.21878 0.0
H1912 H 0.95562 0.50405 0.196 0.0
H1913 H 0.89592 0.44642 0.20875 0.0
H1914 H 0.84691 0.43865 0.14798 0.0
H1915 H 0.86778 0.44899 0.16829 0.0
H1916 H 0.92517 0.45858 0.16189 0.0
C1917 C 0.95337 0.49761 0.20616 0.0
C1918 C 0.90255 0.44885 0.19862 0.0
C1919 C 0.96784 0.51241 0.2204 0.0
C1920 C 0.85813 0.43465 0.14873 0.0
C1921 C 0.87015 0.44071 0.16036 0.0
C1922 C 0.91873 0.45557 0.17211 0.0
C1923 C 0.93492 0.47236 0.20875 0.0
C1924 C 0.92268 0.46135 0.19689 0.0
C1925 C 0.88544 0.43664 0.16159 0.0
C1926 C 0.89845 0.44384 0.17378 0.0
H1927 H 0.94074 0.46798 0.25064 0.0
H1928 H 0.91754 0.44641 0.22696 0.0
H1929 H 0.94628 0.47388 0.18201 0.0
H1930 H 0.87858 0.41154 0.13158 0.0
H1931 H 0.90018 0.42299 0.15176 0.0
loop_
_geom_bond_atom_site_label_1
_geom_bond_atom_site_label_2
_geom_bond_distance
_geom_bond_site_symmetry_2
_ccdc_geom_bond_type
C0 C1 1.560 . S
C0 H61 0.959 . S
C0 H62 0.959 . S
C0 H63 0.960 . S
C1 C0 1.560 . S
C1 O56 1.426 . S
C1 H60 0.980 . S
C2 C3 1.407 . S
C2 C7 1.418 . S
C2 O56 1.334 . S
C3 C2 1.407 . S
C3 C4 1.360 . S
C3 H64 0.929 . S
C4 C3 1.360 . S
C4 C5 1.401 . S
C4 C8 1.527 . S
C5 C4 1.401 . S
C5 C6 1.405 . S
C5 C38 1.587 . S
C6 C5 1.405 . S
C6 C7 1.332 . S
C6 C9 1.496 . S
C7 C2 1.418 . S
C7 C6 1.332 . S
C7 H65 0.929 . S
C8 C4 1.527 . S
C8 H66 0.959 . S
C8 H67 0.961 . S
C8 H68 0.961 . S
C9 C6 1.496 . S
C9 H69 0.960 . S
C9 H70 0.960 . S
C9 H71 0.961 . S
C10 C11 1.517 . S
C10 H73 0.961 . S
C10 H74 0.960 . S
C10 H75 0.959 . S
C11 C10 1.517 . S
C11 O59 1.468 . S
C11 H72 0.980 . S
C12 C13 1.349 . S
C12 C17 1.367 . S
C12 O59 1.408 . S
C13 C12 1.349 . S
C13 C14 1.407 1_655 S
C13 H76 0.930 . S
C14 C13 1.407 1_455 S
C14 C15 1.449 . S
C14 C18 1.535 . S
C15 C14 1.449 . S
C15 C16 1.384 . S
C15 C40 1.553 . S
C16 C15 1.384 . S
C16 C17 1.364 1_455 S
C16 C19 1.450 . S
C17 C12 1.367 . S
C17 C16 1.364 1_655 S
C17 H77 0.931 . S
C18 C14 1.535 . S
C18 H78 0.959 . S
C18 H79 0.961 . S
C18 H80 0.959 . S
C19 C16 1.450 . S
C19 H81 0.960 . S
C19 H82 0.960 . S
C19 H83 0.960 . S
C20 C21 1.309 . S
C20 C25 1.304 . S
C20 O58 1.435 . S
C21 C20 1.309 . S
C21 C22 1.476 . S
C21 H85 0.930 . S
C22 C21 1.476 . S
C22 C23 1.400 . S
C22 C26 1.567 . S
C23 C22 1.400 . S
C23 C24 1.373 . S
C23 C45 1.432 . S
C24 C23 1.373 . S
C24 C25 1.339 . S
C24 C27 1.530 . S
C25 C20 1.304 . S
C25 C24 1.339 . S
C25 H86 0.930 . S
C26 C22 1.567 . S
C26 H87 0.961 . S
C26 H88 0.960 . S
C26 H89 0.958 . S
C27 C24 1.530 . S
C27 H90 0.961 . S
C27 H91 0.960 . S
C27 H92 0.960 . S
C28 C29 1.530 . S
C28 H94 0.961 . S
C28 H95 0.961 . S
C28 H96 0.959 . S
C29 C28 1.530 . S
C29 O57 1.412 . S
C29 H93 0.980 . S
C30 C31 1.288 . S
C30 C35 1.377 . S
C30 O57 1.393 . S
C31 C30 1.288 . S
C31 C32 1.369 . S
C31 H97 0.932 . S
C32 C31 1.369 . S
C32 C33 1.398 . S
C32 C36 1.527 . S
C33 C32 1.398 . S
C33 C34 1.380 . S
C33 C47 1.497 . S
C34 C33 1.380 . S
C34 C35 1.383 . S
C34 C37 1.603 . S
C35 C30 1.377 . S
C35 C34 1.383 . S
C35 H98 0.929 . S
C36 C32 1.527 . S
C36 H99 0.961 . S
C36 H100 0.959 . S
C36 H101 0.959 . S
C37 C34 1.603 . S
C37 H102 0.960 . S
C37 H103 0.962 . S
C37 H104 0.961 . S
C38 C5 1.587 . S
C38 C39 1.360 . S
C38 C51 1.412 . S
C39 C38 1.360 . S
C39 C40 1.365 . S
C39 H105 0.929 . S
C40 C15 1.553 . S
C40 C39 1.365 . S
C40 C41 1.404 . S
C41 C40 1.404 . S
C41 C42 1.395 1_455 S
C41 C52 1.451 . S
C42 C41 1.395 1_655 S
C42 C43 1.322 . S
C42 H106 0.930 . S
C43 C42 1.322 . S
C43 C44 1.459 1_655 S
C43 H107 0.929 . S
C44 C43 1.459 1_455 S
C44 C45 1.445 1_455 S
C44 C53 1.395 . S
C45 C23 1.432 . S
C45 C44 1.445 1_655 S
C45 C46 1.370 1_655 S
C46 C45 1.370 1_455 S
C46 C47 1.438 . S
C46 H108 0.930 . S
C47 C33 1.497 . S
C47 C46 1.438 . S
C47 C48 1.360 . S
C48 C47 1.360 . S
C48 C49 1.401 . S
C48 C53 1.446 . S
C49 C48 1.401 . S
C49 C50 1.347 . S
C49 H109 0.929 . S
C50 C49 1.347 . S
C50 C51 1.455 . S
C50 H110 0.930 . S
C51 C38 1.412 . S
C51 C50 1.455 . S
C51 C52 1.331 . S
C52 C41 1.451 . S
C52 C51 1.331 . S
C52 C53 1.497 . S
C53 C44 1.395 . S
C53 C48 1.446 . S
C53 C52 1.497 . S
C54 C55 1.582 . S
C54 H111 0.962 . S
C54 H112 0.959 . S
C54 H113 0.958 . S
C55 C54 1.582 . S
C55 O58 1.458 . S
C55 H84 0.980 . S
O56 C1 1.426 . S
O56 C2 1.334 . S
O57 C29 1.412 . S
O57 C30 1.393 . S
O58 C20 1.435 . S
O58 C55 1.458 . S
O59 C11 1.468 . S
O59 C12 1.408 . S
H60 C1 0.980 . S
H61 C0 0.959 . S
H62 C0 0.959 . S
H63 C0 0.960 . S
H64 C3 0.929 . S
H65 C7 0.929 . S
H66 C8 0.959 . S
H67 C8 0.961 . S
H68 C8 0.961 . S
H69 C9 0.960 . S
H70 C9 0.960 . S
H71 C9 0.961 . S
H72 C11 0.980 . S
H73 C10 0.961 . S
H74 C10 0.960 . S
H75 C10 0.959 . S
H76 C13 0.930 . S
H77 C17 0.931 . S
H78 C18 0.959 . S
H79 C18 0.961 . S
H80 C18 0.959 . S
H81 C19 0.960 . S
H82 C19 0.960 . S
H83 C19 0.960 . S
H84 C55 0.980 . S
H85 C21 0.930 . S
H86 C25 0.930 . S
H87 C26 0.961 . S
H88 C26 0.960 . S
H89 C26 0.958 . S
H90 C27 0.961 . S
H91 C27 0.960 . S
H92 C27 0.960 . S
H93 C29 0.980 . S
H94 C28 0.961 . S
H95 C28 0.961 . S
H96 C28 0.959 . S
H97 C31 0.932 . S
H98 C35 0.929 . S
H99 C36 0.961 . S
H100 C36 0.959 . S
H101 C36 0.959 . S
H102 C37 0.960 . S
H103 C37 0.962 . S
H104 C37 0.961 . S
H105 C39 0.929 . S
H106 C42 0.930 . S
H107 C43 0.929 . S
H108 C46 0.930 . S
H109 C49 0.929 . S
H110 C50 0.930 . S
H111 C54 0.962 . S
H112 C54 0.959 . S
H113 C54 0.958 . S
C114 C115 1.560 . S
C114 H175 0.959 . S
C114 H176 0.959 . S
C114 H177 0.960 . S
C115 C114 1.560 . S
C115 O170 1.426 . S
C115 H174 0.980 . S
C116 C117 1.407 . S
C116 C121 1.418 . S
C116 O170 1.334 . S
C117 C116 1.407 . S
C117 C118 1.360 . S
C117 H178 0.929 . S
C118 C117 1.360 . S
C118 C119 1.401 . S
C118 C122 1.527 . S
C119 C118 1.401 . S
C119 C120 1.405 . S
C119 C152 1.587 . S
C120 C119 1.405 . S
C120 C121 1.332 . S
C120 C123 1.496 . S
C121 C116 1.418 . S
C121 C120 1.332 . S
C121 H179 0.929 . S
C122 C118 1.527 . S
C122 H180 0.959 . S
C122 H181 0.961 . S
C122 H182 0.961 . S
C123 C120 1.496 . S
C123 H183 0.960 . S
C123 H184 0.960 . S
C123 H185 0.961 . S
C124 C125 1.517 . S
C124 H187 0.961 . S
C124 H188 0.960 . S
C124 H189 0.959 . S
C125 C124 1.517 . S
C125 O173 1.468 . S
C125 H186 0.980 . S
C126 C127 1.349 . S
C126 C131 1.367 . S
C126 O173 1.408 . S
C127 C126 1.349 . S
C127 C128 1.407 . S
C127 H190 0.930 . S
C128 C127 1.407 . S
C128 C129 1.449 . S
C128 C132 1.535 . S
C129 C128 1.449 . S
C129 C130 1.384 . S
C129 C154 1.553 . S
C130 C129 1.384 . S
C130 C131 1.364 . S
C130 C133 1.450 . S
C131 C126 1.367 . S
C131 C130 1.364 . S
C131 H191 0.931 . S
C132 C128 1.535 . S
C132 H192 0.959 . S
C132 H193 0.961 . S
C132 H194 0.959 . S
C133 C130 1.450 . S
C133 H195 0.960 . S
C133 H196 0.960 . S
C133 H197 0.960 . S
C134 C135 1.309 . S
C134 C139 1.304 . S
C134 O172 1.435 . S
C135 C134 1.309 . S
C135 C136 1.476 . S
C135 H199 0.930 . S
C136 C135 1.476 . S
C136 C137 1.400 . S
C136 C140 1.567 . S
C137 C136 1.400 . S
C137 C138 1.373 . S
C137 C159 1.432 . S
C138 C137 1.373 . S
C138 C139 1.339 . S
C138 C141 1.530 . S
C139 C134 1.304 . S
C139 C138 1.339 . S
C139 H200 0.930 . S
C140 C136 1.567 . S
C140 H201 0.961 . S
C140 H202 0.960 . S
C140 H203 0.958 . S
C141 C138 1.530 . S
C141 H204 0.961 . S
C141 H205 0.960 . S
C141 H206 0.960 . S
C142 C143 1.530 . S
C142 H208 0.961 . S
C142 H209 0.961 . S
C142 H210 0.959 . S
C143 C142 1.530 . S
C143 O171 1.412 . S
C143 H207 0.980 . S
C144 C145 1.288 . S
C144 C149 1.377 . S
C144 O171 1.393 . S
C145 C144 1.288 . S
C145 C146 1.369 1_565 S
C145 H211 0.932 . S
C146 C145 1.369 1_545 S
C146 C147 1.398 . S
C146 C150 1.527 . S
C147 C146 1.398 . S
C147 C148 1.380 1_545 S
C147 C161 1.497 . S
C148 C147 1.380 1_565 S
C148 C149 1.383 . S
C148 C151 1.585 . S
C149 C144 1.377 . S
C149 C148 1.383 . S
C149 H212 0.929 . S
C150 C146 1.527 . S
C150 H213 0.961 . S
C150 H214 0.959 . S
C150 H215 0.959 . S
C151 C148 1.585 . S
C151 H216 0.971 1_565 S
C151 H217 0.934 1_565 S
C151 H218 0.998 . S
C152 C119 1.587 . S
C152 C153 1.360 1_565 S
C152 C165 1.412 . S
C153 C152 1.360 1_545 S
C153 C154 1.365 . S
C153 H219 0.929 1_545 S
C154 C129 1.553 . S
C154 C153 1.365 . S
C154 C155 1.404 . S
C155 C154 1.404 . S
C155 C156 1.395 . S
C155 C166 1.451 . S
C156 C155 1.395 . S
C156 C157 1.322 . S
C156 H220 0.930 . S
C157 C156 1.322 . S
C157 C158 1.459 . S
C157 H221 0.929 . S
C158 C157 1.459 . S
C158 C159 1.445 . S
C158 C167 1.395 . S
C159 C137 1.432 . S
C159 C158 1.445 . S
C159 C160 1.370 . S
C160 C159 1.370 . S
C160 C161 1.438 . S
C160 H222 0.930 . S
C161 C147 1.497 . S
C161 C160 1.438 . S
C161 C162 1.360 . S
C162 C161 1.360 . S
C162 C163 1.401 1_545 S
C162 C167 1.446 . S
C163 C162 1.401 1_565 S
C163 C164 1.347 . S
C163 H223 0.929 . S
C164 C163 1.347 . S
C164 C165 1.455 . S
C164 H224 0.930 . S
C165 C152 1.412 . S
C165 C164 1.455 . S
C165 C166 1.331 1_565 S
C166 C155 1.451 . S
C166 C165 1.331 1_545 S
C166 C167 1.497 . S
C167 C158 1.395 . S
C167 C162 1.446 . S
C167 C166 1.497 . S
C168 C169 1.582 . S
C168 H225 0.962 . S
C168 H226 0.959 . S
C168 H227 0.958 . S
C169 C168 1.582 . S
C169 O172 1.458 . S
C169 H198 0.980 . S
O170 C115 1.426 . S
O170 C116 1.334 . S
O171 C143 1.412 . S
O171 C144 1.393 . S
O172 C134 1.435 . S
O172 C169 1.458 . S
O173 C125 1.468 . S
O173 C126 1.408 . S
H174 C115 0.980 . S
H175 C114 0.959 . S
H176 C114 0.959 . S
H177 C114 0.960 . S
H178 C117 0.929 . S
H179 C121 0.929 . S
H180 C122 0.959 . S
H181 C122 0.961 . S
H182 C122 0.961 . S
H183 C123 0.960 . S
H184 C123 0.960 . S
H185 C123 0.961 . S
H186 C125 0.980 . S
H187 C124 0.961 . S
H188 C124 0.960 . S
H189 C124 0.959 . S
H190 C127 0.930 . S
H191 C131 0.931 . S
H192 C132 0.959 . S
H193 C132 0.961 . S
H194 C132 0.959 . S
H195 C133 0.960 . S
H196 C133 0.960 . S
H197 C133 0.960 . S
H198 C169 0.980 . S
H199 C135 0.930 . S
H200 C139 0.930 . S
H201 C140 0.961 . S
H202 C140 0.960 . S
H203 C140 0.958 . S
H204 C141 0.961 . S
H205 C141 0.960 . S
H206 C141 0.960 . S
H207 C143 0.980 . S
H208 C142 0.961 . S
H209 C142 0.961 . S
H210 C142 0.959 . S
H211 C145 0.932 . S
H212 C149 0.929 . S
H213 C150 0.961 . S
H214 C150 0.959 . S
H215 C150 0.959 . S
H216 C151 0.971 1_545 S
H217 C151 0.934 1_545 S
H218 C151 0.998 . S
H219 C153 0.929 1_565 S
H220 C156 0.930 . S
H221 C157 0.929 . S
H222 C160 0.930 . S
H223 C163 0.929 . S
H224 C164 0.930 . S
H225 C168 0.962 . S
H226 C168 0.959 . S
H227 C168 0.958 . S
C228 C229 1.560 . S
C228 H289 0.959 . S
C228 H290 0.959 . S
C228 H291 0.960 . S
C229 C228 1.560 . S
C229 O284 1.426 . S
C229 H288 0.980 . S
C230 C231 1.407 . S
C230 C235 1.418 . S
C230 O284 1.334 . S
C231 C230 1.407 . S
C231 C232 1.360 . S
C231 H292 0.929 . S
C232 C231 1.360 . S
C232 C233 1.401 . S
C232 C236 1.527 . S
C233 C232 1.401 . S
C233 C234 1.405 . S
C233 C266 1.587 . S
C234 C233 1.405 . S
C234 C235 1.332 . S
C234 C237 1.496 . S
C235 C230 1.418 . S
C235 C234 1.332 . S
C235 H293 0.929 . S
C236 C232 1.527 . S
C236 H294 0.959 . S
C236 H295 0.961 . S
C236 H296 0.961 . S
C237 C234 1.496 . S
C237 H297 0.960 . S
C237 H298 0.960 . S
C237 H299 0.961 . S
C238 C239 1.517 . S
C238 H301 0.961 . S
C238 H302 0.960 . S
C238 H303 0.959 . S
C239 C238 1.517 . S
C239 O287 1.468 . S
C239 H300 0.980 . S
C240 C241 1.349 . S
C240 C245 1.367 . S
C240 O287 1.408 . S
C241 C240 1.349 . S
C241 C242 1.407 . S
C241 H304 0.930 . S
C242 C241 1.407 . S
C242 C243 1.449 . S
C242 C246 1.535 . S
C243 C242 1.449 . S
C243 C244 1.384 . S
C243 C268 1.553 . S
C244 C243 1.384 . S
C244 C245 1.364 . S
C244 C247 1.450 . S
C245 C240 1.367 . S
C245 C244 1.364 . S
C245 H305 0.931 . S
C246 C242 1.535 . S
C246 H306 0.959 . S
C246 H307 0.961 . S
C246 H308 0.959 . S
C247 C244 1.450 . S
C247 H309 0.960 . S
C247 H310 0.960 . S
C247 H311 0.960 . S
C248 C249 1.309 . S
C248 C253 1.304 . S
C248 O286 1.435 . S
C249 C248 1.309 . S
C249 C250 1.476 . S
C249 H313 0.930 . S
C250 C249 1.476 . S
C250 C251 1.400 . S
C250 C254 1.567 . S
C251 C250 1.400 . S
C251 C252 1.373 . S
C251 C273 1.432 . S
C252 C251 1.373 . S
C252 C253 1.339 . S
C252 C255 1.530 . S
C253 C248 1.304 . S
C253 C252 1.339 . S
C253 H314 0.930 . S
C254 C250 1.567 . S
C254 H315 0.961 . S
C254 H316 0.960 . S
C254 H317 0.958 . S
C255 C252 1.530 . S
C255 H318 0.961 . S
C255 H319 0.960 . S
C255 H320 0.960 . S
C256 C257 1.530 . S
C256 H322 0.961 . S
C256 H323 0.961 . S
C256 H324 0.959 . S
C257 C256 1.530 . S
C257 O285 1.412 . S
C257 H321 0.980 . S
C258 C259 1.288 . S
C258 C263 1.377 . S
C258 O285 1.393 . S
C259 C258 1.288 . S
C259 C260 1.369 . S
C259 H325 0.932 . S
C260 C259 1.369 . S
C260 C261 1.398 . S
C260 C264 1.527 . S
C261 C260 1.398 . S
C261 C262 1.380 . S
C261 C275 1.497 . S
C262 C261 1.380 . S
C262 C263 1.383 . S
C262 C265 1.603 . S
C263 C258 1.377 . S
C263 C262 1.383 . S
C263 H326 0.929 . S
C264 C260 1.527 . S
C264 H327 0.961 . S
C264 H328 0.959 . S
C264 H329 0.959 . S
C265 C262 1.603 . S
C265 H330 0.960 . S
C265 H331 0.962 . S
C265 H332 0.961 . S
C266 C233 1.587 . S
C266 C267 1.360 . S
C266 C279 1.412 . S
C267 C266 1.360 . S
C267 C268 1.365 . S
C267 H333 0.929 . S
C268 C243 1.553 . S
C268 C267 1.365 . S
C268 C269 1.404 . S
C269 C268 1.404 . S
C269 C270 1.395 . S
C269 C280 1.451 . S
C270 C269 1.395 . S
C270 C271 1.322 . S
C270 H334 0.930 . S
C271 C270 1.322 . S
C271 C272 1.459 . S
C271 H335 0.929 . S
C272 C271 1.459 . S
C272 C273 1.445 . S
C272 C281 1.395 . S
C273 C251 1.432 . S
C273 C272 1.445 . S
C273 C274 1.370 . S
C274 C273 1.370 . S
C274 C275 1.438 . S
C274 H336 0.930 . S
C275 C261 1.497 . S
C275 C274 1.438 . S
C275 C276 1.360 . S
C276 C275 1.360 . S
C276 C277 1.401 . S
C276 C281 1.446 . S
C277 C276 1.401 . S
C277 C278 1.347 . S
C277 H337 0.929 . S
C278 C277 1.347 . S
C278 C279 1.455 . S
C278 H338 0.930 . S
C279 C266 1.412 . S
C279 C278 1.455 . S
C279 C280 1.331 . S
C280 C269 1.451 . S
C280 C279 1.331 . S
C280 C281 1.497 . S
C281 C272 1.395 . S
C281 C276 1.446 . S
C281 C280 1.497 . S
C282 C283 1.582 . S
C282 H339 0.962 . S
C282 H340 0.959 . S
C282 H341 0.958 . S
C283 C282 1.582 . S
C283 O286 1.458 . S
C283 H312 0.980 . S
O284 C229 1.426 . S
O284 C230 1.334 . S
O285 C257 1.412 . S
O285 C258 1.393 . S
O286 C248 1.435 . S
O286 C283 1.458 . S
O287 C239 1.468 . S
O287 C240 1.408 . S
H288 C229 0.980 . S
H289 C228 0.959 . S
H290 C228 0.959 . S
H291 C228 0.960 . S
H292 C231 0.929 . S
H293 C235 0.929 . S
H294 C236 0.959 . S
H295 C236 0.961 . S
H296 C236 0.961 . S
H297 C237 0.960 . S
H298 C237 0.960 . S
H299 C237 0.961 . S
H300 C239 0.980 . S
H301 C238 0.961 . S
H302 C238 0.960 . S
H303 C238 0.959 . S
H304 C241 0.930 . S
H305 C245 0.931 . S
H306 C246 0.959 . S
H307 C246 0.961 . S
H308 C246 0.959 . S
H309 C247 0.960 . S
H310 C247 0.960 . S
H311 C247 0.960 . S
H312 C283 0.980 . S
H313 C249 0.930 . S
H314 C253 0.930 . S
H315 C254 0.961 . S
H316 C254 0.960 . S
H317 C254 0.958 . S
H318 C255 0.961 . S
H319 C255 0.960 . S
H320 C255 0.960 . S
H321 C257 0.980 . S
H322 C256 0.961 . S
H323 C256 0.961 . S
H324 C256 0.959 . S
H325 C259 0.932 . S
H326 C263 0.929 . S
H327 C264 0.961 . S
H328 C264 0.959 . S
H329 C264 0.959 . S
H330 C265 0.960 . S
H331 C265 0.962 . S
H332 C265 0.961 . S
H333 C267 0.929 . S
H334 C270 0.930 . S
H335 C271 0.929 . S
H336 C274 0.930 . S
H337 C277 0.929 . S
H338 C278 0.930 . S
H339 C282 0.962 . S
H340 C282 0.959 . S
H341 C282 0.958 . S
C342 C343 1.560 . S
C342 H403 0.959 . S
C342 H404 0.959 . S
C342 H405 0.960 . S
C343 C342 1.560 . S
C343 O398 1.426 . S
C343 H402 0.980 . S
C344 C345 1.407 . S
C344 C349 1.418 . S
C344 O398 1.334 . S
C345 C344 1.407 . S
C345 C346 1.360 . S
C345 H406 0.929 . S
C346 C345 1.360 . S
C346 C347 1.401 . S
C346 C350 1.527 . S
C347 C346 1.401 . S
C347 C348 1.405 . S
C347 C380 1.587 . S
C348 C347 1.405 . S
C348 C349 1.332 . S
C348 C351 1.496 . S
C349 C344 1.418 . S
C349 C348 1.332 . S
C349 H407 0.929 . S
C350 C346 1.527 . S
C350 H408 0.959 . S
C350 H409 0.961 . S
C350 H410 0.961 . S
C351 C348 1.496 . S
C351 H411 0.960 . S
C351 H412 0.960 . S
C351 H413 0.961 . S
C352 C353 1.517 . S
C352 H415 0.961 . S
C352 H416 0.960 . S
C352 H417 0.959 . S
C353 C352 1.517 . S
C353 O401 1.468 . S
C353 H414 0.980 . S
C354 C355 1.349 . S
C354 C359 1.367 . S
C354 O401 1.408 . S
C355 C354 1.349 . S
C355 C356 1.407 1_655 S
C355 H418 0.930 . S
C356 C355 1.407 1_455 S
C356 C357 1.449 . S
C356 C360 1.535 . S
C357 C356 1.449 . S
C357 C358 1.384 . S
C357 C382 1.553 . S
C358 C357 1.384 . S
C358 C359 1.364 1_455 S
C358 C361 1.450 . S
C359 C354 1.367 . S
C359 C358 1.364 1_655 S
C359 H419 0.931 . S
C360 C356 1.535 . S
C360 H420 0.959 . S
C360 H421 0.961 . S
C360 H422 0.959 . S
C361 C358 1.450 . S
C361 H423 0.960 . S
C361 H424 0.960 . S
C361 H425 0.960 . S
C362 C363 1.309 . S
C362 C367 1.304 . S
C362 O400 1.435 . S
C363 C362 1.309 . S
C363 C364 1.476 . S
C363 H427 0.930 . S
C364 C363 1.476 . S
C364 C365 1.400 . S
C364 C368 1.567 . S
C365 C364 1.400 . S
C365 C366 1.373 . S
C365 C387 1.432 . S
C366 C365 1.373 . S
C366 C367 1.339 . S
C366 C369 1.530 . S
C367 C362 1.304 . S
C367 C366 1.339 . S
C367 H428 0.930 . S
C368 C364 1.567 . S
C368 H429 0.961 . S
C368 H430 0.960 . S
C368 H431 0.958 . S
C369 C366 1.530 . S
C369 H432 0.961 . S
C369 H433 0.960 . S
C369 H434 0.960 . S
C370 C371 1.530 . S
C370 H436 0.961 . S
C370 H437 0.961 . S
C370 H438 0.959 . S
C371 C370 1.530 . S
C371 O399 1.412 . S
C371 H435 0.980 . S
C372 C373 1.288 . S
C372 C377 1.377 . S
C372 O399 1.393 . S
C373 C372 1.288 . S
C373 C374 1.369 . S
C373 H439 0.932 . S
C374 C373 1.369 . S
C374 C375 1.398 . S
C374 C378 1.527 . S
C375 C374 1.398 . S
C375 C376 1.380 . S
C375 C389 1.497 . S
C376 C375 1.380 . S
C376 C377 1.383 . S
C376 C379 1.603 . S
C377 C372 1.377 . S
C377 C376 1.383 . S
C377 H440 0.929 . S
C378 C374 1.527 . S
C378 H441 0.961 . S
C378 H442 0.959 . S
C378 H443 0.959 . S
C379 C376 1.603 . S
C379 H444 0.960 . S
C379 H445 0.962 . S
C379 H446 0.961 . S
C380 C347 1.587 . S
C380 C381 1.360 . S
C380 C393 1.412 . S
C381 C380 1.360 . S
C381 C382 1.365 . S
C381 H447 0.929 . S
C382 C357 1.553 . S
C382 C381 1.365 . S
C382 C383 1.404 . S
C383 C382 1.404 . S
C383 C384 1.395 1_455 S
C383 C394 1.451 . S
C384 C383 1.395 1_655 S
C384 C385 1.322 . S
C384 H448 0.930 . S
C385 C384 1.322 . S
C385 C386 1.459 1_655 S
C385 H449 0.929 . S
C386 C385 1.459 1_455 S
C386 C387 1.445 1_455 S
C386 C395 1.395 . S
C387 C365 1.432 . S
C387 C386 1.445 1_655 S
C387 C388 1.370 1_655 S
C388 C387 1.370 1_455 S
C388 C389 1.438 . S
C388 H450 0.930 . S
C389 C375 1.497 . S
C389 C388 1.438 . S
C389 C390 1.360 . S
C390 C389 1.360 . S
C390 C391 1.401 . S
C390 C395 1.446 . S
C391 C390 1.401 . S
C391 C392 1.347 . S
C391 H451 0.929 . S
C392 C391 1.347 . S
C392 C393 1.455 . S
C392 H452 0.930 . S
C393 C380 1.412 . S
C393 C392 1.455 . S
C393 C394 1.331 . S
C394 C383 1.451 . S
C394 C393 1.331 . S
C394 C395 1.497 . S
C395 C386 1.395 . S
C395 C390 1.446 . S
C395 C394 1.497 . S
C396 C397 1.582 . S
C396 H453 0.962 . S
C396 H454 0.959 . S
C396 H455 0.958 . S
C397 C396 1.582 . S
C397 O400 1.458 . S
C397 H426 0.980 . S
O398 C343 1.426 . S
O398 C344 1.334 . S
O399 C371 1.412 . S
O399 C372 1.393 . S
O400 C362 1.435 . S
O400 C397 1.458 . S
O401 C353 1.468 . S
O401 C354 1.408 . S
H402 C343 0.980 . S
H403 C342 0.959 . S
H404 C342 0.959 . S
H405 C342 0.960 . S
H406 C345 0.929 . S
H407 C349 0.929 . S
H408 C350 0.959 . S
H409 C350 0.961 . S
H410 C350 0.961 . S
H411 C351 0.960 . S
H412 C351 0.960 . S
H413 C351 0.961 . S
H414 C353 0.980 . S
H415 C352 0.961 . S
H416 C352 0.960 . S
H417 C352 0.959 . S
H418 C355 0.930 . S
H419 C359 0.931 . S
H420 C360 0.959 . S
H421 C360 0.961 . S
H422 C360 0.959 . S
H423 C361 0.960 . S
H424 C361 0.960 . S
H425 C361 0.960 . S
H426 C397 0.980 . S
H427 C363 0.930 . S
H428 C367 0.930 . S
H429 C368 0.961 . S
H430 C368 0.960 . S
H431 C368 0.958 . S
H432 C369 0.961 . S
H433 C369 0.960 . S
H434 C369 0.960 . S
H435 C371 0.980 . S
H436 C370 0.961 . S
H437 C370 0.961 . S
H438 C370 0.959 . S
H439 C373 0.932 . S
H440 C377 0.929 . S
H441 C378 0.961 . S
H442 C378 0.959 . S
H443 C378 0.959 . S
H444 C379 0.960 . S
H445 C379 0.962 . S
H446 C379 0.961 . S
H447 C381 0.929 . S
H448 C384 0.930 . S
H449 C385 0.929 . S
H450 C388 0.930 . S
H451 C391 0.929 . S
H452 C392 0.930 . S
H453 C396 0.962 . S
H454 C396 0.959 . S
H455 C396 0.958 . S
C456 C457 1.560 . S
C456 H517 0.959 . S
C456 H518 0.959 . S
C456 H519 0.960 . S
C457 C456 1.560 . S
C457 O512 1.426 . S
C457 H516 0.980 . S
C458 C459 1.407 . S
C458 C463 1.418 . S
C458 O512 1.334 . S
C459 C458 1.407 . S
C459 C460 1.360 . S
C459 H520 0.929 . S
C460 C459 1.360 . S
C460 C461 1.401 . S
C460 C464 1.527 . S
C461 C460 1.401 . S
C461 C462 1.405 . S
C461 C494 1.587 . S
C462 C461 1.405 . S
C462 C463 1.332 . S
C462 C465 1.496 . S
C463 C458 1.418 . S
C463 C462 1.332 . S
C463 H521 0.929 . S
C464 C460 1.527 . S
C464 H522 0.959 . S
C464 H523 0.961 . S
C464 H524 0.961 . S
C465 C462 1.496 . S
C465 H525 0.960 . S
C465 H526 0.960 . S
C465 H527 0.961 . S
C466 C467 1.517 . S
C466 H529 0.961 . S
C466 H530 0.960 . S
C466 H531 0.959 . S
C467 C466 1.517 . S
C467 O515 1.468 . S
C467 H528 0.980 . S
C468 C469 1.349 . S
C468 C473 1.367 . S
C468 O515 1.408 . S
C469 C468 1.349 . S
C469 C470 1.407 . S
C469 H532 0.930 . S
C470 C469 1.407 . S
C470 C471 1.449 . S
C470 C474 1.535 . S
C471 C470 1.449 . S
C471 C472 1.384 . S
C471 C496 1.553 . S
C472 C471 1.384 . S
C472 C473 1.364 . S
C472 C475 1.450 . S
C473 C468 1.367 . S
C473 C472 1.364 . S
C473 H533 0.931 . S
C474 C470 1.535 . S
C474 H534 0.959 . S
C474 H535 0.961 . S
C474 H536 0.959 . S
C475 C472 1.450 . S
C475 H537 0.960 . S
C475 H538 0.960 . S
C475 H539 0.960 . S
C476 C477 1.309 . S
C476 C481 1.304 . S
C476 O514 1.435 . S
C477 C476 1.309 . S
C477 C478 1.476 . S
C477 H541 0.930 . S
C478 C477 1.476 . S
C478 C479 1.400 . S
C478 C482 1.567 . S
C479 C478 1.400 . S
C479 C480 1.373 . S
C479 C501 1.432 . S
C480 C479 1.373 . S
C480 C481 1.339 . S
C480 C483 1.530 . S
C481 C476 1.304 . S
C481 C480 1.339 . S
C481 H542 0.930 . S
C482 C478 1.567 . S
C482 H543 0.961 . S
C482 H544 0.960 . S
C482 H545 0.958 . S
C483 C480 1.530 . S
C483 H546 0.961 . S
C483 H547 0.960 . S
C483 H548 0.960 . S
C484 C485 1.530 . S
C484 H550 0.961 . S
C484 H551 0.961 . S
C484 H552 0.959 . S
C485 C484 1.530 . S
C485 O513 1.412 . S
C485 H549 0.980 . S
C486 C487 1.288 . S
C486 C491 1.377 . S
C486 O513 1.393 . S
C487 C486 1.288 . S
C487 C488 1.369 1_565 S
C487 H553 0.932 . S
C488 C487 1.369 1_545 S
C488 C489 1.398 . S
C488 C492 1.527 . S
C489 C488 1.398 . S
C489 C490 1.380 1_545 S
C489 C503 1.497 . S
C490 C489 1.380 1_565 S
C490 C491 1.383 . S
C490 C493 1.621 . S
C491 C486 1.377 . S
C491 C490 1.383 . S
C491 H554 0.929 . S
C492 C488 1.527 . S
C492 H555 0.961 . S
C492 H556 0.959 . S
C492 H557 0.959 . S
C493 C490 1.621 . S
C493 H558 0.947 1_565 S
C493 H559 0.937 1_565 S
C493 H560 0.980 . S
C494 C461 1.587 . S
C494 C495 1.360 1_565 S
C494 C507 1.412 . S
C495 C494 1.360 1_545 S
C495 C496 1.365 . S
C495 H561 0.929 1_545 S
C496 C471 1.553 . S
C496 C495 1.365 . S
C496 C497 1.404 . S
C497 C496 1.404 . S
C497 C498 1.395 . S
C497 C508 1.451 . S
C498 C497 1.395 . S
C498 C499 1.322 . S
C498 H562 0.930 . S
C499 C498 1.322 . S
C499 C500 1.459 . S
C499 H563 0.929 . S
C500 C499 1.459 . S
C500 C501 1.445 1_556 S
C500 C509 1.395 . S
C501 C479 1.432 . S
C501 C500 1.445 1_554 S
C501 C502 1.370 . S
C502 C501 1.370 . S
C502 C503 1.438 . S
C502 H564 0.930 . S
C503 C489 1.497 . S
C503 C502 1.438 . S
C503 C504 1.360 . S
C504 C503 1.360 . S
C504 C505 1.401 1_545 S
C504 C509 1.446 1_554 S
C505 C504 1.401 1_565 S
C505 C506 1.347 1_554 S
C505 H565 0.929 . S
C506 C505 1.347 1_556 S
C506 C507 1.455 . S
C506 H566 0.930 . S
C507 C494 1.412 . S
C507 C506 1.455 . S
C507 C508 1.331 1_565 S
C508 C497 1.451 . S
C508 C507 1.331 1_545 S
C508 C509 1.497 . S
C509 C500 1.395 . S
C509 C504 1.446 1_556 S
C509 C508 1.497 . S
C510 C511 1.582 . S
C510 H567 0.962 . S
C510 H568 0.959 . S
C510 H569 0.958 . S
C511 C510 1.582 . S
C511 O514 1.458 . S
C511 H540 0.980 . S
O512 C457 1.426 . S
O512 C458 1.334 . S
O513 C485 1.412 . S
O513 C486 1.393 . S
O514 C476 1.435 . S
O514 C511 1.458 . S
O515 C467 1.468 . S
O515 C468 1.408 . S
H516 C457 0.980 . S
H517 C456 0.959 . S
H518 C456 0.959 . S
H519 C456 0.960 . S
H520 C459 0.929 . S
H521 C463 0.929 . S
H522 C464 0.959 . S
H523 C464 0.961 . S
H524 C464 0.961 . S
H525 C465 0.960 . S
H526 C465 0.960 . S
H527 C465 0.961 . S
H528 C467 0.980 . S
H529 C466 0.961 . S
H530 C466 0.960 . S
H531 C466 0.959 . S
H532 C469 0.930 . S
H533 C473 0.931 . S
H534 C474 0.959 . S
H535 C474 0.961 . S
H536 C474 0.959 . S
H537 C475 0.960 . S
H538 C475 0.960 . S
H539 C475 0.960 . S
H540 C511 0.980 . S
H541 C477 0.930 . S
H542 C481 0.930 . S
H543 C482 0.961 . S
H544 C482 0.960 . S
H545 C482 0.958 . S
H546 C483 0.961 . S
H547 C483 0.960 . S
H548 C483 0.960 . S
H549 C485 0.980 . S
H550 C484 0.961 . S
H551 C484 0.961 . S
H552 C484 0.959 . S
H553 C487 0.932 . S
H554 C491 0.929 . S
H555 C492 0.961 . S
H556 C492 0.959 . S
H557 C492 0.959 . S
H558 C493 0.947 1_545 S
H559 C493 0.937 1_545 S
H560 C493 0.980 . S
H561 C495 0.929 1_565 S
H562 C498 0.930 . S
H563 C499 0.929 . S
H564 C502 0.930 . S
H565 C505 0.929 . S
H566 C506 0.930 . S
H567 C510 0.962 . S
H568 C510 0.959 . S
H569 C510 0.958 . S
C570 C571 1.560 . S
C570 H631 0.959 . S
C570 H632 0.959 . S
C570 H633 0.960 . S
C571 C570 1.560 . S
C571 O626 1.426 . S
C571 H630 0.980 . S
C572 C573 1.407 . S
C572 C577 1.418 . S
C572 O626 1.334 . S
C573 C572 1.407 . S
C573 C574 1.360 . S
C573 H634 0.929 . S
C574 C573 1.360 . S
C574 C575 1.401 . S
C574 C578 1.527 . S
C575 C574 1.401 . S
C575 C576 1.405 . S
C575 C608 1.587 . S
C576 C575 1.405 . S
C576 C577 1.332 . S
C576 C579 1.496 . S
C577 C572 1.418 . S
C577 C576 1.332 . S
C577 H635 0.929 . S
C578 C574 1.527 . S
C578 H636 0.959 . S
C578 H637 0.961 . S
C578 H638 0.961 . S
C579 C576 1.496 . S
C579 H639 0.960 . S
C579 H640 0.960 . S
C579 H641 0.961 . S
C580 C581 1.517 . S
C580 H643 0.961 . S
C580 H644 0.960 . S
C580 H645 0.959 . S
C581 C580 1.517 . S
C581 O629 1.468 . S
C581 H642 0.980 . S
C582 C583 1.349 . S
C582 C587 1.367 . S
C582 O629 1.408 . S
C583 C582 1.349 . S
C583 C584 1.407 . S
C583 H646 0.930 . S
C584 C583 1.407 . S
C584 C585 1.449 . S
C584 C588 1.535 . S
C585 C584 1.449 . S
C585 C586 1.384 . S
C585 C610 1.553 . S
C586 C585 1.384 . S
C586 C587 1.364 . S
C586 C589 1.450 . S
C587 C582 1.367 . S
C587 C586 1.364 . S
C587 H647 0.931 . S
C588 C584 1.535 . S
C588 H648 0.959 . S
C588 H649 0.961 . S
C588 H650 0.959 . S
C589 C586 1.450 . S
C589 H651 0.960 . S
C589 H652 0.960 . S
C589 H653 0.960 . S
C590 C591 1.309 . S
C590 C595 1.304 . S
C590 O628 1.435 . S
C591 C590 1.309 . S
C591 C592 1.476 . S
C591 H655 0.930 . S
C592 C591 1.476 . S
C592 C593 1.400 . S
C592 C596 1.567 . S
C593 C592 1.400 . S
C593 C594 1.373 . S
C593 C615 1.432 . S
C594 C593 1.373 . S
C594 C595 1.339 . S
C594 C597 1.530 . S
C595 C590 1.304 . S
C595 C594 1.339 . S
C595 H656 0.930 . S
C596 C592 1.567 . S
C596 H657 0.961 . S
C596 H658 0.960 . S
C596 H659 0.958 . S
C597 C594 1.530 . S
C597 H660 0.961 . S
C597 H661 0.960 . S
C597 H662 0.960 . S
C598 C599 1.530 . S
C598 H664 0.961 . S
C598 H665 0.961 . S
C598 H666 0.959 . S
C599 C598 1.530 . S
C599 O627 1.412 . S
C599 H663 0.980 . S
C600 C601 1.288 . S
C600 C605 1.377 . S
C600 O627 1.393 . S
C601 C600 1.288 . S
C601 C602 1.369 . S
C601 H667 0.932 . S
C602 C601 1.369 . S
C602 C603 1.398 . S
C602 C606 1.527 . S
C603 C602 1.398 . S
C603 C604 1.380 . S
C603 C617 1.497 . S
C604 C603 1.380 . S
C604 C605 1.383 . S
C604 C607 1.603 . S
C605 C600 1.377 . S
C605 C604 1.383 . S
C605 H668 0.929 . S
C606 C602 1.527 . S
C606 H669 0.961 . S
C606 H670 0.959 . S
C606 H671 0.959 . S
C607 C604 1.603 . S
C607 H672 0.960 . S
C607 H673 0.962 . S
C607 H674 0.961 . S
C608 C575 1.587 . S
C608 C609 1.360 . S
C608 C621 1.412 . S
C609 C608 1.360 . S
C609 C610 1.365 . S
C609 H675 0.929 . S
C610 C585 1.553 . S
C610 C609 1.365 . S
C610 C611 1.404 . S
C611 C610 1.404 . S
C611 C612 1.395 . S
C611 C622 1.451 . S
C612 C611 1.395 . S
C612 C613 1.322 . S
C612 H676 0.930 . S
C613 C612 1.322 . S
C613 C614 1.459 . S
C613 H677 0.929 . S
C614 C613 1.459 . S
C614 C615 1.445 . S
C614 C623 1.395 . S
C615 C593 1.432 . S
C615 C614 1.445 . S
C615 C616 1.370 . S
C616 C615 1.370 . S
C616 C617 1.438 . S
C616 H678 0.930 . S
C617 C603 1.497 . S
C617 C616 1.438 . S
C617 C618 1.360 . S
C618 C617 1.360 . S
C618 C619 1.401 . S
C618 C623 1.446 . S
C619 C618 1.401 . S
C619 C620 1.347 . S
C619 H679 0.929 . S
C620 C619 1.347 . S
C620 C621 1.455 . S
C620 H680 0.930 . S
C621 C608 1.412 . S
C621 C620 1.455 . S
C621 C622 1.331 . S
C622 C611 1.451 . S
C622 C621 1.331 . S
C622 C623 1.497 . S
C623 C614 1.395 . S
C623 C618 1.446 . S
C623 C622 1.497 . S
C624 C625 1.582 . S
C624 H681 0.962 . S
C624 H682 0.959 . S
C624 H683 0.958 . S
C625 C624 1.582 . S
C625 O628 1.458 . S
C625 H654 0.980 . S
O626 C571 1.426 . S
O626 C572 1.334 . S
O627 C599 1.412 . S
O627 C600 1.393 . S
O628 C590 1.435 . S
O628 C625 1.458 . S
O629 C581 1.468 . S
O629 C582 1.408 . S
H630 C571 0.980 . S
H631 C570 0.959 . S
H632 C570 0.959 . S
H633 C570 0.960 . S
H634 C573 0.929 . S
H635 C577 0.929 . S
H636 C578 0.959 . S
H637 C578 0.961 . S
H638 C578 0.961 . S
H639 C579 0.960 . S
H640 C579 0.960 . S
H641 C579 0.961 . S
H642 C581 0.980 . S
H643 C580 0.961 . S
H644 C580 0.960 . S
H645 C580 0.959 . S
H646 C583 0.930 . S
H647 C587 0.931 . S
H648 C588 0.959 . S
H649 C588 0.961 . S
H650 C588 0.959 . S
H651 C589 0.960 . S
H652 C589 0.960 . S
H653 C589 0.960 . S
H654 C625 0.980 . S
H655 C591 0.930 . S
H656 C595 0.930 . S
H657 C596 0.961 . S
H658 C596 0.960 . S
H659 C596 0.958 . S
H660 C597 0.961 . S
H661 C597 0.960 . S
H662 C597 0.960 . S
H663 C599 0.980 . S
H664 C598 0.961 . S
H665 C598 0.961 . S
H666 C598 0.959 . S
H667 C601 0.932 . S
H668 C605 0.929 . S
H669 C606 0.961 . S
H670 C606 0.959 . S
H671 C606 0.959 . S
H672 C607 0.960 . S
H673 C607 0.962 . S
H674 C607 0.961 . S
H675 C609 0.929 . S
H676 C612 0.930 . S
H677 C613 0.929 . S
H678 C616 0.930 . S
H679 C619 0.929 . S
H680 C620 0.930 . S
H681 C624 0.962 . S
H682 C624 0.959 . S
H683 C624 0.958 . S
Li684 N701 1.990 . S
Li684 O744 1.956 . S
Li684 O745 1.970 . S
Li684 O746 1.961 . S
Li685 N709 1.990 . S
Li685 O744 1.970 . S
Li685 O745 1.956 . S
Li685 O747 1.961 . S
Li686 N731 1.990 . S
Li686 O744 1.961 . S
Li686 O746 1.956 . S
Li686 O747 1.970 . S
Li687 N737 1.990 . S
Li687 O745 1.961 . S
Li687 O746 1.970 . S
Li687 O747 1.956 . S
C688 C690 1.348 . S
C688 C691 1.356 . S
C688 O744 1.325 . S
N689 C692 1.314 . S
N689 C693 1.279 . S
C690 C688 1.348 . S
C690 C692 1.353 . S
C690 H748 0.929 . S
C691 C688 1.356 . S
C691 C693 1.358 . S
C691 H749 0.930 . S
C692 N689 1.314 . S
C692 C690 1.353 . S
C692 H750 0.930 . S
C693 N689 1.279 . S
C693 C691 1.358 . S
C693 H751 0.930 . S
C694 C697 1.348 . S
C694 C698 1.356 . S
C694 O745 1.325 . S
C695 N696 1.279 . S
C695 C698 1.358 . S
C695 H752 0.930 . S
N696 C695 1.279 . S
N696 C699 1.314 . S
C697 C694 1.348 . S
C697 C699 1.353 . S
C697 H753 0.929 . S
C698 C694 1.356 . S
C698 C695 1.358 . S
C698 H754 0.930 . S
C699 N696 1.314 . S
C699 C697 1.353 . S
C699 H755 0.930 . S
C700 N701 1.314 . S
C700 C705 1.353 . S
C700 H706 0.930 . S
N701 Li684 1.990 . S
N701 C700 1.314 . S
N701 C703 1.279 . S
C702 C703 1.358 . S
C702 C704 1.356 . S
C702 H756 0.930 . S
C703 N701 1.279 . S
C703 C702 1.358 . S
C703 H707 0.930 . S
C704 C702 1.356 . S
C704 C705 1.348 . S
C705 C700 1.353 . S
C705 C704 1.348 . S
C705 H757 0.929 . S
H706 C700 0.930 . S
H707 C703 0.930 . S
C708 N709 1.314 . S
C708 C710 1.353 . S
C708 H714 0.930 . S
N709 Li685 1.990 . S
N709 C708 1.314 . S
N709 C712 1.279 . S
C710 C708 1.353 . S
C710 C713 1.348 . S
C710 H758 0.929 . S
C711 C712 1.358 . S
C711 C713 1.356 . S
C711 H759 0.930 . S
C712 N709 1.279 . S
C712 C711 1.358 . S
C712 H715 0.930 . S
C713 C710 1.348 . S
C713 C711 1.356 . S
H714 C708 0.930 . S
H715 C712 0.930 . S
C716 C718 1.348 . S
C716 C719 1.356 . S
C716 O746 1.325 . S
N717 C720 1.314 . S
N717 C721 1.279 . S
C718 C716 1.348 . S
C718 C720 1.353 . S
C718 H760 0.929 . S
C719 C716 1.356 . S
C719 C721 1.358 . S
C719 H761 0.930 . S
C720 N717 1.314 . S
C720 C718 1.353 . S
C720 H762 0.930 . S
C721 N717 1.279 . S
C721 C719 1.358 . S
C721 H763 0.930 . S
C722 C723 1.348 . S
C722 C724 1.356 . S
C722 O747 1.325 . S
C723 C722 1.348 . S
C723 C725 1.353 . S
C723 H764 0.929 . S
C724 C722 1.356 . S
C724 C726 1.358 . S
C724 H765 0.930 . S
C725 C723 1.353 . S
C725 N727 1.314 . S
C725 H766 0.930 . S
C726 C724 1.358 . S
C726 N727 1.279 . S
C726 H767 0.930 . S
N727 C725 1.314 . S
N727 C726 1.279 . S
C728 C730 1.353 . S
C728 N731 1.314 . S
C728 H734 0.930 . S
C729 N731 1.279 . S
C729 C732 1.358 . S
C729 H735 0.930 . S
C730 C728 1.353 . S
C730 C733 1.348 . S
C730 H768 0.929 . S
N731 Li686 1.990 . S
N731 C728 1.314 . S
N731 C729 1.279 . S
C732 C729 1.358 . S
C732 C733 1.356 . S
C732 H769 0.930 . S
C733 C730 1.348 . S
C733 C732 1.356 . S
H734 C728 0.930 . S
H735 C729 0.930 . S
C736 N737 1.314 . S
C736 C738 1.353 . S
C736 H742 0.930 . S
N737 Li687 1.990 . S
N737 C736 1.314 . S
N737 C740 1.279 . S
C738 C736 1.353 . S
C738 C741 1.348 . S
C738 H770 0.929 . S
C739 C740 1.358 . S
C739 C741 1.356 . S
C739 H771 0.930 . S
C740 N737 1.279 . S
C740 C739 1.358 . S
C740 H743 0.930 . S
C741 C738 1.348 . S
C741 C739 1.356 . S
H742 C736 0.930 . S
H743 C740 0.930 . S
O744 Li684 1.956 . S
O744 Li685 1.970 . S
O744 Li686 1.961 . S
O744 C688 1.325 . S
O745 Li684 1.970 . S
O745 Li685 1.956 . S
O745 Li687 1.961 . S
O745 C694 1.325 . S
O746 Li684 1.961 . S
O746 Li686 1.956 . S
O746 Li687 1.970 . S
O746 C716 1.325 . S
O747 Li685 1.961 . S
O747 Li686 1.970 . S
O747 Li687 1.956 . S
O747 C722 1.325 . S
H748 C690 0.929 . S
H749 C691 0.930 . S
H750 C692 0.930 . S
H751 C693 0.930 . S
H752 C695 0.930 . S
H753 C697 0.929 . S
H754 C698 0.930 . S
H755 C699 0.930 . S
H756 C702 0.930 . S
H757 C705 0.929 . S
H758 C710 0.929 . S
H759 C711 0.930 . S
H760 C718 0.929 . S
H761 C719 0.930 . S
H762 C720 0.930 . S
H763 C721 0.930 . S
H764 C723 0.929 . S
H765 C724 0.930 . S
H766 C725 0.930 . S
H767 C726 0.930 . S
H768 C730 0.929 . S
H769 C732 0.930 . S
H770 C738 0.929 . S
H771 C739 0.930 . S
Li772 N789 1.990 . S
Li772 O832 1.956 . S
Li772 O833 1.970 . S
Li772 O834 1.961 . S
Li773 N797 1.990 . S
Li773 O832 1.970 . S
Li773 O833 1.956 . S
Li773 O835 1.961 . S
Li774 N819 1.990 . S
Li774 O832 1.961 . S
Li774 O834 1.956 . S
Li774 O835 1.970 . S
Li775 N825 1.990 . S
Li775 O833 1.961 . S
Li775 O834 1.970 . S
Li775 O835 1.956 . S
C776 C778 1.348 . S
C776 C779 1.356 . S
C776 O832 1.325 . S
N777 C780 1.314 . S
N777 C781 1.279 . S
C778 C776 1.348 . S
C778 C780 1.353 . S
C778 H836 0.929 . S
C779 C776 1.356 . S
C779 C781 1.358 . S
C779 H837 0.930 . S
C780 N777 1.314 . S
C780 C778 1.353 . S
C780 H838 0.930 . S
C781 N777 1.279 . S
C781 C779 1.358 . S
C781 H839 0.930 . S
C782 C785 1.348 . S
C782 C786 1.356 . S
C782 O833 1.325 . S
C783 N784 1.279 . S
C783 C786 1.358 . S
C783 H840 0.930 . S
N784 C783 1.279 . S
N784 C787 1.314 . S
C785 C782 1.348 . S
C785 C787 1.353 . S
C785 H841 0.929 . S
C786 C782 1.356 . S
C786 C783 1.358 . S
C786 H842 0.930 . S
C787 N784 1.314 . S
C787 C785 1.353 . S
C787 H843 0.930 . S
C788 N789 1.314 . S
C788 C793 1.353 . S
C788 H794 0.930 . S
N789 Li772 1.990 . S
N789 C788 1.314 . S
N789 C791 1.279 . S
C790 C791 1.358 . S
C790 C792 1.356 . S
C790 H844 0.930 . S
C791 N789 1.279 . S
C791 C790 1.358 . S
C791 H795 0.930 . S
C792 C790 1.356 . S
C792 C793 1.348 . S
C793 C788 1.353 . S
C793 C792 1.348 . S
C793 H845 0.929 . S
H794 C788 0.930 . S
H795 C791 0.930 . S
C796 N797 1.314 . S
C796 C798 1.353 . S
C796 H802 0.930 . S
N797 Li773 1.990 . S
N797 C796 1.314 . S
N797 C800 1.279 . S
C798 C796 1.353 . S
C798 C801 1.348 . S
C798 H846 0.929 . S
C799 C800 1.358 . S
C799 C801 1.356 . S
C799 H847 0.930 . S
C800 N797 1.279 . S
C800 C799 1.358 . S
C800 H803 0.930 . S
C801 C798 1.348 . S
C801 C799 1.356 . S
H802 C796 0.930 . S
H803 C800 0.930 . S
C804 C806 1.348 . S
C804 C807 1.356 . S
C804 O834 1.325 . S
N805 C808 1.314 . S
N805 C809 1.279 . S
C806 C804 1.348 . S
C806 C808 1.353 . S
C806 H848 0.929 . S
C807 C804 1.356 . S
C807 C809 1.358 . S
C807 H849 0.930 . S
C808 N805 1.314 . S
C808 C806 1.353 . S
C808 H850 0.930 . S
C809 N805 1.279 . S
C809 C807 1.358 . S
C809 H851 0.930 . S
C810 C811 1.348 . S
C810 C812 1.356 . S
C810 O835 1.325 . S
C811 C810 1.348 . S
C811 C813 1.353 . S
C811 H852 0.929 . S
C812 C810 1.356 . S
C812 C814 1.358 . S
C812 H853 0.930 . S
C813 C811 1.353 . S
C813 N815 1.314 . S
C813 H854 0.930 . S
C814 C812 1.358 . S
C814 N815 1.279 . S
C814 H855 0.930 . S
N815 C813 1.314 . S
N815 C814 1.279 . S
C816 C818 1.353 . S
C816 N819 1.314 . S
C816 H822 0.930 . S
C817 N819 1.279 . S
C817 C820 1.358 . S
C817 H823 0.930 . S
C818 C816 1.353 . S
C818 C821 1.348 . S
C818 H856 0.929 . S
N819 Li774 1.990 . S
N819 C816 1.314 . S
N819 C817 1.279 . S
C820 C817 1.358 . S
C820 C821 1.356 . S
C820 H857 0.930 . S
C821 C818 1.348 . S
C821 C820 1.356 . S
H822 C816 0.930 . S
H823 C817 0.930 . S
C824 N825 1.314 . S
C824 C826 1.353 . S
C824 H830 0.930 . S
N825 Li775 1.990 . S
N825 C824 1.314 . S
N825 C828 1.279 . S
C826 C824 1.353 . S
C826 C829 1.348 . S
C826 H858 0.929 . S
C827 C828 1.358 . S
C827 C829 1.356 . S
C827 H859 0.930 . S
C828 N825 1.279 . S
C828 C827 1.358 . S
C828 H831 0.930 . S
C829 C826 1.348 . S
C829 C827 1.356 . S
H830 C824 0.930 . S
H831 C828 0.930 . S
O832 Li772 1.956 . S
O832 Li773 1.970 . S
O832 Li774 1.961 . S
O832 C776 1.325 . S
O833 Li772 1.970 . S
O833 Li773 1.956 . S
O833 Li775 1.961 . S
O833 C782 1.325 . S
O834 Li772 1.961 . S
O834 Li774 1.956 . S
O834 Li775 1.970 . S
O834 C804 1.325 . S
O835 Li773 1.961 . S
O835 Li774 1.970 . S
O835 Li775 1.956 . S
O835 C810 1.325 . S
H836 C778 0.929 . S
H837 C779 0.930 . S
H838 C780 0.930 . S
H839 C781 0.930 . S
H840 C783 0.930 . S
H841 C785 0.929 . S
H842 C786 0.930 . S
H843 C787 0.930 . S
H844 C790 0.930 . S
H845 C793 0.929 . S
H846 C798 0.929 . S
H847 C799 0.930 . S
H848 C806 0.929 . S
H849 C807 0.930 . S
H850 C808 0.930 . S
H851 C809 0.930 . S
H852 C811 0.929 . S
H853 C812 0.930 . S
H854 C813 0.930 . S
H855 C814 0.930 . S
H856 C818 0.929 . S
H857 C820 0.930 . S
H858 C826 0.929 . S
H859 C827 0.930 . S
Li860 N877 1.990 . S
Li860 O920 1.956 . S
Li860 O921 1.970 . S
Li860 O922 1.961 . S
Li861 N885 1.990 . S
Li861 O920 1.970 . S
Li861 O921 1.956 . S
Li861 O923 1.961 . S
Li862 N907 1.990 . S
Li862 O920 1.961 . S
Li862 O922 1.956 . S
Li862 O923 1.970 . S
Li863 N913 1.990 . S
Li863 O921 1.961 . S
Li863 O922 1.970 . S
Li863 O923 1.956 . S
C864 C866 1.348 . S
C864 C867 1.356 . S
C864 O920 1.325 . S
N865 C868 1.314 . S
N865 C869 1.279 . S
C866 C864 1.348 . S
C866 C868 1.353 . S
C866 H924 0.929 . S
C867 C864 1.356 . S
C867 C869 1.358 . S
C867 H925 0.930 . S
C868 N865 1.314 . S
C868 C866 1.353 . S
C868 H926 0.930 . S
C869 N865 1.279 . S
C869 C867 1.358 . S
C869 H927 0.930 . S
C870 C873 1.348 . S
C870 C874 1.356 . S
C870 O921 1.325 . S
C871 N872 1.279 . S
C871 C874 1.358 . S
C871 H928 0.930 . S
N872 C871 1.279 . S
N872 C875 1.314 . S
C873 C870 1.348 . S
C873 C875 1.353 . S
C873 H929 0.929 . S
C874 C870 1.356 . S
C874 C871 1.358 . S
C874 H930 0.930 . S
C875 N872 1.314 . S
C875 C873 1.353 . S
C875 H931 0.930 . S
C876 N877 1.314 . S
C876 C881 1.353 . S
C876 H882 0.930 . S
N877 Li860 1.990 . S
N877 C876 1.314 . S
N877 C879 1.279 . S
C878 C879 1.358 . S
C878 C880 1.356 . S
C878 H932 0.930 . S
C879 N877 1.279 . S
C879 C878 1.358 . S
C879 H883 0.930 . S
C880 C878 1.356 . S
C880 C881 1.348 . S
C881 C876 1.353 . S
C881 C880 1.348 . S
C881 H933 0.929 . S
H882 C876 0.930 . S
H883 C879 0.930 . S
C884 N885 1.314 . S
C884 C886 1.353 . S
C884 H890 0.930 . S
N885 Li861 1.990 . S
N885 C884 1.314 . S
N885 C888 1.279 . S
C886 C884 1.353 . S
C886 C889 1.348 . S
C886 H934 0.929 . S
C887 C888 1.358 . S
C887 C889 1.356 . S
C887 H935 0.930 . S
C888 N885 1.279 . S
C888 C887 1.358 . S
C888 H891 0.930 . S
C889 C886 1.348 . S
C889 C887 1.356 . S
H890 C884 0.930 . S
H891 C888 0.930 . S
C892 C894 1.348 . S
C892 C895 1.356 . S
C892 O922 1.325 . S
N893 C896 1.314 . S
N893 C897 1.279 . S
C894 C892 1.348 . S
C894 C896 1.353 . S
C894 H936 0.929 . S
C895 C892 1.356 . S
C895 C897 1.358 . S
C895 H937 0.930 . S
C896 N893 1.314 . S
C896 C894 1.353 . S
C896 H938 0.930 . S
C897 N893 1.279 . S
C897 C895 1.358 . S
C897 H939 0.930 . S
C898 C899 1.348 . S
C898 C900 1.356 . S
C898 O923 1.325 . S
C899 C898 1.348 . S
C899 C901 1.353 . S
C899 H940 0.929 . S
C900 C898 1.356 . S
C900 C902 1.358 . S
C900 H941 0.930 . S
C901 C899 1.353 . S
C901 N903 1.314 . S
C901 H942 0.930 . S
C902 C900 1.358 . S
C902 N903 1.279 . S
C902 H943 0.930 . S
N903 C901 1.314 . S
N903 C902 1.279 . S
C904 C906 1.353 . S
C904 N907 1.314 . S
C904 H910 0.930 . S
C905 N907 1.279 . S
C905 C908 1.358 . S
C905 H911 0.930 . S
C906 C904 1.353 . S
C906 C909 1.348 . S
C906 H944 0.929 . S
N907 Li862 1.990 . S
N907 C904 1.314 . S
N907 C905 1.279 . S
C908 C905 1.358 . S
C908 C909 1.356 . S
C908 H945 0.930 . S
C909 C906 1.348 . S
C909 C908 1.356 . S
H910 C904 0.930 . S
H911 C905 0.930 . S
C912 N913 1.314 . S
C912 C914 1.353 . S
C912 H918 0.930 . S
N913 Li863 1.990 . S
N913 C912 1.314 . S
N913 C916 1.279 . S
C914 C912 1.353 . S
C914 C917 1.348 . S
C914 H946 0.929 . S
C915 C916 1.358 . S
C915 C917 1.356 . S
C915 H947 0.930 . S
C916 N913 1.279 . S
C916 C915 1.358 . S
C916 H919 0.930 . S
C917 C914 1.348 . S
C917 C915 1.356 . S
H918 C912 0.930 . S
H919 C916 0.930 . S
O920 Li860 1.956 . S
O920 Li861 1.970 . S
O920 Li862 1.961 . S
O920 C864 1.325 . S
O921 Li860 1.970 . S
O921 Li861 1.956 . S
O921 Li863 1.961 . S
O921 C870 1.325 . S
O922 Li860 1.961 . S
O922 Li862 1.956 . S
O922 Li863 1.970 . S
O922 C892 1.325 . S
O923 Li861 1.961 . S
O923 Li862 1.970 . S
O923 Li863 1.956 . S
O923 C898 1.325 . S
H924 C866 0.929 . S
H925 C867 0.930 . S
H926 C868 0.930 . S
H927 C869 0.930 . S
H928 C871 0.930 . S
H929 C873 0.929 . S
H930 C874 0.930 . S
H931 C875 0.930 . S
H932 C878 0.930 . S
H933 C881 0.929 . S
H934 C886 0.929 . S
H935 C887 0.930 . S
H936 C894 0.929 . S
H937 C895 0.930 . S
H938 C896 0.930 . S
H939 C897 0.930 . S
H940 C899 0.929 . S
H941 C900 0.930 . S
H942 C901 0.930 . S
H943 C902 0.930 . S
H944 C906 0.929 . S
H945 C908 0.930 . S
H946 C914 0.929 . S
H947 C915 0.930 . S
Li948 N965 1.990 . S
Li948 O1008 1.956 . S
Li948 O1009 1.970 . S
Li948 O1010 1.961 . S
Li949 N973 1.990 . S
Li949 O1008 1.970 . S
Li949 O1009 1.956 . S
Li949 O1011 1.961 . S
Li950 N995 1.990 . S
Li950 O1008 1.961 . S
Li950 O1010 1.956 . S
Li950 O1011 1.970 . S
Li951 N1001 1.990 . S
Li951 O1009 1.961 . S
Li951 O1010 1.970 . S
Li951 O1011 1.956 . S
C952 C954 1.348 . S
C952 C955 1.356 . S
C952 O1008 1.325 . S
N953 C956 1.314 . S
N953 C957 1.279 . S
C954 C952 1.348 . S
C954 C956 1.353 . S
C954 H1012 0.929 . S
C955 C952 1.356 . S
C955 C957 1.358 . S
C955 H1013 0.930 . S
C956 N953 1.314 . S
C956 C954 1.353 . S
C956 H1014 0.930 . S
C957 N953 1.279 . S
C957 C955 1.358 . S
C957 H1015 0.930 . S
C958 C961 1.348 . S
C958 C962 1.356 . S
C958 O1009 1.325 . S
C959 N960 1.279 . S
C959 C962 1.358 . S
C959 H1016 0.930 . S
N960 C959 1.279 . S
N960 C963 1.314 . S
C961 C958 1.348 . S
C961 C963 1.353 . S
C961 H1017 0.929 . S
C962 C958 1.356 . S
C962 C959 1.358 . S
C962 H1018 0.930 . S
C963 N960 1.314 . S
C963 C961 1.353 . S
C963 H1019 0.930 . S
C964 N965 1.314 . S
C964 C969 1.353 . S
C964 H970 0.930 . S
N965 Li948 1.990 . S
N965 C964 1.314 . S
N965 C967 1.279 . S
C966 C967 1.358 . S
C966 C968 1.356 . S
C966 H1020 0.930 . S
C967 N965 1.279 . S
C967 C966 1.358 . S
C967 H971 0.930 . S
C968 C966 1.356 . S
C968 C969 1.348 . S
C969 C964 1.353 . S
C969 C968 1.348 . S
C969 H1021 0.929 . S
H970 C964 0.930 . S
H971 C967 0.930 . S
C972 N973 1.314 . S
C972 C974 1.353 . S
C972 H978 0.930 . S
N973 Li949 1.990 . S
N973 C972 1.314 . S
N973 C976 1.279 . S
C974 C972 1.353 . S
C974 C977 1.348 . S
C974 H1022 0.929 . S
C975 C976 1.358 . S
C975 C977 1.356 . S
C975 H1023 0.930 . S
C976 N973 1.279 . S
C976 C975 1.358 . S
C976 H979 0.930 . S
C977 C974 1.348 . S
C977 C975 1.356 . S
H978 C972 0.930 . S
H979 C976 0.930 . S
C980 C982 1.348 . S
C980 C983 1.356 . S
C980 O1010 1.325 . S
N981 C984 1.314 . S
N981 C985 1.279 . S
C982 C980 1.348 . S
C982 C984 1.353 . S
C982 H1024 0.929 . S
C983 C980 1.356 . S
C983 C985 1.358 . S
C983 H1025 0.930 . S
C984 N981 1.314 . S
C984 C982 1.353 . S
C984 H1026 0.930 . S
C985 N981 1.279 . S
C985 C983 1.358 . S
C985 H1027 0.930 . S
C986 C987 1.348 . S
C986 C988 1.356 . S
C986 O1011 1.325 . S
C987 C986 1.348 . S
C987 C989 1.353 . S
C987 H1028 0.929 . S
C988 C986 1.356 . S
C988 C990 1.358 . S
C988 H1029 0.930 . S
C989 C987 1.353 . S
C989 N991 1.314 . S
C989 H1030 0.930 . S
C990 C988 1.358 . S
C990 N991 1.279 . S
C990 H1031 0.930 . S
N991 C989 1.314 . S
N991 C990 1.279 . S
C992 C994 1.353 . S
C992 N995 1.314 . S
C992 H998 0.930 . S
C993 N995 1.279 . S
C993 C996 1.358 . S
C993 H999 0.930 . S
C994 C992 1.353 . S
C994 C997 1.348 . S
C994 H1032 0.929 . S
N995 Li950 1.990 . S
N995 C992 1.314 . S
N995 C993 1.279 . S
C996 C993 1.358 . S
C996 C997 1.356 . S
C996 H1033 0.930 . S
C997 C994 1.348 . S
C997 C996 1.356 . S
H998 C992 0.930 . S
H999 C993 0.930 . S
C1000 N1001 1.314 . S
C1000 C1002 1.353 . S
C1000 H1006 0.930 . S
N1001 Li951 1.990 . S
N1001 C1000 1.314 . S
N1001 C1004 1.279 . S
C1002 C1000 1.353 . S
C1002 C1005 1.348 . S
C1002 H1034 0.929 . S
C1003 C1004 1.358 . S
C1003 C1005 1.356 . S
C1003 H1035 0.930 . S
C1004 N1001 1.279 . S
C1004 C1003 1.358 . S
C1004 H1007 0.930 . S
C1005 C1002 1.348 . S
C1005 C1003 1.356 . S
H1006 C1000 0.930 . S
H1007 C1004 0.930 . S
O1008 Li948 1.956 . S
O1008 Li949 1.970 . S
O1008 Li950 1.961 . S
O1008 C952 1.325 . S
O1009 Li948 1.970 . S
O1009 Li949 1.956 . S
O1009 Li951 1.961 . S
O1009 C958 1.325 . S
O1010 Li948 1.961 . S
O1010 Li950 1.956 . S
O1010 Li951 1.970 . S
O1010 C980 1.325 . S
O1011 Li949 1.961 . S
O1011 Li950 1.970 . S
O1011 Li951 1.956 . S
O1011 C986 1.325 . S
H1012 C954 0.929 . S
H1013 C955 0.930 . S
H1014 C956 0.930 . S
H1015 C957 0.930 . S
H1016 C959 0.930 . S
H1017 C961 0.929 . S
H1018 C962 0.930 . S
H1019 C963 0.930 . S
H1020 C966 0.930 . S
H1021 C969 0.929 . S
H1022 C974 0.929 . S
H1023 C975 0.930 . S
H1024 C982 0.929 . S
H1025 C983 0.930 . S
H1026 C984 0.930 . S
H1027 C985 0.930 . S
H1028 C987 0.929 . S
H1029 C988 0.930 . S
H1030 C989 0.930 . S
H1031 C990 0.930 . S
H1032 C994 0.929 . S
H1033 C996 0.930 . S
H1034 C1002 0.929 . S
H1035 C1003 0.930 . S
Li1036 N1053 1.990 . S
Li1036 O1096 1.956 . S
Li1036 O1097 1.970 . S
Li1036 O1098 1.961 . S
Li1037 N1061 1.990 . S
Li1037 O1096 1.970 . S
Li1037 O1097 1.956 . S
Li1037 O1099 1.961 . S
Li1038 N1083 1.990 . S
Li1038 O1096 1.961 . S
Li1038 O1098 1.956 . S
Li1038 O1099 1.970 . S
Li1039 N1089 1.990 . S
Li1039 O1097 1.961 . S
Li1039 O1098 1.970 . S
Li1039 O1099 1.956 . S
C1040 C1042 1.348 . S
C1040 C1043 1.356 . S
C1040 O1096 1.325 . S
N1041 C1044 1.314 . S
N1041 C1045 1.279 . S
C1042 C1040 1.348 . S
C1042 C1044 1.353 . S
C1042 H1100 0.929 . S
C1043 C1040 1.356 . S
C1043 C1045 1.358 . S
C1043 H1101 0.930 . S
C1044 N1041 1.314 . S
C1044 C1042 1.353 . S
C1044 H1102 0.930 . S
C1045 N1041 1.279 . S
C1045 C1043 1.358 . S
C1045 H1103 0.930 . S
C1046 C1049 1.348 . S
C1046 C1050 1.356 . S
C1046 O1097 1.325 . S
C1047 N1048 1.279 . S
C1047 C1050 1.358 . S
C1047 H1104 0.930 . S
N1048 C1047 1.279 . S
N1048 C1051 1.314 . S
C1049 C1046 1.348 . S
C1049 C1051 1.353 . S
C1049 H1105 0.929 . S
C1050 C1046 1.356 . S
C1050 C1047 1.358 . S
C1050 H1106 0.930 . S
C1051 N1048 1.314 . S
C1051 C1049 1.353 . S
C1051 H1107 0.930 . S
C1052 N1053 1.314 . S
C1052 C1057 1.353 . S
C1052 H1058 0.930 . S
N1053 Li1036 1.990 . S
N1053 C1052 1.314 . S
N1053 C1055 1.279 . S
C1054 C1055 1.358 . S
C1054 C1056 1.356 . S
C1054 H1108 0.930 . S
C1055 N1053 1.279 . S
C1055 C1054 1.358 . S
C1055 H1059 0.930 . S
C1056 C1054 1.356 . S
C1056 C1057 1.348 . S
C1057 C1052 1.353 . S
C1057 C1056 1.348 . S
C1057 H1109 0.929 . S
H1058 C1052 0.930 . S
H1059 C1055 0.930 . S
C1060 N1061 1.314 . S
C1060 C1062 1.353 . S
C1060 H1066 0.930 . S
N1061 Li1037 1.990 . S
N1061 C1060 1.314 . S
N1061 C1064 1.279 . S
C1062 C1060 1.353 . S
C1062 C1065 1.348 . S
C1062 H1110 0.929 . S
C1063 C1064 1.358 . S
C1063 C1065 1.356 . S
C1063 H1111 0.930 . S
C1064 N1061 1.279 . S
C1064 C1063 1.358 . S
C1064 H1067 0.930 . S
C1065 C1062 1.348 . S
C1065 C1063 1.356 . S
H1066 C1060 0.930 . S
H1067 C1064 0.930 . S
C1068 C1070 1.348 . S
C1068 C1071 1.356 . S
C1068 O1098 1.325 . S
N1069 C1072 1.314 . S
N1069 C1073 1.279 . S
C1070 C1068 1.348 . S
C1070 C1072 1.353 . S
C1070 H1112 0.929 . S
C1071 C1068 1.356 . S
C1071 C1073 1.358 . S
C1071 H1113 0.930 . S
C1072 N1069 1.314 . S
C1072 C1070 1.353 . S
C1072 H1114 0.930 . S
C1073 N1069 1.279 . S
C1073 C1071 1.358 . S
C1073 H1115 0.930 . S
C1074 C1075 1.348 . S
C1074 C1076 1.356 . S
C1074 O1099 1.325 . S
C1075 C1074 1.348 . S
C1075 C1077 1.353 . S
C1075 H1116 0.929 . S
C1076 C1074 1.356 . S
C1076 C1078 1.358 . S
C1076 H1117 0.930 . S
C1077 C1075 1.353 . S
C1077 N1079 1.314 . S
C1077 H1118 0.930 . S
C1078 C1076 1.358 . S
C1078 N1079 1.279 . S
C1078 H1119 0.930 . S
N1079 C1077 1.314 . S
N1079 C1078 1.279 . S
C1080 C1082 1.353 . S
C1080 N1083 1.314 . S
C1080 H1086 0.930 . S
C1081 N1083 1.279 . S
C1081 C1084 1.358 . S
C1081 H1087 0.930 . S
C1082 C1080 1.353 . S
C1082 C1085 1.348 . S
C1082 H1120 0.929 . S
N1083 Li1038 1.990 . S
N1083 C1080 1.314 . S
N1083 C1081 1.279 . S
C1084 C1081 1.358 . S
C1084 C1085 1.356 . S
C1084 H1121 0.930 . S
C1085 C1082 1.348 . S
C1085 C1084 1.356 . S
H1086 C1080 0.930 . S
H1087 C1081 0.930 . S
C1088 N1089 1.314 . S
C1088 C1090 1.353 . S
C1088 H1094 0.930 . S
N1089 Li1039 1.990 . S
N1089 C1088 1.314 . S
N1089 C1092 1.279 . S
C1090 C1088 1.353 . S
C1090 C1093 1.348 . S
C1090 H1122 0.929 . S
C1091 C1092 1.358 . S
C1091 C1093 1.356 . S
C1091 H1123 0.930 . S
C1092 N1089 1.279 . S
C1092 C1091 1.358 . S
C1092 H1095 0.930 . S
C1093 C1090 1.348 . S
C1093 C1091 1.356 . S
H1094 C1088 0.930 . S
H1095 C1092 0.930 . S
O1096 Li1036 1.956 . S
O1096 Li1037 1.970 . S
O1096 Li1038 1.961 . S
O1096 C1040 1.325 . S
O1097 Li1036 1.970 . S
O1097 Li1037 1.956 . S
O1097 Li1039 1.961 . S
O1097 C1046 1.325 . S
O1098 Li1036 1.961 . S
O1098 Li1038 1.956 . S
O1098 Li1039 1.970 . S
O1098 C1068 1.325 . S
O1099 Li1037 1.961 . S
O1099 Li1038 1.970 . S
O1099 Li1039 1.956 . S
O1099 C1074 1.325 . S
H1100 C1042 0.929 . S
H1101 C1043 0.930 . S
H1102 C1044 0.930 . S
H1103 C1045 0.930 . S
H1104 C1047 0.930 . S
H1105 C1049 0.929 . S
H1106 C1050 0.930 . S
H1107 C1051 0.930 . S
H1108 C1054 0.930 . S
H1109 C1057 0.929 . S
H1110 C1062 0.929 . S
H1111 C1063 0.930 . S
H1112 C1070 0.929 . S
H1113 C1071 0.930 . S
H1114 C1072 0.930 . S
H1115 C1073 0.930 . S
H1116 C1075 0.929 . S
H1117 C1076 0.930 . S
H1118 C1077 0.930 . S
H1119 C1078 0.930 . S
H1120 C1082 0.929 . S
H1121 C1084 0.930 . S
H1122 C1090 0.929 . S
H1123 C1091 0.930 . S
Li1124 N1141 1.990 . S
Li1124 O1184 1.956 . S
Li1124 O1185 1.970 . S
Li1124 O1186 1.961 . S
Li1125 N1149 1.990 . S
Li1125 O1184 1.970 . S
Li1125 O1185 1.956 . S
Li1125 O1187 1.961 . S
Li1126 N1171 1.990 . S
Li1126 O1184 1.961 . S
Li1126 O1186 1.956 . S
Li1126 O1187 1.970 . S
Li1127 N1177 1.990 . S
Li1127 O1185 1.961 . S
Li1127 O1186 1.970 . S
Li1127 O1187 1.956 . S
C1128 C1130 1.348 . S
C1128 C1131 1.356 . S
C1128 O1184 1.325 . S
N1129 C1132 1.314 . S
N1129 C1133 1.279 . S
C1130 C1128 1.348 . S
C1130 C1132 1.353 . S
C1130 H1188 0.929 . S
C1131 C1128 1.356 . S
C1131 C1133 1.358 . S
C1131 H1189 0.930 . S
C1132 N1129 1.314 . S
C1132 C1130 1.353 . S
C1132 H1190 0.930 . S
C1133 N1129 1.279 . S
C1133 C1131 1.358 . S
C1133 H1191 0.930 . S
C1134 C1137 1.348 . S
C1134 C1138 1.356 . S
C1134 O1185 1.325 . S
C1135 N1136 1.279 . S
C1135 C1138 1.358 . S
C1135 H1192 0.930 . S
N1136 C1135 1.279 . S
N1136 C1139 1.314 . S
C1137 C1134 1.348 . S
C1137 C1139 1.353 . S
C1137 H1193 0.929 . S
C1138 C1134 1.356 . S
C1138 C1135 1.358 . S
C1138 H1194 0.930 . S
C1139 N1136 1.314 . S
C1139 C1137 1.353 . S
C1139 H1195 0.930 . S
C1140 N1141 1.314 . S
C1140 C1145 1.353 . S
C1140 H1146 0.930 . S
N1141 Li1124 1.990 . S
N1141 C1140 1.314 . S
N1141 C1143 1.279 . S
C1142 C1143 1.358 . S
C1142 C1144 1.356 . S
C1142 H1196 0.930 . S
C1143 N1141 1.279 . S
C1143 C1142 1.358 . S
C1143 H1147 0.930 . S
C1144 C1142 1.356 . S
C1144 C1145 1.348 . S
C1145 C1140 1.353 . S
C1145 C1144 1.348 . S
C1145 H1197 0.929 . S
H1146 C1140 0.930 . S
H1147 C1143 0.930 . S
C1148 N1149 1.314 . S
C1148 C1150 1.353 . S
C1148 H1154 0.930 . S
N1149 Li1125 1.990 . S
N1149 C1148 1.314 . S
N1149 C1152 1.279 . S
C1150 C1148 1.353 . S
C1150 C1153 1.348 . S
C1150 H1198 0.929 . S
C1151 C1152 1.358 . S
C1151 C1153 1.356 . S
C1151 H1199 0.930 . S
C1152 N1149 1.279 . S
C1152 C1151 1.358 . S
C1152 H1155 0.930 . S
C1153 C1150 1.348 . S
C1153 C1151 1.356 . S
H1154 C1148 0.930 . S
H1155 C1152 0.930 . S
C1156 C1158 1.348 . S
C1156 C1159 1.356 . S
C1156 O1186 1.325 . S
N1157 C1160 1.314 . S
N1157 C1161 1.279 . S
C1158 C1156 1.348 . S
C1158 C1160 1.353 . S
C1158 H1200 0.929 . S
C1159 C1156 1.356 . S
C1159 C1161 1.358 . S
C1159 H1201 0.930 . S
C1160 N1157 1.314 . S
C1160 C1158 1.353 . S
C1160 H1202 0.930 . S
C1161 N1157 1.279 . S
C1161 C1159 1.358 . S
C1161 H1203 0.930 . S
C1162 C1163 1.348 . S
C1162 C1164 1.356 . S
C1162 O1187 1.325 . S
C1163 C1162 1.348 . S
C1163 C1165 1.353 . S
C1163 H1204 0.929 . S
C1164 C1162 1.356 . S
C1164 C1166 1.358 . S
C1164 H1205 0.930 . S
C1165 C1163 1.353 . S
C1165 N1167 1.314 . S
C1165 H1206 0.930 . S
C1166 C1164 1.358 . S
C1166 N1167 1.279 . S
C1166 H1207 0.930 . S
N1167 C1165 1.314 . S
N1167 C1166 1.279 . S
C1168 C1170 1.353 . S
C1168 N1171 1.314 . S
C1168 H1174 0.930 . S
C1169 N1171 1.279 . S
C1169 C1172 1.358 . S
C1169 H1175 0.930 . S
C1170 C1168 1.353 . S
C1170 C1173 1.348 . S
C1170 H1208 0.929 . S
N1171 Li1126 1.990 . S
N1171 C1168 1.314 . S
N1171 C1169 1.279 . S
C1172 C1169 1.358 . S
C1172 C1173 1.356 . S
C1172 H1209 0.930 . S
C1173 C1170 1.348 . S
C1173 C1172 1.356 . S
H1174 C1168 0.930 . S
H1175 C1169 0.930 . S
C1176 N1177 1.314 . S
C1176 C1178 1.353 . S
C1176 H1182 0.930 . S
N1177 Li1127 1.990 . S
N1177 C1176 1.314 . S
N1177 C1180 1.279 . S
C1178 C1176 1.353 . S
C1178 C1181 1.348 . S
C1178 H1210 0.929 . S
C1179 C1180 1.358 . S
C1179 C1181 1.356 . S
C1179 H1211 0.930 . S
C1180 N1177 1.279 . S
C1180 C1179 1.358 . S
C1180 H1183 0.930 . S
C1181 C1178 1.348 . S
C1181 C1179 1.356 . S
H1182 C1176 0.930 . S
H1183 C1180 0.930 . S
O1184 Li1124 1.956 . S
O1184 Li1125 1.970 . S
O1184 Li1126 1.961 . S
O1184 C1128 1.325 . S
O1185 Li1124 1.970 . S
O1185 Li1125 1.956 . S
O1185 Li1127 1.961 . S
O1185 C1134 1.325 . S
O1186 Li1124 1.961 . S
O1186 Li1126 1.956 . S
O1186 Li1127 1.970 . S
O1186 C1156 1.325 . S
O1187 Li1125 1.961 . S
O1187 Li1126 1.970 . S
O1187 Li1127 1.956 . S
O1187 C1162 1.325 . S
H1188 C1130 0.929 . S
H1189 C1131 0.930 . S
H1190 C1132 0.930 . S
H1191 C1133 0.930 . S
H1192 C1135 0.930 . S
H1193 C1137 0.929 . S
H1194 C1138 0.930 . S
H1195 C1139 0.930 . S
H1196 C1142 0.930 . S
H1197 C1145 0.929 . S
H1198 C1150 0.929 . S
H1199 C1151 0.930 . S
H1200 C1158 0.929 . S
H1201 C1159 0.930 . S
H1202 C1160 0.930 . S
H1203 C1161 0.930 . S
H1204 C1163 0.929 . S
H1205 C1164 0.930 . S
H1206 C1165 0.930 . S
H1207 C1166 0.930 . S
H1208 C1170 0.929 . S
H1209 C1172 0.930 . S
H1210 C1178 0.929 . S
H1211 C1179 0.930 . S
C1212 C1213 1.349 . S
C1212 C1214 1.327 . S
C1212 H1237 0.950 . S
C1213 C1212 1.349 . S
C1213 C1229 1.349 . S
C1214 C1212 1.327 . S
C1214 C1233 1.429 . S
C1214 H1238 0.950 . S
C1215 C1232 1.574 . S
C1215 C1234 1.368 . S
C1215 H1239 0.949 . S
H1216 C1220 0.949 . S
C1217 C1218 1.349 . S
C1217 C1219 1.327 . S
C1217 H1240 0.950 . S
C1218 C1217 1.349 . S
C1218 C1230 1.349 . S
C1219 C1217 1.327 . S
C1219 C1235 1.429 . S
C1219 H1241 0.950 . S
C1220 H1216 0.949 . S
C1220 C1228 1.574 . S
C1220 C1236 1.368 . S
H1221 C1229 0.950 . S
H1222 C1227 0.950 . S
H1223 C1228 0.949 . S
H1224 C1230 0.950 . S
H1225 C1231 0.950 . S
H1226 C1232 0.949 . S
C1227 H1222 0.950 . S
C1227 C1229 1.327 . S
C1227 C1233 1.429 . S
C1228 C1220 1.574 . S
C1228 H1223 0.949 . S
C1228 C1234 1.368 . S
C1229 C1213 1.349 . S
C1229 H1221 0.950 . S
C1229 C1227 1.327 . S
C1230 C1218 1.349 . S
C1230 H1224 0.950 . S
C1230 C1231 1.327 . S
C1231 H1225 0.950 . S
C1231 C1230 1.327 . S
C1231 C1235 1.429 . S
C1232 C1215 1.574 . S
C1232 H1226 0.949 . S
C1232 C1236 1.368 . S
C1233 C1214 1.429 . S
C1233 C1227 1.429 . S
C1233 C1234 1.523 . S
C1234 C1215 1.368 . S
C1234 C1228 1.368 . S
C1234 C1233 1.523 . S
C1235 C1219 1.429 . S
C1235 C1231 1.429 . S
C1235 C1236 1.523 . S
C1236 C1220 1.368 . S
C1236 C1232 1.368 . S
C1236 C1235 1.523 . S
H1237 C1212 0.950 . S
H1238 C1214 0.950 . S
H1239 C1215 0.949 . S
H1240 C1217 0.950 . S
H1241 C1219 0.950 . S
C1242 C1243 1.349 . S
C1242 C1244 1.327 . S
C1242 H1267 0.950 . S
C1243 C1242 1.349 . S
C1243 C1259 1.349 . S
C1244 C1242 1.327 . S
C1244 C1263 1.429 . S
C1244 H1268 0.950 . S
C1245 C1262 1.574 . S
C1245 C1264 1.368 . S
C1245 H1269 0.949 . S
H1246 C1250 0.949 . S
C1247 C1248 1.349 . S
C1247 C1249 1.327 . S
C1247 H1270 0.950 . S
C1248 C1247 1.349 . S
C1248 C1260 1.349 . S
C1249 C1247 1.327 . S
C1249 C1265 1.429 . S
C1249 H1271 0.950 . S
C1250 H1246 0.949 . S
C1250 C1258 1.574 . S
C1250 C1266 1.368 . S
H1251 C1259 0.950 . S
H1252 C1257 0.950 . S
H1253 C1258 0.949 . S
H1254 C1260 0.950 . S
H1255 C1261 0.950 . S
H1256 C1262 0.949 . S
C1257 H1252 0.950 . S
C1257 C1259 1.327 . S
C1257 C1263 1.429 . S
C1258 C1250 1.574 . S
C1258 H1253 0.949 . S
C1258 C1264 1.368 . S
C1259 C1243 1.349 . S
C1259 H1251 0.950 . S
C1259 C1257 1.327 . S
C1260 C1248 1.349 . S
C1260 H1254 0.950 . S
C1260 C1261 1.327 . S
C1261 H1255 0.950 . S
C1261 C1260 1.327 . S
C1261 C1265 1.429 . S
C1262 C1245 1.574 . S
C1262 H1256 0.949 . S
C1262 C1266 1.368 . S
C1263 C1244 1.429 . S
C1263 C1257 1.429 . S
C1263 C1264 1.523 . S
C1264 C1245 1.368 . S
C1264 C1258 1.368 . S
C1264 C1263 1.523 . S
C1265 C1249 1.429 . S
C1265 C1261 1.429 . S
C1265 C1266 1.523 . S
C1266 C1250 1.368 . S
C1266 C1262 1.368 . S
C1266 C1265 1.523 . S
H1267 C1242 0.950 . S
H1268 C1244 0.950 . S
H1269 C1245 0.949 . S
H1270 C1247 0.950 . S
H1271 C1249 0.950 . S
C1272 C1273 1.349 . S
C1272 C1274 1.327 . S
C1272 H1297 0.950 . S
C1273 C1272 1.349 . S
C1273 C1289 1.349 . S
C1274 C1272 1.327 . S
C1274 C1293 1.429 . S
C1274 H1298 0.950 . S
C1275 C1292 1.574 . S
C1275 C1294 1.368 . S
C1275 H1299 0.949 . S
H1276 C1280 0.949 . S
C1277 C1278 1.349 . S
C1277 C1279 1.327 . S
C1277 H1300 0.950 . S
C1278 C1277 1.349 . S
C1278 C1290 1.349 . S
C1279 C1277 1.327 . S
C1279 C1295 1.429 . S
C1279 H1301 0.950 . S
C1280 H1276 0.949 . S
C1280 C1288 1.574 . S
C1280 C1296 1.368 . S
H1281 C1289 0.950 . S
H1282 C1287 0.950 . S
H1283 C1288 0.949 . S
H1284 C1290 0.950 . S
H1285 C1291 0.950 . S
H1286 C1292 0.949 . S
C1287 H1282 0.950 . S
C1287 C1289 1.327 . S
C1287 C1293 1.429 . S
C1288 C1280 1.574 . S
C1288 H1283 0.949 . S
C1288 C1294 1.368 . S
C1289 C1273 1.349 . S
C1289 H1281 0.950 . S
C1289 C1287 1.327 . S
C1290 C1278 1.349 . S
C1290 H1284 0.950 . S
C1290 C1291 1.327 . S
C1291 H1285 0.950 . S
C1291 C1290 1.327 . S
C1291 C1295 1.429 . S
C1292 C1275 1.574 . S
C1292 H1286 0.949 . S
C1292 C1296 1.368 . S
C1293 C1274 1.429 . S
C1293 C1287 1.429 . S
C1293 C1294 1.523 . S
C1294 C1275 1.368 . S
C1294 C1288 1.368 . S
C1294 C1293 1.523 . S
C1295 C1279 1.429 . S
C1295 C1291 1.429 . S
C1295 C1296 1.523 . S
C1296 C1280 1.368 . S
C1296 C1292 1.368 . S
C1296 C1295 1.523 . S
H1297 C1272 0.950 . S
H1298 C1274 0.950 . S
H1299 C1275 0.949 . S
H1300 C1277 0.950 . S
H1301 C1279 0.950 . S
C1302 C1303 1.349 . S
C1302 C1304 1.327 . S
C1302 H1327 0.950 . S
C1303 C1302 1.349 . S
C1303 C1319 1.349 . S
C1304 C1302 1.327 . S
C1304 C1323 1.429 . S
C1304 H1328 0.950 . S
C1305 C1322 1.574 . S
C1305 C1324 1.368 . S
C1305 H1329 0.949 . S
H1306 C1310 0.949 . S
C1307 C1308 1.349 . S
C1307 C1309 1.327 . S
C1307 H1330 0.950 . S
C1308 C1307 1.349 . S
C1308 C1320 1.349 . S
C1309 C1307 1.327 . S
C1309 C1325 1.429 . S
C1309 H1331 0.950 . S
C1310 H1306 0.949 . S
C1310 C1318 1.574 . S
C1310 C1326 1.368 . S
H1311 C1319 0.950 . S
H1312 C1317 0.950 . S
H1313 C1318 0.949 . S
H1314 C1320 0.950 . S
H1315 C1321 0.950 . S
H1316 C1322 0.949 . S
C1317 H1312 0.950 . S
C1317 C1319 1.327 . S
C1317 C1323 1.429 . S
C1318 C1310 1.574 . S
C1318 H1313 0.949 . S
C1318 C1324 1.368 . S
C1319 C1303 1.349 . S
C1319 H1311 0.950 . S
C1319 C1317 1.327 . S
C1320 C1308 1.349 . S
C1320 H1314 0.950 . S
C1320 C1321 1.327 . S
C1321 H1315 0.950 . S
C1321 C1320 1.327 . S
C1321 C1325 1.429 . S
C1322 C1305 1.574 . S
C1322 H1316 0.949 . S
C1322 C1326 1.368 . S
C1323 C1304 1.429 . S
C1323 C1317 1.429 . S
C1323 C1324 1.523 . S
C1324 C1305 1.368 . S
C1324 C1318 1.368 . S
C1324 C1323 1.523 . S
C1325 C1309 1.429 . S
C1325 C1321 1.429 . S
C1325 C1326 1.523 . S
C1326 C1310 1.368 . S
C1326 C1322 1.368 . S
C1326 C1325 1.523 . S
H1327 C1302 0.950 . S
H1328 C1304 0.950 . S
H1329 C1305 0.949 . S
H1330 C1307 0.950 . S
H1331 C1309 0.950 . S
C1332 C1333 1.349 . S
C1332 C1334 1.327 . S
C1332 H1357 0.950 . S
C1333 C1332 1.349 . S
C1333 C1349 1.349 . S
C1334 C1332 1.327 . S
C1334 C1353 1.429 . S
C1334 H1358 0.950 . S
C1335 C1352 1.574 . S
C1335 C1354 1.368 . S
C1335 H1359 0.949 . S
H1336 C1340 0.949 . S
C1337 C1338 1.349 . S
C1337 C1339 1.327 . S
C1337 H1360 0.950 . S
C1338 C1337 1.349 . S
C1338 C1350 1.349 . S
C1339 C1337 1.327 . S
C1339 C1355 1.429 . S
C1339 H1361 0.950 . S
C1340 H1336 0.949 . S
C1340 C1348 1.574 . S
C1340 C1356 1.368 . S
H1341 C1349 0.950 . S
H1342 C1347 0.950 . S
H1343 C1348 0.949 . S
H1344 C1350 0.950 . S
H1345 C1351 0.950 . S
H1346 C1352 0.949 . S
C1347 H1342 0.950 . S
C1347 C1349 1.327 . S
C1347 C1353 1.429 . S
C1348 C1340 1.574 . S
C1348 H1343 0.949 . S
C1348 C1354 1.368 . S
C1349 C1333 1.349 . S
C1349 H1341 0.950 . S
C1349 C1347 1.327 . S
C1350 C1338 1.349 . S
C1350 H1344 0.950 . S
C1350 C1351 1.327 . S
C1351 H1345 0.950 . S
C1351 C1350 1.327 . S
C1351 C1355 1.429 . S
C1352 C1335 1.574 . S
C1352 H1346 0.949 . S
C1352 C1356 1.368 . S
C1353 C1334 1.429 . S
C1353 C1347 1.429 . S
C1353 C1354 1.523 . S
C1354 C1335 1.368 . S
C1354 C1348 1.368 . S
C1354 C1353 1.523 . S
C1355 C1339 1.429 . S
C1355 C1351 1.429 . S
C1355 C1356 1.523 . S
C1356 C1340 1.368 . S
C1356 C1352 1.368 . S
C1356 C1355 1.523 . S
H1357 C1332 0.950 . S
H1358 C1334 0.950 . S
H1359 C1335 0.949 . S
H1360 C1337 0.950 . S
H1361 C1339 0.950 . S
C1362 C1363 1.349 . S
C1362 C1364 1.327 . S
C1362 H1387 0.950 . S
C1363 C1362 1.349 . S
C1363 C1379 1.349 . S
C1364 C1362 1.327 . S
C1364 C1383 1.429 . S
C1364 H1388 0.950 . S
C1365 C1382 1.574 . S
C1365 C1384 1.368 . S
C1365 H1389 0.949 . S
H1366 C1370 0.949 . S
C1367 C1368 1.349 . S
C1367 C1369 1.327 . S
C1367 H1390 0.950 . S
C1368 C1367 1.349 . S
C1368 C1380 1.349 . S
C1369 C1367 1.327 . S
C1369 C1385 1.429 . S
C1369 H1391 0.950 . S
C1370 H1366 0.949 . S
C1370 C1378 1.574 . S
C1370 C1386 1.368 . S
H1371 C1379 0.950 . S
H1372 C1377 0.950 . S
H1373 C1378 0.949 . S
H1374 C1380 0.950 . S
H1375 C1381 0.950 . S
H1376 C1382 0.949 . S
C1377 H1372 0.950 . S
C1377 C1379 1.327 . S
C1377 C1383 1.429 . S
C1378 C1370 1.574 . S
C1378 H1373 0.949 . S
C1378 C1384 1.368 . S
C1379 C1363 1.349 . S
C1379 H1371 0.950 . S
C1379 C1377 1.327 . S
C1380 C1368 1.349 . S
C1380 H1374 0.950 . S
C1380 C1381 1.327 . S
C1381 H1375 0.950 . S
C1381 C1380 1.327 . S
C1381 C1385 1.429 . S
C1382 C1365 1.574 . S
C1382 H1376 0.949 . S
C1382 C1386 1.368 . S
C1383 C1364 1.429 . S
C1383 C1377 1.429 . S
C1383 C1384 1.523 . S
C1384 C1365 1.368 . S
C1384 C1378 1.368 . S
C1384 C1383 1.523 . S
C1385 C1369 1.429 . S
C1385 C1381 1.429 . S
C1385 C1386 1.523 . S
C1386 C1370 1.368 . S
C1386 C1382 1.368 . S
C1386 C1385 1.523 . S
H1387 C1362 0.950 . S
H1388 C1364 0.950 . S
H1389 C1365 0.949 . S
H1390 C1367 0.950 . S
H1391 C1369 0.950 . S
C1392 C1393 1.349 . S
C1392 C1394 1.327 . S
C1392 H1417 0.950 . S
C1393 C1392 1.349 . S
C1393 C1409 1.349 . S
C1394 C1392 1.327 . S
C1394 C1413 1.429 . S
C1394 H1418 0.950 . S
C1395 C1412 1.574 . S
C1395 C1414 1.368 . S
C1395 H1419 0.949 . S
H1396 C1400 0.949 . S
C1397 C1398 1.349 . S
C1397 C1399 1.327 . S
C1397 H1420 0.950 . S
C1398 C1397 1.349 . S
C1398 C1410 1.349 . S
C1399 C1397 1.327 . S
C1399 C1415 1.429 . S
C1399 H1421 0.950 . S
C1400 H1396 0.949 . S
C1400 C1408 1.574 . S
C1400 C1416 1.368 . S
H1401 C1409 0.950 . S
H1402 C1407 0.950 . S
H1403 C1408 0.949 . S
H1404 C1410 0.950 . S
H1405 C1411 0.950 . S
H1406 C1412 0.949 . S
C1407 H1402 0.950 . S
C1407 C1409 1.327 . S
C1407 C1413 1.429 . S
C1408 C1400 1.574 . S
C1408 H1403 0.949 . S
C1408 C1414 1.368 . S
C1409 C1393 1.349 . S
C1409 H1401 0.950 . S
C1409 C1407 1.327 . S
C1410 C1398 1.349 . S
C1410 H1404 0.950 . S
C1410 C1411 1.327 . S
C1411 H1405 0.950 . S
C1411 C1410 1.327 . S
C1411 C1415 1.429 . S
C1412 C1395 1.574 . S
C1412 H1406 0.949 . S
C1412 C1416 1.368 . S
C1413 C1394 1.429 . S
C1413 C1407 1.429 . S
C1413 C1414 1.523 . S
C1414 C1395 1.368 . S
C1414 C1408 1.368 . S
C1414 C1413 1.523 . S
C1415 C1399 1.429 . S
C1415 C1411 1.429 . S
C1415 C1416 1.523 . S
C1416 C1400 1.368 . S
C1416 C1412 1.368 . S
C1416 C1415 1.523 . S
H1417 C1392 0.950 . S
H1418 C1394 0.950 . S
H1419 C1395 0.949 . S
H1420 C1397 0.950 . S
H1421 C1399 0.950 . S
C1422 C1423 1.349 . S
C1422 C1424 1.327 . S
C1422 H1447 0.950 . S
C1423 C1422 1.349 . S
C1423 C1439 1.349 . S
C1424 C1422 1.327 . S
C1424 C1443 1.429 . S
C1424 H1448 0.950 . S
C1425 C1442 1.574 . S
C1425 C1444 1.368 . S
C1425 H1449 0.949 . S
H1426 C1430 0.949 . S
C1427 C1428 1.349 . S
C1427 C1429 1.327 . S
C1427 H1450 0.950 . S
C1428 C1427 1.349 . S
C1428 C1440 1.349 . S
C1429 C1427 1.327 . S
C1429 C1445 1.429 . S
C1429 H1451 0.950 . S
C1430 H1426 0.949 . S
C1430 C1438 1.574 . S
C1430 C1446 1.368 . S
H1431 C1439 0.950 . S
H1432 C1437 0.950 . S
H1433 C1438 0.949 . S
H1434 C1440 0.950 . S
H1435 C1441 0.950 . S
H1436 C1442 0.949 . S
C1437 H1432 0.950 . S
C1437 C1439 1.327 . S
C1437 C1443 1.429 . S
C1438 C1430 1.574 . S
C1438 H1433 0.949 . S
C1438 C1444 1.368 . S
C1439 C1423 1.349 . S
C1439 H1431 0.950 . S
C1439 C1437 1.327 . S
C1440 C1428 1.349 . S
C1440 H1434 0.950 . S
C1440 C1441 1.327 . S
C1441 H1435 0.950 . S
C1441 C1440 1.327 . S
C1441 C1445 1.429 . S
C1442 C1425 1.574 . S
C1442 H1436 0.949 . S
C1442 C1446 1.368 . S
C1443 C1424 1.429 . S
C1443 C1437 1.429 . S
C1443 C1444 1.523 . S
C1444 C1425 1.368 . S
C1444 C1438 1.368 . S
C1444 C1443 1.523 . S
C1445 C1429 1.429 . S
C1445 C1441 1.429 . S
C1445 C1446 1.523 . S
C1446 C1430 1.368 . S
C1446 C1442 1.368 . S
C1446 C1445 1.523 . S
H1447 C1422 0.950 . S
H1448 C1424 0.950 . S
H1449 C1425 0.949 . S
H1450 C1427 0.950 . S
H1451 C1429 0.950 . S
C1452 C1453 1.349 . S
C1452 C1454 1.327 . S
C1452 H1477 0.950 . S
C1453 C1452 1.349 . S
C1453 C1469 1.349 . S
C1454 C1452 1.327 . S
C1454 C1473 1.429 . S
C1454 H1478 0.950 . S
C1455 C1472 1.574 . S
C1455 C1474 1.368 . S
C1455 H1479 0.949 . S
H1456 C1460 0.949 . S
C1457 C1458 1.349 . S
C1457 C1459 1.327 . S
C1457 H1480 0.950 . S
C1458 C1457 1.349 . S
C1458 C1470 1.349 . S
C1459 C1457 1.327 . S
C1459 C1475 1.429 . S
C1459 H1481 0.950 . S
C1460 H1456 0.949 . S
C1460 C1468 1.574 . S
C1460 C1476 1.368 . S
H1461 C1469 0.950 . S
H1462 C1467 0.950 . S
H1463 C1468 0.949 . S
H1464 C1470 0.950 . S
H1465 C1471 0.950 . S
H1466 C1472 0.949 . S
C1467 H1462 0.950 . S
C1467 C1469 1.327 . S
C1467 C1473 1.429 . S
C1468 C1460 1.574 . S
C1468 H1463 0.949 . S
C1468 C1474 1.368 . S
C1469 C1453 1.349 . S
C1469 H1461 0.950 . S
C1469 C1467 1.327 . S
C1470 C1458 1.349 . S
C1470 H1464 0.950 . S
C1470 C1471 1.327 . S
C1471 H1465 0.950 . S
C1471 C1470 1.327 . S
C1471 C1475 1.429 . S
C1472 C1455 1.574 . S
C1472 H1466 0.949 . S
C1472 C1476 1.368 . S
C1473 C1454 1.429 . S
C1473 C1467 1.429 . S
C1473 C1474 1.523 . S
C1474 C1455 1.368 . S
C1474 C1468 1.368 . S
C1474 C1473 1.523 . S
C1475 C1459 1.429 . S
C1475 C1471 1.429 . S
C1475 C1476 1.523 . S
C1476 C1460 1.368 . S
C1476 C1472 1.368 . S
C1476 C1475 1.523 . S
H1477 C1452 0.950 . S
H1478 C1454 0.950 . S
H1479 C1455 0.949 . S
H1480 C1457 0.950 . S
H1481 C1459 0.950 . S
C1482 C1483 1.349 . S
C1482 C1484 1.327 . S
C1482 H1507 0.950 . S
C1483 C1482 1.349 . S
C1483 C1499 1.349 . S
C1484 C1482 1.327 . S
C1484 C1503 1.429 . S
C1484 H1508 0.950 . S
C1485 C1502 1.574 . S
C1485 C1504 1.368 . S
C1485 H1509 0.949 . S
H1486 C1490 0.949 . S
C1487 C1488 1.349 . S
C1487 C1489 1.327 . S
C1487 H1510 0.950 . S
C1488 C1487 1.349 . S
C1488 C1500 1.349 . S
C1489 C1487 1.327 . S
C1489 C1505 1.429 . S
C1489 H1511 0.950 . S
C1490 H1486 0.949 . S
C1490 C1498 1.574 . S
C1490 C1506 1.368 . S
H1491 C1499 0.950 . S
H1492 C1497 0.950 . S
H1493 C1498 0.949 . S
H1494 C1500 0.950 . S
H1495 C1501 0.950 . S
H1496 C1502 0.949 . S
C1497 H1492 0.950 . S
C1497 C1499 1.327 . S
C1497 C1503 1.429 . S
C1498 C1490 1.574 . S
C1498 H1493 0.949 . S
C1498 C1504 1.368 . S
C1499 C1483 1.349 . S
C1499 H1491 0.950 . S
C1499 C1497 1.327 . S
C1500 C1488 1.349 . S
C1500 H1494 0.950 . S
C1500 C1501 1.327 . S
C1501 H1495 0.950 . S
C1501 C1500 1.327 . S
C1501 C1505 1.429 . S
C1502 C1485 1.574 . S
C1502 H1496 0.949 . S
C1502 C1506 1.368 . S
C1503 C1484 1.429 . S
C1503 C1497 1.429 . S
C1503 C1504 1.523 . S
C1504 C1485 1.368 . S
C1504 C1498 1.368 . S
C1504 C1503 1.523 . S
C1505 C1489 1.429 . S
C1505 C1501 1.429 . S
C1505 C1506 1.523 . S
C1506 C1490 1.368 . S
C1506 C1502 1.368 . S
C1506 C1505 1.523 . S
H1507 C1482 0.950 . S
H1508 C1484 0.950 . S
H1509 C1485 0.949 . S
H1510 C1487 0.950 . S
H1511 C1489 0.950 . S
C1512 C1513 1.349 . S
C1512 C1514 1.327 . S
C1512 H1537 0.950 . S
C1513 C1512 1.349 . S
C1513 C1529 1.349 . S
C1514 C1512 1.327 . S
C1514 C1533 1.429 . S
C1514 H1538 0.950 . S
C1515 C1532 1.574 . S
C1515 C1534 1.368 . S
C1515 H1539 0.949 . S
H1516 C1520 0.949 . S
C1517 C1518 1.349 . S
C1517 C1519 1.327 . S
C1517 H1540 0.950 . S
C1518 C1517 1.349 . S
C1518 C1530 1.349 . S
C1519 C1517 1.327 . S
C1519 C1535 1.429 . S
C1519 H1541 0.950 . S
C1520 H1516 0.949 . S
C1520 C1528 1.574 . S
C1520 C1536 1.368 . S
H1521 C1529 0.950 . S
H1522 C1527 0.950 . S
H1523 C1528 0.949 . S
H1524 C1530 0.950 . S
H1525 C1531 0.950 . S
H1526 C1532 0.949 . S
C1527 H1522 0.950 . S
C1527 C1529 1.327 . S
C1527 C1533 1.429 . S
C1528 C1520 1.574 . S
C1528 H1523 0.949 . S
C1528 C1534 1.368 . S
C1529 C1513 1.349 . S
C1529 H1521 0.950 . S
C1529 C1527 1.327 . S
C1530 C1518 1.349 . S
C1530 H1524 0.950 . S
C1530 C1531 1.327 . S
C1531 H1525 0.950 . S
C1531 C1530 1.327 . S
C1531 C1535 1.429 . S
C1532 C1515 1.574 . S
C1532 H1526 0.949 . S
C1532 C1536 1.368 . S
C1533 C1514 1.429 . S
C1533 C1527 1.429 . S
C1533 C1534 1.523 . S
C1534 C1515 1.368 . S
C1534 C1528 1.368 . S
C1534 C1533 1.523 . S
C1535 C1519 1.429 . S
C1535 C1531 1.429 . S
C1535 C1536 1.523 . S
C1536 C1520 1.368 . S
C1536 C1532 1.368 . S
C1536 C1535 1.523 . S
H1537 C1512 0.950 . S
H1538 C1514 0.950 . S
H1539 C1515 0.949 . S
H1540 C1517 0.950 . S
H1541 C1519 0.950 . S
C1542 C1543 1.349 . S
C1542 C1544 1.327 . S
C1542 H1567 0.950 . S
C1543 C1542 1.349 . S
C1543 C1559 1.349 . S
C1544 C1542 1.327 . S
C1544 C1563 1.429 . S
C1544 H1568 0.950 . S
C1545 C1562 1.574 . S
C1545 C1564 1.368 . S
C1545 H1569 0.949 . S
H1546 C1550 0.949 . S
C1547 C1548 1.349 . S
C1547 C1549 1.327 . S
C1547 H1570 0.950 . S
C1548 C1547 1.349 . S
C1548 C1560 1.349 . S
C1549 C1547 1.327 . S
C1549 C1565 1.429 . S
C1549 H1571 0.950 . S
C1550 H1546 0.949 . S
C1550 C1558 1.574 . S
C1550 C1566 1.368 . S
H1551 C1559 0.950 . S
H1552 C1557 0.950 . S
H1553 C1558 0.949 . S
H1554 C1560 0.950 . S
H1555 C1561 0.950 . S
H1556 C1562 0.949 . S
C1557 H1552 0.950 . S
C1557 C1559 1.327 . S
C1557 C1563 1.429 . S
C1558 C1550 1.574 . S
C1558 H1553 0.949 . S
C1558 C1564 1.368 . S
C1559 C1543 1.349 . S
C1559 H1551 0.950 . S
C1559 C1557 1.327 . S
C1560 C1548 1.349 . S
C1560 H1554 0.950 . S
C1560 C1561 1.327 . S
C1561 H1555 0.950 . S
C1561 C1560 1.327 . S
C1561 C1565 1.429 . S
C1562 C1545 1.574 . S
C1562 H1556 0.949 . S
C1562 C1566 1.368 . S
C1563 C1544 1.429 . S
C1563 C1557 1.429 . S
C1563 C1564 1.523 . S
C1564 C1545 1.368 . S
C1564 C1558 1.368 . S
C1564 C1563 1.523 . S
C1565 C1549 1.429 . S
C1565 C1561 1.429 . S
C1565 C1566 1.523 . S
C1566 C1550 1.368 . S
C1566 C1562 1.368 . S
C1566 C1565 1.523 . S
H1567 C1542 0.950 . S
H1568 C1544 0.950 . S
H1569 C1545 0.949 . S
H1570 C1547 0.950 . S
H1571 C1549 0.950 . S
C1572 C1573 1.349 . S
C1572 C1574 1.327 . S
C1572 H1597 0.950 . S
C1573 C1572 1.349 . S
C1573 C1589 1.349 . S
C1574 C1572 1.327 . S
C1574 C1593 1.429 . S
C1574 H1598 0.950 . S
C1575 C1592 1.574 . S
C1575 C1594 1.368 . S
C1575 H1599 0.949 . S
H1576 C1580 0.949 . S
C1577 C1578 1.349 . S
C1577 C1579 1.327 . S
C1577 H1600 0.950 . S
C1578 C1577 1.349 . S
C1578 C1590 1.349 . S
C1579 C1577 1.327 . S
C1579 C1595 1.429 . S
C1579 H1601 0.950 . S
C1580 H1576 0.949 . S
C1580 C1588 1.574 . S
C1580 C1596 1.368 . S
H1581 C1589 0.950 . S
H1582 C1587 0.950 . S
H1583 C1588 0.949 . S
H1584 C1590 0.950 . S
H1585 C1591 0.950 . S
H1586 C1592 0.949 . S
C1587 H1582 0.950 . S
C1587 C1589 1.327 . S
C1587 C1593 1.429 . S
C1588 C1580 1.574 . S
C1588 H1583 0.949 . S
C1588 C1594 1.368 . S
C1589 C1573 1.349 . S
C1589 H1581 0.950 . S
C1589 C1587 1.327 . S
C1590 C1578 1.349 . S
C1590 H1584 0.950 . S
C1590 C1591 1.327 . S
C1591 H1585 0.950 . S
C1591 C1590 1.327 . S
C1591 C1595 1.429 . S
C1592 C1575 1.574 . S
C1592 H1586 0.949 . S
C1592 C1596 1.368 . S
C1593 C1574 1.429 . S
C1593 C1587 1.429 . S
C1593 C1594 1.523 . S
C1594 C1575 1.368 . S
C1594 C1588 1.368 . S
C1594 C1593 1.523 . S
C1595 C1579 1.429 . S
C1595 C1591 1.429 . S
C1595 C1596 1.523 . S
C1596 C1580 1.368 . S
C1596 C1592 1.368 . S
C1596 C1595 1.523 . S
H1597 C1572 0.950 . S
H1598 C1574 0.950 . S
H1599 C1575 0.949 . S
H1600 C1577 0.950 . S
H1601 C1579 0.950 . S
C1602 C1603 1.349 . S
C1602 C1604 1.327 . S
C1602 H1627 0.950 . S
C1603 C1602 1.349 . S
C1603 C1619 1.349 . S
C1604 C1602 1.327 . S
C1604 C1623 1.429 . S
C1604 H1628 0.950 . S
C1605 C1622 1.574 . S
C1605 C1624 1.368 . S
C1605 H1629 0.949 . S
H1606 C1610 0.949 . S
C1607 C1608 1.349 . S
C1607 C1609 1.327 . S
C1607 H1630 0.950 . S
C1608 C1607 1.349 . S
C1608 C1620 1.349 . S
C1609 C1607 1.327 . S
C1609 C1625 1.429 . S
C1609 H1631 0.950 . S
C1610 H1606 0.949 . S
C1610 C1618 1.574 . S
C1610 C1626 1.368 . S
H1611 C1619 0.950 . S
H1612 C1617 0.950 . S
H1613 C1618 0.949 . S
H1614 C1620 0.950 . S
H1615 C1621 0.950 . S
H1616 C1622 0.949 . S
C1617 H1612 0.950 . S
C1617 C1619 1.327 . S
C1617 C1623 1.429 . S
C1618 C1610 1.574 . S
C1618 H1613 0.949 . S
C1618 C1624 1.368 . S
C1619 C1603 1.349 . S
C1619 H1611 0.950 . S
C1619 C1617 1.327 . S
C1620 C1608 1.349 . S
C1620 H1614 0.950 . S
C1620 C1621 1.327 . S
C1621 H1615 0.950 . S
C1621 C1620 1.327 . S
C1621 C1625 1.429 . S
C1622 C1605 1.574 . S
C1622 H1616 0.949 . S
C1622 C1626 1.368 . S
C1623 C1604 1.429 . S
C1623 C1617 1.429 . S
C1623 C1624 1.523 . S
C1624 C1605 1.368 . S
C1624 C1618 1.368 . S
C1624 C1623 1.523 . S
C1625 C1609 1.429 . S
C1625 C1621 1.429 . S
C1625 C1626 1.523 . S
C1626 C1610 1.368 . S
C1626 C1622 1.368 . S
C1626 C1625 1.523 . S
H1627 C1602 0.950 . S
H1628 C1604 0.950 . S
H1629 C1605 0.949 . S
H1630 C1607 0.950 . S
H1631 C1609 0.950 . S
C1632 C1633 1.349 . S
C1632 C1634 1.327 . S
C1632 H1657 0.950 . S
C1633 C1632 1.349 . S
C1633 C1649 1.349 . S
C1634 C1632 1.327 . S
C1634 C1653 1.429 . S
C1634 H1658 0.950 . S
C1635 C1652 1.574 . S
C1635 C1654 1.368 . S
C1635 H1659 0.949 . S
H1636 C1640 0.949 . S
C1637 C1638 1.349 . S
C1637 C1639 1.327 . S
C1637 H1660 0.950 . S
C1638 C1637 1.349 . S
C1638 C1650 1.349 . S
C1639 C1637 1.327 . S
C1639 C1655 1.429 . S
C1639 H1661 0.950 . S
C1640 H1636 0.949 . S
C1640 C1648 1.574 . S
C1640 C1656 1.368 . S
H1641 C1649 0.950 . S
H1642 C1647 0.950 . S
H1643 C1648 0.949 . S
H1644 C1650 0.950 . S
H1645 C1651 0.950 . S
H1646 C1652 0.949 . S
C1647 H1642 0.950 . S
C1647 C1649 1.327 . S
C1647 C1653 1.429 . S
C1648 C1640 1.574 . S
C1648 H1643 0.949 . S
C1648 C1654 1.368 . S
C1649 C1633 1.349 . S
C1649 H1641 0.950 . S
C1649 C1647 1.327 . S
C1650 C1638 1.349 . S
C1650 H1644 0.950 . S
C1650 C1651 1.327 . S
C1651 H1645 0.950 . S
C1651 C1650 1.327 . S
C1651 C1655 1.429 . S
C1652 C1635 1.574 . S
C1652 H1646 0.949 . S
C1652 C1656 1.368 . S
C1653 C1634 1.429 . S
C1653 C1647 1.429 . S
C1653 C1654 1.523 . S
C1654 C1635 1.368 . S
C1654 C1648 1.368 . S
C1654 C1653 1.523 . S
C1655 C1639 1.429 . S
C1655 C1651 1.429 . S
C1655 C1656 1.523 . S
C1656 C1640 1.368 . S
C1656 C1652 1.368 . S
C1656 C1655 1.523 . S
H1657 C1632 0.950 . S
H1658 C1634 0.950 . S
H1659 C1635 0.949 . S
H1660 C1637 0.950 . S
H1661 C1639 0.950 . S
C1662 C1663 1.349 . S
C1662 C1664 1.327 . S
C1662 H1687 0.950 . S
C1663 C1662 1.349 . S
C1663 C1679 1.349 . S
C1664 C1662 1.327 . S
C1664 C1683 1.429 . S
C1664 H1688 0.950 . S
C1665 C1682 1.574 . S
C1665 C1684 1.368 . S
C1665 H1689 0.949 . S
H1666 C1670 0.949 . S
C1667 C1668 1.349 . S
C1667 C1669 1.327 1_554 S
C1667 H1690 0.950 . S
C1668 C1667 1.349 . S
C1668 C1680 1.349 . S
C1669 C1667 1.327 1_556 S
C1669 C1685 1.429 . S
C1669 H1691 0.950 . S
C1670 H1666 0.949 . S
C1670 C1678 1.574 . S
C1670 C1686 1.368 . S
H1671 C1679 0.950 . S
H1672 C1677 0.950 . S
H1673 C1678 0.949 . S
H1674 C1680 0.950 . S
H1675 C1681 0.950 . S
H1676 C1682 0.949 . S
C1677 H1672 0.950 . S
C1677 C1679 1.327 . S
C1677 C1683 1.429 . S
C1678 C1670 1.574 . S
C1678 H1673 0.949 . S
C1678 C1684 1.368 . S
C1679 C1663 1.349 . S
C1679 H1671 0.950 . S
C1679 C1677 1.327 . S
C1680 C1668 1.349 . S
C1680 H1674 0.950 . S
C1680 C1681 1.327 1_554 S
C1681 H1675 0.950 . S
C1681 C1680 1.327 1_556 S
C1681 C1685 1.429 . S
C1682 C1665 1.574 . S
C1682 H1676 0.949 . S
C1682 C1686 1.368 . S
C1683 C1664 1.429 . S
C1683 C1677 1.429 . S
C1683 C1684 1.523 . S
C1684 C1665 1.368 . S
C1684 C1678 1.368 . S
C1684 C1683 1.523 . S
C1685 C1669 1.429 . S
C1685 C1681 1.429 . S
C1685 C1686 1.523 . S
C1686 C1670 1.368 . S
C1686 C1682 1.368 . S
C1686 C1685 1.523 . S
H1687 C1662 0.950 . S
H1688 C1664 0.950 . S
H1689 C1665 0.949 . S
H1690 C1667 0.950 . S
H1691 C1669 0.950 . S
C1692 C1693 1.349 . S
C1692 C1694 1.327 . S
C1692 H1717 0.950 . S
C1693 C1692 1.349 . S
C1693 C1709 1.349 . S
C1694 C1692 1.327 . S
C1694 C1713 1.429 . S
C1694 H1718 0.950 . S
C1695 C1712 1.574 . S
C1695 C1714 1.368 . S
C1695 H1719 0.949 . S
H1696 C1700 0.949 . S
C1697 C1698 1.349 . S
C1697 C1699 1.327 . S
C1697 H1720 0.950 . S
C1698 C1697 1.349 . S
C1698 C1710 1.349 . S
C1699 C1697 1.327 . S
C1699 C1715 1.429 . S
C1699 H1721 0.950 . S
C1700 H1696 0.949 . S
C1700 C1708 1.574 . S
C1700 C1716 1.368 . S
H1701 C1709 0.950 . S
H1702 C1707 0.950 . S
H1703 C1708 0.949 . S
H1704 C1710 0.950 . S
H1705 C1711 0.950 . S
H1706 C1712 0.949 . S
C1707 H1702 0.950 . S
C1707 C1709 1.327 . S
C1707 C1713 1.429 . S
C1708 C1700 1.574 . S
C1708 H1703 0.949 . S
C1708 C1714 1.368 . S
C1709 C1693 1.349 . S
C1709 H1701 0.950 . S
C1709 C1707 1.327 . S
C1710 C1698 1.349 . S
C1710 H1704 0.950 . S
C1710 C1711 1.327 . S
C1711 H1705 0.950 . S
C1711 C1710 1.327 . S
C1711 C1715 1.429 . S
C1712 C1695 1.574 . S
C1712 H1706 0.949 . S
C1712 C1716 1.368 . S
C1713 C1694 1.429 . S
C1713 C1707 1.429 . S
C1713 C1714 1.523 . S
C1714 C1695 1.368 . S
C1714 C1708 1.368 . S
C1714 C1713 1.523 . S
C1715 C1699 1.429 . S
C1715 C1711 1.429 . S
C1715 C1716 1.523 . S
C1716 C1700 1.368 . S
C1716 C1712 1.368 . S
C1716 C1715 1.523 . S
H1717 C1692 0.950 . S
H1718 C1694 0.950 . S
H1719 C1695 0.949 . S
H1720 C1697 0.950 . S
H1721 C1699 0.950 . S
C1722 C1723 1.349 . S
C1722 C1724 1.327 . S
C1722 H1747 0.950 . S
C1723 C1722 1.349 . S
C1723 C1739 1.349 . S
C1724 C1722 1.327 . S
C1724 C1743 1.429 . S
C1724 H1748 0.950 . S
C1725 C1742 1.574 . S
C1725 C1744 1.368 . S
C1725 H1749 0.949 . S
H1726 C1730 0.949 . S
C1727 C1728 1.349 . S
C1727 C1729 1.327 . S
C1727 H1750 0.950 . S
C1728 C1727 1.349 . S
C1728 C1740 1.349 . S
C1729 C1727 1.327 . S
C1729 C1745 1.429 . S
C1729 H1751 0.950 . S
C1730 H1726 0.949 . S
C1730 C1738 1.574 . S
C1730 C1746 1.368 . S
H1731 C1739 0.950 . S
H1732 C1737 0.950 . S
H1733 C1738 0.949 . S
H1734 C1740 0.950 . S
H1735 C1741 0.950 . S
H1736 C1742 0.949 . S
C1737 H1732 0.950 . S
C1737 C1739 1.327 . S
C1737 C1743 1.429 . S
C1738 C1730 1.574 . S
C1738 H1733 0.949 . S
C1738 C1744 1.368 . S
C1739 C1723 1.349 . S
C1739 H1731 0.950 . S
C1739 C1737 1.327 . S
C1740 C1728 1.349 . S
C1740 H1734 0.950 . S
C1740 C1741 1.327 . S
C1741 H1735 0.950 . S
C1741 C1740 1.327 . S
C1741 C1745 1.429 . S
C1742 C1725 1.574 . S
C1742 H1736 0.949 . S
C1742 C1746 1.368 . S
C1743 C1724 1.429 . S
C1743 C1737 1.429 . S
C1743 C1744 1.523 . S
C1744 C1725 1.368 . S
C1744 C1738 1.368 . S
C1744 C1743 1.523 . S
C1745 C1729 1.429 . S
C1745 C1741 1.429 . S
C1745 C1746 1.523 . S
C1746 C1730 1.368 . S
C1746 C1742 1.368 . S
C1746 C1745 1.523 . S
H1747 C1722 0.950 . S
H1748 C1724 0.950 . S
H1749 C1725 0.949 . S
H1750 C1727 0.950 . S
H1751 C1729 0.950 . S
C1752 C1753 1.349 . S
C1752 C1754 1.327 . S
C1752 H1777 0.950 . S
C1753 C1752 1.349 . S
C1753 C1769 1.349 . S
C1754 C1752 1.327 . S
C1754 C1773 1.429 . S
C1754 H1778 0.950 . S
C1755 C1772 1.574 . S
C1755 C1774 1.368 . S
C1755 H1779 0.949 . S
H1756 C1760 0.949 . S
C1757 C1758 1.349 . S
C1757 C1759 1.327 . S
C1757 H1780 0.950 . S
C1758 C1757 1.349 . S
C1758 C1770 1.349 . S
C1759 C1757 1.327 . S
C1759 C1775 1.429 . S
C1759 H1781 0.950 . S
C1760 H1756 0.949 . S
C1760 C1768 1.574 . S
C1760 C1776 1.368 . S
H1761 C1769 0.950 . S
H1762 C1767 0.950 . S
H1763 C1768 0.949 . S
H1764 C1770 0.950 . S
H1765 C1771 0.950 . S
H1766 C1772 0.949 . S
C1767 H1762 0.950 . S
C1767 C1769 1.327 . S
C1767 C1773 1.429 . S
C1768 C1760 1.574 . S
C1768 H1763 0.949 . S
C1768 C1774 1.368 . S
C1769 C1753 1.349 . S
C1769 H1761 0.950 . S
C1769 C1767 1.327 . S
C1770 C1758 1.349 . S
C1770 H1764 0.950 . S
C1770 C1771 1.327 . S
C1771 H1765 0.950 . S
C1771 C1770 1.327 . S
C1771 C1775 1.429 . S
C1772 C1755 1.574 . S
C1772 H1766 0.949 . S
C1772 C1776 1.368 . S
C1773 C1754 1.429 . S
C1773 C1767 1.429 . S
C1773 C1774 1.523 . S
C1774 C1755 1.368 . S
C1774 C1768 1.368 . S
C1774 C1773 1.523 . S
C1775 C1759 1.429 . S
C1775 C1771 1.429 . S
C1775 C1776 1.523 . S
C1776 C1760 1.368 . S
C1776 C1772 1.368 . S
C1776 C1775 1.523 . S
H1777 C1752 0.950 . S
H1778 C1754 0.950 . S
H1779 C1755 0.949 . S
H1780 C1757 0.950 . S
H1781 C1759 0.950 . S
C1782 C1783 1.349 . S
C1782 C1784 1.327 . S
C1782 H1807 0.950 . S
C1783 C1782 1.349 . S
C1783 C1799 1.349 . S
C1784 C1782 1.327 . S
C1784 C1803 1.429 . S
C1784 H1808 0.950 . S
C1785 C1802 1.574 . S
C1785 C1804 1.368 . S
C1785 H1809 0.949 . S
H1786 C1790 0.949 . S
C1787 C1788 1.349 . S
C1787 C1789 1.327 . S
C1787 H1810 0.950 . S
C1788 C1787 1.349 . S
C1788 C1800 1.349 . S
C1789 C1787 1.327 . S
C1789 C1805 1.429 . S
C1789 H1811 0.950 . S
C1790 H1786 0.949 . S
C1790 C1798 1.574 . S
C1790 C1806 1.368 . S
H1791 C1799 0.950 . S
H1792 C1797 0.950 . S
H1793 C1798 0.949 . S
H1794 C1800 0.950 . S
H1795 C1801 0.950 . S
H1796 C1802 0.949 . S
C1797 H1792 0.950 . S
C1797 C1799 1.327 . S
C1797 C1803 1.429 . S
C1798 C1790 1.574 . S
C1798 H1793 0.949 . S
C1798 C1804 1.368 . S
C1799 C1783 1.349 . S
C1799 H1791 0.950 . S
C1799 C1797 1.327 . S
C1800 C1788 1.349 . S
C1800 H1794 0.950 . S
C1800 C1801 1.327 . S
C1801 H1795 0.950 . S
C1801 C1800 1.327 . S
C1801 C1805 1.429 . S
C1802 C1785 1.574 . S
C1802 H1796 0.949 . S
C1802 C1806 1.368 . S
C1803 C1784 1.429 . S
C1803 C1797 1.429 . S
C1803 C1804 1.523 . S
C1804 C1785 1.368 . S
C1804 C1798 1.368 . S
C1804 C1803 1.523 . S
C1805 C1789 1.429 . S
C1805 C1801 1.429 . S
C1805 C1806 1.523 . S
C1806 C1790 1.368 . S
C1806 C1802 1.368 . S
C1806 C1805 1.523 . S
H1807 C1782 0.950 . S
H1808 C1784 0.950 . S
H1809 C1785 0.949 . S
H1810 C1787 0.950 . S
H1811 C1789 0.950 . S
C1812 C1813 1.349 . S
C1812 C1814 1.327 . S
C1812 H1837 0.950 . S
C1813 C1812 1.349 . S
C1813 C1829 1.349 . S
C1814 C1812 1.327 . S
C1814 C1833 1.429 . S
C1814 H1838 0.950 . S
C1815 C1832 1.574 . S
C1815 C1834 1.368 . S
C1815 H1839 0.949 . S
H1816 C1820 0.949 . S
C1817 C1818 1.349 . S
C1817 C1819 1.327 . S
C1817 H1840 0.950 . S
C1818 C1817 1.349 . S
C1818 C1830 1.349 . S
C1819 C1817 1.327 . S
C1819 C1835 1.429 . S
C1819 H1841 0.950 . S
C1820 H1816 0.949 . S
C1820 C1828 1.574 . S
C1820 C1836 1.368 . S
H1821 C1829 0.950 . S
H1822 C1827 0.950 . S
H1823 C1828 0.949 . S
H1824 C1830 0.950 . S
H1825 C1831 0.950 . S
H1826 C1832 0.949 . S
C1827 H1822 0.950 . S
C1827 C1829 1.327 . S
C1827 C1833 1.429 . S
C1828 C1820 1.574 . S
C1828 H1823 0.949 . S
C1828 C1834 1.368 . S
C1829 C1813 1.349 . S
C1829 H1821 0.950 . S
C1829 C1827 1.327 . S
C1830 C1818 1.349 . S
C1830 H1824 0.950 . S
C1830 C1831 1.327 . S
C1831 H1825 0.950 . S
C1831 C1830 1.327 . S
C1831 C1835 1.429 . S
C1832 C1815 1.574 . S
C1832 H1826 0.949 . S
C1832 C1836 1.368 . S
C1833 C1814 1.429 . S
C1833 C1827 1.429 . S
C1833 C1834 1.523 . S
C1834 C1815 1.368 . S
C1834 C1828 1.368 . S
C1834 C1833 1.523 . S
C1835 C1819 1.429 . S
C1835 C1831 1.429 . S
C1835 C1836 1.523 . S
C1836 C1820 1.368 . S
C1836 C1832 1.368 . S
C1836 C1835 1.523 . S
H1837 C1812 0.950 . S
H1838 C1814 0.950 . S
H1839 C1815 0.949 . S
H1840 C1817 0.950 . S
H1841 C1819 0.950 . S
C1842 C1843 1.349 . S
C1842 C1844 1.327 . S
C1842 H1867 0.950 . S
C1843 C1842 1.349 . S
C1843 C1859 1.349 . S
C1844 C1842 1.327 . S
C1844 C1863 1.429 . S
C1844 H1868 0.950 . S
C1845 C1862 1.574 . S
C1845 C1864 1.368 . S
C1845 H1869 0.949 . S
H1846 C1850 0.949 . S
C1847 C1848 1.349 . S
C1847 C1849 1.327 . S
C1847 H1870 0.950 . S
C1848 C1847 1.349 . S
C1848 C1860 1.349 . S
C1849 C1847 1.327 . S
C1849 C1865 1.429 . S
C1849 H1871 0.950 . S
C1850 H1846 0.949 . S
C1850 C1858 1.574 . S
C1850 C1866 1.368 . S
H1851 C1859 0.950 . S
H1852 C1857 0.950 . S
H1853 C1858 0.949 . S
H1854 C1860 0.950 . S
H1855 C1861 0.950 . S
H1856 C1862 0.949 . S
C1857 H1852 0.950 . S
C1857 C1859 1.327 . S
C1857 C1863 1.429 . S
C1858 C1850 1.574 . S
C1858 H1853 0.949 . S
C1858 C1864 1.368 . S
C1859 C1843 1.349 . S
C1859 H1851 0.950 . S
C1859 C1857 1.327 . S
C1860 C1848 1.349 . S
C1860 H1854 0.950 . S
C1860 C1861 1.327 . S
C1861 H1855 0.950 . S
C1861 C1860 1.327 . S
C1861 C1865 1.429 . S
C1862 C1845 1.574 . S
C1862 H1856 0.949 . S
C1862 C1866 1.368 . S
C1863 C1844 1.429 . S
C1863 C1857 1.429 . S
C1863 C1864 1.523 . S
C1864 C1845 1.368 . S
C1864 C1858 1.368 . S
C1864 C1863 1.523 . S
C1865 C1849 1.429 . S
C1865 C1861 1.429 . S
C1865 C1866 1.523 . S
C1866 C1850 1.368 . S
C1866 C1862 1.368 . S
C1866 C1865 1.523 . S
H1867 C1842 0.950 . S
H1868 C1844 0.950 . S
H1869 C1845 0.949 . S
H1870 C1847 0.950 . S
H1871 C1849 0.950 . S
C1872 C1873 1.349 . S
C1872 C1874 1.327 . S
C1872 H1897 0.950 . S
C1873 C1872 1.349 . S
C1873 C1889 1.349 . S
C1874 C1872 1.327 . S
C1874 C1893 1.429 . S
C1874 H1898 0.950 . S
C1875 C1892 1.574 . S
C1875 C1894 1.368 . S
C1875 H1899 0.949 . S
H1876 C1880 0.949 . S
C1877 C1878 1.349 . S
C1877 C1879 1.327 . S
C1877 H1900 0.950 . S
C1878 C1877 1.349 . S
C1878 C1890 1.349 . S
C1879 C1877 1.327 . S
C1879 C1895 1.442 . S
C1879 H1901 0.950 1_556 S
C1880 H1876 0.949 . S
C1880 C1888 1.574 . S
C1880 C1896 1.368 . S
H1881 C1889 0.950 . S
H1882 C1887 0.950 . S
H1883 C1888 0.949 . S
H1884 C1890 0.950 . S
H1885 C1891 0.950 . S
H1886 C1892 0.949 . S
C1887 H1882 0.950 . S
C1887 C1889 1.327 . S
C1887 C1893 1.429 . S
C1888 C1880 1.574 . S
C1888 H1883 0.949 . S
C1888 C1894 1.368 . S
C1889 C1873 1.349 . S
C1889 H1881 0.950 . S
C1889 C1887 1.327 . S
C1890 C1878 1.349 . S
C1890 H1884 0.950 . S
C1890 C1891 1.327 . S
C1891 H1885 0.950 . S
C1891 C1890 1.327 . S
C1891 C1895 1.463 . S
C1892 C1875 1.574 . S
C1892 H1886 0.949 . S
C1892 C1896 1.368 . S
C1893 C1874 1.429 . S
C1893 C1887 1.429 . S
C1893 C1894 1.523 . S
C1894 C1875 1.368 . S
C1894 C1888 1.368 . S
C1894 C1893 1.523 . S
C1895 C1879 1.442 . S
C1895 C1891 1.463 . S
C1895 C1896 1.480 1_556 S
C1896 C1880 1.368 . S
C1896 C1892 1.368 . S
C1896 C1895 1.480 1_554 S
H1897 C1872 0.950 . S
H1898 C1874 0.950 . S
H1899 C1875 0.949 . S
H1900 C1877 0.950 . S
H1901 C1879 0.950 1_554 S
C1902 C1903 1.349 . S
C1902 C1904 1.327 . S
C1902 H1927 0.950 . S
C1903 C1902 1.349 . S
C1903 C1919 1.349 . S
C1904 C1902 1.327 . S
C1904 C1923 1.429 . S
C1904 H1928 0.950 . S
C1905 C1922 1.574 . S
C1905 C1924 1.368 . S
C1905 H1929 0.949 . S
H1906 C1910 0.949 . S
C1907 C1908 1.349 . S
C1907 C1909 1.327 . S
C1907 H1930 0.950 . S
C1908 C1907 1.349 . S
C1908 C1920 1.349 . S
C1909 C1907 1.327 . S
C1909 C1925 1.429 . S
C1909 H1931 0.950 . S
C1910 H1906 0.949 . S
C1910 C1918 1.574 . S
C1910 C1926 1.368 . S
H1911 C1919 0.950 . S
H1912 C1917 0.950 . S
H1913 C1918 0.949 . S
H1914 C1920 0.950 . S
H1915 C1921 0.950 . S
H1916 C1922 0.949 . S
C1917 H1912 0.950 . S
C1917 C1919 1.327 . S
C1917 C1923 1.429 . S
C1918 C1910 1.574 . S
C1918 H1913 0.949 . S
C1918 C1924 1.368 . S
C1919 C1903 1.349 . S
C1919 H1911 0.950 . S
C1919 C1917 1.327 . S
C1920 C1908 1.349 . S
C1920 H1914 0.950 . S
C1920 C1921 1.327 . S
C1921 H1915 0.950 . S
C1921 C1920 1.327 . S
C1921 C1925 1.429 . S
C1922 C1905 1.574 . S
C1922 H1916 0.949 . S
C1922 C1926 1.368 . S
C1923 C1904 1.429 . S
C1923 C1917 1.429 . S
C1923 C1924 1.523 . S
C1924 C1905 1.368 . S
C1924 C1918 1.368 . S
C1924 C1923 1.523 . S
C1925 C1909 1.429 . S
C1925 C1921 1.429 . S
C1925 C1926 1.523 . S
C1926 C1910 1.368 . S
C1926 C1922 1.368 . S
C1926 C1925 1.523 . S
H1927 C1902 0.950 . S
H1928 C1904 0.950 . S
H1929 C1905 0.949 . S
H1930 C1907 0.950 . S
H1931 C1909 0.950 . S
C1218 C1153 1.686 . S
C1213 C1 1.208 . S
C1243 C169 1.614 . S
C1248 C713 1.856 . S
C1273 C283 1.578 . S
C1278 C801 1.818 . S
C1303 C397 1.435 . S
C1308 C880 1.662 . S
C1338 C977 1.497 . S
C1333 C457 1.068 . S
C1363 C571 1.089 . S
C1368 C1056 1.533 . S
C1393 C115 1.208 . S
C1398 C821 1.686 . S
C1423 C229 1.088 . S
C1428 C917 1.532 . S
C1453 C343 1.068 . S
C1458 C997 1.497 . S
C1488 C1093 1.661 . S
C1483 C511 1.435 . S
C1518 C1173 1.818 . S
C1513 C625 1.578 . S
C1548 C733 1.856 . S
C1543 C55 1.614 . S
C1573 C29 1.093 . S
C1578 C829 1.356 . S
C1603 C125 0.924 . S
C1608 C909 1.472 . S
C1638 C1005 1.398 . S
C1633 C239 0.882 . S
C1663 C353 0.885 . S
C1668 C1085 1.385 . S
C1698 C1181 1.272 . S
C1693 C485 1.020 . S
C1728 C741 1.348 . S
C1723 C599 1.078 . S
C1758 C1144 1.356 . S
C1753 C143 1.093 . S
C1783 C257 1.079 . S
C1788 C704 1.348 . S
C1818 C792 1.272 . S
C1813 C371 1.020 . S
C1843 C467 0.885 . S
C1848 C889 1.385 . S
C1873 C581 0.882 . S
C1878 C968 1.398 . S
C1903 C11 0.924 . S
C1908 C1065 1.472 . S
