# Generated by pormake.
# Topology ptr, (4,4)-cn, num edge types: 1
# Building blocks:
#     Node 0, Type 0, BuildingBlock: GALJAG_clean_sbu_0, # of connection points: 4
#     Node 1, Type 0, BuildingBlock: GALJAG_clean_sbu_0, # of connection points: 4
#     Node 2, Type 0, BuildingBlock: GALJAG_clean_sbu_0, # of connection points: 4
#     Node 3, Type 0, BuildingBlock: GALJAG_clean_sbu_0, # of connection points: 4
#     Node 4, Type 0, BuildingBlock: GALJAG_clean_sbu_0, # of connection points: 4
#     Node 5, Type 0, BuildingBlock: GALJAG_clean_sbu_0, # of connection points: 4
#     Node 6, Type 0, BuildingBlock: GALJAG_clean_sbu_0, # of connection points: 4
#     Node 7, Type 0, BuildingBlock: GALJAG_clean_sbu_0, # of connection points: 4
#     Node 8, Type 0, BuildingBlock: GALJAG_clean_sbu_0, # of connection points: 4
#     Node 9, Type 0, BuildingBlock: GALJAG_clean_sbu_0, # of connection points: 4
#     Node 10, Type 0, BuildingBlock: GALJAG_clean_sbu_0, # of connection points: 4
#     Node 11, Type 0, BuildingBlock: GALJAG_clean_sbu_0, # of connection points: 4
#     Node 12, Type 0, BuildingBlock: GALJAG_clean_sbu_0, # of connection points: 4
#     Node 13, Type 0, BuildingBlock: GALJAG_clean_sbu_0, # of connection points: 4
#     Node 14, Type 0, BuildingBlock: GALJAG_clean_sbu_0, # of connection points: 4
#     Node 15, Type 0, BuildingBlock: GALJAG_clean_sbu_0, # of connection points: 4
#     Node 16, Type 0, BuildingBlock: GALJAG_clean_sbu_0, # of connection points: 4
#     Node 17, Type 0, BuildingBlock: GALJAG_clean_sbu_0, # of connection points: 4
#     Node 18, Type 1, BuildingBlock: NAHDIM_clean_linker_0, # of connection points: 4
#     Node 19, Type 1, BuildingBlock: NAHDIM_clean_linker_0, # of connection points: 4
#     Node 20, Type 1, BuildingBlock: NAHDIM_clean_linker_0, # of connection points: 4
#     Node 21, Type 1, BuildingBlock: NAHDIM_clean_linker_0, # of connection points: 4
#     Node 22, Type 1, BuildingBlock: NAHDIM_clean_linker_0, # of connection points: 4
#     Node 23, Type 1, BuildingBlock: NAHDIM_clean_linker_0, # of connection points: 4
#     Node 24, Type 1, BuildingBlock: NAHDIM_clean_linker_0, # of connection points: 4
#     Node 25, Type 1, BuildingBlock: NAHDIM_clean_linker_0, # of connection points: 4
#     Node 26, Type 1, BuildingBlock: NAHDIM_clean_linker_0, # of connection points: 4
#     Node 27, Type 1, BuildingBlock: NAHDIM_clean_linker_0, # of connection points: 4
#     Node 28, Type 1, BuildingBlock: NAHDIM_clean_linker_0, # of connection points: 4
#     Node 29, Type 1, BuildingBlock: NAHDIM_clean_linker_0, # of connection points: 4
#     Node 30, Type 1, BuildingBlock: NAHDIM_clean_linker_0, # of connection points: 4
#     Node 31, Type 1, BuildingBlock: NAHDIM_clean_linker_0, # of connection points: 4
#     Node 32, Type 1, BuildingBlock: NAHDIM_clean_linker_0, # of connection points: 4
#     Node 33, Type 1, BuildingBlock: NAHDIM_clean_linker_0, # of connection points: 4
#     Node 34, Type 1, BuildingBlock: NAHDIM_clean_linker_0, # of connection points: 4
#     Node 35, Type 1, BuildingBlock: NAHDIM_clean_linker_0, # of connection points: 4
#     Edge 36, Type (0, 1), BuildingBlock: TEMPAE_clean_linker_10, # of connection points: 2
#     Edge 37, Type (0, 1), BuildingBlock: TEMPAE_clean_linker_10, # of connection points: 2
#     Edge 38, Type (0, 1), BuildingBlock: TEMPAE_clean_linker_10, # of connection points: 2
#     Edge 39, Type (0, 1), BuildingBlock: TEMPAE_clean_linker_10, # of connection points: 2
#     Edge 40, Type (0, 1), BuildingBlock: TEMPAE_clean_linker_10, # of connection points: 2
#     Edge 41, Type (0, 1), BuildingBlock: TEMPAE_clean_linker_10, # of connection points: 2
#     Edge 42, Type (0, 1), BuildingBlock: TEMPAE_clean_linker_10, # of connection points: 2
#     Edge 43, Type (0, 1), BuildingBlock: TEMPAE_clean_linker_10, # of connection points: 2
#     Edge 44, Type (0, 1), BuildingBlock: TEMPAE_clean_linker_10, # of connection points: 2
#     Edge 45, Type (0, 1), BuildingBlock: TEMPAE_clean_linker_10, # of connection points: 2
#     Edge 46, Type (0, 1), BuildingBlock: TEMPAE_clean_linker_10, # of connection points: 2
#     Edge 47, Type (0, 1), BuildingBlock: TEMPAE_clean_linker_10, # of connection points: 2
#     Edge 48, Type (0, 1), BuildingBlock: TEMPAE_clean_linker_10, # of connection points: 2
#     Edge 49, Type (0, 1), BuildingBlock: TEMPAE_clean_linker_10, # of connection points: 2
#     Edge 50, Type (0, 1), BuildingBlock: TEMPAE_clean_linker_10, # of connection points: 2
#     Edge 51, Type (0, 1), BuildingBlock: TEMPAE_clean_linker_10, # of connection points: 2
#     Edge 52, Type (0, 1), BuildingBlock: TEMPAE_clean_linker_10, # of connection points: 2
#     Edge 53, Type (0, 1), BuildingBlock: TEMPAE_clean_linker_10, # of connection points: 2
#     Edge 54, Type (0, 1), BuildingBlock: TEMPAE_clean_linker_10, # of connection points: 2
#     Edge 55, Type (0, 1), BuildingBlock: TEMPAE_clean_linker_10, # of connection points: 2
#     Edge 56, Type (0, 1), BuildingBlock: TEMPAE_clean_linker_10, # of connection points: 2
#     Edge 57, Type (0, 1), BuildingBlock: TEMPAE_clean_linker_10, # of connection points: 2
#     Edge 58, Type (0, 1), BuildingBlock: TEMPAE_clean_linker_10, # of connection points: 2
#     Edge 59, Type (0, 1), BuildingBlock: TEMPAE_clean_linker_10, # of connection points: 2
#     Edge 60, Type (0, 1), BuildingBlock: TEMPAE_clean_linker_10, # of connection points: 2
#     Edge 61, Type (0, 1), BuildingBlock: TEMPAE_clean_linker_10, # of connection points: 2
#     Edge 62, Type (0, 1), BuildingBlock: TEMPAE_clean_linker_10, # of connection points: 2
#     Edge 63, Type (0, 1), BuildingBlock: TEMPAE_clean_linker_10, # of connection points: 2
#     Edge 64, Type (0, 1), BuildingBlock: TEMPAE_clean_linker_10, # of connection points: 2
#     Edge 65, Type (0, 1), BuildingBlock: TEMPAE_clean_linker_10, # of connection points: 2
#     Edge 66, Type (0, 1), BuildingBlock: TEMPAE_clean_linker_10, # of connection points: 2
#     Edge 67, Type (0, 1), BuildingBlock: TEMPAE_clean_linker_10, # of connection points: 2
#     Edge 68, Type (0, 1), BuildingBlock: TEMPAE_clean_linker_10, # of connection points: 2
#     Edge 69, Type (0, 1), BuildingBlock: TEMPAE_clean_linker_10, # of connection points: 2
#     Edge 70, Type (0, 1), BuildingBlock: TEMPAE_clean_linker_10, # of connection points: 2
#     Edge 71, Type (0, 1), BuildingBlock: TEMPAE_clean_linker_10, # of connection points: 2
#     Edge 72, Type (0, 1), BuildingBlock: TEMPAE_clean_linker_10, # of connection points: 2
#     Edge 73, Type (0, 1), BuildingBlock: TEMPAE_clean_linker_10, # of connection points: 2
#     Edge 74, Type (0, 1), BuildingBlock: TEMPAE_clean_linker_10, # of connection points: 2
#     Edge 75, Type (0, 1), BuildingBlock: TEMPAE_clean_linker_10, # of connection points: 2
#     Edge 76, Type (0, 1), BuildingBlock: TEMPAE_clean_linker_10, # of connection points: 2
#     Edge 77, Type (0, 1), BuildingBlock: TEMPAE_clean_linker_10, # of connection points: 2
#     Edge 78, Type (0, 1), BuildingBlock: TEMPAE_clean_linker_10, # of connection points: 2
#     Edge 79, Type (0, 1), BuildingBlock: TEMPAE_clean_linker_10, # of connection points: 2
#     Edge 80, Type (0, 1), BuildingBlock: TEMPAE_clean_linker_10, # of connection points: 2
#     Edge 81, Type (0, 1), BuildingBlock: TEMPAE_clean_linker_10, # of connection points: 2
#     Edge 82, Type (0, 1), BuildingBlock: TEMPAE_clean_linker_10, # of connection points: 2
#     Edge 83, Type (0, 1), BuildingBlock: TEMPAE_clean_linker_10, # of connection points: 2
#     Edge 84, Type (0, 1), BuildingBlock: TEMPAE_clean_linker_10, # of connection points: 2
#     Edge 85, Type (0, 1), BuildingBlock: TEMPAE_clean_linker_10, # of connection points: 2
#     Edge 86, Type (0, 1), BuildingBlock: TEMPAE_clean_linker_10, # of connection points: 2
#     Edge 87, Type (0, 1), BuildingBlock: TEMPAE_clean_linker_10, # of connection points: 2
#     Edge 88, Type (0, 1), BuildingBlock: TEMPAE_clean_linker_10, # of connection points: 2
#     Edge 89, Type (0, 1), BuildingBlock: TEMPAE_clean_linker_10, # of connection points: 2
#     Edge 90, Type (0, 1), BuildingBlock: TEMPAE_clean_linker_10, # of connection points: 2
#     Edge 91, Type (0, 1), BuildingBlock: TEMPAE_clean_linker_10, # of connection points: 2
#     Edge 92, Type (0, 1), BuildingBlock: TEMPAE_clean_linker_10, # of connection points: 2
#     Edge 93, Type (0, 1), BuildingBlock: TEMPAE_clean_linker_10, # of connection points: 2
#     Edge 94, Type (0, 1), BuildingBlock: TEMPAE_clean_linker_10, # of connection points: 2
#     Edge 95, Type (0, 1), BuildingBlock: TEMPAE_clean_linker_10, # of connection points: 2
#     Edge 96, Type (0, 1), BuildingBlock: TEMPAE_clean_linker_10, # of connection points: 2
#     Edge 97, Type (0, 1), BuildingBlock: TEMPAE_clean_linker_10, # of connection points: 2
#     Edge 98, Type (0, 1), BuildingBlock: TEMPAE_clean_linker_10, # of connection points: 2
#     Edge 99, Type (0, 1), BuildingBlock: TEMPAE_clean_linker_10, # of connection points: 2
#     Edge 100, Type (0, 1), BuildingBlock: TEMPAE_clean_linker_10, # of connection points: 2
#     Edge 101, Type (0, 1), BuildingBlock: TEMPAE_clean_linker_10, # of connection points: 2
#     Edge 102, Type (0, 1), BuildingBlock: TEMPAE_clean_linker_10, # of connection points: 2
#     Edge 103, Type (0, 1), BuildingBlock: TEMPAE_clean_linker_10, # of connection points: 2
#     Edge 104, Type (0, 1), BuildingBlock: TEMPAE_clean_linker_10, # of connection points: 2
#     Edge 105, Type (0, 1), BuildingBlock: TEMPAE_clean_linker_10, # of connection points: 2
#     Edge 106, Type (0, 1), BuildingBlock: TEMPAE_clean_linker_10, # of connection points: 2
#     Edge 107, Type (0, 1), BuildingBlock: TEMPAE_clean_linker_10, # of connection points: 2
# Relax obj value: 0.026
# Max RMSD: 0.104
# Mean RMSD: 0.052
data_MOF--net-ptr--node1-GALJAG_clean_sbu_0--node2-NAHDIM_clean_linker_0--edge1-TEMPAE_clean_linker_10
_symmetry_space_group_name_H-M    P1
_symmetry_Int_Tables_number       1
_symmetry_cell_setting            triclinic
loop_
_symmetry_equiv_pos_as_xyz
'x, y, z'
_cell_length_a     93.514904
_cell_length_b     93.190661
_cell_length_c     85.030246
_cell_angle_alpha  90.795843
_cell_angle_beta   90.42916
_cell_angle_gamma 120.00362
loop_
_atom_site_label
_atom_site_type_symbol
_atom_site_fract_x
_atom_site_fract_y
_atom_site_fract_z
_atom_type_partial_charge
In0 In 0.00245 0.34595 0.0078 0.0
O1 O 0.98589 0.34689 0.02686 0.0
O2 O 0.00934 0.36845 0.02336 0.0
C3 C 0.98378 0.31678 0.9925 0.0
C4 C 0.02291 0.33928 0.02451 0.0
C5 C 0.00658 0.36601 0.98376 0.0
O6 O 0.97763 0.32258 0.00215 0.0
O7 O 0.99915 0.32567 0.99074 0.0
O8 O 0.01809 0.36367 0.98856 0.0
O9 O 0.99325 0.35835 0.99114 0.0
C10 C 0.99612 0.36168 0.03103 0.0
O11 O 0.02812 0.34953 0.01343 0.0
O12 O 0.00763 0.3326 0.02693 0.0
In13 In 0.65484 0.6519 0.01393 0.0
O14 O 0.65285 0.6322 0.03123 0.0
O15 O 0.63111 0.63281 0.02518 0.0
C16 C 0.68348 0.65993 0.99977 0.0
C17 C 0.66332 0.67917 0.03203 0.0
C18 C 0.63454 0.64234 0.98859 0.0
O19 O 0.67631 0.64751 0.00854 0.0
O20 O 0.67624 0.66821 0.9983 0.0
O21 O 0.63353 0.65085 0.99976 0.0
O22 O 0.64573 0.63864 0.99021 0.0
C23 C 0.63751 0.62605 0.03304 0.0
O24 O 0.65489 0.67605 0.0195 0.0
O25 O 0.66729 0.66851 0.03543 0.0
In26 In 0.34252 0.00125 0.00567 0.0
O27 O 0.34867 0.02825 0.00514 0.0
O28 O 0.33367 0.01193 0.98663 0.0
C29 C 0.3594 0.0022 0.03182 0.0
C30 C 0.35784 0.99379 0.98289 0.0
C31 C 0.31181 0.98283 0.01685 0.0
O32 O 0.36219 0.01523 0.02486 0.0
O33 O 0.34826 0.9889 0.02553 0.0
O34 O 0.31854 0.97654 0.00858 0.0
O35 O 0.32045 0.99828 0.01915 0.0
C36 C 0.34062 0.02639 0.99254 0.0
O37 O 0.34233 0.98588 0.98431 0.0
O38 O 0.36546 0.00521 0.99301 0.0
In39 In 0.99393 0.64837 0.00239 0.0
O40 O 0.01268 0.65084 0.98406 0.0
O41 O 0.99187 0.62694 0.9873 0.0
C42 C 0.01267 0.67962 0.01367 0.0
C43 C 0.9697 0.65173 0.98857 0.0
C44 C 0.98921 0.63 0.02823 0.0
O45 O 0.01897 0.67164 0.00758 0.0
O46 O 0.99711 0.67186 0.01389 0.0
O47 O 0.97854 0.62537 0.01728 0.0
O48 O 0.00219 0.64356 0.02597 0.0
C49 C 0.00502 0.63572 0.97995 0.0
O50 O 0.96866 0.64655 0.00238 0.0
O51 O 0.98264 0.65455 0.98152 0.0
In52 In 0.35736 0.35815 0.00041 0.0
O53 O 0.35324 0.37542 0.98475 0.0
O54 O 0.37615 0.37599 0.98293 0.0
C55 C 0.33062 0.34929 0.01822 0.0
C56 C 0.34677 0.33077 0.98203 0.0
C57 C 0.37989 0.36652 0.024 0.0
O58 O 0.33898 0.36378 0.013 0.0
O59 O 0.33606 0.33973 0.01483 0.0
O60 O 0.37371 0.35285 0.01658 0.0
O61 O 0.37512 0.3762 0.01921 0.0
C62 C 0.36704 0.3815 0.97815 0.0
O63 O 0.36142 0.33866 0.98739 0.0
O64 O 0.33801 0.33712 0.9854 0.0
In65 In 0.64663 0.00411 0.00783 0.0
O66 O 0.64778 0.02376 0.025 0.0
O67 O 0.62612 -3e-05 0.02463 0.0
C68 C 0.67416 0.02159 0.99093 0.0
C69 C 0.656 0.98651 0.02574 0.0
C70 C 0.6245 0.99344 0.98379 0.0
O71 O 0.668 0.02862 0.99897 0.0
O72 O 0.66636 0.006 0.99141 0.0
O73 O 0.62878 0.98413 0.9905 0.0
O74 O 0.6311 0.008 0.98945 0.0
C75 C 0.63375 0.01436 0.03071 0.0
O76 O 0.64345 0.97957 0.01671 0.0
O77 O 0.66349 0.00213 0.02582 0.0
In78 In 0.67191 0.6828 0.34063 0.0
O79 O 0.6553 0.67812 0.36173 0.0
O80 O 0.67127 0.70311 0.35533 0.0
C81 C 0.64744 0.65644 0.32479 0.0
C82 C 0.69333 0.67499 0.3545 0.0
C83 C 0.68411 0.70608 0.31831 0.0
O84 O 0.64542 0.66106 0.33819 0.0
O85 O 0.66169 0.66522 0.31934 0.0
O86 O 0.6918 0.69905 0.32324 0.0
O87 O 0.67042 0.70148 0.32474 0.0
C88 C 0.66038 0.69327 0.36456 0.0
O89 O 0.69387 0.68859 0.35707 0.0
O90 O 0.68225 0.66553 0.34483 0.0
In91 In 0.31605 0.97638 0.34665 0.0
O92 O 0.31469 0.96532 0.37091 0.0
O93 O 0.29345 0.95358 0.35605 0.0
C94 C 0.34275 0.97735 0.33312 0.0
C95 C 0.32226 0.00468 0.36181 0.0
C96 C 0.29569 0.96871 0.32144 0.0
O97 O 0.33353 0.96617 0.34239 0.0
O98 O 0.33868 0.98816 0.33086 0.0
O99 O 0.30432 0.98337 0.32675 0.0
O100 O 0.2974 0.95798 0.32882 0.0
C101 C 0.30004 0.95362 0.36903 0.0
O102 O 0.31 0.99672 0.35267 0.0
O103 O 0.33131 0.99832 0.36345 0.0
In104 In 0.01832 0.33259 0.33864 0.0
O105 O 0.032 0.35812 0.32782 0.0
O106 O 0.00585 0.34615 0.32809 0.0
C107 C 0.04001 0.34357 0.36297 0.0
C108 C 0.02778 0.31934 0.31527 0.0
C109 C 0.98952 0.31105 0.35244 0.0
O110 O 0.03324 0.35144 0.35789 0.0
O111 O 0.03582 0.33004 0.35576 0.0
O112 O 0.99409 0.30763 0.33972 0.0
O113 O 0.9994 0.32518 0.35812 0.0
C114 C 0.01921 0.35874 0.32432 0.0
O115 O 0.01539 0.32125 0.31403 0.0
O116 O 0.03517 0.32375 0.32843 0.0
In117 In 0.66384 0.96874 0.34292 0.0
O118 O 0.68584 0.97327 0.32809 0.0
O119 O 0.66362 0.9503 0.32472 0.0
C120 C 0.67986 0.99552 0.36216 0.0
C121 C 0.64651 0.97812 0.32442 0.0
C122 C 0.65049 0.94508 0.36483 0.0
O123 O 0.6874 0.98976 0.35438 0.0
O124 O 0.66437 0.98746 0.36054 0.0
O125 O 0.64226 0.95011 0.35724 0.0
O126 O 0.6655 0.95174 0.36113 0.0
C127 C 0.67837 0.9596 0.32067 0.0
O128 O 0.63998 0.96394 0.33042 0.0
O129 O 0.66169 0.9872 0.32744 0.0
In130 In 0.02638 0.69521 0.33429 0.0
O131 O 0.02017 0.70685 0.31382 0.0
O132 O 0.04544 0.71704 0.3202 0.0
C133 C 0.99588 0.68308 0.34641 0.0
C134 C 0.02535 0.66789 0.32179 0.0
C135 C 0.04767 0.7093 0.3589 0.0
O136 O 0.00471 0.69814 0.34294 0.0
O137 O 0.00235 0.67431 0.34355 0.0
O138 O 0.05057 0.70248 0.34741 0.0
O139 O 0.03426 0.70939 0.35776 0.0
C140 C 0.03497 0.71751 0.31111 0.0
O141 O 0.02824 0.67188 0.33617 0.0
O142 O 0.02342 0.67796 0.31352 0.0
In143 In 0.31092 0.33384 0.34313 0.0
O144 O 0.30827 0.31404 0.3606 0.0
O145 O 0.32523 0.32 0.34211 0.0
C146 C 0.28764 0.32097 0.32007 0.0
C147 C 0.30056 0.34588 0.36687 0.0
C148 C 0.33859 0.35829 0.33018 0.0
O149 O 0.29395 0.31304 0.32605 0.0
O150 O 0.29287 0.3353 0.32593 0.0
O151 O 0.33742 0.35542 0.3447 0.0
O152 O 0.32562 0.34918 0.32224 0.0
C153 C 0.31904 0.31164 0.35422 0.0
O154 O 0.31534 0.35287 0.36249 0.0
O155 O 0.29088 0.33288 0.35915 0.0
In156 In 0.33638 0.02088 0.67345 0.0
O157 O 0.36377 0.03335 0.67973 0.0
O158 O 0.3476 0.01134 0.69167 0.0
C159 C 0.34235 0.04027 0.64819 0.0
C160 C 0.32389 0.03122 0.69658 0.0
C161 C 0.31809 0.99055 0.65974 0.0
O162 O 0.35059 0.03333 0.65135 0.0
O163 O 0.33094 0.03732 0.65767 0.0
O164 O 0.31164 0.99822 0.6661 0.0
O165 O 0.33364 0.99812 0.66042 0.0
C166 C 0.36223 0.02291 0.68982 0.0
O167 O 0.31722 0.0162 0.69219 0.0
O168 O 0.33675 0.04093 0.68926 0.0
In169 In 0.98407 0.31581 0.67913 0.0
O170 O 0.96876 0.32332 0.69405 0.0
O171 O 0.99311 0.34216 0.68887 0.0
C172 C 0.96385 0.30565 0.65349 0.0
C173 C 0.97626 0.2899 0.69812 0.0
C174 C 0.01525 0.32935 0.66854 0.0
O175 O 0.9612 0.31199 0.6655 0.0
O176 O 0.97658 0.30431 0.65444 0.0
O177 O 0.01008 0.31924 0.67969 0.0
O178 O 0.00487 0.33295 0.66312 0.0
C179 C 0.97979 0.3383 0.69576 0.0
O180 O 0.98445 0.30477 0.70284 0.0
O181 O 0.97249 0.28806 0.68367 0.0
In182 In 0.68204 0.66671 0.67342 0.0
O183 O 0.68782 0.69332 0.66956 0.0
O184 O 0.66521 0.67381 0.66021 0.0
C185 C 0.70678 0.68089 0.69501 0.0
C186 C 0.69384 0.6564 0.64955 0.0
C187 C 0.65479 0.64267 0.68762 0.0
O188 O 0.69442 0.68295 0.69519 0.0
O189 O 0.70674 0.67181 0.68383 0.0
O190 O 0.65613 0.64365 0.67289 0.0
O191 O 0.66727 0.65352 0.69511 0.0
C192 C 0.67467 0.68922 0.66193 0.0
O193 O 0.68963 0.64895 0.66245 0.0
O194 O 0.69208 0.66892 0.64873 0.0
In195 In 0.33164 0.30682 0.67657 0.0
O196 O 0.35368 0.30991 0.66268 0.0
O197 O 0.33042 0.28848 0.65774 0.0
C198 C 0.34717 0.33328 0.69628 0.0
C199 C 0.31631 0.31801 0.65754 0.0
C200 C 0.31739 0.28268 0.6979 0.0
O201 O 0.3549 0.32752 0.68884 0.0
O202 O 0.33175 0.32542 0.69407 0.0
O203 O 0.30938 0.28764 0.68984 0.0
O204 O 0.33259 0.28958 0.69489 0.0
C205 C 0.34553 0.29685 0.65446 0.0
O206 O 0.30847 0.30449 0.66466 0.0
O207 O 0.33172 0.3255 0.65977 0.0
In208 In 0.69269 0.02838 0.66979 0.0
O209 O 0.68759 0.03741 0.64685 0.0
O210 O 0.71261 0.0481 0.65423 0.0
C211 C 0.66936 0.03094 0.6861 0.0
C212 C 0.67986 0.99705 0.65821 0.0
C213 C 0.717 0.03802 0.69162 0.0
O214 O 0.67407 0.03724 0.67277 0.0
O215 O 0.67669 0.02374 0.69137 0.0
O216 O 0.70918 0.02343 0.68599 0.0
O217 O 0.71279 0.04785 0.68599 0.0
C218 C 0.70248 0.04758 0.64404 0.0
O219 O 0.6949 0.00777 0.65679 0.0
O220 O 0.67157 0.00208 0.66565 0.0
In221 In 0.97113 0.66232 0.6768 0.0
O222 O 0.96349 0.63938 0.69197 0.0
O223 O 0.98819 0.65282 0.68417 0.0
C224 C 0.94717 0.64898 0.65433 0.0
C225 C 0.96501 0.67754 0.70102 0.0
C226 C 0.99723 0.68181 0.65879 0.0
O227 O 0.95202 0.64058 0.66183 0.0
O228 O 0.95401 0.66405 0.65853 0.0
O229 O 0.99195 0.6878 0.66913 0.0
O230 O 0.98918 0.66624 0.65747 0.0
C231 C 0.97761 0.6407 0.69175 0.0
O232 O 0.95395 0.66804 0.69127 0.0
O233 O 0.97914 0.67953 0.6984 0.0
C234 C 0.21296 0.27951 0.06546 0.0
C235 C 0.22023 0.29758 0.0709 0.0
C236 C 0.21029 0.30082 0.09594 0.0
C237 C 0.21426 0.3168 0.10068 0.0
C238 C 0.20323 0.31941 0.10972 0.0
C239 C 0.18798 0.30564 0.114 0.0
C240 C 0.18404 0.28942 0.10927 0.0
C241 C 0.19538 0.2872 0.10037 0.0
C242 C 0.2078 0.33683 0.11458 0.0
C243 C 0.16784 0.27446 0.1135 0.0
C244 C 0.0881 0.31894 0.0645 0.0
C245 C 0.09832 0.3127 0.07201 0.0
C246 C 0.12123 0.32161 0.0908 0.0
C247 C 0.11799 0.30546 0.0939 0.0
C248 C 0.12804 0.30279 0.10437 0.0
C249 C 0.14174 0.31652 0.11177 0.0
C250 C 0.14502 0.33277 0.10876 0.0
C251 C 0.13464 0.33508 0.09836 0.0
C252 C 0.12416 0.28528 0.10734 0.0
C253 C 0.15962 0.34766 0.11636 0.0
C254 C 0.10369 0.30284 0.21167 0.0
C255 C 0.10118 0.28863 0.20327 0.0
C256 C 0.11422 0.28849 0.19535 0.0
C257 C 0.13006 0.30286 0.19572 0.0
C258 C 0.13262 0.31718 0.2041 0.0
C259 C 0.11938 0.31696 0.21197 0.0
C260 C 0.11107 0.27299 0.1865 0.0
C261 C 0.14933 0.33273 0.20463 0.0
C262 C 0.22229 0.26419 0.21536 0.0
C263 C 0.21952 0.27853 0.21995 0.0
C264 C 0.19418 0.27897 0.21367 0.0
C265 C 0.17808 0.26809 0.20842 0.0
C266 C 0.16893 0.27385 0.20024 0.0
C267 C 0.17595 0.29105 0.19771 0.0
C268 C 0.19196 0.30225 0.20374 0.0
C269 C 0.20099 0.29607 0.21158 0.0
C270 C 0.15184 0.26152 0.19414 0.0
C271 C 0.19958 0.32069 0.20177 0.0
C272 C 0.17588 0.30821 0.12296 0.0
C273 C 0.16552 0.31219 0.11449 0.0
C274 C 0.15312 0.31379 0.12191 0.0
C275 C 0.15104 0.31161 0.13833 0.0
C276 C 0.13863 0.31306 0.14616 0.0
C277 C 0.13642 0.31043 0.16226 0.0
C278 C 0.14645 0.30614 0.1711 0.0
C279 C 0.14391 0.30284 0.18733 0.0
C280 C 0.15407 0.29854 0.19576 0.0
C281 C 0.16664 0.29715 0.18837 0.0
C282 C 0.16936 0.30037 0.17212 0.0
C283 C 0.18177 0.29893 0.16425 0.0
C284 C 0.18414 0.3018 0.14821 0.0
C285 C 0.17401 0.30594 0.13937 0.0
C286 C 0.16151 0.30761 0.14707 0.0
C287 C 0.1592 0.30485 0.16347 0.0
C288 C 0.065 0.2901 0.20651 0.0
C289 C 0.07518 0.29114 0.22113 0.0
O290 O 0.22099 0.29855 0.08717 0.0
O291 O 0.20267 0.27253 0.22083 0.0
O292 O 0.09146 0.3036 0.21954 0.0
O293 O 0.11176 0.32464 0.08067 0.0
H294 H 0.21207 0.30219 0.06633 0.0
H295 H 0.20019 0.27197 0.06981 0.0
H296 H 0.22056 0.27431 0.07002 0.0
H297 H 0.21243 0.27854 0.0524 0.0
H298 H 0.22594 0.3272 0.0972 0.0
H299 H 0.1926 0.27487 0.09676 0.0
H300 H 0.19924 0.34018 0.10876 0.0
H301 H 0.22065 0.34604 0.11138 0.0
H302 H 0.20647 0.33758 0.12749 0.0
H303 H 0.16616 0.26287 0.10789 0.0
H304 H 0.1574 0.27622 0.10985 0.0
H305 H 0.16728 0.27299 0.12645 0.0
H306 H 0.10157 0.30509 0.06417 0.0
H307 H 0.08935 0.31763 0.05148 0.0
H308 H 0.09581 0.33288 0.06474 0.0
H309 H 0.0654 0.30604 0.07593 0.0
H310 H 0.1077 0.29487 0.08815 0.0
H311 H 0.13705 0.34748 0.09593 0.0
H312 H 0.13422 0.28348 0.10264 0.0
H313 H 0.11231 0.27589 0.1017 0.0
H314 H 0.12353 0.28307 0.12018 0.0
H315 H 0.16044 0.35949 0.11289 0.0
H316 H 0.1712 0.34791 0.11299 0.0
H317 H 0.15873 0.34671 0.12935 0.0
H318 H 0.07462 0.27904 0.22269 0.0
H319 H 0.08913 0.2776 0.20275 0.0
H320 H 0.12121 0.32788 0.21842 0.0
H321 H 0.11327 0.27562 0.17379 0.0
H322 H 0.09825 0.26259 0.18793 0.0
H323 H 0.11981 0.26902 0.19068 0.0
H324 H 0.14919 0.34301 0.21128 0.0
H325 H 0.15349 0.33683 0.19248 0.0
H326 H 0.15851 0.3301 0.21025 0.0
H327 H 0.225 0.28785 0.21051 0.0
H328 H 0.23569 0.26866 0.21421 0.0
H329 H 0.21611 0.25871 0.20385 0.0
H330 H 0.21709 0.25437 0.22433 0.0
H331 H 0.17287 0.25494 0.21035 0.0
H332 H 0.21327 0.30459 0.21616 0.0
H333 H 0.15064 0.26349 0.18146 0.0
H334 H 0.14259 0.26341 0.20054 0.0
H335 H 0.14886 0.2485 0.19569 0.0
H336 H 0.21126 0.32783 0.20869 0.0
H337 H 0.19078 0.32477 0.20548 0.0
H338 H 0.20226 0.32371 0.18917 0.0
H339 H 0.16686 0.31361 0.10185 0.0
H340 H 0.13045 0.31618 0.13992 0.0
H341 H 0.12664 0.31168 0.16766 0.0
H342 H 0.15186 0.29578 0.20816 0.0
H343 H 0.18979 0.29552 0.17037 0.0
H344 H 0.19391 0.30055 0.1428 0.0
H345 H 0.05192 0.28022 0.20785 0.0
H346 H 0.06988 0.28709 0.19589 0.0
H347 H 0.06545 0.30211 0.20466 0.0
C348 C 0.71775 0.94353 0.09949 0.0
C349 C 0.70406 0.92951 0.08947 0.0
C350 C 0.69376 0.90486 0.10604 0.0
C351 C 0.6803 0.89352 0.1147 0.0
C352 C 0.68052 0.8804 0.12235 0.0
C353 C 0.69472 0.87874 0.12144 0.0
C354 C 0.70844 0.89016 0.11271 0.0
C355 C 0.7078 0.90307 0.10501 0.0
C356 C 0.6656 0.86831 0.13141 0.0
C357 C 0.72379 0.88875 0.11152 0.0
C358 C 0.6872 0.76596 0.07166 0.0
C359 C 0.69339 0.78272 0.07884 0.0
C360 C 0.68436 0.79727 0.09673 0.0
C361 C 0.70032 0.81076 0.09966 0.0
C362 C 0.70284 0.82377 0.10989 0.0
C363 C 0.68914 0.82336 0.11728 0.0
C364 C 0.67308 0.80983 0.11438 0.0
C365 C 0.67091 0.79692 0.10414 0.0
C366 C 0.72015 0.83803 0.11276 0.0
C367 C 0.65824 0.80906 0.12209 0.0
C368 C 0.70796 0.80006 0.21569 0.0
C369 C 0.72252 0.81305 0.20946 0.0
C370 C 0.72243 0.82631 0.20194 0.0
C371 C 0.70755 0.82674 0.20079 0.0
C372 C 0.69291 0.81378 0.20714 0.0
C373 C 0.69331 0.80054 0.2144 0.0
C374 C 0.73821 0.83981 0.19508 0.0
C375 C 0.67684 0.81387 0.20615 0.0
C376 C 0.74376 0.9586 0.22147 0.0
C377 C 0.72981 0.94098 0.22446 0.0
C378 C 0.73016 0.91535 0.21911 0.0
C379 C 0.74113 0.9102 0.21425 0.0
C380 C 0.73545 0.89496 0.20635 0.0
C381 C 0.71827 0.88436 0.20377 0.0
C382 C 0.70702 0.88906 0.2096 0.0
C383 C 0.7131 0.90463 0.21706 0.0
C384 C 0.74786 0.89035 0.20053 0.0
C385 C 0.68861 0.8778 0.20768 0.0
C386 C 0.6952 0.86501 0.1296 0.0
C387 C 0.69143 0.85074 0.12081 0.0
C388 C 0.69171 0.83737 0.12771 0.0
C389 C 0.69535 0.83795 0.14396 0.0
C390 C 0.6953 0.82453 0.15136 0.0
C391 C 0.69907 0.82531 0.16733 0.0
C392 C 0.70318 0.83959 0.17647 0.0
C393 C 0.70726 0.84059 0.19266 0.0
C394 C 0.71166 0.85513 0.20132 0.0
C395 C 0.71224 0.86885 0.19423 0.0
C396 C 0.708 0.86801 0.17809 0.0
C397 C 0.7085 0.88159 0.17054 0.0
C398 C 0.70419 0.8806 0.15471 0.0
C399 C 0.69951 0.8661 0.14572 0.0
C400 C 0.69934 0.85242 0.15298 0.0
C401 C 0.70341 0.8533 0.16922 0.0
C402 C 0.72574 0.77771 0.21341 0.0
C403 C 0.72056 0.78478 0.22723 0.0
O404 O 0.69262 0.91729 0.09903 0.0
O405 O 0.7365 0.93071 0.22572 0.0
O406 O 0.70738 0.7868 0.22283 0.0
O407 O 0.68147 0.7844 0.08692 0.0
H408 H 0.70961 0.92412 0.0815 0.0
H409 H 0.72449 0.93883 0.10658 0.0
H410 H 0.71247 0.94901 0.10767 0.0
H411 H 0.72678 0.9534 0.09181 0.0
H412 H 0.66952 0.89498 0.11542 0.0
H413 H 0.71836 0.91169 0.09836 0.0
H414 H 0.66149 0.85544 0.12732 0.0
H415 H 0.65513 0.87068 0.13011 0.0
H416 H 0.66894 0.86922 0.14408 0.0
H417 H 0.73394 0.89944 0.10547 0.0
H418 H 0.72081 0.87722 0.10488 0.0
H419 H 0.7282 0.88788 0.12345 0.0
H420 H 0.70077 0.79327 0.0709 0.0
H421 H 0.70032 0.7567 0.08395 0.0
H422 H 0.68834 0.76801 0.05861 0.0
H423 H 0.67331 0.75966 0.07153 0.0
H424 H 0.71087 0.81125 0.094 0.0
H425 H 0.65866 0.78647 0.10184 0.0
H426 H 0.72093 0.84974 0.10895 0.0
H427 H 0.72954 0.83635 0.10636 0.0
H428 H 0.7232 0.83937 0.12553 0.0
H429 H 0.64658 0.79758 0.11877 0.0
H430 H 0.65718 0.81995 0.11866 0.0
H431 H 0.65986 0.80965 0.13507 0.0
H432 H 0.7313 0.79695 0.23089 0.0
H433 H 0.73399 0.81289 0.21023 0.0
H434 H 0.68212 0.79048 0.21919 0.0
H435 H 0.73623 0.84132 0.18246 0.0
H436 H 0.74854 0.83721 0.19614 0.0
H437 H 0.74186 0.85174 0.20125 0.0
H438 H 0.66672 0.80329 0.21235 0.0
H439 H 0.67311 0.81326 0.19362 0.0
H440 H 0.67849 0.82562 0.21133 0.0
H441 H 0.72123 0.93714 0.21408 0.0
H442 H 0.73875 0.9671 0.22002 0.0
H443 H 0.75024 0.95875 0.21052 0.0
H444 H 0.75286 0.96322 0.23141 0.0
H445 H 0.75425 0.91848 0.21616 0.0
H446 H 0.70455 0.90837 0.22132 0.0
H447 H 0.74535 0.88629 0.18797 0.0
H448 H 0.74673 0.87982 0.20741 0.0
H449 H 0.76076 0.90079 0.20177 0.0
H450 H 0.68158 0.88199 0.21506 0.0
H451 H 0.68506 0.86493 0.21084 0.0
H452 H 0.68496 0.87757 0.19519 0.0
H453 H 0.68851 0.85015 0.10836 0.0
H454 H 0.69229 0.81325 0.14489 0.0
H455 H 0.69881 0.81458 0.17238 0.0
H456 H 0.71499 0.85588 0.21368 0.0
H457 H 0.71216 0.89315 0.17677 0.0
H458 H 0.70471 0.89141 0.14957 0.0
H459 H 0.73587 0.7755 0.21717 0.0
H460 H 0.73028 0.78655 0.20359 0.0
H461 H 0.71517 0.76587 0.20889 0.0
C462 C 0.22837 0.91928 0.05905 0.0
C463 C 0.21257 0.90886 0.06732 0.0
C464 C 0.20208 0.8925 0.09101 0.0
C465 C 0.18785 0.89394 0.09199 0.0
C466 C 0.17549 0.88471 0.10279 0.0
C467 C 0.17701 0.87328 0.11244 0.0
C468 C 0.19138 0.87187 0.1116 0.0
C469 C 0.20388 0.88177 0.10109 0.0
C470 C 0.16056 0.8869 0.1035 0.0
C471 C 0.19334 0.85961 0.12147 0.0
C472 C 0.05736 0.78612 0.0863 0.0
C473 C 0.07156 0.78589 0.07757 0.0
C474 C 0.09516 0.7984 0.09627 0.0
C475 C 0.10588 0.79528 0.10518 0.0
C476 C 0.11909 0.808 0.11381 0.0
C477 C 0.12137 0.8242 0.11378 0.0
C478 C 0.11046 0.82743 0.10493 0.0
C479 C 0.09759 0.81456 0.0961 0.0
C480 C 0.13063 0.80414 0.12293 0.0
C481 C 0.11241 0.84451 0.10468 0.0
C482 C 0.08698 0.81646 0.21198 0.0
C483 C 0.09863 0.81135 0.20974 0.0
C484 C 0.11377 0.8218 0.20258 0.0
C485 C 0.11719 0.83758 0.19744 0.0
C486 C 0.10572 0.84299 0.20031 0.0
C487 C 0.09084 0.8324 0.20776 0.0
C488 C 0.12595 0.81587 0.2002 0.0
C489 C 0.109 0.85978 0.19515 0.0
C490 C 0.22316 0.95121 0.21638 0.0
C491 C 0.21663 0.93745 0.22855 0.0
C492 C 0.20125 0.91088 0.21387 0.0
C493 C 0.20093 0.89604 0.21036 0.0
C494 C 0.18755 0.88306 0.20213 0.0
C495 C 0.17429 0.88514 0.19702 0.0
C496 C 0.17454 0.90017 0.20043 0.0
C497 C 0.18796 0.91286 0.20891 0.0
C498 C 0.18761 0.86713 0.19886 0.0
C499 C 0.16065 0.90285 0.19505 0.0
C500 C 0.16294 0.8619 0.12232 0.0
C501 C 0.14951 0.8485 0.1147 0.0
C502 C 0.13529 0.83781 0.12284 0.0
C503 C 0.13437 0.84038 0.13913 0.0
C504 C 0.12007 0.83011 0.14759 0.0
C505 C 0.11931 0.83266 0.16364 0.0
C506 C 0.13286 0.84551 0.17189 0.0
C507 C 0.13226 0.84806 0.18827 0.0
C508 C 0.14596 0.86097 0.19609 0.0
C509 C 0.16024 0.87167 0.18795 0.0
C510 C 0.16097 0.86948 0.17153 0.0
C511 C 0.17494 0.8803 0.16288 0.0
C512 C 0.17557 0.87795 0.14675 0.0
C513 C 0.16236 0.86457 0.13867 0.0
C514 C 0.14805 0.85367 0.14711 0.0
C515 C 0.14731 0.8562 0.16353 0.0
C516 C 0.04545 0.78536 0.20916 0.0
C517 C 0.06241 0.7894 0.21556 0.0
O518 O 0.21418 0.90111 0.08048 0.0
O519 O 0.21467 0.9229 0.22187 0.0
O520 O 0.07193 0.80637 0.21818 0.0
O521 O 0.08265 0.78545 0.08819 0.0
H522 H 0.20187 0.9003 0.0596 0.0
H523 H 0.22663 0.91308 0.04718 0.0
H524 H 0.23741 0.91558 0.06354 0.0
H525 H 0.23222 0.9434 0.06184 0.0
H526 H 0.18622 0.90222 0.08435 0.0
H527 H 0.21491 0.88077 0.10032 0.0
H528 H 0.1503 0.87671 0.09662 0.0
H529 H 0.16306 0.89884 0.09839 0.0
H530 H 0.15644 0.8864 0.11579 0.0
H531 H 0.20467 0.85916 0.11857 0.0
H532 H 0.18245 0.84702 0.11973 0.0
H533 H 0.19397 0.86305 0.13411 0.0
H534 H 0.07798 0.79716 0.07031 0.0
H535 H 0.04835 0.78616 0.07772 0.0
H536 H 0.06205 0.79737 0.09392 0.0
H537 H 0.05087 0.77511 0.09384 0.0
H538 H 0.10392 0.7828 0.10524 0.0
H539 H 0.0895 0.81729 0.08923 0.0
H540 H 0.14362 0.81288 0.11977 0.0
H541 H 0.12798 0.79126 0.12069 0.0
H542 H 0.12944 0.8058 0.13571 0.0
H543 H 0.1014 0.84438 0.09952 0.0
H544 H 0.12326 0.85265 0.09751 0.0
H545 H 0.11466 0.85 0.11675 0.0
H546 H 0.06799 0.78518 0.20635 0.0
H547 H 0.09593 0.79923 0.21359 0.0
H548 H 0.08186 0.83631 0.20981 0.0
H549 H 0.12669 0.81358 0.18747 0.0
H550 H 0.12238 0.80423 0.20654 0.0
H551 H 0.13846 0.82554 0.20431 0.0
H552 H 0.09842 0.86175 0.19746 0.0
H553 H 0.11165 0.86121 0.18238 0.0
H554 H 0.12005 0.86959 0.20153 0.0
H555 H 0.20456 0.93543 0.23285 0.0
H556 H 0.22516 0.96297 0.2219 0.0
H557 H 0.21413 0.94786 0.20653 0.0
H558 H 0.23499 0.95328 0.21144 0.0
H559 H 0.21122 0.89462 0.21421 0.0
H560 H 0.188 0.92428 0.21142 0.0
H561 H 0.18831 0.86547 0.18599 0.0
H562 H 0.17594 0.85641 0.20293 0.0
H563 H 0.19819 0.86697 0.20472 0.0
H564 H 0.16332 0.91571 0.19748 0.0
H565 H 0.14918 0.89416 0.2012 0.0
H566 H 0.1583 0.90014 0.18224 0.0
H567 H 0.15002 0.84652 0.10215 0.0
H568 H 0.10927 0.81998 0.1419 0.0
H569 H 0.10795 0.82435 0.16949 0.0
H570 H 0.14545 0.8628 0.20866 0.0
H571 H 0.18553 0.89075 0.16849 0.0
H572 H 0.18661 0.88669 0.1407 0.0
H573 H 0.03759 0.77181 0.20687 0.0
H574 H 0.04689 0.79184 0.19791 0.0
H575 H 0.03915 0.78945 0.21764 0.0
C576 C 0.33792 0.13383 0.95382 0.0
C577 C 0.32626 0.11749 0.94519 0.0
C578 C 0.32316 0.12529 0.9188 0.0
C579 C 0.30613 0.11931 0.91768 0.0
C580 C 0.29981 0.12649 0.90739 0.0
C581 C 0.31079 0.13997 0.89811 0.0
C582 C 0.32792 0.14555 0.89877 0.0
C583 C 0.33386 0.13792 0.90896 0.0
C584 C 0.28143 0.11992 0.90665 0.0
C585 C 0.34001 0.15994 0.88913 0.0
C586 C 0.27118 0.20618 0.95565 0.0
C587 C 0.2862 0.21196 0.94512 0.0
C588 C 0.2847 0.2 0.9193 0.0
C589 C 0.3012 0.20475 0.91651 0.0
C590 C 0.30518 0.19552 0.90607 0.0
C591 C 0.29233 0.18098 0.8987 0.0
C592 C 0.27562 0.17623 0.90155 0.0
C593 C 0.27207 0.18613 0.9115 0.0
C594 C 0.32311 0.2012 0.90313 0.0
C595 C 0.26148 0.16049 0.89453 0.0
C596 C 0.26598 0.18904 0.79925 0.0
C597 C 0.28305 0.19611 0.80186 0.0
C598 C 0.28947 0.18703 0.80913 0.0
C599 C 0.27855 0.17071 0.81412 0.0
C600 C 0.26138 0.16348 0.8111 0.0
C601 C 0.25538 0.17268 0.80345 0.0
C602 C 0.30789 0.19494 0.81168 0.0
C603 C 0.2493 0.14608 0.81608 0.0
C604 C 0.27486 0.05908 0.79953 0.0
C605 C 0.28124 0.07151 0.78608 0.0
C606 C 0.29284 0.09919 0.79861 0.0
C607 C 0.30731 0.11442 0.80097 0.0
C608 C 0.30708 0.12777 0.80857 0.0
C609 C 0.29199 0.12567 0.81428 0.0
C610 C 0.27728 0.11029 0.81194 0.0
C611 C 0.27781 0.09729 0.80397 0.0
C612 C 0.32296 0.14406 0.81067 0.0
C613 C 0.26096 0.10753 0.81796 0.0
C614 C 0.30456 0.14912 0.8888 0.0
C615 C 0.30173 0.16059 0.89686 0.0
C616 C 0.29629 0.17008 0.88899 0.0
C617 C 0.29395 0.1684 0.87247 0.0
C618 C 0.28918 0.17824 0.86406 0.0
C619 C 0.28623 0.17601 0.84791 0.0
C620 C 0.28819 0.16401 0.83948 0.0
C621 C 0.28491 0.16143 0.8231 0.0
C622 C 0.28669 0.14918 0.81516 0.0
C623 C 0.2916 0.1393 0.82317 0.0
C624 C 0.29509 0.14181 0.83952 0.0
C625 C 0.30001 0.13207 0.84796 0.0
C626 C 0.30327 0.13452 0.86407 0.0
C627 C 0.3015 0.14665 0.8724 0.0
C628 C 0.29633 0.15646 0.86419 0.0
C629 C 0.29333 0.15418 0.8477 0.0
C630 C 0.25115 0.2177 0.79606 0.0
C631 C 0.26552 0.21451 0.79371 0.0
O632 O 0.3296 0.11908 0.92924 0.0
O633 O 0.29404 0.08672 0.79136 0.0
O634 O 0.25926 0.19754 0.79265 0.0
O635 O 0.28068 0.20854 0.92962 0.0
H636 H 0.31339 0.11468 0.94726 0.0
H637 H 0.33594 0.14386 0.94936 0.0
H638 H 0.35102 0.13735 0.95193 0.0
H639 H 0.33546 0.13268 0.96664 0.0
H640 H 0.29777 0.10903 0.92484 0.0
H641 H 0.34697 0.14224 0.90977 0.0
H642 H 0.2787 0.12916 0.91211 0.0
H643 H 0.2744 0.10805 0.91292 0.0
H644 H 0.27704 0.118 0.89422 0.0
H645 H 0.353 0.16316 0.89142 0.0
H646 H 0.33883 0.171 0.89178 0.0
H647 H 0.33714 0.15687 0.87642 0.0
H648 H 0.2924 0.20482 0.9484 0.0
H649 H 0.27494 0.20793 0.96827 0.0
H650 H 0.26241 0.19279 0.95342 0.0
H651 H 0.26472 0.2132 0.95316 0.0
H652 H 0.31091 0.21571 0.92245 0.0
H653 H 0.25937 0.18267 0.91379 0.0
H654 H 0.32666 0.19313 0.90954 0.0
H655 H 0.33136 0.2142 0.90722 0.0
H656 H 0.32513 0.20017 0.89041 0.0
H657 H 0.24961 0.15699 0.90035 0.0
H658 H 0.26394 0.15004 0.8955 0.0
H659 H 0.26003 0.16226 0.88187 0.0
H660 H 0.27379 0.21979 0.80426 0.0
H661 H 0.29137 0.20863 0.79816 0.0
H662 H 0.24225 0.16729 0.80114 0.0
H663 H 0.31087 0.19747 0.82443 0.0
H664 H 0.31482 0.20679 0.80536 0.0
H665 H 0.31218 0.18636 0.80766 0.0
H666 H 0.23628 0.14321 0.81494 0.0
H667 H 0.25175 0.1442 0.82846 0.0
H668 H 0.25085 0.13718 0.80853 0.0
H669 H 0.27078 0.0729 0.78164 0.0
H670 H 0.26565 0.04654 0.79494 0.0
H671 H 0.26873 0.06279 0.80851 0.0
H672 H 0.28511 0.05842 0.8055 0.0
H673 H 0.31886 0.11583 0.79678 0.0
H674 H 0.26643 0.08567 0.80221 0.0
H675 H 0.3263 0.14647 0.82337 0.0
H676 H 0.3213 0.15434 0.80637 0.0
H677 H 0.33336 0.14417 0.80432 0.0
H678 H 0.25101 0.09437 0.81674 0.0
H679 H 0.2572 0.11523 0.81122 0.0
H680 H 0.26218 0.11141 0.83053 0.0
H681 H 0.30363 0.16202 0.90953 0.0
H682 H 0.28754 0.1877 0.86991 0.0
H683 H 0.28234 0.18379 0.84214 0.0
H684 H 0.28386 0.14705 0.80266 0.0
H685 H 0.30143 0.12243 0.8422 0.0
H686 H 0.30702 0.12668 0.86995 0.0
H687 H 0.24239 0.21274 0.78587 0.0
H688 H 0.25577 0.23121 0.79745 0.0
H689 H 0.2444 0.21151 0.80687 0.0
C690 C 0.77702 0.06016 0.91796 0.0
C691 C 0.77785 0.07509 0.92668 0.0
C692 C 0.79202 0.09841 0.90862 0.0
C693 C 0.79001 0.10956 0.89936 0.0
C694 C 0.80337 0.12226 0.89146 0.0
C695 C 0.8191 0.12363 0.89267 0.0
C696 C 0.82122 0.11227 0.90187 0.0
C697 C 0.8077 0.09986 0.90986 0.0
C698 C 0.80069 0.13428 0.88193 0.0
C699 C 0.83781 0.1133 0.90337 0.0
C700 C 0.91974 0.23146 0.94976 0.0
C701 C 0.90911 0.21525 0.94155 0.0
C702 C 0.88929 0.20343 0.9196 0.0
C703 C 0.89102 0.18937 0.91753 0.0
C704 C 0.88131 0.17697 0.90639 0.0
C705 C 0.86935 0.17842 0.89736 0.0
C706 C 0.86763 0.19259 0.89932 0.0
C707 C 0.87778 0.205 0.91032 0.0
C708 C 0.88364 0.16214 0.90448 0.0
C709 C 0.85488 0.19443 0.89 0.0
C710 C 0.90787 0.20137 0.79581 0.0
C711 C 0.90995 0.18843 0.80148 0.0
C712 C 0.89758 0.17568 0.81028 0.0
C713 C 0.88274 0.17575 0.81326 0.0
C714 C 0.88071 0.18888 0.80772 0.0
C715 C 0.8934 0.20161 0.7992 0.0
C716 C 0.90029 0.16203 0.81621 0.0
C717 C 0.86503 0.18932 0.8106 0.0
C718 C 0.78596 0.04565 0.79262 0.0
C719 C 0.78948 0.06296 0.78824 0.0
C720 C 0.81577 0.08814 0.79384 0.0
C721 C 0.83168 0.0925 0.79891 0.0
C722 C 0.84161 0.1074 0.80726 0.0
C723 C 0.8356 0.11843 0.81012 0.0
C724 C 0.81984 0.11451 0.80416 0.0
C725 C 0.81 0.0993 0.7962 0.0
C726 C 0.85839 0.11118 0.81325 0.0
C727 C 0.8133 0.12626 0.80644 0.0
C728 C 0.83343 0.13717 0.8846 0.0
C729 C 0.84415 0.15129 0.89349 0.0
C730 C 0.85791 0.16454 0.88674 0.0
C731 C 0.86088 0.16398 0.87051 0.0
C732 C 0.87441 0.17723 0.86324 0.0
C733 C 0.87711 0.17657 0.84722 0.0
C734 C 0.8665 0.16256 0.83791 0.0
C735 C 0.8691 0.16176 0.82162 0.0
C736 C 0.85864 0.14739 0.81285 0.0
C737 C 0.84556 0.13369 0.81988 0.0
C738 C 0.84254 0.13439 0.83608 0.0
C739 C 0.82943 0.12088 0.84353 0.0
C740 C 0.82638 0.12178 0.85939 0.0
C741 C 0.83648 0.13612 0.86849 0.0
C742 C 0.85009 0.1497 0.86136 0.0
C743 C 0.85302 0.14891 0.84509 0.0
C744 C 0.94016 0.22628 0.76722 0.0
C745 C 0.93275 0.21382 0.77983 0.0
O746 O 0.7785 0.08652 0.91603 0.0
O747 O 0.80638 0.07312 0.78668 0.0
O748 O 0.91936 0.21369 0.78689 0.0
O749 O 0.89842 0.21564 0.93038 0.0
H750 H 0.78902 0.08097 0.93447 0.0
H751 H 0.7882 0.06406 0.91081 0.0
H752 H 0.76605 0.05413 0.90996 0.0
H753 H 0.7763 0.05093 0.92653 0.0
H754 H 0.77789 0.10835 0.89845 0.0
H755 H 0.80955 0.09137 0.91695 0.0
H756 H 0.80971 0.14721 0.88567 0.0
H757 H 0.788 0.13227 0.88313 0.0
H758 H 0.80282 0.13287 0.86931 0.0
H759 H 0.83691 0.1022 0.909 0.0
H760 H 0.84621 0.12439 0.91065 0.0
H761 H 0.84343 0.11471 0.89163 0.0
H762 H 0.90293 0.20434 0.94935 0.0
H763 H 0.94367 0.23802 0.94269 0.0
H764 H 0.91586 0.22926 0.9624 0.0
H765 H 0.91401 0.23938 0.94739 0.0
H766 H 0.89987 0.18793 0.9246 0.0
H767 H 0.87654 0.21588 0.91195 0.0
H768 H 0.87269 0.15103 0.90908 0.0
H769 H 0.8948 0.16384 0.91088 0.0
H770 H 0.88467 0.1597 0.89183 0.0
H771 H 0.85494 0.20609 0.89305 0.0
H772 H 0.84239 0.18377 0.89219 0.0
H773 H 0.85722 0.1943 0.87723 0.0
H774 H 0.94174 0.21374 0.78847 0.0
H775 H 0.92117 0.18818 0.79908 0.0
H776 H 0.89193 0.21167 0.79481 0.0
H777 H 0.89708 0.15981 0.82883 0.0
H778 H 0.91326 0.16491 0.81478 0.0
H779 H 0.89207 0.15039 0.80956 0.0
H780 H 0.86506 0.19997 0.80486 0.0
H781 H 0.86344 0.19019 0.82343 0.0
H782 H 0.85422 0.17766 0.80609 0.0
H783 H 0.78489 0.06753 0.79808 0.0
H784 H 0.7725 0.03727 0.79426 0.0
H785 H 0.79248 0.04634 0.80383 0.0
H786 H 0.7903 0.04032 0.7833 0.0
H787 H 0.83609 0.08389 0.79677 0.0
H788 H 0.79787 0.09617 0.79177 0.0
H789 H 0.85982 0.11452 0.82598 0.0
H790 H 0.86807 0.12197 0.80694 0.0
H791 H 0.86051 0.10056 0.81146 0.0
H792 H 0.80195 0.1225 0.79926 0.0
H793 H 0.82282 0.13902 0.80328 0.0
H794 H 0.81034 0.12657 0.81901 0.0
H795 H 0.84188 0.15187 0.90592 0.0
H796 H 0.88298 0.1883 0.86984 0.0
H797 H 0.88766 0.18717 0.84223 0.0
H798 H 0.86082 0.14679 0.80041 0.0
H799 H 0.82128 0.10947 0.83717 0.0
H800 H 0.81604 0.11104 0.86445 0.0
H801 H 0.95303 0.23524 0.77165 0.0
H802 H 0.93546 0.23521 0.7689 0.0
H803 H 0.93552 0.21183 0.74667 0.0
C804 C 0.79986 0.68669 0.95236 0.0
C805 C 0.7908 0.69443 0.94406 0.0
C806 C 0.80047 0.69458 0.91754 0.0
C807 C 0.81319 0.71111 0.91659 0.0
C808 C 0.82642 0.71552 0.9064 0.0
C809 C 0.82701 0.70308 0.89715 0.0
C810 C 0.81379 0.68653 0.89756 0.0
C811 C 0.80051 0.68256 0.90758 0.0
C812 C 0.84006 0.73337 0.90595 0.0
C813 C 0.81408 0.67289 0.88804 0.0
C814 C 0.90594 0.71638 0.96785 0.0
C815 C 0.90536 0.70593 0.95354 0.0
C816 C 0.90373 0.71497 0.9273 0.0
C817 C 0.89289 0.69957 0.92015 0.0
C818 C 0.88277 0.69844 0.90738 0.0
C819 C 0.88351 0.71301 0.90174 0.0
C820 C 0.8953 0.72865 0.90822 0.0
C821 C 0.90546 0.72942 0.92083 0.0
C822 C 0.87069 0.68161 0.90045 0.0
C823 C 0.89645 0.74444 0.90248 0.0
C824 C 0.92371 0.7315 0.80426 0.0
C825 C 0.91103 0.71497 0.80576 0.0
C826 C 0.89579 0.71126 0.81216 0.0
C827 C 0.89319 0.72433 0.81712 0.0
C828 C 0.90568 0.74096 0.81497 0.0
C829 C 0.92074 0.74431 0.80842 0.0
C830 C 0.88254 0.69339 0.8139 0.0
C831 C 0.90324 0.75519 0.81993 0.0
C832 C 0.7856 0.7279 0.79682 0.0
C833 C 0.79302 0.72392 0.78252 0.0
C834 C 0.81026 0.71369 0.79459 0.0
C835 C 0.81134 0.69951 0.79726 0.0
C836 C 0.82436 0.70027 0.80623 0.0
C837 C 0.8366 0.71566 0.81273 0.0
C838 C 0.83579 0.73015 0.80985 0.0
C839 C 0.82265 0.72905 0.80079 0.0
C840 C 0.82491 0.68459 0.80899 0.0
C841 C 0.84869 0.74676 0.8166 0.0
C842 C 0.84236 0.70702 0.88873 0.0
C843 C 0.85543 0.70817 0.89776 0.0
C844 C 0.87034 0.71167 0.89095 0.0
C845 C 0.8723 0.71387 0.87455 0.0
C846 C 0.88701 0.71707 0.86726 0.0
C847 C 0.88883 0.71932 0.85109 0.0
C848 C 0.87598 0.71838 0.8416 0.0
C849 C 0.8777 0.72064 0.82516 0.0
C850 C 0.86469 0.71964 0.81609 0.0
C851 C 0.8499 0.71649 0.82301 0.0
C852 C 0.84794 0.71423 0.83943 0.0
C853 C 0.83326 0.71113 0.84679 0.0
C854 C 0.83142 0.70885 0.86295 0.0
C855 C 0.84416 0.70951 0.87235 0.0
C856 C 0.85916 0.71283 0.86522 0.0
C857 C 0.86102 0.71513 0.84874 0.0
C858 C 0.96419 0.73749 0.80689 0.0
C859 C 0.94665 0.72627 0.80045 0.0
O860 O 0.7883 0.68976 0.92825 0.0
O861 O 0.79699 0.71186 0.78616 0.0
O862 O 0.93889 0.73557 0.79889 0.0
O863 O 0.91215 0.71615 0.94077 0.0
H864 H 0.79841 0.70814 0.94527 0.0
H865 H 0.81223 0.69126 0.94719 0.0
H866 H 0.79272 0.67296 0.95108 0.0
H867 H 0.80166 0.69017 0.96508 0.0
H868 H 0.81289 0.72058 0.92385 0.0
H869 H 0.7905 0.66986 0.90831 0.0
H870 H 0.85112 0.73474 0.91227 0.0
H871 H 0.83644 0.74188 0.91159 0.0
H872 H 0.84359 0.73717 0.89361 0.0
H873 H 0.80308 0.66056 0.89009 0.0
H874 H 0.82536 0.67232 0.89108 0.0
H875 H 0.81454 0.67558 0.87533 0.0
H876 H 0.892 0.69689 0.95136 0.0
H877 H 0.90111 0.70849 0.97836 0.0
H878 H 0.89812 0.72201 0.9655 0.0
H879 H 0.91873 0.72655 0.97043 0.0
H880 H 0.89204 0.68842 0.92482 0.0
H881 H 0.91409 0.74126 0.9263 0.0
H882 H 0.87085 0.68198 0.8874 0.0
H883 H 0.85802 0.67808 0.9042 0.0
H884 H 0.87347 0.67191 0.90432 0.0
H885 H 0.9066 0.75564 0.90845 0.0
H886 H 0.88461 0.74416 0.90459 0.0
H887 H 0.89854 0.74545 0.88961 0.0
H888 H 0.94029 0.71645 0.80931 0.0
H889 H 0.913 0.70497 0.80194 0.0
H890 H 0.9305 0.75701 0.80696 0.0
H891 H 0.88009 0.6906 0.82657 0.0
H892 H 0.88608 0.68466 0.80859 0.0
H893 H 0.87086 0.69121 0.80825 0.0
H894 H 0.91416 0.76743 0.81746 0.0
H895 H 0.90075 0.75456 0.83273 0.0
H896 H 0.89231 0.75419 0.81366 0.0
H897 H 0.80431 0.73538 0.77889 0.0
H898 H 0.78209 0.7373 0.79375 0.0
H899 H 0.79468 0.733 0.80671 0.0
H900 H 0.77447 0.71655 0.80087 0.0
H901 H 0.80178 0.68773 0.79239 0.0
H902 H 0.82213 0.74021 0.79878 0.0
H903 H 0.82395 0.68203 0.82177 0.0
H904 H 0.83693 0.68621 0.80509 0.0
H905 H 0.81478 0.67369 0.80265 0.0
H906 H 0.84647 0.75694 0.81313 0.0
H907 H 0.86111 0.74968 0.81257 0.0
H908 H 0.84879 0.74626 0.82964 0.0
H909 H 0.85399 0.70636 0.91036 0.0
H910 H 0.89727 0.71788 0.87399 0.0
H911 H 0.90046 0.72179 0.84613 0.0
H912 H 0.8661 0.7214 0.80349 0.0
H913 H 0.82301 0.71043 0.84014 0.0
H914 H 0.81988 0.70654 0.86799 0.0
H915 H 0.97068 0.73032 0.80822 0.0
H916 H 0.9637 0.74259 0.81863 0.0
H917 H 0.97135 0.74801 0.79894 0.0
C918 C 0.88974 0.61751 0.41545 0.0
C919 C 0.89084 0.63323 0.40873 0.0
C920 C 0.87927 0.64327 0.42928 0.0
C921 C 0.88311 0.65628 0.43993 0.0
C922 C 0.87089 0.65659 0.44916 0.0
C923 C 0.85444 0.64326 0.44797 0.0
C924 C 0.85043 0.62998 0.43725 0.0
C925 C 0.86284 0.63019 0.42788 0.0
C926 C 0.87559 0.6712 0.46013 0.0
C927 C 0.83304 0.6155 0.43574 0.0
C928 C 0.74745 0.65524 0.4129 0.0
C929 C 0.75571 0.64949 0.42416 0.0
C930 C 0.78327 0.65717 0.43409 0.0
C931 C 0.77883 0.64128 0.43943 0.0
C932 C 0.79032 0.6384 0.44739 0.0
C933 C 0.80643 0.65178 0.45061 0.0
C934 C 0.81092 0.66782 0.44534 0.0
C935 C 0.79931 0.67024 0.43698 0.0
C936 C 0.78518 0.62096 0.45226 0.0
C937 C 0.82794 0.6824 0.4486 0.0
C938 C 0.77542 0.63679 0.55209 0.0
C939 C 0.77097 0.62315 0.54187 0.0
C940 C 0.78294 0.622 0.53293 0.0
C941 C 0.79961 0.63489 0.53399 0.0
C942 C 0.80414 0.64853 0.54436 0.0
C943 C 0.79198 0.6492 0.55339 0.0
C944 C 0.77773 0.60704 0.52228 0.0
C945 C 0.82179 0.6625 0.54577 0.0
C946 C 0.88849 0.59025 0.54841 0.0
C947 C 0.88519 0.60452 0.55157 0.0
C948 C 0.86034 0.60564 0.54443 0.0
C949 C 0.84416 0.59549 0.53896 0.0
C950 C 0.8354 0.60219 0.53161 0.0
C951 C 0.84294 0.61957 0.53008 0.0
C952 C 0.85914 0.63 0.53613 0.0
C953 C 0.86774 0.62292 0.54317 0.0
C954 C 0.81813 0.59067 0.52538 0.0
C955 C 0.86732 0.6486 0.53514 0.0
C956 C 0.84142 0.64339 0.45777 0.0
C957 C 0.83072 0.64787 0.45066 0.0
C958 C 0.81856 0.64884 0.45929 0.0
C959 C 0.81741 0.64589 0.47563 0.0
C960 C 0.8061 0.64788 0.4849 0.0
C961 C 0.8046 0.64433 0.50084 0.0
C962 C 0.81421 0.63847 0.50809 0.0
C963 C 0.81227 0.63414 0.52413 0.0
C964 C 0.82208 0.62843 0.53098 0.0
C965 C 0.83376 0.62674 0.52222 0.0
C966 C 0.83587 0.63098 0.50615 0.0
C967 C 0.8474 0.62931 0.49693 0.0
C968 C 0.84933 0.63346 0.48111 0.0
C969 C 0.83965 0.63924 0.47385 0.0
C970 C 0.82775 0.64073 0.48286 0.0
C971 C 0.82601 0.63681 0.49907 0.0
C972 C 0.74187 0.63525 0.54442 0.0
C973 C 0.74719 0.62987 0.55928 0.0
O974 O 0.89183 0.64387 0.42079 0.0
O975 O 0.86828 0.5983 0.55099 0.0
O976 O 0.76427 0.63856 0.56086 0.0
O977 O 0.77253 0.66033 0.42605 0.0
H978 H 0.87971 0.62971 0.40125 0.0
H979 H 0.87841 0.61061 0.42246 0.0
H980 H 0.90056 0.62068 0.42323 0.0
H981 H 0.8893 0.60919 0.40574 0.0
H982 H 0.89578 0.66633 0.44091 0.0
H983 H 0.85958 0.62005 0.41964 0.0
H984 H 0.86698 0.67604 0.45845 0.0
H985 H 0.88841 0.68142 0.45828 0.0
H986 H 0.87458 0.66719 0.47249 0.0
H987 H 0.83232 0.60527 0.42829 0.0
H988 H 0.82492 0.61971 0.43043 0.0
H989 H 0.82817 0.61063 0.44755 0.0
H990 H 0.74936 0.64501 0.4356 0.0
H991 H 0.73931 0.63746 0.39458 0.0
H992 H 0.75628 0.66881 0.41103 0.0
H993 H 0.73871 0.65738 0.42026 0.0
H994 H 0.76649 0.631 0.43728 0.0
H995 H 0.80266 0.68244 0.43279 0.0
H996 H 0.79488 0.61786 0.44931 0.0
H997 H 0.77339 0.61162 0.4465 0.0
H998 H 0.78351 0.62 0.46518 0.0
H999 H 0.82882 0.69435 0.44545 0.0
H1000 H 0.83711 0.68087 0.44165 0.0
H1001 H 0.8313 0.68294 0.46123 0.0
H1002 H 0.74268 0.61634 0.55852 0.0
H1003 H 0.75825 0.61334 0.54079 0.0
H1004 H 0.79531 0.65963 0.56135 0.0
H1005 H 0.77892 0.61082 0.50983 0.0
H1006 H 0.76474 0.59722 0.5242 0.0
H1007 H 0.78592 0.60176 0.52423 0.0
H1008 H 0.82311 0.67275 0.5536 0.0
H1009 H 0.82648 0.66752 0.53397 0.0
H1010 H 0.82966 0.65772 0.55054 0.0
H1011 H 0.89128 0.6136 0.54203 0.0
H1012 H 0.90199 0.59487 0.54833 0.0
H1013 H 0.8832 0.58441 0.53674 0.0
H1014 H 0.88272 0.58067 0.55755 0.0
H1015 H 0.83852 0.58219 0.54018 0.0
H1016 H 0.88011 0.63089 0.54783 0.0
H1017 H 0.81709 0.59332 0.51287 0.0
H1018 H 0.8092 0.59277 0.53212 0.0
H1019 H 0.81459 0.57742 0.52631 0.0
H1020 H 0.8794 0.65503 0.54153 0.0
H1021 H 0.85914 0.65291 0.54011 0.0
H1022 H 0.86936 0.65224 0.52263 0.0
H1023 H 0.83175 0.65043 0.43818 0.0
H1024 H 0.79827 0.6522 0.47991 0.0
H1025 H 0.79567 0.64607 0.50736 0.0
H1026 H 0.82038 0.62495 0.54325 0.0
H1027 H 0.8551 0.6248 0.50183 0.0
H1028 H 0.8584 0.63193 0.4746 0.0
H1029 H 0.72819 0.62837 0.54309 0.0
H1030 H 0.74705 0.63261 0.53379 0.0
H1031 H 0.74629 0.64876 0.54503 0.0
C1032 C 0.38638 0.25445 0.38658 0.0
C1033 C 0.37189 0.2489 0.39775 0.0
C1034 C 0.37489 0.24193 0.42441 0.0
C1035 C 0.35872 0.2297 0.42781 0.0
C1036 C 0.35574 0.21756 0.43892 0.0
C1037 C 0.36926 0.21751 0.4465 0.0
C1038 C 0.3856 0.23014 0.4433 0.0
C1039 C 0.38816 0.24245 0.43254 0.0
C1040 C 0.33816 0.20454 0.44225 0.0
C1041 C 0.40041 0.23033 0.45075 0.0
C1042 C 0.35238 0.12758 0.39358 0.0
C1043 C 0.35617 0.11862 0.40654 0.0
C1044 C 0.35196 0.13223 0.42953 0.0
C1045 C 0.36797 0.14603 0.43087 0.0
C1046 C 0.37115 0.15985 0.44026 0.0
C1047 C 0.358 0.16003 0.44823 0.0
C1048 C 0.34189 0.14611 0.44699 0.0
C1049 C 0.33917 0.13226 0.43789 0.0
C1050 C 0.38856 0.17432 0.44155 0.0
C1051 C 0.32749 0.14599 0.45503 0.0
C1052 C 0.36722 0.14003 0.54911 0.0
C1053 C 0.38252 0.15287 0.54398 0.0
C1054 C 0.38354 0.16638 0.53592 0.0
C1055 C 0.36905 0.16719 0.53307 0.0
C1056 C 0.35371 0.15452 0.53854 0.0
C1057 C 0.35301 0.14106 0.54643 0.0
C1058 C 0.40011 0.17968 0.53021 0.0
C1059 C 0.33803 0.15505 0.53576 0.0
C1060 C 0.40582 0.29944 0.55074 0.0
C1061 C 0.3923 0.28156 0.5535 0.0
C1062 C 0.3931 0.25637 0.54651 0.0
C1063 C 0.40411 0.25128 0.54168 0.0
C1064 C 0.39851 0.23597 0.53395 0.0
C1065 C 0.38136 0.22528 0.53139 0.0
C1066 C 0.37005 0.23007 0.53683 0.0
C1067 C 0.37604 0.24564 0.54428 0.0
C1068 C 0.41096 0.23128 0.52842 0.0
C1069 C 0.35168 0.21879 0.53464 0.0
C1070 C 0.36641 0.20343 0.45655 0.0
C1071 C 0.36278 0.18857 0.44894 0.0
C1072 C 0.36108 0.17506 0.45735 0.0
C1073 C 0.36303 0.1763 0.4739 0.0
C1074 C 0.36187 0.16312 0.4827 0.0
C1075 C 0.36391 0.1645 0.49897 0.0
C1076 C 0.36736 0.17918 0.50707 0.0
C1077 C 0.36982 0.1808 0.52358 0.0
C1078 C 0.3738 0.19575 0.53121 0.0
C1079 C 0.3754 0.20926 0.52279 0.0
C1080 C 0.37261 0.20774 0.5063 0.0
C1081 C 0.3739 0.22098 0.49747 0.0
C1082 C 0.37152 0.21949 0.48122 0.0
C1083 C 0.3681 0.20483 0.47313 0.0
C1084 C 0.36649 0.19123 0.48182 0.0
C1085 C 0.36869 0.19268 0.49843 0.0
C1086 C 0.383 0.11636 0.54658 0.0
C1087 C 0.37788 0.12307 0.56075 0.0
O1088 O 0.37798 0.25312 0.41305 0.0
O1089 O 0.39943 0.27163 0.55338 0.0
O1090 O 0.36551 0.12637 0.55644 0.0
O1091 O 0.34831 0.11876 0.42028 0.0
H1092 H 0.36407 0.23518 0.39627 0.0
H1093 H 0.39351 0.24823 0.38961 0.0
H1094 H 0.39478 0.26808 0.38754 0.0
H1095 H 0.38182 0.25104 0.37423 0.0
H1096 H 0.34849 0.22963 0.42167 0.0
H1097 H 0.40058 0.25208 0.42983 0.0
H1098 H 0.33547 0.19259 0.43668 0.0
H1099 H 0.32914 0.20793 0.43758 0.0
H1100 H 0.33639 0.20263 0.45512 0.0
H1101 H 0.41218 0.23964 0.44542 0.0
H1102 H 0.3993 0.21793 0.44954 0.0
H1103 H 0.401 0.23332 0.46349 0.0
H1104 H 0.36973 0.12492 0.40864 0.0
H1105 H 0.35862 0.1276 0.38251 0.0
H1106 H 0.35693 0.14068 0.39718 0.0
H1107 H 0.33885 0.12143 0.39128 0.0
H1108 H 0.3781 0.1461 0.42477 0.0
H1109 H 0.32688 0.12153 0.43685 0.0
H1110 H 0.38932 0.18501 0.43522 0.0
H1111 H 0.39771 0.17137 0.43645 0.0
H1112 H 0.39199 0.1782 0.45406 0.0
H1113 H 0.31551 0.13493 0.45161 0.0
H1114 H 0.327 0.15731 0.45208 0.0
H1115 H 0.32914 0.14607 0.46797 0.0
H1116 H 0.38888 0.13463 0.56522 0.0
H1117 H 0.3937 0.15241 0.54597 0.0
H1118 H 0.34127 0.13115 0.55045 0.0
H1119 H 0.39947 0.18121 0.51735 0.0
H1120 H 0.41011 0.17686 0.5327 0.0
H1121 H 0.40335 0.19167 0.53606 0.0
H1122 H 0.32728 0.14484 0.54169 0.0
H1123 H 0.33529 0.15409 0.52294 0.0
H1124 H 0.33967 0.16709 0.5401 0.0
H1125 H 0.3832 0.27794 0.5436 0.0
H1126 H 0.40047 0.30773 0.55027 0.0
H1127 H 0.41186 0.30018 0.53934 0.0
H1128 H 0.41535 0.30389 0.56029 0.0
H1129 H 0.41723 0.25958 0.54366 0.0
H1130 H 0.36741 0.24931 0.54846 0.0
H1131 H 0.40881 0.22758 0.51577 0.0
H1132 H 0.40944 0.22049 0.53511 0.0
H1133 H 0.42388 0.24158 0.53008 0.0
H1134 H 0.34447 0.22383 0.54046 0.0
H1135 H 0.34794 0.20642 0.53949 0.0
H1136 H 0.34848 0.21701 0.5219 0.0
H1137 H 0.3616 0.18763 0.4362 0.0
H1138 H 0.35941 0.15158 0.47711 0.0
H1139 H 0.36287 0.15392 0.50509 0.0
H1140 H 0.37607 0.19703 0.54383 0.0
H1141 H 0.37677 0.23267 0.50302 0.0
H1142 H 0.37258 0.23005 0.47503 0.0
H1143 H 0.39246 0.11313 0.55025 0.0
H1144 H 0.3722 0.10517 0.54133 0.0
H1145 H 0.3884 0.12582 0.53734 0.0
C1146 C 0.86649 0.22832 0.38909 0.0
C1147 C 0.87825 0.24026 0.40187 0.0
C1148 C 0.8665 0.22298 0.42513 0.0
C1149 C 0.85294 0.22548 0.42685 0.0
C1150 C 0.84022 0.21591 0.43724 0.0
C1151 C 0.84093 0.20346 0.44596 0.0
C1152 C 0.85472 0.20116 0.44454 0.0
C1153 C 0.86743 0.21113 0.43428 0.0
C1154 C 0.8258 0.21886 0.43865 0.0
C1155 C 0.85579 0.18788 0.45355 0.0
C1156 C 0.72122 0.10792 0.42805 0.0
C1157 C 0.73437 0.10726 0.41788 0.0
C1158 C 0.76023 0.12409 0.43313 0.0
C1159 C 0.77235 0.12324 0.44207 0.0
C1160 C 0.78542 0.13745 0.44918 0.0
C1161 C 0.78621 0.15291 0.44747 0.0
C1162 C 0.7742 0.15398 0.43815 0.0
C1163 C 0.76136 0.13956 0.43096 0.0
C1164 C 0.79822 0.13589 0.45875 0.0
C1165 C 0.77477 0.17031 0.43605 0.0
C1166 C 0.75003 0.14491 0.54418 0.0
C1167 C 0.76215 0.14042 0.54193 0.0
C1168 C 0.77727 0.15143 0.53506 0.0
C1169 C 0.78023 0.16717 0.53027 0.0
C1170 C 0.76835 0.172 0.53326 0.0
C1171 C 0.75345 0.16083 0.54036 0.0
C1172 C 0.78989 0.14609 0.53253 0.0
C1173 C 0.77118 0.18874 0.52847 0.0
C1174 C 0.89858 0.27036 0.54228 0.0
C1175 C 0.88843 0.26403 0.55729 0.0
C1176 C 0.86607 0.23641 0.54834 0.0
C1177 C 0.8616 0.21971 0.54764 0.0
C1178 C 0.84779 0.20814 0.53884 0.0
C1179 C 0.83796 0.21339 0.5308 0.0
C1180 C 0.84213 0.23022 0.53178 0.0
C1181 C 0.85629 0.24164 0.54037 0.0
C1182 C 0.84377 0.1903 0.53807 0.0
C1183 C 0.83165 0.23614 0.52369 0.0
C1184 C 0.82666 0.19212 0.45562 0.0
C1185 C 0.81344 0.17858 0.44793 0.0
C1186 C 0.79923 0.16775 0.45601 0.0
C1187 C 0.79791 0.17063 0.47215 0.0
C1188 C 0.78343 0.16044 0.48041 0.0
C1189 C 0.7824 0.16305 0.49639 0.0
C1190 C 0.79591 0.17578 0.5048 0.0
C1191 C 0.7952 0.17809 0.52118 0.0
C1192 C 0.80891 0.19072 0.52921 0.0
C1193 C 0.82344 0.20121 0.5213 0.0
C1194 C 0.8243 0.19927 0.50485 0.0
C1195 C 0.83863 0.20974 0.49646 0.0
C1196 C 0.83933 0.20766 0.48028 0.0
C1197 C 0.82595 0.1947 0.47197 0.0
C1198 C 0.81145 0.18395 0.48023 0.0
C1199 C 0.81053 0.1864 0.49662 0.0
C1200 C 0.70873 0.1118 0.54198 0.0
C1201 C 0.72633 0.11717 0.54751 0.0
O1202 O 0.87876 0.23148 0.41471 0.0
O1203 O 0.87987 0.24685 0.55685 0.0
O1204 O 0.73491 0.13422 0.5499 0.0
O1205 O 0.74768 0.10964 0.4271 0.0
H1206 H 0.87397 0.24894 0.40564 0.0
H1207 H 0.85373 0.22121 0.39356 0.0
H1208 H 0.87048 0.21942 0.3853 0.0
H1209 H 0.86624 0.23531 0.37871 0.0
H1210 H 0.85207 0.23474 0.42007 0.0
H1211 H 0.87797 0.20935 0.43297 0.0
H1212 H 0.81452 0.20801 0.43362 0.0
H1213 H 0.82789 0.23011 0.43239 0.0
H1214 H 0.82346 0.22017 0.45123 0.0
H1215 H 0.86721 0.18748 0.45093 0.0
H1216 H 0.84492 0.17558 0.45059 0.0
H1217 H 0.85553 0.19011 0.46637 0.0
H1218 H 0.73861 0.11704 0.40885 0.0
H1219 H 0.7104 0.10559 0.42063 0.0
H1220 H 0.72621 0.12028 0.43382 0.0
H1221 H 0.71703 0.09847 0.43737 0.0
H1222 H 0.77144 0.11128 0.44357 0.0
H1223 H 0.75221 0.1405 0.42391 0.0
H1224 H 0.79692 0.1381 0.47138 0.0
H1225 H 0.81083 0.14539 0.45522 0.0
H1226 H 0.79695 0.12343 0.45738 0.0
H1227 H 0.76407 0.16897 0.42905 0.0
H1228 H 0.78631 0.17905 0.43003 0.0
H1229 H 0.77494 0.17589 0.44773 0.0
H1230 H 0.73198 0.11352 0.53789 0.0
H1231 H 0.7598 0.12832 0.54547 0.0
H1232 H 0.74411 0.16426 0.54241 0.0
H1233 H 0.79087 0.14422 0.51975 0.0
H1234 H 0.7866 0.13437 0.53858 0.0
H1235 H 0.80223 0.15592 0.53687 0.0
H1236 H 0.76068 0.19059 0.53156 0.0
H1237 H 0.77304 0.19009 0.51557 0.0
H1238 H 0.78257 0.19866 0.53433 0.0
H1239 H 0.87969 0.2688 0.55816 0.0
H1240 H 0.90497 0.28409 0.54187 0.0
H1241 H 0.89038 0.26539 0.53171 0.0
H1242 H 0.90792 0.26632 0.54168 0.0
H1243 H 0.86918 0.21581 0.55388 0.0
H1244 H 0.85953 0.25452 0.54081 0.0
H1245 H 0.84218 0.1859 0.52563 0.0
H1246 H 0.83193 0.18242 0.54408 0.0
H1247 H 0.85351 0.18855 0.54375 0.0
H1248 H 0.83548 0.24916 0.52699 0.0
H1249 H 0.81846 0.22807 0.5267 0.0
H1250 H 0.83263 0.2353 0.51075 0.0
H1251 H 0.81425 0.17639 0.43548 0.0
H1252 H 0.77269 0.15034 0.47461 0.0
H1253 H 0.77092 0.15481 0.5021 0.0
H1254 H 0.80837 0.19224 0.54183 0.0
H1255 H 0.84944 0.21972 0.50228 0.0
H1256 H 0.85061 0.21616 0.47441 0.0
H1257 H 0.7016 0.09817 0.53986 0.0
H1258 H 0.70908 0.11798 0.5308 0.0
H1259 H 0.70229 0.11527 0.55089 0.0
C1260 C 0.04967 0.47082 0.26871 0.0
C1261 C 0.031 0.45883 0.26822 0.0
C1262 C 0.01943 0.46424 0.24523 0.0
C1263 C 0.00252 0.45867 0.24506 0.0
C1264 C 0.99626 0.46765 0.23736 0.0
C1265 C 0.00728 0.48253 0.22978 0.0
C1266 C 0.02441 0.48806 0.22984 0.0
C1267 C 0.03026 0.47869 0.23743 0.0
C1268 C 0.97792 0.4613 0.23735 0.0
C1269 C 0.03653 0.50393 0.22201 0.0
C1270 C 0.97982 0.54091 0.30259 0.0
C1271 C 0.98961 0.55068 0.28836 0.0
C1272 C 0.98283 0.53893 0.26178 0.0
C1273 C 0.99893 0.54565 0.25608 0.0
C1274 C 0.00227 0.53809 0.24335 0.0
C1275 C 0.98924 0.52354 0.23626 0.0
C1276 C 0.97284 0.51741 0.24134 0.0
C1277 C 0.96983 0.52537 0.25395 0.0
C1278 C 0.01981 0.54526 0.2379 0.0
C1279 C 0.95862 0.50193 0.23405 0.0
C1280 C 0.97076 0.54616 0.13761 0.0
C1281 C 0.98728 0.54984 0.13851 0.0
C1282 C 0.99141 0.53877 0.14541 0.0
C1283 C 0.97876 0.5236 0.15126 0.0
C1284 C 0.96207 0.51953 0.14971 0.0
C1285 C 0.9583 0.53087 0.14283 0.0
C1286 C 0.0093 0.54328 0.14652 0.0
C1287 C 0.94827 0.5033 0.15553 0.0
C1288 C 0.97588 0.41125 0.13852 0.0
C1289 C 0.97665 0.41966 0.12286 0.0
C1290 C 0.98782 0.44892 0.13071 0.0
C1291 C 0.00184 0.46471 0.13071 0.0
C1292 C 0.00205 0.4782 0.13853 0.0
C1293 C 0.98783 0.47576 0.14651 0.0
C1294 C 0.97338 0.45999 0.14608 0.0
C1295 C 0.97352 0.44673 0.13824 0.0
C1296 C 0.01761 0.4949 0.13872 0.0
C1297 C 0.95793 0.457 0.15437 0.0
C1298 C 0.001 0.49253 0.22209 0.0
C1299 C 0.99825 0.50323 0.23157 0.0
C1300 C 0.99298 0.51353 0.2251 0.0
C1301 C 0.99081 0.51358 0.20864 0.0
C1302 C 0.98639 0.52441 0.20164 0.0
C1303 C 0.98406 0.52414 0.18541 0.0
C1304 C 0.9858 0.51282 0.17561 0.0
C1305 C 0.98305 0.51211 0.15915 0.0
C1306 C 0.98423 0.50024 0.14987 0.0
C1307 C 0.98839 0.48917 0.15657 0.0
C1308 C 0.99189 0.49017 0.17288 0.0
C1309 C 0.99669 0.4796 0.17987 0.0
C1310 C -0.00019 0.48043 0.19596 0.0
C1311 C 0.99804 0.49172 0.20571 0.0
C1312 C 0.99311 0.50243 0.19894 0.0
C1313 C 0.99033 0.50186 0.18245 0.0
C1314 C 0.96766 0.57984 0.14529 0.0
C1315 C 0.97521 0.57395 0.13257 0.0
O1316 O 0.02526 0.45551 0.25278 0.0
O1317 O 0.98876 0.43624 0.1236 0.0
O1318 O 0.96631 0.55679 0.13148 0.0
O1319 O 0.97951 0.54492 0.27504 0.0
H1320 H 0.02488 0.46473 0.27472 0.0
H1321 H 0.05249 0.48303 0.26411 0.0
H1322 H 0.05614 0.46586 0.26148 0.0
H1323 H 0.05449 0.47282 0.28101 0.0
H1324 H 0.99428 0.44733 0.25104 0.0
H1325 H 0.0433 0.48267 0.23738 0.0
H1326 H 0.97544 0.47008 0.2441 0.0
H1327 H 0.97089 0.44887 0.24264 0.0
H1328 H 0.97332 0.46058 0.22512 0.0
H1329 H 0.04954 0.50709 0.22406 0.0
H1330 H 0.03501 0.51434 0.22648 0.0
H1331 H 0.03399 0.50271 0.20914 0.0
H1332 H 0.00011 0.54827 0.28738 0.0
H1333 H 0.98759 0.54561 0.31346 0.0
H1334 H 0.97598 0.52762 0.30088 0.0
H1335 H 0.96853 0.54186 0.30412 0.0
H1336 H 0.00893 0.55662 0.26173 0.0
H1337 H 0.95742 0.52049 0.25829 0.0
H1338 H 0.02021 0.54571 0.22486 0.0
H1339 H 0.02469 0.53714 0.24168 0.0
H1340 H 0.02802 0.55792 0.24285 0.0
H1341 H 0.94662 0.49871 0.23944 0.0
H1342 H 0.96079 0.49133 0.23542 0.0
H1343 H 0.95776 0.50365 0.22126 0.0
H1344 H 0.98814 0.57862 0.13661 0.0
H1345 H 0.997 0.56119 0.1337 0.0
H1346 H 0.94557 0.52797 0.14178 0.0
H1347 H 0.01289 0.54348 0.15904 0.0
H1348 H 0.01771 0.55557 0.14144 0.0
H1349 H 0.01102 0.53374 0.14024 0.0
H1350 H 0.9359 0.50179 0.15308 0.0
H1351 H 0.94974 0.50255 0.16841 0.0
H1352 H 0.94889 0.49284 0.14984 0.0
H1353 H 0.96434 0.41843 0.12071 0.0
H1354 H 0.96774 0.39761 0.13728 0.0
H1355 H 0.97075 0.41576 0.14782 0.0
H1356 H 0.98837 0.41409 0.14253 0.0
H1357 H 0.01278 0.46637 0.12481 0.0
H1358 H 0.96246 0.43471 0.13835 0.0
H1359 H 0.02234 0.49849 0.151 0.0
H1360 H 0.01485 0.50443 0.13431 0.0
H1361 H 0.02744 0.49494 0.13143 0.0
H1362 H 0.94725 0.44449 0.15167 0.0
H1363 H 0.95464 0.46646 0.15096 0.0
H1364 H 0.96023 0.45822 0.16728 0.0
H1365 H 0.00017 0.50347 0.2442 0.0
H1366 H 0.98473 0.53325 0.20865 0.0
H1367 H 0.98068 0.53277 0.18066 0.0
H1368 H 0.98165 0.49944 0.13733 0.0
H1369 H 0.99817 0.47058 0.17298 0.0
H1370 H 0.00346 0.47199 0.20068 0.0
H1371 H 0.97363 0.59357 0.14547 0.0
H1372 H 0.96968 0.57595 0.15701 0.0
H1373 H 0.95413 0.57423 0.14339 0.0
C1374 C 0.46346 0.43289 0.29833 0.0
C1375 C 0.45144 0.43015 0.28477 0.0
C1376 C 0.46332 0.43071 0.25939 0.0
C1377 C 0.45976 0.44154 0.2512 0.0
C1378 C 0.46992 0.45112 0.23901 0.0
C1379 C 0.48387 0.4498 0.23497 0.0
C1380 C 0.48684 0.43808 0.24254 0.0
C1381 C 0.47635 0.42851 0.25458 0.0
C1382 C 0.46615 0.46318 0.23089 0.0
C1383 C 0.50154 0.43629 0.23845 0.0
C1384 C 0.55196 0.53676 0.28619 0.0
C1385 C 0.5667 0.54548 0.27522 0.0
C1386 C 0.55256 0.53307 0.25017 0.0
C1387 C 0.55534 0.51959 0.24931 0.0
C1388 C 0.54543 0.50576 0.23959 0.0
C1389 C 0.53236 0.50529 0.2307 0.0
C1390 C 0.52989 0.5191 0.23112 0.0
C1391 C 0.54026 0.53295 0.24066 0.0
C1392 C 0.54866 0.49143 0.23916 0.0
C1393 C 0.51592 0.51896 0.22199 0.0
C1394 C 0.55065 0.51859 0.12428 0.0
C1395 C 0.55414 0.50604 0.12778 0.0
C1396 C 0.5446 0.49366 0.13852 0.0
C1397 C 0.53104 0.49371 0.14574 0.0
C1398 C 0.52752 0.50647 0.14239 0.0
C1399 C 0.53754 0.51895 0.13196 0.0
C1400 C 0.5489 0.48042 0.14196 0.0
C1401 C 0.51299 0.50684 0.14961 0.0
C1402 C 0.43242 0.36291 0.13183 0.0
C1403 C 0.43813 0.381 0.1282 0.0
C1404 C 0.46497 0.40499 0.13568 0.0
C1405 C 0.48087 0.40905 0.14052 0.0
C1406 C 0.49146 0.42425 0.1481 0.0
C1407 C 0.48606 0.43581 0.15065 0.0
C1408 C 0.47014 0.43201 0.14534 0.0
C1409 C 0.45972 0.41661 0.13791 0.0
C1410 C 0.5084 0.42793 0.15349 0.0
C1411 C 0.46419 0.44424 0.14754 0.0
C1412 C 0.49642 0.46212 0.22441 0.0
C1413 C 0.50821 0.47721 0.23125 0.0
C1414 C 0.52033 0.48976 0.22227 0.0
C1415 C 0.52072 0.4873 0.20588 0.0
C1416 C 0.53278 0.49963 0.19646 0.0
C1417 C 0.53271 0.49727 0.18026 0.0
C1418 C 0.52067 0.48245 0.17288 0.0
C1419 C 0.52016 0.48015 0.15636 0.0
C1420 C 0.50858 0.46493 0.14951 0.0
C1421 C 0.49724 0.45193 0.15868 0.0
C1422 C 0.49702 0.45427 0.17513 0.0
C1423 C 0.48534 0.4417 0.18464 0.0
C1424 C 0.48505 0.44425 0.20079 0.0
C1425 C 0.49663 0.45934 0.20805 0.0
C1426 C 0.50874 0.47206 0.19874 0.0
C1427 C 0.50882 0.46958 0.18224 0.0
C1428 C 0.54277 0.53537 0.09619 0.0
C1429 C 0.55788 0.54243 0.10736 0.0
O1430 O 0.4546 0.42258 0.27217 0.0
O1431 O 0.45524 0.38988 0.12876 0.0
O1432 O 0.56 0.52981 0.11328 0.0
O1433 O 0.56127 0.54621 0.26017 0.0
H1434 H 0.45362 0.44263 0.28156 0.0
H1435 H 0.47634 0.44127 0.29457 0.0
H1436 H 0.46238 0.42097 0.30193 0.0
H1437 H 0.46095 0.43874 0.30861 0.0
H1438 H 0.44923 0.44271 0.25455 0.0
H1439 H 0.47878 0.41987 0.26083 0.0
H1440 H 0.47569 0.47604 0.23429 0.0
H1441 H 0.45384 0.46133 0.23405 0.0
H1442 H 0.46659 0.46186 0.21793 0.0
H1443 H 0.50163 0.426 0.24481 0.0
H1444 H 0.51309 0.44801 0.24145 0.0
H1445 H 0.50155 0.434 0.2256 0.0
H1446 H 0.57342 0.53847 0.27495 0.0
H1447 H 0.54478 0.54332 0.28648 0.0
H1448 H 0.55627 0.53641 0.29832 0.0
H1449 H 0.54368 0.52379 0.28204 0.0
H1450 H 0.5652 0.51974 0.25616 0.0
H1451 H 0.53833 0.54348 0.24128 0.0
H1452 H 0.53874 0.48085 0.24553 0.0
H1453 H 0.56072 0.49469 0.24475 0.0
H1454 H 0.54847 0.48724 0.22683 0.0
H1455 H 0.51518 0.53034 0.2242 0.0
H1456 H 0.50399 0.50802 0.2252 0.0
H1457 H 0.5176 0.51788 0.20921 0.0
H1458 H 0.55607 0.54927 0.11725 0.0
H1459 H 0.56433 0.5059 0.12194 0.0
H1460 H 0.53482 0.52872 0.12974 0.0
H1461 H 0.54885 0.47853 0.15484 0.0
H1462 H 0.56119 0.48354 0.13735 0.0
H1463 H 0.53946 0.46852 0.13641 0.0
H1464 H 0.51043 0.51603 0.14397 0.0
H1465 H 0.51556 0.51016 0.1623 0.0
H1466 H 0.5017 0.49443 0.1486 0.0
H1467 H 0.43299 0.38556 0.13752 0.0
H1468 H 0.41872 0.35547 0.13189 0.0
H1469 H 0.43717 0.36214 0.14362 0.0
H1470 H 0.43713 0.3575 0.12293 0.0
H1471 H 0.48487 0.40008 0.13856 0.0
H1472 H 0.44762 0.41379 0.1337 0.0
H1473 H 0.51003 0.43089 0.1663 0.0
H1474 H 0.51797 0.43897 0.14735 0.0
H1475 H 0.51051 0.41738 0.15114 0.0
H1476 H 0.45168 0.43965 0.14232 0.0
H1477 H 0.47294 0.45616 0.14204 0.0
H1478 H 0.46386 0.4468 0.16028 0.0
H1479 H 0.50792 0.47924 0.24382 0.0
H1480 H 0.54229 0.51129 0.20151 0.0
H1481 H 0.54221 0.50724 0.17356 0.0
H1482 H 0.50838 0.46318 0.13685 0.0
H1483 H 0.47616 0.42982 0.17968 0.0
H1484 H 0.47567 0.43424 0.20753 0.0
H1485 H 0.53122 0.52729 0.1025 0.0
H1486 H 0.54392 0.52791 0.0865 0.0
H1487 H 0.54156 0.54562 0.09103 0.0
C1488 C 0.43655 0.95849 0.28463 0.0
C1489 C 0.43607 0.97328 0.27764 0.0
C1490 C 0.44629 0.97747 0.2511 0.0
C1491 C 0.45713 0.99459 0.25057 0.0
C1492 C 0.47062 0.00114 0.24042 0.0
C1493 C 0.47337 0.99026 0.23077 0.0
C1494 C 0.46208 0.973 0.23094 0.0
C1495 C 0.44847 0.96684 0.24095 0.0
C1496 C 0.48217 0.01963 0.2403 0.0
C1497 C 0.4647 0.96102 0.22096 0.0
C1498 C 0.5971 0.04088 0.25918 0.0
C1499 C 0.58431 0.02422 0.26596 0.0
C1500 C 0.5609 0.01192 0.24704 0.0
C1501 C 0.55197 0.99847 0.23675 0.0
C1502 C 0.53776 0.99622 0.22887 0.0
C1503 C 0.53265 0.00806 0.23103 0.0
C1504 C 0.54156 0.02168 0.24153 0.0
C1505 C 0.55553 0.02341 0.24955 0.0
C1506 C 0.52832 0.98125 0.21813 0.0
C1507 C 0.53642 0.03451 0.24413 0.0
C1508 C 0.56841 0.04266 0.13404 0.0
C1509 C 0.55954 0.02547 0.13623 0.0
C1510 C 0.54401 0.01796 0.14337 0.0
C1511 C 0.53735 0.0279 0.14851 0.0
C1512 C 0.54604 0.04514 0.14579 0.0
C1513 C 0.56139 0.05225 0.1384 0.0
C1514 C 0.53481 0.99946 0.1456 0.0
C1515 C 0.53926 0.05609 0.15098 0.0
C1516 C 0.40704 0.97598 0.1333 0.0
C1517 C 0.42003 0.99199 0.12573 0.0
C1518 C 0.44746 0.99526 0.12958 0.0
C1519 C 0.45406 0.98476 0.13019 0.0
C1520 C 0.46859 0.98927 0.1388 0.0
C1521 C 0.47688 0.00488 0.14665 0.0
C1522 C 0.47065 0.0159 0.1455 0.0
C1523 C 0.45595 0.01096 0.13696 0.0
C1524 C 0.47497 0.97729 0.13968 0.0
C1525 C 0.4795 0.03283 0.15334 0.0
C1526 C 0.48878 0.99687 0.2216 0.0
C1527 C 0.50309 0.99972 0.22964 0.0
C1528 C 0.5182 0.00631 0.22203 0.0
C1529 C 0.51924 0.01043 0.20599 0.0
C1530 C 0.53442 0.01778 0.19818 0.0
C1531 C 0.53525 0.02126 0.18226 0.0
C1532 C 0.52092 0.0174 0.17349 0.0
C1533 C 0.52156 0.0204 0.15717 0.0
C1534 C 0.50706 0.01635 0.14882 0.0
C1535 C 0.49185 0.00948 0.15635 0.0
C1536 C 0.49099 0.00659 0.17269 0.0
C1537 C 0.47592 -7e-05 0.18068 0.0
C1538 C 0.4752 0.99701 0.19676 0.0
C1539 C 0.48942 0.00026 0.20537 0.0
C1540 C 0.50474 0.00706 0.19755 0.0
C1541 C 0.50555 0.0104 0.18124 0.0
C1542 C 0.61154 0.06126 0.1357 0.0
C1543 C 0.59577 0.04611 0.12944 0.0
O1544 O 0.43377 0.97099 0.26147 0.0
O1545 O 0.43323 0.99009 0.12127 0.0
O1546 O 0.58364 0.0504 0.1276 0.0
O1547 O 0.57468 0.01334 0.254 0.0
H1548 H 0.44812 0.98461 0.28054 0.0
H1549 H 0.44689 0.95745 0.2795 0.0
H1550 H 0.42481 0.94679 0.28202 0.0
H1551 H 0.43852 0.96015 0.29759 0.0
H1552 H 0.45508 0.00278 0.2582 0.0
H1553 H 0.43987 0.95364 0.24139 0.0
H1554 H 0.49416 0.02261 0.24582 0.0
H1555 H 0.47714 0.0265 0.24684 0.0
H1556 H 0.4846 0.02403 0.22801 0.0
H1557 H 0.45511 0.94791 0.22289 0.0
H1558 H 0.47702 0.96252 0.22367 0.0
H1559 H 0.46449 0.96377 0.20834 0.0
H1560 H 0.57636 0.02628 0.2743 0.0
H1561 H 0.605 0.04945 0.26879 0.0
H1562 H 0.59091 0.04677 0.25303 0.0
H1563 H 0.60507 0.03917 0.25061 0.0
H1564 H 0.55617 0.98964 0.23494 0.0
H1565 H 0.56225 0.03387 0.25754 0.0
H1566 H 0.51488 0.97515 0.22044 0.0
H1567 H 0.53242 0.97202 0.21958 0.0
H1568 H 0.53019 0.98522 0.20571 0.0
H1569 H 0.54557 0.04523 0.25143 0.0
H1570 H 0.52436 0.02875 0.25014 0.0
H1571 H 0.53478 0.03912 0.23266 0.0
H1572 H 0.59212 0.03631 0.13839 0.0
H1573 H 0.56465 0.01789 0.13228 0.0
H1574 H 0.56823 0.06546 0.13639 0.0
H1575 H 0.53424 0.99681 0.15833 0.0
H1576 H 0.54081 0.99328 0.13951 0.0
H1577 H 0.52192 0.994 0.14109 0.0
H1578 H 0.54787 0.06937 0.1486 0.0
H1579 H 0.53675 0.05471 0.16378 0.0
H1580 H 0.52737 0.05218 0.14473 0.0
H1581 H 0.42394 0.00222 0.13459 0.0
H1582 H 0.39641 0.97722 0.1373 0.0
H1583 H 0.41252 0.97331 0.14371 0.0
H1584 H 0.40251 0.96537 0.1248 0.0
H1585 H 0.44754 0.97281 0.12416 0.0
H1586 H 0.45131 0.01946 0.13586 0.0
H1587 H 0.47608 0.97458 0.15216 0.0
H1588 H 0.48749 0.98299 0.13458 0.0
H1589 H 0.46681 0.96543 0.13327 0.0
H1590 H 0.47365 0.04035 0.15049 0.0
H1591 H 0.49258 0.03962 0.14963 0.0
H1592 H 0.4795 0.0315 0.16629 0.0
H1593 H 0.50244 0.99668 0.24199 0.0
H1594 H 0.54584 0.0209 0.20429 0.0
H1595 H 0.54727 0.02688 0.17689 0.0
H1596 H 0.50759 0.01852 0.13627 0.0
H1597 H 0.46452 0.99693 0.17461 0.0
H1598 H 0.4633 0.99195 0.20231 0.0
H1599 H 0.62143 0.05813 0.13759 0.0
H1600 H 0.60909 0.06545 0.14714 0.0
H1601 H 0.61593 0.07161 0.12731 0.0
C1602 C 0.553 0.01294 0.72244 0.0
C1603 C 0.5658 0.01756 0.73573 0.0
C1604 C 0.55097 0.0048 0.75952 0.0
C1605 C 0.55614 0.01874 0.76944 0.0
C1606 C 0.54605 0.01864 0.7816 0.0
C1607 C 0.53056 0.00427 0.78389 0.0
C1608 C 0.52586 0.98983 0.77459 0.0
C1609 C 0.53627 0.99025 0.76258 0.0
C1610 C 0.55162 0.03408 0.7916 0.0
C1611 C 0.5095 0.97425 0.77683 0.0
C1612 C 0.47786 0.05389 0.73903 0.0
C1613 C 0.46445 0.03739 0.74544 0.0
C1614 C 0.47112 0.03157 0.77125 0.0
C1615 C 0.46609 0.0147 0.76991 0.0
C1616 C 0.47377 0.00793 0.77898 0.0
C1617 C 0.48685 0.01836 0.78947 0.0
C1618 C 0.49146 0.03526 0.79129 0.0
C1619 C 0.48329 0.0416 0.78229 0.0
C1620 C 0.46828 0.98978 0.777 0.0
C1621 C 0.50545 0.04677 0.80221 0.0
C1622 C 0.44595 0.98728 0.88503 0.0
C1623 C 0.44411 0.97352 0.87626 0.0
C1624 C 0.45751 0.97413 0.86839 0.0
C1625 C 0.47318 0.98868 0.86947 0.0
C1626 C 0.47524 0.00235 0.87867 0.0
C1627 C 0.46155 0.00149 0.88628 0.0
C1628 C 0.45484 0.95935 0.85856 0.0
C1629 C 0.49179 0.01802 0.88011 0.0
C1630 C 0.56417 0.94549 0.87474 0.0
C1631 C 0.56117 0.95935 0.88054 0.0
C1632 C 0.53609 0.96095 0.87605 0.0
C1633 C 0.5198 0.95115 0.87077 0.0
C1634 C 0.51084 0.95831 0.86479 0.0
C1635 C 0.51828 0.97578 0.86457 0.0
C1636 C 0.53454 0.98581 0.87065 0.0
C1637 C 0.54335 0.97829 0.87623 0.0
C1638 C 0.49348 0.94713 0.85863 0.0
C1639 C 0.54265 0.00446 0.87112 0.0
C1640 C 0.51848 0.00504 0.79454 0.0
C1641 C 0.50874 0.01112 0.7883 0.0
C1642 C 0.49673 0.01196 0.79725 0.0
C1643 C 0.49432 0.00663 0.81297 0.0
C1644 C 0.48212 0.00699 0.82222 0.0
C1645 C 0.47979 0.00164 0.83766 0.0
C1646 C 0.48956 0.9957 0.84444 0.0
C1647 C 0.48702 0.9899 0.86002 0.0
C1648 C 0.49691 0.98403 0.86642 0.0
C1649 C 0.50916 0.98346 0.85753 0.0
C1650 C 0.51176 0.98905 0.84184 0.0
C1651 C 0.5237 0.98831 0.8324 0.0
C1652 C 0.52603 0.99367 0.81694 0.0
C1653 C 0.51641 0.9998 0.81028 0.0
C1654 C 0.50428 0.00063 0.81954 0.0
C1655 C 0.50196 0.99524 0.83533 0.0
C1656 C 0.40774 0.9737 0.8771 0.0
C1657 C 0.41681 0.97483 0.89263 0.0
O1658 O 0.55978 0.00516 0.74679 0.0
O1659 O 0.54428 0.9532 0.881 0.0
O1660 O 0.43311 0.98754 0.89221 0.0
O1661 O 0.46463 0.03848 0.76173 0.0
H1662 H 0.56789 0.02947 0.741 0.0
H1663 H 0.54162 0.0122 0.72718 0.0
H1664 H 0.54963 0.00072 0.717 0.0
H1665 H 0.5579 0.02252 0.71323 0.0
H1666 H 0.56794 0.02977 0.76756 0.0
H1667 H 0.53258 0.97946 0.75502 0.0
H1668 H 0.54379 0.0396 0.78882 0.0
H1669 H 0.56473 0.04352 0.78958 0.0
H1670 H 0.55007 0.03093 0.80425 0.0
H1671 H 0.50802 0.96384 0.76914 0.0
H1672 H 0.49929 0.97671 0.77418 0.0
H1673 H 0.50833 0.97042 0.78928 0.0
H1674 H 0.46739 0.0277 0.74147 0.0
H1675 H 0.478 0.05326 0.72598 0.0
H1676 H 0.49015 0.05667 0.74364 0.0
H1677 H 0.47571 0.06415 0.7427 0.0
H1678 H 0.4563 0.0069 0.76161 0.0
H1679 H 0.48692 0.05459 0.7833 0.0
H1680 H 0.47789 0.98845 0.77063 0.0
H1681 H 0.45645 0.9829 0.77024 0.0
H1682 H 0.46677 0.98402 0.78867 0.0
H1683 H 0.50775 0.05967 0.80201 0.0
H1684 H 0.51695 0.04686 0.79884 0.0
H1685 H 0.50261 0.04226 0.81443 0.0
H1686 H 0.41635 0.96279 0.89429 0.0
H1687 H 0.43223 0.96232 0.87522 0.0
H1688 H 0.46293 0.01203 0.89311 0.0
H1689 H 0.45799 0.96302 0.84614 0.0
H1690 H 0.4419 0.94894 0.85891 0.0
H1691 H 0.46316 0.95492 0.86284 0.0
H1692 H 0.49163 0.02717 0.88851 0.0
H1693 H 0.49545 0.02379 0.8684 0.0
H1694 H 0.50134 0.01504 0.88405 0.0
H1695 H 0.56693 0.96949 0.87187 0.0
H1696 H 0.57762 0.95011 0.87376 0.0
H1697 H 0.55834 0.94096 0.86293 0.0
H1698 H 0.55875 0.93494 0.88294 0.0
H1699 H 0.51424 0.93778 0.87095 0.0
H1700 H 0.55581 0.98594 0.88083 0.0
H1701 H 0.49166 0.95131 0.847 0.0
H1702 H 0.48466 0.94772 0.86691 0.0
H1703 H 0.49044 0.93401 0.85746 0.0
H1704 H 0.55446 0.01038 0.87796 0.0
H1705 H 0.53422 0.0083 0.87638 0.0
H1706 H 0.54523 0.00915 0.85894 0.0
H1707 H 0.51046 0.01515 0.77619 0.0
H1708 H 0.47421 0.01138 0.81759 0.0
H1709 H 0.47018 0.00219 0.84419 0.0
H1710 H 0.49472 0.97939 0.87831 0.0
H1711 H 0.53137 0.98356 0.83684 0.0
H1712 H 0.53541 0.99286 0.81023 0.0
H1713 H 0.40919 0.9859 0.87405 0.0
H1714 H 0.39437 0.96449 0.87801 0.0
H1715 H 0.41273 0.96966 0.86728 0.0
C1716 C 0.02917 0.56921 0.72408 0.0
C1717 C 0.01446 0.56428 0.73484 0.0
C1718 C 0.01449 0.5548 0.76117 0.0
C1719 C 0.99761 0.54503 0.76415 0.0
C1720 C 0.99197 0.53223 0.77507 0.0
C1721 C 0.00348 0.52893 0.78279 0.0
C1722 C 0.02057 0.53892 0.77979 0.0
C1723 C 0.02587 0.55205 0.76931 0.0
C1724 C 0.97371 0.52211 0.7781 0.0
C1725 C 0.03329 0.53555 0.78725 0.0
C1726 C 0.94027 0.39435 0.77795 0.0
C1727 C 0.95702 0.40775 0.77206 0.0
C1728 C 0.96313 0.43635 0.77245 0.0
C1729 C 0.98002 0.44467 0.77632 0.0
C1730 C 0.98769 0.46065 0.78315 0.0
C1731 C 0.97813 0.46823 0.78647 0.0
C1732 C 0.96119 0.46003 0.78207 0.0
C1733 C 0.95398 0.44426 0.77486 0.0
C1734 C 0.00594 0.46931 0.78699 0.0
C1735 C 0.95065 0.46777 0.78526 0.0
C1736 C 0.00269 0.45124 0.88257 0.0
C1737 C 0.01563 0.462 0.87283 0.0
C1738 C 0.01548 0.47541 0.86574 0.0
C1739 C 0.00212 0.47819 0.86836 0.0
C1740 C 0.98923 0.46762 0.87836 0.0
C1741 C 0.98969 0.45427 0.88533 0.0
C1742 C 0.02948 0.4864 0.8551 0.0
C1743 C 0.9748 0.47022 0.88133 0.0
C1744 C 0.05751 0.61392 0.87993 0.0
C1745 C 0.04185 0.59805 0.88444 0.0
C1746 C 0.03684 0.56987 0.88049 0.0
C1747 C 0.04537 0.56171 0.87627 0.0
C1748 C 0.03713 0.54582 0.86929 0.0
C1749 C 0.01978 0.53769 0.86698 0.0
C1750 C 0.01094 0.54555 0.87204 0.0
C1751 C 0.01959 0.56164 0.87863 0.0
C1752 C 0.04703 0.53786 0.86423 0.0
C1753 C 0.99239 0.53701 0.87033 0.0
C1754 C 0.99761 0.51443 0.7932 0.0
C1755 C 0.99039 0.49869 0.78604 0.0
C1756 C 0.9857 0.48453 0.79488 0.0
C1757 C 0.98858 0.48607 0.81133 0.0
C1758 C 0.98449 0.47215 0.82054 0.0
C1759 C 0.9885 0.47392 0.83649 0.0
C1760 C 0.9963 0.48963 0.84395 0.0
C1761 C 0.00145 0.49167 0.85989 0.0
C1762 C 0.00835 0.5073 0.86723 0.0
C1763 C 0.01104 0.52122 0.85883 0.0
C1764 C 0.00686 0.51956 0.84259 0.0
C1765 C 0.01026 0.53338 0.8335 0.0
C1766 C 0.00685 0.53169 0.8174 0.0
C1767 C 8e-05 0.51615 0.80972 0.0
C1768 C 0.9959 0.50195 0.81875 0.0
C1769 C 0.99946 0.50369 0.83516 0.0
C1770 C 0.01123 0.42326 0.87228 0.0
C1771 C 0.0136 0.43258 0.88803 0.0
O1772 O 0.02005 0.56683 0.75033 0.0
O1773 O 0.04567 0.58559 0.88636 0.0
O1774 O 0.0021 0.43777 0.8893 0.0
O1775 O 0.95537 0.42071 0.76633 0.0
H1776 H 0.00553 0.55088 0.73247 0.0
H1777 H 0.0351 0.56174 0.72681 0.0
H1778 H 0.03848 0.58255 0.72582 0.0
H1779 H 0.02506 0.56687 0.71155 0.0
H1780 H 0.98891 0.54746 0.75795 0.0
H1781 H 0.03889 0.55979 0.76689 0.0
H1782 H 0.96859 0.50994 0.77188 0.0
H1783 H 0.96695 0.52831 0.77382 0.0
H1784 H 0.97142 0.51976 0.79086 0.0
H1785 H 0.04534 0.54213 0.78124 0.0
H1786 H 0.02896 0.52207 0.78701 0.0
H1787 H 0.03532 0.53984 0.79972 0.0
H1788 H 0.96575 0.41199 0.78233 0.0
H1789 H 0.94127 0.38389 0.78286 0.0
H1790 H 0.93092 0.38956 0.76822 0.0
H1791 H 0.93598 0.3996 0.78738 0.0
H1792 H 0.98719 0.43869 0.77393 0.0
H1793 H 0.94099 0.43777 0.77157 0.0
H1794 H 0.00779 0.46952 0.79991 0.0
H1795 H 0.01209 0.48236 0.7831 0.0
H1796 H 0.01206 0.463 0.78136 0.0
H1797 H 0.93741 0.45919 0.78233 0.0
H1798 H 0.95505 0.47906 0.77815 0.0
H1799 H 0.95179 0.4716 0.79785 0.0
H1800 H 0.02634 0.44344 0.88828 0.0
H1801 H 0.02584 0.46001 0.87048 0.0
H1802 H 0.97976 0.44597 0.89286 0.0
H1803 H 0.02483 0.48451 0.84276 0.0
H1804 H 0.0398 0.48373 0.85563 0.0
H1805 H 0.03436 0.49963 0.85833 0.0
H1806 H 0.96576 0.46095 0.88947 0.0
H1807 H 0.9684 0.4694 0.87001 0.0
H1808 H 0.97932 0.48283 0.88641 0.0
H1809 H 0.03284 0.59483 0.8745 0.0
H1810 H 0.05477 0.62409 0.87806 0.0
H1811 H 0.06239 0.61177 0.86882 0.0
H1812 H 0.06718 0.61781 0.88929 0.0
H1813 H 0.05866 0.56809 0.87801 0.0
H1814 H 0.01287 0.56772 0.88241 0.0
H1815 H 0.04361 0.53286 0.852 0.0
H1816 H 0.04422 0.52735 0.87203 0.0
H1817 H 0.06054 0.54669 0.86487 0.0
H1818 H 0.98718 0.54381 0.8767 0.0
H1819 H 0.98667 0.52421 0.87485 0.0
H1820 H 0.98892 0.53607 0.8577 0.0
H1821 H 0.98863 0.49745 0.77336 0.0
H1822 H 0.9785 0.45975 0.81545 0.0
H1823 H 0.98544 0.46282 0.84291 0.0
H1824 H 0.0124 0.50878 0.87944 0.0
H1825 H 0.01582 0.54573 0.83868 0.0
H1826 H 0.00981 0.54278 0.81099 0.0
H1827 H 0.99809 0.4136 0.87035 0.0
H1828 H 0.01912 0.41747 0.87196 0.0
H1829 H 0.01481 0.43194 0.86236 0.0
C1830 C 0.53276 0.56637 0.72821 0.0
C1831 C 0.54566 0.57557 0.74133 0.0
C1832 C 0.53311 0.55617 0.76308 0.0
C1833 C 0.5206 0.55996 0.76628 0.0
C1834 C 0.50796 0.55046 0.77678 0.0
C1835 C 0.50776 0.53688 0.78422 0.0
C1836 C 0.52058 0.53334 0.78142 0.0
C1837 C 0.53315 0.54312 0.77096 0.0
C1838 C 0.49456 0.55467 0.77963 0.0
C1839 C 0.52073 0.51897 0.7892 0.0
C1840 C 0.38687 0.44436 0.76413 0.0
C1841 C 0.40039 0.4435 0.75477 0.0
C1842 C 0.42569 0.45937 0.77104 0.0
C1843 C 0.43728 0.45789 0.78025 0.0
C1844 C 0.45058 0.47178 0.78751 0.0
C1845 C 0.45213 0.48757 0.78571 0.0
C1846 C 0.44061 0.48926 0.7762 0.0
C1847 C 0.42753 0.47514 0.76886 0.0
C1848 C 0.46284 0.46955 0.79729 0.0
C1849 C 0.44197 0.50594 0.77404 0.0
C1850 C 0.41591 0.48342 0.88286 0.0
C1851 C 0.42651 0.47711 0.87997 0.0
C1852 C 0.44185 0.48694 0.8729 0.0
C1853 C 0.44648 0.50325 0.86836 0.0
C1854 C 0.43605 0.50979 0.87181 0.0
C1855 C 0.42098 0.49983 0.87925 0.0
C1856 C 0.45297 0.47979 0.87002 0.0
C1857 C 0.44061 0.52715 0.86727 0.0
C1858 C 0.56644 0.60284 0.87947 0.0
C1859 C 0.55638 0.59785 0.89461 0.0
C1860 C 0.53326 0.57031 0.88662 0.0
C1861 C 0.5283 0.55348 0.88645 0.0
C1862 C 0.51448 0.54195 0.87762 0.0
C1863 C 0.50513 0.54741 0.86903 0.0
C1864 C 0.50977 0.56438 0.8695 0.0
C1865 C 0.52394 0.57573 0.87812 0.0
C1866 C 0.50995 0.52396 0.87738 0.0
C1867 C 0.49977 0.57053 0.86087 0.0
C1868 C 0.49345 0.52572 0.79392 0.0
C1869 C 0.47991 0.51253 0.7862 0.0
C1870 C 0.46552 0.50213 0.79426 0.0
C1871 C 0.46432 0.50517 0.81039 0.0
C1872 C 0.44962 0.4956 0.81859 0.0
C1873 C 0.44867 0.49841 0.83454 0.0
C1874 C 0.46249 0.51066 0.843 0.0
C1875 C 0.46181 0.5132 0.85935 0.0
C1876 C 0.47581 0.5254 0.8674 0.0
C1877 C 0.49056 0.53529 0.85955 0.0
C1878 C 0.49142 0.5331 0.84315 0.0
C1879 C 0.50599 0.54294 0.83481 0.0
C1880 C 0.50663 0.54074 0.81864 0.0
C1881 C 0.49289 0.52829 0.81029 0.0
C1882 C 0.47819 0.51805 0.81851 0.0
C1883 C 0.47735 0.52064 0.83489 0.0
C1884 C 0.37298 0.45418 0.88262 0.0
C1885 C 0.39031 0.45723 0.88637 0.0
O1886 O 0.54513 0.5645 0.75238 0.0
O1887 O 0.54703 0.58072 0.89518 0.0
O1888 O 0.40074 0.47406 0.88911 0.0
O1889 O 0.41293 0.44521 0.76477 0.0
H1890 H 0.54314 0.58482 0.74715 0.0
H1891 H 0.52011 0.56015 0.73301 0.0
H1892 H 0.53485 0.55681 0.72244 0.0
H1893 H 0.53345 0.57522 0.71921 0.0
H1894 H 0.52042 0.57013 0.76052 0.0
H1895 H 0.54289 0.54035 0.76854 0.0
H1896 H 0.48252 0.5443 0.77529 0.0
H1897 H 0.49695 0.56618 0.77365 0.0
H1898 H 0.49344 0.55626 0.79245 0.0
H1899 H 0.53194 0.51826 0.78633 0.0
H1900 H 0.50965 0.5072 0.78535 0.0
H1901 H 0.52014 0.52011 0.80217 0.0
H1902 H 0.40546 0.45354 0.74599 0.0
H1903 H 0.37668 0.44264 0.7561 0.0
H1904 H 0.39188 0.4566 0.77018 0.0
H1905 H 0.38179 0.43462 0.77317 0.0
H1906 H 0.4358 0.44569 0.78179 0.0
H1907 H 0.41874 0.47655 0.76167 0.0
H1908 H 0.46151 0.47188 0.80989 0.0
H1909 H 0.47565 0.47864 0.7939 0.0
H1910 H 0.461 0.45685 0.79599 0.0
H1911 H 0.43156 0.50509 0.76691 0.0
H1912 H 0.45372 0.51434 0.76813 0.0
H1913 H 0.44226 0.51162 0.78569 0.0
H1914 H 0.39431 0.45299 0.87583 0.0
H1915 H 0.42283 0.46456 0.88328 0.0
H1916 H 0.41279 0.50463 0.88177 0.0
H1917 H 0.45308 0.47727 0.85724 0.0
H1918 H 0.44879 0.46802 0.87633 0.0
H1919 H 0.46584 0.4888 0.87381 0.0
H1920 H 0.43073 0.53006 0.87003 0.0
H1921 H 0.44312 0.52877 0.85448 0.0
H1922 H 0.45209 0.53622 0.87365 0.0
H1923 H 0.5482 0.60331 0.89492 0.0
H1924 H 0.57375 0.61653 0.87858 0.0
H1925 H 0.55808 0.59794 0.86901 0.0
H1926 H 0.57496 0.59777 0.87922 0.0
H1927 H 0.53553 0.54943 0.89311 0.0
H1928 H 0.52751 0.5887 0.8782 0.0
H1929 H 0.50857 0.5193 0.86505 0.0
H1930 H 0.49789 0.51647 0.88317 0.0
H1931 H 0.51932 0.52199 0.88355 0.0
H1932 H 0.50385 0.58367 0.86388 0.0
H1933 H 0.48648 0.56279 0.86367 0.0
H1934 H 0.50098 0.56943 0.848 0.0
H1935 H 0.48059 0.51031 0.77373 0.0
H1936 H 0.43864 0.48587 0.81274 0.0
H1937 H 0.43699 0.49071 0.84017 0.0
H1938 H 0.47526 0.52717 0.87998 0.0
H1939 H 0.51704 0.55254 0.84067 0.0
H1940 H 0.51811 0.54876 0.81281 0.0
H1941 H 0.36438 0.44082 0.88001 0.0
H1942 H 0.37334 0.46132 0.87213 0.0
H1943 H 0.3682 0.45819 0.89269 0.0
C1944 C 0.66292 0.79116 0.62277 0.0
C1945 C 0.65217 0.77481 0.61373 0.0
C1946 C 0.65087 0.78433 0.58752 0.0
C1947 C 0.63426 0.78015 0.58633 0.0
C1948 C 0.62929 0.78838 0.57584 0.0
C1949 C 0.64121 0.80111 0.56646 0.0
C1950 C 0.6579 0.80498 0.56731 0.0
C1951 C 0.66245 0.79632 0.57769 0.0
C1952 C 0.61132 0.7836 0.57489 0.0
C1953 C 0.67094 0.81851 0.55752 0.0
C1954 C 0.60399 0.88416 0.59561 0.0
C1955 C 0.62093 0.88659 0.6004 0.0
C1956 C 0.62939 0.87366 0.57981 0.0
C1957 C 0.64199 0.87687 0.56928 0.0
C1958 C 0.64268 0.86395 0.56134 0.0
C1959 C 0.63001 0.84737 0.56353 0.0
C1960 C 0.61706 0.84402 0.57402 0.0
C1961 C 0.61701 0.85717 0.58222 0.0
C1962 C 0.65703 0.86806 0.55069 0.0
C1963 C 0.60327 0.82654 0.57663 0.0
C1964 C 0.59842 0.84821 0.46433 0.0
C1965 C 0.61534 0.85508 0.46769 0.0
C1966 C 0.62124 0.84584 0.47552 0.0
C1967 C 0.60992 0.82956 0.48034 0.0
C1968 C 0.59293 0.82248 0.47649 0.0
C1969 C 0.58747 0.83184 0.46829 0.0
C1970 C 0.63953 0.85357 0.47884 0.0
C1971 C 0.58048 0.80513 0.48126 0.0
C1972 C 0.60989 0.71924 0.46682 0.0
C1973 C 0.61589 0.73202 0.45371 0.0
C1974 C 0.62611 0.75924 0.46685 0.0
C1975 C 0.64015 0.77468 0.46974 0.0
C1976 C 0.6391 0.78754 0.47742 0.0
C1977 C 0.62358 0.78473 0.4826 0.0
C1978 C 0.6093 0.76911 0.47979 0.0
C1979 C 0.61067 0.75656 0.47184 0.0
C1980 C 0.65457 0.80409 0.48006 0.0
C1981 C 0.59257 0.76565 0.48528 0.0
C1982 C 0.63635 0.81092 0.55642 0.0
C1983 C 0.63545 0.82402 0.56359 0.0
C1984 C 0.63046 0.83354 0.5551 0.0
C1985 C 0.62623 0.82994 0.53896 0.0
C1986 C 0.62052 0.83881 0.5302 0.0
C1987 C 0.61689 0.83553 0.51421 0.0
C1988 C 0.61889 0.82329 0.50633 0.0
C1989 C 0.61568 0.82018 0.48998 0.0
C1990 C 0.61752 0.80772 0.48259 0.0
C1991 C 0.6223 0.79804 0.49114 0.0
C1992 C 0.62556 0.80096 0.5075 0.0
C1993 C 0.63015 0.79131 0.51651 0.0
C1994 C 0.63356 0.79444 0.53255 0.0
C1995 C 0.63259 0.80739 0.54019 0.0
C1996 C 0.62764 0.81705 0.53141 0.0
C1997 C 0.62406 0.81378 0.51506 0.0
C1998 C 0.58381 0.87682 0.46101 0.0
C1999 C 0.59834 0.87384 0.45883 0.0
O2000 O 0.65606 0.7769 0.5979 0.0
O2001 O 0.62811 0.74735 0.4594 0.0
O2002 O 0.59222 0.85693 0.45723 0.0
O2003 O 0.62964 0.88681 0.58721 0.0
H2004 H 0.639 0.77113 0.61536 0.0
H2005 H 0.66054 0.80091 0.61823 0.0
H2006 H 0.67623 0.7953 0.62136 0.0
H2007 H 0.65996 0.78968 0.63548 0.0
H2008 H 0.62513 0.77037 0.59345 0.0
H2009 H 0.67521 0.79926 0.57856 0.0
H2010 H 0.60986 0.79393 0.57966 0.0
H2011 H 0.60334 0.77229 0.58165 0.0
H2012 H 0.60697 0.78141 0.56244 0.0
H2013 H 0.68346 0.8204 0.55997 0.0
H2014 H 0.67112 0.83035 0.55987 0.0
H2015 H 0.66794 0.81534 0.54484 0.0
H2016 H 0.61899 0.87622 0.6081 0.0
H2017 H 0.59732 0.88461 0.6062 0.0
H2018 H 0.59632 0.87196 0.58963 0.0
H2019 H 0.60529 0.8939 0.5874 0.0
H2020 H 0.6515 0.88962 0.56751 0.0
H2021 H 0.60715 0.85441 0.59032 0.0
H2022 H 0.65273 0.86622 0.53824 0.0
H2023 H 0.66206 0.8597 0.55289 0.0
H2024 H 0.66713 0.8811 0.55235 0.0
H2025 H 0.59274 0.82625 0.58288 0.0
H2026 H 0.60805 0.81996 0.58383 0.0
H2027 H 0.59868 0.81967 0.56525 0.0
H2028 H 0.60626 0.87879 0.46965 0.0
H2029 H 0.62394 0.86759 0.46415 0.0
H2030 H 0.57447 0.8266 0.46538 0.0
H2031 H 0.64202 0.85662 0.49159 0.0
H2032 H 0.64687 0.86514 0.4722 0.0
H2033 H 0.64379 0.84472 0.47577 0.0
H2034 H 0.56757 0.8022 0.47903 0.0
H2035 H 0.58202 0.80342 0.49394 0.0
H2036 H 0.5826 0.79613 0.47446 0.0
H2037 H 0.6052 0.73296 0.44918 0.0
H2038 H 0.6005 0.70685 0.46207 0.0
H2039 H 0.60413 0.72278 0.47633 0.0
H2040 H 0.62032 0.71834 0.47208 0.0
H2041 H 0.65201 0.77665 0.46587 0.0
H2042 H 0.59963 0.74471 0.46977 0.0
H2043 H 0.65731 0.80642 0.49287 0.0
H2044 H 0.65268 0.81417 0.47556 0.0
H2045 H 0.66544 0.8047 0.47421 0.0
H2046 H 0.58291 0.75245 0.48344 0.0
H2047 H 0.58882 0.77347 0.47871 0.0
H2048 H 0.5932 0.76894 0.49797 0.0
H2049 H 0.63861 0.82681 0.57599 0.0
H2050 H 0.61883 0.84844 0.5356 0.0
H2051 H 0.61259 0.84281 0.5081 0.0
H2052 H 0.61503 0.80538 0.47006 0.0
H2053 H 0.63121 0.78124 0.51125 0.0
H2054 H 0.63708 0.78665 0.53888 0.0
H2055 H 0.57539 0.87218 0.45056 0.0
H2056 H 0.58829 0.89025 0.46281 0.0
H2057 H 0.57673 0.8702 0.47153 0.0
C2058 C 0.10139 0.7281 0.58675 0.0
C2059 C 0.10311 0.74157 0.59845 0.0
C2060 C 0.1198 0.76742 0.58407 0.0
C2061 C 0.11931 0.7803 0.57635 0.0
C2062 C 0.13337 0.79291 0.56919 0.0
C2063 C 0.14829 0.79252 0.56967 0.0
C2064 C 0.14896 0.77959 0.57754 0.0
C2065 C 0.13474 0.76721 0.58474 0.0
C2066 C 0.13227 0.8066 0.56102 0.0
C2067 C 0.16469 0.77882 0.57825 0.0
C2068 C 0.25352 0.9024 0.62316 0.0
C2069 C 0.24233 0.88556 0.61638 0.0
C2070 C 0.22132 0.87225 0.59552 0.0
C2071 C 0.2221 0.85756 0.59483 0.0
C2072 C 0.21175 0.84451 0.5845 0.0
C2073 C 0.20021 0.84603 0.57485 0.0
C2074 C 0.1993 0.86074 0.57561 0.0
C2075 C 0.21001 0.87372 0.58585 0.0
C2076 C 0.21309 0.82902 0.58394 0.0
C2077 C 0.18694 0.86268 0.56571 0.0
C2078 C 0.23821 0.86919 0.47313 0.0
C2079 C 0.2388 0.85481 0.47664 0.0
C2080 C 0.22638 0.84221 0.48551 0.0
C2081 C 0.21293 0.84389 0.49071 0.0
C2082 C 0.21241 0.85846 0.48731 0.0
C2083 C 0.22526 0.87107 0.47882 0.0
C2084 C 0.22751 0.82699 0.4891 0.0
C2085 C 0.1981 0.86058 0.49229 0.0
C2086 C 0.10631 0.72428 0.47312 0.0
C2087 C 0.11115 0.739 0.4623 0.0
C2088 C 0.13921 0.76111 0.46858 0.0
C2089 C 0.15385 0.76218 0.47401 0.0
C2090 C 0.16539 0.77593 0.48301 0.0
C2091 C 0.1623 0.78905 0.48632 0.0
C2092 C 0.1479 0.78841 0.48015 0.0
C2093 C 0.13648 0.77443 0.47133 0.0
C2094 C 0.18072 0.7763 0.48924 0.0
C2095 C 0.14448 0.80242 0.48307 0.0
C2096 C 0.16318 0.80558 0.56186 0.0
C2097 C 0.17454 0.81919 0.57097 0.0
C2098 C 0.18874 0.83204 0.56435 0.0
C2099 C 0.19169 0.83144 0.54813 0.0
C2100 C 0.20588 0.84411 0.54107 0.0
C2101 C 0.2084 0.84362 0.525 0.0
C2102 C 0.19686 0.83043 0.51538 0.0
C2103 C 0.199 0.83005 0.49895 0.0
C2104 C 0.18754 0.81645 0.48984 0.0
C2105 C 0.17387 0.80317 0.49665 0.0
C2106 C 0.1713 0.80349 0.51299 0.0
C2107 C 0.15752 0.79044 0.52018 0.0
C2108 C 0.15487 0.79106 0.53619 0.0
C2109 C 0.16595 0.80469 0.54565 0.0
C2110 C 0.18016 0.81777 0.53873 0.0
C2111 C 0.18279 0.81722 0.52236 0.0
C2112 C 0.26555 0.89181 0.4405 0.0
C2113 C 0.25925 0.87906 0.45293 0.0
O2114 O 0.10558 0.75552 0.59052 0.0
O2115 O 0.12814 0.74719 0.46053 0.0
O2116 O 0.2496 0.88126 0.46395 0.0
O2117 O 0.23121 0.88522 0.60528 0.0
H2118 H 0.11373 0.74492 0.6066 0.0
H2119 H 0.11283 0.73247 0.5799 0.0
H2120 H 0.09097 0.7247 0.57835 0.0
H2121 H 0.09916 0.71685 0.59313 0.0
H2122 H 0.10778 0.7804 0.57591 0.0
H2123 H 0.13545 0.75742 0.59072 0.0
H2124 H 0.142 0.81885 0.56572 0.0
H2125 H 0.12003 0.80566 0.56247 0.0
H2126 H 0.13447 0.80612 0.54826 0.0
H2127 H 0.163 0.76751 0.58413 0.0
H2128 H 0.17437 0.78987 0.58477 0.0
H2129 H 0.16923 0.77906 0.56617 0.0
H2130 H 0.2364 0.87548 0.6251 0.0
H2131 H 0.27695 0.90784 0.61554 0.0
H2132 H 0.25026 0.90147 0.63597 0.0
H2133 H 0.24787 0.91026 0.62014 0.0
H2134 H 0.23077 0.85621 0.60227 0.0
H2135 H 0.20948 0.88507 0.58647 0.0
H2136 H 0.20164 0.81852 0.58862 0.0
H2137 H 0.22379 0.83041 0.59096 0.0
H2138 H 0.2143 0.8258 0.57159 0.0
H2139 H 0.18702 0.87441 0.56848 0.0
H2140 H 0.17431 0.8521 0.56756 0.0
H2141 H 0.18976 0.86255 0.55307 0.0
H2142 H 0.26862 0.87649 0.45834 0.0
H2143 H 0.24891 0.85335 0.47247 0.0
H2144 H 0.22494 0.88222 0.47606 0.0
H2145 H 0.22471 0.82369 0.50164 0.0
H2146 H 0.23992 0.82876 0.48656 0.0
H2147 H 0.21823 0.81639 0.4818 0.0
H2148 H 0.19856 0.87165 0.48703 0.0
H2149 H 0.19829 0.86196 0.50528 0.0
H2150 H 0.1862 0.84944 0.48882 0.0
H2151 H 0.10712 0.74702 0.46831 0.0
H2152 H 0.09288 0.7179 0.47557 0.0
H2153 H 0.11305 0.7288 0.48456 0.0
H2154 H 0.1096 0.71538 0.4678 0.0
H2155 H 0.15597 0.75196 0.47155 0.0
H2156 H 0.12554 0.77403 0.4665 0.0
H2157 H 0.18127 0.77757 0.50227 0.0
H2158 H 0.19184 0.78725 0.48464 0.0
H2159 H 0.18115 0.76496 0.48589 0.0
H2160 H 0.13335 0.8006 0.47651 0.0
H2161 H 0.15527 0.81435 0.47957 0.0
H2162 H 0.1426 0.80342 0.49582 0.0
H2163 H 0.1723 0.8198 0.5834 0.0
H2164 H 0.21513 0.85462 0.54788 0.0
H2165 H 0.21949 0.85376 0.52019 0.0
H2166 H 0.18925 0.81623 0.47725 0.0
H2167 H 0.14854 0.77965 0.5135 0.0
H2168 H 0.14398 0.78071 0.54105 0.0
H2169 H 0.27938 0.89855 0.44208 0.0
H2170 H 0.26417 0.90245 0.44508 0.0
H2171 H 0.25362 0.87832 0.41993 0.0
C2172 C 0.13662 0.36449 0.62881 0.0
C2173 C 0.12561 0.3673 0.61727 0.0
C2174 C 0.13555 0.36173 0.59249 0.0
C2175 C 0.14988 0.37731 0.5912 0.0
C2176 C 0.16215 0.37975 0.58041 0.0
C2177 C 0.16022 0.36628 0.57091 0.0
C2178 C 0.14564 0.35068 0.57192 0.0
C2179 C 0.13337 0.34871 0.58253 0.0
C2180 C 0.17737 0.39666 0.57943 0.0
C2181 C 0.14323 0.33599 0.56212 0.0
C2182 C 0.2788 0.38865 0.5891 0.0
C2183 C 0.265 0.37492 0.59865 0.0
C2184 C 0.23969 0.36569 0.58262 0.0
C2185 C 0.22747 0.35237 0.57383 0.0
C2186 C 0.21439 0.35329 0.56671 0.0
C2187 C 0.21377 0.36811 0.56818 0.0
C2188 C 0.22598 0.3816 0.57723 0.0
C2189 C 0.23875 0.38021 0.5845 0.0
C2190 C 0.20139 0.3385 0.55745 0.0
C2191 C 0.22565 0.39756 0.57906 0.0
C2192 C 0.2471 0.39142 0.46924 0.0
C2193 C 0.23477 0.375 0.47187 0.0
C2194 C 0.2202 0.37154 0.47962 0.0
C2195 C 0.21804 0.38479 0.48492 0.0
C2196 C 0.2302 0.40132 0.48173 0.0
C2197 C 0.24449 0.40438 0.47372 0.0
C2198 C 0.20725 0.35375 0.48237 0.0
C2199 C 0.22827 0.41576 0.48707 0.0
C2200 C 0.11573 0.39787 0.46598 0.0
C2201 C 0.12153 0.38922 0.45431 0.0
C2202 C 0.1358 0.37771 0.46959 0.0
C2203 C 0.13532 0.36296 0.47348 0.0
C2204 C 0.14846 0.36309 0.48166 0.0
C2205 C 0.1623 0.37841 0.48635 0.0
C2206 C 0.16284 0.39341 0.4826 0.0
C2207 C 0.14963 0.39293 0.47418 0.0
C2208 C 0.14757 0.34685 0.48528 0.0
C2209 C 0.17736 0.40996 0.48755 0.0
C2210 C 0.17401 0.36827 0.56088 0.0
C2211 C 0.18696 0.36735 0.5682 0.0
C2212 C 0.20068 0.36966 0.55975 0.0
C2213 C 0.20166 0.37307 0.54353 0.0
C2214 C 0.21558 0.37606 0.53483 0.0
C2215 C 0.21628 0.37899 0.51879 0.0
C2216 C 0.20302 0.37891 0.5108 0.0
C2217 C 0.20345 0.38148 0.49441 0.0
C2218 C 0.19001 0.3812 0.48682 0.0
C2219 C 0.17618 0.37874 0.49522 0.0
C2220 C 0.17566 0.37649 0.51167 0.0
C2221 C 0.16217 0.37449 0.52057 0.0
C2222 C 0.16167 0.372 0.53671 0.0
C2223 C 0.17455 0.37122 0.54455 0.0
C2224 C 0.1884 0.37353 0.53585 0.0
C2225 C 0.18903 0.37631 0.51943 0.0
C2226 C 0.28746 0.39967 0.47155 0.0
C2227 C 0.27052 0.38722 0.46456 0.0
O2228 O 0.12369 0.35865 0.60325 0.0
O2229 O 0.12262 0.37659 0.46159 0.0
O2230 O 0.26154 0.3952 0.46226 0.0
O2231 O 0.25217 0.36396 0.58881 0.0
H2232 H 0.13132 0.38076 0.61495 0.0
H2233 H 0.14912 0.36918 0.62391 0.0
H2234 H 0.13118 0.35106 0.63114 0.0
H2235 H 0.13804 0.37123 0.64012 0.0
H2236 H 0.15167 0.38764 0.59857 0.0
H2237 H 0.12223 0.33677 0.58351 0.0
H2238 H 0.18805 0.39626 0.5847 0.0
H2239 H 0.17593 0.40635 0.58578 0.0
H2240 H 0.18026 0.40024 0.56696 0.0
H2241 H 0.13153 0.32451 0.56483 0.0
H2242 H 0.15371 0.33379 0.56418 0.0
H2243 H 0.14307 0.33861 0.54945 0.0
H2244 H 0.26036 0.38062 0.60733 0.0
H2245 H 0.28922 0.39716 0.59702 0.0
H2246 H 0.27424 0.39605 0.58297 0.0
H2247 H 0.28344 0.38329 0.5801 0.0
H2248 H 0.22825 0.3412 0.57252 0.0
H2249 H 0.248 0.39061 0.59138 0.0
H2250 H 0.18885 0.33576 0.56091 0.0
H2251 H 0.20243 0.32726 0.55918 0.0
H2252 H 0.20269 0.34134 0.54473 0.0
H2253 H 0.23684 0.40742 0.58527 0.0
H2254 H 0.21464 0.39525 0.58587 0.0
H2255 H 0.22461 0.40212 0.56735 0.0
H2256 H 0.26442 0.37716 0.47326 0.0
H2257 H 0.23646 0.36489 0.4678 0.0
H2258 H 0.25397 0.41699 0.47136 0.0
H2259 H 0.20663 0.35125 0.49514 0.0
H2260 H 0.20993 0.34487 0.47604 0.0
H2261 H 0.19491 0.35151 0.4785 0.0
H2262 H 0.23926 0.42789 0.48442 0.0
H2263 H 0.22615 0.41519 0.49994 0.0
H2264 H 0.2173 0.415 0.48112 0.0
H2265 H 0.13384 0.39855 0.44985 0.0
H2266 H 0.11444 0.40769 0.45999 0.0
H2267 H 0.12483 0.40377 0.47579 0.0
H2268 H 0.10367 0.38887 0.47108 0.0
H2269 H 0.1246 0.35129 0.46993 0.0
H2270 H 0.1502 0.40448 0.47141 0.0
H2271 H 0.14701 0.34516 0.4982 0.0
H2272 H 0.15886 0.34698 0.48113 0.0
H2273 H 0.13658 0.33609 0.47972 0.0
H2274 H 0.17529 0.42044 0.48493 0.0
H2275 H 0.18852 0.41188 0.48126 0.0
H2276 H 0.17988 0.41014 0.50035 0.0
H2277 H 0.18637 0.36484 0.58067 0.0
H2278 H 0.22612 0.37616 0.54031 0.0
H2279 H 0.22731 0.38119 0.51273 0.0
H2280 H 0.19035 0.38302 0.47422 0.0
H2281 H 0.15183 0.37482 0.51514 0.0
H2282 H 0.15099 0.37053 0.54296 0.0
H2283 H 0.29488 0.39356 0.4737 0.0
H2284 H 0.28594 0.40467 0.48295 0.0
H2285 H 0.29428 0.41016 0.46347 0.0
C2286 C 0.98095 0.36144 0.05515 0.0
C2287 C 0.99317 0.37036 0.04413 0.0
C2288 C 0.97854 0.36955 0.06801 0.0
C2289 C 0.98838 0.387 0.06969 0.0
C2290 C 0.00057 0.39608 0.05845 0.0
C2291 C 0.00293 0.38762 0.04588 0.0
C2292 C 0.96561 0.35944 0.07992 0.0
C2293 C 0.0111 0.41472 0.05969 0.0
C2294 C 0.97121 0.40859 0.0949 0.0
C2295 C 0.98006 0.41135 0.10908 0.0
C2296 C 0.97398 0.40091 0.08192 0.0
C2297 C 0.98582 0.39575 0.08315 0.0
C2298 C 0.99512 0.39886 0.09726 0.0
C2299 C 0.99238 0.40693 0.10995 0.0
C2300 C 0.96417 0.39826 0.06689 0.0
C2301 C 0.00781 0.39345 0.09904 0.0
H2302 H 0.97348 0.34808 0.05387 0.0
H2303 H 0.01236 0.39455 0.03734 0.0
H2304 H 0.97145 0.36151 0.09177 0.0
H2305 H 0.9563 0.36347 0.08056 0.0
H2306 H 0.95916 0.34595 0.07703 0.0
H2307 H 0.01968 0.41997 0.0497 0.0
H2308 H 0.00312 0.42039 0.06004 0.0
H2309 H 0.01847 0.41837 0.0708 0.0
H2310 H 0.96205 0.41243 0.09398 0.0
H2311 H 0.99975 0.40957 0.1206 0.0
H2312 H 0.95655 0.38481 0.06413 0.0
H2313 H 0.97266 0.40401 0.05694 0.0
H2314 H 0.95589 0.40359 0.06766 0.0
H2315 H 0.00186 0.37985 0.09703 0.0
H2316 H 0.01383 0.39659 0.11087 0.0
H2317 H 0.01748 0.39942 0.09006 0.0
C2318 C 0.6353 0.60847 0.05599 0.0
C2319 C 0.62769 0.61249 0.04392 0.0
C2320 C 0.62579 0.59661 0.06719 0.0
C2321 C 0.60834 0.5885 0.06611 0.0
C2322 C 0.60065 0.59209 0.05357 0.0
C2323 C 0.61042 0.60411 0.04271 0.0
C2324 C 0.6344 0.5932 0.08048 0.0
C2325 C 0.58207 0.58356 0.05184 0.0
C2326 C 0.5794 0.5486 0.08659 0.0
C2327 C 0.57312 0.55441 0.09847 0.0
C2328 C 0.59168 0.55964 0.0765 0.0
C2329 C 0.59788 0.57688 0.07843 0.0
C2330 C 0.59237 0.58285 0.09105 0.0
C2331 C 0.57995 0.57154 0.10083 0.0
C2332 C 0.59716 0.55278 0.06314 0.0
C2333 C 0.59883 0.60116 0.09363 0.0
H2334 H 0.64866 0.61499 0.05698 0.0
H2335 H 0.60449 0.6071 0.03332 0.0
H2336 H 0.63187 0.59756 0.09177 0.0
H2337 H 0.62955 0.57969 0.08142 0.0
H2338 H 0.64798 0.5995 0.07894 0.0
H2339 H 0.57808 0.58702 0.04089 0.0
H2340 H 0.57668 0.56991 0.05178 0.0
H2341 H 0.5769 0.5869 0.06203 0.0
H2342 H 0.57411 0.53536 0.08472 0.0
H2343 H 0.57512 0.57609 0.10997 0.0
H2344 H 0.61081 0.55966 0.06228 0.0
H2345 H 0.59206 0.55433 0.05188 0.0
H2346 H 0.59289 0.5394 0.06452 0.0
H2347 H 0.61251 0.60817 0.0932 0.0
H2348 H 0.59495 0.60387 0.10508 0.0
H2349 H 0.59412 0.60578 0.08409 0.0
C2350 C 0.3836 0.01626 0.05041 0.0
C2351 C 0.36853 0.00227 0.04607 0.0
C2352 C 0.39273 0.01597 0.06348 0.0
C2353 C 0.38643 0.00145 0.07252 0.0
C2354 C 0.37096 0.98749 0.06844 0.0
C2355 C 0.36227 0.98803 0.05518 0.0
C2356 C 0.40929 0.03099 0.06737 0.0
C2357 C 0.36369 0.97187 0.07793 0.0
C2358 C 0.41448 0.99119 0.09629 0.0
C2359 C 0.41259 0.99577 0.1116 0.0
C2360 C 0.40664 0.99373 0.08338 0.0
C2361 C 0.39622 0.00048 0.08588 0.0
C2362 C 0.3943 0.00519 0.10126 0.0
C2363 C 0.40259 0.00286 0.11392 0.0
C2364 C 0.40915 0.98873 0.06711 0.0
C2365 C 0.38301 0.01209 0.10443 0.0
H2366 H 0.38848 0.02727 0.04334 0.0
H2367 H 0.35054 0.97724 0.05193 0.0
H2368 H 0.4096 0.03511 0.07973 0.0
H2369 H 0.41914 0.02773 0.06625 0.0
H2370 H 0.41216 0.0415 0.05953 0.0
H2371 H 0.35108 0.96251 0.07374 0.0
H2372 H 0.37172 0.96629 0.07722 0.0
H2373 H 0.36309 0.97484 0.09051 0.0
H2374 H 0.42192 0.98543 0.09435 0.0
H2375 H 0.40091 0.00617 0.12577 0.0
H2376 H 0.41273 0.99909 0.05889 0.0
H2377 H 0.3974 0.97811 0.06257 0.0
H2378 H 0.41879 0.98509 0.06699 0.0
H2379 H 0.38628 0.02289 0.09689 0.0
H2380 H 0.38358 0.016 0.11693 0.0
H2381 H 0.37008 0.00255 0.10142 0.0
C2382 C 0.35761 0.98 0.95737 0.0
C2383 C 0.36648 0.99045 0.97013 0.0
C2384 C 0.36583 0.97743 0.94485 0.0
C2385 C 0.3833 0.98533 0.94523 0.0
C2386 C 0.39229 0.99567 0.95823 0.0
C2387 C 0.38377 0.99819 0.97048 0.0
C2388 C 0.35586 0.96647 0.93109 0.0
C2389 C 0.4109 0.00414 0.95916 0.0
C2390 C 0.40321 0.96704 0.91917 0.0
C2391 C 0.40844 0.97785 0.90645 0.0
C2392 C 0.39523 0.96946 0.93197 0.0
C2393 C 0.39219 0.98289 0.93197 0.0
C2394 C 0.39764 0.994 0.91929 0.0
C2395 C 0.40596 0.99151 0.90683 0.0
C2396 C 0.39001 0.95763 0.94549 0.0
C2397 C 0.39451 0.0084 0.91881 0.0
H2398 H 0.34426 0.97407 0.95703 0.0
H2399 H 0.39067 0.00625 0.98035 0.0
H2400 H 0.35957 0.97367 0.92011 0.0
H2401 H 0.35838 0.9561 0.92954 0.0
H2402 H 0.34237 0.96121 0.9326 0.0
H2403 H 0.41599 0.01131 0.97035 0.0
H2404 H 0.41494 0.99482 0.95812 0.0
H2405 H 0.41633 0.01272 0.94922 0.0
H2406 H 0.40537 0.95664 0.9191 0.0
H2407 H 0.41035 0.00016 0.89725 0.0
H2408 H 0.37639 0.95122 0.94666 0.0
H2409 H 0.3955 0.96459 0.95668 0.0
H2410 H 0.39379 0.94815 0.94393 0.0
H2411 H 0.38105 0.00378 0.91944 0.0
H2412 H 0.39928 0.01571 0.90796 0.0
H2413 H 0.40045 0.01676 0.92915 0.0
C2414 C 0.02145 0.38173 0.95996 0.0
C2415 C 0.00825 0.37656 0.9703 0.0
C2416 C 0.02253 0.39099 0.94666 0.0
C2417 C 0.01025 0.39536 0.94383 0.0
C2418 C 0.99712 0.39049 0.95446 0.0
C2419 C 0.99621 0.38104 0.9675 0.0
C2420 C 0.0366 0.3958 0.93547 0.0
C2421 C 0.98393 0.39511 0.95198 0.0
C2422 C 0.02037 0.43087 0.91637 0.0
C2423 C 0.0124 0.42245 0.90234 0.0
C2424 C 0.01973 0.42224 0.92998 0.0
C2425 C 0.01092 0.40471 0.92957 0.0
C2426 C 0.00254 0.39608 0.9156 0.0
C2427 C 0.0031 0.40503 0.90225 0.0
C2428 C 0.02843 0.43188 0.9448 0.0
C2429 C 0.99304 0.37736 0.91471 0.0
H2430 H 0.03073 0.37823 0.96206 0.0
H2431 H 0.98602 0.37714 0.97552 0.0
H2432 H 0.03165 0.3903 0.92364 0.0
H2433 H 0.04363 0.40945 0.93422 0.0
H2434 H 0.04525 0.39162 0.93945 0.0
H2435 H 0.97499 0.39103 0.96175 0.0
H2436 H 0.98967 0.40874 0.95091 0.0
H2437 H 0.97703 0.38939 0.94084 0.0
H2438 H 0.02718 0.44431 0.91665 0.0
H2439 H 0.99638 0.39825 0.89176 0.0
H2440 H 0.03795 0.42877 0.94851 0.0
H2441 H 0.01948 0.42837 0.9545 0.0
H2442 H 0.03449 0.44549 0.94324 0.0
H2443 H 0.00132 0.37245 0.91781 0.0
H2444 H 0.9876 0.37252 0.90282 0.0
H2445 H 0.98294 0.37248 0.92336 0.0
C2446 C 0.60722 0.63407 0.97613 0.0
C2447 C 0.62331 0.63683 0.97479 0.0
C2448 C 0.59614 0.62797 0.96327 0.0
C2449 C 0.60151 0.6251 0.94863 0.0
C2450 C 0.61794 0.62838 0.94712 0.0
C2451 C 0.62857 0.63394 0.96032 0.0
C2452 C 0.57858 0.62415 0.96545 0.0
C2453 C 0.62426 0.62593 0.93161 0.0
C2454 C 0.57031 0.59428 0.91906 0.0
C2455 C 0.56787 0.60469 0.90891 0.0
C2456 C 0.58093 0.60076 0.93221 0.0
C2457 C 0.58979 0.6181 0.93504 0.0
C2458 C 0.58759 0.6287 0.92478 0.0
C2459 C 0.57649 0.62184 0.91199 0.0
C2460 C 0.58266 0.58902 0.9431 0.0
C2461 C 0.59716 0.64728 0.92718 0.0
H2462 H 0.60314 0.6362 0.98738 0.0
H2463 H 0.64108 0.63621 0.95927 0.0
H2464 H 0.57554 0.63125 0.95703 0.0
H2465 H 0.56994 0.6108 0.96292 0.0
H2466 H 0.5764 0.62714 0.97757 0.0
H2467 H 0.63767 0.63014 0.93216 0.0
H2468 H 0.61746 0.61262 0.92807 0.0
H2469 H 0.62204 0.63282 0.92227 0.0
H2470 H 0.56389 0.58102 0.91685 0.0
H2471 H 0.57465 0.62993 0.90421 0.0
H2472 H 0.58002 0.59112 0.95535 0.0
H2473 H 0.59553 0.59142 0.943 0.0
H2474 H 0.57422 0.57582 0.93974 0.0
H2475 H 0.59434 0.65071 0.93882 0.0
H2476 H 0.59428 0.65382 0.91794 0.0
H2477 H 0.61061 0.65177 0.92712 0.0
C2478 C 0.02463 0.63959 0.95847 0.0
C2479 C 0.01058 0.62901 0.96701 0.0
C2480 C 0.02951 0.63362 0.94555 0.0
C2481 C 0.02014 0.61664 0.94112 0.0
C2482 C 0.00618 0.60581 0.94994 0.0
C2483 C 0.00154 0.61213 0.96277 0.0
C2484 C 0.04446 0.64557 0.93643 0.0
C2485 C 0.99595 0.58762 0.94561 0.0
C2486 C 0.02328 0.60625 0.89843 0.0
C2487 C 0.03496 0.60105 0.8994 0.0
C2488 C 0.01802 0.61093 0.91197 0.0
C2489 C 0.02463 0.61043 0.92686 0.0
C2490 C 0.03616 0.60483 0.92796 0.0
C2491 C 0.04131 0.60035 0.9142 0.0
C2492 C 0.0058 0.61694 0.91029 0.0
C2493 C 0.04342 0.60405 0.94363 0.0
H2494 H 0.03167 0.65264 0.9617 0.0
H2495 H 0.99069 0.60389 0.96937 0.0
H2496 H 0.05348 0.64115 0.93588 0.0
H2497 H 0.04074 0.64619 0.92415 0.0
H2498 H 0.05071 0.65827 0.94171 0.0
H2499 H 0.98596 0.5807 0.95413 0.0
H2500 H 0.99028 0.58611 0.93376 0.0
H2501 H 0.00393 0.58196 0.94507 0.0
H2502 H 0.01858 0.60706 0.88699 0.0
H2503 H 0.05058 0.59665 0.91497 0.0
H2504 H 0.01169 0.63013 0.91416 0.0
H2505 H 0.99506 0.60978 0.91795 0.0
H2506 H 0.00125 0.61583 0.89798 0.0
H2507 H 0.05106 0.61675 0.94867 0.0
H2508 H 0.05125 0.59824 0.94261 0.0
H2509 H 0.03343 0.59691 0.95206 0.0
C2510 C 0.35988 0.3963 0.95814 0.0
C2511 C 0.37182 0.39362 0.96541 0.0
C2512 C 0.36395 0.40716 0.94555 0.0
C2513 C 0.38044 0.41576 0.94026 0.0
C2514 C 0.39263 0.41337 0.94776 0.0
C2515 C 0.38814 0.4022 0.96018 0.0
C2516 C 0.35053 0.40918 0.93771 0.0
C2517 C 0.41037 0.42251 0.9426 0.0
C2518 C 0.38606 0.43082 0.8983 0.0
C2519 C 0.3898 0.44727 0.90052 0.0
C2520 C 0.38348 0.42056 0.91115 0.0
C2521 C 0.38472 0.42695 0.92662 0.0
C2522 C 0.38895 0.4437 0.92896 0.0
C2523 C 0.39124 0.45361 0.91588 0.0
C2524 C 0.37875 0.40271 0.90815 0.0
C2525 C 0.39053 0.45099 0.94528 0.0
H2526 H 0.34723 0.38963 0.96209 0.0
H2527 H 0.39742 0.40019 0.96581 0.0
H2528 H 0.3538 0.42238 0.93823 0.0
H2529 H 0.34936 0.40546 0.9251 0.0
H2530 H 0.33834 0.40163 0.94328 0.0
H2531 H 0.41849 0.4198 0.95008 0.0
H2532 H 0.41116 0.41903 0.93024 0.0
H2533 H 0.41515 0.43607 0.943 0.0
H2534 H 0.38466 0.42582 0.88644 0.0
H2535 H 0.3938 0.46622 0.91767 0.0
H2536 H 0.36605 0.39443 0.91235 0.0
H2537 H 0.38713 0.39969 0.91481 0.0
H2538 H 0.37919 0.39992 0.89547 0.0
H2539 H 0.37826 0.445 0.9509 0.0
H2540 H 0.39539 0.46457 0.94514 0.0
H2541 H 0.39884 0.44854 0.95273 0.0
C2542 C 0.60699 0.99779 0.96425 0.0
C2543 C 0.61351 0.98809 0.96975 0.0
C2544 C 0.59744 0.99342 0.95033 0.0
C2545 C 0.59464 0.97919 0.94156 0.0
C2546 C 0.60098 0.96921 0.9472 0.0
C2547 C 0.61022 0.97371 0.96131 0.0
C2548 C 0.59064 0.0042 0.94483 0.0
C2549 C 0.59846 0.95408 0.93808 0.0
C2550 C 0.56049 0.95907 0.91049 0.0
C2551 C 0.56924 0.96565 0.8966 0.0
C2552 C 0.56847 0.96386 0.92526 0.0
C2553 C 0.58569 0.97509 0.92614 0.0
C2554 C 0.59456 0.98183 0.91219 0.0
C2555 C 0.58621 0.97708 0.89761 0.0
C2556 C 0.55856 0.95661 0.9399 0.0
C2557 C 0.61298 0.99361 0.9126 0.0
H2558 H 0.60945 0.00889 0.97079 0.0
H2559 H 0.61531 0.96622 0.96548 0.0
H2560 H 0.59638 0.01001 0.93357 0.0
H2561 H 0.57713 0.99654 0.94259 0.0
H2562 H 0.59296 0.01416 0.95353 0.0
H2563 H 0.60387 0.94743 0.94426 0.0
H2564 H 0.5851 0.94537 0.93602 0.0
H2565 H 0.60424 0.95778 0.92638 0.0
H2566 H 0.54744 0.94999 0.90981 0.0
H2567 H 0.59303 0.98194 0.88689 0.0
H2568 H 0.56081 0.96664 0.94847 0.0
H2569 H 0.56255 0.94854 0.94564 0.0
H2570 H 0.54509 0.94916 0.9373 0.0
H2571 H 0.61603 0.00448 0.92034 0.0
H2572 H 0.61796 0.99809 0.90073 0.0
H2573 H 0.61936 0.98733 0.91762 0.0
C2574 C 0.61058 0.00955 0.04836 0.0
C2575 C 0.62713 0.0194 0.04409 0.0
C2576 C 0.60438 0.01361 0.06164 0.0
C2577 C 0.61506 0.0277 0.07101 0.0
C2578 C 0.63174 0.03781 0.06663 0.0
C2579 C 0.63753 0.03361 0.05314 0.0
C2580 C 0.58647 0.00267 0.0658 0.0
C2581 C 0.64358 0.05281 0.07643 0.0
C2582 C 0.59807 0.04693 0.09964 0.0
C2583 C 0.59916 0.04019 0.11396 0.0
C2584 C 0.60272 0.04258 0.08549 0.0
C2585 C 0.609 0.03156 0.08571 0.0
C2586 C 0.61007 0.02467 0.10011 0.0
C2587 C 0.60512 0.02906 0.11404 0.0
C2588 C 0.60125 0.05006 0.07035 0.0
C2589 C 0.61691 0.01304 0.10088 0.0
H2590 H 0.60247 0.99858 0.04136 0.0
H2591 H 0.65036 0.0412 0.04993 0.0
H2592 H 0.58562 0.99678 0.07727 0.0
H2593 H 0.58037 0.01022 0.0671 0.0
H2594 H 0.57956 0.99276 0.05679 0.0
H2595 H 0.65605 0.05959 0.07121 0.0
H2596 H 0.63873 0.06145 0.07774 0.0
H2597 H 0.6448 0.04892 0.08841 0.0
H2598 H 0.59382 0.05583 0.09954 0.0
H2599 H 0.60629 0.02409 0.12513 0.0
H2600 H 0.59413 0.04014 0.06143 0.0
H2601 H 0.61371 0.05815 0.06554 0.0
H2602 H 0.59511 0.05754 0.07202 0.0
H2603 H 0.60981 0.00225 0.0928 0.0
H2604 H 0.61651 0.00843 0.11294 0.0
H2605 H 0.62991 0.01949 0.09696 0.0
C2606 C 0.99575 0.62908 0.05648 0.0
C2607 C 0.98658 0.62076 0.0429 0.0
C2608 C 0.99322 0.62079 0.07071 0.0
C2609 C 0.98153 0.60366 0.07128 0.0
C2610 C 0.97242 0.59512 0.05753 0.0
C2611 C 0.9749 0.60384 0.04352 0.0
C2612 C 0.00292 0.63044 0.08518 0.0
C2613 C 0.96014 0.57677 0.0576 0.0
C2614 C 0.9875 0.58156 0.10569 0.0
C2615 C 0.97593 0.58105 0.11641 0.0
C2616 C 0.98905 0.58832 0.09073 0.0
C2617 C 0.97883 0.59484 0.08638 0.0
C2618 C 0.96668 0.59381 0.09686 0.0
C2619 C 0.96516 0.58666 0.11162 0.0
C2620 C 0.00189 0.58882 0.07973 0.0
C2621 C 0.95565 0.60077 0.09269 0.0
H2622 H 0.0047 0.6422 0.05606 0.0
H2623 H 0.96787 0.59739 0.033 0.0
H2624 H 0.99433 0.62937 0.09462 0.0
H2625 H 0.01046 0.62519 0.0897 0.0
H2626 H 0.01126 0.64378 0.08282 0.0
H2627 H 0.95441 0.57188 0.04582 0.0
H2628 H 0.96634 0.5699 0.06155 0.0
H2629 H 0.95022 0.5742 0.06607 0.0
H2630 H 0.99553 0.57683 0.10914 0.0
H2631 H 0.95576 0.58589 0.11946 0.0
H2632 H 0.0116 0.60187 0.07791 0.0
H2633 H 0.9962 0.58343 0.06806 0.0
H2634 H 0.00785 0.58195 0.08435 0.0
H2635 H 0.96328 0.61434 0.09104 0.0
H2636 H 0.94644 0.5985 0.10192 0.0
H2637 H 0.94898 0.59523 0.08142 0.0
C2638 C 0.39925 0.38636 0.04455 0.0
C2639 C 0.39067 0.37026 0.03807 0.0
C2640 C 0.4084 0.38973 0.05865 0.0
C2641 C 0.40866 0.37661 0.0666 0.0
C2642 C 0.40028 0.36039 0.05992 0.0
C2643 C 0.39152 0.35745 0.04565 0.0
C2644 C 0.41746 0.40724 0.06524 0.0
C2645 C 0.40004 0.346 0.06813 0.0
C2646 C 0.44042 0.38377 0.09845 0.0
C2647 C 0.43149 0.38202 0.11218 0.0
C2648 C 0.43343 0.38283 0.08352 0.0
C2649 C 0.41695 0.37956 0.08229 0.0
C2650 C 0.40798 0.37802 0.09611 0.0
C2651 C 0.41538 0.37933 0.11087 0.0
C2652 C 0.44347 0.38478 0.06906 0.0
C2653 C 0.39029 0.37428 0.09531 0.0
H2654 H 0.39867 0.39632 0.03868 0.0
H2655 H 0.38483 0.34496 0.04073 0.0
H2656 H 0.41181 0.40789 0.07646 0.0
H2657 H 0.43053 0.41104 0.0679 0.0
H2658 H 0.41715 0.41624 0.05702 0.0
H2659 H 0.39331 0.33424 0.06117 0.0
H2660 H 0.41283 0.34864 0.07041 0.0
H2661 H 0.39403 0.34423 0.0797 0.0
H2662 H 0.45277 0.38554 0.09933 0.0
H2663 H 0.40837 0.37769 0.12145 0.0
H2664 H 0.44303 0.39385 0.06104 0.0
H2665 H 0.43815 0.37276 0.06254 0.0
H2666 H 0.45659 0.38896 0.07204 0.0
H2667 H 0.38933 0.38359 0.08809 0.0
H2668 H 0.38528 0.37418 0.10714 0.0
H2669 H 0.38244 0.36199 0.08952 0.0
C2670 C 0.64237 0.68766 0.38791 0.0
C2671 C 0.65404 0.69905 0.37761 0.0
C2672 C 0.63623 0.69298 0.40032 0.0
C2673 C 0.64184 0.71009 0.40243 0.0
C2674 C 0.65361 0.72165 0.39207 0.0
C2675 C 0.6596 0.71599 0.37979 0.0
C2676 C 0.62374 0.68029 0.41119 0.0
C2677 C 0.65983 0.73999 0.3939 0.0
C2678 C 0.61473 0.72218 0.42556 0.0
C2679 C 0.62278 0.72656 0.4403 0.0
C2680 C 0.6209 0.71696 0.41308 0.0
C2681 C 0.63534 0.71589 0.41546 0.0
C2682 C 0.64351 0.72028 0.43031 0.0
C2683 C 0.6372 0.72568 0.44251 0.0
C2684 C 0.61195 0.71257 0.39736 0.0
C2685 C 0.65886 0.71917 0.43333 0.0
H2686 H 0.63805 0.67455 0.38628 0.0
H2687 H 0.66861 0.72485 0.37186 0.0
H2688 H 0.62851 0.68313 0.42349 0.0
H2689 H 0.61215 0.68082 0.41079 0.0
H2690 H 0.62078 0.66748 0.40805 0.0
H2691 H 0.66898 0.74735 0.38484 0.0
H2692 H 0.64933 0.74234 0.39307 0.0
H2693 H 0.66568 0.74449 0.40569 0.0
H2694 H 0.6036 0.72286 0.42379 0.0
H2695 H 0.64349 0.72913 0.45386 0.0
H2696 H 0.6077 0.69945 0.39419 0.0
H2697 H 0.62049 0.7203 0.38806 0.0
H2698 H 0.60109 0.7144 0.39735 0.0
H2699 H 0.65616 0.70628 0.43114 0.0
H2700 H 0.66368 0.72294 0.44557 0.0
H2701 H 0.66868 0.72721 0.4251 0.0
C2702 C 0.29734 0.94281 0.39627 0.0
C2703 C 0.2915 0.94052 0.38068 0.0
C2704 C 0.2895 0.93017 0.40725 0.0
C2705 C 0.27582 0.91481 0.40239 0.0
C2706 C 0.26992 0.91244 0.38667 0.0
C2707 C 0.27768 0.92541 0.37605 0.0
C2708 C 0.29576 0.93326 0.42406 0.0
C2709 C 0.25567 0.89605 0.38094 0.0
C2710 C 0.2675 0.87034 0.42863 0.0
C2711 C 0.24997 0.86862 0.44025 0.0
C2712 C 0.2772 0.88818 0.4163 0.0
C2713 C 0.268 0.90104 0.41347 0.0
C2714 C 0.24831 0.896 0.42177 0.0
C2715 C 0.23762 0.87836 0.43422 0.0
C2716 C 0.29269 0.89202 0.40806 0.0
C2717 C 0.24076 0.90649 0.41855 0.0
H2718 H 0.30796 0.95453 0.3999 0.0
H2719 H 0.2732 0.92356 0.36398 0.0
H2720 H 0.28548 0.93061 0.43212 0.0
H2721 H 0.30044 0.92478 0.42701 0.0
H2722 H 0.30585 0.94623 0.4262 0.0
H2723 H 0.2536 0.89572 0.36803 0.0
H2724 H 0.25798 0.88582 0.38396 0.0
H2725 H 0.24421 0.89371 0.38689 0.0
H2726 H 0.27352 0.86332 0.43144 0.0
H2727 H 0.22649 0.87593 0.44022 0.0
H2728 H 0.30332 0.9025 0.41428 0.0
H2729 H 0.29224 0.89585 0.39585 0.0
H2730 H 0.29445 0.8811 0.40801 0.0
H2731 H 0.23472 0.90761 0.42931 0.0
H2732 H 0.2311 0.90036 0.40924 0.0
H2733 H 0.25021 0.91893 0.41457 0.0
C2734 C 0.0616 0.34259 0.37968 0.0
C2735 C 0.05192 0.3498 0.3763 0.0
C2736 C 0.07315 0.34866 0.39218 0.0
C2737 C 0.07484 0.36207 0.40162 0.0
C2738 C 0.06497 0.36928 0.39834 0.0
C2739 C 0.05371 0.36313 0.38564 0.0
C2740 C 0.08363 0.3408 0.39522 0.0
C2741 C 0.06627 0.38347 0.40826 0.0
C2742 C 0.09353 0.36856 0.44269 0.0
C2743 C 0.10953 0.38192 0.44052 0.0
C2744 C 0.08215 0.3619 0.4301 0.0
C2745 C 0.08694 0.36864 0.41496 0.0
C2746 C 0.10314 0.38195 0.41264 0.0
C2747 C 0.11421 0.38851 0.42548 0.0
C2748 C 0.06493 0.34781 0.43306 0.0
C2749 C 0.10873 0.38935 0.39662 0.0
H2750 H 0.0603 0.33232 0.37243 0.0
H2751 H 0.04619 0.36869 0.3831 0.0
H2752 H 0.0969 0.35028 0.3945 0.0
H2753 H 0.08153 0.33583 0.40729 0.0
H2754 H 0.08091 0.33057 0.3867 0.0
H2755 H 0.0575 0.38749 0.4043 0.0
H2756 H 0.06376 0.37976 0.42073 0.0
H2757 H 0.07899 0.39422 0.40783 0.0
H2758 H 0.08991 0.36342 0.4543 0.0
H2759 H 0.12655 0.39882 0.42375 0.0
H2760 H 0.06222 0.33698 0.42539 0.0
H2761 H 0.05575 0.35159 0.43004 0.0
H2762 H 0.06323 0.34387 0.4455 0.0
H2763 H 0.10692 0.37955 0.38795 0.0
H2764 H 0.12193 0.39922 0.39667 0.0
H2765 H 0.10114 0.39471 0.39252 0.0
C2766 C 0.04862 0.31322 0.30353 0.0
C2767 C 0.03379 0.31344 0.30203 0.0
C2768 C 0.05515 0.30891 0.29069 0.0
C2769 C 0.04659 0.30467 0.27603 0.0
C2770 C 0.03137 0.30441 0.27457 0.0
C2771 C 0.02517 0.30884 0.28759 0.0
C2772 C 0.07142 0.30935 0.29268 0.0
C2773 C 0.02185 0.29986 0.25915 0.0
C2774 C 0.0713 0.31087 0.239 0.0
C2775 C 0.06803 0.29473 0.23559 0.0
C2776 C 0.06446 0.31428 0.25217 0.0
C2777 C 0.05392 0.30118 0.26205 0.0
C2778 C 0.05037 0.28482 0.25855 0.0
C2779 C 0.05743 0.28178 0.24532 0.0
C2780 C 0.06851 0.33189 0.2555 0.0
C2781 C 0.03908 0.27053 0.26874 0.0
H2782 H 0.05533 0.31678 0.31467 0.0
H2783 H 0.01368 0.30896 0.28638 0.0
H2784 H 0.07007 0.29725 0.28904 0.0
H2785 H 0.08076 0.31888 0.28497 0.0
H2786 H 0.07615 0.3122 0.30502 0.0
H2787 H 0.00979 0.29938 0.2602 0.0
H2788 H 0.02922 0.30907 0.25017 0.0
H2789 H 0.0196 0.28761 0.25479 0.0
H2790 H 0.07922 0.32086 0.23132 0.0
H2791 H 0.05464 0.26925 0.24254 0.0
H2792 H 0.07429 0.33597 0.26736 0.0
H2793 H 0.05701 0.33258 0.25546 0.0
H2794 H 0.07703 0.34066 0.24673 0.0
H2795 H 0.04405 0.27282 0.28098 0.0
H2796 H 0.03757 0.25854 0.2644 0.0
H2797 H 0.02673 0.26945 0.26916 0.0
C2798 C 0.70236 0.71912 0.29537 0.0
C2799 C 0.69031 0.71828 0.30561 0.0
C2800 C 0.70763 0.73001 0.2827 0.0
C2801 C 0.70094 0.74053 0.28047 0.0
C2802 C 0.68908 0.74002 0.29105 0.0
C2803 C 0.68377 0.72876 0.3034 0.0
C2804 C 0.72007 0.72999 0.27149 0.0
C2805 C 0.6819 0.75127 0.28924 0.0
C2806 C 0.72458 0.77845 0.25526 0.0
C2807 C 0.71551 0.77326 0.24107 0.0
C2808 C 0.71994 0.76796 0.26821 0.0
C2809 C 0.70604 0.75181 0.26686 0.0
C2810 C 0.69689 0.74646 0.25254 0.0
C2811 C 0.70164 0.75731 0.23987 0.0
C2812 C 0.72983 0.77419 0.28338 0.0
C2813 C 0.6821 0.72926 0.25058 0.0
H2814 H 0.70735 0.71095 0.297 0.0
H2815 H 0.67451 0.72819 0.31137 0.0
H2816 H 0.71459 0.72658 0.25945 0.0
H2817 H 0.73104 0.74258 0.27096 0.0
H2818 H 0.72419 0.72116 0.27495 0.0
H2819 H 0.67342 0.74991 0.29892 0.0
H2820 H 0.69196 0.76439 0.28899 0.0
H2821 H 0.67498 0.74848 0.27791 0.0
H2822 H 0.73526 0.79079 0.25627 0.0
H2823 H 0.69451 0.75331 0.22897 0.0
H2824 H 0.73495 0.76613 0.2866 0.0
H2825 H 0.72169 0.77362 0.29307 0.0
H2826 H 0.7402 0.78714 0.28256 0.0
H2827 H 0.68571 0.71985 0.25316 0.0
H2828 H 0.67664 0.72685 0.23852 0.0
H2829 H 0.67247 0.72755 0.2591 0.0
C2830 C 0.28439 0.97683 0.29867 0.0
C2831 C 0.28429 0.96437 0.30779 0.0
C2832 C 0.27359 0.97284 0.2857 0.0
C2833 C 0.26233 0.956 0.28189 0.0
C2834 C 0.26213 0.94337 0.29112 0.0
C2835 C 0.27319 0.94772 0.30392 0.0
C2836 C 0.27428 0.98663 0.27603 0.0
C2837 C 0.25019 0.92528 0.28753 0.0
C2838 C 0.22417 0.94559 0.25725 0.0
C2839 C 0.22857 0.94245 0.2424 0.0
C2840 C 0.23505 0.95002 0.27022 0.0
C2841 C 0.25077 0.95154 0.26823 0.0
C2842 C 0.25536 0.94859 0.25323 0.0
C2843 C 0.24417 0.94399 0.24052 0.0
C2844 C 0.22967 0.95293 0.28607 0.0
C2845 C 0.27206 0.95023 0.25061 0.0
H2846 H 0.29299 0.98973 0.30161 0.0
H2847 H 0.27303 0.93804 0.31098 0.0
H2848 H 0.27693 0.98514 0.2636 0.0
H2849 H 0.26212 0.98602 0.27613 0.0
H2850 H 0.28386 0.99908 0.28045 0.0
H2851 H 0.25148 0.91699 0.29597 0.0
H2852 H 0.23732 0.92287 0.28787 0.0
H2853 H 0.25222 0.922 0.27548 0.0
H2854 H 0.21215 0.94444 0.25876 0.0
H2855 H 0.24759 0.94155 0.22905 0.0
H2856 H 0.2384 0.96567 0.29047 0.0
H2857 H 0.22989 0.94423 0.29471 0.0
H2858 H 0.21704 0.95125 0.28564 0.0
H2859 H 0.28198 0.96284 0.25422 0.0
H2860 H 0.27388 0.94794 0.23813 0.0
H2861 H 0.27349 0.9413 0.25802 0.0
C2862 C 0.67846 0.93916 0.30133 0.0
C2863 C 0.68599 0.95534 0.3076 0.0
C2864 C 0.68516 0.93528 0.28831 0.0
C2865 C 0.69953 0.94796 0.28127 0.0
C2866 C 0.70729 0.96428 0.28771 0.0
C2867 C 0.70051 0.96773 0.30088 0.0
C2868 C 0.67672 0.91769 0.28194 0.0
C2869 C 0.72248 0.97821 0.28039 0.0
C2870 C 0.7262 0.93888 0.2541 0.0
C2871 C 0.72079 0.9408 0.23924 0.0
C2872 C 0.71888 0.94044 0.26788 0.0
C2873 C 0.70616 0.94444 0.26679 0.0
C2874 C 0.70051 0.94616 0.25183 0.0
C2875 C 0.70788 0.94429 0.23825 0.0
C2876 C 0.72511 0.93834 0.28362 0.0
C2877 C 0.68714 0.95066 0.25017 0.0
H2878 H 0.66727 0.92954 0.30654 0.0
H2879 H 0.70632 0.98028 0.30565 0.0
H2880 H 0.67193 0.91721 0.26985 0.0
H2881 H 0.68572 0.91325 0.28117 0.0
H2882 H 0.66629 0.90907 0.28935 0.0
H2883 H 0.72718 0.99014 0.287 0.0
H2884 H 0.73246 0.97508 0.27991 0.0
H2885 H 0.71961 0.97993 0.26811 0.0
H2886 H 0.73639 0.9365 0.25496 0.0
H2887 H 0.70389 0.94605 0.22679 0.0
H2888 H 0.71463 0.92958 0.29088 0.0
H2889 H 0.73142 0.95041 0.2901 0.0
H2890 H 0.73393 0.9337 0.28241 0.0
H2891 H 0.67599 0.94178 0.2566 0.0
H2892 H 0.68361 0.95075 0.23769 0.0
H2893 H 0.69148 0.96314 0.25549 0.0
C2894 C 0.05628 0.74112 0.29571 0.0
C2895 C 0.03969 0.72916 0.29795 0.0
C2896 C 0.06098 0.7518 0.28289 0.0
C2897 C 0.04879 0.7504 0.27201 0.0
C2898 C 0.03199 0.73849 0.27433 0.0
C2899 C 0.02764 0.72804 0.2873 0.0
C2900 C 0.07899 0.76441 0.28085 0.0
C2901 C 0.01863 0.73658 0.26297 0.0
C2902 C 0.05716 0.78571 0.24484 0.0
C2903 C 0.06052 0.7802 0.23064 0.0
C2904 C 0.05378 0.77637 0.25853 0.0
C2905 C 0.05358 0.76108 0.25796 0.0
C2906 C 0.05722 0.75559 0.24372 0.0
C2907 C 0.06059 0.7652 0.23023 0.0
C2908 C 0.04996 0.78263 0.27348 0.0
C2909 C 0.05708 0.73933 0.24262 0.0
H2910 H 0.06565 0.74206 0.30393 0.0
H2911 H 0.0148 0.71881 0.28895 0.0
H2912 H 0.08341 0.76188 0.26965 0.0
H2913 H 0.08063 0.77702 0.28013 0.0
H2914 H 0.08687 0.76432 0.29065 0.0
H2915 H 0.00612 0.72697 0.26664 0.0
H2916 H 0.01883 0.74853 0.26193 0.0
H2917 H 0.02094 0.73315 0.25109 0.0
H2918 H 0.05682 0.79717 0.24513 0.0
H2919 H 0.06295 0.7608 0.21922 0.0
H2920 H 0.05805 0.78297 0.28326 0.0
H2921 H 0.03702 0.77404 0.27686 0.0
H2922 H 0.05161 0.79522 0.27222 0.0
H2923 H 0.06545 0.73897 0.25172 0.0
H2924 H 0.06094 0.73723 0.23089 0.0
H2925 H 0.04447 0.72896 0.24489 0.0
C2926 C 0.26814 0.32303 0.30117 0.0
C2927 C 0.27592 0.31445 0.30656 0.0
C2928 C 0.25787 0.31754 0.28769 0.0
C2929 C 0.25554 0.30327 0.27931 0.0
C2930 C 0.2631 0.29438 0.2849 0.0
C2931 C 0.27312 0.30002 0.29851 0.0
C2932 C 0.24981 0.3272 0.28222 0.0
C2933 C 0.26105 0.27919 0.27621 0.0
C2934 C 0.22021 0.28005 0.24987 0.0
C2935 C 0.22815 0.28617 0.23553 0.0
C2936 C 0.2288 0.28601 0.26426 0.0
C2937 C 0.24582 0.29802 0.2643 0.0
C2938 C 0.25384 0.30436 0.24988 0.0
C2939 C 0.24489 0.29838 0.23569 0.0
C2940 C 0.21979 0.27908 0.2794 0.0
C2941 C 0.27203 0.31701 0.24941 0.0
H2942 H 0.27022 0.33416 0.3074 0.0
H2943 H 0.27914 0.29336 0.30261 0.0
H2944 H 0.25476 0.33269 0.27063 0.0
H2945 H 0.23631 0.31882 0.28063 0.0
H2946 H 0.25195 0.33734 0.29063 0.0
H2947 H 0.26736 0.27341 0.28236 0.0
H2948 H 0.24775 0.26985 0.27482 0.0
H2949 H 0.26617 0.28259 0.26424 0.0
H2950 H 0.20736 0.27038 0.24983 0.0
H2951 H 0.25111 0.30289 0.22462 0.0
H2952 H 0.2219 0.28931 0.28766 0.0
H2953 H 0.22468 0.27179 0.2852 0.0
H2954 H 0.20628 0.27094 0.27743 0.0
H2955 H 0.27478 0.32799 0.25685 0.0
H2956 H 0.27624 0.32117 0.23728 0.0
H2957 H 0.27932 0.31162 0.25428 0.0
C2958 C 0.27838 0.34581 0.3832 0.0
C2959 C 0.2952 0.35206 0.3804 0.0
C2960 C 0.27321 0.35128 0.39631 0.0
C2961 C 0.28516 0.36304 0.40698 0.0
C2962 C 0.30217 0.36942 0.40415 0.0
C2963 C 0.30699 0.36395 0.39082 0.0
C2964 C 0.25498 0.34439 0.39882 0.0
C2965 C 0.3153 0.3818 0.41536 0.0
C2966 C 0.27504 0.38863 0.43509 0.0
C2967 C 0.27256 0.38009 0.44918 0.0
C2968 C 0.27855 0.38288 0.42111 0.0
C2969 C 0.27997 0.36845 0.42132 0.0
C2970 C 0.27732 0.35969 0.43547 0.0
C2971 C 0.27366 0.36563 0.44923 0.0
C2972 C 0.28121 0.3925 0.40624 0.0
C2973 C 0.27892 0.34437 0.43622 0.0
H2974 H 0.26924 0.33666 0.37513 0.0
H2975 H 0.32001 0.36875 0.38874 0.0
H2976 H 0.2513 0.33759 0.41002 0.0
H2977 H 0.25225 0.35467 0.39982 0.0
H2978 H 0.24729 0.33585 0.3891 0.0
H2979 H 0.32799 0.38561 0.41141 0.0
H2980 H 0.3141 0.39302 0.41658 0.0
H2981 H 0.31363 0.37638 0.42721 0.0
H2982 H 0.27455 0.40001 0.43506 0.0
H2983 H 0.27206 0.35919 0.46017 0.0
H2984 H 0.27332 0.38412 0.39654 0.0
H2985 H 0.29423 0.39791 0.40258 0.0
H2986 H 0.27841 0.4027 0.40776 0.0
H2987 H 0.27075 0.33508 0.42722 0.0
H2988 H 0.27574 0.33858 0.44796 0.0
H2989 H 0.29179 0.34763 0.43356 0.0
C2990 C 0.62779 0.92915 0.38353 0.0
C2991 C 0.6433 0.93314 0.3777 0.0
C2992 C 0.62119 0.91879 0.39646 0.0
C2993 C 0.63019 0.91203 0.40357 0.0
C2994 C 0.64565 0.91562 0.39744 0.0
C2995 C 0.6521 0.92627 0.38463 0.0
C2996 C 0.60476 0.91546 0.40277 0.0
C2997 C 0.65546 0.90841 0.40456 0.0
C2998 C 0.61976 0.89993 0.44612 0.0
C2999 C 0.60811 0.88301 0.44459 0.0
C3000 C 0.6275 0.90941 0.43291 0.0
C3001 C 0.62359 0.90174 0.41778 0.0
C3002 C 0.61232 0.88452 0.4162 0.0
C3003 C 0.60452 0.8754 0.4296 0.0
C3004 C 0.63924 0.9278 0.43507 0.0
C3005 C 0.60803 0.87586 0.40029 0.0
H3006 H 0.62097 0.93449 0.37825 0.0
H3007 H 0.66407 0.92929 0.38011 0.0
H3008 H 0.59594 0.90193 0.4028 0.0
H3009 H 0.60636 0.92007 0.41512 0.0
H3010 H 0.59923 0.92149 0.39575 0.0
H3011 H 0.66674 0.91156 0.39781 0.0
H3012 H 0.65919 0.91315 0.41682 0.0
H3013 H 0.64772 0.89473 0.40507 0.0
H3014 H 0.62235 0.90587 0.45766 0.0
H3015 H 0.59533 0.86239 0.42827 0.0
H3016 H 0.63392 0.93476 0.42936 0.0
H3017 H 0.65114 0.9314 0.42931 0.0
H3018 H 0.64173 0.93165 0.44768 0.0
H3019 H 0.60089 0.88013 0.39323 0.0
H3020 H 0.60055 0.86218 0.40125 0.0
H3021 H 0.61943 0.87903 0.39376 0.0
C3022 C 0.07334 0.71537 0.37376 0.0
C3023 C 0.05846 0.71557 0.37308 0.0
C3024 C 0.08296 0.71994 0.38765 0.0
C3025 C 0.07748 0.7247 0.40117 0.0
C3026 C 0.0627 0.72539 0.4004 0.0
C3027 C 0.0534 0.72087 0.38634 0.0
C3028 C 0.09873 0.71922 0.38798 0.0
C3029 C 0.0564 0.73033 0.41459 0.0
C3030 C 0.09072 0.71831 0.44155 0.0
C3031 C 0.10276 0.73456 0.44612 0.0
C3032 C 0.08263 0.71495 0.42686 0.0
C3033 C 0.08664 0.72807 0.4164 0.0
C3034 C 0.09893 0.74438 0.42074 0.0
C3035 C 0.10674 0.74742 0.43556 0.0
C3036 C 0.06951 0.69737 0.42266 0.0
C3037 C 0.10363 0.75868 0.40985 0.0
H3038 H 0.07733 0.71132 0.36352 0.0
H3039 H 0.0419 0.72104 0.38588 0.0
H3040 H 0.10914 0.73116 0.39247 0.0
H3041 H 0.09744 0.70946 0.39614 0.0
H3042 H 0.1019 0.71647 0.37618 0.0
H3043 H 0.04513 0.73102 0.41183 0.0
H3044 H 0.05348 0.7212 0.42402 0.0
H3045 H 0.06606 0.74256 0.41934 0.0
H3046 H 0.08733 0.7081 0.44938 0.0
H3047 H 0.11593 0.75999 0.439 0.0
H3048 H 0.07257 0.69335 0.41146 0.0
H3049 H 0.05745 0.69675 0.42084 0.0
H3050 H 0.06812 0.68849 0.43192 0.0
H3051 H 0.10718 0.75595 0.39825 0.0
H3052 H 0.11404 0.77047 0.41466 0.0
H3053 H 0.09286 0.7604 0.40782 0.0
C3054 C 0.32529 0.05391 0.71366 0.0
C3055 C 0.31732 0.03704 0.70939 0.0
C3056 C 0.3194 0.05965 0.72593 0.0
C3057 C 0.30521 0.04824 0.73415 0.0
C3058 C 0.29705 0.0312 0.72984 0.0
C3059 C 0.30319 0.0258 0.71748 0.0
C3060 C 0.3284 0.07793 0.73014 0.0
C3061 C 0.28191 0.01867 0.73838 0.0
C3062 C 0.2996 0.06098 0.77522 0.0
C3063 C 0.2874 0.0653 0.77262 0.0
C3064 C 0.30528 0.05513 0.76285 0.0
C3065 C 0.29905 0.05412 0.74741 0.0
C3066 C 0.2871 0.05891 0.74461 0.0
C3067 C 0.28135 0.06436 0.75727 0.0
C3068 C 0.31795 0.05 0.76632 0.0
C3069 C 0.28046 0.05838 0.72824 0.0
H3070 H 0.33622 0.06265 0.70744 0.0
H3071 H 0.29698 0.01275 0.71421 0.0
H3072 H 0.31979 0.08284 0.72932 0.0
H3073 H 0.33303 0.07988 0.74248 0.0
H3074 H 0.33902 0.08522 0.72235 0.0
H3075 H 0.27693 0.0059 0.73351 0.0
H3076 H 0.28496 0.01876 0.75103 0.0
H3077 H 0.2721 0.02202 0.73762 0.0
H3078 H 0.30469 0.06212 0.78696 0.0
H3079 H 0.27217 0.06798 0.75513 0.0
H3080 H 0.32939 0.05785 0.75974 0.0
H3081 H 0.3132 0.03699 0.76231 0.0
H3082 H 0.32115 0.05104 0.77905 0.0
H3083 H 0.29076 0.06625 0.72037 0.0
H3084 H 0.27135 0.06272 0.72803 0.0
H3085 H 0.27444 0.04554 0.72334 0.0
C3086 C 0.97154 0.2786 0.72523 0.0
C3087 C 0.97035 0.2758 0.7089 0.0
C3088 C 0.96454 0.26531 0.73562 0.0
C3089 C 0.95637 0.24889 0.72953 0.0
C3090 C 0.95567 0.24597 0.7131 0.0
C3091 C 0.96256 0.25948 0.70295 0.0
C3092 C 0.96545 0.26886 0.75307 0.0
C3093 C 0.94746 0.22858 0.70625 0.0
C3094 C 0.94946 0.20809 0.76102 0.0
C3095 C 0.92827 0.20264 0.76701 0.0
C3096 C 0.95943 0.22577 0.74848 0.0
C3097 C 0.94796 0.2348 0.74018 0.0
C3098 C 0.92603 0.22597 0.74302 0.0
C3099 C 0.91492 0.20827 0.75532 0.0
C3100 C 0.97725 0.23289 0.74484 0.0
C3101 C 0.91707 0.23355 0.73537 0.0
H3102 H 0.97751 0.29119 0.7299 0.0
H3103 H 0.96167 0.25725 0.69034 0.0
H3104 H 0.95278 0.26377 0.75766 0.0
H3105 H 0.97131 0.26264 0.75922 0.0
H3106 H 0.9726 0.28234 0.75595 0.0
H3107 H 0.94892 0.22841 0.69331 0.0
H3108 H 0.95278 0.22153 0.71179 0.0
H3109 H 0.93409 0.22206 0.70887 0.0
H3110 H 0.95647 0.20345 0.76713 0.0
H3111 H 0.90211 0.20369 0.75814 0.0
H3112 H 0.98422 0.24585 0.74939 0.0
H3113 H 0.97874 0.23319 0.73189 0.0
H3114 H 0.98221 0.22547 0.75022 0.0
H3115 H 0.92381 0.2471 0.73781 0.0
H3116 H 0.90426 0.22788 0.73972 0.0
H3117 H 0.9168 0.23163 0.72245 0.0
C3118 C 0.73392 0.68626 0.706 0.0
C3119 C 0.71996 0.68807 0.70724 0.0
C3120 C 0.74622 0.69246 0.71783 0.0
C3121 C 0.74443 0.70055 0.73126 0.0
C3122 C 0.73045 0.70257 0.73249 0.0
C3123 C 0.7184 0.69635 0.72043 0.0
C3124 C 0.76101 0.69017 0.71607 0.0
C3125 C 0.72806 0.71105 0.74667 0.0
C3126 C 0.76702 0.70156 0.76891 0.0
C3127 C 0.78065 0.7177 0.76896 0.0
C3128 C 0.75519 0.69581 0.75668 0.0
C3129 C 0.75696 0.70649 0.74424 0.0
C3130 C 0.77062 0.72283 0.74426 0.0
C3131 C 0.78225 0.72827 0.75667 0.0
C3132 C 0.74074 0.67833 0.75712 0.0
C3133 C 0.77289 0.73458 0.73121 0.0
H3134 H 0.7352 0.67991 0.69581 0.0
H3135 H 0.70761 0.69775 0.72146 0.0
H3136 H 0.77257 0.70234 0.71699 0.0
H3137 H 0.76135 0.68245 0.72573 0.0
H3138 H 0.76084 0.68413 0.70465 0.0
H3139 H 0.71672 0.71201 0.74562 0.0
H3140 H 0.72723 0.70408 0.75742 0.0
H3141 H 0.73885 0.7237 0.74829 0.0
H3142 H 0.7656 0.69346 0.77853 0.0
H3143 H 0.79263 0.74083 0.7568 0.0
H3144 H 0.74053 0.6713 0.7464 0.0
H3145 H 0.72899 0.67856 0.75721 0.0
H3146 H 0.74122 0.67159 0.76761 0.0
H3147 H 0.77352 0.72913 0.71973 0.0
H3148 H 0.78427 0.74682 0.73289 0.0
H3149 H 0.76212 0.73651 0.73058 0.0
C3150 C 0.70078 0.65675 0.62128 0.0
C3151 C 0.70078 0.65127 0.63655 0.0
C3152 C 0.70784 0.65253 0.60884 0.0
C3153 C 0.71543 0.64295 0.61183 0.0
C3154 C 0.71539 0.63731 0.62723 0.0
C3155 C 0.70788 0.64138 0.63939 0.0
C3156 C 0.70731 0.65848 0.59253 0.0
C3157 C 0.72364 0.62733 0.63092 0.0
C3158 C 0.72299 0.6216 0.57714 0.0
C3159 C 0.73943 0.633 0.57356 0.0
C3160 C 0.71505 0.62458 0.58964 0.0
C3161 C 0.72382 0.63926 0.59891 0.0
C3162 C 0.74047 0.65076 0.59548 0.0
C3163 C 0.74799 0.64764 0.58269 0.0
C3164 C 0.69716 0.61223 0.5927 0.0
C3165 C 0.75029 0.66647 0.6052 0.0
H3166 H 0.6952 0.66431 0.61904 0.0
H3167 H 0.70797 0.63722 0.65121 0.0
H3168 H 0.72004 0.66706 0.58859 0.0
H3169 H 0.70173 0.64783 0.58406 0.0
H3170 H 0.70011 0.665 0.59202 0.0
H3171 H 0.72233 0.6237 0.64344 0.0
H3172 H 0.71828 0.61595 0.6234 0.0
H3173 H 0.73699 0.63467 0.62825 0.0
H3174 H 0.71626 0.61044 0.56992 0.0
H3175 H 0.76057 0.65672 0.57982 0.0
H3176 H 0.68959 0.61827 0.59136 0.0
H3177 H 0.69574 0.60786 0.60496 0.0
H3178 H 0.69217 0.6013 0.58456 0.0
H3179 H 0.74474 0.6745 0.604 0.0
H3180 H 0.7634 0.6736 0.60162 0.0
H3181 H 0.74991 0.66348 0.61783 0.0
C3182 C 0.33968 0.06212 0.63399 0.0
C3183 C 0.34623 0.05152 0.63482 0.0
C3184 C 0.34412 0.0736 0.62187 0.0
C3185 C 0.35516 0.07427 0.61022 0.0
C3186 C 0.36143 0.06325 0.61077 0.0
C3187 C 0.35699 0.05209 0.62315 0.0
C3188 C 0.33735 0.0853 0.62177 0.0
C3189 C 0.37303 0.06341 0.59841 0.0
C3190 C 0.35711 0.09522 0.57166 0.0
C3191 C 0.37167 0.11055 0.57377 0.0
C3192 C 0.35156 0.08329 0.58343 0.0
C3193 C 0.36063 0.08688 0.59774 0.0
C3194 C 0.37516 0.10244 0.60007 0.0
C3195 C 0.38057 0.11403 0.58801 0.0
C3196 C 0.33612 0.06676 0.58046 0.0
C3197 C 0.38505 0.10679 0.61526 0.0
H3198 H 0.3314 0.06175 0.64303 0.0
H3199 H 0.36201 0.04384 0.62372 0.0
H3200 H 0.34765 0.09828 0.62297 0.0
H3201 H 0.33095 0.08418 0.6104 0.0
H3202 H 0.32856 0.08289 0.63145 0.0
H3203 H 0.37609 0.05345 0.60007 0.0
H3204 H 0.36743 0.0619 0.58652 0.0
H3205 H 0.38467 0.07553 0.5988 0.0
H3206 H 0.35017 0.09253 0.5607 0.0
H3207 H 0.3918 0.12586 0.58971 0.0
H3208 H 0.32688 0.06458 0.58959 0.0
H3209 H 0.33908 0.05664 0.58126 0.0
H3210 H 0.33045 0.06595 0.56871 0.0
H3211 H 0.37705 0.10545 0.62535 0.0
H3212 H 0.39571 0.11965 0.61541 0.0
H3213 H 0.38977 0.09812 0.61705 0.0
C3214 C 0.93693 0.29781 0.64026 0.0
C3215 C 0.95294 0.30022 0.63941 0.0
C3216 C 0.9263 0.29223 0.62705 0.0
C3217 C 0.93198 0.28934 0.61261 0.0
C3218 C 0.94828 0.29213 0.61162 0.0
C3219 C 0.95851 0.29736 0.6251 0.0
C3220 C 0.90889 0.28907 0.62864 0.0
C3221 C 0.95488 0.2895 0.59635 0.0
C3222 C 0.90111 0.25958 0.58222 0.0
C3223 C 0.89965 0.27042 0.57183 0.0
C3224 C 0.91133 0.26558 0.59567 0.0
C3225 C 0.9207 0.28287 0.59866 0.0
C3226 C 0.9194 0.2939 0.58827 0.0
C3227 C 0.90867 0.28753 0.57516 0.0
C3228 C 0.91209 0.25341 0.60671 0.0
C3229 C 0.92947 0.31244 0.5909 0.0
H3230 H 0.93259 0.29996 0.65134 0.0
H3231 H 0.97094 0.29935 0.62439 0.0
H3232 H 0.90655 0.29657 0.62009 0.0
H3233 H 0.89995 0.27585 0.62586 0.0
H3234 H 0.90645 0.29207 0.64066 0.0
H3235 H 0.96811 0.29309 0.59736 0.0
H3236 H 0.94767 0.27628 0.5926 0.0
H3237 H 0.95346 0.29685 0.58694 0.0
H3238 H 0.89421 0.24632 0.58 0.0
H3239 H 0.90743 0.29597 0.56737 0.0
H3240 H 0.90903 0.25547 0.61881 0.0
H3241 H 0.9248 0.25536 0.60716 0.0
H3242 H 0.90345 0.24032 0.6031 0.0
H3243 H 0.9264 0.31593 0.60238 0.0
H3244 H 0.92732 0.31934 0.5815 0.0
H3245 H 0.94281 0.31643 0.59133 0.0
C3246 C 0.34424 0.27687 0.63375 0.0
C3247 C 0.35276 0.29259 0.64104 0.0
C3248 C 0.35033 0.27327 0.6201 0.0
C3249 C 0.36507 0.28582 0.61344 0.0
C3250 C 0.37391 0.30158 0.621 0.0
C3251 C 0.36774 0.30471 0.63481 0.0
C3252 C 0.34078 0.25621 0.61257 0.0
C3253 C 0.38953 0.31538 0.61414 0.0
C3254 C 0.38937 0.27694 0.58305 0.0
C3255 C 0.38396 0.28057 0.56899 0.0
C3256 C 0.38272 0.27778 0.59756 0.0
C3257 C 0.3708 0.2829 0.59808 0.0
C3258 C 0.36514 0.28636 0.58392 0.0
C3259 C 0.37173 0.28506 0.56956 0.0
C3260 C 0.38886 0.27373 0.61238 0.0
C3261 C 0.35266 0.29214 0.58398 0.0
H3262 H 0.33269 0.26745 0.63859 0.0
H3263 H 0.37432 0.31691 0.64037 0.0
H3264 H 0.33563 0.25698 0.60102 0.0
H3265 H 0.34909 0.25114 0.61035 0.0
H3266 H 0.33044 0.24743 0.61998 0.0
H3267 H 0.39521 0.32674 0.62174 0.0
H3268 H 0.39871 0.31129 0.61244 0.0
H3269 H 0.38676 0.31855 0.60241 0.0
H3270 H 0.39902 0.27373 0.58276 0.0
H3271 H 0.36774 0.28812 0.55874 0.0
H3272 H 0.37828 0.26495 0.61954 0.0
H3273 H 0.39615 0.28518 0.61963 0.0
H3274 H 0.39676 0.26823 0.60983 0.0
H3275 H 0.34139 0.28317 0.5902 0.0
H3276 H 0.34906 0.29367 0.57191 0.0
H3277 H 0.35788 0.30419 0.59043 0.0
C3278 C 0.72405 0.07005 0.6277 0.0
C3279 C 0.70746 0.05816 0.63004 0.0
C3280 C 0.72873 0.08035 0.61457 0.0
C3281 C 0.71652 0.07867 0.60357 0.0
C3282 C 0.69977 0.06657 0.60583 0.0
C3283 C 0.69546 0.05649 0.61904 0.0
C3284 C 0.74669 0.09312 0.61253 0.0
C3285 C 0.68638 0.06434 0.59434 0.0
C3286 C 0.72286 0.11368 0.57698 0.0
C3287 C 0.72594 0.10842 0.56251 0.0
C3288 C 0.72051 0.10449 0.59062 0.0
C3289 C 0.72107 0.08959 0.58971 0.0
C3290 C 0.72463 0.08447 0.57523 0.0
C3291 C 0.72696 0.09392 0.56178 0.0
C3292 C 0.71673 0.11035 0.60584 0.0
C3293 C 0.72527 0.06864 0.57377 0.0
H3294 H 0.73338 0.07138 0.63618 0.0
H3295 H 0.68261 0.04731 0.62078 0.0
H3296 H 0.75103 0.0911 0.60105 0.0
H3297 H 0.74821 0.10571 0.61244 0.0
H3298 H 0.7547 0.09272 0.62203 0.0
H3299 H 0.67398 0.05423 0.59772 0.0
H3300 H 0.68598 0.07602 0.59363 0.0
H3301 H 0.68911 0.06149 0.5824 0.0
H3302 H 0.72181 0.12474 0.57752 0.0
H3303 H 0.72913 0.08973 0.55057 0.0
H3304 H 0.72497 0.11066 0.61544 0.0
H3305 H 0.70385 0.10155 0.60925 0.0
H3306 H 0.71815 0.12288 0.60489 0.0
H3307 H 0.73361 0.06834 0.58295 0.0
H3308 H 0.72958 0.06715 0.56205 0.0
H3309 H 0.71279 0.05786 0.57564 0.0
C3310 C 0.9323 0.627 0.63374 0.0
C3311 C 0.93563 0.64209 0.64071 0.0
C3312 C 0.92297 0.62115 0.61973 0.0
C3313 C 0.91654 0.63047 0.61269 0.0
C3314 C 0.9192 0.64534 0.62009 0.0
C3315 C 0.92888 0.65107 0.63394 0.0
C3316 C 0.92061 0.60535 0.61211 0.0
C3317 C 0.91225 0.65542 0.61311 0.0
C3318 C 0.90941 0.62448 0.56852 0.0
C3319 C 0.89257 0.61261 0.56743 0.0
C3320 C 0.91724 0.63076 0.58317 0.0
C3321 C 0.90798 0.62513 0.59709 0.0
C3322 C 0.89084 0.61357 0.59606 0.0
C3323 C 0.88338 0.60725 0.58125 0.0
C3324 C 0.93559 0.64287 0.58375 0.0
C3325 C 0.88051 0.60747 0.61062 0.0
H3326 H 0.93755 0.62005 0.63889 0.0
H3327 H 0.93137 0.66272 0.63935 0.0
H3328 H 0.90729 0.59649 0.61 0.0
H3329 H 0.92667 0.60812 0.6005 0.0
H3330 H 0.92587 0.59925 0.6194 0.0
H3331 H 0.91406 0.66578 0.62107 0.0
H3332 H 0.91836 0.66067 0.60181 0.0
H3333 H 0.89885 0.64741 0.61053 0.0
H3334 H 0.91657 0.62843 0.55788 0.0
H3335 H 0.87043 0.59786 0.58054 0.0
H3336 H 0.94204 0.63723 0.58989 0.0
H3337 H 0.93822 0.6542 0.59055 0.0
H3338 H 0.94086 0.64654 0.57184 0.0
H3339 H 0.88422 0.59978 0.61747 0.0
H3340 H 0.8671 0.59991 0.60774 0.0
H3341 H 0.8826 0.61809 0.6183 0.0
C3342 C 0.97386 0.69368 0.72637 0.0
C3343 C 0.96162 0.68522 0.71476 0.0
C3344 C 0.97067 0.70039 0.73985 0.0
C3345 C 0.95488 0.69873 0.74172 0.0
C3346 C 0.94255 0.69047 0.72991 0.0
C3347 C 0.94604 0.68374 0.71658 0.0
C3348 C 0.98412 0.70903 0.75223 0.0
C3349 C 0.92562 0.68858 0.73144 0.0
C3350 C 0.94334 0.70212 0.78377 0.0
C3351 C 0.94711 0.71868 0.78474 0.0
C3352 C 0.94526 0.6953 0.76968 0.0
C3353 C 0.95125 0.70533 0.75626 0.0
C3354 C 0.95468 0.72195 0.75705 0.0
C3355 C 0.95258 0.72843 0.77129 0.0
C3356 C 0.94141 0.67751 0.7693 0.0
C3357 C 0.96112 0.73305 0.74301 0.0
H3358 H 0.98591 0.69482 0.72504 0.0
H3359 H 0.93655 0.67725 0.70762 0.0
H3360 H 0.98663 0.72187 0.75431 0.0
H3361 H 0.98003 0.70247 0.76353 0.0
H3362 H 0.99582 0.70954 0.74885 0.0
H3363 H 0.9176 0.68235 0.72096 0.0
H3364 H 0.91949 0.68123 0.74197 0.0
H3365 H 0.9267 0.70091 0.73314 0.0
H3366 H 0.93921 0.69459 0.79418 0.0
H3367 H 0.95563 0.74128 0.77205 0.0
H3368 H 0.95291 0.67709 0.7673 0.0
H3369 H 0.93277 0.67058 0.75941 0.0
H3370 H 0.93587 0.67108 0.78042 0.0
H3371 H 0.97351 0.7351 0.73999 0.0
H3372 H 0.96211 0.74529 0.74523 0.0
H3373 H 0.9529 0.72704 0.73261 0.0
C3374 C 0.2943 0.26706 0.71632 0.0
C3375 C 0.30981 0.27075 0.71072 0.0
C3376 C 0.28753 0.25703 0.72944 0.0
C3377 C 0.29634 0.25029 0.73696 0.0
C3378 C 0.31172 0.25345 0.73098 0.0
C3379 C 0.31837 0.2638 0.718 0.0
C3380 C 0.2712 0.25416 0.73559 0.0
C3381 C 0.32132 0.24621 0.73851 0.0
C3382 C 0.28657 0.24002 0.77994 0.0
C3383 C 0.27484 0.22308 0.77905 0.0
C3384 C 0.29403 0.24892 0.76637 0.0
C3385 C 0.28976 0.24063 0.75153 0.0
C3386 C 0.27835 0.22341 0.75059 0.0
C3387 C 0.27082 0.21488 0.76433 0.0
C3388 C 0.30592 0.26733 0.76786 0.0
C3389 C 0.27368 0.21411 0.735 0.0
H3390 H 0.28768 0.27247 0.71077 0.0
H3391 H 0.33033 0.26658 0.71366 0.0
H3392 H 0.26228 0.24069 0.73616 0.0
H3393 H 0.27294 0.25937 0.74773 0.0
H3394 H 0.26573 0.25995 0.72816 0.0
H3395 H 0.33241 0.24877 0.7317 0.0
H3396 H 0.32534 0.25148 0.75057 0.0
H3397 H 0.31334 0.2326 0.73958 0.0
H3398 H 0.28948 0.24642 0.79127 0.0
H3399 H 0.26156 0.20185 0.7635 0.0
H3400 H 0.30073 0.27415 0.76165 0.0
H3401 H 0.31777 0.27053 0.7622 0.0
H3402 H 0.30849 0.27175 0.78032 0.0
H3403 H 0.26663 0.2183 0.7277 0.0
H3404 H 0.266 0.2005 0.73645 0.0
H3405 H 0.28493 0.21677 0.72845 0.0
C3406 C 0.73107 0.03081 0.71254 0.0
C3407 C 0.72934 0.04292 0.70454 0.0
C3408 C 0.74172 0.03505 0.72565 0.0
C3409 C 0.75101 0.05183 0.73076 0.0
C3410 C 0.74972 0.06418 0.72241 0.0
C3411 C 0.7388 0.05956 0.70945 0.0
C3412 C 0.74263 0.02149 0.73433 0.0
C3413 C 0.7596 0.08222 0.72738 0.0
C3414 C 0.76414 0.05908 0.77381 0.0
C3415 C 0.78035 0.06201 0.77312 0.0
C3416 C 0.75461 0.05619 0.76007 0.0
C3417 C 0.76148 0.05626 0.74526 0.0
C3418 C 0.77799 0.05963 0.74445 0.0
C3419 C 0.78717 0.06227 0.75841 0.0
C3420 C 0.73699 0.05246 0.76145 0.0
C3421 C 0.78577 0.05994 0.72888 0.0
H3422 H 0.72375 0.01792 0.70882 0.0
H3423 H 0.73754 0.06897 0.70326 0.0
H3424 H 0.7556 0.02421 0.73509 0.0
H3425 H 0.73832 0.02094 0.74655 0.0
H3426 H 0.73498 0.00912 0.72857 0.0
H3427 H 0.75802 0.09041 0.71903 0.0
H3428 H 0.75571 0.084 0.73919 0.0
H3429 H 0.77292 0.08618 0.72828 0.0
H3430 H 0.75876 0.05858 0.78518 0.0
H3431 H 0.79958 0.06419 0.75783 0.0
H3432 H 0.72843 0.03967 0.75703 0.0
H3433 H 0.73492 0.061 0.75408 0.0
H3434 H 0.73376 0.0536 0.77377 0.0
H3435 H 0.77945 0.04736 0.72339 0.0
H3436 H 0.79913 0.06414 0.73017 0.0
H3437 H 0.78428 0.06829 0.72069 0.0
C3438 C 0.05021 0.3412 0.03028 0.0
C3439 C 0.03356 0.33502 0.03394 0.0
C3440 C 0.06 0.33648 0.03896 0.0
C3441 C 0.05296 0.32544 0.05154 0.0
C3442 C 0.0363 0.31946 0.05546 0.0
C3443 C 0.0268 0.32431 0.04662 0.0
C3444 C 0.07776 0.34303 0.03457 0.0
C3445 C 0.02839 0.30765 0.06882 0.0
C3446 C 0.07014 0.29059 0.06492 0.0
C3447 C 0.08418 0.30389 0.08111 0.0
C3448 C 0.06075 0.30001 0.05368 0.0
C3449 C 0.06253 0.31938 0.06016 0.0
C3450 C 0.07265 0.32953 0.07851 0.0
C3451 C 0.08244 0.32108 0.09061 0.0
C3452 C 0.0512 0.29159 0.03903 0.0
C3453 C 0.07274 0.34489 0.08377 0.0
H3454 H 0.0555 0.3495 0.02051 0.0
H3455 H 0.01397 0.31954 0.04958 0.0
H3456 H 0.08593 0.3491 0.045 0.0
H3457 H 0.07951 0.33256 0.03079 0.0
H3458 H 0.08164 0.35208 0.02492 0.0
H3459 H 0.01543 0.30457 0.07071 0.0
H3460 H 0.02851 0.29598 0.06633 0.0
H3461 H 0.03559 0.31314 0.07988 0.0
H3462 H 0.07034 0.27974 0.06052 0.0
H3463 H 0.08958 0.32762 0.10103 0.0
H3464 H 0.05609 0.30032 0.02915 0.0
H3465 H 0.03811 0.28815 0.04056 0.0
H3466 H 0.052 0.28033 0.03632 0.0
H3467 H 0.07751 0.35404 0.07421 0.0
H3468 H 0.08046 0.35019 0.09458 0.0
H3469 H 0.0599 0.34193 0.08609 0.0
C3470 C 0.67946 0.69787 0.05455 0.0
C3471 C 0.66867 0.69436 0.04168 0.0
C3472 C 0.68528 0.71258 0.06344 0.0
C3473 C 0.68008 0.72395 0.05944 0.0
C3474 C 0.66897 0.72037 0.04666 0.0
C3475 C 0.66341 0.7056 0.03787 0.0
C3476 C 0.69726 0.71613 0.07693 0.0
C3477 C 0.66314 0.73222 0.04218 0.0
C3478 C 0.68551 0.7593 0.09798 0.0
C3479 C 0.70243 0.77786 0.08845 0.0
C3480 C 0.67698 0.74051 0.08621 0.0
C3481 C 0.68681 0.73976 0.06825 0.0
C3482 C 0.70599 0.75711 0.06189 0.0
C3483 C 0.71548 0.77645 0.07281 0.0
C3484 C 0.66166 0.7255 0.09132 0.0
C3485 C 0.71405 0.75542 0.04749 0.0
H3486 H 0.68359 0.68925 0.05754 0.0
H3487 H 0.65504 0.70292 0.02795 0.0
H3488 H 0.70908 0.72762 0.07464 0.0
H3489 H 0.69225 0.71827 0.08795 0.0
H3490 H 0.69983 0.70585 0.07875 0.0
H3491 H 0.65395 0.72731 0.03233 0.0
H3492 H 0.6575 0.7348 0.05249 0.0
H3493 H 0.67386 0.74416 0.03863 0.0
H3494 H 0.67911 0.76035 0.10809 0.0
H3495 H 0.72616 0.78734 0.0684 0.0
H3496 H 0.66444 0.71548 0.09372 0.0
H3497 H 0.65231 0.72107 0.08164 0.0
H3498 H 0.65673 0.72831 0.10203 0.0
H3499 H 0.71698 0.74538 0.0491 0.0
H3500 H 0.7255 0.76724 0.04508 0.0
H3501 H 0.7053 0.7518 0.03735 0.0
C3502 C 0.28788 0.98101 0.03121 0.0
C3503 C 0.29549 0.97294 0.0241 0.0
C3504 C 0.27294 0.97206 0.0391 0.0
C3505 C 0.26553 0.95466 0.04005 0.0
C3506 C 0.27294 0.94638 0.0327 0.0
C3507 C 0.28785 0.95562 0.0247 0.0
C3508 C 0.2652 0.98126 0.04663 0.0
C3509 C 0.26526 0.92782 0.03354 0.0
C3510 C 0.23388 0.93492 0.08203 0.0
C3511 C 0.21401 0.9243 0.07071 0.0
C3512 C 0.25203 0.94404 0.07008 0.0
C3513 C 0.25028 0.94541 0.04904 0.0
C3514 C 0.23072 0.93889 0.03926 0.0
C3515 C 0.21186 0.92959 0.05015 0.0
C3516 C 0.26863 0.95072 0.07765 0.0
C3517 C 0.23018 0.94131 0.02202 0.0
H3518 H 0.29368 0.99438 0.03071 0.0
H3519 H 0.29372 0.94934 0.01927 0.0
H3520 H 0.2524 0.97622 0.04205 0.0
H3521 H 0.26448 0.97942 0.05953 0.0
H3522 H 0.27228 0.99477 0.04441 0.0
H3523 H 0.27243 0.92317 0.02702 0.0
H3524 H 0.26445 0.92419 0.04603 0.0
H3525 H 0.25248 0.9217 0.02862 0.0
H3526 H 0.23459 0.93291 0.09444 0.0
H3527 H 0.19996 0.92434 0.04423 0.0
H3528 H 0.27589 0.9643 0.07599 0.0
H3529 H 0.27531 0.94514 0.07179 0.0
H3530 H 0.26747 0.94801 0.09039 0.0
H3531 H 0.23718 0.95475 0.01958 0.0
H3532 H 0.21723 0.93592 0.01774 0.0
H3533 H 0.23633 0.93541 0.01575 0.0
C3534 C 0.32939 0.03681 0.97171 0.0
C3535 C 0.33906 0.03991 0.98538 0.0
C3536 C 0.32742 0.04935 0.96491 0.0
C3537 C 0.33533 0.06539 0.97196 0.0
C3538 C 0.34522 0.06864 0.9857 0.0
C3539 C 0.34696 0.05584 0.99226 0.0
C3540 C 0.31675 0.0454 0.95027 0.0
C3541 C 0.35386 0.08561 0.99352 0.0
C3542 C 0.34162 0.10156 0.94706 0.0
C3543 C 0.32839 0.10363 0.9517 0.0
C3544 C 0.34401 0.08912 0.95352 0.0
C3545 C 0.33304 0.07868 0.96505 0.0
C3546 C 0.3198 0.08086 0.96994 0.0
C3547 C 0.31767 0.09335 0.96324 0.0
C3548 C 0.35826 0.08716 0.94802 0.0
C3549 C 0.30791 0.07003 0.98228 0.0
H3550 H 0.32324 0.02451 0.96634 0.0
H3551 H 0.35445 0.0583 0.00283 0.0
H3552 H 0.30633 0.04759 0.95261 0.0
H3553 H 0.32404 0.05375 0.94068 0.0
H3554 H 0.31164 0.03236 0.94613 0.0
H3555 H 0.3613 0.08617 0.004 0.0
H3556 H 0.36212 0.095 0.98506 0.0
H3557 H 0.34462 0.08908 0.99723 0.0
H3558 H 0.35014 0.10972 0.93839 0.0
H3559 H 0.30764 0.09515 0.96707 0.0
H3560 H 0.35359 0.07447 0.94309 0.0
H3561 H 0.36654 0.08876 0.95813 0.0
H3562 H 0.36563 0.09625 0.93891 0.0
H3563 H 0.30172 0.05685 0.97834 0.0
H3564 H 0.29829 0.07338 0.98481 0.0
H3565 H 0.31473 0.0711 0.99337 0.0
C3566 C 0.98193 0.29505 0.97387 0.0
C3567 C 0.97394 0.30092 0.98375 0.0
C3568 C 0.97296 0.28017 0.96526 0.0
C3569 C 0.95561 0.27098 0.9665 0.0
C3570 C 0.94743 0.27673 0.97646 0.0
C3571 C 0.95671 0.29168 0.98503 0.0
C3572 C 0.98208 0.2743 0.95481 0.0
C3573 C 0.92891 0.26712 0.978 0.0
C3574 C 0.93073 0.23809 0.92484 0.0
C3575 C 0.92425 0.21841 0.93533 0.0
C3576 C 0.94045 0.25645 0.93722 0.0
C3577 C 0.94622 0.25543 0.95732 0.0
C3578 C 0.94366 0.23653 0.96553 0.0
C3579 C 0.93404 0.2175 0.95412 0.0
C3580 C 0.94387 0.27263 0.93077 0.0
C3581 C 0.94967 0.23669 0.98184 0.0
H3582 H 0.99524 0.3021 0.97285 0.0
H3583 H 0.95048 0.29616 0.99265 0.0
H3584 H 0.97948 0.26183 0.95844 0.0
H3585 H 0.97765 0.27312 0.94246 0.0
H3586 H 0.99565 0.28285 0.95524 0.0
H3587 H 0.92437 0.27328 0.98621 0.0
H3588 H 0.92297 0.26566 0.96628 0.0
H3589 H 0.92502 0.25451 0.98229 0.0
H3590 H 0.9261 0.23824 0.91318 0.0
H3591 H 0.93116 0.20584 0.95932 0.0
H3592 H 0.9574 0.28123 0.93071 0.0
H3593 H 0.93841 0.27822 0.93856 0.0
H3594 H 0.93871 0.27094 0.91866 0.0
H3595 H 0.96324 0.24508 0.98251 0.0
H3596 H 0.94655 0.22402 0.98529 0.0
H3597 H 0.94402 0.24171 0.99007 0.0
C3598 C 0.7087 0.65751 0.99597 0.0
C3599 C 0.69897 0.66438 0.99156 0.0
C3600 C 0.7236 0.66198 0.98836 0.0
C3601 C 0.72867 0.67335 0.97589 0.0
C3602 C 0.71873 0.6801 0.97125 0.0
C3603 C 0.70407 0.67564 0.97924 0.0
C3604 C 0.73403 0.65474 0.99379 0.0
C3605 C 0.72359 0.69207 0.95786 0.0
C3606 C 0.77391 0.69785 0.96517 0.0
C3607 C 0.77444 0.68898 0.95194 0.0
C3608 C 0.75915 0.69276 0.97321 0.0
C3609 C 0.74453 0.67848 0.96785 0.0
C3610 C 0.74499 0.66934 0.95461 0.0
C3611 C 0.76 0.67456 0.94695 0.0
C3612 C 0.75921 0.70267 0.98744 0.0
C3613 C 0.72961 0.65412 0.94848 0.0
H3614 H 0.70481 0.64884 0.00553 0.0
H3615 H 0.69651 0.68089 0.97572 0.0
H3616 H 0.73596 0.64805 0.98388 0.0
H3617 H 0.74638 0.66484 0.99773 0.0
H3618 H 0.72831 0.64602 0.00361 0.0
H3619 H 0.7142 0.69575 0.95537 0.0
H3620 H 0.73553 0.7034 0.9607 0.0
H3621 H 0.72535 0.68639 0.94703 0.0
H3622 H 0.78515 0.70876 0.96927 0.0
H3623 H 0.76041 0.66739 0.937 0.0
H3624 H 0.75447 0.69453 0.99777 0.0
H3625 H 0.75087 0.70772 0.9853 0.0
H3626 H 0.77175 0.71314 0.9904 0.0
H3627 H 0.72434 0.64473 0.9578 0.0
H3628 H 0.73204 0.64844 0.93802 0.0
H3629 H 0.7201 0.65741 0.94525 0.0
C3630 C 0.94778 0.65919 0.99209 0.0
C3631 C 0.95801 0.65645 0.98202 0.0
C3632 C 0.93855 0.66623 0.98655 0.0
C3633 C 0.93931 0.67029 0.97047 0.0
C3634 C 0.94887 0.66665 0.96006 0.0
C3635 C 0.95827 0.65994 0.966 0.0
C3636 C 0.92869 0.67013 0.99806 0.0
C3637 C 0.94967 0.67043 0.94278 0.0
C3638 C 0.90615 0.67933 0.95602 0.0
C3639 C 0.91453 0.6967 0.95678 0.0
C3640 C 0.91422 0.67053 0.95989 0.0
C3641 C 0.93097 0.67934 0.96486 0.0
C3642 C 0.93963 0.69689 0.96519 0.0
C3643 C 0.93136 0.70536 0.96093 0.0
C3644 C 0.90471 0.65183 0.95899 0.0
C3645 C 0.95748 0.70674 0.97055 0.0
H3646 H 0.94764 0.65661 0.0045 0.0
H3647 H 0.96614 0.65779 0.95818 0.0
H3648 H 0.93388 0.68375 0.99892 0.0
H3649 H 0.9157 0.66459 0.99388 0.0
H3650 H 0.92877 0.66549 0.01001 0.0
H3651 H 0.95609 0.66512 0.93598 0.0
H3652 H 0.93705 0.66549 0.93774 0.0
H3653 H 0.95637 0.68405 0.94123 0.0
H3654 H 0.8932 0.67259 0.9526 0.0
H3655 H 0.93795 0.71879 0.96122 0.0
H3656 H 0.90332 0.6468 0.97098 0.0
H3657 H 0.91158 0.64718 0.95201 0.0
H3658 H 0.89222 0.64692 0.95362 0.0
H3659 H 0.95867 0.70371 0.98289 0.0
H3660 H 0.96249 0.72032 0.96988 0.0
H3661 H 0.96518 0.70337 0.96325 0.0
C3662 C 0.34944 0.30907 0.96663 0.0
C3663 C 0.33956 0.31434 0.97419 0.0
C3664 C 0.34241 0.29298 0.96002 0.0
C3665 C 0.32526 0.28184 0.96156 0.0
C3666 C 0.31528 0.28721 0.96912 0.0
C3667 C 0.32251 0.30345 0.97511 0.0
C3668 C 0.35332 0.28782 0.9516 0.0
C3669 C 0.29702 0.27563 0.9714 0.0
C3670 C 0.29946 0.24237 0.93753 0.0
C3671 C 0.29823 0.23028 0.94799 0.0
C3672 C 0.30933 0.25932 0.94127 0.0
C3673 C 0.31765 0.26429 0.95603 0.0
C3674 C 0.31691 0.25217 0.96638 0.0
C3675 C 0.30738 0.23535 0.96214 0.0
C3676 C 0.31017 0.27189 0.92974 0.0
C3677 C 0.32525 0.25689 0.9824 0.0
H3678 H 0.36262 0.31751 0.96587 0.0
H3679 H 0.31485 0.30744 0.98109 0.0
H3680 H 0.35403 0.27806 0.9583 0.0
H3681 H 0.34797 0.28244 0.93983 0.0
H3682 H 0.36605 0.29837 0.95014 0.0
H3683 H 0.29105 0.28174 0.97767 0.0
H3684 H 0.29067 0.27086 0.95986 0.0
H3685 H 0.29511 0.26478 0.97827 0.0
H3686 H 0.29245 0.23865 0.92657 0.0
H3687 H 0.30643 0.22604 0.97024 0.0
H3688 H 0.32308 0.28218 0.92865 0.0
H3689 H 0.30272 0.27733 0.93408 0.0
H3690 H 0.30537 0.26627 0.9179 0.0
H3691 H 0.33841 0.26655 0.98138 0.0
H3692 H 0.32455 0.24611 0.98851 0.0
H3693 H 0.31924 0.26219 0.98982 0.0
C3694 C 0.69597 0.02182 0.97416 0.0
C3695 C 0.68946 0.03066 0.98183 0.0
C3696 C 0.7105 0.02999 0.96553 0.0
C3697 C 0.71873 0.04745 0.96446 0.0
C3698 C 0.71225 0.05649 0.97217 0.0
C3699 C 0.69767 0.04797 0.98081 0.0
C3700 C 0.71704 0.0199 0.95753 0.0
C3701 C 0.7207 0.07512 0.97125 0.0
C3702 C 0.76373 0.06748 0.95298 0.0
C3703 C 0.76273 0.06935 0.93674 0.0
C3704 C 0.74959 0.06101 0.96228 0.0
C3705 C 0.73405 0.0561 0.95513 0.0
C3706 C 0.733 0.05824 0.9388 0.0
C3707 C 0.74734 0.06479 0.92979 0.0
C3708 C 0.7512 0.05888 0.97966 0.0
C3709 C 0.71664 0.05305 0.93073 0.0
H3710 H 0.68972 0.00844 0.97494 0.0
H3711 H 0.69268 0.05485 0.98673 0.0
H3712 H 0.71772 0.02191 0.94466 0.0
H3713 H 0.72975 0.02399 0.96187 0.0
H3714 H 0.70921 0.00641 0.9596 0.0
H3715 H 0.71412 0.08032 0.97795 0.0
H3716 H 0.73353 0.08077 0.97594 0.0
H3717 H 0.72148 0.0788 0.9588 0.0
H3718 H 0.77557 0.07083 0.95836 0.0
H3719 H 0.7465 0.06603 0.91721 0.0
H3720 H 0.74474 0.04549 0.98236 0.0
H3721 H 0.74524 0.06458 0.98658 0.0
H3722 H 0.76429 0.06451 0.98362 0.0
H3723 H 0.70861 0.0394 0.93127 0.0
H3724 H 0.71809 0.05666 0.91819 0.0
H3725 H 0.71018 0.0587 0.93687 0.0
C3726 C 0.65348 0.9599 0.03487 0.0
C3727 C 0.66197 0.97727 0.03513 0.0
C3728 C 0.65945 0.95115 0.04347 0.0
C3729 C 0.67425 0.96003 0.05245 0.0
C3730 C 0.68282 0.97756 0.05278 0.0
C3731 C 0.67656 0.98596 0.04414 0.0
C3732 C 0.64998 0.93245 0.04289 0.0
C3733 C 0.69867 0.98748 0.06219 0.0
C3734 C 0.68392 0.93998 0.0863 0.0
C3735 C 0.69541 0.93634 0.07955 0.0
C3736 C 0.67654 0.94722 0.07747 0.0
C3737 C 0.6809 0.95108 0.06155 0.0
C3738 C 0.69238 0.94731 0.05462 0.0
C3739 C 0.69956 0.94005 0.06373 0.0
C3740 C 0.6644 0.95113 0.08529 0.0
C3741 C 0.69742 0.95135 0.0377 0.0
H3742 H 0.64221 0.95313 0.0279 0.0
H3743 H 0.6832 0.9994 0.04436 0.0
H3744 H 0.65791 0.92773 0.03816 0.0
H3745 H 0.64649 0.92761 0.05495 0.0
H3746 H 0.6386 0.9274 0.03547 0.0
H3747 H 0.7038 0.00106 0.06122 0.0
H3748 H 0.69651 0.98421 0.07478 0.0
H3749 H 0.70807 0.98441 0.05807 0.0
H3750 H 0.68088 0.93737 0.0986 0.0
H3751 H 0.70861 0.93747 0.05855 0.0
H3752 H 0.6527 0.9456 0.07835 0.0
H3753 H 0.6695 0.96474 0.08572 0.0
H3754 H 0.6616 0.94644 0.09747 0.0
H3755 H 0.68633 0.9458 0.02986 0.0
H3756 H 0.70579 0.94678 0.03384 0.0
H3757 H 0.70381 0.96497 0.03619 0.0
C3758 C 0.03977 0.70394 0.02228 0.0
C3759 C 0.02255 0.69633 0.0209 0.0
C3760 C 0.04899 0.71919 0.03037 0.0
C3761 C 0.04072 0.72692 0.03721 0.0
C3762 C 0.0234 0.71955 0.03535 0.0
C3763 C 0.01453 0.70435 0.02722 0.0
C3764 C 0.06746 0.72675 0.03205 0.0
C3765 C 0.01413 0.72742 0.04244 0.0
C3766 C 0.05884 0.75498 0.07322 0.0
C3767 C 0.06473 0.77072 0.06685 0.0
C3768 C 0.05147 0.74067 0.06361 0.0
C3769 C 0.04992 0.74212 0.04722 0.0
C3770 C 0.05614 0.75799 0.04065 0.0
C3771 C 0.06338 0.77211 0.05057 0.0
C3772 C 0.04486 0.72396 0.07108 0.0
C3773 C 0.05474 0.76001 0.02322 0.0
H3774 H 0.04602 0.69779 0.01738 0.0
H3775 H 0.00121 0.69857 0.02611 0.0
H3776 H 0.0738 0.73985 0.02832 0.0
H3777 H 0.07084 0.72675 0.04459 0.0
H3778 H 0.07216 0.71989 0.025 0.0
H3779 H 0.00079 0.72058 0.03915 0.0
H3780 H 0.0153 0.72777 0.05545 0.0
H3781 H 0.01952 0.74041 0.03857 0.0
H3782 H 0.05974 0.75387 0.08582 0.0
H3783 H 0.0678 0.78424 0.04563 0.0
H3784 H 0.05007 0.71688 0.06527 0.0
H3785 H 0.03125 0.71666 0.06945 0.0
H3786 H 0.04781 0.72503 0.08387 0.0
H3787 H 0.0598 0.75332 0.01646 0.0
H3788 H 0.06137 0.77323 0.01982 0.0
H3789 H 0.04155 0.75448 0.01972 0.0
C3790 C 0.31096 0.35442 0.03393 0.0
C3791 C 0.31499 0.34335 0.02666 0.0
C3792 C 0.29594 0.34855 0.04181 0.0
C3793 C 0.28462 0.33128 0.04203 0.0
C3794 C 0.2886 0.32012 0.03452 0.0
C3795 C 0.3038 0.32628 0.02709 0.0
C3796 C 0.2922 0.36076 0.04997 0.0
C3797 C 0.27674 0.30164 0.0342 0.0
C3798 C 0.25146 0.31071 0.07255 0.0
C3799 C 0.2373 0.30804 0.06421 0.0
C3800 C 0.26711 0.3192 0.06579 0.0
C3801 C 0.26858 0.32467 0.05013 0.0
C3802 C 0.25439 0.32223 0.04172 0.0
C3803 C 0.23893 0.31399 0.04889 0.0
C3804 C 0.28198 0.3217 0.07519 0.0
C3805 C 0.25541 0.32757 0.02489 0.0
H3806 H 0.31963 0.36762 0.03361 0.0
H3807 H 0.3068 0.31769 0.02132 0.0
H3808 H 0.2808 0.3598 0.04485 0.0
H3809 H 0.28991 0.35779 0.06261 0.0
H3810 H 0.30244 0.37375 0.04897 0.0
H3811 H 0.28154 0.2947 0.02744 0.0
H3812 H 0.27428 0.29695 0.04637 0.0
H3813 H 0.26475 0.2989 0.02886 0.0
H3814 H 0.2503 0.3059 0.08429 0.0
H3815 H 0.22797 0.3117 0.04234 0.0
H3816 H 0.29212 0.33476 0.07454 0.0
H3817 H 0.28661 0.31377 0.07015 0.0
H3818 H 0.27907 0.31854 0.08775 0.0
H3819 H 0.26506 0.34076 0.02378 0.0
H3820 H 0.24348 0.32595 0.02042 0.0
H3821 H 0.25898 0.32015 0.01726 0.0
C3822 C 0.70434 0.65573 0.35786 0.0
C3823 C 0.70416 0.67007 0.36271 0.0
C3824 C 0.71369 0.65024 0.36612 0.0
C3825 C 0.72286 0.65917 0.37965 0.0
C3826 C 0.72305 0.67385 0.38441 0.0
C3827 C 0.71375 0.67921 0.37582 0.0
C3828 C 0.71359 0.63475 0.36047 0.0
C3829 C 0.73266 0.68359 0.39884 0.0
C3830 C 0.72899 0.62704 0.41407 0.0
C3831 C 0.75182 0.6373 0.41242 0.0
C3832 C 0.71959 0.6366 0.40304 0.0
C3833 C 0.73147 0.65261 0.38915 0.0
C3834 C 0.75268 0.65888 0.38487 0.0
C3835 C 0.76321 0.65007 0.39532 0.0
C3836 C 0.70192 0.63141 0.40558 0.0
C3837 C 0.76145 0.67118 0.37239 0.0
H3838 H 0.69704 0.64868 0.34767 0.0
H3839 H 0.71363 0.6903 0.37963 0.0
H3840 H 0.72645 0.63734 0.35903 0.0
H3841 H 0.70773 0.62497 0.36938 0.0
H3842 H 0.70677 0.62989 0.34911 0.0
H3843 H 0.73211 0.69514 0.40063 0.0
H3844 H 0.72762 0.67581 0.40938 0.0
H3845 H 0.74578 0.6869 0.39786 0.0
H3846 H 0.72245 0.61856 0.42342 0.0
H3847 H 0.77622 0.65451 0.39371 0.0
H3848 H 0.69463 0.62505 0.39479 0.0
H3849 H 0.70075 0.64255 0.40774 0.0
H3850 H 0.69701 0.62293 0.41566 0.0
H3851 H 0.75442 0.66656 0.36113 0.0
H3852 H 0.77416 0.67334 0.371 0.0
H3853 H 0.7619 0.68298 0.37557 0.0
C3854 C 0.31996 0.03019 0.36303 0.0
C3855 C 0.32611 0.02056 0.36946 0.0
C3856 C 0.32439 0.04583 0.36952 0.0
C3857 C 0.33487 0.05174 0.38302 0.0
C3858 C 0.34064 0.04178 0.38988 0.0
C3859 C 0.33638 0.02638 0.38288 0.0
C3860 C 0.3183 0.05624 0.36163 0.0
C3861 C 0.35149 0.04747 0.4045 0.0
C3862 C 0.36027 0.09822 0.39028 0.0
C3863 C 0.35066 0.10098 0.40116 0.0
C3864 C 0.35526 0.08228 0.38428 0.0
C3865 C 0.34039 0.06866 0.3895 0.0
C3866 C 0.33069 0.07127 0.40063 0.0
C3867 C 0.33578 0.08743 0.40613 0.0
C3868 C 0.36577 0.08008 0.37215 0.0
C3869 C 0.3149 0.057 0.40668 0.0
H3870 H 0.3121 0.02574 0.35259 0.0
H3871 H 0.34105 0.01888 0.38793 0.0
H3872 H 0.31153 0.05968 0.37014 0.0
H3873 H 0.32898 0.06794 0.35756 0.0
H3874 H 0.31002 0.04973 0.35137 0.0
H3875 H 0.35393 0.03776 0.40902 0.0
H3876 H 0.36348 0.05863 0.40193 0.0
H3877 H 0.3456 0.05101 0.41389 0.0
H3878 H 0.37165 0.10868 0.38627 0.0
H3879 H 0.32809 0.08941 0.41432 0.0
H3880 H 0.35838 0.0744 0.36123 0.0
H3881 H 0.36984 0.07152 0.37654 0.0
H3882 H 0.37687 0.092 0.36919 0.0
H3883 H 0.30583 0.05104 0.39686 0.0
H3884 H 0.30924 0.06099 0.41594 0.0
H3885 H 0.31735 0.04744 0.41157 0.0
C3886 C 0.96102 0.28643 0.35139 0.0
C3887 C 0.97372 0.2997 0.35995 0.0
C3888 C 0.94561 0.27622 0.3582 0.0
C3889 C 0.94302 0.2792 0.37402 0.0
C3890 C 0.956 0.29226 0.38285 0.0
C3891 C 0.97115 0.30246 0.37566 0.0
C3892 C 0.93198 0.26257 0.34834 0.0
C3893 C 0.95381 0.29565 0.39982 0.0
C3894 C 0.89941 0.26515 0.38734 0.0
C3895 C 0.89536 0.25049 0.39517 0.0
C3896 C 0.91482 0.27453 0.38031 0.0
C3897 C 0.92651 0.26914 0.38116 0.0
C3898 C 0.92248 0.25427 0.38892 0.0
C3899 C 0.90686 0.24499 0.39565 0.0
C3900 C 0.91856 0.29018 0.37192 0.0
C3901 C 0.93469 0.24819 0.39015 0.0
H3902 H 0.96297 0.28432 0.33922 0.0
H3903 H 0.98101 0.31264 0.38235 0.0
H3904 H 0.9272 0.2505 0.3542 0.0
H3905 H 0.92152 0.26495 0.34713 0.0
H3906 H 0.93615 0.26154 0.33639 0.0
H3907 H 0.96543 0.30562 0.40532 0.0
H3908 H 0.94426 0.29936 0.4006 0.0
H3909 H 0.94943 0.28422 0.40674 0.0
H3910 H 0.8904 0.26921 0.38663 0.0
H3911 H 0.90366 0.23344 0.40131 0.0
H3912 H 0.92177 0.28942 0.35952 0.0
H3913 H 0.9294 0.301 0.37756 0.0
H3914 H 0.90798 0.29246 0.37203 0.0
H3915 H 0.93806 0.24603 0.37823 0.0
H3916 H 0.92973 0.23652 0.39679 0.0
H3917 H 0.94621 0.25778 0.3961 0.0
C3918 C 0.0055 0.37234 0.31058 0.0
C3919 C 0.01994 0.37305 0.31631 0.0
C3920 C 0.00618 0.38578 0.30263 0.0
C3921 C 0.02165 0.40027 0.30055 0.0
C3922 C 0.03623 0.4011 0.30649 0.0
C3923 C 0.0352 0.38744 0.31423 0.0
C3924 C 0.99041 0.38442 0.29634 0.0
C3925 C 0.05295 0.4164 0.30463 0.0
C3926 C 0.02796 0.43021 0.26798 0.0
C3927 C 0.02711 0.44291 0.27623 0.0
C3928 C 0.02559 0.41597 0.27565 0.0
C3929 C 0.02271 0.41458 0.29203 0.0
C3930 C 0.02179 0.42732 0.30041 0.0
C3931 C 0.02402 0.44134 0.2924 0.0
C3932 C 0.02658 0.4026 0.26631 0.0
C3933 C 0.01897 0.42639 0.31792 0.0
H3934 H 0.99368 0.3612 0.31213 0.0
H3935 H 0.04639 0.38806 0.31869 0.0
H3936 H 0.98874 0.39449 0.30145 0.0
H3937 H 0.99113 0.38594 0.2834 0.0
H3938 H 0.97937 0.37232 0.299 0.0
H3939 H 0.06304 0.41518 0.31024 0.0
H3940 H 0.05566 0.41889 0.29196 0.0
H3941 H 0.05293 0.42734 0.30992 0.0
H3942 H 0.03071 0.43152 0.25555 0.0
H3943 H 0.02369 0.45128 0.29885 0.0
H3944 H 0.01543 0.39039 0.26824 0.0
H3945 H 0.03742 0.40174 0.27038 0.0
H3946 H 0.02773 0.40502 0.25349 0.0
H3947 H 0.00761 0.41466 0.32075 0.0
H3948 H 0.0178 0.43695 0.32255 0.0
H3949 H 0.02943 0.42635 0.32415 0.0
C3950 C 0.61949 0.63101 0.32377 0.0
C3951 C 0.63457 0.64136 0.31654 0.0
C3952 C 0.60777 0.61593 0.31663 0.0
C3953 C 0.61122 0.61114 0.3019 0.0
C3954 C 0.62616 0.62184 0.29429 0.0
C3955 C 0.63767 0.63681 0.30172 0.0
C3956 C 0.59198 0.60484 0.32512 0.0
C3957 C 0.63024 0.61721 0.27854 0.0
C3958 C 0.59125 0.56524 0.29198 0.0
C3959 C 0.57848 0.56277 0.28159 0.0
C3960 C 0.60193 0.5809 0.2987 0.0
C3961 C 0.59977 0.59446 0.29497 0.0
C3962 C 0.58678 0.59205 0.28462 0.0
C3963 C 0.57617 0.57618 0.27817 0.0
C3964 C 0.61551 0.58292 0.30983 0.0
C3965 C 0.58411 0.60622 0.28037 0.0
H3966 H 0.61702 0.63448 0.33522 0.0
H3967 H 0.64928 0.64481 0.29604 0.0
H3968 H 0.58114 0.60124 0.31726 0.0
H3969 H 0.59176 0.59327 0.32848 0.0
H3970 H 0.59063 0.61088 0.33591 0.0
H3971 H 0.64181 0.62741 0.27368 0.0
H3972 H 0.63167 0.60615 0.27978 0.0
H3973 H 0.62 0.61388 0.26997 0.0
H3974 H 0.59281 0.55481 0.29494 0.0
H3975 H 0.56604 0.57424 0.27047 0.0
H3976 H 0.61419 0.58771 0.32142 0.0
H3977 H 0.62772 0.59213 0.3052 0.0
H3978 H 0.61541 0.57109 0.31162 0.0
H3979 H 0.5818 0.61155 0.29115 0.0
H3980 H 0.57354 0.60231 0.27205 0.0
H3981 H 0.5954 0.61624 0.27496 0.0
C3982 C 0.36146 0.96576 0.32885 0.0
C3983 C 0.35679 0.97747 0.32512 0.0
C3984 C 0.37447 0.96544 0.32102 0.0
C3985 C 0.38291 0.97703 0.3091 0.0
C3986 C 0.37829 0.98892 0.30534 0.0
C3987 C 0.36532 0.98904 0.31343 0.0
C3988 C 0.37914 0.95267 0.32547 0.0
C3989 C 0.38694 0.00141 0.29265 0.0
C3990 C 0.42568 0.98519 0.29847 0.0
C3991 C 0.42234 0.9751 0.28499 0.0
C3992 C 0.41301 0.98612 0.30631 0.0
C3993 C 0.39656 0.97666 0.30057 0.0
C3994 C 0.39309 0.96651 0.2869 0.0
C3995 C 0.406 0.96572 0.27937 0.0
C3996 C 0.41718 0.99695 0.32093 0.0
C3997 C 0.37571 0.95629 0.28039 0.0
H3998 H 0.35492 0.95681 0.33788 0.0
H3999 H 0.36172 0.99808 0.31047 0.0
H4000 H 0.3776 0.94461 0.31513 0.0
H4001 H 0.39233 0.9589 0.32917 0.0
H4002 H 0.37154 0.94473 0.33519 0.0
H4003 H 0.38189 0.00986 0.29116 0.0
H4004 H 0.40033 0.00897 0.2955 0.0
H4005 H 0.38572 0.99489 0.28126 0.0
H4006 H 0.43825 0.99219 0.30303 0.0
H4007 H 0.40329 0.95761 0.26917 0.0
H4008 H 0.41067 0.98922 0.33115 0.0
H4009 H 0.41289 0.00601 0.31952 0.0
H4010 H 0.43065 0.00384 0.32364 0.0
H4011 H 0.3678 0.94707 0.28915 0.0
H4012 H 0.37518 0.9496 0.26929 0.0
H4013 H 0.37036 0.96436 0.27812 0.0
C4014 C 0.64481 0.00072 0.31084 0.0
C4015 C 0.63708 0.98412 0.31535 0.0
C4016 C 0.63598 0.00698 0.30288 0.0
C4017 C 0.61904 0.99634 0.29925 0.0
C4018 C 0.6112 0.9795 0.30361 0.0
C4019 C 0.62032 0.97359 0.31168 0.0
C4020 C 0.64476 0.02502 0.29849 0.0
C4021 C 0.59317 0.96779 0.29982 0.0
C4022 C 0.59343 0.01678 0.29117 0.0
C4023 C 0.59296 0.01661 0.27469 0.0
C4024 C 0.60162 0.00994 0.29934 0.0
C4025 C 0.60963 0.00289 0.2908 0.0
C4026 C 0.6092 0.00269 0.27416 0.0
C4027 C 0.60092 0.0096 0.26631 0.0
C4028 C 0.6019 0.01043 0.3171 0.0
C4029 C 0.61766 0.99535 0.26465 0.0
H4030 H 0.65775 0.00894 0.31371 0.0
H4031 H 0.6143 0.96075 0.31516 0.0
H4032 H 0.644 0.02611 0.28557 0.0
H4033 H 0.63864 0.03134 0.30405 0.0
H4034 H 0.65798 0.03164 0.3022 0.0
H4035 H 0.58896 0.95502 0.30387 0.0
H4036 H 0.58551 0.97237 0.30546 0.0
H4037 H 0.59093 0.9673 0.28694 0.0
H4038 H 0.58741 0.02232 0.29767 0.0
H4039 H 0.6007 0.0096 0.25356 0.0
H4040 H 0.61482 0.01787 0.32154 0.0
H4041 H 0.59685 0.99773 0.32166 0.0
H4042 H 0.59462 0.01587 0.32197 0.0
H4043 H 0.63113 0.0023 0.26723 0.0
H4044 H 0.61567 0.99567 0.25179 0.0
H4045 H 0.61303 0.98231 0.268 0.0
C4046 C 0.0214 0.64857 0.2993 0.0
C4047 C 0.02265 0.65185 0.31555 0.0
C4048 C 0.01727 0.63279 0.29339 0.0
C4049 C 0.014 0.61997 0.30402 0.0
C4050 C 0.01565 0.62336 0.32042 0.0
C4051 C 0.02012 0.63931 0.32597 0.0
C4052 C 0.01598 0.62971 0.27583 0.0
C4053 C 0.01205 0.60997 0.33214 0.0
C4054 C 0.98504 0.57502 0.29237 0.0
C4055 C 0.99605 0.56902 0.29081 0.0
C4056 C 0.99077 0.59173 0.29618 0.0
C4057 C 0.00795 0.60276 0.29816 0.0
C4058 C 0.01918 0.59696 0.29576 0.0
C4059 C 0.01307 0.58011 0.29224 0.0
C4060 C 0.97839 0.59741 0.29877 0.0
C4061 C 0.03759 0.60842 0.29745 0.0
H4062 H 0.02342 0.65828 0.29122 0.0
H4063 H 0.021 0.64177 0.33855 0.0
H4064 H 0.02319 0.62371 0.27233 0.0
H4065 H 0.00292 0.62112 0.27235 0.0
H4066 H 0.0205 0.64134 0.26918 0.0
H4067 H 0.01438 0.61477 0.34448 0.0
H4068 H 0.99895 0.60002 0.33091 0.0
H4069 H 0.01978 0.60426 0.32976 0.0
H4070 H 0.97188 0.5665 0.29107 0.0
H4071 H 0.02162 0.57553 0.29089 0.0
H4072 H 0.98136 0.60824 0.2914 0.0
H4073 H 0.97905 0.60142 0.31124 0.0
H4074 H 0.96554 0.58748 0.296 0.0
H4075 H 0.0415 0.61977 0.29056 0.0
H4076 H 0.04467 0.60241 0.29349 0.0
H4077 H 0.04087 0.61235 0.30996 0.0
C4078 C 0.36837 0.37998 0.33233 0.0
C4079 C 0.35432 0.37025 0.3229 0.0
C4080 C 0.38378 0.39019 0.32558 0.0
C4081 C 0.38516 0.39062 0.309 0.0
C4082 C 0.37093 0.38121 0.29941 0.0
C4083 C 0.35565 0.37114 0.30648 0.0
C4084 C 0.39867 0.40014 0.33621 0.0
C4085 C 0.37193 0.38137 0.28169 0.0
C4086 C 0.42382 0.42666 0.29236 0.0
C4087 C 0.43377 0.41954 0.28991 0.0
C4088 C 0.40778 0.41728 0.29817 0.0
C4089 C 0.40165 0.40044 0.30178 0.0
C4090 C 0.41154 0.3931 0.29908 0.0
C4091 C 0.42747 0.40274 0.29314 0.0
C4092 C 0.39756 0.42549 0.3008 0.0
C4093 C 0.40545 0.37519 0.30283 0.0
H4094 H 0.3674 0.37935 0.34503 0.0
H4095 H 0.34482 0.36361 0.29913 0.0
H4096 H 0.40769 0.39584 0.33453 0.0
H4097 H 0.40493 0.41342 0.33311 0.0
H4098 H 0.39536 0.39903 0.34883 0.0
H4099 H 0.35958 0.37412 0.27591 0.0
H4100 H 0.37791 0.39429 0.27749 0.0
H4101 H 0.37969 0.37608 0.27788 0.0
H4102 H 0.42867 0.43966 0.28994 0.0
H4103 H 0.43518 0.39724 0.2913 0.0
H4104 H 0.39511 0.42567 0.31352 0.0
H4105 H 0.38542 0.41831 0.29466 0.0
H4106 H 0.40377 0.43842 0.29656 0.0
H4107 H 0.40311 0.37329 0.31562 0.0
H4108 H 0.41444 0.37122 0.29952 0.0
H4109 H 0.39357 0.36705 0.29656 0.0
C4110 C 0.33799 0.3001 0.35385 0.0
C4111 C 0.32488 0.30088 0.36089 0.0
C4112 C 0.3446 0.29097 0.36055 0.0
C4113 C 0.33788 0.28233 0.37461 0.0
C4114 C 0.32439 0.28275 0.3816 0.0
C4115 C 0.31806 0.29207 0.37466 0.0
C4116 C 0.359 0.29085 0.35274 0.0
C4117 C 0.31686 0.2736 0.39653 0.0
C4118 C 0.34816 0.24864 0.38322 0.0
C4119 C 0.36184 0.25697 0.39344 0.0
C4120 C 0.33978 0.25651 0.37751 0.0
C4121 C 0.34529 0.27316 0.38206 0.0
C4122 C 0.35881 0.28149 0.39273 0.0
C4123 C 0.36701 0.27333 0.3982 0.0
C4124 C 0.32549 0.24725 0.36607 0.0
C4125 C 0.36505 0.29925 0.39786 0.0
H4126 H 0.34334 0.30691 0.34322 0.0
H4127 H 0.30793 0.29265 0.38014 0.0
H4128 H 0.36987 0.29635 0.36086 0.0
H4129 H 0.35591 0.27792 0.35005 0.0
H4130 H 0.36252 0.2979 0.34165 0.0
H4131 H 0.30599 0.27461 0.40012 0.0
H4132 H 0.31298 0.2603 0.39498 0.0
H4133 H 0.32621 0.27866 0.40622 0.0
H4134 H 0.34431 0.23608 0.37933 0.0
H4135 H 0.37775 0.27991 0.40588 0.0
H4136 H 0.32894 0.25298 0.35434 0.0
H4137 H 0.31463 0.2481 0.36996 0.0
H4138 H 0.32183 0.23396 0.3648 0.0
H4139 H 0.3703 0.30746 0.38764 0.0
H4140 H 0.37473 0.30346 0.40723 0.0
H4141 H 0.35473 0.30075 0.40226 0.0
C4142 C 0.67915 0.01698 0.37938 0.0
C4143 C 0.6884 0.01118 0.37142 0.0
C4144 C 0.68689 0.03245 0.38717 0.0
C4145 C 0.7043 0.04234 0.38701 0.0
C4146 C 0.71375 0.0364 0.37929 0.0
C4147 C 0.70567 0.02085 0.37158 0.0
C4148 C 0.67639 0.03834 0.39531 0.0
C4149 C 0.73236 0.04662 0.37892 0.0
C4150 C 0.72235 0.08861 0.39376 0.0
C4151 C 0.72706 0.0905 0.40967 0.0
C4152 C 0.71518 0.07304 0.38615 0.0
C4153 C 0.71256 0.05902 0.39472 0.0
C4154 C 0.71727 0.06084 0.41079 0.0
C4155 C 0.72439 0.07654 0.4181 0.0
C4156 C 0.71022 0.07154 0.369 0.0
C4157 C 0.71458 0.04616 0.42033 0.0
H4158 H 0.66579 0.00955 0.37929 0.0
H4159 H 0.71287 0.01642 0.3654 0.0
H4160 H 0.68024 0.04138 0.40785 0.0
H4161 H 0.6782 0.04985 0.38981 0.0
H4162 H 0.66303 0.02894 0.39472 0.0
H4163 H 0.73792 0.04 0.37284 0.0
H4164 H 0.73612 0.05838 0.37278 0.0
H4165 H 0.73751 0.04992 0.39107 0.0
H4166 H 0.72421 0.09934 0.38728 0.0
H4167 H 0.72783 0.07793 0.43046 0.0
H4168 H 0.69669 0.0632 0.36762 0.0
H4169 H 0.71629 0.06593 0.36212 0.0
H4170 H 0.71355 0.08372 0.36391 0.0
H4171 H 0.7012 0.03698 0.42074 0.0
H4172 H 0.71944 0.04978 0.43258 0.0
H4173 H 0.72071 0.03991 0.41466 0.0
C4174 C 0.97116 0.65959 0.35837 0.0
C4175 C 0.97966 0.67626 0.35403 0.0
C4176 C 0.95632 0.65303 0.36657 0.0
C4177 C 0.94975 0.66337 0.37047 0.0
C4178 C 0.95801 0.68009 0.36573 0.0
C4179 C 0.97292 0.68637 0.35758 0.0
C4180 C 0.94793 0.63514 0.37145 0.0
C4181 C 0.95129 0.69144 0.36958 0.0
C4182 C 0.90469 0.64125 0.38226 0.0
C4183 C 0.90608 0.64205 0.39873 0.0
C4184 C 0.91879 0.64862 0.37288 0.0
C4185 C 0.93465 0.65678 0.38015 0.0
C4186 C 0.93612 0.65779 0.39677 0.0
C4187 C 0.92183 0.65043 0.40585 0.0
C4188 C 0.91674 0.64732 0.3552 0.0
C4189 C 0.95281 0.66625 0.40497 0.0
H4190 H 0.97629 0.65169 0.35563 0.0
H4191 H 0.97943 0.69925 0.35422 0.0
H4192 H 0.94759 0.6345 0.38447 0.0
H4193 H 0.93496 0.62844 0.36705 0.0
H4194 H 0.95432 0.6286 0.36698 0.0
H4195 H 0.95863 0.70381 0.36425 0.0
H4196 H 0.9383 0.6858 0.36536 0.0
H4197 H 0.95131 0.69314 0.38252 0.0
H4198 H 0.89255 0.63468 0.37672 0.0
H4199 H 0.92294 0.65095 0.41857 0.0
H4200 H 0.92186 0.63974 0.35034 0.0
H4201 H 0.92375 0.65979 0.35002 0.0
H4202 H 0.90359 0.64158 0.3514 0.0
H4203 H 0.95956 0.65963 0.40202 0.0
H4204 H 0.95181 0.66661 0.41797 0.0
H4205 H 0.96034 0.67913 0.40084 0.0
C4206 C 0.39248 0.03702 0.69562 0.0
C4207 C 0.37647 0.0242 0.69872 0.0
C4208 C 0.40619 0.03845 0.70387 0.0
C4209 C 0.40382 0.02679 0.71553 0.0
C4210 C 0.38767 0.01385 0.71877 0.0
C4211 C 0.37417 0.01269 0.71029 0.0
C4212 C 0.42322 0.05239 0.70003 0.0
C4213 C 0.38469 0.00123 0.73115 0.0
C4214 C 0.44139 0.02299 0.72535 0.0
C4215 C 0.44773 0.03323 0.73881 0.0
C4216 C 0.42677 0.0203 0.71797 0.0
C4217 C 0.41834 0.02815 0.72415 0.0
C4218 C 0.42446 0.03819 0.73795 0.0
C4219 C 0.43916 0.04072 0.74506 0.0
C4220 C 0.42069 0.00958 0.70323 0.0
C4221 C 0.41579 0.04674 0.7449 0.0
H4222 H 0.39433 0.04595 0.68669 0.0
H4223 H 0.3618 0.00276 0.71274 0.0
H4224 H 0.42921 0.06015 0.71071 0.0
H4225 H 0.43107 0.04725 0.69608 0.0
H4226 H 0.42293 0.06045 0.69068 0.0
H4227 H 0.37136 0.99206 0.7324 0.0
H4228 H 0.39131 0.99449 0.72811 0.0
H4229 H 0.38968 0.00757 0.74269 0.0
H4230 H 0.44813 0.01739 0.72037 0.0
H4231 H 0.44417 0.04888 0.7553 0.0
H4232 H 0.42139 0.01725 0.69308 0.0
H4233 H 0.40756 -0.00014 0.70441 0.0
H4234 H 0.42804 0.00349 0.70055 0.0
H4235 H 0.41637 0.05611 0.73662 0.0
H4236 H 0.42139 0.05304 0.75634 0.0
H4237 H 0.40254 0.03765 0.74667 0.0
C4238 C 0.98945 0.3669 0.70667 0.0
C4239 C 0.97736 0.35008 0.70562 0.0
C4240 C 0.98738 0.37793 0.71655 0.0
C4241 C 0.97296 0.37191 0.72567 0.0
C4242 C 0.96063 0.35497 0.72448 0.0
C4243 C 0.96295 0.3443 0.71442 0.0
C4244 C 0.00068 0.39594 0.7174 0.0
C4245 C 0.94513 0.34802 0.7341 0.0
C4246 C 0.9724 0.39322 0.76377 0.0
C4247 C 0.96308 0.40057 0.75942 0.0
C4248 C 0.97636 0.38448 0.75273 0.0
C4249 C 0.97084 0.38305 0.73693 0.0
C4250 C 0.96195 0.39096 0.73232 0.0
C4251 C 0.958 0.39946 0.74366 0.0
C4252 C 0.98569 0.37606 0.75816 0.0
C4253 C 0.95597 0.38981 0.71556 0.0
H4254 H 0.00059 0.37143 0.69985 0.0
H4255 H 0.95357 0.3313 0.71368 0.0
H4256 H 0.9953 0.40393 0.71487 0.0
H4257 H 0.00608 0.39922 0.72947 0.0
H4258 H 0.01075 0.39882 0.70898 0.0
H4259 H 0.93664 0.33461 0.73161 0.0
H4260 H 0.94842 0.34975 0.74682 0.0
H4261 H 0.93843 0.35479 0.73164 0.0
H4262 H 0.97611 0.39382 0.77599 0.0
H4263 H 0.95053 0.40485 0.74028 0.0
H4264 H 0.99641 0.37936 0.7505 0.0
H4265 H 0.97752 0.36241 0.75726 0.0
H4266 H 0.99021 0.37945 0.77052 0.0
H4267 H 0.96617 0.39292 0.70727 0.0
H4268 H 0.95094 0.3982 0.7135 0.0
H4269 H 0.94612 0.37691 0.71278 0.0
C4270 C 0.63909 0.62975 0.71194 0.0
C4271 C 0.63944 0.63075 0.6955 0.0
C4272 C 0.62426 0.61978 0.71974 0.0
C4273 C 0.60941 0.61071 0.71087 0.0
C4274 C 0.60979 0.6112 0.69423 0.0
C4275 C 0.62483 0.62117 0.68673 0.0
C4276 C 0.62438 0.61945 0.73749 0.0
C4277 C 0.5942 0.60175 0.68438 0.0
C4278 C 0.57128 0.5765 0.73029 0.0
C4279 C 0.56268 0.58478 0.73425 0.0
C4280 C 0.5866 0.58481 0.72283 0.0
C4281 C 0.59335 0.6017 0.71904 0.0
C4282 C 0.58467 0.61007 0.72292 0.0
C4283 C 0.56944 0.6015 0.73042 0.0
C4284 C 0.59549 0.57548 0.71887 0.0
C4285 C 0.5914 0.62806 0.71898 0.0
H4286 H 0.65037 0.63707 0.71876 0.0
H4287 H 0.62504 0.62192 0.67402 0.0
H4288 H 0.6175 0.62536 0.74219 0.0
H4289 H 0.61805 0.60647 0.74154 0.0
H4290 H 0.63711 0.62606 0.74256 0.0
H4291 H 0.59676 0.60246 0.67159 0.0
H4292 H 0.58744 0.58852 0.68768 0.0
H4293 H 0.58591 0.60685 0.68662 0.0
H4294 H 0.56591 0.56348 0.73291 0.0
H4295 H 0.56266 0.60783 0.73317 0.0
H4296 H 0.60805 0.58189 0.72428 0.0
H4297 H 0.597 0.57526 0.70595 0.0
H4298 H 0.58879 0.56251 0.72299 0.0
H4299 H 0.60374 0.6358 0.72462 0.0
H4300 H 0.58318 0.63278 0.7229 0.0
H4301 H 0.59301 0.62965 0.70608 0.0
C4302 C 0.67997 0.71818 0.65991 0.0
C4303 C 0.67089 0.70147 0.65516 0.0
C4304 C 0.67668 0.72999 0.65336 0.0
C4305 C 0.66421 0.725 0.64159 0.0
C4306 C 0.65501 0.70813 0.63675 0.0
C4307 C 0.65837 0.69654 0.6437 0.0
C4308 C 0.68657 0.74782 0.65902 0.0
C4309 C 0.64178 0.70238 0.62407 0.0
C4310 C 0.646 0.75263 0.63352 0.0
C4311 C 0.65492 0.76136 0.62038 0.0
C4312 C 0.64888 0.74075 0.64054 0.0
C4313 C 0.66093 0.73746 0.63422 0.0
C4314 C 0.66999 0.74622 0.62095 0.0
C4315 C 0.66706 0.75825 0.61434 0.0
C4316 C 0.63919 0.73188 0.65486 0.0
C4317 C 0.68284 0.74294 0.61379 0.0
H4318 H 0.68962 0.72202 0.66883 0.0
H4319 H 0.65137 0.68364 0.63994 0.0
H4320 H 0.69353 0.75584 0.64913 0.0
H4321 H 0.67814 0.75211 0.66335 0.0
H4322 H 0.69546 0.74957 0.66862 0.0
H4323 H 0.63579 0.68884 0.62161 0.0
H4324 H 0.63216 0.70537 0.6276 0.0
H4325 H 0.64722 0.70904 0.61303 0.0
H4326 H 0.63688 0.75528 0.63842 0.0
H4327 H 0.6743 0.76523 0.60444 0.0
H4328 H 0.64776 0.73421 0.66491 0.0
H4329 H 0.63226 0.71831 0.65253 0.0
H4330 H 0.63029 0.73592 0.65834 0.0
H4331 H 0.69286 0.7459 0.62252 0.0
H4332 H 0.68837 0.75037 0.60314 0.0
H4333 H 0.67723 0.72961 0.61055 0.0
C4334 C 0.29107 0.96523 0.65286 0.0
C4335 C 0.30834 0.97413 0.6519 0.0
C4336 C 0.28178 0.94964 0.64537 0.0
C4337 C 0.28996 0.94294 0.63666 0.0
C4338 C 0.30734 0.95189 0.63558 0.0
C4339 C 0.31635 0.96735 0.64328 0.0
C4340 C 0.26324 0.94032 0.64681 0.0
C4341 C 0.31642 0.94519 0.62615 0.0
C4342 C 0.26766 0.88852 0.62869 0.0
C4343 C 0.25705 0.88783 0.60986 0.0
C4344 C 0.27806 0.90853 0.63845 0.0
C4345 C 0.28048 0.92667 0.62863 0.0
C4346 C 0.2738 0.92589 0.60849 0.0
C4347 C 0.26327 0.90646 0.59771 0.0
C4348 C 0.28456 0.91008 0.65481 0.0
C4349 C 0.27715 0.94145 0.60066 0.0
H4350 H 0.28482 0.97041 0.65952 0.0
H4351 H 0.32969 0.9742 0.64243 0.0
H4352 H 0.25739 0.93794 0.63494 0.0
H4353 H 0.25921 0.92813 0.6522 0.0
H4354 H 0.25873 0.9472 0.65408 0.0
H4355 H 0.32999 0.9538 0.62629 0.0
H4356 H 0.31392 0.93314 0.63091 0.0
H4357 H 0.31187 0.94291 0.61376 0.0
H4358 H 0.26483 0.87737 0.6349 0.0
H4359 H 0.25812 0.90559 0.58607 0.0
H4360 H 0.27949 0.91619 0.66242 0.0
H4361 H 0.29819 0.91812 0.6549 0.0
H4362 H 0.28118 0.89772 0.65942 0.0
H4363 H 0.27146 0.94746 0.60752 0.0
H4364 H 0.27212 0.93878 0.58844 0.0
H4365 H 0.29066 0.95015 0.6006 0.0
C4366 C 0.0355 0.34404 0.64737 0.0
C4367 C 0.03177 0.33568 0.66166 0.0
C4368 C 0.05071 0.34925 0.64012 0.0
C4369 C 0.06256 0.34622 0.64746 0.0
C4370 C 0.05899 0.33807 0.66205 0.0
C4371 C 0.04357 0.33278 0.66893 0.0
C4372 C 0.05398 0.35774 0.62448 0.0
C4373 C 0.0714 0.33483 0.67033 0.0
C4374 C 0.09562 0.34561 0.62217 0.0
C4375 C 0.10896 0.36174 0.62463 0.0
C4376 C 0.08041 0.34044 0.62943 0.0
C4377 C 0.07864 0.35148 0.63976 0.0
C4378 C 0.09216 0.36762 0.6426 0.0
C4379 C 0.10713 0.37255 0.63497 0.0
C4380 C 0.06621 0.32317 0.626 0.0
C4381 C 0.09086 0.37964 0.65377 0.0
H4382 H 0.02638 0.34622 0.64165 0.0
H4383 H 0.04073 0.32633 0.67998 0.0
H4384 H 0.06519 0.37018 0.6254 0.0
H4385 H 0.05637 0.35049 0.61548 0.0
H4386 H 0.04348 0.35918 0.62035 0.0
H4387 H 0.06693 0.32885 0.68186 0.0
H4388 H 0.07416 0.32668 0.66286 0.0
H4389 H 0.08318 0.34663 0.67228 0.0
H4390 H 0.09704 0.33701 0.61453 0.0
H4391 H 0.11753 0.38489 0.63718 0.0
H4392 H 0.05552 0.32384 0.62114 0.0
H4393 H 0.06216 0.31612 0.63704 0.0
H4394 H 0.06953 0.3162 0.61749 0.0
H4395 H 0.0811 0.38218 0.64956 0.0
H4396 H 0.10265 0.39159 0.65498 0.0
H4397 H 0.08722 0.37412 0.66557 0.0
C4398 C 0.31779 0.34068 0.64122 0.0
C4399 C 0.3082 0.32521 0.64813 0.0
C4400 C 0.3104 0.3483 0.63306 0.0
C4401 C 0.29298 0.34023 0.63174 0.0
C4402 C 0.28321 0.32448 0.63845 0.0
C4403 C 0.29095 0.31714 0.6466 0.0
C4404 C 0.32124 0.36511 0.62605 0.0
C4405 C 0.2646 0.31552 0.63723 0.0
C4406 C 0.27467 0.36775 0.62367 0.0
C4407 C 0.27166 0.36542 0.6074 0.0
C4408 C 0.28126 0.35932 0.63181 0.0
C4409 C 0.28507 0.34845 0.62344 0.0
C4410 C 0.282 0.346 0.60703 0.0
C4411 C 0.27536 0.35453 0.5992 0.0
C4412 C 0.28439 0.36226 0.64933 0.0
C4413 C 0.28602 0.3346 0.5977 0.0
H4414 H 0.33113 0.34699 0.64239 0.0
H4415 H 0.2835 0.30519 0.65194 0.0
H4416 H 0.31866 0.3646 0.61324 0.0
H4417 H 0.31843 0.37432 0.63142 0.0
H4418 H 0.3346 0.36956 0.62787 0.0
H4419 H 0.25881 0.30317 0.64276 0.0
H4420 H 0.25991 0.32306 0.64302 0.0
H4421 H 0.2606 0.31383 0.62469 0.0
H4422 H 0.27195 0.37626 0.63001 0.0
H4423 H 0.27316 0.35281 0.5866 0.0
H4424 H 0.29779 0.3679 0.65194 0.0
H4425 H 0.27801 0.3503 0.65552 0.0
H4426 H 0.2801 0.37056 0.65419 0.0
H4427 H 0.29949 0.33923 0.59842 0.0
H4428 H 0.28232 0.33359 0.58511 0.0
H4429 H 0.27969 0.32203 0.60274 0.0
C4430 C 0.6818 0.97452 0.64367 0.0
C4431 C 0.67217 0.98025 0.65101 0.0
C4432 C 0.67436 0.95893 0.63602 0.0
C4433 C 0.65691 0.949 0.63554 0.0
C4434 C 0.64719 0.95462 0.64321 0.0
C4435 C 0.65494 0.97012 0.65093 0.0
C4436 C 0.68512 0.95321 0.62817 0.0
C4437 C 0.62855 0.94448 0.64284 0.0
C4438 C 0.63596 0.91792 0.60198 0.0
C4439 C 0.63092 0.90282 0.60943 0.0
C4440 C 0.64466 0.93304 0.61029 0.0
C4441 C 0.6487 0.93311 0.62638 0.0
C4442 C 0.64411 0.91796 0.63386 0.0
C4443 C 0.63516 0.90298 0.62531 0.0
C4444 C 0.64915 0.94892 0.60195 0.0
C4445 C 0.64842 0.91757 0.65093 0.0
H4446 H 0.69512 0.98229 0.64377 0.0
H4447 H 0.64743 0.9745 0.65657 0.0
H4448 H 0.68189 0.94071 0.63227 0.0
H4449 H 0.68292 0.95221 0.61526 0.0
H4450 H 0.69847 0.96183 0.63057 0.0
H4451 H 0.62281 0.9504 0.6498 0.0
H4452 H 0.62393 0.94278 0.63051 0.0
H4453 H 0.62437 0.93198 0.64753 0.0
H4454 H 0.63286 0.91785 0.58966 0.0
H4455 H 0.63139 0.89135 0.63109 0.0
H4456 H 0.66266 0.95757 0.60285 0.0
H4457 H 0.64302 0.95515 0.60768 0.0
H4458 H 0.64543 0.94675 0.58932 0.0
H4459 H 0.66186 0.92586 0.65305 0.0
H4460 H 0.64498 0.90489 0.65468 0.0
H4461 H 0.64192 0.92223 0.65846 0.0
C4462 C 0.01743 0.6841 0.63867 0.0
C4463 C 0.0122 0.69191 0.64953 0.0
C4464 C 0.03212 0.69314 0.63043 0.0
C4465 C 0.04184 0.71046 0.63307 0.0
C4466 C 0.03647 0.71852 0.64377 0.0
C4467 C 0.02169 0.70912 0.65191 0.0
C4468 C 0.03741 0.68408 0.61913 0.0
C4469 C 0.04651 0.73698 0.64683 0.0
C4470 C 0.08708 0.72888 0.62311 0.0
C4471 C 0.08756 0.73499 0.60804 0.0
C4472 C 0.07241 0.72145 0.63166 0.0
C4473 C 0.05782 0.71995 0.62489 0.0
C4474 C 0.0583 0.72638 0.6098 0.0
C4475 C 0.07314 0.73374 0.60151 0.0
C4476 C 0.07238 0.71466 0.64769 0.0
C4477 C 0.04299 0.72494 0.60217 0.0
H4478 H 0.01014 0.67079 0.63676 0.0
H4479 H 0.0177 0.71521 0.6603 0.0
H4480 H 0.03929 0.68952 0.60728 0.0
H4481 H 0.04938 0.6855 0.62312 0.0
H4482 H 0.02821 0.67064 0.61809 0.0
H4483 H 0.0403 0.74146 0.655 0.0
H4484 H 0.05873 0.74024 0.65196 0.0
H4485 H 0.04879 0.74366 0.6356 0.0
H4486 H 0.09813 0.72961 0.62809 0.0
H4487 H 0.0734 0.73822 0.58976 0.0
H4488 H 0.06446 0.70097 0.64734 0.0
H4489 H 0.06709 0.71954 0.65648 0.0
H4490 H 0.08497 0.71786 0.65174 0.0
H4491 H 0.03387 0.7117 0.59971 0.0
H4492 H 0.04571 0.73173 0.59095 0.0
H4493 H 0.03711 0.72984 0.61024 0.0
C4494 C 0.99628 0.62922 0.69567 0.0
C4495 C 0.98157 0.62895 0.69938 0.0
C4496 C 0.00038 0.61814 0.7025 0.0
C4497 C 0.98963 0.60664 0.71353 0.0
C4498 C 0.97483 0.60642 0.71751 0.0
C4499 C 0.9709 0.61752 0.71026 0.0
C4500 C 0.01615 0.61862 0.69775 0.0
C4501 C 0.96323 0.59451 0.72941 0.0
C4502 C 0.99504 0.56927 0.71828 0.0
C4503 C 0.0062 0.57428 0.73104 0.0
C4504 C 0.98888 0.57933 0.71292 0.0
C4505 C 0.99392 0.59475 0.72059 0.0
C4506 C 0.00457 0.59954 0.73395 0.0
C4507 C 0.0108 0.58937 0.73887 0.0
C4508 C 0.97779 0.5739 0.69847 0.0
C4509 C 0.01004 0.61578 0.74256 0.0
H4510 H 0.00455 0.63799 0.68721 0.0
H4511 H 0.95955 0.61734 0.71321 0.0
H4512 H 0.02432 0.62126 0.70821 0.0
H4513 H 0.01332 0.60636 0.69285 0.0
H4514 H 0.02304 0.62818 0.68884 0.0
H4515 H 0.95243 0.59618 0.73149 0.0
H4516 H 0.95869 0.58156 0.72534 0.0
H4517 H 0.9699 0.59627 0.74076 0.0
H4518 H 0.99167 0.55774 0.71208 0.0
H4519 H 0.01961 0.59346 0.74859 0.0
H4520 H 0.98444 0.58221 0.68862 0.0
H4521 H 0.96663 0.57488 0.70066 0.0
H4522 H 0.97385 0.56096 0.69474 0.0
H4523 H 0.01861 0.62618 0.73511 0.0
H4524 H 0.01647 0.61664 0.75388 0.0
H4525 H 0.99929 0.61741 0.74496 0.0
C4526 C 0.34597 0.35461 0.7133 0.0
C4527 C 0.35544 0.34872 0.70591 0.0
C4528 C 0.3535 0.36985 0.72149 0.0
C4529 C 0.37094 0.37942 0.72232 0.0
C4530 C 0.38059 0.37339 0.71517 0.0
C4531 C 0.37271 0.35807 0.70703 0.0
C4532 C 0.34279 0.37585 0.72898 0.0
C4533 C 0.39922 0.38326 0.71589 0.0
C4534 C 0.38951 0.42562 0.73006 0.0
C4535 C 0.39318 0.42693 0.74621 0.0
C4536 C 0.38252 0.41025 0.72208 0.0
C4537 C 0.37901 0.39587 0.73048 0.0
C4538 C 0.38264 0.39711 0.74679 0.0
C4539 C 0.38961 0.41261 0.75447 0.0
C4540 C 0.3787 0.40938 0.70468 0.0
C4541 C 0.37899 0.38203 0.75616 0.0
H4542 H 0.33261 0.34742 0.71247 0.0
H4543 H 0.38008 0.35358 0.7013 0.0
H4544 H 0.34584 0.37843 0.74172 0.0
H4545 H 0.34524 0.38763 0.72361 0.0
H4546 H 0.32941 0.3667 0.72761 0.0
H4547 H 0.40492 0.37659 0.71016 0.0
H4548 H 0.40364 0.39527 0.70999 0.0
H4549 H 0.4036 0.3861 0.72831 0.0
H4550 H 0.39207 0.43663 0.7237 0.0
H4551 H 0.39222 0.41356 0.76701 0.0
H4552 H 0.36523 0.4013 0.70251 0.0
H4553 H 0.385 0.40377 0.69819 0.0
H4554 H 0.38261 0.42178 0.69979 0.0
H4555 H 0.36553 0.37306 0.75579 0.0
H4556 H 0.38307 0.3852 0.76866 0.0
H4557 H 0.38524 0.37571 0.75089 0.0
C4558 C 0.65254 0.0264 0.7101 0.0
C4559 C 0.6554 0.03075 0.69426 0.0
C4560 C 0.63858 0.02491 0.71765 0.0
C4561 C 0.62709 0.0275 0.70902 0.0
C4562 C 0.63007 0.03215 0.69308 0.0
C4563 C 0.6443 0.03388 0.68593 0.0
C4564 C 0.63596 0.02024 0.73475 0.0
C4565 C 0.61797 0.03478 0.68344 0.0
C4566 C 0.5827 0.00662 0.72255 0.0
C4567 C 0.58191 0.01997 0.72941 0.0
C4568 C 0.59738 0.00888 0.71596 0.0
C4569 C 0.61165 0.02482 0.71649 0.0
C4570 C 0.61105 0.03825 0.72377 0.0
C4571 C 0.59615 0.03568 0.73006 0.0
C4572 C 0.59751 0.99428 0.70816 0.0
C4573 C 0.62609 0.05536 0.72475 0.0
H4574 H 0.66115 0.02402 0.71658 0.0
H4575 H 0.64643 0.03713 0.67364 0.0
H4576 H 0.63392 0.02928 0.74159 0.0
H4577 H 0.62474 0.00791 0.73591 0.0
H4578 H 0.64662 0.01979 0.74006 0.0
H4579 H 0.62231 0.03873 0.67129 0.0
H4580 H 0.60589 0.0231 0.68273 0.0
H4581 H 0.61586 0.0443 0.68918 0.0
H4582 H 0.57174 0.99444 0.72215 0.0
H4583 H 0.59559 0.04601 0.73541 0.0
H4584 H 0.60707 0.99224 0.71378 0.0
H4585 H 0.60074 0.99691 0.6956 0.0
H4586 H 0.58539 0.98269 0.70886 0.0
H4587 H 0.63653 0.05483 0.73045 0.0
H4588 H 0.62377 0.06428 0.73148 0.0
H4589 H 0.63002 0.06015 0.71274 0.0
loop_
_geom_bond_atom_site_label_1
_geom_bond_atom_site_label_2
_geom_bond_distance
_geom_bond_site_symmetry_2
_ccdc_geom_bond_type
In0 O1 2.294 1_455 S
In0 O2 2.326 . S
In0 O6 2.256 1_454 S
In0 O7 2.326 1_454 S
In0 O8 2.266 1_554 S
In0 O9 2.326 1_454 S
In0 O11 2.294 . S
In0 O12 2.326 . S
O1 In0 2.294 1_655 S
O1 C10 1.238 . S
O2 In0 2.326 . S
O2 C10 1.256 1_455 S
C3 O6 1.288 . S
C3 O7 1.260 . S
C4 O11 1.240 . S
C4 O12 1.252 . S
C5 O8 1.252 . S
C5 O9 1.260 1_455 S
O6 In0 2.256 1_656 S
O6 C3 1.288 . S
O7 In0 2.326 1_656 S
O7 C3 1.260 . S
O8 In0 2.266 1_556 S
O8 C5 1.252 . S
O9 In0 2.326 1_656 S
O9 C5 1.260 1_655 S
C10 O1 1.238 . S
C10 O2 1.256 1_655 S
O11 In0 2.294 . S
O11 C4 1.240 . S
O12 In0 2.326 . S
O12 C4 1.252 . S
In13 O14 2.294 . S
In13 O15 2.326 . S
In13 O19 2.266 . S
In13 O20 2.326 1_554 S
In13 O21 2.266 1_554 S
In13 O22 2.326 1_554 S
In13 O24 2.294 . S
In13 O25 2.326 . S
O14 In13 2.294 . S
O14 C23 1.240 . S
O15 In13 2.326 . S
O15 C23 1.252 . S
C16 O19 1.252 1_556 S
C16 O20 1.260 . S
C17 O24 1.240 . S
C17 O25 1.252 . S
C18 O21 1.252 . S
C18 O22 1.260 . S
O19 In13 2.266 . S
O19 C16 1.252 1_554 S
O20 In13 2.326 1_556 S
O20 C16 1.260 . S
O21 In13 2.266 1_556 S
O21 C18 1.252 . S
O22 In13 2.326 1_556 S
O22 C18 1.260 . S
C23 O14 1.240 . S
C23 O15 1.252 . S
O24 In13 2.294 . S
O24 C17 1.240 . S
O25 In13 2.326 . S
O25 C17 1.252 . S
In26 O27 2.293 . S
In26 O28 2.326 1_554 S
In26 O32 2.266 . S
In26 O33 2.326 1_545 S
In26 O34 2.266 1_545 S
In26 O35 2.326 1_545 S
In26 O37 2.294 1_544 S
In26 O38 2.326 1_554 S
O27 In26 2.293 . S
O27 C36 1.244 1_554 S
O28 In26 2.326 1_556 S
O28 C36 1.252 . S
C29 O32 1.252 . S
C29 O33 1.260 1_545 S
C30 O37 1.262 . S
C30 O38 1.210 1_565 S
C31 O34 1.252 . S
C31 O35 1.260 . S
O32 In26 2.266 . S
O32 C29 1.252 . S
O33 In26 2.326 1_565 S
O33 C29 1.260 1_565 S
O34 In26 2.266 1_565 S
O34 C31 1.252 . S
O35 In26 2.326 1_565 S
O35 C31 1.260 . S
C36 O27 1.244 1_556 S
C36 O28 1.252 . S
O37 In26 2.294 1_566 S
O37 C30 1.262 . S
O38 In26 2.326 1_556 S
O38 C30 1.210 1_545 S
In39 O40 2.293 1_554 S
In39 O41 2.326 1_454 S
In39 O45 2.265 . S
In39 O46 2.326 . S
In39 O47 2.267 1_455 S
In39 O48 2.324 . S
In39 O50 2.296 1_455 S
In39 O51 2.327 1_454 S
O40 In39 2.293 1_556 S
O40 C49 1.240 . S
O41 In39 2.326 1_656 S
O41 C49 1.252 1_655 S
C42 O45 1.252 . S
C42 O46 1.260 . S
C43 O50 1.240 1_556 S
C43 O51 1.252 . S
C44 O47 1.252 . S
C44 O48 1.260 1_655 S
O45 In39 2.265 . S
O45 C42 1.252 . S
O46 In39 2.326 . S
O46 C42 1.260 . S
O47 In39 2.267 1_655 S
O47 C44 1.252 . S
O48 In39 2.324 . S
O48 C44 1.260 1_455 S
C49 O40 1.240 . S
C49 O41 1.252 1_455 S
O50 In39 2.296 1_655 S
O50 C43 1.240 1_554 S
O51 In39 2.327 1_656 S
O51 C43 1.252 . S
In52 O53 2.294 1_554 S
In52 O54 2.326 1_554 S
In52 O58 2.266 . S
In52 O59 2.326 . S
In52 O60 2.266 . S
In52 O61 2.326 . S
In52 O63 2.294 1_554 S
In52 O64 2.326 1_554 S
O53 In52 2.294 1_556 S
O53 C62 1.240 . S
O54 In52 2.326 1_556 S
O54 C62 1.252 . S
C55 O58 1.252 . S
C55 O59 1.260 . S
C56 O63 1.240 . S
C56 O64 1.252 . S
C57 O60 1.252 . S
C57 O61 1.260 . S
O58 In52 2.266 . S
O58 C55 1.252 . S
O59 In52 2.326 . S
O59 C55 1.260 . S
O60 In52 2.266 . S
O60 C57 1.252 . S
O61 In52 2.326 . S
O61 C57 1.260 . S
C62 O53 1.240 . S
C62 O54 1.252 . S
O63 In52 2.294 1_556 S
O63 C56 1.240 . S
O64 In52 2.326 1_556 S
O64 C56 1.252 . S
In65 O66 2.293 . S
In65 O67 2.326 1_545 S
In65 O71 2.265 . S
In65 O72 2.326 1_554 S
In65 O73 2.267 1_544 S
In65 O74 2.324 1_554 S
In65 O76 2.296 1_545 S
In65 O77 2.327 1_545 S
O66 In65 2.293 . S
O66 C75 1.240 . S
O67 In65 2.326 1_565 S
O67 C75 1.252 1_565 S
C68 O71 1.252 1_556 S
C68 O72 1.260 . S
C69 O76 1.240 . S
C69 O77 1.252 . S
C70 O73 1.252 . S
C70 O74 1.260 1_565 S
O71 In65 2.265 . S
O71 C68 1.252 1_554 S
O72 In65 2.326 1_556 S
O72 C68 1.260 . S
O73 In65 2.267 1_566 S
O73 C70 1.252 . S
O74 In65 2.324 1_556 S
O74 C70 1.260 1_545 S
C75 O66 1.240 . S
C75 O67 1.252 1_545 S
O76 In65 2.296 1_565 S
O76 C69 1.240 . S
O77 In65 2.327 1_565 S
O77 C69 1.252 . S
In78 O79 2.294 . S
In78 O80 2.326 . S
In78 O84 2.266 . S
In78 O85 2.326 . S
In78 O86 2.266 . S
In78 O87 2.326 . S
In78 O89 2.294 . S
In78 O90 2.326 . S
O79 In78 2.294 . S
O79 C88 1.240 . S
O80 In78 2.326 . S
O80 C88 1.252 . S
C81 O84 1.252 . S
C81 O85 1.260 . S
C82 O89 1.240 . S
C82 O90 1.252 . S
C83 O86 1.252 . S
C83 O87 1.260 . S
O84 In78 2.266 . S
O84 C81 1.252 . S
O85 In78 2.326 . S
O85 C81 1.260 . S
O86 In78 2.266 . S
O86 C83 1.252 . S
O87 In78 2.326 . S
O87 C83 1.260 . S
C88 O79 1.240 . S
C88 O80 1.252 . S
O89 In78 2.294 . S
O89 C82 1.240 . S
O90 In78 2.326 . S
O90 C82 1.252 . S
In91 O92 2.294 . S
In91 O93 2.326 . S
In91 O97 2.266 . S
In91 O98 2.326 . S
In91 O99 2.266 . S
In91 O100 2.326 . S
In91 O102 2.294 1_565 S
In91 O103 2.326 . S
O92 In91 2.294 . S
O92 C101 1.240 . S
O93 In91 2.326 . S
O93 C101 1.252 . S
C94 O97 1.252 . S
C94 O98 1.260 . S
C95 O102 1.240 . S
C95 O103 1.252 1_545 S
C96 O99 1.252 . S
C96 O100 1.260 . S
O97 In91 2.266 . S
O97 C94 1.252 . S
O98 In91 2.326 . S
O98 C94 1.260 . S
O99 In91 2.266 . S
O99 C96 1.252 . S
O100 In91 2.326 . S
O100 C96 1.260 . S
C101 O92 1.240 . S
C101 O93 1.252 . S
O102 In91 2.294 1_545 S
O102 C95 1.240 . S
O103 In91 2.326 . S
O103 C95 1.252 1_565 S
In104 O105 2.294 . S
In104 O106 2.326 . S
In104 O110 2.266 . S
In104 O111 2.326 . S
In104 O112 2.275 . S
In104 O113 2.326 . S
In104 O115 2.294 . S
In104 O116 2.326 . S
O105 In104 2.294 . S
O105 C114 1.240 . S
O106 In104 2.326 . S
O106 C114 1.252 . S
C107 O110 1.252 . S
C107 O111 1.260 . S
C108 O115 1.240 . S
C108 O116 1.252 . S
C109 O112 1.240 1_655 S
C109 O113 1.260 1_655 S
O110 In104 2.266 . S
O110 C107 1.252 . S
O111 In104 2.326 . S
O111 C107 1.260 . S
O112 In104 2.275 . S
O112 C109 1.240 1_455 S
O113 In104 2.326 . S
O113 C109 1.260 1_455 S
C114 O105 1.240 . S
C114 O106 1.252 . S
O115 In104 2.294 . S
O115 C108 1.240 . S
O116 In104 2.326 . S
O116 C108 1.252 . S
In117 O118 2.294 . S
In117 O119 2.326 . S
In117 O123 2.266 1_565 S
In117 O124 2.352 . S
In117 O125 2.266 . S
In117 O126 2.326 . S
In117 O128 2.294 . S
In117 O129 2.326 . S
O118 In117 2.294 . S
O118 C127 1.240 . S
O119 In117 2.326 . S
O119 C127 1.252 . S
C120 O123 1.252 . S
C120 O124 1.259 1_545 S
C121 O128 1.240 . S
C121 O129 1.252 . S
C122 O125 1.252 . S
C122 O126 1.260 . S
O123 In117 2.266 1_545 S
O123 C120 1.252 . S
O124 In117 2.352 . S
O124 C120 1.259 1_565 S
O125 In117 2.266 . S
O125 C122 1.252 . S
O126 In117 2.326 . S
O126 C122 1.260 . S
C127 O118 1.240 . S
C127 O119 1.252 . S
O128 In117 2.294 . S
O128 C121 1.240 . S
O129 In117 2.326 . S
O129 C121 1.252 . S
In130 O131 2.294 . S
In130 O132 2.326 . S
In130 O136 2.266 1_455 S
In130 O137 2.326 . S
In130 O138 2.266 . S
In130 O139 2.326 . S
In130 O141 2.294 . S
In130 O142 2.326 . S
O131 In130 2.294 . S
O131 C140 1.240 . S
O132 In130 2.326 . S
O132 C140 1.252 . S
C133 O136 1.252 . S
C133 O137 1.260 1_655 S
C134 O141 1.240 . S
C134 O142 1.252 . S
C135 O138 1.252 . S
C135 O139 1.260 . S
O136 In130 2.266 1_655 S
O136 C133 1.252 . S
O137 In130 2.326 . S
O137 C133 1.260 1_455 S
O138 In130 2.266 . S
O138 C135 1.252 . S
O139 In130 2.326 . S
O139 C135 1.260 . S
C140 O131 1.240 . S
C140 O132 1.252 . S
O141 In130 2.294 . S
O141 C134 1.240 . S
O142 In130 2.326 . S
O142 C134 1.252 . S
In143 O144 2.294 . S
In143 O145 2.326 . S
In143 O149 2.266 . S
In143 O150 2.326 . S
In143 O151 2.266 . S
In143 O152 2.326 . S
In143 O154 2.294 . S
In143 O155 2.326 . S
O144 In143 2.294 . S
O144 C153 1.240 . S
O145 In143 2.326 . S
O145 C153 1.252 . S
C146 O149 1.252 . S
C146 O150 1.260 . S
C147 O154 1.240 . S
C147 O155 1.252 . S
C148 O151 1.252 . S
C148 O152 1.260 . S
O149 In143 2.266 . S
O149 C146 1.252 . S
O150 In143 2.326 . S
O150 C146 1.260 . S
O151 In143 2.266 . S
O151 C148 1.252 . S
O152 In143 2.326 . S
O152 C148 1.260 . S
C153 O144 1.240 . S
C153 O145 1.252 . S
O154 In143 2.294 . S
O154 C147 1.240 . S
O155 In143 2.326 . S
O155 C147 1.252 . S
In156 O157 2.294 . S
In156 O158 2.326 . S
In156 O162 2.266 . S
In156 O163 2.326 . S
In156 O164 2.266 1_545 S
In156 O165 2.326 . S
In156 O167 2.294 . S
In156 O168 2.326 . S
O157 In156 2.294 . S
O157 C166 1.240 . S
O158 In156 2.326 . S
O158 C166 1.252 . S
C159 O162 1.252 . S
C159 O163 1.260 . S
C160 O167 1.240 . S
C160 O168 1.252 . S
C161 O164 1.252 . S
C161 O165 1.260 1_565 S
O162 In156 2.266 . S
O162 C159 1.252 . S
O163 In156 2.326 . S
O163 C159 1.260 . S
O164 In156 2.266 1_565 S
O164 C161 1.252 . S
O165 In156 2.326 . S
O165 C161 1.260 1_545 S
C166 O157 1.240 . S
C166 O158 1.252 . S
O167 In156 2.294 . S
O167 C160 1.240 . S
O168 In156 2.326 . S
O168 C160 1.252 . S
In169 O170 2.294 . S
In169 O171 2.326 . S
In169 O175 2.266 . S
In169 O176 2.326 . S
In169 O177 2.266 1_655 S
In169 O178 2.326 . S
In169 O180 2.294 . S
In169 O181 2.326 . S
O170 In169 2.294 . S
O170 C179 1.240 . S
O171 In169 2.326 . S
O171 C179 1.252 . S
C172 O175 1.252 . S
C172 O176 1.260 . S
C173 O180 1.240 . S
C173 O181 1.252 . S
C174 O177 1.252 . S
C174 O178 1.260 1_455 S
O175 In169 2.266 . S
O175 C172 1.252 . S
O176 In169 2.326 . S
O176 C172 1.260 . S
O177 In169 2.266 1_455 S
O177 C174 1.252 . S
O178 In169 2.326 . S
O178 C174 1.260 1_655 S
C179 O170 1.240 . S
C179 O171 1.252 . S
O180 In169 2.294 . S
O180 C173 1.240 . S
O181 In169 2.326 . S
O181 C173 1.252 . S
In182 O183 2.294 . S
In182 O184 2.326 . S
In182 O188 2.266 . S
In182 O189 2.326 . S
In182 O190 2.266 . S
In182 O191 2.326 . S
In182 O193 2.294 . S
In182 O194 2.326 . S
O183 In182 2.294 . S
O183 C192 1.240 . S
O184 In182 2.326 . S
O184 C192 1.252 . S
C185 O188 1.252 . S
C185 O189 1.260 . S
C186 O193 1.240 . S
C186 O194 1.252 . S
C187 O190 1.252 . S
C187 O191 1.260 . S
O188 In182 2.266 . S
O188 C185 1.252 . S
O189 In182 2.326 . S
O189 C185 1.260 . S
O190 In182 2.266 . S
O190 C187 1.252 . S
O191 In182 2.326 . S
O191 C187 1.260 . S
C192 O183 1.240 . S
C192 O184 1.252 . S
O193 In182 2.294 . S
O193 C186 1.240 . S
O194 In182 2.326 . S
O194 C186 1.252 . S
In195 O196 2.294 . S
In195 O197 2.326 . S
In195 O201 2.266 . S
In195 O202 2.326 . S
In195 O203 2.266 . S
In195 O204 2.326 . S
In195 O206 2.294 . S
In195 O207 2.326 . S
O196 In195 2.294 . S
O196 C205 1.240 . S
O197 In195 2.326 . S
O197 C205 1.252 . S
C198 O201 1.252 . S
C198 O202 1.260 . S
C199 O206 1.240 . S
C199 O207 1.252 . S
C200 O203 1.252 . S
C200 O204 1.260 . S
O201 In195 2.266 . S
O201 C198 1.252 . S
O202 In195 2.326 . S
O202 C198 1.260 . S
O203 In195 2.266 . S
O203 C200 1.252 . S
O204 In195 2.326 . S
O204 C200 1.260 . S
C205 O196 1.240 . S
C205 O197 1.252 . S
O206 In195 2.294 . S
O206 C199 1.240 . S
O207 In195 2.326 . S
O207 C199 1.252 . S
In208 O209 2.294 . S
In208 O210 2.326 . S
In208 O214 2.266 . S
In208 O215 2.326 . S
In208 O216 2.266 . S
In208 O217 2.326 . S
In208 O219 2.294 1_545 S
In208 O220 2.326 . S
O209 In208 2.294 . S
O209 C218 1.240 . S
O210 In208 2.326 . S
O210 C218 1.252 . S
C211 O214 1.252 . S
C211 O215 1.260 . S
C212 O219 1.240 . S
C212 O220 1.252 1_565 S
C213 O216 1.252 . S
C213 O217 1.260 . S
O214 In208 2.266 . S
O214 C211 1.252 . S
O215 In208 2.326 . S
O215 C211 1.260 . S
O216 In208 2.266 . S
O216 C213 1.252 . S
O217 In208 2.326 . S
O217 C213 1.260 . S
C218 O209 1.240 . S
C218 O210 1.252 . S
O219 In208 2.294 1_565 S
O219 C212 1.240 . S
O220 In208 2.326 . S
O220 C212 1.252 1_545 S
In221 O222 2.294 . S
In221 O223 2.326 . S
In221 O227 2.266 . S
In221 O228 2.326 . S
In221 O229 2.266 1_655 S
In221 O230 2.326 . S
In221 O232 2.294 . S
In221 O233 2.326 . S
O222 In221 2.294 . S
O222 C231 1.240 . S
O223 In221 2.326 . S
O223 C231 1.252 . S
C224 O227 1.252 . S
C224 O228 1.260 . S
C225 O232 1.240 . S
C225 O233 1.252 . S
C226 O229 1.252 . S
C226 O230 1.260 1_455 S
O227 In221 2.266 . S
O227 C224 1.252 . S
O228 In221 2.326 . S
O228 C224 1.260 . S
O229 In221 2.266 1_455 S
O229 C226 1.252 . S
O230 In221 2.326 . S
O230 C226 1.260 1_655 S
C231 O222 1.240 . S
C231 O223 1.252 . S
O232 In221 2.294 . S
O232 C225 1.240 . S
O233 In221 2.326 . S
O233 C225 1.252 . S
C234 C235 1.560 . S
C234 H295 0.959 . S
C234 H296 0.959 . S
C234 H297 0.960 . S
C235 C234 1.560 . S
C235 O290 1.426 . S
C235 H294 0.980 . S
C236 C237 1.407 . S
C236 C241 1.418 . S
C236 O290 1.334 . S
C237 C236 1.407 . S
C237 C238 1.360 . S
C237 H298 0.929 . S
C238 C237 1.360 . S
C238 C239 1.401 . S
C238 C242 1.527 . S
C239 C238 1.401 . S
C239 C240 1.405 . S
C239 C272 1.587 . S
C240 C239 1.405 . S
C240 C241 1.332 . S
C240 C243 1.496 . S
C241 C236 1.418 . S
C241 C240 1.332 . S
C241 H299 0.929 . S
C242 C238 1.527 . S
C242 H300 0.959 . S
C242 H301 0.961 . S
C242 H302 0.961 . S
C243 C240 1.496 . S
C243 H303 0.960 . S
C243 H304 0.960 . S
C243 H305 0.961 . S
C244 C245 1.517 . S
C244 H307 0.961 . S
C244 H308 0.960 . S
C244 H309 0.959 . S
C245 C244 1.517 . S
C245 O293 1.468 . S
C245 H306 0.980 . S
C246 C247 1.349 . S
C246 C251 1.367 . S
C246 O293 1.408 . S
C247 C246 1.349 . S
C247 C248 1.407 . S
C247 H310 0.930 . S
C248 C247 1.407 . S
C248 C249 1.449 . S
C248 C252 1.535 . S
C249 C248 1.449 . S
C249 C250 1.384 . S
C249 C274 1.553 . S
C250 C249 1.384 . S
C250 C251 1.364 . S
C250 C253 1.450 . S
C251 C246 1.367 . S
C251 C250 1.364 . S
C251 H311 0.931 . S
C252 C248 1.535 . S
C252 H312 0.959 . S
C252 H313 0.961 . S
C252 H314 0.959 . S
C253 C250 1.450 . S
C253 H315 0.960 . S
C253 H316 0.960 . S
C253 H317 0.960 . S
C254 C255 1.309 . S
C254 C259 1.304 . S
C254 O292 1.435 . S
C255 C254 1.309 . S
C255 C256 1.476 . S
C255 H319 0.930 . S
C256 C255 1.476 . S
C256 C257 1.400 . S
C256 C260 1.567 . S
C257 C256 1.400 . S
C257 C258 1.373 . S
C257 C279 1.432 . S
C258 C257 1.373 . S
C258 C259 1.339 . S
C258 C261 1.530 . S
C259 C254 1.304 . S
C259 C258 1.339 . S
C259 H320 0.930 . S
C260 C256 1.567 . S
C260 H321 0.961 . S
C260 H322 0.960 . S
C260 H323 0.958 . S
C261 C258 1.530 . S
C261 H324 0.961 . S
C261 H325 0.960 . S
C261 H326 0.960 . S
C262 C263 1.530 . S
C262 H328 0.961 . S
C262 H329 0.961 . S
C262 H330 0.959 . S
C263 C262 1.530 . S
C263 O291 1.412 . S
C263 H327 0.980 . S
C264 C265 1.288 . S
C264 C269 1.377 . S
C264 O291 1.393 . S
C265 C264 1.288 . S
C265 C266 1.369 . S
C265 H331 0.932 . S
C266 C265 1.369 . S
C266 C267 1.398 . S
C266 C270 1.527 . S
C267 C266 1.398 . S
C267 C268 1.380 . S
C267 C281 1.497 . S
C268 C267 1.380 . S
C268 C269 1.383 . S
C268 C271 1.603 . S
C269 C264 1.377 . S
C269 C268 1.383 . S
C269 H332 0.929 . S
C270 C266 1.527 . S
C270 H333 0.961 . S
C270 H334 0.959 . S
C270 H335 0.959 . S
C271 C268 1.603 . S
C271 H336 0.960 . S
C271 H337 0.962 . S
C271 H338 0.961 . S
C272 C239 1.587 . S
C272 C273 1.360 . S
C272 C285 1.412 . S
C273 C272 1.360 . S
C273 C274 1.365 . S
C273 H339 0.929 . S
C274 C249 1.553 . S
C274 C273 1.365 . S
C274 C275 1.404 . S
C275 C274 1.404 . S
C275 C276 1.395 . S
C275 C286 1.451 . S
C276 C275 1.395 . S
C276 C277 1.322 . S
C276 H340 0.930 . S
C277 C276 1.322 . S
C277 C278 1.459 . S
C277 H341 0.929 . S
C278 C277 1.459 . S
C278 C279 1.445 . S
C278 C287 1.395 . S
C279 C257 1.432 . S
C279 C278 1.445 . S
C279 C280 1.370 . S
C280 C279 1.370 . S
C280 C281 1.438 . S
C280 H342 0.930 . S
C281 C267 1.497 . S
C281 C280 1.438 . S
C281 C282 1.360 . S
C282 C281 1.360 . S
C282 C283 1.401 . S
C282 C287 1.446 . S
C283 C282 1.401 . S
C283 C284 1.347 . S
C283 H343 0.929 . S
C284 C283 1.347 . S
C284 C285 1.455 . S
C284 H344 0.930 . S
C285 C272 1.412 . S
C285 C284 1.455 . S
C285 C286 1.331 . S
C286 C275 1.451 . S
C286 C285 1.331 . S
C286 C287 1.497 . S
C287 C278 1.395 . S
C287 C282 1.446 . S
C287 C286 1.497 . S
C288 C289 1.582 . S
C288 H345 0.962 . S
C288 H346 0.959 . S
C288 H347 0.958 . S
C289 C288 1.582 . S
C289 O292 1.458 . S
C289 H318 0.980 . S
O290 C235 1.426 . S
O290 C236 1.334 . S
O291 C263 1.412 . S
O291 C264 1.393 . S
O292 C254 1.435 . S
O292 C289 1.458 . S
O293 C245 1.468 . S
O293 C246 1.408 . S
H294 C235 0.980 . S
H295 C234 0.959 . S
H296 C234 0.959 . S
H297 C234 0.960 . S
H298 C237 0.929 . S
H299 C241 0.929 . S
H300 C242 0.959 . S
H301 C242 0.961 . S
H302 C242 0.961 . S
H303 C243 0.960 . S
H304 C243 0.960 . S
H305 C243 0.961 . S
H306 C245 0.980 . S
H307 C244 0.961 . S
H308 C244 0.960 . S
H309 C244 0.959 . S
H310 C247 0.930 . S
H311 C251 0.931 . S
H312 C252 0.959 . S
H313 C252 0.961 . S
H314 C252 0.959 . S
H315 C253 0.960 . S
H316 C253 0.960 . S
H317 C253 0.960 . S
H318 C289 0.980 . S
H319 C255 0.930 . S
H320 C259 0.930 . S
H321 C260 0.961 . S
H322 C260 0.960 . S
H323 C260 0.958 . S
H324 C261 0.961 . S
H325 C261 0.960 . S
H326 C261 0.960 . S
H327 C263 0.980 . S
H328 C262 0.961 . S
H329 C262 0.961 . S
H330 C262 0.959 . S
H331 C265 0.932 . S
H332 C269 0.929 . S
H333 C270 0.961 . S
H334 C270 0.959 . S
H335 C270 0.959 . S
H336 C271 0.960 . S
H337 C271 0.962 . S
H338 C271 0.961 . S
H339 C273 0.929 . S
H340 C276 0.930 . S
H341 C277 0.929 . S
H342 C280 0.930 . S
H343 C283 0.929 . S
H344 C284 0.930 . S
H345 C288 0.962 . S
H346 C288 0.959 . S
H347 C288 0.958 . S
C348 C349 1.560 . S
C348 H409 0.959 . S
C348 H410 0.959 . S
C348 H411 0.960 . S
C349 C348 1.560 . S
C349 O404 1.426 . S
C349 H408 0.980 . S
C350 C351 1.407 . S
C350 C355 1.418 . S
C350 O404 1.334 . S
C351 C350 1.407 . S
C351 C352 1.360 . S
C351 H412 0.929 . S
C352 C351 1.360 . S
C352 C353 1.401 . S
C352 C356 1.527 . S
C353 C352 1.401 . S
C353 C354 1.405 . S
C353 C386 1.587 . S
C354 C353 1.405 . S
C354 C355 1.332 . S
C354 C357 1.496 . S
C355 C350 1.418 . S
C355 C354 1.332 . S
C355 H413 0.929 . S
C356 C352 1.527 . S
C356 H414 0.959 . S
C356 H415 0.961 . S
C356 H416 0.961 . S
C357 C354 1.496 . S
C357 H417 0.960 . S
C357 H418 0.960 . S
C357 H419 0.961 . S
C358 C359 1.517 . S
C358 H421 0.961 . S
C358 H422 0.960 . S
C358 H423 0.959 . S
C359 C358 1.517 . S
C359 O407 1.468 . S
C359 H420 0.980 . S
C360 C361 1.349 . S
C360 C365 1.367 . S
C360 O407 1.408 . S
C361 C360 1.349 . S
C361 C362 1.407 . S
C361 H424 0.930 . S
C362 C361 1.407 . S
C362 C363 1.449 . S
C362 C366 1.535 . S
C363 C362 1.449 . S
C363 C364 1.384 . S
C363 C388 1.553 . S
C364 C363 1.384 . S
C364 C365 1.364 . S
C364 C367 1.450 . S
C365 C360 1.367 . S
C365 C364 1.364 . S
C365 H425 0.931 . S
C366 C362 1.535 . S
C366 H426 0.959 . S
C366 H427 0.961 . S
C366 H428 0.959 . S
C367 C364 1.450 . S
C367 H429 0.960 . S
C367 H430 0.960 . S
C367 H431 0.960 . S
C368 C369 1.309 . S
C368 C373 1.304 . S
C368 O406 1.435 . S
C369 C368 1.309 . S
C369 C370 1.476 . S
C369 H433 0.930 . S
C370 C369 1.476 . S
C370 C371 1.400 . S
C370 C374 1.567 . S
C371 C370 1.400 . S
C371 C372 1.373 . S
C371 C393 1.432 . S
C372 C371 1.373 . S
C372 C373 1.339 . S
C372 C375 1.530 . S
C373 C368 1.304 . S
C373 C372 1.339 . S
C373 H434 0.930 . S
C374 C370 1.567 . S
C374 H435 0.961 . S
C374 H436 0.960 . S
C374 H437 0.958 . S
C375 C372 1.530 . S
C375 H438 0.961 . S
C375 H439 0.960 . S
C375 H440 0.960 . S
C376 C377 1.530 . S
C376 H442 0.961 . S
C376 H443 0.961 . S
C376 H444 0.959 . S
C377 C376 1.530 . S
C377 O405 1.412 . S
C377 H441 0.980 . S
C378 C379 1.288 . S
C378 C383 1.377 . S
C378 O405 1.393 . S
C379 C378 1.288 . S
C379 C380 1.369 . S
C379 H445 0.932 . S
C380 C379 1.369 . S
C380 C381 1.398 . S
C380 C384 1.527 . S
C381 C380 1.398 . S
C381 C382 1.380 . S
C381 C395 1.497 . S
C382 C381 1.380 . S
C382 C383 1.383 . S
C382 C385 1.603 . S
C383 C378 1.377 . S
C383 C382 1.383 . S
C383 H446 0.929 . S
C384 C380 1.527 . S
C384 H447 0.961 . S
C384 H448 0.959 . S
C384 H449 0.959 . S
C385 C382 1.603 . S
C385 H450 0.960 . S
C385 H451 0.962 . S
C385 H452 0.961 . S
C386 C353 1.587 . S
C386 C387 1.360 . S
C386 C399 1.412 . S
C387 C386 1.360 . S
C387 C388 1.365 . S
C387 H453 0.929 . S
C388 C363 1.553 . S
C388 C387 1.365 . S
C388 C389 1.404 . S
C389 C388 1.404 . S
C389 C390 1.395 . S
C389 C400 1.451 . S
C390 C389 1.395 . S
C390 C391 1.322 . S
C390 H454 0.930 . S
C391 C390 1.322 . S
C391 C392 1.459 . S
C391 H455 0.929 . S
C392 C391 1.459 . S
C392 C393 1.445 . S
C392 C401 1.395 . S
C393 C371 1.432 . S
C393 C392 1.445 . S
C393 C394 1.370 . S
C394 C393 1.370 . S
C394 C395 1.438 . S
C394 H456 0.930 . S
C395 C381 1.497 . S
C395 C394 1.438 . S
C395 C396 1.360 . S
C396 C395 1.360 . S
C396 C397 1.401 . S
C396 C401 1.446 . S
C397 C396 1.401 . S
C397 C398 1.347 . S
C397 H457 0.929 . S
C398 C397 1.347 . S
C398 C399 1.455 . S
C398 H458 0.930 . S
C399 C386 1.412 . S
C399 C398 1.455 . S
C399 C400 1.331 . S
C400 C389 1.451 . S
C400 C399 1.331 . S
C400 C401 1.497 . S
C401 C392 1.395 . S
C401 C396 1.446 . S
C401 C400 1.497 . S
C402 C403 1.582 . S
C402 H459 0.962 . S
C402 H460 0.959 . S
C402 H461 0.958 . S
C403 C402 1.582 . S
C403 O406 1.458 . S
C403 H432 0.980 . S
O404 C349 1.426 . S
O404 C350 1.334 . S
O405 C377 1.412 . S
O405 C378 1.393 . S
O406 C368 1.435 . S
O406 C403 1.458 . S
O407 C359 1.468 . S
O407 C360 1.408 . S
H408 C349 0.980 . S
H409 C348 0.959 . S
H410 C348 0.959 . S
H411 C348 0.960 . S
H412 C351 0.929 . S
H413 C355 0.929 . S
H414 C356 0.959 . S
H415 C356 0.961 . S
H416 C356 0.961 . S
H417 C357 0.960 . S
H418 C357 0.960 . S
H419 C357 0.961 . S
H420 C359 0.980 . S
H421 C358 0.961 . S
H422 C358 0.960 . S
H423 C358 0.959 . S
H424 C361 0.930 . S
H425 C365 0.931 . S
H426 C366 0.959 . S
H427 C366 0.961 . S
H428 C366 0.959 . S
H429 C367 0.960 . S
H430 C367 0.960 . S
H431 C367 0.960 . S
H432 C403 0.980 . S
H433 C369 0.930 . S
H434 C373 0.930 . S
H435 C374 0.961 . S
H436 C374 0.960 . S
H437 C374 0.958 . S
H438 C375 0.961 . S
H439 C375 0.960 . S
H440 C375 0.960 . S
H441 C377 0.980 . S
H442 C376 0.961 . S
H443 C376 0.961 . S
H444 C376 0.959 . S
H445 C379 0.932 . S
H446 C383 0.929 . S
H447 C384 0.961 . S
H448 C384 0.959 . S
H449 C384 0.959 . S
H450 C385 0.960 . S
H451 C385 0.962 . S
H452 C385 0.961 . S
H453 C387 0.929 . S
H454 C390 0.930 . S
H455 C391 0.929 . S
H456 C394 0.930 . S
H457 C397 0.929 . S
H458 C398 0.930 . S
H459 C402 0.962 . S
H460 C402 0.959 . S
H461 C402 0.958 . S
C462 C463 1.560 . S
C462 H523 0.959 . S
C462 H524 0.959 . S
C462 H525 0.960 . S
C463 C462 1.560 . S
C463 O518 1.426 . S
C463 H522 0.980 . S
C464 C465 1.407 . S
C464 C469 1.418 . S
C464 O518 1.334 . S
C465 C464 1.407 . S
C465 C466 1.360 . S
C465 H526 0.929 . S
C466 C465 1.360 . S
C466 C467 1.401 . S
C466 C470 1.527 . S
C467 C466 1.401 . S
C467 C468 1.405 . S
C467 C500 1.587 . S
C468 C467 1.405 . S
C468 C469 1.332 . S
C468 C471 1.496 . S
C469 C464 1.418 . S
C469 C468 1.332 . S
C469 H527 0.929 . S
C470 C466 1.527 . S
C470 H528 0.959 . S
C470 H529 0.961 . S
C470 H530 0.961 . S
C471 C468 1.496 . S
C471 H531 0.960 . S
C471 H532 0.960 . S
C471 H533 0.961 . S
C472 C473 1.517 . S
C472 H535 0.961 . S
C472 H536 0.960 . S
C472 H537 0.959 . S
C473 C472 1.517 . S
C473 O521 1.468 . S
C473 H534 0.980 . S
C474 C475 1.349 . S
C474 C479 1.367 . S
C474 O521 1.408 . S
C475 C474 1.349 . S
C475 C476 1.407 . S
C475 H538 0.930 . S
C476 C475 1.407 . S
C476 C477 1.449 . S
C476 C480 1.535 . S
C477 C476 1.449 . S
C477 C478 1.384 . S
C477 C502 1.553 . S
C478 C477 1.384 . S
C478 C479 1.364 . S
C478 C481 1.450 . S
C479 C474 1.367 . S
C479 C478 1.364 . S
C479 H539 0.931 . S
C480 C476 1.535 . S
C480 H540 0.959 . S
C480 H541 0.961 . S
C480 H542 0.959 . S
C481 C478 1.450 . S
C481 H543 0.960 . S
C481 H544 0.960 . S
C481 H545 0.960 . S
C482 C483 1.309 . S
C482 C487 1.304 . S
C482 O520 1.435 . S
C483 C482 1.309 . S
C483 C484 1.476 . S
C483 H547 0.930 . S
C484 C483 1.476 . S
C484 C485 1.400 . S
C484 C488 1.567 . S
C485 C484 1.400 . S
C485 C486 1.373 . S
C485 C507 1.432 . S
C486 C485 1.373 . S
C486 C487 1.339 . S
C486 C489 1.530 . S
C487 C482 1.304 . S
C487 C486 1.339 . S
C487 H548 0.930 . S
C488 C484 1.567 . S
C488 H549 0.961 . S
C488 H550 0.960 . S
C488 H551 0.958 . S
C489 C486 1.530 . S
C489 H552 0.961 . S
C489 H553 0.960 . S
C489 H554 0.960 . S
C490 C491 1.530 . S
C490 H556 0.961 . S
C490 H557 0.961 . S
C490 H558 0.959 . S
C491 C490 1.530 . S
C491 O519 1.412 . S
C491 H555 0.980 . S
C492 C493 1.288 . S
C492 C497 1.377 . S
C492 O519 1.393 . S
C493 C492 1.288 . S
C493 C494 1.369 . S
C493 H559 0.932 . S
C494 C493 1.369 . S
C494 C495 1.398 . S
C494 C498 1.527 . S
C495 C494 1.398 . S
C495 C496 1.380 . S
C495 C509 1.497 . S
C496 C495 1.380 . S
C496 C497 1.383 . S
C496 C499 1.603 . S
C497 C492 1.377 . S
C497 C496 1.383 . S
C497 H560 0.929 . S
C498 C494 1.527 . S
C498 H561 0.961 . S
C498 H562 0.959 . S
C498 H563 0.959 . S
C499 C496 1.603 . S
C499 H564 0.960 . S
C499 H565 0.962 . S
C499 H566 0.961 . S
C500 C467 1.587 . S
C500 C501 1.360 . S
C500 C513 1.412 . S
C501 C500 1.360 . S
C501 C502 1.365 . S
C501 H567 0.929 . S
C502 C477 1.553 . S
C502 C501 1.365 . S
C502 C503 1.404 . S
C503 C502 1.404 . S
C503 C504 1.395 . S
C503 C514 1.451 . S
C504 C503 1.395 . S
C504 C505 1.322 . S
C504 H568 0.930 . S
C505 C504 1.322 . S
C505 C506 1.459 . S
C505 H569 0.929 . S
C506 C505 1.459 . S
C506 C507 1.445 . S
C506 C515 1.395 . S
C507 C485 1.432 . S
C507 C506 1.445 . S
C507 C508 1.370 . S
C508 C507 1.370 . S
C508 C509 1.438 . S
C508 H570 0.930 . S
C509 C495 1.497 . S
C509 C508 1.438 . S
C509 C510 1.360 . S
C510 C509 1.360 . S
C510 C511 1.401 . S
C510 C515 1.446 . S
C511 C510 1.401 . S
C511 C512 1.347 . S
C511 H571 0.929 . S
C512 C511 1.347 . S
C512 C513 1.455 . S
C512 H572 0.930 . S
C513 C500 1.412 . S
C513 C512 1.455 . S
C513 C514 1.331 . S
C514 C503 1.451 . S
C514 C513 1.331 . S
C514 C515 1.497 . S
C515 C506 1.395 . S
C515 C510 1.446 . S
C515 C514 1.497 . S
C516 C517 1.582 . S
C516 H573 0.962 . S
C516 H574 0.959 . S
C516 H575 0.958 . S
C517 C516 1.582 . S
C517 O520 1.458 . S
C517 H546 0.980 . S
O518 C463 1.426 . S
O518 C464 1.334 . S
O519 C491 1.412 . S
O519 C492 1.393 . S
O520 C482 1.435 . S
O520 C517 1.458 . S
O521 C473 1.468 . S
O521 C474 1.408 . S
H522 C463 0.980 . S
H523 C462 0.959 . S
H524 C462 0.959 . S
H525 C462 0.960 . S
H526 C465 0.929 . S
H527 C469 0.929 . S
H528 C470 0.959 . S
H529 C470 0.961 . S
H530 C470 0.961 . S
H531 C471 0.960 . S
H532 C471 0.960 . S
H533 C471 0.961 . S
H534 C473 0.980 . S
H535 C472 0.961 . S
H536 C472 0.960 . S
H537 C472 0.959 . S
H538 C475 0.930 . S
H539 C479 0.931 . S
H540 C480 0.959 . S
H541 C480 0.961 . S
H542 C480 0.959 . S
H543 C481 0.960 . S
H544 C481 0.960 . S
H545 C481 0.960 . S
H546 C517 0.980 . S
H547 C483 0.930 . S
H548 C487 0.930 . S
H549 C488 0.961 . S
H550 C488 0.960 . S
H551 C488 0.958 . S
H552 C489 0.961 . S
H553 C489 0.960 . S
H554 C489 0.960 . S
H555 C491 0.980 . S
H556 C490 0.961 . S
H557 C490 0.961 . S
H558 C490 0.959 . S
H559 C493 0.932 . S
H560 C497 0.929 . S
H561 C498 0.961 . S
H562 C498 0.959 . S
H563 C498 0.959 . S
H564 C499 0.960 . S
H565 C499 0.962 . S
H566 C499 0.961 . S
H567 C501 0.929 . S
H568 C504 0.930 . S
H569 C505 0.929 . S
H570 C508 0.930 . S
H571 C511 0.929 . S
H572 C512 0.930 . S
H573 C516 0.962 . S
H574 C516 0.959 . S
H575 C516 0.958 . S
C576 C577 1.560 . S
C576 H637 0.959 . S
C576 H638 0.959 . S
C576 H639 0.960 . S
C577 C576 1.560 . S
C577 O632 1.426 . S
C577 H636 0.980 . S
C578 C579 1.407 . S
C578 C583 1.418 . S
C578 O632 1.334 . S
C579 C578 1.407 . S
C579 C580 1.360 . S
C579 H640 0.929 . S
C580 C579 1.360 . S
C580 C581 1.401 . S
C580 C584 1.527 . S
C581 C580 1.401 . S
C581 C582 1.405 . S
C581 C614 1.587 . S
C582 C581 1.405 . S
C582 C583 1.332 . S
C582 C585 1.496 . S
C583 C578 1.418 . S
C583 C582 1.332 . S
C583 H641 0.929 . S
C584 C580 1.527 . S
C584 H642 0.959 . S
C584 H643 0.961 . S
C584 H644 0.961 . S
C585 C582 1.496 . S
C585 H645 0.960 . S
C585 H646 0.960 . S
C585 H647 0.961 . S
C586 C587 1.517 . S
C586 H649 0.961 . S
C586 H650 0.960 . S
C586 H651 0.959 . S
C587 C586 1.517 . S
C587 O635 1.468 . S
C587 H648 0.980 . S
C588 C589 1.349 . S
C588 C593 1.367 . S
C588 O635 1.408 . S
C589 C588 1.349 . S
C589 C590 1.407 . S
C589 H652 0.930 . S
C590 C589 1.407 . S
C590 C591 1.449 . S
C590 C594 1.535 . S
C591 C590 1.449 . S
C591 C592 1.384 . S
C591 C616 1.553 . S
C592 C591 1.384 . S
C592 C593 1.364 . S
C592 C595 1.450 . S
C593 C588 1.367 . S
C593 C592 1.364 . S
C593 H653 0.931 . S
C594 C590 1.535 . S
C594 H654 0.959 . S
C594 H655 0.961 . S
C594 H656 0.959 . S
C595 C592 1.450 . S
C595 H657 0.960 . S
C595 H658 0.960 . S
C595 H659 0.960 . S
C596 C597 1.309 . S
C596 C601 1.304 . S
C596 O634 1.435 . S
C597 C596 1.309 . S
C597 C598 1.476 . S
C597 H661 0.930 . S
C598 C597 1.476 . S
C598 C599 1.400 . S
C598 C602 1.567 . S
C599 C598 1.400 . S
C599 C600 1.373 . S
C599 C621 1.432 . S
C600 C599 1.373 . S
C600 C601 1.339 . S
C600 C603 1.530 . S
C601 C596 1.304 . S
C601 C600 1.339 . S
C601 H662 0.930 . S
C602 C598 1.567 . S
C602 H663 0.961 . S
C602 H664 0.960 . S
C602 H665 0.958 . S
C603 C600 1.530 . S
C603 H666 0.961 . S
C603 H667 0.960 . S
C603 H668 0.960 . S
C604 C605 1.530 . S
C604 H670 0.961 . S
C604 H671 0.961 . S
C604 H672 0.959 . S
C605 C604 1.530 . S
C605 O633 1.412 . S
C605 H669 0.980 . S
C606 C607 1.288 . S
C606 C611 1.377 . S
C606 O633 1.393 . S
C607 C606 1.288 . S
C607 C608 1.369 . S
C607 H673 0.932 . S
C608 C607 1.369 . S
C608 C609 1.398 . S
C608 C612 1.527 . S
C609 C608 1.398 . S
C609 C610 1.380 . S
C609 C623 1.497 . S
C610 C609 1.380 . S
C610 C611 1.383 . S
C610 C613 1.603 . S
C611 C606 1.377 . S
C611 C610 1.383 . S
C611 H674 0.929 . S
C612 C608 1.527 . S
C612 H675 0.961 . S
C612 H676 0.959 . S
C612 H677 0.959 . S
C613 C610 1.603 . S
C613 H678 0.960 . S
C613 H679 0.962 . S
C613 H680 0.961 . S
C614 C581 1.587 . S
C614 C615 1.360 . S
C614 C627 1.412 . S
C615 C614 1.360 . S
C615 C616 1.365 . S
C615 H681 0.929 . S
C616 C591 1.553 . S
C616 C615 1.365 . S
C616 C617 1.404 . S
C617 C616 1.404 . S
C617 C618 1.395 . S
C617 C628 1.451 . S
C618 C617 1.395 . S
C618 C619 1.322 . S
C618 H682 0.930 . S
C619 C618 1.322 . S
C619 C620 1.459 . S
C619 H683 0.929 . S
C620 C619 1.459 . S
C620 C621 1.445 . S
C620 C629 1.395 . S
C621 C599 1.432 . S
C621 C620 1.445 . S
C621 C622 1.370 . S
C622 C621 1.370 . S
C622 C623 1.438 . S
C622 H684 0.930 . S
C623 C609 1.497 . S
C623 C622 1.438 . S
C623 C624 1.360 . S
C624 C623 1.360 . S
C624 C625 1.401 . S
C624 C629 1.446 . S
C625 C624 1.401 . S
C625 C626 1.347 . S
C625 H685 0.929 . S
C626 C625 1.347 . S
C626 C627 1.455 . S
C626 H686 0.930 . S
C627 C614 1.412 . S
C627 C626 1.455 . S
C627 C628 1.331 . S
C628 C617 1.451 . S
C628 C627 1.331 . S
C628 C629 1.497 . S
C629 C620 1.395 . S
C629 C624 1.446 . S
C629 C628 1.497 . S
C630 C631 1.582 . S
C630 H687 0.962 . S
C630 H688 0.959 . S
C630 H689 0.958 . S
C631 C630 1.582 . S
C631 O634 1.458 . S
C631 H660 0.980 . S
O632 C577 1.426 . S
O632 C578 1.334 . S
O633 C605 1.412 . S
O633 C606 1.393 . S
O634 C596 1.435 . S
O634 C631 1.458 . S
O635 C587 1.468 . S
O635 C588 1.408 . S
H636 C577 0.980 . S
H637 C576 0.959 . S
H638 C576 0.959 . S
H639 C576 0.960 . S
H640 C579 0.929 . S
H641 C583 0.929 . S
H642 C584 0.959 . S
H643 C584 0.961 . S
H644 C584 0.961 . S
H645 C585 0.960 . S
H646 C585 0.960 . S
H647 C585 0.961 . S
H648 C587 0.980 . S
H649 C586 0.961 . S
H650 C586 0.960 . S
H651 C586 0.959 . S
H652 C589 0.930 . S
H653 C593 0.931 . S
H654 C594 0.959 . S
H655 C594 0.961 . S
H656 C594 0.959 . S
H657 C595 0.960 . S
H658 C595 0.960 . S
H659 C595 0.960 . S
H660 C631 0.980 . S
H661 C597 0.930 . S
H662 C601 0.930 . S
H663 C602 0.961 . S
H664 C602 0.960 . S
H665 C602 0.958 . S
H666 C603 0.961 . S
H667 C603 0.960 . S
H668 C603 0.960 . S
H669 C605 0.980 . S
H670 C604 0.961 . S
H671 C604 0.961 . S
H672 C604 0.959 . S
H673 C607 0.932 . S
H674 C611 0.929 . S
H675 C612 0.961 . S
H676 C612 0.959 . S
H677 C612 0.959 . S
H678 C613 0.960 . S
H679 C613 0.962 . S
H680 C613 0.961 . S
H681 C615 0.929 . S
H682 C618 0.930 . S
H683 C619 0.929 . S
H684 C622 0.930 . S
H685 C625 0.929 . S
H686 C626 0.930 . S
H687 C630 0.962 . S
H688 C630 0.959 . S
H689 C630 0.958 . S
C690 C691 1.560 . S
C690 H751 0.959 . S
C690 H752 0.959 . S
C690 H753 0.960 . S
C691 C690 1.560 . S
C691 O746 1.426 . S
C691 H750 0.980 . S
C692 C693 1.407 . S
C692 C697 1.418 . S
C692 O746 1.334 . S
C693 C692 1.407 . S
C693 C694 1.360 . S
C693 H754 0.929 . S
C694 C693 1.360 . S
C694 C695 1.401 . S
C694 C698 1.527 . S
C695 C694 1.401 . S
C695 C696 1.405 . S
C695 C728 1.587 . S
C696 C695 1.405 . S
C696 C697 1.332 . S
C696 C699 1.496 . S
C697 C692 1.418 . S
C697 C696 1.332 . S
C697 H755 0.929 . S
C698 C694 1.527 . S
C698 H756 0.959 . S
C698 H757 0.961 . S
C698 H758 0.961 . S
C699 C696 1.496 . S
C699 H759 0.960 . S
C699 H760 0.960 . S
C699 H761 0.961 . S
C700 C701 1.517 . S
C700 H763 0.961 . S
C700 H764 0.960 . S
C700 H765 0.959 . S
C701 C700 1.517 . S
C701 O749 1.468 . S
C701 H762 0.980 . S
C702 C703 1.349 . S
C702 C707 1.367 . S
C702 O749 1.408 . S
C703 C702 1.349 . S
C703 C704 1.407 . S
C703 H766 0.930 . S
C704 C703 1.407 . S
C704 C705 1.449 . S
C704 C708 1.535 . S
C705 C704 1.449 . S
C705 C706 1.384 . S
C705 C730 1.553 . S
C706 C705 1.384 . S
C706 C707 1.364 . S
C706 C709 1.450 . S
C707 C702 1.367 . S
C707 C706 1.364 . S
C707 H767 0.931 . S
C708 C704 1.535 . S
C708 H768 0.959 . S
C708 H769 0.961 . S
C708 H770 0.959 . S
C709 C706 1.450 . S
C709 H771 0.960 . S
C709 H772 0.960 . S
C709 H773 0.960 . S
C710 C711 1.309 . S
C710 C715 1.304 . S
C710 O748 1.435 . S
C711 C710 1.309 . S
C711 C712 1.476 . S
C711 H775 0.930 . S
C712 C711 1.476 . S
C712 C713 1.400 . S
C712 C716 1.567 . S
C713 C712 1.400 . S
C713 C714 1.373 . S
C713 C735 1.432 . S
C714 C713 1.373 . S
C714 C715 1.339 . S
C714 C717 1.530 . S
C715 C710 1.304 . S
C715 C714 1.339 . S
C715 H776 0.930 . S
C716 C712 1.567 . S
C716 H777 0.961 . S
C716 H778 0.960 . S
C716 H779 0.958 . S
C717 C714 1.530 . S
C717 H780 0.961 . S
C717 H781 0.960 . S
C717 H782 0.960 . S
C718 C719 1.530 . S
C718 H784 0.961 . S
C718 H785 0.961 . S
C718 H786 0.959 . S
C719 C718 1.530 . S
C719 O747 1.412 . S
C719 H783 0.980 . S
C720 C721 1.288 . S
C720 C725 1.377 . S
C720 O747 1.393 . S
C721 C720 1.288 . S
C721 C722 1.369 . S
C721 H787 0.932 . S
C722 C721 1.369 . S
C722 C723 1.398 . S
C722 C726 1.527 . S
C723 C722 1.398 . S
C723 C724 1.380 . S
C723 C737 1.497 . S
C724 C723 1.380 . S
C724 C725 1.383 . S
C724 C727 1.603 . S
C725 C720 1.377 . S
C725 C724 1.383 . S
C725 H788 0.929 . S
C726 C722 1.527 . S
C726 H789 0.961 . S
C726 H790 0.959 . S
C726 H791 0.959 . S
C727 C724 1.603 . S
C727 H792 0.960 . S
C727 H793 0.962 . S
C727 H794 0.961 . S
C728 C695 1.587 . S
C728 C729 1.360 . S
C728 C741 1.412 . S
C729 C728 1.360 . S
C729 C730 1.365 . S
C729 H795 0.929 . S
C730 C705 1.553 . S
C730 C729 1.365 . S
C730 C731 1.404 . S
C731 C730 1.404 . S
C731 C732 1.395 . S
C731 C742 1.451 . S
C732 C731 1.395 . S
C732 C733 1.322 . S
C732 H796 0.930 . S
C733 C732 1.322 . S
C733 C734 1.459 . S
C733 H797 0.929 . S
C734 C733 1.459 . S
C734 C735 1.445 . S
C734 C743 1.395 . S
C735 C713 1.432 . S
C735 C734 1.445 . S
C735 C736 1.370 . S
C736 C735 1.370 . S
C736 C737 1.438 . S
C736 H798 0.930 . S
C737 C723 1.497 . S
C737 C736 1.438 . S
C737 C738 1.360 . S
C738 C737 1.360 . S
C738 C739 1.401 . S
C738 C743 1.446 . S
C739 C738 1.401 . S
C739 C740 1.347 . S
C739 H799 0.929 . S
C740 C739 1.347 . S
C740 C741 1.455 . S
C740 H800 0.930 . S
C741 C728 1.412 . S
C741 C740 1.455 . S
C741 C742 1.331 . S
C742 C731 1.451 . S
C742 C741 1.331 . S
C742 C743 1.497 . S
C743 C734 1.395 . S
C743 C738 1.446 . S
C743 C742 1.497 . S
C744 C745 1.582 . S
C744 H801 0.962 . S
C744 H802 0.959 . S
C744 H803 0.958 . S
C745 C744 1.582 . S
C745 O748 1.458 . S
C745 H774 0.980 . S
O746 C691 1.426 . S
O746 C692 1.334 . S
O747 C719 1.412 . S
O747 C720 1.393 . S
O748 C710 1.435 . S
O748 C745 1.458 . S
O749 C701 1.468 . S
O749 C702 1.408 . S
H750 C691 0.980 . S
H751 C690 0.959 . S
H752 C690 0.959 . S
H753 C690 0.960 . S
H754 C693 0.929 . S
H755 C697 0.929 . S
H756 C698 0.959 . S
H757 C698 0.961 . S
H758 C698 0.961 . S
H759 C699 0.960 . S
H760 C699 0.960 . S
H761 C699 0.961 . S
H762 C701 0.980 . S
H763 C700 0.961 . S
H764 C700 0.960 . S
H765 C700 0.959 . S
H766 C703 0.930 . S
H767 C707 0.931 . S
H768 C708 0.959 . S
H769 C708 0.961 . S
H770 C708 0.959 . S
H771 C709 0.960 . S
H772 C709 0.960 . S
H773 C709 0.960 . S
H774 C745 0.980 . S
H775 C711 0.930 . S
H776 C715 0.930 . S
H777 C716 0.961 . S
H778 C716 0.960 . S
H779 C716 0.958 . S
H780 C717 0.961 . S
H781 C717 0.960 . S
H782 C717 0.960 . S
H783 C719 0.980 . S
H784 C718 0.961 . S
H785 C718 0.961 . S
H786 C718 0.959 . S
H787 C721 0.932 . S
H788 C725 0.929 . S
H789 C726 0.961 . S
H790 C726 0.959 . S
H791 C726 0.959 . S
H792 C727 0.960 . S
H793 C727 0.962 . S
H794 C727 0.961 . S
H795 C729 0.929 . S
H796 C732 0.930 . S
H797 C733 0.929 . S
H798 C736 0.930 . S
H799 C739 0.929 . S
H800 C740 0.930 . S
H801 C744 0.962 . S
H802 C744 0.959 . S
H803 C744 0.958 . S
C804 C805 1.560 . S
C804 H865 0.959 . S
C804 H866 0.959 . S
C804 H867 0.960 . S
C805 C804 1.560 . S
C805 O860 1.426 . S
C805 H864 0.980 . S
C806 C807 1.407 . S
C806 C811 1.418 . S
C806 O860 1.334 . S
C807 C806 1.407 . S
C807 C808 1.360 . S
C807 H868 0.929 . S
C808 C807 1.360 . S
C808 C809 1.401 . S
C808 C812 1.527 . S
C809 C808 1.401 . S
C809 C810 1.405 . S
C809 C842 1.587 . S
C810 C809 1.405 . S
C810 C811 1.332 . S
C810 C813 1.496 . S
C811 C806 1.418 . S
C811 C810 1.332 . S
C811 H869 0.929 . S
C812 C808 1.527 . S
C812 H870 0.959 . S
C812 H871 0.961 . S
C812 H872 0.961 . S
C813 C810 1.496 . S
C813 H873 0.960 . S
C813 H874 0.960 . S
C813 H875 0.961 . S
C814 C815 1.517 . S
C814 H877 0.961 . S
C814 H878 0.960 . S
C814 H879 0.959 . S
C815 C814 1.517 . S
C815 O863 1.468 . S
C815 H876 0.980 . S
C816 C817 1.349 . S
C816 C821 1.367 . S
C816 O863 1.408 . S
C817 C816 1.349 . S
C817 C818 1.407 . S
C817 H880 0.930 . S
C818 C817 1.407 . S
C818 C819 1.449 . S
C818 C822 1.535 . S
C819 C818 1.449 . S
C819 C820 1.384 . S
C819 C844 1.553 . S
C820 C819 1.384 . S
C820 C821 1.364 . S
C820 C823 1.450 . S
C821 C816 1.367 . S
C821 C820 1.364 . S
C821 H881 0.931 . S
C822 C818 1.535 . S
C822 H882 0.959 . S
C822 H883 0.961 . S
C822 H884 0.959 . S
C823 C820 1.450 . S
C823 H885 0.960 . S
C823 H886 0.960 . S
C823 H887 0.960 . S
C824 C825 1.309 . S
C824 C829 1.304 . S
C824 O862 1.435 . S
C825 C824 1.309 . S
C825 C826 1.476 . S
C825 H889 0.930 . S
C826 C825 1.476 . S
C826 C827 1.400 . S
C826 C830 1.567 . S
C827 C826 1.400 . S
C827 C828 1.373 . S
C827 C849 1.432 . S
C828 C827 1.373 . S
C828 C829 1.339 . S
C828 C831 1.530 . S
C829 C824 1.304 . S
C829 C828 1.339 . S
C829 H890 0.930 . S
C830 C826 1.567 . S
C830 H891 0.961 . S
C830 H892 0.960 . S
C830 H893 0.958 . S
C831 C828 1.530 . S
C831 H894 0.961 . S
C831 H895 0.960 . S
C831 H896 0.960 . S
C832 C833 1.530 . S
C832 H898 0.961 . S
C832 H899 0.961 . S
C832 H900 0.959 . S
C833 C832 1.530 . S
C833 O861 1.412 . S
C833 H897 0.980 . S
C834 C835 1.288 . S
C834 C839 1.377 . S
C834 O861 1.393 . S
C835 C834 1.288 . S
C835 C836 1.369 . S
C835 H901 0.932 . S
C836 C835 1.369 . S
C836 C837 1.398 . S
C836 C840 1.527 . S
C837 C836 1.398 . S
C837 C838 1.380 . S
C837 C851 1.497 . S
C838 C837 1.380 . S
C838 C839 1.383 . S
C838 C841 1.603 . S
C839 C834 1.377 . S
C839 C838 1.383 . S
C839 H902 0.929 . S
C840 C836 1.527 . S
C840 H903 0.961 . S
C840 H904 0.959 . S
C840 H905 0.959 . S
C841 C838 1.603 . S
C841 H906 0.960 . S
C841 H907 0.962 . S
C841 H908 0.961 . S
C842 C809 1.587 . S
C842 C843 1.360 . S
C842 C855 1.412 . S
C843 C842 1.360 . S
C843 C844 1.365 . S
C843 H909 0.929 . S
C844 C819 1.553 . S
C844 C843 1.365 . S
C844 C845 1.404 . S
C845 C844 1.404 . S
C845 C846 1.395 . S
C845 C856 1.451 . S
C846 C845 1.395 . S
C846 C847 1.322 . S
C846 H910 0.930 . S
C847 C846 1.322 . S
C847 C848 1.459 . S
C847 H911 0.929 . S
C848 C847 1.459 . S
C848 C849 1.445 . S
C848 C857 1.395 . S
C849 C827 1.432 . S
C849 C848 1.445 . S
C849 C850 1.370 . S
C850 C849 1.370 . S
C850 C851 1.438 . S
C850 H912 0.930 . S
C851 C837 1.497 . S
C851 C850 1.438 . S
C851 C852 1.360 . S
C852 C851 1.360 . S
C852 C853 1.401 . S
C852 C857 1.446 . S
C853 C852 1.401 . S
C853 C854 1.347 . S
C853 H913 0.929 . S
C854 C853 1.347 . S
C854 C855 1.455 . S
C854 H914 0.930 . S
C855 C842 1.412 . S
C855 C854 1.455 . S
C855 C856 1.331 . S
C856 C845 1.451 . S
C856 C855 1.331 . S
C856 C857 1.497 . S
C857 C848 1.395 . S
C857 C852 1.446 . S
C857 C856 1.497 . S
C858 C859 1.582 . S
C858 H915 0.962 . S
C858 H916 0.959 . S
C858 H917 0.958 . S
C859 C858 1.582 . S
C859 O862 1.458 . S
C859 H888 0.980 . S
O860 C805 1.426 . S
O860 C806 1.334 . S
O861 C833 1.412 . S
O861 C834 1.393 . S
O862 C824 1.435 . S
O862 C859 1.458 . S
O863 C815 1.468 . S
O863 C816 1.408 . S
H864 C805 0.980 . S
H865 C804 0.959 . S
H866 C804 0.959 . S
H867 C804 0.960 . S
H868 C807 0.929 . S
H869 C811 0.929 . S
H870 C812 0.959 . S
H871 C812 0.961 . S
H872 C812 0.961 . S
H873 C813 0.960 . S
H874 C813 0.960 . S
H875 C813 0.961 . S
H876 C815 0.980 . S
H877 C814 0.961 . S
H878 C814 0.960 . S
H879 C814 0.959 . S
H880 C817 0.930 . S
H881 C821 0.931 . S
H882 C822 0.959 . S
H883 C822 0.961 . S
H884 C822 0.959 . S
H885 C823 0.960 . S
H886 C823 0.960 . S
H887 C823 0.960 . S
H888 C859 0.980 . S
H889 C825 0.930 . S
H890 C829 0.930 . S
H891 C830 0.961 . S
H892 C830 0.960 . S
H893 C830 0.958 . S
H894 C831 0.961 . S
H895 C831 0.960 . S
H896 C831 0.960 . S
H897 C833 0.980 . S
H898 C832 0.961 . S
H899 C832 0.961 . S
H900 C832 0.959 . S
H901 C835 0.932 . S
H902 C839 0.929 . S
H903 C840 0.961 . S
H904 C840 0.959 . S
H905 C840 0.959 . S
H906 C841 0.960 . S
H907 C841 0.962 . S
H908 C841 0.961 . S
H909 C843 0.929 . S
H910 C846 0.930 . S
H911 C847 0.929 . S
H912 C850 0.930 . S
H913 C853 0.929 . S
H914 C854 0.930 . S
H915 C858 0.962 . S
H916 C858 0.959 . S
H917 C858 0.958 . S
C918 C919 1.560 . S
C918 H979 0.959 . S
C918 H980 0.959 . S
C918 H981 0.960 . S
C919 C918 1.560 . S
C919 O974 1.426 . S
C919 H978 0.980 . S
C920 C921 1.407 . S
C920 C925 1.418 . S
C920 O974 1.334 . S
C921 C920 1.407 . S
C921 C922 1.360 . S
C921 H982 0.929 . S
C922 C921 1.360 . S
C922 C923 1.401 . S
C922 C926 1.527 . S
C923 C922 1.401 . S
C923 C924 1.405 . S
C923 C956 1.587 . S
C924 C923 1.405 . S
C924 C925 1.332 . S
C924 C927 1.496 . S
C925 C920 1.418 . S
C925 C924 1.332 . S
C925 H983 0.929 . S
C926 C922 1.527 . S
C926 H984 0.959 . S
C926 H985 0.961 . S
C926 H986 0.961 . S
C927 C924 1.496 . S
C927 H987 0.960 . S
C927 H988 0.960 . S
C927 H989 0.961 . S
C928 C929 1.517 . S
C928 H991 0.961 . S
C928 H992 0.960 . S
C928 H993 0.959 . S
C929 C928 1.517 . S
C929 O977 1.468 . S
C929 H990 0.980 . S
C930 C931 1.349 . S
C930 C935 1.367 . S
C930 O977 1.408 . S
C931 C930 1.349 . S
C931 C932 1.407 . S
C931 H994 0.930 . S
C932 C931 1.407 . S
C932 C933 1.449 . S
C932 C936 1.535 . S
C933 C932 1.449 . S
C933 C934 1.384 . S
C933 C958 1.553 . S
C934 C933 1.384 . S
C934 C935 1.364 . S
C934 C937 1.450 . S
C935 C930 1.367 . S
C935 C934 1.364 . S
C935 H995 0.931 . S
C936 C932 1.535 . S
C936 H996 0.959 . S
C936 H997 0.961 . S
C936 H998 0.959 . S
C937 C934 1.450 . S
C937 H999 0.960 . S
C937 H1000 0.960 . S
C937 H1001 0.960 . S
C938 C939 1.309 . S
C938 C943 1.304 . S
C938 O976 1.435 . S
C939 C938 1.309 . S
C939 C940 1.476 . S
C939 H1003 0.930 . S
C940 C939 1.476 . S
C940 C941 1.400 . S
C940 C944 1.567 . S
C941 C940 1.400 . S
C941 C942 1.373 . S
C941 C963 1.432 . S
C942 C941 1.373 . S
C942 C943 1.339 . S
C942 C945 1.530 . S
C943 C938 1.304 . S
C943 C942 1.339 . S
C943 H1004 0.930 . S
C944 C940 1.567 . S
C944 H1005 0.961 . S
C944 H1006 0.960 . S
C944 H1007 0.958 . S
C945 C942 1.530 . S
C945 H1008 0.961 . S
C945 H1009 0.960 . S
C945 H1010 0.960 . S
C946 C947 1.530 . S
C946 H1012 0.961 . S
C946 H1013 0.961 . S
C946 H1014 0.959 . S
C947 C946 1.530 . S
C947 O975 1.412 . S
C947 H1011 0.980 . S
C948 C949 1.288 . S
C948 C953 1.377 . S
C948 O975 1.393 . S
C949 C948 1.288 . S
C949 C950 1.369 . S
C949 H1015 0.932 . S
C950 C949 1.369 . S
C950 C951 1.398 . S
C950 C954 1.527 . S
C951 C950 1.398 . S
C951 C952 1.380 . S
C951 C965 1.497 . S
C952 C951 1.380 . S
C952 C953 1.383 . S
C952 C955 1.603 . S
C953 C948 1.377 . S
C953 C952 1.383 . S
C953 H1016 0.929 . S
C954 C950 1.527 . S
C954 H1017 0.961 . S
C954 H1018 0.959 . S
C954 H1019 0.959 . S
C955 C952 1.603 . S
C955 H1020 0.960 . S
C955 H1021 0.962 . S
C955 H1022 0.961 . S
C956 C923 1.587 . S
C956 C957 1.360 . S
C956 C969 1.412 . S
C957 C956 1.360 . S
C957 C958 1.365 . S
C957 H1023 0.929 . S
C958 C933 1.553 . S
C958 C957 1.365 . S
C958 C959 1.404 . S
C959 C958 1.404 . S
C959 C960 1.395 . S
C959 C970 1.451 . S
C960 C959 1.395 . S
C960 C961 1.322 . S
C960 H1024 0.930 . S
C961 C960 1.322 . S
C961 C962 1.459 . S
C961 H1025 0.929 . S
C962 C961 1.459 . S
C962 C963 1.445 . S
C962 C971 1.395 . S
C963 C941 1.432 . S
C963 C962 1.445 . S
C963 C964 1.370 . S
C964 C963 1.370 . S
C964 C965 1.438 . S
C964 H1026 0.930 . S
C965 C951 1.497 . S
C965 C964 1.438 . S
C965 C966 1.360 . S
C966 C965 1.360 . S
C966 C967 1.401 . S
C966 C971 1.446 . S
C967 C966 1.401 . S
C967 C968 1.347 . S
C967 H1027 0.929 . S
C968 C967 1.347 . S
C968 C969 1.455 . S
C968 H1028 0.930 . S
C969 C956 1.412 . S
C969 C968 1.455 . S
C969 C970 1.331 . S
C970 C959 1.451 . S
C970 C969 1.331 . S
C970 C971 1.497 . S
C971 C962 1.395 . S
C971 C966 1.446 . S
C971 C970 1.497 . S
C972 C973 1.582 . S
C972 H1029 0.962 . S
C972 H1030 0.959 . S
C972 H1031 0.958 . S
C973 C972 1.582 . S
C973 O976 1.458 . S
C973 H1002 0.980 . S
O974 C919 1.426 . S
O974 C920 1.334 . S
O975 C947 1.412 . S
O975 C948 1.393 . S
O976 C938 1.435 . S
O976 C973 1.458 . S
O977 C929 1.468 . S
O977 C930 1.408 . S
H978 C919 0.980 . S
H979 C918 0.959 . S
H980 C918 0.959 . S
H981 C918 0.960 . S
H982 C921 0.929 . S
H983 C925 0.929 . S
H984 C926 0.959 . S
H985 C926 0.961 . S
H986 C926 0.961 . S
H987 C927 0.960 . S
H988 C927 0.960 . S
H989 C927 0.961 . S
H990 C929 0.980 . S
H991 C928 0.961 . S
H992 C928 0.960 . S
H993 C928 0.959 . S
H994 C931 0.930 . S
H995 C935 0.931 . S
H996 C936 0.959 . S
H997 C936 0.961 . S
H998 C936 0.959 . S
H999 C937 0.960 . S
H1000 C937 0.960 . S
H1001 C937 0.960 . S
H1002 C973 0.980 . S
H1003 C939 0.930 . S
H1004 C943 0.930 . S
H1005 C944 0.961 . S
H1006 C944 0.960 . S
H1007 C944 0.958 . S
H1008 C945 0.961 . S
H1009 C945 0.960 . S
H1010 C945 0.960 . S
H1011 C947 0.980 . S
H1012 C946 0.961 . S
H1013 C946 0.961 . S
H1014 C946 0.959 . S
H1015 C949 0.932 . S
H1016 C953 0.929 . S
H1017 C954 0.961 . S
H1018 C954 0.959 . S
H1019 C954 0.959 . S
H1020 C955 0.960 . S
H1021 C955 0.962 . S
H1022 C955 0.961 . S
H1023 C957 0.929 . S
H1024 C960 0.930 . S
H1025 C961 0.929 . S
H1026 C964 0.930 . S
H1027 C967 0.929 . S
H1028 C968 0.930 . S
H1029 C972 0.962 . S
H1030 C972 0.959 . S
H1031 C972 0.958 . S
C1032 C1033 1.560 . S
C1032 H1093 0.959 . S
C1032 H1094 0.959 . S
C1032 H1095 0.960 . S
C1033 C1032 1.560 . S
C1033 O1088 1.426 . S
C1033 H1092 0.980 . S
C1034 C1035 1.407 . S
C1034 C1039 1.418 . S
C1034 O1088 1.334 . S
C1035 C1034 1.407 . S
C1035 C1036 1.360 . S
C1035 H1096 0.929 . S
C1036 C1035 1.360 . S
C1036 C1037 1.401 . S
C1036 C1040 1.527 . S
C1037 C1036 1.401 . S
C1037 C1038 1.405 . S
C1037 C1070 1.587 . S
C1038 C1037 1.405 . S
C1038 C1039 1.332 . S
C1038 C1041 1.496 . S
C1039 C1034 1.418 . S
C1039 C1038 1.332 . S
C1039 H1097 0.929 . S
C1040 C1036 1.527 . S
C1040 H1098 0.959 . S
C1040 H1099 0.961 . S
C1040 H1100 0.961 . S
C1041 C1038 1.496 . S
C1041 H1101 0.960 . S
C1041 H1102 0.960 . S
C1041 H1103 0.961 . S
C1042 C1043 1.517 . S
C1042 H1105 0.961 . S
C1042 H1106 0.960 . S
C1042 H1107 0.959 . S
C1043 C1042 1.517 . S
C1043 O1091 1.468 . S
C1043 H1104 0.980 . S
C1044 C1045 1.349 . S
C1044 C1049 1.367 . S
C1044 O1091 1.408 . S
C1045 C1044 1.349 . S
C1045 C1046 1.407 . S
C1045 H1108 0.930 . S
C1046 C1045 1.407 . S
C1046 C1047 1.449 . S
C1046 C1050 1.535 . S
C1047 C1046 1.449 . S
C1047 C1048 1.384 . S
C1047 C1072 1.553 . S
C1048 C1047 1.384 . S
C1048 C1049 1.364 . S
C1048 C1051 1.450 . S
C1049 C1044 1.367 . S
C1049 C1048 1.364 . S
C1049 H1109 0.931 . S
C1050 C1046 1.535 . S
C1050 H1110 0.959 . S
C1050 H1111 0.961 . S
C1050 H1112 0.959 . S
C1051 C1048 1.450 . S
C1051 H1113 0.960 . S
C1051 H1114 0.960 . S
C1051 H1115 0.960 . S
C1052 C1053 1.309 . S
C1052 C1057 1.304 . S
C1052 O1090 1.435 . S
C1053 C1052 1.309 . S
C1053 C1054 1.476 . S
C1053 H1117 0.930 . S
C1054 C1053 1.476 . S
C1054 C1055 1.400 . S
C1054 C1058 1.567 . S
C1055 C1054 1.400 . S
C1055 C1056 1.373 . S
C1055 C1077 1.432 . S
C1056 C1055 1.373 . S
C1056 C1057 1.339 . S
C1056 C1059 1.530 . S
C1057 C1052 1.304 . S
C1057 C1056 1.339 . S
C1057 H1118 0.930 . S
C1058 C1054 1.567 . S
C1058 H1119 0.961 . S
C1058 H1120 0.960 . S
C1058 H1121 0.958 . S
C1059 C1056 1.530 . S
C1059 H1122 0.961 . S
C1059 H1123 0.960 . S
C1059 H1124 0.960 . S
C1060 C1061 1.530 . S
C1060 H1126 0.961 . S
C1060 H1127 0.961 . S
C1060 H1128 0.959 . S
C1061 C1060 1.530 . S
C1061 O1089 1.412 . S
C1061 H1125 0.980 . S
C1062 C1063 1.288 . S
C1062 C1067 1.377 . S
C1062 O1089 1.393 . S
C1063 C1062 1.288 . S
C1063 C1064 1.369 . S
C1063 H1129 0.932 . S
C1064 C1063 1.369 . S
C1064 C1065 1.398 . S
C1064 C1068 1.527 . S
C1065 C1064 1.398 . S
C1065 C1066 1.380 . S
C1065 C1079 1.497 . S
C1066 C1065 1.380 . S
C1066 C1067 1.383 . S
C1066 C1069 1.603 . S
C1067 C1062 1.377 . S
C1067 C1066 1.383 . S
C1067 H1130 0.929 . S
C1068 C1064 1.527 . S
C1068 H1131 0.961 . S
C1068 H1132 0.959 . S
C1068 H1133 0.959 . S
C1069 C1066 1.603 . S
C1069 H1134 0.960 . S
C1069 H1135 0.962 . S
C1069 H1136 0.961 . S
C1070 C1037 1.587 . S
C1070 C1071 1.360 . S
C1070 C1083 1.412 . S
C1071 C1070 1.360 . S
C1071 C1072 1.365 . S
C1071 H1137 0.929 . S
C1072 C1047 1.553 . S
C1072 C1071 1.365 . S
C1072 C1073 1.404 . S
C1073 C1072 1.404 . S
C1073 C1074 1.395 . S
C1073 C1084 1.451 . S
C1074 C1073 1.395 . S
C1074 C1075 1.322 . S
C1074 H1138 0.930 . S
C1075 C1074 1.322 . S
C1075 C1076 1.459 . S
C1075 H1139 0.929 . S
C1076 C1075 1.459 . S
C1076 C1077 1.445 . S
C1076 C1085 1.395 . S
C1077 C1055 1.432 . S
C1077 C1076 1.445 . S
C1077 C1078 1.370 . S
C1078 C1077 1.370 . S
C1078 C1079 1.438 . S
C1078 H1140 0.930 . S
C1079 C1065 1.497 . S
C1079 C1078 1.438 . S
C1079 C1080 1.360 . S
C1080 C1079 1.360 . S
C1080 C1081 1.401 . S
C1080 C1085 1.446 . S
C1081 C1080 1.401 . S
C1081 C1082 1.347 . S
C1081 H1141 0.929 . S
C1082 C1081 1.347 . S
C1082 C1083 1.455 . S
C1082 H1142 0.930 . S
C1083 C1070 1.412 . S
C1083 C1082 1.455 . S
C1083 C1084 1.331 . S
C1084 C1073 1.451 . S
C1084 C1083 1.331 . S
C1084 C1085 1.497 . S
C1085 C1076 1.395 . S
C1085 C1080 1.446 . S
C1085 C1084 1.497 . S
C1086 C1087 1.582 . S
C1086 H1143 0.962 . S
C1086 H1144 0.959 . S
C1086 H1145 0.958 . S
C1087 C1086 1.582 . S
C1087 O1090 1.458 . S
C1087 H1116 0.980 . S
O1088 C1033 1.426 . S
O1088 C1034 1.334 . S
O1089 C1061 1.412 . S
O1089 C1062 1.393 . S
O1090 C1052 1.435 . S
O1090 C1087 1.458 . S
O1091 C1043 1.468 . S
O1091 C1044 1.408 . S
H1092 C1033 0.980 . S
H1093 C1032 0.959 . S
H1094 C1032 0.959 . S
H1095 C1032 0.960 . S
H1096 C1035 0.929 . S
H1097 C1039 0.929 . S
H1098 C1040 0.959 . S
H1099 C1040 0.961 . S
H1100 C1040 0.961 . S
H1101 C1041 0.960 . S
H1102 C1041 0.960 . S
H1103 C1041 0.961 . S
H1104 C1043 0.980 . S
H1105 C1042 0.961 . S
H1106 C1042 0.960 . S
H1107 C1042 0.959 . S
H1108 C1045 0.930 . S
H1109 C1049 0.931 . S
H1110 C1050 0.959 . S
H1111 C1050 0.961 . S
H1112 C1050 0.959 . S
H1113 C1051 0.960 . S
H1114 C1051 0.960 . S
H1115 C1051 0.960 . S
H1116 C1087 0.980 . S
H1117 C1053 0.930 . S
H1118 C1057 0.930 . S
H1119 C1058 0.961 . S
H1120 C1058 0.960 . S
H1121 C1058 0.958 . S
H1122 C1059 0.961 . S
H1123 C1059 0.960 . S
H1124 C1059 0.960 . S
H1125 C1061 0.980 . S
H1126 C1060 0.961 . S
H1127 C1060 0.961 . S
H1128 C1060 0.959 . S
H1129 C1063 0.932 . S
H1130 C1067 0.929 . S
H1131 C1068 0.961 . S
H1132 C1068 0.959 . S
H1133 C1068 0.959 . S
H1134 C1069 0.960 . S
H1135 C1069 0.962 . S
H1136 C1069 0.961 . S
H1137 C1071 0.929 . S
H1138 C1074 0.930 . S
H1139 C1075 0.929 . S
H1140 C1078 0.930 . S
H1141 C1081 0.929 . S
H1142 C1082 0.930 . S
H1143 C1086 0.962 . S
H1144 C1086 0.959 . S
H1145 C1086 0.958 . S
C1146 C1147 1.560 . S
C1146 H1207 0.959 . S
C1146 H1208 0.959 . S
C1146 H1209 0.960 . S
C1147 C1146 1.560 . S
C1147 O1202 1.426 . S
C1147 H1206 0.980 . S
C1148 C1149 1.407 . S
C1148 C1153 1.418 . S
C1148 O1202 1.334 . S
C1149 C1148 1.407 . S
C1149 C1150 1.360 . S
C1149 H1210 0.929 . S
C1150 C1149 1.360 . S
C1150 C1151 1.401 . S
C1150 C1154 1.527 . S
C1151 C1150 1.401 . S
C1151 C1152 1.405 . S
C1151 C1184 1.587 . S
C1152 C1151 1.405 . S
C1152 C1153 1.332 . S
C1152 C1155 1.496 . S
C1153 C1148 1.418 . S
C1153 C1152 1.332 . S
C1153 H1211 0.929 . S
C1154 C1150 1.527 . S
C1154 H1212 0.959 . S
C1154 H1213 0.961 . S
C1154 H1214 0.961 . S
C1155 C1152 1.496 . S
C1155 H1215 0.960 . S
C1155 H1216 0.960 . S
C1155 H1217 0.961 . S
C1156 C1157 1.517 . S
C1156 H1219 0.961 . S
C1156 H1220 0.960 . S
C1156 H1221 0.959 . S
C1157 C1156 1.517 . S
C1157 O1205 1.468 . S
C1157 H1218 0.980 . S
C1158 C1159 1.349 . S
C1158 C1163 1.367 . S
C1158 O1205 1.408 . S
C1159 C1158 1.349 . S
C1159 C1160 1.407 . S
C1159 H1222 0.930 . S
C1160 C1159 1.407 . S
C1160 C1161 1.449 . S
C1160 C1164 1.535 . S
C1161 C1160 1.449 . S
C1161 C1162 1.384 . S
C1161 C1186 1.553 . S
C1162 C1161 1.384 . S
C1162 C1163 1.364 . S
C1162 C1165 1.450 . S
C1163 C1158 1.367 . S
C1163 C1162 1.364 . S
C1163 H1223 0.931 . S
C1164 C1160 1.535 . S
C1164 H1224 0.959 . S
C1164 H1225 0.961 . S
C1164 H1226 0.959 . S
C1165 C1162 1.450 . S
C1165 H1227 0.960 . S
C1165 H1228 0.960 . S
C1165 H1229 0.960 . S
C1166 C1167 1.309 . S
C1166 C1171 1.304 . S
C1166 O1204 1.435 . S
C1167 C1166 1.309 . S
C1167 C1168 1.476 . S
C1167 H1231 0.930 . S
C1168 C1167 1.476 . S
C1168 C1169 1.400 . S
C1168 C1172 1.567 . S
C1169 C1168 1.400 . S
C1169 C1170 1.373 . S
C1169 C1191 1.432 . S
C1170 C1169 1.373 . S
C1170 C1171 1.339 . S
C1170 C1173 1.530 . S
C1171 C1166 1.304 . S
C1171 C1170 1.339 . S
C1171 H1232 0.930 . S
C1172 C1168 1.567 . S
C1172 H1233 0.961 . S
C1172 H1234 0.960 . S
C1172 H1235 0.958 . S
C1173 C1170 1.530 . S
C1173 H1236 0.961 . S
C1173 H1237 0.960 . S
C1173 H1238 0.960 . S
C1174 C1175 1.530 . S
C1174 H1240 0.961 . S
C1174 H1241 0.961 . S
C1174 H1242 0.959 . S
C1175 C1174 1.530 . S
C1175 O1203 1.412 . S
C1175 H1239 0.980 . S
C1176 C1177 1.288 . S
C1176 C1181 1.377 . S
C1176 O1203 1.393 . S
C1177 C1176 1.288 . S
C1177 C1178 1.369 . S
C1177 H1243 0.932 . S
C1178 C1177 1.369 . S
C1178 C1179 1.398 . S
C1178 C1182 1.527 . S
C1179 C1178 1.398 . S
C1179 C1180 1.380 . S
C1179 C1193 1.497 . S
C1180 C1179 1.380 . S
C1180 C1181 1.383 . S
C1180 C1183 1.603 . S
C1181 C1176 1.377 . S
C1181 C1180 1.383 . S
C1181 H1244 0.929 . S
C1182 C1178 1.527 . S
C1182 H1245 0.961 . S
C1182 H1246 0.959 . S
C1182 H1247 0.959 . S
C1183 C1180 1.603 . S
C1183 H1248 0.960 . S
C1183 H1249 0.962 . S
C1183 H1250 0.961 . S
C1184 C1151 1.587 . S
C1184 C1185 1.360 . S
C1184 C1197 1.412 . S
C1185 C1184 1.360 . S
C1185 C1186 1.365 . S
C1185 H1251 0.929 . S
C1186 C1161 1.553 . S
C1186 C1185 1.365 . S
C1186 C1187 1.404 . S
C1187 C1186 1.404 . S
C1187 C1188 1.395 . S
C1187 C1198 1.451 . S
C1188 C1187 1.395 . S
C1188 C1189 1.322 . S
C1188 H1252 0.930 . S
C1189 C1188 1.322 . S
C1189 C1190 1.459 . S
C1189 H1253 0.929 . S
C1190 C1189 1.459 . S
C1190 C1191 1.445 . S
C1190 C1199 1.395 . S
C1191 C1169 1.432 . S
C1191 C1190 1.445 . S
C1191 C1192 1.370 . S
C1192 C1191 1.370 . S
C1192 C1193 1.438 . S
C1192 H1254 0.930 . S
C1193 C1179 1.497 . S
C1193 C1192 1.438 . S
C1193 C1194 1.360 . S
C1194 C1193 1.360 . S
C1194 C1195 1.401 . S
C1194 C1199 1.446 . S
C1195 C1194 1.401 . S
C1195 C1196 1.347 . S
C1195 H1255 0.929 . S
C1196 C1195 1.347 . S
C1196 C1197 1.455 . S
C1196 H1256 0.930 . S
C1197 C1184 1.412 . S
C1197 C1196 1.455 . S
C1197 C1198 1.331 . S
C1198 C1187 1.451 . S
C1198 C1197 1.331 . S
C1198 C1199 1.497 . S
C1199 C1190 1.395 . S
C1199 C1194 1.446 . S
C1199 C1198 1.497 . S
C1200 C1201 1.582 . S
C1200 H1257 0.962 . S
C1200 H1258 0.959 . S
C1200 H1259 0.958 . S
C1201 C1200 1.582 . S
C1201 O1204 1.458 . S
C1201 H1230 0.980 . S
O1202 C1147 1.426 . S
O1202 C1148 1.334 . S
O1203 C1175 1.412 . S
O1203 C1176 1.393 . S
O1204 C1166 1.435 . S
O1204 C1201 1.458 . S
O1205 C1157 1.468 . S
O1205 C1158 1.408 . S
H1206 C1147 0.980 . S
H1207 C1146 0.959 . S
H1208 C1146 0.959 . S
H1209 C1146 0.960 . S
H1210 C1149 0.929 . S
H1211 C1153 0.929 . S
H1212 C1154 0.959 . S
H1213 C1154 0.961 . S
H1214 C1154 0.961 . S
H1215 C1155 0.960 . S
H1216 C1155 0.960 . S
H1217 C1155 0.961 . S
H1218 C1157 0.980 . S
H1219 C1156 0.961 . S
H1220 C1156 0.960 . S
H1221 C1156 0.959 . S
H1222 C1159 0.930 . S
H1223 C1163 0.931 . S
H1224 C1164 0.959 . S
H1225 C1164 0.961 . S
H1226 C1164 0.959 . S
H1227 C1165 0.960 . S
H1228 C1165 0.960 . S
H1229 C1165 0.960 . S
H1230 C1201 0.980 . S
H1231 C1167 0.930 . S
H1232 C1171 0.930 . S
H1233 C1172 0.961 . S
H1234 C1172 0.960 . S
H1235 C1172 0.958 . S
H1236 C1173 0.961 . S
H1237 C1173 0.960 . S
H1238 C1173 0.960 . S
H1239 C1175 0.980 . S
H1240 C1174 0.961 . S
H1241 C1174 0.961 . S
H1242 C1174 0.959 . S
H1243 C1177 0.932 . S
H1244 C1181 0.929 . S
H1245 C1182 0.961 . S
H1246 C1182 0.959 . S
H1247 C1182 0.959 . S
H1248 C1183 0.960 . S
H1249 C1183 0.962 . S
H1250 C1183 0.961 . S
H1251 C1185 0.929 . S
H1252 C1188 0.930 . S
H1253 C1189 0.929 . S
H1254 C1192 0.930 . S
H1255 C1195 0.929 . S
H1256 C1196 0.930 . S
H1257 C1200 0.962 . S
H1258 C1200 0.959 . S
H1259 C1200 0.958 . S
C1260 C1261 1.560 . S
C1260 H1321 0.959 . S
C1260 H1322 0.959 . S
C1260 H1323 0.960 . S
C1261 C1260 1.560 . S
C1261 O1316 1.426 . S
C1261 H1320 0.980 . S
C1262 C1263 1.407 1_455 S
C1262 C1267 1.418 . S
C1262 O1316 1.334 . S
C1263 C1262 1.407 1_655 S
C1263 C1264 1.360 . S
C1263 H1324 0.929 . S
C1264 C1263 1.360 . S
C1264 C1265 1.401 1_655 S
C1264 C1268 1.527 . S
C1265 C1264 1.401 1_455 S
C1265 C1266 1.405 . S
C1265 C1298 1.587 1_455 S
C1266 C1265 1.405 . S
C1266 C1267 1.332 . S
C1266 C1269 1.496 . S
C1267 C1262 1.418 . S
C1267 C1266 1.332 . S
C1267 H1325 0.929 . S
C1268 C1264 1.527 . S
C1268 H1326 0.959 . S
C1268 H1327 0.961 . S
C1268 H1328 0.961 . S
C1269 C1266 1.496 . S
C1269 H1329 0.960 . S
C1269 H1330 0.960 . S
C1269 H1331 0.961 . S
C1270 C1271 1.517 . S
C1270 H1333 0.963 1_655 S
C1270 H1334 0.960 . S
C1270 H1335 0.959 . S
C1271 C1270 1.517 . S
C1271 O1319 1.468 . S
C1271 H1332 0.980 1_655 S
C1272 C1273 1.349 . S
C1272 C1277 1.367 . S
C1272 O1319 1.408 . S
C1273 C1272 1.349 . S
C1273 C1274 1.407 1_655 S
C1273 H1336 0.930 1_655 S
C1274 C1273 1.407 1_455 S
C1274 C1275 1.449 1_455 S
C1274 C1278 1.535 . S
C1275 C1274 1.449 1_655 S
C1275 C1276 1.384 . S
C1275 C1300 1.553 . S
C1276 C1275 1.384 . S
C1276 C1277 1.364 . S
C1276 C1279 1.450 . S
C1277 C1272 1.367 . S
C1277 C1276 1.364 . S
C1277 H1337 0.931 . S
C1278 C1274 1.535 . S
C1278 H1338 0.959 . S
C1278 H1339 0.961 . S
C1278 H1340 0.959 . S
C1279 C1276 1.450 . S
C1279 H1341 0.960 . S
C1279 H1342 0.960 . S
C1279 H1343 0.960 . S
C1280 C1281 1.309 . S
C1280 C1285 1.304 . S
C1280 O1318 1.435 . S
C1281 C1280 1.309 . S
C1281 C1282 1.463 1_655 S
C1281 H1345 0.930 1_655 S
C1282 C1281 1.463 1_455 S
C1282 C1283 1.392 1_455 S
C1282 C1286 1.586 . S
C1283 C1282 1.392 1_655 S
C1283 C1284 1.373 . S
C1283 C1305 1.432 . S
C1284 C1283 1.373 . S
C1284 C1285 1.339 . S
C1284 C1287 1.530 . S
C1285 C1280 1.304 . S
C1285 C1284 1.339 . S
C1285 H1346 0.930 . S
C1286 C1282 1.586 . S
C1286 H1347 0.961 . S
C1286 H1348 0.960 . S
C1286 H1349 0.958 . S
C1287 C1284 1.530 . S
C1287 H1350 0.961 . S
C1287 H1351 0.960 . S
C1287 H1352 0.960 . S
C1288 C1289 1.485 1_455 S
C1288 H1354 0.961 . S
C1288 H1355 0.961 . S
C1288 H1356 0.959 . S
C1289 C1288 1.485 1_655 S
C1289 O1317 1.402 1_655 S
C1289 H1353 0.995 . S
C1290 C1291 1.288 . S
C1290 C1295 1.377 1_455 S
C1290 O1317 1.393 . S
C1291 C1290 1.288 . S
C1291 C1292 1.369 . S
C1291 H1357 0.932 . S
C1292 C1291 1.369 . S
C1292 C1293 1.398 1_455 S
C1292 C1296 1.527 . S
C1293 C1292 1.398 1_655 S
C1293 C1294 1.380 . S
C1293 C1307 1.497 . S
C1294 C1293 1.380 . S
C1294 C1295 1.383 . S
C1294 C1297 1.603 . S
C1295 C1290 1.377 1_655 S
C1295 C1294 1.383 . S
C1295 H1358 0.929 . S
C1296 C1292 1.527 . S
C1296 H1359 0.961 . S
C1296 H1360 0.959 . S
C1296 H1361 0.959 . S
C1297 C1294 1.603 . S
C1297 H1362 0.960 . S
C1297 H1363 0.962 . S
C1297 H1364 0.961 . S
C1298 C1265 1.587 1_655 S
C1298 C1299 1.360 . S
C1298 C1311 1.412 . S
C1299 C1298 1.360 . S
C1299 C1300 1.365 . S
C1299 H1365 0.929 . S
C1300 C1275 1.553 . S
C1300 C1299 1.365 . S
C1300 C1301 1.404 . S
C1301 C1300 1.404 . S
C1301 C1302 1.395 . S
C1301 C1312 1.451 . S
C1302 C1301 1.395 . S
C1302 C1303 1.322 . S
C1302 H1366 0.930 . S
C1303 C1302 1.322 . S
C1303 C1304 1.459 . S
C1303 H1367 0.929 . S
C1304 C1303 1.459 . S
C1304 C1305 1.445 . S
C1304 C1313 1.395 . S
C1305 C1283 1.432 . S
C1305 C1304 1.445 . S
C1305 C1306 1.370 . S
C1306 C1305 1.370 . S
C1306 C1307 1.438 . S
C1306 H1368 0.930 . S
C1307 C1293 1.497 . S
C1307 C1306 1.438 . S
C1307 C1308 1.360 . S
C1308 C1307 1.360 . S
C1308 C1309 1.401 . S
C1308 C1313 1.446 . S
C1309 C1308 1.401 . S
C1309 C1310 1.347 . S
C1309 H1369 0.929 . S
C1310 C1309 1.347 . S
C1310 C1311 1.455 . S
C1310 H1370 0.930 . S
C1311 C1298 1.412 . S
C1311 C1310 1.455 . S
C1311 C1312 1.331 . S
C1312 C1301 1.451 . S
C1312 C1311 1.331 . S
C1312 C1313 1.497 . S
C1313 C1304 1.395 . S
C1313 C1308 1.446 . S
C1313 C1312 1.497 . S
C1314 C1315 1.582 . S
C1314 H1371 0.962 . S
C1314 H1372 0.959 . S
C1314 H1373 0.958 . S
C1315 C1314 1.582 . S
C1315 O1318 1.458 . S
C1315 H1344 0.980 . S
O1316 C1261 1.426 . S
O1316 C1262 1.334 . S
O1317 C1289 1.402 1_455 S
O1317 C1290 1.393 . S
O1318 C1280 1.435 . S
O1318 C1315 1.458 . S
O1319 C1271 1.468 . S
O1319 C1272 1.408 . S
H1320 C1261 0.980 . S
H1321 C1260 0.959 . S
H1322 C1260 0.959 . S
H1323 C1260 0.960 . S
H1324 C1263 0.929 . S
H1325 C1267 0.929 . S
H1326 C1268 0.959 . S
H1327 C1268 0.961 . S
H1328 C1268 0.961 . S
H1329 C1269 0.960 . S
H1330 C1269 0.960 . S
H1331 C1269 0.961 . S
H1332 C1271 0.980 1_455 S
H1333 C1270 0.963 1_455 S
H1334 C1270 0.960 . S
H1335 C1270 0.959 . S
H1336 C1273 0.930 1_455 S
H1337 C1277 0.931 . S
H1338 C1278 0.959 . S
H1339 C1278 0.961 . S
H1340 C1278 0.959 . S
H1341 C1279 0.960 . S
H1342 C1279 0.960 . S
H1343 C1279 0.960 . S
H1344 C1315 0.980 . S
H1345 C1281 0.930 1_455 S
H1346 C1285 0.930 . S
H1347 C1286 0.961 . S
H1348 C1286 0.960 . S
H1349 C1286 0.958 . S
H1350 C1287 0.961 . S
H1351 C1287 0.960 . S
H1352 C1287 0.960 . S
H1353 C1289 0.995 . S
H1354 C1288 0.961 . S
H1355 C1288 0.961 . S
H1356 C1288 0.959 . S
H1357 C1291 0.932 . S
H1358 C1295 0.929 . S
H1359 C1296 0.961 . S
H1360 C1296 0.959 . S
H1361 C1296 0.959 . S
H1362 C1297 0.960 . S
H1363 C1297 0.962 . S
H1364 C1297 0.961 . S
H1365 C1299 0.929 . S
H1366 C1302 0.930 . S
H1367 C1303 0.929 . S
H1368 C1306 0.930 . S
H1369 C1309 0.929 . S
H1370 C1310 0.930 . S
H1371 C1314 0.962 . S
H1372 C1314 0.959 . S
H1373 C1314 0.958 . S
C1374 C1375 1.560 . S
C1374 H1435 0.959 . S
C1374 H1436 0.959 . S
C1374 H1437 0.960 . S
C1375 C1374 1.560 . S
C1375 O1430 1.426 . S
C1375 H1434 0.980 . S
C1376 C1377 1.407 . S
C1376 C1381 1.418 . S
C1376 O1430 1.334 . S
C1377 C1376 1.407 . S
C1377 C1378 1.360 . S
C1377 H1438 0.929 . S
C1378 C1377 1.360 . S
C1378 C1379 1.401 . S
C1378 C1382 1.527 . S
C1379 C1378 1.401 . S
C1379 C1380 1.405 . S
C1379 C1412 1.587 . S
C1380 C1379 1.405 . S
C1380 C1381 1.332 . S
C1380 C1383 1.496 . S
C1381 C1376 1.418 . S
C1381 C1380 1.332 . S
C1381 H1439 0.929 . S
C1382 C1378 1.527 . S
C1382 H1440 0.959 . S
C1382 H1441 0.961 . S
C1382 H1442 0.961 . S
C1383 C1380 1.496 . S
C1383 H1443 0.960 . S
C1383 H1444 0.960 . S
C1383 H1445 0.961 . S
C1384 C1385 1.517 . S
C1384 H1447 0.961 . S
C1384 H1448 0.960 . S
C1384 H1449 0.959 . S
C1385 C1384 1.517 . S
C1385 O1433 1.468 . S
C1385 H1446 0.980 . S
C1386 C1387 1.349 . S
C1386 C1391 1.367 . S
C1386 O1433 1.408 . S
C1387 C1386 1.349 . S
C1387 C1388 1.407 . S
C1387 H1450 0.930 . S
C1388 C1387 1.407 . S
C1388 C1389 1.449 . S
C1388 C1392 1.535 . S
C1389 C1388 1.449 . S
C1389 C1390 1.384 . S
C1389 C1414 1.553 . S
C1390 C1389 1.384 . S
C1390 C1391 1.364 . S
C1390 C1393 1.450 . S
C1391 C1386 1.367 . S
C1391 C1390 1.364 . S
C1391 H1451 0.931 . S
C1392 C1388 1.535 . S
C1392 H1452 0.959 . S
C1392 H1453 0.961 . S
C1392 H1454 0.959 . S
C1393 C1390 1.450 . S
C1393 H1455 0.960 . S
C1393 H1456 0.960 . S
C1393 H1457 0.960 . S
C1394 C1395 1.309 . S
C1394 C1399 1.304 . S
C1394 O1432 1.435 . S
C1395 C1394 1.309 . S
C1395 C1396 1.476 . S
C1395 H1459 0.930 . S
C1396 C1395 1.476 . S
C1396 C1397 1.400 . S
C1396 C1400 1.567 . S
C1397 C1396 1.400 . S
C1397 C1398 1.373 . S
C1397 C1419 1.432 . S
C1398 C1397 1.373 . S
C1398 C1399 1.339 . S
C1398 C1401 1.530 . S
C1399 C1394 1.304 . S
C1399 C1398 1.339 . S
C1399 H1460 0.930 . S
C1400 C1396 1.567 . S
C1400 H1461 0.961 . S
C1400 H1462 0.960 . S
C1400 H1463 0.958 . S
C1401 C1398 1.530 . S
C1401 H1464 0.961 . S
C1401 H1465 0.960 . S
C1401 H1466 0.960 . S
C1402 C1403 1.530 . S
C1402 H1468 0.961 . S
C1402 H1469 0.961 . S
C1402 H1470 0.959 . S
C1403 C1402 1.530 . S
C1403 O1431 1.412 . S
C1403 H1467 0.980 . S
C1404 C1405 1.288 . S
C1404 C1409 1.377 . S
C1404 O1431 1.393 . S
C1405 C1404 1.288 . S
C1405 C1406 1.369 . S
C1405 H1471 0.932 . S
C1406 C1405 1.369 . S
C1406 C1407 1.398 . S
C1406 C1410 1.527 . S
C1407 C1406 1.398 . S
C1407 C1408 1.380 . S
C1407 C1421 1.497 . S
C1408 C1407 1.380 . S
C1408 C1409 1.383 . S
C1408 C1411 1.603 . S
C1409 C1404 1.377 . S
C1409 C1408 1.383 . S
C1409 H1472 0.929 . S
C1410 C1406 1.527 . S
C1410 H1473 0.961 . S
C1410 H1474 0.959 . S
C1410 H1475 0.959 . S
C1411 C1408 1.603 . S
C1411 H1476 0.960 . S
C1411 H1477 0.962 . S
C1411 H1478 0.961 . S
C1412 C1379 1.587 . S
C1412 C1413 1.360 . S
C1412 C1425 1.412 . S
C1413 C1412 1.360 . S
C1413 C1414 1.365 . S
C1413 H1479 0.929 . S
C1414 C1389 1.553 . S
C1414 C1413 1.365 . S
C1414 C1415 1.404 . S
C1415 C1414 1.404 . S
C1415 C1416 1.395 . S
C1415 C1426 1.451 . S
C1416 C1415 1.395 . S
C1416 C1417 1.322 . S
C1416 H1480 0.930 . S
C1417 C1416 1.322 . S
C1417 C1418 1.459 . S
C1417 H1481 0.929 . S
C1418 C1417 1.459 . S
C1418 C1419 1.445 . S
C1418 C1427 1.395 . S
C1419 C1397 1.432 . S
C1419 C1418 1.445 . S
C1419 C1420 1.370 . S
C1420 C1419 1.370 . S
C1420 C1421 1.438 . S
C1420 H1482 0.930 . S
C1421 C1407 1.497 . S
C1421 C1420 1.438 . S
C1421 C1422 1.360 . S
C1422 C1421 1.360 . S
C1422 C1423 1.401 . S
C1422 C1427 1.446 . S
C1423 C1422 1.401 . S
C1423 C1424 1.347 . S
C1423 H1483 0.929 . S
C1424 C1423 1.347 . S
C1424 C1425 1.455 . S
C1424 H1484 0.930 . S
C1425 C1412 1.412 . S
C1425 C1424 1.455 . S
C1425 C1426 1.331 . S
C1426 C1415 1.451 . S
C1426 C1425 1.331 . S
C1426 C1427 1.497 . S
C1427 C1418 1.395 . S
C1427 C1422 1.446 . S
C1427 C1426 1.497 . S
C1428 C1429 1.582 . S
C1428 H1485 0.962 . S
C1428 H1486 0.959 . S
C1428 H1487 0.958 . S
C1429 C1428 1.582 . S
C1429 O1432 1.458 . S
C1429 H1458 0.980 . S
O1430 C1375 1.426 . S
O1430 C1376 1.334 . S
O1431 C1403 1.412 . S
O1431 C1404 1.393 . S
O1432 C1394 1.435 . S
O1432 C1429 1.458 . S
O1433 C1385 1.468 . S
O1433 C1386 1.408 . S
H1434 C1375 0.980 . S
H1435 C1374 0.959 . S
H1436 C1374 0.959 . S
H1437 C1374 0.960 . S
H1438 C1377 0.929 . S
H1439 C1381 0.929 . S
H1440 C1382 0.959 . S
H1441 C1382 0.961 . S
H1442 C1382 0.961 . S
H1443 C1383 0.960 . S
H1444 C1383 0.960 . S
H1445 C1383 0.961 . S
H1446 C1385 0.980 . S
H1447 C1384 0.961 . S
H1448 C1384 0.960 . S
H1449 C1384 0.959 . S
H1450 C1387 0.930 . S
H1451 C1391 0.931 . S
H1452 C1392 0.959 . S
H1453 C1392 0.961 . S
H1454 C1392 0.959 . S
H1455 C1393 0.960 . S
H1456 C1393 0.960 . S
H1457 C1393 0.960 . S
H1458 C1429 0.980 . S
H1459 C1395 0.930 . S
H1460 C1399 0.930 . S
H1461 C1400 0.961 . S
H1462 C1400 0.960 . S
H1463 C1400 0.958 . S
H1464 C1401 0.961 . S
H1465 C1401 0.960 . S
H1466 C1401 0.960 . S
H1467 C1403 0.980 . S
H1468 C1402 0.961 . S
H1469 C1402 0.961 . S
H1470 C1402 0.959 . S
H1471 C1405 0.932 . S
H1472 C1409 0.929 . S
H1473 C1410 0.961 . S
H1474 C1410 0.959 . S
H1475 C1410 0.959 . S
H1476 C1411 0.960 . S
H1477 C1411 0.962 . S
H1478 C1411 0.961 . S
H1479 C1413 0.929 . S
H1480 C1416 0.930 . S
H1481 C1417 0.929 . S
H1482 C1420 0.930 . S
H1483 C1423 0.929 . S
H1484 C1424 0.930 . S
H1485 C1428 0.962 . S
H1486 C1428 0.959 . S
H1487 C1428 0.958 . S
C1488 C1489 1.560 . S
C1488 H1549 0.959 . S
C1488 H1550 0.959 . S
C1488 H1551 0.960 . S
C1489 C1488 1.560 . S
C1489 O1544 1.426 . S
C1489 H1548 0.980 . S
C1490 C1491 1.407 1_565 S
C1490 C1495 1.418 . S
C1490 O1544 1.334 . S
C1491 C1490 1.407 1_545 S
C1491 C1492 1.360 . S
C1491 H1552 0.929 . S
C1492 C1491 1.360 . S
C1492 C1493 1.401 1_545 S
C1492 C1496 1.527 . S
C1493 C1492 1.401 1_565 S
C1493 C1494 1.405 . S
C1493 C1526 1.587 1_565 S
C1494 C1493 1.405 . S
C1494 C1495 1.332 . S
C1494 C1497 1.496 . S
C1495 C1490 1.418 . S
C1495 C1494 1.332 . S
C1495 H1553 0.929 . S
C1496 C1492 1.527 . S
C1496 H1554 0.959 . S
C1496 H1555 0.961 . S
C1496 H1556 0.961 . S
C1497 C1494 1.496 . S
C1497 H1557 0.960 . S
C1497 H1558 0.960 . S
C1497 H1559 0.961 . S
C1498 C1499 1.517 . S
C1498 H1561 0.909 1_545 S
C1498 H1562 0.960 . S
C1498 H1563 0.959 . S
C1499 C1498 1.517 . S
C1499 O1547 1.468 . S
C1499 H1560 0.980 1_545 S
C1500 C1501 1.349 . S
C1500 C1505 1.367 . S
C1500 O1547 1.408 . S
C1501 C1500 1.349 . S
C1501 C1502 1.407 1_545 S
C1501 H1564 0.930 1_545 S
C1502 C1501 1.407 1_565 S
C1502 C1503 1.449 1_565 S
C1502 C1506 1.535 . S
C1503 C1502 1.449 1_545 S
C1503 C1504 1.384 . S
C1503 C1528 1.553 . S
C1504 C1503 1.384 . S
C1504 C1505 1.364 . S
C1504 C1507 1.450 . S
C1505 C1500 1.367 . S
C1505 C1504 1.364 . S
C1505 H1565 0.931 . S
C1506 C1502 1.535 . S
C1506 H1566 0.959 . S
C1506 H1567 0.961 . S
C1506 H1568 0.959 . S
C1507 C1504 1.450 . S
C1507 H1569 0.960 . S
C1507 H1570 0.960 . S
C1507 H1571 0.960 . S
C1508 C1509 1.309 . S
C1508 C1513 1.304 . S
C1508 O1546 1.435 . S
C1509 C1508 1.309 . S
C1509 C1510 1.490 1_545 S
C1509 H1573 0.930 1_545 S
C1510 C1509 1.490 1_565 S
C1510 C1511 1.352 1_565 S
C1510 C1514 1.600 . S
C1511 C1510 1.352 1_545 S
C1511 C1512 1.373 . S
C1511 C1533 1.432 . S
C1512 C1511 1.373 . S
C1512 C1513 1.339 . S
C1512 C1515 1.530 . S
C1513 C1508 1.304 . S
C1513 C1512 1.339 . S
C1513 H1574 0.930 . S
C1514 C1510 1.600 . S
C1514 H1575 0.961 . S
C1514 H1576 0.960 . S
C1514 H1577 0.958 . S
C1515 C1512 1.530 . S
C1515 H1578 0.961 . S
C1515 H1579 0.960 . S
C1515 H1580 0.960 . S
C1516 C1517 1.530 1_565 S
C1516 H1582 0.961 . S
C1516 H1583 0.961 . S
C1516 H1584 0.959 . S
C1517 C1516 1.530 1_545 S
C1517 O1545 1.412 1_545 S
C1517 H1581 0.980 . S
C1518 C1519 1.288 . S
C1518 C1523 1.377 1_565 S
C1518 O1545 1.393 . S
C1519 C1518 1.288 . S
C1519 C1520 1.369 . S
C1519 H1585 0.932 . S
C1520 C1519 1.369 . S
C1520 C1521 1.398 1_565 S
C1520 C1524 1.527 . S
C1521 C1520 1.398 1_545 S
C1521 C1522 1.380 . S
C1521 C1535 1.497 . S
C1522 C1521 1.380 . S
C1522 C1523 1.383 . S
C1522 C1525 1.603 . S
C1523 C1518 1.377 1_545 S
C1523 C1522 1.383 . S
C1523 H1586 0.929 . S
C1524 C1520 1.527 . S
C1524 H1587 0.961 . S
C1524 H1588 0.959 . S
C1524 H1589 0.959 . S
C1525 C1522 1.603 . S
C1525 H1590 0.960 . S
C1525 H1591 0.962 . S
C1525 H1592 0.961 . S
C1526 C1493 1.587 1_545 S
C1526 C1527 1.360 . S
C1526 C1539 1.412 . S
C1527 C1526 1.360 . S
C1527 C1528 1.365 . S
C1527 H1593 0.929 . S
C1528 C1503 1.553 . S
C1528 C1527 1.365 . S
C1528 C1529 1.404 . S
C1529 C1528 1.404 . S
C1529 C1530 1.395 . S
C1529 C1540 1.451 . S
C1530 C1529 1.395 . S
C1530 C1531 1.322 . S
C1530 H1594 0.930 . S
C1531 C1530 1.322 . S
C1531 C1532 1.459 . S
C1531 H1595 0.929 . S
C1532 C1531 1.459 . S
C1532 C1533 1.445 . S
C1532 C1541 1.395 . S
C1533 C1511 1.432 . S
C1533 C1532 1.445 . S
C1533 C1534 1.370 . S
C1534 C1533 1.370 . S
C1534 C1535 1.438 . S
C1534 H1596 0.930 . S
C1535 C1521 1.497 . S
C1535 C1534 1.438 . S
C1535 C1536 1.360 . S
C1536 C1535 1.360 . S
C1536 C1537 1.401 . S
C1536 C1541 1.446 . S
C1537 C1536 1.401 . S
C1537 C1538 1.347 . S
C1537 H1597 0.929 . S
C1538 C1537 1.347 . S
C1538 C1539 1.455 . S
C1538 H1598 0.930 . S
C1539 C1526 1.412 . S
C1539 C1538 1.455 . S
C1539 C1540 1.331 . S
C1540 C1529 1.451 . S
C1540 C1539 1.331 . S
C1540 C1541 1.497 . S
C1541 C1532 1.395 . S
C1541 C1536 1.446 . S
C1541 C1540 1.497 . S
C1542 C1543 1.582 . S
C1542 H1599 0.962 . S
C1542 H1600 0.959 . S
C1542 H1601 0.958 . S
C1543 C1542 1.582 . S
C1543 O1546 1.458 . S
C1543 H1572 0.980 . S
O1544 C1489 1.426 . S
O1544 C1490 1.334 . S
O1545 C1517 1.412 1_565 S
O1545 C1518 1.393 . S
O1546 C1508 1.435 . S
O1546 C1543 1.458 . S
O1547 C1499 1.468 . S
O1547 C1500 1.408 . S
H1548 C1489 0.980 . S
H1549 C1488 0.959 . S
H1550 C1488 0.959 . S
H1551 C1488 0.960 . S
H1552 C1491 0.929 . S
H1553 C1495 0.929 . S
H1554 C1496 0.959 . S
H1555 C1496 0.961 . S
H1556 C1496 0.961 . S
H1557 C1497 0.960 . S
H1558 C1497 0.960 . S
H1559 C1497 0.961 . S
H1560 C1499 0.980 1_565 S
H1561 C1498 0.909 1_565 S
H1562 C1498 0.960 . S
H1563 C1498 0.959 . S
H1564 C1501 0.930 1_565 S
H1565 C1505 0.931 . S
H1566 C1506 0.959 . S
H1567 C1506 0.961 . S
H1568 C1506 0.959 . S
H1569 C1507 0.960 . S
H1570 C1507 0.960 . S
H1571 C1507 0.960 . S
H1572 C1543 0.980 . S
H1573 C1509 0.930 1_565 S
H1574 C1513 0.930 . S
H1575 C1514 0.961 . S
H1576 C1514 0.960 . S
H1577 C1514 0.958 . S
H1578 C1515 0.961 . S
H1579 C1515 0.960 . S
H1580 C1515 0.960 . S
H1581 C1517 0.980 . S
H1582 C1516 0.961 . S
H1583 C1516 0.961 . S
H1584 C1516 0.959 . S
H1585 C1519 0.932 . S
H1586 C1523 0.929 . S
H1587 C1524 0.961 . S
H1588 C1524 0.959 . S
H1589 C1524 0.959 . S
H1590 C1525 0.960 . S
H1591 C1525 0.962 . S
H1592 C1525 0.961 . S
H1593 C1527 0.929 . S
H1594 C1530 0.930 . S
H1595 C1531 0.929 . S
H1596 C1534 0.930 . S
H1597 C1537 0.929 . S
H1598 C1538 0.930 . S
H1599 C1542 0.962 . S
H1600 C1542 0.959 . S
H1601 C1542 0.958 . S
C1602 C1603 1.560 . S
C1602 H1663 0.959 . S
C1602 H1664 0.959 . S
C1602 H1665 0.960 . S
C1603 C1602 1.560 . S
C1603 O1658 1.426 . S
C1603 H1662 0.980 1_565 S
C1604 C1605 1.407 1_565 S
C1604 C1609 1.418 . S
C1604 O1658 1.334 . S
C1605 C1604 1.407 1_545 S
C1605 C1606 1.360 . S
C1605 H1666 0.929 . S
C1606 C1605 1.360 . S
C1606 C1607 1.401 . S
C1606 C1610 1.527 . S
C1607 C1606 1.401 . S
C1607 C1608 1.405 1_545 S
C1607 C1640 1.587 . S
C1608 C1607 1.405 1_565 S
C1608 C1609 1.332 . S
C1608 C1611 1.496 . S
C1609 C1604 1.418 . S
C1609 C1608 1.332 . S
C1609 H1667 0.929 . S
C1610 C1606 1.527 . S
C1610 H1668 0.959 . S
C1610 H1669 0.961 . S
C1610 H1670 0.961 . S
C1611 C1608 1.496 . S
C1611 H1671 0.960 . S
C1611 H1672 0.960 . S
C1611 H1673 0.961 . S
C1612 C1613 1.517 . S
C1612 H1675 0.961 . S
C1612 H1676 0.960 . S
C1612 H1677 0.959 . S
C1613 C1612 1.517 . S
C1613 O1661 1.468 . S
C1613 H1674 0.980 . S
C1614 C1615 1.349 . S
C1614 C1619 1.367 . S
C1614 O1661 1.408 . S
C1615 C1614 1.349 . S
C1615 C1616 1.407 . S
C1615 H1678 0.928 1_545 S
C1616 C1615 1.407 . S
C1616 C1617 1.449 . S
C1616 C1620 1.535 1_545 S
C1617 C1616 1.449 . S
C1617 C1618 1.384 . S
C1617 C1642 1.553 . S
C1618 C1617 1.384 . S
C1618 C1619 1.364 . S
C1618 C1621 1.450 . S
C1619 C1614 1.367 . S
C1619 C1618 1.364 . S
C1619 H1679 0.931 . S
C1620 C1616 1.535 1_565 S
C1620 H1680 0.959 . S
C1620 H1681 0.961 . S
C1620 H1682 0.959 . S
C1621 C1618 1.450 . S
C1621 H1683 0.960 . S
C1621 H1684 0.960 . S
C1621 H1685 0.960 . S
C1622 C1623 1.309 1_545 S
C1622 C1627 1.304 . S
C1622 O1660 1.435 . S
C1623 C1622 1.309 1_565 S
C1623 C1624 1.476 . S
C1623 H1687 0.930 . S
C1624 C1623 1.476 . S
C1624 C1625 1.400 1_565 S
C1624 C1628 1.567 . S
C1625 C1624 1.400 1_545 S
C1625 C1626 1.373 . S
C1625 C1647 1.432 . S
C1626 C1625 1.373 . S
C1626 C1627 1.339 . S
C1626 C1629 1.530 . S
C1627 C1622 1.304 . S
C1627 C1626 1.339 . S
C1627 H1688 0.930 . S
C1628 C1624 1.567 . S
C1628 H1689 0.961 . S
C1628 H1690 0.960 . S
C1628 H1691 0.958 . S
C1629 C1626 1.530 . S
C1629 H1692 0.961 . S
C1629 H1693 0.960 . S
C1629 H1694 0.960 . S
C1630 C1631 1.530 . S
C1630 H1696 0.961 . S
C1630 H1697 0.961 . S
C1630 H1698 0.959 . S
C1631 C1630 1.530 . S
C1631 O1659 1.412 . S
C1631 H1695 0.994 . S
C1632 C1633 1.288 . S
C1632 C1637 1.377 1_565 S
C1632 O1659 1.393 . S
C1633 C1632 1.288 . S
C1633 C1634 1.369 . S
C1633 H1699 0.932 . S
C1634 C1633 1.369 . S
C1634 C1635 1.398 . S
C1634 C1638 1.527 . S
C1635 C1634 1.398 . S
C1635 C1636 1.380 1_565 S
C1635 C1649 1.497 1_565 S
C1636 C1635 1.380 1_545 S
C1636 C1637 1.383 . S
C1636 C1639 1.603 . S
C1637 C1632 1.377 1_545 S
C1637 C1636 1.383 . S
C1637 H1700 0.929 . S
C1638 C1634 1.527 . S
C1638 H1701 0.961 . S
C1638 H1702 0.959 . S
C1638 H1703 0.959 . S
C1639 C1636 1.603 . S
C1639 H1704 0.960 . S
C1639 H1705 0.962 . S
C1639 H1706 0.961 . S
C1640 C1607 1.587 . S
C1640 C1641 1.360 . S
C1640 C1653 1.412 . S
C1641 C1640 1.360 . S
C1641 C1642 1.365 . S
C1641 H1707 0.929 . S
C1642 C1617 1.553 . S
C1642 C1641 1.365 . S
C1642 C1643 1.404 . S
C1643 C1642 1.404 . S
C1643 C1644 1.395 . S
C1643 C1654 1.451 . S
C1644 C1643 1.395 . S
C1644 C1645 1.322 . S
C1644 H1708 0.930 . S
C1645 C1644 1.322 . S
C1645 C1646 1.459 . S
C1645 H1709 0.929 . S
C1646 C1645 1.459 . S
C1646 C1647 1.445 . S
C1646 C1655 1.395 . S
C1647 C1625 1.432 . S
C1647 C1646 1.445 . S
C1647 C1648 1.370 . S
C1648 C1647 1.370 . S
C1648 C1649 1.438 . S
C1648 H1710 0.930 . S
C1649 C1635 1.497 1_545 S
C1649 C1648 1.438 . S
C1649 C1650 1.360 . S
C1650 C1649 1.360 . S
C1650 C1651 1.401 . S
C1650 C1655 1.446 . S
C1651 C1650 1.401 . S
C1651 C1652 1.347 . S
C1651 H1711 0.969 . S
C1652 C1651 1.347 . S
C1652 C1653 1.455 . S
C1652 H1712 0.930 . S
C1653 C1640 1.412 . S
C1653 C1652 1.455 . S
C1653 C1654 1.331 . S
C1654 C1643 1.451 . S
C1654 C1653 1.331 . S
C1654 C1655 1.497 . S
C1655 C1646 1.395 . S
C1655 C1650 1.446 . S
C1655 C1654 1.497 . S
C1656 C1657 1.621 . S
C1656 H1713 0.962 . S
C1656 H1714 0.959 . S
C1656 H1715 0.958 . S
C1657 C1656 1.621 . S
C1657 O1660 1.474 . S
C1657 H1686 0.980 1_545 S
O1658 C1603 1.426 . S
O1658 C1604 1.334 . S
O1659 C1631 1.412 . S
O1659 C1632 1.393 . S
O1660 C1622 1.435 . S
O1660 C1657 1.474 . S
O1661 C1613 1.468 . S
O1661 C1614 1.408 . S
H1662 C1603 0.980 1_545 S
H1663 C1602 0.959 . S
H1664 C1602 0.959 . S
H1665 C1602 0.960 . S
H1666 C1605 0.929 . S
H1667 C1609 0.929 . S
H1668 C1610 0.959 . S
H1669 C1610 0.961 . S
H1670 C1610 0.961 . S
H1671 C1611 0.960 . S
H1672 C1611 0.960 . S
H1673 C1611 0.961 . S
H1674 C1613 0.980 . S
H1675 C1612 0.961 . S
H1676 C1612 0.960 . S
H1677 C1612 0.959 . S
H1678 C1615 0.928 1_565 S
H1679 C1619 0.931 . S
H1680 C1620 0.959 . S
H1681 C1620 0.961 . S
H1682 C1620 0.959 . S
H1683 C1621 0.960 . S
H1684 C1621 0.960 . S
H1685 C1621 0.960 . S
H1686 C1657 0.980 1_565 S
H1687 C1623 0.930 . S
H1688 C1627 0.930 . S
H1689 C1628 0.961 . S
H1690 C1628 0.960 . S
H1691 C1628 0.958 . S
H1692 C1629 0.961 . S
H1693 C1629 0.960 . S
H1694 C1629 0.960 . S
H1695 C1631 0.994 . S
H1696 C1630 0.961 . S
H1697 C1630 0.961 . S
H1698 C1630 0.959 . S
H1699 C1633 0.932 . S
H1700 C1637 0.929 . S
H1701 C1638 0.961 . S
H1702 C1638 0.959 . S
H1703 C1638 0.959 . S
H1704 C1639 0.960 . S
H1705 C1639 0.962 . S
H1706 C1639 0.961 . S
H1707 C1641 0.929 . S
H1708 C1644 0.930 . S
H1709 C1645 0.929 . S
H1710 C1648 0.930 . S
H1711 C1651 0.969 . S
H1712 C1652 0.930 . S
H1713 C1656 0.962 . S
H1714 C1656 0.959 . S
H1715 C1656 0.958 . S
C1716 C1717 1.560 . S
C1716 H1777 0.959 . S
C1716 H1778 0.959 . S
C1716 H1779 0.960 . S
C1717 C1716 1.560 . S
C1717 O1772 1.426 . S
C1717 H1776 0.980 1_455 S
C1718 C1719 1.407 1_455 S
C1718 C1723 1.418 . S
C1718 O1772 1.334 . S
C1719 C1718 1.407 1_655 S
C1719 C1720 1.360 . S
C1719 H1780 0.929 . S
C1720 C1719 1.360 . S
C1720 C1721 1.401 . S
C1720 C1724 1.527 . S
C1721 C1720 1.401 . S
C1721 C1722 1.405 1_655 S
C1721 C1754 1.587 . S
C1722 C1721 1.405 1_455 S
C1722 C1723 1.332 . S
C1722 C1725 1.496 . S
C1723 C1718 1.418 . S
C1723 C1722 1.332 . S
C1723 H1781 0.929 . S
C1724 C1720 1.527 . S
C1724 H1782 0.959 . S
C1724 H1783 0.961 . S
C1724 H1784 0.961 . S
C1725 C1722 1.496 . S
C1725 H1785 0.960 . S
C1725 H1786 0.960 . S
C1725 H1787 0.961 . S
C1726 C1727 1.517 . S
C1726 H1789 0.961 . S
C1726 H1790 0.960 . S
C1726 H1791 0.959 . S
C1727 C1726 1.517 . S
C1727 O1775 1.468 . S
C1727 H1788 0.980 . S
C1728 C1729 1.349 . S
C1728 C1733 1.367 . S
C1728 O1775 1.408 . S
C1729 C1728 1.349 . S
C1729 C1730 1.407 . S
C1729 H1792 0.923 1_655 S
C1730 C1729 1.407 . S
C1730 C1731 1.449 . S
C1730 C1734 1.535 1_655 S
C1731 C1730 1.449 . S
C1731 C1732 1.384 . S
C1731 C1756 1.553 . S
C1732 C1731 1.384 . S
C1732 C1733 1.364 . S
C1732 C1735 1.450 . S
C1733 C1728 1.367 . S
C1733 C1732 1.364 . S
C1733 H1793 0.931 . S
C1734 C1730 1.535 1_455 S
C1734 H1794 0.959 . S
C1734 H1795 0.961 . S
C1734 H1796 0.959 . S
C1735 C1732 1.450 . S
C1735 H1797 0.960 . S
C1735 H1798 0.960 . S
C1735 H1799 0.960 . S
C1736 C1737 1.309 1_655 S
C1736 C1741 1.304 . S
C1736 O1774 1.435 . S
C1737 C1736 1.309 1_455 S
C1737 C1738 1.476 . S
C1737 H1801 0.930 . S
C1738 C1737 1.476 . S
C1738 C1739 1.400 1_455 S
C1738 C1742 1.567 . S
C1739 C1738 1.400 1_655 S
C1739 C1740 1.373 . S
C1739 C1761 1.432 . S
C1740 C1739 1.373 . S
C1740 C1741 1.339 . S
C1740 C1743 1.530 . S
C1741 C1736 1.304 . S
C1741 C1740 1.339 . S
C1741 H1802 0.930 . S
C1742 C1738 1.567 . S
C1742 H1803 0.961 . S
C1742 H1804 0.960 . S
C1742 H1805 0.958 . S
C1743 C1740 1.530 . S
C1743 H1806 0.961 . S
C1743 H1807 0.960 . S
C1743 H1808 0.960 . S
C1744 C1745 1.530 . S
C1744 H1810 0.961 . S
C1744 H1811 0.961 . S
C1744 H1812 0.959 . S
C1745 C1744 1.530 . S
C1745 O1773 1.412 . S
C1745 H1809 0.989 . S
C1746 C1747 1.288 . S
C1746 C1751 1.377 1_455 S
C1746 O1773 1.393 . S
C1747 C1746 1.288 . S
C1747 C1748 1.369 . S
C1747 H1813 0.932 . S
C1748 C1747 1.369 . S
C1748 C1749 1.398 . S
C1748 C1752 1.527 . S
C1749 C1748 1.398 . S
C1749 C1750 1.380 1_455 S
C1749 C1763 1.497 1_455 S
C1750 C1749 1.380 1_655 S
C1750 C1751 1.383 . S
C1750 C1753 1.603 . S
C1751 C1746 1.377 1_655 S
C1751 C1750 1.383 . S
C1751 H1814 0.929 . S
C1752 C1748 1.527 . S
C1752 H1815 0.961 . S
C1752 H1816 0.959 . S
C1752 H1817 0.959 . S
C1753 C1750 1.603 . S
C1753 H1818 0.960 . S
C1753 H1819 0.962 . S
C1753 H1820 0.961 . S
C1754 C1721 1.587 . S
C1754 C1755 1.360 . S
C1754 C1767 1.412 . S
C1755 C1754 1.360 . S
C1755 C1756 1.365 . S
C1755 H1821 0.929 . S
C1756 C1731 1.553 . S
C1756 C1755 1.365 . S
C1756 C1757 1.404 . S
C1757 C1756 1.404 . S
C1757 C1758 1.395 . S
C1757 C1768 1.451 . S
C1758 C1757 1.395 . S
C1758 C1759 1.322 . S
C1758 H1822 0.930 . S
C1759 C1758 1.322 . S
C1759 C1760 1.459 . S
C1759 H1823 0.929 . S
C1760 C1759 1.459 . S
C1760 C1761 1.445 . S
C1760 C1769 1.395 . S
C1761 C1739 1.432 . S
C1761 C1760 1.445 . S
C1761 C1762 1.370 . S
C1762 C1761 1.370 . S
C1762 C1763 1.438 . S
C1762 H1824 0.930 . S
C1763 C1749 1.497 1_655 S
C1763 C1762 1.438 . S
C1763 C1764 1.360 . S
C1764 C1763 1.360 . S
C1764 C1765 1.401 . S
C1764 C1769 1.446 . S
C1765 C1764 1.401 . S
C1765 C1766 1.347 . S
C1765 H1825 0.911 . S
C1766 C1765 1.347 . S
C1766 C1767 1.455 . S
C1766 H1826 0.930 . S
C1767 C1754 1.412 . S
C1767 C1766 1.455 . S
C1767 C1768 1.331 . S
C1768 C1757 1.451 . S
C1768 C1767 1.331 . S
C1768 C1769 1.497 . S
C1769 C1760 1.395 . S
C1769 C1764 1.446 . S
C1769 C1768 1.497 . S
C1770 C1771 1.581 1_655 S
C1770 H1827 0.994 . S
C1770 H1828 0.959 . S
C1770 H1829 0.958 . S
C1771 C1770 1.581 1_455 S
C1771 O1774 1.436 1_455 S
C1771 H1800 0.989 . S
O1772 C1717 1.426 . S
O1772 C1718 1.334 . S
O1773 C1745 1.412 . S
O1773 C1746 1.393 . S
O1774 C1736 1.435 . S
O1774 C1771 1.436 1_655 S
O1775 C1727 1.468 . S
O1775 C1728 1.408 . S
H1776 C1717 0.980 1_655 S
H1777 C1716 0.959 . S
H1778 C1716 0.959 . S
H1779 C1716 0.960 . S
H1780 C1719 0.929 . S
H1781 C1723 0.929 . S
H1782 C1724 0.959 . S
H1783 C1724 0.961 . S
H1784 C1724 0.961 . S
H1785 C1725 0.960 . S
H1786 C1725 0.960 . S
H1787 C1725 0.961 . S
H1788 C1727 0.980 . S
H1789 C1726 0.961 . S
H1790 C1726 0.960 . S
H1791 C1726 0.959 . S
H1792 C1729 0.923 1_455 S
H1793 C1733 0.931 . S
H1794 C1734 0.959 . S
H1795 C1734 0.961 . S
H1796 C1734 0.959 . S
H1797 C1735 0.960 . S
H1798 C1735 0.960 . S
H1799 C1735 0.960 . S
H1800 C1771 0.989 . S
H1801 C1737 0.930 . S
H1802 C1741 0.930 . S
H1803 C1742 0.961 . S
H1804 C1742 0.960 . S
H1805 C1742 0.958 . S
H1806 C1743 0.961 . S
H1807 C1743 0.960 . S
H1808 C1743 0.960 . S
H1809 C1745 0.989 . S
H1810 C1744 0.961 . S
H1811 C1744 0.961 . S
H1812 C1744 0.959 . S
H1813 C1747 0.932 . S
H1814 C1751 0.929 . S
H1815 C1752 0.961 . S
H1816 C1752 0.959 . S
H1817 C1752 0.959 . S
H1818 C1753 0.960 . S
H1819 C1753 0.962 . S
H1820 C1753 0.961 . S
H1821 C1755 0.929 . S
H1822 C1758 0.930 . S
H1823 C1759 0.929 . S
H1824 C1762 0.930 . S
H1825 C1765 0.911 . S
H1826 C1766 0.930 . S
H1827 C1770 0.994 . S
H1828 C1770 0.959 . S
H1829 C1770 0.958 . S
C1830 C1831 1.560 . S
C1830 H1891 0.959 . S
C1830 H1892 0.959 . S
C1830 H1893 0.960 . S
C1831 C1830 1.560 . S
C1831 O1886 1.426 . S
C1831 H1890 0.980 . S
C1832 C1833 1.407 . S
C1832 C1837 1.418 . S
C1832 O1886 1.334 . S
C1833 C1832 1.407 . S
C1833 C1834 1.360 . S
C1833 H1894 0.929 . S
C1834 C1833 1.360 . S
C1834 C1835 1.401 . S
C1834 C1838 1.527 . S
C1835 C1834 1.401 . S
C1835 C1836 1.405 . S
C1835 C1868 1.587 . S
C1836 C1835 1.405 . S
C1836 C1837 1.332 . S
C1836 C1839 1.496 . S
C1837 C1832 1.418 . S
C1837 C1836 1.332 . S
C1837 H1895 0.929 . S
C1838 C1834 1.527 . S
C1838 H1896 0.959 . S
C1838 H1897 0.961 . S
C1838 H1898 0.961 . S
C1839 C1836 1.496 . S
C1839 H1899 0.960 . S
C1839 H1900 0.960 . S
C1839 H1901 0.961 . S
C1840 C1841 1.517 . S
C1840 H1903 0.961 . S
C1840 H1904 0.960 . S
C1840 H1905 0.959 . S
C1841 C1840 1.517 . S
C1841 O1889 1.468 . S
C1841 H1902 0.980 . S
C1842 C1843 1.349 . S
C1842 C1847 1.367 . S
C1842 O1889 1.408 . S
C1843 C1842 1.349 . S
C1843 C1844 1.407 . S
C1843 H1906 0.930 . S
C1844 C1843 1.407 . S
C1844 C1845 1.449 . S
C1844 C1848 1.535 . S
C1845 C1844 1.449 . S
C1845 C1846 1.384 . S
C1845 C1870 1.553 . S
C1846 C1845 1.384 . S
C1846 C1847 1.364 . S
C1846 C1849 1.450 . S
C1847 C1842 1.367 . S
C1847 C1846 1.364 . S
C1847 H1907 0.931 . S
C1848 C1844 1.535 . S
C1848 H1908 0.959 . S
C1848 H1909 0.961 . S
C1848 H1910 0.959 . S
C1849 C1846 1.450 . S
C1849 H1911 0.960 . S
C1849 H1912 0.960 . S
C1849 H1913 0.960 . S
C1850 C1851 1.309 . S
C1850 C1855 1.304 . S
C1850 O1888 1.435 . S
C1851 C1850 1.309 . S
C1851 C1852 1.476 . S
C1851 H1915 0.930 . S
C1852 C1851 1.476 . S
C1852 C1853 1.400 . S
C1852 C1856 1.567 . S
C1853 C1852 1.400 . S
C1853 C1854 1.373 . S
C1853 C1875 1.432 . S
C1854 C1853 1.373 . S
C1854 C1855 1.339 . S
C1854 C1857 1.530 . S
C1855 C1850 1.304 . S
C1855 C1854 1.339 . S
C1855 H1916 0.930 . S
C1856 C1852 1.567 . S
C1856 H1917 0.961 . S
C1856 H1918 0.960 . S
C1856 H1919 0.958 . S
C1857 C1854 1.530 . S
C1857 H1920 0.961 . S
C1857 H1921 0.960 . S
C1857 H1922 0.960 . S
C1858 C1859 1.530 . S
C1858 H1924 0.961 . S
C1858 H1925 0.961 . S
C1858 H1926 0.959 . S
C1859 C1858 1.530 . S
C1859 O1887 1.412 . S
C1859 H1923 0.980 . S
C1860 C1861 1.288 . S
C1860 C1865 1.377 . S
C1860 O1887 1.393 . S
C1861 C1860 1.288 . S
C1861 C1862 1.369 . S
C1861 H1927 0.932 . S
C1862 C1861 1.369 . S
C1862 C1863 1.398 . S
C1862 C1866 1.527 . S
C1863 C1862 1.398 . S
C1863 C1864 1.380 . S
C1863 C1877 1.497 . S
C1864 C1863 1.380 . S
C1864 C1865 1.383 . S
C1864 C1867 1.603 . S
C1865 C1860 1.377 . S
C1865 C1864 1.383 . S
C1865 H1928 0.929 . S
C1866 C1862 1.527 . S
C1866 H1929 0.961 . S
C1866 H1930 0.959 . S
C1866 H1931 0.959 . S
C1867 C1864 1.603 . S
C1867 H1932 0.960 . S
C1867 H1933 0.962 . S
C1867 H1934 0.961 . S
C1868 C1835 1.587 . S
C1868 C1869 1.360 . S
C1868 C1881 1.412 . S
C1869 C1868 1.360 . S
C1869 C1870 1.365 . S
C1869 H1935 0.929 . S
C1870 C1845 1.553 . S
C1870 C1869 1.365 . S
C1870 C1871 1.404 . S
C1871 C1870 1.404 . S
C1871 C1872 1.395 . S
C1871 C1882 1.451 . S
C1872 C1871 1.395 . S
C1872 C1873 1.322 . S
C1872 H1936 0.930 . S
C1873 C1872 1.322 . S
C1873 C1874 1.459 . S
C1873 H1937 0.929 . S
C1874 C1873 1.459 . S
C1874 C1875 1.445 . S
C1874 C1883 1.395 . S
C1875 C1853 1.432 . S
C1875 C1874 1.445 . S
C1875 C1876 1.370 . S
C1876 C1875 1.370 . S
C1876 C1877 1.438 . S
C1876 H1938 0.930 . S
C1877 C1863 1.497 . S
C1877 C1876 1.438 . S
C1877 C1878 1.360 . S
C1878 C1877 1.360 . S
C1878 C1879 1.401 . S
C1878 C1883 1.446 . S
C1879 C1878 1.401 . S
C1879 C1880 1.347 . S
C1879 H1939 0.929 . S
C1880 C1879 1.347 . S
C1880 C1881 1.455 . S
C1880 H1940 0.930 . S
C1881 C1868 1.412 . S
C1881 C1880 1.455 . S
C1881 C1882 1.331 . S
C1882 C1871 1.451 . S
C1882 C1881 1.331 . S
C1882 C1883 1.497 . S
C1883 C1874 1.395 . S
C1883 C1878 1.446 . S
C1883 C1882 1.497 . S
C1884 C1885 1.582 . S
C1884 H1941 0.962 . S
C1884 H1942 0.959 . S
C1884 H1943 0.958 . S
C1885 C1884 1.582 . S
C1885 O1888 1.458 . S
C1885 H1914 0.980 . S
O1886 C1831 1.426 . S
O1886 C1832 1.334 . S
O1887 C1859 1.412 . S
O1887 C1860 1.393 . S
O1888 C1850 1.435 . S
O1888 C1885 1.458 . S
O1889 C1841 1.468 . S
O1889 C1842 1.408 . S
H1890 C1831 0.980 . S
H1891 C1830 0.959 . S
H1892 C1830 0.959 . S
H1893 C1830 0.960 . S
H1894 C1833 0.929 . S
H1895 C1837 0.929 . S
H1896 C1838 0.959 . S
H1897 C1838 0.961 . S
H1898 C1838 0.961 . S
H1899 C1839 0.960 . S
H1900 C1839 0.960 . S
H1901 C1839 0.961 . S
H1902 C1841 0.980 . S
H1903 C1840 0.961 . S
H1904 C1840 0.960 . S
H1905 C1840 0.959 . S
H1906 C1843 0.930 . S
H1907 C1847 0.931 . S
H1908 C1848 0.959 . S
H1909 C1848 0.961 . S
H1910 C1848 0.959 . S
H1911 C1849 0.960 . S
H1912 C1849 0.960 . S
H1913 C1849 0.960 . S
H1914 C1885 0.980 . S
H1915 C1851 0.930 . S
H1916 C1855 0.930 . S
H1917 C1856 0.961 . S
H1918 C1856 0.960 . S
H1919 C1856 0.958 . S
H1920 C1857 0.961 . S
H1921 C1857 0.960 . S
H1922 C1857 0.960 . S
H1923 C1859 0.980 . S
H1924 C1858 0.961 . S
H1925 C1858 0.961 . S
H1926 C1858 0.959 . S
H1927 C1861 0.932 . S
H1928 C1865 0.929 . S
H1929 C1866 0.961 . S
H1930 C1866 0.959 . S
H1931 C1866 0.959 . S
H1932 C1867 0.960 . S
H1933 C1867 0.962 . S
H1934 C1867 0.961 . S
H1935 C1869 0.929 . S
H1936 C1872 0.930 . S
H1937 C1873 0.929 . S
H1938 C1876 0.930 . S
H1939 C1879 0.929 . S
H1940 C1880 0.930 . S
H1941 C1884 0.962 . S
H1942 C1884 0.959 . S
H1943 C1884 0.958 . S
C1944 C1945 1.560 . S
C1944 H2005 0.959 . S
C1944 H2006 0.959 . S
C1944 H2007 0.960 . S
C1945 C1944 1.560 . S
C1945 O2000 1.426 . S
C1945 H2004 0.980 . S
C1946 C1947 1.407 . S
C1946 C1951 1.418 . S
C1946 O2000 1.334 . S
C1947 C1946 1.407 . S
C1947 C1948 1.360 . S
C1947 H2008 0.929 . S
C1948 C1947 1.360 . S
C1948 C1949 1.401 . S
C1948 C1952 1.527 . S
C1949 C1948 1.401 . S
C1949 C1950 1.405 . S
C1949 C1982 1.587 . S
C1950 C1949 1.405 . S
C1950 C1951 1.332 . S
C1950 C1953 1.496 . S
C1951 C1946 1.418 . S
C1951 C1950 1.332 . S
C1951 H2009 0.929 . S
C1952 C1948 1.527 . S
C1952 H2010 0.959 . S
C1952 H2011 0.961 . S
C1952 H2012 0.961 . S
C1953 C1950 1.496 . S
C1953 H2013 0.960 . S
C1953 H2014 0.960 . S
C1953 H2015 0.961 . S
C1954 C1955 1.517 . S
C1954 H2017 0.961 . S
C1954 H2018 0.960 . S
C1954 H2019 0.959 . S
C1955 C1954 1.517 . S
C1955 O2003 1.468 . S
C1955 H2016 0.980 . S
C1956 C1957 1.349 . S
C1956 C1961 1.367 . S
C1956 O2003 1.408 . S
C1957 C1956 1.349 . S
C1957 C1958 1.407 . S
C1957 H2020 0.930 . S
C1958 C1957 1.407 . S
C1958 C1959 1.449 . S
C1958 C1962 1.535 . S
C1959 C1958 1.449 . S
C1959 C1960 1.384 . S
C1959 C1984 1.553 . S
C1960 C1959 1.384 . S
C1960 C1961 1.364 . S
C1960 C1963 1.450 . S
C1961 C1956 1.367 . S
C1961 C1960 1.364 . S
C1961 H2021 0.931 . S
C1962 C1958 1.535 . S
C1962 H2022 0.959 . S
C1962 H2023 0.961 . S
C1962 H2024 0.959 . S
C1963 C1960 1.450 . S
C1963 H2025 0.960 . S
C1963 H2026 0.960 . S
C1963 H2027 0.960 . S
C1964 C1965 1.309 . S
C1964 C1969 1.304 . S
C1964 O2002 1.435 . S
C1965 C1964 1.309 . S
C1965 C1966 1.476 . S
C1965 H2029 0.930 . S
C1966 C1965 1.476 . S
C1966 C1967 1.400 . S
C1966 C1970 1.567 . S
C1967 C1966 1.400 . S
C1967 C1968 1.373 . S
C1967 C1989 1.432 . S
C1968 C1967 1.373 . S
C1968 C1969 1.339 . S
C1968 C1971 1.530 . S
C1969 C1964 1.304 . S
C1969 C1968 1.339 . S
C1969 H2030 0.930 . S
C1970 C1966 1.567 . S
C1970 H2031 0.961 . S
C1970 H2032 0.960 . S
C1970 H2033 0.958 . S
C1971 C1968 1.530 . S
C1971 H2034 0.961 . S
C1971 H2035 0.960 . S
C1971 H2036 0.960 . S
C1972 C1973 1.530 . S
C1972 H2038 0.961 . S
C1972 H2039 0.961 . S
C1972 H2040 0.959 . S
C1973 C1972 1.530 . S
C1973 O2001 1.412 . S
C1973 H2037 0.980 . S
C1974 C1975 1.288 . S
C1974 C1979 1.377 . S
C1974 O2001 1.393 . S
C1975 C1974 1.288 . S
C1975 C1976 1.369 . S
C1975 H2041 0.932 . S
C1976 C1975 1.369 . S
C1976 C1977 1.398 . S
C1976 C1980 1.527 . S
C1977 C1976 1.398 . S
C1977 C1978 1.380 . S
C1977 C1991 1.497 . S
C1978 C1977 1.380 . S
C1978 C1979 1.383 . S
C1978 C1981 1.603 . S
C1979 C1974 1.377 . S
C1979 C1978 1.383 . S
C1979 H2042 0.929 . S
C1980 C1976 1.527 . S
C1980 H2043 0.961 . S
C1980 H2044 0.959 . S
C1980 H2045 0.959 . S
C1981 C1978 1.603 . S
C1981 H2046 0.960 . S
C1981 H2047 0.962 . S
C1981 H2048 0.961 . S
C1982 C1949 1.587 . S
C1982 C1983 1.360 . S
C1982 C1995 1.412 . S
C1983 C1982 1.360 . S
C1983 C1984 1.365 . S
C1983 H2049 0.929 . S
C1984 C1959 1.553 . S
C1984 C1983 1.365 . S
C1984 C1985 1.404 . S
C1985 C1984 1.404 . S
C1985 C1986 1.395 . S
C1985 C1996 1.451 . S
C1986 C1985 1.395 . S
C1986 C1987 1.322 . S
C1986 H2050 0.930 . S
C1987 C1986 1.322 . S
C1987 C1988 1.459 . S
C1987 H2051 0.929 . S
C1988 C1987 1.459 . S
C1988 C1989 1.445 . S
C1988 C1997 1.395 . S
C1989 C1967 1.432 . S
C1989 C1988 1.445 . S
C1989 C1990 1.370 . S
C1990 C1989 1.370 . S
C1990 C1991 1.438 . S
C1990 H2052 0.930 . S
C1991 C1977 1.497 . S
C1991 C1990 1.438 . S
C1991 C1992 1.360 . S
C1992 C1991 1.360 . S
C1992 C1993 1.401 . S
C1992 C1997 1.446 . S
C1993 C1992 1.401 . S
C1993 C1994 1.347 . S
C1993 H2053 0.929 . S
C1994 C1993 1.347 . S
C1994 C1995 1.455 . S
C1994 H2054 0.930 . S
C1995 C1982 1.412 . S
C1995 C1994 1.455 . S
C1995 C1996 1.331 . S
C1996 C1985 1.451 . S
C1996 C1995 1.331 . S
C1996 C1997 1.497 . S
C1997 C1988 1.395 . S
C1997 C1992 1.446 . S
C1997 C1996 1.497 . S
C1998 C1999 1.582 . S
C1998 H2055 0.962 . S
C1998 H2056 0.959 . S
C1998 H2057 0.958 . S
C1999 C1998 1.582 . S
C1999 O2002 1.458 . S
C1999 H2028 0.980 . S
O2000 C1945 1.426 . S
O2000 C1946 1.334 . S
O2001 C1973 1.412 . S
O2001 C1974 1.393 . S
O2002 C1964 1.435 . S
O2002 C1999 1.458 . S
O2003 C1955 1.468 . S
O2003 C1956 1.408 . S
H2004 C1945 0.980 . S
H2005 C1944 0.959 . S
H2006 C1944 0.959 . S
H2007 C1944 0.960 . S
H2008 C1947 0.929 . S
H2009 C1951 0.929 . S
H2010 C1952 0.959 . S
H2011 C1952 0.961 . S
H2012 C1952 0.961 . S
H2013 C1953 0.960 . S
H2014 C1953 0.960 . S
H2015 C1953 0.961 . S
H2016 C1955 0.980 . S
H2017 C1954 0.961 . S
H2018 C1954 0.960 . S
H2019 C1954 0.959 . S
H2020 C1957 0.930 . S
H2021 C1961 0.931 . S
H2022 C1962 0.959 . S
H2023 C1962 0.961 . S
H2024 C1962 0.959 . S
H2025 C1963 0.960 . S
H2026 C1963 0.960 . S
H2027 C1963 0.960 . S
H2028 C1999 0.980 . S
H2029 C1965 0.930 . S
H2030 C1969 0.930 . S
H2031 C1970 0.961 . S
H2032 C1970 0.960 . S
H2033 C1970 0.958 . S
H2034 C1971 0.961 . S
H2035 C1971 0.960 . S
H2036 C1971 0.960 . S
H2037 C1973 0.980 . S
H2038 C1972 0.961 . S
H2039 C1972 0.961 . S
H2040 C1972 0.959 . S
H2041 C1975 0.932 . S
H2042 C1979 0.929 . S
H2043 C1980 0.961 . S
H2044 C1980 0.959 . S
H2045 C1980 0.959 . S
H2046 C1981 0.960 . S
H2047 C1981 0.962 . S
H2048 C1981 0.961 . S
H2049 C1983 0.929 . S
H2050 C1986 0.930 . S
H2051 C1987 0.929 . S
H2052 C1990 0.930 . S
H2053 C1993 0.929 . S
H2054 C1994 0.930 . S
H2055 C1998 0.962 . S
H2056 C1998 0.959 . S
H2057 C1998 0.958 . S
C2058 C2059 1.560 . S
C2058 H2119 0.959 . S
C2058 H2120 0.959 . S
C2058 H2121 0.960 . S
C2059 C2058 1.560 . S
C2059 O2114 1.426 . S
C2059 H2118 0.980 . S
C2060 C2061 1.407 . S
C2060 C2065 1.418 . S
C2060 O2114 1.334 . S
C2061 C2060 1.407 . S
C2061 C2062 1.360 . S
C2061 H2122 0.929 . S
C2062 C2061 1.360 . S
C2062 C2063 1.401 . S
C2062 C2066 1.527 . S
C2063 C2062 1.401 . S
C2063 C2064 1.405 . S
C2063 C2096 1.587 . S
C2064 C2063 1.405 . S
C2064 C2065 1.332 . S
C2064 C2067 1.496 . S
C2065 C2060 1.418 . S
C2065 C2064 1.332 . S
C2065 H2123 0.929 . S
C2066 C2062 1.527 . S
C2066 H2124 0.959 . S
C2066 H2125 0.961 . S
C2066 H2126 0.961 . S
C2067 C2064 1.496 . S
C2067 H2127 0.960 . S
C2067 H2128 0.960 . S
C2067 H2129 0.961 . S
C2068 C2069 1.517 . S
C2068 H2131 0.961 . S
C2068 H2132 0.960 . S
C2068 H2133 0.959 . S
C2069 C2068 1.517 . S
C2069 O2117 1.468 . S
C2069 H2130 0.980 . S
C2070 C2071 1.349 . S
C2070 C2075 1.367 . S
C2070 O2117 1.408 . S
C2071 C2070 1.349 . S
C2071 C2072 1.407 . S
C2071 H2134 0.930 . S
C2072 C2071 1.407 . S
C2072 C2073 1.449 . S
C2072 C2076 1.535 . S
C2073 C2072 1.449 . S
C2073 C2074 1.384 . S
C2073 C2098 1.553 . S
C2074 C2073 1.384 . S
C2074 C2075 1.364 . S
C2074 C2077 1.450 . S
C2075 C2070 1.367 . S
C2075 C2074 1.364 . S
C2075 H2135 0.931 . S
C2076 C2072 1.535 . S
C2076 H2136 0.959 . S
C2076 H2137 0.961 . S
C2076 H2138 0.959 . S
C2077 C2074 1.450 . S
C2077 H2139 0.960 . S
C2077 H2140 0.960 . S
C2077 H2141 0.960 . S
C2078 C2079 1.309 . S
C2078 C2083 1.304 . S
C2078 O2116 1.435 . S
C2079 C2078 1.309 . S
C2079 C2080 1.476 . S
C2079 H2143 0.930 . S
C2080 C2079 1.476 . S
C2080 C2081 1.400 . S
C2080 C2084 1.567 . S
C2081 C2080 1.400 . S
C2081 C2082 1.373 . S
C2081 C2103 1.432 . S
C2082 C2081 1.373 . S
C2082 C2083 1.339 . S
C2082 C2085 1.530 . S
C2083 C2078 1.304 . S
C2083 C2082 1.339 . S
C2083 H2144 0.930 . S
C2084 C2080 1.567 . S
C2084 H2145 0.961 . S
C2084 H2146 0.960 . S
C2084 H2147 0.958 . S
C2085 C2082 1.530 . S
C2085 H2148 0.961 . S
C2085 H2149 0.960 . S
C2085 H2150 0.960 . S
C2086 C2087 1.530 . S
C2086 H2152 0.961 . S
C2086 H2153 0.961 . S
C2086 H2154 0.959 . S
C2087 C2086 1.530 . S
C2087 O2115 1.412 . S
C2087 H2151 0.980 . S
C2088 C2089 1.288 . S
C2088 C2093 1.377 . S
C2088 O2115 1.393 . S
C2089 C2088 1.288 . S
C2089 C2090 1.369 . S
C2089 H2155 0.932 . S
C2090 C2089 1.369 . S
C2090 C2091 1.398 . S
C2090 C2094 1.527 . S
C2091 C2090 1.398 . S
C2091 C2092 1.380 . S
C2091 C2105 1.497 . S
C2092 C2091 1.380 . S
C2092 C2093 1.383 . S
C2092 C2095 1.603 . S
C2093 C2088 1.377 . S
C2093 C2092 1.383 . S
C2093 H2156 0.929 . S
C2094 C2090 1.527 . S
C2094 H2157 0.961 . S
C2094 H2158 0.959 . S
C2094 H2159 0.959 . S
C2095 C2092 1.603 . S
C2095 H2160 0.960 . S
C2095 H2161 0.962 . S
C2095 H2162 0.961 . S
C2096 C2063 1.587 . S
C2096 C2097 1.360 . S
C2096 C2109 1.412 . S
C2097 C2096 1.360 . S
C2097 C2098 1.365 . S
C2097 H2163 0.929 . S
C2098 C2073 1.553 . S
C2098 C2097 1.365 . S
C2098 C2099 1.404 . S
C2099 C2098 1.404 . S
C2099 C2100 1.395 . S
C2099 C2110 1.451 . S
C2100 C2099 1.395 . S
C2100 C2101 1.322 . S
C2100 H2164 0.930 . S
C2101 C2100 1.322 . S
C2101 C2102 1.459 . S
C2101 H2165 0.929 . S
C2102 C2101 1.459 . S
C2102 C2103 1.445 . S
C2102 C2111 1.395 . S
C2103 C2081 1.432 . S
C2103 C2102 1.445 . S
C2103 C2104 1.370 . S
C2104 C2103 1.370 . S
C2104 C2105 1.438 . S
C2104 H2166 0.930 . S
C2105 C2091 1.497 . S
C2105 C2104 1.438 . S
C2105 C2106 1.360 . S
C2106 C2105 1.360 . S
C2106 C2107 1.401 . S
C2106 C2111 1.446 . S
C2107 C2106 1.401 . S
C2107 C2108 1.347 . S
C2107 H2167 0.929 . S
C2108 C2107 1.347 . S
C2108 C2109 1.455 . S
C2108 H2168 0.930 . S
C2109 C2096 1.412 . S
C2109 C2108 1.455 . S
C2109 C2110 1.331 . S
C2110 C2099 1.451 . S
C2110 C2109 1.331 . S
C2110 C2111 1.497 . S
C2111 C2102 1.395 . S
C2111 C2106 1.446 . S
C2111 C2110 1.497 . S
C2112 C2113 1.582 . S
C2112 H2169 0.962 . S
C2112 H2170 0.959 . S
C2112 H2171 0.958 . S
C2113 C2112 1.582 . S
C2113 O2116 1.458 . S
C2113 H2142 0.980 . S
O2114 C2059 1.426 . S
O2114 C2060 1.334 . S
O2115 C2087 1.412 . S
O2115 C2088 1.393 . S
O2116 C2078 1.435 . S
O2116 C2113 1.458 . S
O2117 C2069 1.468 . S
O2117 C2070 1.408 . S
H2118 C2059 0.980 . S
H2119 C2058 0.959 . S
H2120 C2058 0.959 . S
H2121 C2058 0.960 . S
H2122 C2061 0.929 . S
H2123 C2065 0.929 . S
H2124 C2066 0.959 . S
H2125 C2066 0.961 . S
H2126 C2066 0.961 . S
H2127 C2067 0.960 . S
H2128 C2067 0.960 . S
H2129 C2067 0.961 . S
H2130 C2069 0.980 . S
H2131 C2068 0.961 . S
H2132 C2068 0.960 . S
H2133 C2068 0.959 . S
H2134 C2071 0.930 . S
H2135 C2075 0.931 . S
H2136 C2076 0.959 . S
H2137 C2076 0.961 . S
H2138 C2076 0.959 . S
H2139 C2077 0.960 . S
H2140 C2077 0.960 . S
H2141 C2077 0.960 . S
H2142 C2113 0.980 . S
H2143 C2079 0.930 . S
H2144 C2083 0.930 . S
H2145 C2084 0.961 . S
H2146 C2084 0.960 . S
H2147 C2084 0.958 . S
H2148 C2085 0.961 . S
H2149 C2085 0.960 . S
H2150 C2085 0.960 . S
H2151 C2087 0.980 . S
H2152 C2086 0.961 . S
H2153 C2086 0.961 . S
H2154 C2086 0.959 . S
H2155 C2089 0.932 . S
H2156 C2093 0.929 . S
H2157 C2094 0.961 . S
H2158 C2094 0.959 . S
H2159 C2094 0.959 . S
H2160 C2095 0.960 . S
H2161 C2095 0.962 . S
H2162 C2095 0.961 . S
H2163 C2097 0.929 . S
H2164 C2100 0.930 . S
H2165 C2101 0.929 . S
H2166 C2104 0.930 . S
H2167 C2107 0.929 . S
H2168 C2108 0.930 . S
H2169 C2112 0.962 . S
H2170 C2112 0.959 . S
H2171 C2112 0.958 . S
C2172 C2173 1.560 . S
C2172 H2233 0.959 . S
C2172 H2234 0.959 . S
C2172 H2235 0.960 . S
C2173 C2172 1.560 . S
C2173 O2228 1.426 . S
C2173 H2232 0.980 . S
C2174 C2175 1.407 . S
C2174 C2179 1.418 . S
C2174 O2228 1.334 . S
C2175 C2174 1.407 . S
C2175 C2176 1.360 . S
C2175 H2236 0.929 . S
C2176 C2175 1.360 . S
C2176 C2177 1.401 . S
C2176 C2180 1.527 . S
C2177 C2176 1.401 . S
C2177 C2178 1.405 . S
C2177 C2210 1.587 . S
C2178 C2177 1.405 . S
C2178 C2179 1.332 . S
C2178 C2181 1.496 . S
C2179 C2174 1.418 . S
C2179 C2178 1.332 . S
C2179 H2237 0.929 . S
C2180 C2176 1.527 . S
C2180 H2238 0.959 . S
C2180 H2239 0.961 . S
C2180 H2240 0.961 . S
C2181 C2178 1.496 . S
C2181 H2241 0.960 . S
C2181 H2242 0.960 . S
C2181 H2243 0.961 . S
C2182 C2183 1.517 . S
C2182 H2245 0.961 . S
C2182 H2246 0.960 . S
C2182 H2247 0.959 . S
C2183 C2182 1.517 . S
C2183 O2231 1.468 . S
C2183 H2244 0.980 . S
C2184 C2185 1.349 . S
C2184 C2189 1.367 . S
C2184 O2231 1.408 . S
C2185 C2184 1.349 . S
C2185 C2186 1.407 . S
C2185 H2248 0.930 . S
C2186 C2185 1.407 . S
C2186 C2187 1.449 . S
C2186 C2190 1.535 . S
C2187 C2186 1.449 . S
C2187 C2188 1.384 . S
C2187 C2212 1.553 . S
C2188 C2187 1.384 . S
C2188 C2189 1.364 . S
C2188 C2191 1.450 . S
C2189 C2184 1.367 . S
C2189 C2188 1.364 . S
C2189 H2249 0.931 . S
C2190 C2186 1.535 . S
C2190 H2250 0.959 . S
C2190 H2251 0.961 . S
C2190 H2252 0.959 . S
C2191 C2188 1.450 . S
C2191 H2253 0.960 . S
C2191 H2254 0.960 . S
C2191 H2255 0.960 . S
C2192 C2193 1.309 . S
C2192 C2197 1.304 . S
C2192 O2230 1.435 . S
C2193 C2192 1.309 . S
C2193 C2194 1.476 . S
C2193 H2257 0.930 . S
C2194 C2193 1.476 . S
C2194 C2195 1.400 . S
C2194 C2198 1.567 . S
C2195 C2194 1.400 . S
C2195 C2196 1.373 . S
C2195 C2217 1.432 . S
C2196 C2195 1.373 . S
C2196 C2197 1.339 . S
C2196 C2199 1.530 . S
C2197 C2192 1.304 . S
C2197 C2196 1.339 . S
C2197 H2258 0.930 . S
C2198 C2194 1.567 . S
C2198 H2259 0.961 . S
C2198 H2260 0.960 . S
C2198 H2261 0.958 . S
C2199 C2196 1.530 . S
C2199 H2262 0.961 . S
C2199 H2263 0.960 . S
C2199 H2264 0.960 . S
C2200 C2201 1.530 . S
C2200 H2266 0.961 . S
C2200 H2267 0.961 . S
C2200 H2268 0.959 . S
C2201 C2200 1.530 . S
C2201 O2229 1.412 . S
C2201 H2265 0.980 . S
C2202 C2203 1.288 . S
C2202 C2207 1.377 . S
C2202 O2229 1.393 . S
C2203 C2202 1.288 . S
C2203 C2204 1.369 . S
C2203 H2269 0.932 . S
C2204 C2203 1.369 . S
C2204 C2205 1.398 . S
C2204 C2208 1.527 . S
C2205 C2204 1.398 . S
C2205 C2206 1.380 . S
C2205 C2219 1.497 . S
C2206 C2205 1.380 . S
C2206 C2207 1.383 . S
C2206 C2209 1.603 . S
C2207 C2202 1.377 . S
C2207 C2206 1.383 . S
C2207 H2270 0.929 . S
C2208 C2204 1.527 . S
C2208 H2271 0.961 . S
C2208 H2272 0.959 . S
C2208 H2273 0.959 . S
C2209 C2206 1.603 . S
C2209 H2274 0.960 . S
C2209 H2275 0.962 . S
C2209 H2276 0.961 . S
C2210 C2177 1.587 . S
C2210 C2211 1.360 . S
C2210 C2223 1.412 . S
C2211 C2210 1.360 . S
C2211 C2212 1.365 . S
C2211 H2277 0.929 . S
C2212 C2187 1.553 . S
C2212 C2211 1.365 . S
C2212 C2213 1.404 . S
C2213 C2212 1.404 . S
C2213 C2214 1.395 . S
C2213 C2224 1.451 . S
C2214 C2213 1.395 . S
C2214 C2215 1.322 . S
C2214 H2278 0.930 . S
C2215 C2214 1.322 . S
C2215 C2216 1.459 . S
C2215 H2279 0.929 . S
C2216 C2215 1.459 . S
C2216 C2217 1.445 . S
C2216 C2225 1.395 . S
C2217 C2195 1.432 . S
C2217 C2216 1.445 . S
C2217 C2218 1.370 . S
C2218 C2217 1.370 . S
C2218 C2219 1.438 . S
C2218 H2280 0.930 . S
C2219 C2205 1.497 . S
C2219 C2218 1.438 . S
C2219 C2220 1.360 . S
C2220 C2219 1.360 . S
C2220 C2221 1.401 . S
C2220 C2225 1.446 . S
C2221 C2220 1.401 . S
C2221 C2222 1.347 . S
C2221 H2281 0.929 . S
C2222 C2221 1.347 . S
C2222 C2223 1.455 . S
C2222 H2282 0.930 . S
C2223 C2210 1.412 . S
C2223 C2222 1.455 . S
C2223 C2224 1.331 . S
C2224 C2213 1.451 . S
C2224 C2223 1.331 . S
C2224 C2225 1.497 . S
C2225 C2216 1.395 . S
C2225 C2220 1.446 . S
C2225 C2224 1.497 . S
C2226 C2227 1.582 . S
C2226 H2283 0.962 . S
C2226 H2284 0.959 . S
C2226 H2285 0.958 . S
C2227 C2226 1.582 . S
C2227 O2230 1.458 . S
C2227 H2256 0.980 . S
O2228 C2173 1.426 . S
O2228 C2174 1.334 . S
O2229 C2201 1.412 . S
O2229 C2202 1.393 . S
O2230 C2192 1.435 . S
O2230 C2227 1.458 . S
O2231 C2183 1.468 . S
O2231 C2184 1.408 . S
H2232 C2173 0.980 . S
H2233 C2172 0.959 . S
H2234 C2172 0.959 . S
H2235 C2172 0.960 . S
H2236 C2175 0.929 . S
H2237 C2179 0.929 . S
H2238 C2180 0.959 . S
H2239 C2180 0.961 . S
H2240 C2180 0.961 . S
H2241 C2181 0.960 . S
H2242 C2181 0.960 . S
H2243 C2181 0.961 . S
H2244 C2183 0.980 . S
H2245 C2182 0.961 . S
H2246 C2182 0.960 . S
H2247 C2182 0.959 . S
H2248 C2185 0.930 . S
H2249 C2189 0.931 . S
H2250 C2190 0.959 . S
H2251 C2190 0.961 . S
H2252 C2190 0.959 . S
H2253 C2191 0.960 . S
H2254 C2191 0.960 . S
H2255 C2191 0.960 . S
H2256 C2227 0.980 . S
H2257 C2193 0.930 . S
H2258 C2197 0.930 . S
H2259 C2198 0.961 . S
H2260 C2198 0.960 . S
H2261 C2198 0.958 . S
H2262 C2199 0.961 . S
H2263 C2199 0.960 . S
H2264 C2199 0.960 . S
H2265 C2201 0.980 . S
H2266 C2200 0.961 . S
H2267 C2200 0.961 . S
H2268 C2200 0.959 . S
H2269 C2203 0.932 . S
H2270 C2207 0.929 . S
H2271 C2208 0.961 . S
H2272 C2208 0.959 . S
H2273 C2208 0.959 . S
H2274 C2209 0.960 . S
H2275 C2209 0.962 . S
H2276 C2209 0.961 . S
H2277 C2211 0.929 . S
H2278 C2214 0.930 . S
H2279 C2215 0.929 . S
H2280 C2218 0.930 . S
H2281 C2221 0.929 . S
H2282 C2222 0.930 . S
H2283 C2226 0.962 . S
H2284 C2226 0.959 . S
H2285 C2226 0.958 . S
C2286 C2287 1.410 . S
C2286 C2288 1.394 . S
C2286 H2302 0.931 . S
C2287 C2286 1.410 . S
C2287 C2291 1.371 1_655 S
C2288 C2286 1.394 . S
C2288 C2289 1.369 . S
C2288 C2292 1.531 . S
C2289 C2288 1.369 . S
C2289 C2290 1.410 1_655 S
C2289 C2297 1.503 . S
C2290 C2289 1.410 1_455 S
C2290 C2291 1.392 . S
C2290 C2293 1.511 . S
C2291 C2287 1.371 1_455 S
C2291 C2290 1.392 . S
C2291 H2303 0.929 . S
C2292 C2288 1.531 . S
C2292 H2304 0.960 . S
C2292 H2305 0.962 . S
C2292 H2306 0.960 . S
C2293 C2290 1.511 . S
C2293 H2307 0.961 . S
C2293 H2308 0.961 . S
C2293 H2309 0.961 . S
C2294 C2295 1.370 . S
C2294 C2296 1.363 . S
C2294 H2310 0.931 . S
C2295 C2294 1.370 . S
C2295 C2299 1.408 1_655 S
C2296 C2294 1.363 . S
C2296 C2297 1.370 . S
C2296 C2300 1.524 . S
C2297 C2289 1.503 . S
C2297 C2296 1.370 . S
C2297 C2298 1.403 1_655 S
C2298 C2297 1.403 1_455 S
C2298 C2299 1.404 . S
C2298 C2301 1.539 . S
C2299 C2295 1.408 1_455 S
C2299 C2298 1.404 . S
C2299 H2311 0.930 . S
C2300 C2296 1.524 . S
C2300 H2312 0.956 . S
C2300 H2313 0.961 . S
C2300 H2314 0.961 . S
C2301 C2298 1.539 . S
C2301 H2315 0.958 . S
C2301 H2316 0.961 . S
C2301 H2317 0.960 . S
H2302 C2286 0.931 . S
H2303 C2291 0.929 . S
H2304 C2292 0.960 . S
H2305 C2292 0.962 . S
H2306 C2292 0.960 . S
H2307 C2293 0.961 . S
H2308 C2293 0.961 . S
H2309 C2293 0.961 . S
H2310 C2294 0.931 . S
H2311 C2299 0.930 . S
H2312 C2300 0.956 . S
H2313 C2300 0.961 . S
H2314 C2300 0.961 . S
H2315 C2301 0.958 . S
H2316 C2301 0.961 . S
H2317 C2301 0.960 . S
C2318 C2319 1.391 . S
C2318 C2320 1.394 . S
C2318 H2334 0.931 . S
C2319 C2318 1.391 . S
C2319 C2323 1.376 . S
C2320 C2318 1.394 . S
C2320 C2321 1.369 . S
C2320 C2324 1.531 . S
C2321 C2320 1.369 . S
C2321 C2322 1.410 . S
C2321 C2329 1.503 . S
C2322 C2321 1.410 . S
C2322 C2323 1.392 . S
C2322 C2325 1.511 . S
C2323 C2319 1.376 . S
C2323 C2322 1.392 . S
C2323 H2335 0.929 . S
C2324 C2320 1.531 . S
C2324 H2336 0.960 . S
C2324 H2337 0.962 . S
C2324 H2338 0.960 . S
C2325 C2322 1.511 . S
C2325 H2339 0.961 . S
C2325 H2340 0.961 . S
C2325 H2341 0.961 . S
C2326 C2327 1.370 . S
C2326 C2328 1.363 . S
C2326 H2342 0.931 . S
C2327 C2326 1.370 . S
C2327 C2331 1.408 . S
C2328 C2326 1.363 . S
C2328 C2329 1.370 . S
C2328 C2332 1.524 . S
C2329 C2321 1.503 . S
C2329 C2328 1.370 . S
C2329 C2330 1.403 . S
C2330 C2329 1.403 . S
C2330 C2331 1.404 . S
C2330 C2333 1.539 . S
C2331 C2327 1.408 . S
C2331 C2330 1.404 . S
C2331 H2343 0.930 . S
C2332 C2328 1.524 . S
C2332 H2344 0.956 . S
C2332 H2345 0.961 . S
C2332 H2346 0.961 . S
C2333 C2330 1.539 . S
C2333 H2347 0.958 . S
C2333 H2348 0.961 . S
C2333 H2349 0.960 . S
H2334 C2318 0.931 . S
H2335 C2323 0.929 . S
H2336 C2324 0.960 . S
H2337 C2324 0.962 . S
H2338 C2324 0.960 . S
H2339 C2325 0.961 . S
H2340 C2325 0.961 . S
H2341 C2325 0.961 . S
H2342 C2326 0.931 . S
H2343 C2331 0.930 . S
H2344 C2332 0.956 . S
H2345 C2332 0.961 . S
H2346 C2332 0.961 . S
H2347 C2333 0.958 . S
H2348 C2333 0.961 . S
H2349 C2333 0.960 . S
C2350 C2351 1.391 . S
C2350 C2352 1.394 . S
C2350 H2366 0.931 . S
C2351 C2350 1.391 . S
C2351 C2355 1.376 1_545 S
C2352 C2350 1.394 . S
C2352 C2353 1.369 . S
C2352 C2356 1.531 . S
C2353 C2352 1.369 . S
C2353 C2354 1.410 1_545 S
C2353 C2361 1.503 . S
C2354 C2353 1.410 1_565 S
C2354 C2355 1.392 . S
C2354 C2357 1.511 . S
C2355 C2351 1.376 1_565 S
C2355 C2354 1.392 . S
C2355 H2367 0.929 . S
C2356 C2352 1.531 . S
C2356 H2368 0.960 . S
C2356 H2369 0.962 . S
C2356 H2370 0.960 . S
C2357 C2354 1.511 . S
C2357 H2371 0.961 . S
C2357 H2372 0.961 . S
C2357 H2373 0.961 . S
C2358 C2359 1.370 . S
C2358 C2360 1.363 . S
C2358 H2374 0.931 . S
C2359 C2358 1.370 . S
C2359 C2363 1.408 . S
C2360 C2358 1.363 . S
C2360 C2361 1.370 . S
C2360 C2364 1.524 . S
C2361 C2353 1.503 . S
C2361 C2360 1.370 . S
C2361 C2362 1.403 . S
C2362 C2361 1.403 . S
C2362 C2363 1.404 . S
C2362 C2365 1.539 . S
C2363 C2359 1.408 . S
C2363 C2362 1.404 . S
C2363 H2375 0.930 . S
C2364 C2360 1.524 . S
C2364 H2376 0.956 . S
C2364 H2377 0.939 1_545 S
C2364 H2378 0.961 . S
C2365 C2362 1.539 . S
C2365 H2379 0.958 . S
C2365 H2380 0.961 1_545 S
C2365 H2381 0.960 1_545 S
H2366 C2350 0.931 . S
H2367 C2355 0.929 . S
H2368 C2356 0.960 . S
H2369 C2356 0.962 . S
H2370 C2356 0.960 . S
H2371 C2357 0.961 . S
H2372 C2357 0.961 . S
H2373 C2357 0.961 . S
H2374 C2358 0.931 . S
H2375 C2363 0.930 . S
H2376 C2364 0.956 . S
H2377 C2364 0.939 1_565 S
H2378 C2364 0.961 . S
H2379 C2365 0.958 . S
H2380 C2365 0.961 1_565 S
H2381 C2365 0.960 1_565 S
C2382 C2383 1.391 . S
C2382 C2384 1.394 . S
C2382 H2398 0.931 . S
C2383 C2382 1.391 . S
C2383 C2387 1.376 1_565 S
C2384 C2382 1.394 . S
C2384 C2385 1.369 . S
C2384 C2388 1.531 . S
C2385 C2384 1.369 . S
C2385 C2386 1.410 1_565 S
C2385 C2393 1.503 . S
C2386 C2385 1.410 1_545 S
C2386 C2387 1.392 . S
C2386 C2389 1.511 . S
C2387 C2383 1.376 1_545 S
C2387 C2386 1.392 . S
C2387 H2399 0.929 . S
C2388 C2384 1.531 . S
C2388 H2400 0.960 . S
C2388 H2401 0.962 . S
C2388 H2402 0.960 . S
C2389 C2386 1.511 . S
C2389 H2403 0.961 . S
C2389 H2404 0.961 . S
C2389 H2405 0.961 . S
C2390 C2391 1.370 . S
C2390 C2392 1.363 . S
C2390 H2406 0.931 . S
C2391 C2390 1.370 . S
C2391 C2395 1.408 1_565 S
C2392 C2390 1.363 . S
C2392 C2393 1.370 . S
C2392 C2396 1.524 . S
C2393 C2385 1.503 . S
C2393 C2392 1.370 . S
C2393 C2394 1.403 1_565 S
C2394 C2393 1.403 1_545 S
C2394 C2395 1.404 . S
C2394 C2397 1.539 . S
C2395 C2391 1.408 1_545 S
C2395 C2394 1.404 . S
C2395 H2407 0.930 . S
C2396 C2392 1.524 . S
C2396 H2408 0.956 . S
C2396 H2409 0.961 . S
C2396 H2410 0.961 . S
C2397 C2394 1.539 . S
C2397 H2411 0.958 . S
C2397 H2412 0.961 . S
C2397 H2413 0.960 . S
H2398 C2382 0.931 . S
H2399 C2387 0.929 . S
H2400 C2388 0.960 . S
H2401 C2388 0.962 . S
H2402 C2388 0.960 . S
H2403 C2389 0.961 . S
H2404 C2389 0.961 . S
H2405 C2389 0.961 . S
H2406 C2390 0.931 . S
H2407 C2395 0.930 . S
H2408 C2396 0.956 . S
H2409 C2396 0.961 . S
H2410 C2396 0.961 . S
H2411 C2397 0.958 . S
H2412 C2397 0.961 . S
H2413 C2397 0.960 . S
C2414 C2415 1.391 . S
C2414 C2416 1.394 . S
C2414 H2430 0.931 . S
C2415 C2414 1.391 . S
C2415 C2419 1.376 1_455 S
C2416 C2414 1.394 . S
C2416 C2417 1.369 . S
C2416 C2420 1.531 . S
C2417 C2416 1.369 . S
C2417 C2418 1.410 1_455 S
C2417 C2425 1.503 . S
C2418 C2417 1.410 1_655 S
C2418 C2419 1.392 . S
C2418 C2421 1.511 . S
C2419 C2415 1.376 1_655 S
C2419 C2418 1.392 . S
C2419 H2431 0.929 . S
C2420 C2416 1.531 . S
C2420 H2432 0.960 . S
C2420 H2433 0.962 . S
C2420 H2434 0.960 . S
C2421 C2418 1.511 . S
C2421 H2435 0.961 . S
C2421 H2436 0.961 . S
C2421 H2437 0.961 . S
C2422 C2423 1.370 . S
C2422 C2424 1.363 . S
C2422 H2438 0.931 . S
C2423 C2422 1.370 . S
C2423 C2427 1.408 1_455 S
C2424 C2422 1.363 . S
C2424 C2425 1.370 . S
C2424 C2428 1.524 . S
C2425 C2417 1.503 . S
C2425 C2424 1.370 . S
C2425 C2426 1.403 1_455 S
C2426 C2425 1.403 1_655 S
C2426 C2427 1.404 . S
C2426 C2429 1.539 . S
C2427 C2423 1.408 1_655 S
C2427 C2426 1.404 . S
C2427 H2439 0.930 . S
C2428 C2424 1.524 . S
C2428 H2440 0.956 . S
C2428 H2441 0.961 . S
C2428 H2442 0.961 . S
C2429 C2426 1.539 . S
C2429 H2443 0.958 . S
C2429 H2444 0.961 . S
C2429 H2445 0.960 . S
H2430 C2414 0.931 . S
H2431 C2419 0.929 . S
H2432 C2420 0.960 . S
H2433 C2420 0.962 . S
H2434 C2420 0.960 . S
H2435 C2421 0.961 . S
H2436 C2421 0.961 . S
H2437 C2421 0.961 . S
H2438 C2422 0.931 . S
H2439 C2427 0.930 . S
H2440 C2428 0.956 . S
H2441 C2428 0.961 . S
H2442 C2428 0.961 . S
H2443 C2429 0.958 . S
H2444 C2429 0.961 . S
H2445 C2429 0.960 . S
C2446 C2447 1.391 . S
C2446 C2448 1.394 . S
C2446 H2462 0.931 . S
C2447 C2446 1.391 . S
C2447 C2451 1.376 . S
C2448 C2446 1.394 . S
C2448 C2449 1.369 . S
C2448 C2452 1.531 . S
C2449 C2448 1.369 . S
C2449 C2450 1.410 . S
C2449 C2457 1.503 . S
C2450 C2449 1.410 . S
C2450 C2451 1.392 . S
C2450 C2453 1.511 . S
C2451 C2447 1.376 . S
C2451 C2450 1.392 . S
C2451 H2463 0.929 . S
C2452 C2448 1.531 . S
C2452 H2464 0.960 . S
C2452 H2465 0.962 . S
C2452 H2466 0.960 . S
C2453 C2450 1.511 . S
C2453 H2467 0.961 . S
C2453 H2468 0.961 . S
C2453 H2469 0.961 . S
C2454 C2455 1.370 . S
C2454 C2456 1.363 . S
C2454 H2470 0.931 . S
C2455 C2454 1.370 . S
C2455 C2459 1.408 . S
C2456 C2454 1.363 . S
C2456 C2457 1.370 . S
C2456 C2460 1.524 . S
C2457 C2449 1.503 . S
C2457 C2456 1.370 . S
C2457 C2458 1.403 . S
C2458 C2457 1.403 . S
C2458 C2459 1.404 . S
C2458 C2461 1.539 . S
C2459 C2455 1.408 . S
C2459 C2458 1.404 . S
C2459 H2471 0.930 . S
C2460 C2456 1.524 . S
C2460 H2472 0.956 . S
C2460 H2473 0.961 . S
C2460 H2474 0.961 . S
C2461 C2458 1.539 . S
C2461 H2475 0.958 . S
C2461 H2476 0.961 . S
C2461 H2477 0.960 . S
H2462 C2446 0.931 . S
H2463 C2451 0.929 . S
H2464 C2452 0.960 . S
H2465 C2452 0.962 . S
H2466 C2452 0.960 . S
H2467 C2453 0.961 . S
H2468 C2453 0.961 . S
H2469 C2453 0.961 . S
H2470 C2454 0.931 . S
H2471 C2459 0.930 . S
H2472 C2460 0.956 . S
H2473 C2460 0.961 . S
H2474 C2460 0.961 . S
H2475 C2461 0.958 . S
H2476 C2461 0.961 . S
H2477 C2461 0.960 . S
C2478 C2479 1.391 . S
C2478 C2480 1.394 . S
C2478 H2494 0.931 . S
C2479 C2478 1.391 . S
C2479 C2483 1.376 1_455 S
C2480 C2478 1.394 . S
C2480 C2481 1.419 . S
C2480 C2484 1.531 . S
C2481 C2480 1.419 . S
C2481 C2482 1.335 1_455 S
C2481 C2489 1.504 . S
C2482 C2481 1.335 1_655 S
C2482 C2483 1.392 . S
C2482 C2485 1.511 . S
C2483 C2479 1.376 1_655 S
C2483 C2482 1.392 . S
C2483 H2495 0.929 . S
C2484 C2480 1.531 . S
C2484 H2496 0.960 . S
C2484 H2497 0.962 . S
C2484 H2498 0.960 . S
C2485 C2482 1.511 . S
C2485 H2499 0.961 . S
C2485 H2500 0.961 . S
C2485 H2501 0.961 . S
C2486 C2487 1.366 . S
C2486 C2488 1.363 . S
C2486 H2502 0.931 . S
C2487 C2486 1.366 . S
C2487 C2491 1.392 1_455 S
C2488 C2486 1.363 . S
C2488 C2489 1.390 . S
C2488 C2492 1.524 . S
C2489 C2481 1.504 . S
C2489 C2488 1.390 . S
C2489 C2490 1.412 1_455 S
C2490 C2489 1.412 1_655 S
C2490 C2491 1.404 . S
C2490 C2493 1.539 . S
C2491 C2487 1.392 1_655 S
C2491 C2490 1.404 . S
C2491 H2503 0.930 . S
C2492 C2488 1.524 . S
C2492 H2504 0.956 . S
C2492 H2505 0.961 . S
C2492 H2506 0.961 . S
C2493 C2490 1.539 . S
C2493 H2507 0.958 . S
C2493 H2508 0.961 . S
C2493 H2509 0.960 . S
H2494 C2478 0.931 . S
H2495 C2483 0.929 . S
H2496 C2484 0.960 . S
H2497 C2484 0.962 . S
H2498 C2484 0.960 . S
H2499 C2485 0.961 . S
H2500 C2485 0.961 . S
H2501 C2485 0.961 . S
H2502 C2486 0.931 . S
H2503 C2491 0.930 . S
H2504 C2492 0.956 . S
H2505 C2492 0.961 . S
H2506 C2492 0.961 . S
H2507 C2493 0.958 . S
H2508 C2493 0.961 . S
H2509 C2493 0.960 . S
C2510 C2511 1.391 . S
C2510 C2512 1.394 . S
C2510 H2526 0.931 . S
C2511 C2510 1.391 . S
C2511 C2515 1.376 . S
C2512 C2510 1.394 . S
C2512 C2513 1.369 . S
C2512 C2516 1.531 . S
C2513 C2512 1.369 . S
C2513 C2514 1.410 . S
C2513 C2521 1.503 . S
C2514 C2513 1.410 . S
C2514 C2515 1.392 . S
C2514 C2517 1.511 . S
C2515 C2511 1.376 . S
C2515 C2514 1.392 . S
C2515 H2527 0.929 . S
C2516 C2512 1.531 . S
C2516 H2528 0.960 . S
C2516 H2529 0.962 . S
C2516 H2530 0.960 . S
C2517 C2514 1.511 . S
C2517 H2531 0.961 . S
C2517 H2532 0.961 . S
C2517 H2533 0.961 . S
C2518 C2519 1.370 . S
C2518 C2520 1.363 . S
C2518 H2534 0.931 . S
C2519 C2518 1.370 . S
C2519 C2523 1.408 . S
C2520 C2518 1.363 . S
C2520 C2521 1.370 . S
C2520 C2524 1.524 . S
C2521 C2513 1.503 . S
C2521 C2520 1.370 . S
C2521 C2522 1.403 . S
C2522 C2521 1.403 . S
C2522 C2523 1.404 . S
C2522 C2525 1.539 . S
C2523 C2519 1.408 . S
C2523 C2522 1.404 . S
C2523 H2535 0.930 . S
C2524 C2520 1.524 . S
C2524 H2536 0.956 . S
C2524 H2537 0.961 . S
C2524 H2538 0.961 . S
C2525 C2522 1.539 . S
C2525 H2539 0.958 . S
C2525 H2540 0.961 . S
C2525 H2541 0.960 . S
H2526 C2510 0.931 . S
H2527 C2515 0.929 . S
H2528 C2516 0.960 . S
H2529 C2516 0.962 . S
H2530 C2516 0.960 . S
H2531 C2517 0.961 . S
H2532 C2517 0.961 . S
H2533 C2517 0.961 . S
H2534 C2518 0.931 . S
H2535 C2523 0.930 . S
H2536 C2524 0.956 . S
H2537 C2524 0.961 . S
H2538 C2524 0.961 . S
H2539 C2525 0.958 . S
H2540 C2525 0.961 . S
H2541 C2525 0.960 . S
C2542 C2543 1.391 1_545 S
C2542 C2544 1.394 . S
C2542 H2558 0.931 . S
C2543 C2542 1.391 1_565 S
C2543 C2547 1.376 . S
C2544 C2542 1.394 . S
C2544 C2545 1.369 1_545 S
C2544 C2548 1.531 . S
C2545 C2544 1.369 1_565 S
C2545 C2546 1.410 . S
C2545 C2553 1.503 . S
C2546 C2545 1.410 . S
C2546 C2547 1.392 . S
C2546 C2549 1.511 . S
C2547 C2543 1.376 . S
C2547 C2546 1.392 . S
C2547 H2559 0.929 . S
C2548 C2544 1.531 . S
C2548 H2560 0.960 . S
C2548 H2561 0.962 . S
C2548 H2562 0.960 . S
C2549 C2546 1.511 . S
C2549 H2563 0.961 . S
C2549 H2564 0.961 . S
C2549 H2565 0.961 . S
C2550 C2551 1.370 . S
C2550 C2552 1.363 . S
C2550 H2566 0.931 . S
C2551 C2550 1.370 . S
C2551 C2555 1.408 1_565 S
C2552 C2550 1.363 . S
C2552 C2553 1.370 . S
C2552 C2556 1.524 . S
C2553 C2545 1.503 . S
C2553 C2552 1.370 . S
C2553 C2554 1.403 1_565 S
C2554 C2553 1.403 1_545 S
C2554 C2555 1.404 . S
C2554 C2557 1.539 . S
C2555 C2551 1.408 1_545 S
C2555 C2554 1.404 . S
C2555 H2567 0.930 . S
C2556 C2552 1.524 . S
C2556 H2568 0.956 1_565 S
C2556 H2569 0.961 . S
C2556 H2570 0.961 . S
C2557 C2554 1.539 . S
C2557 H2571 0.958 . S
C2557 H2572 0.964 . S
C2557 H2573 0.960 1_545 S
H2558 C2542 0.931 . S
H2559 C2547 0.929 . S
H2560 C2548 0.960 . S
H2561 C2548 0.962 . S
H2562 C2548 0.960 . S
H2563 C2549 0.961 . S
H2564 C2549 0.961 . S
H2565 C2549 0.961 . S
H2566 C2550 0.931 . S
H2567 C2555 0.930 . S
H2568 C2556 0.956 1_545 S
H2569 C2556 0.961 . S
H2570 C2556 0.961 . S
H2571 C2557 0.958 . S
H2572 C2557 0.964 . S
H2573 C2557 0.960 1_565 S
C2574 C2575 1.391 1_565 S
C2574 C2576 1.394 . S
C2574 H2590 0.931 . S
C2575 C2574 1.391 1_545 S
C2575 C2579 1.376 . S
C2576 C2574 1.394 . S
C2576 C2577 1.347 1_565 S
C2576 C2580 1.531 . S
C2577 C2576 1.347 1_545 S
C2577 C2578 1.423 . S
C2577 C2585 1.498 . S
C2578 C2577 1.423 . S
C2578 C2579 1.392 . S
C2578 C2581 1.511 . S
C2579 C2575 1.376 . S
C2579 C2578 1.392 . S
C2579 H2591 0.929 . S
C2580 C2576 1.531 . S
C2580 H2592 0.960 . S
C2580 H2593 0.962 . S
C2580 H2594 0.960 . S
C2581 C2578 1.511 . S
C2581 H2595 0.961 . S
C2581 H2596 0.961 . S
C2581 H2597 0.961 . S
C2582 C2583 1.370 . S
C2582 C2584 1.363 . S
C2582 H2598 0.931 . S
C2583 C2582 1.370 . S
C2583 C2587 1.408 1_545 S
C2584 C2582 1.363 . S
C2584 C2585 1.418 . S
C2584 C2588 1.524 . S
C2585 C2577 1.498 . S
C2585 C2584 1.418 . S
C2585 C2586 1.374 1_545 S
C2586 C2585 1.374 1_565 S
C2586 C2587 1.404 . S
C2586 C2589 1.539 . S
C2587 C2583 1.408 1_565 S
C2587 C2586 1.404 . S
C2587 H2599 0.930 . S
C2588 C2584 1.524 . S
C2588 H2600 0.956 . S
C2588 H2601 0.961 . S
C2588 H2602 0.961 . S
C2589 C2586 1.539 . S
C2589 H2603 0.958 . S
C2589 H2604 0.961 . S
C2589 H2605 0.960 . S
H2590 C2574 0.931 . S
H2591 C2579 0.929 . S
H2592 C2580 0.960 . S
H2593 C2580 0.962 . S
H2594 C2580 0.960 . S
H2595 C2581 0.961 . S
H2596 C2581 0.961 . S
H2597 C2581 0.961 . S
H2598 C2582 0.931 . S
H2599 C2587 0.930 . S
H2600 C2588 0.956 . S
H2601 C2588 0.961 . S
H2602 C2588 0.961 . S
H2603 C2589 0.958 . S
H2604 C2589 0.961 . S
H2605 C2589 0.960 . S
C2606 C2607 1.391 1_455 S
C2606 C2608 1.394 . S
C2606 H2622 0.931 . S
C2607 C2606 1.391 1_655 S
C2607 C2611 1.376 . S
C2608 C2606 1.394 . S
C2608 C2609 1.369 1_455 S
C2608 C2612 1.531 . S
C2609 C2608 1.369 1_655 S
C2609 C2610 1.410 . S
C2609 C2617 1.503 . S
C2610 C2609 1.410 . S
C2610 C2611 1.392 . S
C2610 C2613 1.511 . S
C2611 C2607 1.376 . S
C2611 C2610 1.392 . S
C2611 H2623 0.929 . S
C2612 C2608 1.531 . S
C2612 H2624 0.960 . S
C2612 H2625 0.962 . S
C2612 H2626 0.960 . S
C2613 C2610 1.511 . S
C2613 H2627 0.961 . S
C2613 H2628 0.961 . S
C2613 H2629 0.961 . S
C2614 C2615 1.370 1_455 S
C2614 C2616 1.363 . S
C2614 H2630 0.931 . S
C2615 C2614 1.370 1_655 S
C2615 C2619 1.408 . S
C2616 C2614 1.363 . S
C2616 C2617 1.370 1_455 S
C2616 C2620 1.524 . S
C2617 C2609 1.503 . S
C2617 C2616 1.370 1_655 S
C2617 C2618 1.403 . S
C2618 C2617 1.403 . S
C2618 C2619 1.404 . S
C2618 C2621 1.539 . S
C2619 C2615 1.408 . S
C2619 C2618 1.404 . S
C2619 H2631 0.930 . S
C2620 C2616 1.524 . S
C2620 H2632 0.956 . S
C2620 H2633 0.961 . S
C2620 H2634 0.961 . S
C2621 C2618 1.539 . S
C2621 H2635 0.958 . S
C2621 H2636 0.961 . S
C2621 H2637 0.960 . S
H2622 C2606 0.931 . S
H2623 C2611 0.929 . S
H2624 C2612 0.960 . S
H2625 C2612 0.962 . S
H2626 C2612 0.960 . S
H2627 C2613 0.961 . S
H2628 C2613 0.961 . S
H2629 C2613 0.961 . S
H2630 C2614 0.931 . S
H2631 C2619 0.930 . S
H2632 C2620 0.956 . S
H2633 C2620 0.961 . S
H2634 C2620 0.961 . S
H2635 C2621 0.958 . S
H2636 C2621 0.961 . S
H2637 C2621 0.960 . S
C2638 C2639 1.391 . S
C2638 C2640 1.394 . S
C2638 H2654 0.931 . S
C2639 C2638 1.391 . S
C2639 C2643 1.376 . S
C2640 C2638 1.394 . S
C2640 C2641 1.369 . S
C2640 C2644 1.531 . S
C2641 C2640 1.369 . S
C2641 C2642 1.410 . S
C2641 C2649 1.503 . S
C2642 C2641 1.410 . S
C2642 C2643 1.392 . S
C2642 C2645 1.511 . S
C2643 C2639 1.376 . S
C2643 C2642 1.392 . S
C2643 H2655 0.929 . S
C2644 C2640 1.531 . S
C2644 H2656 0.960 . S
C2644 H2657 0.962 . S
C2644 H2658 0.960 . S
C2645 C2642 1.511 . S
C2645 H2659 0.961 . S
C2645 H2660 0.961 . S
C2645 H2661 0.961 . S
C2646 C2647 1.370 . S
C2646 C2648 1.363 . S
C2646 H2662 0.931 . S
C2647 C2646 1.370 . S
C2647 C2651 1.408 . S
C2648 C2646 1.363 . S
C2648 C2649 1.370 . S
C2648 C2652 1.524 . S
C2649 C2641 1.503 . S
C2649 C2648 1.370 . S
C2649 C2650 1.403 . S
C2650 C2649 1.403 . S
C2650 C2651 1.404 . S
C2650 C2653 1.539 . S
C2651 C2647 1.408 . S
C2651 C2650 1.404 . S
C2651 H2663 0.930 . S
C2652 C2648 1.524 . S
C2652 H2664 0.956 . S
C2652 H2665 0.961 . S
C2652 H2666 0.961 . S
C2653 C2650 1.539 . S
C2653 H2667 0.958 . S
C2653 H2668 0.961 . S
C2653 H2669 0.960 . S
H2654 C2638 0.931 . S
H2655 C2643 0.929 . S
H2656 C2644 0.960 . S
H2657 C2644 0.962 . S
H2658 C2644 0.960 . S
H2659 C2645 0.961 . S
H2660 C2645 0.961 . S
H2661 C2645 0.961 . S
H2662 C2646 0.931 . S
H2663 C2651 0.930 . S
H2664 C2652 0.956 . S
H2665 C2652 0.961 . S
H2666 C2652 0.961 . S
H2667 C2653 0.958 . S
H2668 C2653 0.961 . S
H2669 C2653 0.960 . S
C2670 C2671 1.391 . S
C2670 C2672 1.394 . S
C2670 H2686 0.931 . S
C2671 C2670 1.391 . S
C2671 C2675 1.376 . S
C2672 C2670 1.394 . S
C2672 C2673 1.369 . S
C2672 C2676 1.531 . S
C2673 C2672 1.369 . S
C2673 C2674 1.410 . S
C2673 C2681 1.503 . S
C2674 C2673 1.410 . S
C2674 C2675 1.392 . S
C2674 C2677 1.511 . S
C2675 C2671 1.376 . S
C2675 C2674 1.392 . S
C2675 H2687 0.929 . S
C2676 C2672 1.531 . S
C2676 H2688 0.960 . S
C2676 H2689 0.962 . S
C2676 H2690 0.960 . S
C2677 C2674 1.511 . S
C2677 H2691 0.961 . S
C2677 H2692 0.961 . S
C2677 H2693 0.961 . S
C2678 C2679 1.370 . S
C2678 C2680 1.363 . S
C2678 H2694 0.931 . S
C2679 C2678 1.370 . S
C2679 C2683 1.408 . S
C2680 C2678 1.363 . S
C2680 C2681 1.370 . S
C2680 C2684 1.524 . S
C2681 C2673 1.503 . S
C2681 C2680 1.370 . S
C2681 C2682 1.403 . S
C2682 C2681 1.403 . S
C2682 C2683 1.404 . S
C2682 C2685 1.539 . S
C2683 C2679 1.408 . S
C2683 C2682 1.404 . S
C2683 H2695 0.930 . S
C2684 C2680 1.524 . S
C2684 H2696 0.956 . S
C2684 H2697 0.961 . S
C2684 H2698 0.961 . S
C2685 C2682 1.539 . S
C2685 H2699 0.958 . S
C2685 H2700 0.961 . S
C2685 H2701 0.960 . S
H2686 C2670 0.931 . S
H2687 C2675 0.929 . S
H2688 C2676 0.960 . S
H2689 C2676 0.962 . S
H2690 C2676 0.960 . S
H2691 C2677 0.961 . S
H2692 C2677 0.961 . S
H2693 C2677 0.961 . S
H2694 C2678 0.931 . S
H2695 C2683 0.930 . S
H2696 C2684 0.956 . S
H2697 C2684 0.961 . S
H2698 C2684 0.961 . S
H2699 C2685 0.958 . S
H2700 C2685 0.961 . S
H2701 C2685 0.960 . S
C2702 C2703 1.391 . S
C2702 C2704 1.394 . S
C2702 H2718 0.931 . S
C2703 C2702 1.391 . S
C2703 C2707 1.376 . S
C2704 C2702 1.394 . S
C2704 C2705 1.369 . S
C2704 C2708 1.531 . S
C2705 C2704 1.369 . S
C2705 C2706 1.410 . S
C2705 C2713 1.503 . S
C2706 C2705 1.410 . S
C2706 C2707 1.392 . S
C2706 C2709 1.511 . S
C2707 C2703 1.376 . S
C2707 C2706 1.392 . S
C2707 H2719 0.929 . S
C2708 C2704 1.531 . S
C2708 H2720 0.960 . S
C2708 H2721 0.962 . S
C2708 H2722 0.960 . S
C2709 C2706 1.511 . S
C2709 H2723 0.961 . S
C2709 H2724 0.961 . S
C2709 H2725 0.961 . S
C2710 C2711 1.370 . S
C2710 C2712 1.363 . S
C2710 H2726 0.931 . S
C2711 C2710 1.370 . S
C2711 C2715 1.408 . S
C2712 C2710 1.363 . S
C2712 C2713 1.370 . S
C2712 C2716 1.524 . S
C2713 C2705 1.503 . S
C2713 C2712 1.370 . S
C2713 C2714 1.403 . S
C2714 C2713 1.403 . S
C2714 C2715 1.404 . S
C2714 C2717 1.539 . S
C2715 C2711 1.408 . S
C2715 C2714 1.404 . S
C2715 H2727 0.930 . S
C2716 C2712 1.524 . S
C2716 H2728 0.956 . S
C2716 H2729 0.961 . S
C2716 H2730 0.961 . S
C2717 C2714 1.539 . S
C2717 H2731 0.958 . S
C2717 H2732 0.961 . S
C2717 H2733 0.960 . S
H2718 C2702 0.931 . S
H2719 C2707 0.929 . S
H2720 C2708 0.960 . S
H2721 C2708 0.962 . S
H2722 C2708 0.960 . S
H2723 C2709 0.961 . S
H2724 C2709 0.961 . S
H2725 C2709 0.961 . S
H2726 C2710 0.931 . S
H2727 C2715 0.930 . S
H2728 C2716 0.956 . S
H2729 C2716 0.961 . S
H2730 C2716 0.961 . S
H2731 C2717 0.958 . S
H2732 C2717 0.961 . S
H2733 C2717 0.960 . S
C2734 C2735 1.391 . S
C2734 C2736 1.394 . S
C2734 H2750 0.931 . S
C2735 C2734 1.391 . S
C2735 C2739 1.376 . S
C2736 C2734 1.394 . S
C2736 C2737 1.369 . S
C2736 C2740 1.531 . S
C2737 C2736 1.369 . S
C2737 C2738 1.410 . S
C2737 C2745 1.503 . S
C2738 C2737 1.410 . S
C2738 C2739 1.392 . S
C2738 C2741 1.511 . S
C2739 C2735 1.376 . S
C2739 C2738 1.392 . S
C2739 H2751 0.929 . S
C2740 C2736 1.531 . S
C2740 H2752 0.960 . S
C2740 H2753 0.962 . S
C2740 H2754 0.960 . S
C2741 C2738 1.511 . S
C2741 H2755 0.961 . S
C2741 H2756 0.961 . S
C2741 H2757 0.961 . S
C2742 C2743 1.370 . S
C2742 C2744 1.363 . S
C2742 H2758 0.931 . S
C2743 C2742 1.370 . S
C2743 C2747 1.408 . S
C2744 C2742 1.363 . S
C2744 C2745 1.370 . S
C2744 C2748 1.524 . S
C2745 C2737 1.503 . S
C2745 C2744 1.370 . S
C2745 C2746 1.403 . S
C2746 C2745 1.403 . S
C2746 C2747 1.404 . S
C2746 C2749 1.539 . S
C2747 C2743 1.408 . S
C2747 C2746 1.404 . S
C2747 H2759 0.930 . S
C2748 C2744 1.524 . S
C2748 H2760 0.956 . S
C2748 H2761 0.961 . S
C2748 H2762 0.961 . S
C2749 C2746 1.539 . S
C2749 H2763 0.958 . S
C2749 H2764 0.961 . S
C2749 H2765 0.960 . S
H2750 C2734 0.931 . S
H2751 C2739 0.929 . S
H2752 C2740 0.960 . S
H2753 C2740 0.962 . S
H2754 C2740 0.960 . S
H2755 C2741 0.961 . S
H2756 C2741 0.961 . S
H2757 C2741 0.961 . S
H2758 C2742 0.931 . S
H2759 C2747 0.930 . S
H2760 C2748 0.956 . S
H2761 C2748 0.961 . S
H2762 C2748 0.961 . S
H2763 C2749 0.958 . S
H2764 C2749 0.961 . S
H2765 C2749 0.960 . S
C2766 C2767 1.391 . S
C2766 C2768 1.394 . S
C2766 H2782 0.931 . S
C2767 C2766 1.391 . S
C2767 C2771 1.376 . S
C2768 C2766 1.394 . S
C2768 C2769 1.369 . S
C2768 C2772 1.531 . S
C2769 C2768 1.369 . S
C2769 C2770 1.410 . S
C2769 C2777 1.503 . S
C2770 C2769 1.410 . S
C2770 C2771 1.392 . S
C2770 C2773 1.511 . S
C2771 C2767 1.376 . S
C2771 C2770 1.392 . S
C2771 H2783 0.929 . S
C2772 C2768 1.531 . S
C2772 H2784 0.960 . S
C2772 H2785 0.962 . S
C2772 H2786 0.960 . S
C2773 C2770 1.511 . S
C2773 H2787 0.961 . S
C2773 H2788 0.961 . S
C2773 H2789 0.961 . S
C2774 C2775 1.370 . S
C2774 C2776 1.363 . S
C2774 H2790 0.931 . S
C2775 C2774 1.370 . S
C2775 C2779 1.408 . S
C2776 C2774 1.363 . S
C2776 C2777 1.370 . S
C2776 C2780 1.524 . S
C2777 C2769 1.503 . S
C2777 C2776 1.370 . S
C2777 C2778 1.403 . S
C2778 C2777 1.403 . S
C2778 C2779 1.404 . S
C2778 C2781 1.539 . S
C2779 C2775 1.408 . S
C2779 C2778 1.404 . S
C2779 H2791 0.930 . S
C2780 C2776 1.524 . S
C2780 H2792 0.956 . S
C2780 H2793 0.961 . S
C2780 H2794 0.961 . S
C2781 C2778 1.539 . S
C2781 H2795 0.958 . S
C2781 H2796 0.961 . S
C2781 H2797 0.960 . S
H2782 C2766 0.931 . S
H2783 C2771 0.929 . S
H2784 C2772 0.960 . S
H2785 C2772 0.962 . S
H2786 C2772 0.960 . S
H2787 C2773 0.961 . S
H2788 C2773 0.961 . S
H2789 C2773 0.961 . S
H2790 C2774 0.931 . S
H2791 C2779 0.930 . S
H2792 C2780 0.956 . S
H2793 C2780 0.961 . S
H2794 C2780 0.961 . S
H2795 C2781 0.958 . S
H2796 C2781 0.961 . S
H2797 C2781 0.960 . S
C2798 C2799 1.391 . S
C2798 C2800 1.394 . S
C2798 H2814 0.931 . S
C2799 C2798 1.391 . S
C2799 C2803 1.376 . S
C2800 C2798 1.394 . S
C2800 C2801 1.369 . S
C2800 C2804 1.531 . S
C2801 C2800 1.369 . S
C2801 C2802 1.410 . S
C2801 C2809 1.503 . S
C2802 C2801 1.410 . S
C2802 C2803 1.392 . S
C2802 C2805 1.511 . S
C2803 C2799 1.376 . S
C2803 C2802 1.392 . S
C2803 H2815 0.929 . S
C2804 C2800 1.531 . S
C2804 H2816 0.960 . S
C2804 H2817 0.962 . S
C2804 H2818 0.960 . S
C2805 C2802 1.511 . S
C2805 H2819 0.961 . S
C2805 H2820 0.961 . S
C2805 H2821 0.961 . S
C2806 C2807 1.370 . S
C2806 C2808 1.363 . S
C2806 H2822 0.931 . S
C2807 C2806 1.370 . S
C2807 C2811 1.408 . S
C2808 C2806 1.363 . S
C2808 C2809 1.370 . S
C2808 C2812 1.524 . S
C2809 C2801 1.503 . S
C2809 C2808 1.370 . S
C2809 C2810 1.403 . S
C2810 C2809 1.403 . S
C2810 C2811 1.404 . S
C2810 C2813 1.539 . S
C2811 C2807 1.408 . S
C2811 C2810 1.404 . S
C2811 H2823 0.930 . S
C2812 C2808 1.524 . S
C2812 H2824 0.956 . S
C2812 H2825 0.961 . S
C2812 H2826 0.961 . S
C2813 C2810 1.539 . S
C2813 H2827 0.958 . S
C2813 H2828 0.961 . S
C2813 H2829 0.960 . S
H2814 C2798 0.931 . S
H2815 C2803 0.929 . S
H2816 C2804 0.960 . S
H2817 C2804 0.962 . S
H2818 C2804 0.960 . S
H2819 C2805 0.961 . S
H2820 C2805 0.961 . S
H2821 C2805 0.961 . S
H2822 C2806 0.931 . S
H2823 C2811 0.930 . S
H2824 C2812 0.956 . S
H2825 C2812 0.961 . S
H2826 C2812 0.961 . S
H2827 C2813 0.958 . S
H2828 C2813 0.961 . S
H2829 C2813 0.960 . S
C2830 C2831 1.391 . S
C2830 C2832 1.394 . S
C2830 H2846 0.931 . S
C2831 C2830 1.391 . S
C2831 C2835 1.376 . S
C2832 C2830 1.394 . S
C2832 C2833 1.369 . S
C2832 C2836 1.531 . S
C2833 C2832 1.369 . S
C2833 C2834 1.410 . S
C2833 C2841 1.503 . S
C2834 C2833 1.410 . S
C2834 C2835 1.392 . S
C2834 C2837 1.511 . S
C2835 C2831 1.376 . S
C2835 C2834 1.392 . S
C2835 H2847 0.929 . S
C2836 C2832 1.531 . S
C2836 H2848 0.960 . S
C2836 H2849 0.962 . S
C2836 H2850 0.960 . S
C2837 C2834 1.511 . S
C2837 H2851 0.961 . S
C2837 H2852 0.961 . S
C2837 H2853 0.961 . S
C2838 C2839 1.370 . S
C2838 C2840 1.363 . S
C2838 H2854 0.931 . S
C2839 C2838 1.370 . S
C2839 C2843 1.408 . S
C2840 C2838 1.363 . S
C2840 C2841 1.370 . S
C2840 C2844 1.524 . S
C2841 C2833 1.503 . S
C2841 C2840 1.370 . S
C2841 C2842 1.403 . S
C2842 C2841 1.403 . S
C2842 C2843 1.404 . S
C2842 C2845 1.539 . S
C2843 C2839 1.408 . S
C2843 C2842 1.404 . S
C2843 H2855 0.930 . S
C2844 C2840 1.524 . S
C2844 H2856 0.956 . S
C2844 H2857 0.961 . S
C2844 H2858 0.961 . S
C2845 C2842 1.539 . S
C2845 H2859 0.958 . S
C2845 H2860 0.961 . S
C2845 H2861 0.960 . S
H2846 C2830 0.931 . S
H2847 C2835 0.929 . S
H2848 C2836 0.960 . S
H2849 C2836 0.962 . S
H2850 C2836 0.960 . S
H2851 C2837 0.961 . S
H2852 C2837 0.961 . S
H2853 C2837 0.961 . S
H2854 C2838 0.931 . S
H2855 C2843 0.930 . S
H2856 C2844 0.956 . S
H2857 C2844 0.961 . S
H2858 C2844 0.961 . S
H2859 C2845 0.958 . S
H2860 C2845 0.961 . S
H2861 C2845 0.960 . S
C2862 C2863 1.391 . S
C2862 C2864 1.394 . S
C2862 H2878 0.931 . S
C2863 C2862 1.391 . S
C2863 C2867 1.376 . S
C2864 C2862 1.394 . S
C2864 C2865 1.369 . S
C2864 C2868 1.531 . S
C2865 C2864 1.369 . S
C2865 C2866 1.410 . S
C2865 C2873 1.503 . S
C2866 C2865 1.410 . S
C2866 C2867 1.392 . S
C2866 C2869 1.511 . S
C2867 C2863 1.376 . S
C2867 C2866 1.392 . S
C2867 H2879 0.929 . S
C2868 C2864 1.531 . S
C2868 H2880 0.960 . S
C2868 H2881 0.962 . S
C2868 H2882 0.960 . S
C2869 C2866 1.511 . S
C2869 H2883 0.961 . S
C2869 H2884 0.961 . S
C2869 H2885 0.961 . S
C2870 C2871 1.370 . S
C2870 C2872 1.363 . S
C2870 H2886 0.931 . S
C2871 C2870 1.370 . S
C2871 C2875 1.408 . S
C2872 C2870 1.363 . S
C2872 C2873 1.370 . S
C2872 C2876 1.524 . S
C2873 C2865 1.503 . S
C2873 C2872 1.370 . S
C2873 C2874 1.403 . S
C2874 C2873 1.403 . S
C2874 C2875 1.404 . S
C2874 C2877 1.539 . S
C2875 C2871 1.408 . S
C2875 C2874 1.404 . S
C2875 H2887 0.930 . S
C2876 C2872 1.524 . S
C2876 H2888 0.956 . S
C2876 H2889 0.961 . S
C2876 H2890 0.961 . S
C2877 C2874 1.539 . S
C2877 H2891 0.958 . S
C2877 H2892 0.961 . S
C2877 H2893 0.960 . S
H2878 C2862 0.931 . S
H2879 C2867 0.929 . S
H2880 C2868 0.960 . S
H2881 C2868 0.962 . S
H2882 C2868 0.960 . S
H2883 C2869 0.961 . S
H2884 C2869 0.961 . S
H2885 C2869 0.961 . S
H2886 C2870 0.931 . S
H2887 C2875 0.930 . S
H2888 C2876 0.956 . S
H2889 C2876 0.961 . S
H2890 C2876 0.961 . S
H2891 C2877 0.958 . S
H2892 C2877 0.961 . S
H2893 C2877 0.960 . S
C2894 C2895 1.391 . S
C2894 C2896 1.394 . S
C2894 H2910 0.931 . S
C2895 C2894 1.391 . S
C2895 C2899 1.376 . S
C2896 C2894 1.394 . S
C2896 C2897 1.369 . S
C2896 C2900 1.531 . S
C2897 C2896 1.369 . S
C2897 C2898 1.410 . S
C2897 C2905 1.503 . S
C2898 C2897 1.410 . S
C2898 C2899 1.392 . S
C2898 C2901 1.511 . S
C2899 C2895 1.376 . S
C2899 C2898 1.392 . S
C2899 H2911 0.929 . S
C2900 C2896 1.531 . S
C2900 H2912 0.960 . S
C2900 H2913 0.962 . S
C2900 H2914 0.960 . S
C2901 C2898 1.511 . S
C2901 H2915 0.961 . S
C2901 H2916 0.961 . S
C2901 H2917 0.961 . S
C2902 C2903 1.370 . S
C2902 C2904 1.363 . S
C2902 H2918 0.931 . S
C2903 C2902 1.370 . S
C2903 C2907 1.408 . S
C2904 C2902 1.363 . S
C2904 C2905 1.370 . S
C2904 C2908 1.524 . S
C2905 C2897 1.503 . S
C2905 C2904 1.370 . S
C2905 C2906 1.403 . S
C2906 C2905 1.403 . S
C2906 C2907 1.404 . S
C2906 C2909 1.539 . S
C2907 C2903 1.408 . S
C2907 C2906 1.404 . S
C2907 H2919 0.930 . S
C2908 C2904 1.524 . S
C2908 H2920 0.956 . S
C2908 H2921 0.961 . S
C2908 H2922 0.961 . S
C2909 C2906 1.539 . S
C2909 H2923 0.958 . S
C2909 H2924 0.961 . S
C2909 H2925 0.960 . S
H2910 C2894 0.931 . S
H2911 C2899 0.929 . S
H2912 C2900 0.960 . S
H2913 C2900 0.962 . S
H2914 C2900 0.960 . S
H2915 C2901 0.961 . S
H2916 C2901 0.961 . S
H2917 C2901 0.961 . S
H2918 C2902 0.931 . S
H2919 C2907 0.930 . S
H2920 C2908 0.956 . S
H2921 C2908 0.961 . S
H2922 C2908 0.961 . S
H2923 C2909 0.958 . S
H2924 C2909 0.961 . S
H2925 C2909 0.960 . S
C2926 C2927 1.391 . S
C2926 C2928 1.394 . S
C2926 H2942 0.931 . S
C2927 C2926 1.391 . S
C2927 C2931 1.376 . S
C2928 C2926 1.394 . S
C2928 C2929 1.369 . S
C2928 C2932 1.531 . S
C2929 C2928 1.369 . S
C2929 C2930 1.410 . S
C2929 C2937 1.503 . S
C2930 C2929 1.410 . S
C2930 C2931 1.392 . S
C2930 C2933 1.511 . S
C2931 C2927 1.376 . S
C2931 C2930 1.392 . S
C2931 H2943 0.929 . S
C2932 C2928 1.531 . S
C2932 H2944 0.960 . S
C2932 H2945 0.962 . S
C2932 H2946 0.960 . S
C2933 C2930 1.511 . S
C2933 H2947 0.961 . S
C2933 H2948 0.961 . S
C2933 H2949 0.961 . S
C2934 C2935 1.370 . S
C2934 C2936 1.363 . S
C2934 H2950 0.931 . S
C2935 C2934 1.370 . S
C2935 C2939 1.408 . S
C2936 C2934 1.363 . S
C2936 C2937 1.370 . S
C2936 C2940 1.524 . S
C2937 C2929 1.503 . S
C2937 C2936 1.370 . S
C2937 C2938 1.403 . S
C2938 C2937 1.403 . S
C2938 C2939 1.404 . S
C2938 C2941 1.539 . S
C2939 C2935 1.408 . S
C2939 C2938 1.404 . S
C2939 H2951 0.930 . S
C2940 C2936 1.524 . S
C2940 H2952 0.956 . S
C2940 H2953 0.961 . S
C2940 H2954 0.961 . S
C2941 C2938 1.539 . S
C2941 H2955 0.958 . S
C2941 H2956 0.961 . S
C2941 H2957 0.960 . S
H2942 C2926 0.931 . S
H2943 C2931 0.929 . S
H2944 C2932 0.960 . S
H2945 C2932 0.962 . S
H2946 C2932 0.960 . S
H2947 C2933 0.961 . S
H2948 C2933 0.961 . S
H2949 C2933 0.961 . S
H2950 C2934 0.931 . S
H2951 C2939 0.930 . S
H2952 C2940 0.956 . S
H2953 C2940 0.961 . S
H2954 C2940 0.961 . S
H2955 C2941 0.958 . S
H2956 C2941 0.961 . S
H2957 C2941 0.960 . S
C2958 C2959 1.391 . S
C2958 C2960 1.394 . S
C2958 H2974 0.931 . S
C2959 C2958 1.391 . S
C2959 C2963 1.376 . S
C2960 C2958 1.394 . S
C2960 C2961 1.369 . S
C2960 C2964 1.531 . S
C2961 C2960 1.369 . S
C2961 C2962 1.410 . S
C2961 C2969 1.503 . S
C2962 C2961 1.410 . S
C2962 C2963 1.392 . S
C2962 C2965 1.511 . S
C2963 C2959 1.376 . S
C2963 C2962 1.392 . S
C2963 H2975 0.929 . S
C2964 C2960 1.531 . S
C2964 H2976 0.960 . S
C2964 H2977 0.962 . S
C2964 H2978 0.960 . S
C2965 C2962 1.511 . S
C2965 H2979 0.961 . S
C2965 H2980 0.961 . S
C2965 H2981 0.961 . S
C2966 C2967 1.370 . S
C2966 C2968 1.363 . S
C2966 H2982 0.931 . S
C2967 C2966 1.370 . S
C2967 C2971 1.408 . S
C2968 C2966 1.363 . S
C2968 C2969 1.370 . S
C2968 C2972 1.524 . S
C2969 C2961 1.503 . S
C2969 C2968 1.370 . S
C2969 C2970 1.403 . S
C2970 C2969 1.403 . S
C2970 C2971 1.404 . S
C2970 C2973 1.539 . S
C2971 C2967 1.408 . S
C2971 C2970 1.404 . S
C2971 H2983 0.930 . S
C2972 C2968 1.524 . S
C2972 H2984 0.956 . S
C2972 H2985 0.961 . S
C2972 H2986 0.961 . S
C2973 C2970 1.539 . S
C2973 H2987 0.958 . S
C2973 H2988 0.961 . S
C2973 H2989 0.960 . S
H2974 C2958 0.931 . S
H2975 C2963 0.929 . S
H2976 C2964 0.960 . S
H2977 C2964 0.962 . S
H2978 C2964 0.960 . S
H2979 C2965 0.961 . S
H2980 C2965 0.961 . S
H2981 C2965 0.961 . S
H2982 C2966 0.931 . S
H2983 C2971 0.930 . S
H2984 C2972 0.956 . S
H2985 C2972 0.961 . S
H2986 C2972 0.961 . S
H2987 C2973 0.958 . S
H2988 C2973 0.961 . S
H2989 C2973 0.960 . S
C2990 C2991 1.391 . S
C2990 C2992 1.394 . S
C2990 H3006 0.931 . S
C2991 C2990 1.391 . S
C2991 C2995 1.376 . S
C2992 C2990 1.394 . S
C2992 C2993 1.369 . S
C2992 C2996 1.531 . S
C2993 C2992 1.369 . S
C2993 C2994 1.410 . S
C2993 C3001 1.503 . S
C2994 C2993 1.410 . S
C2994 C2995 1.392 . S
C2994 C2997 1.511 . S
C2995 C2991 1.376 . S
C2995 C2994 1.392 . S
C2995 H3007 0.929 . S
C2996 C2992 1.531 . S
C2996 H3008 0.960 . S
C2996 H3009 0.962 . S
C2996 H3010 0.960 . S
C2997 C2994 1.511 . S
C2997 H3011 0.961 . S
C2997 H3012 0.961 . S
C2997 H3013 0.961 . S
C2998 C2999 1.370 . S
C2998 C3000 1.363 . S
C2998 H3014 0.931 . S
C2999 C2998 1.370 . S
C2999 C3003 1.408 . S
C3000 C2998 1.363 . S
C3000 C3001 1.370 . S
C3000 C3004 1.524 . S
C3001 C2993 1.503 . S
C3001 C3000 1.370 . S
C3001 C3002 1.403 . S
C3002 C3001 1.403 . S
C3002 C3003 1.404 . S
C3002 C3005 1.539 . S
C3003 C2999 1.408 . S
C3003 C3002 1.404 . S
C3003 H3015 0.930 . S
C3004 C3000 1.524 . S
C3004 H3016 0.956 . S
C3004 H3017 0.961 . S
C3004 H3018 0.961 . S
C3005 C3002 1.539 . S
C3005 H3019 0.958 . S
C3005 H3020 0.961 . S
C3005 H3021 0.960 . S
H3006 C2990 0.931 . S
H3007 C2995 0.929 . S
H3008 C2996 0.960 . S
H3009 C2996 0.962 . S
H3010 C2996 0.960 . S
H3011 C2997 0.961 . S
H3012 C2997 0.961 . S
H3013 C2997 0.961 . S
H3014 C2998 0.931 . S
H3015 C3003 0.930 . S
H3016 C3004 0.956 . S
H3017 C3004 0.961 . S
H3018 C3004 0.961 . S
H3019 C3005 0.958 . S
H3020 C3005 0.961 . S
H3021 C3005 0.960 . S
C3022 C3023 1.391 . S
C3022 C3024 1.394 . S
C3022 H3038 0.931 . S
C3023 C3022 1.391 . S
C3023 C3027 1.376 . S
C3024 C3022 1.394 . S
C3024 C3025 1.369 . S
C3024 C3028 1.531 . S
C3025 C3024 1.369 . S
C3025 C3026 1.410 . S
C3025 C3033 1.503 . S
C3026 C3025 1.410 . S
C3026 C3027 1.392 . S
C3026 C3029 1.511 . S
C3027 C3023 1.376 . S
C3027 C3026 1.392 . S
C3027 H3039 0.929 . S
C3028 C3024 1.531 . S
C3028 H3040 0.960 . S
C3028 H3041 0.962 . S
C3028 H3042 0.960 . S
C3029 C3026 1.511 . S
C3029 H3043 0.961 . S
C3029 H3044 0.961 . S
C3029 H3045 0.961 . S
C3030 C3031 1.370 . S
C3030 C3032 1.363 . S
C3030 H3046 0.931 . S
C3031 C3030 1.370 . S
C3031 C3035 1.408 . S
C3032 C3030 1.363 . S
C3032 C3033 1.370 . S
C3032 C3036 1.524 . S
C3033 C3025 1.503 . S
C3033 C3032 1.370 . S
C3033 C3034 1.403 . S
C3034 C3033 1.403 . S
C3034 C3035 1.404 . S
C3034 C3037 1.539 . S
C3035 C3031 1.408 . S
C3035 C3034 1.404 . S
C3035 H3047 0.930 . S
C3036 C3032 1.524 . S
C3036 H3048 0.956 . S
C3036 H3049 0.961 . S
C3036 H3050 0.961 . S
C3037 C3034 1.539 . S
C3037 H3051 0.958 . S
C3037 H3052 0.961 . S
C3037 H3053 0.960 . S
H3038 C3022 0.931 . S
H3039 C3027 0.929 . S
H3040 C3028 0.960 . S
H3041 C3028 0.962 . S
H3042 C3028 0.960 . S
H3043 C3029 0.961 . S
H3044 C3029 0.961 . S
H3045 C3029 0.961 . S
H3046 C3030 0.931 . S
H3047 C3035 0.930 . S
H3048 C3036 0.956 . S
H3049 C3036 0.961 . S
H3050 C3036 0.961 . S
H3051 C3037 0.958 . S
H3052 C3037 0.961 . S
H3053 C3037 0.960 . S
C3054 C3055 1.391 . S
C3054 C3056 1.394 . S
C3054 H3070 0.931 . S
C3055 C3054 1.391 . S
C3055 C3059 1.376 . S
C3056 C3054 1.394 . S
C3056 C3057 1.369 . S
C3056 C3060 1.531 . S
C3057 C3056 1.369 . S
C3057 C3058 1.410 . S
C3057 C3065 1.503 . S
C3058 C3057 1.410 . S
C3058 C3059 1.392 . S
C3058 C3061 1.511 . S
C3059 C3055 1.376 . S
C3059 C3058 1.392 . S
C3059 H3071 0.929 . S
C3060 C3056 1.531 . S
C3060 H3072 0.960 . S
C3060 H3073 0.962 . S
C3060 H3074 0.960 . S
C3061 C3058 1.511 . S
C3061 H3075 0.961 . S
C3061 H3076 0.961 . S
C3061 H3077 0.961 . S
C3062 C3063 1.370 . S
C3062 C3064 1.363 . S
C3062 H3078 0.931 . S
C3063 C3062 1.370 . S
C3063 C3067 1.408 . S
C3064 C3062 1.363 . S
C3064 C3065 1.370 . S
C3064 C3068 1.524 . S
C3065 C3057 1.503 . S
C3065 C3064 1.370 . S
C3065 C3066 1.403 . S
C3066 C3065 1.403 . S
C3066 C3067 1.404 . S
C3066 C3069 1.539 . S
C3067 C3063 1.408 . S
C3067 C3066 1.404 . S
C3067 H3079 0.930 . S
C3068 C3064 1.524 . S
C3068 H3080 0.956 . S
C3068 H3081 0.961 . S
C3068 H3082 0.961 . S
C3069 C3066 1.539 . S
C3069 H3083 0.958 . S
C3069 H3084 0.961 . S
C3069 H3085 0.960 . S
H3070 C3054 0.931 . S
H3071 C3059 0.929 . S
H3072 C3060 0.960 . S
H3073 C3060 0.962 . S
H3074 C3060 0.960 . S
H3075 C3061 0.961 . S
H3076 C3061 0.961 . S
H3077 C3061 0.961 . S
H3078 C3062 0.931 . S
H3079 C3067 0.930 . S
H3080 C3068 0.956 . S
H3081 C3068 0.961 . S
H3082 C3068 0.961 . S
H3083 C3069 0.958 . S
H3084 C3069 0.961 . S
H3085 C3069 0.960 . S
C3086 C3087 1.391 . S
C3086 C3088 1.394 . S
C3086 H3102 0.931 . S
C3087 C3086 1.391 . S
C3087 C3091 1.376 . S
C3088 C3086 1.394 . S
C3088 C3089 1.369 . S
C3088 C3092 1.531 . S
C3089 C3088 1.369 . S
C3089 C3090 1.410 . S
C3089 C3097 1.503 . S
C3090 C3089 1.410 . S
C3090 C3091 1.392 . S
C3090 C3093 1.511 . S
C3091 C3087 1.376 . S
C3091 C3090 1.392 . S
C3091 H3103 0.929 . S
C3092 C3088 1.531 . S
C3092 H3104 0.960 . S
C3092 H3105 0.962 . S
C3092 H3106 0.960 . S
C3093 C3090 1.511 . S
C3093 H3107 0.961 . S
C3093 H3108 0.961 . S
C3093 H3109 0.961 . S
C3094 C3095 1.370 . S
C3094 C3096 1.363 . S
C3094 H3110 0.931 . S
C3095 C3094 1.370 . S
C3095 C3099 1.408 . S
C3096 C3094 1.363 . S
C3096 C3097 1.370 . S
C3096 C3100 1.524 . S
C3097 C3089 1.503 . S
C3097 C3096 1.370 . S
C3097 C3098 1.403 . S
C3098 C3097 1.403 . S
C3098 C3099 1.404 . S
C3098 C3101 1.539 . S
C3099 C3095 1.408 . S
C3099 C3098 1.404 . S
C3099 H3111 0.930 . S
C3100 C3096 1.524 . S
C3100 H3112 0.956 . S
C3100 H3113 0.961 . S
C3100 H3114 0.961 . S
C3101 C3098 1.539 . S
C3101 H3115 0.958 . S
C3101 H3116 0.961 . S
C3101 H3117 0.960 . S
H3102 C3086 0.931 . S
H3103 C3091 0.929 . S
H3104 C3092 0.960 . S
H3105 C3092 0.962 . S
H3106 C3092 0.960 . S
H3107 C3093 0.961 . S
H3108 C3093 0.961 . S
H3109 C3093 0.961 . S
H3110 C3094 0.931 . S
H3111 C3099 0.930 . S
H3112 C3100 0.956 . S
H3113 C3100 0.961 . S
H3114 C3100 0.961 . S
H3115 C3101 0.958 . S
H3116 C3101 0.961 . S
H3117 C3101 0.960 . S
C3118 C3119 1.391 . S
C3118 C3120 1.394 . S
C3118 H3134 0.931 . S
C3119 C3118 1.391 . S
C3119 C3123 1.376 . S
C3120 C3118 1.394 . S
C3120 C3121 1.369 . S
C3120 C3124 1.531 . S
C3121 C3120 1.369 . S
C3121 C3122 1.410 . S
C3121 C3129 1.503 . S
C3122 C3121 1.410 . S
C3122 C3123 1.392 . S
C3122 C3125 1.511 . S
C3123 C3119 1.376 . S
C3123 C3122 1.392 . S
C3123 H3135 0.929 . S
C3124 C3120 1.531 . S
C3124 H3136 0.960 . S
C3124 H3137 0.962 . S
C3124 H3138 0.960 . S
C3125 C3122 1.511 . S
C3125 H3139 0.961 . S
C3125 H3140 0.961 . S
C3125 H3141 0.961 . S
C3126 C3127 1.370 . S
C3126 C3128 1.363 . S
C3126 H3142 0.931 . S
C3127 C3126 1.370 . S
C3127 C3131 1.408 . S
C3128 C3126 1.363 . S
C3128 C3129 1.370 . S
C3128 C3132 1.524 . S
C3129 C3121 1.503 . S
C3129 C3128 1.370 . S
C3129 C3130 1.403 . S
C3130 C3129 1.403 . S
C3130 C3131 1.404 . S
C3130 C3133 1.539 . S
C3131 C3127 1.408 . S
C3131 C3130 1.404 . S
C3131 H3143 0.930 . S
C3132 C3128 1.524 . S
C3132 H3144 0.956 . S
C3132 H3145 0.961 . S
C3132 H3146 0.961 . S
C3133 C3130 1.539 . S
C3133 H3147 0.958 . S
C3133 H3148 0.961 . S
C3133 H3149 0.960 . S
H3134 C3118 0.931 . S
H3135 C3123 0.929 . S
H3136 C3124 0.960 . S
H3137 C3124 0.962 . S
H3138 C3124 0.960 . S
H3139 C3125 0.961 . S
H3140 C3125 0.961 . S
H3141 C3125 0.961 . S
H3142 C3126 0.931 . S
H3143 C3131 0.930 . S
H3144 C3132 0.956 . S
H3145 C3132 0.961 . S
H3146 C3132 0.961 . S
H3147 C3133 0.958 . S
H3148 C3133 0.961 . S
H3149 C3133 0.960 . S
C3150 C3151 1.391 . S
C3150 C3152 1.394 . S
C3150 H3166 0.931 . S
C3151 C3150 1.391 . S
C3151 C3155 1.376 . S
C3152 C3150 1.394 . S
C3152 C3153 1.369 . S
C3152 C3156 1.531 . S
C3153 C3152 1.369 . S
C3153 C3154 1.410 . S
C3153 C3161 1.503 . S
C3154 C3153 1.410 . S
C3154 C3155 1.392 . S
C3154 C3157 1.511 . S
C3155 C3151 1.376 . S
C3155 C3154 1.392 . S
C3155 H3167 0.929 . S
C3156 C3152 1.531 . S
C3156 H3168 0.960 . S
C3156 H3169 0.962 . S
C3156 H3170 0.960 . S
C3157 C3154 1.511 . S
C3157 H3171 0.961 . S
C3157 H3172 0.961 . S
C3157 H3173 0.961 . S
C3158 C3159 1.370 . S
C3158 C3160 1.363 . S
C3158 H3174 0.931 . S
C3159 C3158 1.370 . S
C3159 C3163 1.408 . S
C3160 C3158 1.363 . S
C3160 C3161 1.370 . S
C3160 C3164 1.524 . S
C3161 C3153 1.503 . S
C3161 C3160 1.370 . S
C3161 C3162 1.403 . S
C3162 C3161 1.403 . S
C3162 C3163 1.404 . S
C3162 C3165 1.539 . S
C3163 C3159 1.408 . S
C3163 C3162 1.404 . S
C3163 H3175 0.930 . S
C3164 C3160 1.524 . S
C3164 H3176 0.956 . S
C3164 H3177 0.961 . S
C3164 H3178 0.961 . S
C3165 C3162 1.539 . S
C3165 H3179 0.958 . S
C3165 H3180 0.961 . S
C3165 H3181 0.960 . S
H3166 C3150 0.931 . S
H3167 C3155 0.929 . S
H3168 C3156 0.960 . S
H3169 C3156 0.962 . S
H3170 C3156 0.960 . S
H3171 C3157 0.961 . S
H3172 C3157 0.961 . S
H3173 C3157 0.961 . S
H3174 C3158 0.931 . S
H3175 C3163 0.930 . S
H3176 C3164 0.956 . S
H3177 C3164 0.961 . S
H3178 C3164 0.961 . S
H3179 C3165 0.958 . S
H3180 C3165 0.961 . S
H3181 C3165 0.960 . S
C3182 C3183 1.391 . S
C3182 C3184 1.394 . S
C3182 H3198 0.931 . S
C3183 C3182 1.391 . S
C3183 C3187 1.376 . S
C3184 C3182 1.394 . S
C3184 C3185 1.369 . S
C3184 C3188 1.531 . S
C3185 C3184 1.369 . S
C3185 C3186 1.410 . S
C3185 C3193 1.503 . S
C3186 C3185 1.410 . S
C3186 C3187 1.392 . S
C3186 C3189 1.511 . S
C3187 C3183 1.376 . S
C3187 C3186 1.392 . S
C3187 H3199 0.929 . S
C3188 C3184 1.531 . S
C3188 H3200 0.960 . S
C3188 H3201 0.962 . S
C3188 H3202 0.960 . S
C3189 C3186 1.511 . S
C3189 H3203 0.961 . S
C3189 H3204 0.961 . S
C3189 H3205 0.961 . S
C3190 C3191 1.370 . S
C3190 C3192 1.363 . S
C3190 H3206 0.931 . S
C3191 C3190 1.370 . S
C3191 C3195 1.408 . S
C3192 C3190 1.363 . S
C3192 C3193 1.370 . S
C3192 C3196 1.524 . S
C3193 C3185 1.503 . S
C3193 C3192 1.370 . S
C3193 C3194 1.403 . S
C3194 C3193 1.403 . S
C3194 C3195 1.404 . S
C3194 C3197 1.539 . S
C3195 C3191 1.408 . S
C3195 C3194 1.404 . S
C3195 H3207 0.930 . S
C3196 C3192 1.524 . S
C3196 H3208 0.956 . S
C3196 H3209 0.961 . S
C3196 H3210 0.961 . S
C3197 C3194 1.539 . S
C3197 H3211 0.958 . S
C3197 H3212 0.961 . S
C3197 H3213 0.960 . S
H3198 C3182 0.931 . S
H3199 C3187 0.929 . S
H3200 C3188 0.960 . S
H3201 C3188 0.962 . S
H3202 C3188 0.960 . S
H3203 C3189 0.961 . S
H3204 C3189 0.961 . S
H3205 C3189 0.961 . S
H3206 C3190 0.931 . S
H3207 C3195 0.930 . S
H3208 C3196 0.956 . S
H3209 C3196 0.961 . S
H3210 C3196 0.961 . S
H3211 C3197 0.958 . S
H3212 C3197 0.961 . S
H3213 C3197 0.960 . S
C3214 C3215 1.391 . S
C3214 C3216 1.394 . S
C3214 H3230 0.931 . S
C3215 C3214 1.391 . S
C3215 C3219 1.376 . S
C3216 C3214 1.394 . S
C3216 C3217 1.369 . S
C3216 C3220 1.531 . S
C3217 C3216 1.369 . S
C3217 C3218 1.410 . S
C3217 C3225 1.503 . S
C3218 C3217 1.410 . S
C3218 C3219 1.392 . S
C3218 C3221 1.511 . S
C3219 C3215 1.376 . S
C3219 C3218 1.392 . S
C3219 H3231 0.929 . S
C3220 C3216 1.531 . S
C3220 H3232 0.960 . S
C3220 H3233 0.962 . S
C3220 H3234 0.960 . S
C3221 C3218 1.511 . S
C3221 H3235 0.961 . S
C3221 H3236 0.961 . S
C3221 H3237 0.961 . S
C3222 C3223 1.370 . S
C3222 C3224 1.363 . S
C3222 H3238 0.931 . S
C3223 C3222 1.370 . S
C3223 C3227 1.408 . S
C3224 C3222 1.363 . S
C3224 C3225 1.370 . S
C3224 C3228 1.524 . S
C3225 C3217 1.503 . S
C3225 C3224 1.370 . S
C3225 C3226 1.403 . S
C3226 C3225 1.403 . S
C3226 C3227 1.404 . S
C3226 C3229 1.539 . S
C3227 C3223 1.408 . S
C3227 C3226 1.404 . S
C3227 H3239 0.930 . S
C3228 C3224 1.524 . S
C3228 H3240 0.956 . S
C3228 H3241 0.961 . S
C3228 H3242 0.961 . S
C3229 C3226 1.539 . S
C3229 H3243 0.958 . S
C3229 H3244 0.961 . S
C3229 H3245 0.960 . S
H3230 C3214 0.931 . S
H3231 C3219 0.929 . S
H3232 C3220 0.960 . S
H3233 C3220 0.962 . S
H3234 C3220 0.960 . S
H3235 C3221 0.961 . S
H3236 C3221 0.961 . S
H3237 C3221 0.961 . S
H3238 C3222 0.931 . S
H3239 C3227 0.930 . S
H3240 C3228 0.956 . S
H3241 C3228 0.961 . S
H3242 C3228 0.961 . S
H3243 C3229 0.958 . S
H3244 C3229 0.961 . S
H3245 C3229 0.960 . S
C3246 C3247 1.391 . S
C3246 C3248 1.394 . S
C3246 H3262 0.931 . S
C3247 C3246 1.391 . S
C3247 C3251 1.376 . S
C3248 C3246 1.394 . S
C3248 C3249 1.369 . S
C3248 C3252 1.531 . S
C3249 C3248 1.369 . S
C3249 C3250 1.410 . S
C3249 C3257 1.503 . S
C3250 C3249 1.410 . S
C3250 C3251 1.392 . S
C3250 C3253 1.511 . S
C3251 C3247 1.376 . S
C3251 C3250 1.392 . S
C3251 H3263 0.929 . S
C3252 C3248 1.531 . S
C3252 H3264 0.960 . S
C3252 H3265 0.962 . S
C3252 H3266 0.960 . S
C3253 C3250 1.511 . S
C3253 H3267 0.961 . S
C3253 H3268 0.961 . S
C3253 H3269 0.961 . S
C3254 C3255 1.370 . S
C3254 C3256 1.363 . S
C3254 H3270 0.931 . S
C3255 C3254 1.370 . S
C3255 C3259 1.408 . S
C3256 C3254 1.363 . S
C3256 C3257 1.370 . S
C3256 C3260 1.524 . S
C3257 C3249 1.503 . S
C3257 C3256 1.370 . S
C3257 C3258 1.403 . S
C3258 C3257 1.403 . S
C3258 C3259 1.404 . S
C3258 C3261 1.539 . S
C3259 C3255 1.408 . S
C3259 C3258 1.404 . S
C3259 H3271 0.930 . S
C3260 C3256 1.524 . S
C3260 H3272 0.956 . S
C3260 H3273 0.961 . S
C3260 H3274 0.961 . S
C3261 C3258 1.539 . S
C3261 H3275 0.958 . S
C3261 H3276 0.961 . S
C3261 H3277 0.960 . S
H3262 C3246 0.931 . S
H3263 C3251 0.929 . S
H3264 C3252 0.960 . S
H3265 C3252 0.962 . S
H3266 C3252 0.960 . S
H3267 C3253 0.961 . S
H3268 C3253 0.961 . S
H3269 C3253 0.961 . S
H3270 C3254 0.931 . S
H3271 C3259 0.930 . S
H3272 C3260 0.956 . S
H3273 C3260 0.961 . S
H3274 C3260 0.961 . S
H3275 C3261 0.958 . S
H3276 C3261 0.961 . S
H3277 C3261 0.960 . S
C3278 C3279 1.391 . S
C3278 C3280 1.394 . S
C3278 H3294 0.931 . S
C3279 C3278 1.391 . S
C3279 C3283 1.376 . S
C3280 C3278 1.394 . S
C3280 C3281 1.369 . S
C3280 C3284 1.531 . S
C3281 C3280 1.369 . S
C3281 C3282 1.410 . S
C3281 C3289 1.503 . S
C3282 C3281 1.410 . S
C3282 C3283 1.392 . S
C3282 C3285 1.511 . S
C3283 C3279 1.376 . S
C3283 C3282 1.392 . S
C3283 H3295 0.929 . S
C3284 C3280 1.531 . S
C3284 H3296 0.960 . S
C3284 H3297 0.962 . S
C3284 H3298 0.960 . S
C3285 C3282 1.511 . S
C3285 H3299 0.961 . S
C3285 H3300 0.961 . S
C3285 H3301 0.961 . S
C3286 C3287 1.370 . S
C3286 C3288 1.363 . S
C3286 H3302 0.931 . S
C3287 C3286 1.370 . S
C3287 C3291 1.408 . S
C3288 C3286 1.363 . S
C3288 C3289 1.370 . S
C3288 C3292 1.524 . S
C3289 C3281 1.503 . S
C3289 C3288 1.370 . S
C3289 C3290 1.403 . S
C3290 C3289 1.403 . S
C3290 C3291 1.404 . S
C3290 C3293 1.539 . S
C3291 C3287 1.408 . S
C3291 C3290 1.404 . S
C3291 H3303 0.930 . S
C3292 C3288 1.524 . S
C3292 H3304 0.956 . S
C3292 H3305 0.961 . S
C3292 H3306 0.961 . S
C3293 C3290 1.539 . S
C3293 H3307 0.958 . S
C3293 H3308 0.961 . S
C3293 H3309 0.960 . S
H3294 C3278 0.931 . S
H3295 C3283 0.929 . S
H3296 C3284 0.960 . S
H3297 C3284 0.962 . S
H3298 C3284 0.960 . S
H3299 C3285 0.961 . S
H3300 C3285 0.961 . S
H3301 C3285 0.961 . S
H3302 C3286 0.931 . S
H3303 C3291 0.930 . S
H3304 C3292 0.956 . S
H3305 C3292 0.961 . S
H3306 C3292 0.961 . S
H3307 C3293 0.958 . S
H3308 C3293 0.961 . S
H3309 C3293 0.960 . S
C3310 C3311 1.391 . S
C3310 C3312 1.394 . S
C3310 H3326 0.931 . S
C3311 C3310 1.391 . S
C3311 C3315 1.376 . S
C3312 C3310 1.394 . S
C3312 C3313 1.369 . S
C3312 C3316 1.531 . S
C3313 C3312 1.369 . S
C3313 C3314 1.410 . S
C3313 C3321 1.503 . S
C3314 C3313 1.410 . S
C3314 C3315 1.392 . S
C3314 C3317 1.511 . S
C3315 C3311 1.376 . S
C3315 C3314 1.392 . S
C3315 H3327 0.929 . S
C3316 C3312 1.531 . S
C3316 H3328 0.960 . S
C3316 H3329 0.962 . S
C3316 H3330 0.960 . S
C3317 C3314 1.511 . S
C3317 H3331 0.961 . S
C3317 H3332 0.961 . S
C3317 H3333 0.961 . S
C3318 C3319 1.370 . S
C3318 C3320 1.363 . S
C3318 H3334 0.931 . S
C3319 C3318 1.370 . S
C3319 C3323 1.408 . S
C3320 C3318 1.363 . S
C3320 C3321 1.370 . S
C3320 C3324 1.524 . S
C3321 C3313 1.503 . S
C3321 C3320 1.370 . S
C3321 C3322 1.403 . S
C3322 C3321 1.403 . S
C3322 C3323 1.404 . S
C3322 C3325 1.539 . S
C3323 C3319 1.408 . S
C3323 C3322 1.404 . S
C3323 H3335 0.930 . S
C3324 C3320 1.524 . S
C3324 H3336 0.956 . S
C3324 H3337 0.961 . S
C3324 H3338 0.961 . S
C3325 C3322 1.539 . S
C3325 H3339 0.958 . S
C3325 H3340 0.961 . S
C3325 H3341 0.960 . S
H3326 C3310 0.931 . S
H3327 C3315 0.929 . S
H3328 C3316 0.960 . S
H3329 C3316 0.962 . S
H3330 C3316 0.960 . S
H3331 C3317 0.961 . S
H3332 C3317 0.961 . S
H3333 C3317 0.961 . S
H3334 C3318 0.931 . S
H3335 C3323 0.930 . S
H3336 C3324 0.956 . S
H3337 C3324 0.961 . S
H3338 C3324 0.961 . S
H3339 C3325 0.958 . S
H3340 C3325 0.961 . S
H3341 C3325 0.960 . S
C3342 C3343 1.391 . S
C3342 C3344 1.394 . S
C3342 H3358 0.931 . S
C3343 C3342 1.391 . S
C3343 C3347 1.376 . S
C3344 C3342 1.394 . S
C3344 C3345 1.369 . S
C3344 C3348 1.531 . S
C3345 C3344 1.369 . S
C3345 C3346 1.410 . S
C3345 C3353 1.503 . S
C3346 C3345 1.410 . S
C3346 C3347 1.392 . S
C3346 C3349 1.511 . S
C3347 C3343 1.376 . S
C3347 C3346 1.392 . S
C3347 H3359 0.929 . S
C3348 C3344 1.531 . S
C3348 H3360 0.960 . S
C3348 H3361 0.962 . S
C3348 H3362 0.960 . S
C3349 C3346 1.511 . S
C3349 H3363 0.961 . S
C3349 H3364 0.961 . S
C3349 H3365 0.961 . S
C3350 C3351 1.370 . S
C3350 C3352 1.363 . S
C3350 H3366 0.931 . S
C3351 C3350 1.370 . S
C3351 C3355 1.408 . S
C3352 C3350 1.363 . S
C3352 C3353 1.370 . S
C3352 C3356 1.524 . S
C3353 C3345 1.503 . S
C3353 C3352 1.370 . S
C3353 C3354 1.403 . S
C3354 C3353 1.403 . S
C3354 C3355 1.404 . S
C3354 C3357 1.539 . S
C3355 C3351 1.408 . S
C3355 C3354 1.404 . S
C3355 H3367 0.930 . S
C3356 C3352 1.524 . S
C3356 H3368 0.956 . S
C3356 H3369 0.961 . S
C3356 H3370 0.961 . S
C3357 C3354 1.539 . S
C3357 H3371 0.958 . S
C3357 H3372 0.961 . S
C3357 H3373 0.960 . S
H3358 C3342 0.931 . S
H3359 C3347 0.929 . S
H3360 C3348 0.960 . S
H3361 C3348 0.962 . S
H3362 C3348 0.960 . S
H3363 C3349 0.961 . S
H3364 C3349 0.961 . S
H3365 C3349 0.961 . S
H3366 C3350 0.931 . S
H3367 C3355 0.930 . S
H3368 C3356 0.956 . S
H3369 C3356 0.961 . S
H3370 C3356 0.961 . S
H3371 C3357 0.958 . S
H3372 C3357 0.961 . S
H3373 C3357 0.960 . S
C3374 C3375 1.391 . S
C3374 C3376 1.394 . S
C3374 H3390 0.931 . S
C3375 C3374 1.391 . S
C3375 C3379 1.376 . S
C3376 C3374 1.394 . S
C3376 C3377 1.369 . S
C3376 C3380 1.531 . S
C3377 C3376 1.369 . S
C3377 C3378 1.410 . S
C3377 C3385 1.503 . S
C3378 C3377 1.410 . S
C3378 C3379 1.392 . S
C3378 C3381 1.511 . S
C3379 C3375 1.376 . S
C3379 C3378 1.392 . S
C3379 H3391 0.929 . S
C3380 C3376 1.531 . S
C3380 H3392 0.960 . S
C3380 H3393 0.962 . S
C3380 H3394 0.960 . S
C3381 C3378 1.511 . S
C3381 H3395 0.961 . S
C3381 H3396 0.961 . S
C3381 H3397 0.961 . S
C3382 C3383 1.370 . S
C3382 C3384 1.363 . S
C3382 H3398 0.931 . S
C3383 C3382 1.370 . S
C3383 C3387 1.408 . S
C3384 C3382 1.363 . S
C3384 C3385 1.370 . S
C3384 C3388 1.524 . S
C3385 C3377 1.503 . S
C3385 C3384 1.370 . S
C3385 C3386 1.403 . S
C3386 C3385 1.403 . S
C3386 C3387 1.404 . S
C3386 C3389 1.539 . S
C3387 C3383 1.408 . S
C3387 C3386 1.404 . S
C3387 H3399 0.930 . S
C3388 C3384 1.524 . S
C3388 H3400 0.956 . S
C3388 H3401 0.961 . S
C3388 H3402 0.961 . S
C3389 C3386 1.539 . S
C3389 H3403 0.958 . S
C3389 H3404 0.961 . S
C3389 H3405 0.960 . S
H3390 C3374 0.931 . S
H3391 C3379 0.929 . S
H3392 C3380 0.960 . S
H3393 C3380 0.962 . S
H3394 C3380 0.960 . S
H3395 C3381 0.961 . S
H3396 C3381 0.961 . S
H3397 C3381 0.961 . S
H3398 C3382 0.931 . S
H3399 C3387 0.930 . S
H3400 C3388 0.956 . S
H3401 C3388 0.961 . S
H3402 C3388 0.961 . S
H3403 C3389 0.958 . S
H3404 C3389 0.961 . S
H3405 C3389 0.960 . S
C3406 C3407 1.391 . S
C3406 C3408 1.394 . S
C3406 H3422 0.931 . S
C3407 C3406 1.391 . S
C3407 C3411 1.376 . S
C3408 C3406 1.394 . S
C3408 C3409 1.369 . S
C3408 C3412 1.531 . S
C3409 C3408 1.369 . S
C3409 C3410 1.410 . S
C3409 C3417 1.503 . S
C3410 C3409 1.410 . S
C3410 C3411 1.392 . S
C3410 C3413 1.511 . S
C3411 C3407 1.376 . S
C3411 C3410 1.392 . S
C3411 H3423 0.929 . S
C3412 C3408 1.531 . S
C3412 H3424 0.960 . S
C3412 H3425 0.962 . S
C3412 H3426 0.960 . S
C3413 C3410 1.511 . S
C3413 H3427 0.961 . S
C3413 H3428 0.961 . S
C3413 H3429 0.961 . S
C3414 C3415 1.370 . S
C3414 C3416 1.363 . S
C3414 H3430 0.931 . S
C3415 C3414 1.370 . S
C3415 C3419 1.408 . S
C3416 C3414 1.363 . S
C3416 C3417 1.370 . S
C3416 C3420 1.524 . S
C3417 C3409 1.503 . S
C3417 C3416 1.370 . S
C3417 C3418 1.403 . S
C3418 C3417 1.403 . S
C3418 C3419 1.404 . S
C3418 C3421 1.539 . S
C3419 C3415 1.408 . S
C3419 C3418 1.404 . S
C3419 H3431 0.930 . S
C3420 C3416 1.524 . S
C3420 H3432 0.956 . S
C3420 H3433 0.961 . S
C3420 H3434 0.961 . S
C3421 C3418 1.539 . S
C3421 H3435 0.958 . S
C3421 H3436 0.961 . S
C3421 H3437 0.960 . S
H3422 C3406 0.931 . S
H3423 C3411 0.929 . S
H3424 C3412 0.960 . S
H3425 C3412 0.962 . S
H3426 C3412 0.960 . S
H3427 C3413 0.961 . S
H3428 C3413 0.961 . S
H3429 C3413 0.961 . S
H3430 C3414 0.931 . S
H3431 C3419 0.930 . S
H3432 C3420 0.956 . S
H3433 C3420 0.961 . S
H3434 C3420 0.961 . S
H3435 C3421 0.958 . S
H3436 C3421 0.961 . S
H3437 C3421 0.960 . S
C3438 C3439 1.391 . S
C3438 C3440 1.394 . S
C3438 H3454 0.931 . S
C3439 C3438 1.391 . S
C3439 C3443 1.376 . S
C3440 C3438 1.394 . S
C3440 C3441 1.369 . S
C3440 C3444 1.531 . S
C3441 C3440 1.369 . S
C3441 C3442 1.410 . S
C3441 C3449 1.503 . S
C3442 C3441 1.410 . S
C3442 C3443 1.392 . S
C3442 C3445 1.511 . S
C3443 C3439 1.376 . S
C3443 C3442 1.392 . S
C3443 H3455 0.929 . S
C3444 C3440 1.531 . S
C3444 H3456 0.960 . S
C3444 H3457 0.962 . S
C3444 H3458 0.960 . S
C3445 C3442 1.511 . S
C3445 H3459 0.961 . S
C3445 H3460 0.961 . S
C3445 H3461 0.961 . S
C3446 C3447 1.370 . S
C3446 C3448 1.363 . S
C3446 H3462 0.931 . S
C3447 C3446 1.370 . S
C3447 C3451 1.408 . S
C3448 C3446 1.363 . S
C3448 C3449 1.370 . S
C3448 C3452 1.524 . S
C3449 C3441 1.503 . S
C3449 C3448 1.370 . S
C3449 C3450 1.403 . S
C3450 C3449 1.403 . S
C3450 C3451 1.404 . S
C3450 C3453 1.539 . S
C3451 C3447 1.408 . S
C3451 C3450 1.404 . S
C3451 H3463 0.930 . S
C3452 C3448 1.524 . S
C3452 H3464 0.956 . S
C3452 H3465 0.961 . S
C3452 H3466 0.961 . S
C3453 C3450 1.539 . S
C3453 H3467 0.958 . S
C3453 H3468 0.961 . S
C3453 H3469 0.960 . S
H3454 C3438 0.931 . S
H3455 C3443 0.929 . S
H3456 C3444 0.960 . S
H3457 C3444 0.962 . S
H3458 C3444 0.960 . S
H3459 C3445 0.961 . S
H3460 C3445 0.961 . S
H3461 C3445 0.961 . S
H3462 C3446 0.931 . S
H3463 C3451 0.930 . S
H3464 C3452 0.956 . S
H3465 C3452 0.961 . S
H3466 C3452 0.961 . S
H3467 C3453 0.958 . S
H3468 C3453 0.961 . S
H3469 C3453 0.960 . S
C3470 C3471 1.391 . S
C3470 C3472 1.394 . S
C3470 H3486 0.931 . S
C3471 C3470 1.391 . S
C3471 C3475 1.376 . S
C3472 C3470 1.394 . S
C3472 C3473 1.369 . S
C3472 C3476 1.531 . S
C3473 C3472 1.369 . S
C3473 C3474 1.410 . S
C3473 C3481 1.503 . S
C3474 C3473 1.410 . S
C3474 C3475 1.392 . S
C3474 C3477 1.511 . S
C3475 C3471 1.376 . S
C3475 C3474 1.392 . S
C3475 H3487 0.929 . S
C3476 C3472 1.531 . S
C3476 H3488 0.960 . S
C3476 H3489 0.962 . S
C3476 H3490 0.960 . S
C3477 C3474 1.511 . S
C3477 H3491 0.961 . S
C3477 H3492 0.961 . S
C3477 H3493 0.961 . S
C3478 C3479 1.370 . S
C3478 C3480 1.363 . S
C3478 H3494 0.931 . S
C3479 C3478 1.370 . S
C3479 C3483 1.408 . S
C3480 C3478 1.363 . S
C3480 C3481 1.370 . S
C3480 C3484 1.524 . S
C3481 C3473 1.503 . S
C3481 C3480 1.370 . S
C3481 C3482 1.403 . S
C3482 C3481 1.403 . S
C3482 C3483 1.404 . S
C3482 C3485 1.539 . S
C3483 C3479 1.408 . S
C3483 C3482 1.404 . S
C3483 H3495 0.930 . S
C3484 C3480 1.524 . S
C3484 H3496 0.956 . S
C3484 H3497 0.961 . S
C3484 H3498 0.961 . S
C3485 C3482 1.539 . S
C3485 H3499 0.958 . S
C3485 H3500 0.961 . S
C3485 H3501 0.960 . S
H3486 C3470 0.931 . S
H3487 C3475 0.929 . S
H3488 C3476 0.960 . S
H3489 C3476 0.962 . S
H3490 C3476 0.960 . S
H3491 C3477 0.961 . S
H3492 C3477 0.961 . S
H3493 C3477 0.961 . S
H3494 C3478 0.931 . S
H3495 C3483 0.930 . S
H3496 C3484 0.956 . S
H3497 C3484 0.961 . S
H3498 C3484 0.961 . S
H3499 C3485 0.958 . S
H3500 C3485 0.961 . S
H3501 C3485 0.960 . S
C3502 C3503 1.391 . S
C3502 C3504 1.394 . S
C3502 H3518 0.931 . S
C3503 C3502 1.391 . S
C3503 C3507 1.376 . S
C3504 C3502 1.394 . S
C3504 C3505 1.369 . S
C3504 C3508 1.531 . S
C3505 C3504 1.369 . S
C3505 C3506 1.410 . S
C3505 C3513 1.503 . S
C3506 C3505 1.410 . S
C3506 C3507 1.392 . S
C3506 C3509 1.511 . S
C3507 C3503 1.376 . S
C3507 C3506 1.392 . S
C3507 H3519 0.929 . S
C3508 C3504 1.531 . S
C3508 H3520 0.960 . S
C3508 H3521 0.962 . S
C3508 H3522 0.960 . S
C3509 C3506 1.511 . S
C3509 H3523 0.961 . S
C3509 H3524 0.961 . S
C3509 H3525 0.961 . S
C3510 C3511 1.370 . S
C3510 C3512 1.363 . S
C3510 H3526 0.931 . S
C3511 C3510 1.370 . S
C3511 C3515 1.408 . S
C3512 C3510 1.363 . S
C3512 C3513 1.370 . S
C3512 C3516 1.524 . S
C3513 C3505 1.503 . S
C3513 C3512 1.370 . S
C3513 C3514 1.403 . S
C3514 C3513 1.403 . S
C3514 C3515 1.404 . S
C3514 C3517 1.539 . S
C3515 C3511 1.408 . S
C3515 C3514 1.404 . S
C3515 H3527 0.930 . S
C3516 C3512 1.524 . S
C3516 H3528 0.956 . S
C3516 H3529 0.961 . S
C3516 H3530 0.961 . S
C3517 C3514 1.539 . S
C3517 H3531 0.958 . S
C3517 H3532 0.961 . S
C3517 H3533 0.960 . S
H3518 C3502 0.931 . S
H3519 C3507 0.929 . S
H3520 C3508 0.960 . S
H3521 C3508 0.962 . S
H3522 C3508 0.960 . S
H3523 C3509 0.961 . S
H3524 C3509 0.961 . S
H3525 C3509 0.961 . S
H3526 C3510 0.931 . S
H3527 C3515 0.930 . S
H3528 C3516 0.956 . S
H3529 C3516 0.961 . S
H3530 C3516 0.961 . S
H3531 C3517 0.958 . S
H3532 C3517 0.961 . S
H3533 C3517 0.960 . S
C3534 C3535 1.391 . S
C3534 C3536 1.394 . S
C3534 H3550 0.931 . S
C3535 C3534 1.391 . S
C3535 C3539 1.376 . S
C3536 C3534 1.394 . S
C3536 C3537 1.369 . S
C3536 C3540 1.531 . S
C3537 C3536 1.369 . S
C3537 C3538 1.410 . S
C3537 C3545 1.503 . S
C3538 C3537 1.410 . S
C3538 C3539 1.392 . S
C3538 C3541 1.511 . S
C3539 C3535 1.376 . S
C3539 C3538 1.392 . S
C3539 H3551 0.929 . S
C3540 C3536 1.531 . S
C3540 H3552 0.960 . S
C3540 H3553 0.962 . S
C3540 H3554 0.960 . S
C3541 C3538 1.511 . S
C3541 H3555 0.961 . S
C3541 H3556 0.961 . S
C3541 H3557 0.961 . S
C3542 C3543 1.370 . S
C3542 C3544 1.363 . S
C3542 H3558 0.931 . S
C3543 C3542 1.370 . S
C3543 C3547 1.408 . S
C3544 C3542 1.363 . S
C3544 C3545 1.370 . S
C3544 C3548 1.524 . S
C3545 C3537 1.503 . S
C3545 C3544 1.370 . S
C3545 C3546 1.403 . S
C3546 C3545 1.403 . S
C3546 C3547 1.404 . S
C3546 C3549 1.539 . S
C3547 C3543 1.408 . S
C3547 C3546 1.404 . S
C3547 H3559 0.930 . S
C3548 C3544 1.524 . S
C3548 H3560 0.956 . S
C3548 H3561 0.961 . S
C3548 H3562 0.961 . S
C3549 C3546 1.539 . S
C3549 H3563 0.958 . S
C3549 H3564 0.961 . S
C3549 H3565 0.960 . S
H3550 C3534 0.931 . S
H3551 C3539 0.929 . S
H3552 C3540 0.960 . S
H3553 C3540 0.962 . S
H3554 C3540 0.960 . S
H3555 C3541 0.961 . S
H3556 C3541 0.961 . S
H3557 C3541 0.961 . S
H3558 C3542 0.931 . S
H3559 C3547 0.930 . S
H3560 C3548 0.956 . S
H3561 C3548 0.961 . S
H3562 C3548 0.961 . S
H3563 C3549 0.958 . S
H3564 C3549 0.961 . S
H3565 C3549 0.960 . S
C3566 C3567 1.391 . S
C3566 C3568 1.394 . S
C3566 H3582 0.931 . S
C3567 C3566 1.391 . S
C3567 C3571 1.376 . S
C3568 C3566 1.394 . S
C3568 C3569 1.369 . S
C3568 C3572 1.531 . S
C3569 C3568 1.369 . S
C3569 C3570 1.410 . S
C3569 C3577 1.503 . S
C3570 C3569 1.410 . S
C3570 C3571 1.392 . S
C3570 C3573 1.511 . S
C3571 C3567 1.376 . S
C3571 C3570 1.392 . S
C3571 H3583 0.929 . S
C3572 C3568 1.531 . S
C3572 H3584 0.960 . S
C3572 H3585 0.962 . S
C3572 H3586 0.960 . S
C3573 C3570 1.511 . S
C3573 H3587 0.961 . S
C3573 H3588 0.961 . S
C3573 H3589 0.961 . S
C3574 C3575 1.370 . S
C3574 C3576 1.363 . S
C3574 H3590 0.931 . S
C3575 C3574 1.370 . S
C3575 C3579 1.408 . S
C3576 C3574 1.363 . S
C3576 C3577 1.370 . S
C3576 C3580 1.524 . S
C3577 C3569 1.503 . S
C3577 C3576 1.370 . S
C3577 C3578 1.403 . S
C3578 C3577 1.403 . S
C3578 C3579 1.404 . S
C3578 C3581 1.539 . S
C3579 C3575 1.408 . S
C3579 C3578 1.404 . S
C3579 H3591 0.930 . S
C3580 C3576 1.524 . S
C3580 H3592 0.956 . S
C3580 H3593 0.961 . S
C3580 H3594 0.961 . S
C3581 C3578 1.539 . S
C3581 H3595 0.958 . S
C3581 H3596 0.961 . S
C3581 H3597 0.960 . S
H3582 C3566 0.931 . S
H3583 C3571 0.929 . S
H3584 C3572 0.960 . S
H3585 C3572 0.962 . S
H3586 C3572 0.960 . S
H3587 C3573 0.961 . S
H3588 C3573 0.961 . S
H3589 C3573 0.961 . S
H3590 C3574 0.931 . S
H3591 C3579 0.930 . S
H3592 C3580 0.956 . S
H3593 C3580 0.961 . S
H3594 C3580 0.961 . S
H3595 C3581 0.958 . S
H3596 C3581 0.961 . S
H3597 C3581 0.960 . S
C3598 C3599 1.391 . S
C3598 C3600 1.394 . S
C3598 H3614 0.931 . S
C3599 C3598 1.391 . S
C3599 C3603 1.376 . S
C3600 C3598 1.394 . S
C3600 C3601 1.369 . S
C3600 C3604 1.531 . S
C3601 C3600 1.369 . S
C3601 C3602 1.410 . S
C3601 C3609 1.503 . S
C3602 C3601 1.410 . S
C3602 C3603 1.392 . S
C3602 C3605 1.511 . S
C3603 C3599 1.376 . S
C3603 C3602 1.392 . S
C3603 H3615 0.929 . S
C3604 C3600 1.531 . S
C3604 H3616 0.960 . S
C3604 H3617 0.962 . S
C3604 H3618 0.960 . S
C3605 C3602 1.511 . S
C3605 H3619 0.961 . S
C3605 H3620 0.961 . S
C3605 H3621 0.961 . S
C3606 C3607 1.370 . S
C3606 C3608 1.363 . S
C3606 H3622 0.931 . S
C3607 C3606 1.370 . S
C3607 C3611 1.408 . S
C3608 C3606 1.363 . S
C3608 C3609 1.370 . S
C3608 C3612 1.524 . S
C3609 C3601 1.503 . S
C3609 C3608 1.370 . S
C3609 C3610 1.403 . S
C3610 C3609 1.403 . S
C3610 C3611 1.404 . S
C3610 C3613 1.539 . S
C3611 C3607 1.408 . S
C3611 C3610 1.404 . S
C3611 H3623 0.930 . S
C3612 C3608 1.524 . S
C3612 H3624 0.956 . S
C3612 H3625 0.961 . S
C3612 H3626 0.961 . S
C3613 C3610 1.539 . S
C3613 H3627 0.958 . S
C3613 H3628 0.961 . S
C3613 H3629 0.960 . S
H3614 C3598 0.931 . S
H3615 C3603 0.929 . S
H3616 C3604 0.960 . S
H3617 C3604 0.962 . S
H3618 C3604 0.960 . S
H3619 C3605 0.961 . S
H3620 C3605 0.961 . S
H3621 C3605 0.961 . S
H3622 C3606 0.931 . S
H3623 C3611 0.930 . S
H3624 C3612 0.956 . S
H3625 C3612 0.961 . S
H3626 C3612 0.961 . S
H3627 C3613 0.958 . S
H3628 C3613 0.961 . S
H3629 C3613 0.960 . S
C3630 C3631 1.391 . S
C3630 C3632 1.394 . S
C3630 H3646 0.931 . S
C3631 C3630 1.391 . S
C3631 C3635 1.376 . S
C3632 C3630 1.394 . S
C3632 C3633 1.369 . S
C3632 C3636 1.531 . S
C3633 C3632 1.369 . S
C3633 C3634 1.410 . S
C3633 C3641 1.503 . S
C3634 C3633 1.410 . S
C3634 C3635 1.392 . S
C3634 C3637 1.511 . S
C3635 C3631 1.376 . S
C3635 C3634 1.392 . S
C3635 H3647 0.929 . S
C3636 C3632 1.531 . S
C3636 H3648 0.960 . S
C3636 H3649 0.962 . S
C3636 H3650 0.960 . S
C3637 C3634 1.511 . S
C3637 H3651 0.961 . S
C3637 H3652 0.961 . S
C3637 H3653 0.961 . S
C3638 C3639 1.370 . S
C3638 C3640 1.363 . S
C3638 H3654 0.931 . S
C3639 C3638 1.370 . S
C3639 C3643 1.408 . S
C3640 C3638 1.363 . S
C3640 C3641 1.370 . S
C3640 C3644 1.524 . S
C3641 C3633 1.503 . S
C3641 C3640 1.370 . S
C3641 C3642 1.403 . S
C3642 C3641 1.403 . S
C3642 C3643 1.404 . S
C3642 C3645 1.539 . S
C3643 C3639 1.408 . S
C3643 C3642 1.404 . S
C3643 H3655 0.930 . S
C3644 C3640 1.524 . S
C3644 H3656 0.956 . S
C3644 H3657 0.961 . S
C3644 H3658 0.961 . S
C3645 C3642 1.539 . S
C3645 H3659 0.958 . S
C3645 H3660 0.961 . S
C3645 H3661 0.960 . S
H3646 C3630 0.931 . S
H3647 C3635 0.929 . S
H3648 C3636 0.960 . S
H3649 C3636 0.962 . S
H3650 C3636 0.960 . S
H3651 C3637 0.961 . S
H3652 C3637 0.961 . S
H3653 C3637 0.961 . S
H3654 C3638 0.931 . S
H3655 C3643 0.930 . S
H3656 C3644 0.956 . S
H3657 C3644 0.961 . S
H3658 C3644 0.961 . S
H3659 C3645 0.958 . S
H3660 C3645 0.961 . S
H3661 C3645 0.960 . S
C3662 C3663 1.391 . S
C3662 C3664 1.394 . S
C3662 H3678 0.931 . S
C3663 C3662 1.391 . S
C3663 C3667 1.376 . S
C3664 C3662 1.394 . S
C3664 C3665 1.369 . S
C3664 C3668 1.531 . S
C3665 C3664 1.369 . S
C3665 C3666 1.410 . S
C3665 C3673 1.503 . S
C3666 C3665 1.410 . S
C3666 C3667 1.392 . S
C3666 C3669 1.511 . S
C3667 C3663 1.376 . S
C3667 C3666 1.392 . S
C3667 H3679 0.929 . S
C3668 C3664 1.531 . S
C3668 H3680 0.960 . S
C3668 H3681 0.962 . S
C3668 H3682 0.960 . S
C3669 C3666 1.511 . S
C3669 H3683 0.961 . S
C3669 H3684 0.961 . S
C3669 H3685 0.961 . S
C3670 C3671 1.370 . S
C3670 C3672 1.363 . S
C3670 H3686 0.931 . S
C3671 C3670 1.370 . S
C3671 C3675 1.408 . S
C3672 C3670 1.363 . S
C3672 C3673 1.370 . S
C3672 C3676 1.524 . S
C3673 C3665 1.503 . S
C3673 C3672 1.370 . S
C3673 C3674 1.403 . S
C3674 C3673 1.403 . S
C3674 C3675 1.404 . S
C3674 C3677 1.539 . S
C3675 C3671 1.408 . S
C3675 C3674 1.404 . S
C3675 H3687 0.930 . S
C3676 C3672 1.524 . S
C3676 H3688 0.956 . S
C3676 H3689 0.961 . S
C3676 H3690 0.961 . S
C3677 C3674 1.539 . S
C3677 H3691 0.958 . S
C3677 H3692 0.961 . S
C3677 H3693 0.960 . S
H3678 C3662 0.931 . S
H3679 C3667 0.929 . S
H3680 C3668 0.960 . S
H3681 C3668 0.962 . S
H3682 C3668 0.960 . S
H3683 C3669 0.961 . S
H3684 C3669 0.961 . S
H3685 C3669 0.961 . S
H3686 C3670 0.931 . S
H3687 C3675 0.930 . S
H3688 C3676 0.956 . S
H3689 C3676 0.961 . S
H3690 C3676 0.961 . S
H3691 C3677 0.958 . S
H3692 C3677 0.961 . S
H3693 C3677 0.960 . S
C3694 C3695 1.391 . S
C3694 C3696 1.394 . S
C3694 H3710 0.931 . S
C3695 C3694 1.391 . S
C3695 C3699 1.376 . S
C3696 C3694 1.394 . S
C3696 C3697 1.369 . S
C3696 C3700 1.531 . S
C3697 C3696 1.369 . S
C3697 C3698 1.410 . S
C3697 C3705 1.503 . S
C3698 C3697 1.410 . S
C3698 C3699 1.392 . S
C3698 C3701 1.511 . S
C3699 C3695 1.376 . S
C3699 C3698 1.392 . S
C3699 H3711 0.929 . S
C3700 C3696 1.531 . S
C3700 H3712 0.960 . S
C3700 H3713 0.962 . S
C3700 H3714 0.960 . S
C3701 C3698 1.511 . S
C3701 H3715 0.961 . S
C3701 H3716 0.961 . S
C3701 H3717 0.961 . S
C3702 C3703 1.370 . S
C3702 C3704 1.363 . S
C3702 H3718 0.931 . S
C3703 C3702 1.370 . S
C3703 C3707 1.408 . S
C3704 C3702 1.363 . S
C3704 C3705 1.370 . S
C3704 C3708 1.524 . S
C3705 C3697 1.503 . S
C3705 C3704 1.370 . S
C3705 C3706 1.403 . S
C3706 C3705 1.403 . S
C3706 C3707 1.404 . S
C3706 C3709 1.539 . S
C3707 C3703 1.408 . S
C3707 C3706 1.404 . S
C3707 H3719 0.930 . S
C3708 C3704 1.524 . S
C3708 H3720 0.956 . S
C3708 H3721 0.961 . S
C3708 H3722 0.961 . S
C3709 C3706 1.539 . S
C3709 H3723 0.958 . S
C3709 H3724 0.961 . S
C3709 H3725 0.960 . S
H3710 C3694 0.931 . S
H3711 C3699 0.929 . S
H3712 C3700 0.960 . S
H3713 C3700 0.962 . S
H3714 C3700 0.960 . S
H3715 C3701 0.961 . S
H3716 C3701 0.961 . S
H3717 C3701 0.961 . S
H3718 C3702 0.931 . S
H3719 C3707 0.930 . S
H3720 C3708 0.956 . S
H3721 C3708 0.961 . S
H3722 C3708 0.961 . S
H3723 C3709 0.958 . S
H3724 C3709 0.961 . S
H3725 C3709 0.960 . S
C3726 C3727 1.391 . S
C3726 C3728 1.394 . S
C3726 H3742 0.931 . S
C3727 C3726 1.391 . S
C3727 C3731 1.376 . S
C3728 C3726 1.394 . S
C3728 C3729 1.369 . S
C3728 C3732 1.531 . S
C3729 C3728 1.369 . S
C3729 C3730 1.410 . S
C3729 C3737 1.503 . S
C3730 C3729 1.410 . S
C3730 C3731 1.392 . S
C3730 C3733 1.511 . S
C3731 C3727 1.376 . S
C3731 C3730 1.392 . S
C3731 H3743 0.929 . S
C3732 C3728 1.531 . S
C3732 H3744 0.960 . S
C3732 H3745 0.962 . S
C3732 H3746 0.960 . S
C3733 C3730 1.511 . S
C3733 H3747 0.961 . S
C3733 H3748 0.961 . S
C3733 H3749 0.961 . S
C3734 C3735 1.370 . S
C3734 C3736 1.363 . S
C3734 H3750 0.931 . S
C3735 C3734 1.370 . S
C3735 C3739 1.408 . S
C3736 C3734 1.363 . S
C3736 C3737 1.370 . S
C3736 C3740 1.524 . S
C3737 C3729 1.503 . S
C3737 C3736 1.370 . S
C3737 C3738 1.403 . S
C3738 C3737 1.403 . S
C3738 C3739 1.404 . S
C3738 C3741 1.539 . S
C3739 C3735 1.408 . S
C3739 C3738 1.404 . S
C3739 H3751 0.930 . S
C3740 C3736 1.524 . S
C3740 H3752 0.956 . S
C3740 H3753 0.961 . S
C3740 H3754 0.961 . S
C3741 C3738 1.539 . S
C3741 H3755 0.958 . S
C3741 H3756 0.961 . S
C3741 H3757 0.960 . S
H3742 C3726 0.931 . S
H3743 C3731 0.929 . S
H3744 C3732 0.960 . S
H3745 C3732 0.962 . S
H3746 C3732 0.960 . S
H3747 C3733 0.961 . S
H3748 C3733 0.961 . S
H3749 C3733 0.961 . S
H3750 C3734 0.931 . S
H3751 C3739 0.930 . S
H3752 C3740 0.956 . S
H3753 C3740 0.961 . S
H3754 C3740 0.961 . S
H3755 C3741 0.958 . S
H3756 C3741 0.961 . S
H3757 C3741 0.960 . S
C3758 C3759 1.391 . S
C3758 C3760 1.394 . S
C3758 H3774 0.931 . S
C3759 C3758 1.391 . S
C3759 C3763 1.376 . S
C3760 C3758 1.394 . S
C3760 C3761 1.369 . S
C3760 C3764 1.531 . S
C3761 C3760 1.369 . S
C3761 C3762 1.410 . S
C3761 C3769 1.503 . S
C3762 C3761 1.410 . S
C3762 C3763 1.392 . S
C3762 C3765 1.511 . S
C3763 C3759 1.376 . S
C3763 C3762 1.392 . S
C3763 H3775 0.929 . S
C3764 C3760 1.531 . S
C3764 H3776 0.960 . S
C3764 H3777 0.962 . S
C3764 H3778 0.960 . S
C3765 C3762 1.511 . S
C3765 H3779 0.961 . S
C3765 H3780 0.961 . S
C3765 H3781 0.961 . S
C3766 C3767 1.370 . S
C3766 C3768 1.363 . S
C3766 H3782 0.931 . S
C3767 C3766 1.370 . S
C3767 C3771 1.408 . S
C3768 C3766 1.363 . S
C3768 C3769 1.370 . S
C3768 C3772 1.524 . S
C3769 C3761 1.503 . S
C3769 C3768 1.370 . S
C3769 C3770 1.403 . S
C3770 C3769 1.403 . S
C3770 C3771 1.404 . S
C3770 C3773 1.539 . S
C3771 C3767 1.408 . S
C3771 C3770 1.404 . S
C3771 H3783 0.930 . S
C3772 C3768 1.524 . S
C3772 H3784 0.956 . S
C3772 H3785 0.961 . S
C3772 H3786 0.961 . S
C3773 C3770 1.539 . S
C3773 H3787 0.958 . S
C3773 H3788 0.961 . S
C3773 H3789 0.960 . S
H3774 C3758 0.931 . S
H3775 C3763 0.929 . S
H3776 C3764 0.960 . S
H3777 C3764 0.962 . S
H3778 C3764 0.960 . S
H3779 C3765 0.961 . S
H3780 C3765 0.961 . S
H3781 C3765 0.961 . S
H3782 C3766 0.931 . S
H3783 C3771 0.930 . S
H3784 C3772 0.956 . S
H3785 C3772 0.961 . S
H3786 C3772 0.961 . S
H3787 C3773 0.958 . S
H3788 C3773 0.961 . S
H3789 C3773 0.960 . S
C3790 C3791 1.391 . S
C3790 C3792 1.394 . S
C3790 H3806 0.931 . S
C3791 C3790 1.391 . S
C3791 C3795 1.376 . S
C3792 C3790 1.394 . S
C3792 C3793 1.369 . S
C3792 C3796 1.531 . S
C3793 C3792 1.369 . S
C3793 C3794 1.410 . S
C3793 C3801 1.503 . S
C3794 C3793 1.410 . S
C3794 C3795 1.392 . S
C3794 C3797 1.511 . S
C3795 C3791 1.376 . S
C3795 C3794 1.392 . S
C3795 H3807 0.929 . S
C3796 C3792 1.531 . S
C3796 H3808 0.960 . S
C3796 H3809 0.962 . S
C3796 H3810 0.960 . S
C3797 C3794 1.511 . S
C3797 H3811 0.961 . S
C3797 H3812 0.961 . S
C3797 H3813 0.961 . S
C3798 C3799 1.370 . S
C3798 C3800 1.363 . S
C3798 H3814 0.931 . S
C3799 C3798 1.370 . S
C3799 C3803 1.408 . S
C3800 C3798 1.363 . S
C3800 C3801 1.370 . S
C3800 C3804 1.524 . S
C3801 C3793 1.503 . S
C3801 C3800 1.370 . S
C3801 C3802 1.403 . S
C3802 C3801 1.403 . S
C3802 C3803 1.404 . S
C3802 C3805 1.539 . S
C3803 C3799 1.408 . S
C3803 C3802 1.404 . S
C3803 H3815 0.930 . S
C3804 C3800 1.524 . S
C3804 H3816 0.956 . S
C3804 H3817 0.961 . S
C3804 H3818 0.961 . S
C3805 C3802 1.539 . S
C3805 H3819 0.958 . S
C3805 H3820 0.961 . S
C3805 H3821 0.960 . S
H3806 C3790 0.931 . S
H3807 C3795 0.929 . S
H3808 C3796 0.960 . S
H3809 C3796 0.962 . S
H3810 C3796 0.960 . S
H3811 C3797 0.961 . S
H3812 C3797 0.961 . S
H3813 C3797 0.961 . S
H3814 C3798 0.931 . S
H3815 C3803 0.930 . S
H3816 C3804 0.956 . S
H3817 C3804 0.961 . S
H3818 C3804 0.961 . S
H3819 C3805 0.958 . S
H3820 C3805 0.961 . S
H3821 C3805 0.960 . S
C3822 C3823 1.391 . S
C3822 C3824 1.394 . S
C3822 H3838 0.931 . S
C3823 C3822 1.391 . S
C3823 C3827 1.376 . S
C3824 C3822 1.394 . S
C3824 C3825 1.369 . S
C3824 C3828 1.531 . S
C3825 C3824 1.369 . S
C3825 C3826 1.410 . S
C3825 C3833 1.503 . S
C3826 C3825 1.410 . S
C3826 C3827 1.392 . S
C3826 C3829 1.511 . S
C3827 C3823 1.376 . S
C3827 C3826 1.392 . S
C3827 H3839 0.929 . S
C3828 C3824 1.531 . S
C3828 H3840 0.960 . S
C3828 H3841 0.962 . S
C3828 H3842 0.960 . S
C3829 C3826 1.511 . S
C3829 H3843 0.961 . S
C3829 H3844 0.961 . S
C3829 H3845 0.961 . S
C3830 C3831 1.370 . S
C3830 C3832 1.363 . S
C3830 H3846 0.931 . S
C3831 C3830 1.370 . S
C3831 C3835 1.408 . S
C3832 C3830 1.363 . S
C3832 C3833 1.370 . S
C3832 C3836 1.524 . S
C3833 C3825 1.503 . S
C3833 C3832 1.370 . S
C3833 C3834 1.403 . S
C3834 C3833 1.403 . S
C3834 C3835 1.404 . S
C3834 C3837 1.539 . S
C3835 C3831 1.408 . S
C3835 C3834 1.404 . S
C3835 H3847 0.930 . S
C3836 C3832 1.524 . S
C3836 H3848 0.956 . S
C3836 H3849 0.961 . S
C3836 H3850 0.961 . S
C3837 C3834 1.539 . S
C3837 H3851 0.958 . S
C3837 H3852 0.961 . S
C3837 H3853 0.960 . S
H3838 C3822 0.931 . S
H3839 C3827 0.929 . S
H3840 C3828 0.960 . S
H3841 C3828 0.962 . S
H3842 C3828 0.960 . S
H3843 C3829 0.961 . S
H3844 C3829 0.961 . S
H3845 C3829 0.961 . S
H3846 C3830 0.931 . S
H3847 C3835 0.930 . S
H3848 C3836 0.956 . S
H3849 C3836 0.961 . S
H3850 C3836 0.961 . S
H3851 C3837 0.958 . S
H3852 C3837 0.961 . S
H3853 C3837 0.960 . S
C3854 C3855 1.391 . S
C3854 C3856 1.394 . S
C3854 H3870 0.931 . S
C3855 C3854 1.391 . S
C3855 C3859 1.376 . S
C3856 C3854 1.394 . S
C3856 C3857 1.369 . S
C3856 C3860 1.531 . S
C3857 C3856 1.369 . S
C3857 C3858 1.410 . S
C3857 C3865 1.503 . S
C3858 C3857 1.410 . S
C3858 C3859 1.392 . S
C3858 C3861 1.511 . S
C3859 C3855 1.376 . S
C3859 C3858 1.392 . S
C3859 H3871 0.929 . S
C3860 C3856 1.531 . S
C3860 H3872 0.960 . S
C3860 H3873 0.962 . S
C3860 H3874 0.960 . S
C3861 C3858 1.511 . S
C3861 H3875 0.961 . S
C3861 H3876 0.961 . S
C3861 H3877 0.961 . S
C3862 C3863 1.370 . S
C3862 C3864 1.363 . S
C3862 H3878 0.931 . S
C3863 C3862 1.370 . S
C3863 C3867 1.408 . S
C3864 C3862 1.363 . S
C3864 C3865 1.370 . S
C3864 C3868 1.524 . S
C3865 C3857 1.503 . S
C3865 C3864 1.370 . S
C3865 C3866 1.403 . S
C3866 C3865 1.403 . S
C3866 C3867 1.404 . S
C3866 C3869 1.539 . S
C3867 C3863 1.408 . S
C3867 C3866 1.404 . S
C3867 H3879 0.930 . S
C3868 C3864 1.524 . S
C3868 H3880 0.956 . S
C3868 H3881 0.961 . S
C3868 H3882 0.961 . S
C3869 C3866 1.539 . S
C3869 H3883 0.958 . S
C3869 H3884 0.961 . S
C3869 H3885 0.960 . S
H3870 C3854 0.931 . S
H3871 C3859 0.929 . S
H3872 C3860 0.960 . S
H3873 C3860 0.962 . S
H3874 C3860 0.960 . S
H3875 C3861 0.961 . S
H3876 C3861 0.961 . S
H3877 C3861 0.961 . S
H3878 C3862 0.931 . S
H3879 C3867 0.930 . S
H3880 C3868 0.956 . S
H3881 C3868 0.961 . S
H3882 C3868 0.961 . S
H3883 C3869 0.958 . S
H3884 C3869 0.961 . S
H3885 C3869 0.960 . S
C3886 C3887 1.391 . S
C3886 C3888 1.394 . S
C3886 H3902 0.931 . S
C3887 C3886 1.391 . S
C3887 C3891 1.376 . S
C3888 C3886 1.394 . S
C3888 C3889 1.369 . S
C3888 C3892 1.531 . S
C3889 C3888 1.369 . S
C3889 C3890 1.410 . S
C3889 C3897 1.503 . S
C3890 C3889 1.410 . S
C3890 C3891 1.392 . S
C3890 C3893 1.511 . S
C3891 C3887 1.376 . S
C3891 C3890 1.392 . S
C3891 H3903 0.929 . S
C3892 C3888 1.531 . S
C3892 H3904 0.960 . S
C3892 H3905 0.962 . S
C3892 H3906 0.960 . S
C3893 C3890 1.511 . S
C3893 H3907 0.961 . S
C3893 H3908 0.961 . S
C3893 H3909 0.961 . S
C3894 C3895 1.370 . S
C3894 C3896 1.363 . S
C3894 H3910 0.931 . S
C3895 C3894 1.370 . S
C3895 C3899 1.408 . S
C3896 C3894 1.363 . S
C3896 C3897 1.370 . S
C3896 C3900 1.524 . S
C3897 C3889 1.503 . S
C3897 C3896 1.370 . S
C3897 C3898 1.403 . S
C3898 C3897 1.403 . S
C3898 C3899 1.404 . S
C3898 C3901 1.539 . S
C3899 C3895 1.408 . S
C3899 C3898 1.404 . S
C3899 H3911 0.930 . S
C3900 C3896 1.524 . S
C3900 H3912 0.956 . S
C3900 H3913 0.961 . S
C3900 H3914 0.961 . S
C3901 C3898 1.539 . S
C3901 H3915 0.958 . S
C3901 H3916 0.961 . S
C3901 H3917 0.960 . S
H3902 C3886 0.931 . S
H3903 C3891 0.929 . S
H3904 C3892 0.960 . S
H3905 C3892 0.962 . S
H3906 C3892 0.960 . S
H3907 C3893 0.961 . S
H3908 C3893 0.961 . S
H3909 C3893 0.961 . S
H3910 C3894 0.931 . S
H3911 C3899 0.930 . S
H3912 C3900 0.956 . S
H3913 C3900 0.961 . S
H3914 C3900 0.961 . S
H3915 C3901 0.958 . S
H3916 C3901 0.961 . S
H3917 C3901 0.960 . S
C3918 C3919 1.334 1_655 S
C3918 C3920 1.422 . S
C3918 H3934 0.962 . S
C3919 C3918 1.334 1_455 S
C3919 C3923 1.376 . S
C3920 C3918 1.422 . S
C3920 C3921 1.369 1_655 S
C3920 C3924 1.531 . S
C3921 C3920 1.369 1_455 S
C3921 C3922 1.410 . S
C3921 C3929 1.503 . S
C3922 C3921 1.410 . S
C3922 C3923 1.392 . S
C3922 C3925 1.511 . S
C3923 C3919 1.376 . S
C3923 C3922 1.392 . S
C3923 H3935 0.929 . S
C3924 C3920 1.531 . S
C3924 H3936 0.960 . S
C3924 H3937 0.962 . S
C3924 H3938 0.960 . S
C3925 C3922 1.511 . S
C3925 H3939 0.961 . S
C3925 H3940 0.961 . S
C3925 H3941 0.961 . S
C3926 C3927 1.370 . S
C3926 C3928 1.363 . S
C3926 H3942 0.931 . S
C3927 C3926 1.370 . S
C3927 C3931 1.408 . S
C3928 C3926 1.363 . S
C3928 C3929 1.370 . S
C3928 C3932 1.524 . S
C3929 C3921 1.503 . S
C3929 C3928 1.370 . S
C3929 C3930 1.403 . S
C3930 C3929 1.403 . S
C3930 C3931 1.404 . S
C3930 C3933 1.539 . S
C3931 C3927 1.408 . S
C3931 C3930 1.404 . S
C3931 H3943 0.930 . S
C3932 C3928 1.524 . S
C3932 H3944 0.956 1_455 S
C3932 H3945 0.961 . S
C3932 H3946 0.961 . S
C3933 C3930 1.539 . S
C3933 H3947 0.958 . S
C3933 H3948 0.961 . S
C3933 H3949 0.960 . S
H3934 C3918 0.962 . S
H3935 C3923 0.929 . S
H3936 C3924 0.960 . S
H3937 C3924 0.962 . S
H3938 C3924 0.960 . S
H3939 C3925 0.961 . S
H3940 C3925 0.961 . S
H3941 C3925 0.961 . S
H3942 C3926 0.931 . S
H3943 C3931 0.930 . S
H3944 C3932 0.956 1_655 S
H3945 C3932 0.961 . S
H3946 C3932 0.961 . S
H3947 C3933 0.958 . S
H3948 C3933 0.961 . S
H3949 C3933 0.960 . S
C3950 C3951 1.391 . S
C3950 C3952 1.394 . S
C3950 H3966 0.931 . S
C3951 C3950 1.391 . S
C3951 C3955 1.376 . S
C3952 C3950 1.394 . S
C3952 C3953 1.369 . S
C3952 C3956 1.531 . S
C3953 C3952 1.369 . S
C3953 C3954 1.410 . S
C3953 C3961 1.503 . S
C3954 C3953 1.410 . S
C3954 C3955 1.392 . S
C3954 C3957 1.511 . S
C3955 C3951 1.376 . S
C3955 C3954 1.392 . S
C3955 H3967 0.929 . S
C3956 C3952 1.531 . S
C3956 H3968 0.960 . S
C3956 H3969 0.962 . S
C3956 H3970 0.960 . S
C3957 C3954 1.511 . S
C3957 H3971 0.961 . S
C3957 H3972 0.961 . S
C3957 H3973 0.961 . S
C3958 C3959 1.370 . S
C3958 C3960 1.363 . S
C3958 H3974 0.931 . S
C3959 C3958 1.370 . S
C3959 C3963 1.408 . S
C3960 C3958 1.363 . S
C3960 C3961 1.370 . S
C3960 C3964 1.524 . S
C3961 C3953 1.503 . S
C3961 C3960 1.370 . S
C3961 C3962 1.403 . S
C3962 C3961 1.403 . S
C3962 C3963 1.404 . S
C3962 C3965 1.539 . S
C3963 C3959 1.408 . S
C3963 C3962 1.404 . S
C3963 H3975 0.930 . S
C3964 C3960 1.524 . S
C3964 H3976 0.956 . S
C3964 H3977 0.961 . S
C3964 H3978 0.961 . S
C3965 C3962 1.539 . S
C3965 H3979 0.958 . S
C3965 H3980 0.961 . S
C3965 H3981 0.960 . S
H3966 C3950 0.931 . S
H3967 C3955 0.929 . S
H3968 C3956 0.960 . S
H3969 C3956 0.962 . S
H3970 C3956 0.960 . S
H3971 C3957 0.961 . S
H3972 C3957 0.961 . S
H3973 C3957 0.961 . S
H3974 C3958 0.931 . S
H3975 C3963 0.930 . S
H3976 C3964 0.956 . S
H3977 C3964 0.961 . S
H3978 C3964 0.961 . S
H3979 C3965 0.958 . S
H3980 C3965 0.961 . S
H3981 C3965 0.960 . S
C3982 C3983 1.391 . S
C3982 C3984 1.394 . S
C3982 H3998 0.931 . S
C3983 C3982 1.391 . S
C3983 C3987 1.427 . S
C3984 C3982 1.394 . S
C3984 C3985 1.369 . S
C3984 C3988 1.531 . S
C3985 C3984 1.369 . S
C3985 C3986 1.450 . S
C3985 C3993 1.503 . S
C3986 C3985 1.450 . S
C3986 C3987 1.406 . S
C3986 C3989 1.485 1_565 S
C3987 C3983 1.427 . S
C3987 C3986 1.406 . S
C3987 H3999 0.850 1_565 S
C3988 C3984 1.531 . S
C3988 H4000 0.960 . S
C3988 H4001 0.962 . S
C3988 H4002 0.960 . S
C3989 C3986 1.485 1_545 S
C3989 H4003 0.961 . S
C3989 H4004 0.961 . S
C3989 H4005 0.961 . S
C3990 C3991 1.370 . S
C3990 C3992 1.363 . S
C3990 H4006 0.931 1_565 S
C3991 C3990 1.370 . S
C3991 C3995 1.408 . S
C3992 C3990 1.363 . S
C3992 C3993 1.370 . S
C3992 C3996 1.524 1_565 S
C3993 C3985 1.503 . S
C3993 C3992 1.370 . S
C3993 C3994 1.403 . S
C3994 C3993 1.403 . S
C3994 C3995 1.404 . S
C3994 C3997 1.539 . S
C3995 C3991 1.408 . S
C3995 C3994 1.404 . S
C3995 H4007 0.930 . S
C3996 C3992 1.524 1_545 S
C3996 H4008 0.956 1_545 S
C3996 H4009 0.961 . S
C3996 H4010 0.961 . S
C3997 C3994 1.539 . S
C3997 H4011 0.958 . S
C3997 H4012 0.961 . S
C3997 H4013 0.960 . S
H3998 C3982 0.931 . S
H3999 C3987 0.850 1_545 S
H4000 C3988 0.960 . S
H4001 C3988 0.962 . S
H4002 C3988 0.960 . S
H4003 C3989 0.961 . S
H4004 C3989 0.961 . S
H4005 C3989 0.961 . S
H4006 C3990 0.931 1_545 S
H4007 C3995 0.930 . S
H4008 C3996 0.956 1_565 S
H4009 C3996 0.961 . S
H4010 C3996 0.961 . S
H4011 C3997 0.958 . S
H4012 C3997 0.961 . S
H4013 C3997 0.960 . S
C4014 C4015 1.391 1_545 S
C4014 C4016 1.394 . S
C4014 H4030 0.931 . S
C4015 C4014 1.391 1_565 S
C4015 C4019 1.376 . S
C4016 C4014 1.394 . S
C4016 C4017 1.369 1_545 S
C4016 C4020 1.531 . S
C4017 C4016 1.369 1_565 S
C4017 C4018 1.410 . S
C4017 C4025 1.503 . S
C4018 C4017 1.410 . S
C4018 C4019 1.392 . S
C4018 C4021 1.511 . S
C4019 C4015 1.376 . S
C4019 C4018 1.392 . S
C4019 H4031 0.929 . S
C4020 C4016 1.531 . S
C4020 H4032 0.960 . S
C4020 H4033 0.962 . S
C4020 H4034 0.960 . S
C4021 C4018 1.511 . S
C4021 H4035 0.961 . S
C4021 H4036 0.961 . S
C4021 H4037 0.961 . S
C4022 C4023 1.370 . S
C4022 C4024 1.363 . S
C4022 H4038 0.931 . S
C4023 C4022 1.370 . S
C4023 C4027 1.408 1_565 S
C4024 C4022 1.363 . S
C4024 C4025 1.370 . S
C4024 C4028 1.524 . S
C4025 C4017 1.503 . S
C4025 C4024 1.370 . S
C4025 C4026 1.402 1_565 S
C4026 C4025 1.402 1_545 S
C4026 C4027 1.406 . S
C4026 C4029 1.538 . S
C4027 C4023 1.408 1_545 S
C4027 C4026 1.406 . S
C4027 H4039 0.930 . S
C4028 C4024 1.524 . S
C4028 H4040 0.956 . S
C4028 H4041 0.961 . S
C4028 H4042 0.961 . S
C4029 C4026 1.538 . S
C4029 H4043 0.958 . S
C4029 H4044 0.951 1_545 S
C4029 H4045 0.960 1_545 S
H4030 C4014 0.931 . S
H4031 C4019 0.929 . S
H4032 C4020 0.960 . S
H4033 C4020 0.962 . S
H4034 C4020 0.960 . S
H4035 C4021 0.961 . S
H4036 C4021 0.961 . S
H4037 C4021 0.961 . S
H4038 C4022 0.931 . S
H4039 C4027 0.930 . S
H4040 C4028 0.956 . S
H4041 C4028 0.961 . S
H4042 C4028 0.961 . S
H4043 C4029 0.958 . S
H4044 C4029 0.951 1_565 S
H4045 C4029 0.960 1_565 S
C4046 C4047 1.391 . S
C4046 C4048 1.394 . S
C4046 H4062 0.931 . S
C4047 C4046 1.391 . S
C4047 C4051 1.376 . S
C4048 C4046 1.394 . S
C4048 C4049 1.369 . S
C4048 C4052 1.531 . S
C4049 C4048 1.369 . S
C4049 C4050 1.410 . S
C4049 C4057 1.503 . S
C4050 C4049 1.410 . S
C4050 C4051 1.392 . S
C4050 C4053 1.511 1_455 S
C4051 C4047 1.376 . S
C4051 C4050 1.392 . S
C4051 H4063 0.929 1_455 S
C4052 C4048 1.531 . S
C4052 H4064 0.960 . S
C4052 H4065 0.962 . S
C4052 H4066 0.960 . S
C4053 C4050 1.511 1_655 S
C4053 H4067 0.961 . S
C4053 H4068 0.961 . S
C4053 H4069 0.961 . S
C4054 C4055 1.370 1_655 S
C4054 C4056 1.363 . S
C4054 H4070 0.931 . S
C4055 C4054 1.370 1_455 S
C4055 C4059 1.408 . S
C4056 C4054 1.363 . S
C4056 C4057 1.370 1_655 S
C4056 C4060 1.524 . S
C4057 C4049 1.503 . S
C4057 C4056 1.370 1_455 S
C4057 C4058 1.403 . S
C4058 C4057 1.403 . S
C4058 C4059 1.404 . S
C4058 C4061 1.539 . S
C4059 C4055 1.408 . S
C4059 C4058 1.404 . S
C4059 H4071 0.930 . S
C4060 C4056 1.524 . S
C4060 H4072 0.956 . S
C4060 H4073 0.961 . S
C4060 H4074 0.961 . S
C4061 C4058 1.539 . S
C4061 H4075 0.958 . S
C4061 H4076 0.961 . S
C4061 H4077 0.960 . S
H4062 C4046 0.931 . S
H4063 C4051 0.929 1_655 S
H4064 C4052 0.960 . S
H4065 C4052 0.962 . S
H4066 C4052 0.960 . S
H4067 C4053 0.961 . S
H4068 C4053 0.961 . S
H4069 C4053 0.961 . S
H4070 C4054 0.931 . S
H4071 C4059 0.930 . S
H4072 C4060 0.956 . S
H4073 C4060 0.961 . S
H4074 C4060 0.961 . S
H4075 C4061 0.958 . S
H4076 C4061 0.961 . S
H4077 C4061 0.960 . S
C4078 C4079 1.391 . S
C4078 C4080 1.394 . S
C4078 H4094 0.931 . S
C4079 C4078 1.391 . S
C4079 C4083 1.376 . S
C4080 C4078 1.394 . S
C4080 C4081 1.369 . S
C4080 C4084 1.531 . S
C4081 C4080 1.369 . S
C4081 C4082 1.410 . S
C4081 C4089 1.503 . S
C4082 C4081 1.410 . S
C4082 C4083 1.392 . S
C4082 C4085 1.511 . S
C4083 C4079 1.376 . S
C4083 C4082 1.392 . S
C4083 H4095 0.929 . S
C4084 C4080 1.531 . S
C4084 H4096 0.960 . S
C4084 H4097 0.962 . S
C4084 H4098 0.960 . S
C4085 C4082 1.511 . S
C4085 H4099 0.961 . S
C4085 H4100 0.961 . S
C4085 H4101 0.961 . S
C4086 C4087 1.370 . S
C4086 C4088 1.363 . S
C4086 H4102 0.931 . S
C4087 C4086 1.370 . S
C4087 C4091 1.408 . S
C4088 C4086 1.363 . S
C4088 C4089 1.370 . S
C4088 C4092 1.524 . S
C4089 C4081 1.503 . S
C4089 C4088 1.370 . S
C4089 C4090 1.403 . S
C4090 C4089 1.403 . S
C4090 C4091 1.404 . S
C4090 C4093 1.539 . S
C4091 C4087 1.408 . S
C4091 C4090 1.404 . S
C4091 H4103 0.930 . S
C4092 C4088 1.524 . S
C4092 H4104 0.956 . S
C4092 H4105 0.961 . S
C4092 H4106 0.961 . S
C4093 C4090 1.539 . S
C4093 H4107 0.958 . S
C4093 H4108 0.961 . S
C4093 H4109 0.960 . S
H4094 C4078 0.931 . S
H4095 C4083 0.929 . S
H4096 C4084 0.960 . S
H4097 C4084 0.962 . S
H4098 C4084 0.960 . S
H4099 C4085 0.961 . S
H4100 C4085 0.961 . S
H4101 C4085 0.961 . S
H4102 C4086 0.931 . S
H4103 C4091 0.930 . S
H4104 C4092 0.956 . S
H4105 C4092 0.961 . S
H4106 C4092 0.961 . S
H4107 C4093 0.958 . S
H4108 C4093 0.961 . S
H4109 C4093 0.960 . S
C4110 C4111 1.391 . S
C4110 C4112 1.394 . S
C4110 H4126 0.931 . S
C4111 C4110 1.391 . S
C4111 C4115 1.376 . S
C4112 C4110 1.394 . S
C4112 C4113 1.369 . S
C4112 C4116 1.531 . S
C4113 C4112 1.369 . S
C4113 C4114 1.410 . S
C4113 C4121 1.503 . S
C4114 C4113 1.410 . S
C4114 C4115 1.392 . S
C4114 C4117 1.511 . S
C4115 C4111 1.376 . S
C4115 C4114 1.392 . S
C4115 H4127 0.929 . S
C4116 C4112 1.531 . S
C4116 H4128 0.960 . S
C4116 H4129 0.962 . S
C4116 H4130 0.960 . S
C4117 C4114 1.511 . S
C4117 H4131 0.961 . S
C4117 H4132 0.961 . S
C4117 H4133 0.961 . S
C4118 C4119 1.370 . S
C4118 C4120 1.363 . S
C4118 H4134 0.931 . S
C4119 C4118 1.370 . S
C4119 C4123 1.408 . S
C4120 C4118 1.363 . S
C4120 C4121 1.370 . S
C4120 C4124 1.524 . S
C4121 C4113 1.503 . S
C4121 C4120 1.370 . S
C4121 C4122 1.403 . S
C4122 C4121 1.403 . S
C4122 C4123 1.404 . S
C4122 C4125 1.539 . S
C4123 C4119 1.408 . S
C4123 C4122 1.404 . S
C4123 H4135 0.930 . S
C4124 C4120 1.524 . S
C4124 H4136 0.956 . S
C4124 H4137 0.961 . S
C4124 H4138 0.961 . S
C4125 C4122 1.539 . S
C4125 H4139 0.958 . S
C4125 H4140 0.961 . S
C4125 H4141 0.960 . S
H4126 C4110 0.931 . S
H4127 C4115 0.929 . S
H4128 C4116 0.960 . S
H4129 C4116 0.962 . S
H4130 C4116 0.960 . S
H4131 C4117 0.961 . S
H4132 C4117 0.961 . S
H4133 C4117 0.961 . S
H4134 C4118 0.931 . S
H4135 C4123 0.930 . S
H4136 C4124 0.956 . S
H4137 C4124 0.961 . S
H4138 C4124 0.961 . S
H4139 C4125 0.958 . S
H4140 C4125 0.961 . S
H4141 C4125 0.960 . S
C4142 C4143 1.391 . S
C4142 C4144 1.394 . S
C4142 H4158 0.931 . S
C4143 C4142 1.391 . S
C4143 C4147 1.376 . S
C4144 C4142 1.394 . S
C4144 C4145 1.369 . S
C4144 C4148 1.531 . S
C4145 C4144 1.369 . S
C4145 C4146 1.410 . S
C4145 C4153 1.503 . S
C4146 C4145 1.410 . S
C4146 C4147 1.392 . S
C4146 C4149 1.511 . S
C4147 C4143 1.376 . S
C4147 C4146 1.392 . S
C4147 H4159 0.929 . S
C4148 C4144 1.531 . S
C4148 H4160 0.960 . S
C4148 H4161 0.962 . S
C4148 H4162 0.960 . S
C4149 C4146 1.511 . S
C4149 H4163 0.961 . S
C4149 H4164 0.961 . S
C4149 H4165 0.961 . S
C4150 C4151 1.370 . S
C4150 C4152 1.363 . S
C4150 H4166 0.931 . S
C4151 C4150 1.370 . S
C4151 C4155 1.408 . S
C4152 C4150 1.363 . S
C4152 C4153 1.370 . S
C4152 C4156 1.524 . S
C4153 C4145 1.503 . S
C4153 C4152 1.370 . S
C4153 C4154 1.403 . S
C4154 C4153 1.403 . S
C4154 C4155 1.404 . S
C4154 C4157 1.539 . S
C4155 C4151 1.408 . S
C4155 C4154 1.404 . S
C4155 H4167 0.930 . S
C4156 C4152 1.524 . S
C4156 H4168 0.956 . S
C4156 H4169 0.961 . S
C4156 H4170 0.961 . S
C4157 C4154 1.539 . S
C4157 H4171 0.958 . S
C4157 H4172 0.961 . S
C4157 H4173 0.960 . S
H4158 C4142 0.931 . S
H4159 C4147 0.929 . S
H4160 C4148 0.960 . S
H4161 C4148 0.962 . S
H4162 C4148 0.960 . S
H4163 C4149 0.961 . S
H4164 C4149 0.961 . S
H4165 C4149 0.961 . S
H4166 C4150 0.931 . S
H4167 C4155 0.930 . S
H4168 C4156 0.956 . S
H4169 C4156 0.961 . S
H4170 C4156 0.961 . S
H4171 C4157 0.958 . S
H4172 C4157 0.961 . S
H4173 C4157 0.960 . S
C4174 C4175 1.391 . S
C4174 C4176 1.394 . S
C4174 H4190 0.931 . S
C4175 C4174 1.391 . S
C4175 C4179 1.376 . S
C4176 C4174 1.394 . S
C4176 C4177 1.369 . S
C4176 C4180 1.531 . S
C4177 C4176 1.369 . S
C4177 C4178 1.410 . S
C4177 C4185 1.503 . S
C4178 C4177 1.410 . S
C4178 C4179 1.392 . S
C4178 C4181 1.511 . S
C4179 C4175 1.376 . S
C4179 C4178 1.392 . S
C4179 H4191 0.929 . S
C4180 C4176 1.531 . S
C4180 H4192 0.960 . S
C4180 H4193 0.962 . S
C4180 H4194 0.960 . S
C4181 C4178 1.511 . S
C4181 H4195 0.961 . S
C4181 H4196 0.961 . S
C4181 H4197 0.961 . S
C4182 C4183 1.370 . S
C4182 C4184 1.363 . S
C4182 H4198 0.931 . S
C4183 C4182 1.370 . S
C4183 C4187 1.408 . S
C4184 C4182 1.363 . S
C4184 C4185 1.370 . S
C4184 C4188 1.524 . S
C4185 C4177 1.503 . S
C4185 C4184 1.370 . S
C4185 C4186 1.403 . S
C4186 C4185 1.403 . S
C4186 C4187 1.404 . S
C4186 C4189 1.539 . S
C4187 C4183 1.408 . S
C4187 C4186 1.404 . S
C4187 H4199 0.930 . S
C4188 C4184 1.524 . S
C4188 H4200 0.956 . S
C4188 H4201 0.961 . S
C4188 H4202 0.961 . S
C4189 C4186 1.539 . S
C4189 H4203 0.958 . S
C4189 H4204 0.961 . S
C4189 H4205 0.960 . S
H4190 C4174 0.931 . S
H4191 C4179 0.929 . S
H4192 C4180 0.960 . S
H4193 C4180 0.962 . S
H4194 C4180 0.960 . S
H4195 C4181 0.961 . S
H4196 C4181 0.961 . S
H4197 C4181 0.961 . S
H4198 C4182 0.931 . S
H4199 C4187 0.930 . S
H4200 C4188 0.956 . S
H4201 C4188 0.961 . S
H4202 C4188 0.961 . S
H4203 C4189 0.958 . S
H4204 C4189 0.961 . S
H4205 C4189 0.960 . S
C4206 C4207 1.391 . S
C4206 C4208 1.394 . S
C4206 H4222 0.931 . S
C4207 C4206 1.391 . S
C4207 C4211 1.376 1_545 S
C4208 C4206 1.394 . S
C4208 C4209 1.369 . S
C4208 C4212 1.531 . S
C4209 C4208 1.369 . S
C4209 C4210 1.410 1_545 S
C4209 C4217 1.503 . S
C4210 C4209 1.410 1_565 S
C4210 C4211 1.392 . S
C4210 C4213 1.511 . S
C4211 C4207 1.376 1_565 S
C4211 C4210 1.392 . S
C4211 H4223 0.929 . S
C4212 C4208 1.531 . S
C4212 H4224 0.960 . S
C4212 H4225 0.962 . S
C4212 H4226 0.960 . S
C4213 C4210 1.511 . S
C4213 H4227 0.961 . S
C4213 H4228 0.961 . S
C4213 H4229 0.961 . S
C4214 C4215 1.370 . S
C4214 C4216 1.363 . S
C4214 H4230 0.931 . S
C4215 C4214 1.370 . S
C4215 C4219 1.408 . S
C4216 C4214 1.363 . S
C4216 C4217 1.370 . S
C4216 C4220 1.524 . S
C4217 C4209 1.503 . S
C4217 C4216 1.370 . S
C4217 C4218 1.403 . S
C4218 C4217 1.403 . S
C4218 C4219 1.404 . S
C4218 C4221 1.539 . S
C4219 C4215 1.408 . S
C4219 C4218 1.404 . S
C4219 H4231 0.930 . S
C4220 C4216 1.524 . S
C4220 H4232 0.956 . S
C4220 H4233 0.991 . S
C4220 H4234 0.961 . S
C4221 C4218 1.539 . S
C4221 H4235 0.958 . S
C4221 H4236 0.961 . S
C4221 H4237 0.960 . S
H4222 C4206 0.931 . S
H4223 C4211 0.929 . S
H4224 C4212 0.960 . S
H4225 C4212 0.962 . S
H4226 C4212 0.960 . S
H4227 C4213 0.961 . S
H4228 C4213 0.961 . S
H4229 C4213 0.961 . S
H4230 C4214 0.931 . S
H4231 C4219 0.930 . S
H4232 C4220 0.956 . S
H4233 C4220 0.991 . S
H4234 C4220 0.961 . S
H4235 C4221 0.958 . S
H4236 C4221 0.961 . S
H4237 C4221 0.960 . S
C4238 C4239 1.391 1_455 S
C4238 C4240 1.394 . S
C4238 H4254 0.931 . S
C4239 C4238 1.391 1_655 S
C4239 C4243 1.376 . S
C4240 C4238 1.394 . S
C4240 C4241 1.369 1_455 S
C4240 C4244 1.531 . S
C4241 C4240 1.369 1_655 S
C4241 C4242 1.410 . S
C4241 C4249 1.503 . S
C4242 C4241 1.410 . S
C4242 C4243 1.392 . S
C4242 C4245 1.511 . S
C4243 C4239 1.376 . S
C4243 C4242 1.392 . S
C4243 H4255 0.929 . S
C4244 C4240 1.531 . S
C4244 H4256 0.960 . S
C4244 H4257 0.962 . S
C4244 H4258 0.960 . S
C4245 C4242 1.511 . S
C4245 H4259 0.961 . S
C4245 H4260 0.961 . S
C4245 H4261 0.961 . S
C4246 C4247 1.370 . S
C4246 C4248 1.363 . S
C4246 H4262 0.904 1_655 S
C4247 C4246 1.370 . S
C4247 C4251 1.408 . S
C4248 C4246 1.363 . S
C4248 C4249 1.370 . S
C4248 C4252 1.509 1_655 S
C4249 C4241 1.503 . S
C4249 C4248 1.370 . S
C4249 C4250 1.403 . S
C4250 C4249 1.403 . S
C4250 C4251 1.404 . S
C4250 C4253 1.539 . S
C4251 C4247 1.408 . S
C4251 C4250 1.404 . S
C4251 H4263 0.930 . S
C4252 C4248 1.509 1_455 S
C4252 H4264 0.976 . S
C4252 H4265 0.953 1_455 S
C4252 H4266 0.964 . S
C4253 C4250 1.539 . S
C4253 H4267 0.958 . S
C4253 H4268 0.961 . S
C4253 H4269 0.960 . S
H4254 C4238 0.931 . S
H4255 C4243 0.929 . S
H4256 C4244 0.960 . S
H4257 C4244 0.962 . S
H4258 C4244 0.960 . S
H4259 C4245 0.961 . S
H4260 C4245 0.961 . S
H4261 C4245 0.961 . S
H4262 C4246 0.904 1_455 S
H4263 C4251 0.930 . S
H4264 C4252 0.976 . S
H4265 C4252 0.953 1_655 S
H4266 C4252 0.964 . S
H4267 C4253 0.958 . S
H4268 C4253 0.961 . S
H4269 C4253 0.960 . S
C4270 C4271 1.391 . S
C4270 C4272 1.394 . S
C4270 H4286 0.931 . S
C4271 C4270 1.391 . S
C4271 C4275 1.376 . S
C4272 C4270 1.394 . S
C4272 C4273 1.369 . S
C4272 C4276 1.531 . S
C4273 C4272 1.369 . S
C4273 C4274 1.410 . S
C4273 C4281 1.503 . S
C4274 C4273 1.410 . S
C4274 C4275 1.392 . S
C4274 C4277 1.511 . S
C4275 C4271 1.376 . S
C4275 C4274 1.392 . S
C4275 H4287 0.929 . S
C4276 C4272 1.531 . S
C4276 H4288 0.960 . S
C4276 H4289 0.962 . S
C4276 H4290 0.960 . S
C4277 C4274 1.511 . S
C4277 H4291 0.961 . S
C4277 H4292 0.961 . S
C4277 H4293 0.961 . S
C4278 C4279 1.370 . S
C4278 C4280 1.363 . S
C4278 H4294 0.931 . S
C4279 C4278 1.370 . S
C4279 C4283 1.408 . S
C4280 C4278 1.363 . S
C4280 C4281 1.370 . S
C4280 C4284 1.524 . S
C4281 C4273 1.503 . S
C4281 C4280 1.370 . S
C4281 C4282 1.403 . S
C4282 C4281 1.403 . S
C4282 C4283 1.404 . S
C4282 C4285 1.539 . S
C4283 C4279 1.408 . S
C4283 C4282 1.404 . S
C4283 H4295 0.930 . S
C4284 C4280 1.524 . S
C4284 H4296 0.956 . S
C4284 H4297 0.961 . S
C4284 H4298 0.961 . S
C4285 C4282 1.539 . S
C4285 H4299 0.958 . S
C4285 H4300 0.961 . S
C4285 H4301 0.960 . S
H4286 C4270 0.931 . S
H4287 C4275 0.929 . S
H4288 C4276 0.960 . S
H4289 C4276 0.962 . S
H4290 C4276 0.960 . S
H4291 C4277 0.961 . S
H4292 C4277 0.961 . S
H4293 C4277 0.961 . S
H4294 C4278 0.931 . S
H4295 C4283 0.930 . S
H4296 C4284 0.956 . S
H4297 C4284 0.961 . S
H4298 C4284 0.961 . S
H4299 C4285 0.958 . S
H4300 C4285 0.961 . S
H4301 C4285 0.960 . S
C4302 C4303 1.391 . S
C4302 C4304 1.394 . S
C4302 H4318 0.931 . S
C4303 C4302 1.391 . S
C4303 C4307 1.376 . S
C4304 C4302 1.394 . S
C4304 C4305 1.369 . S
C4304 C4308 1.531 . S
C4305 C4304 1.369 . S
C4305 C4306 1.410 . S
C4305 C4313 1.503 . S
C4306 C4305 1.410 . S
C4306 C4307 1.392 . S
C4306 C4309 1.511 . S
C4307 C4303 1.376 . S
C4307 C4306 1.392 . S
C4307 H4319 0.929 . S
C4308 C4304 1.531 . S
C4308 H4320 0.960 . S
C4308 H4321 0.962 . S
C4308 H4322 0.960 . S
C4309 C4306 1.511 . S
C4309 H4323 0.961 . S
C4309 H4324 0.961 . S
C4309 H4325 0.961 . S
C4310 C4311 1.370 . S
C4310 C4312 1.363 . S
C4310 H4326 0.931 . S
C4311 C4310 1.370 . S
C4311 C4315 1.408 . S
C4312 C4310 1.363 . S
C4312 C4313 1.370 . S
C4312 C4316 1.524 . S
C4313 C4305 1.503 . S
C4313 C4312 1.370 . S
C4313 C4314 1.403 . S
C4314 C4313 1.403 . S
C4314 C4315 1.404 . S
C4314 C4317 1.539 . S
C4315 C4311 1.408 . S
C4315 C4314 1.404 . S
C4315 H4327 0.930 . S
C4316 C4312 1.524 . S
C4316 H4328 0.956 . S
C4316 H4329 0.961 . S
C4316 H4330 0.961 . S
C4317 C4314 1.539 . S
C4317 H4331 0.958 . S
C4317 H4332 0.961 . S
C4317 H4333 0.960 . S
H4318 C4302 0.931 . S
H4319 C4307 0.929 . S
H4320 C4308 0.960 . S
H4321 C4308 0.962 . S
H4322 C4308 0.960 . S
H4323 C4309 0.961 . S
H4324 C4309 0.961 . S
H4325 C4309 0.961 . S
H4326 C4310 0.931 . S
H4327 C4315 0.930 . S
H4328 C4316 0.956 . S
H4329 C4316 0.961 . S
H4330 C4316 0.961 . S
H4331 C4317 0.958 . S
H4332 C4317 0.961 . S
H4333 C4317 0.960 . S
C4334 C4335 1.391 . S
C4334 C4336 1.394 . S
C4334 H4350 0.931 . S
C4335 C4334 1.391 . S
C4335 C4339 1.376 . S
C4336 C4334 1.394 . S
C4336 C4337 1.369 . S
C4336 C4340 1.531 . S
C4337 C4336 1.369 . S
C4337 C4338 1.410 . S
C4337 C4345 1.503 . S
C4338 C4337 1.410 . S
C4338 C4339 1.392 . S
C4338 C4341 1.511 . S
C4339 C4335 1.376 . S
C4339 C4338 1.392 . S
C4339 H4351 0.929 . S
C4340 C4336 1.531 . S
C4340 H4352 0.960 . S
C4340 H4353 0.962 . S
C4340 H4354 0.960 . S
C4341 C4338 1.511 . S
C4341 H4355 0.961 . S
C4341 H4356 0.961 . S
C4341 H4357 0.961 . S
C4342 C4343 1.370 . S
C4342 C4344 1.363 . S
C4342 H4358 0.931 . S
C4343 C4342 1.370 . S
C4343 C4347 1.408 . S
C4344 C4342 1.363 . S
C4344 C4345 1.370 . S
C4344 C4348 1.524 . S
C4345 C4337 1.503 . S
C4345 C4344 1.370 . S
C4345 C4346 1.403 . S
C4346 C4345 1.403 . S
C4346 C4347 1.404 . S
C4346 C4349 1.539 . S
C4347 C4343 1.408 . S
C4347 C4346 1.404 . S
C4347 H4359 0.930 . S
C4348 C4344 1.524 . S
C4348 H4360 0.956 . S
C4348 H4361 0.961 . S
C4348 H4362 0.961 . S
C4349 C4346 1.539 . S
C4349 H4363 0.958 . S
C4349 H4364 0.961 . S
C4349 H4365 0.960 . S
H4350 C4334 0.931 . S
H4351 C4339 0.929 . S
H4352 C4340 0.960 . S
H4353 C4340 0.962 . S
H4354 C4340 0.960 . S
H4355 C4341 0.961 . S
H4356 C4341 0.961 . S
H4357 C4341 0.961 . S
H4358 C4342 0.931 . S
H4359 C4347 0.930 . S
H4360 C4348 0.956 . S
H4361 C4348 0.961 . S
H4362 C4348 0.961 . S
H4363 C4349 0.958 . S
H4364 C4349 0.961 . S
H4365 C4349 0.960 . S
C4366 C4367 1.391 . S
C4366 C4368 1.394 . S
C4366 H4382 0.931 . S
C4367 C4366 1.391 . S
C4367 C4371 1.376 . S
C4368 C4366 1.394 . S
C4368 C4369 1.369 . S
C4368 C4372 1.531 . S
C4369 C4368 1.369 . S
C4369 C4370 1.410 . S
C4369 C4377 1.503 . S
C4370 C4369 1.410 . S
C4370 C4371 1.392 . S
C4370 C4373 1.511 . S
C4371 C4367 1.376 . S
C4371 C4370 1.392 . S
C4371 H4383 0.929 . S
C4372 C4368 1.531 . S
C4372 H4384 0.960 . S
C4372 H4385 0.962 . S
C4372 H4386 0.960 . S
C4373 C4370 1.511 . S
C4373 H4387 0.961 . S
C4373 H4388 0.961 . S
C4373 H4389 0.961 . S
C4374 C4375 1.370 . S
C4374 C4376 1.363 . S
C4374 H4390 0.931 . S
C4375 C4374 1.370 . S
C4375 C4379 1.408 . S
C4376 C4374 1.363 . S
C4376 C4377 1.370 . S
C4376 C4380 1.524 . S
C4377 C4369 1.503 . S
C4377 C4376 1.370 . S
C4377 C4378 1.403 . S
C4378 C4377 1.403 . S
C4378 C4379 1.404 . S
C4378 C4381 1.539 . S
C4379 C4375 1.408 . S
C4379 C4378 1.404 . S
C4379 H4391 0.930 . S
C4380 C4376 1.524 . S
C4380 H4392 0.956 . S
C4380 H4393 0.961 . S
C4380 H4394 0.961 . S
C4381 C4378 1.539 . S
C4381 H4395 0.958 . S
C4381 H4396 0.961 . S
C4381 H4397 0.960 . S
H4382 C4366 0.931 . S
H4383 C4371 0.929 . S
H4384 C4372 0.960 . S
H4385 C4372 0.962 . S
H4386 C4372 0.960 . S
H4387 C4373 0.961 . S
H4388 C4373 0.961 . S
H4389 C4373 0.961 . S
H4390 C4374 0.931 . S
H4391 C4379 0.930 . S
H4392 C4380 0.956 . S
H4393 C4380 0.961 . S
H4394 C4380 0.961 . S
H4395 C4381 0.958 . S
H4396 C4381 0.961 . S
H4397 C4381 0.960 . S
C4398 C4399 1.391 . S
C4398 C4400 1.394 . S
C4398 H4414 0.931 . S
C4399 C4398 1.391 . S
C4399 C4403 1.376 . S
C4400 C4398 1.394 . S
C4400 C4401 1.369 . S
C4400 C4404 1.531 . S
C4401 C4400 1.369 . S
C4401 C4402 1.410 . S
C4401 C4409 1.503 . S
C4402 C4401 1.410 . S
C4402 C4403 1.392 . S
C4402 C4405 1.511 . S
C4403 C4399 1.376 . S
C4403 C4402 1.392 . S
C4403 H4415 0.929 . S
C4404 C4400 1.531 . S
C4404 H4416 0.960 . S
C4404 H4417 0.962 . S
C4404 H4418 0.960 . S
C4405 C4402 1.511 . S
C4405 H4419 0.961 . S
C4405 H4420 0.961 . S
C4405 H4421 0.961 . S
C4406 C4407 1.370 . S
C4406 C4408 1.363 . S
C4406 H4422 0.931 . S
C4407 C4406 1.370 . S
C4407 C4411 1.408 . S
C4408 C4406 1.363 . S
C4408 C4409 1.370 . S
C4408 C4412 1.524 . S
C4409 C4401 1.503 . S
C4409 C4408 1.370 . S
C4409 C4410 1.403 . S
C4410 C4409 1.403 . S
C4410 C4411 1.404 . S
C4410 C4413 1.539 . S
C4411 C4407 1.408 . S
C4411 C4410 1.404 . S
C4411 H4423 0.930 . S
C4412 C4408 1.524 . S
C4412 H4424 0.956 . S
C4412 H4425 0.961 . S
C4412 H4426 0.961 . S
C4413 C4410 1.539 . S
C4413 H4427 0.958 . S
C4413 H4428 0.961 . S
C4413 H4429 0.960 . S
H4414 C4398 0.931 . S
H4415 C4403 0.929 . S
H4416 C4404 0.960 . S
H4417 C4404 0.962 . S
H4418 C4404 0.960 . S
H4419 C4405 0.961 . S
H4420 C4405 0.961 . S
H4421 C4405 0.961 . S
H4422 C4406 0.931 . S
H4423 C4411 0.930 . S
H4424 C4412 0.956 . S
H4425 C4412 0.961 . S
H4426 C4412 0.961 . S
H4427 C4413 0.958 . S
H4428 C4413 0.961 . S
H4429 C4413 0.960 . S
C4430 C4431 1.391 . S
C4430 C4432 1.394 . S
C4430 H4446 0.931 . S
C4431 C4430 1.391 . S
C4431 C4435 1.376 . S
C4432 C4430 1.394 . S
C4432 C4433 1.369 . S
C4432 C4436 1.531 . S
C4433 C4432 1.369 . S
C4433 C4434 1.410 . S
C4433 C4441 1.503 . S
C4434 C4433 1.410 . S
C4434 C4435 1.392 . S
C4434 C4437 1.511 . S
C4435 C4431 1.376 . S
C4435 C4434 1.392 . S
C4435 H4447 0.929 . S
C4436 C4432 1.531 . S
C4436 H4448 0.960 . S
C4436 H4449 0.962 . S
C4436 H4450 0.960 . S
C4437 C4434 1.511 . S
C4437 H4451 0.961 . S
C4437 H4452 0.961 . S
C4437 H4453 0.961 . S
C4438 C4439 1.370 . S
C4438 C4440 1.363 . S
C4438 H4454 0.931 . S
C4439 C4438 1.370 . S
C4439 C4443 1.408 . S
C4440 C4438 1.363 . S
C4440 C4441 1.370 . S
C4440 C4444 1.524 . S
C4441 C4433 1.503 . S
C4441 C4440 1.370 . S
C4441 C4442 1.403 . S
C4442 C4441 1.403 . S
C4442 C4443 1.404 . S
C4442 C4445 1.539 . S
C4443 C4439 1.408 . S
C4443 C4442 1.404 . S
C4443 H4455 0.930 . S
C4444 C4440 1.524 . S
C4444 H4456 0.956 . S
C4444 H4457 0.961 . S
C4444 H4458 0.961 . S
C4445 C4442 1.539 . S
C4445 H4459 0.958 . S
C4445 H4460 0.961 . S
C4445 H4461 0.960 . S
H4446 C4430 0.931 . S
H4447 C4435 0.929 . S
H4448 C4436 0.960 . S
H4449 C4436 0.962 . S
H4450 C4436 0.960 . S
H4451 C4437 0.961 . S
H4452 C4437 0.961 . S
H4453 C4437 0.961 . S
H4454 C4438 0.931 . S
H4455 C4443 0.930 . S
H4456 C4444 0.956 . S
H4457 C4444 0.961 . S
H4458 C4444 0.961 . S
H4459 C4445 0.958 . S
H4460 C4445 0.961 . S
H4461 C4445 0.960 . S
C4462 C4463 1.391 . S
C4462 C4464 1.394 . S
C4462 H4478 0.931 . S
C4463 C4462 1.391 . S
C4463 C4467 1.376 . S
C4464 C4462 1.394 . S
C4464 C4465 1.369 . S
C4464 C4468 1.531 . S
C4465 C4464 1.369 . S
C4465 C4466 1.410 . S
C4465 C4473 1.503 . S
C4466 C4465 1.410 . S
C4466 C4467 1.392 . S
C4466 C4469 1.511 . S
C4467 C4463 1.376 . S
C4467 C4466 1.392 . S
C4467 H4479 0.929 . S
C4468 C4464 1.531 . S
C4468 H4480 0.960 . S
C4468 H4481 0.962 . S
C4468 H4482 0.960 . S
C4469 C4466 1.511 . S
C4469 H4483 0.961 . S
C4469 H4484 0.961 . S
C4469 H4485 0.961 . S
C4470 C4471 1.370 . S
C4470 C4472 1.363 . S
C4470 H4486 0.931 . S
C4471 C4470 1.370 . S
C4471 C4475 1.408 . S
C4472 C4470 1.363 . S
C4472 C4473 1.370 . S
C4472 C4476 1.524 . S
C4473 C4465 1.503 . S
C4473 C4472 1.370 . S
C4473 C4474 1.403 . S
C4474 C4473 1.403 . S
C4474 C4475 1.404 . S
C4474 C4477 1.539 . S
C4475 C4471 1.408 . S
C4475 C4474 1.404 . S
C4475 H4487 0.930 . S
C4476 C4472 1.524 . S
C4476 H4488 0.956 . S
C4476 H4489 0.961 . S
C4476 H4490 0.961 . S
C4477 C4474 1.539 . S
C4477 H4491 0.958 . S
C4477 H4492 0.961 . S
C4477 H4493 0.960 . S
H4478 C4462 0.931 . S
H4479 C4467 0.929 . S
H4480 C4468 0.960 . S
H4481 C4468 0.962 . S
H4482 C4468 0.960 . S
H4483 C4469 0.961 . S
H4484 C4469 0.961 . S
H4485 C4469 0.961 . S
H4486 C4470 0.931 . S
H4487 C4475 0.930 . S
H4488 C4476 0.956 . S
H4489 C4476 0.961 . S
H4490 C4476 0.961 . S
H4491 C4477 0.958 . S
H4492 C4477 0.961 . S
H4493 C4477 0.960 . S
C4494 C4495 1.391 1_455 S
C4494 C4496 1.394 . S
C4494 H4510 0.931 . S
C4495 C4494 1.391 1_655 S
C4495 C4499 1.376 . S
C4496 C4494 1.394 . S
C4496 C4497 1.369 1_455 S
C4496 C4500 1.531 . S
C4497 C4496 1.369 1_655 S
C4497 C4498 1.410 . S
C4497 C4505 1.503 . S
C4498 C4497 1.410 . S
C4498 C4499 1.392 . S
C4498 C4501 1.511 . S
C4499 C4495 1.376 . S
C4499 C4498 1.392 . S
C4499 H4511 0.929 . S
C4500 C4496 1.531 . S
C4500 H4512 0.960 . S
C4500 H4513 0.962 . S
C4500 H4514 0.960 . S
C4501 C4498 1.511 . S
C4501 H4515 0.961 . S
C4501 H4516 0.961 . S
C4501 H4517 0.961 . S
C4502 C4503 1.370 . S
C4502 C4504 1.363 . S
C4502 H4518 0.931 . S
C4503 C4502 1.370 . S
C4503 C4507 1.408 1_655 S
C4504 C4502 1.363 . S
C4504 C4505 1.370 . S
C4504 C4508 1.524 . S
C4505 C4497 1.503 . S
C4505 C4504 1.370 . S
C4505 C4506 1.403 1_655 S
C4506 C4505 1.403 1_455 S
C4506 C4507 1.404 . S
C4506 C4509 1.539 . S
C4507 C4503 1.408 1_455 S
C4507 C4506 1.404 . S
C4507 H4519 0.930 . S
C4508 C4504 1.524 . S
C4508 H4520 0.956 . S
C4508 H4521 0.961 . S
C4508 H4522 0.961 . S
C4509 C4506 1.539 . S
C4509 H4523 0.958 . S
C4509 H4524 0.961 . S
C4509 H4525 0.960 . S
H4510 C4494 0.931 . S
H4511 C4499 0.929 . S
H4512 C4500 0.960 . S
H4513 C4500 0.962 . S
H4514 C4500 0.960 . S
H4515 C4501 0.961 . S
H4516 C4501 0.961 . S
H4517 C4501 0.961 . S
H4518 C4502 0.931 . S
H4519 C4507 0.930 . S
H4520 C4508 0.956 . S
H4521 C4508 0.961 . S
H4522 C4508 0.961 . S
H4523 C4509 0.958 . S
H4524 C4509 0.961 . S
H4525 C4509 0.960 . S
C4526 C4527 1.391 . S
C4526 C4528 1.394 . S
C4526 H4542 0.931 . S
C4527 C4526 1.391 . S
C4527 C4531 1.376 . S
C4528 C4526 1.394 . S
C4528 C4529 1.369 . S
C4528 C4532 1.531 . S
C4529 C4528 1.369 . S
C4529 C4530 1.410 . S
C4529 C4537 1.503 . S
C4530 C4529 1.410 . S
C4530 C4531 1.392 . S
C4530 C4533 1.511 . S
C4531 C4527 1.376 . S
C4531 C4530 1.392 . S
C4531 H4543 0.929 . S
C4532 C4528 1.531 . S
C4532 H4544 0.960 . S
C4532 H4545 0.962 . S
C4532 H4546 0.960 . S
C4533 C4530 1.511 . S
C4533 H4547 0.961 . S
C4533 H4548 0.961 . S
C4533 H4549 0.961 . S
C4534 C4535 1.370 . S
C4534 C4536 1.363 . S
C4534 H4550 0.931 . S
C4535 C4534 1.370 . S
C4535 C4539 1.408 . S
C4536 C4534 1.363 . S
C4536 C4537 1.370 . S
C4536 C4540 1.524 . S
C4537 C4529 1.503 . S
C4537 C4536 1.370 . S
C4537 C4538 1.403 . S
C4538 C4537 1.403 . S
C4538 C4539 1.404 . S
C4538 C4541 1.539 . S
C4539 C4535 1.408 . S
C4539 C4538 1.404 . S
C4539 H4551 0.930 . S
C4540 C4536 1.524 . S
C4540 H4552 0.956 . S
C4540 H4553 0.961 . S
C4540 H4554 0.961 . S
C4541 C4538 1.539 . S
C4541 H4555 0.958 . S
C4541 H4556 0.961 . S
C4541 H4557 0.960 . S
H4542 C4526 0.931 . S
H4543 C4531 0.929 . S
H4544 C4532 0.960 . S
H4545 C4532 0.962 . S
H4546 C4532 0.960 . S
H4547 C4533 0.961 . S
H4548 C4533 0.961 . S
H4549 C4533 0.961 . S
H4550 C4534 0.931 . S
H4551 C4539 0.930 . S
H4552 C4540 0.956 . S
H4553 C4540 0.961 . S
H4554 C4540 0.961 . S
H4555 C4541 0.958 . S
H4556 C4541 0.961 . S
H4557 C4541 0.960 . S
C4558 C4559 1.391 . S
C4558 C4560 1.394 . S
C4558 H4574 0.931 . S
C4559 C4558 1.391 . S
C4559 C4563 1.376 . S
C4560 C4558 1.394 . S
C4560 C4561 1.369 . S
C4560 C4564 1.531 . S
C4561 C4560 1.369 . S
C4561 C4562 1.410 . S
C4561 C4569 1.503 . S
C4562 C4561 1.410 . S
C4562 C4563 1.392 . S
C4562 C4565 1.511 . S
C4563 C4559 1.376 . S
C4563 C4562 1.392 . S
C4563 H4575 0.929 . S
C4564 C4560 1.531 . S
C4564 H4576 0.960 . S
C4564 H4577 0.932 1_545 S
C4564 H4578 0.960 . S
C4565 C4562 1.511 . S
C4565 H4579 0.961 . S
C4565 H4580 0.961 . S
C4565 H4581 0.961 . S
C4566 C4567 1.370 1_565 S
C4566 C4568 1.363 . S
C4566 H4582 0.931 . S
C4567 C4566 1.370 1_545 S
C4567 C4571 1.408 . S
C4568 C4566 1.363 . S
C4568 C4569 1.370 1_565 S
C4568 C4572 1.524 . S
C4569 C4561 1.503 . S
C4569 C4568 1.370 1_545 S
C4569 C4570 1.403 . S
C4570 C4569 1.403 . S
C4570 C4571 1.404 . S
C4570 C4573 1.539 . S
C4571 C4567 1.408 . S
C4571 C4570 1.404 . S
C4571 H4583 0.930 . S
C4572 C4568 1.524 . S
C4572 H4584 0.956 . S
C4572 H4585 0.961 . S
C4572 H4586 0.961 . S
C4573 C4570 1.539 . S
C4573 H4587 0.958 . S
C4573 H4588 0.961 . S
C4573 H4589 0.960 . S
H4574 C4558 0.931 . S
H4575 C4563 0.929 . S
H4576 C4564 0.960 . S
H4577 C4564 0.932 1_565 S
H4578 C4564 0.960 . S
H4579 C4565 0.961 . S
H4580 C4565 0.961 . S
H4581 C4565 0.961 . S
H4582 C4566 0.931 . S
H4583 C4571 0.930 . S
H4584 C4572 0.956 . S
H4585 C4572 0.961 . S
H4586 C4572 0.961 . S
H4587 C4573 0.958 . S
H4588 C4573 0.961 . S
H4589 C4573 0.960 . S
C2287 C10 1.392 . S
C2295 C1289 1.134 . S
C2319 C23 1.709 . S
C2327 C1429 1.131 . S
C2359 C1517 1.194 . S
C2351 C29 1.465 . S
C2383 C30 1.562 . S
C2391 C1657 1.117 1_565 S
C2415 C5 1.504 . S
C2423 C1771 1.115 . S
C2447 C18 1.702 . S
C2455 C1859 1.334 . S
C2479 C49 1.371 . S
C2487 C1745 1.225 . S
C2519 C1885 1.369 . S
C2511 C62 1.622 . S
C2551 C1631 1.222 . S
C2543 C70 1.458 . S
C2575 C75 1.516 . S
C2583 C1543 1.167 . S
C2615 C1315 1.139 . S
C2607 C44 1.509 . S
C2639 C57 1.629 . S
C2647 C1403 1.471 . S
C2671 C88 1.731 . S
C2679 C1973 1.293 . S
C2703 C101 1.800 . S
C2711 C2113 1.204 . S
C2743 C2201 1.357 . S
C2735 C107 1.708 . S
C2767 C108 1.768 . S
C2775 C289 1.248 . S
C2799 C83 1.785 . S
C2807 C403 1.192 . S
C2831 C96 1.763 . S
C2839 C491 1.336 . S
C2863 C127 1.543 . S
C2871 C377 1.385 . S
C2895 C140 1.680 . S
C2903 C517 1.450 . S
C2935 C263 1.462 . S
C2927 C146 1.637 . S
C2967 C2227 1.550 . S
C2959 C147 1.796 . S
C2999 C1999 1.468 . S
C2991 C122 1.693 . S
C3031 C2087 1.579 . S
C3023 C135 1.712 . S
C3055 C160 1.628 . S
C3063 C605 1.258 . S
C3087 C173 1.762 . S
C3095 C745 1.173 . S
C3119 C185 1.711 . S
C3127 C833 1.350 . S
C3151 C186 1.877 . S
C3159 C973 1.292 . S
C3191 C1087 1.245 . S
C3183 C159 1.772 . S
C3223 C1175 1.385 . S
C3215 C172 1.793 . S
C3255 C1061 1.483 . S
C3247 C205 1.648 . S
C3287 C1201 1.474 . S
C3279 C218 1.715 . S
C3311 C224 1.621 . S
C3319 C947 1.475 . S
C3351 C859 1.424 . S
C3343 C225 1.685 . S
C3375 C200 1.694 . S
C3383 C631 1.458 . S
C3415 C719 1.531 . S
C3407 C213 1.668 . S
C3447 C245 0.968 . S
C3439 C4 1.718 . S
C3471 C17 1.546 . S
C3479 C359 0.846 . S
C3511 C463 1.156 . S
C3503 C31 1.618 . S
C3543 C577 1.124 . S
C3535 C36 1.556 . S
C3575 C701 0.914 . S
C3567 C3 1.675 . S
C3607 C805 1.160 . S
C3599 C16 1.565 . S
C3631 C43 1.794 . S
C3639 C815 1.290 . S
C3663 C56 1.632 . S
C3671 C587 1.179 . S
C3695 C68 1.680 . S
C3703 C691 1.474 . S
C3727 C69 1.638 . S
C3735 C349 1.408 . S
C3767 C473 1.262 . S
C3759 C42 1.748 . S
C3791 C55 1.647 . S
C3799 C235 1.392 . S
C3831 C929 0.928 . S
C3823 C82 1.683 . S
C3855 C95 1.673 . S
C3863 C1043 0.982 . S
C3887 C109 1.660 . S
C3895 C1147 1.231 . S
C3927 C1261 1.049 . S
C3919 C114 1.322 . S
C3951 C81 1.634 . S
C3959 C1385 0.958 . S
C3983 C94 1.416 . S
C3991 C1489 1.156 . S
C4015 C121 1.522 . S
C4023 C1499 1.006 1_565 S
C4047 C134 1.425 . S
C4055 C1271 0.936 1_455 S
C4087 C1375 1.412 . S
C4079 C148 1.651 . S
C4111 C153 1.605 . S
C4119 C1033 1.418 . S
C4143 C120 1.784 . S
C4151 C1157 1.343 . S
C4183 C919 1.531 . S
C4175 C133 1.759 . S
C4215 C1613 0.989 . S
C4207 C166 1.511 . S
C4239 C179 1.408 . S
C4247 C1727 0.872 . S
C4271 C187 1.574 . S
C4279 C1831 1.209 . S
C4311 C1945 1.163 . S
C4303 C192 1.521 . S
C4343 C2069 1.034 . S
C4335 C161 1.709 . S
C4367 C174 1.677 . S
C4375 C2173 1.257 . S
C4399 C199 1.757 . S
C4407 C2183 1.299 . S
C4431 C212 1.749 . S
C4439 C1955 1.257 . S
C4471 C2059 1.516 . S
C4463 C226 1.733 . S
C4503 C1717 1.125 1_655 S
C4495 C231 1.334 . S
C4535 C1841 1.277 . S
C4527 C198 1.712 . S
C4559 C211 1.439 . S
C4567 C1603 1.184 1_545 S
