# Generated by pormake.
# Topology zzz, (3,6)-cn, num edge types: 1
# Building blocks:
#     Node 0, Type 0, BuildingBlock: CUQRIR_clean_linker_1, # of connection points: 3
#     Node 1, Type 0, BuildingBlock: CUQRIR_clean_linker_1, # of connection points: 3
#     Node 2, Type 0, BuildingBlock: CUQRIR_clean_linker_1, # of connection points: 3
#     Node 3, Type 0, BuildingBlock: CUQRIR_clean_linker_1, # of connection points: 3
#     Node 4, Type 0, BuildingBlock: CUQRIR_clean_linker_1, # of connection points: 3
#     Node 5, Type 0, BuildingBlock: CUQRIR_clean_linker_1, # of connection points: 3
#     Node 6, Type 0, BuildingBlock: CUQRIR_clean_linker_1, # of connection points: 3
#     Node 7, Type 0, BuildingBlock: CUQRIR_clean_linker_1, # of connection points: 3
#     Node 8, Type 1, BuildingBlock: NUHQIS_clean_sbu_0, # of connection points: 6
#     Node 9, Type 1, BuildingBlock: NUHQIS_clean_sbu_0, # of connection points: 6
#     Node 10, Type 1, BuildingBlock: NUHQIS_clean_sbu_0, # of connection points: 6
#     Node 11, Type 1, BuildingBlock: NUHQIS_clean_sbu_0, # of connection points: 6
#     Edge 12, Type (0, 1), BuildingBlock: CIFDUS_clean_linker_0, # of connection points: 2
#     Edge 13, Type (0, 1), BuildingBlock: CIFDUS_clean_linker_0, # of connection points: 2
#     Edge 14, Type (0, 1), BuildingBlock: CIFDUS_clean_linker_0, # of connection points: 2
#     Edge 15, Type (0, 1), BuildingBlock: CIFDUS_clean_linker_0, # of connection points: 2
#     Edge 16, Type (0, 1), BuildingBlock: CIFDUS_clean_linker_0, # of connection points: 2
#     Edge 17, Type (0, 1), BuildingBlock: CIFDUS_clean_linker_0, # of connection points: 2
#     Edge 18, Type (0, 1), BuildingBlock: CIFDUS_clean_linker_0, # of connection points: 2
#     Edge 19, Type (0, 1), BuildingBlock: CIFDUS_clean_linker_0, # of connection points: 2
#     Edge 20, Type (0, 1), BuildingBlock: CIFDUS_clean_linker_0, # of connection points: 2
#     Edge 21, Type (0, 1), BuildingBlock: CIFDUS_clean_linker_0, # of connection points: 2
#     Edge 22, Type (0, 1), BuildingBlock: CIFDUS_clean_linker_0, # of connection points: 2
#     Edge 23, Type (0, 1), BuildingBlock: CIFDUS_clean_linker_0, # of connection points: 2
#     Edge 24, Type (0, 1), BuildingBlock: CIFDUS_clean_linker_0, # of connection points: 2
#     Edge 25, Type (0, 1), BuildingBlock: CIFDUS_clean_linker_0, # of connection points: 2
#     Edge 26, Type (0, 1), BuildingBlock: CIFDUS_clean_linker_0, # of connection points: 2
#     Edge 27, Type (0, 1), BuildingBlock: CIFDUS_clean_linker_0, # of connection points: 2
#     Edge 28, Type (0, 1), BuildingBlock: CIFDUS_clean_linker_0, # of connection points: 2
#     Edge 29, Type (0, 1), BuildingBlock: CIFDUS_clean_linker_0, # of connection points: 2
#     Edge 30, Type (0, 1), BuildingBlock: CIFDUS_clean_linker_0, # of connection points: 2
#     Edge 31, Type (0, 1), BuildingBlock: CIFDUS_clean_linker_0, # of connection points: 2
#     Edge 32, Type (0, 1), BuildingBlock: CIFDUS_clean_linker_0, # of connection points: 2
#     Edge 33, Type (0, 1), BuildingBlock: CIFDUS_clean_linker_0, # of connection points: 2
#     Edge 34, Type (0, 1), BuildingBlock: CIFDUS_clean_linker_0, # of connection points: 2
#     Edge 35, Type (0, 1), BuildingBlock: CIFDUS_clean_linker_0, # of connection points: 2
# Relax obj value: 0.340
# Max RMSD: 0.173
# Mean RMSD: 0.136
data_MOF--net-zzz--node1-NUHQIS_clean_sbu_0--node2-CUQRIR_clean_linker_1--edge1-CIFDUS_clean_linker_0
_symmetry_space_group_name_H-M    P1
_symmetry_Int_Tables_number       1
_symmetry_cell_setting            triclinic
loop_
_symmetry_equiv_pos_as_xyz
'x, y, z'
_cell_length_a     42.26774
_cell_length_b     42.314807
_cell_length_c     11.181778
_cell_angle_alpha  89.803669
_cell_angle_beta   89.977449
_cell_angle_gamma 89.980468
loop_
_atom_site_label
_atom_site_type_symbol
_atom_site_fract_x
_atom_site_fract_y
_atom_site_fract_z
_atom_type_partial_charge
C0 C 0.75387 0.51193 0.41769 0.0
N1 N 0.78585 0.5086 0.39991 0.0
N2 N 0.73752 0.51035 0.31159 0.0
C3 C 0.73853 0.51517 0.53763 0.0
C4 C 0.76077 0.50587 0.23022 0.0
N5 N 0.78945 0.50427 0.28303 0.0
C6 C 0.75512 0.49971 0.09902 0.0
H7 H 0.7353 0.49128 0.57704 0.0
H8 H 0.71496 0.52653 0.5291 0.0
H9 H 0.75382 0.52909 0.59851 0.0
H10 H 0.73168 0.50857 0.06957 0.0
H11 H 0.75644 0.47389 0.08243 0.0
H12 H 0.77349 0.51137 0.04375 0.0
C13 C 0.02439 0.74779 0.38183 0.0
N14 N 0.04258 0.77281 0.41786 0.0
N15 N 0.04199 0.72582 0.32112 0.0
C16 C 0.98929 0.74573 0.39921 0.0
C17 C 0.07154 0.73825 0.3244 0.0
N18 N 0.07193 0.76645 0.38162 0.0
C19 C 0.10056 0.72211 0.27574 0.0
H20 H 0.98445 0.73296 0.4841 0.0
H21 H 0.97815 0.73239 0.32506 0.0
H22 H 0.97866 0.76965 0.40526 0.0
H23 H 0.09786 0.69613 0.28007 0.0
H24 H 0.12197 0.72919 0.3264 0.0
H25 H 0.10389 0.72879 0.18061 0.0
C26 C 0.78237 0.99569 0.40694 0.0
N27 N 0.75928 1.01438 0.45589 0.0
N28 N 0.80728 1.01334 0.36532 0.0
C29 C 0.77924 0.96075 0.38973 0.0
C30 C 0.79814 0.04328 0.39048 0.0
N31 N 0.76936 0.04404 0.44394 0.0
C32 C 0.81688 0.07221 0.35803 0.0
H33 H 0.80285 0.94935 0.38605 0.0
H34 H 0.76691 0.95635 0.3038 0.0
H35 H 0.76492 0.9502 0.46286 0.0
H36 H 0.81062 0.07994 0.26617 0.0
H37 H 0.84241 0.06664 0.35938 0.0
H38 H 0.81176 0.09183 0.42077 0.0
C39 C 0.51994 0.77167 0.41301 0.0
N40 N 0.49963 0.74949 0.4587 0.0
N41 N 0.50388 0.79619 0.36087 0.0
C42 C 0.55522 0.7683 0.41157 0.0
C43 C 0.47324 0.78805 0.37718 0.0
N44 N 0.47052 0.75991 0.43475 0.0
C45 C 0.44566 0.80707 0.33145 0.0
H46 H 0.56337 0.75454 0.49042 0.0
H47 H 0.56679 0.79182 0.41012 0.0
H48 H 0.56226 0.75538 0.32956 0.0
H49 H 0.45049 0.83272 0.34074 0.0
H50 H 0.42365 0.80095 0.38046 0.0
H51 H 0.44215 0.80199 0.23509 0.0
C52 C 0.28241 0.51303 0.22323 0.0
N53 N 0.26032 0.53253 0.17195 0.0
N54 N 0.30639 0.52991 0.27523 0.0
C55 C 0.27909 0.47785 0.2315 0.0
C56 C 0.29783 0.56026 0.25357 0.0
N57 N 0.27024 0.56193 0.19195 0.0
C58 C 0.31583 0.58863 0.2971 0.0
H59 H 0.26498 0.47194 0.31222 0.0
H60 H 0.30257 0.46633 0.23972 0.0
H61 H 0.26643 0.46861 0.15203 0.0
H62 H 0.34121 0.58296 0.30733 0.0
H63 H 0.30671 0.5957 0.38606 0.0
H64 H 0.31289 0.60882 0.23447 0.0
C65 C 1.01977 0.28014 0.1593 0.0
N66 N 1.01019 0.24932 0.17371 0.0
N67 N 1.01587 0.29725 0.26301 0.0
C68 C 0.03158 0.2936 0.0435 0.0
C69 C 1.00415 0.27544 0.34017 0.0
N70 N 1.00037 0.24716 0.28637 0.0
C71 C 0.99592 0.2818 0.46947 0.0
H72 H 0.04348 0.31665 0.05642 0.0
H73 H 1.0112 0.29718 0.98249 0.0
H74 H 0.04803 0.27667 1.00029 0.0
H75 H 0.97063 0.28865 0.47563 0.0
H76 H 1.01071 0.30099 0.50701 0.0
H77 H 0.99941 0.26067 0.52633 0.0
C78 C 0.25189 0.9986 0.19133 0.0
N79 N 0.27637 1.01569 0.14432 0.0
N80 N 0.22991 1.01779 0.24435 0.0
C81 C 0.25001 0.96326 0.18926 0.0
C82 C 0.24225 0.04714 0.22765 0.0
N83 N 0.27031 0.04595 0.16818 0.0
C84 C 0.22776 0.0769 0.27696 0.0
H85 H 0.26095 0.95391 0.10635 0.0
H86 H 0.22505 0.95526 0.19593 0.0
H87 H 0.26333 0.95368 0.2668 0.0
H88 H 0.2257 0.07486 0.37565 0.0
H89 H 0.20359 0.08002 0.24043 0.0
H90 H 0.2417 0.09822 0.25338 0.0
C91 C 0.51926 0.24447 0.23476 0.0
N92 N 0.53295 0.27393 0.23585 0.0
N93 N 0.53081 0.22551 0.3252 0.0
C94 C 0.49387 0.23461 0.14916 0.0
C95 C 0.55173 0.24476 0.38109 0.0
N96 N 0.55296 0.27346 0.32757 0.0
C97 C 0.57064 0.23567 0.49095 0.0
H98 H 0.47059 0.24198 0.18548 0.0
H99 H 0.4938 0.20856 0.13801 0.0
H100 H 0.49706 0.24622 0.061 0.0
H101 H 0.59122 0.22118 0.46335 0.0
H102 H 0.55592 0.22165 0.55385 0.0
H103 H 0.58035 0.25612 0.53975 0.0
Tb104 Tb 0.03475 1.00019 0.88962 0.0
Eu105 Eu 0.99327 0.02313 0.66281 0.0
C106 C 0.06883 1.01645 0.63663 0.0
C107 C 1.0134 0.07518 0.86177 0.0
C108 C 0.09495 0.97096 0.11835 0.0
C109 C 0.14064 0.93722 0.09027 0.0
C110 C 0.12038 0.96086 0.04766 0.0
C111 C 0.09231 0.96022 0.23622 0.0
C112 C 0.11199 0.93627 0.27782 0.0
C113 C 0.13475 0.92255 0.20162 0.0
C114 C 0.06928 0.99052 0.07073 0.0
O115 O 0.98603 0.99932 0.96715 0.0
O116 O 0.95701 1.01806 0.80913 0.0
O117 O 1.01005 0.97298 0.62297 0.0
O118 O 0.02745 0.95367 0.80287 0.0
C119 C 0.95869 1.00833 0.92047 0.0
O120 O 0.95349 1.00815 0.55278 0.0
O121 O 0.98168 0.04871 0.49952 0.0
O122 O 0.04348 0.0325 0.60576 0.0
O123 O 0.06897 0.99944 0.73651 0.0
O124 O 0.02928 0.05168 0.91155 0.0
O125 O 0.99659 0.0704 0.76375 0.0
C126 C 1.01995 0.9492 0.68944 0.0
O127 O 0.07607 1.01063 0.9861 0.0
O128 O 0.04252 0.97611 0.05121 0.0
C129 C 0.92811 0.04943 0.4496 0.0
C130 C 0.89334 0.1039 0.40663 0.0
C131 C 0.90538 0.08651 0.30981 0.0
C132 C 0.92355 0.05969 0.33193 0.0
C133 C 0.90985 0.06239 0.542 0.0
C134 C 0.8918 0.08939 0.51981 0.0
C135 C 0.95667 0.03152 0.47747 0.0
H136 H 0.1589 0.92842 0.03119 0.0
H137 H 0.12338 0.96968 0.95731 0.0
H138 H 0.07333 0.96857 0.29321 0.0
H139 H 0.10657 0.92639 0.36477 0.0
H140 H 0.90621 0.09675 0.22089 0.0
H141 H 0.93728 0.04966 0.25958 0.0
H142 H 0.9128 0.05435 0.63339 0.0
H143 H 0.88202 0.1021 0.59523 0.0
Tb144 Tb 0.52993 0.02328 0.94063 0.0
Eu145 Eu 0.50846 0.99254 0.69411 0.0
C146 C 0.51854 0.06538 0.71147 0.0
C147 C 0.45529 1.00537 0.89793 0.0
C148 C 0.56334 0.07577 0.18129 0.0
C149 C 0.59993 0.11961 0.1606 0.0
C150 C 0.57409 0.10237 0.11788 0.0
C151 C 0.57652 0.06849 0.2926 0.0
C152 C 0.60265 0.0851 0.33374 0.0
C153 C 0.61576 0.10986 0.26523 0.0
C154 C 0.5406 0.05344 0.13046 0.0
O155 O 0.52567 0.97312 0.99156 0.0
O156 O 0.51805 0.94898 0.80926 0.0
O157 O 0.56259 0.99573 0.67867 0.0
O158 O 0.57712 1.01278 0.86572 0.0
C159 C 0.52208 0.94738 0.92653 0.0
O160 O 0.48155 0.96358 0.56838 0.0
O161 O 0.51704 0.99601 0.50216 0.0
O162 O 0.49659 0.04483 0.68597 0.0
O163 O 0.53885 0.05792 0.79592 0.0
O164 O 0.47806 1.01924 0.9591 0.0
O165 O 0.46104 0.99295 0.79241 0.0
C166 C 0.58474 1.00372 0.75614 0.0
O167 O 0.52205 0.06362 0.04533 0.0
O168 O 0.55163 0.02522 0.10866 0.0
C169 C 0.46657 1.00089 0.41991 0.0
C170 C 0.42477 0.05105 0.36741 0.0
C171 C 0.41544 0.026 0.44248 0.0
C172 C 0.43583 1.00113 0.46713 0.0
C173 C 0.47559 0.02524 0.3404 0.0
C174 C 0.45471 0.05003 0.31337 0.0
C175 C 0.4909 0.98102 0.47811 0.0
H176 H 0.60907 0.13887 0.10677 0.0
H177 H 0.56383 0.10873 0.03238 0.0
H178 H 0.56809 0.04836 0.34373 0.0
H179 H 0.61409 0.07649 0.41412 0.0
H180 H 0.39197 0.02535 0.48147 0.0
H181 H 0.4279 0.983 0.52886 0.0
H182 H 0.49931 0.02586 0.30402 0.0
H183 H 0.46216 0.06866 0.25294 0.0
Tb184 Tb 0.49229 0.52392 0.97915 0.0
Eu185 Eu 0.53166 0.5043 0.74463 0.0
C186 C 0.45515 0.51375 0.72705 0.0
C187 C 0.51583 0.4502 0.94325 0.0
C188 C 0.43421 0.55328 0.20328 0.0
C189 C 0.39392 0.59143 0.14938 0.0
C190 C 0.41183 0.56474 0.12134 0.0
C191 C 0.4356 0.56605 0.31815 0.0
C192 C 0.4181 0.59288 0.34569 0.0
C193 C 0.39905 0.60749 0.25787 0.0
C194 C 0.45969 0.53218 0.16571 0.0
O195 O 0.54155 0.53442 0.02918 0.0
O196 O 0.56712 0.50174 0.89895 0.0
O197 O 0.52322 0.55773 0.72768 0.0
O198 O 0.49338 0.57059 0.89187 0.0
C199 C 0.56718 0.51896 0.99673 0.0
O200 O 0.5726 0.51872 0.6397 0.0
O201 O 0.54141 0.48188 0.5735 0.0
O202 O 0.48081 0.50235 0.67622 0.0
O203 O 0.45579 0.52421 0.83821 0.0
O204 O 0.50455 0.47386 1.00692 0.0
O205 O 0.52605 0.45516 0.83286 0.0
C206 C 0.5075 0.57874 0.79102 0.0
O207 O 0.45294 0.51137 0.08394 0.0
O208 O 0.48661 0.54616 0.14478 0.0
C209 C 0.59409 0.48118 0.50699 0.0
C210 C 0.6332 0.43258 0.42727 0.0
C211 C 0.63818 0.4458 0.541 0.0
C212 C 0.61811 0.46966 0.58192 0.0
C213 C 0.59321 0.47217 0.38695 0.0
C214 C 0.61267 0.44792 0.34716 0.0
C215 C 0.56703 0.49847 0.55463 0.0
H216 H 0.3784 0.60118 0.08163 0.0
H217 H 0.41002 0.55474 0.03256 0.0
H218 H 0.45248 0.55711 0.38296 0.0
H219 H 0.42273 0.60399 0.43091 0.0
H220 H 0.65387 0.4343 0.60423 0.0
H221 H 0.61936 0.47678 0.67477 0.0
H222 H 0.57514 0.48138 0.32748 0.0
H223 H 0.60814 0.43818 0.2593 0.0
Tb224 Tb 1.01752 0.49929 0.86993 0.0
Eu225 Eu 0.03736 0.53589 0.62894 0.0
C226 C 0.0254 0.46158 0.62025 0.0
C227 C 0.09169 0.52098 0.82599 0.0
C228 C 0.99071 0.43466 0.06791 0.0
C229 C 0.94717 0.40289 0.99639 0.0
C230 C 0.97498 0.41956 0.97354 0.0
C231 C 0.98187 0.4283 0.18597 0.0
C232 C 0.95402 0.41176 0.2085 0.0
C233 C 0.93462 0.40263 0.11273 0.0
C234 C 1.01085 0.46195 0.04398 0.0
O235 O 1.0166 0.54821 0.93808 0.0
O236 O 0.03735 0.57367 0.77379 0.0
O237 O 0.98475 0.52619 0.61334 0.0
O238 O 0.96897 0.50843 0.79778 0.0
C239 C 0.0274 0.57408 0.8858 0.0
O240 O 0.0247 0.57537 0.51261 0.0
O241 O 0.06064 0.54193 0.4566 0.0
O242 O 0.04316 0.48432 0.57736 0.0
O243 O 1.00991 0.46571 0.72135 0.0
O244 O 0.06918 0.50797 0.89179 0.0
O245 O 0.0853 0.53278 0.71947 0.0
C246 C 0.96203 0.51792 0.68764 0.0
O247 O 0.03195 0.45828 0.96012 0.0
O248 O 0.99582 0.48884 0.03391 0.0
C249 C 0.0656 0.59391 0.38639 0.0
C250 C 0.1161 0.63301 0.31867 0.0
C251 C 0.09864 0.63962 0.42306 0.0
C252 C 0.07388 0.61978 0.45796 0.0
C253 C 0.0794 0.59046 0.27368 0.0
C254 C 0.10434 0.60992 0.23953 0.0
C255 C 0.04579 0.56821 0.43197 0.0
H256 H 0.9327 0.39564 0.92134 0.0
H257 H 0.98186 0.42386 0.8816 0.0
H258 H 0.9941 0.4395 0.25972 0.0
H259 H 0.94486 0.41174 0.29894 0.0
H260 H 0.10611 0.65807 0.48369 0.0
H261 H 0.06287 0.62333 0.54438 0.0
H262 H 0.07272 0.57099 0.21619 0.0
H263 H 0.11655 0.604 0.15753 0.0
H264 H 0.16912 0.03668 0.21438 0.0
H265 H 0.22881 0.98162 0.44614 0.0
H266 H 0.18474 0.97503 0.58814 0.0
H267 H 0.12927 0.98827 0.65406 0.0
H268 H 0.07157 0.04544 0.4189 0.0
H269 H 0.11425 0.04808 0.27472 0.0
C270 C 0.1725 0.0232 0.29592 0.0
C271 C 0.20253 1.00985 0.31917 0.0
C272 C 0.14719 0.02024 0.37876 0.0
C273 C 0.20606 0.99194 0.42478 0.0
C274 C 0.18082 0.98847 0.50686 0.0
C275 C 0.126 1.00136 0.57152 0.0
C276 C 0.09672 1.01699 0.55038 0.0
C277 C 0.15127 1.00307 0.48638 0.0
C278 C 0.09345 0.03344 0.44087 0.0
C279 C 0.11804 0.03495 0.3569 0.0
H280 H 0.57019 0.17696 0.38159 0.0
H281 H 0.47148 0.20145 0.36525 0.0
H282 H 0.45815 0.15241 0.47318 0.0
H283 H 0.47541 0.10495 0.59421 0.0
H284 H 0.57539 0.08915 0.64422 0.0
H285 H 0.58733 0.13348 0.51184 0.0
C286 C 0.54572 0.17202 0.4031 0.0
C287 C 0.52204 0.19364 0.36613 0.0
C288 C 0.53852 0.1455 0.47576 0.0
C289 C 0.49036 0.18551 0.39068 0.0
C290 C 0.48277 0.1576 0.45476 0.0
C291 C 0.49981 0.11117 0.57582 0.0
C292 C 0.52447 0.09343 0.63052 0.0
C293 C 0.50674 0.1378 0.50135 0.0
C294 C 0.55588 0.10224 0.60538 0.0
C295 C 0.56278 0.12751 0.52822 0.0
H296 H 0.31826 0.54317 0.50757 0.0
H297 H 0.35713 0.49554 0.20213 0.0
H298 H 0.40647 0.48547 0.31292 0.0
H299 H 0.44008 0.49281 0.49588 0.0
H300 H 0.39987 0.54139 0.7991 0.0
H301 H 0.35049 0.54858 0.69096 0.0
C302 C 0.33735 0.5301 0.46601 0.0
C303 C 0.33357 0.51964 0.34681 0.0
C304 C 0.36593 0.52491 0.53005 0.0
C305 C 0.35891 0.50318 0.29419 0.0
C306 C 0.38733 0.49773 0.35755 0.0
C307 C 0.42049 0.50475 0.53895 0.0
C308 C 0.42435 0.51644 0.65722 0.0
C309 C 0.39141 0.50884 0.47545 0.0
C310 C 0.39824 0.53195 0.70943 0.0
C311 C 0.36968 0.53616 0.64719 0.0
H312 H 0.97399 0.33777 0.36194 0.0
H313 H 0.07022 0.33195 0.23887 0.0
H314 H 0.08148 0.38378 0.32871 0.0
H315 H 0.06511 0.42879 0.4627 0.0
H316 H 0.97117 0.42742 0.61391 0.0
H317 H 0.95867 0.37997 0.50065 0.0
C318 C 0.99748 0.34782 0.35428 0.0
C319 C 0.02109 0.33065 0.29223 0.0
C320 C 1.00455 0.37613 0.41603 0.0
C321 C 0.05126 0.34458 0.28287 0.0
C322 C 0.05786 0.37406 0.3368 0.0
C323 C 0.04186 0.41818 0.47035 0.0
C324 C 1.01912 0.43212 0.54769 0.0
C325 C 0.03492 0.38978 0.40671 0.0
C326 C 0.9893 0.4175 0.55666 0.0
C327 C 0.98201 0.39026 0.49114 0.0
H328 H 0.82031 0.0301 0.13765 0.0
H329 H 0.85846 0.97885 0.43678 0.0
H330 H 0.90891 0.97193 0.32901 0.0
H331 H 0.94369 0.9831 0.14939 0.0
H332 H 0.90323 0.03596 0.85542 0.0
H333 H 0.85339 0.03966 0.96037 0.0
C334 C 0.83949 1.0169 0.17843 0.0
C335 C 0.83515 1.00451 0.29477 0.0
C336 C 0.86864 1.01361 0.11654 0.0
C337 C 0.86065 0.98795 0.34657 0.0
C338 C 0.88971 0.98431 0.28497 0.0
C339 C 0.92397 0.99528 0.10788 0.0
C340 C 0.92805 1.00913 0.99264 0.0
C341 C 0.8943 0.9974 0.16983 0.0
C342 C 0.90164 0.02482 0.94251 0.0
C343 C 0.87269 0.02705 1.00292 0.0
H344 H 0.49734 0.80731 0.12352 0.0
H345 H 0.5335 0.84789 0.44767 0.0
H346 H 0.54323 0.89818 0.34284 0.0
H347 H 0.53803 0.93197 0.16069 0.0
H348 H 0.50262 0.89041 0.83524 0.0
H349 H 0.49618 0.83973 0.93753 0.0
C350 C 0.50803 0.82699 0.1703 0.0
C351 C 0.51513 0.82359 0.29338 0.0
C352 C 0.51332 0.85599 0.10901 0.0
C353 C 0.52844 0.84957 0.35295 0.0
C354 C 0.53367 0.87847 0.29293 0.0
C355 C 0.52915 0.91182 0.11146 0.0
C356 C 0.52075 0.91556 0.9892 0.0
C357 C 0.5257 0.88223 0.17123 0.0
C358 C 0.50941 0.88873 0.92842 0.0
C359 C 0.50562 0.85953 0.98731 0.0
H360 H 0.68996 0.55432 0.30595 0.0
H361 H 0.71026 0.45611 0.24458 0.0
H362 H 0.66104 0.45045 0.13204 0.0
H363 H 0.61272 0.47373 0.04212 0.0
H364 H 0.58861 0.57025 0.12234 0.0
H365 H 0.63752 0.57595 0.23815 0.0
C366 C 0.68287 0.53136 0.27277 0.0
C367 C 0.70398 0.50556 0.28527 0.0
C368 C 0.65366 0.52798 0.21006 0.0
C369 C 0.69445 0.47619 0.23848 0.0
C370 C 0.66643 0.47307 0.17223 0.0
C371 C 0.61813 0.49604 0.08485 0.0
C372 C 0.59693 0.52167 0.07108 0.0
C373 C 0.64597 0.49887 0.15556 0.0
C374 C 0.6043 0.5501 0.1302 0.0
C375 C 0.6324 0.55338 0.19695 0.0
H376 H 0.05323 0.71268 0.08883 0.0
H377 H 1.01018 0.67415 0.40565 0.0
H378 H 1.00071 0.62389 0.30078 0.0
H379 H 1.00787 0.58935 0.1195 0.0
H380 H 0.05251 0.62972 0.80662 0.0
H381 H 0.05872 0.67971 0.90942 0.0
C382 C 0.04168 0.69331 0.13501 0.0
C383 C 0.03248 0.69743 0.25556 0.0
C384 C 0.03703 0.66426 0.07472 0.0
C385 C 1.01719 0.67201 0.31291 0.0
C386 C 1.01206 0.64307 0.25285 0.0
C387 C 1.01878 0.60909 0.07333 0.0
C388 C 0.02966 0.60506 0.95385 0.0
C389 C 0.02236 0.63861 0.13386 0.0
C390 C 0.04378 0.6314 0.89745 0.0
C391 C 0.04741 0.66034 0.95653 0.0
H392 H 0.94383 0.23005 0.20514 0.0
H393 H 1.0147 0.20872 0.46945 0.0
H394 H 0.98079 0.1677 0.55595 0.0
H395 H 0.93477 0.13456 0.54005 0.0
H396 H 0.86806 0.14813 0.25272 0.0
H397 H 0.89552 0.19692 0.19368 0.0
C398 C 0.95152 0.21623 0.28164 0.0
C399 C 0.98121 0.22213 0.33266 0.0
C400 C 0.93238 0.19207 0.32734 0.0
C401 C 0.9916 0.20444 0.43094 0.0
C402 C 0.97226 0.18124 0.48004 0.0
C403 C 0.92531 0.14888 0.46768 0.0
C404 C 0.89924 0.13811 0.40142 0.0
C405 C 0.94287 0.17463 0.42776 0.0
C406 C 0.88779 0.15641 0.3059 0.0
C407 C 0.9039 0.18379 0.27079 0.0
H408 H 0.2906 0.07833 0.35846 0.0
H409 H 0.30515 0.06784 0.98023 0.0
H410 H 0.36146 0.07961 1.00484 0.0
H411 H 0.406 0.07157 0.14703 0.0
H412 H 0.38978 0.08565 0.52351 0.0
H413 H 0.33412 0.09634 0.4857 0.0
C414 C 0.30547 0.08087 0.28003 0.0
C415 C 0.29459 0.06995 0.16908 0.0
C416 C 0.33755 0.08785 0.29526 0.0
C417 C 0.3138 0.07435 0.06781 0.0
C418 C 0.34599 0.08104 0.08196 0.0
C419 C 0.39073 0.07894 0.21977 0.0
C420 C 0.40109 0.07565 0.33859 0.0
C421 C 0.35848 0.08445 0.19741 0.0
C422 C 0.38165 0.08664 0.43165 0.0
C423 C 0.34973 0.09242 0.41026 0.0
H424 H 0.59988 0.30337 0.21264 0.0
H425 H 0.5444 0.30276 0.53534 0.0
H426 H 0.57443 0.34745 0.61332 0.0
H427 H 0.61056 0.39011 0.57791 0.0
H428 H 0.65857 0.39881 0.23938 0.0
H429 H 0.63912 0.34645 0.1806 0.0
C430 C 0.59482 0.31315 0.30008 0.0
C431 C 0.57065 0.29995 0.36997 0.0
C432 C 0.6113 0.33968 0.34158 0.0
C433 C 0.5634 0.31267 0.4821 0.0
C434 C 0.58058 0.33795 0.52642 0.0
C435 C 0.61803 0.38 0.49335 0.0
C436 C 0.63594 0.39814 0.41296 0.0
C437 C 0.60412 0.35195 0.45596 0.0
C438 C 0.64495 0.38502 0.30282 0.0
C439 C 0.63324 0.35549 0.2684 0.0
H440 H 0.24978 0.59364 0.38101 0.0
H441 H 0.2453 0.59117 0.99716 0.0
H442 H 0.19824 0.62519 1.00001 0.0
H443 H 0.15235 0.64359 0.11717 0.0
H444 H 0.15786 0.64249 0.50314 0.0
H445 H 0.2123 0.62586 0.49343 0.0
C446 C 0.23944 0.60188 0.29786 0.0
C447 C 0.24984 0.58911 0.18939 0.0
C448 C 0.21279 0.62135 0.30077 0.0
C449 C 0.23647 0.59973 0.08183 0.0
C450 C 0.20987 0.61939 0.08362 0.0
C451 C 0.16575 0.64058 0.19912 0.0
C452 C 0.15012 0.64199 0.31037 0.0
C453 C 0.19664 0.62851 0.19342 0.0
C454 C 0.16848 0.64045 0.41547 0.0
C455 C 0.19975 0.63027 0.41048 0.0
H456 H 0.10314 0.78489 0.1873 0.0
H457 H 0.09712 0.79903 0.56738 0.0
H458 H 0.12804 0.8479 0.54866 0.0
H459 H 0.14484 0.89149 0.41628 0.0
H460 H 0.14594 0.87648 0.03381 0.0
H461 H 0.1328 0.82169 0.06307 0.0
C462 C 0.11006 0.7977 0.26681 0.0
C463 C 0.09742 0.78899 0.37797 0.0
C464 C 0.12739 0.82561 0.25483 0.0
C465 C 0.10613 0.80594 0.48051 0.0
C466 C 0.1238 0.83377 0.46965 0.0
C467 C 0.14285 0.8761 0.33932 0.0
C468 C 0.14421 0.889 0.22283 0.0
C469 C 0.13272 0.8448 0.35591 0.0
C470 C 0.14406 0.86806 0.12496 0.0
C471 C 0.1359 0.83649 0.14115 0.0
H472 H 0.75323 0.07692 0.25113 0.0
H473 H 0.73838 0.07063 0.63077 0.0
H474 H 0.6898 0.10205 0.61219 0.0
H475 H 0.64622 0.11842 0.47944 0.0
H476 H 0.66158 0.12045 0.0975 0.0
H477 H 0.71662 0.10698 0.1264 0.0
C478 C 0.74026 0.08391 0.33042 0.0
C479 C 0.74843 0.07081 0.44143 0.0
C480 C 0.71252 0.10155 0.31832 0.0
C481 C 0.73157 0.07968 0.54393 0.0
C482 C 0.704 0.09772 0.53318 0.0
C483 C 0.6619 0.11695 0.40286 0.0
C484 C 0.64929 0.11873 0.28641 0.0
C485 C 0.69319 0.10684 0.41944 0.0
C486 C 0.6702 0.11849 0.18837 0.0
C487 C 0.70177 0.11017 0.2045 0.0
H488 H 0.4448 0.74143 0.23105 0.0
H489 H 0.43575 0.7331 0.6127 0.0
H490 H 0.40149 0.68668 0.58879 0.0
H491 H 0.38537 0.64261 0.45847 0.0
H492 H 0.39898 0.65128 0.07647 0.0
H493 H 0.41658 0.70503 0.10031 0.0
C494 C 0.43418 0.73019 0.30859 0.0
C495 C 0.44362 0.73942 0.42327 0.0
C496 C 0.4148 0.70382 0.29364 0.0
C497 C 0.42979 0.72514 0.52372 0.0
C498 C 0.41001 0.69892 0.50982 0.0
C499 C 0.39147 0.65653 0.38016 0.0
C500 C 0.39274 0.64201 0.26696 0.0
C501 C 0.40409 0.68691 0.39504 0.0
C502 C 0.39851 0.66109 0.16567 0.0
C503 C 0.40926 0.69193 0.17909 0.0
H504 H 0.80946 0.44718 0.346 0.0
H505 H 0.82686 0.52457 0.10427 0.0
H506 H 0.86896 0.49433 1.00603 0.0
H507 H 0.90343 0.4487 1.00383 0.0
H508 H 0.89207 0.37432 0.26494 0.0
H509 H 0.84371 0.39983 0.33924 0.0
C510 C 0.82282 0.45724 0.27232 0.0
C511 C 0.81565 0.4878 0.2316 0.0
C512 C 0.84723 0.44001 0.21907 0.0
C513 C 0.83239 0.50098 0.13581 0.0
C514 C 0.85614 0.48369 0.07988 0.0
C515 C 0.88964 0.4373 0.07366 0.0
C516 C 0.90076 0.40938 0.12764 0.0
C517 C 0.86389 0.45337 0.12174 0.0
C518 C 0.88338 0.39543 0.22073 0.0
C519 C 0.85625 0.41035 0.26452 0.0
H520 H 0.03437 0.1915 0.21919 0.0
H521 H 0.98697 0.24439 0.94373 0.0
H522 H 0.98337 0.19632 0.82025 0.0
H523 H 0.99198 0.13709 0.79387 0.0
H524 H 0.03887 0.08658 0.08025 0.0
H525 H 0.04352 0.13475 0.19347 0.0
C526 C 0.0234 0.19268 0.1317 0.0
C527 C 1.01133 0.22208 0.09154 0.0
C528 C 0.02084 0.16469 0.06229 0.0
C529 C 0.9972 0.22266 0.9772 0.0
C530 C 0.99477 0.19482 0.90684 0.0
C531 C 1.00327 0.13655 0.88082 0.0
C532 C 1.01508 0.10719 0.92601 0.0
C533 C 1.00622 0.16533 0.94866 0.0
C534 C 0.02956 0.10795 0.04003 0.0
C535 C 0.03233 0.13586 0.10634 0.0
H536 H 0.33431 1.0051 0.24222 0.0
H537 H 0.28411 1.00421 0.90843 0.0
H538 H 0.33439 0.99997 0.79865 0.0
H539 H 0.39408 1.00151 0.79697 0.0
H540 H 0.44297 1.00129 0.13505 0.0
H541 H 0.39257 0.99938 0.24084 0.0
C542 C 0.33431 1.00276 0.14572 0.0
C543 C 0.30514 1.00449 0.08417 0.0
C544 C 0.36357 1.00074 0.08277 0.0
C545 C 0.30595 1.0023 0.95848 0.0
C546 C 0.3349 1.00035 0.89549 0.0
C547 C 0.39378 1.00112 0.89388 0.0
C548 C 0.42294 1.00256 0.95713 0.0
C549 C 0.36413 1.00045 0.95631 0.0
C550 C 0.42141 1.00146 0.08301 0.0
C551 C 0.39244 1.00028 0.14434 0.0
H552 H 0.51335 0.33213 0.30564 0.0
H553 H 0.54187 0.28016 0.99428 0.0
H554 H 0.53943 0.3289 0.87321 0.0
H555 H 0.53096 0.38825 0.85711 0.0
H556 H 0.50424 0.43826 0.17825 0.0
H557 H 0.50495 0.38952 0.29084 0.0
C558 C 0.51874 0.33131 0.21095 0.0
C559 C 0.52721 0.30193 0.15976 0.0
C560 C 0.51808 0.35975 0.1424 0.0
C561 C 0.5344 0.3019 0.03649 0.0
C562 C 0.5334 0.33008 0.96726 0.0
C563 C 0.52522 0.38857 0.95153 0.0
C564 C 0.51734 0.41794 1.00662 0.0
C565 C 0.52554 0.3595 0.01912 0.0
C566 C 0.51018 0.41688 0.13028 0.0
C567 C 0.51055 0.38863 0.1963 0.0
H568 H 0.24001 0.53661 0.94128 0.0
H569 H 0.20901 0.51186 0.29543 0.0
H570 H 0.15451 0.50535 0.22193 0.0
H571 H 0.1146 0.50898 0.05671 0.0
H572 H 0.146 0.53699 0.70475 0.0
H573 H 0.20038 0.54041 0.77702 0.0
C574 C 0.22133 0.52956 1.00214 0.0
C575 C 0.22892 0.52451 0.1242 0.0
C576 C 0.18967 0.52681 0.95931 0.0
C577 C 0.20419 0.51543 0.20126 0.0
C578 C 0.17285 0.51202 0.15904 0.0
C579 C 0.13327 0.51569 0.99526 0.0
C580 C 0.12548 0.52257 0.87399 0.0
C581 C 0.16508 0.51798 0.03823 0.0
C582 C 0.15058 0.53149 0.7978 0.0
C583 C 0.182 0.53342 0.83931 0.0
H584 H 0.04563 0.8333 0.33472 0.0
H585 H 1.01944 0.7784 0.64329 0.0
H586 H 1.01109 0.8272 0.75853 0.0
H587 H 1.01301 0.88662 0.77416 0.0
H588 H 0.03881 0.94033 0.4604 0.0
H589 H 0.04622 0.89173 0.34786 0.0
C590 C 0.03767 0.83202 0.42676 0.0
C591 C 0.03298 0.80191 0.4796 0.0
C592 C 0.03338 0.86037 0.49313 0.0
C593 C 0.02283 0.80101 0.5995 0.0
C594 C 1.01841 0.82906 0.66592 0.0
C595 C 0.02033 0.8877 0.68136 0.0
C596 C 0.02528 0.91772 0.62698 0.0
C597 C 0.02397 0.85907 0.61449 0.0
C598 C 0.03453 0.91806 0.50567 0.0
C599 C 0.03878 0.89006 0.44045 0.0
H600 H 0.73549 1.01287 0.68194 0.0
H601 H 0.70951 0.99921 0.3143 0.0
H602 H 0.65359 0.99388 0.37256 0.0
H603 H 0.61111 0.99581 0.52858 0.0
H604 H 0.63765 1.01198 0.8959 0.0
H605 H 0.69333 1.01383 0.83795 0.0
C606 C 0.71762 1.00808 0.61495 0.0
C607 C 0.72705 1.00582 0.49356 0.0
C608 C 0.68517 1.00591 0.64938 0.0
C609 C 0.70328 1.00031 0.40811 0.0
C610 C 0.67113 0.99763 0.4417 0.0
C611 C 0.629 0.99945 0.59656 0.0
C612 C 0.61943 1.00354 0.71773 0.0
C613 C 0.66159 1.00076 0.56211 0.0
C614 C 0.64358 1.00863 0.80257 0.0
C615 C 0.67575 1.00968 0.76928 0.0
H616 H 0.48817 0.72686 0.68274 0.0
H617 H 0.52658 0.7002 0.34169 0.0
H618 H 0.5332 0.64552 0.41314 0.0
H619 H 0.52593 0.60423 0.57127 0.0
H620 H 0.48429 0.63092 0.90859 0.0
H621 H 0.48046 0.68567 0.83987 0.0
C622 C 0.49798 0.70904 0.62408 0.0
C623 C 0.50687 0.7179 0.5064 0.0
C624 C 0.50081 0.67725 0.66519 0.0
C625 C 0.51988 0.69438 0.43259 0.0
C626 C 0.52337 0.66294 0.47347 0.0
C627 C 0.51611 0.62195 0.63037 0.0
C628 C 0.50554 0.61277 0.74633 0.0
C629 C 0.51362 0.65388 0.58938 0.0
C630 C 0.4927 0.63663 0.81959 0.0
C631 C 0.49052 0.66823 0.78014 0.0
H632 H 0.8384 0.54343 0.37328 0.0
H633 H 0.7958 0.47572 0.61068 0.0
H634 H 0.84533 0.47299 0.72762 0.0
H635 H 0.9036 0.48765 0.75379 0.0
H636 H 0.94327 0.55571 0.50649 0.0
H637 H 0.89315 0.56006 0.40467 0.0
C638 C 0.8397 0.52841 0.45189 0.0
C639 C 0.81287 0.51021 0.48308 0.0
C640 C 0.86848 0.52659 0.51714 0.0
C641 C 0.81548 0.49063 0.58505 0.0
C642 C 0.84417 0.4888 0.65134 0.0
C643 C 0.90122 0.50371 0.67867 0.0
C644 C 0.92828 0.52105 0.63881 0.0
C645 C 0.87129 0.50636 0.61744 0.0
C646 C 0.92384 0.54156 0.54018 0.0
C647 C 0.8948 0.54427 0.48095 0.0
loop_
_geom_bond_atom_site_label_1
_geom_bond_atom_site_label_2
_geom_bond_distance
_geom_bond_site_symmetry_2
_ccdc_geom_bond_type
C0 N1 1.317 . S
C0 N2 1.348 . S
C0 C3 1.485 . S
N1 C0 1.317 . S
N1 N5 1.370 . S
N2 C0 1.348 . S
N2 C4 1.346 . S
C3 C0 1.485 . S
C3 H7 0.960 . S
C3 H8 0.961 . S
C3 H9 0.960 . S
C4 N2 1.346 . S
C4 N5 1.307 . S
C4 C6 1.486 . S
N5 N1 1.370 . S
N5 C4 1.307 . S
C6 C4 1.486 . S
C6 H10 0.960 . S
C6 H11 0.960 . S
C6 H12 0.959 . S
H7 C3 0.960 . S
H8 C3 0.961 . S
H9 C3 0.960 . S
H10 C6 0.960 . S
H11 C6 0.960 . S
H12 C6 0.959 . S
C13 N14 1.317 . S
C13 N15 1.350 . S
C13 C16 1.485 . S
N14 C13 1.317 . S
N14 N18 1.371 . S
N15 C13 1.350 . S
N15 C17 1.345 1_655 S
C16 C13 1.485 . S
C16 H20 0.960 1_655 S
C16 H21 0.961 . S
C16 H22 0.960 . S
C17 N15 1.345 1_455 S
C17 N18 1.307 1_455 S
C17 C19 1.486 . S
N18 N14 1.371 . S
N18 C17 1.307 1_655 S
C19 C17 1.486 . S
C19 H23 0.960 1_455 S
C19 H24 0.960 . S
C19 H25 0.959 . S
H20 C16 0.960 1_455 S
H21 C16 0.961 . S
H22 C16 0.960 . S
H23 C19 0.960 1_655 S
H24 C19 0.960 . S
H25 C19 0.959 . S
C26 N27 1.317 . S
C26 N28 1.348 . S
C26 C29 1.485 . S
N27 C26 1.317 . S
N27 N31 1.371 . S
N28 C26 1.348 . S
N28 C30 1.346 1_565 S
C29 C26 1.485 . S
C29 H33 0.960 1_565 S
C29 H34 0.961 . S
C29 H35 0.960 . S
C30 N28 1.346 1_545 S
C30 N31 1.307 1_545 S
C30 C32 1.486 . S
N31 N27 1.371 . S
N31 C30 1.307 1_565 S
C32 C30 1.486 . S
C32 H36 0.960 1_545 S
C32 H37 0.960 . S
C32 H38 0.959 . S
H33 C29 0.960 1_545 S
H34 C29 0.961 . S
H35 C29 0.960 . S
H36 C32 0.960 1_565 S
H37 C32 0.960 . S
H38 C32 0.959 . S
C39 N40 1.317 . S
C39 N41 1.348 . S
C39 C42 1.485 . S
N40 C39 1.317 . S
N40 N44 1.370 . S
N41 C39 1.348 . S
N41 C43 1.346 . S
C42 C39 1.485 . S
C42 H46 0.960 . S
C42 H47 0.961 . S
C42 H48 0.960 . S
C43 N41 1.346 . S
C43 N44 1.307 . S
C43 C45 1.486 . S
N44 N40 1.370 . S
N44 C43 1.307 . S
C45 C43 1.486 . S
C45 H49 0.960 . S
C45 H50 0.960 . S
C45 H51 0.959 . S
H46 C42 0.960 . S
H47 C42 0.961 . S
H48 C42 0.960 . S
H49 C45 0.960 . S
H50 C45 0.960 . S
H51 C45 0.959 . S
C52 N53 1.317 . S
C52 N54 1.348 1_556 S
C52 C55 1.485 . S
N53 C52 1.317 . S
N53 N57 1.370 1_556 S
N54 C52 1.348 1_554 S
N54 C56 1.346 . S
C55 C52 1.485 . S
C55 H59 0.960 . S
C55 H60 0.961 . S
C55 H61 0.960 . S
C56 N54 1.346 . S
C56 N57 1.307 . S
C56 C58 1.486 . S
N57 N53 1.370 1_554 S
N57 C56 1.307 . S
C58 C56 1.486 . S
C58 H62 0.960 . S
C58 H63 0.960 . S
C58 H64 0.959 . S
H59 C55 0.960 . S
H60 C55 0.961 . S
H61 C55 0.960 . S
H62 C58 0.960 . S
H63 C58 0.960 . S
H64 C58 0.959 . S
C65 N66 1.317 . S
C65 N67 1.350 1_556 S
C65 C68 1.485 . S
N66 C65 1.317 . S
N66 N70 1.370 1_556 S
N67 C65 1.350 1_554 S
N67 C69 1.345 1_655 S
C68 C65 1.485 . S
C68 H72 0.960 1_655 S
C68 H73 0.961 . S
C68 H74 0.960 . S
C69 N67 1.345 1_455 S
C69 N70 1.307 1_455 S
C69 C71 1.486 . S
N70 N66 1.370 1_554 S
N70 C69 1.307 1_655 S
C71 C69 1.486 . S
C71 H75 0.960 1_455 S
C71 H76 0.960 . S
C71 H77 0.959 . S
H72 C68 0.960 1_455 S
H73 C68 0.961 . S
H74 C68 0.960 . S
H75 C71 0.960 1_655 S
H76 C71 0.960 . S
H77 C71 0.959 . S
C78 N79 1.317 . S
C78 N80 1.350 1_556 S
C78 C81 1.485 . S
N79 C78 1.317 . S
N79 N83 1.371 1_556 S
N80 C78 1.350 1_554 S
N80 C82 1.345 1_565 S
C81 C78 1.485 . S
C81 H85 0.960 1_565 S
C81 H86 0.961 . S
C81 H87 0.960 . S
C82 N80 1.345 1_545 S
C82 N83 1.307 1_545 S
C82 C84 1.487 . S
N83 N79 1.371 1_554 S
N83 C82 1.307 1_565 S
C84 C82 1.487 . S
C84 H88 0.960 1_545 S
C84 H89 0.960 . S
C84 H90 0.959 . S
H85 C81 0.960 1_545 S
H86 C81 0.961 . S
H87 C81 0.960 . S
H88 C84 0.960 1_565 S
H89 C84 0.960 . S
H90 C84 0.959 . S
C91 N92 1.317 . S
C91 N93 1.348 1_556 S
C91 C94 1.485 . S
N92 C91 1.317 . S
N92 N96 1.370 1_556 S
N93 C91 1.348 1_554 S
N93 C95 1.346 . S
C94 C91 1.485 . S
C94 H98 0.960 . S
C94 H99 0.961 . S
C94 H100 0.960 . S
C95 N93 1.346 . S
C95 N96 1.307 . S
C95 C97 1.486 . S
N96 N92 1.370 1_554 S
N96 C95 1.307 . S
C97 C95 1.486 . S
C97 H101 0.960 . S
C97 H102 0.960 . S
C97 H103 0.959 . S
H98 C94 0.960 . S
H99 C94 0.961 . S
H100 C94 0.960 . S
H101 C97 0.960 . S
H102 C97 0.960 . S
H103 C97 0.959 . S
Tb104 C114 2.825 1_556 S
Tb104 O115 2.347 1_455 S
Tb104 O118 2.366 . S
Tb104 O123 2.418 . S
Tb104 O124 2.384 1_565 S
Tb104 O127 2.479 1_556 S
Tb104 O128 2.471 1_556 S
Eu105 O116 2.418 . S
Eu105 O117 2.384 1_545 S
Eu105 O120 2.479 . S
Eu105 O121 2.471 . S
Eu105 O122 2.347 1_655 S
Eu105 O125 2.366 . S
Eu105 C135 2.825 . S
C106 O122 1.259 1_565 S
C106 O123 1.265 . S
C107 O124 1.255 . S
C107 O125 1.265 1_455 S
C108 C110 1.380 . S
C108 C111 1.374 . S
C108 C114 1.507 . S
C109 C110 1.384 . S
C109 C113 1.387 . S
C109 H136 0.930 . S
C110 C108 1.380 . S
C110 C109 1.384 . S
C110 H137 0.931 . S
C111 C108 1.374 . S
C111 C112 1.390 . S
C111 H138 0.930 1_455 S
C112 C111 1.390 . S
C112 C113 1.391 . S
C112 H139 0.930 1_455 S
C113 C109 1.387 . S
C113 C112 1.391 . S
C114 Tb104 2.825 1_554 S
C114 C108 1.507 . S
C114 O127 1.238 . S
C114 O128 1.247 . S
O115 Tb104 2.347 1_655 S
O115 C119 1.259 1_565 S
O116 Eu105 2.418 . S
O116 C119 1.265 . S
O117 Eu105 2.384 1_565 S
O117 C126 1.255 . S
O118 Tb104 2.366 . S
O118 C126 1.265 1_455 S
C119 O115 1.259 1_545 S
C119 O116 1.265 . S
O120 Eu105 2.479 . S
O120 C135 1.238 . S
O121 Eu105 2.471 . S
O121 C135 1.247 . S
O122 Eu105 2.347 1_455 S
O122 C106 1.259 1_545 S
O123 Tb104 2.418 . S
O123 C106 1.265 . S
O124 Tb104 2.384 1_545 S
O124 C107 1.255 . S
O125 Eu105 2.366 . S
O125 C107 1.265 1_655 S
C126 O117 1.255 . S
C126 O118 1.265 1_655 S
O127 Tb104 2.479 1_554 S
O127 C114 1.238 . S
O128 Tb104 2.471 1_554 S
O128 C114 1.247 . S
C129 C132 1.380 . S
C129 C133 1.374 . S
C129 C135 1.507 . S
C130 C131 1.387 . S
C130 C134 1.391 . S
C131 C130 1.387 . S
C131 C132 1.384 . S
C131 H140 0.930 . S
C132 C129 1.380 . S
C132 C131 1.384 . S
C132 H141 0.931 . S
C133 C129 1.374 . S
C133 C134 1.390 . S
C133 H142 0.930 1_655 S
C134 C130 1.391 . S
C134 C133 1.390 . S
C134 H143 0.930 1_655 S
C135 Eu105 2.825 . S
C135 O120 1.238 . S
C135 O121 1.247 . S
C135 C129 1.507 . S
H136 C109 0.930 . S
H137 C110 0.931 . S
H138 C111 0.930 1_655 S
H139 C112 0.930 1_655 S
H140 C131 0.930 . S
H141 C132 0.931 . S
H142 C133 0.930 1_455 S
H143 C134 0.930 1_455 S
Tb144 C154 2.825 1_556 S
Tb144 O155 2.347 1_545 S
Tb144 O158 2.366 . S
Tb144 O163 2.418 . S
Tb144 O164 2.384 . S
Tb144 O167 2.479 1_556 S
Tb144 O168 2.471 1_556 S
Eu145 O156 2.418 . S
Eu145 O157 2.384 . S
Eu145 O160 2.479 . S
Eu145 O161 2.471 . S
Eu145 O162 2.347 1_565 S
Eu145 O165 2.366 . S
Eu145 C175 2.825 . S
C146 O162 1.259 . S
C146 O163 1.265 . S
C147 O164 1.255 . S
C147 O165 1.265 1_545 S
C148 C150 1.380 . S
C148 C151 1.374 . S
C148 C154 1.507 . S
C149 C150 1.384 . S
C149 C153 1.387 . S
C149 H176 0.930 . S
C150 C148 1.380 . S
C150 C149 1.384 . S
C150 H177 0.931 . S
C151 C148 1.374 . S
C151 C152 1.390 . S
C151 H178 0.930 1_545 S
C152 C151 1.390 . S
C152 C153 1.391 . S
C152 H179 0.930 1_545 S
C153 C149 1.387 . S
C153 C152 1.391 . S
C154 Tb144 2.825 1_554 S
C154 C148 1.507 . S
C154 O167 1.238 . S
C154 O168 1.247 . S
O155 Tb144 2.347 1_565 S
O155 C159 1.259 . S
O156 Eu145 2.418 . S
O156 C159 1.265 . S
O157 Eu145 2.384 . S
O157 C166 1.255 . S
O158 Tb144 2.366 . S
O158 C166 1.265 1_545 S
C159 O155 1.259 . S
C159 O156 1.265 . S
O160 Eu145 2.479 . S
O160 C175 1.238 . S
O161 Eu145 2.471 . S
O161 C175 1.247 . S
O162 Eu145 2.347 1_545 S
O162 C146 1.259 . S
O163 Tb144 2.418 . S
O163 C146 1.265 . S
O164 Tb144 2.384 . S
O164 C147 1.255 . S
O165 Eu145 2.366 . S
O165 C147 1.265 1_565 S
C166 O157 1.255 . S
C166 O158 1.265 1_565 S
O167 Tb144 2.479 1_554 S
O167 C154 1.238 . S
O168 Tb144 2.471 1_554 S
O168 C154 1.247 . S
C169 C172 1.380 . S
C169 C173 1.374 . S
C169 C175 1.507 . S
C170 C171 1.387 . S
C170 C174 1.391 . S
C171 C170 1.387 . S
C171 C172 1.384 . S
C171 H180 0.930 . S
C172 C169 1.380 . S
C172 C171 1.384 . S
C172 H181 0.931 . S
C173 C169 1.374 . S
C173 C174 1.390 . S
C173 H182 0.930 1_565 S
C174 C170 1.391 . S
C174 C173 1.390 . S
C174 H183 0.930 1_565 S
C175 Eu145 2.825 . S
C175 O160 1.238 . S
C175 O161 1.247 . S
C175 C169 1.507 . S
H176 C149 0.930 . S
H177 C150 0.931 . S
H178 C151 0.930 1_565 S
H179 C152 0.930 1_565 S
H180 C171 0.930 . S
H181 C172 0.931 . S
H182 C173 0.930 1_545 S
H183 C174 0.930 1_545 S
Tb184 C194 2.825 1_556 S
Tb184 O195 2.347 . S
Tb184 O198 2.366 . S
Tb184 O203 2.418 . S
Tb184 O204 2.384 . S
Tb184 O207 2.479 1_556 S
Tb184 O208 2.471 1_556 S
Eu185 O196 2.418 . S
Eu185 O197 2.384 . S
Eu185 O200 2.479 . S
Eu185 O201 2.471 . S
Eu185 O202 2.347 . S
Eu185 O205 2.366 . S
Eu185 C215 2.825 . S
C186 O202 1.259 . S
C186 O203 1.265 . S
C187 O204 1.255 . S
C187 O205 1.265 . S
C188 C190 1.380 . S
C188 C191 1.374 . S
C188 C194 1.507 . S
C189 C190 1.384 . S
C189 C193 1.387 . S
C189 H216 0.930 . S
C190 C188 1.380 . S
C190 C189 1.384 . S
C190 H217 0.931 . S
C191 C188 1.374 . S
C191 C192 1.390 . S
C191 H218 0.930 . S
C192 C191 1.390 . S
C192 C193 1.391 . S
C192 H219 0.930 . S
C193 C189 1.387 . S
C193 C192 1.391 . S
C194 Tb184 2.825 1_554 S
C194 C188 1.507 . S
C194 O207 1.238 . S
C194 O208 1.247 . S
O195 Tb184 2.347 . S
O195 C199 1.259 . S
O196 Eu185 2.418 . S
O196 C199 1.265 . S
O197 Eu185 2.384 . S
O197 C206 1.255 . S
O198 Tb184 2.366 . S
O198 C206 1.265 . S
C199 O195 1.259 . S
C199 O196 1.265 . S
O200 Eu185 2.479 . S
O200 C215 1.238 . S
O201 Eu185 2.471 . S
O201 C215 1.247 . S
O202 Eu185 2.347 . S
O202 C186 1.259 . S
O203 Tb184 2.418 . S
O203 C186 1.265 . S
O204 Tb184 2.384 . S
O204 C187 1.255 . S
O205 Eu185 2.366 . S
O205 C187 1.265 . S
C206 O197 1.255 . S
C206 O198 1.265 . S
O207 Tb184 2.479 1_554 S
O207 C194 1.238 . S
O208 Tb184 2.471 1_554 S
O208 C194 1.247 . S
C209 C212 1.380 . S
C209 C213 1.374 . S
C209 C215 1.507 . S
C210 C211 1.387 . S
C210 C214 1.391 . S
C211 C210 1.387 . S
C211 C212 1.384 . S
C211 H220 0.930 . S
C212 C209 1.380 . S
C212 C211 1.384 . S
C212 H221 0.931 . S
C213 C209 1.374 . S
C213 C214 1.390 . S
C213 H222 0.930 . S
C214 C210 1.391 . S
C214 C213 1.390 . S
C214 H223 0.930 . S
C215 Eu185 2.825 . S
C215 O200 1.238 . S
C215 O201 1.247 . S
C215 C209 1.507 . S
H216 C189 0.930 . S
H217 C190 0.931 . S
H218 C191 0.930 . S
H219 C192 0.930 . S
H220 C211 0.930 . S
H221 C212 0.931 . S
H222 C213 0.930 . S
H223 C214 0.930 . S
Tb224 C234 2.825 1_556 S
Tb224 O235 2.347 . S
Tb224 O238 2.366 . S
Tb224 O243 2.418 . S
Tb224 O244 2.384 1_655 S
Tb224 O247 2.479 1_556 S
Tb224 O248 2.471 1_556 S
Eu225 O236 2.418 . S
Eu225 O237 2.384 1_455 S
Eu225 O240 2.479 . S
Eu225 O241 2.471 . S
Eu225 O242 2.347 . S
Eu225 O245 2.366 . S
Eu225 C255 2.825 . S
C226 O242 1.259 1_655 S
C226 O243 1.265 . S
C227 O244 1.255 . S
C227 O245 1.265 . S
C228 C230 1.380 . S
C228 C231 1.374 . S
C228 C234 1.507 . S
C229 C230 1.384 . S
C229 C233 1.387 . S
C229 H256 0.930 . S
C230 C228 1.380 . S
C230 C229 1.384 . S
C230 H257 0.931 . S
C231 C228 1.374 . S
C231 C232 1.390 . S
C231 H258 0.930 . S
C232 C231 1.390 . S
C232 C233 1.391 . S
C232 H259 0.930 . S
C233 C229 1.387 . S
C233 C232 1.391 . S
C234 Tb224 2.825 1_554 S
C234 C228 1.507 . S
C234 O247 1.238 . S
C234 O248 1.247 . S
O235 Tb224 2.347 . S
O235 C239 1.259 1_655 S
O236 Eu225 2.418 . S
O236 C239 1.265 . S
O237 Eu225 2.384 1_655 S
O237 C246 1.255 . S
O238 Tb224 2.366 . S
O238 C246 1.265 . S
C239 O235 1.259 1_455 S
C239 O236 1.265 . S
O240 Eu225 2.479 . S
O240 C255 1.238 . S
O241 Eu225 2.471 . S
O241 C255 1.247 . S
O242 Eu225 2.347 . S
O242 C226 1.259 1_455 S
O243 Tb224 2.418 . S
O243 C226 1.265 . S
O244 Tb224 2.384 1_455 S
O244 C227 1.255 . S
O245 Eu225 2.366 . S
O245 C227 1.265 . S
C246 O237 1.255 . S
C246 O238 1.265 . S
O247 Tb224 2.479 1_554 S
O247 C234 1.238 . S
O248 Tb224 2.471 1_554 S
O248 C234 1.247 . S
C249 C252 1.380 . S
C249 C253 1.374 . S
C249 C255 1.507 . S
C250 C251 1.387 . S
C250 C254 1.391 . S
C251 C250 1.387 . S
C251 C252 1.384 . S
C251 H260 0.930 . S
C252 C249 1.380 . S
C252 C251 1.384 . S
C252 H261 0.931 . S
C253 C249 1.374 . S
C253 C254 1.390 . S
C253 H262 0.930 . S
C254 C250 1.391 . S
C254 C253 1.390 . S
C254 H263 0.930 . S
C255 Eu225 2.825 . S
C255 O240 1.238 . S
C255 O241 1.247 . S
C255 C249 1.507 . S
H256 C229 0.930 . S
H257 C230 0.931 . S
H258 C231 0.930 . S
H259 C232 0.930 . S
H260 C251 0.930 . S
H261 C252 0.931 . S
H262 C253 0.930 . S
H263 C254 0.930 . S
H264 C270 0.930 . S
H265 C273 0.930 . S
H266 C274 0.930 . S
H267 C275 0.930 . S
H268 C278 0.930 . S
H269 C279 0.930 . S
C270 H264 0.930 . S
C270 C271 1.355 1_545 S
C270 C272 1.415 . S
C271 C270 1.355 1_565 S
C271 C273 1.419 . S
C272 C270 1.415 . S
C272 C277 1.425 1_545 S
C272 C279 1.409 . S
C273 H265 0.930 . S
C273 C271 1.419 . S
C273 C274 1.362 . S
C274 H266 0.930 . S
C274 C273 1.362 . S
C274 C277 1.409 . S
C275 H267 0.930 . S
C275 C276 1.355 1_565 S
C275 C277 1.415 . S
C276 C275 1.355 1_545 S
C276 C278 1.419 . S
C277 C272 1.425 1_565 S
C277 C274 1.409 . S
C277 C275 1.415 . S
C278 H268 0.930 . S
C278 C276 1.419 . S
C278 C279 1.362 . S
C279 H269 0.930 . S
C279 C272 1.409 . S
C279 C278 1.362 . S
H280 C286 0.930 . S
H281 C289 0.930 . S
H282 C290 0.930 . S
H283 C291 0.930 . S
H284 C294 0.930 . S
H285 C295 0.930 . S
C286 H280 0.930 . S
C286 C287 1.355 . S
C286 C288 1.415 . S
C287 C286 1.355 . S
C287 C289 1.419 . S
C288 C286 1.415 . S
C288 C293 1.425 . S
C288 C295 1.409 . S
C289 H281 0.930 . S
C289 C287 1.419 . S
C289 C290 1.362 . S
C290 H282 0.930 . S
C290 C289 1.362 . S
C290 C293 1.409 . S
C291 H283 0.930 . S
C291 C292 1.355 . S
C291 C293 1.415 . S
C292 C291 1.355 . S
C292 C294 1.419 . S
C293 C288 1.425 . S
C293 C290 1.409 . S
C293 C291 1.415 . S
C294 H284 0.930 . S
C294 C292 1.419 . S
C294 C295 1.362 . S
C295 H285 0.930 . S
C295 C288 1.409 . S
C295 C294 1.362 . S
H296 C302 0.930 . S
H297 C305 0.930 . S
H298 C306 0.930 . S
H299 C307 0.930 . S
H300 C310 0.930 . S
H301 C311 0.930 . S
C302 H296 0.930 . S
C302 C303 1.355 . S
C302 C304 1.415 . S
C303 C302 1.355 . S
C303 C305 1.419 . S
C304 C302 1.415 . S
C304 C309 1.425 . S
C304 C311 1.409 . S
C305 H297 0.930 . S
C305 C303 1.419 . S
C305 C306 1.362 . S
C306 H298 0.930 . S
C306 C305 1.362 . S
C306 C309 1.409 . S
C307 H299 0.930 . S
C307 C308 1.355 . S
C307 C309 1.415 . S
C308 C307 1.355 . S
C308 C310 1.419 . S
C309 C304 1.425 . S
C309 C306 1.409 . S
C309 C307 1.415 . S
C310 H300 0.930 . S
C310 C308 1.419 . S
C310 C311 1.362 . S
C311 H301 0.930 . S
C311 C304 1.409 . S
C311 C310 1.362 . S
H312 C318 0.930 . S
H313 C321 0.930 . S
H314 C322 0.930 . S
H315 C323 0.930 . S
H316 C326 0.930 . S
H317 C327 0.930 . S
C318 H312 0.930 . S
C318 C319 1.355 1_655 S
C318 C320 1.415 . S
C319 C318 1.355 1_455 S
C319 C321 1.419 . S
C320 C318 1.415 . S
C320 C325 1.425 1_655 S
C320 C327 1.409 . S
C321 H313 0.930 . S
C321 C319 1.419 . S
C321 C322 1.362 . S
C322 H314 0.930 . S
C322 C321 1.362 . S
C322 C325 1.409 . S
C323 H315 0.930 . S
C323 C324 1.356 . S
C323 C325 1.415 . S
C324 C323 1.356 . S
C324 C326 1.417 1_455 S
C325 C320 1.425 1_455 S
C325 C322 1.409 . S
C325 C323 1.415 . S
C326 H316 0.930 . S
C326 C324 1.417 1_655 S
C326 C327 1.362 . S
C327 H317 0.930 . S
C327 C320 1.409 . S
C327 C326 1.362 . S
H328 C334 0.930 . S
H329 C337 0.930 . S
H330 C338 0.930 . S
H331 C339 0.930 . S
H332 C342 0.930 . S
H333 C343 0.930 . S
C334 H328 0.930 . S
C334 C335 1.355 1_565 S
C334 C336 1.415 . S
C335 C334 1.355 1_545 S
C335 C337 1.419 . S
C336 C334 1.415 . S
C336 C341 1.425 1_565 S
C336 C343 1.409 . S
C337 H329 0.930 . S
C337 C335 1.419 . S
C337 C338 1.362 . S
C338 H330 0.930 . S
C338 C337 1.362 . S
C338 C341 1.409 . S
C339 H331 0.930 . S
C339 C340 1.355 1_545 S
C339 C341 1.415 . S
C340 C339 1.355 1_565 S
C340 C342 1.419 . S
C341 C336 1.425 1_545 S
C341 C338 1.409 . S
C341 C339 1.415 . S
C342 H332 0.930 . S
C342 C340 1.419 . S
C342 C343 1.362 . S
C343 H333 0.930 . S
C343 C336 1.409 . S
C343 C342 1.362 . S
H344 C350 0.930 . S
H345 C353 0.930 . S
H346 C354 0.930 . S
H347 C355 0.930 1_556 S
H348 C358 0.930 . S
H349 C359 0.930 . S
C350 H344 0.930 . S
C350 C351 1.355 . S
C350 C352 1.415 . S
C351 C350 1.355 . S
C351 C353 1.419 . S
C352 C350 1.415 . S
C352 C357 1.425 . S
C352 C359 1.409 . S
C353 H345 0.930 . S
C353 C351 1.419 . S
C353 C354 1.362 . S
C354 H346 0.930 . S
C354 C353 1.362 . S
C354 C357 1.409 . S
C355 H347 0.930 1_554 S
C355 C356 1.355 . S
C355 C357 1.415 . S
C356 C355 1.355 . S
C356 C358 1.419 . S
C357 C352 1.425 . S
C357 C354 1.409 . S
C357 C355 1.415 . S
C358 H348 0.930 . S
C358 C356 1.419 . S
C358 C359 1.362 . S
C359 H349 0.930 . S
C359 C352 1.409 . S
C359 C358 1.362 . S
H360 C366 0.930 . S
H361 C369 0.930 . S
H362 C370 0.930 . S
H363 C371 0.930 . S
H364 C374 0.930 . S
H365 C375 0.930 . S
C366 H360 0.930 . S
C366 C367 1.355 . S
C366 C368 1.415 . S
C367 C366 1.355 . S
C367 C369 1.419 . S
C368 C366 1.415 . S
C368 C373 1.425 . S
C368 C375 1.409 . S
C369 H361 0.930 . S
C369 C367 1.419 . S
C369 C370 1.362 . S
C370 H362 0.930 . S
C370 C369 1.362 . S
C370 C373 1.409 . S
C371 H363 0.930 . S
C371 C372 1.355 . S
C371 C373 1.415 . S
C372 C371 1.355 . S
C372 C374 1.419 . S
C373 C368 1.425 . S
C373 C370 1.409 . S
C373 C371 1.415 . S
C374 H364 0.930 . S
C374 C372 1.419 . S
C374 C375 1.362 . S
C375 H365 0.930 . S
C375 C368 1.409 . S
C375 C374 1.362 . S
H376 C382 0.930 . S
H377 C385 0.930 . S
H378 C386 0.930 . S
H379 C387 0.930 . S
H380 C390 0.930 . S
H381 C391 0.930 . S
C382 H376 0.930 . S
C382 C383 1.355 1_655 S
C382 C384 1.415 . S
C383 C382 1.355 1_455 S
C383 C385 1.419 . S
C384 C382 1.415 . S
C384 C389 1.425 1_655 S
C384 C391 1.409 . S
C385 H377 0.930 . S
C385 C383 1.419 . S
C385 C386 1.362 . S
C386 H378 0.930 . S
C386 C385 1.362 . S
C386 C389 1.409 . S
C387 H379 0.930 . S
C387 C388 1.355 1_455 S
C387 C389 1.415 . S
C388 C387 1.355 1_655 S
C388 C390 1.419 . S
C389 C384 1.425 1_455 S
C389 C386 1.409 . S
C389 C387 1.415 . S
C390 H380 0.930 . S
C390 C388 1.419 . S
C390 C391 1.362 . S
C391 H381 0.930 . S
C391 C384 1.409 . S
C391 C390 1.362 . S
H392 C398 0.930 1_455 S
H393 C401 0.931 1_556 S
H394 C402 0.930 . S
H395 C403 0.930 . S
H396 C406 0.930 . S
H397 C407 0.930 . S
C398 H392 0.930 1_655 S
C398 C399 1.355 1_655 S
C398 C400 1.415 . S
C399 C398 1.355 1_455 S
C399 C401 1.419 1_455 S
C400 C398 1.415 . S
C400 C405 1.425 . S
C400 C407 1.409 . S
C401 H393 0.931 1_554 S
C401 C399 1.419 1_655 S
C401 C402 1.362 . S
C402 H394 0.930 . S
C402 C401 1.362 . S
C402 C405 1.409 . S
C403 H395 0.930 . S
C403 C404 1.355 . S
C403 C405 1.415 . S
C404 C403 1.355 . S
C404 C406 1.419 . S
C405 C400 1.425 . S
C405 C402 1.409 . S
C405 C403 1.415 . S
C406 H396 0.930 . S
C406 C404 1.419 . S
C406 C407 1.362 . S
C407 H397 0.930 . S
C407 C400 1.409 . S
C407 C406 1.362 . S
H408 C414 0.930 . S
H409 C417 0.930 1_556 S
H410 C418 0.930 . S
H411 C419 0.930 . S
H412 C422 0.930 . S
H413 C423 0.930 . S
C414 H408 0.930 . S
C414 C415 1.355 1_565 S
C414 C416 1.415 . S
C415 C414 1.355 1_545 S
C415 C417 1.419 . S
C416 C414 1.415 . S
C416 C421 1.425 . S
C416 C423 1.409 . S
C417 H409 0.930 1_554 S
C417 C415 1.419 . S
C417 C418 1.362 1_545 S
C418 H410 0.930 . S
C418 C417 1.362 1_565 S
C418 C421 1.409 . S
C419 H411 0.930 . S
C419 C420 1.355 . S
C419 C421 1.415 . S
C420 C419 1.355 . S
C420 C422 1.419 . S
C421 C416 1.425 . S
C421 C418 1.409 . S
C421 C419 1.415 . S
C422 H412 0.930 . S
C422 C420 1.419 . S
C422 C423 1.362 . S
C423 H413 0.930 . S
C423 C416 1.409 . S
C423 C422 1.362 . S
H424 C430 0.930 . S
H425 C433 0.930 . S
H426 C434 0.930 . S
H427 C435 0.930 . S
H428 C438 0.930 . S
H429 C439 0.930 . S
C430 H424 0.930 . S
C430 C431 1.355 . S
C430 C432 1.415 . S
C431 C430 1.355 . S
C431 C433 1.419 . S
C432 C430 1.415 . S
C432 C437 1.425 . S
C432 C439 1.409 . S
C433 H425 0.930 . S
C433 C431 1.419 . S
C433 C434 1.362 . S
C434 H426 0.930 . S
C434 C433 1.362 . S
C434 C437 1.409 . S
C435 H427 0.930 . S
C435 C436 1.355 . S
C435 C437 1.415 . S
C436 C435 1.355 . S
C436 C438 1.419 . S
C437 C432 1.425 . S
C437 C434 1.409 . S
C437 C435 1.415 . S
C438 H428 0.930 . S
C438 C436 1.419 . S
C438 C439 1.362 . S
C439 H429 0.930 . S
C439 C432 1.409 . S
C439 C438 1.362 . S
H440 C446 0.930 . S
H441 C449 0.930 1_556 S
H442 C450 0.930 . S
H443 C451 0.930 . S
H444 C454 0.930 . S
H445 C455 0.930 . S
C446 H440 0.930 . S
C446 C447 1.355 . S
C446 C448 1.415 . S
C447 C446 1.355 . S
C447 C449 1.419 . S
C448 C446 1.415 . S
C448 C453 1.425 . S
C448 C455 1.409 . S
C449 H441 0.930 1_554 S
C449 C447 1.419 . S
C449 C450 1.362 . S
C450 H442 0.930 . S
C450 C449 1.362 . S
C450 C453 1.409 . S
C451 H443 0.930 . S
C451 C452 1.355 . S
C451 C453 1.415 . S
C452 C451 1.355 . S
C452 C454 1.419 . S
C453 C448 1.425 . S
C453 C450 1.409 . S
C453 C451 1.415 . S
C454 H444 0.930 . S
C454 C452 1.419 . S
C454 C455 1.362 . S
C455 H445 0.930 . S
C455 C448 1.409 . S
C455 C454 1.362 . S
H456 C462 0.930 1_655 S
H457 C465 0.930 . S
H458 C466 0.930 . S
H459 C467 0.930 . S
H460 C470 0.930 . S
H461 C471 0.930 . S
C462 H456 0.930 1_455 S
C462 C463 1.355 1_455 S
C462 C464 1.415 . S
C463 C462 1.355 1_655 S
C463 C465 1.419 1_655 S
C464 C462 1.415 . S
C464 C469 1.425 . S
C464 C471 1.409 . S
C465 H457 0.930 . S
C465 C463 1.419 1_455 S
C465 C466 1.362 . S
C466 H458 0.930 . S
C466 C465 1.362 . S
C466 C469 1.409 . S
C467 H459 0.930 . S
C467 C468 1.355 . S
C467 C469 1.415 . S
C468 C467 1.355 . S
C468 C470 1.419 . S
C469 C464 1.425 . S
C469 C466 1.409 . S
C469 C467 1.415 . S
C470 H460 0.930 . S
C470 C468 1.419 . S
C470 C471 1.362 . S
C471 H461 0.930 . S
C471 C464 1.409 . S
C471 C470 1.362 . S
H472 C478 0.930 . S
H473 C481 0.930 . S
H474 C482 0.930 . S
H475 C483 0.930 . S
H476 C486 0.930 1_565 S
H477 C487 0.930 . S
C478 H472 0.930 . S
C478 C479 1.341 1_565 S
C478 C480 1.415 1_565 S
C479 C478 1.341 1_545 S
C479 C481 1.450 . S
C480 C478 1.415 1_545 S
C480 C485 1.425 . S
C480 C487 1.409 1_545 S
C481 H473 0.930 . S
C481 C479 1.450 . S
C481 C482 1.362 . S
C482 H474 0.930 . S
C482 C481 1.362 . S
C482 C485 1.409 . S
C483 H475 0.930 . S
C483 C484 1.355 . S
C483 C485 1.415 . S
C484 C483 1.355 . S
C484 C486 1.419 . S
C485 C480 1.425 . S
C485 C482 1.409 . S
C485 C483 1.415 . S
C486 H476 0.930 1_545 S
C486 C484 1.419 . S
C486 C487 1.362 1_545 S
C487 H477 0.930 . S
C487 C480 1.409 1_565 S
C487 C486 1.362 1_565 S
H488 C494 0.930 . S
H489 C497 0.930 . S
H490 C498 0.930 . S
H491 C499 0.930 . S
H492 C502 0.930 . S
H493 C503 0.930 . S
C494 H488 0.930 . S
C494 C495 1.355 . S
C494 C496 1.415 . S
C495 C494 1.355 . S
C495 C497 1.419 . S
C496 C494 1.415 . S
C496 C501 1.425 . S
C496 C503 1.409 . S
C497 H489 0.930 . S
C497 C495 1.419 . S
C497 C498 1.362 . S
C498 H490 0.930 . S
C498 C497 1.362 . S
C498 C501 1.409 . S
C499 H491 0.930 . S
C499 C500 1.355 . S
C499 C501 1.415 . S
C500 C499 1.355 . S
C500 C502 1.419 . S
C501 C496 1.425 . S
C501 C498 1.409 . S
C501 C499 1.415 . S
C502 H492 0.930 . S
C502 C500 1.419 . S
C502 C503 1.362 . S
C503 H493 0.930 . S
C503 C496 1.409 . S
C503 C502 1.362 . S
H504 C510 0.930 . S
H505 C513 0.930 . S
H506 C514 0.930 . S
H507 C515 0.930 . S
H508 C518 0.930 . S
H509 C519 0.930 . S
C510 H504 0.930 . S
C510 C511 1.355 . S
C510 C512 1.415 . S
C511 C510 1.355 . S
C511 C513 1.419 . S
C512 C510 1.415 . S
C512 C517 1.425 . S
C512 C519 1.409 . S
C513 H505 0.930 . S
C513 C511 1.419 . S
C513 C514 1.362 . S
C514 H506 0.930 . S
C514 C513 1.362 . S
C514 C517 1.409 . S
C515 H507 0.930 . S
C515 C516 1.355 . S
C515 C517 1.415 . S
C516 C515 1.355 . S
C516 C518 1.419 . S
C517 C512 1.425 . S
C517 C514 1.409 . S
C517 C515 1.415 . S
C518 H508 0.930 . S
C518 C516 1.419 . S
C518 C519 1.362 . S
C519 H509 0.930 . S
C519 C512 1.409 . S
C519 C518 1.362 . S
H520 C526 0.930 . S
H521 C529 0.930 . S
H522 C530 0.930 . S
H523 C531 0.930 . S
H524 C534 0.930 . S
H525 C535 0.930 . S
C526 H520 0.930 . S
C526 C527 1.349 1_455 S
C526 C528 1.415 . S
C527 C526 1.349 1_655 S
C527 C529 1.425 . S
C528 C526 1.415 . S
C528 C533 1.425 1_455 S
C528 C535 1.409 . S
C529 H521 0.930 . S
C529 C527 1.425 . S
C529 C530 1.362 . S
C530 H522 0.930 . S
C530 C529 1.362 . S
C530 C533 1.409 . S
C531 H523 0.930 . S
C531 C532 1.355 1_655 S
C531 C533 1.415 . S
C532 C531 1.355 1_455 S
C532 C534 1.419 . S
C533 C528 1.425 1_655 S
C533 C530 1.409 . S
C533 C531 1.415 . S
C534 H524 0.930 . S
C534 C532 1.419 . S
C534 C535 1.362 . S
C535 H525 0.930 . S
C535 C528 1.409 . S
C535 C534 1.362 . S
H536 C542 0.930 1_554 S
H537 C545 0.930 . S
H538 C546 0.930 . S
H539 C547 0.930 . S
H540 C550 0.930 1_554 S
H541 C551 0.930 . S
C542 H536 0.930 1_556 S
C542 C543 1.355 1_565 S
C542 C544 1.415 . S
C543 C542 1.355 1_545 S
C543 C545 1.419 . S
C544 C542 1.415 . S
C544 C549 1.425 1_565 S
C544 C551 1.409 1_556 S
C545 H537 0.930 . S
C545 C543 1.419 . S
C545 C546 1.362 . S
C546 H538 0.930 . S
C546 C545 1.362 . S
C546 C549 1.409 . S
C547 H539 0.930 . S
C547 C548 1.355 . S
C547 C549 1.415 . S
C548 C547 1.355 . S
C548 C550 1.419 1_545 S
C549 C544 1.425 1_545 S
C549 C546 1.409 . S
C549 C547 1.415 . S
C550 H540 0.930 1_556 S
C550 C548 1.419 1_565 S
C550 C551 1.362 1_556 S
C551 H541 0.930 . S
C551 C544 1.409 1_554 S
C551 C550 1.362 1_554 S
H552 C558 0.930 1_554 S
H553 C561 0.930 . S
H554 C562 0.930 . S
H555 C563 0.930 . S
H556 C566 0.930 . S
H557 C567 0.930 . S
C558 H552 0.930 1_556 S
C558 C559 1.355 . S
C558 C560 1.415 . S
C559 C558 1.355 . S
C559 C561 1.419 . S
C560 C558 1.415 . S
C560 C565 1.425 . S
C560 C567 1.409 1_556 S
C561 H553 0.930 . S
C561 C559 1.419 . S
C561 C562 1.362 . S
C562 H554 0.930 . S
C562 C561 1.362 . S
C562 C565 1.409 . S
C563 H555 0.930 . S
C563 C564 1.355 . S
C563 C565 1.415 . S
C564 C563 1.355 . S
C564 C566 1.419 1_556 S
C565 C560 1.425 . S
C565 C562 1.409 . S
C565 C563 1.415 . S
C566 H556 0.930 . S
C566 C564 1.419 1_554 S
C566 C567 1.362 . S
C567 H557 0.930 . S
C567 C560 1.409 1_554 S
C567 C566 1.362 . S
H568 C574 0.930 . S
H569 C577 0.930 . S
H570 C578 0.930 . S
H571 C579 0.930 1_554 S
H572 C582 0.930 . S
H573 C583 0.930 . S
C574 H568 0.930 . S
C574 C575 1.355 . S
C574 C576 1.415 . S
C575 C574 1.355 . S
C575 C577 1.419 1_556 S
C576 C574 1.415 . S
C576 C581 1.425 . S
C576 C583 1.409 . S
C577 H569 0.930 . S
C577 C575 1.419 1_554 S
C577 C578 1.362 . S
C578 H570 0.930 . S
C578 C577 1.362 . S
C578 C581 1.409 1_554 S
C579 H571 0.930 1_556 S
C579 C580 1.355 . S
C579 C581 1.415 . S
C580 C579 1.355 . S
C580 C582 1.419 . S
C581 C576 1.425 . S
C581 C578 1.409 1_556 S
C581 C579 1.415 . S
C582 H572 0.930 . S
C582 C580 1.419 . S
C582 C583 1.362 . S
C583 H573 0.930 . S
C583 C576 1.409 . S
C583 C582 1.362 . S
H584 C590 0.930 . S
H585 C593 0.930 . S
H586 C594 0.930 . S
H587 C595 0.930 . S
H588 C598 0.930 . S
H589 C599 0.930 . S
C590 H584 0.930 . S
C590 C591 1.343 1_655 S
C590 C592 1.415 . S
C591 C590 1.343 1_455 S
C591 C593 1.432 . S
C592 C590 1.415 . S
C592 C597 1.425 1_655 S
C592 C599 1.409 . S
C593 H585 0.930 . S
C593 C591 1.432 . S
C593 C594 1.362 . S
C594 H586 0.930 . S
C594 C593 1.362 . S
C594 C597 1.409 . S
C595 H587 0.930 . S
C595 C596 1.355 1_455 S
C595 C597 1.415 . S
C596 C595 1.355 1_655 S
C596 C598 1.419 . S
C597 C592 1.425 1_455 S
C597 C594 1.409 . S
C597 C595 1.415 . S
C598 H588 0.930 . S
C598 C596 1.419 . S
C598 C599 1.362 . S
C599 H589 0.930 . S
C599 C592 1.409 . S
C599 C598 1.362 . S
H600 C606 0.930 . S
H601 C609 0.930 . S
H602 C610 0.930 . S
H603 C611 0.930 . S
H604 C614 0.930 . S
H605 C615 0.930 . S
C606 H600 0.930 . S
C606 C607 1.355 1_545 S
C606 C608 1.415 . S
C607 C606 1.355 1_565 S
C607 C609 1.419 . S
C608 C606 1.415 . S
C608 C613 1.425 1_545 S
C608 C615 1.409 . S
C609 H601 0.930 . S
C609 C607 1.419 . S
C609 C610 1.362 . S
C610 H602 0.930 . S
C610 C609 1.362 . S
C610 C613 1.409 . S
C611 H603 0.930 . S
C611 C612 1.355 . S
C611 C613 1.415 . S
C612 C611 1.355 . S
C612 C614 1.419 1_565 S
C613 C608 1.425 1_565 S
C613 C610 1.409 . S
C613 C611 1.415 . S
C614 H604 0.930 . S
C614 C612 1.419 1_545 S
C614 C615 1.362 . S
C615 H605 0.930 . S
C615 C608 1.409 . S
C615 C614 1.362 . S
H616 C622 0.930 . S
H617 C625 0.930 . S
H618 C626 0.930 . S
H619 C627 0.930 . S
H620 C630 0.930 . S
H621 C631 0.930 . S
C622 H616 0.930 . S
C622 C623 1.355 . S
C622 C624 1.415 . S
C623 C622 1.355 . S
C623 C625 1.419 . S
C624 C622 1.415 . S
C624 C629 1.425 . S
C624 C631 1.409 . S
C625 H617 0.930 . S
C625 C623 1.419 . S
C625 C626 1.362 . S
C626 H618 0.930 . S
C626 C625 1.362 . S
C626 C629 1.409 . S
C627 H619 0.930 . S
C627 C628 1.355 . S
C627 C629 1.415 . S
C628 C627 1.355 . S
C628 C630 1.419 . S
C629 C624 1.425 . S
C629 C626 1.409 . S
C629 C627 1.415 . S
C630 H620 0.930 . S
C630 C628 1.419 . S
C630 C631 1.362 . S
C631 H621 0.930 . S
C631 C624 1.409 . S
C631 C630 1.362 . S
H632 C638 0.930 . S
H633 C641 0.930 . S
H634 C642 0.930 . S
H635 C643 0.930 . S
H636 C646 0.930 . S
H637 C647 0.930 . S
C638 H632 0.930 . S
C638 C639 1.355 . S
C638 C640 1.415 . S
C639 C638 1.355 . S
C639 C641 1.419 . S
C640 C638 1.415 . S
C640 C645 1.425 . S
C640 C647 1.409 . S
C641 H633 0.930 . S
C641 C639 1.419 . S
C641 C642 1.362 . S
C642 H634 0.930 . S
C642 C641 1.362 . S
C642 C645 1.409 . S
C643 H635 0.930 . S
C643 C644 1.355 . S
C643 C645 1.415 . S
C644 C643 1.355 . S
C644 C646 1.419 . S
C645 C640 1.425 . S
C645 C642 1.409 . S
C645 C643 1.415 . S
C646 H636 0.930 . S
C646 C644 1.419 . S
C646 C647 1.362 . S
C647 H637 0.930 . S
C647 C640 1.409 . S
C647 C646 1.362 . S
C271 N80 1.900 . S
C276 C106 2.045 1_545 S
C292 C146 2.055 . S
C287 N93 1.977 . S
C308 C186 2.071 . S
C303 N54 1.926 . S
C324 C226 2.052 1_455 S
C319 N67 1.975 1_455 S
C340 C119 2.050 1_564 S
C335 N28 1.938 1_545 S
C351 N41 1.922 . S
C356 C159 2.067 1_554 S
C367 N2 1.965 . S
C372 C199 2.079 1_554 S
C383 N15 1.924 1_455 S
C388 C239 2.064 1_654 S
C404 C130 0.577 . S
C399 N70 0.573 1_455 S
C420 C170 0.599 . S
C415 N83 0.600 1_545 S
C436 C210 0.570 . S
C431 N96 0.550 . S
C447 N57 0.582 . S
C452 C250 0.583 . S
C463 N18 0.519 . S
C468 C113 0.517 . S
C484 C153 0.474 . S
C479 N31 0.475 1_545 S
C500 C193 0.526 . S
C495 N44 0.535 . S
C511 N5 0.563 . S
C516 C233 0.597 . S
C527 N66 2.278 . S
C532 C107 2.394 . S
C543 N79 2.246 1_545 S
C548 C147 2.340 . S
C564 C187 2.332 . S
C559 N92 2.243 . S
C580 C227 2.366 . S
C575 N53 2.220 . S
C591 N14 2.270 1_455 S
C596 C126 2.402 . S
C612 C166 2.340 . S
C607 N27 2.231 . S
C628 C206 2.315 . S
C623 N40 2.183 . S
C639 N1 2.213 . S
C644 C246 2.370 . S
