# Generated by pormake.
# Topology zzz, (3,6)-cn, num edge types: 1
# Building blocks:
#     Node 0, Type 0, BuildingBlock: BETDIP_clean_linker_0, # of connection points: 3
#     Node 1, Type 0, BuildingBlock: BETDIP_clean_linker_0, # of connection points: 3
#     Node 2, Type 0, BuildingBlock: BETDIP_clean_linker_0, # of connection points: 3
#     Node 3, Type 0, BuildingBlock: BETDIP_clean_linker_0, # of connection points: 3
#     Node 4, Type 0, BuildingBlock: BETDIP_clean_linker_0, # of connection points: 3
#     Node 5, Type 0, BuildingBlock: BETDIP_clean_linker_0, # of connection points: 3
#     Node 6, Type 0, BuildingBlock: BETDIP_clean_linker_0, # of connection points: 3
#     Node 7, Type 0, BuildingBlock: BETDIP_clean_linker_0, # of connection points: 3
#     Node 8, Type 1, BuildingBlock: FUNLAD_clean_sbu_0, # of connection points: 6
#     Node 9, Type 1, BuildingBlock: FUNLAD_clean_sbu_0, # of connection points: 6
#     Node 10, Type 1, BuildingBlock: FUNLAD_clean_sbu_0, # of connection points: 6
#     Node 11, Type 1, BuildingBlock: FUNLAD_clean_sbu_0, # of connection points: 6
#     Edge 12, Type (0, 1), BuildingBlock: XIVTED_clean_linker_0, # of connection points: 2
#     Edge 13, Type (0, 1), BuildingBlock: XIVTED_clean_linker_0, # of connection points: 2
#     Edge 14, Type (0, 1), BuildingBlock: XIVTED_clean_linker_0, # of connection points: 2
#     Edge 15, Type (0, 1), BuildingBlock: XIVTED_clean_linker_0, # of connection points: 2
#     Edge 16, Type (0, 1), BuildingBlock: XIVTED_clean_linker_0, # of connection points: 2
#     Edge 17, Type (0, 1), BuildingBlock: XIVTED_clean_linker_0, # of connection points: 2
#     Edge 18, Type (0, 1), BuildingBlock: XIVTED_clean_linker_0, # of connection points: 2
#     Edge 19, Type (0, 1), BuildingBlock: XIVTED_clean_linker_0, # of connection points: 2
#     Edge 20, Type (0, 1), BuildingBlock: XIVTED_clean_linker_0, # of connection points: 2
#     Edge 21, Type (0, 1), BuildingBlock: XIVTED_clean_linker_0, # of connection points: 2
#     Edge 22, Type (0, 1), BuildingBlock: XIVTED_clean_linker_0, # of connection points: 2
#     Edge 23, Type (0, 1), BuildingBlock: XIVTED_clean_linker_0, # of connection points: 2
#     Edge 24, Type (0, 1), BuildingBlock: XIVTED_clean_linker_0, # of connection points: 2
#     Edge 25, Type (0, 1), BuildingBlock: XIVTED_clean_linker_0, # of connection points: 2
#     Edge 26, Type (0, 1), BuildingBlock: XIVTED_clean_linker_0, # of connection points: 2
#     Edge 27, Type (0, 1), BuildingBlock: XIVTED_clean_linker_0, # of connection points: 2
#     Edge 28, Type (0, 1), BuildingBlock: XIVTED_clean_linker_0, # of connection points: 2
#     Edge 29, Type (0, 1), BuildingBlock: XIVTED_clean_linker_0, # of connection points: 2
#     Edge 30, Type (0, 1), BuildingBlock: XIVTED_clean_linker_0, # of connection points: 2
#     Edge 31, Type (0, 1), BuildingBlock: XIVTED_clean_linker_0, # of connection points: 2
#     Edge 32, Type (0, 1), BuildingBlock: XIVTED_clean_linker_0, # of connection points: 2
#     Edge 33, Type (0, 1), BuildingBlock: XIVTED_clean_linker_0, # of connection points: 2
#     Edge 34, Type (0, 1), BuildingBlock: XIVTED_clean_linker_0, # of connection points: 2
#     Edge 35, Type (0, 1), BuildingBlock: XIVTED_clean_linker_0, # of connection points: 2
# Relax obj value: 0.118
# Max RMSD: 0.175
# Mean RMSD: 0.091
data_MOF--net-zzz--node1-FUNLAD_clean_sbu_0--node2-BETDIP_clean_linker_0--edge1-XIVTED_clean_linker_0
_symmetry_space_group_name_H-M    P1
_symmetry_Int_Tables_number       1
_symmetry_cell_setting            triclinic
loop_
_symmetry_equiv_pos_as_xyz
'x, y, z'
_cell_length_a     51.791458
_cell_length_b     57.447529
_cell_length_c     17.444684
_cell_angle_alpha  85.300952
_cell_angle_beta   84.690842
_cell_angle_gamma 89.946798
loop_
_atom_site_label
_atom_site_type_symbol
_atom_site_fract_x
_atom_site_fract_y
_atom_site_fract_z
_atom_type_partial_charge
H0 H 0.78728 0.48982 0.3864 0.0
H1 H 0.80003 0.47655 0.1465 0.0
H2 H 0.85995 0.46186 0.29716 0.0
H3 H 0.77856 0.51873 0.15991 0.0
C4 C 0.76232 0.50784 0.1854 0.0
C5 C 0.79931 0.48295 0.33939 0.0
C6 C 0.82437 0.47482 0.35095 0.0
C7 C 0.79042 0.48343 0.26559 0.0
C8 C 0.80666 0.4757 0.20381 0.0
C9 C 0.83171 0.46771 0.21487 0.0
C10 C 0.84009 0.46676 0.28898 0.0
N11 N 0.76569 0.49273 0.25238 0.0
H12 H 0.94436 0.7603 0.25351 0.0
H13 H 0.96928 0.79248 0.02642 0.0
H14 H 0.96125 0.83365 0.22162 0.0
H15 H 0.94346 0.76188 0.9917 0.0
C16 C 0.9513 0.74798 0.02863 0.0
C17 C 0.94968 0.77574 0.21539 0.0
C18 C 0.951 0.79752 0.24549 0.0
C19 C 0.95544 0.77389 0.13576 0.0
C20 C 0.96371 0.7939 0.08719 0.0
C21 C 0.96567 0.81565 0.11772 0.0
C22 C 0.95887 0.81719 0.19655 0.0
N23 N 0.95457 0.75152 0.10686 0.0
H24 H 0.7556 0.9958 0.27654 0.0
H25 H 0.7424 0.00947 0.03598 0.0
H26 H 0.68039 0.01695 0.21229 0.0
H27 H 0.77258 0.97843 0.03168 0.0
C28 C 0.78694 0.98693 0.06174 0.0
C29 C 0.74296 0.00123 0.23235 0.0
C30 C 0.71689 0.00667 0.25331 0.0
C31 C 0.75245 0.00222 0.15366 0.0
C32 C 0.73553 0.00868 0.0967 0.0
C33 C 0.70965 0.01429 0.1178 0.0
C34 C 0.70069 0.01351 0.1959 0.0
N35 N 0.77888 0.99677 0.13237 0.0
H36 H 0.54784 0.70655 0.2577 0.0
H37 H 0.5164 0.69428 0.04354 0.0
H38 H 0.51729 0.63899 0.22354 0.0
H39 H 0.54686 0.72146 -0.00273 0.0
C40 C 0.54356 0.73435 0.03929 0.0
C41 C 0.53859 0.69512 0.2219 0.0
C42 C 0.53287 0.67185 0.24926 0.0
C43 C 0.53305 0.70339 0.14706 0.0
C44 C 0.52119 0.68823 0.10087 0.0
C45 C 0.51531 0.66506 0.12843 0.0
C46 C 0.52103 0.65711 0.20275 0.0
N47 N 0.53941 0.72689 0.11934 0.0
H48 H 0.25164 0.52717 0.03443 0.0
H49 H 0.2334 0.54945 0.26343 0.0
H50 H 0.17227 0.53581 0.12343 0.0
H51 H 0.27319 0.57207 0.21611 0.0
C52 C 0.28288 0.55548 0.20879 0.0
C53 C 0.23755 0.53207 0.08004 0.0
C54 C 0.21091 0.53117 0.07073 0.0
C55 C 0.24587 0.53946 0.14877 0.0
C56 C 0.22731 0.54497 0.20869 0.0
C57 C 0.20079 0.54379 0.19968 0.0
C58 C 0.19282 0.5373 0.13014 0.0
N59 N 0.27273 0.53994 0.15952 0.0
H60 H 0.07347 0.23663 0.18041 0.0
H61 H 0.04965 0.20229 0.40559 0.0
H62 H 0.06253 0.16235 0.20904 0.0
H63 H 0.03029 0.23618 0.42303 0.0
C64 C 0.04414 0.24919 0.39583 0.0
C65 C 0.06896 0.22088 0.21775 0.0
C66 C 0.07011 0.19905 0.18696 0.0
C67 C 0.06114 0.22235 0.2967 0.0
C68 C 0.05483 0.20166 0.34433 0.0
C69 C 0.05533 0.17989 0.31315 0.0
C70 C 0.06315 0.17889 0.23473 0.0
N71 N 0.0595 0.2447 0.32665 0.0
H72 H 0.28003 0.99525 0.17605 0.0
H73 H 0.29843 0.99247 0.41396 0.0
H74 H 0.35871 0.00314 0.23025 0.0
H75 H 0.26239 0.97126 0.43486 0.0
C76 C 0.24923 0.98058 0.39846 0.0
C77 C 0.29396 0.99601 0.21845 0.0
C78 C 0.32044 0.99982 0.1941 0.0
C79 C 0.28559 0.99303 0.2982 0.0
C80 C 0.30414 0.99397 0.35254 0.0
C81 C 0.33037 0.9977 0.32779 0.0
C82 C 0.33825 1.00066 0.24911 0.0
N83 N 0.25861 0.98992 0.32269 0.0
H84 H 0.49602 0.28969 0.15504 0.0
H85 H 0.5179 0.30939 0.37417 0.0
H86 H 0.49737 0.36186 0.20206 0.0
H87 H 0.54156 0.27619 0.36678 0.0
C88 C 0.52724 0.26446 0.34886 0.0
C89 C 0.49918 0.30295 0.19398 0.0
C90 C 0.49497 0.32658 0.17129 0.0
C91 C 0.5078 0.29651 0.26699 0.0
C92 C 0.5121 0.31399 0.31689 0.0
C93 C 0.50811 0.33756 0.29397 0.0
C94 C 0.49959 0.34358 0.22132 0.0
N95 N 0.51127 0.27244 0.29005 0.0
C96 C 0.02866 0.96213 0.82837 0.0
N97 N 1.00177 0.95713 0.61414 0.0
C98 C 0.0183 0.93872 0.61579 0.0
C99 C 0.01129 0.91752 0.59027 0.0
C100 C 0.9872 0.91513 0.56059 0.0
C101 C 0.97096 0.9348 0.55617 0.0
C102 C 0.97857 0.95568 0.58404 0.0
Zn103 Zn 0.01126 0.98443 0.67457 0.0
C104 C 0.96684 0.99657 0.78695 0.0
N105 N 0.03284 0.03548 0.82066 0.0
C106 C 0.05588 0.03737 0.85143 0.0
C107 C 0.01599 0.05365 0.81835 0.0
C108 C 0.02242 0.07499 0.84404 0.0
C109 C 0.04624 0.07782 0.8748 0.0
C110 C 0.0629 0.05842 0.87962 0.0
Zn111 Zn 0.02347 0.00794 0.76036 0.0
O112 O 0.02098 0.95959 0.76261 0.0
C113 C 0.06781 0.99544 0.64762 0.0
O114 O 0.03206 0.98255 0.8489 0.0
H115 H 0.99789 0.05202 0.79294 0.0
H116 H 0.03655 0.94007 0.64058 0.0
H117 H 0.06914 0.0228 0.85202 0.0
O118 O 0.0497 0.98444 0.6215 0.0
O119 O 0.06269 0.0067 0.70712 0.0
H120 H 0.9656 0.97046 0.58395 0.0
O121 O 0.01426 0.03275 0.67145 0.0
O122 O 1.00191 0.00973 0.58703 0.0
O123 O 0.98451 0.00836 0.81224 0.0
O124 O 0.97254 0.98493 0.72878 0.0
C125 C 0.00584 0.03014 0.60672 0.0
H126 H 0.02438 0.90294 0.5966 0.0
H127 H 0.95244 0.93407 0.53234 0.0
H128 H 0.00905 0.08932 0.83702 0.0
H129 H 0.08128 0.05949 0.90407 0.0
C130 C 0.48695 0.99321 0.61823 0.0
N131 N 0.51684 0.0563 0.67567 0.0
C132 C 0.51953 0.06099 0.59757 0.0
C133 C 0.5185 0.08387 0.56478 0.0
C134 C 0.51485 0.1023 0.61253 0.0
C135 C 0.51237 0.09709 0.69309 0.0
C136 C 0.5133 0.07379 0.72365 0.0
Zn137 Zn 0.5184 0.02176 0.71566 0.0
C138 C 0.47431 0.00616 0.82686 0.0
N139 N 0.52198 0.94849 0.77935 0.0
C140 C 0.52914 0.93213 0.72951 0.0
C141 C 0.51703 0.94251 0.85641 0.0
C142 C 0.51926 0.91937 0.88613 0.0
C143 C 0.52705 0.90208 0.83645 0.0
C144 C 0.53192 0.90877 0.75695 0.0
Zn145 Zn 0.51991 0.98312 0.74121 0.0
O146 O 0.49449 0.01347 0.6307 0.0
C147 C 0.56384 0.99899 0.62939 0.0
O148 O 0.49527 0.97545 0.65654 0.0
H149 H 0.51156 0.95577 0.89527 0.0
H150 H 0.5226 0.04693 0.56025 0.0
H151 H 0.53308 0.93724 0.6685 0.0
O152 O 0.55242 0.01818 0.64026 0.0
O153 O 0.55393 0.98014 0.66283 0.0
H154 H 0.5112 0.06968 0.78555 0.0
O155 O 0.54457 0.99132 0.82509 0.0
O156 O 0.54255 0.02938 0.80124 0.0
O157 O 0.48585 0.98686 0.81801 0.0
O158 O 0.48423 0.02485 0.79214 0.0
C159 C 0.55185 0.01169 0.83755 0.0
H160 H 0.52099 0.0871 0.50248 0.0
H161 H 0.50945 0.11082 0.73194 0.0
H162 H 0.51479 0.91513 0.94754 0.0
H163 H 0.53833 0.89622 0.71632 0.0
C164 C 0.53106 0.47276 0.59992 0.0
N165 N 0.46011 0.50517 0.65305 0.0
C166 C 0.46314 0.50918 0.57471 0.0
C167 C 0.44173 0.51156 0.53232 0.0
C168 C 0.41673 0.51028 0.57051 0.0
C169 C 0.41389 0.50664 0.65157 0.0
C170 C 0.43605 0.50389 0.69205 0.0
Zn171 Zn 0.49414 0.50157 0.70463 0.0
C172 C 0.49889 0.45862 0.80126 0.0
N173 N 0.56967 0.49516 0.78018 0.0
C174 C 0.59315 0.49975 0.74001 0.0
C175 C 0.5676 0.4899 0.85799 0.0
C176 C 0.58947 0.48952 0.89877 0.0
C177 C 0.61394 0.49461 0.85947 0.0
C178 C 0.61568 0.49958 0.77878 0.0
Zn179 Zn 0.53547 0.498 0.72998 0.0
O180 O 0.50863 0.48117 0.61463 0.0
C181 C 0.53053 0.54086 0.63277 0.0
O182 O 0.54905 0.47707 0.64154 0.0
H183 H 0.54876 0.48661 0.88917 0.0
H184 H 0.48231 0.51069 0.5445 0.0
H185 H 0.59435 0.50398 0.67821 0.0
O186 O 0.50752 0.53285 0.64159 0.0
O187 O 0.54855 0.52912 0.66202 0.0
H188 H 0.43405 0.50082 0.75433 0.0
O189 O 0.52142 0.51916 0.81806 0.0
O190 O 0.48055 0.52198 0.79509 0.0
O191 O 0.52182 0.46692 0.79516 0.0
O192 O 0.48113 0.47015 0.76978 0.0
C193 C 0.49896 0.52744 0.83373 0.0
H194 H 0.44474 0.51486 0.47008 0.0
H195 H 0.39483 0.50568 0.68296 0.0
H196 H 0.58704 0.48605 0.96098 0.0
H197 H 0.63419 0.50343 0.74606 0.0
C198 C 0.04953 0.51679 0.58455 0.0
N199 N 0.02993 0.4485 0.67283 0.0
C200 C 0.02876 0.44551 0.59663 0.0
C201 C 0.03333 0.42372 0.56868 0.0
C202 C 0.039 0.4046 0.61953 0.0
C203 C 0.04 0.40806 0.6981 0.0
C204 C 0.03548 0.43033 0.72363 0.0
Zn205 Zn 0.02266 0.48145 0.70618 0.0
C206 C 0.06295 0.50035 0.78933 0.0
N207 N 0.00714 0.55201 0.75297 0.0
C208 C 1.00073 0.56976 0.70181 0.0
C209 C 0.00853 0.55541 0.82874 0.0
C210 C 1.00303 0.57715 0.85602 0.0
C211 C 0.99634 0.59589 0.80487 0.0
C212 C 0.9953 0.59197 0.7266 0.0
Zn213 Zn 0.01443 0.51903 0.72036 0.0
O214 O 0.04627 0.49536 0.60784 0.0
C215 C 0.97424 0.50022 0.63678 0.0
O216 O 0.03691 0.53223 0.62003 0.0
H217 H 0.01367 0.54111 0.86857 0.0
H218 H 0.02407 0.46008 0.55721 0.0
H219 H 0.99976 0.56668 0.6418 0.0
O220 O 0.98894 0.48264 0.64541 0.0
O221 O 0.98048 0.51945 0.66153 0.0
H222 H 0.03633 0.43309 0.78395 0.0
O223 O 0.99188 0.50532 0.82008 0.0
O224 O 0.99904 0.46824 0.80548 0.0
O225 O 0.04866 0.5181 0.77823 0.0
O226 O 0.05619 0.48081 0.76784 0.0
C227 C 0.98755 0.48398 0.84256 0.0
H228 H 0.03187 0.42177 0.508 0.0
H229 H 0.04441 0.39377 0.73917 0.0
H230 H 1.0036 0.57907 0.91707 0.0
H231 H 0.99055 0.60591 0.68476 0.0
H232 H 0.23241 0.97651 0.54994 0.0
H233 H 0.08235 0.98599 0.49876 0.0
H234 H 0.20527 0.99306 0.32573 0.0
H235 H 0.11394 0.00395 0.7067 0.0
H236 H 0.12648 0.98414 0.43542 0.0
H237 H 0.18843 0.98194 0.6099 0.0
C238 C 0.21713 0.98132 0.51336 0.0
C239 C 0.22245 0.98438 0.43286 0.0
C240 C 0.12372 0.98861 0.49473 0.0
C241 C 0.172 0.9903 0.50102 0.0
C242 C 0.09857 0.98955 0.53112 0.0
C243 C 0.09445 0.99505 0.60833 0.0
C244 C 0.14497 0.99268 0.53627 0.0
C245 C 0.11621 0.99967 0.64716 0.0
C246 C 0.19209 0.98451 0.54763 0.0
C247 C 0.20198 0.99062 0.38806 0.0
N248 N 0.14054 0.9981 0.61102 0.0
N249 N 0.17754 0.99314 0.42274 0.0
H250 H 0.55282 0.24684 0.46861 0.0
H251 H 0.4897 0.11919 0.48841 0.0
H252 H 0.49561 0.22818 0.31936 0.0
H253 H 0.53883 0.14101 0.65631 0.0
H254 H 0.49178 0.15878 0.42498 0.0
H255 H 0.54846 0.20789 0.53663 0.0
C256 C 0.53936 0.23447 0.45014 0.0
C257 C 0.52461 0.24068 0.38829 0.0
C258 C 0.502 0.15496 0.47593 0.0
C259 C 0.51945 0.19608 0.4658 0.0
C260 C 0.50089 0.13234 0.51203 0.0
C261 C 0.51425 0.12674 0.57754 0.0
C262 C 0.51673 0.17215 0.5051 0.0
C263 C 0.52811 0.14458 0.60629 0.0
C264 C 0.53681 0.21229 0.48913 0.0
C265 C 0.50739 0.22409 0.36672 0.0
N266 N 0.52915 0.16642 0.56955 0.0
N267 N 0.50534 0.2025 0.40534 0.0
H268 H 0.29635 0.57797 0.32935 0.0
H269 H 0.40685 0.48857 0.44293 0.0
H270 H 0.31259 0.51556 0.21246 0.0
H271 H 0.37588 0.54005 0.59227 0.0
H272 H 0.37311 0.49831 0.35649 0.0
H273 H 0.32665 0.56512 0.4235 0.0
C274 C 0.30642 0.56158 0.32344 0.0
C275 C 0.30207 0.54783 0.26308 0.0
C276 C 0.37348 0.5073 0.40857 0.0
C277 C 0.3367 0.53297 0.37056 0.0
C278 C 0.3927 0.50175 0.45786 0.0
C279 C 0.39415 0.51361 0.52458 0.0
C280 C 0.35578 0.52509 0.42548 0.0
C281 C 0.37533 0.53043 0.54161 0.0
C282 C 0.32356 0.55418 0.37745 0.0
C283 C 0.31545 0.52669 0.25813 0.0
N284 N 0.35709 0.53589 0.49182 0.0
N285 N 0.33229 0.51995 0.31104 0.0
H286 H 0.01851 0.26052 0.52941 0.0
H287 H 0.06691 0.39348 0.48634 0.0
H288 H 0.07245 0.28893 0.34202 0.0
H289 H 0.01992 0.36238 0.68555 0.0
H290 H 0.06994 0.35536 0.4334 0.0
H291 H 0.01933 0.29768 0.58805 0.0
C292 C 0.03057 0.27463 0.50072 0.0
C293 C 0.04534 0.27172 0.43076 0.0
C294 C 0.05911 0.35682 0.48892 0.0
C295 C 0.0464 0.31434 0.49733 0.0
C296 C 0.05729 0.3786 0.51907 0.0
C297 C 0.04298 0.38116 0.59029 0.0
C298 C 0.04639 0.33744 0.52997 0.0
C299 C 0.03128 0.3612 0.63073 0.0
C300 C 0.03108 0.29582 0.53427 0.0
C301 C 0.06071 0.29047 0.39598 0.0
N302 N 0.03307 0.34024 0.59971 0.0
N303 N 0.06074 0.31106 0.42949 0.0
H304 H 0.82953 0.00893 0.10987 0.0
H305 H 0.92431 0.97356 0.74734 0.0
H306 H 0.80585 0.96828 0.93108 0.0
H307 H 0.9485 0.01731 0.91765 0.0
H308 H 0.88099 0.9711 0.81581 0.0
H309 H 0.87349 0.01163 0.04317 0.0
C310 C 0.83362 1.00048 0.05686 0.0
C311 C 0.81407 0.98831 0.0259 0.0
C312 C 0.89573 0.98129 0.83825 0.0
C313 C 0.86416 0.99141 0.94919 0.0
C314 C 0.92052 0.98273 0.79901 0.0
C315 C 0.94015 0.99568 0.8266 0.0
C316 C 0.89039 0.99283 0.90594 0.0
C317 C 0.93399 0.00715 0.89409 0.0
C318 C 0.85868 0.00208 0.01866 0.0
C319 C 0.82039 0.97779 0.95691 0.0
N320 N 0.9097 0.00542 0.93148 0.0
N321 N 0.84481 0.97958 0.92096 0.0
H322 H 0.54244 0.75153 0.89088 0.0
H323 H 0.54438 0.88577 0.97559 0.0
H324 H 0.54159 0.77353 0.1216 0.0
H325 H 0.51718 0.86171 0.76876 0.0
H326 H 0.5486 0.8452 0.02633 0.0
H327 H 0.53891 0.79236 0.84099 0.0
C328 C 0.54159 0.76502 0.93096 0.0
C329 C 0.54221 0.7592 0.01036 0.0
C330 C 0.54168 0.84886 0.96991 0.0
C331 C 0.53831 0.80591 0.95381 0.0
C332 C 0.53909 0.87205 0.94088 0.0
C333 C 0.53024 0.87737 0.86763 0.0
C334 C 0.53573 0.83075 0.92512 0.0
C335 C 0.52442 0.85864 0.8249 0.0
C336 C 0.53948 0.78827 0.90253 0.0
C337 C 0.54106 0.77728 0.05995 0.0
N338 N 0.52733 0.83623 0.85417 0.0
N339 N 0.53925 0.79989 0.03078 0.0
H340 H 0.72014 0.47814 0.21582 0.0
H341 H 0.65416 0.52628 0.83662 0.0
H342 H 0.75291 0.53347 0.05407 0.0
H343 H 0.62628 0.46577 0.98405 0.0
H344 H 0.69008 0.52965 0.91657 0.0
H345 H 0.68446 0.47441 0.13468 0.0
C346 C 0.71971 0.48962 0.16354 0.0
C347 C 0.73943 0.50618 0.14145 0.0
C348 C 0.67615 0.51558 0.93128 0.0
C349 C 0.69888 0.5019 0.04815 0.0
C350 C 0.65574 0.51352 0.88519 0.0
C351 C 0.63706 0.49576 0.90367 0.0
C352 C 0.67791 0.49981 -0.00347 0.0
C353 C 0.63995 0.47998 0.96823 0.0
C354 C 0.69942 0.48742 0.11701 0.0
C355 C 0.738 0.52052 0.07303 0.0
N356 N 0.65988 0.48243 0.01243 0.0
N357 N 0.7181 0.51805 0.02874 0.0
H358 H 0.97773 0.71108 0.09385 0.0
H359 H 0.9598 0.62769 0.75865 0.0
H360 H 0.93961 0.73367 0.89124 0.0
H361 H 0.01873 0.6173 0.91773 0.0
H362 H 0.94889 0.66493 0.81185 0.0
H363 H 0.98903 0.67444 0.03726 0.0
C364 C 0.97161 0.70827 0.0376 0.0
C365 C 0.95766 0.72536 -0.00295 0.0
C366 C 0.96425 0.65447 0.83482 0.0
C367 C 0.97052 0.68352 0.93206 0.0
C368 C 0.97063 0.63326 0.80417 0.0
C369 C 0.99016 0.61914 0.83388 0.0
C370 C 0.97728 0.66154 0.89618 0.0
C371 C 1.00316 0.62723 0.89394 0.0
C372 C 0.97819 0.68741 0.00515 0.0
C373 C 0.95038 0.72086 0.92422 0.0
N374 N 0.99638 0.64777 0.92333 0.0
N375 N 0.9568 0.70031 0.89407 0.0
H376 H 0.01399 0.17437 0.42418 0.0
H377 H 0.02151 0.03513 0.45272 0.0
H378 H 0.07505 0.13572 0.3066 0.0
H379 H 0.98838 0.07275 0.64168 0.0
H380 H 0.03106 0.07255 0.37682 0.0
H381 H 0.99631 0.13748 0.48853 0.0
C382 C 0.02384 0.15823 0.41245 0.0
C383 C 0.046 0.15818 0.35954 0.0
C384 C 0.02117 0.07252 0.43432 0.0
C385 C 0.02523 0.11606 0.43026 0.0
C386 C 0.01539 0.05123 0.47698 0.0
C387 C 1.00425 0.05104 0.55324 0.0
C388 C 0.01544 0.09351 0.46822 0.0
C389 C 0.99708 0.07233 0.5829 0.0
C390 C 0.01353 0.13721 0.44835 0.0
C391 C 0.05765 0.13663 0.34568 0.0
N392 N 1.00299 0.09279 0.54051 0.0
N393 N 0.04703 0.11645 0.38034 0.0
H394 H 0.36366 0.03302 0.3412 0.0
H395 H 0.45301 0.95663 0.61489 0.0
H396 H 0.3433 0.9629 0.43357 0.0
H397 H 0.47201 0.02598 0.51057 0.0
H398 H 0.41294 0.95774 0.54973 0.0
H399 H 0.4026 0.03089 0.40982 0.0
C400 C 0.36725 0.01733 0.37745 0.0
C401 C 0.3504 0.99814 0.38228 0.0
C402 C 0.42604 0.97259 0.54071 0.0
C403 C 0.39524 0.99519 0.45915 0.0
C404 C 0.44903 0.97186 0.57705 0.0
C405 C 0.46578 0.99128 0.56823 0.0
C406 C 0.41993 0.99288 0.4955 0.0
C407 C 0.45957 0.01067 0.51935 0.0
C408 C 0.38958 0.01599 0.41597 0.0
C409 C 0.35583 0.97811 0.42932 0.0
N410 N 0.4371 0.01102 0.48533 0.0
N411 N 0.37802 0.97704 0.46559 0.0
H412 H 0.54996 0.34311 0.37758 0.0
H413 H 0.50473 0.47126 0.47379 0.0
H414 H 0.47781 0.37511 0.32251 0.0
H415 H 0.56344 0.43486 0.59594 0.0
H416 H 0.50125 0.4381 0.39725 0.0
H417 H 0.55987 0.37754 0.44527 0.0
C418 C 0.53611 0.35722 0.38057 0.0
C419 C 0.51316 0.35641 0.34379 0.0
C420 C 0.51512 0.43738 0.44018 0.0
C421 C 0.52464 0.39577 0.41858 0.0
C422 C 0.5173 0.45641 0.48333 0.0
C423 C 0.53421 0.45564 0.54162 0.0
C424 C 0.52981 0.41729 0.45575 0.0
C425 C 0.55018 0.43607 0.55132 0.0
C426 C 0.54189 0.37689 0.41838 0.0
C427 C 0.49595 0.37519 0.34878 0.0
N428 N 0.54733 0.41739 0.50943 0.0
N429 N 0.50214 0.39411 0.38484 0.0
H430 H 0.20037 0.52206 0.34385 0.0
H431 H 0.05836 0.55906 0.49935 0.0
H432 H 0.15619 0.56957 0.20342 0.0
H433 H 0.08986 0.48985 0.53725 0.0
H434 H 0.09715 0.57002 0.41087 0.0
H435 H 0.16342 0.51844 0.44195 0.0
C436 C 0.18315 0.53226 0.33476 0.0
C437 C 0.18114 0.54597 0.26547 0.0
C438 C 0.09533 0.55248 0.43877 0.0
C439 C 0.13888 0.54162 0.37635 0.0
C440 C 0.07327 0.54618 0.48864 0.0
C441 C 0.07084 0.52347 0.52505 0.0
C442 C 0.11516 0.5361 0.42759 0.0
C443 C 0.09077 0.50747 0.50985 0.0
C444 C 0.16202 0.52997 0.39019 0.0
C445 C 0.15827 0.55863 0.25603 0.0
N446 N 0.11218 0.51417 0.46288 0.0
N447 N 0.1378 0.556 0.31076 0.0
H448 H 0.00736 0.81835 0.00729 0.0
H449 H 0.01147 0.95785 0.98133 0.0
H450 H 0.94966 0.86094 0.12276 0.0
H451 H 0.04445 0.91875 0.79583 0.0
H452 H 0.99839 0.92097 0.05568 0.0
H453 H 0.02857 0.85405 0.94456 0.0
C454 C 0.99895 0.83512 0.01873 0.0
C455 C 0.97675 0.83663 0.07072 0.0
C456 C 0.00903 0.92051 -0.00063 0.0
C457 C 1.00151 0.87734 0.00198 0.0
C458 C 0.01686 0.94149 0.95765 0.0
C459 C 0.02893 0.94121 0.88255 0.0
C460 C 0.01359 0.89928 0.96573 0.0
C461 C 0.03508 0.91958 0.85368 0.0
C462 C 0.01128 0.85545 0.98382 0.0
C463 C 0.967 0.85891 0.08426 0.0
N464 N 0.02709 0.89941 0.89502 0.0
N465 N 0.97955 0.87836 0.05067 0.0
H466 H 0.70005 0.98625 0.00551 0.0
H467 H 0.57249 0.05189 0.8839 0.0
H468 H 0.67521 0.05013 0.10259 0.0
H469 H 0.58299 0.97715 0.89125 0.0
H470 H 0.61366 0.05528 0.94222 0.0
H471 H 0.66166 0.98733 0.93334 0.0
C472 C 0.6869 1.00086 0.00973 0.0
C473 C 0.69062 0.01807 0.06008 0.0
C474 C 0.60673 0.0382 0.9312 0.0
C475 C 0.6466 0.01917 0.97944 0.0
C476 C 0.58323 0.03622 0.89858 0.0
C477 C 0.57422 0.0142 0.883 0.0
C478 C 0.62144 0.01809 0.9465 0.0
C479 C 0.58904 0.99448 0.90255 0.0
C480 C 0.66485 0.0013 0.96954 0.0
C481 C 0.67283 0.03649 0.06447 0.0
N482 N 0.612 0.99693 0.93252 0.0
N483 N 0.65139 0.03649 0.02506 0.0
H484 H 0.53685 0.65676 0.98575 0.0
H485 H 0.45489 0.55152 0.88293 0.0
H486 H 0.47443 0.63418 0.15664 0.0
H487 H 0.53737 0.54707 0.90268 0.0
H488 H 0.45397 0.58739 0.95241 0.0
H489 H 0.52845 0.62303 0.9143 0.0
C490 C 0.52085 0.64512 0.00684 0.0
C491 C 0.50639 0.64809 0.07719 0.0
C492 C 0.47207 0.57823 0.94168 0.0
C493 C 0.49678 0.60974 -0.00386 0.0
C494 C 0.47263 0.55781 0.90269 0.0
C495 C 0.49625 0.54632 0.88659 0.0
C496 C 0.49537 0.5873 0.96214 0.0
C497 C 0.5187 0.55529 0.91323 0.0
C498 C 0.51622 0.62587 0.96651 0.0
C499 C 0.48608 0.63228 0.10271 0.0
N500 N 0.51777 0.57544 0.94837 0.0
N501 N 0.48193 0.61354 0.06237 0.0
H502 H 0.83975 0.49647 0.08335 0.0
H503 H 0.96911 0.44054 0.90371 0.0
H504 H 0.86826 0.43324 0.19674 0.0
H505 H 0.95651 0.51455 0.91721 0.0
H506 H 0.92868 0.43281 0.98854 0.0
H507 H 0.87779 0.49746 0.99001 0.0
C508 C 0.8536 0.48238 0.08724 0.0
C509 C 0.85098 0.46485 0.14826 0.0
C510 C 0.93507 0.45065 0.97284 0.0
C511 C 0.89481 0.46626 0.04275 0.0
C512 C 0.95812 0.45509 0.92516 0.0
C513 C 0.96615 0.47822 0.90306 0.0
C514 C 0.91994 0.4695 -0.00359 0.0
C515 C 0.95112 0.49643 0.9322 0.0
C516 C 0.87547 0.48315 0.03461 0.0
C517 C 0.86981 0.44721 0.15094 0.0
N518 N 0.92862 0.49167 0.97641 0.0
N519 N 0.89121 0.44846 0.09923 0.0
H520 H 0.03676 0.20767 0.07803 0.0
H521 H 0.09497 0.09803 0.87186 0.0
H522 H 0.11281 0.18072 0.11171 0.0
H523 H 0.01392 0.11088 0.93694 0.0
H524 H 0.10566 0.13567 0.91831 0.0
H525 H 0.03366 0.18178 0.97475 0.0
C526 C 0.05347 0.19736 0.06033 0.0
C527 C 0.07491 0.19603 0.10382 0.0
C528 C 0.08555 0.13028 0.92083 0.0
C529 C 0.07112 0.16578 0.9886 0.0
C530 C 0.07938 0.10863 0.89548 0.0
C531 C 0.05342 0.10094 0.90061 0.0
C532 C 0.06561 0.14453 0.95025 0.0
C533 C 0.03416 0.11595 0.93009 0.0
C534 C 0.05148 0.18221 0.00258 0.0
C535 C 0.09591 0.1821 0.07943 0.0
N536 N 0.04066 0.13689 0.95379 0.0
N537 N 0.09321 0.16691 0.02486 0.0
H538 H 0.33277 0.96457 0.10339 0.0
H539 H 0.44403 0.04395 0.86241 0.0
H540 H 0.33639 0.03932 0.1064 0.0
H541 H 0.44519 0.96862 0.89143 0.0
H542 H 0.40064 0.04323 0.93208 0.0
H543 H 0.36839 0.96654 0.00043 0.0
C544 C 0.34017 0.98152 0.07939 0.0
C545 C 0.33145 0.00184 0.11261 0.0
C546 C 0.41038 0.02687 0.92288 0.0
C547 C 0.37314 0.0042 -0.00207 0.0
C548 C 0.43523 0.02727 0.88356 0.0
C549 C 0.44849 0.00633 0.87178 0.0
C550 C 0.39857 0.00537 0.95022 0.0
C551 C 0.43593 0.98523 0.89981 0.0
C552 C 0.36091 0.98262 0.02183 0.0
C553 C 0.34233 0.02331 0.08131 0.0
N554 N 0.41178 0.98531 0.93772 0.0
N555 N 0.36293 0.02392 0.02673 0.0
H556 H 0.52514 0.32592 0.03582 0.0
H557 H 0.45253 0.43874 0.86564 0.0
H558 H 0.45082 0.34854 0.13328 0.0
H559 H 0.5342 0.42444 0.8237 0.0
H560 H 0.4465 0.39986 0.93586 0.0
H561 H 0.52242 0.35475 0.92549 0.0
C562 C 0.50766 0.33616 0.03194 0.0
C563 C 0.48822 0.335 0.09349 0.0
C564 C 0.46564 0.40521 0.91031 0.0
C565 C 0.48541 0.36861 0.96977 0.0
C566 C 0.46909 0.42737 0.87063 0.0
C567 C 0.49398 0.435 0.84037 0.0
C568 C 0.48716 0.39054 0.91833 0.0
C569 C 0.51476 0.4195 0.84764 0.0
C570 C 0.50628 0.35291 0.96975 0.0
C571 C 0.46617 0.34898 0.08659 0.0
N572 N 0.5109 0.39812 0.88607 0.0
N573 N 0.46559 0.36562 0.02671 0.0
H574 H 0.19701 0.48708 0.0459 0.0
H575 H 0.08793 0.54122 0.80213 0.0
H576 H 0.19828 0.55807 0.94537 0.0
H577 H 0.0962 0.46659 0.84389 0.0
H578 H 0.13005 0.54675 0.8487 0.0
H579 H 0.16355 0.47761 0.96242 0.0
C580 C 0.19113 0.50035 0.00332 0.0
C581 C 0.20051 0.5233 0.00149 0.0
C582 C 0.12283 0.52912 0.84736 0.0
C583 C 0.16149 0.51302 0.90917 0.0
C584 C 0.09856 0.52593 0.82153 0.0
C585 C 0.08831 0.50339 0.82008 0.0
C586 C 0.13699 0.50966 0.87333 0.0
C587 C 0.10328 0.48428 0.84473 0.0
C588 C 0.17177 0.49506 0.95657 0.0
C589 C 0.19174 0.54011 0.94747 0.0
N590 N 0.12677 0.48786 0.8713 0.0
N591 N 0.17234 0.53476 0.90448 0.0
H592 H 0.91059 0.8177 0.32508 0.0
H593 H 0.01829 0.88169 0.49593 0.0
H594 H 0.98558 0.78721 0.34983 0.0
H595 H 0.93801 0.89585 0.5671 0.0
H596 H 0.00533 0.84473 0.45371 0.0
H597 H 0.91704 0.84231 0.42967 0.0
C598 C 0.92774 0.81519 0.3559 0.0
C599 C 0.94773 0.80065 0.32866 0.0
C600 C 0.99054 0.85571 0.47976 0.0
C601 C 0.95586 0.82949 0.4448 0.0
C602 C 0.99794 0.87698 0.50407 0.0
C603 C 0.97927 0.89222 0.53524 0.0
C604 C 0.96417 0.84969 0.48434 0.0
C605 C 0.95311 0.88507 0.54181 0.0
C606 C 0.93163 0.82952 0.41474 0.0
C607 C 0.96978 0.79829 0.36928 0.0
N608 N 0.94629 0.8645 0.51539 0.0
N609 N 0.9737 0.8132 0.42365 0.0
H610 H 0.70076 0.96616 0.33514 0.0
H611 H 0.59252 0.03707 0.56961 0.0
H612 H 0.70219 0.04068 0.34673 0.0
H613 H 0.59381 0.9617 0.58492 0.0
H614 H 0.63489 0.03796 0.49694 0.0
H615 H 0.66534 0.96311 0.43929 0.0
C616 C 0.69444 0.98173 0.36237 0.0
C617 C 0.70456 0.00367 0.3333 0.0
C618 C 0.62605 0.02117 0.5163 0.0
C619 C 0.66334 1.00054 0.44936 0.0
C620 C 0.60166 0.02064 0.55743 0.0
C621 C 0.58936 0.99925 0.58286 0.0
C622 C 0.63839 1.00018 0.49936 0.0
C623 C 0.60245 0.97858 0.56593 0.0
C624 C 0.67392 0.98006 0.42082 0.0
C625 C 0.69513 0.02344 0.36849 0.0
N626 N 0.62617 0.97956 0.52466 0.0
N627 N 0.67479 0.02145 0.42373 0.0
H628 H 0.57656 0.64805 0.2791 0.0
H629 H 0.49638 0.57636 0.62511 0.0
H630 H 0.50355 0.67031 0.38659 0.0
H631 H 0.57513 0.5588 0.5496 0.0
H632 H 0.50176 0.61383 0.55005 0.0
H633 H 0.58033 0.61929 0.38936 0.0
C634 C 0.56192 0.64754 0.32779 0.0
C635 C 0.53984 0.6616 0.32464 0.0
C636 C 0.51804 0.60199 0.55021 0.0
C637 C 0.54336 0.62823 0.44882 0.0
C638 C 0.51491 0.58047 0.59273 0.0
C639 C 0.5352 0.56428 0.59231 0.0
C640 C 0.54149 0.60733 0.50526 0.0
C641 C 0.55894 0.57074 0.55075 0.0
C642 C 0.5639 0.63096 0.39023 0.0
C643 C 0.521 0.65992 0.38765 0.0
N644 N 0.56131 0.59165 0.50755 0.0
N645 N 0.52296 0.64323 0.4466 0.0
H646 H 0.84459 0.44142 0.44687 0.0
H647 H 0.93813 0.53387 0.60275 0.0
H648 H 0.83439 0.5158 0.41068 0.0
H649 H 0.95264 0.4599 0.59973 0.0
H650 H 0.89587 0.52777 0.554 0.0
H651 H 0.87849 0.44797 0.53139 0.0
C652 C 0.84886 0.45911 0.45935 0.0
C653 C 0.83677 0.4781 0.42213 0.0
C654 C 0.90831 0.51291 0.56442 0.0
C655 C 0.87628 0.48586 0.51556 0.0
C656 C 0.93248 0.51639 0.5917 0.0
C657 C 0.94911 0.49742 0.60443 0.0
C658 C 0.90068 0.49028 0.55051 0.0
C659 C 0.94066 0.47512 0.58995 0.0
C660 C 0.86846 0.4629 0.50654 0.0
C661 C 0.84318 0.50072 0.43901 0.0
N662 N 0.91713 0.4722 0.56375 0.0
N663 N 0.86292 0.50404 0.4834 0.0
loop_
_geom_bond_atom_site_label_1
_geom_bond_atom_site_label_2
_geom_bond_distance
_geom_bond_site_symmetry_2
_ccdc_geom_bond_type
H0 C5 0.930 . S
H1 C8 0.930 . S
H2 C10 0.930 . S
H3 C4 1.016 . S
C4 H3 1.016 . S
C4 N11 1.286 . S
C5 H0 0.930 . S
C5 C6 1.397 . S
C5 C7 1.361 . S
C6 C5 1.397 . S
C6 C10 1.390 . S
C7 C5 1.361 . S
C7 C8 1.393 . S
C7 N11 1.413 . S
C8 H1 0.930 . S
C8 C7 1.393 . S
C8 C9 1.399 . S
C9 C8 1.399 . S
C9 C10 1.381 . S
C10 H2 0.930 . S
C10 C6 1.390 . S
C10 C9 1.381 . S
N11 C4 1.286 . S
N11 C7 1.413 . S
H12 C17 0.930 . S
H13 C20 0.930 . S
H14 C22 0.930 . S
H15 C16 1.016 . S
C16 H15 1.016 . S
C16 N23 1.286 1_556 S
C17 H12 0.930 . S
C17 C18 1.397 . S
C17 C19 1.361 . S
C18 C17 1.397 . S
C18 C22 1.390 . S
C19 C17 1.361 . S
C19 C20 1.393 1_554 S
C19 N23 1.413 . S
C20 H13 0.930 . S
C20 C19 1.393 1_556 S
C20 C21 1.399 . S
C21 C20 1.399 . S
C21 C22 1.381 1_556 S
C22 H14 0.930 . S
C22 C18 1.390 . S
C22 C21 1.381 1_554 S
N23 C16 1.286 1_554 S
N23 C19 1.413 . S
H24 C29 0.930 . S
H25 C32 0.930 1_556 S
H26 C34 0.930 . S
H27 C28 1.032 1_556 S
C28 H27 1.032 1_554 S
C28 N35 1.266 1_565 S
C29 H24 0.930 . S
C29 C30 1.406 . S
C29 C31 1.361 . S
C30 C29 1.406 . S
C30 C34 1.382 1_545 S
C31 C29 1.361 . S
C31 C32 1.393 . S
C31 N35 1.413 . S
C32 H25 0.930 1_554 S
C32 C31 1.393 . S
C32 C33 1.402 . S
C33 C32 1.402 . S
C33 C34 1.381 1_545 S
C34 H26 0.930 . S
C34 C30 1.382 1_565 S
C34 C33 1.381 1_565 S
N35 C28 1.266 1_545 S
N35 C31 1.413 . S
H36 C41 0.930 . S
H37 C44 0.930 1_556 S
H38 C46 0.930 . S
H39 C40 1.016 1_556 S
C40 H39 1.016 1_554 S
C40 N47 1.286 . S
C41 H36 0.930 . S
C41 C42 1.397 . S
C41 C43 1.361 . S
C42 C41 1.397 . S
C42 C46 1.390 . S
C43 C41 1.361 . S
C43 C44 1.393 . S
C43 N47 1.413 . S
C44 H37 0.930 1_554 S
C44 C43 1.393 . S
C44 C45 1.399 . S
C45 C44 1.399 . S
C45 C46 1.381 . S
C46 H38 0.930 . S
C46 C42 1.390 . S
C46 C45 1.381 . S
N47 C40 1.286 . S
N47 C43 1.413 . S
H48 C53 0.930 . S
H49 C56 0.930 . S
H50 C58 0.930 . S
H51 C52 1.016 . S
C52 H51 1.016 . S
C52 N59 1.286 . S
C53 H48 0.930 . S
C53 C54 1.397 . S
C53 C55 1.361 . S
C54 C53 1.397 . S
C54 C58 1.390 . S
C55 C53 1.361 . S
C55 C56 1.393 . S
C55 N59 1.413 . S
C56 H49 0.930 . S
C56 C55 1.393 . S
C56 C57 1.399 . S
C57 C56 1.399 . S
C57 C58 1.381 . S
C58 H50 0.930 . S
C58 C54 1.390 . S
C58 C57 1.381 . S
N59 C52 1.286 . S
N59 C55 1.413 . S
H60 C65 0.930 . S
H61 C68 0.930 . S
H62 C70 0.930 . S
H63 C64 1.016 . S
C64 H63 1.016 . S
C64 N71 1.286 . S
C65 H60 0.930 . S
C65 C66 1.397 . S
C65 C67 1.361 . S
C66 C65 1.397 . S
C66 C70 1.390 . S
C67 C65 1.361 . S
C67 C68 1.393 . S
C67 N71 1.413 . S
C68 H61 0.930 . S
C68 C67 1.393 . S
C68 C69 1.399 . S
C69 C68 1.399 . S
C69 C70 1.381 . S
C70 H62 0.930 . S
C70 C66 1.390 . S
C70 C69 1.381 . S
N71 C64 1.286 . S
N71 C67 1.413 . S
H72 C77 0.930 . S
H73 C80 0.930 . S
H74 C82 0.930 . S
H75 C76 1.023 . S
C76 H75 1.023 . S
C76 N83 1.275 1_565 S
C77 H72 0.930 . S
C77 C78 1.397 . S
C77 C79 1.361 . S
C78 C77 1.397 . S
C78 C82 1.390 1_545 S
C79 C77 1.361 . S
C79 C80 1.393 . S
C79 N83 1.413 . S
C80 H73 0.930 . S
C80 C79 1.393 . S
C80 C81 1.405 . S
C81 C80 1.405 . S
C81 C82 1.376 1_545 S
C82 H74 0.930 . S
C82 C78 1.390 1_565 S
C82 C81 1.376 1_565 S
N83 C76 1.275 1_545 S
N83 C79 1.413 . S
H84 C89 0.930 . S
H85 C92 0.930 . S
H86 C94 0.930 . S
H87 C88 1.016 . S
C88 H87 1.016 . S
C88 N95 1.286 . S
C89 H84 0.930 . S
C89 C90 1.397 . S
C89 C91 1.361 . S
C90 C89 1.397 . S
C90 C94 1.390 . S
C91 C89 1.361 . S
C91 C92 1.393 . S
C91 N95 1.413 . S
C92 H85 0.930 . S
C92 C91 1.393 . S
C92 C93 1.399 . S
C93 C92 1.399 . S
C93 C94 1.381 . S
C94 H86 0.930 . S
C94 C90 1.390 . S
C94 C93 1.381 . S
N95 C88 1.286 . S
N95 C91 1.413 . S
C96 O112 1.251 . S
C96 O114 1.254 . S
N97 C98 1.333 1_655 S
N97 C102 1.307 . S
N97 Zn103 2.020 1_655 S
C98 N97 1.333 1_455 S
C98 C99 1.381 . S
C98 H116 0.952 . S
C99 C98 1.381 . S
C99 C100 1.386 1_455 S
C99 H126 0.951 . S
C100 C99 1.386 1_655 S
C100 C101 1.357 . S
C101 C100 1.357 . S
C101 C102 1.370 . S
C101 H127 0.950 . S
C102 N97 1.307 . S
C102 C101 1.370 . S
C102 H120 0.948 . S
Zn103 N97 2.020 1_455 S
Zn103 O112 2.039 . S
Zn103 O118 2.034 . S
Zn103 O122 2.025 1_565 S
Zn103 O124 2.024 1_455 S
C104 O123 1.246 . S
C104 O124 1.249 1_545 S
N105 C106 1.307 . S
N105 C107 1.333 . S
N105 Zn111 2.020 . S
C106 N105 1.307 . S
C106 C110 1.370 1_556 S
C106 H117 0.948 . S
C107 N105 1.333 . S
C107 C108 1.379 . S
C107 H115 0.952 . S
C108 C107 1.379 . S
C108 C109 1.390 1_556 S
C108 H128 0.949 . S
C109 C108 1.390 1_554 S
C109 C110 1.357 . S
C110 C106 1.370 1_554 S
C110 C109 1.357 . S
C110 H129 0.950 . S
Zn111 N105 2.020 . S
Zn111 O114 2.025 1_545 S
Zn111 O119 2.024 . S
Zn111 O121 2.039 . S
Zn111 O123 2.034 1_455 S
O112 C96 1.251 . S
O112 Zn103 2.039 . S
C113 O118 1.246 . S
C113 O119 1.249 1_565 S
O114 C96 1.254 . S
O114 Zn111 2.025 1_565 S
H115 C107 0.952 . S
H116 C98 0.952 . S
H117 C106 0.948 . S
O118 Zn103 2.034 . S
O118 C113 1.246 . S
O119 Zn111 2.024 . S
O119 C113 1.249 1_545 S
H120 C102 0.948 . S
O121 Zn111 2.039 . S
O121 C125 1.251 . S
O122 Zn103 2.025 1_545 S
O122 C125 1.254 . S
O123 C104 1.246 . S
O123 Zn111 2.034 1_655 S
O124 Zn103 2.024 1_655 S
O124 C104 1.249 1_565 S
C125 O121 1.251 . S
C125 O122 1.254 . S
H126 C99 0.951 . S
H127 C101 0.950 . S
H128 C108 0.949 . S
H129 C110 0.950 . S
C130 O146 1.251 1_565 S
C130 O148 1.254 . S
N131 C132 1.333 . S
N131 C136 1.307 . S
N131 Zn137 2.020 . S
C132 N131 1.333 . S
C132 C133 1.379 . S
C132 H150 0.952 . S
C133 C132 1.379 . S
C133 C134 1.390 . S
C133 H160 0.949 . S
C134 C133 1.390 . S
C134 C135 1.357 . S
C135 C134 1.357 . S
C135 C136 1.370 . S
C135 H161 0.950 . S
C136 N131 1.307 . S
C136 C135 1.370 . S
C136 H154 0.948 . S
Zn137 N131 2.020 . S
Zn137 O146 2.039 . S
Zn137 O152 2.034 . S
Zn137 O156 2.025 . S
Zn137 O158 2.024 . S
C138 O157 1.246 1_545 S
C138 O158 1.249 . S
N139 C140 1.307 . S
N139 C141 1.333 . S
N139 Zn145 2.020 . S
C140 N139 1.307 . S
C140 C144 1.370 . S
C140 H151 0.948 . S
C141 N139 1.333 . S
C141 C142 1.379 . S
C141 H149 0.952 . S
C142 C141 1.379 . S
C142 C143 1.390 . S
C142 H162 0.949 . S
C143 C142 1.390 . S
C143 C144 1.357 . S
C144 C140 1.370 . S
C144 C143 1.357 . S
C144 H163 0.950 . S
Zn145 N139 2.020 . S
Zn145 O148 2.025 . S
Zn145 O153 2.024 . S
Zn145 O155 2.039 . S
Zn145 O157 2.034 . S
O146 C130 1.251 1_545 S
O146 Zn137 2.039 . S
C147 O152 1.246 1_565 S
C147 O153 1.249 . S
O148 C130 1.254 . S
O148 Zn145 2.025 . S
H149 C141 0.952 . S
H150 C132 0.952 . S
H151 C140 0.948 . S
O152 Zn137 2.034 . S
O152 C147 1.246 1_545 S
O153 Zn145 2.024 . S
O153 C147 1.249 . S
H154 C136 0.948 . S
O155 Zn145 2.039 . S
O155 C159 1.251 1_565 S
O156 Zn137 2.025 . S
O156 C159 1.254 . S
O157 C138 1.246 1_565 S
O157 Zn145 2.034 . S
O158 Zn137 2.024 . S
O158 C138 1.249 . S
C159 O155 1.251 1_545 S
C159 O156 1.254 . S
H160 C133 0.949 . S
H161 C135 0.950 . S
H162 C142 0.949 . S
H163 C144 0.950 . S
C164 O180 1.251 . S
C164 O182 1.254 . S
N165 C166 1.333 . S
N165 C170 1.307 . S
N165 Zn171 2.020 . S
C166 N165 1.333 . S
C166 C167 1.379 . S
C166 H184 0.952 . S
C167 C166 1.379 . S
C167 C168 1.390 . S
C167 H194 0.949 . S
C168 C167 1.390 . S
C168 C169 1.357 . S
C169 C168 1.357 . S
C169 C170 1.370 . S
C169 H195 0.950 . S
C170 N165 1.307 . S
C170 C169 1.370 . S
C170 H188 0.948 . S
Zn171 N165 2.020 . S
Zn171 O180 2.039 . S
Zn171 O186 2.034 . S
Zn171 O190 2.025 . S
Zn171 O192 2.024 . S
C172 O191 1.246 . S
C172 O192 1.249 . S
N173 C174 1.307 . S
N173 C175 1.333 . S
N173 Zn179 2.020 . S
C174 N173 1.307 . S
C174 C178 1.370 . S
C174 H185 0.948 . S
C175 N173 1.333 . S
C175 C176 1.379 . S
C175 H183 0.952 . S
C176 C175 1.379 . S
C176 C177 1.390 . S
C176 H196 0.949 . S
C177 C176 1.390 . S
C177 C178 1.357 . S
C178 C174 1.370 . S
C178 C177 1.357 . S
C178 H197 0.950 . S
Zn179 N173 2.020 . S
Zn179 O182 2.025 . S
Zn179 O187 2.024 . S
Zn179 O189 2.039 . S
Zn179 O191 2.034 . S
O180 C164 1.251 . S
O180 Zn171 2.039 . S
C181 O186 1.246 . S
C181 O187 1.249 . S
O182 C164 1.254 . S
O182 Zn179 2.025 . S
H183 C175 0.952 . S
H184 C166 0.952 . S
H185 C174 0.948 . S
O186 Zn171 2.034 . S
O186 C181 1.246 . S
O187 Zn179 2.024 . S
O187 C181 1.249 . S
H188 C170 0.948 . S
O189 Zn179 2.039 . S
O189 C193 1.251 . S
O190 Zn171 2.025 . S
O190 C193 1.254 . S
O191 C172 1.246 . S
O191 Zn179 2.034 . S
O192 Zn171 2.024 . S
O192 C172 1.249 . S
C193 O189 1.251 . S
C193 O190 1.254 . S
H194 C167 0.949 . S
H195 C169 0.950 . S
H196 C176 0.949 . S
H197 C178 0.950 . S
C198 O214 1.251 . S
C198 O216 1.254 . S
N199 C200 1.333 . S
N199 C204 1.307 . S
N199 Zn205 2.020 . S
C200 N199 1.333 . S
C200 C201 1.379 . S
C200 H218 0.952 . S
C201 C200 1.379 . S
C201 C202 1.390 . S
C201 H228 0.949 . S
C202 C201 1.390 . S
C202 C203 1.357 . S
C203 C202 1.357 . S
C203 C204 1.370 . S
C203 H229 0.950 . S
C204 N199 1.307 . S
C204 C203 1.370 . S
C204 H222 0.948 . S
Zn205 N199 2.020 . S
Zn205 O214 2.039 . S
Zn205 O220 2.034 1_455 S
Zn205 O224 2.025 1_455 S
Zn205 O226 2.024 . S
C206 O225 1.246 . S
C206 O226 1.249 . S
N207 C208 1.307 . S
N207 C209 1.333 1_455 S
N207 Zn213 2.020 . S
C208 N207 1.307 . S
C208 C212 1.370 . S
C208 H219 0.948 . S
C209 N207 1.333 1_655 S
C209 C210 1.379 . S
C209 H217 0.952 . S
C210 C209 1.379 . S
C210 C211 1.390 1_655 S
C210 H230 0.949 . S
C211 C210 1.390 1_455 S
C211 C212 1.357 . S
C212 C208 1.370 . S
C212 C211 1.357 . S
C212 H231 0.950 . S
Zn213 N207 2.020 . S
Zn213 O216 2.025 . S
Zn213 O221 2.024 1_455 S
Zn213 O223 2.039 1_455 S
Zn213 O225 2.034 . S
O214 C198 1.251 . S
O214 Zn205 2.039 . S
C215 O220 1.246 . S
C215 O221 1.249 . S
O216 C198 1.254 . S
O216 Zn213 2.025 . S
H217 C209 0.952 . S
H218 C200 0.952 . S
H219 C208 0.948 . S
O220 Zn205 2.034 1_655 S
O220 C215 1.246 . S
O221 Zn213 2.024 1_655 S
O221 C215 1.249 . S
H222 C204 0.948 . S
O223 Zn213 2.039 1_655 S
O223 C227 1.251 . S
O224 Zn205 2.025 1_655 S
O224 C227 1.254 . S
O225 C206 1.246 . S
O225 Zn213 2.034 . S
O226 Zn205 2.024 . S
O226 C206 1.249 . S
C227 O223 1.251 . S
C227 O224 1.254 . S
H228 C201 0.949 . S
H229 C203 0.950 . S
H230 C210 0.949 . S
H231 C212 0.950 . S
H232 C238 0.930 . S
H233 C242 0.930 . S
H234 C247 0.929 . S
H235 C245 0.929 . S
H236 C240 0.929 . S
H237 C246 0.929 . S
C238 H232 0.930 . S
C238 C239 1.376 . S
C238 C246 1.378 . S
C239 C238 1.376 . S
C239 C247 1.424 1_565 S
C240 H236 0.929 . S
C240 C242 1.378 . S
C240 C244 1.350 1_545 S
C241 C244 1.463 . S
C241 C246 1.350 . S
C241 N249 1.427 1_565 S
C242 H233 0.930 . S
C242 C240 1.378 . S
C242 C243 1.367 1_545 S
C243 C242 1.367 1_565 S
C243 C245 1.433 . S
C244 C240 1.350 1_565 S
C244 C241 1.463 . S
C244 N248 1.427 . S
C245 H235 0.929 . S
C245 C243 1.433 . S
C245 N248 1.384 . S
C246 H237 0.929 . S
C246 C238 1.378 . S
C246 C241 1.350 . S
C247 H234 0.929 . S
C247 C239 1.424 1_545 S
C247 N249 1.384 . S
N248 C244 1.427 . S
N248 C245 1.384 . S
N249 C241 1.427 1_545 S
N249 C247 1.384 . S
H250 C256 0.930 . S
H251 C260 0.930 . S
H252 C265 0.929 . S
H253 C263 0.929 . S
H254 C258 0.929 . S
H255 C264 0.929 . S
C256 H250 0.930 . S
C256 C257 1.367 . S
C256 C264 1.378 . S
C257 C256 1.367 . S
C257 C265 1.433 . S
C258 H254 0.929 . S
C258 C260 1.378 . S
C258 C262 1.350 . S
C259 C262 1.463 . S
C259 C264 1.350 . S
C259 N267 1.427 . S
C260 H251 0.930 . S
C260 C258 1.378 . S
C260 C261 1.367 . S
C261 C260 1.367 . S
C261 C263 1.433 . S
C262 C258 1.350 . S
C262 C259 1.463 . S
C262 N266 1.427 . S
C263 H253 0.929 . S
C263 C261 1.433 . S
C263 N266 1.384 . S
C264 H255 0.929 . S
C264 C256 1.378 . S
C264 C259 1.350 . S
C265 H252 0.929 . S
C265 C257 1.433 . S
C265 N267 1.384 . S
N266 C262 1.427 . S
N266 C263 1.384 . S
N267 C259 1.427 . S
N267 C265 1.384 . S
H268 C274 0.930 . S
H269 C278 0.930 . S
H270 C283 0.929 . S
H271 C281 0.929 . S
H272 C276 0.929 . S
H273 C282 0.929 . S
C274 H268 0.930 . S
C274 C275 1.367 . S
C274 C282 1.378 . S
C275 C274 1.367 . S
C275 C283 1.433 . S
C276 H272 0.929 . S
C276 C278 1.378 . S
C276 C280 1.350 . S
C277 C280 1.463 . S
C277 C282 1.350 . S
C277 N285 1.427 . S
C278 H269 0.930 . S
C278 C276 1.378 . S
C278 C279 1.367 . S
C279 C278 1.367 . S
C279 C281 1.433 . S
C280 C276 1.350 . S
C280 C277 1.463 . S
C280 N284 1.427 . S
C281 H271 0.929 . S
C281 C279 1.433 . S
C281 N284 1.384 . S
C282 H273 0.929 . S
C282 C274 1.378 . S
C282 C277 1.350 . S
C283 H270 0.929 . S
C283 C275 1.433 . S
C283 N285 1.384 . S
N284 C280 1.427 . S
N284 C281 1.384 . S
N285 C277 1.427 . S
N285 C283 1.384 . S
H286 C292 0.930 . S
H287 C296 0.930 . S
H288 C301 0.929 . S
H289 C299 0.929 1_655 S
H290 C294 0.929 . S
H291 C300 0.929 . S
C292 H286 0.930 . S
C292 C293 1.367 . S
C292 C300 1.378 . S
C293 C292 1.367 . S
C293 C301 1.433 . S
C294 H290 0.929 . S
C294 C296 1.378 . S
C294 C298 1.350 . S
C295 C298 1.463 . S
C295 C300 1.350 . S
C295 N303 1.427 . S
C296 H287 0.930 . S
C296 C294 1.378 . S
C296 C297 1.367 . S
C297 C296 1.367 . S
C297 C299 1.433 . S
C298 C294 1.350 . S
C298 C295 1.463 . S
C298 N302 1.427 . S
C299 H289 0.929 1_455 S
C299 C297 1.433 . S
C299 N302 1.384 . S
C300 H291 0.929 . S
C300 C292 1.378 . S
C300 C295 1.350 . S
C301 H288 0.929 . S
C301 C293 1.433 . S
C301 N303 1.384 . S
N302 C298 1.427 . S
N302 C299 1.384 . S
N303 C295 1.427 . S
N303 C301 1.384 . S
H304 C310 0.930 1_554 S
H305 C314 0.930 . S
H306 C319 0.929 . S
H307 C317 0.929 . S
H308 C312 0.929 . S
H309 C318 0.929 . S
C310 H304 0.930 1_556 S
C310 C311 1.367 . S
C310 C318 1.378 . S
C311 C310 1.367 . S
C311 C319 1.433 1_545 S
C312 H308 0.929 . S
C312 C314 1.378 . S
C312 C316 1.350 1_565 S
C313 C316 1.463 . S
C313 C318 1.350 . S
C313 N321 1.427 1_545 S
C314 H305 0.930 . S
C314 C312 1.378 . S
C314 C315 1.367 1_565 S
C315 C314 1.367 1_545 S
C315 C317 1.433 . S
C316 C312 1.350 1_545 S
C316 C313 1.463 . S
C316 N320 1.427 . S
C317 H307 0.929 . S
C317 C315 1.433 . S
C317 N320 1.384 . S
C318 H309 0.929 . S
C318 C310 1.378 . S
C318 C313 1.350 . S
C319 H306 0.929 . S
C319 C311 1.433 1_565 S
C319 N321 1.384 . S
N320 C316 1.427 . S
N320 C317 1.384 . S
N321 C313 1.427 1_565 S
N321 C319 1.384 . S
H322 C328 0.930 . S
H323 C332 0.930 . S
H324 C337 0.929 . S
H325 C335 0.929 . S
H326 C330 0.929 . S
H327 C336 0.929 . S
C328 H322 0.930 . S
C328 C329 1.367 1_556 S
C328 C336 1.378 . S
C329 C328 1.367 1_554 S
C329 C337 1.433 . S
C330 H326 0.929 . S
C330 C332 1.378 . S
C330 C334 1.350 . S
C331 C334 1.463 . S
C331 C336 1.350 . S
C331 N339 1.427 1_556 S
C332 H323 0.930 . S
C332 C330 1.378 . S
C332 C333 1.367 . S
C333 C332 1.367 . S
C333 C335 1.433 . S
C334 C330 1.350 . S
C334 C331 1.463 . S
C334 N338 1.427 . S
C335 H325 0.929 . S
C335 C333 1.433 . S
C335 N338 1.384 . S
C336 H327 0.929 . S
C336 C328 1.378 . S
C336 C331 1.350 . S
C337 H324 0.929 . S
C337 C329 1.433 . S
C337 N339 1.384 . S
N338 C334 1.427 . S
N338 C335 1.384 . S
N339 C331 1.427 1_554 S
N339 C337 1.384 . S
H340 C346 0.930 . S
H341 C350 0.930 . S
H342 C355 0.929 . S
H343 C353 0.929 . S
H344 C348 0.929 . S
H345 C354 0.929 1_556 S
C346 H340 0.930 . S
C346 C347 1.367 . S
C346 C354 1.378 . S
C347 C346 1.367 . S
C347 C355 1.433 . S
C348 H344 0.929 . S
C348 C350 1.378 . S
C348 C352 1.350 . S
C349 C352 1.463 . S
C349 C354 1.350 1_556 S
C349 N357 1.427 1_556 S
C350 H341 0.930 . S
C350 C348 1.378 . S
C350 C351 1.367 . S
C351 C350 1.367 . S
C351 C353 1.433 . S
C352 C348 1.350 . S
C352 C349 1.463 . S
C352 N356 1.427 . S
C353 H343 0.929 . S
C353 C351 1.433 . S
C353 N356 1.384 . S
C354 H345 0.929 1_554 S
C354 C346 1.378 . S
C354 C349 1.350 1_554 S
C355 H342 0.929 . S
C355 C347 1.433 . S
C355 N357 1.384 . S
N356 C352 1.427 . S
N356 C353 1.384 . S
N357 C349 1.427 1_554 S
N357 C355 1.384 . S
H358 C364 0.929 1_454 S
H359 C368 0.930 . S
H360 C373 0.929 . S
H361 C371 0.929 . S
H362 C366 0.929 . S
H363 C372 0.929 1_455 S
C364 H358 0.929 1_656 S
C364 C365 1.367 . S
C364 C372 1.378 . S
C365 C364 1.367 . S
C365 C373 1.433 . S
C366 H362 0.929 . S
C366 C368 1.378 . S
C366 C370 1.350 . S
C367 C370 1.463 . S
C367 C372 1.350 . S
C367 N375 1.427 . S
C368 H359 0.930 . S
C368 C366 1.378 . S
C368 C369 1.367 . S
C369 C368 1.367 . S
C369 C371 1.433 1_655 S
C370 C366 1.350 . S
C370 C367 1.463 . S
C370 N374 1.427 1_655 S
C371 H361 0.929 . S
C371 C369 1.433 1_455 S
C371 N374 1.384 . S
C372 H363 0.929 1_655 S
C372 C364 1.378 . S
C372 C367 1.350 . S
C373 H360 0.929 . S
C373 C365 1.433 . S
C373 N375 1.384 . S
N374 C370 1.427 1_455 S
N374 C371 1.384 . S
N375 C367 1.427 . S
N375 C373 1.384 . S
H376 C382 0.930 . S
H377 C386 0.930 . S
H378 C391 0.929 . S
H379 C389 0.929 1_655 S
H380 C384 0.929 . S
H381 C390 0.929 . S
C382 H376 0.930 . S
C382 C383 1.367 . S
C382 C390 1.378 . S
C383 C382 1.367 . S
C383 C391 1.433 . S
C384 H380 0.929 . S
C384 C386 1.378 . S
C384 C388 1.350 . S
C385 C388 1.463 . S
C385 C390 1.350 . S
C385 N393 1.427 . S
C386 H377 0.930 . S
C386 C384 1.378 . S
C386 C387 1.367 . S
C387 C386 1.367 . S
C387 C389 1.433 . S
C388 C384 1.350 . S
C388 C385 1.463 . S
C388 N392 1.427 . S
C389 H379 0.929 1_455 S
C389 C387 1.433 . S
C389 N392 1.384 . S
C390 H381 0.929 . S
C390 C382 1.378 . S
C390 C385 1.350 . S
C391 H378 0.929 . S
C391 C383 1.433 . S
C391 N393 1.384 . S
N392 C388 1.427 . S
N392 C389 1.384 . S
N393 C385 1.427 . S
N393 C391 1.384 . S
H394 C400 0.930 . S
H395 C404 0.930 . S
H396 C409 0.929 . S
H397 C407 0.929 . S
H398 C402 0.929 . S
H399 C408 0.929 . S
C400 H394 0.930 . S
C400 C401 1.367 . S
C400 C408 1.378 . S
C401 C400 1.367 . S
C401 C409 1.434 1_545 S
C402 H398 0.929 . S
C402 C404 1.378 . S
C402 C406 1.350 . S
C403 C406 1.463 . S
C403 C408 1.350 1_565 S
C403 N411 1.427 . S
C404 H395 0.930 . S
C404 C402 1.378 . S
C404 C405 1.367 . S
C405 C404 1.367 . S
C405 C407 1.433 1_565 S
C406 C402 1.350 . S
C406 C403 1.463 . S
C406 N410 1.427 1_565 S
C407 H397 0.929 . S
C407 C405 1.433 1_545 S
C407 N410 1.384 . S
C408 H399 0.929 . S
C408 C400 1.378 . S
C408 C403 1.350 1_545 S
C409 H396 0.929 . S
C409 C401 1.434 1_565 S
C409 N411 1.384 . S
N410 C406 1.427 1_545 S
N410 C407 1.384 . S
N411 C403 1.427 . S
N411 C409 1.384 . S
H412 C418 0.930 . S
H413 C422 0.930 . S
H414 C427 0.929 . S
H415 C425 0.929 . S
H416 C420 0.929 . S
H417 C426 0.929 . S
C418 H412 0.930 . S
C418 C419 1.367 . S
C418 C426 1.378 . S
C419 C418 1.367 . S
C419 C427 1.433 . S
C420 H416 0.929 . S
C420 C422 1.378 . S
C420 C424 1.350 . S
C421 C424 1.463 . S
C421 C426 1.350 . S
C421 N429 1.427 . S
C422 H413 0.930 . S
C422 C420 1.378 . S
C422 C423 1.367 . S
C423 C422 1.367 . S
C423 C425 1.433 . S
C424 C420 1.350 . S
C424 C421 1.463 . S
C424 N428 1.427 . S
C425 H415 0.929 . S
C425 C423 1.433 . S
C425 N428 1.384 . S
C426 H417 0.929 . S
C426 C418 1.378 . S
C426 C421 1.350 . S
C427 H414 0.929 . S
C427 C419 1.433 . S
C427 N429 1.384 . S
N428 C424 1.427 . S
N428 C425 1.384 . S
N429 C421 1.427 . S
N429 C427 1.384 . S
H430 C436 0.930 . S
H431 C440 0.930 . S
H432 C445 0.929 . S
H433 C443 0.929 . S
H434 C438 0.929 . S
H435 C444 0.929 . S
C436 H430 0.930 . S
C436 C437 1.367 . S
C436 C444 1.378 . S
C437 C436 1.367 . S
C437 C445 1.433 . S
C438 H434 0.929 . S
C438 C440 1.378 . S
C438 C442 1.350 . S
C439 C442 1.463 . S
C439 C444 1.350 . S
C439 N447 1.427 . S
C440 H431 0.930 . S
C440 C438 1.378 . S
C440 C441 1.367 . S
C441 C440 1.367 . S
C441 C443 1.433 . S
C442 C438 1.350 . S
C442 C439 1.463 . S
C442 N446 1.427 . S
C443 H433 0.929 . S
C443 C441 1.433 . S
C443 N446 1.384 . S
C444 H435 0.929 . S
C444 C436 1.378 . S
C444 C439 1.350 . S
C445 H432 0.929 . S
C445 C437 1.433 . S
C445 N447 1.384 . S
N446 C442 1.427 . S
N446 C443 1.384 . S
N447 C439 1.427 . S
N447 C445 1.384 . S
H448 C454 0.930 1_554 S
H449 C458 0.930 . S
H450 C463 0.929 . S
H451 C461 0.929 . S
H452 C456 0.929 . S
H453 C462 0.929 1_455 S
C454 H448 0.930 1_556 S
C454 C455 1.367 . S
C454 C462 1.378 . S
C455 C454 1.367 . S
C455 C463 1.433 . S
C456 H452 0.929 . S
C456 C458 1.378 . S
C456 C460 1.350 . S
C457 C460 1.463 . S
C457 C462 1.350 . S
C457 N465 1.427 . S
C458 H449 0.930 . S
C458 C456 1.378 . S
C458 C459 1.367 1_655 S
C459 C458 1.367 1_455 S
C459 C461 1.433 . S
C460 C456 1.350 . S
C460 C457 1.463 . S
C460 N464 1.427 1_655 S
C461 H451 0.929 . S
C461 C459 1.433 . S
C461 N464 1.384 . S
C462 H453 0.929 1_655 S
C462 C454 1.378 . S
C462 C457 1.350 . S
C463 H450 0.929 . S
C463 C455 1.433 . S
C463 N465 1.384 . S
N464 C460 1.427 1_455 S
N464 C461 1.384 . S
N465 C457 1.427 . S
N465 C463 1.384 . S
H466 C472 0.930 1_554 S
H467 C476 0.930 . S
H468 C481 0.929 . S
H469 C479 0.929 . S
H470 C474 0.929 . S
H471 C480 0.929 . S
C472 H466 0.930 1_556 S
C472 C473 1.373 1_556 S
C472 C480 1.378 . S
C473 C472 1.373 1_554 S
C473 C481 1.427 1_564 S
C474 H470 0.929 . S
C474 C476 1.378 . S
C474 C478 1.350 . S
C475 C478 1.463 . S
C475 C480 1.350 1_545 S
C475 N483 1.427 . S
C476 H467 0.930 . S
C476 C474 1.378 . S
C476 C477 1.367 . S
C477 C476 1.367 . S
C477 C479 1.433 1_545 S
C478 C474 1.350 . S
C478 C475 1.463 . S
C478 N482 1.427 1_545 S
C479 H469 0.929 . S
C479 C477 1.433 1_565 S
C479 N482 1.384 . S
C480 H471 0.929 . S
C480 C472 1.378 . S
C480 C475 1.350 1_565 S
C481 H468 0.929 . S
C481 C473 1.427 1_546 S
C481 N483 1.384 . S
N482 C478 1.427 1_565 S
N482 C479 1.384 . S
N483 C475 1.427 . S
N483 C481 1.384 . S
H484 C490 0.930 . S
H485 C494 0.930 . S
H486 C499 0.929 . S
H487 C497 0.929 . S
H488 C492 0.929 1_554 S
H489 C498 0.929 . S
C490 H484 0.930 . S
C490 C491 1.367 1_556 S
C490 C498 1.378 . S
C491 C490 1.367 1_554 S
C491 C499 1.433 . S
C492 H488 0.929 1_556 S
C492 C494 1.378 . S
C492 C496 1.350 . S
C493 C496 1.463 . S
C493 C498 1.350 . S
C493 N501 1.427 1_556 S
C494 H485 0.930 . S
C494 C492 1.378 . S
C494 C495 1.367 . S
C495 C494 1.367 . S
C495 C497 1.433 . S
C496 C492 1.350 . S
C496 C493 1.463 . S
C496 N500 1.427 . S
C497 H487 0.929 . S
C497 C495 1.433 . S
C497 N500 1.384 . S
C498 H489 0.929 . S
C498 C490 1.378 . S
C498 C493 1.350 . S
C499 H486 0.929 . S
C499 C491 1.433 . S
C499 N501 1.384 . S
N500 C496 1.427 . S
N500 C497 1.384 . S
N501 C493 1.427 1_554 S
N501 C499 1.384 . S
H502 C508 0.930 1_556 S
H503 C512 0.930 . S
H504 C517 0.929 . S
H505 C515 0.929 . S
H506 C510 0.929 1_554 S
H507 C516 0.929 . S
C508 H502 0.930 1_554 S
C508 C509 1.367 . S
C508 C516 1.378 1_554 S
C509 C508 1.367 . S
C509 C517 1.433 . S
C510 H506 0.929 1_556 S
C510 C512 1.378 . S
C510 C514 1.350 . S
C511 C514 1.463 . S
C511 C516 1.350 . S
C511 N519 1.427 1_556 S
C512 H503 0.930 . S
C512 C510 1.378 . S
C512 C513 1.367 . S
C513 C512 1.367 . S
C513 C515 1.433 . S
C514 C510 1.350 . S
C514 C511 1.463 . S
C514 N518 1.427 . S
C515 H505 0.929 . S
C515 C513 1.433 . S
C515 N518 1.384 . S
C516 H507 0.929 . S
C516 C508 1.378 1_556 S
C516 C511 1.350 . S
C517 H504 0.929 . S
C517 C509 1.433 . S
C517 N519 1.384 . S
N518 C514 1.427 . S
N518 C515 1.384 . S
N519 C511 1.427 1_554 S
N519 C517 1.384 . S
H520 C526 0.930 . S
H521 C530 0.930 . S
H522 C535 0.929 . S
H523 C533 0.929 1_556 S
H524 C528 0.929 . S
H525 C534 0.929 . S
C526 H520 0.930 . S
C526 C527 1.367 . S
C526 C534 1.378 . S
C527 C526 1.367 . S
C527 C535 1.433 . S
C528 H524 0.929 . S
C528 C530 1.378 . S
C528 C532 1.350 . S
C529 C532 1.463 . S
C529 C534 1.350 . S
C529 N537 1.427 . S
C530 H521 0.930 . S
C530 C528 1.378 . S
C530 C531 1.367 . S
C531 C530 1.367 . S
C531 C533 1.433 . S
C532 C528 1.350 . S
C532 C529 1.463 . S
C532 N536 1.427 . S
C533 H523 0.929 1_554 S
C533 C531 1.433 . S
C533 N536 1.384 . S
C534 H525 0.929 . S
C534 C526 1.378 . S
C534 C529 1.350 . S
C535 H522 0.929 . S
C535 C527 1.433 . S
C535 N537 1.384 . S
N536 C532 1.427 . S
N536 C533 1.384 . S
N537 C529 1.427 . S
N537 C535 1.384 . S
H538 C544 0.930 . S
H539 C548 0.930 . S
H540 C553 0.929 . S
H541 C551 0.929 . S
H542 C546 0.929 . S
H543 C552 0.929 . S
C544 H538 0.930 . S
C544 C545 1.361 1_565 S
C544 C552 1.378 . S
C545 C544 1.361 1_545 S
C545 C553 1.438 . S
C546 H542 0.929 . S
C546 C548 1.378 1_554 S
C546 C550 1.350 . S
C547 C550 1.463 . S
C547 C552 1.350 1_545 S
C547 N555 1.427 . S
C548 H539 0.930 . S
C548 C546 1.378 1_556 S
C548 C549 1.367 . S
C549 C548 1.367 . S
C549 C551 1.433 1_545 S
C550 C546 1.350 . S
C550 C547 1.463 . S
C550 N554 1.427 1_544 S
C551 H541 0.929 . S
C551 C549 1.433 1_565 S
C551 N554 1.384 . S
C552 H543 0.929 . S
C552 C544 1.378 . S
C552 C547 1.350 1_565 S
C553 H540 0.929 . S
C553 C545 1.438 . S
C553 N555 1.384 . S
N554 C550 1.427 1_566 S
N554 C551 1.384 . S
N555 C547 1.427 . S
N555 C553 1.384 . S
H556 C562 0.930 . S
H557 C566 0.930 . S
H558 C571 0.929 . S
H559 C569 0.929 . S
H560 C564 0.929 . S
H561 C570 0.929 . S
C562 H556 0.930 . S
C562 C563 1.367 . S
C562 C570 1.378 . S
C563 C562 1.367 . S
C563 C571 1.433 . S
C564 H560 0.929 . S
C564 C566 1.378 . S
C564 C568 1.350 1_556 S
C565 C568 1.463 . S
C565 C570 1.350 . S
C565 N573 1.427 . S
C566 H557 0.930 . S
C566 C564 1.378 . S
C566 C567 1.367 . S
C567 C566 1.367 . S
C567 C569 1.433 . S
C568 C564 1.350 1_554 S
C568 C565 1.463 . S
C568 N572 1.427 . S
C569 H559 0.929 . S
C569 C567 1.433 . S
C569 N572 1.384 1_556 S
C570 H561 0.929 . S
C570 C562 1.378 . S
C570 C565 1.350 . S
C571 H558 0.929 . S
C571 C563 1.433 . S
C571 N573 1.384 . S
N572 C568 1.427 . S
N572 C569 1.384 1_554 S
N573 C565 1.427 . S
N573 C571 1.384 . S
H574 C580 0.930 . S
H575 C584 0.930 . S
H576 C589 0.929 . S
H577 C587 0.929 . S
H578 C582 0.929 . S
H579 C588 0.929 . S
C580 H574 0.930 . S
C580 C581 1.367 . S
C580 C588 1.378 . S
C581 C580 1.367 . S
C581 C589 1.433 . S
C582 H578 0.929 . S
C582 C584 1.378 . S
C582 C586 1.350 . S
C583 C586 1.463 1_554 S
C583 C588 1.350 . S
C583 N591 1.427 . S
C584 H575 0.930 . S
C584 C582 1.378 . S
C584 C585 1.367 . S
C585 C584 1.367 . S
C585 C587 1.433 . S
C586 C582 1.350 . S
C586 C583 1.463 1_556 S
C586 N590 1.427 1_556 S
C587 H577 0.929 . S
C587 C585 1.433 . S
C587 N590 1.384 1_556 S
C588 H579 0.929 . S
C588 C580 1.378 . S
C588 C583 1.350 . S
C589 H576 0.929 . S
C589 C581 1.433 . S
C589 N591 1.384 . S
N590 C586 1.427 1_554 S
N590 C587 1.384 1_554 S
N591 C583 1.427 . S
N591 C589 1.384 . S
H592 C598 0.930 . S
H593 C602 0.930 . S
H594 C607 0.926 1_455 S
H595 C605 0.929 . S
H596 C600 0.929 1_455 S
H597 C606 0.929 . S
C598 H592 0.930 . S
C598 C599 1.367 . S
C598 C606 1.378 . S
C599 C598 1.367 . S
C599 C607 1.433 . S
C600 H596 0.929 1_655 S
C600 C602 1.378 1_655 S
C600 C604 1.350 . S
C601 C604 1.463 . S
C601 C606 1.350 . S
C601 N609 1.427 . S
C602 H593 0.930 . S
C602 C600 1.378 1_455 S
C602 C603 1.367 1_455 S
C603 C602 1.367 1_655 S
C603 C605 1.433 . S
C604 C600 1.350 . S
C604 C601 1.463 . S
C604 N608 1.427 . S
C605 H595 0.929 . S
C605 C603 1.433 . S
C605 N608 1.384 . S
C606 H597 0.929 . S
C606 C598 1.378 . S
C606 C601 1.350 . S
C607 H594 0.926 1_655 S
C607 C599 1.433 . S
C607 N609 1.384 . S
N608 C604 1.427 . S
N608 C605 1.384 . S
N609 C601 1.427 . S
N609 C607 1.384 . S
H610 C616 0.930 . S
H611 C620 0.930 . S
H612 C625 0.929 . S
H613 C623 0.929 . S
H614 C618 0.929 . S
H615 C624 0.929 . S
C616 H610 0.930 . S
C616 C617 1.392 . S
C616 C624 1.378 . S
C617 C616 1.392 . S
C617 C625 1.407 1_565 S
C618 H614 0.929 . S
C618 C620 1.378 . S
C618 C622 1.350 1_545 S
C619 C622 1.463 . S
C619 C624 1.350 . S
C619 N627 1.427 1_565 S
C620 H611 0.930 . S
C620 C618 1.378 . S
C620 C621 1.367 1_545 S
C621 C620 1.367 1_565 S
C621 C623 1.433 . S
C622 C618 1.350 1_565 S
C622 C619 1.463 . S
C622 N626 1.427 . S
C623 H613 0.929 . S
C623 C621 1.433 . S
C623 N626 1.384 . S
C624 H615 0.929 . S
C624 C616 1.378 . S
C624 C619 1.350 . S
C625 H612 0.929 . S
C625 C617 1.407 1_545 S
C625 N627 1.384 . S
N626 C622 1.427 . S
N626 C623 1.384 . S
N627 C619 1.427 1_545 S
N627 C625 1.384 . S
H628 C634 0.930 . S
H629 C638 0.930 . S
H630 C643 0.929 . S
H631 C641 0.929 . S
H632 C636 0.929 . S
H633 C642 0.929 . S
C634 H628 0.930 . S
C634 C635 1.367 . S
C634 C642 1.378 . S
C635 C634 1.367 . S
C635 C643 1.433 . S
C636 H632 0.929 . S
C636 C638 1.378 . S
C636 C640 1.350 . S
C637 C640 1.463 . S
C637 C642 1.350 . S
C637 N645 1.427 . S
C638 H629 0.930 . S
C638 C636 1.378 . S
C638 C639 1.367 . S
C639 C638 1.367 . S
C639 C641 1.433 . S
C640 C636 1.350 . S
C640 C637 1.463 . S
C640 N644 1.427 . S
C641 H631 0.929 . S
C641 C639 1.433 . S
C641 N644 1.384 . S
C642 H633 0.929 . S
C642 C634 1.378 . S
C642 C637 1.350 . S
C643 H630 0.929 . S
C643 C635 1.433 . S
C643 N645 1.384 . S
N644 C640 1.427 . S
N644 C641 1.384 . S
N645 C637 1.427 . S
N645 C643 1.384 . S
H646 C652 0.930 . S
H647 C656 0.930 . S
H648 C661 0.929 . S
H649 C659 0.929 . S
H650 C654 0.929 . S
H651 C660 0.929 . S
C652 H646 0.930 . S
C652 C653 1.367 . S
C652 C660 1.378 . S
C653 C652 1.367 . S
C653 C661 1.433 . S
C654 H650 0.929 . S
C654 C656 1.378 . S
C654 C658 1.350 . S
C655 C658 1.463 . S
C655 C660 1.350 . S
C655 N663 1.427 . S
C656 H647 0.930 . S
C656 C654 1.378 . S
C656 C657 1.367 . S
C657 C656 1.367 . S
C657 C659 1.433 . S
C658 C654 1.350 . S
C658 C655 1.463 . S
C658 N662 1.427 . S
C659 H649 0.929 . S
C659 C657 1.433 . S
C659 N662 1.384 . S
C660 H651 0.929 . S
C660 C652 1.378 . S
C660 C655 1.350 . S
C661 H648 0.929 . S
C661 C653 1.433 . S
C661 N663 1.384 . S
N662 C658 1.427 . S
N662 C659 1.384 . S
N663 C655 1.427 . S
N663 C661 1.384 . S
C239 C76 1.840 . S
C243 C113 1.879 . S
C261 C134 1.545 . S
C257 C88 1.505 . S
C279 C168 1.382 . S
C275 C52 1.337 . S
C297 C202 1.544 . S
C293 C64 1.514 . S
C315 C104 1.880 . S
C311 C28 1.847 1_546 S
C329 C40 1.515 . S
C333 C143 1.549 . S
C347 C4 1.339 . S
C351 C177 1.382 . S
C365 C16 1.526 . S
C369 C211 1.546 1_655 S
C387 C125 0.510 . S
C383 C69 0.589 . S
C405 C130 0.982 . S
C401 C81 0.961 . S
C423 C164 0.901 . S
C419 C93 0.900 . S
C437 C57 0.418 . S
C441 C198 0.396 . S
C455 C21 0.567 . S
C459 C96 0.500 . S
C477 C159 0.986 . S
C473 C33 0.967 1_565 S
C495 C193 0.908 . S
C491 C45 0.905 . S
C509 C9 0.424 . S
C513 C227 0.394 . S
C527 C66 1.305 . S
C531 C109 1.330 . S
C545 C78 1.721 . S
C549 C138 1.763 . S
C567 C172 1.555 . S
C563 C90 1.519 . S
C585 C206 1.616 . S
C581 C54 1.562 . S
C599 C18 1.289 . S
C603 C100 1.330 . S
C621 C147 1.761 . S
C617 C30 1.723 1_565 S
C639 C181 1.552 . S
C635 C42 1.516 . S
C653 C6 1.567 . S
C657 C215 1.617 . S
