# Generated by pormake.
# Topology pth, (4,4)-cn, num edge types: 1
# Building blocks:
#     Node 0, Type 0, BuildingBlock: KUFVIS_clean_sbu_0, # of connection points: 4
#     Node 1, Type 0, BuildingBlock: KUFVIS_clean_sbu_0, # of connection points: 4
#     Node 2, Type 0, BuildingBlock: KUFVIS_clean_sbu_0, # of connection points: 4
#     Node 3, Type 1, BuildingBlock: NAWXER_clean_linker_0, # of connection points: 4
#     Node 4, Type 1, BuildingBlock: NAWXER_clean_linker_0, # of connection points: 4
#     Node 5, Type 1, BuildingBlock: NAWXER_clean_linker_0, # of connection points: 4
#     Edge 6, Type (0, 1), BuildingBlock: XUDNAN_clean_linker_2, # of connection points: 2
#     Edge 7, Type (0, 1), BuildingBlock: XUDNAN_clean_linker_2, # of connection points: 2
#     Edge 8, Type (0, 1), BuildingBlock: XUDNAN_clean_linker_2, # of connection points: 2
#     Edge 9, Type (0, 1), BuildingBlock: XUDNAN_clean_linker_2, # of connection points: 2
#     Edge 10, Type (0, 1), BuildingBlock: XUDNAN_clean_linker_2, # of connection points: 2
#     Edge 11, Type (0, 1), BuildingBlock: XUDNAN_clean_linker_2, # of connection points: 2
#     Edge 12, Type (0, 1), BuildingBlock: XUDNAN_clean_linker_2, # of connection points: 2
#     Edge 13, Type (0, 1), BuildingBlock: XUDNAN_clean_linker_2, # of connection points: 2
#     Edge 14, Type (0, 1), BuildingBlock: XUDNAN_clean_linker_2, # of connection points: 2
#     Edge 15, Type (0, 1), BuildingBlock: XUDNAN_clean_linker_2, # of connection points: 2
#     Edge 16, Type (0, 1), BuildingBlock: XUDNAN_clean_linker_2, # of connection points: 2
#     Edge 17, Type (0, 1), BuildingBlock: XUDNAN_clean_linker_2, # of connection points: 2
# Relax obj value: 0.011
# Max RMSD: 0.077
# Mean RMSD: 0.050
data_MOF--net-pth--node1-KUFVIS_clean_sbu_0--node2-NAWXER_clean_linker_0--edge1-XUDNAN_clean_linker_2
_symmetry_space_group_name_H-M    P1
_symmetry_Int_Tables_number       1
_symmetry_cell_setting            triclinic
loop_
_symmetry_equiv_pos_as_xyz
'x, y, z'
_cell_length_a     28.482481
_cell_length_b     28.564451
_cell_length_c     65.638652
_cell_angle_alpha  90.381918
_cell_angle_beta   91.780965
_cell_angle_gamma 120.20443
loop_
_atom_site_label
_atom_site_type_symbol
_atom_site_fract_x
_atom_site_fract_y
_atom_site_fract_z
_atom_type_partial_charge
Mn0 Mn 0.0448 0.05876 0.05172 0.0
Mn1 Mn 0.99246 0.12237 0.02421 0.0
C2 C 0.98203 0.01257 0.02529 0.0
C3 C 0.04198 0.00938 0.08017 0.0
C4 C 0.10711 0.14237 0.01978 0.0
O5 O 0.06388 0.12542 0.06926 0.0
O6 O 0.01877 0.15916 0.05155 0.0
C7 C 0.897 0.09702 0.0485 0.0
N8 N 0.91822 0.09569 0.03035 0.0
C9 C 0.82969 0.05254 0.01342 0.0
C10 C 0.80699 0.05408 0.03189 0.0
C11 C 0.84079 0.07627 0.04952 0.0
C12 C 0.88607 0.07434 0.0133 0.0
H13 H 0.92276 0.11354 0.06212 0.0
C14 C 0.04709 0.15905 0.06713 0.0
O15 O 0.08664 0.03736 0.07058 0.0
O16 O 0.99937 0.01063 0.07343 0.0
N17 N 0.96484 0.0903 0.99765 0.0
C18 C 0.99237 0.0871 0.98159 0.0
C19 C 0.96405 0.06341 0.96303 0.0
C20 C 0.90782 0.04342 0.96115 0.0
C21 C 0.88035 0.0471 0.97789 0.0
C22 C 0.91079 0.07155 0.99596 0.0
H23 H 0.0355 0.10206 0.98298 0.0
O24 O 0.01415 0.99573 0.032 0.0
O25 O 0.98732 0.05565 0.0344 0.0
O26 O 0.10359 0.10645 0.03208 0.0
O27 O 0.06866 0.15234 0.01626 0.0
C28 C 0.82374 0.02613 0.97753 0.0
C29 C 0.79843 0.02884 0.99528 0.0
H30 H 0.76358 0.03766 0.03278 0.0
H31 H 0.8235 0.07714 0.06387 0.0
H32 H 0.98546 0.06031 0.95023 0.0
H33 H 0.88602 0.02472 0.94687 0.0
H34 H 0.79913 0.00686 0.96379 0.0
H35 H 0.75474 0.01164 0.99492 0.0
Mn36 Mn 0.02097 0.05345 0.38785 0.0
Mn37 Mn 0.06979 0.17223 0.41377 0.0
C38 C 0.06761 0.06677 0.41863 0.0
C39 C 0.03433 1.00378 0.36262 0.0
C40 C 0.95154 0.08269 0.41392 0.0
O41 O 0.01559 0.10244 0.36681 0.0
O42 O 0.0534 0.18113 0.38477 0.0
C43 C 0.1736 0.23291 0.39284 0.0
N44 N 0.14644 0.21359 0.41033 0.0
C45 C 0.23023 0.25275 0.43043 0.0
C46 C 0.25912 0.2733 0.41265 0.0
C47 C 0.23067 0.26315 0.39377 0.0
C48 C 0.17343 0.22237 0.42853 0.0
H49 H 0.1519 0.22526 0.37829 0.0
C50 C 0.03207 0.15291 0.36831 0.0
O51 O 0.98562 0.98996 0.36811 0.0
O52 O 0.0743 0.04643 0.37152 0.0
N53 N 0.08799 0.17065 0.44197 0.0
C54 C 0.05402 0.14979 0.45777 0.0
C55 C 0.07606 0.15642 0.47773 0.0
C56 C 0.13271 0.18527 0.48128 0.0
C57 C 0.16679 0.20798 0.46486 0.0
C58 C 0.14249 0.20006 0.4453 0.0
H59 H 0.01043 0.12794 0.45517 0.0
O60 O 0.03664 0.01824 0.41106 0.0
O61 O 0.07193 0.10628 0.40756 0.0
O62 O 0.95603 0.04852 0.40263 0.0
O63 O 0.99105 0.13033 0.41844 0.0
C64 C 0.22387 0.23879 0.46715 0.0
C65 C 0.25556 0.26125 0.44995 0.0
H66 H 0.30313 0.29682 0.41332 0.0
H67 H 0.25267 0.27872 0.37997 0.0
H68 H 0.04946 0.13933 0.49035 0.0
H69 H 0.14957 0.19021 0.49669 0.0
H70 H 0.24384 0.2455 0.48208 0.0
H71 H 0.29943 0.28473 0.4519 0.0
Mn72 Mn 0.03728 0.07133 0.72016 0.0
Mn73 Mn 0.99077 0.14058 0.74585 0.0
C74 C 0.07995 0.11408 0.75091 0.0
C75 C 0.09271 0.0752 0.69393 0.0
C76 C 0.93404 0.01728 0.74329 0.0
O77 O 0.98529 0.07799 0.69982 0.0
O78 O 0.97381 0.14098 0.71624 0.0
C79 C 0.06097 0.25139 0.73104 0.0
N80 N 0.04218 0.21649 0.74674 0.0
C81 C 0.09239 0.28892 0.77142 0.0
C82 C 0.11188 0.32577 0.75553 0.0
C83 C 0.09646 0.30684 0.73524 0.0
C84 C 0.05775 0.2341 0.76628 0.0
H85 H 0.04879 0.23701 0.71544 0.0
C86 C 0.96839 0.11173 0.70046 0.0
O87 O 0.05314 0.02886 0.69964 0.0
O88 O 0.09949 0.11812 0.70341 0.0
N89 N 1.00504 0.14352 0.77468 0.0
C90 C 0.98283 0.10275 0.78826 0.0
C91 C 0.99575 0.11468 0.80917 0.0
C92 C 0.03059 0.16846 0.81595 0.0
C93 C 0.05206 0.20986 0.80174 0.0
C94 C 0.03804 0.1955 0.78108 0.0
H95 H 0.95548 0.06141 0.78323 0.0
O96 O 0.08845 0.07731 0.74309 0.0
O97 O 0.04861 0.12581 0.74007 0.0
O98 O 0.97194 0.0129 0.73516 0.0
O99 O 0.93586 0.06253 0.7462 0.0
C100 C 0.08643 0.26489 0.80729 0.0
C101 C 0.10611 0.30443 0.79216 0.0
H102 H 0.13905 0.3686 0.75872 0.0
H103 H 0.11159 0.33497 0.72288 0.0
H104 H 0.97873 0.08251 0.82005 0.0
H105 H 0.04038 0.17752 0.83209 0.0
H106 H 0.09785 0.27726 0.82315 0.0
H107 H 0.13239 0.34663 0.79662 0.0
C108 C 0.98948 0.38828 0.24819 0.0
C109 C 0.02536 0.39864 0.2651 0.0
C110 C 0.99341 0.43083 0.23652 0.0
C111 C 0.03328 0.48458 0.2415 0.0
C112 C 0.06486 0.45273 0.27012 0.0
C113 C 0.06839 0.4952 0.25856 0.0
C114 C 0.03796 0.53013 0.2294 0.0
C115 C 0.08802 0.43517 0.18941 0.0
C116 C 0.06332 0.42076 0.16968 0.0
C117 C 0.08214 0.47171 0.20184 0.0
C118 C 0.04929 0.49295 0.1953 0.0
C119 C 0.03192 0.44357 0.16295 0.0
C120 C 0.02473 0.47877 0.17563 0.0
C121 C 0.04333 0.53297 0.20796 0.0
C122 C 0.07969 0.7345 0.17434 0.0
C123 C 0.03371 0.74079 0.17499 0.0
C124 C 0.08122 0.69259 0.18469 0.0
C125 C 0.03763 0.65722 0.19642 0.0
C126 C 0.98929 0.70361 0.18623 0.0
C127 C 0.99154 0.66275 0.19701 0.0
C128 C 0.04062 0.61517 0.20839 0.0
C129 C 0.01007 0.68919 0.27109 0.0
C130 C 0.0492 0.74345 0.26756 0.0
C131 C 1.00608 0.6472 0.25864 0.0
C132 C 0.0408 0.65864 0.24235 0.0
C133 C 0.08348 0.75465 0.2511 0.0
C134 C 0.07988 0.71278 0.23887 0.0
C135 C 0.0385 0.61399 0.22985 0.0
H136 H 0.95785 0.34735 0.24409 0.0
H137 H 0.96512 0.42182 0.22366 0.0
H138 H 0.09375 0.46236 0.2828 0.0
H139 H 0.09934 0.53642 0.26271 0.0
H140 H 0.11211 0.41841 0.19539 0.0
H141 H 0.1041 0.48377 0.21644 0.0
H142 H 0.01349 0.4352 0.14772 0.0
H143 H 1.00011 0.4953 0.16994 0.0
H144 H 0.11514 0.76251 0.16622 0.0
H145 H 0.11722 0.68894 0.18413 0.0
H146 H 0.95241 0.70564 0.18668 0.0
H147 H 0.95716 0.63526 0.20578 0.0
H148 H 0.98354 0.679 0.2838 0.0
H149 H 0.97609 0.60571 0.26182 0.0
H150 H 0.11371 0.79589 0.24775 0.0
H151 H 0.10869 0.7229 0.22698 0.0
N152 N 0.03661 0.57116 0.2395 0.0
N153 N 0.04365 0.57517 0.19832 0.0
C154 C 0.67909 0.08177 0.51632 0.0
C155 C 0.65841 0.04077 0.50097 0.0
C156 C 0.64428 0.0863 0.52975 0.0
C157 C 0.58817 0.04888 0.5286 0.0
C158 C 0.60195 0.00452 0.49949 0.0
C159 C 0.56739 0.0085 0.51314 0.0
C160 C 0.54991 0.05296 0.54236 0.0
C161 C 0.67558 0.04408 0.58428 0.0
C162 C 0.70327 0.08993 0.5974 0.0
C163 C 0.62827 0.03396 0.57323 0.0
C164 C 0.6082 0.06975 0.57507 0.0
C165 C 0.68204 0.12466 0.59952 0.0
C166 C 0.6351 0.11461 0.58854 0.0
C167 C 0.55844 0.06093 0.56378 0.0
C168 C 0.34074 0.02593 0.58955 0.0
C169 C 0.35826 0.06935 0.60362 0.0
C170 C 0.37833 0.02151 0.57763 0.0
C171 C 0.434 0.06043 0.57963 0.0
C172 C 0.41421 0.10674 0.60622 0.0
C173 C 0.45172 0.10206 0.59445 0.0
C174 C 0.47394 0.05901 0.56608 0.0
C175 C 0.36741 0.10021 0.52848 0.0
C176 C 0.3392 0.06473 0.51195 0.0
C177 C 0.40968 0.09777 0.5388 0.0
C178 C 0.42297 0.05821 0.53334 0.0
C179 C 0.35411 0.02708 0.50572 0.0
C180 C 0.39562 0.02373 0.51638 0.0
C181 C 0.46699 0.05449 0.5446 0.0
H182 H 0.72226 0.11033 0.51809 0.0
H183 H 0.66135 0.11933 0.54093 0.0
H184 H 0.58409 0.97337 0.48759 0.0
H185 H 0.52413 0.97985 0.51161 0.0
H186 H 0.6908 0.01646 0.58237 0.0
H187 H 0.60746 0.99834 0.56329 0.0
H188 H 0.70143 0.15953 0.60988 0.0
H189 H 0.62001 0.14238 0.59045 0.0
H190 H 0.29788 0.99656 0.58725 0.0
H191 H 0.36385 0.98838 0.56655 0.0
H192 H 0.42891 0.14015 0.61718 0.0
H193 H 0.49447 0.13217 0.59642 0.0
H194 H 0.35699 0.13011 0.53328 0.0
H195 H 0.43192 0.12696 0.55106 0.0
H196 H 0.33285 0.99953 0.4929 0.0
H197 H 0.40583 0.9937 0.51157 0.0
N198 N 0.50458 0.05035 0.53367 0.0
N199 N 0.51989 0.06327 0.57474 0.0
C200 C 0.40116 0.36801 0.85859 0.0
C201 C 0.36876 0.3773 0.84448 0.0
C202 C 0.44654 0.41146 0.86847 0.0
C203 C 0.45987 0.46505 0.86469 0.0
C204 C 0.38274 0.43097 0.84046 0.0
C205 C 0.42791 0.47436 0.85042 0.0
C206 C 0.50801 0.51176 0.87487 0.0
C207 C 0.3956 0.43 0.92649 0.0
C208 C 0.41057 0.3968 0.93737 0.0
C209 C 0.43094 0.46792 0.9129 0.0
C210 C 0.48242 0.47429 0.91015 0.0
C211 C 0.46238 0.40336 0.93437 0.0
C212 C 0.4982 0.4423 0.92114 0.0
C213 C 0.51985 0.51501 0.89602 0.0
C214 C 0.67202 0.745 0.91506 0.0
C215 C 0.71113 0.74308 0.92805 0.0
C216 C 0.63676 0.70019 0.90262 0.0
C217 C 0.63962 0.65256 0.9032 0.0
C218 C 0.71525 0.69611 0.92805 0.0
C219 C 0.67923 0.6509 0.91593 0.0
C220 C 0.59757 0.60279 0.8924 0.0
C221 C 0.7049 0.71424 0.84425 0.0
C222 C 0.67764 0.72367 0.82794 0.0
C223 C 0.67579 0.67406 0.85835 0.0
C224 C 0.61864 0.64334 0.85677 0.0
C225 C 0.62065 0.69142 0.82604 0.0
C226 C 0.59166 0.65219 0.84029 0.0
C227 C 0.58606 0.59953 0.87113 0.0
H228 H 0.39205 0.32715 0.86171 0.0
H229 H 0.47163 0.40308 0.87879 0.0
H230 H 0.35834 0.43945 0.82979 0.0
H231 H 0.43754 0.51531 0.84714 0.0
H232 H 0.35692 0.42753 0.92864 0.0
H233 H 0.41837 0.49285 0.90471 0.0
H234 H 0.4753 0.3781 0.94205 0.0
H235 H 0.53783 0.44668 0.91916 0.0
H236 H 0.66805 0.78077 0.91487 0.0
H237 H 0.60586 0.70194 0.89316 0.0
H238 H 0.74468 0.69351 0.93812 0.0
H239 H 0.68158 0.61427 0.91675 0.0
H240 H 0.7487 0.73816 0.84628 0.0
H241 H 0.69824 0.66676 0.87027 0.0
H242 H 0.59811 0.69606 0.8134 0.0
H243 H 0.54777 0.62864 0.83837 0.0
N244 N 0.54153 0.55409 0.86331 0.0
N245 N 0.56417 0.56027 0.90398 0.0
H246 H 0.98595 0.20322 0.07871 0.0
H247 H 0.13666 0.20532 0.09322 0.0
H248 H 0.15792 0.27305 0.12096 0.0
H249 H 0.03324 0.34362 0.08873 0.0
H250 H 0.97154 0.33144 0.10021 0.0
H251 H 0.96926 0.28463 0.08115 0.0
H252 H 0.92242 0.20577 0.10619 0.0
H253 H 0.92436 0.25229 0.12531 0.0
H254 H 0.95423 0.21099 0.13094 0.0
H255 H 0.16432 0.34401 0.14596 0.0
H256 H 0.15247 0.40667 0.16816 0.0
H257 H 0.99209 0.34928 0.13975 0.0
C258 C 0.02355 0.21809 0.08766 0.0
C259 C 0.05994 0.19943 0.08373 0.0
C260 C 0.10829 0.21919 0.09599 0.0
C261 C 0.12074 0.25771 0.11172 0.0
C262 C 0.0839 0.27522 0.1152 0.0
C263 C 0.03594 0.25546 0.1037 0.0
C264 C 1.00215 0.27904 0.11109 0.0
C265 C 0.99356 0.31162 0.09429 0.0
C266 C 0.94757 0.23436 0.11884 0.0
C267 C 0.03891 0.31574 0.12839 0.0
C268 C 0.08608 0.31341 0.13039 0.0
C269 C 0.12709 0.34545 0.14477 0.0
C270 C 0.11962 0.38067 0.15749 0.0
C271 C 0.07097 0.38303 0.15608 0.0
C272 C 0.03015 0.34956 0.14128 0.0
H273 H 0.92138 0.14696 0.4343 0.0
H274 H 0.86356 0.97961 0.41612 0.0
H275 H 0.78097 0.95076 0.43565 0.0
H276 H 0.87812 0.12229 0.48459 0.0
H277 H 0.8584 0.17313 0.48549 0.0
H278 H 0.9111 0.18109 0.46898 0.0
H279 H 0.85808 0.19 0.43786 0.0
H280 H 0.80546 0.18271 0.45432 0.0
H281 H 0.78853 0.13783 0.43244 0.0
H282 H 0.70866 0.93972 0.45969 0.0
H283 H 0.649 0.94761 0.48414 0.0
H284 H 0.75218 0.1229 0.48497 0.0
C285 C 0.8911 0.10425 0.43414 0.0
C286 C 0.8991 0.06557 0.42362 0.0
C287 C 0.85834 0.01011 0.42392 0.0
C288 C 0.81135 0.99329 0.43505 0.0
C289 C 0.80548 0.03245 0.44561 0.0
C290 C 0.84394 0.08685 0.44502 0.0
C291 C 0.82863 0.12076 0.45801 0.0
C292 C 0.87162 0.15109 0.47529 0.0
C293 C 0.81963 0.16014 0.44487 0.0
C294 C 0.77582 0.07687 0.46626 0.0
C295 C 0.76324 0.02621 0.45899 0.0
C296 C 0.71761 0.97928 0.46519 0.0
C297 C 0.68373 0.98429 0.47903 0.0
C298 C 0.69522 0.03595 0.48646 0.0
C299 C 0.7421 0.0827 0.47985 0.0
H300 H 0.92959 0.92885 0.76187 0.0
H301 H 0.83108 0.99865 0.74303 0.0
H302 H 0.75368 0.92783 0.76106 0.0
H303 H 0.81693 0.78394 0.75983 0.0
H304 H 0.84342 0.76763 0.78227 0.0
H305 H 0.88913 0.81948 0.76564 0.0
H306 H 0.92838 0.88747 0.79634 0.0
H307 H 0.88222 0.83621 0.81299 0.0
H308 H 0.88319 0.89963 0.81119 0.0
H309 H 0.6917 0.85861 0.78437 0.0
H310 H 0.64449 0.78867 0.80957 0.0
H311 H 0.78008 0.75908 0.81291 0.0
C312 C 0.8911 0.92792 0.76099 0.0
C313 C 0.88605 0.96887 0.75091 0.0
C314 C 0.83565 0.96751 0.75061 0.0
C315 C 0.79147 0.92748 0.7608 0.0
C316 C 0.79822 0.88893 0.77125 0.0
C317 C 0.84637 0.88816 0.77125 0.0
C318 C 0.84345 0.84408 0.78489 0.0
C319 C 0.84852 0.80123 0.77241 0.0
C320 C 0.88689 0.86832 0.80239 0.0
C321 C 0.78664 0.82117 0.79279 0.0
C322 C 0.76146 0.84775 0.78466 0.0
C323 C 0.71034 0.83644 0.79047 0.0
C324 C 0.68368 0.79627 0.80477 0.0
C325 C 0.70775 0.76716 0.81305 0.0
C326 C 0.76024 0.78024 0.80695 0.0
H327 H 0.09345 0.95116 0.08551 0.0
H328 H 0.98156 0.99068 0.11361 0.0
H329 H 0.97183 0.93054 0.14212 0.0
H330 H 0.0189 0.8114 0.09651 0.0
H331 H 0.07789 0.80446 0.10086 0.0
H332 H 0.081 0.85522 0.08396 0.0
H333 H 0.16377 0.92956 0.10513 0.0
H334 H 0.16089 0.87895 0.12212 0.0
H335 H 0.15831 0.93647 0.13215 0.0
H336 H 0.97427 0.86614 0.16738 0.0
H337 H 0.9814 0.7957 0.18614 0.0
H338 H 0.08277 0.78943 0.1392 0.0
C339 C 0.06778 0.94785 0.0979 0.0
C340 C 0.0389 0.97604 0.09766 0.0
C341 C 1.00429 0.9696 0.11371 0.0
C342 C 0.99868 0.93574 0.12995 0.0
C343 C 0.02721 0.90792 0.12966 0.0
C344 C 0.06058 0.91306 0.11395 0.0
C345 C 0.08282 0.87501 0.11641 0.0
C346 C 0.064 0.8341 0.09837 0.0
C347 C 0.14515 0.90691 0.11912 0.0
C348 C 0.05656 0.84756 0.13591 0.0
C349 C 0.02548 0.86785 0.14348 0.0
C350 C 0.99797 0.84944 0.16147 0.0
C351 C 1.00182 0.80879 0.17191 0.0
C352 C 0.03194 0.78578 0.16413 0.0
C353 C 0.05983 0.80604 0.14587 0.0
H354 H 0.17644 0.10677 0.41942 0.0
H355 H 0.03617 0.03609 0.4571 0.0
H356 H 0.09329 0.03585 0.48628 0.0
H357 H 0.22037 0.01949 0.43693 0.0
H358 H 0.29213 0.06679 0.43552 0.0
H359 H 0.24442 0.07323 0.41885 0.0
H360 H 0.28017 0.17294 0.43226 0.0
H361 H 0.33049 0.16572 0.44702 0.0
H362 H 0.28785 0.18571 0.4595 0.0
H363 H 0.16485 0.04068 0.51086 0.0
H364 H 0.243 0.03956 0.52804 0.0
H365 H 0.33295 0.09386 0.4728 0.0
C366 C 0.15858 0.09337 0.43411 0.0
C367 C 0.10288 0.07432 0.43658 0.0
C368 C 0.07942 0.05302 0.45538 0.0
C369 C 0.11148 0.05266 0.47194 0.0
C370 C 0.1664 0.07156 0.46909 0.0
C371 C 0.18964 0.09068 0.45054 0.0
C372 C 0.24693 0.09986 0.45047 0.0
C373 C 0.25117 0.06262 0.4345 0.0
C374 C 0.28876 0.15964 0.44708 0.0
C375 C 0.25246 0.08368 0.47194 0.0
C376 C 0.20591 0.06848 0.48253 0.0
C377 C 0.20148 0.0524 0.50272 0.0
C378 C 0.24584 0.05185 0.51234 0.0
C379 C 0.29333 0.06625 0.50161 0.0
C380 C 0.2967 0.0823 0.48119 0.0
H381 H 0.16305 0.21763 0.75021 0.0
H382 H 0.07669 0.08292 0.79011 0.0
H383 H 0.13902 0.13729 0.81907 0.0
H384 H 0.29228 0.24578 0.77187 0.0
H385 H 0.32558 0.31774 0.7681 0.0
H386 H 0.27006 0.27195 0.75111 0.0
H387 H 0.21466 0.32061 0.75935 0.0
H388 H 0.27481 0.36835 0.77394 0.0
H389 H 0.21058 0.33564 0.7858 0.0
H390 H 0.21093 0.20667 0.84346 0.0
H391 H 0.29162 0.2828 0.86103 0.0
H392 H 0.33734 0.3678 0.80401 0.0
C393 C 0.15659 0.20045 0.76523 0.0
C394 C 0.11378 0.1474 0.76841 0.0
C395 C 0.10823 0.12437 0.78777 0.0
C396 C 0.14344 0.15485 0.8042 0.0
C397 C 0.18527 0.20734 0.80067 0.0
C398 C 0.19267 0.22961 0.78156 0.0
C399 C 0.24527 0.28353 0.78114 0.0
C400 C 0.28567 0.27948 0.76724 0.0
C401 C 0.23556 0.32964 0.77464 0.0
C402 C 0.26415 0.28985 0.80331 0.0
C403 C 0.2293 0.24529 0.81428 0.0
C404 C 0.23861 0.24171 0.83502 0.0
C405 C 0.28464 0.285 0.84484 0.0
C406 C 0.32068 0.33125 0.83391 0.0
C407 C 0.31017 0.33335 0.81285 0.0
H408 H 0.88354 0.03164 0.67767 0.0
H409 H 0.98983 0.20574 0.6829 0.0
H410 H 0.93926 0.21764 0.65405 0.0
H411 H 0.8579 0.02085 0.62146 0.0
H412 H 0.78723 0.97015 0.62333 0.0
H413 H 0.83664 0.97443 0.64223 0.0
H414 H 0.78088 0.98377 0.67078 0.0
H415 H 0.73142 0.97956 0.65201 0.0
H416 H 0.76423 0.03684 0.66958 0.0
H417 H 0.8744 0.21146 0.62656 0.0
H418 H 0.79502 0.18874 0.60381 0.0
H419 H 0.72569 0.01872 0.61781 0.0
C420 C 0.89687 0.07204 0.67229 0.0
C421 C 0.94103 0.11784 0.68214 0.0
C422 C 0.95636 0.17029 0.67534 0.0
C423 C 0.92806 0.17735 0.65894 0.0
C424 C 0.88407 0.13153 0.64971 0.0
C425 C 0.86817 0.07987 0.6562 0.0
C426 C 0.81577 0.03814 0.64517 0.0
C427 C 0.82496 0.99855 0.63228 0.0
C428 C 0.77041 0.00782 0.66029 0.0
C429 C 0.80425 0.07457 0.63177 0.0
C430 C 0.84478 0.12813 0.6344 0.0
C431 C 0.84246 0.16967 0.62433 0.0
C432 C 0.79697 0.15636 0.61155 0.0
C433 C 0.75383 0.10201 0.60914 0.0
C434 C 0.75824 0.06052 0.61911 0.0
H435 H 0.98141 0.96008 0.99022 0.0
H436 H 0.87641 0.97965 0.03144 0.0
H437 H 0.7962 0.9181 0.00944 0.0
H438 H 0.90586 0.94603 0.94209 0.0
H439 H 0.91775 0.8941 0.93226 0.0
H440 H 0.96632 0.94481 0.95013 0.0
H441 H 0.95725 0.86737 0.9734 0.0
H442 H 0.90755 0.81734 0.95567 0.0
H443 H 0.89112 0.81805 0.98192 0.0
H444 H 0.7281 0.85633 0.98266 0.0
H445 H 0.67434 0.78663 0.95587 0.0
H446 H 0.82224 0.79956 0.93381 0.0
C447 C 0.9415 0.95201 0.99432 0.0
C448 C 0.93496 0.97698 0.01175 0.0
C449 C 0.88219 0.96329 0.01743 0.0
C450 C 0.8365 0.9281 0.00513 0.0
C451 C 0.84435 0.90575 0.98755 0.0
C452 C 0.89536 0.91621 0.98235 0.0
C453 C 0.89188 0.88264 0.96377 0.0
C454 C 0.92228 0.9191 0.94602 0.0
C455 C 0.9132 0.84406 0.96901 0.0
C456 C 0.831 0.85182 0.95933 0.0
C457 C 0.80451 0.86659 0.97301 0.0
C458 C 0.74829 0.84423 0.9719 0.0
C459 C 0.71818 0.80497 0.95661 0.0
C460 C 0.74428 0.78794 0.94287 0.0
C461 C 0.80142 0.8119 0.9442 0.0
H462 H 0.96089 0.90878 0.34167 0.0
H463 H 0.13309 0.02699 0.34959 0.0
H464 H 0.15438 0.9737 0.32606 0.0
H465 H 0.97514 0.79138 0.33955 0.0
H466 H 0.92222 0.75592 0.32013 0.0
H467 H 0.91922 0.80396 0.33717 0.0
H468 H 0.91292 0.85688 0.30632 0.0
H469 H 0.91557 0.80879 0.28918 0.0
H470 H 0.96422 0.88004 0.28749 0.0
H471 H 0.15857 0.90702 0.30334 0.0
H472 H 0.14504 0.83154 0.281 0.0
H473 H 0.97013 0.75638 0.28609 0.0
C474 C 1.00297 0.92357 0.3383 0.0
C475 C 0.04529 0.9721 0.34752 0.0
C476 C 0.09989 0.99001 0.34277 0.0
C477 C 0.11252 0.96 0.32941 0.0
C478 C 0.07014 0.91218 0.32078 0.0
C479 C 0.01643 0.89405 0.32485 0.0
C480 C 0.97904 0.8408 0.31352 0.0
C481 C 0.94702 0.79533 0.32849 0.0
C482 C 0.94068 0.84702 0.29822 0.0
C483 C 0.02033 0.83186 0.30268 0.0
C484 C 0.07255 0.87365 0.30716 0.0
C485 C 0.11783 0.87435 0.29945 0.0
C486 C 0.10963 0.83136 0.28664 0.0
C487 C 0.05648 0.78824 0.28146 0.0
C488 C 0.01128 0.78856 0.28975 0.0
H489 H 0.11281 0.9973 0.67767 0.0
H490 H 0.15722 0.16627 0.67362 0.0
H491 H 0.22548 0.18072 0.64869 0.0
H492 H 0.24636 0.01985 0.67578 0.0
H493 H 0.22907 0.96041 0.6604 0.0
H494 H 0.17942 0.96089 0.67658 0.0
H495 H 0.11219 0.93623 0.64549 0.0
H496 H 0.1616 0.93541 0.62921 0.0
H497 H 0.13329 0.97796 0.62335 0.0
H498 H 0.29328 0.18005 0.62658 0.0
H499 H 0.35654 0.1632 0.60738 0.0
H500 H 0.27055 0.99494 0.62496 0.0
C501 C 0.13622 0.03696 0.6712 0.0
C502 C 0.1296 0.08063 0.67758 0.0
C503 C 0.16161 0.13222 0.66903 0.0
C504 C 0.20045 0.14088 0.65479 0.0
C505 C 0.20694 0.09755 0.64914 0.0
C506 C 0.1757 0.04649 0.65692 0.0
C507 C 0.19343 0.00798 0.64891 0.0
C508 C 0.21325 0.98601 0.66646 0.0
C509 C 0.14738 0.96165 0.63596 0.0
C510 C 0.24004 0.04581 0.63581 0.0
C511 C 0.24673 0.09717 0.63614 0.0
C512 C 0.28828 0.13991 0.62603 0.0
C513 C 0.32422 0.13006 0.6153 0.0
C514 C 0.31853 0.07789 0.61475 0.0
C515 C 0.27547 0.03508 0.62498 0.0
H516 H 0.12229 0.19468 0.98359 0.0
H517 H 0.20901 0.16569 0.03285 0.0
H518 H 0.29611 0.22613 0.01685 0.0
H519 H 0.2091 0.19677 0.94336 0.0
H520 H 0.20422 0.24862 0.92957 0.0
H521 H 0.14896 0.20231 0.94479 0.0
H522 H 0.15401 0.28355 0.96463 0.0
H523 H 0.20956 0.33008 0.94961 0.0
H524 H 0.21744 0.33317 0.97702 0.0
H525 H 0.374 0.29573 0.99688 0.0
H526 H 0.43643 0.36266 0.97309 0.0
H527 H 0.29794 0.3388 0.93505 0.0
C528 C 0.15955 0.2007 0.99095 0.0
C529 C 0.15888 0.17556 0.0095 0.0
C530 C 0.20853 0.18429 0.01858 0.0
C531 C 0.25819 0.2187 0.00965 0.0
C532 C 0.25742 0.24329 0.99146 0.0
C533 C 0.20932 0.23402 0.98205 0.0
C534 C 0.21959 0.26492 0.96247 0.0
C535 C 0.19396 0.22582 0.94395 0.0
C536 C 0.19893 0.30533 0.96351 0.0
C537 C 0.28109 0.29393 0.96256 0.0
C538 C 0.30214 0.28119 0.97946 0.0
C539 C 0.35794 0.30517 0.98337 0.0
C540 C 0.39317 0.34297 0.96959 0.0
C541 C 0.37266 0.35609 0.95188 0.0
C542 C 0.31557 0.33062 0.94842 0.0
H543 H 0.04792 0.25596 0.3663 0.0
H544 H 1.00439 0.11274 0.3289 0.0
H545 H 0.99697 0.15944 0.29852 0.0
H546 H 0.95704 0.29141 0.34038 0.0
H547 H 1.00392 0.3633 0.34286 0.0
H548 H 1.00567 0.31845 0.36163 0.0
H549 H 0.10778 0.35574 0.35546 0.0
H550 H 0.10631 0.40061 0.33663 0.0
H551 H 0.12891 0.354 0.32999 0.0
H552 H 0.99687 0.22298 0.27198 0.0
H553 H 1.00196 0.29747 0.25154 0.0
H554 H 0.0414 0.39726 0.30668 0.0
C555 C 0.03681 0.23427 0.35175 0.0
C556 C 0.02683 0.18059 0.35005 0.0
C557 C 0.01214 0.15378 0.33066 0.0
C558 C 0.00788 0.18 0.31328 0.0
C559 C 0.01811 0.2329 0.31553 0.0
C560 C 0.032 0.25962 0.33429 0.0
C561 C 0.04065 0.31626 0.33262 0.0
C562 C 0.99935 0.3227 0.34511 0.0
C563 C 0.0994 0.35917 0.33905 0.0
C564 C 0.02982 0.31739 0.30995 0.0
C565 C 0.01699 0.26899 0.30035 0.0
C566 C 0.00639 0.26089 0.27937 0.0
C567 C 0.00901 0.3034 0.2679 0.0
C568 C 0.02185 0.3534 0.27743 0.0
C569 C 0.03212 0.35999 0.2988 0.0
loop_
_geom_bond_atom_site_label_1
_geom_bond_atom_site_label_2
_geom_bond_distance
_geom_bond_site_symmetry_2
_ccdc_geom_bond_type
Mn0 O5 2.095 . S
Mn0 O15 2.162 . S
Mn0 O16 2.297 1_545 S
Mn0 O24 2.385 1_545 S
Mn0 O25 2.209 1_455 S
Mn0 O26 2.094 . S
Mn1 O6 2.121 . S
Mn1 N8 2.257 . S
Mn1 N17 2.282 1_554 S
Mn1 O25 2.215 . S
Mn1 O27 2.117 1_655 S
C2 O24 1.234 1_645 S
C2 O25 1.283 . S
C3 O15 1.281 1_565 S
C3 O16 1.236 . S
C4 O26 1.240 . S
C4 O27 1.264 . S
O5 Mn0 2.095 . S
O5 C14 1.250 . S
O6 Mn1 2.121 . S
O6 C14 1.256 1_655 S
C7 N8 1.326 . S
C7 C11 1.460 . S
C7 H13 0.929 . S
N8 Mn1 2.257 . S
N8 C7 1.326 . S
N8 C12 1.362 . S
C9 C10 1.258 1_556 S
C9 C12 1.431 1_556 S
C9 C29 1.449 . S
C10 C9 1.258 1_554 S
C10 C11 1.477 . S
C10 H30 0.931 . S
C11 C7 1.460 . S
C11 C10 1.477 . S
C11 H31 0.930 . S
C12 N8 1.362 . S
C12 C9 1.431 1_554 S
C12 C22 1.476 1_554 S
H13 C7 0.929 . S
C14 O5 1.250 . S
C14 O6 1.256 1_455 S
O15 Mn0 2.162 . S
O15 C3 1.281 1_545 S
O16 Mn0 2.297 1_565 S
O16 C3 1.236 . S
N17 Mn1 2.282 1_556 S
N17 C18 1.328 . S
N17 C22 1.318 . S
C18 N17 1.328 . S
C18 C19 1.457 . S
C18 H23 0.929 1_655 S
C19 C18 1.457 . S
C19 C20 1.291 . S
C19 H32 0.931 . S
C20 C19 1.291 . S
C20 C21 1.373 . S
C20 H33 0.929 . S
C21 C20 1.373 . S
C21 C22 1.396 . S
C21 C28 1.403 . S
C22 C12 1.476 1_556 S
C22 N17 1.318 . S
C22 C21 1.396 . S
H23 C18 0.929 1_455 S
O24 Mn0 2.385 1_565 S
O24 C2 1.234 1_465 S
O25 Mn0 2.209 1_655 S
O25 Mn1 2.215 . S
O25 C2 1.283 . S
O26 Mn0 2.094 . S
O26 C4 1.240 . S
O27 Mn1 2.117 1_455 S
O27 C4 1.264 . S
C28 C21 1.403 . S
C28 C29 1.399 . S
C28 H34 0.929 . S
C29 C9 1.449 . S
C29 C28 1.399 . S
C29 H35 0.930 . S
H30 C10 0.931 . S
H31 C11 0.930 . S
H32 C19 0.931 . S
H33 C20 0.929 . S
H34 C28 0.929 . S
H35 C29 0.930 . S
Mn36 O41 2.095 . S
Mn36 O51 2.162 1_545 S
Mn36 O52 2.297 1_655 S
Mn36 O60 2.385 1_655 S
Mn36 O61 2.209 1_655 S
Mn36 O62 2.094 . S
Mn37 O42 2.121 . S
Mn37 N44 2.257 . S
Mn37 N53 2.282 . S
Mn37 O61 2.215 . S
Mn37 O63 2.117 1_455 S
C38 O60 1.234 . S
C38 O61 1.283 . S
C39 O51 1.281 1_455 S
C39 O52 1.236 1_565 S
C40 O62 1.240 . S
C40 O63 1.264 . S
O41 Mn36 2.095 . S
O41 C50 1.250 1_655 S
O42 Mn37 2.121 . S
O42 C50 1.258 . S
C43 N44 1.326 . S
C43 C47 1.460 . S
C43 H49 0.929 . S
N44 Mn37 2.257 . S
N44 C43 1.326 . S
N44 C48 1.362 . S
C45 C46 1.258 . S
C45 C48 1.431 . S
C45 C65 1.449 . S
C46 C45 1.258 . S
C46 C47 1.477 . S
C46 H66 0.931 . S
C47 C43 1.460 . S
C47 C46 1.477 . S
C47 H67 0.930 . S
C48 N44 1.362 . S
C48 C45 1.431 . S
C48 C58 1.476 . S
H49 C43 0.929 . S
C50 O41 1.250 1_455 S
C50 O42 1.258 . S
O51 Mn36 2.162 1_565 S
O51 C39 1.281 1_655 S
O52 Mn36 2.297 1_455 S
O52 C39 1.236 1_545 S
N53 Mn37 2.282 . S
N53 C54 1.328 . S
N53 C58 1.318 . S
C54 N53 1.328 . S
C54 C55 1.457 . S
C54 H59 0.929 . S
C55 C54 1.457 . S
C55 C56 1.291 . S
C55 H68 0.931 . S
C56 C55 1.291 . S
C56 C57 1.373 . S
C56 H69 0.929 . S
C57 C56 1.373 . S
C57 C58 1.396 . S
C57 C64 1.403 . S
C58 C48 1.476 . S
C58 N53 1.318 . S
C58 C57 1.396 . S
H59 C54 0.929 . S
O60 Mn36 2.385 1_455 S
O60 C38 1.234 . S
O61 Mn36 2.209 1_455 S
O61 Mn37 2.215 . S
O61 C38 1.283 . S
O62 Mn36 2.094 . S
O62 C40 1.240 . S
O63 Mn37 2.117 1_655 S
O63 C40 1.264 . S
C64 C57 1.403 . S
C64 C65 1.399 . S
C64 H70 0.929 . S
C65 C45 1.449 . S
C65 C64 1.399 . S
C65 H71 0.930 . S
H66 C46 0.931 . S
H67 C47 0.930 . S
H68 C55 0.931 . S
H69 C56 0.929 . S
H70 C64 0.929 . S
H71 C65 0.930 . S
Mn72 O77 2.095 1_455 S
Mn72 O87 2.162 . S
Mn72 O88 2.297 . S
Mn72 O96 2.385 . S
Mn72 O97 2.209 . S
Mn72 O98 2.094 1_445 S
Mn73 O78 2.121 . S
Mn73 N80 2.257 . S
Mn73 N89 2.282 1_655 S
Mn73 O97 2.215 1_655 S
Mn73 O99 2.117 . S
C74 O96 1.234 . S
C74 O97 1.283 . S
C75 O87 1.281 . S
C75 O88 1.236 . S
C76 O98 1.240 . S
C76 O99 1.264 1_565 S
O77 Mn72 2.095 1_655 S
O77 C86 1.250 . S
O78 Mn73 2.121 . S
O78 C86 1.258 . S
C79 N80 1.326 . S
C79 C83 1.460 1_655 S
C79 H85 0.929 . S
N80 Mn73 2.257 . S
N80 C79 1.326 . S
N80 C84 1.362 1_655 S
C81 C82 1.258 . S
C81 C84 1.431 . S
C81 C101 1.449 . S
C82 C81 1.258 . S
C82 C83 1.477 . S
C82 H102 0.931 . S
C83 C79 1.460 1_455 S
C83 C82 1.477 . S
C83 H103 0.930 1_455 S
C84 N80 1.362 1_455 S
C84 C81 1.431 . S
C84 C94 1.476 . S
H85 C79 0.929 . S
C86 O77 1.250 . S
C86 O78 1.258 . S
O87 Mn72 2.162 . S
O87 C75 1.281 . S
O88 Mn72 2.297 . S
O88 C75 1.236 . S
N89 Mn73 2.282 1_455 S
N89 C90 1.328 . S
N89 C94 1.318 . S
C90 N89 1.328 . S
C90 C91 1.457 . S
C90 H95 0.929 1_455 S
C91 C90 1.457 . S
C91 C92 1.291 . S
C91 H104 0.931 . S
C92 C91 1.291 . S
C92 C93 1.373 . S
C92 H105 0.929 . S
C93 C92 1.373 . S
C93 C94 1.396 . S
C93 C100 1.403 . S
C94 C84 1.476 . S
C94 N89 1.318 . S
C94 C93 1.396 . S
H95 C90 0.929 1_655 S
O96 Mn72 2.385 . S
O96 C74 1.234 . S
O97 Mn72 2.209 . S
O97 Mn73 2.215 1_455 S
O97 C74 1.283 . S
O98 Mn72 2.094 1_665 S
O98 C76 1.240 . S
O99 Mn73 2.117 . S
O99 C76 1.264 1_545 S
C100 C93 1.403 . S
C100 C101 1.399 . S
C100 H106 0.929 . S
C101 C81 1.449 . S
C101 C100 1.399 . S
C101 H107 0.930 . S
H102 C82 0.931 . S
H103 C83 0.930 1_655 S
H104 C91 0.931 . S
H105 C92 0.929 . S
H106 C100 0.929 . S
H107 C101 0.930 . S
C108 C109 1.384 1_655 S
C108 C110 1.384 . S
C108 H136 0.931 . S
C109 C108 1.384 1_455 S
C109 C112 1.382 . S
C110 C108 1.384 . S
C110 C111 1.381 1_655 S
C110 H137 0.930 . S
C111 C110 1.381 1_455 S
C111 C113 1.381 . S
C111 C114 1.487 . S
C112 C109 1.382 . S
C112 C113 1.387 . S
C112 H138 0.930 . S
C113 C111 1.381 . S
C113 C112 1.387 . S
C113 H139 0.931 . S
C114 C111 1.487 . S
C114 C121 1.399 . S
C114 N152 1.343 . S
C115 C116 1.384 . S
C115 C117 1.384 . S
C115 H140 0.931 . S
C116 C115 1.384 . S
C116 C119 1.382 1_455 S
C117 C115 1.384 . S
C117 C118 1.381 . S
C117 H141 0.930 . S
C118 C117 1.381 . S
C118 C120 1.381 1_455 S
C118 C121 1.487 . S
C119 C116 1.382 1_655 S
C119 C120 1.387 . S
C119 H142 0.930 . S
C120 C118 1.381 1_655 S
C120 C119 1.387 . S
C120 H143 0.931 . S
C121 C114 1.399 . S
C121 C118 1.487 . S
C121 N153 1.343 . S
C122 C123 1.384 . S
C122 C124 1.384 . S
C122 H144 0.931 . S
C123 C122 1.384 . S
C123 C126 1.382 1_455 S
C124 C122 1.384 . S
C124 C125 1.381 . S
C124 H145 0.930 . S
C125 C124 1.381 . S
C125 C127 1.381 1_455 S
C125 C128 1.487 . S
C126 C123 1.382 1_655 S
C126 C127 1.387 . S
C126 H146 0.930 . S
C127 C125 1.381 1_655 S
C127 C126 1.387 . S
C127 H147 0.931 . S
C128 C125 1.487 . S
C128 C135 1.399 . S
C128 N153 1.343 . S
C129 C130 1.384 1_655 S
C129 C131 1.384 . S
C129 H148 0.931 . S
C130 C129 1.384 1_455 S
C130 C133 1.382 . S
C131 C129 1.384 . S
C131 C132 1.381 1_655 S
C131 H149 0.930 . S
C132 C131 1.381 1_455 S
C132 C134 1.381 . S
C132 C135 1.487 . S
C133 C130 1.382 . S
C133 C134 1.387 . S
C133 H150 0.930 . S
C134 C132 1.381 . S
C134 C133 1.387 . S
C134 H151 0.931 . S
C135 C128 1.399 . S
C135 C132 1.487 . S
C135 N152 1.343 . S
H136 C108 0.931 . S
H137 C110 0.930 . S
H138 C112 0.930 . S
H139 C113 0.931 . S
H140 C115 0.931 . S
H141 C117 0.930 . S
H142 C119 0.930 . S
H143 C120 0.931 . S
H144 C122 0.931 . S
H145 C124 0.930 . S
H146 C126 0.930 . S
H147 C127 0.931 . S
H148 C129 0.931 . S
H149 C131 0.930 . S
H150 C133 0.930 . S
H151 C134 0.931 . S
N152 C114 1.343 . S
N152 C135 1.343 . S
N153 C121 1.343 . S
N153 C128 1.343 . S
C154 C155 1.384 . S
C154 C156 1.384 . S
C154 H182 0.931 . S
C155 C154 1.384 . S
C155 C158 1.382 . S
C156 C154 1.384 . S
C156 C157 1.381 . S
C156 H183 0.930 . S
C157 C156 1.381 . S
C157 C159 1.381 . S
C157 C160 1.487 . S
C158 C155 1.382 . S
C158 C159 1.387 . S
C158 H184 0.930 . S
C159 C157 1.381 . S
C159 C158 1.387 . S
C159 H185 0.931 . S
C160 C157 1.487 . S
C160 C167 1.399 . S
C160 N198 1.343 . S
C161 C162 1.384 . S
C161 C163 1.384 . S
C161 H186 0.931 . S
C162 C161 1.384 . S
C162 C165 1.382 . S
C163 C161 1.384 . S
C163 C164 1.381 . S
C163 H187 0.930 . S
C164 C163 1.381 . S
C164 C166 1.381 . S
C164 C167 1.487 . S
C165 C162 1.382 . S
C165 C166 1.387 . S
C165 H188 0.930 . S
C166 C164 1.381 . S
C166 C165 1.387 . S
C166 H189 0.931 . S
C167 C160 1.399 . S
C167 C164 1.487 . S
C167 N199 1.343 . S
C168 C169 1.384 . S
C168 C170 1.384 . S
C168 H190 0.931 . S
C169 C168 1.384 . S
C169 C172 1.382 . S
C170 C168 1.384 . S
C170 C171 1.381 . S
C170 H191 0.930 . S
C171 C170 1.381 . S
C171 C173 1.381 . S
C171 C174 1.487 . S
C172 C169 1.382 . S
C172 C173 1.387 . S
C172 H192 0.930 . S
C173 C171 1.381 . S
C173 C172 1.387 . S
C173 H193 0.931 . S
C174 C171 1.487 . S
C174 C181 1.399 . S
C174 N199 1.343 . S
C175 C176 1.384 . S
C175 C177 1.384 . S
C175 H194 0.931 . S
C176 C175 1.384 . S
C176 C179 1.382 . S
C177 C175 1.384 . S
C177 C178 1.381 . S
C177 H195 0.930 . S
C178 C177 1.381 . S
C178 C180 1.381 . S
C178 C181 1.487 . S
C179 C176 1.382 . S
C179 C180 1.387 . S
C179 H196 0.930 . S
C180 C178 1.381 . S
C180 C179 1.387 . S
C180 H197 0.931 . S
C181 C174 1.399 . S
C181 C178 1.487 . S
C181 N198 1.343 . S
H182 C154 0.931 . S
H183 C156 0.930 . S
H184 C158 0.930 . S
H185 C159 0.931 . S
H186 C161 0.931 . S
H187 C163 0.930 . S
H188 C165 0.930 . S
H189 C166 0.931 . S
H190 C168 0.931 . S
H191 C170 0.930 . S
H192 C172 0.930 . S
H193 C173 0.931 . S
H194 C175 0.931 . S
H195 C177 0.930 . S
H196 C179 0.930 . S
H197 C180 0.931 . S
N198 C160 1.343 . S
N198 C181 1.343 . S
N199 C167 1.343 . S
N199 C174 1.343 . S
C200 C201 1.384 . S
C200 C202 1.384 . S
C200 H228 0.931 . S
C201 C200 1.384 . S
C201 C204 1.382 . S
C202 C200 1.384 . S
C202 C203 1.381 . S
C202 H229 0.930 . S
C203 C202 1.381 . S
C203 C205 1.381 . S
C203 C206 1.487 . S
C204 C201 1.382 . S
C204 C205 1.387 . S
C204 H230 0.930 . S
C205 C203 1.381 . S
C205 C204 1.387 . S
C205 H231 0.931 . S
C206 C203 1.487 . S
C206 C213 1.399 . S
C206 N244 1.343 . S
C207 C208 1.384 . S
C207 C209 1.384 . S
C207 H232 0.931 . S
C208 C207 1.384 . S
C208 C211 1.382 . S
C209 C207 1.384 . S
C209 C210 1.381 . S
C209 H233 0.930 . S
C210 C209 1.381 . S
C210 C212 1.381 . S
C210 C213 1.487 . S
C211 C208 1.382 . S
C211 C212 1.387 . S
C211 H234 0.930 . S
C212 C210 1.381 . S
C212 C211 1.387 . S
C212 H235 0.931 . S
C213 C206 1.399 . S
C213 C210 1.487 . S
C213 N245 1.343 . S
C214 C215 1.384 . S
C214 C216 1.384 . S
C214 H236 0.931 . S
C215 C214 1.384 . S
C215 C218 1.382 . S
C216 C214 1.384 . S
C216 C217 1.381 . S
C216 H237 0.930 . S
C217 C216 1.381 . S
C217 C219 1.381 . S
C217 C220 1.487 . S
C218 C215 1.382 . S
C218 C219 1.387 . S
C218 H238 0.930 . S
C219 C217 1.381 . S
C219 C218 1.387 . S
C219 H239 0.931 . S
C220 C217 1.487 . S
C220 C227 1.399 . S
C220 N245 1.343 . S
C221 C222 1.384 . S
C221 C223 1.384 . S
C221 H240 0.931 . S
C222 C221 1.384 . S
C222 C225 1.382 . S
C223 C221 1.384 . S
C223 C224 1.381 . S
C223 H241 0.930 . S
C224 C223 1.381 . S
C224 C226 1.381 . S
C224 C227 1.487 . S
C225 C222 1.382 . S
C225 C226 1.387 . S
C225 H242 0.930 . S
C226 C224 1.381 . S
C226 C225 1.387 . S
C226 H243 0.931 . S
C227 C220 1.399 . S
C227 C224 1.487 . S
C227 N244 1.343 . S
H228 C200 0.931 . S
H229 C202 0.930 . S
H230 C204 0.930 . S
H231 C205 0.931 . S
H232 C207 0.931 . S
H233 C209 0.930 . S
H234 C211 0.930 . S
H235 C212 0.931 . S
H236 C214 0.931 . S
H237 C216 0.930 . S
H238 C218 0.930 . S
H239 C219 0.931 . S
H240 C221 0.931 . S
H241 C223 0.930 . S
H242 C225 0.930 . S
H243 C226 0.931 . S
N244 C206 1.343 . S
N244 C227 1.343 . S
N245 C213 1.343 . S
N245 C220 1.343 . S
H246 C258 0.930 1_655 S
H247 C260 0.930 . S
H248 C261 0.930 . S
H249 C265 0.959 . S
H250 C265 0.959 . S
H251 C265 0.961 . S
H252 C266 0.960 . S
H253 C266 0.961 . S
H254 C266 0.959 . S
H255 C269 0.929 . S
H256 C270 0.931 . S
H257 C272 0.930 1_655 S
C258 H246 0.930 1_455 S
C258 C259 1.399 . S
C258 C263 1.399 . S
C259 C258 1.399 . S
C259 C260 1.376 . S
C260 H247 0.930 . S
C260 C259 1.376 . S
C260 C261 1.388 . S
C261 H248 0.930 . S
C261 C260 1.388 . S
C261 C262 1.390 . S
C262 C261 1.390 . S
C262 C263 1.394 . S
C262 C268 1.465 . S
C263 C258 1.399 . S
C263 C262 1.394 . S
C263 C264 1.516 1_455 S
C264 C263 1.516 1_655 S
C264 C265 1.502 . S
C264 C266 1.561 1_655 S
C264 C267 1.526 1_655 S
C265 H249 0.959 . S
C265 H250 0.959 . S
C265 H251 0.961 . S
C265 C264 1.502 . S
C266 H252 0.960 . S
C266 H253 0.961 . S
C266 H254 0.959 . S
C266 C264 1.561 1_455 S
C267 C264 1.526 1_455 S
C267 C268 1.396 . S
C267 C272 1.390 . S
C268 C262 1.465 . S
C268 C267 1.396 . S
C268 C269 1.399 . S
C269 H255 0.929 . S
C269 C268 1.399 . S
C269 C270 1.385 . S
C270 H256 0.931 . S
C270 C269 1.385 . S
C270 C271 1.389 . S
C271 C270 1.389 . S
C271 C272 1.387 . S
C272 H257 0.930 1_455 S
C272 C267 1.390 . S
C272 C271 1.387 . S
H273 C285 0.930 . S
H274 C287 0.929 . S
H275 C288 0.930 . S
H276 C292 0.959 . S
H277 C292 0.959 . S
H278 C292 0.961 . S
H279 C293 0.960 . S
H280 C293 0.961 . S
H281 C293 0.959 . S
H282 C296 0.929 1_565 S
H283 C297 0.924 1_565 S
H284 C299 0.930 . S
C285 H273 0.930 . S
C285 C286 1.399 . S
C285 C290 1.399 . S
C286 C285 1.399 . S
C286 C287 1.377 1_545 S
C287 H274 0.929 . S
C287 C286 1.377 1_565 S
C287 C288 1.389 . S
C288 H275 0.930 . S
C288 C287 1.389 . S
C288 C289 1.390 1_565 S
C289 C288 1.390 1_545 S
C289 C290 1.394 . S
C289 C295 1.465 . S
C290 C285 1.399 . S
C290 C289 1.394 . S
C290 C291 1.516 . S
C291 C290 1.516 . S
C291 C292 1.502 . S
C291 C293 1.561 . S
C291 C294 1.526 . S
C292 H276 0.959 . S
C292 H277 0.959 . S
C292 H278 0.961 . S
C292 C291 1.502 . S
C293 H279 0.960 . S
C293 H280 0.961 . S
C293 H281 0.959 . S
C293 C291 1.561 . S
C294 C291 1.526 . S
C294 C295 1.396 . S
C294 C299 1.390 . S
C295 C289 1.465 . S
C295 C294 1.396 . S
C295 C296 1.399 . S
C296 H282 0.929 1_545 S
C296 C295 1.399 . S
C296 C297 1.385 . S
C297 H283 0.924 1_545 S
C297 C296 1.385 . S
C297 C298 1.389 . S
C298 C297 1.389 . S
C298 C299 1.387 . S
C299 H284 0.930 . S
C299 C294 1.390 . S
C299 C298 1.387 . S
H300 C312 0.930 . S
H301 C314 0.930 1_545 S
H302 C315 0.930 . S
H303 C319 0.959 . S
H304 C319 0.959 . S
H305 C319 0.961 . S
H306 C320 0.960 . S
H307 C320 0.961 . S
H308 C320 0.959 . S
H309 C323 0.929 . S
H310 C324 0.931 . S
H311 C326 0.930 . S
C312 H300 0.930 . S
C312 C313 1.399 . S
C312 C317 1.399 . S
C313 C312 1.399 . S
C313 C314 1.376 . S
C314 H301 0.930 1_565 S
C314 C313 1.376 . S
C314 C315 1.388 . S
C315 H302 0.930 . S
C315 C314 1.388 . S
C315 C316 1.390 . S
C316 C315 1.390 . S
C316 C317 1.394 . S
C316 C322 1.465 . S
C317 C312 1.399 . S
C317 C316 1.394 . S
C317 C318 1.516 . S
C318 C317 1.516 . S
C318 C319 1.502 . S
C318 C320 1.561 . S
C318 C321 1.526 . S
C319 H303 0.959 . S
C319 H304 0.959 . S
C319 H305 0.961 . S
C319 C318 1.502 . S
C320 H306 0.960 . S
C320 H307 0.961 . S
C320 H308 0.959 . S
C320 C318 1.561 . S
C321 C318 1.526 . S
C321 C322 1.396 . S
C321 C326 1.390 . S
C322 C316 1.465 . S
C322 C321 1.396 . S
C322 C323 1.399 . S
C323 H309 0.929 . S
C323 C322 1.399 . S
C323 C324 1.385 . S
C324 H310 0.931 . S
C324 C323 1.385 . S
C324 C325 1.389 . S
C325 C324 1.389 . S
C325 C326 1.387 . S
C326 H311 0.930 . S
C326 C321 1.390 . S
C326 C325 1.387 . S
H327 C339 0.930 . S
H328 C341 0.930 . S
H329 C342 0.930 . S
H330 C346 0.959 . S
H331 C346 0.959 . S
H332 C346 0.961 . S
H333 C347 0.960 . S
H334 C347 0.961 . S
H335 C347 0.959 . S
H336 C350 0.929 . S
H337 C351 0.931 . S
H338 C353 0.930 . S
C339 H327 0.930 . S
C339 C340 1.399 . S
C339 C344 1.399 . S
C340 C339 1.399 . S
C340 C341 1.376 1_455 S
C341 H328 0.930 . S
C341 C340 1.376 1_655 S
C341 C342 1.388 . S
C342 H329 0.930 . S
C342 C341 1.388 . S
C342 C343 1.390 1_655 S
C343 C342 1.390 1_455 S
C343 C344 1.394 . S
C343 C349 1.465 . S
C344 C339 1.399 . S
C344 C343 1.394 . S
C344 C345 1.516 . S
C345 C344 1.516 . S
C345 C346 1.502 . S
C345 C347 1.561 . S
C345 C348 1.526 . S
C346 H330 0.959 . S
C346 H331 0.959 . S
C346 H332 0.961 . S
C346 C345 1.502 . S
C347 H333 0.960 . S
C347 H334 0.961 . S
C347 H335 0.959 . S
C347 C345 1.561 . S
C348 C345 1.526 . S
C348 C349 1.396 . S
C348 C353 1.390 . S
C349 C343 1.465 . S
C349 C348 1.396 . S
C349 C350 1.399 1_455 S
C350 H336 0.929 . S
C350 C349 1.399 1_655 S
C350 C351 1.385 . S
C351 H337 0.931 . S
C351 C350 1.385 . S
C351 C352 1.389 1_655 S
C352 C351 1.389 1_455 S
C352 C353 1.387 . S
C353 H338 0.930 . S
C353 C348 1.390 . S
C353 C352 1.387 . S
H354 C366 0.930 . S
H355 C368 0.930 1_565 S
H356 C369 0.930 1_565 S
H357 C373 0.959 . S
H358 C373 0.959 . S
H359 C373 0.961 . S
H360 C374 0.960 . S
H361 C374 0.961 . S
H362 C374 0.959 . S
H363 C377 0.929 1_565 S
H364 C378 0.931 . S
H365 C380 0.930 . S
C366 H354 0.930 . S
C366 C367 1.399 . S
C366 C371 1.399 . S
C367 C366 1.399 . S
C367 C368 1.376 . S
C368 H355 0.930 1_545 S
C368 C367 1.376 . S
C368 C369 1.388 . S
C369 H356 0.930 1_545 S
C369 C368 1.388 . S
C369 C370 1.390 . S
C370 C369 1.390 . S
C370 C371 1.394 . S
C370 C376 1.465 . S
C371 C366 1.399 . S
C371 C370 1.394 . S
C371 C372 1.516 . S
C372 C371 1.516 . S
C372 C373 1.502 . S
C372 C374 1.561 . S
C372 C375 1.526 . S
C373 H357 0.959 . S
C373 H358 0.959 . S
C373 H359 0.961 . S
C373 C372 1.502 . S
C374 H360 0.960 . S
C374 H361 0.961 . S
C374 H362 0.959 . S
C374 C372 1.561 . S
C375 C372 1.526 . S
C375 C376 1.396 . S
C375 C380 1.390 . S
C376 C370 1.465 . S
C376 C375 1.396 . S
C376 C377 1.399 . S
C377 H363 0.929 1_545 S
C377 C376 1.399 . S
C377 C378 1.385 . S
C378 H364 0.931 . S
C378 C377 1.385 . S
C378 C379 1.389 . S
C379 C378 1.389 . S
C379 C380 1.387 . S
C380 H365 0.930 . S
C380 C375 1.390 . S
C380 C379 1.387 . S
H381 C393 0.930 . S
H382 C395 0.930 . S
H383 C396 0.930 . S
H384 C400 0.959 . S
H385 C400 0.959 . S
H386 C400 0.961 . S
H387 C401 0.960 . S
H388 C401 0.961 . S
H389 C401 0.959 . S
H390 C404 0.929 . S
H391 C405 0.931 . S
H392 C407 0.930 . S
C393 H381 0.930 . S
C393 C394 1.399 . S
C393 C398 1.399 . S
C394 C393 1.399 . S
C394 C395 1.376 . S
C395 H382 0.930 . S
C395 C394 1.376 . S
C395 C396 1.388 . S
C396 H383 0.930 . S
C396 C395 1.388 . S
C396 C397 1.390 . S
C397 C396 1.390 . S
C397 C398 1.394 . S
C397 C403 1.465 . S
C398 C393 1.399 . S
C398 C397 1.394 . S
C398 C399 1.516 . S
C399 C398 1.516 . S
C399 C400 1.502 . S
C399 C401 1.561 . S
C399 C402 1.526 . S
C400 H384 0.959 . S
C400 H385 0.959 . S
C400 H386 0.961 . S
C400 C399 1.502 . S
C401 H387 0.960 . S
C401 H388 0.961 . S
C401 H389 0.959 . S
C401 C399 1.561 . S
C402 C399 1.526 . S
C402 C403 1.396 . S
C402 C407 1.390 . S
C403 C397 1.465 . S
C403 C402 1.396 . S
C403 C404 1.399 . S
C404 H390 0.929 . S
C404 C403 1.399 . S
C404 C405 1.385 . S
C405 H391 0.931 . S
C405 C404 1.385 . S
C405 C406 1.389 . S
C406 C405 1.389 . S
C406 C407 1.387 . S
C407 H392 0.930 . S
C407 C402 1.390 . S
C407 C406 1.387 . S
H408 C420 0.930 . S
H409 C422 0.930 . S
H410 C423 0.930 . S
H411 C427 0.959 . S
H412 C427 0.959 . S
H413 C427 0.961 . S
H414 C428 0.960 . S
H415 C428 0.961 . S
H416 C428 0.959 1_545 S
H417 C431 0.929 . S
H418 C432 0.931 . S
H419 C434 0.930 . S
C420 H408 0.930 . S
C420 C421 1.399 . S
C420 C425 1.399 . S
C421 C420 1.399 . S
C421 C422 1.376 . S
C422 H409 0.930 . S
C422 C421 1.376 . S
C422 C423 1.388 . S
C423 H410 0.930 . S
C423 C422 1.388 . S
C423 C424 1.390 . S
C424 C423 1.390 . S
C424 C425 1.394 . S
C424 C430 1.465 . S
C425 C420 1.399 . S
C425 C424 1.394 . S
C425 C426 1.516 . S
C426 C425 1.516 . S
C426 C427 1.502 1_545 S
C426 C428 1.561 1_545 S
C426 C429 1.526 . S
C427 H411 0.959 . S
C427 H412 0.959 . S
C427 H413 0.961 . S
C427 C426 1.502 1_565 S
C428 H414 0.960 . S
C428 H415 0.961 . S
C428 H416 0.959 1_565 S
C428 C426 1.561 1_565 S
C429 C426 1.526 . S
C429 C430 1.396 . S
C429 C434 1.390 . S
C430 C424 1.465 . S
C430 C429 1.396 . S
C430 C431 1.399 . S
C431 H417 0.929 . S
C431 C430 1.399 . S
C431 C432 1.385 . S
C432 H418 0.931 . S
C432 C431 1.385 . S
C432 C433 1.389 . S
C433 C432 1.389 . S
C433 C434 1.387 . S
C434 H419 0.930 . S
C434 C429 1.390 . S
C434 C433 1.387 . S
H435 C447 0.930 . S
H436 C449 0.930 1_545 S
H437 C450 0.930 . S
H438 C454 0.959 . S
H439 C454 0.959 . S
H440 C454 0.961 . S
H441 C455 0.960 1_554 S
H442 C455 0.961 . S
H443 C455 0.959 1_554 S
H444 C458 0.929 . S
H445 C459 0.931 . S
H446 C461 0.930 . S
C447 H435 0.930 . S
C447 C448 1.399 . S
C447 C452 1.399 1_554 S
C448 C447 1.399 . S
C448 C449 1.376 . S
C449 H436 0.930 1_565 S
C449 C448 1.376 . S
C449 C450 1.388 1_554 S
C450 H437 0.930 . S
C450 C449 1.388 1_556 S
C450 C451 1.390 . S
C451 C450 1.390 . S
C451 C452 1.394 . S
C451 C457 1.465 . S
C452 C447 1.399 1_556 S
C452 C451 1.394 . S
C452 C453 1.516 . S
C453 C452 1.516 . S
C453 C454 1.502 . S
C453 C455 1.561 . S
C453 C456 1.526 . S
C454 H438 0.959 . S
C454 H439 0.959 . S
C454 H440 0.961 . S
C454 C453 1.502 . S
C455 H441 0.960 1_556 S
C455 H442 0.961 . S
C455 H443 0.959 1_556 S
C455 C453 1.561 . S
C456 C453 1.526 . S
C456 C457 1.396 . S
C456 C461 1.390 . S
C457 C451 1.465 . S
C457 C456 1.396 . S
C457 C458 1.399 . S
C458 H444 0.929 . S
C458 C457 1.399 . S
C458 C459 1.385 . S
C459 H445 0.931 . S
C459 C458 1.385 . S
C459 C460 1.389 . S
C460 C459 1.389 . S
C460 C461 1.387 . S
C461 H446 0.930 . S
C461 C456 1.390 . S
C461 C460 1.387 . S
H462 C474 0.930 1_655 S
H463 C476 0.930 . S
H464 C477 0.930 . S
H465 C481 0.959 . S
H466 C481 0.959 . S
H467 C481 0.961 . S
H468 C482 0.960 . S
H469 C482 0.961 . S
H470 C482 0.959 . S
H471 C485 0.929 . S
H472 C486 0.931 . S
H473 C488 0.930 . S
C474 H462 0.930 1_455 S
C474 C475 1.399 . S
C474 C479 1.399 . S
C475 C474 1.399 . S
C475 C476 1.376 . S
C476 H463 0.930 . S
C476 C475 1.376 . S
C476 C477 1.388 . S
C477 H464 0.930 . S
C477 C476 1.388 . S
C477 C478 1.390 . S
C478 C477 1.390 . S
C478 C479 1.394 . S
C478 C484 1.465 . S
C479 C474 1.399 . S
C479 C478 1.394 . S
C479 C480 1.516 . S
C480 C479 1.516 . S
C480 C481 1.502 1_455 S
C480 C482 1.561 . S
C480 C483 1.526 . S
C481 H465 0.959 . S
C481 H466 0.959 . S
C481 H467 0.961 . S
C481 C480 1.502 1_655 S
C482 H468 0.960 . S
C482 H469 0.961 . S
C482 H470 0.959 . S
C482 C480 1.561 . S
C483 C480 1.526 . S
C483 C484 1.396 . S
C483 C488 1.390 . S
C484 C478 1.465 . S
C484 C483 1.396 . S
C484 C485 1.399 . S
C485 H471 0.929 . S
C485 C484 1.399 . S
C485 C486 1.385 . S
C486 H472 0.931 . S
C486 C485 1.385 . S
C486 C487 1.389 . S
C487 C486 1.389 . S
C487 C488 1.387 . S
C488 H473 0.930 . S
C488 C483 1.390 . S
C488 C487 1.387 . S
H489 C501 0.930 1_565 S
H490 C503 0.930 . S
H491 C504 0.930 . S
H492 C508 0.959 . S
H493 C508 0.959 . S
H494 C508 0.961 . S
H495 C509 0.960 . S
H496 C509 0.961 . S
H497 C509 0.959 . S
H498 C512 0.929 . S
H499 C513 0.931 . S
H500 C515 0.930 . S
C501 H489 0.930 1_545 S
C501 C502 1.399 . S
C501 C506 1.399 . S
C502 C501 1.399 . S
C502 C503 1.376 . S
C503 H490 0.930 . S
C503 C502 1.376 . S
C503 C504 1.388 . S
C504 H491 0.930 . S
C504 C503 1.388 . S
C504 C505 1.390 . S
C505 C504 1.390 . S
C505 C506 1.394 . S
C505 C511 1.465 . S
C506 C501 1.399 . S
C506 C505 1.394 . S
C506 C507 1.516 . S
C507 C506 1.516 . S
C507 C508 1.502 1_545 S
C507 C509 1.561 1_545 S
C507 C510 1.526 . S
C508 H492 0.959 . S
C508 H493 0.959 . S
C508 H494 0.961 . S
C508 C507 1.502 1_565 S
C509 H495 0.960 . S
C509 H496 0.961 . S
C509 H497 0.959 . S
C509 C507 1.561 1_565 S
C510 C507 1.526 . S
C510 C511 1.396 . S
C510 C515 1.390 . S
C511 C505 1.465 . S
C511 C510 1.396 . S
C511 C512 1.399 . S
C512 H498 0.929 . S
C512 C511 1.399 . S
C512 C513 1.385 . S
C513 H499 0.931 . S
C513 C512 1.385 . S
C513 C514 1.389 . S
C514 C513 1.389 . S
C514 C515 1.387 . S
C515 H500 0.930 . S
C515 C510 1.390 . S
C515 C514 1.387 . S
H516 C528 0.930 . S
H517 C530 0.930 . S
H518 C531 0.930 . S
H519 C535 0.959 . S
H520 C535 0.959 . S
H521 C535 0.961 . S
H522 C536 0.960 . S
H523 C536 0.961 . S
H524 C536 0.959 . S
H525 C539 0.929 . S
H526 C540 0.931 . S
H527 C542 0.930 . S
C528 H516 0.930 . S
C528 C529 1.399 1_556 S
C528 C533 1.399 . S
C529 C528 1.399 1_554 S
C529 C530 1.376 . S
C530 H517 0.930 . S
C530 C529 1.376 . S
C530 C531 1.388 1_554 S
C531 H518 0.930 . S
C531 C530 1.388 1_556 S
C531 C532 1.390 . S
C532 C531 1.390 . S
C532 C533 1.394 . S
C532 C538 1.465 . S
C533 C528 1.399 . S
C533 C532 1.394 . S
C533 C534 1.516 . S
C534 C533 1.516 . S
C534 C535 1.502 . S
C534 C536 1.561 . S
C534 C537 1.526 . S
C535 H519 0.959 . S
C535 H520 0.959 . S
C535 H521 0.961 . S
C535 C534 1.502 . S
C536 H522 0.960 . S
C536 H523 0.961 . S
C536 H524 0.959 . S
C536 C534 1.561 . S
C537 C534 1.526 . S
C537 C538 1.396 . S
C537 C542 1.390 . S
C538 C532 1.465 . S
C538 C537 1.396 . S
C538 C539 1.399 . S
C539 H525 0.929 . S
C539 C538 1.399 . S
C539 C540 1.385 . S
C540 H526 0.931 . S
C540 C539 1.385 . S
C540 C541 1.389 . S
C541 C540 1.389 . S
C541 C542 1.387 . S
C542 H527 0.930 . S
C542 C537 1.390 . S
C542 C541 1.387 . S
H543 C555 0.930 . S
H544 C557 0.930 . S
H545 C558 0.930 . S
H546 C562 0.959 . S
H547 C562 0.959 . S
H548 C562 0.961 . S
H549 C563 0.960 . S
H550 C563 0.961 . S
H551 C563 0.959 . S
H552 C566 0.929 . S
H553 C567 0.931 . S
H554 C569 0.930 . S
C555 H543 0.930 . S
C555 C556 1.399 1_655 S
C555 C560 1.399 . S
C556 C555 1.399 1_455 S
C556 C557 1.376 . S
C557 H544 0.930 . S
C557 C556 1.376 . S
C557 C558 1.388 . S
C558 H545 0.930 . S
C558 C557 1.388 . S
C558 C559 1.390 . S
C559 C558 1.390 . S
C559 C560 1.394 1_455 S
C559 C565 1.465 . S
C560 C555 1.399 . S
C560 C559 1.394 1_655 S
C560 C561 1.516 . S
C561 C560 1.516 . S
C561 C562 1.502 . S
C561 C563 1.561 . S
C561 C564 1.526 . S
C562 H546 0.959 . S
C562 H547 0.959 . S
C562 H548 0.961 . S
C562 C561 1.502 . S
C563 H549 0.960 . S
C563 H550 0.961 . S
C563 H551 0.959 . S
C563 C561 1.561 . S
C564 C561 1.526 . S
C564 C565 1.396 1_655 S
C564 C569 1.390 . S
C565 C559 1.465 . S
C565 C564 1.396 1_455 S
C565 C566 1.399 . S
C566 H552 0.929 . S
C566 C565 1.399 . S
C566 C567 1.385 . S
C567 H553 0.931 . S
C567 C566 1.385 . S
C567 C568 1.389 . S
C568 C567 1.389 . S
C568 C569 1.387 1_455 S
C569 H554 0.930 . S
C569 C564 1.390 . S
C569 C568 1.387 1_655 S
C271 C116 1.478 . S
C259 C14 1.408 . S
C286 C40 1.503 . S
C298 C155 1.484 . S
C313 C76 1.449 . S
C325 C222 1.478 . S
C340 C3 1.453 . S
C352 C123 1.455 . S
C379 C176 1.486 . S
C367 C38 1.460 . S
C394 C74 1.434 . S
C406 C201 1.473 . S
C433 C162 1.449 . S
C421 C86 1.390 . S
C448 C2 1.478 1_565 S
C460 C215 1.477 . S
C487 C130 1.461 . S
C475 C39 1.458 . S
C514 C169 1.465 . S
C502 C75 1.455 . S
C541 C208 1.486 . S
C529 C4 1.443 . S
C556 C50 1.408 . S
C568 C109 1.469 . S
