# Generated by pormake.
# Topology zzz, (3,6)-cn, num edge types: 1
# Building blocks:
#     Node 0, Type 0, BuildingBlock: ESEHIV_clean_linker_0, # of connection points: 3
#     Node 1, Type 0, BuildingBlock: ESEHIV_clean_linker_0, # of connection points: 3
#     Node 2, Type 0, BuildingBlock: ESEHIV_clean_linker_0, # of connection points: 3
#     Node 3, Type 0, BuildingBlock: ESEHIV_clean_linker_0, # of connection points: 3
#     Node 4, Type 0, BuildingBlock: ESEHIV_clean_linker_0, # of connection points: 3
#     Node 5, Type 0, BuildingBlock: ESEHIV_clean_linker_0, # of connection points: 3
#     Node 6, Type 0, BuildingBlock: ESEHIV_clean_linker_0, # of connection points: 3
#     Node 7, Type 0, BuildingBlock: ESEHIV_clean_linker_0, # of connection points: 3
#     Node 8, Type 1, BuildingBlock: VOLQOD_clean_sbu_1, # of connection points: 6
#     Node 9, Type 1, BuildingBlock: VOLQOD_clean_sbu_1, # of connection points: 6
#     Node 10, Type 1, BuildingBlock: VOLQOD_clean_sbu_1, # of connection points: 6
#     Node 11, Type 1, BuildingBlock: VOLQOD_clean_sbu_1, # of connection points: 6
#     Edge 12, Type (0, 1), BuildingBlock: XUDNAN_clean_linker_2, # of connection points: 2
#     Edge 13, Type (0, 1), BuildingBlock: XUDNAN_clean_linker_2, # of connection points: 2
#     Edge 14, Type (0, 1), BuildingBlock: XUDNAN_clean_linker_2, # of connection points: 2
#     Edge 15, Type (0, 1), BuildingBlock: XUDNAN_clean_linker_2, # of connection points: 2
#     Edge 16, Type (0, 1), BuildingBlock: XUDNAN_clean_linker_2, # of connection points: 2
#     Edge 17, Type (0, 1), BuildingBlock: XUDNAN_clean_linker_2, # of connection points: 2
#     Edge 18, Type (0, 1), BuildingBlock: XUDNAN_clean_linker_2, # of connection points: 2
#     Edge 19, Type (0, 1), BuildingBlock: XUDNAN_clean_linker_2, # of connection points: 2
#     Edge 20, Type (0, 1), BuildingBlock: XUDNAN_clean_linker_2, # of connection points: 2
#     Edge 21, Type (0, 1), BuildingBlock: XUDNAN_clean_linker_2, # of connection points: 2
#     Edge 22, Type (0, 1), BuildingBlock: XUDNAN_clean_linker_2, # of connection points: 2
#     Edge 23, Type (0, 1), BuildingBlock: XUDNAN_clean_linker_2, # of connection points: 2
#     Edge 24, Type (0, 1), BuildingBlock: XUDNAN_clean_linker_2, # of connection points: 2
#     Edge 25, Type (0, 1), BuildingBlock: XUDNAN_clean_linker_2, # of connection points: 2
#     Edge 26, Type (0, 1), BuildingBlock: XUDNAN_clean_linker_2, # of connection points: 2
#     Edge 27, Type (0, 1), BuildingBlock: XUDNAN_clean_linker_2, # of connection points: 2
#     Edge 28, Type (0, 1), BuildingBlock: XUDNAN_clean_linker_2, # of connection points: 2
#     Edge 29, Type (0, 1), BuildingBlock: XUDNAN_clean_linker_2, # of connection points: 2
#     Edge 30, Type (0, 1), BuildingBlock: XUDNAN_clean_linker_2, # of connection points: 2
#     Edge 31, Type (0, 1), BuildingBlock: XUDNAN_clean_linker_2, # of connection points: 2
#     Edge 32, Type (0, 1), BuildingBlock: XUDNAN_clean_linker_2, # of connection points: 2
#     Edge 33, Type (0, 1), BuildingBlock: XUDNAN_clean_linker_2, # of connection points: 2
#     Edge 34, Type (0, 1), BuildingBlock: XUDNAN_clean_linker_2, # of connection points: 2
#     Edge 35, Type (0, 1), BuildingBlock: XUDNAN_clean_linker_2, # of connection points: 2
# Relax obj value: 0.360
# Max RMSD: 0.258
# Mean RMSD: 0.208
data_MOF--net-zzz--node1-VOLQOD_clean_sbu_1--node2-ESEHIV_clean_linker_0--edge1-XUDNAN_clean_linker_2
_symmetry_space_group_name_H-M    P1
_symmetry_Int_Tables_number       1
_symmetry_cell_setting            triclinic
loop_
_symmetry_equiv_pos_as_xyz
'x, y, z'
_cell_length_a     44.926979
_cell_length_b     44.299416
_cell_length_c     17.697119
_cell_angle_alpha  90.331612
_cell_angle_beta   90.013591
_cell_angle_gamma 92.222299
loop_
_atom_site_label
_atom_site_type_symbol
_atom_site_fract_x
_atom_site_fract_y
_atom_site_fract_z
_atom_type_partial_charge
H0 H 0.85407 0.4681 0.16647 0.0
H1 H 0.77954 0.45726 0.01644 0.0
H2 H 0.77623 0.51929 0.20506 0.0
C3 C 0.83155 0.47352 0.15115 0.0
C4 C 0.81689 0.49547 0.19294 0.0
C5 C 0.81829 0.45962 0.0876 0.0
C6 C 0.7894 0.46724 0.06705 0.0
C7 C 0.77378 0.48856 0.1093 0.0
C8 C 0.78772 0.50249 0.17268 0.0
H9 H 0.04375 0.81793 0.24434 0.0
H10 H 0.05512 0.75484 0.06315 0.0
H11 H 0.99674 0.73185 0.24982 0.0
C12 C 0.03901 0.79592 0.2189 0.0
C13 C 0.01841 0.77611 0.25398 0.0
C14 C 0.05093 0.78931 0.14804 0.0
C15 C 0.04557 0.76032 0.11744 0.0
C16 C 0.02678 0.73888 0.15476 0.0
C17 C 0.01286 0.74716 0.22307 0.0
H18 H 0.69386 0.02294 0.18136 0.0
H19 H 0.76421 0.05867 0.03934 0.0
H20 H 0.78256 0.99137 0.20631 0.0
C21 C 0.71722 0.02448 0.16573 0.0
C22 C 0.73718 0.00579 0.20189 0.0
C23 C 0.72659 0.04338 0.10647 0.0
C24 C 0.75672 0.04425 0.08542 0.0
C25 C 0.77707 0.02572 0.12136 0.0
C26 C 0.76715 0.00613 0.17923 0.0
H27 H 0.47596 0.68702 0.28445 0.0
H28 H 0.5297 0.76822 0.26069 0.0
H29 H 0.4674 0.7404 0.08523 0.0
C30 C 0.48162 0.70735 0.25283 0.0
C31 C 0.47005 0.7107 0.18002 0.0
C32 C 0.5032 0.72791 0.28173 0.0
C33 C 0.51181 0.75344 0.23943 0.0
C34 C 0.49834 0.75903 0.16901 0.0
C35 C 0.47723 0.73739 0.14026 0.0
H36 H 0.21036 0.55841 0.16678 0.0
H37 H 0.28109 0.57112 0.3296 0.0
H38 H 0.28558 0.50205 0.1587 0.0
C39 C 0.23251 0.55373 0.18678 0.0
C40 C 0.24766 0.53025 0.15234 0.0
C41 C 0.24388 0.56821 0.25216 0.0
C42 C 0.2721 0.56047 0.27877 0.0
C43 C 0.28721 0.53656 0.24564 0.0
C44 C 0.27476 0.52138 0.18256 0.0
H45 H 0.04154 0.18249 0.15748 0.0
H46 H 0.01441 0.26052 0.28337 0.0
H47 H 0.08163 0.26927 0.11216 0.0
C48 C 0.04227 0.20636 0.17004 0.0
C49 C 0.06211 0.22456 0.12757 0.0
C50 C 0.0243 0.21857 0.22697 0.0
C51 C 0.02758 0.24996 0.24067 0.0
C52 C 0.04888 0.26826 0.20205 0.0
C53 C 0.06574 0.25542 0.14405 0.0
H54 H 0.32721 0.95166 0.11546 0.0
H55 H 0.26706 0.95164 0.3038 0.0
H56 H 0.24835 0.00286 0.10377 0.0
C57 C 0.30678 0.95878 0.14146 0.0
C58 C 0.2888 0.9783 0.10164 0.0
C59 C 0.30004 0.95014 0.21572 0.0
C60 C 0.2729 0.95874 0.24715 0.0
C61 C 0.2535 0.97702 0.20658 0.0
C62 C 0.26213 0.9875 0.13428 0.0
H63 H 0.52733 0.3131 0.15453 0.0
H64 H 0.48942 0.22341 0.12974 0.0
H65 H 0.53742 0.24914 0.33326 0.0
C66 C 0.5234 0.29067 0.17764 0.0
C67 C 0.53352 0.28414 0.2503 0.0
C68 C 0.50729 0.2691 0.13471 0.0
C69 C 0.50222 0.23991 0.16304 0.0
C70 C 0.51374 0.23217 0.2343 0.0
C71 C 0.5291 0.2546 0.27779 0.0
O72 O 0.08592 0.0039 0.59856 0.0
Zn73 Zn 0.06242 0.00694 0.69651 0.0
O74 O 0.01896 0.00493 0.67584 0.0
Zn75 Zn 0.00182 0.04219 0.70737 0.0
Zn76 Zn 0.01138 0.9986 0.56779 0.0
Zn77 Zn 0.99881 0.97257 0.73302 0.0
O78 O 0.97086 0.03604 0.78735 0.0
O79 O 0.96449 0.98645 0.79895 0.0
O80 O 0.07509 0.04671 0.74914 0.0
O81 O 0.03272 0.07083 0.7496 0.0
O82 O 0.98321 0.06265 0.62096 0.0
O83 O 0.98757 0.03213 0.52217 0.0
O84 O 0.99193 0.95726 0.54879 0.0
O85 O 0.07352 0.97284 0.76638 0.0
O86 O 0.9853 0.93827 0.66377 0.0
O87 O 0.02858 0.9552 0.80198 0.0
C88 C 0.07782 0.00113 0.52964 0.0
C89 C 0.9576 0.01319 0.81708 0.0
C90 C 0.97874 0.05657 0.55151 0.0
C91 C 0.06037 0.07005 0.76428 0.0
C92 C 0.98384 0.93553 0.59212 0.0
C93 C 0.05684 0.95572 0.80737 0.0
O94 O 0.05036 0.99913 0.51156 0.0
O95 O 0.50681 0.04835 0.59277 0.0
Zn96 Zn 0.50887 0.0219 0.6863 0.0
O97 O 0.51927 0.98029 0.65637 0.0
Zn98 Zn 0.48882 0.95097 0.69075 0.0
Zn99 Zn 0.52233 0.9765 0.5472 0.0
Zn100 Zn 0.55735 0.97033 0.70012 0.0
O101 O 0.50524 0.92129 0.76372 0.0
O102 O 0.55234 0.93758 0.77909 0.0
O103 O 0.46849 0.02176 0.73987 0.0
O104 O 0.45661 0.97265 0.74372 0.0
O105 O 0.46763 0.92898 0.60553 0.0
O106 O 0.48938 0.94972 0.5052 0.0
O107 O 0.56183 0.96084 0.51414 0.0
O108 O 0.54084 0.0414 0.75546 0.0
O109 O 0.5875 0.95889 0.62119 0.0
O110 O 0.57504 0.00646 0.75173 0.0
C111 C 0.51144 0.04314 0.52281 0.0
C112 C 0.5305 0.91964 0.79571 0.0
C113 C 0.46963 0.93202 0.5343 0.0
C114 C 0.45061 0.99992 0.7583 0.0
C115 C 0.58571 0.95576 0.54978 0.0
C116 C 0.56668 0.03238 0.77174 0.0
O117 O 0.51799 0.01698 0.49944 0.0
O118 O 0.45089 0.49179 0.64913 0.0
Zn119 Zn 0.47733 0.49209 0.74142 0.0
O120 O 0.51868 0.5041 0.71383 0.0
Zn121 Zn 0.54528 0.47196 0.73837 0.0
Zn122 Zn 0.52117 0.51234 0.60572 0.0
Zn123 Zn 0.53203 0.54016 0.76916 0.0
O124 O 0.57845 0.48569 0.80835 0.0
O125 O 0.56957 0.53391 0.82909 0.0
O126 O 0.47493 0.44991 0.78676 0.0
O127 O 0.52242 0.43783 0.7869 0.0
O128 O 0.56265 0.45376 0.64539 0.0
O129 O 0.54361 0.48005 0.55193 0.0
O130 O 0.53969 0.55365 0.58516 0.0
O131 O 0.46061 0.52182 0.81727 0.0
O132 O 0.53957 0.5753 0.69893 0.0
O133 O 0.50043 0.5519 0.8412 0.0
C134 C 0.4548 0.50136 0.58198 0.0
C135 C 0.58524 0.51096 0.83967 0.0
C136 C 0.55916 0.45852 0.57523 0.0
C137 C 0.49517 0.43136 0.80107 0.0
C138 C 0.54373 0.57666 0.62789 0.0
C139 C 0.47339 0.54376 0.85305 0.0
O140 O 0.48012 0.51142 0.55902 0.0
O141 O 0.9853 0.55073 0.59413 0.0
Zn142 Zn 0.02374 0.5471 0.65426 0.0
O143 O 0.03209 0.5041 0.67309 0.0
Zn144 Zn 0.03111 0.49517 0.78125 0.0
Zn145 Zn 0.00261 0.47794 0.62131 0.0
Zn146 Zn 0.07142 0.49491 0.63571 0.0
O147 O 0.07039 0.48108 0.82021 0.0
O148 O 0.09957 0.48491 0.71928 0.0
O149 O 0.01926 0.56923 0.75438 0.0
O150 O 0.0229 0.53305 0.84008 0.0
O151 O 0.99889 0.46414 0.80621 0.0
O152 O 0.97757 0.4537 0.69531 0.0
O153 O 0.02158 0.44992 0.54664 0.0
O154 O 0.0577 0.56825 0.59513 0.0
O155 O 0.06993 0.46131 0.55769 0.0
O156 O 0.08976 0.53133 0.58796 0.0
C157 C 0.96877 0.53064 0.56123 0.0
C158 C 0.0958 0.47943 0.78911 0.0
C159 C 0.97908 0.4502 0.76651 0.0
C160 C 0.01914 0.56056 0.82307 0.0
C161 C 0.04848 0.44593 0.52741 0.0
C162 C 0.08284 0.55838 0.57526 0.0
O163 O 0.97382 0.50267 0.56524 0.0
H164 H 0.24124 0.99154 0.35495 0.0
H165 H 0.19949 0.97951 0.13494 0.0
H166 H 0.15036 0.9875 0.19264 0.0
H167 H 0.18616 0.95039 0.45698 0.0
H168 H 0.18819 0.9744 0.53954 0.0
H169 H 0.22036 0.97105 0.47995 0.0
H170 H 0.22361 0.02913 0.46276 0.0
H171 H 0.19149 0.03269 0.52267 0.0
H172 H 0.19157 0.04823 0.42876 0.0
H173 H 0.10545 0.99281 0.27575 0.0
H174 H 0.06813 0.99617 0.3771 0.0
H175 H 0.13906 0.00313 0.54394 0.0
C176 C 0.22183 0.99067 0.31865 0.0
C177 C 0.22433 0.98483 0.24017 0.0
C178 C 0.19829 0.98436 0.19487 0.0
C179 C 0.17024 0.9887 0.22725 0.0
C180 C 0.16856 0.99358 0.30501 0.0
C181 C 0.19368 0.99476 0.35006 0.0
C182 C 0.18568 0.99888 0.43262 0.0
C183 C 0.19569 0.97208 0.48004 0.0
C184 C 0.19887 0.02903 0.4635 0.0
C185 C 0.15205 0.99927 0.4272 0.0
C186 C 0.14265 0.9964 0.35302 0.0
C187 C 0.11256 0.99531 0.33396 0.0
C188 C 0.09152 0.99716 0.39214 0.0
C189 C 0.10056 0.99995 0.4688 0.0
C190 C 0.13133 0.00115 0.4861 0.0
H191 H 0.5024 0.21343 0.38035 0.0
H192 H 0.51801 0.17952 0.15356 0.0
H193 H 0.51583 0.1274 0.20195 0.0
H194 H 0.5489 0.16281 0.47312 0.0
H195 H 0.52543 0.15829 0.5552 0.0
H196 H 0.52525 0.19276 0.50187 0.0
H197 H 0.46813 0.18601 0.48395 0.0
H198 H 0.46811 0.15151 0.53741 0.0
H199 H 0.4527 0.15141 0.44336 0.0
H200 H 0.51538 0.07943 0.27559 0.0
H201 H 0.51641 0.03861 0.36915 0.0
H202 H 0.50263 0.10364 0.54936 0.0
C203 C 0.50531 0.19509 0.34068 0.0
C204 C 0.5103 0.20068 0.26292 0.0
C205 C 0.51364 0.17589 0.21305 0.0
C206 C 0.51261 0.14618 0.24008 0.0
C207 C 0.5082 0.14157 0.31714 0.0
C208 C 0.50452 0.16531 0.36674 0.0
C209 C 0.50153 0.15428 0.44744 0.0
C210 C 0.52678 0.16784 0.49732 0.0
C211 C 0.47078 0.16121 0.47993 0.0
C212 C 0.50463 0.12066 0.43558 0.0
C213 C 0.50823 0.11383 0.3599 0.0
C214 C 0.51238 0.08446 0.33496 0.0
C215 C 0.513 0.06142 0.38875 0.0
C216 C 0.5096 0.06782 0.46687 0.0
C217 C 0.50515 0.0979 0.4902 0.0
H218 H 0.3398 0.56612 0.2859 0.0
H219 H 0.29156 0.47962 0.29844 0.0
H220 H 0.33073 0.46028 0.38116 0.0
H221 H 0.41547 0.53429 0.28474 0.0
H222 H 0.43125 0.5651 0.34054 0.0
H223 H 0.40053 0.57135 0.27779 0.0
H224 H 0.37049 0.59263 0.38956 0.0
H225 H 0.40093 0.58618 0.45282 0.0
H226 H 0.36439 0.56989 0.47271 0.0
H227 H 0.37086 0.45287 0.47592 0.0
H228 H 0.41362 0.45537 0.56415 0.0
H229 H 0.43873 0.54483 0.48223 0.0
C230 C 0.33797 0.54291 0.30483 0.0
C231 C 0.31292 0.52419 0.28557 0.0
C232 C 0.31088 0.49407 0.31179 0.0
C233 C 0.3329 0.48298 0.35904 0.0
C234 C 0.35706 0.50213 0.37831 0.0
C235 C 0.36013 0.53124 0.35078 0.0
C236 C 0.38809 0.54724 0.38143 0.0
C237 C 0.41014 0.55493 0.31732 0.0
C238 C 0.3805 0.57566 0.42683 0.0
C239 C 0.39966 0.52291 0.43235 0.0
C240 C 0.38128 0.49716 0.43006 0.0
C241 C 0.38583 0.4726 0.47698 0.0
C242 C 0.40999 0.47428 0.52716 0.0
C243 C 0.42951 0.50009 0.52899 0.0
C244 C 0.4244 0.5246 0.4806 0.0
H245 H 0.00841 0.31016 0.24496 0.0
H246 H 0.10327 0.29724 0.22319 0.0
H247 H 0.11367 0.34495 0.29275 0.0
H248 H 0.01136 0.39473 0.2403 0.0
H249 H 0.98249 0.3967 0.31067 0.0
H250 H 0.98274 0.36516 0.24589 0.0
H251 H 0.9821 0.32837 0.35923 0.0
H252 H 0.98231 0.35969 0.4243 0.0
H253 H 0.01083 0.33228 0.43016 0.0
H254 H 0.11362 0.38971 0.38138 0.0
H255 H 0.10318 0.42892 0.47642 0.0
H256 H 0.00825 0.41094 0.44511 0.0
C257 C 0.0314 0.31769 0.25326 0.0
C258 C 0.05503 0.29989 0.22849 0.0
C259 C 0.08478 0.31066 0.24039 0.0
C260 C 0.09091 0.33767 0.28038 0.0
C261 C 0.06705 0.35376 0.30766 0.0
C262 C 0.03787 0.34434 0.29375 0.0
C263 C 0.01625 0.36384 0.33554 0.0
C264 C 0.99708 0.38114 0.27976 0.0
C265 C 0.99674 0.34491 0.39056 0.0
C266 C 0.03783 0.385 0.37747 0.0
C267 C 0.06701 0.37916 0.35981 0.0
C268 C 0.09084 0.39478 0.39472 0.0
C269 C 0.08466 0.41693 0.44896 0.0
C270 C 0.05488 0.42309 0.46845 0.0
C271 C 0.03127 0.40695 0.43149 0.0
H272 H 0.80746 0.98065 0.05247 0.0
H273 H 0.81601 0.07383 0.12766 0.0
H274 H 0.86557 0.07887 0.06744 0.0
H275 H 0.88839 0.96327 0.06745 0.0
H276 H 0.88715 0.94051 0.98267 0.0
H277 H 0.85449 0.94272 0.04132 0.0
H278 H 0.82428 0.96006 0.92583 0.0
H279 H 0.85685 0.95823 0.86706 0.0
H280 H 0.83724 0.99288 0.87379 0.0
H281 H 0.91055 0.07592 0.988 0.0
H282 H 0.94967 0.06515 0.89582 0.0
H283 H 0.91292 0.97356 0.8688 0.0
C284 C 0.82034 0.00171 0.0582 0.0
C285 C 0.80838 0.02676 0.09564 0.0
C286 C 0.82515 0.05437 0.09999 0.0
C287 C 0.85324 0.0574 0.066 0.0
C288 C 0.86417 0.03259 0.02766 0.0
C289 C 0.84842 0.00519 0.02384 0.0
C290 C 0.86423 0.98304 0.97334 0.0
C291 C 0.87416 0.95577 0.01893 0.0
C292 C 0.84447 0.97298 0.90603 0.0
C293 C 0.8908 0.00258 0.94777 0.0
C294 C 0.89036 0.03097 0.98054 0.0
C295 C 0.91139 0.05367 0.96273 0.0
C296 C 0.93344 0.04733 0.90981 0.0
C297 C 0.93444 0.01848 0.87495 0.0
C298 C 0.91296 0.99571 0.89503 0.0
H299 H 0.49884 0.76564 0.01268 0.0
H300 H 0.51894 0.81509 0.22098 0.0
H301 H 0.53507 0.85937 0.14633 0.0
H302 H 0.55543 0.79918 0.89348 0.0
H303 H 0.53115 0.80131 0.81277 0.0
H304 H 0.52489 0.77195 0.88165 0.0
H305 H 0.47076 0.78865 0.90141 0.0
H306 H 0.47673 0.81778 0.83199 0.0
H307 H 0.4643 0.82745 0.92559 0.0
H308 H 0.54889 0.89879 0.04825 0.0
H309 H 0.55141 0.93238 0.93673 0.0
H310 H 0.51473 0.85958 0.79642 0.0
C311 C 0.50617 0.78568 0.04362 0.0
C312 C 0.50774 0.78625 0.12366 0.0
C313 C 0.51825 0.81331 0.16002 0.0
C314 C 0.52735 0.83881 0.11802 0.0
C315 C 0.5253 0.8373 0.03958 0.0
C316 C 0.51436 0.81163 0.00291 0.0
C317 C 0.51151 0.81671 0.91872 0.0
C318 C 0.53197 0.79606 0.87404 0.0
C319 C 0.47889 0.8124 0.89294 0.0
C320 C 0.52225 0.84943 0.91382 0.0
C321 C 0.53093 0.86066 0.98383 0.0
C322 C 0.54205 0.89027 0.99324 0.0
C323 C 0.54358 0.90909 0.92973 0.0
C324 C 0.53328 0.8984 0.85857 0.0
C325 C 0.52276 0.86816 0.85044 0.0
H326 H 0.72865 0.45219 0.04932 0.0
H327 H 0.75155 0.54556 0.10785 0.0
H328 H 0.704 0.56104 0.05334 0.0
H329 H 0.69914 0.46761 0.87084 0.0
H330 H 0.67002 0.4385 0.87451 0.0
H331 H 0.70398 0.43422 0.92659 0.0
H332 H 0.67378 0.42687 0.05035 0.0
H333 H 0.63966 0.43096 0.99852 0.0
H334 H 0.64806 0.45504 0.07879 0.0
H335 H 0.65561 0.56684 0.98347 0.0
H336 H 0.61035 0.56242 0.90429 0.0
H337 H 0.6206 0.46554 0.88666 0.0
C338 C 0.72364 0.47589 0.05126 0.0
C339 C 0.74389 0.4976 0.08335 0.0
C340 C 0.73624 0.52836 0.08506 0.0
C341 C 0.70933 0.53743 0.05373 0.0
C342 C 0.69029 0.5155 0.02089 0.0
C343 C 0.69707 0.48535 0.0197 0.0
C344 C 0.67379 0.46649 0.97685 0.0
C345 C 0.68756 0.4508 0.90813 0.0
C346 C 0.65788 0.44349 0.02927 0.0
C347 C 0.65313 0.49084 0.95277 0.0
C348 C 0.66282 0.51891 0.97938 0.0
C349 C 0.6477 0.54493 0.96277 0.0
C350 C 0.62203 0.54219 0.91763 0.0
C351 C 0.61188 0.51365 0.88905 0.0
C352 C 0.62769 0.4877 0.90746 0.0
H353 H 0.01753 0.72553 0.00437 0.0
H354 H 0.0225 0.68372 0.22501 0.0
H355 H 0.01677 0.63329 0.16474 0.0
H356 H 0.96461 0.67052 0.9183 0.0
H357 H 0.98305 0.67223 0.82789 0.0
H358 H 0.98411 0.70485 0.88927 0.0
H359 H 0.04181 0.70688 0.88395 0.0
H360 H 0.04094 0.67428 0.82277 0.0
H361 H 0.06176 0.67394 0.90982 0.0
H362 H 0.0149 0.58742 0.07891 0.0
H363 H 0.01682 0.54993 0.97565 0.0
H364 H 0.01461 0.62217 0.81106 0.0
C365 C 0.01736 0.70582 0.04029 0.0
C366 C 0.02066 0.70864 0.11959 0.0
C367 C 0.01974 0.68219 0.1643 0.0
C368 C 0.0166 0.65345 0.13051 0.0
C369 C 0.01425 0.65155 0.05198 0.0
C370 C 0.01444 0.67708 0.00754 0.0
C371 C 0.0133 0.669 0.92426 0.0
C372 C 0.98455 0.67979 0.8878 0.0
C373 C 0.04111 0.68178 0.8828 0.0
C374 C 0.01316 0.63489 0.92853 0.0
C375 C 0.01339 0.62524 0.00268 0.0
C376 C 0.01446 0.59474 0.0207 0.0
C377 C 0.0156 0.5736 0.96147 0.0
C378 C 0.01584 0.58301 0.88494 0.0
C379 C 0.01426 0.61412 0.86873 0.0
H380 H 0.00485 0.15811 0.20169 0.0
H381 H 0.99674 0.23145 0.36566 0.0
H382 H 0.96914 0.19745 0.4478 0.0
H383 H 0.93695 0.11067 0.2558 0.0
H384 H 0.95737 0.07655 0.24831 0.0
H385 H 0.96651 0.1081 0.18749 0.0
H386 H 0.0214 0.10823 0.23292 0.0
H387 H 0.01245 0.07667 0.2928 0.0
H388 H 0.02928 0.11077 0.33272 0.0
H389 H 0.95128 0.15526 0.52517 0.0
H390 H 0.95362 0.1085 0.59794 0.0
H391 H 0.98102 0.0606 0.39656 0.0
C392 C 0.99757 0.16773 0.25424 0.0
C393 C 0.00384 0.19846 0.27455 0.0
C394 C 0.99231 0.20885 0.34465 0.0
C395 C 0.97626 0.18942 0.3931 0.0
C396 C 0.97216 0.15922 0.37261 0.0
C397 C 0.98291 0.14829 0.30526 0.0
C398 C 0.98193 0.114 0.30417 0.0
C399 C 0.95934 0.1016 0.24545 0.0
C400 C 0.01311 0.10173 0.2899 0.0
C401 C 0.97114 0.10753 0.38382 0.0
C402 C 0.96403 0.13393 0.4206 0.0
C403 C 0.95637 0.13439 0.49675 0.0
C404 C 0.95788 0.10763 0.53774 0.0
C405 C 0.96785 0.08093 0.50309 0.0
C406 C 0.97295 0.08053 0.42429 0.0
H407 H 0.36051 0.95925 0.20768 0.0
H408 H 0.29202 0.9085 0.33184 0.0
H409 H 0.33073 0.89004 0.41738 0.0
H410 H 0.41972 0.90164 0.22766 0.0
H411 H 0.44815 0.93138 0.23442 0.0
H412 H 0.41556 0.93643 0.17706 0.0
H413 H 0.40494 0.98555 0.25104 0.0
H414 H 0.43722 0.98065 0.30853 0.0
H415 H 0.40132 0.98417 0.35245 0.0
H416 H 0.37591 0.88497 0.50147 0.0
H417 H 0.4223 0.89402 0.57445 0.0
H418 H 0.46095 0.94362 0.38544 0.0
C419 C 0.35343 0.94307 0.2502 0.0
C420 C 0.32298 0.93525 0.26206 0.0
C421 C 0.31508 0.91519 0.3216 0.0
C422 C 0.33699 0.90422 0.36994 0.0
C423 C 0.36674 0.91287 0.35682 0.0
C424 C 0.37491 0.93146 0.29737 0.0
C425 C 0.40776 0.94004 0.29884 0.0
C426 C 0.42374 0.92655 0.23043 0.0
C427 C 0.41308 0.97462 0.30304 0.0
C428 C 0.41662 0.92494 0.37121 0.0
C429 C 0.39286 0.90894 0.40351 0.0
C430 C 0.39486 0.89667 0.47567 0.0
C431 C 0.42134 0.90194 0.51675 0.0
C432 C 0.44536 0.91944 0.48555 0.0
C433 C 0.44329 0.9297 0.41052 0.0
H434 H 0.51678 0.34272 0.25689 0.0
H435 H 0.57967 0.28178 0.35381 0.0
H436 H 0.59907 0.32318 0.43679 0.0
H437 H 0.5675 0.41111 0.26034 0.0
H438 H 0.53713 0.43513 0.28199 0.0
H439 H 0.5306 0.40149 0.22563 0.0
H440 H 0.48956 0.38284 0.31927 0.0
H441 H 0.49583 0.41635 0.37543 0.0
H442 H 0.4985 0.37972 0.41818 0.0
H443 H 0.60677 0.36962 0.51953 0.0
H444 H 0.60107 0.41588 0.59602 0.0
H445 H 0.53616 0.44689 0.43552 0.0
C446 C 0.53536 0.33813 0.29345 0.0
C447 C 0.54685 0.30893 0.29804 0.0
C448 C 0.5703 0.30384 0.34947 0.0
C449 C 0.58172 0.32734 0.39614 0.0
C450 C 0.56981 0.35585 0.38968 0.0
C451 C 0.54729 0.36129 0.33904 0.0
C452 C 0.5366 0.39308 0.3464 0.0
C453 C 0.54338 0.41127 0.2743 0.0
C454 C 0.50317 0.39296 0.36604 0.0
C455 C 0.55569 0.40444 0.41162 0.0
C456 C 0.57499 0.38282 0.4354 0.0
C457 C 0.59229 0.38697 0.50029 0.0
C458 C 0.58893 0.41333 0.54335 0.0
C459 C 0.56843 0.43515 0.52119 0.0
C460 C 0.55261 0.43108 0.45284 0.0
H461 H 0.23879 0.56527 0.40513 0.0
H462 H 0.20093 0.60794 0.20941 0.0
H463 H 0.15771 0.62202 0.2862 0.0
H464 H 0.17974 0.52971 0.46138 0.0
H465 H 0.18475 0.53365 0.5621 0.0
H466 H 0.21646 0.53598 0.50111 0.0
H467 H 0.23166 0.58877 0.55536 0.0
H468 H 0.20001 0.58643 0.61804 0.0
H469 H 0.20514 0.6183 0.55585 0.0
H470 H 0.11334 0.61853 0.37285 0.0
H471 H 0.07412 0.59847 0.45974 0.0
H472 H 0.14181 0.55963 0.59878 0.0
C473 C 0.22245 0.57924 0.37924 0.0
C474 C 0.22339 0.58543 0.30107 0.0
C475 C 0.2007 0.60273 0.26911 0.0
C476 C 0.17612 0.61104 0.31254 0.0
C477 C 0.17485 0.60254 0.38833 0.0
C478 C 0.19792 0.58764 0.42182 0.0
C479 C 0.18941 0.57637 0.49965 0.0
C480 C 0.19276 0.54192 0.50629 0.0
C481 C 0.20763 0.59351 0.56084 0.0
C482 C 0.15715 0.58473 0.502 0.0
C483 C 0.14924 0.60072 0.43863 0.0
C484 C 0.1195 0.60695 0.42388 0.0
C485 C 0.09732 0.59555 0.47345 0.0
C486 C 0.10516 0.57773 0.5358 0.0
C487 C 0.13543 0.57358 0.55183 0.0
H488 H 0.03218 0.84675 0.14266 0.0
H489 H 0.09747 0.7885 0.04423 0.0
H490 H 0.11312 0.82973 0.95688 0.0
H491 H 0.00781 0.87605 0.98317 0.0
H492 H 0.0023 0.9135 0.01963 0.0
H493 H 1.00072 0.88187 0.08239 0.0
H494 H 0.04185 0.90737 0.16621 0.0
H495 H 0.04353 0.93943 0.10384 0.0
H496 H 0.07684 0.91963 0.1245 0.0
H497 H 0.11612 0.87549 0.86892 0.0
H498 H 0.10379 0.91858 0.78682 0.0
H499 H 0.03724 0.94521 0.94824 0.0
C500 C 0.05081 0.84284 0.10555 0.0
C501 C 0.06397 0.81444 0.10163 0.0
C502 C 0.0871 0.81009 0.04866 0.0
C503 C 0.09632 0.83349 -0.00064 0.0
C504 C 0.08242 0.86111 0.00451 0.0
C505 C 0.06028 0.86578 0.057 0.0
C506 C 0.04603 0.89572 0.04635 0.0
C507 C 0.01225 0.8915 0.03197 0.0
C508 C 0.05246 0.91678 0.11426 0.0
C509 C 0.06243 0.90669 0.97687 0.0
C510 C 0.08391 0.88697 0.95426 0.0
C511 C 0.09983 0.89137 0.88711 0.0
C512 C 0.09282 0.91589 0.84098 0.0
C513 C 0.06974 0.93507 0.86196 0.0
C514 C 0.05522 0.93095 0.93172 0.0
H515 H 0.72208 0.04326 0.95368 0.0
H516 H 0.67896 0.07526 0.15607 0.0
H517 H 0.63512 0.08835 0.08044 0.0
H518 H 0.68551 0.09736 0.81356 0.0
H519 H 0.68288 0.06747 0.74404 0.0
H520 H 0.71387 0.06971 0.80892 0.0
H521 H 0.70152 0.01467 0.85069 0.0
H522 H 0.67059 0.01236 0.78686 0.0
H523 H 0.66476 0.00485 0.88589 0.0
H524 H 0.59219 0.08628 0.98994 0.0
H525 H 0.55491 0.06768 0.89563 0.0
H526 H 0.62606 0.03695 0.75311 0.0
C527 C 0.70411 0.05459 0.98135 0.0
C528 C 0.704 0.05852 0.06043 0.0
C529 C 0.6795 0.07219 0.09533 0.0
C530 C 0.65459 0.07988 0.05269 0.0
C531 C 0.65465 0.07408 0.97512 0.0
C532 C 0.67906 0.06211 0.93963 0.0
C533 C 0.67191 0.05296 0.85901 0.0
C534 C 0.68959 0.07309 0.80308 0.0
C535 C 0.6775 0.01923 0.84492 0.0
C536 C 0.63911 0.0593 0.85657 0.0
C537 C 0.62966 0.07249 0.92294 0.0
C538 C 0.59947 0.0768 0.93689 0.0
C539 C 0.57841 0.06625 0.88308 0.0
C540 C 0.5878 0.05108 0.81735 0.0
C541 C 0.61848 0.04885 0.80271 0.0
H542 H 0.48634 0.6525 0.19045 0.0
H543 H 0.42366 0.70858 0.07589 0.0
H544 H 0.40867 0.66518 0.99381 0.0
H545 H 0.51385 0.6208 0.04078 0.0
H546 H 0.51869 0.58376 0.07953 0.0
H547 H 0.51827 0.61589 0.14122 0.0
H548 H 0.47486 0.59083 0.21831 0.0
H549 H 0.47556 0.5582 0.15697 0.0
H550 H 0.44143 0.57762 0.17021 0.0
H551 H 0.40814 0.61899 0.90908 0.0
H552 H 0.42463 0.5771 0.82755 0.0
H553 H 0.4877 0.55251 0.99887 0.0
C554 C 0.46825 0.65543 0.15112 0.0
C555 C 0.45591 0.68397 0.14064 0.0
C556 C 0.43344 0.68696 0.08529 0.0
C557 C 0.42456 0.66231 0.0389 0.0
C558 C 0.43809 0.63475 0.04922 0.0
C559 C 0.45928 0.63123 0.10481 0.0
C560 C 0.47413 0.60132 0.09757 0.0
C561 C 0.50821 0.60574 0.0892 0.0
C562 C 0.46601 0.58078 0.16477 0.0
C563 C 0.45974 0.58945 0.0257 0.0
C564 C 0.43816 0.60838 -9e-05 0.0
C565 C 0.42433 0.6036 0.92989 0.0
C566 C 0.43368 0.57971 0.88406 0.0
C567 C 0.45696 0.5615 0.90817 0.0
C568 C 0.46928 0.56577 0.98064 0.0
H569 H 0.82328 0.46244 0.93432 0.0
H570 H 0.85605 0.41552 0.12975 0.0
H571 H 0.89697 0.39615 0.05314 0.0
H572 H 0.85067 0.40401 0.78454 0.0
H573 H 0.85935 0.43461 0.72056 0.0
H574 H 0.82777 0.43652 0.7831 0.0
H575 H 0.84871 0.48787 0.83464 0.0
H576 H 0.88035 0.48599 0.7736 0.0
H577 H 0.88576 0.49027 0.87411 0.0
H578 H 0.94133 0.39667 0.97188 0.0
H579 H 0.98276 0.41259 0.88749 0.0
H580 H 0.92045 0.45474 0.73868 0.0
C581 C 0.83801 0.44661 0.95974 0.0
C582 C 0.83659 0.44059 0.03792 0.0
C583 C 0.85688 0.4206 0.06997 0.0
C584 C 0.88008 0.4093 0.02669 0.0
C585 C 0.88224 0.41751 0.95092 0.0
C586 C 0.86118 0.43498 0.91694 0.0
C587 C 0.87094 0.44452 0.83841 0.0
C588 C 0.851 0.42897 0.77808 0.0
C589 C 0.8715 0.47919 0.82983 0.0
C590 C 0.90199 0.43241 0.8367 0.0
C591 C 0.90786 0.41626 0.90142 0.0
C592 C 0.93668 0.40797 0.91938 0.0
C593 C 0.96011 0.41718 0.87143 0.0
C594 C 0.95449 0.4341 0.80591 0.0
C595 C 0.92498 0.44064 0.78681 0.0
H596 H 0.04323 0.22129 0.98371 0.0
H597 H 0.11254 0.19245 0.13304 0.0
H598 H 0.12755 0.15479 0.03783 0.0
H599 H 0.01818 0.15328 0.93786 0.0
H600 H 0.00866 0.15996 0.84057 0.0
H601 H 0.00984 0.19073 0.90682 0.0
H602 H 0.04795 0.22048 0.82315 0.0
H603 H 0.04655 0.18989 0.7554 0.0
H604 H 0.08179 0.20311 0.7944 0.0
H605 H 0.12697 0.11305 0.94091 0.0
H606 H 0.11065 0.07172 0.85374 0.0
H607 H 0.0406 0.12718 0.7697 0.0
C608 C 0.06279 0.20833 0.99382 0.0
C609 C 0.07753 0.21033 0.06391 0.0
C610 C 0.10181 0.19184 0.0782 0.0
C611 C 0.11033 0.17034 0.02454 0.0
C612 C 0.09427 0.16769 0.9571 0.0
C613 C 0.0712 0.18655 0.94123 0.0
C614 C 0.05394 0.17586 0.87203 0.0
C615 C 0.02073 0.16957 0.89051 0.0
C616 C 0.0578 0.1987 0.80741 0.0
C617 C 0.06956 0.14704 0.85432 0.0
C618 C 0.09331 0.14303 0.90242 0.0
C619 C 0.10892 0.11634 0.90167 0.0
C620 C 0.09952 0.09295 0.85198 0.0
C621 C 0.07438 0.09625 0.80495 0.0
C622 C 0.06003 0.12406 0.80464 0.0
H623 H 0.30558 0.94717 0.97774 0.0
H624 H 0.30243 0.03748 0.07067 0.0
H625 H 0.33941 0.05563 0.97597 0.0
H626 H 0.37853 0.94612 0.96585 0.0
H627 H 0.38139 0.92461 0.87954 0.0
H628 H 0.34851 0.92047 0.93663 0.0
H629 H 0.3153 0.93465 0.82359 0.0
H630 H 0.34805 0.93798 0.76489 0.0
H631 H 0.32352 0.9691 0.77267 0.0
H632 H 0.38499 0.0609 0.89124 0.0
H633 H 0.43148 0.05348 0.81921 0.0
H634 H 0.4051 0.95905 0.78622 0.0
C635 C 0.31141 0.9711 0.97499 0.0
C636 C 0.30086 0.99107 0.03028 0.0
C637 C 0.30971 0.02204 0.02737 0.0
C638 C 0.33093 0.03244 0.97417 0.0
C639 C 0.34272 0.0116 0.92395 0.0
C640 C 0.33271 0.98164 0.92295 0.0
C641 C 0.35172 0.96273 0.8721 0.0
C642 C 0.36586 0.937 0.9162 0.0
C643 C 0.33356 0.9504 0.80427 0.0
C644 C 0.37492 0.98628 0.84769 0.0
C645 C 0.36921 0.01447 0.87678 0.0
C646 C 0.38924 0.03905 0.86673 0.0
C647 C 0.41569 0.0346 0.82608 0.0
C648 C 0.42204 0.00569 0.79701 0.0
C649 C 0.401 0.9815 0.80731 0.0
H650 H 0.53822 0.28415 0.00958 0.0
H651 H 0.44952 0.2803 0.10402 0.0
H652 H 0.43321 0.31636 0.00763 0.0
H653 H 0.54427 0.35667 0.99561 0.0
H654 H 0.56487 0.35992 0.90843 0.0
H655 H 0.56717 0.32648 0.96429 0.0
H656 H 0.54969 0.29291 0.85131 0.0
H657 H 0.54821 0.32623 0.79358 0.0
H658 H 0.51585 0.30115 0.80208 0.0
H659 H 0.4307 0.36237 0.92566 0.0
H660 H 0.44114 0.41066 0.85922 0.0
H661 H 0.53207 0.38473 0.82076 0.0
C662 C 0.5149 0.28937 0.00622 0.0
C663 C 0.49487 0.27905 0.06238 0.0
C664 C 0.46484 0.28734 0.05967 0.0
C665 C 0.45552 0.308 0.00547 0.0
C666 C 0.47649 0.31976 0.95421 0.0
C667 C 0.50546 0.3101 0.95297 0.0
C668 C 0.52506 0.32959 0.90191 0.0
C669 C 0.55188 0.34401 0.94519 0.0
C670 C 0.5353 0.31138 0.83312 0.0
C671 C 0.50328 0.353 0.87901 0.0
C672 C 0.47518 0.34669 0.90802 0.0
C673 C 0.45239 0.36706 0.90084 0.0
C674 C 0.45856 0.39453 0.86346 0.0
C675 C 0.48744 0.40154 0.83486 0.0
C676 C 0.50972 0.38008 0.8416 0.0
H677 H 0.23459 0.54751 0.00909 0.0
H678 H 0.22384 0.47346 0.16639 0.0
H679 H 0.1878 0.44762 0.07953 0.0
H680 H 0.16259 0.55208 0.95915 0.0
H681 H 0.16826 0.5601 0.86034 0.0
H682 H 0.19708 0.56993 0.92743 0.0
H683 H 0.23451 0.53848 0.85194 0.0
H684 H 0.20579 0.52878 0.78385 0.0
H685 H 0.22538 0.49939 0.8304 0.0
H686 H 0.14514 0.43637 0.99113 0.0
H687 H 0.10362 0.43723 0.89886 0.0
H688 H 0.14553 0.51557 0.79186 0.0
C689 C 0.22556 0.52524 0.0233 0.0
C690 C 0.23214 0.51208 0.09331 0.0
C691 C 0.21939 0.48342 0.11197 0.0
C692 C 0.19887 0.4687 0.06316 0.0
C693 C 0.19198 0.48271 0.99534 0.0
C694 C 0.20556 0.50998 0.97439 0.0
C695 C 0.19255 0.52143 0.90153 0.0
C696 C 0.17934 0.55271 0.91286 0.0
C697 C 0.21596 0.52204 0.83817 0.0
C698 C 0.16847 0.49726 0.887 0.0
C699 C 0.16846 0.47507 0.94166 0.0
C700 C 0.14559 0.45289 0.9463 0.0
C701 C 0.12209 0.45356 0.89405 0.0
C702 C 0.12206 0.47588 0.83733 0.0
C703 C 0.14581 0.49754 0.83295 0.0
H704 H 0.98556 0.82529 0.2464 0.0
H705 H 0.01352 0.75681 0.40155 0.0
H706 H 0.99598 0.78761 0.50923 0.0
H707 H 0.01647 0.88238 0.34178 0.0
H708 H 0.98916 0.91 0.32174 0.0
H709 H 0.99386 0.87903 0.25776 0.0
H710 H 0.93798 0.86318 0.26999 0.0
H711 H 0.93283 0.89454 0.33345 0.0
H712 H 0.922 0.85672 0.3622 0.0
H713 H 0.9853 0.83042 0.59909 0.0
H714 H 0.98534 0.88039 0.66142 0.0
H715 H 0.96878 0.92233 0.44542 0.0
C716 C 0.98661 0.81616 0.30298 0.0
C717 C 1.00046 0.78861 0.31609 0.0
C718 C 0.00238 0.77758 0.39056 0.0
C719 C 0.99256 0.79504 0.45185 0.0
C720 C 0.98089 0.82328 0.4372 0.0
C721 C 0.97772 0.8336 0.36415 0.0
C722 C 0.97022 0.86662 0.36265 0.0
C723 C 0.99383 0.88559 0.31845 0.0
C724 C 0.93889 0.87048 0.33017 0.0
C725 C 0.97118 0.8739 0.44616 0.0
C726 C 0.97635 0.84846 0.48855 0.0
C727 C 0.98065 0.8503 0.56651 0.0
C728 C 0.9806 0.87885 0.60149 0.0
C729 C 0.977 0.90533 0.55828 0.0
C730 C 0.97129 0.90252 0.48007 0.0
H731 H 0.73038 0.0173 0.35139 0.0
H732 H 0.71326 0.94963 0.17822 0.0
H733 H 0.67775 0.92247 0.26282 0.0
H734 H 0.71811 0.96381 0.52288 0.0
H735 H 0.7007 0.99351 0.57472 0.0
H736 H 0.73049 0.0026 0.50942 0.0
H737 H 0.69637 0.03925 0.44021 0.0
H738 H 0.66641 0.02994 0.50394 0.0
H739 H 0.66098 0.02522 0.40357 0.0
H740 H 0.63498 0.91178 0.34843 0.0
H741 H 0.59226 0.91468 0.43619 0.0
H742 H 0.63874 0.98663 0.56012 0.0
C743 C 0.72052 0.99572 0.33361 0.0
C744 C 0.72505 0.9849 0.25962 0.0
C745 C 0.71067 0.95757 0.23577 0.0
C746 C 0.69037 0.94215 0.28335 0.0
C747 C 0.68508 0.95419 0.35489 0.0
C748 C 0.70037 0.97995 0.38089 0.0
C749 C 0.68779 0.9905 0.45561 0.0
C750 C 0.71064 0.98741 0.51945 0.0
C751 C 0.67726 0.02313 0.45042 0.0
C752 C 0.6618 0.968 0.46483 0.0
C753 C 0.66077 0.94704 0.40653 0.0
C754 C 0.63619 0.92717 0.39612 0.0
C755 C 0.612 0.92902 0.44589 0.0
C756 C 0.6128 0.95021 0.50588 0.0
C757 C 0.63829 0.96936 0.5165 0.0
H758 H 0.48089 0.7141 0.42054 0.0
H759 H 0.5624 0.71835 0.29031 0.0
H760 H 0.58647 0.68652 0.3847 0.0
H761 H 0.51832 0.70747 0.61775 0.0
H762 H 0.48857 0.68176 0.64744 0.0
H763 H 0.48104 0.71193 0.58302 0.0
H764 H 0.4579 0.67275 0.48871 0.0
H765 H 0.46587 0.64247 0.55143 0.0
H766 H 0.47993 0.6421 0.45606 0.0
H767 H 0.5956 0.64265 0.46718 0.0
H768 H 0.59152 0.59589 0.5434 0.0
H769 H 0.50585 0.62216 0.62735 0.0
C770 C 0.50433 0.70974 0.41468 0.0
C771 C 0.52 0.71891 0.34918 0.0
C772 C 0.55032 0.71208 0.34118 0.0
C773 C 0.56408 0.69386 0.39434 0.0
C774 C 0.54737 0.68331 0.45587 0.0
C775 C 0.51839 0.6918 0.46764 0.0
C776 C 0.50386 0.67418 0.53176 0.0
C777 C 0.49759 0.69509 0.59899 0.0
C778 C 0.47524 0.65686 0.50534 0.0
C779 C 0.52831 0.65288 0.55033 0.0
C780 C 0.55339 0.65866 0.50654 0.0
C781 C 0.57673 0.63873 0.50431 0.0
C782 C 0.57423 0.61221 0.54729 0.0
C783 C 0.54883 0.60625 0.59255 0.0
C784 C 0.52602 0.62712 0.59546 0.0
H785 H 0.87451 0.51717 0.19225 0.0
H786 H 0.79637 0.50898 0.33545 0.0
H787 H 0.82643 0.52809 0.44419 0.0
H788 H 0.92151 0.48622 0.31684 0.0
H789 H 0.95391 0.50944 0.2927 0.0
H790 H 0.92501 0.50254 0.22402 0.0
H791 H 0.9197 0.56024 0.20826 0.0
H792 H 0.94868 0.56733 0.27734 0.0
H793 H 0.91274 0.58337 0.29003 0.0
H794 H 0.86676 0.53907 0.54078 0.0
H795 H 0.91331 0.53892 0.61594 0.0
H796 H 0.96506 0.53742 0.41004 0.0
C797 C 0.86353 0.51997 0.24617 0.0
C798 C 0.83312 0.51147 0.25554 0.0
C799 C 0.81955 0.51565 0.32681 0.0
C800 C 0.83649 0.52648 0.38883 0.0
C801 C 0.86684 0.53329 0.37828 0.0
C802 C 0.88014 0.5303 0.30838 0.0
C803 C 0.91365 0.53483 0.31322 0.0
C804 C 0.92942 0.50658 0.28509 0.0
C805 C 0.92431 0.56314 0.26963 0.0
C806 C 0.91741 0.53937 0.39745 0.0
C807 C 0.89013 0.53924 0.43395 0.0
C808 C 0.88816 0.54006 0.51264 0.0
C809 C 0.91463 0.5401 0.55489 0.0
C810 C 0.94251 0.53911 0.51824 0.0
C811 C 0.94394 0.53938 0.43884 0.0
loop_
_geom_bond_atom_site_label_1
_geom_bond_atom_site_label_2
_geom_bond_distance
_geom_bond_site_symmetry_2
_ccdc_geom_bond_type
H0 C3 0.931 . S
H1 C6 0.928 . S
H2 C8 0.930 . S
C3 H0 0.931 . S
C3 C4 1.413 . S
C3 C5 1.360 1_554 S
C4 C3 1.413 . S
C4 C8 1.429 . S
C5 C3 1.360 1_556 S
C5 C6 1.372 . S
C6 H1 0.928 . S
C6 C5 1.372 . S
C6 C7 1.404 1_556 S
C7 C6 1.404 1_554 S
C7 C8 1.391 . S
C8 H2 0.930 . S
C8 C4 1.429 . S
C8 C7 1.391 . S
H9 C12 0.931 . S
H10 C15 0.928 1_556 S
H11 C17 0.930 . S
C12 H9 0.931 . S
C12 C13 1.413 . S
C12 C14 1.360 . S
C13 C12 1.413 . S
C13 C17 1.429 . S
C14 C12 1.360 . S
C14 C15 1.372 . S
C15 H10 0.928 1_554 S
C15 C14 1.372 . S
C15 C16 1.404 . S
C16 C15 1.404 . S
C16 C17 1.391 . S
C17 H11 0.930 . S
C17 C13 1.429 . S
C17 C16 1.391 . S
H18 C21 0.931 . S
H19 C24 0.928 . S
H20 C26 0.931 . S
C21 H18 0.931 . S
C21 C22 1.413 . S
C21 C23 1.360 . S
C22 C21 1.413 . S
C22 C26 1.429 1_565 S
C23 C21 1.360 . S
C23 C24 1.373 1_554 S
C24 H19 0.928 . S
C24 C23 1.373 1_556 S
C24 C25 1.404 1_556 S
C25 C24 1.404 1_554 S
C25 C26 1.390 1_565 S
C26 H20 0.931 . S
C26 C22 1.429 1_545 S
C26 C25 1.390 1_545 S
H27 C30 0.931 . S
H28 C33 0.928 . S
H29 C35 0.930 . S
C30 H27 0.931 . S
C30 C31 1.403 1_554 S
C30 C32 1.360 . S
C31 C30 1.403 1_556 S
C31 C35 1.432 . S
C32 C30 1.360 . S
C32 C33 1.372 . S
C33 H28 0.928 . S
C33 C32 1.372 . S
C33 C34 1.404 . S
C34 C33 1.404 . S
C34 C35 1.391 1_554 S
C35 H29 0.930 . S
C35 C31 1.432 . S
C35 C34 1.391 1_556 S
H36 C39 0.931 . S
H37 C42 0.928 . S
H38 C44 0.930 . S
C39 H36 0.931 . S
C39 C40 1.413 . S
C39 C41 1.360 . S
C40 C39 1.413 . S
C40 C44 1.429 . S
C41 C39 1.360 . S
C41 C42 1.372 . S
C42 H37 0.928 . S
C42 C41 1.372 . S
C42 C43 1.404 . S
C43 C42 1.404 . S
C43 C44 1.391 . S
C44 H38 0.930 . S
C44 C40 1.429 . S
C44 C43 1.391 . S
H45 C48 0.931 . S
H46 C51 0.928 . S
H47 C53 0.930 . S
C48 H45 0.931 . S
C48 C49 1.413 . S
C48 C50 1.360 . S
C49 C48 1.413 . S
C49 C53 1.429 . S
C50 C48 1.360 . S
C50 C51 1.372 . S
C51 H46 0.928 . S
C51 C50 1.372 . S
C51 C52 1.404 . S
C52 C51 1.404 . S
C52 C53 1.391 . S
C53 H47 0.930 . S
C53 C49 1.429 . S
C53 C52 1.391 . S
H54 C57 0.930 . S
H55 C60 0.928 . S
H56 C62 0.929 . S
C57 H54 0.930 . S
C57 C58 1.413 . S
C57 C59 1.360 . S
C58 C57 1.413 . S
C58 C62 1.429 1_565 S
C59 C57 1.360 . S
C59 C60 1.372 . S
C60 H55 0.928 . S
C60 C59 1.372 . S
C60 C61 1.404 . S
C61 C60 1.404 . S
C61 C62 1.391 1_565 S
C62 H56 0.929 . S
C62 C58 1.429 1_545 S
C62 C61 1.391 1_545 S
H63 C66 0.931 . S
H64 C69 0.928 . S
H65 C71 0.930 . S
C66 H63 0.931 . S
C66 C67 1.413 . S
C66 C68 1.360 . S
C67 C66 1.413 . S
C67 C71 1.429 . S
C68 C66 1.360 . S
C68 C69 1.372 . S
C69 H64 0.928 . S
C69 C68 1.372 . S
C69 C70 1.404 . S
C70 C69 1.404 . S
C70 C71 1.391 . S
C71 H65 0.930 . S
C71 C67 1.429 . S
C71 C70 1.391 . S
O72 Zn73 1.953 . S
O72 C88 1.233 . S
Zn73 O72 1.953 . S
Zn73 O74 1.950 . S
Zn73 O80 1.919 1_565 S
Zn73 O85 1.924 . S
O74 Zn73 1.950 . S
O74 Zn75 1.900 1_565 S
O74 Zn76 1.953 . S
O74 Zn77 1.964 . S
Zn75 O74 1.900 1_545 S
Zn75 O78 1.933 1_455 S
Zn75 O81 1.941 . S
Zn75 O82 1.965 . S
Zn76 O74 1.953 . S
Zn76 O83 1.938 1_565 S
Zn76 O84 1.906 . S
Zn76 O94 1.953 . S
Zn77 O74 1.964 . S
Zn77 O79 1.932 1_455 S
Zn77 O86 1.977 1_455 S
Zn77 O87 1.910 . S
O78 Zn75 1.933 1_655 S
O78 C89 1.226 . S
O79 Zn77 1.932 1_655 S
O79 C89 1.307 1_565 S
O80 Zn73 1.919 1_545 S
O80 C91 1.253 . S
O81 Zn75 1.941 . S
O81 C91 1.283 . S
O82 Zn75 1.965 . S
O82 C90 1.303 . S
O83 Zn76 1.938 1_545 S
O83 C90 1.247 . S
O84 Zn76 1.906 . S
O84 C92 1.297 1_455 S
O85 Zn73 1.924 . S
O85 C93 1.311 . S
O86 Zn77 1.977 1_655 S
O86 C92 1.273 . S
O87 Zn77 1.910 . S
O87 C93 1.231 . S
C88 O72 1.233 . S
C88 O94 1.298 . S
C89 O78 1.226 . S
C89 O79 1.307 1_545 S
C90 O82 1.303 . S
C90 O83 1.247 . S
C91 O80 1.253 . S
C91 O81 1.283 . S
C92 O84 1.297 1_655 S
C92 O86 1.273 . S
C93 O85 1.311 . S
C93 O87 1.231 . S
O94 Zn76 1.953 . S
O94 C88 1.298 . S
O95 Zn96 1.953 . S
O95 C111 1.225 . S
Zn96 O95 1.953 . S
Zn96 O97 1.949 . S
Zn96 O103 1.919 . S
Zn96 O108 1.924 . S
O97 Zn96 1.949 . S
O97 Zn98 1.923 1_545 S
O97 Zn99 1.950 . S
O97 Zn100 1.945 1_545 S
Zn98 O97 1.923 1_565 S
Zn98 O101 1.933 . S
Zn98 O104 1.941 . S
Zn98 O105 1.965 . S
Zn99 O97 1.950 . S
Zn99 O106 1.938 . S
Zn99 O107 1.906 1_545 S
Zn99 O117 1.953 . S
Zn100 O97 1.945 1_565 S
Zn100 O102 1.932 . S
Zn100 O109 1.977 . S
Zn100 O110 1.910 1_565 S
O101 Zn98 1.933 . S
O101 C112 1.226 . S
O102 Zn100 1.932 . S
O102 C112 1.307 . S
O103 Zn96 1.919 . S
O103 C114 1.253 . S
O104 Zn98 1.941 . S
O104 C114 1.283 1_565 S
O105 Zn98 1.965 . S
O105 C113 1.303 . S
O106 Zn99 1.938 . S
O106 C113 1.247 1_545 S
O107 Zn99 1.906 1_565 S
O107 C115 1.304 . S
O108 Zn96 1.924 . S
O108 C116 1.311 . S
O109 Zn100 1.977 . S
O109 C115 1.272 . S
O110 Zn100 1.910 1_545 S
O110 C116 1.231 . S
C111 O95 1.225 . S
C111 O117 1.298 . S
C112 O101 1.226 . S
C112 O102 1.307 . S
C113 O105 1.303 . S
C113 O106 1.247 1_565 S
C114 O103 1.253 . S
C114 O104 1.283 1_545 S
C115 O107 1.304 . S
C115 O109 1.272 . S
C116 O108 1.311 . S
C116 O110 1.231 . S
O117 Zn99 1.953 . S
O117 C111 1.298 . S
O118 Zn119 1.953 . S
O118 C134 1.225 . S
Zn119 O118 1.953 . S
Zn119 O120 1.949 . S
Zn119 O126 1.919 . S
Zn119 O131 1.924 . S
O120 Zn119 1.949 . S
O120 Zn121 1.923 . S
O120 Zn122 1.950 . S
O120 Zn123 1.945 . S
Zn121 O120 1.923 . S
Zn121 O124 1.933 . S
Zn121 O127 1.941 . S
Zn121 O128 1.965 . S
Zn122 O120 1.950 . S
Zn122 O129 1.938 . S
Zn122 O130 1.906 . S
Zn122 O140 1.953 . S
Zn123 O120 1.945 . S
Zn123 O125 1.932 . S
Zn123 O132 1.977 . S
Zn123 O133 1.910 . S
O124 Zn121 1.933 . S
O124 C135 1.226 . S
O125 Zn123 1.932 . S
O125 C135 1.307 . S
O126 Zn119 1.919 . S
O126 C137 1.253 . S
O127 Zn121 1.941 . S
O127 C137 1.283 . S
O128 Zn121 1.965 . S
O128 C136 1.303 . S
O129 Zn122 1.938 . S
O129 C136 1.247 . S
O130 Zn122 1.906 . S
O130 C138 1.304 . S
O131 Zn119 1.924 . S
O131 C139 1.311 . S
O132 Zn123 1.977 . S
O132 C138 1.272 . S
O133 Zn123 1.910 . S
O133 C139 1.231 . S
C134 O118 1.225 . S
C134 O140 1.298 . S
C135 O124 1.226 . S
C135 O125 1.307 . S
C136 O128 1.303 . S
C136 O129 1.247 . S
C137 O126 1.253 . S
C137 O127 1.283 . S
C138 O130 1.304 . S
C138 O132 1.272 . S
C139 O131 1.311 . S
C139 O133 1.231 . S
O140 Zn122 1.953 . S
O140 C134 1.298 . S
O141 Zn142 1.953 1_655 S
O141 C157 1.225 . S
Zn142 O141 1.953 1_455 S
Zn142 O143 1.949 . S
Zn142 O149 1.919 . S
Zn142 O154 1.924 . S
O143 Zn142 1.949 . S
O143 Zn144 1.923 . S
O143 Zn145 1.950 1_455 S
O143 Zn146 1.945 . S
Zn144 O143 1.923 . S
Zn144 O147 1.933 . S
Zn144 O150 1.941 1_455 S
Zn144 O151 1.965 1_455 S
Zn145 O143 1.950 1_655 S
Zn145 O152 1.938 . S
Zn145 O153 1.906 1_655 S
Zn145 O163 1.953 . S
Zn146 O143 1.945 . S
Zn146 O148 1.932 . S
Zn146 O155 1.977 . S
Zn146 O156 1.910 . S
O147 Zn144 1.933 . S
O147 C158 1.226 . S
O148 Zn146 1.932 . S
O148 C158 1.307 . S
O149 Zn142 1.919 . S
O149 C160 1.253 . S
O150 Zn144 1.941 1_655 S
O150 C160 1.283 1_655 S
O151 Zn144 1.965 1_655 S
O151 C159 1.303 . S
O152 Zn145 1.938 . S
O152 C159 1.247 . S
O153 Zn145 1.906 1_455 S
O153 C161 1.304 . S
O154 Zn142 1.924 . S
O154 C162 1.311 . S
O155 Zn146 1.977 . S
O155 C161 1.272 . S
O156 Zn146 1.910 . S
O156 C162 1.231 . S
C157 O141 1.225 . S
C157 O163 1.298 . S
C158 O147 1.226 . S
C158 O148 1.307 . S
C159 O151 1.303 . S
C159 O152 1.247 . S
C160 O149 1.253 . S
C160 O150 1.283 1_455 S
C161 O153 1.304 . S
C161 O155 1.272 . S
C162 O154 1.311 . S
C162 O156 1.231 . S
O163 Zn145 1.953 . S
O163 C157 1.298 . S
H164 C176 0.930 . S
H165 C178 0.930 . S
H166 C179 0.930 . S
H167 C183 0.959 1_565 S
H168 C183 0.959 . S
H169 C183 0.961 . S
H170 C184 0.960 . S
H171 C184 0.961 . S
H172 C184 0.959 . S
H173 C187 0.929 . S
H174 C188 0.931 . S
H175 C190 0.930 . S
C176 H164 0.930 . S
C176 C177 1.399 1_545 S
C176 C181 1.399 . S
C177 C176 1.399 1_565 S
C177 C178 1.376 . S
C178 H165 0.930 . S
C178 C177 1.376 . S
C178 C179 1.388 . S
C179 H166 0.930 . S
C179 C178 1.388 . S
C179 C180 1.390 . S
C180 C179 1.390 . S
C180 C181 1.394 1_565 S
C180 C186 1.465 . S
C181 C176 1.399 . S
C181 C180 1.394 1_545 S
C181 C182 1.516 . S
C182 C181 1.516 . S
C182 C183 1.502 . S
C182 C184 1.561 . S
C182 C185 1.526 . S
C183 H167 0.959 1_545 S
C183 H168 0.959 . S
C183 H169 0.961 . S
C183 C182 1.502 . S
C184 H170 0.960 . S
C184 H171 0.961 . S
C184 H172 0.959 . S
C184 C182 1.561 . S
C185 C182 1.526 . S
C185 C186 1.396 1_545 S
C185 C190 1.390 . S
C186 C180 1.465 . S
C186 C185 1.396 1_565 S
C186 C187 1.399 . S
C187 H173 0.929 . S
C187 C186 1.399 . S
C187 C188 1.385 . S
C188 H174 0.931 . S
C188 C187 1.385 . S
C188 C189 1.389 . S
C189 C188 1.389 . S
C189 C190 1.387 1_565 S
C190 H175 0.930 . S
C190 C185 1.390 . S
C190 C189 1.387 1_545 S
H191 C203 0.930 . S
H192 C205 0.930 . S
H193 C206 0.930 . S
H194 C210 0.959 . S
H195 C210 0.959 . S
H196 C210 0.961 . S
H197 C211 0.960 . S
H198 C211 0.961 . S
H199 C211 0.959 . S
H200 C214 0.929 . S
H201 C215 0.931 . S
H202 C217 0.930 . S
C203 H191 0.930 . S
C203 C204 1.399 . S
C203 C208 1.399 . S
C204 C203 1.399 . S
C204 C205 1.376 . S
C205 H192 0.930 . S
C205 C204 1.376 . S
C205 C206 1.388 . S
C206 H193 0.930 . S
C206 C205 1.388 . S
C206 C207 1.390 . S
C207 C206 1.390 . S
C207 C208 1.394 . S
C207 C213 1.465 . S
C208 C203 1.399 . S
C208 C207 1.394 . S
C208 C209 1.516 . S
C209 C208 1.516 . S
C209 C210 1.502 . S
C209 C211 1.561 . S
C209 C212 1.526 . S
C210 H194 0.959 . S
C210 H195 0.959 . S
C210 H196 0.961 . S
C210 C209 1.502 . S
C211 H197 0.960 . S
C211 H198 0.961 . S
C211 H199 0.959 . S
C211 C209 1.561 . S
C212 C209 1.526 . S
C212 C213 1.396 . S
C212 C217 1.390 . S
C213 C207 1.465 . S
C213 C212 1.396 . S
C213 C214 1.399 . S
C214 H200 0.929 . S
C214 C213 1.399 . S
C214 C215 1.385 . S
C215 H201 0.931 . S
C215 C214 1.385 . S
C215 C216 1.389 . S
C216 C215 1.389 . S
C216 C217 1.387 . S
C217 H202 0.930 . S
C217 C212 1.390 . S
C217 C216 1.387 . S
H218 C230 0.930 . S
H219 C232 0.930 . S
H220 C233 0.930 . S
H221 C237 0.959 . S
H222 C237 0.959 . S
H223 C237 0.961 . S
H224 C238 0.960 . S
H225 C238 0.961 . S
H226 C238 0.959 . S
H227 C241 0.929 . S
H228 C242 0.931 . S
H229 C244 0.930 . S
C230 H218 0.930 . S
C230 C231 1.399 . S
C230 C235 1.399 . S
C231 C230 1.399 . S
C231 C232 1.376 . S
C232 H219 0.930 . S
C232 C231 1.376 . S
C232 C233 1.388 . S
C233 H220 0.930 . S
C233 C232 1.388 . S
C233 C234 1.390 . S
C234 C233 1.390 . S
C234 C235 1.394 . S
C234 C240 1.465 . S
C235 C230 1.399 . S
C235 C234 1.394 . S
C235 C236 1.516 . S
C236 C235 1.516 . S
C236 C237 1.502 . S
C236 C238 1.561 . S
C236 C239 1.526 . S
C237 H221 0.959 . S
C237 H222 0.959 . S
C237 H223 0.961 . S
C237 C236 1.502 . S
C238 H224 0.960 . S
C238 H225 0.961 . S
C238 H226 0.959 . S
C238 C236 1.561 . S
C239 C236 1.526 . S
C239 C240 1.396 . S
C239 C244 1.390 . S
C240 C234 1.465 . S
C240 C239 1.396 . S
C240 C241 1.399 . S
C241 H227 0.929 . S
C241 C240 1.399 . S
C241 C242 1.385 . S
C242 H228 0.931 . S
C242 C241 1.385 . S
C242 C243 1.389 . S
C243 C242 1.389 . S
C243 C244 1.387 . S
C244 H229 0.930 . S
C244 C239 1.390 . S
C244 C243 1.387 . S
H245 C257 0.930 . S
H246 C259 0.930 . S
H247 C260 0.930 . S
H248 C264 0.959 . S
H249 C264 0.959 . S
H250 C264 0.961 . S
H251 C265 0.960 . S
H252 C265 0.961 . S
H253 C265 0.959 . S
H254 C268 0.929 . S
H255 C269 0.931 . S
H256 C271 0.930 . S
C257 H245 0.930 . S
C257 C258 1.399 . S
C257 C262 1.399 . S
C258 C257 1.399 . S
C258 C259 1.376 . S
C259 H246 0.930 . S
C259 C258 1.376 . S
C259 C260 1.388 . S
C260 H247 0.930 . S
C260 C259 1.388 . S
C260 C261 1.390 . S
C261 C260 1.390 . S
C261 C262 1.394 . S
C261 C267 1.465 . S
C262 C257 1.399 . S
C262 C261 1.394 . S
C262 C263 1.516 . S
C263 C262 1.516 . S
C263 C264 1.502 . S
C263 C265 1.561 . S
C263 C266 1.526 . S
C264 H248 0.959 . S
C264 H249 0.959 . S
C264 H250 0.961 . S
C264 C263 1.502 . S
C265 H251 0.960 . S
C265 H252 0.961 . S
C265 H253 0.959 . S
C265 C263 1.561 . S
C266 C263 1.526 . S
C266 C267 1.396 . S
C266 C271 1.390 . S
C267 C261 1.465 . S
C267 C266 1.396 . S
C267 C268 1.399 . S
C268 H254 0.929 . S
C268 C267 1.399 . S
C268 C269 1.385 . S
C269 H255 0.931 . S
C269 C268 1.385 . S
C269 C270 1.389 . S
C270 C269 1.389 . S
C270 C271 1.387 . S
C271 H256 0.930 . S
C271 C266 1.390 . S
C271 C270 1.387 . S
H272 C284 0.930 . S
H273 C286 0.930 . S
H274 C287 0.930 . S
H275 C291 0.959 . S
H276 C291 0.959 . S
H277 C291 0.961 . S
H278 C292 0.960 . S
H279 C292 0.961 . S
H280 C292 0.959 . S
H281 C295 0.929 . S
H282 C296 0.931 . S
H283 C298 0.930 . S
C284 H272 0.930 . S
C284 C285 1.399 1_566 S
C284 C289 1.399 . S
C285 C284 1.399 1_544 S
C285 C286 1.376 . S
C286 H273 0.930 . S
C286 C285 1.376 . S
C286 C287 1.388 1_554 S
C287 H274 0.930 . S
C287 C286 1.388 1_556 S
C287 C288 1.390 . S
C288 C287 1.390 . S
C288 C289 1.394 1_545 S
C288 C294 1.465 . S
C289 C284 1.399 . S
C289 C288 1.394 1_565 S
C289 C290 1.516 . S
C290 C289 1.516 . S
C290 C291 1.502 . S
C290 C292 1.561 . S
C290 C293 1.526 . S
C291 H275 0.959 . S
C291 H276 0.959 . S
C291 H277 0.961 . S
C291 C290 1.502 . S
C292 H278 0.960 . S
C292 H279 0.961 . S
C292 H280 0.959 . S
C292 C290 1.561 . S
C293 C290 1.526 . S
C293 C294 1.396 1_565 S
C293 C298 1.390 . S
C294 C288 1.465 . S
C294 C293 1.396 1_545 S
C294 C295 1.399 . S
C295 H281 0.929 . S
C295 C294 1.399 . S
C295 C296 1.385 . S
C296 H282 0.931 . S
C296 C295 1.385 . S
C296 C297 1.389 . S
C297 C296 1.389 . S
C297 C298 1.387 1_545 S
C298 H283 0.930 . S
C298 C293 1.390 . S
C298 C297 1.387 1_565 S
H299 C311 0.930 . S
H300 C313 0.930 . S
H301 C314 0.930 . S
H302 C318 0.959 1_556 S
H303 C318 0.959 . S
H304 C318 0.961 . S
H305 C319 0.960 1_554 S
H306 C319 0.961 . S
H307 C319 0.959 . S
H308 C322 0.929 . S
H309 C323 0.931 . S
H310 C325 0.930 . S
C311 H299 0.930 . S
C311 C312 1.399 1_554 S
C311 C316 1.399 1_554 S
C312 C311 1.399 1_556 S
C312 C313 1.376 . S
C313 H300 0.930 . S
C313 C312 1.376 . S
C313 C314 1.388 . S
C314 H301 0.930 . S
C314 C313 1.388 . S
C314 C315 1.390 . S
C315 C314 1.390 . S
C315 C316 1.394 . S
C315 C321 1.465 . S
C316 C311 1.399 1_556 S
C316 C315 1.394 . S
C316 C317 1.516 . S
C317 C316 1.516 . S
C317 C318 1.502 1_556 S
C317 C319 1.561 . S
C317 C320 1.526 . S
C318 H302 0.959 1_554 S
C318 H303 0.959 . S
C318 H304 0.961 . S
C318 C317 1.502 1_554 S
C319 H305 0.960 1_556 S
C319 H306 0.961 . S
C319 H307 0.959 . S
C319 C317 1.561 . S
C320 C317 1.526 . S
C320 C321 1.396 . S
C320 C325 1.390 . S
C321 C315 1.465 . S
C321 C320 1.396 . S
C321 C322 1.399 . S
C322 H308 0.929 . S
C322 C321 1.399 . S
C322 C323 1.385 . S
C323 H309 0.931 . S
C323 C322 1.385 . S
C323 C324 1.389 . S
C324 C323 1.389 . S
C324 C325 1.387 . S
C325 H310 0.930 . S
C325 C320 1.390 . S
C325 C324 1.387 . S
H326 C338 0.930 . S
H327 C340 0.930 1_554 S
H328 C341 0.930 . S
H329 C345 0.959 . S
H330 C345 0.959 . S
H331 C345 0.961 . S
H332 C346 0.960 . S
H333 C346 0.961 . S
H334 C346 0.959 . S
H335 C349 0.929 . S
H336 C350 0.931 . S
H337 C352 0.930 . S
C338 H326 0.930 . S
C338 C339 1.399 . S
C338 C343 1.399 . S
C339 C338 1.399 . S
C339 C340 1.376 . S
C340 H327 0.930 1_556 S
C340 C339 1.376 . S
C340 C341 1.388 . S
C341 H328 0.930 . S
C341 C340 1.388 . S
C341 C342 1.390 . S
C342 C341 1.390 . S
C342 C343 1.394 . S
C342 C348 1.465 . S
C343 C338 1.399 . S
C343 C342 1.394 . S
C343 C344 1.516 . S
C344 C343 1.516 . S
C344 C345 1.502 . S
C344 C346 1.561 . S
C344 C347 1.526 . S
C345 H329 0.959 . S
C345 H330 0.959 . S
C345 H331 0.961 . S
C345 C344 1.502 . S
C346 H332 0.960 . S
C346 H333 0.961 . S
C346 H334 0.959 . S
C346 C344 1.561 . S
C347 C344 1.526 . S
C347 C348 1.396 . S
C347 C352 1.390 . S
C348 C342 1.465 . S
C348 C347 1.396 . S
C348 C349 1.399 . S
C349 H335 0.929 . S
C349 C348 1.399 . S
C349 C350 1.385 . S
C350 H336 0.931 . S
C350 C349 1.385 . S
C350 C351 1.389 . S
C351 C350 1.389 . S
C351 C352 1.387 . S
C352 H337 0.930 . S
C352 C347 1.390 . S
C352 C351 1.387 . S
H353 C365 0.930 . S
H354 C367 0.930 . S
H355 C368 0.930 . S
H356 C372 0.959 . S
H357 C372 0.959 . S
H358 C372 0.961 . S
H359 C373 0.960 . S
H360 C373 0.961 . S
H361 C373 0.959 . S
H362 C376 0.929 . S
H363 C377 0.931 . S
H364 C379 0.930 . S
C365 H353 0.930 . S
C365 C366 1.399 1_556 S
C365 C370 1.399 . S
C366 C365 1.399 1_554 S
C366 C367 1.376 1_655 S
C367 H354 0.930 . S
C367 C366 1.376 1_455 S
C367 C368 1.388 . S
C368 H355 0.930 . S
C368 C367 1.388 . S
C368 C369 1.390 1_554 S
C369 C368 1.390 1_556 S
C369 C370 1.394 1_455 S
C369 C375 1.465 . S
C370 C365 1.399 . S
C370 C369 1.394 1_655 S
C370 C371 1.516 . S
C371 C370 1.516 . S
C371 C372 1.502 . S
C371 C373 1.561 . S
C371 C374 1.526 . S
C372 H356 0.959 . S
C372 H357 0.959 . S
C372 H358 0.961 . S
C372 C371 1.502 . S
C373 H359 0.960 . S
C373 H360 0.961 . S
C373 H361 0.959 . S
C373 C371 1.561 . S
C374 C371 1.526 . S
C374 C375 1.396 1_655 S
C374 C379 1.390 . S
C375 C369 1.465 . S
C375 C374 1.396 1_455 S
C375 C376 1.399 . S
C376 H362 0.929 . S
C376 C375 1.399 . S
C376 C377 1.385 . S
C377 H363 0.931 . S
C377 C376 1.385 . S
C377 C378 1.389 . S
C378 C377 1.389 . S
C378 C379 1.387 1_455 S
C379 H364 0.930 . S
C379 C374 1.390 . S
C379 C378 1.387 1_655 S
H380 C392 0.930 . S
H381 C394 0.930 . S
H382 C395 0.930 . S
H383 C399 0.959 . S
H384 C399 0.959 . S
H385 C399 0.961 . S
H386 C400 0.960 . S
H387 C400 0.961 . S
H388 C400 0.959 . S
H389 C403 0.929 . S
H390 C404 0.931 . S
H391 C406 0.930 . S
C392 H380 0.930 . S
C392 C393 1.399 . S
C392 C397 1.399 . S
C393 C392 1.399 . S
C393 C394 1.376 . S
C394 H381 0.930 . S
C394 C393 1.376 . S
C394 C395 1.388 . S
C395 H382 0.930 . S
C395 C394 1.388 . S
C395 C396 1.390 . S
C396 C395 1.390 . S
C396 C397 1.394 . S
C396 C402 1.465 . S
C397 C392 1.399 . S
C397 C396 1.394 . S
C397 C398 1.516 . S
C398 C397 1.516 . S
C398 C399 1.502 . S
C398 C400 1.561 . S
C398 C401 1.526 . S
C399 H383 0.959 . S
C399 H384 0.959 . S
C399 H385 0.961 . S
C399 C398 1.502 . S
C400 H386 0.960 . S
C400 H387 0.961 . S
C400 H388 0.959 . S
C400 C398 1.561 . S
C401 C398 1.526 . S
C401 C402 1.396 . S
C401 C406 1.390 . S
C402 C396 1.465 . S
C402 C401 1.396 . S
C402 C403 1.399 . S
C403 H389 0.929 . S
C403 C402 1.399 . S
C403 C404 1.385 . S
C404 H390 0.931 . S
C404 C403 1.385 . S
C404 C405 1.389 . S
C405 C404 1.389 . S
C405 C406 1.387 . S
C406 H391 0.930 . S
C406 C401 1.390 . S
C406 C405 1.387 . S
H407 C419 0.930 . S
H408 C421 0.930 . S
H409 C422 0.930 . S
H410 C426 0.959 . S
H411 C426 0.959 . S
H412 C426 0.961 . S
H413 C427 0.960 . S
H414 C427 0.961 . S
H415 C427 0.959 . S
H416 C430 0.929 . S
H417 C431 0.931 . S
H418 C433 0.930 . S
C419 H407 0.930 . S
C419 C420 1.399 1_545 S
C419 C424 1.399 . S
C420 C419 1.399 1_565 S
C420 C421 1.376 . S
C421 H408 0.930 . S
C421 C420 1.376 . S
C421 C422 1.388 . S
C422 H409 0.930 . S
C422 C421 1.388 . S
C422 C423 1.390 . S
C423 C422 1.390 . S
C423 C424 1.394 1_565 S
C423 C429 1.465 . S
C424 C419 1.399 . S
C424 C423 1.394 1_545 S
C424 C425 1.516 . S
C425 C424 1.516 . S
C425 C426 1.502 . S
C425 C427 1.561 . S
C425 C428 1.526 . S
C426 H410 0.959 . S
C426 H411 0.959 . S
C426 H412 0.961 . S
C426 C425 1.502 . S
C427 H413 0.960 . S
C427 H414 0.961 . S
C427 H415 0.959 . S
C427 C425 1.561 . S
C428 C425 1.526 . S
C428 C429 1.396 1_545 S
C428 C433 1.390 . S
C429 C423 1.465 . S
C429 C428 1.396 1_565 S
C429 C430 1.399 . S
C430 H416 0.929 . S
C430 C429 1.399 . S
C430 C431 1.385 . S
C431 H417 0.931 . S
C431 C430 1.385 . S
C431 C432 1.389 . S
C432 C431 1.389 . S
C432 C433 1.387 1_565 S
C433 H418 0.930 . S
C433 C428 1.390 . S
C433 C432 1.387 1_545 S
H434 C446 0.930 . S
H435 C448 0.930 . S
H436 C449 0.930 . S
H437 C453 0.959 . S
H438 C453 0.959 . S
H439 C453 0.961 . S
H440 C454 0.960 . S
H441 C454 0.961 . S
H442 C454 0.959 . S
H443 C457 0.929 . S
H444 C458 0.931 . S
H445 C460 0.930 . S
C446 H434 0.930 . S
C446 C447 1.399 . S
C446 C451 1.399 . S
C447 C446 1.399 . S
C447 C448 1.376 . S
C448 H435 0.930 . S
C448 C447 1.376 . S
C448 C449 1.388 . S
C449 H436 0.930 . S
C449 C448 1.388 . S
C449 C450 1.390 . S
C450 C449 1.390 . S
C450 C451 1.394 . S
C450 C456 1.465 . S
C451 C446 1.399 . S
C451 C450 1.394 . S
C451 C452 1.516 . S
C452 C451 1.516 . S
C452 C453 1.502 . S
C452 C454 1.561 . S
C452 C455 1.526 . S
C453 H437 0.959 . S
C453 H438 0.959 . S
C453 H439 0.961 . S
C453 C452 1.502 . S
C454 H440 0.960 . S
C454 H441 0.961 . S
C454 H442 0.959 . S
C454 C452 1.561 . S
C455 C452 1.526 . S
C455 C456 1.396 . S
C455 C460 1.390 . S
C456 C450 1.465 . S
C456 C455 1.396 . S
C456 C457 1.399 . S
C457 H443 0.929 . S
C457 C456 1.399 . S
C457 C458 1.385 . S
C458 H444 0.931 . S
C458 C457 1.385 . S
C458 C459 1.389 . S
C459 C458 1.389 . S
C459 C460 1.387 . S
C460 H445 0.930 . S
C460 C455 1.390 . S
C460 C459 1.387 . S
H461 C473 0.930 . S
H462 C475 0.930 . S
H463 C476 0.930 . S
H464 C480 0.959 . S
H465 C480 0.959 . S
H466 C480 0.961 . S
H467 C481 0.960 . S
H468 C481 0.961 . S
H469 C481 0.959 . S
H470 C484 0.929 . S
H471 C485 0.931 . S
H472 C487 0.930 . S
C473 H461 0.930 . S
C473 C474 1.399 . S
C473 C478 1.399 . S
C474 C473 1.399 . S
C474 C475 1.376 . S
C475 H462 0.930 . S
C475 C474 1.376 . S
C475 C476 1.388 . S
C476 H463 0.930 . S
C476 C475 1.388 . S
C476 C477 1.390 . S
C477 C476 1.390 . S
C477 C478 1.394 . S
C477 C483 1.465 . S
C478 C473 1.399 . S
C478 C477 1.394 . S
C478 C479 1.516 . S
C479 C478 1.516 . S
C479 C480 1.502 . S
C479 C481 1.561 . S
C479 C482 1.526 . S
C480 H464 0.959 . S
C480 H465 0.959 . S
C480 H466 0.961 . S
C480 C479 1.502 . S
C481 H467 0.960 . S
C481 H468 0.961 . S
C481 H469 0.959 . S
C481 C479 1.561 . S
C482 C479 1.526 . S
C482 C483 1.396 . S
C482 C487 1.390 . S
C483 C477 1.465 . S
C483 C482 1.396 . S
C483 C484 1.399 . S
C484 H470 0.929 . S
C484 C483 1.399 . S
C484 C485 1.385 . S
C485 H471 0.931 . S
C485 C484 1.385 . S
C485 C486 1.389 . S
C486 C485 1.389 . S
C486 C487 1.387 . S
C487 H472 0.930 . S
C487 C482 1.390 . S
C487 C486 1.387 . S
H488 C500 0.930 . S
H489 C502 0.930 . S
H490 C503 0.930 . S
H491 C507 0.959 1_556 S
H492 C507 0.959 1_455 S
H493 C507 0.961 . S
H494 C508 0.960 . S
H495 C508 0.961 . S
H496 C508 0.959 . S
H497 C511 0.929 . S
H498 C512 0.931 . S
H499 C514 0.930 . S
C500 H488 0.930 . S
C500 C501 1.399 . S
C500 C505 1.399 1_654 S
C501 C500 1.399 . S
C501 C502 1.376 1_654 S
C502 H489 0.930 . S
C502 C501 1.376 1_456 S
C502 C503 1.388 . S
C503 H490 0.930 . S
C503 C502 1.388 . S
C503 C504 1.390 . S
C504 C503 1.390 . S
C504 C505 1.394 . S
C504 C510 1.465 . S
C505 C500 1.399 1_456 S
C505 C504 1.394 . S
C505 C506 1.516 1_556 S
C506 C505 1.516 1_554 S
C506 C507 1.502 1_455 S
C506 C508 1.561 . S
C506 C509 1.526 1_554 S
C507 H491 0.959 1_554 S
C507 H492 0.959 1_655 S
C507 H493 0.961 . S
C507 C506 1.502 1_655 S
C508 H494 0.960 . S
C508 H495 0.961 . S
C508 H496 0.959 . S
C508 C506 1.561 . S
C509 C506 1.526 1_556 S
C509 C510 1.396 . S
C509 C514 1.390 . S
C510 C504 1.465 . S
C510 C509 1.396 . S
C510 C511 1.399 . S
C511 H497 0.929 . S
C511 C510 1.399 . S
C511 C512 1.385 . S
C512 H498 0.931 . S
C512 C511 1.385 . S
C512 C513 1.389 . S
C513 C512 1.389 . S
C513 C514 1.387 . S
C514 H499 0.930 . S
C514 C509 1.390 . S
C514 C513 1.387 . S
H515 C527 0.930 1_554 S
H516 C529 0.930 . S
H517 C530 0.930 . S
H518 C534 0.959 1_554 S
H519 C534 0.959 . S
H520 C534 0.961 1_554 S
H521 C535 0.960 . S
H522 C535 0.961 . S
H523 C535 0.959 . S
H524 C538 0.929 . S
H525 C539 0.931 1_565 S
H526 C541 0.930 . S
C527 H515 0.930 1_556 S
C527 C528 1.399 1_545 S
C527 C532 1.399 . S
C528 C527 1.399 1_565 S
C528 C529 1.376 . S
C529 H516 0.930 . S
C529 C528 1.376 . S
C529 C530 1.388 . S
C530 H517 0.930 . S
C530 C529 1.388 . S
C530 C531 1.390 1_565 S
C531 C530 1.390 1_545 S
C531 C532 1.394 . S
C531 C537 1.465 . S
C532 C527 1.399 . S
C532 C531 1.394 . S
C532 C533 1.516 . S
C533 C532 1.516 . S
C533 C534 1.502 . S
C533 C535 1.561 . S
C533 C536 1.526 . S
C534 H518 0.959 1_556 S
C534 H519 0.959 . S
C534 H520 0.961 1_556 S
C534 C533 1.502 . S
C535 H521 0.960 . S
C535 H522 0.961 . S
C535 H523 0.959 . S
C535 C533 1.561 . S
C536 C533 1.526 . S
C536 C537 1.396 . S
C536 C541 1.390 . S
C537 C531 1.465 . S
C537 C536 1.396 . S
C537 C538 1.399 1_545 S
C538 H524 0.929 . S
C538 C537 1.399 1_565 S
C538 C539 1.385 1_565 S
C539 H525 0.931 1_545 S
C539 C538 1.385 1_545 S
C539 C540 1.389 . S
C540 C539 1.389 . S
C540 C541 1.387 . S
C541 H526 0.930 . S
C541 C536 1.390 . S
C541 C540 1.387 . S
H542 C554 0.930 1_554 S
H543 C556 0.930 . S
H544 C557 0.930 . S
H545 C561 0.959 . S
H546 C561 0.959 . S
H547 C561 0.961 . S
H548 C562 0.960 . S
H549 C562 0.960 1_556 S
H550 C562 0.959 . S
H551 C565 0.929 . S
H552 C566 0.931 . S
H553 C568 0.930 . S
C554 H542 0.930 1_556 S
C554 C555 1.399 . S
C554 C559 1.399 . S
C555 C554 1.399 . S
C555 C556 1.376 . S
C556 H543 0.930 . S
C556 C555 1.376 . S
C556 C557 1.388 . S
C557 H544 0.930 . S
C557 C556 1.388 . S
C557 C558 1.390 . S
C558 C557 1.390 . S
C558 C559 1.394 . S
C558 C564 1.465 . S
C559 C554 1.399 . S
C559 C558 1.394 . S
C559 C560 1.516 . S
C560 C559 1.516 . S
C560 C561 1.502 . S
C560 C562 1.561 1_556 S
C560 C563 1.526 . S
C561 H545 0.959 . S
C561 H546 0.959 . S
C561 H547 0.961 . S
C561 C560 1.502 . S
C562 H548 0.960 . S
C562 H549 0.960 1_554 S
C562 H550 0.959 . S
C562 C560 1.561 1_554 S
C563 C560 1.526 . S
C563 C564 1.396 . S
C563 C568 1.390 . S
C564 C558 1.465 . S
C564 C563 1.396 . S
C564 C565 1.399 . S
C565 H551 0.929 . S
C565 C564 1.399 . S
C565 C566 1.385 . S
C566 H552 0.931 . S
C566 C565 1.385 . S
C566 C567 1.389 . S
C567 C566 1.389 . S
C567 C568 1.387 . S
C568 H553 0.930 . S
C568 C563 1.390 . S
C568 C567 1.387 . S
H569 C581 0.930 . S
H570 C583 0.930 1_554 S
H571 C584 0.930 . S
H572 C588 0.959 . S
H573 C588 0.959 . S
H574 C588 0.961 . S
H575 C589 0.960 . S
H576 C589 0.961 . S
H577 C589 0.959 . S
H578 C592 0.929 . S
H579 C593 0.931 . S
H580 C595 0.930 . S
C581 H569 0.930 . S
C581 C582 1.399 . S
C581 C586 1.399 . S
C582 C581 1.399 . S
C582 C583 1.376 . S
C583 H570 0.930 1_556 S
C583 C582 1.376 . S
C583 C584 1.388 . S
C584 H571 0.930 . S
C584 C583 1.388 . S
C584 C585 1.390 . S
C585 C584 1.390 . S
C585 C586 1.394 . S
C585 C591 1.465 . S
C586 C581 1.399 . S
C586 C585 1.394 . S
C586 C587 1.516 . S
C587 C586 1.516 . S
C587 C588 1.502 . S
C587 C589 1.561 . S
C587 C590 1.526 . S
C588 H572 0.959 . S
C588 H573 0.959 . S
C588 H574 0.961 . S
C588 C587 1.502 . S
C589 H575 0.960 . S
C589 H576 0.961 . S
C589 H577 0.959 . S
C589 C587 1.561 . S
C590 C587 1.526 . S
C590 C591 1.396 . S
C590 C595 1.390 . S
C591 C585 1.465 . S
C591 C590 1.396 . S
C591 C592 1.399 . S
C592 H578 0.929 . S
C592 C591 1.399 . S
C592 C593 1.385 . S
C593 H579 0.931 . S
C593 C592 1.385 . S
C593 C594 1.389 . S
C594 C593 1.389 . S
C594 C595 1.387 . S
C595 H580 0.930 . S
C595 C590 1.390 . S
C595 C594 1.387 . S
H596 C608 0.930 . S
H597 C610 0.930 . S
H598 C611 0.930 . S
H599 C615 0.959 . S
H600 C615 0.959 . S
H601 C615 0.961 . S
H602 C616 0.960 . S
H603 C616 0.961 . S
H604 C616 0.959 . S
H605 C619 0.929 . S
H606 C620 0.931 . S
H607 C622 0.930 . S
C608 H596 0.930 . S
C608 C609 1.399 . S
C608 C613 1.399 . S
C609 C608 1.399 . S
C609 C610 1.376 . S
C610 H597 0.930 . S
C610 C609 1.376 . S
C610 C611 1.388 . S
C611 H598 0.930 . S
C611 C610 1.388 . S
C611 C612 1.390 . S
C612 C611 1.390 . S
C612 C613 1.394 . S
C612 C618 1.465 . S
C613 C608 1.399 . S
C613 C612 1.394 . S
C613 C614 1.516 1_554 S
C614 C613 1.516 1_556 S
C614 C615 1.502 . S
C614 C616 1.561 . S
C614 C617 1.526 . S
C615 H599 0.959 . S
C615 H600 0.959 . S
C615 H601 0.961 . S
C615 C614 1.502 . S
C616 H602 0.960 . S
C616 H603 0.961 . S
C616 H604 0.959 . S
C616 C614 1.561 . S
C617 C614 1.526 . S
C617 C618 1.396 1_556 S
C617 C622 1.390 . S
C618 C612 1.465 . S
C618 C617 1.396 1_554 S
C618 C619 1.399 . S
C619 H605 0.929 . S
C619 C618 1.399 . S
C619 C620 1.386 . S
C620 H606 0.931 . S
C620 C619 1.386 . S
C620 C621 1.388 1_554 S
C621 C620 1.388 1_556 S
C621 C622 1.387 . S
C622 H607 0.930 . S
C622 C617 1.390 . S
C622 C621 1.387 . S
H623 C635 0.930 . S
H624 C637 0.930 . S
H625 C638 0.930 . S
H626 C642 0.959 . S
H627 C642 0.959 . S
H628 C642 0.961 . S
H629 C643 0.960 1_554 S
H630 C643 0.961 . S
H631 C643 0.959 . S
H632 C646 0.929 . S
H633 C647 0.931 . S
H634 C649 0.930 . S
C635 H623 0.930 . S
C635 C636 1.399 1_565 S
C635 C640 1.399 . S
C636 C635 1.399 1_545 S
C636 C637 1.376 . S
C637 H624 0.930 . S
C637 C636 1.376 . S
C637 C638 1.388 . S
C638 H625 0.930 . S
C638 C637 1.388 . S
C638 C639 1.390 . S
C639 C638 1.390 . S
C639 C640 1.394 1_545 S
C639 C645 1.465 1_554 S
C640 C635 1.399 . S
C640 C639 1.394 1_565 S
C640 C641 1.516 . S
C641 C640 1.516 . S
C641 C642 1.502 . S
C641 C643 1.561 1_554 S
C641 C644 1.526 1_554 S
C642 H626 0.959 . S
C642 H627 0.959 . S
C642 H628 0.961 . S
C642 C641 1.502 . S
C643 H629 0.960 1_556 S
C643 H630 0.961 . S
C643 H631 0.959 . S
C643 C641 1.561 1_556 S
C644 C641 1.526 1_556 S
C644 C645 1.396 1_565 S
C644 C649 1.390 . S
C645 C639 1.465 1_556 S
C645 C644 1.396 1_545 S
C645 C646 1.399 . S
C646 H632 0.929 . S
C646 C645 1.399 . S
C646 C647 1.385 . S
C647 H633 0.931 . S
C647 C646 1.385 . S
C647 C648 1.389 . S
C648 C647 1.389 . S
C648 C649 1.387 1_545 S
C649 H634 0.930 . S
C649 C644 1.390 . S
C649 C648 1.387 1_565 S
H650 C662 0.930 . S
H651 C664 0.930 . S
H652 C665 0.930 . S
H653 C669 0.959 . S
H654 C669 0.959 . S
H655 C669 0.961 . S
H656 C670 0.960 . S
H657 C670 0.961 1_556 S
H658 C670 0.959 1_556 S
H659 C673 0.929 . S
H660 C674 0.931 . S
H661 C676 0.930 . S
C662 H650 0.930 . S
C662 C663 1.399 . S
C662 C667 1.399 . S
C663 C662 1.399 . S
C663 C664 1.376 . S
C664 H651 0.930 . S
C664 C663 1.376 . S
C664 C665 1.388 1_554 S
C665 H652 0.930 . S
C665 C664 1.388 1_556 S
C665 C666 1.390 . S
C666 C665 1.390 . S
C666 C667 1.394 1_556 S
C666 C672 1.465 . S
C667 C662 1.399 . S
C667 C666 1.394 1_554 S
C667 C668 1.516 . S
C668 C667 1.516 . S
C668 C669 1.502 . S
C668 C670 1.561 . S
C668 C671 1.526 1_554 S
C669 H653 0.959 . S
C669 H654 0.959 . S
C669 H655 0.961 . S
C669 C668 1.502 . S
C670 H656 0.960 . S
C670 H657 0.961 1_554 S
C670 H658 0.959 1_554 S
C670 C668 1.561 . S
C671 C668 1.526 1_556 S
C671 C672 1.396 . S
C671 C676 1.390 . S
C672 C666 1.465 . S
C672 C671 1.396 . S
C672 C673 1.399 . S
C673 H659 0.929 . S
C673 C672 1.399 . S
C673 C674 1.385 . S
C674 H660 0.931 . S
C674 C673 1.385 . S
C674 C675 1.389 . S
C675 C674 1.389 . S
C675 C676 1.387 . S
C676 H661 0.930 . S
C676 C671 1.390 . S
C676 C675 1.387 . S
H677 C689 0.930 . S
H678 C691 0.930 . S
H679 C692 0.930 . S
H680 C696 0.959 . S
H681 C696 0.953 1_556 S
H682 C696 0.961 . S
H683 C697 0.960 . S
H684 C697 0.961 . S
H685 C697 0.959 . S
H686 C700 0.929 . S
H687 C701 0.931 . S
H688 C703 0.930 . S
C689 H677 0.930 . S
C689 C690 1.399 . S
C689 C694 1.399 . S
C690 C689 1.399 . S
C690 C691 1.376 . S
C691 H678 0.930 . S
C691 C690 1.376 . S
C691 C692 1.388 . S
C692 H679 0.930 . S
C692 C691 1.388 . S
C692 C693 1.390 . S
C693 C692 1.390 . S
C693 C694 1.394 . S
C693 C699 1.465 1_554 S
C694 C689 1.399 . S
C694 C693 1.394 . S
C694 C695 1.516 1_554 S
C695 C694 1.516 1_556 S
C695 C696 1.502 1_556 S
C695 C697 1.561 . S
C695 C698 1.526 . S
C696 H680 0.959 . S
C696 H681 0.953 1_554 S
C696 H682 0.961 . S
C696 C695 1.502 1_554 S
C697 H683 0.960 . S
C697 H684 0.961 . S
C697 H685 0.959 . S
C697 C695 1.561 . S
C698 C695 1.526 . S
C698 C699 1.396 . S
C698 C703 1.390 . S
C699 C693 1.465 1_556 S
C699 C698 1.396 . S
C699 C700 1.399 . S
C700 H686 0.929 . S
C700 C699 1.399 . S
C700 C701 1.385 . S
C701 H687 0.931 . S
C701 C700 1.385 . S
C701 C702 1.389 . S
C702 C701 1.389 . S
C702 C703 1.387 . S
C703 H688 0.930 . S
C703 C698 1.390 . S
C703 C702 1.387 . S
H704 C716 0.930 . S
H705 C718 0.930 . S
H706 C719 0.930 . S
H707 C723 0.959 . S
H708 C723 0.959 . S
H709 C723 0.961 . S
H710 C724 0.960 . S
H711 C724 0.961 . S
H712 C724 0.959 . S
H713 C727 0.929 . S
H714 C728 0.931 . S
H715 C730 0.930 . S
C716 H704 0.930 . S
C716 C717 1.399 . S
C716 C721 1.399 . S
C717 C716 1.399 . S
C717 C718 1.376 1_655 S
C718 H705 0.930 . S
C718 C717 1.376 1_455 S
C718 C719 1.388 . S
C719 H706 0.930 . S
C719 C718 1.388 . S
C719 C720 1.390 . S
C720 C719 1.390 . S
C720 C721 1.394 1_455 S
C720 C726 1.465 . S
C721 C716 1.399 . S
C721 C720 1.394 1_655 S
C721 C722 1.516 . S
C722 C721 1.516 . S
C722 C723 1.502 . S
C722 C724 1.561 . S
C722 C725 1.526 . S
C723 H707 0.959 . S
C723 H708 0.959 . S
C723 H709 0.961 . S
C723 C722 1.502 . S
C724 H710 0.960 . S
C724 H711 0.961 . S
C724 H712 0.959 . S
C724 C722 1.561 . S
C725 C722 1.526 . S
C725 C726 1.396 1_655 S
C725 C730 1.390 . S
C726 C720 1.465 . S
C726 C725 1.396 1_455 S
C726 C727 1.399 . S
C727 H713 0.929 . S
C727 C726 1.399 . S
C727 C728 1.385 . S
C728 H714 0.931 . S
C728 C727 1.385 . S
C728 C729 1.389 1_455 S
C729 C728 1.389 1_655 S
C729 C730 1.387 . S
C730 H715 0.930 . S
C730 C725 1.390 . S
C730 C729 1.387 . S
H731 C743 0.930 . S
H732 C745 0.930 . S
H733 C746 0.930 . S
H734 C750 0.959 1_565 S
H735 C750 0.959 . S
H736 C750 0.961 . S
H737 C751 0.960 . S
H738 C751 0.961 . S
H739 C751 0.959 . S
H740 C754 0.929 . S
H741 C755 0.931 . S
H742 C757 0.930 1_545 S
C743 H731 0.930 . S
C743 C744 1.399 1_545 S
C743 C748 1.399 . S
C744 C743 1.399 1_565 S
C744 C745 1.376 . S
C745 H732 0.930 . S
C745 C744 1.376 . S
C745 C746 1.388 . S
C746 H733 0.930 . S
C746 C745 1.388 . S
C746 C747 1.390 . S
C747 C746 1.390 . S
C747 C748 1.394 1_565 S
C747 C753 1.465 . S
C748 C743 1.399 . S
C748 C747 1.394 1_545 S
C748 C749 1.516 . S
C749 C748 1.516 . S
C749 C750 1.502 . S
C749 C751 1.561 . S
C749 C752 1.526 1_545 S
C750 H734 0.959 1_545 S
C750 H735 0.959 . S
C750 H736 0.961 . S
C750 C749 1.502 . S
C751 H737 0.960 . S
C751 H738 0.961 . S
C751 H739 0.959 . S
C751 C749 1.561 . S
C752 C749 1.526 1_565 S
C752 C753 1.396 . S
C752 C757 1.390 . S
C753 C747 1.465 . S
C753 C752 1.396 . S
C753 C754 1.399 . S
C754 H740 0.929 . S
C754 C753 1.399 . S
C754 C755 1.385 . S
C755 H741 0.931 . S
C755 C754 1.385 . S
C755 C756 1.389 . S
C756 C755 1.389 . S
C756 C757 1.387 . S
C757 H742 0.930 1_565 S
C757 C752 1.390 . S
C757 C756 1.387 . S
H758 C770 0.930 . S
H759 C772 0.930 . S
H760 C773 0.930 . S
H761 C777 0.959 . S
H762 C777 0.959 . S
H763 C777 0.961 . S
H764 C778 0.960 . S
H765 C778 0.961 . S
H766 C778 0.959 . S
H767 C781 0.929 . S
H768 C782 0.931 . S
H769 C784 0.930 . S
C770 H758 0.930 . S
C770 C771 1.399 . S
C770 C775 1.399 . S
C771 C770 1.399 . S
C771 C772 1.376 . S
C772 H759 0.930 . S
C772 C771 1.376 . S
C772 C773 1.388 . S
C773 H760 0.930 . S
C773 C772 1.388 . S
C773 C774 1.390 . S
C774 C773 1.390 . S
C774 C775 1.394 . S
C774 C780 1.465 . S
C775 C770 1.399 . S
C775 C774 1.394 . S
C775 C776 1.516 . S
C776 C775 1.516 . S
C776 C777 1.502 . S
C776 C778 1.561 . S
C776 C779 1.526 . S
C777 H761 0.959 . S
C777 H762 0.959 . S
C777 H763 0.961 . S
C777 C776 1.502 . S
C778 H764 0.960 . S
C778 H765 0.961 . S
C778 H766 0.959 . S
C778 C776 1.561 . S
C779 C776 1.526 . S
C779 C780 1.396 . S
C779 C784 1.390 . S
C780 C774 1.465 . S
C780 C779 1.396 . S
C780 C781 1.399 . S
C781 H767 0.929 . S
C781 C780 1.399 . S
C781 C782 1.385 . S
C782 H768 0.931 . S
C782 C781 1.385 . S
C782 C783 1.389 . S
C783 C782 1.389 . S
C783 C784 1.387 . S
C784 H769 0.930 . S
C784 C779 1.390 . S
C784 C783 1.387 . S
H785 C797 0.930 . S
H786 C799 0.930 . S
H787 C800 0.930 . S
H788 C804 0.959 . S
H789 C804 0.959 . S
H790 C804 0.961 . S
H791 C805 0.960 . S
H792 C805 0.961 . S
H793 C805 0.959 . S
H794 C808 0.929 . S
H795 C809 0.931 . S
H796 C811 0.930 . S
C797 H785 0.930 . S
C797 C798 1.399 . S
C797 C802 1.399 . S
C798 C797 1.399 . S
C798 C799 1.376 . S
C799 H786 0.930 . S
C799 C798 1.376 . S
C799 C800 1.388 . S
C800 H787 0.930 . S
C800 C799 1.388 . S
C800 C801 1.390 . S
C801 C800 1.390 . S
C801 C802 1.394 . S
C801 C807 1.465 . S
C802 C797 1.399 . S
C802 C801 1.394 . S
C802 C803 1.516 . S
C803 C802 1.516 . S
C803 C804 1.502 . S
C803 C805 1.561 . S
C803 C806 1.526 . S
C804 H788 0.959 . S
C804 H789 0.959 . S
C804 H790 0.961 . S
C804 C803 1.502 . S
C805 H791 0.960 . S
C805 H792 0.961 . S
C805 H793 0.959 . S
C805 C803 1.561 . S
C806 C803 1.526 . S
C806 C807 1.396 . S
C806 C811 1.390 . S
C807 C801 1.465 . S
C807 C806 1.396 . S
C807 C808 1.399 . S
C808 H794 0.929 . S
C808 C807 1.399 . S
C808 C809 1.385 . S
C809 H795 0.931 . S
C809 C808 1.385 . S
C809 C810 1.389 . S
C810 C809 1.389 . S
C810 C811 1.387 . S
C811 H796 0.930 . S
C811 C806 1.390 . S
C811 C810 1.387 . S
C177 C61 1.545 . S
C189 C88 1.499 . S
C216 C111 1.647 . S
C204 C70 1.610 . S
C243 C134 1.574 . S
C231 C43 1.549 . S
C270 C161 1.438 . S
C258 C52 1.577 . S
C297 C89 1.507 . S
C285 C25 1.470 1_545 S
C312 C34 1.443 1_556 S
C324 C112 1.502 . S
C339 C7 1.399 1_556 S
C351 C135 1.380 . S
C366 C16 1.496 . S
C378 C160 1.539 . S
C405 C90 0.256 . S
C393 C50 0.534 . S
C432 C113 0.167 . S
C420 C59 0.310 . S
C459 C136 0.341 . S
C447 C67 0.441 . S
C474 C41 0.402 . S
C486 C162 0.574 . S
C501 C14 0.512 . S
C513 C93 0.701 . S
C540 C116 0.491 . S
C528 C23 0.561 1_556 S
C567 C139 0.743 . S
C555 C31 0.477 . S
C582 C5 0.223 . S
C594 C159 0.213 . S
C609 C49 1.585 . S
C621 C91 1.622 . S
C636 C58 1.547 1_545 S
C648 C114 1.503 . S
C675 C137 1.511 . S
C663 C68 1.556 . S
C702 C158 1.359 . S
C690 C40 1.314 . S
C717 C13 1.600 . S
C729 C92 1.538 . S
C756 C115 1.545 . S
C744 C22 1.514 . S
C783 C138 1.494 . S
C771 C32 1.564 . S
C798 C4 1.650 . S
C810 C157 1.655 . S
