# Generated by pormake.
# Topology ssa, (4,4)-cn, num edge types: 1
# Building blocks:
#     Node 0, Type 0, BuildingBlock: NAWXER_clean_sbu_0, # of connection points: 4
#     Node 1, Type 0, BuildingBlock: NAWXER_clean_sbu_0, # of connection points: 4
#     Node 2, Type 0, BuildingBlock: NAWXER_clean_sbu_0, # of connection points: 4
#     Node 3, Type 0, BuildingBlock: NAWXER_clean_sbu_0, # of connection points: 4
#     Node 4, Type 0, BuildingBlock: NAWXER_clean_sbu_0, # of connection points: 4
#     Node 5, Type 0, BuildingBlock: NAWXER_clean_sbu_0, # of connection points: 4
#     Node 6, Type 1, BuildingBlock: NAHDIM_clean_linker_0, # of connection points: 4
#     Node 7, Type 1, BuildingBlock: NAHDIM_clean_linker_0, # of connection points: 4
#     Node 8, Type 1, BuildingBlock: NAHDIM_clean_linker_0, # of connection points: 4
#     Node 9, Type 1, BuildingBlock: NAHDIM_clean_linker_0, # of connection points: 4
#     Node 10, Type 1, BuildingBlock: NAHDIM_clean_linker_0, # of connection points: 4
#     Node 11, Type 1, BuildingBlock: NAHDIM_clean_linker_0, # of connection points: 4
#     Edge 12, Type (0, 1), BuildingBlock: OJICUG_clean_linker_0, # of connection points: 2
#     Edge 13, Type (0, 1), BuildingBlock: OJICUG_clean_linker_0, # of connection points: 2
#     Edge 14, Type (0, 1), BuildingBlock: OJICUG_clean_linker_0, # of connection points: 2
#     Edge 15, Type (0, 1), BuildingBlock: OJICUG_clean_linker_0, # of connection points: 2
#     Edge 16, Type (0, 1), BuildingBlock: OJICUG_clean_linker_0, # of connection points: 2
#     Edge 17, Type (0, 1), BuildingBlock: OJICUG_clean_linker_0, # of connection points: 2
#     Edge 18, Type (0, 1), BuildingBlock: OJICUG_clean_linker_0, # of connection points: 2
#     Edge 19, Type (0, 1), BuildingBlock: OJICUG_clean_linker_0, # of connection points: 2
#     Edge 20, Type (0, 1), BuildingBlock: OJICUG_clean_linker_0, # of connection points: 2
#     Edge 21, Type (0, 1), BuildingBlock: OJICUG_clean_linker_0, # of connection points: 2
#     Edge 22, Type (0, 1), BuildingBlock: OJICUG_clean_linker_0, # of connection points: 2
#     Edge 23, Type (0, 1), BuildingBlock: OJICUG_clean_linker_0, # of connection points: 2
#     Edge 24, Type (0, 1), BuildingBlock: OJICUG_clean_linker_0, # of connection points: 2
#     Edge 25, Type (0, 1), BuildingBlock: OJICUG_clean_linker_0, # of connection points: 2
#     Edge 26, Type (0, 1), BuildingBlock: OJICUG_clean_linker_0, # of connection points: 2
#     Edge 27, Type (0, 1), BuildingBlock: OJICUG_clean_linker_0, # of connection points: 2
#     Edge 28, Type (0, 1), BuildingBlock: OJICUG_clean_linker_0, # of connection points: 2
#     Edge 29, Type (0, 1), BuildingBlock: OJICUG_clean_linker_0, # of connection points: 2
#     Edge 30, Type (0, 1), BuildingBlock: OJICUG_clean_linker_0, # of connection points: 2
#     Edge 31, Type (0, 1), BuildingBlock: OJICUG_clean_linker_0, # of connection points: 2
#     Edge 32, Type (0, 1), BuildingBlock: OJICUG_clean_linker_0, # of connection points: 2
#     Edge 33, Type (0, 1), BuildingBlock: OJICUG_clean_linker_0, # of connection points: 2
#     Edge 34, Type (0, 1), BuildingBlock: OJICUG_clean_linker_0, # of connection points: 2
#     Edge 35, Type (0, 1), BuildingBlock: OJICUG_clean_linker_0, # of connection points: 2
# Relax obj value: 0.029
# Max RMSD: 0.057
# Mean RMSD: 0.044
data_MOF--net-ssa--node1-NAWXER_clean_sbu_0--node2-NAHDIM_clean_linker_0--edge1-OJICUG_clean_linker_0
_symmetry_space_group_name_H-M    P1
_symmetry_Int_Tables_number       1
_symmetry_cell_setting            triclinic
loop_
_symmetry_equiv_pos_as_xyz
'x, y, z'
_cell_length_a     48.790613
_cell_length_b     48.837196
_cell_length_c     41.725209
_cell_angle_alpha  89.809681
_cell_angle_beta   90.504944
_cell_angle_gamma 119.99405
loop_
_atom_site_label
_atom_site_type_symbol
_atom_site_fract_x
_atom_site_fract_y
_atom_site_fract_z
_atom_type_partial_charge
C0 C 0.06023 0.52598 0.04084 0.0
C1 C 0.99548 0.43005 0.97867 0.0
O2 O 0.03279 0.50841 0.0529 0.0
Zn3 Zn 0.99068 0.4645 0.04198 0.0
O4 O 0.06801 0.5175 0.01532 0.0
Zn5 Zn 0.02841 0.47827 0.00971 0.0
O6 O 0.99734 0.49682 0.99934 0.0
O7 O 0.95995 0.47773 0.03586 0.0
O8 O 0.02348 0.45206 0.97301 0.0
O9 O 0.98104 0.43203 0.00331 0.0
O10 O 0.98673 0.44012 0.07935 0.0
O11 O 0.02803 0.44975 0.04993 0.0
C12 C 0.97238 0.49499 0.01141 0.0
C13 C 0.01078 0.43712 0.07472 0.0
C14 C 0.4443 0.00381 0.56741 0.0
C15 C 0.47839 0.95645 0.48581 0.0
O16 O 0.43791 0.97526 0.56534 0.0
Zn17 Zn 0.46158 0.97984 0.52716 0.0
O18 O 0.4624 0.02403 0.54655 0.0
Zn19 Zn 0.48797 0.02443 0.50446 0.0
O20 O 0.4692 0.03743 0.47119 0.0
O21 O 0.43624 0.99045 0.49133 0.0
O22 O 0.48969 0.98613 0.48152 0.0
O23 O 0.46072 0.94277 0.50963 0.0
O24 O 0.50962 0.00777 0.54347 0.0
O25 O 0.53188 0.05225 0.51588 0.0
C26 C 0.44185 0.01295 0.47176 0.0
C27 C 0.53388 0.03466 0.53717 0.0
C28 C 0.48456 0.49407 0.96933 0.0
C29 C 0.5484 0.58807 0.03439 0.0
O30 O 0.49137 0.52229 0.96332 0.0
Zn31 Zn 0.51652 0.54164 0.0014 0.0
O32 O 0.4951 0.48805 0.99504 0.0
Zn33 Zn 0.52388 0.51312 0.03542 0.0
O34 O 0.49448 0.49369 0.07078 0.0
O35 O 0.48329 0.52354 0.03961 0.0
O36 O 0.54631 0.56298 0.04673 0.0
O37 O 0.53449 0.58634 0.00791 0.0
O38 O 0.55777 0.53806 0.99383 0.0
O39 O 0.56012 0.50691 0.03081 0.0
C40 C 0.47731 0.50579 0.06421 0.0
C41 C 0.57186 0.52437 0.00628 0.0
C42 C 0.05295 0.57224 0.47267 0.0
C43 C 0.99573 0.47338 0.5319 0.0
O44 O 0.0684 0.57142 0.49733 0.0
Zn45 Zn 0.06231 0.53859 0.53468 0.0
O46 O 0.02631 0.54828 0.46593 0.0
Zn47 Zn 0.02435 0.52207 0.50166 0.0
O48 O 0.02123 0.54763 0.54278 0.0
O49 O 0.06364 0.56099 0.57276 0.0
O50 O 0.98702 0.48084 0.50612 0.0
O51 O 0.02266 0.49257 0.54457 0.0
O52 O 0.09638 0.53015 0.52809 0.0
O53 O 0.05936 0.50882 0.49075 0.0
C54 C 0.03781 0.56086 0.56806 0.0
C55 C 0.08558 0.51344 0.50294 0.0
C56 C 0.56332 0.01743 0.0648 0.0
C57 C 0.52459 0.06899 0.99262 0.0
O58 O 0.57176 0.0466 0.06386 0.0
Zn59 Zn 0.54697 0.04422 0.02682 0.0
O60 O 0.5444 0.99853 0.04328 0.0
Zn61 Zn 0.51957 0.00134 0.00146 0.0
O62 O 0.53829 0.9917 0.96573 0.0
O63 O 0.57175 0.03679 0.98902 0.0
O64 O 0.51383 0.03989 0.98535 0.0
O65 O 0.54554 0.08161 0.01448 0.0
O66 O 0.49915 0.01403 0.04355 0.0
O67 O 0.47627 0.97169 0.0124 0.0
C68 C 0.56578 0.0158 0.96754 0.0
C69 C 0.47483 0.9875 0.03587 0.0
C70 C 0.57033 0.50825 0.54771 0.0
C71 C 0.48883 0.47315 0.46423 0.0
O72 O 0.54809 0.51396 0.55443 0.0
Zn73 Zn 0.50454 0.50629 0.5337 0.0
O74 O 0.56905 0.49411 0.52174 0.0
Zn75 Zn 0.53013 0.49067 0.50518 0.0
O76 O 0.54236 0.53909 0.49806 0.0
O77 O 0.51186 0.54867 0.52935 0.0
O78 O 0.51442 0.47223 0.46328 0.0
O79 O 0.48305 0.48528 0.48863 0.0
O80 O 0.47298 0.47778 0.56367 0.0
O81 O 0.49476 0.45546 0.53552 0.0
C82 C 0.53366 0.55821 0.5086 0.0
C83 C 0.4747 0.45348 0.5563 0.0
C84 C 0.14248 0.42216 0.48298 0.0
C85 C 0.14738 0.44585 0.45646 0.0
C86 C 0.15232 0.4265 0.40474 0.0
C87 C 0.17679 0.45317 0.38991 0.0
C88 C 0.1953 0.44999 0.36627 0.0
C89 C 0.18944 0.41945 0.3577 0.0
C90 C 0.1644 0.39246 0.37242 0.0
C91 C 0.14574 0.39635 0.39542 0.0
C92 C 0.22138 0.47931 0.35072 0.0
C93 C 0.15774 0.35961 0.36425 0.0
C94 C 0.39751 0.40244 0.33626 0.0
C95 C 0.38993 0.41481 0.36672 0.0
C96 C 0.35147 0.43179 0.35256 0.0
C97 C 0.32493 0.40144 0.34863 0.0
C98 C 0.29508 0.3976 0.34126 0.0
C99 C 0.29176 0.42458 0.3372 0.0
C100 C 0.31822 0.45508 0.34187 0.0
C101 C 0.34773 0.45824 0.34951 0.0
C102 C 0.26728 0.3647 0.33653 0.0
C103 C 0.31554 0.48435 0.33769 0.0
C104 C 0.31668 0.43819 0.12967 0.0
C105 C 0.29601 0.40623 0.13623 0.0
C106 C 0.26886 0.39667 0.15494 0.0
C107 C 0.26232 0.41974 0.16729 0.0
C108 C 0.28251 0.45199 0.15985 0.0
C109 C 0.30947 0.46089 0.14129 0.0
C110 C 0.24776 0.36211 0.16249 0.0
C111 C 0.27622 0.47725 0.17251 0.0
C112 C 0.0049 0.33166 0.17122 0.0
C113 C 0.03648 0.36186 0.16536 0.0
C114 C 0.08802 0.36502 0.1649 0.0
C115 C 0.1 0.34447 0.16735 0.0
C116 C 0.13062 0.35492 0.17923 0.0
C117 C 0.15013 0.38712 0.18773 0.0
C118 C 0.13866 0.40846 0.18366 0.0
C119 C 0.10746 0.39705 0.17275 0.0
C120 C 0.14199 0.33144 0.18295 0.0
C121 C 0.15928 0.44323 0.19091 0.0
C122 C 0.21036 0.41615 0.33422 0.0
C123 C 0.23938 0.42037 0.34539 0.0
C124 C 0.26168 0.42094 0.3242 0.0
C125 C 0.25541 0.41813 0.29089 0.0
C126 C 0.27829 0.42093 0.26881 0.0
C127 C 0.27221 0.41871 0.23609 0.0
C128 C 0.24272 0.4128 0.22412 0.0
C129 C 0.23656 0.41095 0.19082 0.0
C130 C 0.20642 0.40318 0.17968 0.0
C131 C 0.18232 0.39806 0.20104 0.0
C132 C 0.18878 0.40204 0.23442 0.0
C133 C 0.1659 0.3992 0.25657 0.0
C134 C 0.17305 0.40443 0.28919 0.0
C135 C 0.20276 0.41096 0.30113 0.0
C136 C 0.22566 0.41257 0.27937 0.0
C137 C 0.21901 0.40906 0.24595 0.0
C138 C 0.39497 0.48061 0.08937 0.0
C139 C 0.36609 0.47708 0.10499 0.0
O140 O 0.13479 0.42948 0.42803 0.0
O141 O 0.05782 0.35324 0.15434 0.0
O142 O 0.3434 0.44631 0.11262 0.0
O143 O 0.38113 0.43686 0.35845 0.0
H144 H 0.17334 0.46227 0.45413 0.0
H145 H 0.15423 0.40851 0.47641 0.0
H146 H 0.11684 0.40534 0.48645 0.0
H147 H 0.15298 0.43465 0.50594 0.0
H148 H 0.18127 0.47643 0.39682 0.0
H149 H 0.12656 0.37592 0.40695 0.0
H150 H 0.24465 0.48234 0.35808 0.0
H151 H 0.22074 0.50095 0.35754 0.0
H152 H 0.21954 0.47683 0.32422 0.0
H153 H 0.13847 0.34119 0.37903 0.0
H154 H 0.17948 0.35803 0.36788 0.0
H155 H 0.15087 0.35455 0.3386 0.0
H156 H 0.37037 0.39429 0.37924 0.0
H157 H 0.40434 0.3845 0.3424 0.0
H158 H 0.37627 0.39095 0.32045 0.0
H159 H 0.41685 0.42216 0.32271 0.0
H160 H 0.32733 0.38065 0.35037 0.0
H161 H 0.36828 0.48154 0.35261 0.0
H162 H 0.24651 0.36189 0.35003 0.0
H163 H 0.27268 0.34615 0.34442 0.0
H164 H 0.26058 0.36096 0.31075 0.0
H165 H 0.33831 0.50638 0.34243 0.0
H166 H 0.29742 0.48341 0.35427 0.0
H167 H 0.3076 0.48523 0.31288 0.0
H168 H 0.3557 0.49025 0.09285 0.0
H169 H 0.30155 0.38881 0.12715 0.0
H170 H 0.32503 0.48575 0.13651 0.0
H171 H 0.24824 0.35835 0.1887 0.0
H172 H 0.25516 0.34691 0.14983 0.0
H173 H 0.22294 0.35459 0.15563 0.0
H174 H 0.29237 0.50087 0.1621 0.0
H175 H 0.27933 0.47884 0.19896 0.0
H176 H 0.2514 0.47095 0.16717 0.0
H177 H 0.04465 0.37437 0.18882 0.0
H178 H 0.98742 0.33729 0.18167 0.0
H179 H 0.0084 0.3162 0.18836 0.0
H180 H 0.99516 0.31846 0.14842 0.0
H181 H 0.08486 0.31988 0.16075 0.0
H182 H 0.09843 0.41318 0.16989 0.0
H183 H 0.15145 0.33278 0.20756 0.0
H184 H 0.16152 0.33737 0.16592 0.0
H185 H 0.12288 0.30678 0.17825 0.0
H186 H 0.14868 0.45731 0.18181 0.0
H187 H 0.18301 0.45245 0.18009 0.0
H188 H 0.16265 0.44674 0.21721 0.0
H189 H 0.24485 0.42368 0.37083 0.0
H190 H 0.3014 0.42535 0.27649 0.0
H191 H 0.2909 0.42141 0.22032 0.0
H192 H 0.20169 0.4012 0.15408 0.0
H193 H 0.14241 0.39357 0.24889 0.0
H194 H 0.15481 0.40278 0.30499 0.0
H195 H 0.39469 0.48953 0.06452 0.0
H196 H 0.389 0.45625 0.08118 0.0
H197 H 0.43105 0.50694 0.12278 0.0
C198 C 0.93395 0.28886 0.92436 0.0
C199 C 0.93469 0.31465 0.9026 0.0
C200 C 0.88478 0.28521 0.87169 0.0
C201 C 0.89335 0.26617 0.85405 0.0
C202 C 0.87164 0.24281 0.83301 0.0
C203 C 0.84119 0.2392 0.82863 0.0
C204 C 0.83288 0.25897 0.84564 0.0
C205 C 0.85471 0.2815 0.86714 0.0
C206 C 0.88116 0.22181 0.81568 0.0
C207 C 0.80084 0.2562 0.84129 0.0
C208 C 0.66251 0.00519 0.86403 0.0
C209 C 0.66621 0.03508 0.88012 0.0
C210 C 0.69234 0.08149 0.84502 0.0
C211 C 0.6885 0.10605 0.83296 0.0
C212 C 0.71399 0.13318 0.81974 0.0
C213 C 0.74385 0.13513 0.81731 0.0
C214 C 0.74794 0.11027 0.82939 0.0
C215 C 0.72219 0.08379 0.84339 0.0
C216 C 0.70881 0.15959 0.80818 0.0
C217 C 0.77935 0.11144 0.82699 0.0
C218 C 0.70007 0.10911 0.6053 0.0
C219 C 0.69187 0.12717 0.6247 0.0
C220 C 0.71464 0.15114 0.64443 0.0
C221 C 0.74592 0.15625 0.64539 0.0
C222 C 0.75408 0.13788 0.62568 0.0
C223 C 0.73111 0.11494 0.60533 0.0
C224 C 0.7052 0.17083 0.66427 0.0
C225 C 0.78696 0.14227 0.62611 0.0
C226 C 0.96045 0.34856 0.60957 0.0
C227 C 0.93342 0.35031 0.59213 0.0
C228 C 0.88713 0.31799 0.6261 0.0
C229 C 0.86409 0.31856 0.64527 0.0
C230 C 0.84031 0.29093 0.65971 0.0
C231 C 0.84063 0.26224 0.65619 0.0
C232 C 0.86379 0.26145 0.6366 0.0
C233 C 0.88615 0.28907 0.62105 0.0
C234 C 0.81505 0.29264 0.67878 0.0
C235 C 0.86505 0.23148 0.63172 0.0
C236 C 0.8178 0.21448 0.80667 0.0
C237 C 0.79378 0.18661 0.82025 0.0
C238 C 0.77037 0.16276 0.80118 0.0
C239 C 0.77117 0.16639 0.7675 0.0
C240 C 0.74884 0.14229 0.7475 0.0
C241 C 0.74876 0.14666 0.71457 0.0
C242 C 0.77084 0.17542 0.70036 0.0
C243 C 0.77005 0.18061 0.66708 0.0
C244 C 0.7927 0.20929 0.65369 0.0
C245 C 0.81663 0.23297 0.67251 0.0
C246 C 0.81773 0.22823 0.7059 0.0
C247 C 0.84155 0.25132 0.72564 0.0
C248 C 0.84159 0.24696 0.75862 0.0
C249 C 0.81832 0.21896 0.77309 0.0
C250 C 0.79476 0.19489 0.7535 0.0
C251 C 0.79445 0.19952 0.71989 0.0
C252 C 0.65421 0.0303 0.58999 0.0
C253 C 0.65162 0.05952 0.59773 0.0
O254 O 0.90427 0.30706 0.89357 0.0
O255 O 0.90982 0.3458 0.61337 0.0
O256 O 0.67827 0.086 0.58625 0.0
O257 O 0.66652 0.05582 0.85724 0.0
H258 H 0.94885 0.31721 0.88087 0.0
H259 H 0.92391 0.26597 0.91153 0.0
H260 H 0.91925 0.28533 0.94585 0.0
H261 H 0.95833 0.2956 0.93227 0.0
H262 H 0.91671 0.26907 0.85675 0.0
H263 H 0.84835 0.29638 0.88067 0.0
H264 H 0.86289 0.19658 0.81893 0.0
H265 H 0.90432 0.2253 0.82426 0.0
H266 H 0.88287 0.22695 0.78962 0.0
H267 H 0.7994 0.27567 0.85339 0.0
H268 H 0.78236 0.23337 0.85139 0.0
H269 H 0.79546 0.25635 0.81539 0.0
H270 H 0.68898 0.04607 0.89379 0.0
H271 H 0.65854 0.98703 0.88236 0.0
H272 H 0.68434 0.01087 0.85078 0.0
H273 H 0.64256 0.99523 0.84657 0.0
H274 H 0.66539 0.10406 0.83432 0.0
H275 H 0.72537 0.06473 0.85228 0.0
H276 H 0.70797 0.15948 0.78159 0.0
H277 H 0.72864 0.18289 0.816 0.0
H278 H 0.68627 0.15704 0.81714 0.0
H279 H 0.77802 0.08914 0.83515 0.0
H280 H 0.79724 0.1312 0.84189 0.0
H281 H 0.7877 0.11606 0.80182 0.0
H282 H 0.65029 0.06082 0.62433 0.0
H283 H 0.66775 0.12266 0.62407 0.0
H284 H 0.73705 0.10083 0.58999 0.0
H285 H 0.70397 0.16412 0.68986 0.0
H286 H 0.68174 0.1674 0.6569 0.0
H287 H 0.72314 0.19631 0.66222 0.0
H288 H 0.78777 0.12233 0.6143 0.0
H289 H 0.79597 0.14459 0.65107 0.0
H290 H 0.80309 0.1643 0.61312 0.0
H291 H 0.92341 0.33169 0.57326 0.0
H292 H 0.9803 0.35472 0.59283 0.0
H293 H 0.95255 0.32447 0.61876 0.0
H294 H 0.96941 0.36501 0.63032 0.0
H295 H 0.86463 0.34082 0.64867 0.0
H296 H 0.90291 0.2877 0.60534 0.0
H297 H 0.82068 0.29366 0.70471 0.0
H298 H 0.79151 0.2714 0.67454 0.0
H299 H 0.81358 0.31404 0.67268 0.0
H300 H 0.8887 0.23651 0.62343 0.0
H301 H 0.84741 0.21696 0.6131 0.0
H302 H 0.85931 0.21736 0.6541 0.0
H303 H 0.79295 0.18372 0.84608 0.0
H304 H 0.73104 0.11978 0.7571 0.0
H305 H 0.7309 0.1273 0.70045 0.0
H306 H 0.7919 0.2131 0.62814 0.0
H307 H 0.86026 0.27323 0.71589 0.0
H308 H 0.86011 0.26587 0.77264 0.0
H309 H 0.65509 0.02757 0.56365 0.0
H310 H 0.6337 0.00865 0.59984 0.0
H311 H 0.67615 0.03274 0.60096 0.0
C312 C 0.63115 0.70603 0.49478 0.0
C313 C 0.6032 0.6904 0.47136 0.0
C314 C 0.60707 0.70989 0.41714 0.0
C315 C 0.57559 0.70172 0.41119 0.0
C316 C 0.56833 0.71916 0.3894 0.0
C317 C 0.5932 0.74575 0.37391 0.0
C318 C 0.62491 0.75287 0.37865 0.0
C319 C 0.63132 0.7343 0.39977 0.0
C320 C 0.53416 0.71002 0.3843 0.0
C321 C 0.6522 0.78119 0.36301 0.0
C322 C 0.52344 0.9217 0.44899 0.0
C323 C 0.53676 0.90698 0.42767 0.0
C324 C 0.54642 0.86375 0.42372 0.0
C325 C 0.5783 0.87678 0.41551 0.0
C326 C 0.58827 0.8597 0.39662 0.0
C327 C 0.56562 0.82935 0.38515 0.0
C328 C 0.53346 0.81602 0.39394 0.0
C329 C 0.52437 0.83328 0.41361 0.0
C330 C 0.62285 0.87424 0.38849 0.0
C331 C 0.50861 0.78382 0.38206 0.0
C332 C 0.58264 0.91147 0.18877 0.0
C333 C 0.61149 0.91606 0.20128 0.0
C334 C 0.6137 0.89055 0.21399 0.0
C335 C 0.58648 0.86006 0.21457 0.0
C336 C 0.55749 0.85545 0.20191 0.0
C337 C 0.55606 0.88125 0.18909 0.0
C338 C 0.645 0.89621 0.2272 0.0
C339 C 0.52799 0.82332 0.202 0.0
C340 C 0.63412 0.73442 0.08566 0.0
C341 C 0.61349 0.70556 0.10673 0.0
C342 C 0.5915 0.72556 0.14769 0.0
C343 C 0.62016 0.74644 0.16327 0.0
C344 C 0.62078 0.7656 0.18869 0.0
C345 C 0.59214 0.7631 0.19928 0.0
C346 C 0.56314 0.74061 0.18495 0.0
C347 C 0.56331 0.72247 0.15909 0.0
C348 C 0.65209 0.78932 0.2035 0.0
C349 C 0.53198 0.73656 0.19608 0.0
C350 C 0.58661 0.7688 0.35727 0.0
C351 C 0.58009 0.78817 0.3766 0.0
C352 C 0.57518 0.81165 0.36339 0.0
C353 C 0.57817 0.81708 0.33 0.0
C354 C 0.57487 0.84154 0.31609 0.0
C355 C 0.57848 0.84714 0.28332 0.0
C356 C 0.58455 0.82787 0.26304 0.0
C357 C 0.58795 0.83326 0.22966 0.0
C358 C 0.5917 0.81239 0.20988 0.0
C359 C 0.59245 0.78621 0.22253 0.0
C360 C 0.59093 0.78143 0.2561 0.0
C361 C 0.59295 0.75617 0.2699 0.0
C362 C 0.59174 0.75202 0.30307 0.0
C363 C 0.58769 0.77253 0.32356 0.0
C364 C 0.58431 0.79736 0.31001 0.0
C365 C 0.58677 0.80231 0.27637 0.0
C366 C 0.60569 0.98534 0.20238 0.0
C367 C 0.60162 0.96658 0.17156 0.0
O368 O 0.61468 0.69529 0.44032 0.0
O369 O 0.58971 0.70862 0.12116 0.0
O370 O 0.57893 0.93524 0.17661 0.0
O371 O 0.53652 0.88072 0.44061 0.0
H372 H 0.5887 0.70197 0.47501 0.0
H373 H 0.64519 0.73179 0.4898 0.0
H374 H 0.64683 0.69574 0.49227 0.0
H375 H 0.62257 0.70278 0.51985 0.0
H376 H 0.55679 0.68212 0.42408 0.0
H377 H 0.65551 0.74001 0.40434 0.0
H378 H 0.52839 0.72439 0.40047 0.0
H379 H 0.51798 0.68469 0.38998 0.0
H380 H 0.52974 0.71456 0.35922 0.0
H381 H 0.67552 0.78485 0.37124 0.0
H382 H 0.65111 0.8029 0.36832 0.0
H383 H 0.6506 0.77798 0.33663 0.0
H384 H 0.55962 0.92382 0.41603 0.0
H385 H 0.54385 0.94603 0.45435 0.0
H386 H 0.52286 0.9123 0.47384 0.0
H387 H 0.48251 0.91426 0.4245 0.0
H388 H 0.59525 0.90031 0.42387 0.0
H389 H 0.49981 0.82349 0.42029 0.0
H390 H 0.63113 0.85721 0.39357 0.0
H391 H 0.63786 0.89636 0.40215 0.0
H392 H 0.62613 0.87978 0.36251 0.0
H393 H 0.48434 0.77791 0.38904 0.0
H394 H 0.51348 0.7656 0.39208 0.0
H395 H 0.50956 0.78274 0.35554 0.0
H396 H 0.62458 0.96859 0.16496 0.0
H397 H 0.63224 0.93939 0.20159 0.0
H398 H 0.53394 0.87799 0.17936 0.0
H399 H 0.6431 0.89219 0.25349 0.0
H400 H 0.66455 0.92062 0.22251 0.0
H401 H 0.65109 0.87916 0.21647 0.0
H402 H 0.50662 0.82441 0.19462 0.0
H403 H 0.52402 0.81254 0.22621 0.0
H404 H 0.53106 0.8076 0.18509 0.0
H405 H 0.62881 0.70355 0.12541 0.0
H406 H 0.6516 0.73064 0.07238 0.0
H407 H 0.64743 0.75599 0.1005 0.0
H408 H 0.61946 0.73883 0.06819 0.0
H409 H 0.64217 0.74861 0.15528 0.0
H410 H 0.54129 0.70604 0.14721 0.0
H411 H 0.6516 0.78545 0.22977 0.0
H412 H 0.65618 0.81359 0.19965 0.0
H413 H 0.67223 0.78782 0.19322 0.0
H414 H 0.51146 0.71486 0.18607 0.0
H415 H 0.53002 0.75725 0.1883 0.0
H416 H 0.53073 0.73545 0.22265 0.0
H417 H 0.57866 0.78482 0.40239 0.0
H418 H 0.56987 0.85694 0.33042 0.0
H419 H 0.5761 0.86659 0.27406 0.0
H420 H 0.59317 0.8161 0.18414 0.0
H421 H 0.59592 0.73962 0.2552 0.0
H422 H 0.59375 0.73242 0.31251 0.0
H423 H 0.62538 0.01008 0.20014 0.0
H424 H 0.58351 0.98547 0.20791 0.0
H425 H 0.6114 0.97442 0.22285 0.0
C426 C 0.71777 0.55784 0.98203 0.0
C427 C 0.695 0.55592 0.95536 0.0
C428 C 0.71536 0.54079 0.90904 0.0
C429 C 0.73826 0.57142 0.89933 0.0
C430 C 0.76199 0.57607 0.87761 0.0
C431 C 0.76322 0.54969 0.86555 0.0
C432 C 0.73954 0.5188 0.87417 0.0
C433 C 0.71564 0.51478 0.89549 0.0
C434 C 0.78651 0.60937 0.86843 0.0
C435 C 0.74026 0.49016 0.86191 0.0
C436 C 0.95048 0.61176 0.99957 0.0
C437 C 0.93305 0.585 0.97532 0.0
C438 C 0.92022 0.58984 0.92016 0.0
C439 C 0.8977 0.55837 0.91326 0.0
C440 C 0.87486 0.55111 0.88914 0.0
C441 C 0.87408 0.57594 0.87226 0.0
C442 C 0.89733 0.60775 0.87879 0.0
C443 C 0.92066 0.61419 0.90216 0.0
C444 C 0.85093 0.51692 0.88247 0.0
C445 C 0.89676 0.63501 0.86223 0.0
C446 C 0.94367 0.61205 0.66652 0.0
C447 C 0.9273 0.58058 0.67698 0.0
C448 C 0.89794 0.56841 0.6923 0.0
C449 C 0.88531 0.58851 0.69809 0.0
C450 C 0.90178 0.62021 0.68717 0.0
C451 C 0.93047 0.63134 0.67094 0.0
C452 C 0.88041 0.53411 0.70219 0.0
C453 C 0.88921 0.64244 0.69274 0.0
C454 C 0.65468 0.5354 0.67464 0.0
C455 C 0.67132 0.54779 0.6424 0.0
C456 C 0.71844 0.54352 0.65378 0.0
C457 C 0.72779 0.52081 0.65592 0.0
C458 C 0.75397 0.52603 0.67476 0.0
C459 C 0.77174 0.55514 0.69113 0.0
C460 C 0.76338 0.5789 0.68774 0.0
C461 C 0.73661 0.57272 0.66945 0.0
C462 C 0.76232 0.50025 0.67759 0.0
C463 C 0.78261 0.61079 0.70364 0.0
C464 C 0.79149 0.55482 0.84746 0.0
C465 C 0.81829 0.56119 0.86545 0.0
C466 C 0.84682 0.56872 0.8508 0.0
C467 C 0.84891 0.57005 0.81699 0.0
C468 C 0.87737 0.5781 0.8014 0.0
C469 C 0.8795 0.58063 0.76817 0.0
C470 C 0.85294 0.57406 0.74915 0.0
C471 C 0.85487 0.5766 0.71532 0.0
C472 C 0.82788 0.56964 0.69723 0.0
C473 C 0.79896 0.56072 0.71192 0.0
C474 C 0.79665 0.55841 0.74573 0.0
C475 C 0.76804 0.54988 0.76138 0.0
C476 C 0.76629 0.54881 0.7947 0.0
C477 C 0.79288 0.55548 0.81361 0.0
C478 C 0.82179 0.56337 0.79833 0.0
C479 C 0.82374 0.56508 0.76436 0.0
C480 C 0.02535 0.65446 0.66774 0.0
C481 C 0.99733 0.62129 0.66162 0.0
O482 O 0.69302 0.53527 0.93148 0.0
O483 O 0.6917 0.53625 0.63676 0.0
O484 O 0.97181 0.6242 0.65134 0.0
O485 O 0.94119 0.59733 0.94466 0.0
H486 H 0.70467 0.58019 0.94572 0.0
H487 H 0.74234 0.56961 0.97279 0.0
H488 H 0.71172 0.53391 0.99052 0.0
H489 H 0.71714 0.57197 0.00254 0.0
H490 H 0.73815 0.59198 0.90854 0.0
H491 H 0.69775 0.49123 0.90272 0.0
H492 H 0.8095 0.61549 0.87991 0.0
H493 H 0.77984 0.62701 0.87608 0.0
H494 H 0.79001 0.61115 0.84208 0.0
H495 H 0.71961 0.46769 0.87011 0.0
H496 H 0.76229 0.49092 0.87032 0.0
H497 H 0.74054 0.49037 0.83531 0.0
H498 H 0.90721 0.57532 0.97913 0.0
H499 H 0.94387 0.60269 0.02442 0.0
H500 H 0.94395 0.63029 0.99561 0.0
H501 H 0.97652 0.62267 0.99692 0.0
H502 H 0.89786 0.53954 0.92689 0.0
H503 H 0.93836 0.6384 0.90769 0.0
H504 H 0.84731 0.51259 0.85625 0.0
H505 H 0.82788 0.51124 0.89303 0.0
H506 H 0.8583 0.50063 0.89297 0.0
H507 H 0.91395 0.65817 0.87303 0.0
H508 H 0.87273 0.63213 0.86338 0.0
H509 H 0.90272 0.63542 0.83658 0.0
H510 H 0.99189 0.60815 0.68475 0.0
H511 H 0.93724 0.56546 0.67262 0.0
H512 H 0.9432 0.65549 0.66233 0.0
H513 H 0.8809 0.53246 0.72869 0.0
H514 H 0.89104 0.52064 0.69188 0.0
H515 H 0.85523 0.52282 0.69449 0.0
H516 H 0.90675 0.66725 0.68647 0.0
H517 H 0.88245 0.64161 0.71823 0.0
H518 H 0.86764 0.6349 0.67784 0.0
H519 H 0.68484 0.57405 0.64292 0.0
H520 H 0.63828 0.54447 0.67945 0.0
H521 H 0.6723 0.54347 0.6945 0.0
H522 H 0.64105 0.50913 0.6746 0.0
H523 H 0.71385 0.49849 0.64351 0.0
H524 H 0.73027 0.59092 0.6674 0.0
H525 H 0.76378 0.49493 0.70325 0.0
H526 H 0.78594 0.50845 0.66693 0.0
H527 H 0.74478 0.47815 0.66527 0.0
H528 H 0.77577 0.6281 0.69501 0.0
H529 H 0.80822 0.62047 0.69912 0.0
H530 H 0.77906 0.60817 0.72994 0.0
H531 H 0.81708 0.56088 0.89143 0.0
H532 H 0.89846 0.58302 0.81478 0.0
H533 H 0.90225 0.58767 0.75759 0.0
H534 H 0.82957 0.57188 0.67134 0.0
H535 H 0.74672 0.54426 0.74806 0.0
H536 H 0.7438 0.54256 0.80549 0.0
H537 H 0.046 0.65323 0.67741 0.0
H538 H 0.01869 0.6669 0.6856 0.0
H539 H 0.03233 0.66845 0.6452 0.0
C540 C 0.09674 0.7126 0.42342 0.0
C541 C 0.10147 0.69005 0.40162 0.0
C542 C 0.15106 0.72576 0.37328 0.0
C543 C 0.13914 0.74171 0.35482 0.0
C544 C 0.15891 0.76627 0.334 0.0
C545 C 0.19097 0.7744 0.33082 0.0
C546 C 0.20286 0.75801 0.34894 0.0
C547 C 0.18277 0.7341 0.3701 0.0
C548 C 0.14556 0.78362 0.31545 0.0
C549 C 0.23679 0.76574 0.34596 0.0
C550 C 0.34436 0.01856 0.36267 0.0
C551 C 0.34308 0.98976 0.37898 0.0
C552 C 0.32343 0.94306 0.34439 0.0
C553 C 0.33177 0.92093 0.33457 0.0
C554 C 0.30914 0.89165 0.32176 0.0
C555 C 0.27751 0.88486 0.31757 0.0
C556 C 0.26891 0.90729 0.32722 0.0
C557 C 0.29195 0.93615 0.34071 0.0
C558 C 0.31916 0.86809 0.3125 0.0
C559 C 0.23554 0.90101 0.3227 0.0
C560 C 0.31412 0.91167 0.10571 0.0
C561 C 0.32798 0.89802 0.12464 0.0
C562 C 0.3093 0.87218 0.14458 0.0
C563 C 0.27631 0.86061 0.1463 0.0
C564 C 0.26238 0.87434 0.12693 0.0
C565 C 0.28146 0.89925 0.10628 0.0
C566 C 0.32488 0.85751 0.16401 0.0
C567 C 0.22742 0.86304 0.1282 0.0
C568 C 0.08433 0.64639 0.11389 0.0
C569 C 0.11379 0.64941 0.09724 0.0
C570 C 0.15757 0.68823 0.13107 0.0
C571 C 0.18248 0.69295 0.15138 0.0
C572 C 0.2026 0.72261 0.16531 0.0
C573 C 0.19656 0.74782 0.16005 0.0
C574 C 0.17143 0.74322 0.13936 0.0
C575 C 0.1529 0.71385 0.12437 0.0
C576 C 0.23018 0.72675 0.18564 0.0
C577 C 0.164 0.76922 0.13258 0.0
C578 C 0.2121 0.79999 0.30854 0.0
C579 C 0.23295 0.82977 0.3215 0.0
C580 C 0.25389 0.85475 0.30201 0.0
C581 C 0.25362 0.85023 0.26852 0.0
C582 C 0.27319 0.87526 0.24804 0.0
C583 C 0.27372 0.87035 0.21531 0.0
C584 C 0.2551 0.84011 0.20183 0.0
C585 C 0.25637 0.83465 0.16875 0.0
C586 C 0.2376 0.80427 0.15619 0.0
C587 C 0.21673 0.7791 0.17556 0.0
C588 C 0.21476 0.78425 0.20865 0.0
C589 C 0.19344 0.75983 0.22879 0.0
C590 C 0.19253 0.76487 0.26149 0.0
C591 C 0.21245 0.79471 0.27525 0.0
C592 C 0.2334 0.81992 0.25522 0.0
C593 C 0.23446 0.81473 0.22188 0.0
C594 C 0.35675 0.99282 0.08659 0.0
C595 C 0.35902 0.96388 0.09668 0.0
O596 O 0.13326 0.70258 0.39462 0.0
O597 O 0.13864 0.65871 0.11885 0.0
O598 O 0.33174 0.93694 0.08676 0.0
O599 O 0.34659 0.971 0.35646 0.0
H600 H 0.0877 0.68609 0.37901 0.0
H601 H 0.07132 0.70213 0.4295 0.0
H602 H 0.11072 0.71732 0.44595 0.0
H603 H 0.10439 0.73553 0.41134 0.0
H604 H 0.11458 0.73542 0.35664 0.0
H605 H 0.19177 0.72165 0.38434 0.0
H606 H 0.16096 0.80954 0.31868 0.0
H607 H 0.12117 0.77673 0.32301 0.0
H608 H 0.14504 0.77843 0.28951 0.0
H609 H 0.24155 0.74886 0.3594 0.0
H610 H 0.25276 0.78992 0.35535 0.0
H611 H 0.2427 0.76548 0.32035 0.0
H612 H 0.31962 0.97648 0.39085 0.0
H613 H 0.34489 0.03532 0.38094 0.0
H614 H 0.323 0.01085 0.34739 0.0
H615 H 0.3654 0.03094 0.34707 0.0
H616 H 0.35615 0.92656 0.33739 0.0
H617 H 0.28543 0.95345 0.34759 0.0
H618 H 0.31942 0.86652 0.28599 0.0
H619 H 0.30205 0.84422 0.32171 0.0
H620 H 0.34314 0.87491 0.32181 0.0
H621 H 0.23306 0.9216 0.32964 0.0
H622 H 0.21916 0.88036 0.33743 0.0
H623 H 0.22815 0.89502 0.29724 0.0
H624 H 0.36094 0.96442 0.12338 0.0
H625 H 0.35331 0.90742 0.12357 0.0
H626 H 0.2711 0.90993 0.09129 0.0
H627 H 0.32541 0.86369 0.18967 0.0
H628 H 0.34955 0.86592 0.15627 0.0
H629 H 0.3111 0.83134 0.16199 0.0
H630 H 0.22141 0.87969 0.11614 0.0
H631 H 0.21922 0.85981 0.15339 0.0
H632 H 0.21427 0.83984 0.11595 0.0
H633 H 0.1209 0.66726 0.07775 0.0
H634 H 0.06395 0.63671 0.09689 0.0
H635 H 0.08836 0.6696 0.12232 0.0
H636 H 0.07786 0.63057 0.13506 0.0
H637 H 0.18633 0.67328 0.15609 0.0
H638 H 0.13466 0.71127 0.10775 0.0
H639 H 0.22396 0.7253 0.21134 0.0
H640 H 0.25146 0.75019 0.18142 0.0
H641 H 0.23621 0.70805 0.18073 0.0
H642 H 0.13906 0.75955 0.12458 0.0
H643 H 0.1795 0.78423 0.113 0.0
H644 H 0.16822 0.78435 0.15395 0.0
H645 H 0.23327 0.8334 0.34718 0.0
H646 H 0.28835 0.89897 0.25709 0.0
H647 H 0.28924 0.89056 0.20078 0.0
H648 H 0.23885 0.80028 0.1308 0.0
H649 H 0.17734 0.73642 0.21958 0.0
H650 H 0.17604 0.74501 0.27585 0.0
H651 H 0.35487 0.9937 0.06008 0.0
H652 H 0.37792 0.01489 0.09501 0.0
H653 H 0.33545 0.99164 0.09737 0.0
C654 C 0.37248 0.02153 0.69451 0.0
C655 C 0.39146 0.04554 0.66827 0.0
C656 C 0.41752 0.09925 0.69109 0.0
C657 C 0.44714 0.12596 0.69636 0.0
C658 C 0.45001 0.15489 0.70557 0.0
C659 C 0.42239 0.1569 0.71027 0.0
C660 C 0.39226 0.1299 0.70529 0.0
C661 C 0.39009 0.10134 0.6957 0.0
C662 C 0.48254 0.18326 0.71041 0.0
C663 C 0.36235 0.1312 0.71043 0.0
C664 C 0.44925 0.38428 0.60986 0.0
C665 C 0.43236 0.35399 0.62768 0.0
C666 C 0.43895 0.30878 0.63976 0.0
C667 C 0.40952 0.28968 0.65422 0.0
C668 C 0.40453 0.2641 0.67367 0.0
C669 C 0.42993 0.25848 0.67972 0.0
C670 C 0.45902 0.2767 0.66367 0.0
C671 C 0.46289 0.30128 0.64338 0.0
C672 C 0.37263 0.24408 0.68893 0.0
C673 C 0.48652 0.27116 0.66902 0.0
C674 C 0.44009 0.35754 0.86156 0.0
C675 C 0.41143 0.32872 0.85896 0.0
C676 C 0.41126 0.30058 0.85174 0.0
C677 C 0.44024 0.30128 0.84674 0.0
C678 C 0.4691 0.33017 0.84951 0.0
C679 C 0.4686 0.35795 0.85678 0.0
C680 C 0.38004 0.27016 0.84867 0.0
C681 C 0.50041 0.33177 0.84418 0.0
C682 C 0.42938 0.12137 0.98295 0.0
C683 C 0.44978 0.12551 0.95359 0.0
C684 C 0.46035 0.17294 0.92342 0.0
C685 C 0.42906 0.16315 0.91391 0.0
C686 C 0.42265 0.18041 0.89104 0.0
C687 C 0.44808 0.20734 0.87673 0.0
C688 C 0.47956 0.21726 0.8864 0.0
C689 C 0.48518 0.20019 0.91006 0.0
C690 C 0.38875 0.16981 0.88205 0.0
C691 C 0.50732 0.24572 0.87154 0.0
C692 C 0.42502 0.18714 0.72085 0.0
C693 C 0.42429 0.20733 0.69741 0.0
C694 C 0.42763 0.23657 0.70567 0.0
C695 C 0.43091 0.24569 0.73827 0.0
C696 C 0.43417 0.27489 0.74747 0.0
C697 C 0.43672 0.28338 0.77953 0.0
C698 C 0.43727 0.26356 0.80369 0.0
C699 C 0.44013 0.27218 0.83636 0.0
C700 C 0.44272 0.25298 0.85967 0.0
C701 C 0.44206 0.22496 0.85123 0.0
C702 C 0.43749 0.21509 0.81881 0.0
C703 C 0.43546 0.18644 0.80958 0.0
C704 C 0.43075 0.17692 0.77763 0.0
C705 C 0.42896 0.19617 0.75351 0.0
C706 C 0.43152 0.22538 0.76223 0.0
C707 C 0.43528 0.2346 0.79495 0.0
C708 C 0.3994 0.39473 0.8522 0.0
C709 C 0.4176 0.39004 0.87984 0.0
O710 O 0.41662 0.07205 0.68214 0.0
O711 O 0.46768 0.15717 0.94563 0.0
O712 O 0.44145 0.3855 0.86792 0.0
O713 O 0.44525 0.33474 0.62243 0.0
H714 H 0.37521 0.0519 0.65566 0.0
H715 H 0.36281 0.03194 0.7115 0.0
H716 H 0.38783 0.01487 0.70835 0.0
H717 H 0.35221 7e-05 0.68382 0.0
H718 H 0.46815 0.12411 0.69292 0.0
H719 H 0.36694 0.08076 0.69234 0.0
H720 H 0.4849 0.2035 0.69604 0.0
H721 H 0.50164 0.17839 0.70352 0.0
H722 H 0.48589 0.19049 0.73598 0.0
H723 H 0.34068 0.10788 0.70662 0.0
H724 H 0.3617 0.14856 0.69365 0.0
H725 H 0.36215 0.13939 0.73518 0.0
H726 H 0.42796 0.35622 0.6535 0.0
H727 H 0.4599 0.40305 0.629 0.0
H728 H 0.41531 0.38156 0.57693 0.0
H729 H 0.47269 0.38719 0.6023 0.0
H730 H 0.39056 0.29484 0.65055 0.0
H731 H 0.48527 0.31587 0.63151 0.0
H732 H 0.36609 0.21879 0.6892 0.0
H733 H 0.35381 0.24639 0.67616 0.0
H734 H 0.37362 0.25177 0.71412 0.0
H735 H 0.50809 0.28861 0.65612 0.0
H736 H 0.47997 0.2471 0.66059 0.0
H737 H 0.49219 0.27248 0.69501 0.0
H738 H 0.40024 0.36897 0.89359 0.0
H739 H 0.38908 0.32798 0.86189 0.0
H740 H 0.49058 0.38027 0.85869 0.0
H741 H 0.37661 0.26161 0.82353 0.0
H742 H 0.35967 0.27308 0.85543 0.0
H743 H 0.38018 0.25167 0.86412 0.0
H744 H 0.5208 0.35609 0.84729 0.0
H745 H 0.50103 0.32344 0.81961 0.0
H746 H 0.50309 0.31581 0.86131 0.0
H747 H 0.43389 0.11195 0.93321 0.0
H748 H 0.41529 0.09595 0.98946 0.0
H749 H 0.41269 0.13004 0.9778 0.0
H750 H 0.44437 0.1348 0.00379 0.0
H751 H 0.40955 0.14234 0.92441 0.0
H752 H 0.50919 0.20764 0.91775 0.0
H753 H 0.38415 0.16107 0.85696 0.0
H754 H 0.38447 0.19008 0.88335 0.0
H755 H 0.37164 0.15062 0.89787 0.0
H756 H 0.53037 0.24859 0.87962 0.0
H757 H 0.50661 0.26735 0.87812 0.0
H758 H 0.50585 0.2437 0.845 0.0
H759 H 0.42182 0.20051 0.67237 0.0
H760 H 0.43457 0.29154 0.73007 0.0
H761 H 0.4387 0.30594 0.78507 0.0
H762 H 0.44571 0.26014 0.88463 0.0
H763 H 0.43717 0.17086 0.82698 0.0
H764 H 0.42892 0.15443 0.77205 0.0
H765 H 0.3828 0.40208 0.86159 0.0
H766 H 0.41581 0.41269 0.83495 0.0
H767 H 0.38535 0.3722 0.8389 0.0
C768 C 0.03579 0.40444 0.08805 0.0
C769 C 0.01877 0.41914 0.0978 0.0
H770 H 0.05429 0.37438 0.10111 0.0
C771 C 0.00892 0.41608 0.12977 0.0
H772 H 0.04354 0.40633 0.06349 0.0
C773 C 0.01577 0.3985 0.15153 0.0
C774 C 0.03202 0.38302 0.14171 0.0
H775 H 0.99597 0.42735 0.13801 0.0
H776 H 0.00778 0.39643 0.17603 0.0
C777 C 0.04198 0.38618 0.10966 0.0
C778 C 0.56418 0.03039 0.58347 0.0
C779 C 0.56416 0.04396 0.55375 0.0
H780 H 0.59186 0.02537 0.62065 0.0
C781 C 0.5932 0.06452 0.53919 0.0
H782 H 0.54215 0.01448 0.59529 0.0
C783 C 0.62168 0.07033 0.55348 0.0
C784 C 0.62164 0.05633 0.58307 0.0
H785 H 0.59384 0.07506 0.51611 0.0
H786 H 0.6436 0.08521 0.54104 0.0
C787 C 0.59259 0.03666 0.59804 0.0
C788 C 0.56155 0.64397 0.04399 0.0
C789 C 0.56619 0.61854 0.05161 0.0
H790 H 0.5722 0.69091 0.05577 0.0
C791 C 0.58715 0.62207 0.07671 0.0
H792 H 0.54533 0.64188 0.025 0.0
C793 C 0.60298 0.65037 0.09398 0.0
C794 C 0.59799 0.67565 0.08669 0.0
H795 H 0.59124 0.6029 0.08315 0.0
H796 H 0.61877 0.6523 0.11336 0.0
C797 C 0.57702 0.67209 0.06155 0.0
C798 C 0.00541 0.5857 0.58273 0.0
C799 C 0.02672 0.57554 0.59175 0.0
H800 H 0.97978 0.60854 0.59709 0.0
C801 C 0.03741 0.57957 0.62367 0.0
H802 H 0.9969 0.58302 0.55824 0.0
C803 C 0.02701 0.59345 0.64613 0.0
C804 C 0.00613 0.60414 0.63712 0.0
H805 H 0.05369 0.57181 0.63138 0.0
H806 H 0.03569 0.59631 0.67058 0.0
C807 C 0.99553 0.60023 0.60506 0.0
C808 C 0.44548 0.98942 0.08354 0.0
C809 C 0.44487 0.97721 0.05294 0.0
H810 H 0.41872 0.99417 0.12129 0.0
C811 C 0.41557 0.958 0.03774 0.0
H812 H 0.46773 0.0043 0.09584 0.0
C813 C 0.3875 0.95255 0.05219 0.0
C814 C 0.38824 0.96558 0.08245 0.0
H815 H 0.41446 0.94859 0.01399 0.0
H816 H 0.36537 0.93902 0.03925 0.0
C817 C 0.41747 0.98357 0.09816 0.0
C818 C 0.45163 0.38831 0.55182 0.0
C819 C 0.45303 0.42252 0.57003 0.0
H820 H 0.42693 0.32905 0.55824 0.0
C821 C 0.42751 0.4191 0.60279 0.0
H822 H 0.46631 0.39119 0.53138 0.0
C823 C 0.40119 0.38106 0.62026 0.0
C824 C 0.40764 0.34844 0.60647 0.0
H825 H 0.42821 0.44003 0.61225 0.0
H826 H 0.388 0.37906 0.64169 0.0
C827 C 0.42617 0.34935 0.56741 0.0
C828 C 0.50961 0.95989 0.42848 0.0
C829 C 0.48575 0.93872 0.46258 0.0
H830 H 0.5361 0.95289 0.37982 0.0
C831 C 0.46904 0.89657 0.46718 0.0
H832 H 0.51814 0.98491 0.42589 0.0
C833 C 0.47761 0.87428 0.43867 0.0
C834 C 0.50937 0.89894 0.40957 0.0
H835 H 0.45375 0.88453 0.4872 0.0
H836 H 0.46969 0.84952 0.44243 0.0
C837 C 0.51958 0.93988 0.39871 0.0
C838 C 0.6173 0.55453 0.96952 0.0
C839 C 0.6023 0.5305 0.99249 0.0
H840 H 0.6578 0.58105 0.94012 0.0
C841 C 0.61699 0.51331 0.00215 0.0
H842 H 0.6066 0.56812 0.96126 0.0
C843 C 0.64646 0.52061 0.98962 0.0
C844 C 0.66217 0.54583 0.96789 0.0
H845 H 0.6058 0.49434 0.01943 0.0
H846 H 0.65712 0.50688 0.99743 0.0
C847 C 0.64676 0.56205 0.9574 0.0
C848 C 0.04801 0.60432 0.42806 0.0
C849 C 0.06582 0.60147 0.45319 0.0
H850 H 0.04527 0.63449 0.39219 0.0
C851 C 0.09578 0.6274 0.4605 0.0
H852 H 0.02477 0.58487 0.42193 0.0
C853 C 0.10748 0.65565 0.44344 0.0
C854 C 0.0896 0.65864 0.41851 0.0
H855 H 0.11012 0.6261 0.47976 0.0
H856 H 0.13038 0.67539 0.45006 0.0
C857 C 0.05973 0.63269 0.411 0.0
C858 C 0.48426 0.07058 0.95647 0.0
C859 C 0.50909 0.08587 0.97889 0.0
H860 H 0.44608 0.07097 0.93115 0.0
C861 C 0.51606 0.11554 0.9909 0.0
H862 H 0.47824 0.0477 0.94671 0.0
C863 C 0.49757 0.12883 0.98191 0.0
C864 C 0.4718 0.11278 0.96068 0.0
H865 H 0.53492 0.12788 0.00829 0.0
H866 H 0.50274 0.15121 0.99235 0.0
C867 C 0.46573 0.08382 0.94759 0.0
C868 C 0.47101 0.44863 0.40957 0.0
C869 C 0.46466 0.45891 0.43851 0.0
H870 H 0.45346 0.42707 0.36398 0.0
C871 C 0.43432 0.4547 0.44336 0.0
H872 H 0.49416 0.45154 0.40517 0.0
C873 C 0.4108 0.44033 0.42 0.0
C874 C 0.41689 0.43 0.39097 0.0
H875 H 0.42849 0.46214 0.46545 0.0
H876 H 0.38759 0.43723 0.42462 0.0
C877 C 0.44745 0.43447 0.38592 0.0
C878 C 0.99629 0.39672 0.93324 0.0
C879 C 0.97972 0.40169 0.95784 0.0
H880 H 0.99511 0.36537 0.89663 0.0
C881 C 0.948 0.37859 0.96328 0.0
H882 H 0.02078 0.41398 0.92853 0.0
C883 C 0.93335 0.35097 0.94496 0.0
C884 C 0.94999 0.34576 0.92065 0.0
H885 H 0.93452 0.3816 0.98203 0.0
H886 H 0.90909 0.33336 0.95015 0.0
C887 C 0.98161 0.36894 0.91495 0.0
C888 C 0.93218 0.51266 0.011 0.0
C889 C 0.96024 0.51537 0.99895 0.0
H890 H 0.90165 0.5324 0.01263 0.0
C891 C 0.97813 0.53967 0.977 0.0
H892 H 0.9179 0.49428 0.028 0.0
C893 C 0.96888 0.56158 0.96838 0.0
C894 C 0.94126 0.55931 0.9811 0.0
H895 H 1.00001 0.54261 0.96745 0.0
H896 H 0.98383 0.58083 0.95251 0.0
C897 C 0.92283 0.53442 0.00218 0.0
C898 C 0.38493 0.98702 0.45542 0.0
C899 C 0.41669 0.00944 0.4493 0.0
H900 H 0.33706 0.9638 0.43832 0.0
C901 C 0.42419 0.02692 0.42074 0.0
H902 H 0.3784 0.97311 0.4772 0.0
C903 C 0.40049 0.02133 0.39826 0.0
C904 C 0.36863 0.99882 0.40435 0.0
H905 H 0.44852 0.04404 0.41517 0.0
H906 H 0.40732 0.03411 0.37584 0.0
C907 C 0.36121 0.98181 0.43323 0.0
C908 C 0.45086 0.43661 0.95716 0.0
C909 C 0.46547 0.46812 0.94665 0.0
H910 H 0.42413 0.38771 0.94434 0.0
C911 C 0.46313 0.47428 0.91416 0.0
H912 H 0.45234 0.43108 0.98206 0.0
C913 C 0.44723 0.44934 0.89242 0.0
C914 C 0.43242 0.41771 0.90297 0.0
H915 H 0.47457 0.49835 0.90531 0.0
H916 H 0.44712 0.45499 0.86736 0.0
C917 C 0.43455 0.41175 0.93559 0.0
C918 C 0.13337 0.50727 0.49784 0.0
C919 C 0.10205 0.49783 0.48888 0.0
H920 H 0.1721 0.4985 0.4941 0.0
C921 C 0.08602 0.47214 0.46772 0.0
H922 H 0.14635 0.52691 0.51415 0.0
C923 C 0.10066 0.45567 0.45654 0.0
C924 C 0.13196 0.46502 0.46566 0.0
H925 H 0.06174 0.46406 0.46063 0.0
H926 H 0.08726 0.43527 0.44124 0.0
C927 C 0.14815 0.49111 0.48628 0.0
C928 C 0.58376 0.00265 0.91666 0.0
C929 C 0.59107 0.01972 0.9455 0.0
H930 H 0.60122 0.99447 0.87309 0.0
C931 C 0.62293 0.04101 0.95307 0.0
H932 H 0.5594 0.98637 0.91 0.0
C933 C 0.64698 0.04509 0.93232 0.0
C934 C 0.63982 0.02802 0.90347 0.0
H935 H 0.62935 0.05458 0.97511 0.0
H936 H 0.67128 0.06197 0.93867 0.0
C937 C 0.60782 0.00714 0.89561 0.0
C938 C 0.57604 0.60243 0.47679 0.0
C939 C 0.54994 0.59139 0.49738 0.0
H940 H 0.6133 0.64218 0.45255 0.0
C941 C 0.54045 0.61265 0.50797 0.0
H942 H 0.58409 0.58674 0.46829 0.0
C943 C 0.55709 0.64438 0.49868 0.0
C944 C 0.58344 0.65546 0.47849 0.0
H945 H 0.52049 0.60494 0.52388 0.0
H946 H 0.54976 0.66045 0.50778 0.0
C947 C 0.59273 0.63416 0.46763 0.0
C948 C 0.43304 0.04366 0.59222 0.0
C949 C 0.4307 0.01382 0.59334 0.0
H950 H 0.42212 0.0763 0.61482 0.0
C951 C 0.41515 0.99374 0.61929 0.0
H952 H 0.44478 0.0597 0.57252 0.0
C953 C 0.40236 0.00337 0.64372 0.0
C954 C 0.4045 0.03327 0.64253 0.0
H955 H 0.41305 0.97062 0.62089 0.0
H956 H 0.39089 0.98716 0.6633 0.0
C957 C 0.42 0.05316 0.61641 0.0
C958 C 0.44158 0.53267 0.08418 0.0
C959 C 0.45195 0.50199 0.08549 0.0
H960 H 0.40285 0.54758 0.10658 0.0
C961 C 0.43384 0.46938 0.11335 0.0
H962 H 0.45389 0.5525 0.06811 0.0
C963 C 0.40269 0.46518 0.13954 0.0
C964 C 0.38731 0.49256 0.1304 0.0
H965 H 0.44163 0.45219 0.11432 0.0
H966 H 0.38991 0.44453 0.15452 0.0
C967 C 0.41098 0.53075 0.10926 0.0
C968 C 0.95947 0.4149 0.52835 0.0
C969 C 0.97603 0.44234 0.54702 0.0
H970 H 0.93345 0.36419 0.52795 0.0
C971 C 0.97611 0.4397 0.58051 0.0
H972 H 0.95918 0.4164 0.50245 0.0
C973 C 0.96087 0.41006 0.5951 0.0
C974 C 0.94616 0.38237 0.57642 0.0
H975 H 0.98849 0.4606 0.59541 0.0
H976 H 0.96159 0.40873 0.62098 0.0
C977 C 0.94491 0.3851 0.54292 0.0
C978 C 0.55478 0.97291 0.10033 0.0
C979 C 0.57363 0.00468 0.09142 0.0
H980 H 0.54795 0.93609 0.13228 0.0
C981 C 0.60176 0.02391 0.10847 0.0
H982 H 0.53289 0.95756 0.08768 0.0
C983 C 0.6109 0.01145 0.13396 0.0
C984 C 0.59159 0.9798 0.14359 0.0
H985 H 0.61687 0.04844 0.10186 0.0
H986 H 0.63306 0.02663 0.14622 0.0
C987 C 0.56348 0.96066 0.12617 0.0
C988 C 0.60548 0.54484 0.59028 0.0
C989 C 0.59732 0.51881 0.57019 0.0
H990 H 0.63559 0.57451 0.62796 0.0
C991 C 0.61441 0.50275 0.57271 0.0
H992 H 0.59283 0.55778 0.58877 0.0
C993 C 0.63862 0.51202 0.59567 0.0
C994 C 0.64676 0.53814 0.61582 0.0
H995 H 0.60841 0.48246 0.55765 0.0
H996 H 0.65065 0.49853 0.59782 0.0
C997 C 0.63003 0.55451 0.61261 0.0
C998 C 0.09381 0.58438 0.03549 0.0
C999 C 0.08055 0.55739 0.05501 0.0
H1000 H 0.11432 0.63474 0.03358 0.0
C1001 C 0.08216 0.56096 0.08843 0.0
H1002 H 0.09251 0.58212 0.00962 0.0
C1003 C 0.09524 0.59098 0.10216 0.0
C1004 C 0.10583 0.61789 0.08265 0.0
H1005 H 0.07206 0.54041 0.10391 0.0
H1006 H 0.09532 0.593 0.128 0.0
C1007 C 0.10607 0.61441 0.0492 0.0
loop_
_geom_bond_atom_site_label_1
_geom_bond_atom_site_label_2
_geom_bond_distance
_geom_bond_site_symmetry_2
_ccdc_geom_bond_type
C0 O2 1.247 . S
C0 O4 1.258 . S
C1 O8 1.271 . S
C1 O9 1.239 1_455 S
O2 C0 1.247 . S
O2 Zn3 2.034 . S
Zn3 O2 2.034 . S
Zn3 O7 2.012 1_454 S
Zn3 O9 2.039 1_454 S
Zn3 O10 2.061 . S
O4 C0 1.258 . S
O4 Zn5 2.035 1_554 S
Zn5 O4 2.035 1_556 S
Zn5 O6 2.028 . S
Zn5 O8 2.028 . S
Zn5 O11 2.035 1_556 S
O6 Zn5 2.028 . S
O6 C12 1.247 . S
O7 Zn3 2.012 1_656 S
O7 C12 1.258 1_655 S
O8 C1 1.271 . S
O8 Zn5 2.028 . S
O9 C1 1.239 1_655 S
O9 Zn3 2.039 1_656 S
O10 Zn3 2.061 . S
O10 C13 1.247 . S
O11 Zn5 2.035 1_554 S
O11 C13 1.258 . S
C12 O6 1.247 . S
C12 O7 1.258 1_455 S
C13 O10 1.247 . S
C13 O11 1.258 . S
C14 O16 1.247 . S
C14 O18 1.258 . S
C15 O22 1.247 1_565 S
C15 O23 1.258 . S
O16 C14 1.247 . S
O16 Zn17 2.028 1_545 S
Zn17 O16 2.028 1_565 S
Zn17 O21 2.035 . S
Zn17 O23 2.035 . S
Zn17 O24 2.028 1_565 S
O18 C14 1.258 . S
O18 Zn19 2.035 . S
Zn19 O18 2.035 . S
Zn19 O20 2.028 . S
Zn19 O22 2.028 . S
Zn19 O25 2.035 . S
O20 Zn19 2.028 . S
O20 C26 1.247 1_545 S
O21 Zn17 2.035 . S
O21 C26 1.258 . S
O22 C15 1.247 1_545 S
O22 Zn19 2.028 . S
O23 C15 1.258 . S
O23 Zn17 2.035 . S
O24 Zn17 2.028 1_545 S
O24 C27 1.247 . S
O25 Zn19 2.035 . S
O25 C27 1.258 . S
C26 O20 1.247 1_565 S
C26 O21 1.258 . S
C27 O24 1.247 . S
C27 O25 1.258 . S
C28 O30 1.247 . S
C28 O32 1.258 1_556 S
C29 O36 1.247 . S
C29 O37 1.258 . S
O30 C28 1.247 . S
O30 Zn31 2.028 . S
Zn31 O30 2.028 . S
Zn31 O35 2.035 1_556 S
Zn31 O37 2.035 1_556 S
Zn31 O38 2.028 . S
O32 C28 1.258 1_554 S
O32 Zn33 2.035 . S
Zn33 O32 2.035 . S
Zn33 O34 2.028 . S
Zn33 O36 2.028 . S
Zn33 O39 2.035 . S
O34 Zn33 2.028 . S
O34 C40 1.247 . S
O35 Zn31 2.035 1_554 S
O35 C40 1.258 . S
O36 C29 1.247 . S
O36 Zn33 2.028 . S
O37 C29 1.258 . S
O37 Zn31 2.035 1_554 S
O38 Zn31 2.028 . S
O38 C41 1.247 . S
O39 Zn33 2.035 . S
O39 C41 1.258 1_554 S
C40 O34 1.247 . S
C40 O35 1.258 . S
C41 O38 1.247 . S
C41 O39 1.258 1_556 S
C42 O44 1.247 . S
C42 O46 1.258 . S
C43 O50 1.247 . S
C43 O51 1.258 1_655 S
O44 C42 1.247 . S
O44 Zn45 2.028 . S
Zn45 O44 2.028 . S
Zn45 O49 2.035 . S
Zn45 O51 2.035 . S
Zn45 O52 2.028 . S
O46 C42 1.258 . S
O46 Zn47 2.035 1_455 S
Zn47 O46 2.035 1_655 S
Zn47 O48 2.028 . S
Zn47 O50 2.028 . S
Zn47 O53 2.035 1_655 S
O48 Zn47 2.028 . S
O48 C54 1.247 . S
O49 Zn45 2.035 . S
O49 C54 1.258 1_455 S
O50 C43 1.247 . S
O50 Zn47 2.028 . S
O51 C43 1.258 1_455 S
O51 Zn45 2.035 . S
O52 Zn45 2.028 . S
O52 C55 1.247 . S
O53 Zn47 2.035 1_455 S
O53 C55 1.258 . S
C54 O48 1.247 . S
C54 O49 1.258 1_655 S
C55 O52 1.247 . S
C55 O53 1.258 . S
C56 O58 1.247 1_565 S
C56 O60 1.258 . S
C57 O64 1.247 . S
C57 O65 1.258 1_556 S
O58 C56 1.247 1_545 S
O58 Zn59 2.028 . S
Zn59 O58 2.028 . S
Zn59 O63 2.035 . S
Zn59 O65 2.035 . S
Zn59 O66 2.028 . S
O60 C56 1.258 . S
O60 Zn61 2.035 1_554 S
Zn61 O60 2.035 1_556 S
Zn61 O62 2.028 1_565 S
Zn61 O64 2.028 1_565 S
Zn61 O67 2.035 1_556 S
O62 Zn61 2.028 1_545 S
O62 C68 1.247 . S
O63 Zn59 2.035 . S
O63 C68 1.258 1_554 S
O64 C57 1.247 . S
O64 Zn61 2.028 1_545 S
O65 C57 1.258 1_554 S
O65 Zn59 2.035 . S
O66 Zn59 2.028 . S
O66 C69 1.247 1_545 S
O67 Zn61 2.035 1_554 S
O67 C69 1.258 . S
C68 O62 1.247 . S
C68 O63 1.258 1_556 S
C69 O66 1.247 1_565 S
C69 O67 1.258 . S
C70 O72 1.247 . S
C70 O74 1.258 . S
C71 O78 1.247 . S
C71 O79 1.258 . S
O72 C70 1.247 . S
O72 Zn73 2.028 . S
Zn73 O72 2.028 . S
Zn73 O77 2.035 . S
Zn73 O79 2.035 . S
Zn73 O80 2.028 . S
O74 C70 1.258 . S
O74 Zn75 2.035 . S
Zn75 O74 2.035 . S
Zn75 O76 2.028 . S
Zn75 O78 2.028 . S
Zn75 O81 2.035 . S
O76 Zn75 2.028 . S
O76 C82 1.247 . S
O77 Zn73 2.035 . S
O77 C82 1.258 . S
O78 C71 1.247 . S
O78 Zn75 2.028 . S
O79 C71 1.258 . S
O79 Zn73 2.035 . S
O80 Zn73 2.028 . S
O80 C83 1.247 . S
O81 Zn75 2.035 . S
O81 C83 1.258 . S
C82 O76 1.247 . S
C82 O77 1.258 . S
C83 O80 1.247 . S
C83 O81 1.258 . S
C84 C85 1.560 . S
C84 H145 0.959 . S
C84 H146 0.959 . S
C84 H147 0.960 . S
C85 C84 1.560 . S
C85 O140 1.426 . S
C85 H144 0.980 . S
C86 C87 1.407 . S
C86 C91 1.418 . S
C86 O140 1.334 . S
C87 C86 1.407 . S
C87 C88 1.360 . S
C87 H148 0.929 . S
C88 C87 1.360 . S
C88 C89 1.401 . S
C88 C92 1.527 . S
C89 C88 1.401 . S
C89 C90 1.405 . S
C89 C122 1.587 . S
C90 C89 1.405 . S
C90 C91 1.332 . S
C90 C93 1.496 . S
C91 C86 1.418 . S
C91 C90 1.332 . S
C91 H149 0.929 . S
C92 C88 1.527 . S
C92 H150 0.959 . S
C92 H151 0.961 . S
C92 H152 0.961 . S
C93 C90 1.496 . S
C93 H153 0.960 . S
C93 H154 0.960 . S
C93 H155 0.961 . S
C94 C95 1.517 . S
C94 H157 0.961 . S
C94 H158 0.960 . S
C94 H159 0.959 . S
C95 C94 1.517 . S
C95 O143 1.468 . S
C95 H156 0.980 . S
C96 C97 1.349 . S
C96 C101 1.367 . S
C96 O143 1.408 . S
C97 C96 1.349 . S
C97 C98 1.407 . S
C97 H160 0.930 . S
C98 C97 1.407 . S
C98 C99 1.449 . S
C98 C102 1.535 . S
C99 C98 1.449 . S
C99 C100 1.384 . S
C99 C124 1.553 . S
C100 C99 1.384 . S
C100 C101 1.364 . S
C100 C103 1.450 . S
C101 C96 1.367 . S
C101 C100 1.364 . S
C101 H161 0.931 . S
C102 C98 1.535 . S
C102 H162 0.959 . S
C102 H163 0.961 . S
C102 H164 0.959 . S
C103 C100 1.450 . S
C103 H165 0.960 . S
C103 H166 0.960 . S
C103 H167 0.960 . S
C104 C105 1.309 . S
C104 C109 1.304 . S
C104 O142 1.435 . S
C105 C104 1.309 . S
C105 C106 1.476 . S
C105 H169 0.930 . S
C106 C105 1.476 . S
C106 C107 1.400 . S
C106 C110 1.567 . S
C107 C106 1.400 . S
C107 C108 1.373 . S
C107 C129 1.432 . S
C108 C107 1.373 . S
C108 C109 1.339 . S
C108 C111 1.530 . S
C109 C104 1.304 . S
C109 C108 1.339 . S
C109 H170 0.930 . S
C110 C106 1.567 . S
C110 H171 0.961 . S
C110 H172 0.960 . S
C110 H173 0.958 . S
C111 C108 1.530 . S
C111 H174 0.961 . S
C111 H175 0.960 . S
C111 H176 0.960 . S
C112 C113 1.530 . S
C112 H178 0.961 . S
C112 H179 0.961 . S
C112 H180 0.959 . S
C113 C112 1.530 . S
C113 O141 1.412 . S
C113 H177 0.980 . S
C114 C115 1.288 . S
C114 C119 1.377 . S
C114 O141 1.393 . S
C115 C114 1.288 . S
C115 C116 1.369 . S
C115 H181 0.932 . S
C116 C115 1.369 . S
C116 C117 1.398 . S
C116 C120 1.527 . S
C117 C116 1.398 . S
C117 C118 1.380 . S
C117 C131 1.497 . S
C118 C117 1.380 . S
C118 C119 1.383 . S
C118 C121 1.603 . S
C119 C114 1.377 . S
C119 C118 1.383 . S
C119 H182 0.929 . S
C120 C116 1.527 . S
C120 H183 0.961 . S
C120 H184 0.959 . S
C120 H185 0.959 . S
C121 C118 1.603 . S
C121 H186 0.960 . S
C121 H187 0.962 . S
C121 H188 0.961 . S
C122 C89 1.587 . S
C122 C123 1.360 . S
C122 C135 1.412 . S
C123 C122 1.360 . S
C123 C124 1.365 . S
C123 H189 0.929 . S
C124 C99 1.553 . S
C124 C123 1.365 . S
C124 C125 1.404 . S
C125 C124 1.404 . S
C125 C126 1.395 . S
C125 C136 1.451 . S
C126 C125 1.395 . S
C126 C127 1.322 . S
C126 H190 0.930 . S
C127 C126 1.322 . S
C127 C128 1.459 . S
C127 H191 0.929 . S
C128 C127 1.459 . S
C128 C129 1.445 . S
C128 C137 1.395 . S
C129 C107 1.432 . S
C129 C128 1.445 . S
C129 C130 1.370 . S
C130 C129 1.370 . S
C130 C131 1.438 . S
C130 H192 0.930 . S
C131 C117 1.497 . S
C131 C130 1.438 . S
C131 C132 1.360 . S
C132 C131 1.360 . S
C132 C133 1.401 . S
C132 C137 1.446 . S
C133 C132 1.401 . S
C133 C134 1.347 . S
C133 H193 0.929 . S
C134 C133 1.347 . S
C134 C135 1.455 . S
C134 H194 0.930 . S
C135 C122 1.412 . S
C135 C134 1.455 . S
C135 C136 1.331 . S
C136 C125 1.451 . S
C136 C135 1.331 . S
C136 C137 1.497 . S
C137 C128 1.395 . S
C137 C132 1.446 . S
C137 C136 1.497 . S
C138 C139 1.582 . S
C138 H195 0.962 . S
C138 H196 0.959 . S
C138 H197 0.958 . S
C139 C138 1.582 . S
C139 O142 1.458 . S
C139 H168 0.980 . S
O140 C85 1.426 . S
O140 C86 1.334 . S
O141 C113 1.412 . S
O141 C114 1.393 . S
O142 C104 1.435 . S
O142 C139 1.458 . S
O143 C95 1.468 . S
O143 C96 1.408 . S
H144 C85 0.980 . S
H145 C84 0.959 . S
H146 C84 0.959 . S
H147 C84 0.960 . S
H148 C87 0.929 . S
H149 C91 0.929 . S
H150 C92 0.959 . S
H151 C92 0.961 . S
H152 C92 0.961 . S
H153 C93 0.960 . S
H154 C93 0.960 . S
H155 C93 0.961 . S
H156 C95 0.980 . S
H157 C94 0.961 . S
H158 C94 0.960 . S
H159 C94 0.959 . S
H160 C97 0.930 . S
H161 C101 0.931 . S
H162 C102 0.959 . S
H163 C102 0.961 . S
H164 C102 0.959 . S
H165 C103 0.960 . S
H166 C103 0.960 . S
H167 C103 0.960 . S
H168 C139 0.980 . S
H169 C105 0.930 . S
H170 C109 0.930 . S
H171 C110 0.961 . S
H172 C110 0.960 . S
H173 C110 0.958 . S
H174 C111 0.961 . S
H175 C111 0.960 . S
H176 C111 0.960 . S
H177 C113 0.980 . S
H178 C112 0.961 . S
H179 C112 0.961 . S
H180 C112 0.959 . S
H181 C115 0.932 . S
H182 C119 0.929 . S
H183 C120 0.961 . S
H184 C120 0.959 . S
H185 C120 0.959 . S
H186 C121 0.960 . S
H187 C121 0.962 . S
H188 C121 0.961 . S
H189 C123 0.929 . S
H190 C126 0.930 . S
H191 C127 0.929 . S
H192 C130 0.930 . S
H193 C133 0.929 . S
H194 C134 0.930 . S
H195 C138 0.962 . S
H196 C138 0.959 . S
H197 C138 0.958 . S
C198 C199 1.560 . S
C198 H259 0.959 . S
C198 H260 0.959 . S
C198 H261 0.960 . S
C199 C198 1.560 . S
C199 O254 1.426 . S
C199 H258 0.980 . S
C200 C201 1.407 . S
C200 C205 1.418 . S
C200 O254 1.334 . S
C201 C200 1.407 . S
C201 C202 1.360 . S
C201 H262 0.929 . S
C202 C201 1.360 . S
C202 C203 1.401 . S
C202 C206 1.527 . S
C203 C202 1.401 . S
C203 C204 1.405 . S
C203 C236 1.587 . S
C204 C203 1.405 . S
C204 C205 1.332 . S
C204 C207 1.496 . S
C205 C200 1.418 . S
C205 C204 1.332 . S
C205 H263 0.929 . S
C206 C202 1.527 . S
C206 H264 0.959 . S
C206 H265 0.961 . S
C206 H266 0.961 . S
C207 C204 1.496 . S
C207 H267 0.960 . S
C207 H268 0.960 . S
C207 H269 0.961 . S
C208 C209 1.517 . S
C208 H271 0.961 . S
C208 H272 0.960 . S
C208 H273 0.977 . S
C209 C208 1.517 . S
C209 O257 1.468 . S
C209 H270 0.980 . S
C210 C211 1.349 . S
C210 C215 1.367 . S
C210 O257 1.408 . S
C211 C210 1.349 . S
C211 C212 1.407 . S
C211 H274 0.930 . S
C212 C211 1.407 . S
C212 C213 1.449 . S
C212 C216 1.535 . S
C213 C212 1.449 . S
C213 C214 1.384 . S
C213 C238 1.553 . S
C214 C213 1.384 . S
C214 C215 1.364 . S
C214 C217 1.450 . S
C215 C210 1.367 . S
C215 C214 1.364 . S
C215 H275 0.931 . S
C216 C212 1.535 . S
C216 H276 0.959 . S
C216 H277 0.961 . S
C216 H278 0.959 . S
C217 C214 1.450 . S
C217 H279 0.960 . S
C217 H280 0.960 . S
C217 H281 0.960 . S
C218 C219 1.309 . S
C218 C223 1.304 . S
C218 O256 1.435 . S
C219 C218 1.309 . S
C219 C220 1.476 . S
C219 H283 0.930 . S
C220 C219 1.476 . S
C220 C221 1.400 . S
C220 C224 1.567 . S
C221 C220 1.400 . S
C221 C222 1.373 . S
C221 C243 1.432 . S
C222 C221 1.373 . S
C222 C223 1.339 . S
C222 C225 1.530 . S
C223 C218 1.304 . S
C223 C222 1.339 . S
C223 H284 0.930 . S
C224 C220 1.567 . S
C224 H285 0.961 . S
C224 H286 0.960 . S
C224 H287 0.958 . S
C225 C222 1.530 . S
C225 H288 0.961 . S
C225 H289 0.960 . S
C225 H290 0.960 . S
C226 C227 1.530 . S
C226 H292 0.961 . S
C226 H293 0.961 . S
C226 H294 0.959 . S
C227 C226 1.530 . S
C227 O255 1.412 . S
C227 H291 0.980 . S
C228 C229 1.288 . S
C228 C233 1.377 . S
C228 O255 1.393 . S
C229 C228 1.288 . S
C229 C230 1.369 . S
C229 H295 0.932 . S
C230 C229 1.369 . S
C230 C231 1.398 . S
C230 C234 1.527 . S
C231 C230 1.398 . S
C231 C232 1.380 . S
C231 C245 1.497 . S
C232 C231 1.380 . S
C232 C233 1.383 . S
C232 C235 1.603 . S
C233 C228 1.377 . S
C233 C232 1.383 . S
C233 H296 0.929 . S
C234 C230 1.527 . S
C234 H297 0.961 . S
C234 H298 0.959 . S
C234 H299 0.959 . S
C235 C232 1.603 . S
C235 H300 0.960 . S
C235 H301 0.962 . S
C235 H302 0.961 . S
C236 C203 1.587 . S
C236 C237 1.360 . S
C236 C249 1.412 . S
C237 C236 1.360 . S
C237 C238 1.365 . S
C237 H303 0.929 . S
C238 C213 1.553 . S
C238 C237 1.365 . S
C238 C239 1.404 . S
C239 C238 1.404 . S
C239 C240 1.395 . S
C239 C250 1.451 . S
C240 C239 1.395 . S
C240 C241 1.322 . S
C240 H304 0.930 . S
C241 C240 1.322 . S
C241 C242 1.459 . S
C241 H305 0.929 . S
C242 C241 1.459 . S
C242 C243 1.445 . S
C242 C251 1.395 . S
C243 C221 1.432 . S
C243 C242 1.445 . S
C243 C244 1.370 . S
C244 C243 1.370 . S
C244 C245 1.438 . S
C244 H306 0.930 . S
C245 C231 1.497 . S
C245 C244 1.438 . S
C245 C246 1.360 . S
C246 C245 1.360 . S
C246 C247 1.401 . S
C246 C251 1.446 . S
C247 C246 1.401 . S
C247 C248 1.347 . S
C247 H307 0.929 . S
C248 C247 1.347 . S
C248 C249 1.455 . S
C248 H308 0.930 . S
C249 C236 1.412 . S
C249 C248 1.455 . S
C249 C250 1.331 . S
C250 C239 1.451 . S
C250 C249 1.331 . S
C250 C251 1.497 . S
C251 C242 1.395 . S
C251 C246 1.446 . S
C251 C250 1.497 . S
C252 C253 1.582 . S
C252 H309 0.962 . S
C252 H310 0.959 1_545 S
C252 H311 0.958 . S
C253 C252 1.582 . S
C253 O256 1.458 . S
C253 H282 0.980 . S
O254 C199 1.426 . S
O254 C200 1.334 . S
O255 C227 1.412 . S
O255 C228 1.393 . S
O256 C218 1.435 . S
O256 C253 1.458 . S
O257 C209 1.468 . S
O257 C210 1.408 . S
H258 C199 0.980 . S
H259 C198 0.959 . S
H260 C198 0.959 . S
H261 C198 0.960 . S
H262 C201 0.929 . S
H263 C205 0.929 . S
H264 C206 0.959 . S
H265 C206 0.961 . S
H266 C206 0.961 . S
H267 C207 0.960 . S
H268 C207 0.960 . S
H269 C207 0.961 . S
H270 C209 0.980 . S
H271 C208 0.961 . S
H272 C208 0.960 . S
H273 C208 0.977 . S
H274 C211 0.930 . S
H275 C215 0.931 . S
H276 C216 0.959 . S
H277 C216 0.961 . S
H278 C216 0.959 . S
H279 C217 0.960 . S
H280 C217 0.960 . S
H281 C217 0.960 . S
H282 C253 0.980 . S
H283 C219 0.930 . S
H284 C223 0.930 . S
H285 C224 0.961 . S
H286 C224 0.960 . S
H287 C224 0.958 . S
H288 C225 0.961 . S
H289 C225 0.960 . S
H290 C225 0.960 . S
H291 C227 0.980 . S
H292 C226 0.961 . S
H293 C226 0.961 . S
H294 C226 0.959 . S
H295 C229 0.932 . S
H296 C233 0.929 . S
H297 C234 0.961 . S
H298 C234 0.959 . S
H299 C234 0.959 . S
H300 C235 0.960 . S
H301 C235 0.962 . S
H302 C235 0.961 . S
H303 C237 0.929 . S
H304 C240 0.930 . S
H305 C241 0.929 . S
H306 C244 0.930 . S
H307 C247 0.929 . S
H308 C248 0.930 . S
H309 C252 0.962 . S
H310 C252 0.959 1_565 S
H311 C252 0.958 . S
C312 C313 1.560 . S
C312 H373 0.959 . S
C312 H374 0.959 . S
C312 H375 0.960 . S
C313 C312 1.560 . S
C313 O368 1.426 . S
C313 H372 0.980 . S
C314 C315 1.407 . S
C314 C319 1.418 . S
C314 O368 1.334 . S
C315 C314 1.407 . S
C315 C316 1.360 . S
C315 H376 0.929 . S
C316 C315 1.360 . S
C316 C317 1.401 . S
C316 C320 1.527 . S
C317 C316 1.401 . S
C317 C318 1.405 . S
C317 C350 1.587 . S
C318 C317 1.405 . S
C318 C319 1.332 . S
C318 C321 1.496 . S
C319 C314 1.418 . S
C319 C318 1.332 . S
C319 H377 0.929 . S
C320 C316 1.527 . S
C320 H378 0.959 . S
C320 H379 0.961 . S
C320 H380 0.961 . S
C321 C318 1.496 . S
C321 H381 0.960 . S
C321 H382 0.960 . S
C321 H383 0.961 . S
C322 C323 1.517 . S
C322 H385 0.961 . S
C322 H386 0.960 . S
C322 H387 0.959 . S
C323 C322 1.517 . S
C323 O371 1.468 . S
C323 H384 0.980 . S
C324 C325 1.349 . S
C324 C329 1.367 . S
C324 O371 1.408 . S
C325 C324 1.349 . S
C325 C326 1.407 . S
C325 H388 0.930 . S
C326 C325 1.407 . S
C326 C327 1.449 . S
C326 C330 1.535 . S
C327 C326 1.449 . S
C327 C328 1.384 . S
C327 C352 1.553 . S
C328 C327 1.384 . S
C328 C329 1.364 . S
C328 C331 1.450 . S
C329 C324 1.367 . S
C329 C328 1.364 . S
C329 H389 0.931 . S
C330 C326 1.535 . S
C330 H390 0.959 . S
C330 H391 0.961 . S
C330 H392 0.959 . S
C331 C328 1.450 . S
C331 H393 0.960 . S
C331 H394 0.960 . S
C331 H395 0.960 . S
C332 C333 1.309 . S
C332 C337 1.304 . S
C332 O370 1.435 . S
C333 C332 1.309 . S
C333 C334 1.476 . S
C333 H397 0.930 . S
C334 C333 1.476 . S
C334 C335 1.400 . S
C334 C338 1.567 . S
C335 C334 1.400 . S
C335 C336 1.373 . S
C335 C357 1.432 . S
C336 C335 1.373 . S
C336 C337 1.339 . S
C336 C339 1.530 . S
C337 C332 1.304 . S
C337 C336 1.339 . S
C337 H398 0.930 . S
C338 C334 1.567 . S
C338 H399 0.961 . S
C338 H400 0.960 . S
C338 H401 0.958 . S
C339 C336 1.530 . S
C339 H402 0.961 . S
C339 H403 0.960 . S
C339 H404 0.960 . S
C340 C341 1.530 . S
C340 H406 0.961 . S
C340 H407 0.961 . S
C340 H408 0.959 . S
C341 C340 1.530 . S
C341 O369 1.412 . S
C341 H405 0.980 . S
C342 C343 1.288 . S
C342 C347 1.377 . S
C342 O369 1.393 . S
C343 C342 1.288 . S
C343 C344 1.369 . S
C343 H409 0.932 . S
C344 C343 1.369 . S
C344 C345 1.398 . S
C344 C348 1.527 . S
C345 C344 1.398 . S
C345 C346 1.380 . S
C345 C359 1.497 . S
C346 C345 1.380 . S
C346 C347 1.383 . S
C346 C349 1.603 . S
C347 C342 1.377 . S
C347 C346 1.383 . S
C347 H410 0.929 . S
C348 C344 1.527 . S
C348 H411 0.961 . S
C348 H412 0.959 . S
C348 H413 0.959 . S
C349 C346 1.603 . S
C349 H414 0.960 . S
C349 H415 0.962 . S
C349 H416 0.961 . S
C350 C317 1.587 . S
C350 C351 1.360 . S
C350 C363 1.412 . S
C351 C350 1.360 . S
C351 C352 1.365 . S
C351 H417 0.929 . S
C352 C327 1.553 . S
C352 C351 1.365 . S
C352 C353 1.404 . S
C353 C352 1.404 . S
C353 C354 1.395 . S
C353 C364 1.451 . S
C354 C353 1.395 . S
C354 C355 1.322 . S
C354 H418 0.930 . S
C355 C354 1.322 . S
C355 C356 1.459 . S
C355 H419 0.929 . S
C356 C355 1.459 . S
C356 C357 1.445 . S
C356 C365 1.395 . S
C357 C335 1.432 . S
C357 C356 1.445 . S
C357 C358 1.370 . S
C358 C357 1.370 . S
C358 C359 1.438 . S
C358 H420 0.930 . S
C359 C345 1.497 . S
C359 C358 1.438 . S
C359 C360 1.360 . S
C360 C359 1.360 . S
C360 C361 1.401 . S
C360 C365 1.446 . S
C361 C360 1.401 . S
C361 C362 1.347 . S
C361 H421 0.929 . S
C362 C361 1.347 . S
C362 C363 1.455 . S
C362 H422 0.930 . S
C363 C350 1.412 . S
C363 C362 1.455 . S
C363 C364 1.331 . S
C364 C353 1.451 . S
C364 C363 1.331 . S
C364 C365 1.497 . S
C365 C356 1.395 . S
C365 C360 1.446 . S
C365 C364 1.497 . S
C366 C367 1.582 . S
C366 H423 0.962 . S
C366 H424 0.959 . S
C366 H425 0.958 . S
C367 C366 1.582 . S
C367 O370 1.458 . S
C367 H396 0.980 . S
O368 C313 1.426 . S
O368 C314 1.334 . S
O369 C341 1.412 . S
O369 C342 1.393 . S
O370 C332 1.435 . S
O370 C367 1.458 . S
O371 C323 1.468 . S
O371 C324 1.408 . S
H372 C313 0.980 . S
H373 C312 0.959 . S
H374 C312 0.959 . S
H375 C312 0.960 . S
H376 C315 0.929 . S
H377 C319 0.929 . S
H378 C320 0.959 . S
H379 C320 0.961 . S
H380 C320 0.961 . S
H381 C321 0.960 . S
H382 C321 0.960 . S
H383 C321 0.961 . S
H384 C323 0.980 . S
H385 C322 0.961 . S
H386 C322 0.960 . S
H387 C322 0.959 . S
H388 C325 0.930 . S
H389 C329 0.931 . S
H390 C330 0.959 . S
H391 C330 0.961 . S
H392 C330 0.959 . S
H393 C331 0.960 . S
H394 C331 0.960 . S
H395 C331 0.960 . S
H396 C367 0.980 . S
H397 C333 0.930 . S
H398 C337 0.930 . S
H399 C338 0.961 . S
H400 C338 0.960 . S
H401 C338 0.958 . S
H402 C339 0.961 . S
H403 C339 0.960 . S
H404 C339 0.960 . S
H405 C341 0.980 . S
H406 C340 0.961 . S
H407 C340 0.961 . S
H408 C340 0.959 . S
H409 C343 0.932 . S
H410 C347 0.929 . S
H411 C348 0.961 . S
H412 C348 0.959 . S
H413 C348 0.959 . S
H414 C349 0.960 . S
H415 C349 0.962 . S
H416 C349 0.961 . S
H417 C351 0.929 . S
H418 C354 0.930 . S
H419 C355 0.929 . S
H420 C358 0.930 . S
H421 C361 0.929 . S
H422 C362 0.930 . S
H423 C366 0.962 . S
H424 C366 0.959 . S
H425 C366 0.958 . S
C426 C427 1.560 . S
C426 H487 0.959 . S
C426 H488 0.959 . S
C426 H489 0.960 . S
C427 C426 1.560 . S
C427 O482 1.426 . S
C427 H486 0.980 . S
C428 C429 1.407 . S
C428 C433 1.418 . S
C428 O482 1.334 . S
C429 C428 1.407 . S
C429 C430 1.360 . S
C429 H490 0.929 . S
C430 C429 1.360 . S
C430 C431 1.401 . S
C430 C434 1.527 . S
C431 C430 1.401 . S
C431 C432 1.405 . S
C431 C464 1.587 . S
C432 C431 1.405 . S
C432 C433 1.332 . S
C432 C435 1.496 . S
C433 C428 1.418 . S
C433 C432 1.332 . S
C433 H491 0.929 . S
C434 C430 1.527 . S
C434 H492 0.959 . S
C434 H493 0.961 . S
C434 H494 0.961 . S
C435 C432 1.496 . S
C435 H495 0.960 . S
C435 H496 0.960 . S
C435 H497 0.961 . S
C436 C437 1.517 1_455 S
C436 H499 0.961 . S
C436 H500 0.960 . S
C436 H501 0.959 . S
C437 C436 1.517 1_655 S
C437 O485 1.468 . S
C437 H498 0.980 . S
C438 C439 1.349 . S
C438 C443 1.367 . S
C438 O485 1.408 . S
C439 C438 1.349 . S
C439 C440 1.407 . S
C439 H502 0.930 . S
C440 C439 1.407 . S
C440 C441 1.449 . S
C440 C444 1.535 . S
C441 C440 1.449 . S
C441 C442 1.384 . S
C441 C466 1.553 . S
C442 C441 1.384 . S
C442 C443 1.364 . S
C442 C445 1.450 . S
C443 C438 1.367 . S
C443 C442 1.364 . S
C443 H503 0.931 . S
C444 C440 1.535 . S
C444 H504 0.959 . S
C444 H505 0.961 . S
C444 H506 0.959 . S
C445 C442 1.450 . S
C445 H507 0.960 . S
C445 H508 0.960 . S
C445 H509 0.960 . S
C446 C447 1.309 . S
C446 C451 1.304 . S
C446 O484 1.435 . S
C447 C446 1.309 . S
C447 C448 1.476 . S
C447 H511 0.930 . S
C448 C447 1.476 . S
C448 C449 1.400 . S
C448 C452 1.567 . S
C449 C448 1.400 . S
C449 C450 1.373 . S
C449 C471 1.432 . S
C450 C449 1.373 . S
C450 C451 1.339 . S
C450 C453 1.530 . S
C451 C446 1.304 . S
C451 C450 1.339 . S
C451 H512 0.930 . S
C452 C448 1.567 . S
C452 H513 0.961 . S
C452 H514 0.960 . S
C452 H515 0.958 . S
C453 C450 1.530 . S
C453 H516 0.961 . S
C453 H517 0.960 . S
C453 H518 0.960 . S
C454 C455 1.530 . S
C454 H520 0.961 . S
C454 H521 0.961 . S
C454 H522 0.959 . S
C455 C454 1.530 . S
C455 O483 1.412 . S
C455 H519 0.980 . S
C456 C457 1.288 . S
C456 C461 1.377 . S
C456 O483 1.393 . S
C457 C456 1.288 . S
C457 C458 1.369 . S
C457 H523 0.932 . S
C458 C457 1.369 . S
C458 C459 1.398 . S
C458 C462 1.527 . S
C459 C458 1.398 . S
C459 C460 1.380 . S
C459 C473 1.497 . S
C460 C459 1.380 . S
C460 C461 1.383 . S
C460 C463 1.603 . S
C461 C456 1.377 . S
C461 C460 1.383 . S
C461 H524 0.929 . S
C462 C458 1.527 . S
C462 H525 0.961 . S
C462 H526 0.959 . S
C462 H527 0.959 . S
C463 C460 1.603 . S
C463 H528 0.960 . S
C463 H529 0.962 . S
C463 H530 0.961 . S
C464 C431 1.587 . S
C464 C465 1.360 . S
C464 C477 1.412 . S
C465 C464 1.360 . S
C465 C466 1.365 . S
C465 H531 0.929 . S
C466 C441 1.553 . S
C466 C465 1.365 . S
C466 C467 1.404 . S
C467 C466 1.404 . S
C467 C468 1.395 . S
C467 C478 1.451 . S
C468 C467 1.395 . S
C468 C469 1.322 . S
C468 H532 0.930 . S
C469 C468 1.322 . S
C469 C470 1.459 . S
C469 H533 0.929 . S
C470 C469 1.459 . S
C470 C471 1.445 . S
C470 C479 1.395 . S
C471 C449 1.432 . S
C471 C470 1.445 . S
C471 C472 1.370 . S
C472 C471 1.370 . S
C472 C473 1.438 . S
C472 H534 0.930 . S
C473 C459 1.497 . S
C473 C472 1.438 . S
C473 C474 1.360 . S
C474 C473 1.360 . S
C474 C475 1.401 . S
C474 C479 1.446 . S
C475 C474 1.401 . S
C475 C476 1.347 . S
C475 H535 0.929 . S
C476 C475 1.347 . S
C476 C477 1.455 . S
C476 H536 0.930 . S
C477 C464 1.412 . S
C477 C476 1.455 . S
C477 C478 1.331 . S
C478 C467 1.451 . S
C478 C477 1.331 . S
C478 C479 1.497 . S
C479 C470 1.395 . S
C479 C474 1.446 . S
C479 C478 1.497 . S
C480 C481 1.582 1_455 S
C480 H537 0.962 . S
C480 H538 0.959 . S
C480 H539 0.958 . S
C481 C480 1.582 1_655 S
C481 O484 1.458 . S
C481 H510 0.980 . S
O482 C427 1.426 . S
O482 C428 1.334 . S
O483 C455 1.412 . S
O483 C456 1.393 . S
O484 C446 1.435 . S
O484 C481 1.458 . S
O485 C437 1.468 . S
O485 C438 1.408 . S
H486 C427 0.980 . S
H487 C426 0.959 . S
H488 C426 0.959 . S
H489 C426 0.960 . S
H490 C429 0.929 . S
H491 C433 0.929 . S
H492 C434 0.959 . S
H493 C434 0.961 . S
H494 C434 0.961 . S
H495 C435 0.960 . S
H496 C435 0.960 . S
H497 C435 0.961 . S
H498 C437 0.980 . S
H499 C436 0.961 . S
H500 C436 0.960 . S
H501 C436 0.959 . S
H502 C439 0.930 . S
H503 C443 0.931 . S
H504 C444 0.959 . S
H505 C444 0.961 . S
H506 C444 0.959 . S
H507 C445 0.960 . S
H508 C445 0.960 . S
H509 C445 0.960 . S
H510 C481 0.980 . S
H511 C447 0.930 . S
H512 C451 0.930 . S
H513 C452 0.961 . S
H514 C452 0.960 . S
H515 C452 0.958 . S
H516 C453 0.961 . S
H517 C453 0.960 . S
H518 C453 0.960 . S
H519 C455 0.980 . S
H520 C454 0.961 . S
H521 C454 0.961 . S
H522 C454 0.959 . S
H523 C457 0.932 . S
H524 C461 0.929 . S
H525 C462 0.961 . S
H526 C462 0.959 . S
H527 C462 0.959 . S
H528 C463 0.960 . S
H529 C463 0.962 . S
H530 C463 0.961 . S
H531 C465 0.929 . S
H532 C468 0.930 . S
H533 C469 0.929 . S
H534 C472 0.930 . S
H535 C475 0.929 . S
H536 C476 0.930 . S
H537 C480 0.962 . S
H538 C480 0.959 . S
H539 C480 0.958 . S
C540 C541 1.560 . S
C540 H601 0.959 . S
C540 H602 0.959 . S
C540 H603 0.960 . S
C541 C540 1.560 . S
C541 O596 1.426 . S
C541 H600 0.980 . S
C542 C543 1.407 . S
C542 C547 1.418 . S
C542 O596 1.334 . S
C543 C542 1.407 . S
C543 C544 1.360 . S
C543 H604 0.929 . S
C544 C543 1.360 . S
C544 C545 1.401 . S
C544 C548 1.527 . S
C545 C544 1.401 . S
C545 C546 1.405 . S
C545 C578 1.587 . S
C546 C545 1.405 . S
C546 C547 1.332 . S
C546 C549 1.496 . S
C547 C542 1.418 . S
C547 C546 1.332 . S
C547 H605 0.929 . S
C548 C544 1.527 . S
C548 H606 0.959 . S
C548 H607 0.961 . S
C548 H608 0.961 . S
C549 C546 1.496 . S
C549 H609 0.960 . S
C549 H610 0.960 . S
C549 H611 0.961 . S
C550 C551 1.517 . S
C550 H613 0.961 . S
C550 H614 0.960 . S
C550 H615 0.959 1_565 S
C551 C550 1.517 . S
C551 O599 1.468 . S
C551 H612 0.980 . S
C552 C553 1.349 . S
C552 C557 1.367 . S
C552 O599 1.408 . S
C553 C552 1.349 . S
C553 C554 1.407 . S
C553 H616 0.930 . S
C554 C553 1.407 . S
C554 C555 1.449 . S
C554 C558 1.535 . S
C555 C554 1.449 . S
C555 C556 1.384 . S
C555 C580 1.553 . S
C556 C555 1.384 . S
C556 C557 1.364 . S
C556 C559 1.450 . S
C557 C552 1.367 . S
C557 C556 1.364 . S
C557 H617 0.931 . S
C558 C554 1.535 . S
C558 H618 0.959 . S
C558 H619 0.961 . S
C558 H620 0.959 . S
C559 C556 1.450 . S
C559 H621 0.960 . S
C559 H622 0.960 . S
C559 H623 0.960 . S
C560 C561 1.309 . S
C560 C565 1.304 . S
C560 O598 1.435 . S
C561 C560 1.309 . S
C561 C562 1.476 . S
C561 H625 0.930 . S
C562 C561 1.476 . S
C562 C563 1.400 . S
C562 C566 1.567 . S
C563 C562 1.400 . S
C563 C564 1.373 . S
C563 C585 1.432 . S
C564 C563 1.373 . S
C564 C565 1.339 . S
C564 C567 1.530 . S
C565 C560 1.304 . S
C565 C564 1.339 . S
C565 H626 0.930 . S
C566 C562 1.567 . S
C566 H627 0.961 . S
C566 H628 0.960 . S
C566 H629 0.958 . S
C567 C564 1.530 . S
C567 H630 0.961 . S
C567 H631 0.960 . S
C567 H632 0.960 . S
C568 C569 1.530 . S
C568 H634 0.961 . S
C568 H635 0.961 . S
C568 H636 0.959 . S
C569 C568 1.530 . S
C569 O597 1.412 . S
C569 H633 0.980 . S
C570 C571 1.288 . S
C570 C575 1.377 . S
C570 O597 1.393 . S
C571 C570 1.288 . S
C571 C572 1.369 . S
C571 H637 0.932 . S
C572 C571 1.369 . S
C572 C573 1.398 . S
C572 C576 1.527 . S
C573 C572 1.398 . S
C573 C574 1.380 . S
C573 C587 1.497 . S
C574 C573 1.380 . S
C574 C575 1.383 . S
C574 C577 1.603 . S
C575 C570 1.377 . S
C575 C574 1.383 . S
C575 H638 0.929 . S
C576 C572 1.527 . S
C576 H639 0.961 . S
C576 H640 0.959 . S
C576 H641 0.959 . S
C577 C574 1.603 . S
C577 H642 0.960 . S
C577 H643 0.962 . S
C577 H644 0.961 . S
C578 C545 1.587 . S
C578 C579 1.360 . S
C578 C591 1.412 . S
C579 C578 1.360 . S
C579 C580 1.365 . S
C579 H645 0.929 . S
C580 C555 1.553 . S
C580 C579 1.365 . S
C580 C581 1.404 . S
C581 C580 1.404 . S
C581 C582 1.395 . S
C581 C592 1.451 . S
C582 C581 1.395 . S
C582 C583 1.322 . S
C582 H646 0.930 . S
C583 C582 1.322 . S
C583 C584 1.459 . S
C583 H647 0.929 . S
C584 C583 1.459 . S
C584 C585 1.445 . S
C584 C593 1.395 . S
C585 C563 1.432 . S
C585 C584 1.445 . S
C585 C586 1.370 . S
C586 C585 1.370 . S
C586 C587 1.438 . S
C586 H648 0.930 . S
C587 C573 1.497 . S
C587 C586 1.438 . S
C587 C588 1.360 . S
C588 C587 1.360 . S
C588 C589 1.401 . S
C588 C593 1.446 . S
C589 C588 1.401 . S
C589 C590 1.347 . S
C589 H649 0.929 . S
C590 C589 1.347 . S
C590 C591 1.455 . S
C590 H650 0.930 . S
C591 C578 1.412 . S
C591 C590 1.455 . S
C591 C592 1.331 . S
C592 C581 1.451 . S
C592 C591 1.331 . S
C592 C593 1.497 . S
C593 C584 1.395 . S
C593 C588 1.446 . S
C593 C592 1.497 . S
C594 C595 1.582 . S
C594 H651 0.962 . S
C594 H652 0.959 1_565 S
C594 H653 0.966 . S
C595 C594 1.582 . S
C595 O598 1.458 . S
C595 H624 0.980 . S
O596 C541 1.426 . S
O596 C542 1.334 . S
O597 C569 1.412 . S
O597 C570 1.393 . S
O598 C560 1.435 . S
O598 C595 1.458 . S
O599 C551 1.468 . S
O599 C552 1.408 . S
H600 C541 0.980 . S
H601 C540 0.959 . S
H602 C540 0.959 . S
H603 C540 0.960 . S
H604 C543 0.929 . S
H605 C547 0.929 . S
H606 C548 0.959 . S
H607 C548 0.961 . S
H608 C548 0.961 . S
H609 C549 0.960 . S
H610 C549 0.960 . S
H611 C549 0.961 . S
H612 C551 0.980 . S
H613 C550 0.961 . S
H614 C550 0.960 . S
H615 C550 0.959 1_545 S
H616 C553 0.930 . S
H617 C557 0.931 . S
H618 C558 0.959 . S
H619 C558 0.961 . S
H620 C558 0.959 . S
H621 C559 0.960 . S
H622 C559 0.960 . S
H623 C559 0.960 . S
H624 C595 0.980 . S
H625 C561 0.930 . S
H626 C565 0.930 . S
H627 C566 0.961 . S
H628 C566 0.960 . S
H629 C566 0.958 . S
H630 C567 0.961 . S
H631 C567 0.960 . S
H632 C567 0.960 . S
H633 C569 0.980 . S
H634 C568 0.961 . S
H635 C568 0.961 . S
H636 C568 0.959 . S
H637 C571 0.932 . S
H638 C575 0.929 . S
H639 C576 0.961 . S
H640 C576 0.959 . S
H641 C576 0.959 . S
H642 C577 0.960 . S
H643 C577 0.962 . S
H644 C577 0.961 . S
H645 C579 0.929 . S
H646 C582 0.930 . S
H647 C583 0.929 . S
H648 C586 0.930 . S
H649 C589 0.929 . S
H650 C590 0.930 . S
H651 C594 0.962 . S
H652 C594 0.959 1_545 S
H653 C594 0.966 . S
C654 C655 1.560 . S
C654 H715 0.959 . S
C654 H716 0.959 . S
C654 H717 0.960 . S
C655 C654 1.560 . S
C655 O710 1.426 . S
C655 H714 0.980 . S
C656 C657 1.407 . S
C656 C661 1.418 . S
C656 O710 1.334 . S
C657 C656 1.407 . S
C657 C658 1.360 . S
C657 H718 0.929 . S
C658 C657 1.360 . S
C658 C659 1.401 . S
C658 C662 1.527 . S
C659 C658 1.401 . S
C659 C660 1.405 . S
C659 C692 1.587 . S
C660 C659 1.405 . S
C660 C661 1.332 . S
C660 C663 1.496 . S
C661 C656 1.418 . S
C661 C660 1.332 . S
C661 H719 0.929 . S
C662 C658 1.527 . S
C662 H720 0.959 . S
C662 H721 0.961 . S
C662 H722 0.961 . S
C663 C660 1.496 . S
C663 H723 0.960 . S
C663 H724 0.960 . S
C663 H725 0.961 . S
C664 C665 1.517 . S
C664 H727 0.961 . S
C664 H728 0.960 . S
C664 H729 0.959 . S
C665 C664 1.517 . S
C665 O713 1.468 . S
C665 H726 0.980 . S
C666 C667 1.349 . S
C666 C671 1.367 . S
C666 O713 1.408 . S
C667 C666 1.349 . S
C667 C668 1.407 . S
C667 H730 0.930 . S
C668 C667 1.407 . S
C668 C669 1.449 . S
C668 C672 1.535 . S
C669 C668 1.449 . S
C669 C670 1.384 . S
C669 C694 1.553 . S
C670 C669 1.384 . S
C670 C671 1.364 . S
C670 C673 1.450 . S
C671 C666 1.367 . S
C671 C670 1.364 . S
C671 H731 0.931 . S
C672 C668 1.535 . S
C672 H732 0.959 . S
C672 H733 0.961 . S
C672 H734 0.959 . S
C673 C670 1.450 . S
C673 H735 0.960 . S
C673 H736 0.960 . S
C673 H737 0.960 . S
C674 C675 1.309 . S
C674 C679 1.304 . S
C674 O712 1.435 . S
C675 C674 1.309 . S
C675 C676 1.476 . S
C675 H739 0.930 . S
C676 C675 1.476 . S
C676 C677 1.400 . S
C676 C680 1.567 . S
C677 C676 1.400 . S
C677 C678 1.373 . S
C677 C699 1.432 . S
C678 C677 1.373 . S
C678 C679 1.339 . S
C678 C681 1.530 . S
C679 C674 1.304 . S
C679 C678 1.339 . S
C679 H740 0.930 . S
C680 C676 1.567 . S
C680 H741 0.961 . S
C680 H742 0.960 . S
C680 H743 0.958 . S
C681 C678 1.530 . S
C681 H744 0.961 . S
C681 H745 0.960 . S
C681 H746 0.960 . S
C682 C683 1.530 . S
C682 H748 0.961 . S
C682 H749 0.961 . S
C682 H750 0.959 . S
C683 C682 1.530 . S
C683 O711 1.412 . S
C683 H747 0.980 . S
C684 C685 1.288 . S
C684 C689 1.377 . S
C684 O711 1.393 . S
C685 C684 1.288 . S
C685 C686 1.369 . S
C685 H751 0.932 . S
C686 C685 1.369 . S
C686 C687 1.398 . S
C686 C690 1.527 . S
C687 C686 1.398 . S
C687 C688 1.380 . S
C687 C701 1.497 . S
C688 C687 1.380 . S
C688 C689 1.383 . S
C688 C691 1.603 . S
C689 C684 1.377 . S
C689 C688 1.383 . S
C689 H752 0.929 . S
C690 C686 1.527 . S
C690 H753 0.961 . S
C690 H754 0.959 . S
C690 H755 0.959 . S
C691 C688 1.603 . S
C691 H756 0.960 . S
C691 H757 0.962 . S
C691 H758 0.961 . S
C692 C659 1.587 . S
C692 C693 1.360 . S
C692 C705 1.412 . S
C693 C692 1.360 . S
C693 C694 1.365 . S
C693 H759 0.929 . S
C694 C669 1.553 . S
C694 C693 1.365 . S
C694 C695 1.404 . S
C695 C694 1.404 . S
C695 C696 1.395 . S
C695 C706 1.451 . S
C696 C695 1.395 . S
C696 C697 1.322 . S
C696 H760 0.930 . S
C697 C696 1.322 . S
C697 C698 1.459 . S
C697 H761 0.929 . S
C698 C697 1.459 . S
C698 C699 1.445 . S
C698 C707 1.395 . S
C699 C677 1.432 . S
C699 C698 1.445 . S
C699 C700 1.370 . S
C700 C699 1.370 . S
C700 C701 1.438 . S
C700 H762 0.930 . S
C701 C687 1.497 . S
C701 C700 1.438 . S
C701 C702 1.360 . S
C702 C701 1.360 . S
C702 C703 1.401 . S
C702 C707 1.446 . S
C703 C702 1.401 . S
C703 C704 1.347 . S
C703 H763 0.929 . S
C704 C703 1.347 . S
C704 C705 1.455 . S
C704 H764 0.930 . S
C705 C692 1.412 . S
C705 C704 1.455 . S
C705 C706 1.331 . S
C706 C695 1.451 . S
C706 C705 1.331 . S
C706 C707 1.497 . S
C707 C698 1.395 . S
C707 C702 1.446 . S
C707 C706 1.497 . S
C708 C709 1.582 . S
C708 H765 0.962 . S
C708 H766 0.959 . S
C708 H767 0.958 . S
C709 C708 1.582 . S
C709 O712 1.458 . S
C709 H738 0.980 . S
O710 C655 1.426 . S
O710 C656 1.334 . S
O711 C683 1.412 . S
O711 C684 1.393 . S
O712 C674 1.435 . S
O712 C709 1.458 . S
O713 C665 1.468 . S
O713 C666 1.408 . S
H714 C655 0.980 . S
H715 C654 0.959 . S
H716 C654 0.959 . S
H717 C654 0.960 . S
H718 C657 0.929 . S
H719 C661 0.929 . S
H720 C662 0.959 . S
H721 C662 0.961 . S
H722 C662 0.961 . S
H723 C663 0.960 . S
H724 C663 0.960 . S
H725 C663 0.961 . S
H726 C665 0.980 . S
H727 C664 0.961 . S
H728 C664 0.960 . S
H729 C664 0.959 . S
H730 C667 0.930 . S
H731 C671 0.931 . S
H732 C672 0.959 . S
H733 C672 0.961 . S
H734 C672 0.959 . S
H735 C673 0.960 . S
H736 C673 0.960 . S
H737 C673 0.960 . S
H738 C709 0.980 . S
H739 C675 0.930 . S
H740 C679 0.930 . S
H741 C680 0.961 . S
H742 C680 0.960 . S
H743 C680 0.958 . S
H744 C681 0.961 . S
H745 C681 0.960 . S
H746 C681 0.960 . S
H747 C683 0.980 . S
H748 C682 0.961 . S
H749 C682 0.961 . S
H750 C682 0.959 . S
H751 C685 0.932 . S
H752 C689 0.929 . S
H753 C690 0.961 . S
H754 C690 0.959 . S
H755 C690 0.959 . S
H756 C691 0.960 . S
H757 C691 0.962 . S
H758 C691 0.961 . S
H759 C693 0.929 . S
H760 C696 0.930 . S
H761 C697 0.929 . S
H762 C700 0.930 . S
H763 C703 0.929 . S
H764 C704 0.930 . S
H765 C708 0.962 . S
H766 C708 0.959 . S
H767 C708 0.958 . S
C768 C769 1.387 . S
C768 H772 0.950 . S
C768 C777 1.390 . S
C769 C768 1.387 . S
C769 C771 1.387 . S
H770 C777 0.950 . S
C771 C769 1.387 . S
C771 C773 1.390 . S
C771 H775 0.950 . S
H772 C768 0.950 . S
C773 C771 1.390 . S
C773 C774 1.387 . S
C773 H776 0.950 . S
C774 C773 1.387 . S
C774 C777 1.387 . S
H775 C771 0.950 . S
H776 C773 0.950 . S
C777 C768 1.390 . S
C777 H770 0.950 . S
C777 C774 1.387 . S
C778 C779 1.387 . S
C778 H782 0.950 1_545 S
C778 C787 1.390 . S
C779 C778 1.387 . S
C779 C781 1.387 . S
H780 C787 0.950 . S
C781 C779 1.387 . S
C781 C783 1.390 . S
C781 H785 0.950 . S
H782 C778 0.950 1_565 S
C783 C781 1.390 . S
C783 C784 1.387 . S
C783 H786 0.950 . S
C784 C783 1.387 . S
C784 C787 1.387 . S
H785 C781 0.950 . S
H786 C783 0.950 . S
C787 C778 1.390 . S
C787 H780 0.950 . S
C787 C784 1.387 . S
C788 C789 1.387 . S
C788 H792 0.950 . S
C788 C797 1.390 . S
C789 C788 1.387 . S
C789 C791 1.387 . S
H790 C797 0.950 . S
C791 C789 1.387 . S
C791 C793 1.390 . S
C791 H795 0.950 . S
H792 C788 0.950 . S
C793 C791 1.390 . S
C793 C794 1.387 . S
C793 H796 0.950 . S
C794 C793 1.387 . S
C794 C797 1.387 . S
H795 C791 0.950 . S
H796 C793 0.950 . S
C797 C788 1.390 . S
C797 H790 0.950 . S
C797 C794 1.387 . S
C798 C799 1.387 . S
C798 H802 0.950 . S
C798 C807 1.390 . S
C799 C798 1.387 . S
C799 C801 1.387 . S
H800 C807 0.950 . S
C801 C799 1.387 . S
C801 C803 1.390 . S
C801 H805 0.950 . S
H802 C798 0.950 . S
C803 C801 1.390 . S
C803 C804 1.387 . S
C803 H806 0.950 . S
C804 C803 1.387 . S
C804 C807 1.387 . S
H805 C801 0.950 . S
H806 C803 0.950 . S
C807 C798 1.390 . S
C807 H800 0.950 . S
C807 C804 1.387 . S
C808 C809 1.387 . S
C808 H812 0.950 1_565 S
C808 C817 1.390 . S
C809 C808 1.387 . S
C809 C811 1.387 . S
H810 C817 0.950 1_545 S
C811 C809 1.387 . S
C811 C813 1.390 . S
C811 H815 0.950 . S
H812 C808 0.950 1_545 S
C813 C811 1.390 . S
C813 C814 1.387 . S
C813 H816 0.950 . S
C814 C813 1.387 . S
C814 C817 1.387 . S
H815 C811 0.950 . S
H816 C813 0.950 . S
C817 C808 1.390 . S
C817 H810 0.950 1_565 S
C817 C814 1.387 . S
C818 C819 1.387 . S
C818 H822 0.950 . S
C818 C827 1.390 . S
C819 C818 1.387 . S
C819 C821 1.387 . S
H820 C827 0.950 . S
C821 C819 1.387 . S
C821 C823 1.390 . S
C821 H825 0.950 . S
H822 C818 0.950 . S
C823 C821 1.390 . S
C823 C824 1.387 . S
C823 H826 0.950 . S
C824 C823 1.387 . S
C824 C827 1.387 . S
H825 C821 0.950 . S
H826 C823 0.950 . S
C827 C818 1.390 . S
C827 H820 0.950 . S
C827 C824 1.387 . S
C828 C829 1.387 . S
C828 H832 0.950 1_565 S
C828 C837 1.390 . S
C829 C828 1.387 . S
C829 C831 1.387 . S
H830 C837 0.950 1_545 S
C831 C829 1.387 . S
C831 C833 1.390 . S
C831 H835 0.950 . S
H832 C828 0.950 1_545 S
C833 C831 1.390 . S
C833 C834 1.387 . S
C833 H836 0.950 . S
C834 C833 1.387 . S
C834 C837 1.387 . S
H835 C831 0.950 . S
H836 C833 0.950 . S
C837 C828 1.390 . S
C837 H830 0.950 1_565 S
C837 C834 1.387 . S
C838 C839 1.387 . S
C838 H842 0.925 1_556 S
C838 C847 1.390 . S
C839 C838 1.387 . S
C839 C841 1.387 . S
H840 C847 0.950 . S
C841 C839 1.387 . S
C841 C843 1.390 . S
C841 H845 0.950 . S
H842 C838 0.925 1_554 S
C843 C841 1.390 . S
C843 C844 1.387 . S
C843 H846 0.950 . S
C844 C843 1.387 . S
C844 C847 1.387 . S
H845 C841 0.950 . S
H846 C843 0.950 . S
C847 C838 1.390 . S
C847 H840 0.950 . S
C847 C844 1.387 . S
C848 C849 1.387 . S
C848 H852 0.950 . S
C848 C857 1.390 . S
C849 C848 1.387 . S
C849 C851 1.387 . S
H850 C857 0.950 . S
C851 C849 1.387 . S
C851 C853 1.390 . S
C851 H855 0.950 . S
H852 C848 0.950 . S
C853 C851 1.390 . S
C853 C854 1.387 . S
C853 H856 0.950 . S
C854 C853 1.387 . S
C854 C857 1.387 . S
H855 C851 0.950 . S
H856 C853 0.950 . S
C857 C848 1.390 . S
C857 H850 0.950 . S
C857 C854 1.387 . S
C858 C859 1.387 . S
C858 H862 0.950 . S
C858 C867 1.390 . S
C859 C858 1.387 . S
C859 C861 1.387 . S
H860 C867 0.950 . S
C861 C859 1.387 . S
C861 C863 1.390 . S
C861 H865 0.950 . S
H862 C858 0.950 . S
C863 C861 1.390 . S
C863 C864 1.387 . S
C863 H866 0.950 . S
C864 C863 1.387 . S
C864 C867 1.387 . S
H865 C861 0.950 . S
H866 C863 0.950 . S
C867 C858 1.390 . S
C867 H860 0.950 . S
C867 C864 1.387 . S
C868 C869 1.387 . S
C868 H872 0.950 . S
C868 C877 1.390 . S
C869 C868 1.387 . S
C869 C871 1.387 . S
H870 C877 0.950 . S
C871 C869 1.387 . S
C871 C873 1.390 . S
C871 H875 0.950 . S
H872 C868 0.950 . S
C873 C871 1.390 . S
C873 C874 1.387 . S
C873 H876 0.950 . S
C874 C873 1.387 . S
C874 C877 1.387 . S
H875 C871 0.950 . S
H876 C873 0.950 . S
C877 C868 1.390 . S
C877 H870 0.950 . S
C877 C874 1.387 . S
C878 C879 1.387 . S
C878 H882 0.950 . S
C878 C887 1.390 . S
C879 C878 1.387 . S
C879 C881 1.387 . S
H880 C887 0.950 . S
C881 C879 1.387 . S
C881 C883 1.390 . S
C881 H885 0.950 . S
H882 C878 0.950 . S
C883 C881 1.390 . S
C883 C884 1.387 . S
C883 H886 0.950 . S
C884 C883 1.387 . S
C884 C887 1.387 . S
H885 C881 0.950 . S
H886 C883 0.950 . S
C887 C878 1.390 . S
C887 H880 0.950 . S
C887 C884 1.387 . S
C888 C889 1.387 . S
C888 H892 0.949 . S
C888 C897 1.390 . S
C889 C888 1.387 . S
C889 C891 1.387 . S
H890 C897 0.950 . S
C891 C889 1.387 . S
C891 C893 1.390 . S
C891 H895 0.950 . S
H892 C888 0.949 . S
C893 C891 1.390 . S
C893 C894 1.387 . S
C893 H896 0.950 . S
C894 C893 1.387 . S
C894 C897 1.387 . S
H895 C891 0.950 . S
H896 C893 0.950 . S
C897 C888 1.390 . S
C897 H890 0.950 . S
C897 C894 1.387 . S
C898 C899 1.387 . S
C898 H902 0.950 . S
C898 C907 1.390 . S
C899 C898 1.387 . S
C899 C901 1.387 . S
H900 C907 0.950 . S
C901 C899 1.387 . S
C901 C903 1.390 . S
C901 H905 0.950 1_565 S
H902 C898 0.950 . S
C903 C901 1.390 . S
C903 C904 1.387 . S
C903 H906 0.950 1_565 S
C904 C903 1.387 . S
C904 C907 1.387 . S
H905 C901 0.950 1_545 S
H906 C903 0.950 1_545 S
C907 C898 1.390 . S
C907 H900 0.950 . S
C907 C904 1.387 . S
C908 C909 1.387 . S
C908 H912 0.950 . S
C908 C917 1.390 . S
C909 C908 1.387 . S
C909 C911 1.387 . S
H910 C917 0.950 . S
C911 C909 1.387 . S
C911 C913 1.390 . S
C911 H915 0.950 . S
H912 C908 0.950 . S
C913 C911 1.390 . S
C913 C914 1.387 . S
C913 H916 0.950 . S
C914 C913 1.387 . S
C914 C917 1.387 . S
H915 C911 0.950 . S
H916 C913 0.950 . S
C917 C908 1.390 . S
C917 H910 0.950 . S
C917 C914 1.387 . S
C918 C919 1.387 . S
C918 H922 0.950 . S
C918 C927 1.390 . S
C919 C918 1.387 . S
C919 C921 1.387 . S
H920 C927 0.950 . S
C921 C919 1.387 . S
C921 C923 1.390 . S
C921 H925 0.950 . S
H922 C918 0.950 . S
C923 C921 1.390 . S
C923 C924 1.387 . S
C923 H926 0.950 . S
C924 C923 1.387 . S
C924 C927 1.387 . S
H925 C921 0.950 . S
H926 C923 0.950 . S
C927 C918 1.390 . S
C927 H920 0.950 . S
C927 C924 1.387 . S
C928 C929 1.387 . S
C928 H932 0.950 1_545 S
C928 C937 1.390 . S
C929 C928 1.387 . S
C929 C931 1.387 . S
H930 C937 0.914 1_565 S
C931 C929 1.387 . S
C931 C933 1.390 . S
C931 H935 0.950 . S
H932 C928 0.950 1_565 S
C933 C931 1.390 . S
C933 C934 1.387 . S
C933 H936 0.950 . S
C934 C933 1.387 . S
C934 C937 1.387 . S
H935 C931 0.950 . S
H936 C933 0.950 . S
C937 C928 1.390 . S
C937 H930 0.914 1_545 S
C937 C934 1.387 . S
C938 C939 1.387 . S
C938 H942 0.950 . S
C938 C947 1.390 . S
C939 C938 1.387 . S
C939 C941 1.387 . S
H940 C947 0.950 . S
C941 C939 1.387 . S
C941 C943 1.390 . S
C941 H945 0.950 . S
H942 C938 0.950 . S
C943 C941 1.390 . S
C943 C944 1.387 . S
C943 H946 0.950 . S
C944 C943 1.387 . S
C944 C947 1.387 . S
H945 C941 0.950 . S
H946 C943 0.950 . S
C947 C938 1.390 . S
C947 H940 0.950 . S
C947 C944 1.387 . S
C948 C949 1.387 . S
C948 H952 0.950 . S
C948 C957 1.390 . S
C949 C948 1.387 . S
C949 C951 1.387 . S
H950 C957 0.950 . S
C951 C949 1.387 . S
C951 C953 1.390 . S
C951 H955 0.990 . S
H952 C948 0.950 . S
C953 C951 1.390 . S
C953 C954 1.387 . S
C953 H956 0.950 . S
C954 C953 1.387 . S
C954 C957 1.387 . S
H955 C951 0.990 . S
H956 C953 0.950 . S
C957 C948 1.390 . S
C957 H950 0.950 . S
C957 C954 1.387 . S
C958 C959 1.387 . S
C958 H962 0.950 . S
C958 C967 1.390 . S
C959 C958 1.387 . S
C959 C961 1.387 . S
H960 C967 0.950 . S
C961 C959 1.387 . S
C961 C963 1.390 . S
C961 H965 0.950 . S
H962 C958 0.950 . S
C963 C961 1.390 . S
C963 C964 1.387 . S
C963 H966 0.950 . S
C964 C963 1.387 . S
C964 C967 1.387 . S
H965 C961 0.950 . S
H966 C963 0.950 . S
C967 C958 1.390 . S
C967 H960 0.950 . S
C967 C964 1.387 . S
C968 C969 1.387 . S
C968 H972 0.950 . S
C968 C977 1.390 . S
C969 C968 1.387 . S
C969 C971 1.387 . S
H970 C977 0.950 . S
C971 C969 1.387 . S
C971 C973 1.390 . S
C971 H975 0.950 . S
H972 C968 0.950 . S
C973 C971 1.390 . S
C973 C974 1.387 . S
C973 H976 0.950 . S
C974 C973 1.387 . S
C974 C977 1.387 . S
H975 C971 0.950 . S
H976 C973 0.950 . S
C977 C968 1.390 . S
C977 H970 0.950 . S
C977 C974 1.387 . S
C978 C979 1.387 . S
C978 H982 0.950 . S
C978 C987 1.390 . S
C979 C978 1.387 . S
C979 C981 1.387 . S
H980 C987 0.950 . S
C981 C979 1.387 . S
C981 C983 1.390 . S
C981 H985 0.950 1_565 S
H982 C978 0.950 . S
C983 C981 1.390 . S
C983 C984 1.387 . S
C983 H986 0.950 1_565 S
C984 C983 1.387 . S
C984 C987 1.387 . S
H985 C981 0.950 1_545 S
H986 C983 0.950 1_545 S
C987 C978 1.390 . S
C987 H980 0.950 . S
C987 C984 1.387 . S
C988 C989 1.387 . S
C988 H992 0.950 . S
C988 C997 1.390 . S
C989 C988 1.387 . S
C989 C991 1.387 . S
H990 C997 0.950 . S
C991 C989 1.387 . S
C991 C993 1.390 . S
C991 H995 0.950 . S
H992 C988 0.950 . S
C993 C991 1.390 . S
C993 C994 1.387 . S
C993 H996 0.950 . S
C994 C993 1.387 . S
C994 C997 1.387 . S
H995 C991 0.950 . S
H996 C993 0.950 . S
C997 C988 1.390 . S
C997 H990 0.950 . S
C997 C994 1.387 . S
C998 C999 1.387 . S
C998 H1002 0.950 . S
C998 C1007 1.390 . S
C999 C998 1.387 . S
C999 C1001 1.387 . S
H1000 C1007 0.950 . S
C1001 C999 1.387 . S
C1001 C1003 1.390 . S
C1001 H1005 0.950 . S
H1002 C998 0.950 . S
C1003 C1001 1.390 . S
C1003 C1004 1.387 . S
C1003 H1006 0.950 . S
C1004 C1003 1.387 . S
C1004 C1007 1.387 . S
H1005 C1001 0.950 . S
H1006 C1003 0.950 . S
C1007 C998 1.390 . S
C1007 H1000 0.950 . S
C1007 C1004 1.387 . S
C769 C13 2.016 . S
C774 C113 1.935 . S
C779 C27 1.995 . S
C784 C253 1.873 . S
C794 C341 1.847 . S
C789 C29 1.977 . S
C804 C481 1.908 . S
C799 C54 2.022 . S
C814 C595 1.837 . S
C809 C69 1.986 . S
C824 C665 1.029 . S
C819 C83 2.002 . S
C829 C15 2.000 . S
C834 C323 1.047 . S
C839 C41 1.934 . S
C844 C427 1.361 . S
C854 C541 1.361 . S
C849 C42 1.938 . S
C864 C683 1.856 . S
C859 C57 1.967 . S
C869 C71 2.070 . S
C874 C95 1.108 . S
C884 C199 1.367 . S
C879 C1 1.893 1_655 S
C894 C437 1.819 . S
C889 C12 2.137 1_655 S
C899 C26 2.165 . S
C904 C551 1.865 . S
C914 C709 1.328 . S
C909 C28 2.217 . S
C919 C55 2.060 . S
C924 C85 1.937 . S
C929 C68 2.254 . S
C934 C209 1.907 . S
C939 C82 2.058 . S
C944 C313 1.941 . S
C949 C14 2.112 . S
C954 C655 1.968 . S
C964 C139 1.284 . S
C959 C40 2.147 . S
C969 C43 2.146 . S
C974 C227 1.396 . S
C979 C56 2.160 . S
C984 C367 1.251 . S
C989 C70 2.089 . S
C994 C455 1.371 . S
C999 C0 2.156 . S
C1004 C569 1.449 . S
