# Generated by pormake.
# Topology pyr, (3,6)-cn, num edge types: 1
# Building blocks:
#     Node 0, Type 0, BuildingBlock: BETDIP_clean_linker_0, # of connection points: 3
#     Node 1, Type 0, BuildingBlock: BETDIP_clean_linker_0, # of connection points: 3
#     Node 2, Type 0, BuildingBlock: BETDIP_clean_linker_0, # of connection points: 3
#     Node 3, Type 0, BuildingBlock: BETDIP_clean_linker_0, # of connection points: 3
#     Node 4, Type 0, BuildingBlock: BETDIP_clean_linker_0, # of connection points: 3
#     Node 5, Type 0, BuildingBlock: BETDIP_clean_linker_0, # of connection points: 3
#     Node 6, Type 0, BuildingBlock: BETDIP_clean_linker_0, # of connection points: 3
#     Node 7, Type 0, BuildingBlock: BETDIP_clean_linker_0, # of connection points: 3
#     Node 8, Type 1, BuildingBlock: BETFEN_clean_sbu_0, # of connection points: 6
#     Node 9, Type 1, BuildingBlock: BETFEN_clean_sbu_0, # of connection points: 6
#     Node 10, Type 1, BuildingBlock: BETFEN_clean_sbu_0, # of connection points: 6
#     Node 11, Type 1, BuildingBlock: BETFEN_clean_sbu_0, # of connection points: 6
#     Edge 12, Type (0, 1), BuildingBlock: XUDNAN_clean_linker_2, # of connection points: 2
#     Edge 13, Type (0, 1), BuildingBlock: XUDNAN_clean_linker_2, # of connection points: 2
#     Edge 14, Type (0, 1), BuildingBlock: XUDNAN_clean_linker_2, # of connection points: 2
#     Edge 15, Type (0, 1), BuildingBlock: XUDNAN_clean_linker_2, # of connection points: 2
#     Edge 16, Type (0, 1), BuildingBlock: XUDNAN_clean_linker_2, # of connection points: 2
#     Edge 17, Type (0, 1), BuildingBlock: XUDNAN_clean_linker_2, # of connection points: 2
#     Edge 18, Type (0, 1), BuildingBlock: XUDNAN_clean_linker_2, # of connection points: 2
#     Edge 19, Type (0, 1), BuildingBlock: XUDNAN_clean_linker_2, # of connection points: 2
#     Edge 20, Type (0, 1), BuildingBlock: XUDNAN_clean_linker_2, # of connection points: 2
#     Edge 21, Type (0, 1), BuildingBlock: XUDNAN_clean_linker_2, # of connection points: 2
#     Edge 22, Type (0, 1), BuildingBlock: XUDNAN_clean_linker_2, # of connection points: 2
#     Edge 23, Type (0, 1), BuildingBlock: XUDNAN_clean_linker_2, # of connection points: 2
#     Edge 24, Type (0, 1), BuildingBlock: XUDNAN_clean_linker_2, # of connection points: 2
#     Edge 25, Type (0, 1), BuildingBlock: XUDNAN_clean_linker_2, # of connection points: 2
#     Edge 26, Type (0, 1), BuildingBlock: XUDNAN_clean_linker_2, # of connection points: 2
#     Edge 27, Type (0, 1), BuildingBlock: XUDNAN_clean_linker_2, # of connection points: 2
#     Edge 28, Type (0, 1), BuildingBlock: XUDNAN_clean_linker_2, # of connection points: 2
#     Edge 29, Type (0, 1), BuildingBlock: XUDNAN_clean_linker_2, # of connection points: 2
#     Edge 30, Type (0, 1), BuildingBlock: XUDNAN_clean_linker_2, # of connection points: 2
#     Edge 31, Type (0, 1), BuildingBlock: XUDNAN_clean_linker_2, # of connection points: 2
#     Edge 32, Type (0, 1), BuildingBlock: XUDNAN_clean_linker_2, # of connection points: 2
#     Edge 33, Type (0, 1), BuildingBlock: XUDNAN_clean_linker_2, # of connection points: 2
#     Edge 34, Type (0, 1), BuildingBlock: XUDNAN_clean_linker_2, # of connection points: 2
#     Edge 35, Type (0, 1), BuildingBlock: XUDNAN_clean_linker_2, # of connection points: 2
# Relax obj value: 0.178
# Max RMSD: 0.302
# Mean RMSD: 0.156
data_MOF--net-pyr--node1-BETFEN_clean_sbu_0--node2-BETDIP_clean_linker_0--edge1-XUDNAN_clean_linker_2
_symmetry_space_group_name_H-M    P1
_symmetry_Int_Tables_number       1
_symmetry_cell_setting            triclinic
loop_
_symmetry_equiv_pos_as_xyz
'x, y, z'
_cell_length_a     36.246732
_cell_length_b     39.260095
_cell_length_c     38.613287
_cell_angle_alpha  92.622605
_cell_angle_beta   97.380617
_cell_angle_gamma 115.10239
loop_
_atom_site_label
_atom_site_type_symbol
_atom_site_fract_x
_atom_site_fract_y
_atom_site_fract_z
_atom_type_partial_charge
H0 H 0.36297 0.41178 0.30746 0.0
H1 H 0.43074 0.40715 0.22553 0.0
H2 H 0.36974 0.30797 0.27666 0.0
H3 H 0.43038 0.48453 0.21865 0.0
C4 C 0.40348 0.46254 0.22659 0.0
C5 C 0.3743 0.396 0.29157 0.0
C6 C 0.36345 0.35763 0.2951 0.0
C7 C 0.39773 0.41351 0.26595 0.0
C8 C 0.41183 0.39312 0.24478 0.0
C9 C 0.40228 0.35514 0.24871 0.0
C10 C 0.37798 0.33756 0.2739 0.0
N11 N 0.40646 0.45152 0.26093 0.0
H12 H 0.24676 0.84231 0.7653 0.0
H13 H 0.24064 0.7747 0.67221 0.0
H14 H 0.32493 0.7851 0.76608 0.0
H15 H 0.20999 0.81178 0.6452 0.0
C16 C 0.19824 0.82272 0.66531 0.0
C17 C 0.25709 0.82369 0.75227 0.0
C18 C 0.28809 0.81559 0.77014 0.0
C19 C 0.24021 0.8097 0.71711 0.0
C20 C 0.25379 0.7861 0.69933 0.0
C21 C 0.28474 0.77729 0.71704 0.0
C22 C 0.30163 0.79226 0.75229 0.0
N23 N 0.2097 0.82051 0.70144 0.0
H24 H 0.71885 0.36877 0.80755 0.0
H25 H 0.59335 0.28522 0.79377 0.0
H26 H 0.6889 0.26332 0.85155 0.0
H27 H 0.59859 0.31476 0.73133 0.0
C28 C 0.61582 0.3438 0.74341 0.0
C29 C 0.69718 0.34015 0.81024 0.0
C30 C 0.70928 0.31822 0.83257 0.0
C31 C 0.65612 0.32697 0.79349 0.0
C32 C 0.62581 0.29267 0.80191 0.0
C33 C 0.63789 0.27015 0.82397 0.0
C34 C 0.68003 0.28125 0.83525 0.0
N35 N 0.64605 0.35261 0.77402 0.0
H36 H 0.79036 0.61469 0.29919 0.0
H37 H 0.88618 0.72054 0.28309 0.0
H38 H 0.81263 0.71688 0.36256 0.0
H39 H 0.9142 0.67413 0.2721 0.0
C40 C 0.88768 0.65582 0.25269 0.0
C41 C 0.80645 0.64495 0.30622 0.0
C42 C 0.7966 0.66289 0.33383 0.0
C43 C 0.8387 0.66552 0.28805 0.0
C44 C 0.86176 0.70469 0.2975 0.0
C45 C 0.85292 0.72343 0.32495 0.0
C46 C 0.81972 0.70232 0.34205 0.0
N47 N 0.84718 0.64624 0.26017 0.0
H48 H 0.59758 0.65573 0.83006 0.0
H49 H 0.70738 0.67335 0.78793 0.0
H50 H 0.64074 0.73647 0.7554 0.0
H51 H 0.69319 0.61368 0.80308 0.0
C52 C 0.68503 0.6184 0.82839 0.0
C53 C 0.6177 0.66832 0.81116 0.0
C54 C 0.61525 0.6981 0.79365 0.0
C55 C 0.64933 0.65745 0.80765 0.0
C56 C 0.67986 0.67779 0.78755 0.0
C57 C 0.67727 0.70712 0.76986 0.0
C58 C 0.64264 0.71416 0.76998 0.0
N59 N 0.65354 0.63054 0.8292 0.0
H60 H 0.81324 0.21277 0.30638 0.0
H61 H 0.80144 0.26599 0.4014 0.0
H62 H 0.73317 0.26855 0.30293 0.0
H63 H 0.86976 0.21184 0.34029 0.0
C64 C 0.8619 0.20943 0.36655 0.0
C65 C 0.80107 0.22968 0.31958 0.0
C66 C 0.773 0.24055 0.29995 0.0
C67 C 0.81187 0.23941 0.35626 0.0
C68 C 0.79416 0.25972 0.37304 0.0
C69 C 0.76605 0.27069 0.354 0.0
C70 C 0.7563 0.26165 0.31742 0.0
N71 N 0.83705 0.22638 0.37783 0.0
H72 H 0.35722 0.68884 0.26557 0.0
H73 H 0.46761 0.79322 0.27381 0.0
H74 H 0.36739 0.76648 0.18886 0.0
H75 H 0.39986 0.66537 0.28499 0.0
C76 C 0.42161 0.68704 0.30544 0.0
C77 C 0.37537 0.71458 0.25493 0.0
C78 C 0.3578 0.72366 0.22434 0.0
C79 C 0.41587 0.73823 0.27185 0.0
C80 C 0.43712 0.774 0.26021 0.0
C81 C 0.41854 0.78481 0.23103 0.0
C82 C 0.37986 0.75891 0.21272 0.0
N83 N 0.43515 0.72612 0.30027 0.0
H84 H 0.15143 0.31498 0.76099 0.0
H85 H 0.26012 0.41767 0.75915 0.0
H86 H 0.23608 0.31749 0.69198 0.0
H87 H 0.25269 0.43414 0.81123 0.0
C88 C 0.22047 0.41946 0.81408 0.0
C89 C 0.18026 0.3301 0.75139 0.0
C90 C 0.19075 0.31228 0.72442 0.0
C91 C 0.20634 0.36751 0.76571 0.0
C92 C 0.24217 0.38784 0.75099 0.0
C93 C 0.25363 0.37037 0.72417 0.0
C94 C 0.22814 0.33197 0.71219 0.0
N95 N 0.19442 0.38432 0.79332 0.0
Pr96 Pr 0.98643 0.99597 0.54188 0.0
Pr97 Pr 0.05966 0.03391 0.50484 0.0
C98 C 0.9149 0.94356 0.55627 0.0
C99 C 0.90103 0.92274 0.5861 0.0
C100 C 0.92313 0.93656 0.62025 0.0
C101 C 0.90969 0.91595 0.64835 0.0
C102 C 0.87424 0.88115 0.64252 0.0
C103 C 0.85281 0.8672 0.6081 0.0
C104 C 0.86615 0.88786 0.58012 0.0
C105 C 0.0368 0.064 0.58391 0.0
C106 C 0.06397 0.97599 0.56478 0.0
C107 C 0.13192 0.07071 0.48204 0.0
C108 C 0.15098 0.10472 0.46445 0.0
C109 C 0.17466 0.10462 0.43855 0.0
C110 C 0.19334 0.13691 0.42176 0.0
C111 C 0.1887 0.16979 0.43085 0.0
C112 C 0.16406 0.16948 0.45618 0.0
C113 C 0.14508 0.13707 0.47271 0.0
C114 C 0.99395 0.97204 0.46448 0.0
C115 C 0.98667 0.06112 0.49107 0.0
O116 O 0.94035 0.93508 0.54074 0.0
O117 O 0.92501 0.97986 0.56016 0.0
O118 O 0.04503 0.05334 0.55568 0.0
O119 O 1.00257 0.03894 0.59158 0.0
O120 O 0.08006 0.99395 0.53836 0.0
O121 O 0.02983 0.97509 0.57377 0.0
O122 O 0.12687 0.07586 0.5145 0.0
O123 O 0.10035 0.04252 0.4632 0.0
O124 O 1.00825 0.97346 0.49641 0.0
O125 O 1.01363 1.00429 0.4528 0.0
O126 O 0.96342 0.02846 0.50168 0.0
O127 O 0.02696 0.07326 0.49346 0.0
H128 H 0.95061 0.96326 0.62515 0.0
H129 H 0.92687 0.92725 0.67459 0.0
H130 H 0.82498 0.84081 0.60288 0.0
H131 H 0.84905 0.87674 0.55381 0.0
H132 H 0.17905 0.07969 0.43159 0.0
H133 H 0.21241 0.13654 0.40245 0.0
H134 H 0.15965 0.19435 0.46328 0.0
H135 H 0.12614 0.13741 0.49215 0.0
Pr136 Pr 0.50388 0.0424 0.04491 0.0
Pr137 Pr 0.56411 0.0211 1.02165 0.0
C138 C 0.45652 0.06227 0.08157 0.0
C139 C 0.45912 0.09763 0.09798 0.0
C140 C 0.48462 0.13235 0.0872 0.0
C141 C 0.48552 0.16586 0.10185 0.0
C142 C 0.46126 0.16506 0.12767 0.0
C143 C 0.43701 0.13033 0.13934 0.0
C144 C 0.43589 0.09678 0.12447 0.0
C145 C 0.53616 0.08136 0.98823 0.0
C146 C 0.60247 0.08987 0.08303 0.0
C147 C 0.60637 0.99682 0.98308 0.0
C148 C 0.59464 0.96068 0.96169 0.0
C149 C 0.58186 0.92634 0.97675 0.0
C150 C 0.56956 0.89224 0.95575 0.0
C151 C 0.56961 0.89189 0.9194 0.0
C152 C 0.58111 0.92612 0.90431 0.0
C153 C 0.59373 0.96018 0.92529 0.0
C154 C 0.53075 0.9819 0.07737 0.0
C155 C 0.46605 0.97334 0.98403 0.0
O156 O 0.48344 0.05111 0.09616 0.0
O157 O 0.45136 0.0584 0.04725 0.0
O158 O 0.55735 0.07652 1.01459 0.0
O159 O 0.49746 0.0665 0.99129 0.0
O160 O 0.61262 0.07522 0.05669 0.0
O161 O 0.5635 0.07931 0.0863 0.0
O162 O 0.58804 1.01728 0.97111 0.0
O163 O 0.6096 0.9964 1.01716 0.0
O164 O 0.51026 0.98761 0.05123 0.0
O165 O 0.56957 0.99527 0.07482 0.0
O166 O 0.45695 0.98603 1.0122 0.0
O167 O 0.50478 0.98635 0.97922 0.0
H168 H 0.50324 0.13344 0.06707 0.0
H169 H 0.50476 0.19236 0.09272 0.0
H170 H 0.41778 0.12898 0.15901 0.0
H171 H 0.41635 0.07012 0.13318 0.0
H172 H 0.58158 0.92574 1.00473 0.0
H173 H 0.56137 0.86637 0.96814 0.0
H174 H 0.58098 0.92663 0.87627 0.0
H175 H 0.60277 0.98619 0.91303 0.0
Pr176 Pr 0.5443 0.57033 0.55409 0.0
Pr177 Pr 0.51318 0.48689 0.51129 0.0
C178 C 0.53045 0.63061 0.57139 0.0
C179 C 0.50031 0.63745 0.59013 0.0
C180 C 0.51234 0.65819 0.62355 0.0
C181 C 0.48375 0.66586 0.63991 0.0
C182 C 0.44251 0.65312 0.6231 0.0
C183 C 0.43066 0.63206 0.58986 0.0
C184 C 0.45894 0.62427 0.57373 0.0
C185 C 0.57177 0.52696 0.59589 0.0
C186 C 0.46095 0.49334 0.57145 0.0
C187 C 0.51301 0.42579 0.4762 0.0
C188 C 0.54341 0.41519 0.46251 0.0
C189 C 0.53087 0.38927 0.43225 0.0
C190 C 0.55827 0.37648 0.4205 0.0
C191 C 0.59867 0.38957 0.43877 0.0
C192 C 0.61183 0.41677 0.46813 0.0
C193 C 0.58449 0.42972 0.4798 0.0
C194 C 0.48769 0.53808 0.47987 0.0
C195 C 0.60397 0.55868 0.5029 0.0
O196 O 0.5146 0.60887 0.54159 0.0
O197 O 0.56008 0.62472 0.58953 0.0
O198 O 0.55067 0.51607 0.56528 0.0
O199 O 0.58206 0.56277 0.60439 0.0
O200 O 0.46724 0.46893 0.55121 0.0
O201 O 0.48168 0.53048 0.57196 0.0
O202 O 0.51561 0.43022 0.51041 0.0
O203 O 0.50474 0.45109 0.46047 0.0
O204 O 0.52214 0.54477 0.49723 0.0
O205 O 0.46326 0.50197 0.47713 0.0
O206 O 0.59573 0.58497 0.51845 0.0
O207 O 0.5826 0.52208 0.50522 0.0
H208 H 0.54393 0.66881 0.63688 0.0
H209 H 0.49406 0.68187 0.66567 0.0
H210 H 0.39968 0.62245 0.57551 0.0
H211 H 0.44824 0.60839 0.54789 0.0
H212 H 0.49944 0.37794 0.41839 0.0
H213 H 0.54733 0.35501 0.39816 0.0
H214 H 0.6427 0.42677 0.48288 0.0
H215 H 0.59503 0.45007 0.50299 0.0
Pr216 Pr 0.03892 0.56157 1.00021 0.0
Pr217 Pr 0.03473 0.50238 0.04443 0.0
C218 C 0.02775 0.61402 0.96371 0.0
C219 C 0.99959 0.63196 0.96298 0.0
C220 C 0.98801 0.64155 0.99404 0.0
C221 C 0.95721 0.65416 0.99239 0.0
C222 C 0.93746 0.65714 0.9597 0.0
C223 C 0.95048 0.64896 0.92883 0.0
C224 C 0.98132 0.63656 0.93051 0.0
C225 C 0.11063 0.58135 0.04881 0.0
C226 C 0.99371 0.55567 0.07027 0.0
C227 C 0.04488 0.4505 0.0829 0.0
C228 C 0.07435 0.43399 0.08644 0.0
C229 C 0.07014 0.40631 0.1092 0.0
C230 C 0.10083 0.39366 0.11558 0.0
C231 C 0.13612 0.40866 0.09926 0.0
C232 C 0.1389 0.43493 0.07497 0.0
C233 C 0.10829 0.44751 0.06867 0.0
C234 C 0.96028 0.48166 0.99981 0.0
C235 C 0.0827 0.5114 0.97429 0.0
O236 O 1.01079 0.57807 0.9519 0.0
O237 O 0.05507 0.62246 0.99212 0.0
O238 O 0.07453 0.56535 0.05529 0.0
O239 O 0.11128 0.5893 1.01664 0.0
O240 O 1.01394 0.53657 0.08256 0.0
O241 O 0.99262 0.56297 0.03727 0.0
O242 O 0.06007 0.4864 0.09435 0.0
O243 O 1.02019 0.44161 0.05281 0.0
O244 O 0.99526 0.49706 0.98991 0.0
O245 O 0.9642 0.47965 0.03338 0.0
O246 O 0.06556 0.53319 0.96303 0.0
O247 O 0.07973 0.49988 1.00584 0.0
H248 H 1.00166 0.63802 1.01947 0.0
H249 H 0.94784 0.66031 1.01655 0.0
H250 H 0.93524 0.65001 0.90314 0.0
H251 H 0.98964 0.62896 0.90634 0.0
H252 H 0.0439 0.39548 0.12294 0.0
H253 H 0.09768 0.37318 0.13421 0.0
H254 H 0.16592 0.44756 0.06239 0.0
H255 H 0.11206 0.469 0.05108 0.0
H256 H 0.29731 0.2883 0.28243 0.0
H257 H 0.36793 0.3819 0.3638 0.0
H258 H 0.32489 0.34604 0.40637 0.0
H259 H 0.19645 0.25843 0.31333 0.0
H260 H 0.18246 0.209 0.30185 0.0
H261 H 0.21502 0.24401 0.27687 0.0
H262 H 0.27055 0.21885 0.2888 0.0
H263 H 0.23817 0.1839 0.31374 0.0
H264 H 0.29005 0.2163 0.33351 0.0
H265 H 0.27906 0.29786 0.44094 0.0
H266 H 0.23479 0.24031 0.46561 0.0
H267 H 0.19506 0.17797 0.3616 0.0
C268 C 0.30343 0.30139 0.30914 0.0
C269 C 0.33588 0.33779 0.31997 0.0
C270 C 0.34287 0.35418 0.355 0.0
C271 C 0.31865 0.33404 0.37928 0.0
C272 C 0.2874 0.29786 0.36787 0.0
C273 C 0.27959 0.28176 0.33357 0.0
C274 C 0.24619 0.24152 0.32853 0.0
C275 C 0.20776 0.23805 0.30367 0.0
C276 C 0.26223 0.21351 0.31539 0.0
C277 C 0.23783 0.23685 0.36576 0.0
C278 C 0.26122 0.2699 0.38789 0.0
C279 C 0.26012 0.27199 0.4238 0.0
C280 C 0.23485 0.23925 0.43754 0.0
C281 C 0.21153 0.20492 0.41542 0.0
C282 C 0.21263 0.20393 0.37903 0.0
H283 H 0.37011 0.84501 0.79996 0.0
H284 H 0.24922 0.82561 0.82352 0.0
H285 H 0.28147 0.86038 0.88237 0.0
H286 H 0.41305 0.83624 0.89075 0.0
H287 H 0.46367 0.87239 0.88792 0.0
H288 H 0.43067 0.84276 0.8489 0.0
H289 H 0.43785 0.90261 0.81909 0.0
H290 H 0.47046 0.93224 0.8581 0.0
H291 H 0.42441 0.93668 0.84032 0.0
H292 H 0.32697 0.90175 0.9364 0.0
H293 H 0.38264 0.94591 0.9826 0.0
H294 H 0.47399 0.93727 0.92468 0.0
C295 C 0.35026 0.84715 0.8178 0.0
C296 C 0.30709 0.83272 0.80695 0.0
C297 C 0.2824 0.8369 0.83096 0.0
C298 C 0.3004 0.85633 0.86458 0.0
C299 C 0.34308 0.87097 0.87409 0.0
C300 C 0.3677 0.86623 0.8516 0.0
C301 C 0.41301 0.88632 0.86776 0.0
C302 C 0.43116 0.85772 0.87422 0.0
C303 C 0.43786 0.91624 0.84495 0.0
C304 C 0.41005 0.90447 0.90213 0.0
C305 C 0.36941 0.89476 0.90547 0.0
C306 C 0.3589 0.90917 0.93432 0.0
C307 C 0.39078 0.9343 0.96041 0.0
C308 C 0.43271 0.94505 0.95734 0.0
C309 C 0.44228 0.92956 0.92789 0.0
H310 H 0.57766 0.34188 0.67574 0.0
H311 H 0.64754 0.41789 0.77034 0.0
H312 H 0.6453 0.4714 0.74133 0.0
H313 H 0.62677 0.40935 0.61422 0.0
H314 H 0.5802 0.39469 0.58267 0.0
H315 H 0.58738 0.36133 0.61012 0.0
H316 H 0.51847 0.34771 0.63218 0.0
H317 H 0.51107 0.38092 0.60473 0.0
H318 H 0.51069 0.38647 0.65127 0.0
H319 H 0.63601 0.5166 0.704 0.0
H320 H 0.61788 0.5523 0.66004 0.0
H321 H 0.55285 0.4496 0.58741 0.0
C322 C 0.59232 0.36982 0.69025 0.0
C323 C 0.61284 0.37555 0.72539 0.0
C324 C 0.63185 0.41257 0.74346 0.0
C325 C 0.63078 0.4433 0.72717 0.0
C326 C 0.61071 0.43685 0.69263 0.0
C327 C 0.59174 0.40119 0.67419 0.0
C328 C 0.57219 0.40279 0.63722 0.0
C329 C 0.59286 0.39135 0.60941 0.0
C330 C 0.52531 0.378 0.631 0.0
C331 C 0.58228 0.4447 0.63836 0.0
C332 C 0.60501 0.46358 0.67059 0.0
C333 C 0.61829 0.50221 0.67864 0.0
C334 C 0.60779 0.52227 0.65333 0.0
C335 C 0.58397 0.50389 0.62017 0.0
C336 C 0.57123 0.46448 0.61245 0.0
H337 H 0.95615 0.64587 0.24485 0.0
H338 H 0.83537 0.62503 0.18963 0.0
H339 H 0.84943 0.5974 0.13669 0.0
H340 H 1.0113 0.66987 0.17214 0.0
H341 H 0.04292 0.64592 0.18478 0.0
H342 H 1.02359 0.66476 0.21777 0.0
H343 H 0.98995 0.59861 0.23957 0.0
H344 H 1.00929 0.57961 0.2067 0.0
H345 H 0.95482 0.5585 0.20881 0.0
H346 H 0.87933 0.57604 0.08846 0.0
H347 H 0.91868 0.55562 0.05124 0.0
H348 H 1.01691 0.58431 0.13992 0.0
C349 C 0.93266 0.63538 0.22159 0.0
C350 C 0.89474 0.63766 0.22122 0.0
C351 C 0.86457 0.62342 0.19049 0.0
C352 C 0.87238 0.60784 0.16028 0.0
C353 C 0.91023 0.60612 0.16147 0.0
C354 C 0.93959 0.61897 0.19156 0.0
C355 C 0.97715 0.61268 0.18649 0.0
C356 C 1.01603 0.65056 0.19053 0.0
C357 C 0.98314 0.58574 0.2119 0.0
C358 C 0.96452 0.59439 0.1488 0.0
C359 C 0.92612 0.59148 0.13461 0.0
C360 C 0.90907 0.57761 0.09952 0.0
C361 C 0.93166 0.56617 0.07857 0.0
C362 C 0.97042 0.56779 0.09291 0.0
C363 C 0.98692 0.582 0.12852 0.0
H364 H 0.43175 0.30328 0.26673 0.0
H365 H 0.40286 0.35703 0.17814 0.0
H366 H 0.42232 0.31855 0.13873 0.0
H367 H 0.5186 0.29176 0.23566 0.0
H368 H 0.50454 0.24619 0.25162 0.0
H369 H 0.49354 0.28138 0.27384 0.0
H370 H 0.41622 0.2338 0.26646 0.0
H371 H 0.42694 0.19856 0.24422 0.0
H372 H 0.38845 0.21189 0.22315 0.0
H373 H 0.43916 0.27145 0.1083 0.0
H374 H 0.44992 0.21634 0.08809 0.0
H375 H 0.4656 0.19132 0.19582 0.0
C376 C 0.42982 0.30716 0.23908 0.0
C377 C 0.41613 0.3334 0.22553 0.0
C378 C 0.4141 0.3377 0.18922 0.0
C379 C 0.42496 0.3159 0.1666 0.0
C380 C 0.43786 0.29004 0.18073 0.0
C381 C 0.44037 0.28552 0.21609 0.0
C382 C 0.45235 0.25381 0.22405 0.0
C383 C 0.49478 0.26921 0.2477 0.0
C384 C 0.41899 0.22268 0.24042 0.0
C385 C 0.45441 0.24022 0.18737 0.0
C386 C 0.44684 0.26208 0.16293 0.0
C387 C 0.44568 0.25438 0.12717 0.0
C388 C 0.45195 0.22316 0.11598 0.0
C389 C 0.4588 0.19987 0.14046 0.0
C390 C 0.46046 0.20878 0.17662 0.0
H391 H 0.173 0.83727 0.59941 0.0
H392 H 0.17038 0.85919 0.71017 0.0
H393 H 0.136 0.89994 0.69579 0.0
H394 H 0.19414 0.92874 0.57598 0.0
H395 H 0.16017 0.91355 0.53421 0.0
H396 H 0.18237 0.8837 0.55236 0.0
H397 H 0.10934 0.82862 0.54837 0.0
H398 H 0.08689 0.85819 0.52983 0.0
H399 H 0.07099 0.83623 0.5687 0.0
H400 H 0.10356 0.93942 0.67062 0.0
H401 H 0.07372 0.97518 0.63524 0.0
H402 H 0.0982 0.93057 0.54047 0.0
C403 C 0.16479 0.8504 0.62052 0.0
C404 C 0.17463 0.84502 0.6559 0.0
C405 C 0.16337 0.86271 0.68284 0.0
C406 C 0.14374 0.88602 0.67497 0.0
C407 C 0.13514 0.89127 0.64002 0.0
C408 C 0.14484 0.87377 0.61311 0.0
C409 C 0.13214 0.88466 0.57781 0.0
C410 C 0.16945 0.90381 0.55899 0.0
C411 C 0.09781 0.84986 0.55481 0.0
C412 C 0.1157 0.91234 0.58939 0.0
C413 C 0.117 0.915 0.62538 0.0
C414 C 0.10242 0.93766 0.64243 0.0
C415 C 0.08563 0.95791 0.62216 0.0
C416 C 0.08425 0.95601 0.58533 0.0
C417 C 0.09973 0.9331 0.56872 0.0
H418 H 0.78639 0.37792 0.82766 0.0
H419 H 0.71907 0.30214 0.90022 0.0
H420 H 0.77752 0.33338 0.94665 0.0
H421 H 0.89125 0.39023 0.86604 0.0
H422 H 0.91547 0.44016 0.86169 0.0
H423 H 0.87034 0.40898 0.83096 0.0
H424 H 0.83362 0.45055 0.84551 0.0
H425 H 0.8785 0.48161 0.87649 0.0
H426 H 0.82886 0.45976 0.89049 0.0
H427 H 0.8365 0.37438 0.98727 0.0
H428 H 0.89929 0.42317 1.02159 0.0
H429 H 0.93399 0.47718 0.92733 0.0
C430 C 0.78419 0.36749 0.85313 0.0
C431 C 0.74794 0.33615 0.85925 0.0
C432 C 0.74656 0.32429 0.89347 0.0
C433 C 0.77966 0.3424 0.92062 0.0
C434 C 0.81418 0.37306 0.91387 0.0
C435 C 0.81721 0.3858 0.8812 0.0
C436 C 0.85759 0.42142 0.88275 0.0
C437 C 0.8853 0.41478 0.85894 0.0
C438 C 0.84912 0.45534 0.87324 0.0
C439 C 0.87604 0.42639 0.92146 0.0
C440 C 0.84987 0.39795 0.93847 0.0
C441 C 0.85769 0.39658 0.97431 0.0
C442 C 0.89358 0.42478 0.99363 0.0
C443 C 0.92195 0.45404 0.97723 0.0
C444 C 0.9131 0.45493 0.94049 0.0
H445 H 0.78624 0.68295 0.4016 0.0
H446 H 0.7296 0.59198 0.31509 0.0
H447 H 0.67813 0.55551 0.35064 0.0
H448 H 0.76855 0.63174 0.47315 0.0
H449 H 0.75355 0.66246 0.49796 0.0
H450 H 0.78819 0.68122 0.46689 0.0
H451 H 0.7393 0.7063 0.43454 0.0
H452 H 0.70472 0.68825 0.46583 0.0
H453 H 0.68585 0.67426 0.41949 0.0
H454 H 0.63533 0.52722 0.39669 0.0
H455 H 0.5964 0.51248 0.44566 0.0
H456 H 0.67228 0.6262 0.49787 0.0
C457 C 0.76281 0.656 0.38894 0.0
C458 C 0.76343 0.64089 0.35485 0.0
C459 C 0.73177 0.60444 0.34124 0.0
C460 C 0.70173 0.5834 0.36117 0.0
C461 C 0.7025 0.59948 0.3943 0.0
C462 C 0.7314 0.63538 0.40763 0.0
C463 C 0.72356 0.64723 0.44294 0.0
C464 C 0.76068 0.65617 0.47194 0.0
C465 C 0.71271 0.68101 0.44055 0.0
C466 C 0.68647 0.61164 0.44804 0.0
C467 C 0.67531 0.58438 0.41973 0.0
C468 C 0.6434 0.54849 0.41874 0.0
C469 C 0.62172 0.54037 0.44702 0.0
C470 C 0.63134 0.56817 0.47587 0.0
C471 C 0.66421 0.6044 0.47628 0.0
H472 H 0.32561 0.43874 0.24147 0.0
H473 H 0.39383 0.44644 0.15568 0.0
H474 H 0.32829 0.42019 0.11329 0.0
H475 H 0.2278 0.35376 0.20346 0.0
H476 H 0.19654 0.37434 0.21982 0.0
H477 H 0.24712 0.38539 0.24368 0.0
H478 H 0.26799 0.45714 0.24121 0.0
H479 H 0.21751 0.44612 0.21772 0.0
H480 H 0.26264 0.47424 0.19917 0.0
H481 H 0.25695 0.40102 0.0802 0.0
H482 H 0.18799 0.39735 0.05882 0.0
H483 H 0.16784 0.40642 0.1665 0.0
C484 C 0.32648 0.43369 0.21384 0.0
C485 C 0.36436 0.44388 0.20162 0.0
C486 C 0.36482 0.43844 0.16531 0.0
C487 C 0.3278 0.42328 0.1412 0.0
C488 C 0.29081 0.41422 0.15397 0.0
C489 C 0.28998 0.41953 0.18948 0.0
C490 C 0.24754 0.41366 0.19607 0.0
C491 C 0.22864 0.37976 0.217 0.0
C492 C 0.24903 0.44994 0.21461 0.0
C493 C 0.22487 0.40523 0.15874 0.0
C494 C 0.24999 0.40474 0.13482 0.0
C495 C 0.23686 0.40086 0.0987 0.0
C496 C 0.19774 0.39895 0.08681 0.0
C497 C 0.17252 0.40152 0.111 0.0
C498 C 0.18584 0.40333 0.14731 0.0
H499 H 0.60253 0.19144 0.81927 0.0
H500 H 0.61621 0.29194 0.88154 0.0
H501 H 0.59317 0.25462 0.93074 0.0
H502 H 0.50652 0.12621 0.8552 0.0
H503 H 0.52076 0.0875 0.85311 0.0
H504 H 0.53482 0.12149 0.82161 0.0
H505 H 0.61131 0.13418 0.83896 0.0
H506 H 0.59771 0.10102 0.87113 0.0
H507 H 0.63584 0.14913 0.88421 0.0
H508 H 0.57955 0.20925 0.9761 0.0
H509 H 0.56036 0.15482 1.01117 0.0
H510 H 0.5477 0.08105 0.919 0.0
C511 C 0.59856 0.20502 0.84261 0.0
C512 C 0.61005 0.24447 0.84623 0.0
C513 C 0.60616 0.2616 0.87777 0.0
C514 C 0.59374 0.24072 0.90609 0.0
C515 C 0.58407 0.2023 0.90226 0.0
C516 C 0.58462 0.18415 0.87091 0.0
C517 C 0.57204 0.14228 0.87403 0.0
C518 C 0.5311 0.11792 0.84953 0.0
C519 C 0.60628 0.13101 0.86665 0.0
C520 C 0.56645 0.14032 0.91241 0.0
C521 C 0.57393 0.17544 0.92819 0.0
C522 C 0.57277 0.18145 0.96385 0.0
C523 C 0.56225 0.15052 0.98365 0.0
C524 C 0.55274 0.11399 0.96778 0.0
C525 C 0.55504 0.10883 0.93173 0.0
H526 H 0.83129 0.77683 0.35497 0.0
H527 H 0.93676 0.76295 0.32627 0.0
H528 H 0.98277 0.82676 0.35525 0.0
H529 H 0.86898 0.87827 0.35208 0.0
H530 H 0.84912 0.88476 0.39109 0.0
H531 H 0.8236 0.84055 0.3631 0.0
H532 H 0.83064 0.80472 0.41625 0.0
H533 H 0.85658 0.84875 0.44442 0.0
H534 H 0.88099 0.8174 0.44136 0.0
H535 H 1.0183 0.88956 0.39129 0.0
H536 H 0.04096 0.94769 0.4321 0.0
H537 H 0.91388 0.91812 0.4434 0.0
C538 C 0.864 0.78685 0.35464 0.0
C539 C 0.88 0.76418 0.33809 0.0
C540 C 0.92316 0.77954 0.33787 0.0
C541 C 0.94978 0.81578 0.35467 0.0
C542 C 0.93303 0.83631 0.37205 0.0
C543 C 0.89117 0.82242 0.37225 0.0
C544 C 0.88146 0.84868 0.39561 0.0
C545 C 0.85419 0.86398 0.37418 0.0
C546 C 0.86123 0.82869 0.42622 0.0
C547 C 0.92457 0.87962 0.40853 0.0
C548 C 0.95375 0.87197 0.39429 0.0
C549 C 0.99577 0.89595 0.40247 0.0
C550 C 1.00834 0.92875 0.42565 0.0
C551 C 0.97909 0.93705 0.44061 0.0
C552 C 0.9367 0.9122 0.43213 0.0
H553 H 0.36499 0.79182 0.71508 0.0
H554 H 0.23938 0.70687 0.68034 0.0
H555 H 0.26608 0.66373 0.65607 0.0
H556 H 0.40627 0.77508 0.6402 0.0
H557 H 0.45534 0.78343 0.66541 0.0
H558 H 0.42581 0.80644 0.6806 0.0
H559 H 0.42798 0.77849 0.73996 0.0
H560 H 0.45706 0.75496 0.72471 0.0
H561 H 0.40923 0.72801 0.74016 0.0
H562 H 0.30741 0.62949 0.63735 0.0
H563 H 0.35862 0.60972 0.61886 0.0
H564 H 0.4571 0.71923 0.66301 0.0
C565 C 0.34311 0.76413 0.70229 0.0
C566 C 0.30012 0.75257 0.69954 0.0
C567 C 0.27241 0.71632 0.68239 0.0
C568 C 0.28733 0.69157 0.66889 0.0
C569 C 0.33 0.70369 0.67257 0.0
C570 C 0.35744 0.73934 0.68846 0.0
C571 C 0.40176 0.74623 0.68789 0.0
C572 C 0.42356 0.77977 0.66728 0.0
C573 C 0.42539 0.75227 0.72541 0.0
C574 C 0.39514 0.7091 0.66868 0.0
C575 C 0.35359 0.68466 0.66066 0.0
C576 C 0.33996 0.64863 0.64312 0.0
C577 C 0.36942 0.63777 0.6325 0.0
C578 C 0.41216 0.66308 0.6388 0.0
C579 C 0.42494 0.69893 0.65788 0.0
H580 H 0.72345 0.70107 0.7204 0.0
H581 H 0.71467 0.78015 0.79732 0.0
H582 H 0.77384 0.83239 0.77951 0.0
H583 H 0.8404 0.75152 0.72742 0.0
H584 H 0.8377 0.74132 0.68094 0.0
H585 H 0.79969 0.70857 0.70393 0.0
H586 H 0.74103 0.71213 0.66031 0.0
H587 H 0.77874 0.74453 0.63717 0.0
H588 H 0.74189 0.75768 0.65399 0.0
H589 H 0.82619 0.87682 0.74884 0.0
H590 H 0.86594 0.91139 0.70434 0.0
H591 H 0.8426 0.80476 0.64683 0.0
C592 C 0.7348 0.72929 0.73388 0.0
C593 C 0.7146 0.73686 0.75994 0.0
C594 C 0.72968 0.77406 0.77696 0.0
C595 C 0.76351 0.80379 0.76735 0.0
C596 C 0.78228 0.79581 0.74095 0.0
C597 C 0.76868 0.75953 0.72445 0.0
C598 C 0.79157 0.75966 0.69425 0.0
C599 C 0.81897 0.73904 0.70211 0.0
C600 C 0.76151 0.74251 0.65938 0.0
C601 C 0.8176 0.80182 0.69481 0.0
C602 C 0.81284 0.82199 0.72275 0.0
C603 C 0.83101 0.86141 0.72728 0.0
C604 C 0.85365 0.88082 0.70193 0.0
C605 C 0.85738 0.86072 0.67226 0.0
C606 C 0.84024 0.82078 0.66934 0.0
H607 H 0.7494 0.1691 0.2673 0.0
H608 H 0.75921 0.2802 0.24717 0.0
H609 H 0.7223 0.25461 0.18668 0.0
H610 H 0.75997 0.14025 0.17622 0.0
H611 H 0.72344 0.09193 0.17753 0.0
H612 H 0.75568 0.12021 0.21743 0.0
H613 H 0.69034 0.10619 0.24576 0.0
H614 H 0.65795 0.07834 0.20591 0.0
H615 H 0.65045 0.11755 0.22425 0.0
H616 H 0.6758 0.21528 0.13181 0.0
H617 H 0.6264 0.1654 0.08523 0.0
H618 H 0.64879 0.08038 0.13979 0.0
C619 C 0.74513 0.18837 0.24979 0.0
C620 C 0.75731 0.22672 0.26199 0.0
C621 C 0.74999 0.2507 0.23848 0.0
C622 C 0.72921 0.23645 0.20402 0.0
C623 C 0.71635 0.19823 0.19323 0.0
C624 C 0.72455 0.17462 0.21524 0.0
C625 C 0.7048 0.13408 0.19804 0.0
C626 C 0.73795 0.12084 0.19194 0.0
C627 C 0.67407 0.1075 0.21979 0.0
C628 C 0.68278 0.1383 0.16357 0.0
C629 C 0.69019 0.17563 0.16115 0.0
C630 C 0.67058 0.18613 0.13302 0.0
C631 C 0.64259 0.15774 0.10678 0.0
C632 C 0.63473 0.11952 0.10887 0.0
C633 C 0.65528 0.10969 0.13737 0.0
H634 H 0.38701 0.61635 0.32475 0.0
H635 H 0.48927 0.72686 0.35728 0.0
H636 H 0.51502 0.70087 0.40722 0.0
H637 H 0.37072 0.5905 0.41375 0.0
H638 H 0.35759 0.54138 0.40145 0.0
H639 H 0.34653 0.56923 0.36949 0.0
H640 H 0.38814 0.55175 0.32806 0.0
H641 H 0.39955 0.52404 0.35991 0.0
H642 H 0.44102 0.56143 0.34386 0.0
H643 H 0.53355 0.66095 0.4487 0.0
H644 H 0.54068 0.61237 0.483 0.0
H645 H 0.42249 0.52828 0.4276 0.0
C646 C 0.4146 0.63517 0.34267 0.0
C647 C 0.43632 0.67357 0.33719 0.0
C648 C 0.47219 0.69742 0.36107 0.0
C649 C 0.487 0.68284 0.38943 0.0
C650 C 0.46512 0.64462 0.39374 0.0
C651 C 0.42932 0.62125 0.37133 0.0
C652 C 0.41184 0.58113 0.38148 0.0
C653 C 0.36914 0.56991 0.39219 0.0
C654 C 0.41005 0.55294 0.35155 0.0
C655 C 0.44389 0.58526 0.41279 0.0
C656 C 0.47445 0.62211 0.41917 0.0
C657 C 0.50918 0.63236 0.44464 0.0
C658 C 0.51274 0.60445 0.46422 0.0
C659 C 0.48127 0.56673 0.45919 0.0
C660 C 0.44637 0.55707 0.43295 0.0
H661 H 0.15105 0.38842 0.84706 0.0
H662 H 0.25584 0.49364 0.83749 0.0
H663 H 0.23276 0.52799 0.87818 0.0
H664 H 0.0769 0.42577 0.85291 0.0
H665 H 0.05289 0.39687 0.88592 0.0
H666 H 0.07714 0.38015 0.85573 0.0
H667 H 0.12317 0.37095 0.90808 0.0
H668 H 0.09902 0.38766 0.93841 0.0
H669 H 0.15434 0.41026 0.94106 0.0
H670 H 0.19641 0.55185 0.91648 0.0
H671 H 0.15166 0.563 0.95441 0.0
H672 H 0.07337 0.4424 0.94458 0.0
C673 C 0.16894 0.41869 0.85348 0.0
C674 C 0.20501 0.43855 0.83876 0.0
C675 C 0.22802 0.478 0.8483 0.0
C676 C 0.21517 0.49775 0.8714 0.0
C677 C 0.17954 0.47758 0.88541 0.0
C678 C 0.15698 0.43887 0.8773 0.0
C679 C 0.12049 0.42416 0.89705 0.0
C680 C 0.07943 0.40565 0.87136 0.0
C681 C 0.12451 0.39662 0.92267 0.0
C682 C 0.1256 0.46073 0.91675 0.0
C683 C 0.1598 0.49119 0.9094 0.0
C684 C 0.16989 0.52818 0.92283 0.0
C685 C 0.14433 0.53428 0.94426 0.0
C686 C 0.10957 0.50356 0.95263 0.0
C687 C 0.10025 0.46627 0.93897 0.0
H688 H 0.64053 0.77438 0.79913 0.0
H689 H 0.54116 0.67048 0.82043 0.0
H690 H 0.51344 0.70886 0.85151 0.0
H691 H 0.66009 0.82412 0.87682 0.0
H692 H 0.67117 0.86901 0.86019 0.0
H693 H 0.67916 0.83345 0.83572 0.0
H694 H 0.63078 0.83539 0.781 0.0
H695 H 0.62317 0.87173 0.80499 0.0
H696 H 0.57925 0.82896 0.78491 0.0
H697 H 0.50315 0.76061 0.88711 0.0
H698 H 0.50951 0.81913 0.9202 0.0
H699 H 0.61482 0.88557 0.87129 0.0
C700 C 0.61167 0.75895 0.8084 0.0
C701 C 0.59276 0.71904 0.80648 0.0
C702 C 0.55634 0.701 0.82137 0.0
C703 C 0.54024 0.72257 0.83892 0.0
C704 C 0.56059 0.76198 0.84078 0.0
C705 C 0.59517 0.77972 0.82529 0.0
C706 C 0.61395 0.82214 0.83287 0.0
C707 C 0.65869 0.83806 0.85257 0.0
C708 C 0.61162 0.84064 0.79892 0.0
C709 C 0.58531 0.82585 0.85606 0.0
C710 C 0.55448 0.79109 0.86038 0.0
C711 C 0.52663 0.78795 0.88325 0.0
C712 C 0.53063 0.82121 0.90207 0.0
C713 C 0.56227 0.85688 0.89779 0.0
C714 C 0.58949 0.85893 0.87425 0.0
H715 H 0.92131 0.18499 0.35856 0.0
H716 H 0.84031 0.18914 0.43059 0.0
H717 H 0.86589 0.15414 0.47076 0.0
H718 H 0.91055 0.09211 0.37046 0.0
H719 H 0.96375 0.10262 0.36889 0.0
H720 H 0.94044 0.12937 0.346 0.0
H721 H 0.99822 0.19169 0.37959 0.0
H722 H 1.02173 0.16509 0.40255 0.0
H723 H 1.00789 0.19693 0.42696 0.0
H724 H 0.89526 0.11433 0.50074 0.0
H725 H 0.9309 0.07569 0.5211 0.0
H726 H 0.9972 0.10024 0.43271 0.0
C727 C 0.90929 0.17874 0.38295 0.0
C728 C 0.87879 0.18979 0.39139 0.0
C729 C 0.86373 0.18113 0.42351 0.0
C730 C 0.87806 0.1612 0.44655 0.0
C731 C 0.90784 0.15046 0.43738 0.0
C732 C 0.92375 0.15926 0.4066 0.0
C733 C 0.9554 0.14396 0.40314 0.0
C734 C 0.94171 0.11531 0.37016 0.0
C735 C 0.99836 0.17635 0.40306 0.0
C736 C 0.95417 0.12466 0.43645 0.0
C737 C 0.92628 0.12865 0.45564 0.0
C738 C 0.91758 0.11142 0.48622 0.0
C739 C 0.93779 0.08942 0.49748 0.0
C740 C 0.96686 0.08529 0.47859 0.0
C741 C 0.97554 0.1035 0.44788 0.0
H742 H 0.29845 0.73721 0.18217 0.0
H743 H 0.32616 0.64575 0.21777 0.0
H744 H 0.2633 0.59966 0.17992 0.0
H745 H 0.18581 0.68692 0.16796 0.0
H746 H 0.18033 0.70791 0.12823 0.0
H747 H 0.22368 0.73353 0.16266 0.0
H748 H 0.27373 0.74106 0.11821 0.0
H749 H 0.23067 0.71514 0.08371 0.0
H750 H 0.2706 0.69951 0.09361 0.0
H751 H 0.19929 0.56316 0.13589 0.0
H752 H 0.14044 0.53969 0.08664 0.0
H753 H 0.16018 0.65491 0.07394 0.0
C754 C 0.29164 0.70758 0.1822 0.0
C755 C 0.31769 0.69555 0.20351 0.0
C756 C 0.30656 0.65614 0.20273 0.0
C757 C 0.27093 0.62953 0.18097 0.0
C758 C 0.24694 0.64259 0.15959 0.0
C759 C 0.2569 0.68068 0.15987 0.0
C760 C 0.22818 0.68753 0.13196 0.0
C761 C 0.20301 0.705 0.14871 0.0
C762 C 0.25224 0.71227 0.10529 0.0
C763 C 0.20105 0.64736 0.11549 0.0
C764 C 0.21182 0.62178 0.13236 0.0
C765 C 0.1907 0.5829 0.12236 0.0
C766 C 0.15757 0.56985 0.09441 0.0
C767 C 0.1468 0.59569 0.07646 0.0
C768 C 0.16871 0.63484 0.087 0.0
H769 H 0.26687 0.35852 0.65593 0.0
H770 H 0.32563 0.4333 0.7535 0.0
H771 H 0.38303 0.47264 0.72427 0.0
H772 H 0.3648 0.36246 0.63469 0.0
H773 H 0.34802 0.3588 0.58809 0.0
H774 H 0.31078 0.33688 0.61651 0.0
H775 H 0.26995 0.37373 0.593 0.0
H776 H 0.30728 0.3962 0.56486 0.0
H777 H 0.29577 0.42465 0.59581 0.0
H778 H 0.43137 0.50667 0.6835 0.0
H779 H 0.47277 0.52863 0.63638 0.0
H780 H 0.3885 0.42732 0.5676 0.0
C781 C 0.29198 0.38248 0.67182 0.0
C782 C 0.29057 0.39268 0.70729 0.0
C783 C 0.32451 0.42512 0.72612 0.0
C784 C 0.35775 0.44761 0.70983 0.0
C785 C 0.35754 0.43685 0.67491 0.0
C786 C 0.32614 0.40454 0.6564 0.0
C787 C 0.33429 0.39855 0.61951 0.0
C788 C 0.33981 0.36201 0.61441 0.0
C789 C 0.29977 0.39829 0.59166 0.0
C790 C 0.37462 0.43332 0.61981 0.0
C791 C 0.38717 0.45513 0.65203 0.0
C792 C 0.42218 0.48959 0.65836 0.0
C793 C 0.44529 0.50194 0.63127 0.0
C794 C 0.43383 0.47972 0.59829 0.0
C795 C 0.39809 0.44478 0.59259 0.0
H796 H 0.7644 0.66936 0.83221 0.0
H797 H 0.67858 0.59314 0.89279 0.0
H798 H 0.73576 0.60849 0.94247 0.0
H799 H 0.8429 0.64849 0.85192 0.0
H800 H 0.88427 0.6956 0.85623 0.0
H801 H 0.83572 0.68516 0.8296 0.0
H802 H 0.83057 0.73968 0.86615 0.0
H803 H 0.87925 0.74988 0.89322 0.0
H804 H 0.83405 0.74023 0.91318 0.0
H805 H 0.8028 0.62025 0.97814 0.0
H806 H 0.87299 0.6259 0.99582 0.0
H807 H 0.91591 0.70017 0.91542 0.0
C808 C 0.75776 0.65679 0.8564 0.0
C809 C 0.71772 0.62991 0.85904 0.0
C810 C 0.70941 0.61378 0.89068 0.0
C811 C 0.74154 0.62266 0.919 0.0
C812 C 0.78121 0.64879 0.91546 0.0
C813 C 0.78923 0.66629 0.88517 0.0
C814 C 0.83498 0.69013 0.8864 0.0
C815 C 0.85032 0.67912 0.85416 0.0
C816 C 0.8453 0.73249 0.88995 0.0
C817 C 0.85173 0.6795 0.91995 0.0
C818 C 0.82028 0.65689 0.93712 0.0
C819 C 0.8278 0.63895 0.96569 0.0
C820 C 0.8679 0.64245 0.97566 0.0
C821 C 0.89979 0.66344 0.95685 0.0
C822 C 0.89201 0.68404 0.93022 0.0
H823 H 0.49224 0.81925 0.20536 0.0
H824 H 0.38518 0.83445 0.22614 0.0
H825 H 0.40487 0.88925 0.192 0.0
H826 H 0.5626 0.92385 0.20714 0.0
H827 H 0.587 0.91502 0.17219 0.0
H828 H 0.56779 0.88026 0.20235 0.0
H829 H 0.52376 0.82986 0.14968 0.0
H830 H 0.5422 0.86458 0.11947 0.0
H831 H 0.4875 0.83852 0.11914 0.0
H832 H 0.42833 0.93419 0.14737 0.0
H833 H 0.46104 0.97401 0.10211 0.0
H834 H 0.55662 0.93467 0.11291 0.0
C835 C 0.4741 0.83522 0.20394 0.0
C836 C 0.43739 0.8229 0.21869 0.0
C837 C 0.4136 0.84371 0.21533 0.0
C838 C 0.42443 0.87476 0.19584 0.0
C839 C 0.45963 0.8852 0.18022 0.0
C840 C 0.48481 0.8668 0.18473 0.0
C841 C 0.51974 0.88286 0.16345 0.0
C842 C 0.56178 0.90161 0.18774 0.0
C843 C 0.51818 0.85212 0.13634 0.0
C844 C 0.50942 0.91216 0.14558 0.0
C845 C 0.47441 0.91278 0.1555 0.0
C846 C 0.45646 0.93478 0.14014 0.0
C847 C 0.47509 0.95717 0.11436 0.0
C848 C 0.51172 0.95797 0.1046 0.0
C849 C 0.52917 0.93527 0.12056 0.0
H850 H 0.20069 0.24687 0.71309 0.0
H851 H 0.11358 0.29506 0.69121 0.0
H852 H 0.06627 0.23746 0.6517 0.0
H853 H 0.18707 0.20095 0.62885 0.0
H854 H 0.18887 0.15857 0.6433 0.0
H855 H 0.2154 0.20267 0.67136 0.0
H856 H 0.17557 0.17228 0.7213 0.0
H857 H 0.14935 0.12782 0.69369 0.0
H858 H 0.11994 0.14879 0.71277 0.0
H859 H 0.03039 0.17706 0.61223 0.0
H860 H 1.00377 0.11343 0.57966 0.0
H861 H 0.11241 0.10214 0.62728 0.0
C862 C 0.1713 0.24485 0.70038 0.0
C863 C 0.1605 0.27522 0.70531 0.0
C864 C 0.12201 0.27185 0.68818 0.0
C865 C 0.09516 0.2394 0.66549 0.0
C866 C 0.10695 0.21027 0.66059 0.0
C867 C 0.14364 0.21221 0.67807 0.0
C868 C 0.14819 0.17633 0.66855 0.0
C869 C 0.1872 0.18518 0.65202 0.0
C870 C 0.14826 0.15504 0.701 0.0
C871 C 0.1091 0.15462 0.64192 0.0
C872 C 0.08579 0.17484 0.63796 0.0
C873 C 0.0482 0.16086 0.61526 0.0
C874 C 0.03341 0.12485 0.59679 0.0
C875 C 0.05622 0.1033 0.60084 0.0
C876 C 0.09478 0.11845 0.62341 0.0
H877 H 0.75155 0.33324 0.34107 0.0
H878 H 0.72634 0.24319 0.40854 0.0
H879 H 0.68316 0.26563 0.43807 0.0
H880 H 0.75607 0.40449 0.4099 0.0
H881 H 0.73237 0.42587 0.37967 0.0
H882 H 0.76307 0.40398 0.36453 0.0
H883 H 0.70153 0.3612 0.31658 0.0
H884 H 0.67056 0.38277 0.33163 0.0
H885 H 0.65246 0.33213 0.32916 0.0
H886 H 0.64019 0.29455 0.45828 0.0
H887 H 0.60065 0.33067 0.46993 0.0
H888 H 0.65285 0.40349 0.39079 0.0
C889 C 0.73716 0.31857 0.36229 0.0
C890 C 0.74258 0.28663 0.37278 0.0
C891 C 0.72324 0.26806 0.40054 0.0
C892 C 0.69847 0.28048 0.41735 0.0
C893 C 0.69359 0.31181 0.40641 0.0
C894 C 0.71263 0.33098 0.37982 0.0
C895 C 0.70185 0.36389 0.37343 0.0
C896 C 0.74065 0.40181 0.38241 0.0
C897 C 0.6803 0.35972 0.33544 0.0
C898 C 0.67248 0.35911 0.39961 0.0
C899 C 0.66869 0.32905 0.41852 0.0
C900 C 0.64312 0.31835 0.44392 0.0
C901 C 0.62081 0.33893 0.45035 0.0
C902 C 0.62399 0.36971 0.43141 0.0
C903 C 0.65016 0.38007 0.40568 0.0
loop_
_geom_bond_atom_site_label_1
_geom_bond_atom_site_label_2
_geom_bond_distance
_geom_bond_site_symmetry_2
_ccdc_geom_bond_type
H0 C5 0.930 . S
H1 C8 0.930 . S
H2 C10 0.930 . S
H3 C4 1.016 . S
C4 H3 1.016 . S
C4 N11 1.286 . S
C5 H0 0.930 . S
C5 C6 1.397 . S
C5 C7 1.361 . S
C6 C5 1.397 . S
C6 C10 1.390 . S
C7 C5 1.361 . S
C7 C8 1.393 . S
C7 N11 1.413 . S
C8 H1 0.930 . S
C8 C7 1.393 . S
C8 C9 1.399 . S
C9 C8 1.399 . S
C9 C10 1.381 . S
C10 H2 0.930 . S
C10 C6 1.390 . S
C10 C9 1.381 . S
N11 C4 1.286 . S
N11 C7 1.413 . S
H12 C17 0.930 . S
H13 C20 0.930 . S
H14 C22 0.930 . S
H15 C16 1.016 . S
C16 H15 1.016 . S
C16 N23 1.286 . S
C17 H12 0.930 . S
C17 C18 1.397 . S
C17 C19 1.361 . S
C18 C17 1.397 . S
C18 C22 1.390 . S
C19 C17 1.361 . S
C19 C20 1.393 . S
C19 N23 1.413 . S
C20 H13 0.930 . S
C20 C19 1.393 . S
C20 C21 1.399 . S
C21 C20 1.399 . S
C21 C22 1.381 . S
C22 H14 0.930 . S
C22 C18 1.390 . S
C22 C21 1.381 . S
N23 C16 1.286 . S
N23 C19 1.413 . S
H24 C29 0.930 . S
H25 C32 0.930 . S
H26 C34 0.930 . S
H27 C28 1.016 . S
C28 H27 1.016 . S
C28 N35 1.286 . S
C29 H24 0.930 . S
C29 C30 1.397 . S
C29 C31 1.361 . S
C30 C29 1.397 . S
C30 C34 1.390 . S
C31 C29 1.361 . S
C31 C32 1.393 . S
C31 N35 1.413 . S
C32 H25 0.930 . S
C32 C31 1.393 . S
C32 C33 1.399 . S
C33 C32 1.399 . S
C33 C34 1.381 . S
C34 H26 0.930 . S
C34 C30 1.390 . S
C34 C33 1.381 . S
N35 C28 1.286 . S
N35 C31 1.413 . S
H36 C41 0.930 . S
H37 C44 0.930 . S
H38 C46 0.930 . S
H39 C40 1.016 . S
C40 H39 1.016 . S
C40 N47 1.286 . S
C41 H36 0.930 . S
C41 C42 1.397 . S
C41 C43 1.361 . S
C42 C41 1.397 . S
C42 C46 1.390 . S
C43 C41 1.361 . S
C43 C44 1.393 . S
C43 N47 1.413 . S
C44 H37 0.930 . S
C44 C43 1.393 . S
C44 C45 1.399 . S
C45 C44 1.399 . S
C45 C46 1.381 . S
C46 H38 0.930 . S
C46 C42 1.390 . S
C46 C45 1.381 . S
N47 C40 1.286 . S
N47 C43 1.413 . S
H48 C53 0.930 . S
H49 C56 0.930 . S
H50 C58 0.930 . S
H51 C52 1.016 . S
C52 H51 1.016 . S
C52 N59 1.286 . S
C53 H48 0.930 . S
C53 C54 1.397 . S
C53 C55 1.361 . S
C54 C53 1.397 . S
C54 C58 1.390 . S
C55 C53 1.361 . S
C55 C56 1.393 . S
C55 N59 1.413 . S
C56 H49 0.930 . S
C56 C55 1.393 . S
C56 C57 1.399 . S
C57 C56 1.399 . S
C57 C58 1.381 . S
C58 H50 0.930 . S
C58 C54 1.390 . S
C58 C57 1.381 . S
N59 C52 1.286 . S
N59 C55 1.413 . S
H60 C65 0.930 . S
H61 C68 0.930 . S
H62 C70 0.930 . S
H63 C64 1.016 . S
C64 H63 1.016 . S
C64 N71 1.286 . S
C65 H60 0.930 . S
C65 C66 1.397 . S
C65 C67 1.361 . S
C66 C65 1.397 . S
C66 C70 1.390 . S
C67 C65 1.361 . S
C67 C68 1.393 . S
C67 N71 1.413 . S
C68 H61 0.930 . S
C68 C67 1.393 . S
C68 C69 1.399 . S
C69 C68 1.399 . S
C69 C70 1.381 . S
C70 H62 0.930 . S
C70 C66 1.390 . S
C70 C69 1.381 . S
N71 C64 1.286 . S
N71 C67 1.413 . S
H72 C77 0.930 . S
H73 C80 0.930 . S
H74 C82 0.930 . S
H75 C76 1.016 . S
C76 H75 1.016 . S
C76 N83 1.286 . S
C77 H72 0.930 . S
C77 C78 1.397 . S
C77 C79 1.361 . S
C78 C77 1.397 . S
C78 C82 1.390 . S
C79 C77 1.361 . S
C79 C80 1.393 . S
C79 N83 1.413 . S
C80 H73 0.930 . S
C80 C79 1.393 . S
C80 C81 1.399 . S
C81 C80 1.399 . S
C81 C82 1.381 . S
C82 H74 0.930 . S
C82 C78 1.390 . S
C82 C81 1.381 . S
N83 C76 1.286 . S
N83 C79 1.413 . S
H84 C89 0.930 . S
H85 C92 0.930 . S
H86 C94 0.930 . S
H87 C88 1.016 . S
C88 H87 1.016 . S
C88 N95 1.286 . S
C89 H84 0.930 . S
C89 C90 1.397 . S
C89 C91 1.361 . S
C90 C89 1.397 . S
C90 C94 1.390 . S
C91 C89 1.361 . S
C91 C92 1.393 . S
C91 N95 1.413 . S
C92 H85 0.930 . S
C92 C91 1.393 . S
C92 C93 1.399 . S
C93 C92 1.399 . S
C93 C94 1.381 . S
C94 H86 0.930 . S
C94 C90 1.390 . S
C94 C93 1.381 . S
N95 C88 1.286 . S
N95 C91 1.413 . S
Pr96 C98 2.880 . S
Pr96 O116 2.562 . S
Pr96 O117 2.490 . S
Pr96 O118 2.695 1_665 S
Pr96 O119 2.512 1_665 S
Pr96 O121 2.437 1_655 S
Pr96 O124 2.436 . S
Pr96 O126 2.438 1_565 S
Pr97 C107 2.880 . S
Pr97 O118 2.436 . S
Pr97 O120 2.438 1_545 S
Pr97 O122 2.562 . S
Pr97 O123 2.490 . S
Pr97 O124 2.695 1_445 S
Pr97 O125 2.511 1_445 S
Pr97 O127 2.437 1_455 S
C98 Pr96 2.880 . S
C98 C99 1.491 . S
C98 O116 1.254 . S
C98 O117 1.225 . S
C99 C98 1.491 . S
C99 C100 1.392 . S
C99 C104 1.356 . S
C100 C99 1.392 . S
C100 C101 1.368 . S
C100 H128 0.929 . S
C101 C100 1.368 . S
C101 C102 1.386 . S
C101 H129 0.929 . S
C102 C101 1.386 . S
C102 C103 1.373 . S
C103 C102 1.373 . S
C103 C104 1.409 . S
C103 H130 0.931 . S
C104 C99 1.356 . S
C104 C103 1.409 . S
C104 H131 0.930 . S
C105 O118 1.270 . S
C105 O119 1.248 . S
C106 O120 1.267 . S
C106 O121 1.278 . S
C107 Pr97 2.880 . S
C107 C108 1.491 . S
C107 O122 1.254 . S
C107 O123 1.225 . S
C108 C107 1.491 . S
C108 C109 1.392 . S
C108 C113 1.356 . S
C109 C108 1.392 . S
C109 C110 1.368 . S
C109 H132 0.929 . S
C110 C109 1.368 . S
C110 C111 1.386 . S
C110 H133 0.929 . S
C111 C110 1.386 . S
C111 C112 1.373 . S
C112 C111 1.373 . S
C112 C113 1.409 . S
C112 H134 0.931 . S
C113 C108 1.356 . S
C113 C112 1.409 . S
C113 H135 0.930 . S
C114 O124 1.270 . S
C114 O125 1.254 . S
C115 O126 1.267 . S
C115 O127 1.278 . S
O116 Pr96 2.562 . S
O116 C98 1.254 . S
O117 Pr96 2.490 . S
O117 C98 1.225 . S
O118 Pr96 2.695 1_445 S
O118 Pr97 2.436 . S
O118 C105 1.270 . S
O119 Pr96 2.512 1_445 S
O119 C105 1.248 . S
O120 Pr97 2.438 1_565 S
O120 C106 1.267 . S
O121 Pr96 2.437 1_455 S
O121 C106 1.278 . S
O122 Pr97 2.562 . S
O122 C107 1.254 . S
O123 Pr97 2.490 . S
O123 C107 1.225 . S
O124 Pr96 2.436 . S
O124 Pr97 2.695 1_665 S
O124 C114 1.270 . S
O125 Pr97 2.511 1_665 S
O125 C114 1.254 . S
O126 Pr96 2.438 1_545 S
O126 C115 1.267 . S
O127 Pr97 2.437 1_655 S
O127 C115 1.278 . S
H128 C100 0.929 . S
H129 C101 0.929 . S
H130 C103 0.931 . S
H131 C104 0.930 . S
H132 C109 0.929 . S
H133 C110 0.929 . S
H134 C112 0.931 . S
H135 C113 0.930 . S
Pr136 C138 2.880 . S
Pr136 O156 2.562 . S
Pr136 O157 2.490 . S
Pr136 O158 2.695 1_554 S
Pr136 O159 2.512 1_554 S
Pr136 O161 2.437 . S
Pr136 O164 2.436 1_545 S
Pr136 O166 2.438 1_544 S
Pr137 C147 2.880 1_554 S
Pr137 O158 2.436 1_564 S
Pr137 O160 2.438 1_565 S
Pr137 O162 2.562 1_554 S
Pr137 O163 2.490 1_554 S
Pr137 O164 2.695 . S
Pr137 O165 2.512 . S
Pr137 O167 2.437 1_554 S
C138 Pr136 2.880 . S
C138 C139 1.491 . S
C138 O156 1.254 . S
C138 O157 1.225 . S
C139 C138 1.491 . S
C139 C140 1.392 . S
C139 C144 1.356 . S
C140 C139 1.392 . S
C140 C141 1.368 . S
C140 H168 0.929 . S
C141 C140 1.368 . S
C141 C142 1.386 . S
C141 H169 0.929 . S
C142 C141 1.386 . S
C142 C143 1.373 . S
C143 C142 1.373 . S
C143 C144 1.409 . S
C143 H170 0.931 . S
C144 C139 1.356 . S
C144 C143 1.409 . S
C144 H171 0.930 . S
C145 O158 1.270 . S
C145 O159 1.248 . S
C146 O160 1.267 . S
C146 O161 1.278 . S
C147 Pr137 2.880 1_556 S
C147 C148 1.491 . S
C147 O162 1.254 . S
C147 O163 1.225 . S
C148 C147 1.491 . S
C148 C149 1.392 . S
C148 C153 1.356 . S
C149 C148 1.392 . S
C149 C150 1.368 . S
C149 H172 0.929 . S
C150 C149 1.368 . S
C150 C151 1.386 . S
C150 H173 0.929 . S
C151 C150 1.386 . S
C151 C152 1.373 . S
C152 C151 1.373 . S
C152 C153 1.409 . S
C152 H174 0.931 . S
C153 C148 1.356 . S
C153 C152 1.409 . S
C153 H175 0.930 . S
C154 O164 1.270 . S
C154 O165 1.248 . S
C155 O166 1.267 . S
C155 O167 1.278 . S
O156 Pr136 2.562 . S
O156 C138 1.254 . S
O157 Pr136 2.490 . S
O157 C138 1.225 . S
O158 Pr136 2.695 1_556 S
O158 Pr137 2.436 1_546 S
O158 C145 1.270 . S
O159 Pr136 2.512 1_556 S
O159 C145 1.248 . S
O160 Pr137 2.438 1_545 S
O160 C146 1.267 . S
O161 Pr136 2.437 . S
O161 C146 1.278 . S
O162 Pr137 2.562 1_556 S
O162 C147 1.254 . S
O163 Pr137 2.490 1_556 S
O163 C147 1.225 . S
O164 Pr136 2.436 1_565 S
O164 Pr137 2.695 . S
O164 C154 1.270 . S
O165 Pr137 2.512 . S
O165 C154 1.248 . S
O166 Pr136 2.438 1_566 S
O166 C155 1.267 . S
O167 Pr137 2.437 1_556 S
O167 C155 1.278 . S
H168 C140 0.929 . S
H169 C141 0.929 . S
H170 C143 0.931 . S
H171 C144 0.930 . S
H172 C149 0.929 . S
H173 C150 0.929 . S
H174 C152 0.931 . S
H175 C153 0.930 . S
Pr176 C178 2.880 . S
Pr176 O196 2.562 . S
Pr176 O197 2.490 . S
Pr176 O198 2.695 . S
Pr176 O199 2.512 . S
Pr176 O201 2.437 . S
Pr176 O204 2.436 . S
Pr176 O206 2.438 . S
Pr177 C187 2.880 . S
Pr177 O198 2.436 . S
Pr177 O200 2.438 . S
Pr177 O202 2.562 . S
Pr177 O203 2.490 . S
Pr177 O204 2.695 . S
Pr177 O205 2.512 . S
Pr177 O207 2.437 . S
C178 Pr176 2.880 . S
C178 C179 1.491 . S
C178 O196 1.254 . S
C178 O197 1.225 . S
C179 C178 1.491 . S
C179 C180 1.392 . S
C179 C184 1.356 . S
C180 C179 1.392 . S
C180 C181 1.368 . S
C180 H208 0.929 . S
C181 C180 1.368 . S
C181 C182 1.386 . S
C181 H209 0.929 . S
C182 C181 1.386 . S
C182 C183 1.373 . S
C183 C182 1.373 . S
C183 C184 1.409 . S
C183 H210 0.931 . S
C184 C179 1.356 . S
C184 C183 1.409 . S
C184 H211 0.930 . S
C185 O198 1.270 . S
C185 O199 1.248 . S
C186 O200 1.267 . S
C186 O201 1.278 . S
C187 Pr177 2.880 . S
C187 C188 1.491 . S
C187 O202 1.254 . S
C187 O203 1.225 . S
C188 C187 1.491 . S
C188 C189 1.392 . S
C188 C193 1.356 . S
C189 C188 1.392 . S
C189 C190 1.368 . S
C189 H212 0.929 . S
C190 C189 1.368 . S
C190 C191 1.386 . S
C190 H213 0.929 . S
C191 C190 1.386 . S
C191 C192 1.373 . S
C192 C191 1.373 . S
C192 C193 1.409 . S
C192 H214 0.931 . S
C193 C188 1.356 . S
C193 C192 1.409 . S
C193 H215 0.930 . S
C194 O204 1.270 . S
C194 O205 1.248 . S
C195 O206 1.267 . S
C195 O207 1.278 . S
O196 Pr176 2.562 . S
O196 C178 1.254 . S
O197 Pr176 2.490 . S
O197 C178 1.225 . S
O198 Pr176 2.695 . S
O198 Pr177 2.436 . S
O198 C185 1.270 . S
O199 Pr176 2.512 . S
O199 C185 1.248 . S
O200 Pr177 2.438 . S
O200 C186 1.267 . S
O201 Pr176 2.437 . S
O201 C186 1.278 . S
O202 Pr177 2.562 . S
O202 C187 1.254 . S
O203 Pr177 2.490 . S
O203 C187 1.225 . S
O204 Pr176 2.436 . S
O204 Pr177 2.695 . S
O204 C194 1.270 . S
O205 Pr177 2.512 . S
O205 C194 1.248 . S
O206 Pr176 2.438 . S
O206 C195 1.267 . S
O207 Pr177 2.437 . S
O207 C195 1.278 . S
H208 C180 0.929 . S
H209 C181 0.929 . S
H210 C183 0.931 . S
H211 C184 0.930 . S
H212 C189 0.929 . S
H213 C190 0.929 . S
H214 C192 0.931 . S
H215 C193 0.930 . S
Pr216 C218 2.880 1_455 S
Pr216 O236 2.562 1_455 S
Pr216 O237 2.490 . S
Pr216 O238 2.695 1_556 S
Pr216 O239 2.512 1_556 S
Pr216 O241 2.437 1_456 S
Pr216 O244 2.436 1_455 S
Pr216 O246 2.438 . S
Pr217 C227 2.880 . S
Pr217 O238 2.436 . S
Pr217 O240 2.438 1_455 S
Pr217 O242 2.562 . S
Pr217 O243 2.490 . S
Pr217 O244 2.695 1_454 S
Pr217 O245 2.512 1_454 S
Pr217 O247 2.437 1_554 S
C218 Pr216 2.880 1_655 S
C218 C219 1.491 . S
C218 O236 1.254 . S
C218 O237 1.225 1_655 S
C219 C218 1.491 . S
C219 C220 1.392 . S
C219 C224 1.356 . S
C220 C219 1.392 . S
C220 C221 1.368 . S
C220 H248 0.929 1_655 S
C221 C220 1.368 . S
C221 C222 1.386 . S
C221 H249 0.929 . S
C222 C221 1.386 . S
C222 C223 1.373 . S
C223 C222 1.373 . S
C223 C224 1.409 . S
C223 H250 0.931 . S
C224 C219 1.356 . S
C224 C223 1.409 . S
C224 H251 0.930 . S
C225 O238 1.270 . S
C225 O239 1.248 . S
C226 O240 1.267 . S
C226 O241 1.278 . S
C227 Pr217 2.880 . S
C227 C228 1.491 . S
C227 O242 1.254 . S
C227 O243 1.225 . S
C228 C227 1.491 . S
C228 C229 1.392 . S
C228 C233 1.356 . S
C229 C228 1.392 . S
C229 C230 1.368 . S
C229 H252 0.929 . S
C230 C229 1.368 . S
C230 C231 1.386 . S
C230 H253 0.929 . S
C231 C230 1.386 . S
C231 C232 1.373 . S
C232 C231 1.373 . S
C232 C233 1.409 . S
C232 H254 0.931 . S
C233 C228 1.356 . S
C233 C232 1.409 . S
C233 H255 0.930 . S
C234 O244 1.270 . S
C234 O245 1.248 . S
C235 O246 1.267 . S
C235 O247 1.278 . S
O236 Pr216 2.562 1_655 S
O236 C218 1.254 . S
O237 Pr216 2.490 . S
O237 C218 1.225 1_455 S
O238 Pr216 2.695 1_554 S
O238 Pr217 2.436 . S
O238 C225 1.270 . S
O239 Pr216 2.512 1_554 S
O239 C225 1.248 . S
O240 Pr217 2.438 1_655 S
O240 C226 1.267 . S
O241 Pr216 2.437 1_654 S
O241 C226 1.278 . S
O242 Pr217 2.562 . S
O242 C227 1.254 . S
O243 Pr217 2.490 . S
O243 C227 1.225 . S
O244 Pr216 2.436 1_655 S
O244 Pr217 2.695 1_656 S
O244 C234 1.270 . S
O245 Pr217 2.512 1_656 S
O245 C234 1.248 . S
O246 Pr216 2.438 . S
O246 C235 1.267 . S
O247 Pr217 2.437 1_556 S
O247 C235 1.278 . S
H248 C220 0.929 1_455 S
H249 C221 0.929 . S
H250 C223 0.931 . S
H251 C224 0.930 . S
H252 C229 0.929 . S
H253 C230 0.929 . S
H254 C232 0.931 . S
H255 C233 0.930 . S
H256 C268 0.930 . S
H257 C270 0.930 . S
H258 C271 0.930 . S
H259 C275 0.959 . S
H260 C275 0.959 . S
H261 C275 0.961 . S
H262 C276 0.960 . S
H263 C276 0.961 . S
H264 C276 0.959 . S
H265 C279 0.929 . S
H266 C280 0.931 . S
H267 C282 0.930 . S
C268 H256 0.930 . S
C268 C269 1.399 . S
C268 C273 1.399 . S
C269 C268 1.399 . S
C269 C270 1.376 . S
C270 H257 0.930 . S
C270 C269 1.376 . S
C270 C271 1.388 . S
C271 H258 0.930 . S
C271 C270 1.388 . S
C271 C272 1.390 . S
C272 C271 1.390 . S
C272 C273 1.394 . S
C272 C278 1.465 . S
C273 C268 1.399 . S
C273 C272 1.394 . S
C273 C274 1.516 . S
C274 C273 1.516 . S
C274 C275 1.502 . S
C274 C276 1.561 . S
C274 C277 1.526 . S
C275 H259 0.959 . S
C275 H260 0.959 . S
C275 H261 0.961 . S
C275 C274 1.502 . S
C276 H262 0.960 . S
C276 H263 0.961 . S
C276 H264 0.959 . S
C276 C274 1.561 . S
C277 C274 1.526 . S
C277 C278 1.396 . S
C277 C282 1.390 . S
C278 C272 1.465 . S
C278 C277 1.396 . S
C278 C279 1.399 . S
C279 H265 0.929 . S
C279 C278 1.399 . S
C279 C280 1.385 . S
C280 H266 0.931 . S
C280 C279 1.385 . S
C280 C281 1.389 . S
C281 C280 1.389 . S
C281 C282 1.387 . S
C282 H267 0.930 . S
C282 C277 1.390 . S
C282 C281 1.387 . S
H283 C295 0.930 . S
H284 C297 0.930 . S
H285 C298 0.930 . S
H286 C302 0.959 . S
H287 C302 0.959 . S
H288 C302 0.961 . S
H289 C303 0.960 . S
H290 C303 0.961 . S
H291 C303 0.959 . S
H292 C306 0.929 . S
H293 C307 0.931 . S
H294 C309 0.930 . S
C295 H283 0.930 . S
C295 C296 1.399 . S
C295 C300 1.399 . S
C296 C295 1.399 . S
C296 C297 1.376 . S
C297 H284 0.930 . S
C297 C296 1.376 . S
C297 C298 1.388 . S
C298 H285 0.930 . S
C298 C297 1.388 . S
C298 C299 1.390 . S
C299 C298 1.390 . S
C299 C300 1.394 . S
C299 C305 1.465 . S
C300 C295 1.399 . S
C300 C299 1.394 . S
C300 C301 1.516 . S
C301 C300 1.516 . S
C301 C302 1.502 . S
C301 C303 1.561 . S
C301 C304 1.526 . S
C302 H286 0.959 . S
C302 H287 0.959 . S
C302 H288 0.961 . S
C302 C301 1.502 . S
C303 H289 0.960 . S
C303 H290 0.961 . S
C303 H291 0.959 . S
C303 C301 1.561 . S
C304 C301 1.526 . S
C304 C305 1.396 . S
C304 C309 1.390 . S
C305 C299 1.465 . S
C305 C304 1.396 . S
C305 C306 1.399 . S
C306 H292 0.929 . S
C306 C305 1.399 . S
C306 C307 1.385 . S
C307 H293 0.931 . S
C307 C306 1.385 . S
C307 C308 1.389 . S
C308 C307 1.389 . S
C308 C309 1.387 . S
C309 H294 0.930 . S
C309 C304 1.390 . S
C309 C308 1.387 . S
H310 C322 0.930 . S
H311 C324 0.930 . S
H312 C325 0.930 . S
H313 C329 0.959 . S
H314 C329 0.959 . S
H315 C329 0.961 . S
H316 C330 0.960 . S
H317 C330 0.961 . S
H318 C330 0.959 . S
H319 C333 0.929 . S
H320 C334 0.931 . S
H321 C336 0.930 . S
C322 H310 0.930 . S
C322 C323 1.399 . S
C322 C327 1.399 . S
C323 C322 1.399 . S
C323 C324 1.376 . S
C324 H311 0.930 . S
C324 C323 1.376 . S
C324 C325 1.388 . S
C325 H312 0.930 . S
C325 C324 1.388 . S
C325 C326 1.390 . S
C326 C325 1.390 . S
C326 C327 1.394 . S
C326 C332 1.465 . S
C327 C322 1.399 . S
C327 C326 1.394 . S
C327 C328 1.516 . S
C328 C327 1.516 . S
C328 C329 1.502 . S
C328 C330 1.561 . S
C328 C331 1.526 . S
C329 H313 0.959 . S
C329 H314 0.959 . S
C329 H315 0.961 . S
C329 C328 1.502 . S
C330 H316 0.960 . S
C330 H317 0.961 . S
C330 H318 0.959 . S
C330 C328 1.561 . S
C331 C328 1.526 . S
C331 C332 1.396 . S
C331 C336 1.390 . S
C332 C326 1.465 . S
C332 C331 1.396 . S
C332 C333 1.399 . S
C333 H319 0.929 . S
C333 C332 1.399 . S
C333 C334 1.385 . S
C334 H320 0.931 . S
C334 C333 1.385 . S
C334 C335 1.389 . S
C335 C334 1.389 . S
C335 C336 1.387 . S
C336 H321 0.930 . S
C336 C331 1.390 . S
C336 C335 1.387 . S
H337 C349 0.930 . S
H338 C351 0.930 . S
H339 C352 0.930 . S
H340 C356 0.959 . S
H341 C356 0.959 . S
H342 C356 0.961 . S
H343 C357 0.960 . S
H344 C357 0.961 . S
H345 C357 0.959 . S
H346 C360 0.929 . S
H347 C361 0.931 . S
H348 C363 0.930 . S
C349 H337 0.930 . S
C349 C350 1.399 . S
C349 C354 1.399 . S
C350 C349 1.399 . S
C350 C351 1.376 . S
C351 H338 0.930 . S
C351 C350 1.376 . S
C351 C352 1.388 . S
C352 H339 0.930 . S
C352 C351 1.388 . S
C352 C353 1.390 . S
C353 C352 1.390 . S
C353 C354 1.394 . S
C353 C359 1.465 . S
C354 C349 1.399 . S
C354 C353 1.394 . S
C354 C355 1.516 . S
C355 C354 1.516 . S
C355 C356 1.502 . S
C355 C357 1.561 . S
C355 C358 1.526 . S
C356 H340 0.959 . S
C356 H341 0.959 . S
C356 H342 0.961 . S
C356 C355 1.502 . S
C357 H343 0.960 . S
C357 H344 0.961 . S
C357 H345 0.959 . S
C357 C355 1.561 . S
C358 C355 1.526 . S
C358 C359 1.396 . S
C358 C363 1.390 . S
C359 C353 1.465 . S
C359 C358 1.396 . S
C359 C360 1.399 . S
C360 H346 0.929 . S
C360 C359 1.399 . S
C360 C361 1.385 . S
C361 H347 0.931 . S
C361 C360 1.385 . S
C361 C362 1.389 . S
C362 C361 1.389 . S
C362 C363 1.387 . S
C363 H348 0.930 . S
C363 C358 1.390 . S
C363 C362 1.387 . S
H364 C376 0.930 . S
H365 C378 0.930 . S
H366 C379 0.930 . S
H367 C383 0.959 . S
H368 C383 0.959 . S
H369 C383 0.961 . S
H370 C384 0.960 . S
H371 C384 0.961 . S
H372 C384 0.959 . S
H373 C387 0.929 . S
H374 C388 0.931 . S
H375 C390 0.930 . S
C376 H364 0.930 . S
C376 C377 1.399 . S
C376 C381 1.399 . S
C377 C376 1.399 . S
C377 C378 1.376 . S
C378 H365 0.930 . S
C378 C377 1.376 . S
C378 C379 1.388 . S
C379 H366 0.930 . S
C379 C378 1.388 . S
C379 C380 1.390 . S
C380 C379 1.390 . S
C380 C381 1.394 . S
C380 C386 1.465 . S
C381 C376 1.399 . S
C381 C380 1.394 . S
C381 C382 1.516 . S
C382 C381 1.516 . S
C382 C383 1.502 . S
C382 C384 1.561 . S
C382 C385 1.526 . S
C383 H367 0.959 . S
C383 H368 0.959 . S
C383 H369 0.961 . S
C383 C382 1.502 . S
C384 H370 0.960 . S
C384 H371 0.961 . S
C384 H372 0.959 . S
C384 C382 1.561 . S
C385 C382 1.526 . S
C385 C386 1.396 . S
C385 C390 1.390 . S
C386 C380 1.465 . S
C386 C385 1.396 . S
C386 C387 1.399 . S
C387 H373 0.929 . S
C387 C386 1.399 . S
C387 C388 1.385 . S
C388 H374 0.931 . S
C388 C387 1.385 . S
C388 C389 1.389 . S
C389 C388 1.389 . S
C389 C390 1.387 . S
C390 H375 0.930 . S
C390 C385 1.390 . S
C390 C389 1.387 . S
H391 C403 0.930 . S
H392 C405 0.930 . S
H393 C406 0.930 . S
H394 C410 0.959 . S
H395 C410 0.959 . S
H396 C410 0.961 . S
H397 C411 0.960 . S
H398 C411 0.961 . S
H399 C411 0.959 . S
H400 C414 0.929 . S
H401 C415 0.931 . S
H402 C417 0.930 . S
C403 H391 0.930 . S
C403 C404 1.399 . S
C403 C408 1.399 . S
C404 C403 1.399 . S
C404 C405 1.376 . S
C405 H392 0.930 . S
C405 C404 1.376 . S
C405 C406 1.388 . S
C406 H393 0.930 . S
C406 C405 1.388 . S
C406 C407 1.390 . S
C407 C406 1.390 . S
C407 C408 1.394 . S
C407 C413 1.465 . S
C408 C403 1.399 . S
C408 C407 1.394 . S
C408 C409 1.516 . S
C409 C408 1.516 . S
C409 C410 1.502 . S
C409 C411 1.561 . S
C409 C412 1.526 . S
C410 H394 0.959 . S
C410 H395 0.959 . S
C410 H396 0.961 . S
C410 C409 1.502 . S
C411 H397 0.960 . S
C411 H398 0.961 . S
C411 H399 0.959 . S
C411 C409 1.561 . S
C412 C409 1.526 . S
C412 C413 1.396 . S
C412 C417 1.390 . S
C413 C407 1.465 . S
C413 C412 1.396 . S
C413 C414 1.399 . S
C414 H400 0.929 . S
C414 C413 1.399 . S
C414 C415 1.385 . S
C415 H401 0.931 . S
C415 C414 1.385 . S
C415 C416 1.389 . S
C416 C415 1.389 . S
C416 C417 1.387 . S
C417 H402 0.930 . S
C417 C412 1.390 . S
C417 C416 1.387 . S
H418 C430 0.930 . S
H419 C432 0.930 . S
H420 C433 0.930 . S
H421 C437 0.959 . S
H422 C437 0.959 . S
H423 C437 0.961 . S
H424 C438 0.960 . S
H425 C438 0.961 . S
H426 C438 0.959 . S
H427 C441 0.929 . S
H428 C442 0.931 . S
H429 C444 0.930 . S
C430 H418 0.930 . S
C430 C431 1.399 . S
C430 C435 1.399 . S
C431 C430 1.399 . S
C431 C432 1.376 . S
C432 H419 0.930 . S
C432 C431 1.376 . S
C432 C433 1.388 . S
C433 H420 0.930 . S
C433 C432 1.388 . S
C433 C434 1.390 . S
C434 C433 1.390 . S
C434 C435 1.394 . S
C434 C440 1.465 . S
C435 C430 1.399 . S
C435 C434 1.394 . S
C435 C436 1.516 . S
C436 C435 1.516 . S
C436 C437 1.502 . S
C436 C438 1.561 . S
C436 C439 1.526 . S
C437 H421 0.959 . S
C437 H422 0.959 . S
C437 H423 0.961 . S
C437 C436 1.502 . S
C438 H424 0.960 . S
C438 H425 0.961 . S
C438 H426 0.959 . S
C438 C436 1.561 . S
C439 C436 1.526 . S
C439 C440 1.396 . S
C439 C444 1.390 . S
C440 C434 1.465 . S
C440 C439 1.396 . S
C440 C441 1.399 . S
C441 H427 0.929 . S
C441 C440 1.399 . S
C441 C442 1.385 . S
C442 H428 0.931 . S
C442 C441 1.385 . S
C442 C443 1.389 . S
C443 C442 1.389 . S
C443 C444 1.387 . S
C444 H429 0.930 . S
C444 C439 1.390 . S
C444 C443 1.387 . S
H445 C457 0.930 . S
H446 C459 0.930 . S
H447 C460 0.930 . S
H448 C464 0.959 . S
H449 C464 0.959 . S
H450 C464 0.961 . S
H451 C465 0.960 . S
H452 C465 0.961 . S
H453 C465 0.959 . S
H454 C468 0.929 . S
H455 C469 0.931 . S
H456 C471 0.930 . S
C457 H445 0.930 . S
C457 C458 1.399 . S
C457 C462 1.399 . S
C458 C457 1.399 . S
C458 C459 1.376 . S
C459 H446 0.930 . S
C459 C458 1.376 . S
C459 C460 1.388 . S
C460 H447 0.930 . S
C460 C459 1.388 . S
C460 C461 1.390 . S
C461 C460 1.390 . S
C461 C462 1.394 . S
C461 C467 1.465 . S
C462 C457 1.399 . S
C462 C461 1.394 . S
C462 C463 1.516 . S
C463 C462 1.516 . S
C463 C464 1.502 . S
C463 C465 1.561 . S
C463 C466 1.526 . S
C464 H448 0.959 . S
C464 H449 0.959 . S
C464 H450 0.961 . S
C464 C463 1.502 . S
C465 H451 0.960 . S
C465 H452 0.961 . S
C465 H453 0.959 . S
C465 C463 1.561 . S
C466 C463 1.526 . S
C466 C467 1.396 . S
C466 C471 1.390 . S
C467 C461 1.465 . S
C467 C466 1.396 . S
C467 C468 1.399 . S
C468 H454 0.929 . S
C468 C467 1.399 . S
C468 C469 1.385 . S
C469 H455 0.931 . S
C469 C468 1.385 . S
C469 C470 1.389 . S
C470 C469 1.389 . S
C470 C471 1.387 . S
C471 H456 0.930 . S
C471 C466 1.390 . S
C471 C470 1.387 . S
H472 C484 0.930 . S
H473 C486 0.930 . S
H474 C487 0.930 . S
H475 C491 0.959 . S
H476 C491 0.959 . S
H477 C491 0.961 . S
H478 C492 0.960 . S
H479 C492 0.961 . S
H480 C492 0.959 . S
H481 C495 0.929 . S
H482 C496 0.931 . S
H483 C498 0.930 . S
C484 H472 0.930 . S
C484 C485 1.399 . S
C484 C489 1.399 . S
C485 C484 1.399 . S
C485 C486 1.376 . S
C486 H473 0.930 . S
C486 C485 1.376 . S
C486 C487 1.388 . S
C487 H474 0.930 . S
C487 C486 1.388 . S
C487 C488 1.390 . S
C488 C487 1.390 . S
C488 C489 1.394 . S
C488 C494 1.465 . S
C489 C484 1.399 . S
C489 C488 1.394 . S
C489 C490 1.516 . S
C490 C489 1.516 . S
C490 C491 1.502 . S
C490 C492 1.561 . S
C490 C493 1.526 . S
C491 H475 0.959 . S
C491 H476 0.959 . S
C491 H477 0.961 . S
C491 C490 1.502 . S
C492 H478 0.960 . S
C492 H479 0.961 . S
C492 H480 0.959 . S
C492 C490 1.561 . S
C493 C490 1.526 . S
C493 C494 1.396 . S
C493 C498 1.390 . S
C494 C488 1.465 . S
C494 C493 1.396 . S
C494 C495 1.399 . S
C495 H481 0.929 . S
C495 C494 1.399 . S
C495 C496 1.385 . S
C496 H482 0.931 . S
C496 C495 1.385 . S
C496 C497 1.389 . S
C497 C496 1.389 . S
C497 C498 1.387 . S
C498 H483 0.930 . S
C498 C493 1.390 . S
C498 C497 1.387 . S
H499 C511 0.930 . S
H500 C513 0.930 . S
H501 C514 0.930 . S
H502 C518 0.959 . S
H503 C518 0.959 . S
H504 C518 0.961 . S
H505 C519 0.960 . S
H506 C519 0.961 . S
H507 C519 0.959 . S
H508 C522 0.929 . S
H509 C523 0.931 . S
H510 C525 0.930 . S
C511 H499 0.930 . S
C511 C512 1.399 . S
C511 C516 1.399 . S
C512 C511 1.399 . S
C512 C513 1.376 . S
C513 H500 0.930 . S
C513 C512 1.376 . S
C513 C514 1.388 . S
C514 H501 0.930 . S
C514 C513 1.388 . S
C514 C515 1.390 . S
C515 C514 1.390 . S
C515 C516 1.394 . S
C515 C521 1.465 . S
C516 C511 1.399 . S
C516 C515 1.394 . S
C516 C517 1.516 . S
C517 C516 1.516 . S
C517 C518 1.502 . S
C517 C519 1.561 . S
C517 C520 1.526 . S
C518 H502 0.959 . S
C518 H503 0.959 . S
C518 H504 0.961 . S
C518 C517 1.502 . S
C519 H505 0.960 . S
C519 H506 0.961 . S
C519 H507 0.959 . S
C519 C517 1.561 . S
C520 C517 1.526 . S
C520 C521 1.396 . S
C520 C525 1.390 . S
C521 C515 1.465 . S
C521 C520 1.396 . S
C521 C522 1.399 . S
C522 H508 0.929 . S
C522 C521 1.399 . S
C522 C523 1.385 . S
C523 H509 0.931 . S
C523 C522 1.385 . S
C523 C524 1.389 . S
C524 C523 1.389 . S
C524 C525 1.387 . S
C525 H510 0.930 . S
C525 C520 1.390 . S
C525 C524 1.387 . S
H526 C538 0.930 . S
H527 C540 0.930 . S
H528 C541 0.930 . S
H529 C545 0.959 . S
H530 C545 0.959 . S
H531 C545 0.961 . S
H532 C546 0.960 . S
H533 C546 0.961 . S
H534 C546 0.959 . S
H535 C549 0.929 . S
H536 C550 0.931 . S
H537 C552 0.930 . S
C538 H526 0.930 . S
C538 C539 1.399 . S
C538 C543 1.399 . S
C539 C538 1.399 . S
C539 C540 1.376 . S
C540 H527 0.930 . S
C540 C539 1.376 . S
C540 C541 1.388 . S
C541 H528 0.930 . S
C541 C540 1.388 . S
C541 C542 1.390 . S
C542 C541 1.390 . S
C542 C543 1.394 . S
C542 C548 1.465 . S
C543 C538 1.399 . S
C543 C542 1.394 . S
C543 C544 1.516 . S
C544 C543 1.516 . S
C544 C545 1.502 . S
C544 C546 1.561 . S
C544 C547 1.526 . S
C545 H529 0.959 . S
C545 H530 0.959 . S
C545 H531 0.961 . S
C545 C544 1.502 . S
C546 H532 0.960 . S
C546 H533 0.961 . S
C546 H534 0.959 . S
C546 C544 1.561 . S
C547 C544 1.526 . S
C547 C548 1.396 . S
C547 C552 1.390 . S
C548 C542 1.465 . S
C548 C547 1.396 . S
C548 C549 1.399 . S
C549 H535 0.929 . S
C549 C548 1.399 . S
C549 C550 1.385 . S
C550 H536 0.931 . S
C550 C549 1.385 . S
C550 C551 1.389 . S
C551 C550 1.389 . S
C551 C552 1.387 . S
C552 H537 0.930 . S
C552 C547 1.390 . S
C552 C551 1.387 . S
H553 C565 0.930 . S
H554 C567 0.930 . S
H555 C568 0.930 . S
H556 C572 0.959 . S
H557 C572 0.959 . S
H558 C572 0.961 . S
H559 C573 0.960 . S
H560 C573 0.961 . S
H561 C573 0.959 . S
H562 C576 0.929 . S
H563 C577 0.931 . S
H564 C579 0.930 . S
C565 H553 0.930 . S
C565 C566 1.399 . S
C565 C570 1.399 . S
C566 C565 1.399 . S
C566 C567 1.376 . S
C567 H554 0.930 . S
C567 C566 1.376 . S
C567 C568 1.388 . S
C568 H555 0.930 . S
C568 C567 1.388 . S
C568 C569 1.390 . S
C569 C568 1.390 . S
C569 C570 1.394 . S
C569 C575 1.465 . S
C570 C565 1.399 . S
C570 C569 1.394 . S
C570 C571 1.516 . S
C571 C570 1.516 . S
C571 C572 1.502 . S
C571 C573 1.561 . S
C571 C574 1.526 . S
C572 H556 0.959 . S
C572 H557 0.959 . S
C572 H558 0.961 . S
C572 C571 1.502 . S
C573 H559 0.960 . S
C573 H560 0.961 . S
C573 H561 0.959 . S
C573 C571 1.561 . S
C574 C571 1.526 . S
C574 C575 1.396 . S
C574 C579 1.390 . S
C575 C569 1.465 . S
C575 C574 1.396 . S
C575 C576 1.399 . S
C576 H562 0.929 . S
C576 C575 1.399 . S
C576 C577 1.385 . S
C577 H563 0.931 . S
C577 C576 1.385 . S
C577 C578 1.389 . S
C578 C577 1.389 . S
C578 C579 1.387 . S
C579 H564 0.930 . S
C579 C574 1.390 . S
C579 C578 1.387 . S
H580 C592 0.930 . S
H581 C594 0.930 . S
H582 C595 0.930 . S
H583 C599 0.959 . S
H584 C599 0.959 . S
H585 C599 0.961 . S
H586 C600 0.960 . S
H587 C600 0.961 . S
H588 C600 0.959 . S
H589 C603 0.929 . S
H590 C604 0.931 . S
H591 C606 0.930 . S
C592 H580 0.930 . S
C592 C593 1.399 . S
C592 C597 1.399 . S
C593 C592 1.399 . S
C593 C594 1.376 . S
C594 H581 0.930 . S
C594 C593 1.376 . S
C594 C595 1.388 . S
C595 H582 0.930 . S
C595 C594 1.388 . S
C595 C596 1.390 . S
C596 C595 1.390 . S
C596 C597 1.394 . S
C596 C602 1.465 . S
C597 C592 1.399 . S
C597 C596 1.394 . S
C597 C598 1.516 . S
C598 C597 1.516 . S
C598 C599 1.502 . S
C598 C600 1.561 . S
C598 C601 1.526 . S
C599 H583 0.959 . S
C599 H584 0.959 . S
C599 H585 0.961 . S
C599 C598 1.502 . S
C600 H586 0.960 . S
C600 H587 0.961 . S
C600 H588 0.959 . S
C600 C598 1.561 . S
C601 C598 1.526 . S
C601 C602 1.396 . S
C601 C606 1.390 . S
C602 C596 1.465 . S
C602 C601 1.396 . S
C602 C603 1.399 . S
C603 H589 0.929 . S
C603 C602 1.399 . S
C603 C604 1.385 . S
C604 H590 0.931 . S
C604 C603 1.385 . S
C604 C605 1.389 . S
C605 C604 1.389 . S
C605 C606 1.387 . S
C606 H591 0.930 . S
C606 C601 1.390 . S
C606 C605 1.387 . S
H607 C619 0.930 . S
H608 C621 0.930 . S
H609 C622 0.930 . S
H610 C626 0.959 . S
H611 C626 0.959 . S
H612 C626 0.961 . S
H613 C627 0.960 . S
H614 C627 0.961 . S
H615 C627 0.959 . S
H616 C630 0.929 . S
H617 C631 0.931 . S
H618 C633 0.930 . S
C619 H607 0.930 . S
C619 C620 1.399 . S
C619 C624 1.399 . S
C620 C619 1.399 . S
C620 C621 1.376 . S
C621 H608 0.930 . S
C621 C620 1.376 . S
C621 C622 1.388 . S
C622 H609 0.930 . S
C622 C621 1.388 . S
C622 C623 1.390 . S
C623 C622 1.390 . S
C623 C624 1.394 . S
C623 C629 1.465 . S
C624 C619 1.399 . S
C624 C623 1.394 . S
C624 C625 1.516 . S
C625 C624 1.516 . S
C625 C626 1.502 . S
C625 C627 1.561 . S
C625 C628 1.526 . S
C626 H610 0.959 . S
C626 H611 0.959 . S
C626 H612 0.961 . S
C626 C625 1.502 . S
C627 H613 0.960 . S
C627 H614 0.961 . S
C627 H615 0.959 . S
C627 C625 1.561 . S
C628 C625 1.526 . S
C628 C629 1.396 . S
C628 C633 1.390 . S
C629 C623 1.465 . S
C629 C628 1.396 . S
C629 C630 1.399 . S
C630 H616 0.929 . S
C630 C629 1.399 . S
C630 C631 1.385 . S
C631 H617 0.931 . S
C631 C630 1.385 . S
C631 C632 1.389 . S
C632 C631 1.389 . S
C632 C633 1.387 . S
C633 H618 0.930 . S
C633 C628 1.390 . S
C633 C632 1.387 . S
H634 C646 0.930 . S
H635 C648 0.930 . S
H636 C649 0.930 . S
H637 C653 0.959 . S
H638 C653 0.959 . S
H639 C653 0.961 . S
H640 C654 0.960 . S
H641 C654 0.961 . S
H642 C654 0.959 . S
H643 C657 0.929 . S
H644 C658 0.931 . S
H645 C660 0.930 . S
C646 H634 0.930 . S
C646 C647 1.399 . S
C646 C651 1.399 . S
C647 C646 1.399 . S
C647 C648 1.376 . S
C648 H635 0.930 . S
C648 C647 1.376 . S
C648 C649 1.388 . S
C649 H636 0.930 . S
C649 C648 1.388 . S
C649 C650 1.390 . S
C650 C649 1.390 . S
C650 C651 1.394 . S
C650 C656 1.465 . S
C651 C646 1.399 . S
C651 C650 1.394 . S
C651 C652 1.516 . S
C652 C651 1.516 . S
C652 C653 1.502 . S
C652 C654 1.561 . S
C652 C655 1.526 . S
C653 H637 0.959 . S
C653 H638 0.959 . S
C653 H639 0.961 . S
C653 C652 1.502 . S
C654 H640 0.960 . S
C654 H641 0.961 . S
C654 H642 0.959 . S
C654 C652 1.561 . S
C655 C652 1.526 . S
C655 C656 1.396 . S
C655 C660 1.390 . S
C656 C650 1.465 . S
C656 C655 1.396 . S
C656 C657 1.399 . S
C657 H643 0.929 . S
C657 C656 1.399 . S
C657 C658 1.385 . S
C658 H644 0.931 . S
C658 C657 1.385 . S
C658 C659 1.389 . S
C659 C658 1.389 . S
C659 C660 1.387 . S
C660 H645 0.930 . S
C660 C655 1.390 . S
C660 C659 1.387 . S
H661 C673 0.930 . S
H662 C675 0.930 . S
H663 C676 0.930 . S
H664 C680 0.959 . S
H665 C680 0.959 . S
H666 C680 0.961 . S
H667 C681 0.960 . S
H668 C681 0.961 . S
H669 C681 0.959 . S
H670 C684 0.929 . S
H671 C685 0.931 . S
H672 C687 0.930 . S
C673 H661 0.930 . S
C673 C674 1.399 . S
C673 C678 1.399 . S
C674 C673 1.399 . S
C674 C675 1.376 . S
C675 H662 0.930 . S
C675 C674 1.376 . S
C675 C676 1.388 . S
C676 H663 0.930 . S
C676 C675 1.388 . S
C676 C677 1.390 . S
C677 C676 1.390 . S
C677 C678 1.394 . S
C677 C683 1.465 . S
C678 C673 1.399 . S
C678 C677 1.394 . S
C678 C679 1.516 . S
C679 C678 1.516 . S
C679 C680 1.502 . S
C679 C681 1.561 . S
C679 C682 1.526 . S
C680 H664 0.959 . S
C680 H665 0.959 . S
C680 H666 0.961 . S
C680 C679 1.502 . S
C681 H667 0.960 . S
C681 H668 0.961 . S
C681 H669 0.959 . S
C681 C679 1.561 . S
C682 C679 1.526 . S
C682 C683 1.396 . S
C682 C687 1.390 . S
C683 C677 1.465 . S
C683 C682 1.396 . S
C683 C684 1.399 . S
C684 H670 0.929 . S
C684 C683 1.399 . S
C684 C685 1.385 . S
C685 H671 0.931 . S
C685 C684 1.385 . S
C685 C686 1.389 . S
C686 C685 1.389 . S
C686 C687 1.387 . S
C687 H672 0.930 . S
C687 C682 1.390 . S
C687 C686 1.387 . S
H688 C700 0.930 . S
H689 C702 0.930 . S
H690 C703 0.930 . S
H691 C707 0.959 . S
H692 C707 0.959 . S
H693 C707 0.961 . S
H694 C708 0.960 . S
H695 C708 0.961 . S
H696 C708 0.959 . S
H697 C711 0.929 . S
H698 C712 0.931 . S
H699 C714 0.930 . S
C700 H688 0.930 . S
C700 C701 1.399 . S
C700 C705 1.399 . S
C701 C700 1.399 . S
C701 C702 1.376 . S
C702 H689 0.930 . S
C702 C701 1.376 . S
C702 C703 1.388 . S
C703 H690 0.930 . S
C703 C702 1.388 . S
C703 C704 1.390 . S
C704 C703 1.390 . S
C704 C705 1.394 . S
C704 C710 1.465 . S
C705 C700 1.399 . S
C705 C704 1.394 . S
C705 C706 1.516 . S
C706 C705 1.516 . S
C706 C707 1.502 . S
C706 C708 1.561 . S
C706 C709 1.526 . S
C707 H691 0.959 . S
C707 H692 0.959 . S
C707 H693 0.961 . S
C707 C706 1.502 . S
C708 H694 0.960 . S
C708 H695 0.961 . S
C708 H696 0.959 . S
C708 C706 1.561 . S
C709 C706 1.526 . S
C709 C710 1.396 . S
C709 C714 1.390 . S
C710 C704 1.465 . S
C710 C709 1.396 . S
C710 C711 1.399 . S
C711 H697 0.929 . S
C711 C710 1.399 . S
C711 C712 1.385 . S
C712 H698 0.931 . S
C712 C711 1.385 . S
C712 C713 1.389 . S
C713 C712 1.389 . S
C713 C714 1.387 . S
C714 H699 0.930 . S
C714 C709 1.390 . S
C714 C713 1.387 . S
H715 C727 0.930 . S
H716 C729 0.930 . S
H717 C730 0.930 . S
H718 C734 0.959 . S
H719 C734 0.959 . S
H720 C734 0.961 . S
H721 C735 0.960 . S
H722 C735 0.961 1_455 S
H723 C735 0.959 1_455 S
H724 C738 0.929 . S
H725 C739 0.931 . S
H726 C741 0.930 . S
C727 H715 0.930 . S
C727 C728 1.399 . S
C727 C732 1.399 . S
C728 C727 1.399 . S
C728 C729 1.376 . S
C729 H716 0.930 . S
C729 C728 1.376 . S
C729 C730 1.388 . S
C730 H717 0.930 . S
C730 C729 1.388 . S
C730 C731 1.390 . S
C731 C730 1.390 . S
C731 C732 1.394 . S
C731 C737 1.465 . S
C732 C727 1.399 . S
C732 C731 1.394 . S
C732 C733 1.516 . S
C733 C732 1.516 . S
C733 C734 1.502 . S
C733 C735 1.561 . S
C733 C736 1.526 . S
C734 H718 0.959 . S
C734 H719 0.959 . S
C734 H720 0.961 . S
C734 C733 1.502 . S
C735 H721 0.960 . S
C735 H722 0.961 1_655 S
C735 H723 0.959 1_655 S
C735 C733 1.561 . S
C736 C733 1.526 . S
C736 C737 1.396 . S
C736 C741 1.390 . S
C737 C731 1.465 . S
C737 C736 1.396 . S
C737 C738 1.399 . S
C738 H724 0.929 . S
C738 C737 1.399 . S
C738 C739 1.385 . S
C739 H725 0.931 . S
C739 C738 1.385 . S
C739 C740 1.389 . S
C740 C739 1.389 . S
C740 C741 1.387 . S
C741 H726 0.930 . S
C741 C736 1.390 . S
C741 C740 1.387 . S
H742 C754 0.930 . S
H743 C756 0.930 . S
H744 C757 0.930 . S
H745 C761 0.959 . S
H746 C761 0.959 . S
H747 C761 0.961 . S
H748 C762 0.960 . S
H749 C762 0.961 . S
H750 C762 0.959 . S
H751 C765 0.929 . S
H752 C766 0.931 . S
H753 C768 0.930 . S
C754 H742 0.930 . S
C754 C755 1.399 . S
C754 C759 1.399 . S
C755 C754 1.399 . S
C755 C756 1.376 . S
C756 H743 0.930 . S
C756 C755 1.376 . S
C756 C757 1.388 . S
C757 H744 0.930 . S
C757 C756 1.388 . S
C757 C758 1.390 . S
C758 C757 1.390 . S
C758 C759 1.394 . S
C758 C764 1.465 . S
C759 C754 1.399 . S
C759 C758 1.394 . S
C759 C760 1.516 . S
C760 C759 1.516 . S
C760 C761 1.502 . S
C760 C762 1.561 . S
C760 C763 1.526 . S
C761 H745 0.959 . S
C761 H746 0.959 . S
C761 H747 0.961 . S
C761 C760 1.502 . S
C762 H748 0.960 . S
C762 H749 0.961 . S
C762 H750 0.959 . S
C762 C760 1.561 . S
C763 C760 1.526 . S
C763 C764 1.396 . S
C763 C768 1.390 . S
C764 C758 1.465 . S
C764 C763 1.396 . S
C764 C765 1.399 . S
C765 H751 0.929 . S
C765 C764 1.399 . S
C765 C766 1.385 . S
C766 H752 0.931 . S
C766 C765 1.385 . S
C766 C767 1.389 . S
C767 C766 1.389 . S
C767 C768 1.387 . S
C768 H753 0.930 . S
C768 C763 1.390 . S
C768 C767 1.387 . S
H769 C781 0.930 . S
H770 C783 0.930 . S
H771 C784 0.930 . S
H772 C788 0.959 . S
H773 C788 0.959 . S
H774 C788 0.961 . S
H775 C789 0.960 . S
H776 C789 0.961 . S
H777 C789 0.959 . S
H778 C792 0.929 . S
H779 C793 0.931 . S
H780 C795 0.930 . S
C781 H769 0.930 . S
C781 C782 1.399 . S
C781 C786 1.399 . S
C782 C781 1.399 . S
C782 C783 1.376 . S
C783 H770 0.930 . S
C783 C782 1.376 . S
C783 C784 1.388 . S
C784 H771 0.930 . S
C784 C783 1.388 . S
C784 C785 1.390 . S
C785 C784 1.390 . S
C785 C786 1.394 . S
C785 C791 1.465 . S
C786 C781 1.399 . S
C786 C785 1.394 . S
C786 C787 1.516 . S
C787 C786 1.516 . S
C787 C788 1.502 . S
C787 C789 1.561 . S
C787 C790 1.526 . S
C788 H772 0.959 . S
C788 H773 0.959 . S
C788 H774 0.961 . S
C788 C787 1.502 . S
C789 H775 0.960 . S
C789 H776 0.961 . S
C789 H777 0.959 . S
C789 C787 1.561 . S
C790 C787 1.526 . S
C790 C791 1.396 . S
C790 C795 1.390 . S
C791 C785 1.465 . S
C791 C790 1.396 . S
C791 C792 1.399 . S
C792 H778 0.929 . S
C792 C791 1.399 . S
C792 C793 1.385 . S
C793 H779 0.931 . S
C793 C792 1.385 . S
C793 C794 1.389 . S
C794 C793 1.389 . S
C794 C795 1.387 . S
C795 H780 0.930 . S
C795 C790 1.390 . S
C795 C794 1.387 . S
H796 C808 0.930 . S
H797 C810 0.930 . S
H798 C811 0.930 . S
H799 C815 0.959 . S
H800 C815 0.959 . S
H801 C815 0.961 . S
H802 C816 0.960 . S
H803 C816 0.961 . S
H804 C816 0.959 . S
H805 C819 0.929 . S
H806 C820 0.931 . S
H807 C822 0.930 . S
C808 H796 0.930 . S
C808 C809 1.399 . S
C808 C813 1.399 . S
C809 C808 1.399 . S
C809 C810 1.376 . S
C810 H797 0.930 . S
C810 C809 1.376 . S
C810 C811 1.388 . S
C811 H798 0.930 . S
C811 C810 1.388 . S
C811 C812 1.390 . S
C812 C811 1.390 . S
C812 C813 1.394 . S
C812 C818 1.465 . S
C813 C808 1.399 . S
C813 C812 1.394 . S
C813 C814 1.516 . S
C814 C813 1.516 . S
C814 C815 1.502 . S
C814 C816 1.561 . S
C814 C817 1.526 . S
C815 H799 0.959 . S
C815 H800 0.959 . S
C815 H801 0.961 . S
C815 C814 1.502 . S
C816 H802 0.960 . S
C816 H803 0.961 . S
C816 H804 0.959 . S
C816 C814 1.561 . S
C817 C814 1.526 . S
C817 C818 1.396 . S
C817 C822 1.390 . S
C818 C812 1.465 . S
C818 C817 1.396 . S
C818 C819 1.399 . S
C819 H805 0.929 . S
C819 C818 1.399 . S
C819 C820 1.385 . S
C820 H806 0.931 . S
C820 C819 1.385 . S
C820 C821 1.389 . S
C821 C820 1.389 . S
C821 C822 1.387 . S
C822 H807 0.930 . S
C822 C817 1.390 . S
C822 C821 1.387 . S
H823 C835 0.930 . S
H824 C837 0.930 . S
H825 C838 0.930 . S
H826 C842 0.959 . S
H827 C842 0.959 . S
H828 C842 0.961 . S
H829 C843 0.960 . S
H830 C843 0.961 . S
H831 C843 0.959 . S
H832 C846 0.929 . S
H833 C847 0.931 . S
H834 C849 0.930 . S
C835 H823 0.930 . S
C835 C836 1.399 . S
C835 C840 1.399 . S
C836 C835 1.399 . S
C836 C837 1.376 . S
C837 H824 0.930 . S
C837 C836 1.376 . S
C837 C838 1.388 . S
C838 H825 0.930 . S
C838 C837 1.388 . S
C838 C839 1.390 . S
C839 C838 1.390 . S
C839 C840 1.394 . S
C839 C845 1.465 . S
C840 C835 1.399 . S
C840 C839 1.394 . S
C840 C841 1.516 . S
C841 C840 1.516 . S
C841 C842 1.502 . S
C841 C843 1.561 . S
C841 C844 1.526 . S
C842 H826 0.959 . S
C842 H827 0.959 . S
C842 H828 0.961 . S
C842 C841 1.502 . S
C843 H829 0.960 . S
C843 H830 0.961 . S
C843 H831 0.959 . S
C843 C841 1.561 . S
C844 C841 1.526 . S
C844 C845 1.396 . S
C844 C849 1.390 . S
C845 C839 1.465 . S
C845 C844 1.396 . S
C845 C846 1.399 . S
C846 H832 0.929 . S
C846 C845 1.399 . S
C846 C847 1.385 . S
C847 H833 0.931 . S
C847 C846 1.385 . S
C847 C848 1.389 . S
C848 C847 1.389 . S
C848 C849 1.387 . S
C849 H834 0.930 . S
C849 C844 1.390 . S
C849 C848 1.387 . S
H850 C862 0.930 . S
H851 C864 0.930 . S
H852 C865 0.930 . S
H853 C869 0.959 . S
H854 C869 0.959 . S
H855 C869 0.961 . S
H856 C870 0.960 . S
H857 C870 0.961 . S
H858 C870 0.959 . S
H859 C873 0.929 . S
H860 C874 0.931 . S
H861 C876 0.930 . S
C862 H850 0.930 . S
C862 C863 1.399 . S
C862 C867 1.399 . S
C863 C862 1.399 . S
C863 C864 1.376 . S
C864 H851 0.930 . S
C864 C863 1.376 . S
C864 C865 1.388 . S
C865 H852 0.930 . S
C865 C864 1.388 . S
C865 C866 1.390 . S
C866 C865 1.390 . S
C866 C867 1.394 . S
C866 C872 1.465 . S
C867 C862 1.399 . S
C867 C866 1.394 . S
C867 C868 1.516 . S
C868 C867 1.516 . S
C868 C869 1.502 . S
C868 C870 1.561 . S
C868 C871 1.526 . S
C869 H853 0.959 . S
C869 H854 0.959 . S
C869 H855 0.961 . S
C869 C868 1.502 . S
C870 H856 0.960 . S
C870 H857 0.961 . S
C870 H858 0.959 . S
C870 C868 1.561 . S
C871 C868 1.526 . S
C871 C872 1.396 . S
C871 C876 1.390 . S
C872 C866 1.465 . S
C872 C871 1.396 . S
C872 C873 1.399 . S
C873 H859 0.929 . S
C873 C872 1.399 . S
C873 C874 1.385 . S
C874 H860 0.931 . S
C874 C873 1.385 . S
C874 C875 1.389 . S
C875 C874 1.389 . S
C875 C876 1.387 . S
C876 H861 0.930 . S
C876 C871 1.390 . S
C876 C875 1.387 . S
H877 C889 0.930 . S
H878 C891 0.930 . S
H879 C892 0.930 . S
H880 C896 0.959 . S
H881 C896 0.959 . S
H882 C896 0.961 . S
H883 C897 0.960 . S
H884 C897 0.961 . S
H885 C897 0.959 . S
H886 C900 0.929 . S
H887 C901 0.931 . S
H888 C903 0.930 . S
C889 H877 0.930 . S
C889 C890 1.399 . S
C889 C894 1.399 . S
C890 C889 1.399 . S
C890 C891 1.376 . S
C891 H878 0.930 . S
C891 C890 1.376 . S
C891 C892 1.388 . S
C892 H879 0.930 . S
C892 C891 1.388 . S
C892 C893 1.390 . S
C893 C892 1.390 . S
C893 C894 1.394 . S
C893 C899 1.465 . S
C894 C889 1.399 . S
C894 C893 1.394 . S
C894 C895 1.516 . S
C895 C894 1.516 . S
C895 C896 1.502 . S
C895 C897 1.561 . S
C895 C898 1.526 . S
C896 H880 0.959 . S
C896 H881 0.959 . S
C896 H882 0.961 . S
C896 C895 1.502 . S
C897 H883 0.960 . S
C897 H884 0.961 . S
C897 H885 0.959 . S
C897 C895 1.561 . S
C898 C895 1.526 . S
C898 C899 1.396 . S
C898 C903 1.390 . S
C899 C893 1.465 . S
C899 C898 1.396 . S
C899 C900 1.399 . S
C900 H886 0.929 . S
C900 C899 1.399 . S
C900 C901 1.385 . S
C901 H887 0.931 . S
C901 C900 1.385 . S
C901 C902 1.389 . S
C902 C901 1.389 . S
C902 C903 1.387 . S
C903 H888 0.930 . S
C903 C898 1.390 . S
C903 C902 1.387 . S
C269 C6 1.076 . S
C281 C111 1.010 . S
C296 C18 1.655 . S
C308 C155 1.660 . S
C335 C185 2.244 . S
C323 C28 2.250 . S
C350 C40 2.133 . S
C362 C226 2.119 . S
C389 C142 1.037 . S
C377 C9 1.036 . S
C416 C106 2.438 . S
C404 C16 2.403 . S
C443 C234 1.074 . S
C431 C30 1.061 . S
C470 C195 1.777 . S
C458 C42 1.860 . S
C485 C4 1.109 . S
C497 C231 1.157 . S
C524 C145 2.122 . S
C512 C33 2.135 . S
C539 C45 1.821 . S
C551 C114 1.768 . S
C566 C21 2.143 . S
C578 C182 2.127 . S
C605 C102 1.031 . S
C593 C57 1.044 . S
C620 C66 1.611 . S
C632 C146 1.648 . S
C647 C76 2.311 . S
C659 C194 2.309 . S
C674 C88 2.023 . S
C686 C235 2.012 . S
C701 C54 1.109 . S
C713 C151 1.059 . S
C740 C115 2.516 . S
C728 C64 2.500 . S
C767 C225 1.010 . S
C755 C78 0.989 . S
C794 C186 1.836 . S
C782 C93 1.888 . S
C809 C52 1.249 . S
C821 C222 1.129 . S
C848 C154 2.128 . S
C836 C81 2.116 . S
C875 C105 1.753 . S
C863 C90 1.776 . S
C890 C69 2.090 . S
C902 C191 2.140 . S
