# Generated by pormake.
# Topology anh, (6,3)-cn, num edge types: 1
# Building blocks:
#     Node 0, Type 0, BuildingBlock: PAMTOO_clean_sbu_0, # of connection points: 6
#     Node 1, Type 0, BuildingBlock: PAMTOO_clean_sbu_0, # of connection points: 6
#     Node 2, Type 0, BuildingBlock: PAMTOO_clean_sbu_0, # of connection points: 6
#     Node 3, Type 1, BuildingBlock: ESEHIV_clean_linker_0, # of connection points: 3
#     Node 4, Type 1, BuildingBlock: ESEHIV_clean_linker_0, # of connection points: 3
#     Node 5, Type 1, BuildingBlock: ESEHIV_clean_linker_0, # of connection points: 3
#     Node 6, Type 1, BuildingBlock: ESEHIV_clean_linker_0, # of connection points: 3
#     Node 7, Type 1, BuildingBlock: ESEHIV_clean_linker_0, # of connection points: 3
#     Node 8, Type 1, BuildingBlock: ESEHIV_clean_linker_0, # of connection points: 3
#     Edge 9, Type (0, 1), BuildingBlock: XIVTED_clean_linker_0, # of connection points: 2
#     Edge 10, Type (0, 1), BuildingBlock: XIVTED_clean_linker_0, # of connection points: 2
#     Edge 11, Type (0, 1), BuildingBlock: XIVTED_clean_linker_0, # of connection points: 2
#     Edge 12, Type (0, 1), BuildingBlock: XIVTED_clean_linker_0, # of connection points: 2
#     Edge 13, Type (0, 1), BuildingBlock: XIVTED_clean_linker_0, # of connection points: 2
#     Edge 14, Type (0, 1), BuildingBlock: XIVTED_clean_linker_0, # of connection points: 2
#     Edge 15, Type (0, 1), BuildingBlock: XIVTED_clean_linker_0, # of connection points: 2
#     Edge 16, Type (0, 1), BuildingBlock: XIVTED_clean_linker_0, # of connection points: 2
#     Edge 17, Type (0, 1), BuildingBlock: XIVTED_clean_linker_0, # of connection points: 2
#     Edge 18, Type (0, 1), BuildingBlock: XIVTED_clean_linker_0, # of connection points: 2
#     Edge 19, Type (0, 1), BuildingBlock: XIVTED_clean_linker_0, # of connection points: 2
#     Edge 20, Type (0, 1), BuildingBlock: XIVTED_clean_linker_0, # of connection points: 2
#     Edge 21, Type (0, 1), BuildingBlock: XIVTED_clean_linker_0, # of connection points: 2
#     Edge 22, Type (0, 1), BuildingBlock: XIVTED_clean_linker_0, # of connection points: 2
#     Edge 23, Type (0, 1), BuildingBlock: XIVTED_clean_linker_0, # of connection points: 2
#     Edge 24, Type (0, 1), BuildingBlock: XIVTED_clean_linker_0, # of connection points: 2
#     Edge 25, Type (0, 1), BuildingBlock: XIVTED_clean_linker_0, # of connection points: 2
#     Edge 26, Type (0, 1), BuildingBlock: XIVTED_clean_linker_0, # of connection points: 2
# Relax obj value: 0.215
# Max RMSD: 0.209
# Mean RMSD: 0.165
data_MOF--net-anh--node1-PAMTOO_clean_sbu_0--node2-ESEHIV_clean_linker_0--edge1-XIVTED_clean_linker_0
_symmetry_space_group_name_H-M    P1
_symmetry_Int_Tables_number       1
_symmetry_cell_setting            triclinic
loop_
_symmetry_equiv_pos_as_xyz
'x, y, z'
_cell_length_a     27.954392
_cell_length_b     27.466938
_cell_length_c     52.208879
_cell_angle_alpha  90.265205
_cell_angle_beta   94.01492
_cell_angle_gamma 101.22585
loop_
_atom_site_label
_atom_site_type_symbol
_atom_site_fract_x
_atom_site_fract_y
_atom_site_fract_z
_atom_type_partial_charge
Dy0 Dy 0.08591 0.61152 0.1426 0.0
Dy1 Dy 1.06111 0.48981 0.13564 0.0
C2 C 1.07313 0.56083 0.08835 0.0
O3 O 1.00533 0.59205 0.14829 0.0
O4 O 0.98822 0.51288 0.13085 0.0
O5 O 0.11253 0.68237 0.12584 0.0
O6 O 0.09002 0.67912 0.16474 0.0
O7 O 1.04835 0.50716 0.17607 0.0
O8 O 0.10397 0.58005 0.18042 0.0
O9 O 0.14242 0.50709 0.1446 0.0
O10 O 0.15824 0.59057 0.13606 0.0
O11 O 1.06572 0.41653 0.14909 0.0
O12 O 1.02626 0.42536 0.11273 0.0
C13 C 0.97379 0.55206 0.13993 0.0
O14 O 1.05628 0.59231 0.10242 0.0
O15 O 0.0875 0.52237 0.09887 0.0
C16 C 0.15954 0.7381 0.15598 0.0
C17 C 0.25145 0.79713 0.17122 0.0
C18 C 0.24499 0.74503 0.17047 0.0
C19 C 0.19946 0.71587 0.16305 0.0
C20 C 0.16555 0.78992 0.15651 0.0
C21 C 0.21118 0.81929 0.16413 0.0
C22 C 0.11241 0.70686 0.14728 0.0
C23 C 1.07665 0.54178 0.19055 0.0
C24 C 0.17334 0.54871 0.14081 0.0
C25 C 0.99282 0.35976 0.13868 0.0
C26 C 0.91244 0.29402 0.15683 0.0
C27 C 0.91492 0.34565 0.15794 0.0
C28 C 0.95483 0.37816 0.14907 0.0
C29 C 0.99029 0.3084 0.13701 0.0
C30 C 0.95034 0.2757 0.14601 0.0
C31 C 1.03555 0.3945 0.13048 0.0
H32 H 0.27526 0.72666 0.17534 0.0
H33 H 0.19546 0.67585 0.16267 0.0
H34 H 0.13504 0.80762 0.15104 0.0
H35 H 0.21474 0.85925 0.16478 0.0
H36 H 0.88606 0.36104 0.16575 0.0
H37 H 0.95633 0.41778 0.1506 0.0
H38 H 1.01949 0.29366 0.12914 0.0
H39 H 0.94982 0.2362 0.14513 0.0
Dy40 Dy 0.5713 0.01702 0.52103 0.0
Dy41 Dy 0.69162 0.03698 0.52776 0.0
C42 C 0.62839 0.02787 0.57548 0.0
O43 O 0.5939 0.09772 0.51288 0.0
O44 O 0.6715 0.11123 0.53271 0.0
O45 O 0.50255 0.996 0.53816 0.0
O46 O 0.50352 0.01532 0.49796 0.0
O47 O 0.66896 0.05384 0.48753 0.0
O48 O 0.59849 0.99592 0.48423 0.0
O49 O 0.66957 0.95475 0.52094 0.0
O50 O 0.58898 0.94312 0.5305 0.0
O51 O 0.76061 0.02814 0.51415 0.0
O52 O 0.7592 0.07172 0.54873 0.0
C53 C 0.63378 0.12788 0.52223 0.0
O54 O 0.59601 0.0455 0.56078 0.0
O55 O 0.66422 0.01164 0.5655 0.0
C56 C 0.43942 0.95128 0.50956 0.0
C57 C 0.36791 0.86579 0.49562 0.0
C58 C 0.40159 0.86539 0.51691 0.0
C59 C 0.43707 0.90757 0.52374 0.0
C60 C 0.40571 0.95192 0.48844 0.0
C61 C 0.3705 0.90962 0.48146 0.0
C62 C 0.47686 0.99617 0.51632 0.0
C63 C 0.63447 0.0244 0.47348 0.0
C64 C 0.62814 0.92557 0.52593 0.0
C65 C 0.81867 0.10275 0.52027 0.0
C66 C 0.87669 0.18965 0.50199 0.0
C67 C 0.83419 0.16544 0.48763 0.0
C68 C 0.80533 0.12274 0.49675 0.0
C69 C 0.86153 0.126 0.53446 0.0
C70 C 0.89037 0.1691 0.5254 0.0
C71 C 0.7858 0.06037 0.53089 0.0
H72 H 0.40035 0.83262 0.52848 0.0
H73 H 0.46262 0.90581 0.54014 0.0
H74 H 0.40689 0.98511 0.47717 0.0
H75 H 0.34583 0.91112 0.46467 0.0
H76 H 0.82298 0.17957 0.46931 0.0
H77 H 0.77211 0.1058 0.48555 0.0
H78 H 0.87206 0.11148 0.55282 0.0
H79 H 0.92257 0.18704 0.53708 0.0
Dy80 Dy 0.61891 0.48248 0.84027 0.0
Dy81 Dy 0.50146 0.47328 0.8319 0.0
C82 C 0.56838 0.47895 0.78562 0.0
O83 O 0.60853 0.5603 0.83203 0.0
O84 O 0.52925 0.5531 0.8425 0.0
O85 O 0.69092 0.5118 0.82863 0.0
O86 O 0.68175 0.46355 0.86157 0.0
O87 O 0.51757 0.45992 0.87365 0.0
O88 O 0.59472 0.50708 0.8769 0.0
O89 O 0.51129 0.39507 0.82631 0.0
O90 O 0.58721 0.40285 0.84754 0.0
O91 O 0.4302 0.47381 0.84524 0.0
O92 O 0.43843 0.46632 0.8046 0.0
C93 C 0.57124 0.5805 0.83731 0.0
O94 O 0.59705 0.4565 0.80006 0.0
O95 O 0.53651 0.50037 0.79614 0.0
C96 C 0.74656 0.45785 0.83571 0.0
C97 C 0.8242 0.42044 0.81671 0.0
C98 C 0.7839 0.42618 0.80012 0.0
C99 C 0.74525 0.4447 0.80957 0.0
C100 C 0.78424 0.44767 0.8526 0.0
C101 C 0.82261 0.42894 0.84325 0.0
C102 C 0.71178 0.48601 0.84539 0.0
C103 C 0.55509 0.48569 0.88754 0.0
C104 C 0.54671 0.37524 0.83714 0.0
C105 C 0.39457 0.52641 0.81717 0.0
C106 C 0.37638 0.6224 0.80686 0.0
C107 C 0.39032 0.60938 0.8319 0.0
C108 C 0.39923 0.56217 0.83699 0.0
C109 C 0.38011 0.539 0.79211 0.0
C110 C 0.37095 0.58652 0.787 0.0
C111 C 0.41187 0.47944 0.82199 0.0
H112 H 0.78384 0.41954 0.77965 0.0
H113 H 0.71585 0.45133 0.79622 0.0
H114 H 0.78559 0.45711 0.87286 0.0
H115 H 0.85313 0.42561 0.85665 0.0
H116 H 0.39323 0.63534 0.84788 0.0
H117 H 0.41065 0.5542 0.85652 0.0
H118 H 0.37687 0.51241 0.77639 0.0
H119 H 0.3597 0.59522 0.76756 0.0
H120 H 0.55017 0.97683 0.27818 0.0
H121 H 0.6848 0.08322 0.27765 0.0
H122 H 0.6 0.03657 0.20667 0.0
C123 C 0.5777 1.00025 0.26771 0.0
C124 C 0.57108 1.00195 0.24085 0.0
C125 C 0.61841 0.02952 0.28124 0.0
C126 C 0.65254 0.0614 0.26748 0.0
C127 C 0.64604 0.06465 0.24063 0.0
C128 C 0.60524 0.03454 0.22738 0.0
H129 H 0.60982 0.59317 0.59679 0.0
H130 H 0.62875 0.442 0.59242 0.0
H131 H 0.63442 0.52991 0.52429 0.0
C132 C 0.61563 0.56177 0.58558 0.0
C133 C 0.62148 0.567 0.55914 0.0
C134 C 0.61866 0.51706 0.59781 0.0
C135 C 0.62746 0.47716 0.58329 0.0
C136 C 0.63299 0.48137 0.55687 0.0
C137 C 0.63021 0.52649 0.54471 0.0
H138 H 1.07882 0.56493 0.89303 0.0
H139 H 0.1668 0.71046 0.90733 0.0
H140 H 0.13924 0.64937 0.83021 0.0
C141 C 0.10072 0.59844 0.88591 0.0
C142 C 0.10615 0.60307 0.85952 0.0
C143 C 0.12247 0.63681 0.90327 0.0
C144 C 0.14909 0.68115 0.89393 0.0
C145 C 0.15524 0.68643 0.86745 0.0
C146 C 0.13317 0.64711 0.85047 0.0
H147 H 1.04163 0.46067 0.38609 0.0
H148 H 0.14346 0.60008 0.38653 0.0
H149 H 0.1092 0.52809 0.45763 0.0
C150 C 1.06651 0.49066 0.39644 0.0
C151 C 1.07282 0.4893 0.42337 0.0
C152 C 0.09179 0.53044 0.38286 0.0
C153 C 0.12304 0.56943 0.39668 0.0
C154 C 0.12926 0.56899 0.42356 0.0
C155 C 0.10483 0.52835 0.43684 0.0
H156 H 0.56589 0.06199 0.76769 0.0
H157 H 0.59347 0.91383 0.76559 0.0
H158 H 0.55752 0.97532 0.83632 0.0
C159 C 0.56806 0.02744 0.77728 0.0
C160 C 0.55971 0.02329 0.80342 0.0
C161 C 0.5806 0.98845 0.76355 0.0
C162 C 0.58495 0.94458 0.7763 0.0
C163 C 0.57654 0.93914 0.80249 0.0
C164 C 0.56392 0.97888 0.81612 0.0
H165 H 0.48695 0.53594 0.08109 0.0
H166 H 0.63992 0.53233 0.0822 0.0
H167 H 0.57477 0.55105 0.15309 0.0
C168 C 0.52195 0.53729 0.09173 0.0
C169 C 0.52549 0.54352 0.11855 0.0
C170 C 0.56304 0.53385 0.07848 0.0
C171 C 0.60817 0.53593 0.09234 0.0
C172 C 0.61318 0.54213 0.11912 0.0
C173 C 0.57155 0.54634 0.1324 0.0
H174 H 0.21948 0.46904 0.14709 0.0
H175 H 0.48855 0.62636 0.12788 0.0
H176 H 0.25034 0.62736 0.136 0.0
H177 H 0.45594 0.46734 0.13383 0.0
H178 H 0.40365 0.62881 0.13636 0.0
H179 H 0.30694 0.46877 0.14685 0.0
C180 C 0.24452 0.50385 0.14469 0.0
C181 C 0.22698 0.54826 0.14141 0.0
C182 C 0.41519 0.5934 0.13637 0.0
C183 C 0.32807 0.54818 0.14122 0.0
C184 C 0.46389 0.59213 0.13191 0.0
C185 C 0.47964 0.5467 0.13082 0.0
C186 C 0.3816 0.5488 0.13945 0.0
C187 C 0.44561 0.50322 0.13516 0.0
C188 C 0.29466 0.50364 0.14458 0.0
C189 C 0.26173 0.5921 0.13847 0.0
N190 N 0.39829 0.50529 0.1391 0.0
N191 N 0.31032 0.5909 0.13837 0.0
H192 H 0.84279 0.26613 0.47806 0.0
H193 H 0.10656 0.43332 0.4614 0.0
H194 H 0.97686 0.22081 0.50485 0.0
H195 H 0.97515 0.45075 0.41698 0.0
H196 H 1.05917 0.3621 0.48271 0.0
H197 H 0.89056 0.34073 0.46064 0.0
C198 C 0.8823 0.27166 0.48019 0.0
C199 C 0.90577 0.23658 0.49263 0.0
C200 C 1.04079 0.38163 0.46833 0.0
C201 C 0.9608 0.32278 0.47309 0.0
C202 C 1.0677 0.42232 0.45629 0.0
C203 C 1.04472 0.4476 0.4373 0.0
C204 C 0.99051 0.3667 0.46153 0.0
C205 C 0.99437 0.43182 0.43128 0.0
C206 C 0.90956 0.31448 0.47034 0.0
C207 C 0.95714 0.2468 0.4955 0.0
N208 N 0.96897 0.39244 0.44336 0.0
N209 N 0.98297 0.28891 0.48571 0.0
H210 H 0.65055 0.65121 0.82581 0.0
H211 H 0.50803 0.87825 0.82922 0.0
H212 H 0.50173 0.63538 0.8468 0.0
H213 H 0.65169 0.8891 0.80201 0.0
H214 H 0.50866 0.79194 0.84135 0.0
H215 H 0.65492 0.74063 0.82205 0.0
C216 C 0.61886 0.66646 0.82978 0.0
C217 C 0.57562 0.6354 0.83648 0.0
C218 C 0.54035 0.81344 0.83307 0.0
C219 C 0.58034 0.73823 0.83215 0.0
C220 C 0.54014 0.86283 0.82639 0.0
C221 C 0.5798 0.89076 0.81454 0.0
C222 C 0.58064 0.79202 0.82798 0.0
C223 C 0.62023 0.86873 0.81096 0.0
C224 C 0.62136 0.71765 0.82762 0.0
C225 C 0.5358 0.65763 0.84145 0.0
N226 N 0.61947 0.82073 0.81746 0.0
N227 N 0.53904 0.70751 0.83906 0.0
H228 H 0.89866 0.47208 0.13034 0.0
H229 H 0.68126 0.62256 0.13802 0.0
H230 H 0.92521 0.62769 0.15123 0.0
H231 H 0.65958 0.46448 0.12594 0.0
H232 H 0.76969 0.62552 0.14629 0.0
H233 H 0.81108 0.469 0.13089 0.0
C234 C 0.88624 0.50576 0.13507 0.0
C235 C 0.91992 0.55033 0.14062 0.0
C236 C 0.74549 0.59001 0.14244 0.0
C237 C 0.81829 0.54697 0.14124 0.0
C238 C 0.69491 0.58826 0.1381 0.0
C239 C 0.66285 0.54304 0.13185 0.0
C240 C 0.76427 0.54628 0.14013 0.0
C241 C 0.68282 0.49995 0.13121 0.0
C242 C 0.83589 0.50388 0.13547 0.0
C243 C 0.90091 0.59249 0.14675 0.0
N244 N 0.732 0.50269 0.13502 0.0
N245 N 0.85152 0.58986 0.14672 0.0
H246 H 0.37773 0.76798 0.49731 0.0
H247 H 0.12452 0.66632 0.41829 0.0
H248 H 0.27287 0.8602 0.47647 0.0
H249 H 0.20505 0.5694 0.45996 0.0
H250 H 0.18029 0.73808 0.43835 0.0
H251 H 0.31682 0.69483 0.48302 0.0
C252 C 0.34181 0.77295 0.49001 0.0
C253 C 0.33068 0.82061 0.48797 0.0
C254 C 0.1856 0.70117 0.44332 0.0
C255 C 0.26111 0.73687 0.47112 0.0
C256 C 0.15391 0.66028 0.43182 0.0
C257 C 0.16051 0.61206 0.43743 0.0
C258 C 0.22469 0.69387 0.46029 0.0
C259 C 0.1988 0.60609 0.45522 0.0
C260 C 0.30712 0.73109 0.48176 0.0
C261 C 0.28364 0.82449 0.47792 0.0
N262 N 0.22991 0.64663 0.46584 0.0
N263 N 0.2508 0.78328 0.4697 0.0
H264 H 0.47188 0.3041 0.81501 0.0
H265 H 0.61301 0.07985 0.84282 0.0
H266 H 0.61097 0.32062 0.85893 0.0
H267 H 0.48253 0.06833 0.79235 0.0
H268 H 0.60504 0.16406 0.85553 0.0
H269 H 0.46824 0.21451 0.81242 0.0
C270 C 0.5015 0.28897 0.82429 0.0
C271 C 0.54201 0.32027 0.83699 0.0
C272 C 0.57756 0.14273 0.84208 0.0
C273 C 0.53806 0.2173 0.8341 0.0
C274 C 0.5818 0.09447 0.8351 0.0
C275 C 0.54827 0.06718 0.81661 0.0
C276 C 0.53954 0.16372 0.83041 0.0
C277 C 0.50904 0.0882 0.80674 0.0
C278 C 0.49939 0.23769 0.82281 0.0
C279 C 0.57915 0.29819 0.84874 0.0
N280 N 0.50603 0.1353 0.81354 0.0
N281 N 0.57643 0.24825 0.84686 0.0
H282 H 0.54865 0.85403 0.53514 0.0
H283 H 0.68998 0.62672 0.53205 0.0
H284 H 0.7003 0.87217 0.51863 0.0
H285 H 0.54788 0.61838 0.56079 0.0
H286 H 0.69048 0.71347 0.5202 0.0
H287 H 0.54435 0.76496 0.53826 0.0
C288 C 0.58114 0.83938 0.53211 0.0
C289 C 0.62511 0.87099 0.52687 0.0
C290 C 0.65894 0.6924 0.52878 0.0
C291 C 0.62025 0.76825 0.53038 0.0
C292 C 0.65847 0.64286 0.53529 0.0
C293 C 0.61889 0.6156 0.54745 0.0
C294 C 0.61936 0.71447 0.53434 0.0
C295 C 0.5792 0.63829 0.55156 0.0
C296 C 0.57858 0.78831 0.53388 0.0
C297 C 0.66572 0.84939 0.5229 0.0
N298 N 0.58057 0.68638 0.54517 0.0
N299 N 0.66239 0.79939 0.52486 0.0
H300 H 0.8648 0.46898 0.77546 0.0
H301 H 0.10038 0.50273 0.86514 0.0
H302 H 0.89389 0.36804 0.83497 0.0
H303 H 1.05793 0.61014 0.8126 0.0
H304 H 1.0442 0.43685 0.84063 0.0
H305 H 0.95205 0.49811 0.77339 0.0
C306 C 0.88942 0.45117 0.78734 0.0
C307 C 0.87198 0.41807 0.80654 0.0
C308 C 1.04818 0.47467 0.83404 0.0
C309 C 0.97187 0.453 0.80497 0.0
C310 C 1.07985 0.51235 0.84818 0.0
C311 C 1.08217 0.5622 0.84153 0.0
C312 C 1.01822 0.48709 0.81336 0.0
C313 C 1.05648 0.57236 0.81878 0.0
C314 C 0.93953 0.46835 0.78633 0.0
C315 C 0.90592 0.39566 0.82086 0.0
N316 N 1.02463 0.53526 0.80588 0.0
N317 N 0.95442 0.41497 0.82056 0.0
H318 H 0.29719 0.88624 0.15215 0.0
H319 H 0.53523 0.90414 0.24894 0.0
H320 H 0.31636 0.77809 0.20981 0.0
H321 H 0.50823 0.02657 0.20229 0.0
H322 H 0.45903 0.85378 0.23049 0.0
H323 H 0.37739 0.93541 0.16678 0.0
C324 C 0.31808 0.87289 0.16792 0.0
C325 C 0.29991 0.82782 0.17972 0.0
C326 C 0.46973 0.89159 0.22416 0.0
C327 C 0.39194 0.88349 0.19621 0.0
C328 C 0.51324 0.92037 0.23471 0.0
C329 C 0.52774 0.96981 0.22738 0.0
C330 C 0.44027 0.91225 0.20608 0.0
C331 C 0.49839 0.98858 0.20845 0.0
C332 C 0.36398 0.90083 0.17613 0.0
C333 C 0.32903 0.81207 0.19981 0.0
N334 N 0.45575 0.95986 0.19856 0.0
N335 N 0.37346 0.83982 0.20737 0.0
H336 H 0.56186 0.17843 0.50548 0.0
H337 H 0.71336 0.43959 0.55961 0.0
H338 H 0.71123 0.20196 0.53775 0.0
H339 H 0.56692 0.42041 0.52428 0.0
H340 H 0.71687 0.35501 0.54615 0.0
H341 H 0.56562 0.26818 0.50746 0.0
C342 C 0.59554 0.20238 0.51283 0.0
C343 C 0.63608 0.18237 0.52177 0.0
C344 C 0.68426 0.36945 0.5408 0.0
C345 C 0.64064 0.28532 0.52402 0.0
C346 C 0.68254 0.41789 0.54826 0.0
C347 C 0.64004 0.4369 0.54274 0.0
C348 C 0.64274 0.33939 0.52818 0.0
C349 C 0.60058 0.40713 0.52853 0.0
C350 C 0.59769 0.2537 0.5139 0.0
C351 C 0.67881 0.21544 0.53092 0.0
N352 N 0.60258 0.35951 0.52204 0.0
N353 N 0.67981 0.26508 0.53198 0.0
H354 H 0.41996 0.71454 0.82722 0.0
H355 H 0.24476 0.73048 0.89025 0.0
H356 H 0.29727 0.64133 0.77736 0.0
H357 H 0.15034 0.73682 0.82193 0.0
H358 H 0.31472 0.76084 0.86635 0.0
H359 H 0.37429 0.77908 0.83677 0.0
C360 C 0.384 0.71284 0.81764 0.0
C361 C 0.36089 0.67069 0.80293 0.0
C362 C 0.27883 0.75793 0.85655 0.0
C363 C 0.3086 0.74341 0.81411 0.0
C364 C 0.23836 0.74043 0.87044 0.0
C365 C 0.19176 0.72757 0.8576 0.0
C366 C 0.27242 0.76028 0.82961 0.0
C367 C 0.18615 0.74296 0.83212 0.0
C368 C 0.358 0.74973 0.82309 0.0
C369 C 0.31569 0.67189 0.78979 0.0
N370 N 0.2262 0.75619 0.81853 0.0
N371 N 0.29026 0.70681 0.79636 0.0
H372 H 0.8624 0.20313 0.13787 0.0
H373 H 0.68771 0.16035 0.25429 0.0
H374 H 0.86893 0.30678 0.20104 0.0
H375 H 0.68641 0.04919 0.19542 0.0
H376 H 0.75083 0.2163 0.2331 0.0
H377 H 0.79533 0.14757 0.15701 0.0
C378 C 0.84985 0.21418 0.15577 0.0
C379 C 0.8713 0.25983 0.16781 0.0
C380 C 0.73677 0.17974 0.22473 0.0
C381 C 0.79433 0.19669 0.18964 0.0
C382 C 0.70081 0.14768 0.23689 0.0
C383 C 0.68211 0.09982 0.22676 0.0
C384 C 0.75437 0.16399 0.2022 0.0
C385 C 0.69969 0.08584 0.20383 0.0
C386 C 0.8114 0.18256 0.16659 0.0
C387 C 0.85308 0.27242 0.19081 0.0
N388 N 0.73508 0.1177 0.19239 0.0
N389 N 0.81579 0.24107 0.20094 0.0
H390 H 0.10558 0.50371 0.05276 0.0
H391 H 0.10008 0.69968 0.93972 0.0
H392 H 1.05618 0.64197 0.0615 0.0
H393 H 0.13631 0.55533 0.93014 0.0
H394 H 0.0884 0.68183 0.98514 0.0
H395 H 0.12008 0.52378 0.00812 0.0
C396 C 0.09755 0.53818 0.04527 0.0
C397 C 1.07953 0.57113 0.0609 0.0
C398 C 0.09898 0.65413 0.97308 0.0
C399 C 0.09646 0.5946 0.00982 0.0
C400 C 0.10596 0.66447 0.94725 0.0
C401 C 0.11869 0.62875 0.93116 0.0
C402 C 0.10513 0.6079 0.98282 0.0
C403 C 0.12567 0.58359 0.94181 0.0
C404 C 0.10595 0.5497 0.01978 0.0
C405 C 1.06994 0.61535 0.05014 0.0
N406 N 0.11868 0.57443 0.96691 0.0
N407 N 1.07863 0.62584 0.02529 0.0
H408 H 0.68895 0.09299 0.44398 0.0
H409 H 0.59722 0.9478 0.31162 0.0
H410 H 0.58216 0.95601 0.43877 0.0
H411 H 0.65372 0.10589 0.31598 0.0
H412 H 0.60294 0.94571 0.35844 0.0
H413 H 0.68811 0.09355 0.39708 0.0
C414 C 0.66551 0.06292 0.43299 0.0
C415 C 0.6354 0.02447 0.44526 0.0
C416 C 0.61414 0.98079 0.34909 0.0
C417 C 0.63464 0.02477 0.39175 0.0
C418 C 0.61068 0.98213 0.32235 0.0
C419 C 0.62455 0.02721 0.30972 0.0
C420 C 0.63221 0.02466 0.36338 0.0
C421 C 0.64305 0.07019 0.32478 0.0
C422 C 0.66495 0.06339 0.40625 0.0
C423 C 0.60571 0.98651 0.43007 0.0
N424 N 0.64632 0.06785 0.35082 0.0
N425 N 0.60619 0.98753 0.40408 0.0
H426 H 0.51575 0.52396 0.7501 0.0
H427 H 0.67131 0.47199 0.63345 0.0
H428 H 0.63505 0.44482 0.75781 0.0
H429 H 0.5511 0.54975 0.62562 0.0
H430 H 0.65854 0.46158 0.67905 0.0
H431 H 0.52801 0.53355 0.70444 0.0
C432 C 0.54446 0.50847 0.74219 0.0
C433 C 0.57445 0.48355 0.75781 0.0
C434 C 0.63496 0.48095 0.66738 0.0
C435 C 0.58875 0.49454 0.70553 0.0
C436 C 0.6421 0.48672 0.64132 0.0
C437 C 0.61215 0.51169 0.62569 0.0
C438 C 0.59756 0.50024 0.67794 0.0
C439 C 0.57539 0.53073 0.63701 0.0
C440 C 0.55147 0.51402 0.7161 0.0
C441 C 0.61104 0.46426 0.74649 0.0
N442 N 0.56907 0.52452 0.66243 0.0
N443 N 0.6172 0.47023 0.72104 0.0
H444 H 0.55933 0.05899 0.60258 0.0
H445 H 0.65276 0.95988 0.73738 0.0
H446 H 0.6848 0.98888 0.61206 0.0
H447 H 0.52697 0.02909 0.72659 0.0
H448 H 0.66585 0.97043 0.6917 0.0
H449 H 0.54838 0.04977 0.6483 0.0
C450 C 0.58475 0.04182 0.61429 0.0
C451 C 0.62303 0.02462 0.60343 0.0
C452 C 0.63542 0.98333 0.69935 0.0
C453 C 0.61049 0.01368 0.65591 0.0
C454 C 0.62775 0.97703 0.72537 0.0
C455 C 0.58876 0.99372 0.73583 0.0
C456 C 0.60381 0.00638 0.68366 0.0
C457 C 0.55788 0.01628 0.71945 0.0
C458 C 0.57841 0.03649 0.64043 0.0
C459 C 0.65479 0.00269 0.6196 0.0
N460 N 0.56607 0.02192 0.69422 0.0
N461 N 0.64773 0.99773 0.64504 0.0
H462 H 0.48245 0.44422 0.91854 0.0
H463 H 0.6259 0.5822 0.04506 0.0
H464 H 0.62336 0.54291 0.92042 0.0
H465 H 0.49181 0.47396 0.04725 0.0
H466 H 0.62206 0.57097 -0.00135 0.0
H467 H 0.48179 0.45701 0.9651 0.0
C468 C 0.51316 0.46853 0.92869 0.0
C469 C 0.55309 0.49236 0.91555 0.0
C470 C 0.59337 0.5496 0.0092 0.0
C471 C 0.55245 0.50726 0.96858 0.0
C472 C 0.59569 0.55588 0.03575 0.0
C473 C 0.55939 0.52862 0.05008 0.0
C474 C 0.55443 0.51579 -0.00327 0.0
C475 C 0.52047 0.49587 0.0369 0.0
C476 C 0.51276 0.4758 0.95523 0.0
C477 C 0.59185 0.52352 0.92966 0.0
N478 N 0.5191 0.49017 0.01093 0.0
N479 N 0.5905 0.53 0.95532 0.0
H480 H 1.04413 0.46018 0.21925 0.0
H481 H 0.08817 0.61093 0.3523 0.0
H482 H 0.11 0.61592 0.22609 0.0
H483 H 1.08155 0.45259 0.34814 0.0
H484 H 1.08352 0.61301 0.30554 0.0
H485 H 1.04524 0.45636 0.26622 0.0
C486 C 1.05873 0.49354 0.23061 0.0
C487 C 1.07714 0.53841 0.21878 0.0
C488 C 1.08307 0.57783 0.3149 0.0
C489 C 1.07794 0.53436 0.27227 0.0
C490 C 0.08597 0.57658 0.34162 0.0
C491 C 0.08588 0.53158 0.35432 0.0
C492 C 1.07935 0.53371 0.30063 0.0
C493 C 1.08136 0.48809 0.33928 0.0
C494 C 1.05946 0.49127 0.25736 0.0
C495 C 0.09571 0.58048 0.2344 0.0
N496 N 1.07829 0.49023 0.31321 0.0
N497 N 0.0954 0.57748 0.26033 0.0
loop_
_geom_bond_atom_site_label_1
_geom_bond_atom_site_label_2
_geom_bond_distance
_geom_bond_site_symmetry_2
_ccdc_geom_bond_type
Dy0 O3 2.307 1_455 S
Dy0 O5 2.395 . S
Dy0 O6 2.379 . S
Dy0 O8 2.339 . S
Dy0 O10 2.298 . S
Dy0 O14 2.275 . S
Dy0 C22 2.738 . S
Dy1 O4 2.298 . S
Dy1 O7 2.275 1_655 S
Dy1 O9 2.307 1_655 S
Dy1 O11 2.395 . S
Dy1 O12 2.379 . S
Dy1 O15 2.339 . S
Dy1 C31 2.738 . S
C2 O14 1.254 . S
C2 O15 1.257 1_455 S
O3 Dy0 2.307 1_655 S
O3 C13 1.266 . S
O4 Dy1 2.298 . S
O4 C13 1.236 . S
O5 Dy0 2.395 . S
O5 C22 1.255 . S
O6 Dy0 2.379 . S
O6 C22 1.249 . S
O7 Dy1 2.275 1_455 S
O7 C23 1.254 . S
O8 Dy0 2.339 . S
O8 C23 1.257 . S
O9 Dy1 2.307 1_455 S
O9 C24 1.266 . S
O10 Dy0 2.298 . S
O10 C24 1.236 . S
O11 Dy1 2.395 . S
O11 C31 1.255 . S
O12 Dy1 2.379 . S
O12 C31 1.249 . S
C13 O3 1.266 . S
C13 O4 1.236 . S
O14 Dy0 2.275 . S
O14 C2 1.254 . S
O15 Dy1 2.339 . S
O15 C2 1.257 1_655 S
C16 C19 1.344 . S
C16 C20 1.328 . S
C16 C22 1.516 . S
C17 C18 1.304 . S
C17 C21 1.323 . S
C18 C17 1.304 . S
C18 C19 1.371 . S
C18 H32 0.930 . S
C19 C16 1.344 . S
C19 C18 1.371 . S
C19 H33 0.931 . S
C20 C16 1.328 . S
C20 C21 1.433 . S
C20 H34 0.931 . S
C21 C17 1.323 . S
C21 C20 1.433 . S
C21 H35 0.933 . S
C22 Dy0 2.738 . S
C22 O5 1.255 . S
C22 O6 1.249 . S
C22 C16 1.516 . S
C23 O7 1.254 . S
C23 O8 1.257 . S
C24 O9 1.266 . S
C24 O10 1.236 . S
C25 C28 1.344 . S
C25 C29 1.328 . S
C25 C31 1.516 . S
C26 C27 1.304 . S
C26 C30 1.323 . S
C27 C26 1.304 . S
C27 C28 1.371 . S
C27 H36 0.930 . S
C28 C25 1.344 . S
C28 C27 1.371 . S
C28 H37 0.931 . S
C29 C25 1.328 . S
C29 C30 1.433 . S
C29 H38 0.931 . S
C30 C26 1.323 . S
C30 C29 1.433 . S
C30 H39 0.933 . S
C31 Dy1 2.738 . S
C31 O11 1.255 . S
C31 O12 1.249 . S
C31 C25 1.516 . S
H32 C18 0.930 . S
H33 C19 0.931 . S
H34 C20 0.931 . S
H35 C21 0.933 . S
H36 C27 0.930 . S
H37 C28 0.931 . S
H38 C29 0.931 . S
H39 C30 0.933 . S
Dy40 O43 2.307 1_565 S
Dy40 O45 2.395 . S
Dy40 O46 2.379 . S
Dy40 O48 2.339 1_565 S
Dy40 O50 2.298 . S
Dy40 O54 2.275 1_565 S
Dy40 C62 2.738 . S
Dy41 O44 2.298 . S
Dy41 O47 2.275 . S
Dy41 O49 2.307 1_545 S
Dy41 O51 2.395 . S
Dy41 O52 2.379 . S
Dy41 O55 2.339 . S
Dy41 C71 2.738 . S
C42 O54 1.254 . S
C42 O55 1.257 . S
O43 Dy40 2.307 1_545 S
O43 C53 1.266 . S
O44 Dy41 2.298 . S
O44 C53 1.236 . S
O45 Dy40 2.395 . S
O45 C62 1.255 . S
O46 Dy40 2.379 . S
O46 C62 1.249 . S
O47 Dy41 2.275 . S
O47 C63 1.254 . S
O48 Dy40 2.339 1_545 S
O48 C63 1.257 . S
O49 Dy41 2.307 1_565 S
O49 C64 1.266 . S
O50 Dy40 2.298 . S
O50 C64 1.236 . S
O51 Dy41 2.395 . S
O51 C71 1.255 . S
O52 Dy41 2.379 . S
O52 C71 1.249 . S
C53 O43 1.266 . S
C53 O44 1.236 . S
O54 Dy40 2.275 1_545 S
O54 C42 1.254 . S
O55 Dy41 2.339 . S
O55 C42 1.257 . S
C56 C59 1.344 . S
C56 C60 1.328 . S
C56 C62 1.516 . S
C57 C58 1.304 . S
C57 C61 1.323 . S
C58 C57 1.304 . S
C58 C59 1.371 . S
C58 H72 0.930 . S
C59 C56 1.344 . S
C59 C58 1.371 . S
C59 H73 0.931 . S
C60 C56 1.328 . S
C60 C61 1.433 . S
C60 H74 0.931 . S
C61 C57 1.323 . S
C61 C60 1.433 . S
C61 H75 0.933 . S
C62 Dy40 2.738 . S
C62 O45 1.255 . S
C62 O46 1.249 . S
C62 C56 1.516 . S
C63 O47 1.254 . S
C63 O48 1.257 . S
C64 O49 1.266 . S
C64 O50 1.236 . S
C65 C68 1.344 . S
C65 C69 1.328 . S
C65 C71 1.516 . S
C66 C67 1.304 . S
C66 C70 1.323 . S
C67 C66 1.304 . S
C67 C68 1.371 . S
C67 H76 0.930 . S
C68 C65 1.344 . S
C68 C67 1.371 . S
C68 H77 0.931 . S
C69 C65 1.328 . S
C69 C70 1.433 . S
C69 H78 0.931 . S
C70 C66 1.323 . S
C70 C69 1.433 . S
C70 H79 0.933 . S
C71 Dy41 2.738 . S
C71 O51 1.255 . S
C71 O52 1.249 . S
C71 C65 1.516 . S
H72 C58 0.930 . S
H73 C59 0.931 . S
H74 C60 0.931 . S
H75 C61 0.933 . S
H76 C67 0.930 . S
H77 C68 0.931 . S
H78 C69 0.931 . S
H79 C70 0.933 . S
Dy80 O83 2.307 . S
Dy80 O85 2.395 . S
Dy80 O86 2.379 . S
Dy80 O88 2.339 . S
Dy80 O90 2.298 . S
Dy80 O94 2.275 . S
Dy80 C102 2.738 . S
Dy81 O84 2.298 . S
Dy81 O87 2.275 . S
Dy81 O89 2.307 . S
Dy81 O91 2.395 . S
Dy81 O92 2.379 . S
Dy81 O95 2.339 . S
Dy81 C111 2.738 . S
C82 O94 1.254 . S
C82 O95 1.257 . S
O83 Dy80 2.307 . S
O83 C93 1.266 . S
O84 Dy81 2.298 . S
O84 C93 1.236 . S
O85 Dy80 2.395 . S
O85 C102 1.255 . S
O86 Dy80 2.379 . S
O86 C102 1.249 . S
O87 Dy81 2.275 . S
O87 C103 1.254 . S
O88 Dy80 2.339 . S
O88 C103 1.257 . S
O89 Dy81 2.307 . S
O89 C104 1.266 . S
O90 Dy80 2.298 . S
O90 C104 1.236 . S
O91 Dy81 2.395 . S
O91 C111 1.255 . S
O92 Dy81 2.379 . S
O92 C111 1.249 . S
C93 O83 1.266 . S
C93 O84 1.236 . S
O94 Dy80 2.275 . S
O94 C82 1.254 . S
O95 Dy81 2.339 . S
O95 C82 1.257 . S
C96 C99 1.344 . S
C96 C100 1.328 . S
C96 C102 1.516 . S
C97 C98 1.304 . S
C97 C101 1.323 . S
C98 C97 1.304 . S
C98 C99 1.371 . S
C98 H112 0.930 . S
C99 C96 1.344 . S
C99 C98 1.371 . S
C99 H113 0.931 . S
C100 C96 1.328 . S
C100 C101 1.433 . S
C100 H114 0.931 . S
C101 C97 1.323 . S
C101 C100 1.433 . S
C101 H115 0.933 . S
C102 Dy80 2.738 . S
C102 O85 1.255 . S
C102 O86 1.249 . S
C102 C96 1.516 . S
C103 O87 1.254 . S
C103 O88 1.257 . S
C104 O89 1.266 . S
C104 O90 1.236 . S
C105 C108 1.344 . S
C105 C109 1.328 . S
C105 C111 1.516 . S
C106 C107 1.304 . S
C106 C110 1.323 . S
C107 C106 1.304 . S
C107 C108 1.371 . S
C107 H116 0.930 . S
C108 C105 1.344 . S
C108 C107 1.371 . S
C108 H117 0.931 . S
C109 C105 1.328 . S
C109 C110 1.433 . S
C109 H118 0.931 . S
C110 C106 1.323 . S
C110 C109 1.433 . S
C110 H119 0.933 . S
C111 Dy81 2.738 . S
C111 O91 1.255 . S
C111 O92 1.249 . S
C111 C105 1.516 . S
H112 C98 0.930 . S
H113 C99 0.931 . S
H114 C100 0.931 . S
H115 C101 0.933 . S
H116 C107 0.930 . S
H117 C108 0.931 . S
H118 C109 0.931 . S
H119 C110 0.933 . S
H120 C123 0.931 1_565 S
H121 C126 0.928 . S
H122 C128 0.930 . S
C123 H120 0.931 1_545 S
C123 C124 1.413 . S
C123 C125 1.360 . S
C124 C123 1.413 . S
C124 C128 1.429 . S
C125 C123 1.360 . S
C125 C126 1.372 . S
C126 H121 0.928 . S
C126 C125 1.372 . S
C126 C127 1.404 . S
C127 C126 1.404 . S
C127 C128 1.391 . S
C128 H122 0.930 . S
C128 C124 1.429 . S
C128 C127 1.391 . S
H129 C132 0.931 . S
H130 C135 0.928 . S
H131 C137 0.930 . S
C132 H129 0.931 . S
C132 C133 1.413 . S
C132 C134 1.360 . S
C133 C132 1.413 . S
C133 C137 1.429 . S
C134 C132 1.360 . S
C134 C135 1.372 . S
C135 H130 0.928 . S
C135 C134 1.372 . S
C135 C136 1.404 . S
C136 C135 1.404 . S
C136 C137 1.391 . S
C137 H131 0.930 . S
C137 C133 1.429 . S
C137 C136 1.391 . S
H138 C141 0.931 . S
H139 C144 0.928 . S
H140 C146 0.930 . S
C141 H138 0.931 . S
C141 C142 1.413 . S
C141 C143 1.360 1_655 S
C142 C141 1.413 . S
C142 C146 1.429 1_655 S
C143 C141 1.360 1_455 S
C143 C144 1.372 . S
C144 H139 0.928 . S
C144 C143 1.372 . S
C144 C145 1.404 . S
C145 C144 1.404 . S
C145 C146 1.391 . S
C146 H140 0.930 . S
C146 C142 1.429 1_455 S
C146 C145 1.391 . S
H147 C150 0.931 . S
H148 C153 0.928 . S
H149 C155 0.930 . S
C150 H147 0.931 . S
C150 C151 1.413 . S
C150 C152 1.360 1_655 S
C151 C150 1.413 . S
C151 C155 1.429 1_655 S
C152 C150 1.360 1_455 S
C152 C153 1.372 . S
C153 H148 0.928 . S
C153 C152 1.372 . S
C153 C154 1.404 . S
C154 C153 1.404 . S
C154 C155 1.391 . S
C155 H149 0.930 . S
C155 C151 1.429 1_455 S
C155 C154 1.391 . S
H156 C159 0.931 . S
H157 C162 0.928 . S
H158 C164 0.930 . S
C159 H156 0.931 . S
C159 C160 1.413 . S
C159 C161 1.360 . S
C160 C159 1.413 . S
C160 C164 1.429 . S
C161 C159 1.360 . S
C161 C162 1.372 1_545 S
C162 H157 0.928 . S
C162 C161 1.372 1_565 S
C162 C163 1.404 . S
C163 C162 1.404 . S
C163 C164 1.391 1_565 S
C164 H158 0.930 . S
C164 C160 1.429 . S
C164 C163 1.391 1_545 S
H165 C168 0.931 . S
H166 C171 0.928 . S
H167 C173 0.930 . S
C168 H165 0.931 . S
C168 C169 1.413 . S
C168 C170 1.360 . S
C169 C168 1.413 . S
C169 C173 1.429 . S
C170 C168 1.360 . S
C170 C171 1.372 . S
C171 H166 0.928 . S
C171 C170 1.372 . S
C171 C172 1.404 . S
C172 C171 1.404 . S
C172 C173 1.391 . S
C173 H167 0.930 . S
C173 C169 1.429 . S
C173 C172 1.391 . S
H174 C180 0.930 . S
H175 C184 0.930 . S
H176 C189 0.929 . S
H177 C187 0.929 . S
H178 C182 0.929 . S
H179 C188 0.929 . S
C180 H174 0.930 . S
C180 C181 1.367 . S
C180 C188 1.378 . S
C181 C180 1.367 . S
C181 C189 1.433 . S
C182 H178 0.929 . S
C182 C184 1.378 . S
C182 C186 1.350 . S
C183 C186 1.463 . S
C183 C188 1.350 . S
C183 N191 1.427 . S
C184 H175 0.930 . S
C184 C182 1.378 . S
C184 C185 1.367 . S
C185 C184 1.367 . S
C185 C187 1.433 . S
C186 C182 1.350 . S
C186 C183 1.463 . S
C186 N190 1.427 . S
C187 H177 0.929 . S
C187 C185 1.433 . S
C187 N190 1.384 . S
C188 H179 0.929 . S
C188 C180 1.378 . S
C188 C183 1.350 . S
C189 H176 0.929 . S
C189 C181 1.433 . S
C189 N191 1.384 . S
N190 C186 1.427 . S
N190 C187 1.384 . S
N191 C183 1.427 . S
N191 C189 1.384 . S
H192 C198 0.930 . S
H193 C202 0.930 . S
H194 C207 0.929 . S
H195 C205 0.929 . S
H196 C200 0.929 . S
H197 C206 0.929 . S
C198 H192 0.930 . S
C198 C199 1.367 . S
C198 C206 1.378 . S
C199 C198 1.367 . S
C199 C207 1.433 . S
C200 H196 0.929 . S
C200 C202 1.378 . S
C200 C204 1.350 . S
C201 C204 1.463 . S
C201 C206 1.350 . S
C201 N209 1.427 . S
C202 H193 0.930 . S
C202 C200 1.378 . S
C202 C203 1.367 . S
C203 C202 1.367 . S
C203 C205 1.433 . S
C204 C200 1.350 . S
C204 C201 1.463 . S
C204 N208 1.427 . S
C205 H195 0.929 . S
C205 C203 1.433 . S
C205 N208 1.384 . S
C206 H197 0.929 . S
C206 C198 1.378 . S
C206 C201 1.350 . S
C207 H194 0.929 . S
C207 C199 1.433 . S
C207 N209 1.384 . S
N208 C204 1.427 . S
N208 C205 1.384 . S
N209 C201 1.427 . S
N209 C207 1.384 . S
H210 C216 0.930 . S
H211 C220 0.930 . S
H212 C225 0.929 . S
H213 C223 0.929 . S
H214 C218 0.929 . S
H215 C224 0.929 . S
C216 H210 0.930 . S
C216 C217 1.367 . S
C216 C224 1.378 . S
C217 C216 1.367 . S
C217 C225 1.433 . S
C218 H214 0.929 . S
C218 C220 1.378 . S
C218 C222 1.350 . S
C219 C222 1.463 . S
C219 C224 1.350 . S
C219 N227 1.427 . S
C220 H211 0.930 . S
C220 C218 1.378 . S
C220 C221 1.367 . S
C221 C220 1.367 . S
C221 C223 1.433 . S
C222 C218 1.350 . S
C222 C219 1.463 . S
C222 N226 1.427 . S
C223 H213 0.929 . S
C223 C221 1.433 . S
C223 N226 1.384 . S
C224 H215 0.929 . S
C224 C216 1.378 . S
C224 C219 1.350 . S
C225 H212 0.929 . S
C225 C217 1.433 . S
C225 N227 1.384 . S
N226 C222 1.427 . S
N226 C223 1.384 . S
N227 C219 1.427 . S
N227 C225 1.384 . S
H228 C234 0.930 . S
H229 C238 0.930 . S
H230 C243 0.929 . S
H231 C241 0.929 . S
H232 C236 0.929 . S
H233 C242 0.929 . S
C234 H228 0.930 . S
C234 C235 1.367 . S
C234 C242 1.378 . S
C235 C234 1.367 . S
C235 C243 1.433 . S
C236 H232 0.929 . S
C236 C238 1.378 . S
C236 C240 1.350 . S
C237 C240 1.463 . S
C237 C242 1.350 . S
C237 N245 1.427 . S
C238 H229 0.930 . S
C238 C236 1.378 . S
C238 C239 1.367 . S
C239 C238 1.367 . S
C239 C241 1.433 . S
C240 C236 1.350 . S
C240 C237 1.463 . S
C240 N244 1.427 . S
C241 H231 0.929 . S
C241 C239 1.433 . S
C241 N244 1.384 . S
C242 H233 0.929 . S
C242 C234 1.378 . S
C242 C237 1.350 . S
C243 H230 0.929 . S
C243 C235 1.433 . S
C243 N245 1.384 . S
N244 C240 1.427 . S
N244 C241 1.384 . S
N245 C237 1.427 . S
N245 C243 1.384 . S
H246 C252 0.930 . S
H247 C256 0.930 . S
H248 C261 0.929 . S
H249 C259 0.929 . S
H250 C254 0.929 . S
H251 C260 0.929 . S
C252 H246 0.930 . S
C252 C253 1.367 . S
C252 C260 1.378 . S
C253 C252 1.367 . S
C253 C261 1.433 . S
C254 H250 0.929 . S
C254 C256 1.378 . S
C254 C258 1.350 . S
C255 C258 1.463 . S
C255 C260 1.350 . S
C255 N263 1.427 . S
C256 H247 0.930 . S
C256 C254 1.378 . S
C256 C257 1.367 . S
C257 C256 1.367 . S
C257 C259 1.433 . S
C258 C254 1.350 . S
C258 C255 1.463 . S
C258 N262 1.427 . S
C259 H249 0.929 . S
C259 C257 1.433 . S
C259 N262 1.384 . S
C260 H251 0.929 . S
C260 C252 1.378 . S
C260 C255 1.350 . S
C261 H248 0.929 . S
C261 C253 1.433 . S
C261 N263 1.384 . S
N262 C258 1.427 . S
N262 C259 1.384 . S
N263 C255 1.427 . S
N263 C261 1.384 . S
H264 C270 0.930 . S
H265 C274 0.930 . S
H266 C279 0.929 . S
H267 C277 0.929 . S
H268 C272 0.929 . S
H269 C278 0.929 . S
C270 H264 0.930 . S
C270 C271 1.367 . S
C270 C278 1.378 . S
C271 C270 1.367 . S
C271 C279 1.433 . S
C272 H268 0.929 . S
C272 C274 1.378 . S
C272 C276 1.350 . S
C273 C276 1.463 . S
C273 C278 1.350 . S
C273 N281 1.427 . S
C274 H265 0.930 . S
C274 C272 1.378 . S
C274 C275 1.367 . S
C275 C274 1.367 . S
C275 C277 1.433 . S
C276 C272 1.350 . S
C276 C273 1.463 . S
C276 N280 1.427 . S
C277 H267 0.929 . S
C277 C275 1.433 . S
C277 N280 1.384 . S
C278 H269 0.929 . S
C278 C270 1.378 . S
C278 C273 1.350 . S
C279 H266 0.929 . S
C279 C271 1.433 . S
C279 N281 1.384 . S
N280 C276 1.427 . S
N280 C277 1.384 . S
N281 C273 1.427 . S
N281 C279 1.384 . S
H282 C288 0.930 . S
H283 C292 0.930 . S
H284 C297 0.929 . S
H285 C295 0.929 . S
H286 C290 0.929 . S
H287 C296 0.929 . S
C288 H282 0.930 . S
C288 C289 1.367 . S
C288 C296 1.378 . S
C289 C288 1.367 . S
C289 C297 1.433 . S
C290 H286 0.929 . S
C290 C292 1.378 . S
C290 C294 1.350 . S
C291 C294 1.463 . S
C291 C296 1.350 . S
C291 N299 1.427 . S
C292 H283 0.930 . S
C292 C290 1.378 . S
C292 C293 1.367 . S
C293 C292 1.367 . S
C293 C295 1.433 . S
C294 C290 1.350 . S
C294 C291 1.463 . S
C294 N298 1.427 . S
C295 H285 0.929 . S
C295 C293 1.433 . S
C295 N298 1.384 . S
C296 H287 0.929 . S
C296 C288 1.378 . S
C296 C291 1.350 . S
C297 H284 0.929 . S
C297 C289 1.433 . S
C297 N299 1.384 . S
N298 C294 1.427 . S
N298 C295 1.384 . S
N299 C291 1.427 . S
N299 C297 1.384 . S
H300 C306 0.930 . S
H301 C310 0.930 . S
H302 C315 0.929 . S
H303 C313 0.929 . S
H304 C308 0.929 . S
H305 C314 0.929 . S
C306 H300 0.930 . S
C306 C307 1.367 . S
C306 C314 1.378 . S
C307 C306 1.367 . S
C307 C315 1.433 . S
C308 H304 0.929 . S
C308 C310 1.378 . S
C308 C312 1.350 . S
C309 C312 1.463 . S
C309 C314 1.350 . S
C309 N317 1.427 . S
C310 H301 0.930 . S
C310 C308 1.378 . S
C310 C311 1.367 . S
C311 C310 1.367 . S
C311 C313 1.433 . S
C312 C308 1.350 . S
C312 C309 1.463 . S
C312 N316 1.427 . S
C313 H303 0.929 . S
C313 C311 1.433 . S
C313 N316 1.384 . S
C314 H305 0.929 . S
C314 C306 1.378 . S
C314 C309 1.350 . S
C315 H302 0.929 . S
C315 C307 1.433 . S
C315 N317 1.384 . S
N316 C312 1.427 . S
N316 C313 1.384 . S
N317 C309 1.427 . S
N317 C315 1.384 . S
H318 C324 0.930 . S
H319 C328 0.930 . S
H320 C333 0.929 . S
H321 C331 0.929 . S
H322 C326 0.929 . S
H323 C332 0.929 . S
C324 H318 0.930 . S
C324 C325 1.367 . S
C324 C332 1.378 . S
C325 C324 1.367 . S
C325 C333 1.433 . S
C326 H322 0.929 . S
C326 C328 1.378 . S
C326 C330 1.350 . S
C327 C330 1.463 . S
C327 C332 1.350 . S
C327 N335 1.427 . S
C328 H319 0.930 . S
C328 C326 1.378 . S
C328 C329 1.367 . S
C329 C328 1.367 . S
C329 C331 1.433 1_565 S
C330 C326 1.350 . S
C330 C327 1.463 . S
C330 N334 1.427 . S
C331 H321 0.929 . S
C331 C329 1.433 1_545 S
C331 N334 1.384 1_545 S
C332 H323 0.929 . S
C332 C324 1.378 . S
C332 C327 1.350 . S
C333 H320 0.929 . S
C333 C325 1.433 . S
C333 N335 1.384 . S
N334 C330 1.427 . S
N334 C331 1.384 1_565 S
N335 C327 1.427 . S
N335 C333 1.384 . S
H336 C342 0.930 . S
H337 C346 0.930 . S
H338 C351 0.929 . S
H339 C349 0.929 . S
H340 C344 0.929 . S
H341 C350 0.929 . S
C342 H336 0.930 . S
C342 C343 1.367 . S
C342 C350 1.378 . S
C343 C342 1.367 . S
C343 C351 1.433 . S
C344 H340 0.929 . S
C344 C346 1.378 . S
C344 C348 1.350 . S
C345 C348 1.463 . S
C345 C350 1.350 . S
C345 N353 1.427 . S
C346 H337 0.930 . S
C346 C344 1.378 . S
C346 C347 1.367 . S
C347 C346 1.367 . S
C347 C349 1.433 . S
C348 C344 1.350 . S
C348 C345 1.463 . S
C348 N352 1.427 . S
C349 H339 0.929 . S
C349 C347 1.433 . S
C349 N352 1.384 . S
C350 H341 0.929 . S
C350 C342 1.378 . S
C350 C345 1.350 . S
C351 H338 0.929 . S
C351 C343 1.433 . S
C351 N353 1.384 . S
N352 C348 1.427 . S
N352 C349 1.384 . S
N353 C345 1.427 . S
N353 C351 1.384 . S
H354 C360 0.930 . S
H355 C364 0.930 . S
H356 C369 0.929 . S
H357 C367 0.929 . S
H358 C362 0.929 . S
H359 C368 0.929 . S
C360 H354 0.930 . S
C360 C361 1.367 . S
C360 C368 1.378 . S
C361 C360 1.367 . S
C361 C369 1.433 . S
C362 H358 0.929 . S
C362 C364 1.378 . S
C362 C366 1.350 . S
C363 C366 1.463 . S
C363 C368 1.350 . S
C363 N371 1.427 . S
C364 H355 0.930 . S
C364 C362 1.378 . S
C364 C365 1.367 . S
C365 C364 1.367 . S
C365 C367 1.433 . S
C366 C362 1.350 . S
C366 C363 1.463 . S
C366 N370 1.427 . S
C367 H357 0.929 . S
C367 C365 1.433 . S
C367 N370 1.384 . S
C368 H359 0.929 . S
C368 C360 1.378 . S
C368 C363 1.350 . S
C369 H356 0.929 . S
C369 C361 1.433 . S
C369 N371 1.384 . S
N370 C366 1.427 . S
N370 C367 1.384 . S
N371 C363 1.427 . S
N371 C369 1.384 . S
H372 C378 0.930 . S
H373 C382 0.930 . S
H374 C387 0.929 . S
H375 C385 0.929 . S
H376 C380 0.929 . S
H377 C386 0.929 . S
C378 H372 0.930 . S
C378 C379 1.367 . S
C378 C386 1.378 . S
C379 C378 1.367 . S
C379 C387 1.433 . S
C380 H376 0.929 . S
C380 C382 1.378 . S
C380 C384 1.350 . S
C381 C384 1.463 . S
C381 C386 1.350 . S
C381 N389 1.427 . S
C382 H373 0.930 . S
C382 C380 1.378 . S
C382 C383 1.367 . S
C383 C382 1.367 . S
C383 C385 1.433 . S
C384 C380 1.350 . S
C384 C381 1.463 . S
C384 N388 1.427 . S
C385 H375 0.929 . S
C385 C383 1.433 . S
C385 N388 1.384 . S
C386 H377 0.929 . S
C386 C378 1.378 . S
C386 C381 1.350 . S
C387 H374 0.929 . S
C387 C379 1.433 . S
C387 N389 1.384 . S
N388 C384 1.427 . S
N388 C385 1.384 . S
N389 C381 1.427 . S
N389 C387 1.384 . S
H390 C396 0.930 . S
H391 C400 0.930 . S
H392 C405 0.929 . S
H393 C403 0.929 . S
H394 C398 0.929 . S
H395 C404 0.929 . S
C396 H390 0.930 . S
C396 C397 1.367 . S
C396 C404 1.378 . S
C397 C396 1.367 . S
C397 C405 1.433 . S
C398 H394 0.929 . S
C398 C400 1.378 1_554 S
C398 C402 1.350 . S
C399 C402 1.463 . S
C399 C404 1.350 . S
C399 N407 1.427 . S
C400 H391 0.930 . S
C400 C398 1.378 1_556 S
C400 C401 1.367 . S
C401 C400 1.367 . S
C401 C403 1.433 . S
C402 C398 1.350 . S
C402 C399 1.463 . S
C402 N406 1.416 1_554 S
C403 H393 0.929 . S
C403 C401 1.433 . S
C403 N406 1.405 . S
C404 H395 0.929 . S
C404 C396 1.378 . S
C404 C399 1.350 . S
C405 H392 0.929 . S
C405 C397 1.433 . S
C405 N407 1.384 . S
N406 C402 1.416 1_556 S
N406 C403 1.405 . S
N407 C399 1.427 . S
N407 C405 1.384 . S
H408 C414 0.930 . S
H409 C418 0.930 1_565 S
H410 C423 0.929 . S
H411 C421 0.929 . S
H412 C416 0.929 1_565 S
H413 C422 0.929 . S
C414 H408 0.930 . S
C414 C415 1.367 . S
C414 C422 1.378 . S
C415 C414 1.367 . S
C415 C423 1.433 1_545 S
C416 H412 0.929 1_545 S
C416 C418 1.378 . S
C416 C420 1.350 . S
C417 C420 1.463 . S
C417 C422 1.350 . S
C417 N425 1.427 1_545 S
C418 H409 0.930 1_545 S
C418 C416 1.378 . S
C418 C419 1.367 . S
C419 C418 1.367 . S
C419 C421 1.433 . S
C420 C416 1.350 . S
C420 C417 1.463 . S
C420 N424 1.427 . S
C421 H411 0.929 . S
C421 C419 1.433 . S
C421 N424 1.384 . S
C422 H413 0.929 . S
C422 C414 1.378 . S
C422 C417 1.350 . S
C423 H410 0.929 . S
C423 C415 1.433 1_565 S
C423 N425 1.384 . S
N424 C420 1.427 . S
N424 C421 1.384 . S
N425 C417 1.427 1_565 S
N425 C423 1.384 . S
H426 C432 0.930 . S
H427 C436 0.930 . S
H428 C441 0.929 . S
H429 C439 0.929 . S
H430 C434 0.929 . S
H431 C440 0.929 . S
C432 H426 0.930 . S
C432 C433 1.367 . S
C432 C440 1.378 . S
C433 C432 1.367 . S
C433 C441 1.433 . S
C434 H430 0.929 . S
C434 C436 1.378 . S
C434 C438 1.350 . S
C435 C438 1.463 . S
C435 C440 1.350 . S
C435 N443 1.427 . S
C436 H427 0.930 . S
C436 C434 1.378 . S
C436 C437 1.367 . S
C437 C436 1.367 . S
C437 C439 1.433 . S
C438 C434 1.350 . S
C438 C435 1.463 . S
C438 N442 1.427 . S
C439 H429 0.929 . S
C439 C437 1.433 . S
C439 N442 1.384 . S
C440 H431 0.929 . S
C440 C432 1.378 . S
C440 C435 1.350 . S
C441 H428 0.929 . S
C441 C433 1.433 . S
C441 N443 1.384 . S
N442 C438 1.427 . S
N442 C439 1.384 . S
N443 C435 1.427 . S
N443 C441 1.384 . S
H444 C450 0.930 . S
H445 C454 0.930 . S
H446 C459 0.929 . S
H447 C457 0.929 . S
H448 C452 0.929 . S
H449 C458 0.929 . S
C450 H444 0.930 . S
C450 C451 1.367 . S
C450 C458 1.378 . S
C451 C450 1.367 . S
C451 C459 1.433 1_545 S
C452 H448 0.929 . S
C452 C454 1.378 . S
C452 C456 1.350 1_565 S
C453 C456 1.463 . S
C453 C458 1.350 . S
C453 N461 1.427 1_545 S
C454 H445 0.930 . S
C454 C452 1.378 . S
C454 C455 1.367 1_565 S
C455 C454 1.367 1_545 S
C455 C457 1.433 . S
C456 C452 1.350 1_545 S
C456 C453 1.463 . S
C456 N460 1.427 . S
C457 H447 0.929 . S
C457 C455 1.433 . S
C457 N460 1.384 . S
C458 H449 0.929 . S
C458 C450 1.378 . S
C458 C453 1.350 . S
C459 H446 0.929 . S
C459 C451 1.433 1_565 S
C459 N461 1.384 . S
N460 C456 1.427 . S
N460 C457 1.384 . S
N461 C453 1.427 1_565 S
N461 C459 1.384 . S
H462 C468 0.930 . S
H463 C472 0.930 . S
H464 C477 0.929 . S
H465 C475 0.929 . S
H466 C470 0.929 1_556 S
H467 C476 0.929 . S
C468 H462 0.930 . S
C468 C469 1.367 . S
C468 C476 1.378 . S
C469 C468 1.367 . S
C469 C477 1.433 . S
C470 H466 0.929 1_554 S
C470 C472 1.378 . S
C470 C474 1.350 1_554 S
C471 C474 1.463 . S
C471 C476 1.350 . S
C471 N479 1.427 . S
C472 H463 0.930 . S
C472 C470 1.378 . S
C472 C473 1.367 . S
C473 C472 1.367 . S
C473 C475 1.433 . S
C474 C470 1.350 1_556 S
C474 C471 1.463 . S
C474 N478 1.427 1_556 S
C475 H465 0.929 . S
C475 C473 1.433 . S
C475 N478 1.384 . S
C476 H467 0.929 . S
C476 C468 1.378 . S
C476 C471 1.350 . S
C477 H464 0.929 . S
C477 C469 1.433 . S
C477 N479 1.384 . S
N478 C474 1.427 1_554 S
N478 C475 1.384 . S
N479 C471 1.427 . S
N479 C477 1.384 . S
H480 C486 0.930 . S
H481 C490 0.930 . S
H482 C495 0.929 . S
H483 C493 0.929 . S
H484 C488 0.929 . S
H485 C494 0.929 . S
C486 H480 0.930 . S
C486 C487 1.367 . S
C486 C494 1.378 . S
C487 C486 1.367 . S
C487 C495 1.433 1_455 S
C488 H484 0.929 . S
C488 C490 1.378 . S
C488 C492 1.350 1_655 S
C489 C492 1.463 . S
C489 C494 1.350 . S
C489 N497 1.427 1_455 S
C490 H481 0.930 . S
C490 C488 1.378 . S
C490 C491 1.367 1_655 S
C491 C490 1.367 1_455 S
C491 C493 1.433 . S
C492 C488 1.350 1_455 S
C492 C489 1.463 . S
C492 N496 1.427 . S
C493 H483 0.929 . S
C493 C491 1.433 . S
C493 N496 1.384 . S
C494 H485 0.929 . S
C494 C486 1.378 . S
C494 C489 1.350 . S
C495 H482 0.929 . S
C495 C487 1.433 1_655 S
C495 N497 1.384 . S
N496 C492 1.427 . S
N496 C493 1.384 . S
N497 C489 1.427 1_655 S
N497 C495 1.384 . S
C181 C24 2.898 . S
C185 C169 2.878 . S
C199 C66 1.240 . S
C203 C151 1.309 . S
C217 C93 1.721 . S
C221 C163 1.724 . S
C235 C13 2.940 . S
C239 C172 2.920 . S
C257 C154 1.350 . S
C253 C57 1.333 . S
C275 C160 1.807 . S
C271 C104 1.830 . S
C289 C64 1.812 . S
C293 C133 1.784 . S
C307 C97 0.682 . S
C311 C142 0.666 . S
C325 C17 1.399 . S
C329 C124 1.443 1_565 S
C347 C136 1.723 . S
C343 C53 1.730 . S
C365 C145 0.390 . S
C361 C106 0.545 . S
C379 C26 1.257 . S
C383 C127 1.309 . S
C401 C143 1.013 . S
C397 C2 0.992 . S
C415 C63 1.441 . S
C419 C125 1.489 . S
C433 C82 1.350 . S
C437 C134 1.371 . S
C455 C161 1.391 . S
C451 C42 1.370 . S
C473 C170 1.803 . S
C469 C103 1.753 . S
C487 C23 1.459 . S
C491 C152 1.496 . S
