# Generated by pormake.
# Topology nom, (4,4)-cn, num edge types: 1
# Building blocks:
#     Node 0, Type 0, BuildingBlock: MIFKUJ_clean_linker_1, # of connection points: 4
#     Node 1, Type 0, BuildingBlock: MIFKUJ_clean_linker_1, # of connection points: 4
#     Node 2, Type 0, BuildingBlock: MIFKUJ_clean_linker_1, # of connection points: 4
#     Node 3, Type 0, BuildingBlock: MIFKUJ_clean_linker_1, # of connection points: 4
#     Node 4, Type 0, BuildingBlock: MIFKUJ_clean_linker_1, # of connection points: 4
#     Node 5, Type 0, BuildingBlock: MIFKUJ_clean_linker_1, # of connection points: 4
#     Node 6, Type 1, BuildingBlock: NAHDIM_clean_sbu_0, # of connection points: 4
#     Node 7, Type 1, BuildingBlock: NAHDIM_clean_sbu_0, # of connection points: 4
#     Node 8, Type 1, BuildingBlock: NAHDIM_clean_sbu_0, # of connection points: 4
#     Node 9, Type 1, BuildingBlock: NAHDIM_clean_sbu_0, # of connection points: 4
#     Node 10, Type 1, BuildingBlock: NAHDIM_clean_sbu_0, # of connection points: 4
#     Node 11, Type 1, BuildingBlock: NAHDIM_clean_sbu_0, # of connection points: 4
#     Edge 12, Type (0, 1), None
#     Edge 13, Type (0, 1), None
#     Edge 14, Type (0, 1), None
#     Edge 15, Type (0, 1), None
#     Edge 16, Type (0, 1), None
#     Edge 17, Type (0, 1), None
#     Edge 18, Type (0, 1), None
#     Edge 19, Type (0, 1), None
#     Edge 20, Type (0, 1), None
#     Edge 21, Type (0, 1), None
#     Edge 22, Type (0, 1), None
#     Edge 23, Type (0, 1), None
#     Edge 24, Type (0, 1), None
#     Edge 25, Type (0, 1), None
#     Edge 26, Type (0, 1), None
#     Edge 27, Type (0, 1), None
#     Edge 28, Type (0, 1), None
#     Edge 29, Type (0, 1), None
#     Edge 30, Type (0, 1), None
#     Edge 31, Type (0, 1), None
#     Edge 32, Type (0, 1), None
#     Edge 33, Type (0, 1), None
#     Edge 34, Type (0, 1), None
#     Edge 35, Type (0, 1), None
# Relax obj value: 0.020
# Max RMSD: 0.120
# Mean RMSD: 0.105
data_MOF--net-nom--node1-NAHDIM_clean_sbu_0--node2-MIFKUJ_clean_linker_1--edge1-none
_symmetry_space_group_name_H-M    P1
_symmetry_Int_Tables_number       1
_symmetry_cell_setting            triclinic
loop_
_symmetry_equiv_pos_as_xyz
'x, y, z'
_cell_length_a     29.047877
_cell_length_b     30.050815
_cell_length_c     29.741555
_cell_angle_alpha  90.301496
_cell_angle_beta   90.814568
_cell_angle_gamma 121.03138
loop_
_atom_site_label
_atom_site_type_symbol
_atom_site_fract_x
_atom_site_fract_y
_atom_site_fract_z
_atom_type_partial_charge
H0 H 0.93234 0.40116 0.24658 0.0
H1 H 0.87459 0.36257 0.18002 0.0
H2 H 0.80572 0.45828 0.20244 0.0
H3 H 0.86514 0.49824 0.26823 0.0
H4 H 0.00801 0.50007 0.25243 0.0
H5 H 0.8408 0.39123 0.33633 0.0
H6 H 0.75108 0.36501 0.36316 0.0
H7 H 0.81036 0.52161 0.4115 0.0
H8 H 0.89917 0.54785 0.3835 0.0
H9 H 0.044 0.61228 0.42137 0.0
H10 H 0.10662 0.64768 0.48528 0.0
H11 H 0.16807 0.548 0.45164 0.0
H12 H 0.10495 0.51265 0.38737 0.0
H13 H 0.96442 0.51755 0.40942 0.0
H14 H 0.11297 0.63444 0.33062 0.0
H15 H 0.20145 0.68551 0.29792 0.0
H16 H 0.18038 0.54744 0.23205 0.0
H17 H 0.09215 0.49606 0.26607 0.0
C18 C 0.90301 0.45247 0.26268 0.0
C19 C 0.9044 0.41349 0.23748 0.0
C20 C 0.87143 0.39149 0.19936 0.0
C21 C 0.83586 0.40759 0.18581 0.0
C22 C 0.83262 0.44492 0.21215 0.0
C23 C 0.86632 0.46757 0.24999 0.0
C24 C 0.94426 0.48074 0.2987 0.0
C25 C -0.00159 0.50281 0.28707 0.0
C26 C 0.93196 0.48833 0.34299 0.0
C27 C 0.87669 0.47163 0.35746 0.0
C28 C 0.83426 0.42005 0.35207 0.0
C29 C 0.7831 0.40507 0.36774 0.0
C30 C 0.77371 0.44125 0.38966 0.0
C31 C 0.81629 0.49274 0.39508 0.0
C32 C 0.86711 0.50777 0.37901 0.0
C33 C 0.06971 0.55979 0.39958 0.0
C34 C 0.07119 0.59827 0.42754 0.0
C35 C 0.10712 0.6185 0.4641 0.0
C36 C 0.14209 0.60035 0.47382 0.0
C37 C 0.14149 0.56263 0.44519 0.0
C38 C 0.10567 0.54262 0.4083 0.0
C39 C 0.0279 0.53508 0.36342 0.0
C40 C 0.97396 0.51404 0.37493 0.0
C41 C 0.04042 0.53128 0.31835 0.0
C42 C 0.09616 0.56112 0.30159 0.0
C43 C 0.12781 0.61481 0.31006 0.0
C44 C 0.1782 0.64415 0.2908 0.0
C45 C 0.19778 0.62059 0.26208 0.0
C46 C 0.16624 0.56682 0.2537 0.0
C47 C 0.11593 0.53736 0.27333 0.0
H48 H 0.36767 0.89533 0.56045 0.0
H49 H 0.31568 0.80329 0.5791 0.0
H50 H 0.42467 0.77636 0.50248 0.0
H51 H 0.47705 0.86862 0.4848 0.0
H52 H 0.46852 0.97162 0.57631 0.0
H53 H 0.35676 0.89084 0.44311 0.0
H54 H 0.31775 0.82672 0.38183 0.0
H55 H 0.47718 0.87407 0.33653 0.0
H56 H 0.51594 0.93881 0.39791 0.0
H57 H 0.60447 0.13186 0.50811 0.0
H58 H 0.64063 0.22333 0.49144 0.0
H59 H 0.4967 0.18229 0.41387 0.0
H60 H 0.46042 0.09078 0.43142 0.0
H61 H 0.49267 0.02216 0.4158 0.0
H62 H 0.57513 0.06289 0.59621 0.0
H63 H 0.59899 0.12733 0.65678 0.0
H64 H 0.47738 0.15769 0.60695 0.0
H65 H 0.45428 0.09375 0.54651 0.0
C66 C 0.4259 0.88872 0.52086 0.0
C67 C 0.3807 0.86967 0.54814 0.0
C68 C 0.35091 0.81702 0.55863 0.0
C69 C 0.36582 0.78247 0.54198 0.0
C70 C 0.41187 0.80189 0.51555 0.0
C71 C 0.4418 0.85459 0.50529 0.0
C72 C 0.45519 0.94396 0.50756 0.0
C73 C 0.4743 0.98263 0.54123 0.0
C74 C 0.46223 0.95847 0.46185 0.0
C75 C 0.43913 0.91934 0.42498 0.0
C76 C 0.38325 0.88728 0.42002 0.0
C77 C 0.36109 0.85075 0.38495 0.0
C78 C 0.39444 0.84534 0.35438 0.0
C79 C 0.45051 0.87719 0.35969 0.0
C80 C 0.47267 0.91429 0.39452 0.0
C81 C 0.52958 0.10463 0.47137 0.0
C82 C 0.58074 0.1426 0.48754 0.0
C83 C 0.60133 0.19487 0.47791 0.0
C84 C 0.57132 0.2101 0.45159 0.0
C85 C 0.52072 0.17182 0.43434 0.0
C86 C 0.50006 0.11951 0.44414 0.0
C87 C 0.50574 0.0497 0.48454 0.0
C88 C 0.48794 0.01116 0.45087 0.0
C89 C 0.49884 0.03521 0.53023 0.0
C90 C 0.51313 0.07383 0.56694 0.0
C91 C 0.55376 0.08356 0.59847 0.0
C92 C 0.56749 0.12052 0.63284 0.0
C93 C 0.54009 0.14762 0.63659 0.0
C94 C 0.49919 0.13744 0.60502 0.0
C95 C 0.48596 0.10099 0.57044 0.0
H96 H 0.51481 0.58469 0.74877 0.0
H97 H 0.48196 0.61711 0.80873 0.0
H98 H 0.31869 0.4991 0.77277 0.0
H99 H 0.35175 0.46712 0.71335 0.0
H100 H 0.49669 0.48274 0.74042 0.0
H101 H 0.45154 0.59481 0.65563 0.0
H102 H 0.39022 0.62246 0.62913 0.0
H103 H 0.28601 0.47026 0.56971 0.0
H104 H 0.34676 0.44257 0.59719 0.0
H105 H 0.42182 0.37569 0.57079 0.0
H106 H 0.44626 0.33984 0.50829 0.0
H107 H 0.61438 0.44118 0.54319 0.0
H108 H 0.58927 0.47688 0.6064 0.0
H109 H 0.44638 0.47369 0.57924 0.0
H110 H 0.46686 0.35338 0.6606 0.0
H111 H 0.50326 0.30336 0.693 0.0
H112 H 0.62504 0.44061 0.76441 0.0
H113 H 0.58927 0.49101 0.73066 0.0
C114 C 0.4357 0.52381 0.72634 0.0
C115 C 0.47194 0.56611 0.75377 0.0
C116 C 0.45313 0.58467 0.78789 0.0
C117 C 0.39772 0.56071 0.79556 0.0
C118 C 0.36163 0.51848 0.76786 0.0
C119 C 0.38042 0.50024 0.73367 0.0
C120 C 0.45554 0.50276 0.69129 0.0
C121 C 0.48694 0.48187 0.70496 0.0
C122 C 0.43971 0.49866 0.64549 0.0
C123 C 0.40349 0.51644 0.62889 0.0
C124 C 0.41529 0.56731 0.63722 0.0
C125 C 0.38032 0.58312 0.62179 0.0
C126 C 0.33317 0.54849 0.59732 0.0
C127 C 0.322 0.49792 0.58832 0.0
C128 C 0.35676 0.48206 0.60401 0.0
C129 C 0.50367 0.42903 0.59322 0.0
C130 C 0.46395 0.38992 0.56526 0.0
C131 C 0.47808 0.36944 0.52949 0.0
C132 C 0.53236 0.38797 0.52044 0.0
C133 C 0.57223 0.42627 0.54914 0.0
C134 C 0.55795 0.4465 0.58538 0.0
C135 C 0.4879 0.45386 0.62821 0.0
C136 C 0.45724 0.47544 0.61454 0.0
C137 C 0.50182 0.45587 0.67429 0.0
C138 C 0.52608 0.42636 0.69226 0.0
C139 C 0.50215 0.37311 0.68239 0.0
C140 C 0.52262 0.34432 0.70144 0.0
C141 C 0.56695 0.36795 0.73143 0.0
C142 C 0.59065 0.42117 0.74163 0.0
C143 C 0.5704 0.45009 0.7222 0.0
H144 H 0.05799 0.58351 0.74211 0.0
H145 H 0.12449 0.61287 0.68255 0.0
H146 H 0.16249 0.49668 0.72106 0.0
H147 H 0.09591 0.46754 0.78009 0.0
H148 H 0.96765 0.48355 0.75155 0.0
H149 H 0.13395 0.59816 0.83557 0.0
H150 H 0.22522 0.62632 0.86167 0.0
H151 H 0.16741 0.47695 0.92304 0.0
H152 H 0.07655 0.44866 0.89588 0.0
H153 H 0.92571 0.38166 0.91971 0.0
H154 H 0.86019 0.34721 0.97973 0.0
H155 H 0.81229 0.45792 0.94766 0.0
H156 H 0.8775 0.49158 0.88674 0.0
H157 H 0.01113 0.48183 0.91316 0.0
H158 H 0.86148 0.35941 0.83231 0.0
H159 H 0.7703 0.30865 0.80198 0.0
H160 H 0.7927 0.44275 0.72985 0.0
H161 H 0.88407 0.49416 0.76171 0.0
C162 C 0.07244 0.52373 0.76576 0.0
C163 C 0.08088 0.56459 0.73772 0.0
C164 C 0.11896 0.58138 0.70381 0.0
C165 C 0.14882 0.55714 0.69708 0.0
C166 C 0.14024 0.51625 0.72533 0.0
C167 C 0.10235 0.49965 0.75926 0.0
C168 C 0.03094 0.50491 0.80077 0.0
C169 C 0.9772 0.48438 0.78706 0.0
C170 C 0.04321 0.50302 0.8467 0.0
C171 C 0.09855 0.52111 0.86329 0.0
C172 C 0.14104 0.57137 0.85432 0.0
C173 C 0.19312 0.58746 0.86948 0.0
C174 C 0.20351 0.55376 0.89436 0.0
C175 C 0.16072 0.50384 0.90406 0.0
C176 C 0.10876 0.48767 0.88859 0.0
C177 C 0.90628 0.43902 0.89881 0.0
C178 C 0.90085 0.39827 0.92545 0.0
C179 C 0.86333 0.3786 0.95965 0.0
C180 C 0.83129 0.40005 0.96849 0.0
C181 C 0.83667 0.44085 0.94172 0.0
C182 C 0.87362 0.4599 0.90684 0.0
C183 C 0.94798 0.46106 0.86403 0.0
C184 C 0.00164 0.4821 0.87777 0.0
C185 C 0.93534 0.46089 0.8179 0.0
C186 C 0.8792 0.43105 0.80035 0.0
C187 C 0.8465 0.37836 0.81084 0.0
C188 C 0.79447 0.34915 0.79298 0.0
C189 C 0.77425 0.3717 0.76351 0.0
C190 C 0.80723 0.42425 0.75236 0.0
C191 C 0.85931 0.4537 0.77067 0.0
H192 H 0.62757 0.09057 0.06749 0.0
H193 H 0.68559 0.17878 0.0967 0.0
H194 H 0.58498 0.22616 0.02978 0.0
H195 H 0.5259 0.13727 1.0019 0.0
H196 H 0.52853 0.0215 0.08077 0.0
H197 H 0.62826 0.10907 0.94766 0.0
H198 H 0.66218 0.17305 0.88784 0.0
H199 H 0.49945 0.12907 0.85101 0.0
H200 H 0.46576 0.0647 0.91104 0.0
H201 H 0.39021 0.89445 0.92967 0.0
H202 H 0.35393 0.80711 0.89793 0.0
H203 H 0.48018 0.7961 0.96596 0.0
H204 H 0.51639 0.88349 0.99713 0.0
H205 H 0.48596 0.98059 0.91833 0.0
H206 H 0.38751 0.8833 0.04835 0.0
H207 H 0.35796 0.82169 0.11051 0.0
H208 H 0.52365 0.88615 0.15296 0.0
H209 H 0.55253 0.94733 0.09129 0.0
C210 C 0.57266 0.10731 0.032 0.0
C211 C 0.61767 0.11982 0.05942 0.0
C212 C 0.65086 0.17029 0.07612 0.0
C213 C 0.63998 0.20945 0.06544 0.0
C214 C 0.59462 0.19686 0.03835 0.0
C215 C 0.56101 0.14614 0.02211 0.0
C216 C 0.53794 0.05335 0.01458 0.0
C217 C 0.51958 0.01259 0.04517 0.0
C218 C 0.52417 0.0416 0.96841 0.0
C219 C 0.54458 0.0824 0.93386 0.0
C220 C 0.59996 0.11362 0.92701 0.0
C221 C 0.61921 0.15002 0.8927 0.0
C222 C 0.58344 0.15604 0.86464 0.0
C223 C 0.52798 0.12549 0.87218 0.0
C224 C 0.50869 0.08861 0.90629 0.0
C225 C 0.45537 0.89512 0.96644 0.0
C226 C 0.40996 0.87313 0.93776 0.0
C227 C 0.3894 0.82326 0.91955 0.0
C228 C 0.41419 0.79462 0.92939 0.0
C229 C 0.46011 0.81706 0.95767 0.0
C230 C 0.48052 0.86683 0.97593 0.0
C231 C 0.4786 0.94876 0.98443 0.0
C232 C 0.49422 0.98947 0.95399 0.0
C233 C 0.49017 0.96055 0.03077 0.0
C234 C 0.4722 0.91983 0.06529 0.0
C235 C 0.41735 0.88357 0.0708 0.0
C236 C 0.40054 0.84867 0.10645 0.0
C237 C 0.43843 0.84934 0.13687 0.0
C238 C 0.49337 0.88469 0.13029 0.0
C239 C 0.51002 0.91973 0.09504 0.0
H240 H 0.44969 0.40557 0.25843 0.0
H241 H 0.48765 0.37661 0.3178 0.0
H242 H 0.64771 0.49246 0.27745 0.0
H243 H 0.60961 0.52059 0.21839 0.0
H244 H 0.47014 0.51079 0.24546 0.0
H245 H 0.49153 0.38133 0.16877 0.0
H246 H 0.54373 0.34157 0.14893 0.0
H247 H 0.65773 0.4819 0.08113 0.0
H248 H 0.60606 0.5219 0.10213 0.0
H249 H 0.54632 0.60666 0.07836 0.0
H250 H 0.52797 0.64523 0.01386 0.0
H251 H 0.35777 0.55252 0.0391 0.0
H252 H 0.37678 0.51427 0.10435 0.0
H253 H 0.50908 0.50226 0.08487 0.0
H254 H 0.50041 0.63558 0.16237 0.0
H255 H 0.4665 0.68872 0.19226 0.0
H256 H 0.34452 0.55632 0.2638 0.0
H257 H 0.37743 0.5027 0.23237 0.0
C258 C 0.52691 0.46496 0.23397 0.0
C259 C 0.49291 0.42453 0.26251 0.0
C260 C 0.51464 0.40792 0.29619 0.0
C261 C 0.57066 0.43222 0.30224 0.0
C262 C 0.60441 0.47296 0.27373 0.0
C263 C 0.58274 0.48905 0.23988 0.0
C264 C 0.50467 0.48272 0.19796 0.0
C265 C 0.47722 0.50784 0.21014 0.0
C266 C 0.51596 0.48041 0.15224 0.0
C267 C 0.54534 0.45483 0.13752 0.0
C268 C 0.52787 0.40357 0.14979 0.0
C269 C 0.55763 0.38083 0.13824 0.0
C270 C 0.60502 0.40875 0.11369 0.0
C271 C 0.62139 0.45941 0.10004 0.0
C272 C 0.59184 0.48227 0.11194 0.0
C273 C 0.46293 0.55769 0.09611 0.0
C274 C 0.50507 0.59502 0.07027 0.0
C275 C 0.49447 0.61701 0.03337 0.0
C276 C 0.44135 0.60161 0.02109 0.0
C277 C 0.3991 0.56494 0.04757 0.0
C278 C 0.40987 0.5433 0.08497 0.0
C279 C 0.47495 0.53118 0.13223 0.0
C280 C 0.50053 0.50423 0.11999 0.0
C281 C 0.46301 0.53305 0.17798 0.0
C282 C 0.44063 0.56472 0.19413 0.0
C283 C 0.46554 0.61756 0.18355 0.0
C284 C 0.44655 0.64813 0.20119 0.0
C285 C 0.40297 0.62673 0.23054 0.0
C286 C 0.37843 0.57401 0.24155 0.0
C287 C 0.39701 0.54327 0.2234 0.0
C288 C 0.59267 0.26569 0.44283 0.0
O289 O 0.63843 0.30124 0.46155 0.0
O290 O 0.67929 0.38253 0.39365 0.0
Zn291 Zn 0.60235 0.35712 0.40975 0.0
O292 O 0.59472 0.38816 0.46781 0.0
C293 C 0.59443 0.41651 0.33858 0.0
O294 O 0.64522 0.44698 0.35014 0.0
O295 O 0.56712 0.28006 0.41765 0.0
C296 C 0.54638 0.36809 0.48036 0.0
O297 O 0.50806 0.33046 0.45567 0.0
C298 C 0.71969 0.42565 0.4062 0.0
O299 O 0.71255 0.45707 0.4321 0.0
O300 O 0.56644 0.37417 0.35936 0.0
C301 C 0.33293 0.72631 0.55113 0.0
O302 O 0.34375 0.69356 0.53151 0.0
O303 O 0.30148 0.60743 0.59643 0.0
Zn304 Zn 0.24932 0.63139 0.58401 0.0
O305 O 0.2057 0.60064 0.52661 0.0
C306 C 0.18773 0.57321 0.66021 0.0
O307 O 0.21055 0.54625 0.65127 0.0
O308 O 0.29285 0.70874 0.57687 0.0
C309 C 0.17774 0.62008 0.5143 0.0
O310 O 0.17947 0.65722 0.53916 0.0
C311 C 0.29508 0.56454 0.58255 0.0
O312 O 0.25249 0.53333 0.55771 0.0
O313 O 0.19848 0.61214 0.63609 0.0
C314 C 0.5892 0.33747 0.75072 0.0
O315 O 0.62732 0.35784 0.78188 0.0
O316 O 0.68652 0.29708 0.76348 0.0
Zn317 Zn 0.60743 0.2498 0.75038 0.0
O318 O 0.59512 0.20167 0.69799 0.0
C319 C 0.60425 0.1921 0.82644 0.0
O320 O 0.65337 0.20933 0.81282 0.0
O321 O 0.57391 0.29245 0.73493 0.0
C322 C 0.55282 0.1853 0.67379 0.0
O323 O 0.51943 0.20114 0.68302 0.0
C324 C 0.71852 0.34046 0.74575 0.0
O325 O 0.701 0.35813 0.7136 0.0
O326 O 0.5747 0.2049 0.80493 0.0
C327 C 0.39083 0.74084 0.91191 0.0
O328 O 0.34453 0.71808 0.88997 0.0
O329 O 0.29802 0.61198 0.89425 0.0
Zn330 Zn 0.37574 0.63757 0.90818 0.0
O331 O 0.38331 0.60439 0.96444 0.0
C332 C 0.37709 0.57794 0.83302 0.0
O333 O 0.32653 0.5492 0.84421 0.0
O334 O 0.41311 0.71485 0.92101 0.0
C335 C 0.43072 0.62327 0.98033 0.0
O336 O 0.47077 0.66169 0.95915 0.0
C337 C 0.25889 0.57025 0.90908 0.0
O338 O 0.26842 0.54087 0.9355 0.0
O339 O 0.40766 0.6194 0.85555 0.0
C340 C 0.63827 0.38586 0.10415 0.0
O341 O 0.62797 0.34261 0.12364 0.0
O342 O 0.67411 0.30031 0.06311 0.0
Zn343 Zn 0.72441 0.377 0.07507 0.0
O344 O 0.7658 0.39433 0.13442 0.0
C345 C 0.79292 0.37981 1.00573 0.0
O346 O 0.7779 0.33396 0.02227 0.0
O347 O 0.67903 0.40909 0.07926 0.0
C348 C 0.80492 0.38785 0.14298 0.0
O349 O 0.81992 0.36657 0.1123 0.0
C350 C 0.67673 0.26346 0.08115 0.0
O351 O 0.71433 0.27407 0.11158 0.0
O352 O 0.77518 0.40675 0.02301 0.0
C353 C 0.38206 0.65887 0.24807 0.0
O354 O 0.34736 0.64215 0.28078 0.0
O355 O 0.28304 0.69803 0.25648 0.0
Zn356 Zn 0.36123 0.7443 0.24157 0.0
O357 O 0.37232 0.78681 0.18632 0.0
C358 C 0.37034 0.80766 0.31655 0.0
O359 O 0.31967 0.78865 0.30512 0.0
O360 O 0.39448 0.70121 0.22895 0.0
C361 C 0.42148 0.81439 0.17588 0.0
O362 O 0.45778 0.81253 0.20136 0.0
C363 C 0.25148 0.65194 0.24218 0.0
O364 O 0.26825 0.63153 0.21215 0.0
O365 O 0.3981 0.79399 0.29408 0.0
loop_
_geom_bond_atom_site_label_1
_geom_bond_atom_site_label_2
_geom_bond_distance
_geom_bond_site_symmetry_2
_ccdc_geom_bond_type
H0 C19 0.949 . S
H1 C20 0.950 . S
H2 C22 0.950 . S
H3 C23 0.950 . S
H4 C25 0.950 . S
H5 C28 0.950 . S
H6 C29 0.950 . S
H7 C31 0.951 . S
H8 C32 0.949 . S
H9 C34 0.949 . S
H10 C35 0.950 . S
H11 C37 0.950 . S
H12 C38 0.950 . S
H13 C40 0.950 . S
H14 C43 0.950 . S
H15 C44 0.950 . S
H16 C46 0.951 . S
H17 C47 0.949 . S
C18 C19 1.376 . S
C18 C23 1.386 . S
C18 C24 1.483 . S
C19 H0 0.949 . S
C19 C18 1.376 . S
C19 C20 1.397 . S
C20 H1 0.950 . S
C20 C19 1.397 . S
C20 C21 1.391 . S
C21 C20 1.391 . S
C21 C22 1.405 . S
C22 H2 0.950 . S
C22 C21 1.405 . S
C22 C23 1.367 . S
C23 H3 0.950 . S
C23 C18 1.386 . S
C23 C22 1.367 . S
C24 C18 1.483 . S
C24 C25 1.382 1_655 S
C24 C26 1.403 . S
C25 H4 0.950 . S
C25 C24 1.382 1_455 S
C25 C41 1.411 . S
C26 C24 1.403 . S
C26 C27 1.489 . S
C26 C40 1.411 . S
C27 C26 1.489 . S
C27 C28 1.383 . S
C27 C32 1.382 . S
C28 H5 0.950 . S
C28 C27 1.383 . S
C28 C29 1.395 . S
C29 H6 0.950 . S
C29 C28 1.395 . S
C29 C30 1.288 . S
C30 C29 1.288 . S
C30 C31 1.392 . S
C31 H7 0.951 . S
C31 C30 1.392 . S
C31 C32 1.392 . S
C32 H8 0.949 . S
C32 C27 1.382 . S
C32 C31 1.392 . S
C33 C34 1.376 . S
C33 C38 1.386 . S
C33 C39 1.483 . S
C34 H9 0.949 . S
C34 C33 1.376 . S
C34 C35 1.397 . S
C35 H10 0.950 . S
C35 C34 1.397 . S
C35 C36 1.391 . S
C36 C35 1.391 . S
C36 C37 1.405 . S
C37 H11 0.950 . S
C37 C36 1.405 . S
C37 C38 1.367 . S
C38 H12 0.950 . S
C38 C33 1.386 . S
C38 C37 1.367 . S
C39 C33 1.483 . S
C39 C40 1.382 1_455 S
C39 C41 1.403 . S
C40 H13 0.950 . S
C40 C26 1.411 . S
C40 C39 1.382 1_655 S
C41 C25 1.411 . S
C41 C39 1.403 . S
C41 C42 1.489 . S
C42 C41 1.489 . S
C42 C43 1.383 . S
C42 C47 1.382 . S
C43 H14 0.950 . S
C43 C42 1.383 . S
C43 C44 1.395 . S
C44 H15 0.950 . S
C44 C43 1.395 . S
C44 C45 1.288 . S
C45 C44 1.288 . S
C45 C46 1.392 . S
C46 H16 0.951 . S
C46 C45 1.392 . S
C46 C47 1.392 . S
C47 H17 0.949 . S
C47 C42 1.382 . S
C47 C46 1.392 . S
H48 C67 0.949 . S
H49 C68 0.950 . S
H50 C70 0.950 . S
H51 C71 0.950 . S
H52 C73 0.950 . S
H53 C76 0.950 . S
H54 C77 0.950 . S
H55 C79 0.951 . S
H56 C80 0.949 . S
H57 C82 0.949 . S
H58 C83 0.950 . S
H59 C85 0.950 . S
H60 C86 0.950 . S
H61 C88 0.950 . S
H62 C91 0.950 . S
H63 C92 0.950 . S
H64 C94 0.951 . S
H65 C95 0.949 . S
C66 C67 1.376 . S
C66 C71 1.386 . S
C66 C72 1.483 . S
C67 H48 0.949 . S
C67 C66 1.376 . S
C67 C68 1.397 . S
C68 H49 0.950 . S
C68 C67 1.397 . S
C68 C69 1.391 . S
C69 C68 1.391 . S
C69 C70 1.405 . S
C70 H50 0.950 . S
C70 C69 1.405 . S
C70 C71 1.367 . S
C71 H51 0.950 . S
C71 C66 1.386 . S
C71 C70 1.367 . S
C72 C66 1.483 . S
C72 C73 1.382 . S
C72 C74 1.403 . S
C73 H52 0.950 . S
C73 C72 1.382 . S
C73 C89 1.411 1_565 S
C74 C72 1.403 . S
C74 C75 1.489 . S
C74 C88 1.411 1_565 S
C75 C74 1.489 . S
C75 C76 1.383 . S
C75 C80 1.382 . S
C76 H53 0.950 . S
C76 C75 1.383 . S
C76 C77 1.395 . S
C77 H54 0.950 . S
C77 C76 1.395 . S
C77 C78 1.288 . S
C78 C77 1.288 . S
C78 C79 1.392 . S
C79 H55 0.951 . S
C79 C78 1.392 . S
C79 C80 1.392 . S
C80 H56 0.949 . S
C80 C75 1.382 . S
C80 C79 1.392 . S
C81 C82 1.376 . S
C81 C86 1.386 . S
C81 C87 1.483 . S
C82 H57 0.949 . S
C82 C81 1.376 . S
C82 C83 1.397 . S
C83 H58 0.950 . S
C83 C82 1.397 . S
C83 C84 1.391 . S
C84 C83 1.391 . S
C84 C85 1.405 . S
C85 H59 0.950 . S
C85 C84 1.405 . S
C85 C86 1.367 . S
C86 H60 0.950 . S
C86 C81 1.386 . S
C86 C85 1.367 . S
C87 C81 1.483 . S
C87 C88 1.382 . S
C87 C89 1.403 . S
C88 H61 0.950 . S
C88 C74 1.411 1_545 S
C88 C87 1.382 . S
C89 C73 1.411 1_545 S
C89 C87 1.403 . S
C89 C90 1.489 . S
C90 C89 1.489 . S
C90 C91 1.383 . S
C90 C95 1.382 . S
C91 H62 0.950 . S
C91 C90 1.383 . S
C91 C92 1.395 . S
C92 H63 0.950 . S
C92 C91 1.395 . S
C92 C93 1.288 . S
C93 C92 1.288 . S
C93 C94 1.392 . S
C94 H64 0.951 . S
C94 C93 1.392 . S
C94 C95 1.392 . S
C95 H65 0.949 . S
C95 C90 1.382 . S
C95 C94 1.392 . S
H96 C115 0.949 . S
H97 C116 0.950 . S
H98 C118 0.950 . S
H99 C119 0.950 . S
H100 C121 0.950 . S
H101 C124 0.950 . S
H102 C125 0.950 . S
H103 C127 0.951 . S
H104 C128 0.949 . S
H105 C130 0.949 . S
H106 C131 0.950 . S
H107 C133 0.950 . S
H108 C134 0.950 . S
H109 C136 0.950 . S
H110 C139 0.950 . S
H111 C140 0.950 . S
H112 C142 0.951 . S
H113 C143 0.949 . S
C114 C115 1.376 . S
C114 C119 1.386 . S
C114 C120 1.483 . S
C115 H96 0.949 . S
C115 C114 1.376 . S
C115 C116 1.397 . S
C116 H97 0.950 . S
C116 C115 1.397 . S
C116 C117 1.391 . S
C117 C116 1.391 . S
C117 C118 1.405 . S
C118 H98 0.950 . S
C118 C117 1.405 . S
C118 C119 1.367 . S
C119 H99 0.950 . S
C119 C114 1.386 . S
C119 C118 1.367 . S
C120 C114 1.483 . S
C120 C121 1.382 . S
C120 C122 1.403 . S
C121 H100 0.950 . S
C121 C120 1.382 . S
C121 C137 1.411 . S
C122 C120 1.403 . S
C122 C123 1.489 . S
C122 C136 1.411 . S
C123 C122 1.489 . S
C123 C124 1.383 . S
C123 C128 1.382 . S
C124 H101 0.950 . S
C124 C123 1.383 . S
C124 C125 1.395 . S
C125 H102 0.950 . S
C125 C124 1.395 . S
C125 C126 1.288 . S
C126 C125 1.288 . S
C126 C127 1.392 . S
C127 H103 0.951 . S
C127 C126 1.392 . S
C127 C128 1.392 . S
C128 H104 0.949 . S
C128 C123 1.382 . S
C128 C127 1.392 . S
C129 C130 1.376 . S
C129 C134 1.386 . S
C129 C135 1.483 . S
C130 H105 0.949 . S
C130 C129 1.376 . S
C130 C131 1.397 . S
C131 H106 0.950 . S
C131 C130 1.397 . S
C131 C132 1.391 . S
C132 C131 1.391 . S
C132 C133 1.405 . S
C133 H107 0.950 . S
C133 C132 1.405 . S
C133 C134 1.367 . S
C134 H108 0.950 . S
C134 C129 1.386 . S
C134 C133 1.367 . S
C135 C129 1.483 . S
C135 C136 1.382 . S
C135 C137 1.403 . S
C136 H109 0.950 . S
C136 C122 1.411 . S
C136 C135 1.382 . S
C137 C121 1.411 . S
C137 C135 1.403 . S
C137 C138 1.489 . S
C138 C137 1.489 . S
C138 C139 1.383 . S
C138 C143 1.382 . S
C139 H110 0.950 . S
C139 C138 1.383 . S
C139 C140 1.395 . S
C140 H111 0.950 . S
C140 C139 1.395 . S
C140 C141 1.288 . S
C141 C140 1.288 . S
C141 C142 1.392 . S
C142 H112 0.951 . S
C142 C141 1.392 . S
C142 C143 1.392 . S
C143 H113 0.949 . S
C143 C138 1.382 . S
C143 C142 1.392 . S
H144 C163 0.949 . S
H145 C164 0.950 . S
H146 C166 0.950 . S
H147 C167 0.950 . S
H148 C169 0.950 . S
H149 C172 0.950 . S
H150 C173 0.950 . S
H151 C175 0.951 . S
H152 C176 0.949 . S
H153 C178 0.949 . S
H154 C179 0.950 . S
H155 C181 0.950 . S
H156 C182 0.950 . S
H157 C184 0.950 . S
H158 C187 0.950 . S
H159 C188 0.950 . S
H160 C190 0.951 . S
H161 C191 0.949 . S
C162 C163 1.376 . S
C162 C167 1.386 . S
C162 C168 1.483 . S
C163 H144 0.949 . S
C163 C162 1.376 . S
C163 C164 1.397 . S
C164 H145 0.950 . S
C164 C163 1.397 . S
C164 C165 1.391 . S
C165 C164 1.391 . S
C165 C166 1.405 . S
C166 H146 0.950 . S
C166 C165 1.405 . S
C166 C167 1.367 . S
C167 H147 0.950 . S
C167 C162 1.386 . S
C167 C166 1.367 . S
C168 C162 1.483 . S
C168 C169 1.382 1_455 S
C168 C170 1.403 . S
C169 H148 0.950 . S
C169 C168 1.382 1_655 S
C169 C185 1.411 . S
C170 C168 1.403 . S
C170 C171 1.489 . S
C170 C184 1.411 . S
C171 C170 1.489 . S
C171 C172 1.383 . S
C171 C176 1.382 . S
C172 H149 0.950 . S
C172 C171 1.383 . S
C172 C173 1.395 . S
C173 H150 0.950 . S
C173 C172 1.395 . S
C173 C174 1.288 . S
C174 C173 1.288 . S
C174 C175 1.392 . S
C175 H151 0.951 . S
C175 C174 1.392 . S
C175 C176 1.392 . S
C176 H152 0.949 . S
C176 C171 1.382 . S
C176 C175 1.392 . S
C177 C178 1.376 . S
C177 C182 1.386 . S
C177 C183 1.483 . S
C178 H153 0.949 . S
C178 C177 1.376 . S
C178 C179 1.397 . S
C179 H154 0.950 . S
C179 C178 1.397 . S
C179 C180 1.391 . S
C180 C179 1.391 . S
C180 C181 1.405 . S
C181 H155 0.950 . S
C181 C180 1.405 . S
C181 C182 1.367 . S
C182 H156 0.950 . S
C182 C177 1.386 . S
C182 C181 1.367 . S
C183 C177 1.483 . S
C183 C184 1.382 1_655 S
C183 C185 1.403 . S
C184 H157 0.950 . S
C184 C170 1.411 . S
C184 C183 1.382 1_455 S
C185 C169 1.411 . S
C185 C183 1.403 . S
C185 C186 1.489 . S
C186 C185 1.489 . S
C186 C187 1.383 . S
C186 C191 1.382 . S
C187 H158 0.950 . S
C187 C186 1.383 . S
C187 C188 1.395 . S
C188 H159 0.950 . S
C188 C187 1.395 . S
C188 C189 1.288 . S
C189 C188 1.288 . S
C189 C190 1.392 . S
C190 H160 0.951 . S
C190 C189 1.392 . S
C190 C191 1.392 . S
C191 H161 0.949 . S
C191 C186 1.382 . S
C191 C190 1.392 . S
H192 C211 0.949 . S
H193 C212 0.950 . S
H194 C214 0.950 . S
H195 C215 0.950 1_556 S
H196 C217 0.950 . S
H197 C220 0.950 . S
H198 C221 0.950 . S
H199 C223 0.951 . S
H200 C224 0.949 . S
H201 C226 0.949 . S
H202 C227 0.950 . S
H203 C229 0.950 . S
H204 C230 0.962 . S
H205 C232 0.950 . S
H206 C235 0.950 . S
H207 C236 0.950 . S
H208 C238 0.951 . S
H209 C239 0.949 . S
C210 C211 1.376 . S
C210 C215 1.386 . S
C210 C216 1.485 . S
C211 H192 0.949 . S
C211 C210 1.376 . S
C211 C212 1.397 . S
C212 H193 0.950 . S
C212 C211 1.397 . S
C212 C213 1.391 . S
C213 C212 1.391 . S
C213 C214 1.405 . S
C214 H194 0.950 . S
C214 C213 1.405 . S
C214 C215 1.367 . S
C215 H195 0.950 1_554 S
C215 C210 1.386 . S
C215 C214 1.367 . S
C216 C210 1.485 . S
C216 C217 1.389 . S
C216 C218 1.394 1_554 S
C217 H196 0.950 . S
C217 C216 1.389 . S
C217 C233 1.411 1_545 S
C218 C216 1.394 1_556 S
C218 C219 1.489 . S
C218 C232 1.411 1_545 S
C219 C218 1.489 . S
C219 C220 1.383 . S
C219 C224 1.382 . S
C220 H197 0.950 . S
C220 C219 1.383 . S
C220 C221 1.395 . S
C221 H198 0.950 . S
C221 C220 1.395 . S
C221 C222 1.288 . S
C222 C221 1.288 . S
C222 C223 1.392 . S
C223 H199 0.951 . S
C223 C222 1.392 . S
C223 C224 1.392 . S
C224 H200 0.949 . S
C224 C219 1.382 . S
C224 C223 1.392 . S
C225 C226 1.376 . S
C225 C230 1.386 . S
C225 C231 1.483 . S
C226 H201 0.949 . S
C226 C225 1.376 . S
C226 C227 1.397 . S
C227 H202 0.950 . S
C227 C226 1.397 . S
C227 C228 1.391 . S
C228 C227 1.391 . S
C228 C229 1.405 . S
C229 H203 0.950 . S
C229 C228 1.405 . S
C229 C230 1.367 . S
C230 H204 0.962 . S
C230 C225 1.386 . S
C230 C229 1.367 . S
C231 C225 1.483 . S
C231 C232 1.382 . S
C231 C233 1.403 1_556 S
C232 H205 0.950 . S
C232 C218 1.411 1_565 S
C232 C231 1.382 . S
C233 C217 1.411 1_565 S
C233 C231 1.403 1_554 S
C233 C234 1.489 . S
C234 C233 1.489 . S
C234 C235 1.383 . S
C234 C239 1.382 . S
C235 H206 0.950 . S
C235 C234 1.383 . S
C235 C236 1.395 . S
C236 H207 0.950 . S
C236 C235 1.395 . S
C236 C237 1.288 . S
C237 C236 1.288 . S
C237 C238 1.392 . S
C238 H208 0.951 . S
C238 C237 1.392 . S
C238 C239 1.392 . S
C239 H209 0.949 . S
C239 C234 1.382 . S
C239 C238 1.392 . S
H240 C259 0.949 . S
H241 C260 0.950 . S
H242 C262 0.950 . S
H243 C263 0.950 . S
H244 C265 0.950 . S
H245 C268 0.950 . S
H246 C269 0.950 . S
H247 C271 0.951 . S
H248 C272 0.949 . S
H249 C274 0.949 . S
H250 C275 0.950 1_556 S
H251 C277 0.950 . S
H252 C278 0.950 . S
H253 C280 0.950 . S
H254 C283 0.950 . S
H255 C284 0.950 . S
H256 C286 0.951 . S
H257 C287 0.949 . S
C258 C259 1.376 . S
C258 C263 1.386 . S
C258 C264 1.483 . S
C259 H240 0.949 . S
C259 C258 1.376 . S
C259 C260 1.397 . S
C260 H241 0.950 . S
C260 C259 1.397 . S
C260 C261 1.391 . S
C261 C260 1.391 . S
C261 C262 1.405 . S
C262 H242 0.950 . S
C262 C261 1.405 . S
C262 C263 1.367 . S
C263 H243 0.950 . S
C263 C258 1.386 . S
C263 C262 1.367 . S
C264 C258 1.483 . S
C264 C265 1.382 . S
C264 C266 1.403 . S
C265 H244 0.950 . S
C265 C264 1.382 . S
C265 C281 1.411 . S
C266 C264 1.403 . S
C266 C267 1.489 . S
C266 C280 1.411 . S
C267 C266 1.489 . S
C267 C268 1.383 . S
C267 C272 1.382 . S
C268 H245 0.950 . S
C268 C267 1.383 . S
C268 C269 1.395 . S
C269 H246 0.950 . S
C269 C268 1.395 . S
C269 C270 1.288 . S
C270 C269 1.288 . S
C270 C271 1.392 . S
C271 H247 0.951 . S
C271 C270 1.392 . S
C271 C272 1.392 . S
C272 H248 0.949 . S
C272 C267 1.382 . S
C272 C271 1.392 . S
C273 C274 1.376 . S
C273 C278 1.386 . S
C273 C279 1.483 . S
C274 H249 0.949 . S
C274 C273 1.376 . S
C274 C275 1.397 . S
C275 H250 0.950 1_554 S
C275 C274 1.397 . S
C275 C276 1.389 1_554 S
C276 C275 1.389 1_556 S
C276 C277 1.399 1_556 S
C277 H251 0.950 . S
C277 C276 1.399 1_554 S
C277 C278 1.367 . S
C278 H252 0.950 . S
C278 C273 1.386 . S
C278 C277 1.367 . S
C279 C273 1.483 . S
C279 C280 1.382 . S
C279 C281 1.403 . S
C280 H253 0.950 . S
C280 C266 1.411 . S
C280 C279 1.382 . S
C281 C265 1.411 . S
C281 C279 1.403 . S
C281 C282 1.489 . S
C282 C281 1.489 . S
C282 C283 1.383 . S
C282 C287 1.382 . S
C283 H254 0.950 . S
C283 C282 1.383 . S
C283 C284 1.395 . S
C284 H255 0.950 . S
C284 C283 1.395 . S
C284 C285 1.288 . S
C285 C284 1.288 . S
C285 C286 1.392 . S
C286 H256 0.951 . S
C286 C285 1.392 . S
C286 C287 1.392 . S
C287 H257 0.949 . S
C287 C282 1.382 . S
C287 C286 1.392 . S
C288 O289 1.160 . S
C288 O295 1.185 . S
O289 C288 1.160 . S
O290 Zn291 1.899 . S
O290 C298 1.284 . S
Zn291 O290 1.899 . S
Zn291 O292 2.032 . S
Zn291 O295 2.086 . S
Zn291 O300 1.977 . S
O292 Zn291 2.032 . S
O292 C296 1.278 . S
C293 O294 1.203 . S
C293 O300 1.267 . S
O294 C293 1.203 . S
O295 C288 1.185 . S
O295 Zn291 2.086 . S
C296 O292 1.278 . S
C296 O297 1.211 . S
O297 C296 1.211 . S
C298 O290 1.284 . S
C298 O299 1.273 . S
O299 C298 1.273 . S
O300 Zn291 1.977 . S
O300 C293 1.267 . S
C301 O302 1.160 . S
C301 O308 1.185 . S
O302 C301 1.160 . S
O303 Zn304 1.899 . S
O303 C311 1.284 . S
Zn304 O303 1.899 . S
Zn304 O305 2.032 . S
Zn304 O308 2.086 . S
Zn304 O313 1.977 . S
O305 Zn304 2.032 . S
O305 C309 1.278 . S
C306 O307 1.203 . S
C306 O313 1.267 . S
O307 C306 1.203 . S
O308 C301 1.185 . S
O308 Zn304 2.086 . S
C309 O305 1.278 . S
C309 O310 1.211 . S
O310 C309 1.211 . S
C311 O303 1.284 . S
C311 O312 1.273 . S
O312 C311 1.273 . S
O313 Zn304 1.977 . S
O313 C306 1.267 . S
C314 O315 1.160 . S
C314 O321 1.185 . S
O315 C314 1.160 . S
O316 Zn317 1.899 . S
O316 C324 1.284 . S
Zn317 O316 1.899 . S
Zn317 O318 2.032 . S
Zn317 O321 2.086 . S
Zn317 O326 1.977 . S
O318 Zn317 2.032 . S
O318 C322 1.278 . S
C319 O320 1.203 . S
C319 O326 1.267 . S
O320 C319 1.203 . S
O321 C314 1.185 . S
O321 Zn317 2.086 . S
C322 O318 1.278 . S
C322 O323 1.211 . S
O323 C322 1.211 . S
C324 O316 1.284 . S
C324 O325 1.273 . S
O325 C324 1.273 . S
O326 Zn317 1.977 . S
O326 C319 1.267 . S
C327 O328 1.160 . S
C327 O334 1.185 . S
O328 C327 1.160 . S
O329 Zn330 1.899 . S
O329 C337 1.284 . S
Zn330 O329 1.899 . S
Zn330 O331 2.032 . S
Zn330 O334 2.086 . S
Zn330 O339 1.977 . S
O331 Zn330 2.032 . S
O331 C335 1.278 . S
C332 O333 1.203 . S
C332 O339 1.267 . S
O333 C332 1.203 . S
O334 C327 1.185 . S
O334 Zn330 2.086 . S
C335 O331 1.278 . S
C335 O336 1.211 . S
O336 C335 1.211 . S
C337 O329 1.284 . S
C337 O338 1.273 . S
O338 C337 1.273 . S
O339 Zn330 1.977 . S
O339 C332 1.267 . S
C340 O341 1.160 . S
C340 O347 1.185 . S
O341 C340 1.160 . S
O342 Zn343 1.899 . S
O342 C350 1.284 . S
Zn343 O342 1.899 . S
Zn343 O344 2.032 . S
Zn343 O347 2.086 . S
Zn343 O352 1.977 . S
O344 Zn343 2.032 . S
O344 C348 1.278 . S
C345 O346 1.206 . S
C345 O352 1.267 1_556 S
O346 C345 1.206 . S
O347 C340 1.185 . S
O347 Zn343 2.086 . S
C348 O344 1.278 . S
C348 O349 1.211 . S
O349 C348 1.211 . S
C350 O342 1.284 . S
C350 O351 1.273 . S
O351 C350 1.273 . S
O352 Zn343 1.977 . S
O352 C345 1.267 1_554 S
C353 O354 1.160 . S
C353 O360 1.185 . S
O354 C353 1.160 . S
O355 Zn356 1.899 . S
O355 C363 1.284 . S
Zn356 O355 1.899 . S
Zn356 O357 2.032 . S
Zn356 O360 2.086 . S
Zn356 O365 1.977 . S
O357 Zn356 2.032 . S
O357 C361 1.278 . S
C358 O359 1.203 . S
C358 O365 1.267 . S
O359 C358 1.203 . S
O360 C353 1.185 . S
O360 Zn356 2.086 . S
C361 O357 1.278 . S
C361 O362 1.211 . S
O362 C361 1.211 . S
C363 O355 1.284 . S
C363 O364 1.273 . S
O364 C363 1.273 . S
O365 Zn356 1.977 . S
O365 C358 1.267 . S
C363 C45 2.235 . S
C84 C288 1.823 . S
C126 C311 2.110 . S
C189 C324 1.797 . S
C327 C228 1.907 . S
C270 C340 1.569 . S
C69 C301 1.626 . S
C141 C314 1.943 . S
C174 C337 1.646 . S
C350 C213 2.183 . S
C353 C285 1.860 . S
C298 C30 2.051 . S
C36 C309 1.614 . S
C93 C322 1.434 . S
C332 C117 1.421 . S
C180 C345 1.471 . S
C361 C237 1.509 . S
C293 C261 1.374 . S
C358 C78 1.379 . S
C132 C296 1.498 . S
C306 C165 1.439 . S
C222 C319 1.419 . S
C276 C335 1.442 . S
C21 C348 1.574 . S
