# Generated by pormake.
# Topology zzz, (3,6)-cn, num edge types: 1
# Building blocks:
#     Node 0, Type 0, BuildingBlock: ESEHIV_clean_linker_0, # of connection points: 3
#     Node 1, Type 0, BuildingBlock: ESEHIV_clean_linker_0, # of connection points: 3
#     Node 2, Type 0, BuildingBlock: ESEHIV_clean_linker_0, # of connection points: 3
#     Node 3, Type 0, BuildingBlock: ESEHIV_clean_linker_0, # of connection points: 3
#     Node 4, Type 0, BuildingBlock: ESEHIV_clean_linker_0, # of connection points: 3
#     Node 5, Type 0, BuildingBlock: ESEHIV_clean_linker_0, # of connection points: 3
#     Node 6, Type 0, BuildingBlock: ESEHIV_clean_linker_0, # of connection points: 3
#     Node 7, Type 0, BuildingBlock: ESEHIV_clean_linker_0, # of connection points: 3
#     Node 8, Type 1, BuildingBlock: KUMBOL_clean_sbu_0, # of connection points: 6
#     Node 9, Type 1, BuildingBlock: KUMBOL_clean_sbu_0, # of connection points: 6
#     Node 10, Type 1, BuildingBlock: KUMBOL_clean_sbu_0, # of connection points: 6
#     Node 11, Type 1, BuildingBlock: KUMBOL_clean_sbu_0, # of connection points: 6
#     Edge 12, Type (0, 1), BuildingBlock: ZUJKAS_clean_linker_0, # of connection points: 2
#     Edge 13, Type (0, 1), BuildingBlock: ZUJKAS_clean_linker_0, # of connection points: 2
#     Edge 14, Type (0, 1), BuildingBlock: ZUJKAS_clean_linker_0, # of connection points: 2
#     Edge 15, Type (0, 1), BuildingBlock: ZUJKAS_clean_linker_0, # of connection points: 2
#     Edge 16, Type (0, 1), BuildingBlock: ZUJKAS_clean_linker_0, # of connection points: 2
#     Edge 17, Type (0, 1), BuildingBlock: ZUJKAS_clean_linker_0, # of connection points: 2
#     Edge 18, Type (0, 1), BuildingBlock: ZUJKAS_clean_linker_0, # of connection points: 2
#     Edge 19, Type (0, 1), BuildingBlock: ZUJKAS_clean_linker_0, # of connection points: 2
#     Edge 20, Type (0, 1), BuildingBlock: ZUJKAS_clean_linker_0, # of connection points: 2
#     Edge 21, Type (0, 1), BuildingBlock: ZUJKAS_clean_linker_0, # of connection points: 2
#     Edge 22, Type (0, 1), BuildingBlock: ZUJKAS_clean_linker_0, # of connection points: 2
#     Edge 23, Type (0, 1), BuildingBlock: ZUJKAS_clean_linker_0, # of connection points: 2
#     Edge 24, Type (0, 1), BuildingBlock: ZUJKAS_clean_linker_0, # of connection points: 2
#     Edge 25, Type (0, 1), BuildingBlock: ZUJKAS_clean_linker_0, # of connection points: 2
#     Edge 26, Type (0, 1), BuildingBlock: ZUJKAS_clean_linker_0, # of connection points: 2
#     Edge 27, Type (0, 1), BuildingBlock: ZUJKAS_clean_linker_0, # of connection points: 2
#     Edge 28, Type (0, 1), BuildingBlock: ZUJKAS_clean_linker_0, # of connection points: 2
#     Edge 29, Type (0, 1), BuildingBlock: ZUJKAS_clean_linker_0, # of connection points: 2
#     Edge 30, Type (0, 1), BuildingBlock: ZUJKAS_clean_linker_0, # of connection points: 2
#     Edge 31, Type (0, 1), BuildingBlock: ZUJKAS_clean_linker_0, # of connection points: 2
#     Edge 32, Type (0, 1), BuildingBlock: ZUJKAS_clean_linker_0, # of connection points: 2
#     Edge 33, Type (0, 1), BuildingBlock: ZUJKAS_clean_linker_0, # of connection points: 2
#     Edge 34, Type (0, 1), BuildingBlock: ZUJKAS_clean_linker_0, # of connection points: 2
#     Edge 35, Type (0, 1), BuildingBlock: ZUJKAS_clean_linker_0, # of connection points: 2
# Relax obj value: 0.296
# Max RMSD: 0.224
# Mean RMSD: 0.211
data_MOF--net-zzz--node1-KUMBOL_clean_sbu_0--node2-ESEHIV_clean_linker_0--edge1-ZUJKAS_clean_linker_0
_symmetry_space_group_name_H-M    P1
_symmetry_Int_Tables_number       1
_symmetry_cell_setting            triclinic
loop_
_symmetry_equiv_pos_as_xyz
'x, y, z'
_cell_length_a     58.018334
_cell_length_b     57.921107
_cell_length_c     20.246006
_cell_angle_alpha  90.699626
_cell_angle_beta   90.145517
_cell_angle_gamma 90.001024
loop_
_atom_site_label
_atom_site_type_symbol
_atom_site_fract_x
_atom_site_fract_y
_atom_site_fract_z
_atom_type_partial_charge
H0 H 0.79417 0.56643 0.17137 0.0
H1 H 0.74284 0.56868 0.01955 0.0
H2 H 0.73485 0.52232 0.1842 0.0
C3 C 0.77742 0.56108 0.15259 0.0
C4 C 0.76523 0.54395 0.1857 0.0
C5 C 0.76965 0.56965 0.09237 0.0
C6 C 0.74866 0.56182 0.06626 0.0
C7 C 0.73547 0.54506 0.09939 0.0
C8 C 0.7441 0.53592 0.15932 0.0
H9 H 0.95177 0.79798 0.16827 0.0
H10 H 0.95095 0.73877 0.0386 0.0
H11 H 1.00289 0.74478 0.19062 0.0
C12 C 0.95837 0.78107 0.1545 0.0
C13 C 0.97779 0.77257 0.18756 0.0
C14 C 0.94879 0.76923 0.10024 0.0
C15 C 0.95816 0.74791 0.08094 0.0
C16 C 0.97745 0.73873 0.1134 0.0
C17 C 0.98752 0.75126 0.1667 0.0
H18 H 0.71882 0.92871 0.15264 0.0
H19 H 0.77644 0.93849 0.02327 0.0
H20 H 0.76893 0.98175 0.19493 0.0
C21 C 0.73447 0.93776 0.13978 0.0
C22 C 0.74136 0.95688 0.17859 0.0
C23 C 0.74569 0.93211 0.08044 0.0
C24 C 0.76718 0.94237 0.0684 0.0
C25 C 0.77633 0.95923 0.1114 0.0
C26 C 0.76302 0.96715 0.16558 0.0
H27 H 0.5788 0.72732 0.17618 0.0
H28 H 0.54007 0.78906 0.21793 0.0
H29 H 0.59012 0.78802 0.06086 0.0
C30 C 0.57559 0.74546 0.16708 0.0
C31 C 0.58689 0.75637 0.11489 0.0
C32 C 0.5588 0.75699 0.20471 0.0
C33 C 0.55352 0.78019 0.19061 0.0
C34 C 0.56513 0.79153 0.13903 0.0
C35 C 0.58185 0.77956 0.10204 0.0
H36 H 0.23136 0.45133 0.07593 0.0
H37 H 0.28717 0.45297 0.21453 0.0
H38 H 0.29387 0.48758 0.02784 0.0
C39 C 0.24908 0.45593 0.08745 0.0
C40 C 0.26155 0.46952 0.04327 0.0
C41 C 0.25807 0.45025 0.14917 0.0
C42 C 0.28042 0.45706 0.16603 0.0
C43 C 0.29376 0.46997 0.12205 0.0
C44 C 0.28407 0.47682 0.06095 0.0
H45 H 0.06017 0.22305 0.10265 0.0
H46 H 0.06 0.28341 0.2273 0.0
H47 H 0.01902 0.28187 0.0494 0.0
C48 C 0.05501 0.24078 0.11201 0.0
C49 C 0.04038 0.25164 0.06656 0.0
C50 C 0.06148 0.25178 0.17122 0.0
C51 C 0.0543 0.27452 0.18272 0.0
C52 C 0.03823 0.28532 0.1414 0.0
C53 C 0.03144 0.27391 0.08198 0.0
H54 H 0.30257 0.07645 0.05995 0.0
H55 H 0.24501 0.08208 0.19208 0.0
H56 H 0.2437 0.03219 0.03217 0.0
C57 C 0.28519 0.07158 0.07367 0.0
C58 C 0.27412 0.05393 0.03784 0.0
C59 C 0.27507 0.08153 0.12996 0.0
C60 C 0.25289 0.07452 0.14835 0.0
C61 C 0.24129 0.0569 0.11341 0.0
C62 C 0.25217 0.04622 0.05846 0.0
H63 H 0.4416 0.29756 0.06308 0.0
H64 H 0.46811 0.23051 0.00889 0.0
H65 H 0.4392 0.24279 0.2027 0.0
C66 C 0.44414 0.27944 0.07426 0.0
C67 C 0.43881 0.2716 0.13724 0.0
C68 C 0.45487 0.26499 0.02773 0.0
C69 C 0.45955 0.24178 0.04416 0.0
C70 C 0.45283 0.23329 0.10669 0.0
C71 C 0.4429 0.24857 0.15307 0.0
Gd72 Gd 0.99303 0.02123 0.57982 0.0
Gd73 Gd 0.03486 0.99917 0.69601 0.0
C74 C 0.06223 0.05398 0.84194 0.0
C75 C 0.10295 0.05529 0.81474 0.0
C76 C 0.07712 0.02935 0.75479 0.0
C77 C 0.05878 0.03725 0.79158 0.0
C78 C 0.09955 0.03791 0.76679 0.0
C79 C 0.08434 0.0632 0.8526 0.0
C80 C 0.04351 0.06041 0.88145 0.0
C81 C 0.02216 0.04998 0.8709 0.0
N82 N 0.03778 0.02765 0.78059 0.0
C83 C 0.0196 0.03351 0.82031 0.0
H84 H 1.00283 0.02603 0.81285 0.0
C85 C 0.09158 1.00108 0.68109 0.0
N86 N 0.07331 0.01205 0.71057 0.0
C87 C 0.11405 0.00925 0.69009 0.0
C88 C 0.11803 0.02801 0.73243 0.0
H89 H 0.08867 0.98625 0.64924 0.0
H90 H 0.08736 0.07599 0.89113 0.0
H91 H 0.01083 0.05761 0.46383 0.0
H92 H 0.04545 0.07308 0.92086 0.0
H93 H 0.00758 0.05471 0.90145 0.0
H94 H 0.12002 0.06215 0.8245 0.0
H95 H 0.96057 0.97267 0.61175 0.0
H96 H 0.99764 0.02752 0.27354 0.0
H97 H 0.01312 0.05954 0.34233 0.0
H98 H 0.95607 0.9587 0.32354 0.0
H99 H 0.12829 1.00091 0.66492 0.0
H100 H 0.13549 0.03412 0.74015 0.0
H101 H 0.97642 0.98991 0.2671 0.0
H102 H 0.94071 0.94248 0.55022 0.0
N103 N 0.9953 0.02434 0.46407 0.0
C104 C 0.99682 0.0265 0.32689 0.0
C105 C 1.00553 0.04462 0.36547 0.0
C106 C 0.98645 0.00765 0.35754 0.0
C107 C 0.98587 1.00708 0.42726 0.0
C108 C 1.00423 0.04345 0.43422 0.0
N109 N 0.97369 0.98988 0.52649 0.0
C110 C 0.97456 0.98945 0.4593 0.0
C111 C 0.95008 0.95564 0.52394 0.0
C112 C 0.95125 0.95482 0.45534 0.0
C113 C 0.96137 0.97329 0.55885 0.0
C114 C 0.96348 0.97185 0.42206 0.0
H115 H 0.94251 0.94106 0.42855 0.0
O116 O 0.96719 0.03962 0.63762 0.0
O117 O 0.01402 0.02984 0.66958 0.0
O118 O 0.99928 0.99414 0.74055 0.0
O119 O 0.97238 1.00606 0.66241 0.0
O120 O 0.01609 0.05238 0.5922 0.0
O121 O 0.9688 0.0449 0.5333 0.0
O122 O 0.055 0.96852 0.71686 0.0
O123 O 0.00897 0.9892 0.61794 0.0
O124 O 0.02794 0.02118 0.52798 0.0
O125 O 0.05533 0.01356 0.6099 0.0
O126 O 0.04132 0.9742 0.61191 0.0
O127 O 0.02808 0.97903 0.78372 0.0
C128 C 0.02243 0.04905 0.6523 0.0
C129 C 0.96451 0.97203 0.35278 0.0
C130 C 0.97608 0.98981 0.32061 0.0
C131 C 0.96073 0.0525 0.58921 0.0
C132 C 0.96246 0.0775 0.60273 0.0
C133 C 0.94857 0.08781 0.65133 0.0
C134 C 0.98031 0.09036 0.57454 0.0
C135 C 0.98548 0.11276 0.59738 0.0
C136 C 0.95279 0.11055 0.67202 0.0
C137 C 0.97125 0.12292 0.64575 0.0
C138 C 0.9778 0.99764 0.72081 0.0
C139 C 0.02134 0.97525 0.58459 0.0
C140 C 0.04244 0.96279 0.76682 0.0
C141 C 0.03377 0.93892 0.76544 0.0
C142 C 0.04967 0.92072 0.76352 0.0
C143 C 0.01 0.93404 0.7645 0.0
C144 C 1.0021 0.91106 0.76412 0.0
C145 C 0.04203 0.89793 0.76142 0.0
C146 C 0.0185 0.89307 0.7623 0.0
C147 C 0.04954 0.01909 0.54869 0.0
H148 H 0.93491 0.07809 0.6745 0.0
H149 H 0.99063 0.08268 0.53579 0.0
H150 H 0.94212 0.11838 0.70992 0.0
H151 H 0.97462 0.1402 0.66427 0.0
H152 H 0.06803 0.92417 0.76364 0.0
H153 H 0.99769 0.94807 0.76449 0.0
H154 H 0.05441 0.88395 0.76039 0.0
H155 H 0.01329 0.87515 0.7639 0.0
Gd156 Gd 0.50763 0.98925 0.57123 0.0
Gd157 Gd 0.51712 0.03912 0.68183 0.0
C158 C 0.46241 0.07228 0.8144 0.0
C159 C 0.45767 0.11001 0.76495 0.0
C160 C 0.48448 0.08213 0.71746 0.0
C161 C 0.47842 0.06623 0.76474 0.0
C162 C 0.47443 0.10432 0.71757 0.0
C163 C 0.4518 0.09408 0.81356 0.0
C164 C 0.45799 0.05651 0.86456 0.0
C165 C 0.46951 0.03542 0.86467 0.0
N166 N 0.48914 0.04538 0.76457 0.0
C167 C 0.4853 0.03024 0.81465 0.0
H168 H 0.49399 0.01389 0.81629 0.0
C169 C 0.50984 0.09256 0.63157 0.0
N170 N 0.50122 0.07639 0.67371 0.0
C171 C 0.50013 0.11462 0.62897 0.0
C172 C 0.48214 0.12045 0.67165 0.0
H173 H 0.52382 0.08811 0.59859 0.0
H174 H 0.43934 0.09894 0.851 0.0
H175 H 0.53266 0.01278 0.43671 0.0
H176 H 0.44592 0.06055 0.90378 0.0
H177 H 0.46633 0.02315 0.90349 0.0
H178 H 0.44967 0.12691 0.76564 0.0
H179 H 0.49787 0.9408 0.6543 0.0
H180 H 0.58041 0.96427 0.3557 0.0
H181 H 0.56133 1.0024 0.35308 0.0
H182 H 0.57129 0.89799 0.49237 0.0
H183 H 0.50657 0.1271 0.59421 0.0
H184 H 0.47478 0.13763 0.67004 0.0
H185 H 0.58426 0.92551 0.4086 0.0
H186 H 0.51281 0.90095 0.65953 0.0
N187 N 0.53526 0.98104 0.48847 0.0
C188 C 0.56766 0.96869 0.39277 0.0
C189 C 0.55691 0.9902 0.39108 0.0
C190 C 0.56158 0.95302 0.44176 0.0
C191 C 0.54498 0.95971 0.48915 0.0
C192 C 0.5405 0.99601 0.43899 0.0
N193 N 0.52124 0.95108 0.57933 0.0
C194 C 0.53782 0.94429 0.53629 0.0
C195 C 0.52008 0.91298 0.62481 0.0
C196 C 0.53801 0.9061 0.58313 0.0
C197 C 0.51165 0.93555 0.62163 0.0
C198 C 0.54687 0.92169 0.53744 0.0
H199 H 0.5445 0.88859 0.58559 0.0
O200 O 0.47831 0.96695 0.55195 0.0
O201 O 0.4914 0.0148 0.64021 0.0
O202 O 0.52137 1.00481 0.73554 0.0
O203 O 0.53062 0.97745 0.65446 0.0
O204 O 0.48094 0.98114 0.64956 0.0
O205 O 0.48899 0.99179 0.4786 0.0
O206 O 0.5427 0.06501 0.70628 0.0
O207 O 0.53333 0.0139 0.61257 0.0
O208 O 0.50518 0.02342 0.51643 0.0
O209 O 0.49452 0.05031 0.5968 0.0
O210 O 0.54456 0.04746 0.60615 0.0
O211 O 0.53765 0.03587 0.77119 0.0
C212 C 0.4778 1.00187 0.6711 0.0
C213 C 0.56398 0.91521 0.49192 0.0
C214 C 0.57134 0.93086 0.44418 0.0
C215 C 0.47306 0.97735 0.49732 0.0
C216 C 0.44893 0.98489 0.49183 0.0
C217 C 0.43138 0.96829 0.49341 0.0
C218 C 0.44313 0.00838 0.48689 0.0
C219 C 0.41997 0.01529 0.48146 0.0
C220 C 0.40836 0.97498 0.48945 0.0
C221 C 0.40264 0.99824 0.48304 0.0
C222 C 0.52964 0.98432 0.71706 0.0
C223 C 0.54753 0.02681 0.58369 0.0
C224 C 0.55036 0.05376 0.75704 0.0
C225 C 0.57551 0.051 0.75934 0.0
C226 C 0.58917 0.07079 0.76792 0.0
C227 C 0.58611 0.0294 0.74905 0.0
C228 C 0.61029 0.0277 0.74738 0.0
C229 C 0.61311 0.06918 0.76596 0.0
C230 C 0.62365 0.04781 0.7557 0.0
C231 C 0.49647 0.04375 0.53422 0.0
H232 H 0.43552 0.95012 0.49778 0.0
H233 H 0.45661 0.02125 0.48691 0.0
H234 H 0.39489 0.96205 0.49029 0.0
H235 H 0.38464 1.00269 0.47725 0.0
H236 H 0.58125 0.08757 0.77536 0.0
H237 H 0.57567 0.01407 0.74154 0.0
H238 H 0.62355 0.08453 0.77256 0.0
H239 H 0.6423 0.04695 0.75567 0.0
Gd240 Gd 0.48149 0.52365 0.67967 0.0
Gd241 Gd 0.53366 0.5056 0.59163 0.0
C242 C 0.59746 0.47248 0.68534 0.0
C243 C 0.62003 0.50591 0.71885 0.0
C244 C 0.58256 0.51091 0.66619 0.0
C245 C 0.57995 0.48725 0.66189 0.0
C246 C 0.60284 0.5205 0.69401 0.0
C247 C 0.6173 0.48194 0.71476 0.0
C248 C 0.59487 0.44864 0.67661 0.0
C249 C 0.57574 0.44009 0.64247 0.0
N250 N 0.56079 0.47864 0.63212 0.0
C251 C 0.55912 0.45542 0.61905 0.0
H252 H 0.54465 0.44866 0.59104 0.0
C253 C 0.5681 0.54808 0.64362 0.0
N254 N 0.56549 0.52457 0.64234 0.0
C255 C 0.58794 0.55832 0.67022 0.0
C256 C 0.60537 0.54448 0.69569 0.0
H257 H 0.55495 0.55943 0.62569 0.0
H258 H 0.63084 0.47088 0.73341 0.0
H259 H 0.45988 0.55017 0.54732 0.0
H260 H 0.60789 0.43675 0.6941 0.0
H261 H 0.57391 0.42172 0.6335 0.0
H262 H 0.63557 0.51299 0.74092 0.0
H263 H 0.46921 0.49278 0.8146 0.0
H264 H 0.39246 0.52338 0.50863 0.0
H265 H 0.42414 0.5501 0.48126 0.0
H266 H 0.38104 0.46944 0.68308 0.0
H267 H 0.58964 0.57693 0.67159 0.0
H268 H 0.62065 0.55248 0.7167 0.0
H269 H 0.37695 0.49245 0.58229 0.0
H270 H 0.43839 0.46699 0.85414 0.0
N271 N 0.44876 0.52347 0.61112 0.0
C272 C 0.40815 0.52323 0.5377 0.0
C273 C 0.42595 0.53843 0.52231 0.0
C274 C 0.41057 0.50849 0.59153 0.0
C275 C 0.43121 0.50931 0.62849 0.0
C276 C 0.44621 0.5384 0.5599 0.0
N277 N 0.45283 0.49916 0.72237 0.0
C278 C 0.43339 0.4966 0.68556 0.0
C279 C 0.43683 0.47509 0.80644 0.0
C280 C 0.41735 0.47114 0.76724 0.0
C281 C 0.45424 0.48969 0.78391 0.0
C282 C 0.41518 0.48237 0.7067 0.0
H283 H 0.40379 0.45999 0.78508 0.0
O284 O 0.48061 0.54237 0.77336 0.0
O285 O 0.52016 0.52342 0.68066 0.0
O286 O 0.52079 0.47638 0.65762 0.0
O287 O 0.48211 0.48459 0.68011 0.0
O288 O 0.50335 0.51362 0.76695 0.0
O289 O 0.45918 0.55343 0.6924 0.0
O290 O 0.54595 0.52281 0.50326 0.0
O291 O 0.49609 0.51338 0.58227 0.0
O292 O 0.49367 0.55413 0.61968 0.0
O293 O 0.52642 0.54233 0.56199 0.0
O294 O 0.5075 0.48268 0.54024 0.0
O295 O 0.55002 0.4861 0.51261 0.0
C296 C 0.52309 0.51664 0.73943 0.0
C297 C 0.39513 0.48045 0.66799 0.0
C298 C 0.39279 0.49356 0.61063 0.0
C299 C 0.46701 0.55833 0.75097 0.0
C300 C 0.47413 0.58239 0.76145 0.0
C301 C 0.45713 0.59941 0.76782 0.0
C302 C 0.49755 0.58865 0.76333 0.0
C303 C 0.504 0.61184 0.77383 0.0
C304 C 0.46334 0.62245 0.77696 0.0
C305 C 0.48654 0.62865 0.78049 0.0
C306 C 0.50004 0.47043 0.67931 0.0
C307 C 0.48986 0.49586 0.54879 0.0
C308 C 0.55082 0.50353 0.47294 0.0
C309 C 0.5403 0.50012 0.40704 0.0
C310 C 0.54248 0.51711 0.35868 0.0
C311 C 0.52681 0.4805 0.39338 0.0
C312 C 0.51458 0.47826 0.33379 0.0
C313 C 0.531 0.51464 0.29816 0.0
C314 C 0.51696 0.49543 0.28584 0.0
C315 C 0.51086 0.55804 0.57853 0.0
H316 H 0.43902 0.59484 0.76573 0.0
H317 H 0.51064 0.57549 0.75677 0.0
H318 H 0.45012 0.63553 0.78236 0.0
H319 H 0.4907 0.64658 0.79042 0.0
H320 H 0.55277 0.53242 0.36808 0.0
H321 H 0.52546 0.46699 0.42964 0.0
H322 H 0.53262 0.52789 0.26123 0.0
H323 H 0.50756 0.49429 0.23962 0.0
Gd324 Gd 1.00138 0.48934 0.67943 0.0
Gd325 Gd 0.02183 0.53578 0.57083 0.0
C326 C 0.05058 0.60275 0.66332 0.0
C327 C 0.01583 0.6242 0.68964 0.0
C328 C 0.01333 0.58654 0.63488 0.0
C329 C 0.03702 0.58458 0.63683 0.0
C330 C 1.0025 0.60664 0.66028 0.0
C331 C 0.03984 0.62226 0.6912 0.0
C332 C 0.07457 0.60119 0.65892 0.0
C333 C 0.08442 0.58253 0.62539 0.0
N334 N 0.04689 0.56551 0.60959 0.0
C335 C 0.07024 0.56516 0.59934 0.0
H336 H 0.07805 0.55138 0.57076 0.0
C337 C 0.97753 0.57153 0.59959 0.0
N338 N 1.00087 0.56899 0.60743 0.0
C339 C 0.96611 0.59113 0.62371 0.0
C340 C 0.97859 0.60863 0.65503 0.0
H341 H 0.96718 0.55869 0.57525 0.0
H342 H 0.04997 0.63619 0.71254 0.0
H343 H 0.94472 0.4779 0.69544 0.0
H344 H 0.08556 0.61476 0.67863 0.0
H345 H 0.1029 0.58164 0.61876 0.0
H346 H 0.00776 0.63954 0.71026 0.0
H347 H 0.05325 0.46079 0.67488 0.0
H348 H 0.92925 0.41532 0.58995 0.0
H349 H 0.91629 0.44938 0.65475 0.0
H350 H 1.00389 0.38446 0.54173 0.0
H351 H 0.94761 0.59268 0.6182 0.0
H352 H 0.96966 0.62373 0.67407 0.0
H353 H 0.96211 0.39143 0.54643 0.0
H354 H 0.06901 0.42473 0.63223 0.0
N355 N 0.97342 0.46101 0.65057 0.0
C356 C 0.94177 0.42791 0.60717 0.0
C357 C 0.9344 0.44705 0.64387 0.0
C358 C 0.96534 0.42461 0.59636 0.0
C359 C 0.98094 0.44158 0.61972 0.0
C360 C 0.95058 0.46317 0.66672 0.0
N361 N 0.01861 0.454 0.64336 0.0
C362 C 1.00432 0.43776 0.61688 0.0
C363 C 0.05078 0.42826 0.62692 0.0
C364 C 0.03647 0.4122 0.59558 0.0
C365 C 0.04157 0.44905 0.65077 0.0
C366 C 0.01288 0.4167 0.59093 0.0
H367 H 0.0437 0.39621 0.57661 0.0
O368 O 0.01935 0.48198 0.77143 0.0
O369 O 0.01082 0.52672 0.67312 0.0
O370 O 0.05356 0.52349 0.62542 0.0
O371 O 0.03919 0.49683 0.70043 0.0
O372 O 0.97974 0.51879 0.71775 0.0
O373 O 0.98228 0.48026 0.76742 0.0
O374 O 1.00579 0.54573 0.47799 0.0
O375 O 0.01265 0.4986 0.57855 0.0
O376 O 0.97065 0.50001 0.61771 0.0
O377 O 0.98553 0.52538 0.53982 0.0
O378 O 0.04181 0.50581 0.52528 0.0
O379 O 0.04261 0.54873 0.49072 0.0
C380 C 0.99408 0.53515 0.7053 0.0
C381 C 0.99757 0.40047 0.56322 0.0
C382 C 0.9738 0.40446 0.56577 0.0
C383 C 1.00038 0.48102 0.80537 0.0
C384 C 0.99914 0.49623 0.86455 0.0
C385 C 0.01656 0.4955 0.9126 0.0
C386 C 0.98098 0.51208 0.87252 0.0
C387 C 0.97982 0.52699 0.92786 0.0
C388 C 0.01573 0.51029 0.96761 0.0
C389 C 0.99751 0.5259 0.97543 0.0
C390 C 0.05622 0.50916 0.67523 0.0
C391 C 0.02826 0.48943 0.54381 0.0
C392 C 0.02547 0.54941 0.44924 0.0
C393 C 0.02897 0.53788 0.38464 0.0
C394 C 0.01318 0.54122 0.33303 0.0
C395 C 0.0478 0.52308 0.37445 0.0
C396 C 0.05065 0.5111 0.31434 0.0
C397 C 0.01616 0.52977 0.27244 0.0
C398 C 0.03475 0.51471 0.26304 0.0
C399 C 0.96849 0.51297 0.56476 0.0
H400 H 0.03083 0.48355 0.90744 0.0
H401 H 0.96776 0.51296 0.835 0.0
H402 H 0.02921 0.50957 1.0046 0.0
H403 H 0.99714 0.53672 0.01936 0.0
H404 H 0.99852 0.55259 0.33973 0.0
H405 H 0.06038 0.52082 0.41343 0.0
H406 H 1.00389 0.53237 0.23287 0.0
H407 H 0.03644 0.50561 0.21625 0.0
H408 H 0.23062 0.01624 0.17316 0.0
H409 H 0.19635 0.0082 0.23988 0.0
H410 H 0.16687 0.0733 0.18198 0.0
H411 H 0.20152 0.08162 0.11754 0.0
H412 H 0.16491 0.06975 0.30993 0.0
H413 H 0.13198 0.98749 0.20505 0.0
H414 H 0.16161 0.9854 0.22953 0.0
H415 H 0.15353 1.00445 0.16371 0.0
C416 C 0.21643 0.0284 0.17292 0.0
C417 C 0.21853 0.04935 0.13919 0.0
C418 C 0.1968 0.02384 0.21119 0.0
C419 C 0.17869 0.03999 0.21575 0.0
C420 C 0.18045 0.06048 0.17947 0.0
H421 H 0.05209 0.05146 0.45115 0.0
H422 H 0.0827 0.05648 0.36929 0.0
C423 C 0.20016 0.06515 0.14202 0.0
C424 C 0.15902 0.03671 0.26277 0.0
H425 H 0.11703 0.99886 0.31063 0.0
C426 C 0.15433 0.05432 0.30941 0.0
C427 C 0.14511 0.01657 0.26285 0.0
C428 C 0.14814 0.99751 0.21217 0.0
C429 C 0.13659 0.05221 0.35633 0.0
C430 C 0.12294 0.03197 0.3569 0.0
C431 C 0.12753 0.01435 0.31041 0.0
C432 C 0.10401 0.02874 0.40589 0.0
C433 C 0.13292 0.07146 0.40607 0.0
C434 C 0.10552 0.01129 0.45328 0.0
C435 C 0.08797 0.00837 0.50001 0.0
C436 C 0.06837 0.02267 0.50002 0.0
C437 C 0.06677 0.03999 0.45211 0.0
C438 C 0.08441 0.04301 0.40563 0.0
H439 H 0.14779 0.08354 0.40817 0.0
H440 H 0.11737 0.08145 0.39209 0.0
H441 H 0.13005 0.06442 0.45616 0.0
H442 H 0.12038 0.99997 0.45437 0.0
H443 H 0.08952 0.99456 0.53518 0.0
H444 H 0.49376 0.20954 0.11034 0.0
H445 H 0.50135 0.1734 0.16926 0.0
H446 H 0.42898 0.16742 0.21397 0.0
H447 H 0.42142 0.20319 0.15495 0.0
H448 H 0.49284 0.16854 0.30248 0.0
H449 H 0.44477 0.1013 0.16254 0.0
H450 H 0.4513 0.12918 0.12817 0.0
H451 H 0.42734 0.12587 0.18361 0.0
C452 C 0.47942 0.20002 0.13069 0.0
C453 C 0.45699 0.20909 0.12767 0.0
C454 C 0.48376 0.17949 0.16486 0.0
C455 C 0.46571 0.16751 0.1958 0.0
C456 C 0.44315 0.17598 0.18964 0.0
H457 H 0.47076 0.08336 0.54718 0.0
H458 H 0.46356 0.11269 0.4637 0.0
C459 C 0.43885 0.19649 0.15597 0.0
C460 C 0.4706 0.14779 0.24057 0.0
H461 H 0.4561 0.09176 0.27284 0.0
C462 C 0.48496 0.1517 0.29558 0.0
C463 C 0.4603 0.12576 0.23188 0.0
C464 C 0.44524 0.12017 0.17301 0.0
C465 C 0.48881 0.13449 0.3428 0.0
C466 C 0.47795 0.11274 0.33522 0.0
C467 C 0.46416 0.10854 0.27923 0.0
C468 C 0.48098 0.0942 0.3849 0.0
C469 C 0.50459 0.13971 0.40047 0.0
C470 C 0.49241 0.07361 0.36798 0.0
C471 C 0.49684 0.05691 0.41593 0.0
C472 C 0.48984 0.06039 0.48187 0.0
C473 C 0.47722 0.08046 0.49766 0.0
C474 C 0.47297 0.09723 0.44985 0.0
H475 H 0.51554 0.15508 0.3915 0.0
H476 H 0.49405 0.14322 0.44515 0.0
H477 H 0.51594 0.12474 0.41088 0.0
H478 H 0.49853 0.07076 0.31803 0.0
H479 H 0.50624 0.04156 0.40147 0.0
H480 H 0.33204 0.44313 0.12237 0.0
H481 H 0.36724 0.44964 0.1875 0.0
H482 H 0.3427 0.51734 0.24339 0.0
H483 H 0.30742 0.51076 0.17819 0.0
H484 H 0.40261 0.48419 0.19234 0.0
H485 H 0.34979 0.48293 0.42069 0.0
H486 H 0.33872 0.47357 0.34137 0.0
H487 H 0.34117 0.50383 0.36057 0.0
C488 C 0.33461 0.45973 0.14655 0.0
C489 C 0.31726 0.47664 0.14423 0.0
C490 C 0.35462 0.46336 0.18424 0.0
C491 C 0.35749 0.48383 0.22129 0.0
C492 C 0.34076 0.5013 0.21591 0.0
H493 H 0.48271 0.52253 0.44151 0.0
H494 H 0.45132 0.51965 0.36043 0.0
C495 C 0.32078 0.4977 0.17788 0.0
C496 C 0.37708 0.48608 0.26897 0.0
H497 H 0.38949 0.48989 0.4339 0.0
C498 C 0.39978 0.48561 0.24517 0.0
C499 C 0.37343 0.48738 0.33806 0.0
C500 C 0.3495 0.48676 0.36704 0.0
C501 C 0.41887 0.48682 0.2883 0.0
C502 C 0.41524 0.48874 0.35754 0.0
C503 C 0.39247 0.48878 0.38115 0.0
C504 C 0.43461 0.49054 0.40657 0.0
C505 C 0.44268 0.48536 0.25888 0.0
C506 C 0.43551 0.47571 0.46121 0.0
C507 C 0.45318 0.47773 0.5084 0.0
C508 C 0.47013 0.49487 0.50254 0.0
C509 C 0.46949 0.50952 0.44778 0.0
C510 C 0.45176 0.50759 0.4008 0.0
H511 H 0.44253 0.47619 0.21037 0.0
H512 H 0.44932 0.50307 0.25077 0.0
H513 H 0.4547 0.47632 0.29217 0.0
H514 H 0.4226 0.46239 0.4671 0.0
H515 H 0.45368 0.46588 0.54937 0.0
H516 H 0.01842 0.29188 0.2608 0.0
H517 H 0.01167 0.32806 0.31853 0.0
H518 H 0.02673 0.3653 0.1404 0.0
H519 H 0.03559 0.32851 0.08351 0.0
H520 H 0.04768 0.38571 0.23004 0.0
H521 H 0.96273 0.37236 0.34038 0.0
H522 H 0.98052 0.34888 0.36563 0.0
H523 H 0.97394 0.35261 0.279 0.0
C524 C 0.0198 0.30774 0.23322 0.0
C525 C 0.02766 0.30722 0.16742 0.0
C526 C 0.01564 0.32861 0.2664 0.0
C527 C 0.01817 0.34982 0.2343 0.0
C528 C 0.02455 0.34932 0.16688 0.0
H529 H 0.98903 0.47364 0.48232 0.0
H530 H 0.98558 0.44151 0.40279 0.0
C531 C 0.02932 0.32825 0.13382 0.0
C532 C 0.01672 0.37211 0.27347 0.0
H533 H 0.98832 0.39831 0.40239 0.0
C534 C 0.03438 0.38856 0.26674 0.0
C535 C 0.99919 0.37662 0.32089 0.0
C536 C 0.97793 0.36175 0.32616 0.0
C537 C 0.03559 0.40846 0.30742 0.0
C538 C 0.0195 0.41162 0.35955 0.0
C539 C 1.00118 0.39581 0.36419 0.0
C540 C 0.02138 0.43103 0.40955 0.0
C541 C 0.05391 0.4261 0.29261 0.0
C542 C 0.04237 0.43574 0.44208 0.0
C543 C 0.04438 0.45435 0.48678 0.0
C544 C 0.02531 0.46828 0.5021 0.0
C545 C 1.00403 0.46309 0.47198 0.0
C546 C 1.00209 0.44471 0.42623 0.0
H547 H 0.0587 0.42566 0.23951 0.0
H548 H 0.04801 0.44382 0.30533 0.0
H549 H 0.06967 0.42211 0.32141 0.0
H550 H 0.05737 0.42509 0.43286 0.0
H551 H 0.06099 0.45796 0.5092 0.0
H552 H 0.78379 0.99129 0.01737 0.0
H553 H 0.82041 0.99895 0.96136 0.0
H554 H 0.85595 0.95612 0.10123 0.0
H555 H 0.81918 0.94838 0.15731 0.0
H556 H 0.87964 1.00211 0.05249 0.0
H557 H 0.84959 0.94011 0.85882 0.0
H558 H 0.82954 0.96222 0.88406 0.0
H559 H 0.83798 0.94044 0.94156 0.0
C560 C 0.79957 0.98434 0.03782 0.0
C561 C 0.79874 0.96965 0.09251 0.0
C562 C 0.82044 0.9885 1.00538 0.0
C563 C 0.84091 0.97796 0.02674 0.0
C564 C 0.8404 0.96451 0.08403 0.0
H565 H 0.98008 0.98135 0.84832 0.0
H566 H 0.94815 0.97518 0.9251 0.0
C567 C 0.81945 0.96028 0.11645 0.0
C568 C 0.86208 0.97909 0.98524 0.0
H569 H 0.88415 0.9601 0.83784 0.0
C570 C 0.88076 0.99284 1.00575 0.0
C571 C 0.86352 0.96693 0.92434 0.0
C572 C 0.84421 0.95143 0.90072 0.0
C573 C 0.90048 0.99542 0.96576 0.0
C574 C 0.9018 0.98347 0.90423 0.0
C575 C 0.88325 0.96931 0.88473 0.0
C576 C 0.92153 0.98635 0.85746 0.0
C577 C 0.91929 0.01164 0.98869 0.0
C578 C 0.91733 0.99375 0.79271 0.0
C579 C 0.9355 0.99688 0.74831 0.0
C580 C 0.95849 0.9927 0.7673 0.0
C581 C 0.96267 0.98485 0.83182 0.0
C582 C 0.9444 0.98153 0.87618 0.0
H583 H 0.91313 0.02376 0.02778 0.0
H584 H 0.9337 1.00144 0.00956 0.0
H585 H 0.92607 0.02186 0.94695 0.0
H586 H 0.89991 0.99747 0.77665 0.0
H587 H 0.93145 1.00293 0.69923 0.0
H588 H 0.58906 0.83155 0.15682 0.0
H589 H 0.58271 0.86817 0.09984 0.0
H590 H 0.52195 0.8395 1.00673 0.0
H591 H 0.52779 0.80341 0.06623 0.0
H592 H 0.58515 0.87488 0.97508 0.0
H593 H 0.49765 0.90173 0.04922 0.0
H594 H 0.51306 0.87919 0.09133 0.0
H595 H 0.49732 0.87288 0.01634 0.0
C596 C 0.57385 0.83352 0.12624 0.0
C597 C 0.55857 0.81496 0.11713 0.0
C598 C 0.57033 0.85434 0.0931 0.0
C599 C 0.55165 0.8569 0.04931 0.0
C600 C 0.53606 0.83843 0.04162 0.0
H601 H 0.55157 0.94259 0.70149 0.0
H602 H 0.55736 0.9129 0.7841 0.0
C603 C 0.53939 0.81775 0.07561 0.0
C604 C 0.54983 0.87782 1.00688 0.0
H605 H 0.51206 0.91812 0.94856 0.0
C606 C 0.56922 0.8845 0.97015 0.0
C607 C 0.52921 0.89074 1.00057 0.0
C608 C 0.50824 0.88591 0.04207 0.0
C609 C 0.56838 0.90311 0.92617 0.0
C610 C 0.54733 0.91502 0.91653 0.0
C611 C 0.52815 0.90887 0.95488 0.0
C612 C 0.54465 0.93355 0.86623 0.0
C613 C 0.5902 0.90982 0.89095 0.0
C614 C 0.5352 0.9551 0.88389 0.0
C615 C 0.53116 0.97192 0.83601 0.0
C616 C 0.53635 0.96758 0.7691 0.0
C617 C 0.54672 0.94637 0.75204 0.0
C618 C 0.55045 0.92944 0.79971 0.0
H619 H 0.60574 0.90499 0.91985 0.0
H620 H 0.59099 0.90041 0.84296 0.0
H621 H 0.59084 0.92865 0.8815 0.0
H622 H 0.53066 0.95883 0.93477 0.0
H623 H 0.52346 0.9881 0.85147 0.0
H624 H 0.69421 0.53589 0.16123 0.0
H625 H 0.65702 0.52651 0.10925 0.0
H626 H 0.68899 0.52812 0.91733 0.0
H627 H 0.72611 0.53618 0.96869 0.0
H628 H 0.63171 0.55138 0.02805 0.0
H629 H 0.65296 0.4701 0.89748 0.0
H630 H 0.67186 0.4827 0.95894 0.0
H631 H 0.67265 0.49241 0.87467 0.0
C632 C 0.69341 0.53367 0.10809 0.0
C633 C 0.71322 0.53698 0.06931 0.0
C634 C 0.67207 0.52849 0.07831 0.0
C635 C 0.6701 0.52632 0.00916 0.0
C636 C 0.68997 0.52915 0.97069 0.0
H637 H 0.54919 0.55393 0.77065 0.0
H638 H 0.58368 0.55552 0.84032 0.0
C639 C 0.71123 0.53414 1.00029 0.0
C640 C 0.64719 0.52259 0.97655 0.0
H641 H 0.61992 0.4906 0.85691 0.0
C642 C 0.62908 0.53794 0.99102 0.0
C643 C 0.64336 0.50477 0.92919 0.0
C644 C 0.66118 0.48642 0.91475 0.0
C645 C 0.60778 0.53663 0.9576 0.0
C646 C 0.60461 0.51994 0.9064 0.0
C647 C 0.62233 0.50387 0.89446 0.0
C648 C 0.58343 0.51908 0.86379 0.0
C649 C 0.58885 0.55299 0.97877 0.0
C650 C 0.57205 0.498 0.85084 0.0
C651 C 0.55271 0.49708 0.80909 0.0
C652 C 0.54464 0.51712 0.77836 0.0
C653 C 0.5556 0.53819 0.79221 0.0
C654 C 0.57502 0.53912 0.83335 0.0
H655 H 0.59057 0.55778 0.03186 0.0
H656 H 0.5902 0.56914 0.95012 0.0
H657 H 0.5715 0.54537 0.97069 0.0
H658 H 0.578 0.48223 0.87348 0.0
H659 H 0.54408 0.48072 0.80065 0.0
H660 H 1.00521 0.73386 1.00651 0.0
H661 H 0.01241 0.69833 0.94255 0.0
H662 H 0.97676 0.65893 0.08985 0.0
H663 H 0.96967 0.69458 0.15413 0.0
H664 H 0.01762 0.63611 0.03223 0.0
H665 H 0.95663 0.66893 0.84347 0.0
H666 H 0.98016 0.68792 0.86377 0.0
H667 H 0.95885 0.68157 0.92516 0.0
C668 C 0.99969 0.71749 0.02639 0.0
C669 C 0.98729 0.71692 0.08594 0.0
C670 C 1.00354 0.69722 0.98942 0.0
C671 C 0.99485 0.67592 0.01076 0.0
C672 C 0.98366 0.6751 0.07229 0.0
H673 H 0.95839 0.55939 0.75756 0.0
H674 H 0.95973 0.5925 0.83356 0.0
C675 C 0.97978 0.69544 0.10932 0.0
C676 C 0.99569 0.65504 0.96644 0.0
H677 H 0.97549 0.63387 0.81879 0.0
C678 C 0.00838 0.63557 0.98561 0.0
C679 C 0.98352 0.6542 0.9057 0.0
C680 C 0.96884 0.67416 0.88327 0.0
C681 C 0.0094 0.61543 0.9456 0.0
C682 C 0.9974 0.6147 0.88432 0.0
C683 C 0.98468 0.63423 0.86552 0.0
C684 C 0.997 0.59383 0.8396 0.0
C685 C 0.02321 0.59519 0.97026 0.0
C686 C 0.01744 0.58327 0.81705 0.0
C687 C 0.01663 0.56416 0.77365 0.0
C688 C 0.9954 0.55566 0.75012 0.0
C689 C 0.97501 0.56591 0.77356 0.0
C690 C 0.9758 0.58487 0.8171 0.0
H691 H 0.02369 0.59496 0.02512 0.0
H692 H 0.01629 0.57842 0.95218 0.0
H693 H 0.04122 0.59683 0.95261 0.0
H694 H 0.03407 0.58998 0.83222 0.0
H695 H 0.03263 0.55622 0.75782 0.0
H696 H 0.05112 0.25542 0.30198 0.0
H697 H 0.06015 0.22869 0.38772 0.0
H698 H 0.10268 0.18923 0.25318 0.0
H699 H 0.09401 0.21676 0.1654 0.0
H700 H 0.06924 0.16404 0.29895 0.0
H701 H 0.10689 0.20684 0.51554 0.0
H702 H 0.08461 0.22547 0.48623 0.0
H703 H 0.10912 0.21912 0.4341 0.0
C704 C 0.06341 0.24188 0.29071 0.0
C705 C 0.07174 0.23831 0.22616 0.0
C706 C 0.06869 0.22649 0.34055 0.0
C707 C 0.0824 0.20704 0.32753 0.0
C708 C 0.09222 0.20425 0.26455 0.0
H709 H 0.02768 0.09452 0.56461 0.0
H710 H 0.0596 0.11358 0.50984 0.0
C711 C 0.08704 0.21986 0.21428 0.0
C712 C 0.08128 0.18767 0.3745 0.0
H713 H 0.07308 0.1805 0.53967 0.0
C714 C 0.07107 0.16709 0.35166 0.0
C715 C 0.08398 0.19138 0.44328 0.0
C716 C 0.09702 0.21186 0.47085 0.0
C717 C 0.06027 0.15202 0.39546 0.0
C718 C 0.05996 0.15771 0.46358 0.0
C719 C 0.07289 0.17653 0.48716 0.0
C720 C 0.04302 0.14697 0.50788 0.0
C721 C 0.04715 0.13153 0.36788 0.0
C722 C 0.02351 0.15967 0.52714 0.0
C723 C 1.00512 0.14882 0.55851 0.0
C724 C 1.00595 0.12503 0.57101 0.0
C725 C 0.02619 0.11273 0.5549 0.0
C726 C 0.04458 0.12361 0.52386 0.0
H727 H 0.04787 0.1305 0.31309 0.0
H728 H 0.05452 0.11536 0.38783 0.0
H729 H 0.02879 0.13245 0.38314 0.0
H730 H 0.02198 0.17776 0.51472 0.0
H731 H 0.98983 0.15883 0.56975 0.0
H732 H 0.30418 0.11733 0.09909 0.0
H733 H 0.33607 0.13159 0.16817 0.0
H734 H 0.31094 0.09127 0.33059 0.0
H735 H 0.27912 0.07746 0.26296 0.0
H736 H 0.33588 0.13094 0.37291 0.0
H737 H 0.38363 0.08065 0.17959 0.0
H738 H 0.36833 0.10627 0.15674 0.0
H739 H 0.35261 0.08086 0.17978 0.0
C740 C 0.30507 0.1122 0.1503 0.0
C741 C 0.28947 0.09586 0.17518 0.0
C742 C 0.32327 0.12036 0.18967 0.0
C743 C 0.32627 0.11192 0.25382 0.0
C744 C 0.30904 0.09797 0.28112 0.0
H745 H 0.38208 0.03945 0.52461 0.0
H746 H 0.36664 0.07424 0.47659 0.0
C747 C 0.29078 0.09003 0.24222 0.0
C748 C 0.34896 0.11268 0.28754 0.0
H749 H 0.39828 0.08099 0.2852 0.0
C750 C 0.34999 0.12069 0.35325 0.0
C751 C 0.36778 0.09998 0.26139 0.0
C752 C 0.3682 0.09137 0.19062 0.0
C753 C 0.36776 0.11365 0.39574 0.0
C754 C 0.38435 0.09765 0.37225 0.0
C755 C 0.38529 0.09276 0.30415 0.0
C756 C 0.39674 0.08158 0.41691 0.0
C757 C 0.36773 0.12236 0.46617 0.0
C758 C 0.41914 0.07407 0.40147 0.0
C759 C 0.4275 0.05325 0.42614 0.0
C760 C 0.41382 0.03979 0.46822 0.0
C761 C 0.39274 0.04892 0.49049 0.0
C762 C 0.38412 0.06934 0.46427 0.0
H763 H 0.36372 0.14112 0.46765 0.0
H764 H 0.35396 0.11349 0.4941 0.0
H765 H 0.38456 0.1195 0.49101 0.0
H766 H 0.42931 0.08319 0.36543 0.0
H767 H 0.44383 0.04691 0.40768 0.0
H768 H 0.46644 0.28385 0.23778 0.0
H769 H 0.46572 0.32052 0.29639 0.0
H770 H 0.39907 0.33569 0.21141 0.0
H771 H 0.40095 0.29943 0.14781 0.0
H772 H 0.42311 0.36877 0.18743 0.0
H773 H 0.44215 0.35424 0.44692 0.0
H774 H 0.4635 0.33783 0.40374 0.0
H775 H 0.43331 0.3306 0.3938 0.0
C776 C 0.45118 0.29456 0.23403 0.0
C777 C 0.43371 0.28892 0.18885 0.0
C778 C 0.45064 0.31557 0.26806 0.0
C779 C 0.43219 0.33102 0.25934 0.0
C780 C 0.41353 0.32419 0.21907 0.0
H781 H 0.48564 0.45972 0.42417 0.0
H782 H 0.45833 0.42834 0.40955 0.0
C783 C 0.41445 0.30341 0.18324 0.0
C784 C 0.43495 0.35549 0.28102 0.0
H785 H 0.46394 0.3873 0.39655 0.0
C786 C 0.43133 0.37291 0.23424 0.0
C787 C 0.44478 0.36156 0.34285 0.0
C788 C 0.44581 0.34499 0.3997 0.0
C789 C 0.43964 0.39538 0.24475 0.0
C790 C 0.45318 0.40016 0.30147 0.0
C791 C 0.45445 0.38355 0.35146 0.0
C792 C 0.46763 0.42127 0.30772 0.0
C793 C 0.43409 0.41353 0.19427 0.0
C794 C 0.48199 0.4281 0.25547 0.0
C795 C 0.49695 0.44687 0.26313 0.0
C796 C 0.4985 0.45859 0.32402 0.0
C797 C 0.48456 0.45134 0.37649 0.0
C798 C 0.46901 0.43324 0.36819 0.0
H799 H 0.4166 0.41068 0.17321 0.0
H800 H 0.43483 0.43122 0.2159 0.0
H801 H 0.44652 0.41222 0.15283 0.0
H802 H 0.48216 0.41855 0.20921 0.0
H803 H 0.50783 0.4517 0.22217 0.0
H804 H 0.24369 0.47342 0.25662 0.0
H805 H 0.20727 0.46753 0.31161 0.0
H806 H 0.19918 0.40192 0.2101 0.0
H807 H 0.23509 0.40908 0.15027 0.0
H808 H 0.16482 0.42344 0.18458 0.0
H809 H 0.17244 0.43849 0.44898 0.0
H810 H 0.18804 0.46196 0.41435 0.0
H811 H 0.19778 0.43261 0.40006 0.0
C812 C 0.23468 0.45722 0.24854 0.0
C813 C 0.24202 0.44171 0.19941 0.0
C814 C 0.21379 0.4537 0.28053 0.0
C815 C 0.20023 0.43416 0.26563 0.0
C816 C 0.20914 0.41721 0.22232 0.0
H817 H 0.06627 0.48072 0.40463 0.0
H818 H 0.09848 0.45397 0.39582 0.0
C819 C 0.22974 0.42114 0.18857 0.0
C820 C 0.17529 0.43453 0.28265 0.0
H821 H 0.13949 0.46011 0.39435 0.0
C822 C 0.15922 0.43067 0.23151 0.0
C823 C 0.16728 0.44297 0.34431 0.0
C824 C 0.1824 0.4439 0.405 0.0
C825 C 0.13625 0.4378 0.23769 0.0
C826 C 0.12953 0.45036 0.2948 0.0
C827 C 0.14473 0.45147 0.349 0.0
C828 C 0.10801 0.46429 0.29705 0.0
C829 C 0.11973 0.43226 0.18203 0.0
C830 C 0.10227 0.479 0.24458 0.0
C831 C 0.08318 0.49365 0.24889 0.0
C832 C 0.06998 0.49453 0.30679 0.0
C833 C 0.07594 0.4801 0.35933 0.0
C834 C 0.0945 0.46494 0.35436 0.0
H835 H 0.12358 0.41497 0.16037 0.0
H836 H 0.10152 0.43245 0.19875 0.0
H837 H 0.12193 0.44503 0.14211 0.0
H838 H 0.11298 0.4798 0.201 0.0
H839 H 0.07938 0.50499 0.20813 0.0
H840 H 0.95025 0.77272 0.96669 0.0
H841 H 0.93213 0.80261 0.90173 0.0
H842 H 0.89159 0.82378 0.07014 0.0
H843 H 0.9102 0.7939 0.13651 0.0
H844 H 0.88979 0.8246 0.86581 0.0
H845 H 0.93904 0.87503 0.05647 0.0
H846 H 0.9412 0.84405 0.05325 0.0
H847 H 0.91508 0.85763 0.08144 0.0
C848 C 0.93674 0.78298 0.98936 0.0
C849 C 0.9321 0.78138 0.05721 0.0
C850 C 0.9263 0.80011 0.95196 0.0
C851 C 0.91103 0.81588 0.98166 0.0
C852 C 0.90376 0.81213 0.04673 0.0
H853 H 0.96954 0.93534 0.83537 0.0
H854 H 0.9328 0.92089 0.87404 0.0
C855 C 0.91442 0.79509 0.08458 0.0
C856 C 0.90813 0.83861 0.94989 0.0
H857 H 0.9365 0.88991 0.95219 0.0
C858 C 0.89928 0.83932 0.8853 0.0
C859 C 0.91983 0.85817 0.9759 0.0
C860 C 0.92939 0.85886 0.04545 0.0
C861 C 0.90462 0.85771 0.84332 0.0
C862 C 0.91979 0.87524 0.86605 0.0
C863 C 0.92534 0.87629 0.93364 0.0
C864 C 0.93498 0.88834 0.82055 0.0
C865 C 0.89513 0.85733 0.77398 0.0
C866 C 0.9474 0.87608 0.77191 0.0
C867 C 0.96801 0.88484 0.74728 0.0
C868 C 0.97716 0.9056 0.7727 0.0
C869 C 0.96326 0.91923 0.8147 0.0
C870 C 0.94216 0.91085 0.8374 0.0
H871 H 0.87657 0.85261 0.77469 0.0
H872 H 0.89706 0.87427 0.7495 0.0
H873 H 0.90413 0.84384 0.7444 0.0
H874 H 0.9427 0.85862 0.75796 0.0
H875 H 0.97772 0.87432 0.71265 0.0
H876 H 0.76241 0.90728 0.97129 0.0
H877 H 0.74218 0.90349 0.86565 0.0
H878 H 0.67894 0.92478 0.95917 0.0
H879 H 0.69855 0.93013 0.06193 0.0
H880 H 0.6732 0.89571 0.83836 0.0
H881 H 0.7312 0.97195 0.8105 0.0
H882 H 0.74301 0.94362 0.82294 0.0
H883 H 0.72883 0.95845 0.88986 0.0
C884 C 0.7441 0.91081 0.96993 0.0
C885 C 0.73266 0.92033 0.02543 0.0
C886 C 0.7325 0.90819 0.90946 0.0
C887 C 0.70923 0.91454 0.90435 0.0
C888 C 0.69697 0.91994 0.96187 0.0
H889 H 0.60091 0.98811 0.81389 0.0
H890 H 0.62557 0.95429 0.82188 0.0
C891 C 0.70851 0.92301 0.02154 0.0
C892 C 0.69909 0.92236 0.84142 0.0
H893 H 0.69453 0.97421 0.76588 0.0
C894 C 0.67826 0.91246 0.81988 0.0
C895 C 0.7059 0.94397 0.81609 0.0
C896 C 0.72844 0.95524 0.83568 0.0
C897 C 0.6628 0.92493 0.78041 0.0
C898 C 0.66794 0.94814 0.76498 0.0
C899 C 0.69016 0.95663 0.77862 0.0
C900 C 0.64985 0.96523 0.74702 0.0
C901 C 0.64068 0.9135 0.75876 0.0
C902 C 0.65489 0.98283 0.70216 0.0
C903 C 0.64121 1.00262 0.69949 0.0
C904 C 0.6219 1.00503 0.74057 0.0
C905 C 0.6156 0.98661 0.78116 0.0
C906 C 0.62962 0.96704 0.78505 0.0
H907 H 0.64389 0.89518 0.74465 0.0
H908 H 0.62848 0.91348 0.80073 0.0
H909 H 0.6326 0.92243 0.71636 0.0
H910 H 0.67036 0.98201 0.67241 0.0
H911 H 0.64633 0.01652 0.66735 0.0
H912 H 0.61946 0.72336 0.1418 0.0
H913 H 0.63018 0.69147 0.06776 0.0
H914 H 0.59449 0.72473 0.90773 0.0
H915 H 0.58392 0.75637 0.98078 0.0
H916 H 0.59408 0.66797 0.03088 0.0
H917 H 0.6405 0.68799 0.80362 0.0
H918 H 0.64269 0.70607 0.87686 0.0
H919 H 0.61971 0.71032 0.81792 0.0
C920 C 0.61481 0.72431 0.09004 0.0
C921 C 0.60041 0.7421 0.06744 0.0
C922 C 0.62111 0.70615 0.04765 0.0
C923 C 0.61308 0.70556 0.98211 0.0
C924 C 0.60133 0.72486 0.95756 0.0
H925 H 0.52553 0.65157 0.73506 0.0
H926 H 0.56138 0.667 0.77919 0.0
C927 C 0.5951 0.74301 0.99978 0.0
C928 C 0.61043 0.68314 0.94659 0.0
H929 H 0.60625 0.66201 0.78918 0.0
C930 C 0.5975 0.66612 0.97843 0.0
C931 C 0.61515 0.68054 0.87851 0.0
C932 C 0.63051 0.69716 0.84264 0.0
C933 C 0.58605 0.64875 0.94257 0.0
C934 C 0.58837 0.64788 0.87278 0.0
C935 C 0.60408 0.66288 0.84235 0.0
C936 C 0.57094 0.63584 0.83084 0.0
C937 C 0.56945 0.63347 0.97945 0.0
C938 C 0.56509 0.61262 0.84072 0.0
C939 C 0.54378 0.60418 0.81878 0.0
C940 C 0.52859 0.61847 0.78347 0.0
C941 C 0.5363 0.64044 0.76468 0.0
C942 C 0.5571 0.64915 0.7889 0.0
H943 H 0.56766 0.63865 0.03221 0.0
H944 H 0.55206 0.63402 0.9565 0.0
H945 H 0.57574 0.61539 0.97805 0.0
H946 H 0.57598 0.60165 0.87039 0.0
H947 H 0.53854 0.58717 0.8343 0.0
H948 H 0.78702 0.55763 0.97336 0.0
H949 H 0.82461 0.56947 0.93255 0.0
H950 H 0.82761 0.62349 0.08099 0.0
H951 H 0.79033 0.61075 0.12428 0.0
H952 H 0.85145 0.60517 0.89191 0.0
H953 H 0.8755 0.57954 0.14813 0.0
H954 H 0.84653 0.57632 0.11746 0.0
H955 H 0.85736 0.60443 0.14019 0.0
C956 C 0.79519 0.57271 0.99533 0.0
C957 C 0.78606 0.58305 0.05252 0.0
C958 C 0.81676 0.57946 0.97212 0.0
C959 C 0.82931 0.5968 1.00539 0.0
C960 C 0.81853 0.60956 0.056 0.0
H961 H 0.97867 0.57021 0.98827 0.0
H962 H 0.9454 0.59566 1.00253 0.0
C963 C 0.79715 0.60248 0.0802 0.0
C964 C 0.85463 0.59777 0.9956 0.0
H965 H 0.90438 0.57989 0.06971 0.0
C966 C 0.86316 0.60032 0.93121 0.0
C967 C 0.87002 0.59145 0.047 0.0
C968 C 0.86199 0.58762 0.117 0.0
C969 C 0.88609 0.59472 0.91584 0.0
C970 C 0.90072 0.58642 0.96607 0.0
C971 C 0.89299 0.58628 0.03148 0.0
C972 C 0.92173 0.57304 0.95045 0.0
C973 C 0.89411 0.59622 0.84526 0.0
C974 C 0.91929 0.55174 0.91775 0.0
C975 C 0.93802 0.53691 0.91099 0.0
C976 C 0.95988 0.54312 0.93585 0.0
C977 C 0.96226 0.56467 0.96839 0.0
C978 C 0.94331 0.57944 0.97597 0.0
H979 H 0.88415 0.60937 0.8177 0.0
H980 H 0.91275 0.60053 0.84285 0.0
H981 H 0.89146 0.57926 0.82028 0.0
H982 H 0.90256 0.54611 0.8999 0.0
H983 H 0.93499 0.52022 0.88804 0.0
H984 H 0.06624 0.24336 0.95727 0.0
H985 H 0.0615 0.21142 0.87786 0.0
H986 H 0.99661 0.19398 0.96779 0.0
H987 H 1.00123 0.22627 0.04637 0.0
H988 H 0.06083 0.16717 0.91355 0.0
H989 H 0.98034 0.18431 0.77545 0.0
H990 H 0.99493 0.20641 0.82337 0.0
H991 H 0.97662 0.18579 0.86336 0.0
C992 C 0.05043 0.2334 0.95791 0.0
C993 C 0.03378 0.2378 1.00681 0.0
C994 C 0.04785 0.2149 0.91302 0.0
C995 C 0.0286 0.20017 0.91599 0.0
C996 C 0.01136 0.20526 0.9629 0.0
H997 H 0.99097 0.06678 0.73887 0.0
H998 H 0.99319 0.10307 0.80216 0.0
C999 C 0.01392 0.22387 1.00774 0.0
C1000 C 0.028 0.17819 0.87565 0.0
H1001 H 0.99523 0.146 0.76789 0.0
C1002 C 0.04656 0.1627 0.88112 0.0
C1003 C 0.00936 0.17203 0.83361 0.0
C1004 C 0.98928 0.18809 0.82298 0.0
C1005 C 0.04681 0.14124 0.84743 0.0
C1006 C 0.02814 0.13496 0.80542 0.0
C1007 C 0.00961 0.15055 0.79969 0.0
C1008 C 0.02728 0.11228 0.76804 0.0
C1009 C 0.06676 0.12518 0.85968 0.0
C1010 C 0.04558 0.10502 0.727 0.0
C1011 C 0.04451 0.08389 0.69207 0.0
C1012 C 0.02507 0.06957 0.69671 0.0
C1013 C 1.00655 0.07703 0.73625 0.0
C1014 C 0.00772 0.09798 0.77184 0.0
H1015 H 0.07529 0.12894 0.90781 0.0
H1016 H 0.06097 0.10699 0.85932 0.0
H1017 H 0.07981 0.12736 0.82028 0.0
H1018 H 0.06053 0.11592 0.72064 0.0
H1019 H 0.05865 0.07901 0.65998 0.0
H1020 H 0.28016 0.07075 0.91444 0.0
H1021 H 0.31093 0.06018 0.83693 0.0
H1022 H 0.33116 1.00454 0.96433 0.0
H1023 H 0.29996 0.01478 0.04058 0.0
H1024 H 0.35478 0.06355 0.8658 0.0
H1025 H 0.33936 0.97317 0.78875 0.0
H1026 H 0.31742 0.99056 0.82818 0.0
H1027 H 0.33907 0.97632 0.87693 0.0
C1028 C 0.29047 0.05555 0.92403 0.0
C1029 C 0.28724 0.04316 0.98253 0.0
C1030 C 0.30827 0.04967 0.88015 0.0
C1031 C 0.32343 0.03137 0.89402 0.0
C1032 C 0.31946 0.01829 0.95108 0.0
H1033 H 0.45616 0.97973 0.77001 0.0
H1034 H 0.41876 0.98847 0.81974 0.0
C1035 C 0.30153 0.02409 0.99472 0.0
C1036 C 0.3449 0.02794 0.85388 0.0
H1037 H 0.37801 0.98715 0.77569 0.0
C1038 C 0.35972 0.04687 0.84544 0.0
C1039 C 0.35148 1.00627 0.82683 0.0
C1040 C 0.33586 0.9855 0.83 0.0
C1041 C 0.38125 0.04458 0.81393 0.0
C1042 C 0.38836 0.02267 0.78907 0.0
C1043 C 0.37305 1.00392 0.79543 0.0
C1044 C 0.41182 0.01836 0.75948 0.0
C1045 C 0.39635 0.06567 0.81039 0.0
C1046 C 0.42092 0.0322 0.70887 0.0
C1047 C 0.44286 0.02767 0.6821 0.0
C1048 C 0.45591 0.00876 0.7039 0.0
C1049 C 0.44663 0.99462 0.753 0.0
C1050 C 0.42511 0.99954 0.78109 0.0
H1051 H 0.39209 0.07852 0.8497 0.0
H1052 H 0.41469 0.061 0.81525 0.0
H1053 H 0.39375 0.07409 0.76201 0.0
H1054 H 0.41093 0.04629 0.68903 0.0
H1055 H 0.44923 0.03843 0.64277 0.0
H1056 H 0.42787 0.28039 0.92823 0.0
H1057 H 0.43765 0.31175 0.8533 0.0
H1058 H 0.50832 0.30893 0.91891 0.0
H1059 H 0.4985 0.2774 0.9937 0.0
H1060 H 0.45403 0.353 0.91096 0.0
H1061 H 0.51479 0.3212 0.71884 0.0
H1062 H 0.49596 0.30212 0.76365 0.0
H1063 H 0.52162 0.31326 0.80221 0.0
C1064 C 0.44574 0.2856 0.92388 0.0
C1065 C 0.46252 0.27611 0.9658 0.0
C1066 C 0.45127 0.30375 0.88169 0.0
C1067 C 0.47373 0.31279 0.88027 0.0
C1068 C 0.49096 0.30206 0.91811 0.0
H1069 H 0.53239 0.44115 0.73131 0.0
H1070 H 0.52619 0.40277 0.77765 0.0
C1071 C 0.4854 0.28386 0.96049 0.0
C1072 C 0.47813 0.33533 0.84747 0.0
H1073 H 0.5098 0.36183 0.72782 0.0
C1074 C 0.4661 0.35487 0.87054 0.0
C1075 C 0.49415 0.33791 0.79551 0.0
C1076 C 0.5073 0.31752 0.76805 0.0
C1077 C 0.46974 0.37686 0.84373 0.0
C1078 C 0.48545 0.37944 0.79083 0.0
C1079 C 0.49765 0.35992 0.76801 0.0
C1080 C 0.48944 0.40228 0.75909 0.0
C1081 C 0.45718 0.39722 0.8739 0.0
C1082 C 0.471 0.41472 0.73171 0.0
C1083 C 0.4745 0.4367 0.70533 0.0
C1084 C 0.49662 0.44666 0.70471 0.0
C1085 C 0.5152 0.43391 0.73023 0.0
C1086 C 0.51165 0.41196 0.75703 0.0
H1087 H 0.45148 0.39364 0.92512 0.0
H1088 H 0.46821 0.41289 0.87494 0.0
H1089 H 0.44159 0.40095 0.84404 0.0
H1090 H 0.45379 0.40748 0.73099 0.0
H1091 H 0.45985 0.44587 0.68525 0.0
H1092 H 0.24265 0.44237 0.94737 0.0
H1093 H 0.21147 0.45291 0.87259 0.0
H1094 H 0.21909 0.52435 0.93118 0.0
H1095 H 0.25006 0.51356 1.00796 0.0
H1096 H 0.17582 0.51146 0.94417 0.0
H1097 H 0.20356 0.48195 0.69698 0.0
H1098 H 0.20601 0.45902 0.75518 0.0
H1099 H 0.22345 0.48459 0.76533 0.0
C1100 C 0.23836 0.46047 0.94215 0.0
C1101 C 0.24907 0.47717 0.98292 0.0
C1102 C 0.22043 0.46652 0.89929 0.0
C1103 C 0.21285 0.48951 0.89536 0.0
C1104 C 0.22459 0.50649 0.93288 0.0
H1105 H 0.09824 0.52369 0.62722 0.0
H1106 H 0.13603 0.52116 0.68003 0.0
C1107 C 0.24256 0.5004 0.9761 0.0
C1108 C 0.19109 0.49511 0.85873 0.0
H1109 H 0.16242 0.4857 0.71282 0.0
C1110 C 0.17307 0.5061 0.89324 0.0
C1111 C 0.18731 0.48843 0.79195 0.0
C1112 C 0.20622 0.47807 0.75008 0.0
C1113 C 0.15133 0.50977 0.86399 0.0
C1114 C 0.14709 0.50169 0.79868 0.0
C1115 C 0.16537 0.49156 0.76321 0.0
C1116 C 0.12383 0.50341 0.76662 0.0
C1117 C 0.1332 0.52247 0.90348 0.0
C1118 C 0.10419 0.49397 0.79668 0.0
C1119 C 0.0824 0.49578 0.76699 0.0
C1120 C 0.07961 0.50686 0.7059 0.0
C1121 C 0.09942 0.51567 0.67497 0.0
C1122 C 0.1212 0.51401 0.70494 0.0
H1123 H 0.1411 0.53382 0.94197 0.0
H1124 H 0.12212 0.53321 0.87127 0.0
H1125 H 0.12213 0.50976 0.92892 0.0
H1126 H 0.1057 0.48506 0.84319 0.0
H1127 H 0.06771 0.48854 0.79232 0.0
H1128 H 0.01342 0.80253 0.17236 0.0
H1129 H 0.02245 0.83602 0.24353 0.0
H1130 H 0.97278 0.81277 0.38596 0.0
H1131 H 0.96363 0.77945 0.31447 0.0
H1132 H 0.9874 0.86913 0.2787 0.0
H1133 H 0.02882 0.83281 0.50202 0.0
H1134 H 0.02792 0.81745 0.42381 0.0
H1135 H 1.00276 0.81872 0.47514 0.0
C1136 C 1.00522 0.80404 0.22023 0.0
C1137 C 0.98833 0.78798 0.23878 0.0
C1138 C 0.01016 0.82335 0.26054 0.0
C1139 C 0.99845 0.82694 0.32058 0.0
C1140 C 0.98239 0.81026 0.34066 0.0
H1141 H 0.9955 0.938 0.61857 0.0
H1142 H 0.98875 0.90271 0.55291 0.0
C1143 C 0.97728 0.79108 0.30001 0.0
C1144 C 1.00119 0.84918 0.35847 0.0
H1145 H 0.01799 0.8722 0.5075 0.0
C1146 C 0.99425 0.86982 0.32859 0.0
C1147 C 0.00979 0.85014 0.42393 0.0
C1148 C 0.01794 0.82866 0.45822 0.0
C1149 C 0.99527 0.89122 0.36246 0.0
C1150 C 1.00416 0.89233 0.42783 0.0
C1151 C 0.01113 0.8716 0.45764 0.0
C1152 C 1.00658 0.9147 0.46589 0.0
C1153 C 0.98589 0.91226 0.32851 0.0
C1154 C 0.01871 0.93353 0.43948 0.0
C1155 C 0.02213 0.95388 0.47669 0.0
C1156 C 0.01343 0.95601 0.54113 0.0
C1157 C 1.00152 0.9372 0.56799 0.0
C1158 C 0.99794 0.9169 0.53065 0.0
H1159 H 0.97314 0.90753 0.2896 0.0
H1160 H 0.97749 0.92407 0.36447 0.0
H1161 H 1.00022 0.9216 0.30441 0.0
H1162 H 0.02636 0.93222 0.39089 0.0
H1163 H 0.03225 0.96772 0.4559 0.0
H1164 H 0.69517 0.96109 0.15739 0.0
H1165 H 0.66552 0.97398 0.23231 0.0
H1166 H 0.7171 0.99213 0.37765 0.0
H1167 H 0.7474 0.977 0.30357 0.0
H1168 H 0.68242 0.97283 0.43714 0.0
H1169 H 0.64408 0.03655 0.27099 0.0
H1170 H 0.64388 0.00899 0.23021 0.0
H1171 H 0.67098 0.0225 0.25189 0.0
C1172 C 0.70046 0.96743 0.20561 0.0
C1173 C 0.72388 0.96736 0.2247 0.0
C1174 C 0.6833 0.97538 0.24816 0.0
C1175 C 0.68885 0.98464 0.31043 0.0
C1176 C 0.71226 0.98521 0.32966 0.0
H1177 H 0.57362 0.05384 0.50616 0.0
H1178 H 0.60937 0.04444 0.44951 0.0
C1179 C 0.72963 0.97671 0.28711 0.0
C1180 C 0.66987 0.99263 0.3554 0.0
H1181 H 0.61882 0.02197 0.35545 0.0
C1182 C 0.66873 0.98398 0.4198 0.0
C1183 C 0.652 1.00745 0.3337 0.0
C1184 C 0.65297 0.01958 0.26817 0.0
C1185 C 0.65012 0.98922 0.46218 0.0
C1186 C 0.63134 1.0027 0.43886 0.0
C1187 C 0.63281 0.01156 0.3745 0.0
C1188 C 0.61037 0.00862 0.47976 0.0
C1189 C 0.65143 0.98065 0.53193 0.0
C1190 C 0.59887 0.99213 0.51854 0.0
C1191 C 0.57886 0.99801 0.55412 0.0
C1192 C 0.56888 0.01997 0.54795 0.0
C1193 C 0.58046 0.03652 0.51031 0.0
C1194 C 0.60096 0.03102 0.4774 0.0
H1195 H 0.66961 0.97887 0.54846 0.0
H1196 H 0.64247 0.99256 0.56632 0.0
H1197 H 0.64336 0.96332 0.53449 0.0
H1198 H 0.60493 0.97451 0.52048 0.0
H1199 H 0.5709 0.98518 0.58507 0.0
H1200 H 0.5309 0.72046 0.18075 0.0
H1201 H 0.51797 0.69173 0.25966 0.0
H1202 H 0.54628 0.73273 0.41961 0.0
H1203 H 0.55966 0.76149 0.33969 0.0
H1204 H 0.56164 0.6893 0.42398 0.0
H1205 H 0.4673 0.6856 0.39247 0.0
H1206 H 0.48141 0.68297 0.31412 0.0
H1207 H 0.48431 0.70927 0.36194 0.0
C1208 C 0.53362 0.72374 0.23301 0.0
C1209 C 0.546 0.74333 0.25426 0.0
C1210 C 0.52617 0.7073 0.27823 0.0
C1211 C 0.53082 0.71008 0.34599 0.0
C1212 C 0.54229 0.73024 0.36772 0.0
H1213 H 0.48658 0.59762 0.6096 0.0
H1214 H 0.49105 0.63605 0.56175 0.0
C1215 C 0.54974 0.74679 0.32222 0.0
C1216 C 0.52622 0.69063 0.39198 0.0
H1217 H 0.48538 0.65082 0.4339 0.0
C1218 C 0.54484 0.68118 0.42703 0.0
C1219 C 0.50428 0.68005 0.39709 0.0
C1220 C 0.48316 0.69017 0.36492 0.0
C1221 C 0.54243 0.66083 0.46364 0.0
C1222 C 0.52094 0.64923 0.46424 0.0
C1223 C 0.50198 0.65941 0.43258 0.0
C1224 C 0.51819 0.62597 0.49418 0.0
C1225 C 0.56306 0.65183 0.50086 0.0
C1226 C 0.53167 0.60736 0.47159 0.0
C1227 C 0.52921 0.58542 0.49884 0.0
C1228 C 0.513 0.5814 0.54904 0.0
C1229 C 0.49922 0.6 0.571 0.0
C1230 C 0.50177 0.62203 0.54373 0.0
H1231 H 0.57536 0.66594 0.51334 0.0
H1232 H 0.55781 0.64324 0.5472 0.0
H1233 H 0.57228 0.63904 0.46939 0.0
H1234 H 0.54403 0.60974 0.43228 0.0
H1235 H 0.54001 0.57158 0.48012 0.0
H1236 H 0.78977 0.50416 0.18655 0.0
H1237 H 0.82126 0.49538 0.26289 0.0
H1238 H 0.80101 0.55287 0.38709 0.0
H1239 H 0.76997 0.56201 0.3094 0.0
H1240 H 0.84452 0.55678 0.35283 0.0
H1241 H 0.83186 0.46773 0.44099 0.0
H1242 H 0.83064 0.46927 0.35264 0.0
H1243 H 0.80912 0.48384 0.40165 0.0
C1244 C 0.7913 0.51411 0.23201 0.0
C1245 C 0.77707 0.53341 0.24292 0.0
C1246 C 0.80945 0.50919 0.27559 0.0
C1247 C 0.81359 0.52336 0.33131 0.0
C1248 C 0.79823 0.54161 0.34472 0.0
H1249 H 0.92588 0.50281 0.61575 0.0
H1250 H 0.8884 0.50498 0.56063 0.0
C1251 C 0.78023 0.54663 0.30087 0.0
C1252 C 0.83552 0.52126 0.36991 0.0
H1253 H 0.87008 0.48329 0.45236 0.0
C1254 C 0.84993 0.54073 0.37515 0.0
C1255 C 0.84273 0.50042 0.39951 0.0
C1256 C 0.82766 0.4792 0.39905 0.0
C1257 C 0.87134 0.53987 0.40778 0.0
C1258 C 0.87903 0.51877 0.43474 0.0
C1259 C 0.86442 0.4994 0.43098 0.0
C1260 C 0.90206 0.51657 0.46739 0.0
C1261 C 0.88535 0.56176 0.41377 0.0
C1262 C 0.92241 0.52194 0.43327 0.0
C1263 C 0.94392 0.52073 0.46478 0.0
C1264 C 0.94566 0.51375 0.53096 0.0
C1265 C 0.9253 0.5079 0.56457 0.0
C1266 C 0.90378 0.50924 0.53312 0.0
H1267 H 0.87438 0.57737 0.40866 0.0
H1268 H 0.89449 0.5628 0.46197 0.0
H1269 H 0.89839 0.56204 0.37378 0.0
H1270 H 0.92169 0.52711 0.38209 0.0
H1271 H 0.95921 0.52514 0.43706 0.0
loop_
_geom_bond_atom_site_label_1
_geom_bond_atom_site_label_2
_geom_bond_distance
_geom_bond_site_symmetry_2
_ccdc_geom_bond_type
H0 C3 0.931 . S
H1 C6 0.928 . S
H2 C8 0.930 . S
C3 H0 0.931 . S
C3 C4 1.413 . S
C3 C5 1.360 . S
C4 C3 1.413 . S
C4 C8 1.429 . S
C5 C3 1.360 . S
C5 C6 1.372 . S
C6 H1 0.928 . S
C6 C5 1.372 . S
C6 C7 1.404 . S
C7 C6 1.404 . S
C7 C8 1.391 . S
C8 H2 0.930 . S
C8 C4 1.429 . S
C8 C7 1.391 . S
H9 C12 0.931 . S
H10 C15 0.928 . S
H11 C17 0.930 . S
C12 H9 0.931 . S
C12 C13 1.413 . S
C12 C14 1.360 . S
C13 C12 1.413 . S
C13 C17 1.429 . S
C14 C12 1.360 . S
C14 C15 1.372 . S
C15 H10 0.928 . S
C15 C14 1.372 . S
C15 C16 1.404 . S
C16 C15 1.404 . S
C16 C17 1.391 . S
C17 H11 0.930 . S
C17 C13 1.429 . S
C17 C16 1.391 . S
H18 C21 0.931 . S
H19 C24 0.928 . S
H20 C26 0.930 . S
C21 H18 0.931 . S
C21 C22 1.413 . S
C21 C23 1.360 . S
C22 C21 1.413 . S
C22 C26 1.429 . S
C23 C21 1.360 . S
C23 C24 1.372 . S
C24 H19 0.928 . S
C24 C23 1.372 . S
C24 C25 1.404 . S
C25 C24 1.404 . S
C25 C26 1.391 . S
C26 H20 0.930 . S
C26 C22 1.429 . S
C26 C25 1.391 . S
H27 C30 0.931 . S
H28 C33 0.928 . S
H29 C35 0.930 . S
C30 H27 0.931 . S
C30 C31 1.413 . S
C30 C32 1.360 . S
C31 C30 1.413 . S
C31 C35 1.429 . S
C32 C30 1.360 . S
C32 C33 1.372 . S
C33 H28 0.928 . S
C33 C32 1.372 . S
C33 C34 1.404 . S
C34 C33 1.404 . S
C34 C35 1.391 . S
C35 H29 0.930 . S
C35 C31 1.429 . S
C35 C34 1.391 . S
H36 C39 0.933 . S
H37 C42 0.928 . S
H38 C44 0.930 . S
C39 H36 0.933 . S
C39 C40 1.413 1_554 S
C39 C41 1.360 . S
C40 C39 1.413 1_556 S
C40 C44 1.429 . S
C41 C39 1.360 . S
C41 C42 1.372 . S
C42 H37 0.928 . S
C42 C41 1.372 . S
C42 C43 1.404 . S
C43 C42 1.404 . S
C43 C44 1.391 1_554 S
C44 H38 0.930 . S
C44 C40 1.429 . S
C44 C43 1.391 1_556 S
H45 C48 0.931 1_556 S
H46 C51 0.928 . S
H47 C53 0.930 . S
C48 H45 0.931 1_554 S
C48 C49 1.413 1_554 S
C48 C50 1.360 . S
C49 C48 1.413 1_556 S
C49 C53 1.429 . S
C50 C48 1.360 . S
C50 C51 1.372 . S
C51 H46 0.928 . S
C51 C50 1.372 . S
C51 C52 1.404 . S
C52 C51 1.404 . S
C52 C53 1.391 1_554 S
C53 H47 0.930 . S
C53 C49 1.429 . S
C53 C52 1.391 1_556 S
H54 C57 0.931 1_556 S
H55 C60 0.928 . S
H56 C62 0.930 . S
C57 H54 0.931 1_554 S
C57 C58 1.413 1_554 S
C57 C59 1.360 . S
C58 C57 1.413 1_556 S
C58 C62 1.429 . S
C59 C57 1.360 . S
C59 C60 1.372 . S
C60 H55 0.928 . S
C60 C59 1.372 . S
C60 C61 1.404 . S
C61 C60 1.404 . S
C61 C62 1.391 1_554 S
C62 H56 0.930 . S
C62 C58 1.429 . S
C62 C61 1.391 1_556 S
H63 C66 0.931 1_556 S
H64 C69 0.928 . S
H65 C71 0.930 . S
C66 H63 0.931 1_554 S
C66 C67 1.413 . S
C66 C68 1.360 1_554 S
C67 C66 1.413 . S
C67 C71 1.429 . S
C68 C66 1.360 1_556 S
C68 C69 1.372 . S
C69 H64 0.928 . S
C69 C68 1.372 . S
C69 C70 1.404 1_556 S
C70 C69 1.404 1_554 S
C70 C71 1.391 . S
C71 H65 0.930 . S
C71 C67 1.429 . S
C71 C70 1.391 . S
Gd72 N103 2.659 . S
Gd72 N109 2.601 . S
Gd72 O116 2.545 . S
Gd72 O117 2.606 1_655 S
Gd72 O119 2.429 . S
Gd72 O120 2.545 1_655 S
Gd72 O121 2.412 . S
Gd72 O123 2.362 1_545 S
Gd72 O124 2.324 1_655 S
Gd72 C131 2.828 . S
Gd73 N82 2.661 1_565 S
Gd73 N86 2.601 . S
Gd73 O117 2.362 1_565 S
Gd73 O118 2.324 1_455 S
Gd73 O122 2.545 . S
Gd73 O123 2.606 1_455 S
Gd73 O125 2.429 . S
Gd73 O126 2.545 . S
Gd73 O127 2.412 . S
Gd73 C140 2.828 . S
C74 C77 1.417 . S
C74 C79 1.431 . S
C74 C80 1.412 . S
C75 C78 1.437 . S
C75 C79 1.317 . S
C75 H94 0.929 . S
C76 C77 1.426 . S
C76 C78 1.413 . S
C76 N86 1.359 1_545 S
C77 C74 1.417 . S
C77 C76 1.426 . S
C77 N82 1.350 . S
C78 C75 1.437 . S
C78 C76 1.413 . S
C78 C88 1.379 1_545 S
C79 C74 1.431 . S
C79 C75 1.317 . S
C79 H90 0.930 . S
C80 C74 1.412 . S
C80 C81 1.355 . S
C80 H92 0.930 . S
C81 C80 1.355 . S
C81 C83 1.402 . S
C81 H93 0.930 1_455 S
N82 Gd73 2.661 1_545 S
N82 C77 1.350 . S
N82 C83 1.307 . S
C83 C81 1.402 . S
C83 N82 1.307 . S
C83 H84 0.930 1_455 S
H84 C83 0.930 1_655 S
C85 N86 1.334 . S
C85 C87 1.394 . S
C85 H89 0.930 . S
N86 Gd73 2.601 . S
N86 C76 1.359 1_565 S
N86 C85 1.334 . S
C87 C85 1.394 . S
C87 C88 1.375 . S
C87 H99 0.930 . S
C88 C78 1.379 1_565 S
C88 C87 1.375 . S
C88 H100 0.926 1_565 S
H89 C85 0.930 . S
H90 C79 0.930 . S
H91 C108 0.930 . S
H92 C80 0.930 . S
H93 C81 0.930 1_655 S
H94 C75 0.929 . S
H95 C113 0.930 . S
H96 C104 0.930 . S
H97 C105 0.956 . S
H98 C129 0.929 . S
H99 C87 0.930 . S
H100 C88 0.926 1_545 S
H101 C130 0.930 . S
H102 C111 0.930 . S
N103 Gd72 2.659 . S
N103 C107 1.351 1_545 S
N103 C108 1.308 1_645 S
C104 H96 0.930 . S
C104 C105 1.327 1_655 S
C104 C106 1.412 . S
C105 H97 0.956 . S
C105 C104 1.327 1_455 S
C105 C108 1.404 . S
C106 C104 1.412 . S
C106 C107 1.417 . S
C106 C130 1.431 . S
C107 N103 1.351 1_565 S
C107 C106 1.417 . S
C107 C110 1.426 1_565 S
C108 H91 0.930 . S
C108 N103 1.308 1_465 S
C108 C105 1.404 . S
N109 Gd72 2.601 . S
N109 C110 1.359 . S
N109 C113 1.334 . S
C110 C107 1.426 1_545 S
C110 N109 1.359 . S
C110 C114 1.413 . S
C111 H102 0.930 . S
C111 C112 1.359 . S
C111 C113 1.394 . S
C112 C111 1.359 . S
C112 C114 1.391 . S
C112 H115 0.929 . S
C113 H95 0.930 . S
C113 N109 1.334 . S
C113 C111 1.394 . S
C114 C110 1.413 . S
C114 C112 1.391 . S
C114 C129 1.437 1_545 S
H115 C112 0.929 . S
O116 Gd72 2.545 . S
O116 C131 1.258 . S
O117 Gd72 2.606 1_455 S
O117 Gd73 2.362 1_545 S
O117 C128 1.284 . S
O118 Gd73 2.324 1_655 S
O118 C138 1.254 1_565 S
O119 Gd72 2.429 . S
O119 C138 1.268 . S
O120 Gd72 2.545 1_455 S
O120 C128 1.250 . S
O121 Gd72 2.412 . S
O121 C131 1.252 . S
O122 Gd73 2.545 . S
O122 C140 1.258 . S
O123 Gd72 2.362 1_565 S
O123 Gd73 2.606 1_655 S
O123 C139 1.284 . S
O124 Gd72 2.324 1_455 S
O124 C147 1.254 . S
O125 Gd73 2.429 . S
O125 C147 1.268 1_565 S
O126 Gd73 2.545 . S
O126 C139 1.250 1_455 S
O127 Gd73 2.412 . S
O127 C140 1.252 . S
C128 O117 1.284 . S
C128 O120 1.250 . S
C129 H98 0.929 . S
C129 C114 1.437 1_565 S
C129 C130 1.317 . S
C130 H101 0.930 . S
C130 C106 1.431 . S
C130 C129 1.317 . S
C131 Gd72 2.828 . S
C131 O116 1.258 . S
C131 O121 1.252 . S
C131 C132 1.497 . S
C132 C131 1.497 . S
C132 C133 1.395 . S
C132 C134 1.380 . S
C133 C132 1.395 . S
C133 C136 1.398 . S
C133 H148 0.930 . S
C134 C132 1.380 . S
C134 C135 1.391 . S
C134 H149 0.930 1_655 S
C135 C134 1.391 . S
C135 C137 1.387 . S
C136 C133 1.398 . S
C136 C137 1.380 . S
C136 H150 0.930 . S
C137 C135 1.387 . S
C137 C136 1.380 . S
C137 H151 0.930 . S
C138 O118 1.254 1_545 S
C138 O119 1.268 . S
C139 O123 1.284 . S
C139 O126 1.250 1_655 S
C140 Gd73 2.828 . S
C140 O122 1.258 . S
C140 O127 1.252 . S
C140 C141 1.497 . S
C141 C140 1.497 . S
C141 C142 1.395 . S
C141 C143 1.380 . S
C142 C141 1.395 . S
C142 C145 1.398 . S
C142 H152 0.930 . S
C143 C141 1.380 . S
C143 C144 1.391 . S
C143 H153 0.908 1_455 S
C144 C143 1.391 . S
C144 C146 1.387 . S
C145 C142 1.398 . S
C145 C146 1.380 . S
C145 H154 0.930 . S
C146 C144 1.387 . S
C146 C145 1.380 . S
C146 H155 0.930 . S
C147 O124 1.254 . S
C147 O125 1.268 1_545 S
H148 C133 0.930 . S
H149 C134 0.930 1_455 S
H150 C136 0.930 . S
H151 C137 0.930 . S
H152 C142 0.930 . S
H153 C143 0.908 1_655 S
H154 C145 0.930 . S
H155 C146 0.930 . S
Gd156 N187 2.661 . S
Gd156 N193 2.601 . S
Gd156 O200 2.545 . S
Gd156 O201 2.606 1_565 S
Gd156 O203 2.429 . S
Gd156 O204 2.545 1_565 S
Gd156 O205 2.412 . S
Gd156 O207 2.362 . S
Gd156 O208 2.324 1_565 S
Gd156 C215 2.828 . S
Gd157 N166 2.661 . S
Gd157 N170 2.601 . S
Gd157 O201 2.362 . S
Gd157 O202 2.324 1_545 S
Gd157 O206 2.545 . S
Gd157 O207 2.606 1_545 S
Gd157 O209 2.429 . S
Gd157 O210 2.545 . S
Gd157 O211 2.412 . S
Gd157 C224 2.828 . S
C158 C161 1.417 . S
C158 C163 1.431 . S
C158 C164 1.412 . S
C159 C162 1.437 . S
C159 C163 1.317 . S
C159 H178 0.929 . S
C160 C161 1.426 . S
C160 C162 1.413 . S
C160 N170 1.359 . S
C161 C158 1.417 . S
C161 C160 1.426 . S
C161 N166 1.350 . S
C162 C159 1.437 . S
C162 C160 1.413 . S
C162 C172 1.391 . S
C163 C158 1.431 . S
C163 C159 1.317 . S
C163 H174 0.930 . S
C164 C158 1.412 . S
C164 C165 1.355 . S
C164 H176 0.930 . S
C165 C164 1.355 . S
C165 C167 1.402 . S
C165 H177 0.930 1_545 S
N166 Gd157 2.661 . S
N166 C161 1.350 . S
N166 C167 1.307 . S
C167 C165 1.402 . S
C167 N166 1.307 . S
C167 H168 0.930 1_545 S
H168 C167 0.930 1_565 S
C169 N170 1.334 . S
C169 C171 1.394 . S
C169 H173 0.930 . S
N170 Gd157 2.601 . S
N170 C160 1.359 . S
N170 C169 1.334 . S
C171 C169 1.394 . S
C171 C172 1.359 . S
C171 H183 0.930 . S
C172 C162 1.391 . S
C172 C171 1.359 . S
C172 H184 0.929 . S
H173 C169 0.930 . S
H174 C163 0.930 . S
H175 C192 0.930 . S
H176 C164 0.930 . S
H177 C165 0.930 1_565 S
H178 C159 0.929 . S
H179 C197 0.930 . S
H180 C188 0.930 . S
H181 C189 0.930 . S
H182 C213 0.929 . S
H183 C171 0.930 . S
H184 C172 0.929 . S
H185 C214 0.930 . S
H186 C195 0.930 . S
N187 Gd156 2.661 . S
N187 C191 1.350 . S
N187 C192 1.307 1_565 S
C188 H180 0.930 . S
C188 C189 1.355 1_565 S
C188 C190 1.412 . S
C189 H181 0.930 . S
C189 C188 1.355 1_545 S
C189 C192 1.402 . S
C190 C188 1.412 . S
C190 C191 1.417 . S
C190 C214 1.431 . S
C191 N187 1.350 . S
C191 C190 1.417 . S
C191 C194 1.426 . S
C192 H175 0.930 . S
C192 N187 1.307 1_545 S
C192 C189 1.402 . S
N193 Gd156 2.601 . S
N193 C194 1.359 . S
N193 C197 1.334 . S
C194 C191 1.426 . S
C194 N193 1.359 . S
C194 C198 1.413 . S
C195 H186 0.930 . S
C195 C196 1.359 . S
C195 C197 1.394 . S
C196 C195 1.359 . S
C196 C198 1.391 . S
C196 H199 0.929 . S
C197 H179 0.930 . S
C197 N193 1.334 . S
C197 C195 1.394 . S
C198 C194 1.413 . S
C198 C196 1.391 . S
C198 C213 1.437 . S
H199 C196 0.929 . S
O200 Gd156 2.545 . S
O200 C215 1.258 . S
O201 Gd156 2.606 1_545 S
O201 Gd157 2.362 . S
O201 C212 1.284 . S
O202 Gd157 2.324 1_565 S
O202 C222 1.254 . S
O203 Gd156 2.429 . S
O203 C222 1.268 . S
O204 Gd156 2.545 1_545 S
O204 C212 1.250 . S
O205 Gd156 2.412 . S
O205 C215 1.252 . S
O206 Gd157 2.545 . S
O206 C224 1.258 . S
O207 Gd156 2.362 . S
O207 Gd157 2.606 1_565 S
O207 C223 1.284 . S
O208 Gd156 2.324 1_545 S
O208 C231 1.254 . S
O209 Gd157 2.429 . S
O209 C231 1.268 . S
O210 Gd157 2.545 . S
O210 C223 1.250 1_545 S
O211 Gd157 2.412 . S
O211 C224 1.252 . S
C212 O201 1.284 . S
C212 O204 1.250 . S
C213 H182 0.929 . S
C213 C198 1.437 . S
C213 C214 1.317 . S
C214 H185 0.930 . S
C214 C190 1.431 . S
C214 C213 1.317 . S
C215 Gd156 2.828 . S
C215 O200 1.258 . S
C215 O205 1.252 . S
C215 C216 1.497 . S
C216 C215 1.497 . S
C216 C217 1.395 . S
C216 C218 1.380 . S
C217 C216 1.395 . S
C217 C220 1.398 . S
C217 H232 0.930 . S
C218 C216 1.380 . S
C218 C219 1.391 . S
C218 H233 0.930 1_565 S
C219 C218 1.391 . S
C219 C221 1.387 . S
C220 C217 1.398 . S
C220 C221 1.380 . S
C220 H234 0.930 . S
C221 C219 1.387 . S
C221 C220 1.380 . S
C221 H235 0.930 . S
C222 O202 1.254 . S
C222 O203 1.268 . S
C223 O207 1.284 . S
C223 O210 1.250 1_565 S
C224 Gd157 2.828 . S
C224 O206 1.258 . S
C224 O211 1.252 . S
C224 C225 1.497 . S
C225 C224 1.497 . S
C225 C226 1.395 . S
C225 C227 1.380 . S
C226 C225 1.395 . S
C226 C229 1.398 . S
C226 H236 0.930 . S
C227 C225 1.380 . S
C227 C228 1.391 . S
C227 H237 0.930 . S
C228 C227 1.391 . S
C228 C230 1.387 . S
C229 C226 1.398 . S
C229 C230 1.380 . S
C229 H238 0.930 . S
C230 C228 1.387 . S
C230 C229 1.380 . S
C230 H239 0.930 . S
C231 O208 1.254 . S
C231 O209 1.268 . S
H232 C217 0.930 . S
H233 C218 0.930 1_545 S
H234 C220 0.930 . S
H235 C221 0.930 . S
H236 C226 0.930 . S
H237 C227 0.930 . S
H238 C229 0.930 . S
H239 C230 0.930 . S
Gd240 N271 2.661 . S
Gd240 N277 2.601 . S
Gd240 O284 2.545 . S
Gd240 O285 2.606 . S
Gd240 O287 2.429 . S
Gd240 O288 2.545 . S
Gd240 O289 2.412 . S
Gd240 O291 2.362 . S
Gd240 O292 2.324 . S
Gd240 C299 2.828 . S
Gd241 N250 2.661 . S
Gd241 N254 2.601 . S
Gd241 O285 2.362 . S
Gd241 O286 2.324 . S
Gd241 O290 2.545 . S
Gd241 O291 2.606 . S
Gd241 O293 2.429 . S
Gd241 O294 2.545 . S
Gd241 O295 2.412 . S
Gd241 C308 2.828 . S
C242 C245 1.417 . S
C242 C247 1.431 . S
C242 C248 1.412 . S
C243 C246 1.437 . S
C243 C247 1.317 . S
C243 H262 0.929 . S
C244 C245 1.426 . S
C244 C246 1.413 . S
C244 N254 1.359 . S
C245 C242 1.417 . S
C245 C244 1.426 . S
C245 N250 1.350 . S
C246 C243 1.437 . S
C246 C244 1.413 . S
C246 C256 1.391 . S
C247 C242 1.431 . S
C247 C243 1.317 . S
C247 H258 0.930 . S
C248 C242 1.412 . S
C248 C249 1.355 . S
C248 H260 0.930 . S
C249 C248 1.355 . S
C249 C251 1.402 . S
C249 H261 0.930 . S
N250 Gd241 2.661 . S
N250 C245 1.350 . S
N250 C251 1.307 . S
C251 C249 1.402 . S
C251 N250 1.307 . S
C251 H252 0.930 . S
H252 C251 0.930 . S
C253 N254 1.334 . S
C253 C255 1.394 . S
C253 H257 0.930 . S
N254 Gd241 2.601 . S
N254 C244 1.359 . S
N254 C253 1.334 . S
C255 C253 1.394 . S
C255 C256 1.359 . S
C255 H267 0.930 . S
C256 C246 1.391 . S
C256 C255 1.359 . S
C256 H268 0.929 . S
H257 C253 0.930 . S
H258 C247 0.930 . S
H259 C276 0.930 . S
H260 C248 0.930 . S
H261 C249 0.930 . S
H262 C243 0.929 . S
H263 C281 0.930 . S
H264 C272 0.930 . S
H265 C273 0.930 . S
H266 C297 0.929 . S
H267 C255 0.930 . S
H268 C256 0.929 . S
H269 C298 0.930 . S
H270 C279 0.930 . S
N271 Gd240 2.661 . S
N271 C275 1.350 . S
N271 C276 1.307 . S
C272 H264 0.930 . S
C272 C273 1.355 . S
C272 C274 1.412 . S
C273 H265 0.930 . S
C273 C272 1.355 . S
C273 C276 1.402 . S
C274 C272 1.412 . S
C274 C275 1.417 . S
C274 C298 1.431 . S
C275 N271 1.350 . S
C275 C274 1.417 . S
C275 C278 1.426 . S
C276 H259 0.930 . S
C276 N271 1.307 . S
C276 C273 1.402 . S
N277 Gd240 2.601 . S
N277 C278 1.359 . S
N277 C281 1.334 . S
C278 C275 1.426 . S
C278 N277 1.359 . S
C278 C282 1.413 . S
C279 H270 0.930 . S
C279 C280 1.359 . S
C279 C281 1.394 . S
C280 C279 1.359 . S
C280 C282 1.391 . S
C280 H283 0.929 . S
C281 H263 0.930 . S
C281 N277 1.334 . S
C281 C279 1.394 . S
C282 C278 1.413 . S
C282 C280 1.391 . S
C282 C297 1.437 . S
H283 C280 0.929 . S
O284 Gd240 2.545 . S
O284 C299 1.258 . S
O285 Gd240 2.606 . S
O285 Gd241 2.362 . S
O285 C296 1.284 . S
O286 Gd241 2.324 . S
O286 C306 1.254 . S
O287 Gd240 2.429 . S
O287 C306 1.268 . S
O288 Gd240 2.545 . S
O288 C296 1.250 . S
O289 Gd240 2.412 . S
O289 C299 1.252 . S
O290 Gd241 2.545 . S
O290 C308 1.258 . S
O291 Gd240 2.362 . S
O291 Gd241 2.606 . S
O291 C307 1.284 . S
O292 Gd240 2.324 . S
O292 C315 1.254 . S
O293 Gd241 2.429 . S
O293 C315 1.268 . S
O294 Gd241 2.545 . S
O294 C307 1.250 . S
O295 Gd241 2.412 . S
O295 C308 1.252 . S
C296 O285 1.284 . S
C296 O288 1.250 . S
C297 H266 0.929 . S
C297 C282 1.437 . S
C297 C298 1.317 . S
C298 H269 0.930 . S
C298 C274 1.431 . S
C298 C297 1.317 . S
C299 Gd240 2.828 . S
C299 O284 1.258 . S
C299 O289 1.252 . S
C299 C300 1.497 . S
C300 C299 1.497 . S
C300 C301 1.395 . S
C300 C302 1.380 . S
C301 C300 1.395 . S
C301 C304 1.398 . S
C301 H316 0.930 . S
C302 C300 1.380 . S
C302 C303 1.391 . S
C302 H317 0.930 . S
C303 C302 1.391 . S
C303 C305 1.387 . S
C304 C301 1.398 . S
C304 C305 1.380 . S
C304 H318 0.930 . S
C305 C303 1.387 . S
C305 C304 1.380 . S
C305 H319 0.930 . S
C306 O286 1.254 . S
C306 O287 1.268 . S
C307 O291 1.284 . S
C307 O294 1.250 . S
C308 Gd241 2.828 . S
C308 O290 1.258 . S
C308 O295 1.252 . S
C308 C309 1.497 . S
C309 C308 1.497 . S
C309 C310 1.395 . S
C309 C311 1.380 . S
C310 C309 1.395 . S
C310 C313 1.398 . S
C310 H320 0.930 . S
C311 C309 1.380 . S
C311 C312 1.391 . S
C311 H321 0.930 . S
C312 C311 1.391 . S
C312 C314 1.387 . S
C313 C310 1.398 . S
C313 C314 1.380 . S
C313 H322 0.930 . S
C314 C312 1.387 . S
C314 C313 1.380 . S
C314 H323 0.930 . S
C315 O292 1.254 . S
C315 O293 1.268 . S
H316 C301 0.930 . S
H317 C302 0.930 . S
H318 C304 0.930 . S
H319 C305 0.930 . S
H320 C310 0.930 . S
H321 C311 0.930 . S
H322 C313 0.930 . S
H323 C314 0.930 . S
Gd324 N355 2.661 . S
Gd324 N361 2.601 . S
Gd324 O368 2.545 . S
Gd324 O369 2.599 1_655 S
Gd324 O371 2.429 1_655 S
Gd324 O372 2.545 . S
Gd324 O373 2.412 . S
Gd324 O375 2.362 1_655 S
Gd324 O376 2.324 . S
Gd324 C383 2.828 . S
Gd325 N334 2.661 . S
Gd325 N338 2.601 . S
Gd325 O369 2.373 . S
Gd325 O370 2.324 . S
Gd325 O374 2.545 . S
Gd325 O375 2.606 . S
Gd325 O377 2.429 1_455 S
Gd325 O378 2.545 . S
Gd325 O379 2.412 . S
Gd325 C392 2.828 . S
C326 C329 1.417 . S
C326 C331 1.431 . S
C326 C332 1.412 . S
C327 C330 1.437 . S
C327 C331 1.317 . S
C327 H346 0.929 . S
C328 C329 1.426 . S
C328 C330 1.413 . S
C328 N338 1.359 . S
C329 C326 1.417 . S
C329 C328 1.426 . S
C329 N334 1.350 . S
C330 C327 1.437 . S
C330 C328 1.413 . S
C330 C340 1.391 . S
C331 C326 1.431 . S
C331 C327 1.317 . S
C331 H342 0.930 . S
C332 C326 1.412 . S
C332 C333 1.355 . S
C332 H344 0.930 . S
C333 C332 1.355 . S
C333 C335 1.402 . S
C333 H345 0.930 . S
N334 Gd325 2.661 . S
N334 C329 1.350 . S
N334 C335 1.307 . S
C335 C333 1.402 . S
C335 N334 1.307 . S
C335 H336 0.930 . S
H336 C335 0.930 . S
C337 N338 1.334 . S
C337 C339 1.399 . S
C337 H341 0.930 1_455 S
N338 Gd325 2.601 . S
N338 C328 1.359 . S
N338 C337 1.334 . S
C339 C337 1.399 . S
C339 C340 1.379 . S
C339 H351 0.908 1_455 S
C340 C330 1.391 . S
C340 C339 1.379 . S
C340 H352 0.929 . S
H341 C337 0.930 1_655 S
H342 C331 0.930 . S
H343 C360 0.930 . S
H344 C332 0.930 . S
H345 C333 0.930 . S
H346 C327 0.929 . S
H347 C365 0.930 . S
H348 C356 0.930 . S
H349 C357 0.930 . S
H350 C381 0.929 . S
H351 C339 0.908 1_655 S
H352 C340 0.929 . S
H353 C382 0.930 . S
H354 C363 0.930 . S
N355 Gd324 2.661 . S
N355 C359 1.350 . S
N355 C360 1.307 . S
C356 H348 0.930 . S
C356 C357 1.355 . S
C356 C358 1.412 . S
C357 H349 0.930 . S
C357 C356 1.355 . S
C357 C360 1.402 . S
C358 C356 1.412 . S
C358 C359 1.417 . S
C358 C382 1.431 . S
C359 N355 1.350 . S
C359 C358 1.417 . S
C359 C362 1.426 . S
C360 H343 0.930 . S
C360 N355 1.307 . S
C360 C357 1.402 . S
N361 Gd324 2.601 . S
N361 C362 1.359 . S
N361 C365 1.334 1_655 S
C362 C359 1.426 . S
C362 N361 1.359 . S
C362 C366 1.413 . S
C363 H354 0.930 . S
C363 C364 1.359 1_455 S
C363 C365 1.394 . S
C364 C363 1.359 1_655 S
C364 C366 1.391 . S
C364 H367 0.929 . S
C365 H347 0.930 . S
C365 N361 1.334 1_455 S
C365 C363 1.394 . S
C366 C362 1.413 . S
C366 C364 1.391 . S
C366 C381 1.437 . S
H367 C364 0.929 . S
O368 Gd324 2.545 . S
O368 C383 1.258 . S
O369 Gd324 2.599 1_455 S
O369 Gd325 2.373 . S
O369 C380 1.277 1_455 S
O370 Gd325 2.324 . S
O370 C390 1.254 . S
O371 Gd324 2.429 1_455 S
O371 C390 1.268 . S
O372 Gd324 2.545 . S
O372 C380 1.250 . S
O373 Gd324 2.412 . S
O373 C383 1.252 . S
O374 Gd325 2.545 . S
O374 C392 1.258 . S
O375 Gd324 2.362 1_455 S
O375 Gd325 2.606 . S
O375 C391 1.284 . S
O376 Gd324 2.324 . S
O376 C399 1.254 . S
O377 Gd325 2.429 1_655 S
O377 C399 1.268 . S
O378 Gd325 2.545 . S
O378 C391 1.250 . S
O379 Gd325 2.412 . S
O379 C392 1.252 . S
C380 O369 1.277 1_655 S
C380 O372 1.250 . S
C381 H350 0.929 . S
C381 C366 1.437 . S
C381 C382 1.317 . S
C382 H353 0.930 . S
C382 C358 1.431 . S
C382 C381 1.317 . S
C383 Gd324 2.828 . S
C383 O368 1.258 . S
C383 O373 1.252 . S
C383 C384 1.497 . S
C384 C383 1.497 . S
C384 C385 1.395 . S
C384 C386 1.380 . S
C385 C384 1.395 . S
C385 C388 1.398 . S
C385 H400 0.930 . S
C386 C384 1.380 . S
C386 C387 1.391 . S
C386 H401 0.930 . S
C387 C386 1.391 . S
C387 C389 1.387 . S
C388 C385 1.398 . S
C388 C389 1.380 . S
C388 H402 0.930 . S
C389 C387 1.387 . S
C389 C388 1.380 . S
C389 H403 0.930 . S
C390 O370 1.254 . S
C390 O371 1.268 . S
C391 O375 1.284 . S
C391 O378 1.250 . S
C392 Gd325 2.828 . S
C392 O374 1.258 . S
C392 O379 1.252 . S
C392 C393 1.497 . S
C393 C392 1.497 . S
C393 C394 1.395 . S
C393 C395 1.380 . S
C394 C393 1.395 . S
C394 C397 1.398 . S
C394 H404 0.930 . S
C395 C393 1.380 . S
C395 C396 1.391 . S
C395 H405 0.930 . S
C396 C395 1.391 . S
C396 C398 1.387 . S
C397 C394 1.398 . S
C397 C398 1.380 . S
C397 H406 0.930 . S
C398 C396 1.387 . S
C398 C397 1.380 . S
C398 H407 0.930 . S
C399 O376 1.254 . S
C399 O377 1.268 . S
H400 C385 0.930 . S
H401 C386 0.930 . S
H402 C388 0.930 . S
H403 C389 0.930 . S
H404 C394 0.930 . S
H405 C395 0.930 . S
H406 C397 0.930 . S
H407 C398 0.930 . S
H408 C416 0.929 . S
H409 C418 0.930 . S
H410 C420 0.930 . S
H411 C423 0.929 . S
H412 C426 0.930 . S
H413 C428 0.960 1_565 S
H414 C428 0.960 . S
H415 C428 0.960 . S
C416 H408 0.929 . S
C416 C417 1.377 . S
C416 C418 1.384 . S
C417 C416 1.377 . S
C417 C423 1.390 . S
C418 H409 0.930 . S
C418 C416 1.384 . S
C418 C419 1.372 . S
C419 C418 1.372 . S
C419 C420 1.400 . S
C419 C424 1.490 . S
C420 H410 0.930 . S
C420 C419 1.400 . S
C420 C423 1.386 . S
H421 C437 0.930 . S
H422 C438 0.931 . S
C423 H411 0.929 . S
C423 C417 1.390 . S
C423 C420 1.386 . S
C424 C419 1.490 . S
C424 C426 1.395 . S
C424 C427 1.403 . S
H425 C431 0.930 . S
C426 H412 0.930 . S
C426 C424 1.395 . S
C426 C429 1.403 . S
C427 C424 1.403 . S
C427 C428 1.524 . S
C427 C431 1.400 . S
C428 H413 0.960 1_545 S
C428 H414 0.960 . S
C428 H415 0.960 . S
C428 C427 1.524 . S
C429 C426 1.403 . S
C429 C430 1.392 . S
C429 C433 1.495 . S
C430 C429 1.392 . S
C430 C431 1.385 . S
C430 C432 1.478 . S
C431 H425 0.930 . S
C431 C427 1.400 . S
C431 C430 1.385 . S
C432 C430 1.478 . S
C432 C434 1.381 . S
C432 C438 1.383 . S
C433 C429 1.495 . S
C433 H439 0.959 . S
C433 H440 0.961 . S
C433 H441 0.960 . S
C434 C432 1.381 . S
C434 C435 1.394 . S
C434 H442 0.930 . S
C435 C434 1.394 . S
C435 C436 1.383 . S
C435 H443 0.929 . S
C436 C435 1.383 . S
C436 C437 1.377 . S
C437 H421 0.930 . S
C437 C436 1.377 . S
C437 C438 1.379 . S
C438 H422 0.931 . S
C438 C432 1.383 . S
C438 C437 1.379 . S
H439 C433 0.959 . S
H440 C433 0.961 . S
H441 C433 0.960 . S
H442 C434 0.930 . S
H443 C435 0.929 . S
H444 C452 0.929 . S
H445 C454 0.930 . S
H446 C456 0.930 . S
H447 C459 0.929 . S
H448 C462 0.930 . S
H449 C464 0.960 . S
H450 C464 0.960 . S
H451 C464 0.960 . S
C452 H444 0.929 . S
C452 C453 1.377 . S
C452 C454 1.384 . S
C453 C452 1.377 . S
C453 C459 1.390 . S
C454 H445 0.930 . S
C454 C452 1.384 . S
C454 C455 1.372 . S
C455 C454 1.372 . S
C455 C456 1.400 . S
C455 C460 1.490 . S
C456 H446 0.930 . S
C456 C455 1.400 . S
C456 C459 1.386 . S
H457 C473 0.930 . S
H458 C474 0.931 . S
C459 H447 0.929 . S
C459 C453 1.390 . S
C459 C456 1.386 . S
C460 C455 1.490 . S
C460 C462 1.395 . S
C460 C463 1.403 . S
H461 C467 0.930 . S
C462 H448 0.930 . S
C462 C460 1.395 . S
C462 C465 1.403 . S
C463 C460 1.403 . S
C463 C464 1.524 . S
C463 C467 1.400 . S
C464 H449 0.960 . S
C464 H450 0.960 . S
C464 H451 0.960 . S
C464 C463 1.524 . S
C465 C462 1.403 . S
C465 C466 1.392 . S
C465 C469 1.495 . S
C466 C465 1.392 . S
C466 C467 1.385 . S
C466 C468 1.478 . S
C467 H461 0.930 . S
C467 C463 1.400 . S
C467 C466 1.385 . S
C468 C466 1.478 . S
C468 C470 1.381 . S
C468 C474 1.383 . S
C469 C465 1.495 . S
C469 H475 0.959 . S
C469 H476 0.961 . S
C469 H477 0.960 . S
C470 C468 1.381 . S
C470 C471 1.394 . S
C470 H478 0.930 . S
C471 C470 1.394 . S
C471 C472 1.383 . S
C471 H479 0.929 . S
C472 C471 1.383 . S
C472 C473 1.377 . S
C473 H457 0.930 . S
C473 C472 1.377 . S
C473 C474 1.379 . S
C474 H458 0.931 . S
C474 C468 1.383 . S
C474 C473 1.379 . S
H475 C469 0.959 . S
H476 C469 0.961 . S
H477 C469 0.960 . S
H478 C470 0.930 . S
H479 C471 0.929 . S
H480 C488 0.929 . S
H481 C490 0.930 . S
H482 C492 0.930 . S
H483 C495 0.929 . S
H484 C498 0.930 . S
H485 C500 0.960 . S
H486 C500 0.960 . S
H487 C500 0.960 . S
C488 H480 0.929 . S
C488 C489 1.377 . S
C488 C490 1.384 . S
C489 C488 1.377 . S
C489 C495 1.390 . S
C490 H481 0.930 . S
C490 C488 1.384 . S
C490 C491 1.372 . S
C491 C490 1.372 . S
C491 C492 1.400 . S
C491 C496 1.490 . S
C492 H482 0.930 . S
C492 C491 1.400 . S
C492 C495 1.386 . S
H493 C509 0.930 . S
H494 C510 0.931 . S
C495 H483 0.929 . S
C495 C489 1.390 . S
C495 C492 1.386 . S
C496 C491 1.490 . S
C496 C498 1.395 . S
C496 C499 1.403 . S
H497 C503 0.930 . S
C498 H484 0.930 . S
C498 C496 1.395 . S
C498 C501 1.403 . S
C499 C496 1.403 . S
C499 C500 1.524 . S
C499 C503 1.400 . S
C500 H485 0.960 . S
C500 H486 0.960 . S
C500 H487 0.960 . S
C500 C499 1.524 . S
C501 C498 1.403 . S
C501 C502 1.392 . S
C501 C505 1.495 . S
C502 C501 1.392 . S
C502 C503 1.385 . S
C502 C504 1.478 . S
C503 H497 0.930 . S
C503 C499 1.400 . S
C503 C502 1.385 . S
C504 C502 1.478 . S
C504 C506 1.381 . S
C504 C510 1.383 . S
C505 C501 1.495 . S
C505 H511 0.959 . S
C505 H512 0.961 . S
C505 H513 0.960 . S
C506 C504 1.381 . S
C506 C507 1.394 . S
C506 H514 0.930 . S
C507 C506 1.394 . S
C507 C508 1.383 . S
C507 H515 0.929 . S
C508 C507 1.383 . S
C508 C509 1.377 . S
C509 H493 0.930 . S
C509 C508 1.377 . S
C509 C510 1.379 . S
C510 H494 0.931 . S
C510 C504 1.383 . S
C510 C509 1.379 . S
H511 C505 0.959 . S
H512 C505 0.961 . S
H513 C505 0.960 . S
H514 C506 0.930 . S
H515 C507 0.929 . S
H516 C524 0.929 . S
H517 C526 0.930 . S
H518 C528 0.930 . S
H519 C531 0.929 . S
H520 C534 0.930 . S
H521 C536 0.960 1_655 S
H522 C536 0.960 . S
H523 C536 0.960 . S
C524 H516 0.929 . S
C524 C525 1.377 . S
C524 C526 1.384 . S
C525 C524 1.377 . S
C525 C531 1.390 . S
C526 H517 0.930 . S
C526 C524 1.384 . S
C526 C527 1.372 . S
C527 C526 1.372 . S
C527 C528 1.400 . S
C527 C532 1.490 . S
C528 H518 0.930 . S
C528 C527 1.400 . S
C528 C531 1.386 . S
H529 C545 0.930 . S
H530 C546 0.931 . S
C531 H519 0.929 . S
C531 C525 1.390 . S
C531 C528 1.386 . S
C532 C527 1.490 . S
C532 C534 1.395 . S
C532 C535 1.403 . S
H533 C539 0.930 . S
C534 H520 0.930 . S
C534 C532 1.395 . S
C534 C537 1.403 . S
C535 C532 1.403 . S
C535 C536 1.524 . S
C535 C539 1.400 . S
C536 H521 0.960 1_455 S
C536 H522 0.960 . S
C536 H523 0.960 . S
C536 C535 1.524 . S
C537 C534 1.403 . S
C537 C538 1.392 . S
C537 C541 1.495 . S
C538 C537 1.392 . S
C538 C539 1.385 . S
C538 C540 1.478 . S
C539 H533 0.930 . S
C539 C535 1.400 . S
C539 C538 1.385 . S
C540 C538 1.478 . S
C540 C542 1.381 . S
C540 C546 1.383 . S
C541 C537 1.495 . S
C541 H547 0.959 . S
C541 H548 0.961 . S
C541 H549 0.960 . S
C542 C540 1.381 . S
C542 C543 1.394 . S
C542 H550 0.930 . S
C543 C542 1.394 . S
C543 C544 1.383 . S
C543 H551 0.929 . S
C544 C543 1.383 . S
C544 C545 1.377 . S
C545 H529 0.930 . S
C545 C544 1.377 . S
C545 C546 1.379 . S
C546 H530 0.931 . S
C546 C540 1.383 . S
C546 C545 1.379 . S
H547 C541 0.959 . S
H548 C541 0.961 . S
H549 C541 0.960 . S
H550 C542 0.930 . S
H551 C543 0.929 . S
H552 C560 0.929 . S
H553 C562 0.930 . S
H554 C564 0.930 . S
H555 C567 0.929 . S
H556 C570 0.930 . S
H557 C572 0.960 . S
H558 C572 0.960 . S
H559 C572 0.960 . S
C560 H552 0.929 . S
C560 C561 1.377 . S
C560 C562 1.384 . S
C561 C560 1.377 . S
C561 C567 1.390 . S
C562 H553 0.930 . S
C562 C560 1.384 . S
C562 C563 1.372 . S
C563 C562 1.372 . S
C563 C564 1.400 . S
C563 C568 1.490 1_554 S
C564 H554 0.930 . S
C564 C563 1.400 . S
C564 C567 1.386 . S
H565 C581 0.930 . S
H566 C582 0.931 . S
C567 H555 0.929 . S
C567 C561 1.390 . S
C567 C564 1.386 . S
C568 C563 1.490 1_556 S
C568 C570 1.395 1_556 S
C568 C571 1.403 . S
H569 C575 0.930 . S
C570 H556 0.930 . S
C570 C568 1.395 1_554 S
C570 C573 1.403 1_554 S
C571 C568 1.403 . S
C571 C572 1.524 . S
C571 C575 1.400 . S
C572 H557 0.960 . S
C572 H558 0.960 . S
C572 H559 0.960 . S
C572 C571 1.524 . S
C573 C570 1.403 1_556 S
C573 C574 1.392 . S
C573 C577 1.495 . S
C574 C573 1.392 . S
C574 C575 1.385 . S
C574 C576 1.478 . S
C575 H569 0.930 . S
C575 C571 1.400 . S
C575 C574 1.385 . S
C576 C574 1.478 . S
C576 C578 1.381 1_565 S
C576 C582 1.383 . S
C577 C573 1.495 . S
C577 H583 0.959 1_556 S
C577 H584 0.961 . S
C577 H585 0.960 1_565 S
C578 C576 1.381 1_545 S
C578 C579 1.394 . S
C578 H586 0.930 . S
C579 C578 1.394 . S
C579 C580 1.383 1_545 S
C579 H587 0.929 . S
C580 C579 1.383 1_565 S
C580 C581 1.377 . S
C581 H565 0.930 . S
C581 C580 1.377 . S
C581 C582 1.379 . S
C582 H566 0.931 . S
C582 C576 1.383 . S
C582 C581 1.379 . S
H583 C577 0.959 1_554 S
H584 C577 0.961 . S
H585 C577 0.960 1_545 S
H586 C578 0.930 . S
H587 C579 0.929 . S
H588 C596 0.929 . S
H589 C598 0.930 . S
H590 C600 0.930 . S
H591 C603 0.929 . S
H592 C606 0.930 . S
H593 C608 0.960 . S
H594 C608 0.960 . S
H595 C608 0.960 . S
C596 H588 0.929 . S
C596 C597 1.377 . S
C596 C598 1.384 . S
C597 C596 1.377 . S
C597 C603 1.390 . S
C598 H589 0.930 . S
C598 C596 1.384 . S
C598 C599 1.372 . S
C599 C598 1.372 . S
C599 C600 1.400 . S
C599 C604 1.490 1_554 S
C600 H590 0.930 . S
C600 C599 1.400 . S
C600 C603 1.386 . S
H601 C617 0.930 . S
H602 C618 0.931 . S
C603 H591 0.929 . S
C603 C597 1.390 . S
C603 C600 1.386 . S
C604 C599 1.490 1_556 S
C604 C606 1.395 . S
C604 C607 1.403 . S
H605 C611 0.930 . S
C606 H592 0.930 . S
C606 C604 1.395 . S
C606 C609 1.403 . S
C607 C604 1.403 . S
C607 C608 1.524 1_556 S
C607 C611 1.400 . S
C608 H593 0.960 . S
C608 H594 0.960 . S
C608 H595 0.960 . S
C608 C607 1.524 1_554 S
C609 C606 1.403 . S
C609 C610 1.392 . S
C609 C613 1.495 . S
C610 C609 1.392 . S
C610 C611 1.385 . S
C610 C612 1.478 . S
C611 H605 0.930 . S
C611 C607 1.400 . S
C611 C610 1.385 . S
C612 C610 1.478 . S
C612 C614 1.381 . S
C612 C618 1.383 . S
C613 C609 1.495 . S
C613 H619 0.959 . S
C613 H620 0.961 . S
C613 H621 0.960 . S
C614 C612 1.381 . S
C614 C615 1.394 . S
C614 H622 0.930 . S
C615 C614 1.394 . S
C615 C616 1.383 . S
C615 H623 0.929 . S
C616 C615 1.383 . S
C616 C617 1.377 . S
C617 H601 0.930 . S
C617 C616 1.377 . S
C617 C618 1.379 . S
C618 H602 0.931 . S
C618 C612 1.383 . S
C618 C617 1.379 . S
H619 C613 0.959 . S
H620 C613 0.961 . S
H621 C613 0.960 . S
H622 C614 0.930 . S
H623 C615 0.929 . S
H624 C632 0.929 . S
H625 C634 0.930 . S
H626 C636 0.930 1_556 S
H627 C639 0.929 . S
H628 C642 0.930 . S
H629 C644 0.960 1_556 S
H630 C644 0.960 . S
H631 C644 0.960 1_556 S
C632 H624 0.929 . S
C632 C633 1.377 . S
C632 C634 1.384 . S
C633 C632 1.377 . S
C633 C639 1.390 . S
C634 H625 0.930 . S
C634 C632 1.384 . S
C634 C635 1.372 . S
C635 C634 1.372 . S
C635 C636 1.400 . S
C635 C640 1.490 1_554 S
C636 H626 0.930 1_554 S
C636 C635 1.400 . S
C636 C639 1.386 . S
H637 C653 0.930 . S
H638 C654 0.931 . S
C639 H627 0.929 . S
C639 C633 1.390 . S
C639 C636 1.386 . S
C640 C635 1.490 1_556 S
C640 C642 1.395 . S
C640 C643 1.403 . S
H641 C647 0.930 . S
C642 H628 0.930 . S
C642 C640 1.395 . S
C642 C645 1.403 . S
C643 C640 1.403 . S
C643 C644 1.524 1_556 S
C643 C647 1.400 . S
C644 H629 0.960 1_554 S
C644 H630 0.960 . S
C644 H631 0.960 1_554 S
C644 C643 1.524 1_554 S
C645 C642 1.403 . S
C645 C646 1.392 . S
C645 C649 1.495 . S
C646 C645 1.392 . S
C646 C647 1.385 . S
C646 C648 1.478 . S
C647 H641 0.930 . S
C647 C643 1.400 . S
C647 C646 1.385 . S
C648 C646 1.478 . S
C648 C650 1.381 . S
C648 C654 1.383 . S
C649 C645 1.495 . S
C649 H655 0.959 . S
C649 H656 0.961 . S
C649 H657 0.960 . S
C650 C648 1.381 . S
C650 C651 1.394 . S
C650 H658 0.930 . S
C651 C650 1.394 . S
C651 C652 1.383 . S
C651 H659 0.929 . S
C652 C651 1.383 . S
C652 C653 1.377 . S
C653 H637 0.930 . S
C653 C652 1.377 . S
C653 C654 1.379 . S
C654 H638 0.931 . S
C654 C648 1.383 . S
C654 C653 1.379 . S
H655 C649 0.959 . S
H656 C649 0.961 . S
H657 C649 0.960 . S
H658 C650 0.930 . S
H659 C651 0.929 . S
H660 C668 0.929 . S
H661 C670 0.930 . S
H662 C672 0.930 1_556 S
H663 C675 0.929 . S
H664 C678 0.930 . S
H665 C680 0.960 . S
H666 C680 0.960 . S
H667 C680 0.960 . S
C668 H660 0.929 . S
C668 C669 1.377 . S
C668 C670 1.384 . S
C669 C668 1.377 . S
C669 C675 1.390 . S
C670 H661 0.930 . S
C670 C668 1.384 . S
C670 C671 1.372 . S
C671 C670 1.372 . S
C671 C672 1.400 . S
C671 C676 1.490 1_554 S
C672 H662 0.930 1_554 S
C672 C671 1.400 . S
C672 C675 1.386 . S
H673 C689 0.930 . S
H674 C690 0.931 . S
C675 H663 0.929 . S
C675 C669 1.390 . S
C675 C672 1.386 . S
C676 C671 1.490 1_556 S
C676 C678 1.395 1_556 S
C676 C679 1.403 . S
H677 C683 0.930 . S
C678 H664 0.930 . S
C678 C676 1.395 1_554 S
C678 C681 1.403 1_554 S
C679 C676 1.403 . S
C679 C680 1.524 . S
C679 C683 1.400 . S
C680 H665 0.960 . S
C680 H666 0.960 . S
C680 H667 0.960 . S
C680 C679 1.524 . S
C681 C678 1.403 1_556 S
C681 C682 1.392 . S
C681 C685 1.495 . S
C682 C681 1.392 . S
C682 C683 1.385 . S
C682 C684 1.478 . S
C683 H677 0.930 . S
C683 C679 1.400 . S
C683 C682 1.385 . S
C684 C682 1.478 . S
C684 C686 1.381 . S
C684 C690 1.383 . S
C685 C681 1.495 . S
C685 H691 0.959 1_556 S
C685 H692 0.961 . S
C685 H693 0.960 . S
C686 C684 1.381 . S
C686 C687 1.394 . S
C686 H694 0.930 . S
C687 C686 1.394 . S
C687 C688 1.383 . S
C687 H695 0.929 1_655 S
C688 C687 1.383 . S
C688 C689 1.377 . S
C689 H673 0.930 . S
C689 C688 1.377 . S
C689 C690 1.379 . S
C690 H674 0.931 . S
C690 C684 1.383 . S
C690 C689 1.379 . S
H691 C685 0.959 1_554 S
H692 C685 0.961 . S
H693 C685 0.960 . S
H694 C686 0.930 . S
H695 C687 0.929 1_455 S
H696 C704 0.929 . S
H697 C706 0.930 . S
H698 C708 0.930 . S
H699 C711 0.929 . S
H700 C714 0.930 . S
H701 C716 0.960 . S
H702 C716 0.960 . S
H703 C716 0.960 . S
C704 H696 0.929 . S
C704 C705 1.377 . S
C704 C706 1.384 . S
C705 C704 1.377 . S
C705 C711 1.390 . S
C706 H697 0.930 . S
C706 C704 1.384 . S
C706 C707 1.372 . S
C707 C706 1.372 . S
C707 C708 1.400 . S
C707 C712 1.490 . S
C708 H698 0.930 . S
C708 C707 1.400 . S
C708 C711 1.386 . S
H709 C725 0.930 . S
H710 C726 0.931 . S
C711 H699 0.929 . S
C711 C705 1.390 . S
C711 C708 1.386 . S
C712 C707 1.490 . S
C712 C714 1.395 . S
C712 C715 1.403 . S
H713 C719 0.930 . S
C714 H700 0.930 . S
C714 C712 1.395 . S
C714 C717 1.403 . S
C715 C712 1.403 . S
C715 C716 1.524 . S
C715 C719 1.400 . S
C716 H701 0.960 . S
C716 H702 0.960 . S
C716 H703 0.960 . S
C716 C715 1.524 . S
C717 C714 1.403 . S
C717 C718 1.392 . S
C717 C721 1.495 . S
C718 C717 1.392 . S
C718 C719 1.385 . S
C718 C720 1.478 . S
C719 H713 0.930 . S
C719 C715 1.400 . S
C719 C718 1.385 . S
C720 C718 1.478 . S
C720 C722 1.381 1_455 S
C720 C726 1.383 . S
C721 C717 1.495 . S
C721 H727 0.959 . S
C721 H728 0.961 . S
C721 H729 0.960 . S
C722 C720 1.381 1_655 S
C722 C723 1.394 . S
C722 H730 0.930 . S
C723 C722 1.394 . S
C723 C724 1.382 . S
C723 H731 0.929 . S
C724 C723 1.382 . S
C724 C725 1.379 1_655 S
C725 H709 0.930 . S
C725 C724 1.379 1_455 S
C725 C726 1.379 . S
C726 H710 0.931 . S
C726 C720 1.383 . S
C726 C725 1.379 . S
H727 C721 0.959 . S
H728 C721 0.961 . S
H729 C721 0.960 . S
H730 C722 0.930 . S
H731 C723 0.929 . S
H732 C740 0.929 . S
H733 C742 0.930 . S
H734 C744 0.930 . S
H735 C747 0.929 . S
H736 C750 0.930 . S
H737 C752 0.960 1_565 S
H738 C752 0.960 . S
H739 C752 0.960 . S
C740 H732 0.929 . S
C740 C741 1.377 . S
C740 C742 1.384 . S
C741 C740 1.377 . S
C741 C747 1.390 . S
C742 H733 0.930 . S
C742 C740 1.384 . S
C742 C743 1.372 . S
C743 C742 1.372 . S
C743 C744 1.400 . S
C743 C748 1.490 . S
C744 H734 0.930 . S
C744 C743 1.400 . S
C744 C747 1.386 . S
H745 C761 0.934 . S
H746 C762 0.931 . S
C747 H735 0.929 . S
C747 C741 1.390 . S
C747 C744 1.386 . S
C748 C743 1.490 . S
C748 C750 1.395 . S
C748 C751 1.403 . S
H749 C755 0.939 . S
C750 H736 0.930 . S
C750 C748 1.395 . S
C750 C753 1.403 . S
C751 C748 1.403 . S
C751 C752 1.524 . S
C751 C755 1.400 . S
C752 H737 0.960 1_545 S
C752 H738 0.960 . S
C752 H739 0.960 . S
C752 C751 1.524 . S
C753 C750 1.403 . S
C753 C754 1.392 . S
C753 C757 1.495 . S
C754 C753 1.392 . S
C754 C755 1.385 . S
C754 C756 1.478 . S
C755 H749 0.939 . S
C755 C751 1.400 . S
C755 C754 1.385 . S
C756 C754 1.478 . S
C756 C758 1.381 . S
C756 C762 1.383 . S
C757 C753 1.495 . S
C757 H763 0.959 . S
C757 H764 0.961 . S
C757 H765 0.960 . S
C758 C756 1.381 . S
C758 C759 1.394 . S
C758 H766 0.930 . S
C759 C758 1.394 . S
C759 C760 1.383 . S
C759 H767 0.929 . S
C760 C759 1.383 . S
C760 C761 1.376 1_545 S
C761 H745 0.934 . S
C761 C760 1.376 1_565 S
C761 C762 1.376 1_565 S
C762 H746 0.931 . S
C762 C756 1.383 . S
C762 C761 1.376 1_545 S
H763 C757 0.959 . S
H764 C757 0.961 . S
H765 C757 0.960 . S
H766 C758 0.930 . S
H767 C759 0.929 . S
H768 C776 0.929 . S
H769 C778 0.930 . S
H770 C780 0.930 . S
H771 C783 0.929 . S
H772 C786 0.930 . S
H773 C788 0.960 . S
H774 C788 0.960 . S
H775 C788 0.960 . S
C776 H768 0.929 . S
C776 C777 1.377 . S
C776 C778 1.384 . S
C777 C776 1.377 . S
C777 C783 1.390 . S
C778 H769 0.930 . S
C778 C776 1.384 . S
C778 C779 1.372 . S
C779 C778 1.372 . S
C779 C780 1.400 . S
C779 C784 1.490 . S
C780 H770 0.930 . S
C780 C779 1.400 . S
C780 C783 1.386 . S
H781 C797 0.930 . S
H782 C798 0.931 . S
C783 H771 0.929 . S
C783 C777 1.390 . S
C783 C780 1.386 . S
C784 C779 1.490 . S
C784 C786 1.395 . S
C784 C787 1.403 . S
H785 C791 0.930 . S
C786 H772 0.930 . S
C786 C784 1.395 . S
C786 C789 1.403 . S
C787 C784 1.403 . S
C787 C788 1.524 . S
C787 C791 1.400 . S
C788 H773 0.960 . S
C788 H774 0.960 . S
C788 H775 0.960 . S
C788 C787 1.524 . S
C789 C786 1.403 . S
C789 C790 1.392 . S
C789 C793 1.495 . S
C790 C789 1.392 . S
C790 C791 1.385 . S
C790 C792 1.478 . S
C791 H785 0.930 . S
C791 C787 1.400 . S
C791 C790 1.385 . S
C792 C790 1.478 . S
C792 C794 1.381 . S
C792 C798 1.383 . S
C793 C789 1.495 . S
C793 H799 0.959 . S
C793 H800 0.961 . S
C793 H801 0.960 . S
C794 C792 1.381 . S
C794 C795 1.394 . S
C794 H802 0.930 . S
C795 C794 1.394 . S
C795 C796 1.383 . S
C795 H803 0.929 . S
C796 C795 1.383 . S
C796 C797 1.377 . S
C797 H781 0.930 . S
C797 C796 1.377 . S
C797 C798 1.379 . S
C798 H782 0.931 . S
C798 C792 1.383 . S
C798 C797 1.379 . S
H799 C793 0.959 . S
H800 C793 0.961 . S
H801 C793 0.960 . S
H802 C794 0.930 . S
H803 C795 0.929 . S
H804 C812 0.929 . S
H805 C814 0.930 . S
H806 C816 0.930 . S
H807 C819 0.929 . S
H808 C822 0.930 . S
H809 C824 0.960 . S
H810 C824 0.960 . S
H811 C824 0.960 . S
C812 H804 0.929 . S
C812 C813 1.377 . S
C812 C814 1.384 . S
C813 C812 1.377 . S
C813 C819 1.390 . S
C814 H805 0.930 . S
C814 C812 1.384 . S
C814 C815 1.372 . S
C815 C814 1.372 . S
C815 C816 1.400 . S
C815 C820 1.490 . S
C816 H806 0.930 . S
C816 C815 1.400 . S
C816 C819 1.386 . S
H817 C833 0.930 . S
H818 C834 0.931 . S
C819 H807 0.929 . S
C819 C813 1.390 . S
C819 C816 1.386 . S
C820 C815 1.490 . S
C820 C822 1.395 . S
C820 C823 1.403 . S
H821 C827 0.930 . S
C822 H808 0.930 . S
C822 C820 1.395 . S
C822 C825 1.403 . S
C823 C820 1.403 . S
C823 C824 1.524 . S
C823 C827 1.400 . S
C824 H809 0.960 . S
C824 H810 0.960 . S
C824 H811 0.960 . S
C824 C823 1.524 . S
C825 C822 1.403 . S
C825 C826 1.392 . S
C825 C829 1.495 . S
C826 C825 1.392 . S
C826 C827 1.385 . S
C826 C828 1.478 . S
C827 H821 0.930 . S
C827 C823 1.400 . S
C827 C826 1.385 . S
C828 C826 1.478 . S
C828 C830 1.381 . S
C828 C834 1.383 . S
C829 C825 1.495 . S
C829 H835 0.959 . S
C829 H836 0.961 . S
C829 H837 0.960 . S
C830 C828 1.381 . S
C830 C831 1.394 . S
C830 H838 0.930 . S
C831 C830 1.394 . S
C831 C832 1.383 . S
C831 H839 0.929 . S
C832 C831 1.383 . S
C832 C833 1.377 . S
C833 H817 0.930 . S
C833 C832 1.377 . S
C833 C834 1.379 . S
C834 H818 0.931 . S
C834 C828 1.383 . S
C834 C833 1.379 . S
H835 C829 0.959 . S
H836 C829 0.961 . S
H837 C829 0.960 . S
H838 C830 0.930 . S
H839 C831 0.929 . S
H840 C848 0.929 . S
H841 C850 0.930 . S
H842 C852 0.930 . S
H843 C855 0.929 . S
H844 C858 0.930 . S
H845 C860 0.960 . S
H846 C860 0.960 . S
H847 C860 0.960 . S
C848 H840 0.929 . S
C848 C849 1.377 . S
C848 C850 1.384 . S
C849 C848 1.377 . S
C849 C855 1.390 . S
C850 H841 0.930 . S
C850 C848 1.384 . S
C850 C851 1.372 . S
C851 C850 1.372 . S
C851 C852 1.400 . S
C851 C856 1.490 . S
C852 H842 0.930 . S
C852 C851 1.400 . S
C852 C855 1.386 . S
H853 C869 0.930 . S
H854 C870 0.931 . S
C855 H843 0.929 . S
C855 C849 1.390 . S
C855 C852 1.386 . S
C856 C851 1.490 . S
C856 C858 1.395 1_554 S
C856 C859 1.403 . S
H857 C863 0.930 . S
C858 H844 0.930 . S
C858 C856 1.395 1_556 S
C858 C861 1.403 . S
C859 C856 1.403 . S
C859 C860 1.524 . S
C859 C863 1.400 . S
C860 H845 0.960 . S
C860 H846 0.960 . S
C860 H847 0.960 . S
C860 C859 1.524 . S
C861 C858 1.403 . S
C861 C862 1.392 . S
C861 C865 1.495 . S
C862 C861 1.392 . S
C862 C863 1.385 1_556 S
C862 C864 1.478 . S
C863 H857 0.930 . S
C863 C859 1.400 . S
C863 C862 1.385 1_554 S
C864 C862 1.478 . S
C864 C866 1.381 1_655 S
C864 C870 1.383 . S
C865 C861 1.495 . S
C865 H871 0.959 . S
C865 H872 0.961 . S
C865 H873 0.960 . S
C866 C864 1.381 1_455 S
C866 C867 1.394 . S
C866 H874 0.930 . S
C867 C866 1.394 . S
C867 C868 1.383 . S
C867 H875 0.929 . S
C868 C867 1.383 . S
C868 C869 1.377 1_455 S
C869 H853 0.930 . S
C869 C868 1.377 1_655 S
C869 C870 1.379 . S
C870 H854 0.931 . S
C870 C864 1.383 . S
C870 C869 1.379 . S
H871 C865 0.959 . S
H872 C865 0.961 . S
H873 C865 0.960 . S
H874 C866 0.930 . S
H875 C867 0.929 . S
H876 C884 0.929 . S
H877 C886 0.941 . S
H878 C888 0.930 . S
H879 C891 0.929 . S
H880 C894 0.930 . S
H881 C896 0.960 . S
H882 C896 0.960 . S
H883 C896 0.960 . S
C884 H876 0.929 . S
C884 C885 1.377 . S
C884 C886 1.384 . S
C885 C884 1.377 . S
C885 C891 1.390 . S
C886 H877 0.941 . S
C886 C884 1.384 . S
C886 C887 1.372 . S
C887 C886 1.372 . S
C887 C888 1.400 . S
C887 C892 1.490 . S
C888 H878 0.930 . S
C888 C887 1.400 . S
C888 C891 1.386 . S
H889 C905 0.930 . S
H890 C906 0.931 1_545 S
C891 H879 0.929 . S
C891 C885 1.390 . S
C891 C888 1.386 . S
C892 C887 1.490 . S
C892 C894 1.395 1_554 S
C892 C895 1.403 . S
H893 C899 0.930 1_545 S
C894 H880 0.930 . S
C894 C892 1.395 1_556 S
C894 C897 1.403 . S
C895 C892 1.403 . S
C895 C896 1.524 1_565 S
C895 C899 1.400 1_554 S
C896 H881 0.960 . S
C896 H882 0.960 . S
C896 H883 0.960 . S
C896 C895 1.524 1_545 S
C897 C894 1.403 . S
C897 C898 1.392 . S
C897 C901 1.495 . S
C898 C897 1.392 . S
C898 C899 1.385 . S
C898 C900 1.478 . S
C899 H893 0.930 1_565 S
C899 C895 1.400 1_556 S
C899 C898 1.385 . S
C900 C898 1.478 . S
C900 C902 1.381 . S
C900 C906 1.380 . S
C901 C897 1.495 . S
C901 H907 0.959 . S
C901 H908 0.961 . S
C901 H909 0.960 . S
C902 C900 1.381 . S
C902 C903 1.411 . S
C902 H910 0.930 . S
C903 C902 1.411 . S
C903 C904 1.367 1_565 S
C903 H911 0.929 . S
C904 C903 1.367 1_545 S
C904 C905 1.377 . S
C905 H889 0.930 . S
C905 C904 1.377 . S
C905 C906 1.382 1_545 S
C906 H890 0.931 1_565 S
C906 C900 1.380 . S
C906 C905 1.382 1_565 S
H907 C901 0.959 . S
H908 C901 0.961 . S
H909 C901 0.960 . S
H910 C902 0.930 . S
H911 C903 0.929 . S
H912 C920 0.929 . S
H913 C922 0.930 . S
H914 C924 0.940 . S
H915 C927 0.929 . S
H916 C930 0.930 . S
H917 C932 0.960 . S
H918 C932 0.960 . S
H919 C932 0.960 . S
C920 H912 0.929 . S
C920 C921 1.377 . S
C920 C922 1.384 . S
C921 C920 1.377 . S
C921 C927 1.390 . S
C922 H913 0.930 . S
C922 C920 1.384 . S
C922 C923 1.372 . S
C923 C922 1.372 . S
C923 C924 1.400 . S
C923 C928 1.490 . S
C924 H914 0.940 . S
C924 C923 1.400 . S
C924 C927 1.386 . S
H925 C941 0.930 . S
H926 C942 0.931 . S
C927 H915 0.929 . S
C927 C921 1.390 . S
C927 C924 1.386 . S
C928 C923 1.490 . S
C928 C930 1.395 . S
C928 C931 1.403 1_554 S
H929 C935 0.930 . S
C930 H916 0.930 . S
C930 C928 1.395 . S
C930 C933 1.403 . S
C931 C928 1.403 1_556 S
C931 C932 1.524 . S
C931 C935 1.400 . S
C932 H917 0.960 . S
C932 H918 0.960 . S
C932 H919 0.960 . S
C932 C931 1.524 . S
C933 C930 1.403 . S
C933 C934 1.392 1_554 S
C933 C937 1.495 . S
C934 C933 1.392 1_556 S
C934 C935 1.385 . S
C934 C936 1.478 . S
C935 H929 0.930 . S
C935 C931 1.400 . S
C935 C934 1.385 . S
C936 C934 1.478 . S
C936 C938 1.381 . S
C936 C942 1.383 . S
C937 C933 1.495 . S
C937 H943 0.959 . S
C937 H944 0.961 . S
C937 H945 0.960 . S
C938 C936 1.381 . S
C938 C939 1.394 . S
C938 H946 0.930 . S
C939 C938 1.394 . S
C939 C940 1.383 . S
C939 H947 0.929 . S
C940 C939 1.383 . S
C940 C941 1.377 . S
C941 H925 0.930 . S
C941 C940 1.377 . S
C941 C942 1.379 . S
C942 H926 0.931 . S
C942 C936 1.383 . S
C942 C941 1.379 . S
H943 C937 0.959 . S
H944 C937 0.961 . S
H945 C937 0.960 . S
H946 C938 0.930 . S
H947 C939 0.929 . S
H948 C956 0.929 . S
H949 C958 0.930 . S
H950 C960 0.930 . S
H951 C963 0.929 . S
H952 C966 0.930 . S
H953 C968 0.960 . S
H954 C968 0.960 . S
H955 C968 0.960 . S
C956 H948 0.929 . S
C956 C957 1.377 . S
C956 C958 1.384 . S
C957 C956 1.377 . S
C957 C963 1.390 . S
C958 H949 0.930 . S
C958 C956 1.384 . S
C958 C959 1.372 . S
C959 C958 1.372 . S
C959 C960 1.400 . S
C959 C964 1.490 . S
C960 H950 0.930 . S
C960 C959 1.400 . S
C960 C963 1.386 . S
H961 C977 0.930 . S
H962 C978 0.931 . S
C963 H951 0.929 . S
C963 C957 1.390 . S
C963 C960 1.386 . S
C964 C959 1.490 . S
C964 C966 1.395 1_554 S
C964 C967 1.403 . S
H965 C971 0.930 . S
C966 H952 0.930 . S
C966 C964 1.395 1_556 S
C966 C969 1.403 . S
C967 C964 1.403 . S
C967 C968 1.524 . S
C967 C971 1.400 . S
C968 H953 0.960 . S
C968 H954 0.960 . S
C968 H955 0.960 . S
C968 C967 1.524 . S
C969 C966 1.403 . S
C969 C970 1.392 . S
C969 C973 1.495 . S
C970 C969 1.392 . S
C970 C971 1.385 1_556 S
C970 C972 1.478 . S
C971 H965 0.930 . S
C971 C967 1.400 . S
C971 C970 1.385 1_554 S
C972 C970 1.478 . S
C972 C974 1.381 . S
C972 C978 1.383 . S
C973 C969 1.495 . S
C973 H979 0.959 . S
C973 H980 0.961 . S
C973 H981 0.960 . S
C974 C972 1.381 . S
C974 C975 1.394 . S
C974 H982 0.930 . S
C975 C974 1.394 . S
C975 C976 1.383 . S
C975 H983 0.929 . S
C976 C975 1.383 . S
C976 C977 1.377 . S
C977 H961 0.930 . S
C977 C976 1.377 . S
C977 C978 1.379 . S
C978 H962 0.931 . S
C978 C972 1.383 . S
C978 C977 1.379 . S
H979 C973 0.959 . S
H980 C973 0.961 . S
H981 C973 0.960 . S
H982 C974 0.930 . S
H983 C975 0.929 . S
H984 C992 0.929 . S
H985 C994 0.930 . S
H986 C996 0.930 . S
H987 C999 0.929 . S
H988 C1002 0.930 . S
H989 C1004 0.960 . S
H990 C1004 0.960 . S
H991 C1004 0.960 . S
C992 H984 0.929 . S
C992 C993 1.377 . S
C992 C994 1.384 . S
C993 C992 1.377 . S
C993 C999 1.390 . S
C994 H985 0.930 . S
C994 C992 1.384 . S
C994 C995 1.372 . S
C995 C994 1.372 . S
C995 C996 1.400 . S
C995 C1000 1.490 . S
C996 H986 0.930 . S
C996 C995 1.400 . S
C996 C999 1.386 . S
H997 C1013 0.930 . S
H998 C1014 0.931 . S
C999 H987 0.929 . S
C999 C993 1.390 . S
C999 C996 1.386 . S
C1000 C995 1.490 . S
C1000 C1002 1.395 . S
C1000 C1003 1.403 . S
H1001 C1007 0.930 . S
C1002 H988 0.930 . S
C1002 C1000 1.395 . S
C1002 C1005 1.403 . S
C1003 C1000 1.403 . S
C1003 C1004 1.524 . S
C1003 C1007 1.400 . S
C1004 H989 0.960 . S
C1004 H990 0.960 . S
C1004 H991 0.960 . S
C1004 C1003 1.524 . S
C1005 C1002 1.403 . S
C1005 C1006 1.392 . S
C1005 C1009 1.495 . S
C1006 C1005 1.392 . S
C1006 C1007 1.385 . S
C1006 C1008 1.478 . S
C1007 H1001 0.930 . S
C1007 C1003 1.400 . S
C1007 C1006 1.385 . S
C1008 C1006 1.478 . S
C1008 C1010 1.381 . S
C1008 C1014 1.383 . S
C1009 C1005 1.495 . S
C1009 H1015 0.959 . S
C1009 H1016 0.961 . S
C1009 H1017 0.960 . S
C1010 C1008 1.381 . S
C1010 C1011 1.394 . S
C1010 H1018 0.930 . S
C1011 C1010 1.394 . S
C1011 C1012 1.383 . S
C1011 H1019 0.929 . S
C1012 C1011 1.383 . S
C1012 C1013 1.377 . S
C1013 H997 0.930 . S
C1013 C1012 1.377 . S
C1013 C1014 1.379 . S
C1014 H998 0.931 . S
C1014 C1008 1.383 . S
C1014 C1013 1.379 . S
H1015 C1009 0.959 . S
H1016 C1009 0.961 . S
H1017 C1009 0.960 . S
H1018 C1010 0.930 . S
H1019 C1011 0.929 . S
H1020 C1028 0.929 . S
H1021 C1030 0.930 . S
H1022 C1032 0.930 . S
H1023 C1035 0.929 . S
H1024 C1038 0.930 . S
H1025 C1040 0.960 . S
H1026 C1040 0.960 . S
H1027 C1040 0.960 . S
C1028 H1020 0.929 . S
C1028 C1029 1.377 . S
C1028 C1030 1.384 . S
C1029 C1028 1.377 . S
C1029 C1035 1.390 . S
C1030 H1021 0.930 . S
C1030 C1028 1.384 . S
C1030 C1031 1.372 . S
C1031 C1030 1.372 . S
C1031 C1032 1.400 . S
C1031 C1036 1.490 . S
C1032 H1022 0.930 . S
C1032 C1031 1.400 . S
C1032 C1035 1.386 . S
H1033 C1049 0.930 . S
H1034 C1050 0.931 . S
C1035 H1023 0.929 . S
C1035 C1029 1.390 . S
C1035 C1032 1.386 . S
C1036 C1031 1.490 . S
C1036 C1038 1.395 . S
C1036 C1039 1.403 . S
H1037 C1043 0.930 . S
C1038 H1024 0.930 . S
C1038 C1036 1.395 . S
C1038 C1041 1.403 . S
C1039 C1036 1.403 . S
C1039 C1040 1.524 . S
C1039 C1043 1.400 . S
C1040 H1025 0.960 . S
C1040 H1026 0.960 . S
C1040 H1027 0.960 . S
C1040 C1039 1.524 . S
C1041 C1038 1.403 . S
C1041 C1042 1.392 . S
C1041 C1045 1.495 . S
C1042 C1041 1.392 . S
C1042 C1043 1.385 . S
C1042 C1044 1.478 . S
C1043 H1037 0.930 . S
C1043 C1039 1.400 . S
C1043 C1042 1.385 . S
C1044 C1042 1.478 . S
C1044 C1046 1.381 . S
C1044 C1050 1.383 . S
C1045 C1041 1.495 . S
C1045 H1051 0.959 . S
C1045 H1052 0.961 . S
C1045 H1053 0.960 . S
C1046 C1044 1.381 . S
C1046 C1047 1.394 . S
C1046 H1054 0.930 . S
C1047 C1046 1.394 . S
C1047 C1048 1.383 . S
C1047 H1055 0.929 . S
C1048 C1047 1.383 . S
C1048 C1049 1.377 . S
C1049 H1033 0.930 . S
C1049 C1048 1.377 . S
C1049 C1050 1.379 . S
C1050 H1034 0.931 . S
C1050 C1044 1.383 . S
C1050 C1049 1.379 . S
H1051 C1045 0.959 . S
H1052 C1045 0.961 . S
H1053 C1045 0.960 . S
H1054 C1046 0.930 . S
H1055 C1047 0.929 . S
H1056 C1064 0.929 . S
H1057 C1066 0.930 . S
H1058 C1068 0.930 . S
H1059 C1071 0.929 . S
H1060 C1074 0.930 . S
H1061 C1076 0.960 . S
H1062 C1076 0.960 . S
H1063 C1076 0.960 . S
C1064 H1056 0.929 . S
C1064 C1065 1.377 . S
C1064 C1066 1.384 . S
C1065 C1064 1.377 . S
C1065 C1071 1.390 . S
C1066 H1057 0.930 . S
C1066 C1064 1.384 . S
C1066 C1067 1.372 . S
C1067 C1066 1.372 . S
C1067 C1068 1.400 . S
C1067 C1072 1.490 . S
C1068 H1058 0.930 . S
C1068 C1067 1.400 . S
C1068 C1071 1.386 . S
H1069 C1085 0.930 . S
H1070 C1086 0.931 . S
C1071 H1059 0.929 . S
C1071 C1065 1.390 . S
C1071 C1068 1.386 . S
C1072 C1067 1.490 . S
C1072 C1074 1.395 . S
C1072 C1075 1.403 . S
H1073 C1079 0.930 . S
C1074 H1060 0.930 . S
C1074 C1072 1.395 . S
C1074 C1077 1.403 . S
C1075 C1072 1.403 . S
C1075 C1076 1.524 . S
C1075 C1079 1.400 . S
C1076 H1061 0.960 . S
C1076 H1062 0.960 . S
C1076 H1063 0.960 . S
C1076 C1075 1.524 . S
C1077 C1074 1.403 . S
C1077 C1078 1.392 . S
C1077 C1081 1.495 . S
C1078 C1077 1.392 . S
C1078 C1079 1.385 . S
C1078 C1080 1.478 . S
C1079 H1073 0.930 . S
C1079 C1075 1.400 . S
C1079 C1078 1.385 . S
C1080 C1078 1.478 . S
C1080 C1082 1.381 . S
C1080 C1086 1.383 . S
C1081 C1077 1.495 . S
C1081 H1087 0.959 . S
C1081 H1088 0.961 . S
C1081 H1089 0.960 . S
C1082 C1080 1.381 . S
C1082 C1083 1.394 . S
C1082 H1090 0.930 . S
C1083 C1082 1.394 . S
C1083 C1084 1.383 . S
C1083 H1091 0.929 . S
C1084 C1083 1.383 . S
C1084 C1085 1.377 . S
C1085 H1069 0.930 . S
C1085 C1084 1.377 . S
C1085 C1086 1.379 . S
C1086 H1070 0.931 . S
C1086 C1080 1.383 . S
C1086 C1085 1.379 . S
H1087 C1081 0.959 . S
H1088 C1081 0.961 . S
H1089 C1081 0.960 . S
H1090 C1082 0.930 . S
H1091 C1083 0.929 . S
H1092 C1100 0.929 . S
H1093 C1102 0.930 . S
H1094 C1104 0.930 . S
H1095 C1107 0.929 . S
H1096 C1110 0.930 . S
H1097 C1112 0.960 . S
H1098 C1112 0.960 . S
H1099 C1112 0.960 . S
C1100 H1092 0.929 . S
C1100 C1101 1.377 . S
C1100 C1102 1.384 . S
C1101 C1100 1.377 . S
C1101 C1107 1.390 . S
C1102 H1093 0.930 . S
C1102 C1100 1.384 . S
C1102 C1103 1.372 . S
C1103 C1102 1.372 . S
C1103 C1104 1.400 . S
C1103 C1108 1.490 . S
C1104 H1094 0.930 . S
C1104 C1103 1.400 . S
C1104 C1107 1.386 . S
H1105 C1121 0.930 . S
H1106 C1122 0.931 . S
C1107 H1095 0.929 . S
C1107 C1101 1.390 . S
C1107 C1104 1.386 . S
C1108 C1103 1.490 . S
C1108 C1110 1.395 . S
C1108 C1111 1.403 . S
H1109 C1115 0.930 . S
C1110 H1096 0.930 . S
C1110 C1108 1.395 . S
C1110 C1113 1.403 . S
C1111 C1108 1.403 . S
C1111 C1112 1.524 . S
C1111 C1115 1.400 . S
C1112 H1097 0.960 . S
C1112 H1098 0.960 . S
C1112 H1099 0.960 . S
C1112 C1111 1.524 . S
C1113 C1110 1.403 . S
C1113 C1114 1.392 . S
C1113 C1117 1.495 . S
C1114 C1113 1.392 . S
C1114 C1115 1.385 . S
C1114 C1116 1.478 . S
C1115 H1109 0.930 . S
C1115 C1111 1.400 . S
C1115 C1114 1.385 . S
C1116 C1114 1.478 . S
C1116 C1118 1.381 . S
C1116 C1122 1.383 . S
C1117 C1113 1.495 . S
C1117 H1123 0.959 . S
C1117 H1124 0.961 . S
C1117 H1125 0.960 . S
C1118 C1116 1.381 . S
C1118 C1119 1.394 . S
C1118 H1126 0.930 . S
C1119 C1118 1.394 . S
C1119 C1120 1.383 . S
C1119 H1127 0.929 . S
C1120 C1119 1.383 . S
C1120 C1121 1.377 . S
C1121 H1105 0.930 . S
C1121 C1120 1.377 . S
C1121 C1122 1.379 . S
C1122 H1106 0.931 . S
C1122 C1116 1.383 . S
C1122 C1121 1.379 . S
H1123 C1117 0.959 . S
H1124 C1117 0.961 . S
H1125 C1117 0.960 . S
H1126 C1118 0.930 . S
H1127 C1119 0.929 . S
H1128 C1136 0.929 . S
H1129 C1138 0.930 . S
H1130 C1140 0.930 . S
H1131 C1143 0.929 . S
H1132 C1146 0.930 . S
H1133 C1148 0.960 1_455 S
H1134 C1148 0.960 . S
H1135 C1148 0.960 . S
C1136 H1128 0.929 . S
C1136 C1137 1.377 . S
C1136 C1138 1.384 . S
C1137 C1136 1.377 . S
C1137 C1143 1.390 . S
C1138 H1129 0.930 . S
C1138 C1136 1.384 . S
C1138 C1139 1.372 . S
C1139 C1138 1.372 . S
C1139 C1140 1.400 . S
C1139 C1144 1.490 . S
C1140 H1130 0.930 . S
C1140 C1139 1.400 . S
C1140 C1143 1.386 . S
H1141 C1157 0.930 . S
H1142 C1158 0.931 . S
C1143 H1131 0.929 . S
C1143 C1137 1.390 . S
C1143 C1140 1.386 . S
C1144 C1139 1.490 . S
C1144 C1146 1.395 . S
C1144 C1147 1.403 . S
H1145 C1151 0.930 . S
C1146 H1132 0.930 . S
C1146 C1144 1.395 . S
C1146 C1149 1.403 . S
C1147 C1144 1.403 . S
C1147 C1148 1.524 . S
C1147 C1151 1.400 . S
C1148 H1133 0.960 1_655 S
C1148 H1134 0.960 . S
C1148 H1135 0.960 . S
C1148 C1147 1.524 . S
C1149 C1146 1.403 . S
C1149 C1150 1.392 . S
C1149 C1153 1.495 . S
C1150 C1149 1.392 . S
C1150 C1151 1.385 . S
C1150 C1152 1.478 . S
C1151 H1145 0.930 . S
C1151 C1147 1.400 . S
C1151 C1150 1.385 . S
C1152 C1150 1.478 . S
C1152 C1154 1.381 . S
C1152 C1158 1.383 . S
C1153 C1149 1.495 . S
C1153 H1159 0.959 . S
C1153 H1160 0.961 . S
C1153 H1161 0.960 . S
C1154 C1152 1.381 . S
C1154 C1155 1.394 . S
C1154 H1162 0.930 . S
C1155 C1154 1.394 . S
C1155 C1156 1.383 . S
C1155 H1163 0.929 . S
C1156 C1155 1.383 . S
C1156 C1157 1.377 . S
C1157 H1141 0.930 . S
C1157 C1156 1.377 . S
C1157 C1158 1.379 . S
C1158 H1142 0.931 . S
C1158 C1152 1.383 . S
C1158 C1157 1.379 . S
H1159 C1153 0.959 . S
H1160 C1153 0.961 . S
H1161 C1153 0.960 . S
H1162 C1154 0.930 . S
H1163 C1155 0.929 . S
H1164 C1172 0.929 . S
H1165 C1174 0.930 . S
H1166 C1176 0.930 . S
H1167 C1179 0.929 . S
H1168 C1182 0.930 . S
H1169 C1184 0.960 . S
H1170 C1184 0.960 . S
H1171 C1184 0.955 1_565 S
C1172 H1164 0.929 . S
C1172 C1173 1.377 . S
C1172 C1174 1.384 . S
C1173 C1172 1.377 . S
C1173 C1179 1.390 . S
C1174 H1165 0.930 . S
C1174 C1172 1.384 . S
C1174 C1175 1.372 . S
C1175 C1174 1.372 . S
C1175 C1176 1.400 . S
C1175 C1180 1.490 . S
C1176 H1166 0.930 . S
C1176 C1175 1.400 . S
C1176 C1179 1.386 . S
H1177 C1193 0.930 . S
H1178 C1194 0.931 . S
C1179 H1167 0.929 . S
C1179 C1173 1.390 . S
C1179 C1176 1.386 . S
C1180 C1175 1.490 . S
C1180 C1182 1.395 . S
C1180 C1183 1.403 . S
H1181 C1187 0.930 . S
C1182 H1168 0.930 . S
C1182 C1180 1.395 . S
C1182 C1185 1.403 . S
C1183 C1180 1.403 . S
C1183 C1184 1.524 1_565 S
C1183 C1187 1.400 . S
C1184 H1169 0.960 . S
C1184 H1170 0.960 . S
C1184 H1171 0.955 1_545 S
C1184 C1183 1.524 1_545 S
C1185 C1182 1.403 . S
C1185 C1186 1.392 . S
C1185 C1189 1.495 . S
C1186 C1185 1.392 . S
C1186 C1187 1.385 . S
C1186 C1188 1.478 . S
C1187 H1181 0.930 . S
C1187 C1183 1.400 . S
C1187 C1186 1.385 . S
C1188 C1186 1.478 . S
C1188 C1190 1.381 . S
C1188 C1194 1.383 . S
C1189 C1185 1.495 . S
C1189 H1195 0.959 . S
C1189 H1196 0.961 . S
C1189 H1197 0.960 . S
C1190 C1188 1.381 . S
C1190 C1191 1.394 . S
C1190 H1198 0.930 . S
C1191 C1190 1.394 . S
C1191 C1192 1.383 . S
C1191 H1199 0.929 . S
C1192 C1191 1.383 . S
C1192 C1193 1.377 . S
C1193 H1177 0.930 . S
C1193 C1192 1.377 . S
C1193 C1194 1.379 . S
C1194 H1178 0.931 . S
C1194 C1188 1.383 . S
C1194 C1193 1.379 . S
H1195 C1189 0.959 . S
H1196 C1189 0.961 . S
H1197 C1189 0.960 . S
H1198 C1190 0.930 . S
H1199 C1191 0.929 . S
H1200 C1208 0.929 . S
H1201 C1210 0.930 . S
H1202 C1212 0.930 . S
H1203 C1215 0.929 . S
H1204 C1218 0.930 . S
H1205 C1220 0.960 . S
H1206 C1220 0.960 . S
H1207 C1220 0.960 . S
C1208 H1200 0.929 . S
C1208 C1209 1.377 . S
C1208 C1210 1.384 . S
C1209 C1208 1.377 . S
C1209 C1215 1.390 . S
C1210 H1201 0.930 . S
C1210 C1208 1.384 . S
C1210 C1211 1.372 . S
C1211 C1210 1.372 . S
C1211 C1212 1.400 . S
C1211 C1216 1.490 . S
C1212 H1202 0.930 . S
C1212 C1211 1.400 . S
C1212 C1215 1.386 . S
H1213 C1229 0.930 . S
H1214 C1230 0.931 . S
C1215 H1203 0.929 . S
C1215 C1209 1.390 . S
C1215 C1212 1.386 . S
C1216 C1211 1.490 . S
C1216 C1218 1.395 . S
C1216 C1219 1.403 . S
H1217 C1223 0.930 . S
C1218 H1204 0.930 . S
C1218 C1216 1.395 . S
C1218 C1221 1.403 . S
C1219 C1216 1.403 . S
C1219 C1220 1.524 . S
C1219 C1223 1.400 . S
C1220 H1205 0.960 . S
C1220 H1206 0.960 . S
C1220 H1207 0.960 . S
C1220 C1219 1.524 . S
C1221 C1218 1.403 . S
C1221 C1222 1.392 . S
C1221 C1225 1.495 . S
C1222 C1221 1.392 . S
C1222 C1223 1.385 . S
C1222 C1224 1.478 . S
C1223 H1217 0.930 . S
C1223 C1219 1.400 . S
C1223 C1222 1.385 . S
C1224 C1222 1.478 . S
C1224 C1226 1.381 . S
C1224 C1230 1.383 . S
C1225 C1221 1.495 . S
C1225 H1231 0.959 . S
C1225 H1232 0.961 . S
C1225 H1233 0.960 . S
C1226 C1224 1.381 . S
C1226 C1227 1.394 . S
C1226 H1234 0.930 . S
C1227 C1226 1.394 . S
C1227 C1228 1.383 . S
C1227 H1235 0.929 . S
C1228 C1227 1.383 . S
C1228 C1229 1.377 . S
C1229 H1213 0.930 . S
C1229 C1228 1.377 . S
C1229 C1230 1.379 . S
C1230 H1214 0.931 . S
C1230 C1224 1.383 . S
C1230 C1229 1.379 . S
H1231 C1225 0.959 . S
H1232 C1225 0.961 . S
H1233 C1225 0.960 . S
H1234 C1226 0.930 . S
H1235 C1227 0.929 . S
H1236 C1244 0.929 . S
H1237 C1246 0.930 . S
H1238 C1248 0.930 . S
H1239 C1251 0.929 . S
H1240 C1254 0.930 . S
H1241 C1256 0.960 . S
H1242 C1256 0.960 . S
H1243 C1256 0.960 . S
C1244 H1236 0.929 . S
C1244 C1245 1.377 . S
C1244 C1246 1.384 . S
C1245 C1244 1.377 . S
C1245 C1251 1.390 . S
C1246 H1237 0.930 . S
C1246 C1244 1.384 . S
C1246 C1247 1.372 . S
C1247 C1246 1.372 . S
C1247 C1248 1.400 . S
C1247 C1252 1.490 . S
C1248 H1238 0.930 . S
C1248 C1247 1.400 . S
C1248 C1251 1.386 . S
H1249 C1265 0.930 . S
H1250 C1266 0.931 . S
C1251 H1239 0.929 . S
C1251 C1245 1.390 . S
C1251 C1248 1.386 . S
C1252 C1247 1.490 . S
C1252 C1254 1.395 . S
C1252 C1255 1.403 . S
H1253 C1259 0.930 . S
C1254 H1240 0.930 . S
C1254 C1252 1.395 . S
C1254 C1257 1.403 . S
C1255 C1252 1.403 . S
C1255 C1256 1.524 . S
C1255 C1259 1.400 . S
C1256 H1241 0.960 . S
C1256 H1242 0.960 . S
C1256 H1243 0.960 . S
C1256 C1255 1.524 . S
C1257 C1254 1.403 . S
C1257 C1258 1.392 . S
C1257 C1261 1.495 . S
C1258 C1257 1.392 . S
C1258 C1259 1.385 . S
C1258 C1260 1.478 . S
C1259 H1253 0.930 . S
C1259 C1255 1.400 . S
C1259 C1258 1.385 . S
C1260 C1258 1.478 . S
C1260 C1262 1.381 . S
C1260 C1266 1.383 . S
C1261 C1257 1.495 . S
C1261 H1267 0.959 . S
C1261 H1268 0.961 . S
C1261 H1269 0.960 . S
C1262 C1260 1.381 . S
C1262 C1263 1.394 . S
C1262 H1270 0.930 . S
C1263 C1262 1.394 . S
C1263 C1264 1.383 . S
C1263 H1271 0.929 . S
C1264 C1263 1.383 . S
C1264 C1265 1.377 . S
C1265 H1249 0.930 . S
C1265 C1264 1.377 . S
C1265 C1266 1.379 . S
C1266 H1250 0.931 . S
C1266 C1260 1.383 . S
C1266 C1265 1.379 . S
H1267 C1261 0.959 . S
H1268 C1261 0.961 . S
H1269 C1261 0.960 . S
H1270 C1262 0.930 . S
H1271 C1263 0.929 . S
C417 C61 1.707 . S
C436 C147 1.768 . S
C472 C231 1.770 . S
C453 C70 1.758 . S
C508 C307 1.747 . S
C489 C43 1.846 . S
C544 C391 1.760 . S
C525 C52 1.826 . S
C580 C138 1.730 1_565 S
C561 C25 1.713 . S
C597 C34 1.753 . S
C616 C222 1.797 . S
C633 C7 1.859 . S
C652 C296 1.769 . S
C669 C16 1.834 . S
C688 C380 1.725 . S
C724 C135 0.436 . S
C705 C50 0.394 . S
C760 C219 0.536 1_545 S
C741 C59 0.363 . S
C796 C312 0.422 . S
C777 C67 0.319 . S
C813 C41 0.380 . S
C832 C396 0.394 . S
C849 C14 0.372 . S
C868 C144 0.493 . S
C904 C228 0.536 . S
C885 C23 0.355 . S
C940 C303 0.412 . S
C921 C31 0.355 . S
C957 C5 0.340 . S
C976 C387 0.587 . S
C993 C49 1.894 . S
C1012 C128 1.959 . S
C1029 C58 1.862 . S
C1048 C212 1.939 . S
C1084 C306 1.872 . S
C1065 C68 1.756 . S
C1120 C390 1.883 . S
C1101 C40 1.774 . S
C1137 C13 1.890 . S
C1156 C139 1.973 . S
C1192 C223 1.936 . S
C1173 C22 1.853 . S
C1228 C315 1.879 . S
C1209 C32 1.738 . S
C1245 C4 1.772 . S
C1264 C399 1.899 . S
