# Generated by pormake.
# Topology anh, (6,3)-cn, num edge types: 1
# Building blocks:
#     Node 0, Type 0, BuildingBlock: BETDAH_clean_sbu_0, # of connection points: 6
#     Node 1, Type 0, BuildingBlock: BETDAH_clean_sbu_0, # of connection points: 6
#     Node 2, Type 0, BuildingBlock: BETDAH_clean_sbu_0, # of connection points: 6
#     Node 3, Type 1, BuildingBlock: BETDAH_clean_linker_0, # of connection points: 3
#     Node 4, Type 1, BuildingBlock: BETDAH_clean_linker_0, # of connection points: 3
#     Node 5, Type 1, BuildingBlock: BETDAH_clean_linker_0, # of connection points: 3
#     Node 6, Type 1, BuildingBlock: BETDAH_clean_linker_0, # of connection points: 3
#     Node 7, Type 1, BuildingBlock: BETDAH_clean_linker_0, # of connection points: 3
#     Node 8, Type 1, BuildingBlock: BETDAH_clean_linker_0, # of connection points: 3
#     Edge 9, Type (0, 1), BuildingBlock: EZIPEK_clean_linker_0, # of connection points: 2
#     Edge 10, Type (0, 1), BuildingBlock: EZIPEK_clean_linker_0, # of connection points: 2
#     Edge 11, Type (0, 1), BuildingBlock: EZIPEK_clean_linker_0, # of connection points: 2
#     Edge 12, Type (0, 1), BuildingBlock: EZIPEK_clean_linker_0, # of connection points: 2
#     Edge 13, Type (0, 1), BuildingBlock: EZIPEK_clean_linker_0, # of connection points: 2
#     Edge 14, Type (0, 1), BuildingBlock: EZIPEK_clean_linker_0, # of connection points: 2
#     Edge 15, Type (0, 1), BuildingBlock: EZIPEK_clean_linker_0, # of connection points: 2
#     Edge 16, Type (0, 1), BuildingBlock: EZIPEK_clean_linker_0, # of connection points: 2
#     Edge 17, Type (0, 1), BuildingBlock: EZIPEK_clean_linker_0, # of connection points: 2
#     Edge 18, Type (0, 1), BuildingBlock: EZIPEK_clean_linker_0, # of connection points: 2
#     Edge 19, Type (0, 1), BuildingBlock: EZIPEK_clean_linker_0, # of connection points: 2
#     Edge 20, Type (0, 1), BuildingBlock: EZIPEK_clean_linker_0, # of connection points: 2
#     Edge 21, Type (0, 1), BuildingBlock: EZIPEK_clean_linker_0, # of connection points: 2
#     Edge 22, Type (0, 1), BuildingBlock: EZIPEK_clean_linker_0, # of connection points: 2
#     Edge 23, Type (0, 1), BuildingBlock: EZIPEK_clean_linker_0, # of connection points: 2
#     Edge 24, Type (0, 1), BuildingBlock: EZIPEK_clean_linker_0, # of connection points: 2
#     Edge 25, Type (0, 1), BuildingBlock: EZIPEK_clean_linker_0, # of connection points: 2
#     Edge 26, Type (0, 1), BuildingBlock: EZIPEK_clean_linker_0, # of connection points: 2
# Relax obj value: 0.212
# Max RMSD: 0.216
# Mean RMSD: 0.121
data_MOF--net-anh--node1-BETDAH_clean_sbu_0--node2-BETDAH_clean_linker_0--edge1-EZIPEK_clean_linker_0
_symmetry_space_group_name_H-M    P1
_symmetry_Int_Tables_number       1
_symmetry_cell_setting            triclinic
loop_
_symmetry_equiv_pos_as_xyz
'x, y, z'
_cell_length_a     22.971174
_cell_length_b     29.605726
_cell_length_c     35.923031
_cell_angle_alpha  93.641137
_cell_angle_beta   91.834279
_cell_angle_gamma 132.39299
loop_
_atom_site_label
_atom_site_type_symbol
_atom_site_fract_x
_atom_site_fract_y
_atom_site_fract_z
_atom_type_partial_charge
Ho0 Ho 0.19636 0.53939 0.14808 0.0
Ho1 Ho 1.08416 0.55376 0.16849 0.0
C2 C 0.26655 0.67819 0.16756 0.0
C3 C 0.30859 0.55912 0.11632 0.0
C4 C 0.38754 0.61882 0.11198 0.0
C5 C 0.41694 0.63123 0.07695 0.0
C6 C 0.49623 0.68333 0.07413 0.0
C7 C 0.54841 0.72104 0.10698 0.0
C8 C 0.51349 0.71623 0.13992 0.0
C9 C 0.43433 0.66433 0.14277 0.0
C10 C 0.17007 0.53088 0.22111 0.0
C11 C 1.01759 0.41631 0.15404 0.0
C12 C 0.99922 0.56801 0.20141 0.0
C13 C 0.91302 0.52842 0.20043 0.0
C14 C 0.87531 0.50508 0.23324 0.0
C15 C 0.79339 0.46808 0.23252 0.0
C16 C 0.74903 0.45509 0.19909 0.0
C17 C 0.78623 0.47573 0.16601 0.0
C18 C 0.86735 0.51184 0.16659 0.0
C19 C 1.07601 0.52536 0.09396 0.0
O20 O 0.28198 0.64262 0.16287 0.0
O21 O 0.19318 0.65442 0.16876 0.0
O22 O 0.2946 0.54454 0.1506 0.0
O23 O 0.24898 0.54663 0.09715 0.0
O24 O 0.18077 0.49874 0.20183 0.0
O25 O 0.17867 0.56826 0.20111 0.0
O26 O 1.01097 0.45254 0.17253 0.0
O27 O 1.08107 0.43974 0.13634 0.0
O28 O 1.03117 0.59221 0.1706 0.0
O29 O 1.02725 0.54668 0.21729 0.0
O30 O 1.0152 0.50571 0.11123 0.0
O31 O 0.1373 0.56185 0.11677 0.0
H32 H 0.38022 0.59873 0.05225 0.0
H33 H 0.51829 0.68831 0.04709 0.0
H34 H 0.54946 0.74729 0.16515 0.0
H35 H 0.41159 0.65812 0.16977 0.0
H36 H 0.90943 0.51637 0.25948 0.0
H37 H 0.76538 0.45209 0.25822 0.0
H38 H 0.75283 0.46631 0.13994 0.0
H39 H 0.89425 0.52785 0.14064 0.0
Ho40 Ho 0.76763 0.0866 0.47675 0.0
Ho41 Ho 0.64759 0.09776 0.4643 0.0
C42 C 0.57889 0.96057 0.45911 0.0
C43 C 0.84181 0.05908 0.50744 0.0
C44 C 0.81975 1.00074 0.51315 0.0
C45 C 0.8484 0.99621 0.54641 0.0
C46 C 0.82425 0.94004 0.55333 0.0
C47 C 0.77159 0.888 0.52688 0.0
C48 C 0.74254 0.89236 0.49371 0.0
C49 C 0.76613 0.94835 0.48695 0.0
C50 C 0.73807 0.09061 0.40438 0.0
C51 C 0.83807 0.22228 0.47172 0.0
C52 C 0.56827 0.12707 0.44542 0.0
C53 C 0.57534 0.17719 0.4622 0.0
C54 C 0.53817 0.19365 0.44394 0.0
C55 C 0.54536 0.24147 0.46055 0.0
C56 C 0.58968 0.27299 0.49552 0.0
C57 C 0.62705 0.25658 0.51364 0.0
C58 C 0.62008 0.20907 0.49704 0.0
C59 C 0.68189 0.09693 0.53689 0.0
O60 O 0.65144 0.98619 0.47164 0.0
O61 O 0.56448 0.99517 0.45016 0.0
O62 O 0.84799 0.07227 0.47283 0.0
O63 O 0.80409 0.07021 0.52624 0.0
O64 O 0.80592 0.11207 0.41935 0.0
O65 O 0.68697 0.06251 0.4276 0.0
O66 O 0.76422 0.19586 0.46145 0.0
O67 O 0.85475 0.19005 0.48293 0.0
O68 O 0.54324 0.08448 0.46713 0.0
O69 O 0.62911 0.1443 0.42867 0.0
O70 O 0.61336 0.07433 0.52285 0.0
O71 O 0.72988 0.12351 0.5125 0.0
H72 H 0.88882 0.03598 0.56716 0.0
H73 H 0.8468 0.93712 0.57911 0.0
H74 H 0.70139 0.85235 0.47321 0.0
H75 H 0.74208 0.95057 0.46144 0.0
H76 H 0.50366 0.16955 0.41702 0.0
H77 H 0.51633 0.25384 0.44626 0.0
H78 H 0.66153 0.28056 0.54059 0.0
H79 H 0.64925 0.1969 0.51146 0.0
Ho80 Ho 0.66766 0.58584 0.85071 0.0
Ho81 Ho 0.54959 0.448 0.83268 0.0
C82 C 0.47944 0.51476 0.84414 0.0
C83 C 0.76942 0.7023 0.84388 0.0
C84 C 0.76272 0.74716 0.83618 0.0
C85 C 0.701 0.72987 0.81077 0.0
C86 C 0.6988 0.77362 0.80087 0.0
C87 C 0.75743 0.83516 0.81664 0.0
C88 C 0.8179 0.85228 0.84276 0.0
C89 C 0.82072 0.80858 0.85234 0.0
C90 C 0.5991 0.52237 0.91052 0.0
C91 C 0.74201 0.5226 0.84787 0.0
C92 C 0.47717 0.33257 0.82487 0.0
C93 C 0.50723 0.30221 0.81716 0.0
C94 C 0.47747 0.24967 0.83408 0.0
C95 C 0.50614 0.22099 0.82645 0.0
C96 C 0.56461 0.24449 0.80167 0.0
C97 C 0.59506 0.29746 0.78522 0.0
C98 C 0.56678 0.32614 0.79293 0.0
C99 C 0.58539 0.51133 0.77278 0.0
O100 O 0.55301 0.5663 0.8398 0.0
O101 O 0.46491 0.46294 0.84657 0.0
O102 O 0.75142 0.68111 0.87652 0.0
O103 O 0.74078 0.65922 0.81633 0.0
O104 O 0.62036 0.57498 0.90683 0.0
O105 O 0.62142 0.50926 0.88391 0.0
O106 O 0.668 0.47014 0.836 0.0
O107 O 0.75638 0.57403 0.85663 0.0
O108 O 0.47987 0.36115 0.79786 0.0
O109 O 0.50098 0.36479 0.85758 0.0
O110 O 0.51539 0.46029 0.77762 0.0
O111 O 0.63224 0.52425 0.79987 0.0
H112 H 0.65528 0.68272 0.79796 0.0
H113 H 0.65158 0.7596 0.78079 0.0
H114 H 0.86354 0.89963 0.85523 0.0
H115 H 0.86884 0.82293 0.87186 0.0
H116 H 0.43199 0.23077 0.85302 0.0
H117 H 0.4823 0.18023 0.8395 0.0
H118 H 0.64037 0.31633 0.76617 0.0
H119 H 0.59115 0.36683 0.77966 0.0
H120 H 0.54557 0.93177 0.25383 0.0
H121 H 0.73497 0.11514 0.22631 0.0
H122 H 0.55764 0.97073 0.13951 0.0
C123 C 0.57472 0.96393 0.23301 0.0
C124 C 0.54328 0.9431 0.19527 0.0
C125 C 0.64291 0.02582 0.24438 0.0
C126 C 0.68176 0.06764 0.21746 0.0
C127 C 0.65127 0.04809 0.17945 0.0
C128 C 0.58164 0.9859 0.1687 0.0
N129 N 0.68866 0.08918 0.15132 0.0
C130 C 0.75487 0.15262 0.15735 0.0
H131 H 0.61774 0.45359 0.62088 0.0
H132 H 0.63519 0.60457 0.60259 0.0
H133 H 0.61741 0.49644 0.50886 0.0
C134 C 0.62123 0.48232 0.60198 0.0
C135 C 0.61824 0.47023 0.5633 0.0
C136 C 0.62674 0.53046 0.6162 0.0
C137 C 0.63145 0.56769 0.59155 0.0
C138 C 0.62789 0.55518 0.55264 0.0
C139 C 0.62066 0.50625 0.53885 0.0
N140 N 0.62885 0.58926 0.52631 0.0
C141 C 0.65866 0.64831 0.53473 0.0
H142 H 0.97022 0.51302 0.93414 0.0
H143 H 0.15615 0.51393 0.92033 0.0
H144 H 1.04669 0.52286 0.82433 0.0
C145 C 1.00734 0.51414 0.91552 0.0
C146 C 0.99909 0.51807 0.87713 0.0
C147 C 1.06436 0.51414 0.93107 0.0
C148 C 1.11306 0.51448 0.9079 0.0
C149 C 1.10719 0.51659 0.86907 0.0
C150 C 1.05035 0.51929 0.85396 0.0
N151 N 0.15722 0.51684 0.84484 0.0
C152 C 0.2183 0.51626 0.85322 0.0
H153 H 0.33167 0.6964 0.37069 0.0
H154 H 0.14189 0.51514 0.4008 0.0
H155 H 0.27857 0.67195 0.48546 0.0
C156 C 0.29679 0.6666 0.39197 0.0
C157 C 0.31401 0.69227 0.4294 0.0
C158 C 0.23419 0.60314 0.38145 0.0
C159 C 0.18955 0.56413 0.40902 0.0
C160 C 0.20497 0.58864 0.44669 0.0
C161 C 0.26688 0.6528 0.45655 0.0
N162 N 0.15917 0.55058 0.47518 0.0
C163 C 1.09586 0.48658 0.46983 0.0
H164 H 0.66832 0.14415 0.69378 0.0
H165 H 0.77063 0.0662 0.70944 0.0
H166 H 0.72264 0.1282 0.80502 0.0
C167 C 0.691 0.13039 0.71227 0.0
C168 C 0.69085 0.13825 0.75112 0.0
C169 C 0.71943 0.10436 0.69704 0.0
C170 C 0.74785 0.08571 0.72105 0.0
C171 C 0.74966 0.09498 0.76018 0.0
C172 C 0.72133 0.12127 0.7749 0.0
N173 N 0.78476 0.08274 0.78565 0.0
C174 C 0.77163 0.02939 0.78264 0.0
H175 H 0.57629 0.41706 0.07709 0.0
H176 H 0.46533 0.48291 0.04532 0.0
H177 H 0.46715 0.44573 0.15822 0.0
C178 C 0.53928 0.42638 0.08365 0.0
C179 C 0.52008 0.42564 0.12054 0.0
C180 C 0.51781 0.44573 0.05622 0.0
C181 C 0.47713 0.46385 0.06573 0.0
C182 C 0.46206 0.46629 0.10277 0.0
C183 C 0.4765 0.44165 0.12926 0.0
N184 N 0.45772 0.50978 0.11559 0.0
C185 C 0.52454 0.57187 0.11514 0.0
C186 C 0.64713 0.72392 0.07995 0.0
C187 C 0.63202 0.74622 0.11024 0.0
C188 C 0.62105 0.67738 0.14844 0.0
C189 C 0.59178 0.63711 0.11487 0.0
N190 N 0.60323 0.6288 0.04858 0.0
N191 N 0.69202 0.78347 0.17376 0.0
C192 C 0.61582 0.66298 0.08034 0.0
C193 C 0.6525 0.73769 0.14483 0.0
N194 N 0.67955 0.75653 0.05018 0.0
N195 N 0.61354 0.65706 0.18246 0.0
H196 H 0.70997 0.82594 0.1702 0.0
H197 H 0.70954 0.77968 0.19961 0.0
H198 H 0.5913 0.61292 0.18476 0.0
H199 H 0.62818 0.68366 0.20767 0.0
H200 H 0.69275 0.74247 0.02726 0.0
H201 H 0.69652 0.79936 0.05035 0.0
H202 H 0.61367 0.64421 0.0222 0.0
H203 H 0.58161 0.58473 0.04932 0.0
C204 C 0.97093 0.31389 0.45095 0.0
C205 C 0.90406 0.29051 0.47056 0.0
C206 C 0.95885 0.39642 0.48408 0.0
C207 C 1.02937 0.4198 0.46845 0.0
N208 N 1.10725 0.4017 0.44107 0.0
N209 N 0.84105 0.31164 0.51105 0.0
C210 C 1.03679 0.37877 0.45313 0.0
C211 C 0.89957 0.33237 0.48837 0.0
N212 N 0.96993 0.27438 0.42843 0.0
N213 N 0.94798 0.43534 0.49448 0.0
H214 H 0.79818 0.26582 0.5161 0.0
H215 H 0.83924 0.34065 0.52778 0.0
H216 H 0.99058 0.48251 0.49236 0.0
H217 H 0.89438 0.42023 0.50209 0.0
H218 H 1.01292 0.28892 0.41037 0.0
H219 H 0.92197 0.22703 0.42473 0.0
H220 H 0.11952 0.37443 0.43376 0.0
H221 H 0.15578 0.44874 0.44105 0.0
C222 C 0.80543 0.92096 0.77822 0.0
C223 C 0.75602 0.88199 0.80542 0.0
C224 C 0.71058 0.93653 0.81444 0.0
C225 C 0.7601 0.97545 0.78735 0.0
N226 N 0.84351 0.99931 0.73865 0.0
N227 N 0.65251 0.8454 0.84523 0.0
C228 C 0.80409 0.96591 0.76771 0.0
C229 C 0.70555 0.88745 0.82215 0.0
N230 N 0.85476 0.91568 0.76308 0.0
N231 N 0.67055 0.948 0.83374 0.0
H232 H 0.64981 0.81074 0.85304 0.0
H233 H 0.60774 0.84215 0.85494 0.0
H234 H 0.66963 0.98149 0.82756 0.0
H235 H 0.64123 0.92663 0.85702 0.0
H236 H 0.89874 0.94681 0.74641 0.0
H237 H 0.85454 0.88143 0.7687 0.0
H238 H 0.8709 0.99114 0.7207 0.0
H239 H 0.84386 0.03276 0.73065 0.0
C240 C 0.66162 0.47371 0.20493 0.0
C241 C 0.66734 0.4296 0.19814 0.0
C242 C 0.55046 0.36964 0.15254 0.0
C243 C 0.56182 0.42295 0.15126 0.0
N244 N 0.63892 0.53072 0.17388 0.0
N245 N 0.61109 0.33037 0.17035 0.0
C246 C 0.61881 0.47605 0.17747 0.0
C247 C 0.6079 0.37477 0.17423 0.0
N248 N 0.70279 0.51643 0.2357 0.0
N249 N 0.48649 0.31536 0.13245 0.0
H250 H 0.65234 0.33384 0.18705 0.0
H251 H 0.57541 0.29206 0.15025 0.0
H252 H 0.44387 0.31099 0.11643 0.0
H253 H 0.47244 0.27401 0.13415 0.0
H254 H 0.69679 0.54769 0.24299 0.0
H255 H 0.73529 0.51543 0.25597 0.0
H256 H 0.68539 0.5715 0.19058 0.0
H257 H 0.61647 0.53776 0.15172 0.0
C258 C 0.45365 0.86451 0.4213 0.0
C259 C 0.51305 0.89127 0.45184 0.0
C260 C 0.44647 0.78587 0.46532 0.0
C261 C 0.38077 0.76086 0.43918 0.0
N262 N 0.31539 0.78089 0.39926 0.0
N263 N 0.55536 0.87382 0.50773 0.0
C264 C 0.3823 0.80165 0.41946 0.0
C265 C 0.50666 0.85103 0.47527 0.0
N266 N 0.46698 0.89735 0.39236 0.0
N267 N 0.45385 0.74805 0.47953 0.0
H268 H 0.59928 0.92036 0.51727 0.0
H269 H 0.5466 0.8457 0.52731 0.0
H270 H 0.41292 0.70053 0.47216 0.0
H271 H 0.50486 0.76466 0.49546 0.0
H272 H 0.42727 0.8778 0.36831 0.0
H273 H 0.52186 0.94072 0.38975 0.0
H274 H 0.31245 0.81032 0.38689 0.0
H275 H 0.26093 0.73581 0.39847 0.0
C276 C 0.54536 0.1572 0.76833 0.0
C277 C 0.594 0.2137 0.79213 0.0
C278 C 0.70707 0.22181 0.78852 0.0
C279 C 0.65717 0.16334 0.76676 0.0
N280 N 0.52491 0.06886 0.7437 0.0
N281 N 0.71507 0.29206 0.83218 0.0
C282 C 0.575 0.12899 0.75904 0.0
C283 C 0.67305 0.24359 0.80454 0.0
N284 N 0.47218 0.13175 0.75326 0.0
N285 N 0.78734 0.25793 0.7924 0.0
H286 H 0.69182 0.30911 0.8446 0.0
H287 H 0.76994 0.31154 0.84512 0.0
H288 H 0.8149 0.24431 0.78045 0.0
H289 H 0.82702 0.30356 0.80455 0.0
H290 H 0.43803 0.09445 0.73241 0.0
H291 H 0.44815 0.15091 0.75924 0.0
H292 H 0.46346 0.0398 0.74094 0.0
H293 H 0.54418 0.04622 0.73709 0.0
C294 C 0.67358 0.7829 0.54802 0.0
C295 C 0.74705 0.8286 0.53352 0.0
C296 C 0.76619 0.75683 0.52396 0.0
C297 C 0.69249 0.71114 0.53812 0.0
N298 N 0.5831 0.68206 0.57027 0.0
N299 N 0.87002 0.86402 0.5137 0.0
C300 C 0.64839 0.72469 0.55232 0.0
C301 C 0.79566 0.81712 0.52351 0.0
N302 N 0.62715 0.7948 0.55663 0.0
N303 N 0.80642 0.74177 0.50965 0.0
H304 H 0.89242 0.90817 0.51161 0.0
H305 H 0.91184 0.86074 0.51 0.0
H306 H 0.7885 0.6989 0.51116 0.0
H307 H 0.85535 0.77033 0.49468 0.0
H308 H 0.56903 0.76154 0.56311 0.0
H309 H 0.64549 0.83787 0.5555 0.0
H310 H 0.55207 0.6907 0.58437 0.0
H311 H 0.56324 0.63892 0.57356 0.0
C312 C 0.87147 0.56043 0.88349 0.0
C313 C 0.81066 0.52347 0.85284 0.0
C314 C 0.87425 0.48245 0.83573 0.0
C315 C 0.93886 0.52395 0.86432 0.0
N316 N 1.00792 0.61689 0.90649 0.0
N317 N 0.77114 0.46165 0.7937 0.0
C318 C 0.94004 0.56741 0.88519 0.0
C319 C 0.81703 0.48799 0.82723 0.0
N320 N 0.86224 0.58612 0.91282 0.0
N321 N 0.86508 0.43599 0.8173 0.0
H322 H 0.73339 0.46793 0.78529 0.0
H323 H 0.77763 0.44002 0.77253 0.0
H324 H 0.90347 0.42936 0.82303 0.0
H325 H 0.81567 0.40108 0.79869 0.0
H326 H 0.90126 0.60875 0.93724 0.0
H327 H 0.81078 0.57788 0.91507 0.0
H328 H 1.01474 0.6528 0.91971 0.0
H329 H 1.06013 0.62549 0.90714 0.0
C330 C 0.39757 0.77492 0.14921 0.0
C331 C 0.33453 0.74688 0.17246 0.0
C332 C 0.40025 0.84996 0.20293 0.0
C333 C 0.46934 0.87634 0.18462 0.0
N334 N 0.5376 0.8594 0.14499 0.0
N335 N 0.28663 0.75899 0.22773 0.0
C336 C 0.46909 0.83763 0.1589 0.0
C337 C 0.33845 0.78473 0.20094 0.0
N338 N 0.38841 0.74265 0.11703 0.0
N339 N 0.39286 0.88715 0.2218 0.0
H340 H 0.24411 0.71175 0.22934 0.0
H341 H 0.29216 0.78501 0.25098 0.0
H342 H 0.43546 0.93502 0.22273 0.0
H343 H 0.34074 0.87014 0.23283 0.0
H344 H 0.43016 0.76265 0.09761 0.0
H345 H 0.33553 0.69803 0.10765 0.0
H346 H 0.54178 0.83115 0.12908 0.0
H347 H 0.59194 0.90407 0.15238 0.0
C348 C 0.53182 0.30909 0.52997 0.0
C349 C 0.59712 0.32337 0.51346 0.0
C350 C 0.67913 0.43282 0.53487 0.0
C351 C 0.61161 0.41918 0.54785 0.0
N352 N 0.47116 0.34608 0.55358 0.0
N353 N 0.72971 0.3988 0.49542 0.0
C354 C 0.53718 0.35773 0.54434 0.0
C355 C 0.67007 0.38529 0.51466 0.0
N356 N 0.46567 0.24911 0.53296 0.0
N357 N 0.75216 0.49095 0.54268 0.0
H358 H 0.72527 0.3652 0.48024 0.0
H359 H 0.78107 0.44347 0.49189 0.0
H360 H 0.76092 0.52696 0.55739 0.0
H361 H 0.8048 0.50232 0.53749 0.0
H362 H 0.41973 0.23612 0.54834 0.0
H363 H 0.45947 0.21216 0.52269 0.0
H364 H 0.41388 0.30319 0.5476 0.0
H365 H 0.47285 0.3804 0.56471 0.0
C366 C 0.40855 0.55358 0.82567 0.0
C367 C 0.41259 0.51622 0.84726 0.0
C368 C 0.28626 0.47734 0.87236 0.0
C369 C 0.28588 0.51763 0.85285 0.0
N370 N 0.3584 0.60367 0.81686 0.0
N371 N 0.36365 0.45689 0.89996 0.0
C372 C 0.35068 0.5585 0.83142 0.0
C373 C 0.35324 0.48175 0.87283 0.0
N374 N 0.45745 0.58275 0.79804 0.0
N375 N 0.22219 0.43425 0.89067 0.0
H376 H 0.41469 0.46432 0.904 0.0
H377 H 0.32715 0.43614 0.92146 0.0
H378 H 0.17438 0.43125 0.89212 0.0
H379 H 0.21394 0.39883 0.90181 0.0
H380 H 0.45051 0.6035 0.77832 0.0
H381 H 0.50059 0.58185 0.79223 0.0
H382 H 0.40893 0.64 0.80519 0.0
H383 H 0.31742 0.6082 0.81966 0.0
C384 C 0.96524 0.31051 0.1655 0.0
C385 C 0.95082 0.34758 0.15362 0.0
C386 C 0.80684 0.25707 0.14985 0.0
C387 C 0.82172 0.21931 0.15815 0.0
N388 N 0.91464 0.20777 0.16951 0.0
N389 N 0.85658 0.35185 0.12741 0.0
C390 C 0.90084 0.24539 0.16464 0.0
C391 C 0.87115 0.31965 0.14401 0.0
N392 N 1.03968 0.33761 0.17956 0.0
N393 N 0.731 0.23338 0.14804 0.0
H394 H 0.90136 0.39676 0.12137 0.0
H395 H 0.80064 0.33214 0.11601 0.0
H396 H 0.68234 0.18763 0.15154 0.0
H397 H 0.71706 0.26022 0.14641 0.0
H398 H 1.05215 0.31431 0.1928 0.0
H399 H 1.08836 0.38465 0.18095 0.0
H400 H 0.9706 0.22253 0.16986 0.0
H401 H 0.86914 0.16052 0.17065 0.0
C402 C 1.02923 0.46431 0.02995 0.0
C403 C 1.0759 0.52235 0.05218 0.0
C404 C 0.12623 0.57438 -0.00495 0.0
C405 C 1.07401 0.51642 0.97274 0.0
N406 N 0.97075 0.40602 0.96811 0.0
N407 N 0.15703 0.63228 0.05496 0.0
C408 C 1.02429 0.46129 0.99001 0.0
C409 C 0.12191 0.57741 0.03453 0.0
N410 N 0.99127 0.41205 0.04704 0.0
N411 N 0.18003 0.62675 0.97842 0.0
H412 H 0.1521 0.63652 0.08343 0.0
H413 H 0.18419 0.67278 0.04305 0.0
H414 H 0.18333 0.62656 0.94953 0.0
H415 H 0.22575 0.66964 -0.00658 0.0
H416 H 0.96411 0.36933 0.03283 0.0
H417 H 0.99164 0.41207 0.07599 0.0
H418 H 0.92591 0.36469 0.97858 0.0
H419 H 0.96823 0.40188 0.93892 0.0
C420 C 0.71039 0.02945 0.34365 0.0
C421 C 0.71673 0.07595 0.36326 0.0
C422 C 0.67196 0.08842 0.30528 0.0
C423 C 0.6727 0.04605 0.28498 0.0
N424 N 0.71027 0.98703 0.28371 0.0
N425 N 0.72192 0.15976 0.36123 0.0
C426 C 0.6972 0.01973 0.30386 0.0
C427 C 0.70304 0.10851 0.34362 0.0
N428 N 0.71458 0.99326 0.363 0.0
N429 N 0.63836 0.10738 0.28859 0.0
H430 H 0.74702 0.17669 0.38895 0.0
H431 H 0.72029 0.18877 0.3473 0.0
H432 H 0.61299 0.09261 0.26086 0.0
H433 H 0.62893 0.13312 0.30329 0.0
H434 H 0.7017 0.95438 0.35032 0.0
H435 H 0.72399 0.9987 0.39217 0.0
H436 H 0.73552 0.97188 0.2958 0.0
H437 H 0.70343 0.98043 0.25447 0.0
C438 C 0.5453 0.51812 0.70934 0.0
C439 C 0.60675 0.53373 0.73482 0.0
C440 C 0.69005 0.5668 0.68253 0.0
C441 C 0.62282 0.53885 0.65696 0.0
N442 N 0.48448 0.48489 0.64539 0.0
N443 N 0.74307 0.57915 0.74531 0.0
C444 C 0.55021 0.51449 0.67017 0.0
C445 C 0.68128 0.5609 0.72153 0.0
N446 N 0.48242 0.50758 0.72261 0.0
N447 N 0.76274 0.60011 0.66944 0.0
H448 H 0.74716 0.58666 0.77424 0.0
H449 H 0.79172 0.58739 0.73611 0.0
H450 H 0.77071 0.60491 0.64104 0.0
H451 H 0.81578 0.62746 0.68675 0.0
H452 H 0.44027 0.50243 0.70562 0.0
H453 H 0.47699 0.51059 0.75109 0.0
H454 H 0.42765 0.4593 0.65361 0.0
H455 H 0.48551 0.48191 0.61637 0.0
C456 C 0.76859 0.15074 0.59917 0.0
C457 C 0.70036 0.09647 0.57706 0.0
C458 C 0.6503 0.04369 0.63388 0.0
C459 C 0.71865 0.0975 0.65559 0.0
N460 N 0.85152 0.19614 0.65851 0.0
N461 N 0.58714 0.98687 0.57234 0.0
C462 C 0.78086 0.14884 0.63796 0.0
C463 C 0.64464 0.04155 0.59415 0.0
N464 N 0.81851 0.20538 0.58423 0.0
N465 N 0.58925 0.99544 0.65134 0.0
H466 H 0.58106 0.98304 0.54318 0.0
H467 H 0.55029 0.94442 0.58284 0.0
H468 H 0.59273 0.99428 0.68025 0.0
H469 H 0.5336 0.95826 0.63753 0.0
H470 H 0.86338 0.24747 0.60021 0.0
H471 H 0.81139 0.21029 0.55653 0.0
H472 H 0.9021 0.23199 0.64664 0.0
H473 H 0.86164 0.19634 0.68707 0.0
C474 C 0.64334 0.53515 0.97822 0.0
C475 C 0.58487 0.49748 0.94722 0.0
C476 C 0.49774 0.41619 0.98761 0.0
C477 C 0.54913 0.45839 0.01918 0.0
N478 N 0.67252 0.55742 0.04586 0.0
N479 N 0.45641 0.40096 0.92195 0.0
C480 C 0.6232 0.51738 0.01485 0.0
C481 C 0.51265 0.43712 0.95164 0.0
N482 N 0.71848 0.58705 0.97249 0.0
N483 N 0.43456 0.35616 -0.00771 0.0
H484 H 0.46621 0.41406 0.89517 0.0
H485 H 0.39878 0.35998 0.92412 0.0
H486 H 0.42289 0.34019 0.01859 0.0
H487 H 0.39848 0.32127 0.97019 0.0
H488 H 0.76578 0.61324 -0.0066 0.0
H489 H 0.73557 0.60084 0.94595 0.0
H490 H 0.72231 0.60374 0.04489 0.0
H491 H 0.66107 0.5452 0.07305 0.0
C492 C 0.26106 0.57602 0.2809 0.0
C493 C 0.18421 0.5428 0.26266 0.0
C494 C 0.13999 0.54967 0.32208 0.0
C495 C 0.21481 0.57846 0.34099 0.0
N496 N 0.33922 0.60424 0.33953 0.0
N497 N 1.04536 0.48187 0.26834 0.0
C498 C 0.27316 0.58703 0.32072 0.0
C499 C 0.122 0.5246 0.28401 0.0
N500 N 0.32326 0.59915 0.26034 0.0
N501 N 1.08751 0.54899 0.33961 0.0
H502 H 1.03018 0.46016 0.24119 0.0
H503 H 0.99709 0.46309 0.28362 0.0
H504 H 1.09929 0.56916 0.36696 0.0
H505 H 1.03571 0.53398 0.32561 0.0
H506 H 0.38189 0.62938 0.27218 0.0
H507 H 0.31732 0.5925 0.23113 0.0
H508 H 0.38007 0.60563 0.32634 0.0
H509 H 0.34885 0.61088 0.36874 0.0
loop_
_geom_bond_atom_site_label_1
_geom_bond_atom_site_label_2
_geom_bond_distance
_geom_bond_site_symmetry_2
_ccdc_geom_bond_type
Ho0 C3 2.811 . S
Ho0 O20 2.322 . S
Ho0 O22 2.378 . S
Ho0 O23 2.524 . S
Ho0 O24 2.381 . S
Ho0 O25 2.669 . S
Ho0 O27 2.346 1_455 S
Ho0 O31 2.305 . S
Ho1 C12 2.811 1_455 S
Ho1 O21 2.346 . S
Ho1 O25 2.305 . S
Ho1 O26 2.322 1_455 S
Ho1 O28 2.378 1_455 S
Ho1 O29 2.524 1_455 S
Ho1 O30 2.381 . S
Ho1 O31 2.669 . S
C2 O20 1.259 . S
C2 O21 1.268 . S
C3 Ho0 2.811 . S
C3 C4 1.488 . S
C3 O22 1.215 . S
C3 O23 1.289 . S
C4 C3 1.488 . S
C4 C5 1.348 . S
C4 C9 1.413 . S
C5 C4 1.348 . S
C5 C6 1.442 . S
C5 H32 0.930 . S
C6 C5 1.442 . S
C6 C7 1.381 . S
C6 H33 0.931 . S
C7 C6 1.381 . S
C7 C8 1.321 . S
C8 C7 1.321 . S
C8 C9 1.403 . S
C8 H34 0.934 . S
C9 C4 1.413 . S
C9 C8 1.403 . S
C9 H35 0.930 . S
C10 O24 1.275 . S
C10 O25 1.256 . S
C11 O26 1.259 . S
C11 O27 1.268 . S
C12 Ho1 2.811 1_655 S
C12 C13 1.488 . S
C12 O28 1.215 . S
C12 O29 1.289 . S
C13 C12 1.488 . S
C13 C14 1.348 . S
C13 C18 1.413 . S
C14 C13 1.348 . S
C14 C15 1.442 . S
C14 H36 0.930 . S
C15 C14 1.442 . S
C15 C16 1.381 . S
C15 H37 0.931 . S
C16 C15 1.381 . S
C16 C17 1.321 . S
C17 C16 1.321 . S
C17 C18 1.403 . S
C17 H38 0.934 . S
C18 C13 1.413 . S
C18 C17 1.403 . S
C18 H39 0.930 . S
C19 O30 1.275 . S
C19 O31 1.256 . S
O20 Ho0 2.322 . S
O20 C2 1.259 . S
O21 Ho1 2.346 . S
O21 C2 1.268 . S
O22 Ho0 2.378 . S
O22 C3 1.215 . S
O23 Ho0 2.524 . S
O23 C3 1.289 . S
O24 Ho0 2.381 . S
O24 C10 1.275 . S
O25 Ho0 2.669 . S
O25 Ho1 2.305 . S
O25 C10 1.256 . S
O26 Ho1 2.322 1_655 S
O26 C11 1.259 . S
O27 Ho0 2.346 1_655 S
O27 C11 1.268 . S
O28 Ho1 2.378 1_655 S
O28 C12 1.215 . S
O29 Ho1 2.524 1_655 S
O29 C12 1.289 . S
O30 Ho1 2.381 . S
O30 C19 1.275 . S
O31 Ho0 2.305 . S
O31 Ho1 2.669 . S
O31 C19 1.256 . S
H32 C5 0.930 . S
H33 C6 0.931 . S
H34 C8 0.934 . S
H35 C9 0.930 . S
H36 C14 0.930 . S
H37 C15 0.931 . S
H38 C17 0.934 . S
H39 C18 0.930 . S
Ho40 C43 2.811 1_545 S
Ho40 O60 2.322 1_545 S
Ho40 O62 2.378 1_545 S
Ho40 O63 2.524 1_545 S
Ho40 O64 2.381 . S
Ho40 O65 2.669 . S
Ho40 O67 2.346 . S
Ho40 O71 2.305 . S
Ho41 C52 2.811 . S
Ho41 O61 2.346 1_545 S
Ho41 O65 2.305 . S
Ho41 O66 2.322 . S
Ho41 O68 2.378 . S
Ho41 O69 2.524 . S
Ho41 O70 2.381 . S
Ho41 O71 2.669 . S
C42 O60 1.259 . S
C42 O61 1.268 . S
C43 Ho40 2.811 1_565 S
C43 C44 1.488 . S
C43 O62 1.215 . S
C43 O63 1.289 . S
C44 C43 1.488 . S
C44 C45 1.348 . S
C44 C49 1.413 . S
C45 C44 1.348 . S
C45 C46 1.442 . S
C45 H72 0.930 . S
C46 C45 1.442 . S
C46 C47 1.381 . S
C46 H73 0.931 . S
C47 C46 1.381 . S
C47 C48 1.321 . S
C48 C47 1.321 . S
C48 C49 1.403 . S
C48 H74 0.934 . S
C49 C44 1.413 . S
C49 C48 1.403 . S
C49 H75 0.930 . S
C50 O64 1.275 . S
C50 O65 1.256 . S
C51 O66 1.259 . S
C51 O67 1.268 . S
C52 Ho41 2.811 . S
C52 C53 1.488 . S
C52 O68 1.215 . S
C52 O69 1.289 . S
C53 C52 1.488 . S
C53 C54 1.348 . S
C53 C58 1.413 . S
C54 C53 1.348 . S
C54 C55 1.442 . S
C54 H76 0.930 . S
C55 C54 1.442 . S
C55 C56 1.381 . S
C55 H77 0.931 . S
C56 C55 1.381 . S
C56 C57 1.321 . S
C57 C56 1.321 . S
C57 C58 1.403 . S
C57 H78 0.934 . S
C58 C53 1.413 . S
C58 C57 1.403 . S
C58 H79 0.930 . S
C59 O70 1.275 . S
C59 O71 1.256 . S
O60 Ho40 2.322 1_565 S
O60 C42 1.259 . S
O61 Ho41 2.346 1_565 S
O61 C42 1.268 . S
O62 Ho40 2.378 1_565 S
O62 C43 1.215 . S
O63 Ho40 2.524 1_565 S
O63 C43 1.289 . S
O64 Ho40 2.381 . S
O64 C50 1.275 . S
O65 Ho40 2.669 . S
O65 Ho41 2.305 . S
O65 C50 1.256 . S
O66 Ho41 2.322 . S
O66 C51 1.259 . S
O67 Ho40 2.346 . S
O67 C51 1.268 . S
O68 Ho41 2.378 . S
O68 C52 1.215 . S
O69 Ho41 2.524 . S
O69 C52 1.289 . S
O70 Ho41 2.381 . S
O70 C59 1.275 . S
O71 Ho40 2.305 . S
O71 Ho41 2.669 . S
O71 C59 1.256 . S
H72 C45 0.930 . S
H73 C46 0.931 . S
H74 C48 0.934 . S
H75 C49 0.930 . S
H76 C54 0.930 . S
H77 C55 0.931 . S
H78 C57 0.934 . S
H79 C58 0.930 . S
Ho80 C83 2.811 . S
Ho80 O100 2.322 . S
Ho80 O102 2.378 . S
Ho80 O103 2.524 . S
Ho80 O104 2.381 . S
Ho80 O105 2.669 . S
Ho80 O107 2.346 . S
Ho80 O111 2.305 . S
Ho81 C92 2.811 . S
Ho81 O101 2.346 . S
Ho81 O105 2.305 . S
Ho81 O106 2.322 . S
Ho81 O108 2.378 . S
Ho81 O109 2.524 . S
Ho81 O110 2.381 . S
Ho81 O111 2.669 . S
C82 O100 1.259 . S
C82 O101 1.268 . S
C83 Ho80 2.811 . S
C83 C84 1.488 . S
C83 O102 1.215 . S
C83 O103 1.289 . S
C84 C83 1.488 . S
C84 C85 1.348 . S
C84 C89 1.413 . S
C85 C84 1.348 . S
C85 C86 1.442 . S
C85 H112 0.930 . S
C86 C85 1.442 . S
C86 C87 1.381 . S
C86 H113 0.931 . S
C87 C86 1.381 . S
C87 C88 1.321 . S
C88 C87 1.321 . S
C88 C89 1.403 . S
C88 H114 0.934 . S
C89 C84 1.413 . S
C89 C88 1.403 . S
C89 H115 0.930 . S
C90 O104 1.275 . S
C90 O105 1.256 . S
C91 O106 1.259 . S
C91 O107 1.268 . S
C92 Ho81 2.811 . S
C92 C93 1.488 . S
C92 O108 1.215 . S
C92 O109 1.289 . S
C93 C92 1.488 . S
C93 C94 1.348 . S
C93 C98 1.413 . S
C94 C93 1.348 . S
C94 C95 1.442 . S
C94 H116 0.930 . S
C95 C94 1.442 . S
C95 C96 1.381 . S
C95 H117 0.931 . S
C96 C95 1.381 . S
C96 C97 1.321 . S
C97 C96 1.321 . S
C97 C98 1.403 . S
C97 H118 0.934 . S
C98 C93 1.413 . S
C98 C97 1.403 . S
C98 H119 0.930 . S
C99 O110 1.275 . S
C99 O111 1.256 . S
O100 Ho80 2.322 . S
O100 C82 1.259 . S
O101 Ho81 2.346 . S
O101 C82 1.268 . S
O102 Ho80 2.378 . S
O102 C83 1.215 . S
O103 Ho80 2.524 . S
O103 C83 1.289 . S
O104 Ho80 2.381 . S
O104 C90 1.275 . S
O105 Ho80 2.669 . S
O105 Ho81 2.305 . S
O105 C90 1.256 . S
O106 Ho81 2.322 . S
O106 C91 1.259 . S
O107 Ho80 2.346 . S
O107 C91 1.268 . S
O108 Ho81 2.378 . S
O108 C92 1.215 . S
O109 Ho81 2.524 . S
O109 C92 1.289 . S
O110 Ho81 2.381 . S
O110 C99 1.275 . S
O111 Ho80 2.305 . S
O111 Ho81 2.669 . S
O111 C99 1.256 . S
H112 C85 0.930 . S
H113 C86 0.931 . S
H114 C88 0.934 . S
H115 C89 0.930 . S
H116 C94 0.930 . S
H117 C95 0.931 . S
H118 C97 0.934 . S
H119 C98 0.930 . S
H120 C123 0.929 . S
H121 C126 0.929 . S
H122 C128 0.930 1_565 S
C123 H120 0.929 . S
C123 C124 1.398 . S
C123 C125 1.396 1_565 S
C124 C123 1.398 . S
C124 C128 1.407 1_565 S
C125 C123 1.396 1_545 S
C125 C126 1.394 . S
C126 H121 0.929 . S
C126 C125 1.394 . S
C126 C127 1.382 . S
C127 C126 1.382 . S
C127 C128 1.392 . S
C127 N129 1.420 . S
C128 H122 0.930 1_545 S
C128 C124 1.407 1_545 S
C128 C127 1.392 . S
N129 C127 1.420 . S
N129 C130 1.244 . S
C130 N129 1.244 . S
H131 C134 0.929 . S
H132 C137 0.929 . S
H133 C139 0.930 . S
C134 H131 0.929 . S
C134 C135 1.398 . S
C134 C136 1.396 . S
C135 C134 1.398 . S
C135 C139 1.407 . S
C136 C134 1.396 . S
C136 C137 1.394 . S
C137 H132 0.929 . S
C137 C136 1.394 . S
C137 C138 1.382 . S
C138 C137 1.382 . S
C138 C139 1.392 . S
C138 N140 1.420 . S
C139 H133 0.930 . S
C139 C135 1.407 . S
C139 C138 1.392 . S
N140 C138 1.420 . S
N140 C141 1.244 . S
C141 N140 1.244 . S
H142 C145 0.929 1_655 S
H143 C148 0.929 . S
H144 C150 0.930 . S
C145 H142 0.929 1_455 S
C145 C146 1.398 1_455 S
C145 C147 1.396 . S
C146 C145 1.398 1_655 S
C146 C150 1.400 1_655 S
C147 C145 1.396 . S
C147 C148 1.394 . S
C148 H143 0.929 . S
C148 C147 1.394 . S
C148 C149 1.382 . S
C149 C148 1.382 . S
C149 C150 1.392 . S
C149 N151 1.420 . S
C150 H144 0.930 . S
C150 C146 1.400 1_455 S
C150 C149 1.392 . S
N151 C149 1.420 . S
N151 C152 1.244 . S
C152 N151 1.244 . S
H153 C156 0.929 . S
H154 C159 0.929 . S
H155 C161 0.930 . S
C156 H153 0.929 . S
C156 C157 1.398 . S
C156 C158 1.396 . S
C157 C156 1.398 . S
C157 C161 1.407 . S
C158 C156 1.396 . S
C158 C159 1.394 1_455 S
C159 H154 0.929 . S
C159 C158 1.394 1_655 S
C159 C160 1.382 . S
C160 C159 1.382 . S
C160 C161 1.392 1_655 S
C160 N162 1.420 . S
C161 H155 0.930 . S
C161 C157 1.407 . S
C161 C160 1.392 1_455 S
N162 C160 1.420 . S
N162 C163 1.244 . S
C163 N162 1.244 . S
H164 C167 0.929 . S
H165 C170 0.929 1_565 S
H166 C172 0.930 . S
C167 H164 0.929 . S
C167 C168 1.398 . S
C167 C169 1.396 . S
C168 C167 1.398 . S
C168 C172 1.407 . S
C169 C167 1.396 . S
C169 C170 1.394 . S
C170 H165 0.929 1_545 S
C170 C169 1.394 . S
C170 C171 1.382 . S
C171 C170 1.382 . S
C171 C172 1.392 . S
C171 N173 1.420 . S
C172 H166 0.930 . S
C172 C168 1.407 . S
C172 C171 1.392 . S
N173 C171 1.420 . S
N173 C174 1.244 1_545 S
C174 N173 1.244 1_565 S
H175 C178 0.929 . S
H176 C181 0.929 . S
H177 C183 0.930 . S
C178 H175 0.929 . S
C178 C179 1.398 . S
C178 C180 1.396 . S
C179 C178 1.398 . S
C179 C183 1.407 . S
C180 C178 1.396 . S
C180 C181 1.394 . S
C181 H176 0.929 . S
C181 C180 1.394 . S
C181 C182 1.382 . S
C182 C181 1.382 . S
C182 C183 1.392 . S
C182 N184 1.420 . S
C183 H177 0.930 . S
C183 C179 1.407 . S
C183 C182 1.392 . S
N184 C182 1.420 . S
N184 C185 1.244 . S
C185 N184 1.244 . S
C186 C187 1.363 . S
C186 C192 1.379 . S
C186 N194 1.356 . S
C187 C186 1.363 . S
C187 C193 1.363 . S
C188 C189 1.363 . S
C188 C193 1.379 . S
C188 N195 1.356 . S
C189 C188 1.363 . S
C189 C192 1.363 . S
N190 C192 1.356 . S
N190 H202 0.984 . S
N190 H203 0.985 . S
N191 C193 1.356 . S
N191 H196 0.984 . S
N191 H197 0.985 . S
C192 C186 1.379 . S
C192 C189 1.363 . S
C192 N190 1.356 . S
C193 C187 1.363 . S
C193 C188 1.379 . S
C193 N191 1.356 . S
N194 C186 1.356 . S
N194 H200 0.984 . S
N194 H201 0.984 . S
N195 C188 1.356 . S
N195 H198 0.984 . S
N195 H199 0.985 . S
H196 N191 0.984 . S
H197 N191 0.985 . S
H198 N195 0.984 . S
H199 N195 0.985 . S
H200 N194 0.984 . S
H201 N194 0.984 . S
H202 N190 0.984 . S
H203 N190 0.985 . S
C204 C205 1.363 . S
C204 C210 1.379 . S
C204 N212 1.356 . S
C205 C204 1.363 . S
C205 C211 1.363 . S
C206 C207 1.363 . S
C206 C211 1.379 . S
C206 N213 1.356 . S
C207 C206 1.363 . S
C207 C210 1.363 . S
N208 C210 1.356 . S
N208 H220 0.984 . S
N208 H221 0.985 . S
N209 C211 1.356 . S
N209 H214 0.984 . S
N209 H215 0.985 . S
C210 C204 1.379 . S
C210 C207 1.363 . S
C210 N208 1.356 . S
C211 C205 1.363 . S
C211 C206 1.379 . S
C211 N209 1.356 . S
N212 C204 1.356 . S
N212 H218 0.984 . S
N212 H219 0.984 . S
N213 C206 1.356 . S
N213 H216 0.984 . S
N213 H217 0.985 . S
H214 N209 0.984 . S
H215 N209 0.985 . S
H216 N213 0.984 . S
H217 N213 0.985 . S
H218 N212 0.984 . S
H219 N212 0.984 . S
H220 N208 0.984 . S
H221 N208 0.985 . S
C222 C223 1.363 . S
C222 C228 1.379 . S
C222 N230 1.356 . S
C223 C222 1.363 . S
C223 C229 1.363 . S
C224 C225 1.363 . S
C224 C229 1.379 . S
C224 N231 1.356 . S
C225 C224 1.363 . S
C225 C228 1.363 . S
N226 C228 1.356 . S
N226 H238 0.984 . S
N226 H239 0.985 . S
N227 C229 1.356 . S
N227 H232 0.984 . S
N227 H233 0.985 . S
C228 C222 1.379 . S
C228 C225 1.363 . S
C228 N226 1.356 . S
C229 C223 1.363 . S
C229 C224 1.379 . S
C229 N227 1.356 . S
N230 C222 1.356 . S
N230 H236 0.984 . S
N230 H237 0.984 . S
N231 C224 1.356 . S
N231 H234 0.984 . S
N231 H235 0.985 . S
H232 N227 0.984 . S
H233 N227 0.985 . S
H234 N231 0.984 . S
H235 N231 0.985 . S
H236 N230 0.984 . S
H237 N230 0.984 . S
H238 N226 0.984 . S
H239 N226 0.985 . S
C240 C241 1.363 . S
C240 C246 1.379 . S
C240 N248 1.356 . S
C241 C240 1.363 . S
C241 C247 1.363 . S
C242 C243 1.363 . S
C242 C247 1.379 . S
C242 N249 1.356 . S
C243 C242 1.363 . S
C243 C246 1.363 . S
N244 C246 1.356 . S
N244 H256 0.984 . S
N244 H257 0.985 . S
N245 C247 1.356 . S
N245 H250 0.984 . S
N245 H251 0.985 . S
C246 C240 1.379 . S
C246 C243 1.363 . S
C246 N244 1.356 . S
C247 C241 1.363 . S
C247 C242 1.379 . S
C247 N245 1.356 . S
N248 C240 1.356 . S
N248 H254 0.984 . S
N248 H255 0.984 . S
N249 C242 1.356 . S
N249 H252 0.984 . S
N249 H253 0.985 . S
H250 N245 0.984 . S
H251 N245 0.985 . S
H252 N249 0.984 . S
H253 N249 0.985 . S
H254 N248 0.984 . S
H255 N248 0.984 . S
H256 N244 0.984 . S
H257 N244 0.985 . S
C258 C259 1.363 . S
C258 C264 1.379 . S
C258 N266 1.356 . S
C259 C258 1.363 . S
C259 C265 1.363 . S
C260 C261 1.363 . S
C260 C265 1.379 . S
C260 N267 1.356 . S
C261 C260 1.363 . S
C261 C264 1.363 . S
N262 C264 1.356 . S
N262 H274 0.984 . S
N262 H275 0.985 . S
N263 C265 1.356 . S
N263 H268 0.984 . S
N263 H269 0.985 . S
C264 C258 1.379 . S
C264 C261 1.363 . S
C264 N262 1.356 . S
C265 C259 1.363 . S
C265 C260 1.379 . S
C265 N263 1.356 . S
N266 C258 1.356 . S
N266 H272 0.984 . S
N266 H273 0.984 . S
N267 C260 1.356 . S
N267 H270 0.984 . S
N267 H271 0.985 . S
H268 N263 0.984 . S
H269 N263 0.985 . S
H270 N267 0.984 . S
H271 N267 0.985 . S
H272 N266 0.984 . S
H273 N266 0.984 . S
H274 N262 0.984 . S
H275 N262 0.985 . S
C276 C277 1.363 . S
C276 C282 1.379 . S
C276 N284 1.356 . S
C277 C276 1.363 . S
C277 C283 1.363 . S
C278 C279 1.363 . S
C278 C283 1.379 . S
C278 N285 1.356 . S
C279 C278 1.363 . S
C279 C282 1.363 . S
N280 C282 1.356 . S
N280 H292 0.984 . S
N280 H293 0.985 . S
N281 C283 1.356 . S
N281 H286 0.984 . S
N281 H287 0.985 . S
C282 C276 1.379 . S
C282 C279 1.363 . S
C282 N280 1.356 . S
C283 C277 1.363 . S
C283 C278 1.379 . S
C283 N281 1.356 . S
N284 C276 1.356 . S
N284 H290 0.984 . S
N284 H291 0.984 . S
N285 C278 1.356 . S
N285 H288 0.984 . S
N285 H289 0.985 . S
H286 N281 0.984 . S
H287 N281 0.985 . S
H288 N285 0.984 . S
H289 N285 0.985 . S
H290 N284 0.984 . S
H291 N284 0.984 . S
H292 N280 0.984 . S
H293 N280 0.985 . S
C294 C295 1.363 . S
C294 C300 1.379 . S
C294 N302 1.356 . S
C295 C294 1.363 . S
C295 C301 1.363 . S
C296 C297 1.363 . S
C296 C301 1.379 . S
C296 N303 1.356 . S
C297 C296 1.363 . S
C297 C300 1.363 . S
N298 C300 1.356 . S
N298 H310 0.984 . S
N298 H311 0.985 . S
N299 C301 1.356 . S
N299 H304 0.984 . S
N299 H305 0.985 . S
C300 C294 1.379 . S
C300 C297 1.363 . S
C300 N298 1.356 . S
C301 C295 1.363 . S
C301 C296 1.379 . S
C301 N299 1.356 . S
N302 C294 1.356 . S
N302 H308 0.984 . S
N302 H309 0.984 . S
N303 C296 1.356 . S
N303 H306 0.984 . S
N303 H307 0.985 . S
H304 N299 0.984 . S
H305 N299 0.985 . S
H306 N303 0.984 . S
H307 N303 0.985 . S
H308 N302 0.984 . S
H309 N302 0.984 . S
H310 N298 0.984 . S
H311 N298 0.985 . S
C312 C313 1.363 . S
C312 C318 1.379 . S
C312 N320 1.356 . S
C313 C312 1.363 . S
C313 C319 1.363 . S
C314 C315 1.363 . S
C314 C319 1.379 . S
C314 N321 1.356 . S
C315 C314 1.363 . S
C315 C318 1.363 . S
N316 C318 1.356 . S
N316 H328 0.984 . S
N316 H329 0.985 . S
N317 C319 1.356 . S
N317 H322 0.984 . S
N317 H323 0.985 . S
C318 C312 1.379 . S
C318 C315 1.363 . S
C318 N316 1.356 . S
C319 C313 1.363 . S
C319 C314 1.379 . S
C319 N317 1.356 . S
N320 C312 1.356 . S
N320 H326 0.984 . S
N320 H327 0.984 . S
N321 C314 1.356 . S
N321 H324 0.984 . S
N321 H325 0.985 . S
H322 N317 0.984 . S
H323 N317 0.985 . S
H324 N321 0.984 . S
H325 N321 0.985 . S
H326 N320 0.984 . S
H327 N320 0.984 . S
H328 N316 0.984 . S
H329 N316 0.985 . S
C330 C331 1.363 . S
C330 C336 1.379 . S
C330 N338 1.356 . S
C331 C330 1.363 . S
C331 C337 1.363 . S
C332 C333 1.363 . S
C332 C337 1.379 . S
C332 N339 1.356 . S
C333 C332 1.363 . S
C333 C336 1.363 . S
N334 C336 1.356 . S
N334 H346 0.984 . S
N334 H347 0.985 . S
N335 C337 1.356 . S
N335 H340 0.984 . S
N335 H341 0.985 . S
C336 C330 1.379 . S
C336 C333 1.363 . S
C336 N334 1.356 . S
C337 C331 1.363 . S
C337 C332 1.379 . S
C337 N335 1.356 . S
N338 C330 1.356 . S
N338 H344 0.984 . S
N338 H345 0.984 . S
N339 C332 1.356 . S
N339 H342 0.984 . S
N339 H343 0.985 . S
H340 N335 0.984 . S
H341 N335 0.985 . S
H342 N339 0.984 . S
H343 N339 0.985 . S
H344 N338 0.984 . S
H345 N338 0.984 . S
H346 N334 0.984 . S
H347 N334 0.985 . S
C348 C349 1.363 . S
C348 C354 1.379 . S
C348 N356 1.356 . S
C349 C348 1.363 . S
C349 C355 1.363 . S
C350 C351 1.363 . S
C350 C355 1.379 . S
C350 N357 1.356 . S
C351 C350 1.363 . S
C351 C354 1.363 . S
N352 C354 1.356 . S
N352 H364 0.984 . S
N352 H365 0.985 . S
N353 C355 1.356 . S
N353 H358 0.984 . S
N353 H359 0.985 . S
C354 C348 1.379 . S
C354 C351 1.363 . S
C354 N352 1.356 . S
C355 C349 1.363 . S
C355 C350 1.379 . S
C355 N353 1.356 . S
N356 C348 1.356 . S
N356 H362 0.984 . S
N356 H363 0.984 . S
N357 C350 1.356 . S
N357 H360 0.984 . S
N357 H361 0.985 . S
H358 N353 0.984 . S
H359 N353 0.985 . S
H360 N357 0.984 . S
H361 N357 0.985 . S
H362 N356 0.984 . S
H363 N356 0.984 . S
H364 N352 0.984 . S
H365 N352 0.985 . S
C366 C367 1.363 . S
C366 C372 1.379 . S
C366 N374 1.356 . S
C367 C366 1.363 . S
C367 C373 1.363 . S
C368 C369 1.363 . S
C368 C373 1.379 . S
C368 N375 1.356 . S
C369 C368 1.363 . S
C369 C372 1.363 . S
N370 C372 1.356 . S
N370 H382 0.984 . S
N370 H383 0.985 . S
N371 C373 1.356 . S
N371 H376 0.984 . S
N371 H377 0.985 . S
C372 C366 1.379 . S
C372 C369 1.363 . S
C372 N370 1.356 . S
C373 C367 1.363 . S
C373 C368 1.379 . S
C373 N371 1.356 . S
N374 C366 1.356 . S
N374 H380 0.984 . S
N374 H381 0.984 . S
N375 C368 1.356 . S
N375 H378 0.984 . S
N375 H379 0.985 . S
H376 N371 0.984 . S
H377 N371 0.985 . S
H378 N375 0.984 . S
H379 N375 0.985 . S
H380 N374 0.984 . S
H381 N374 0.984 . S
H382 N370 0.984 . S
H383 N370 0.985 . S
C384 C385 1.363 . S
C384 C390 1.379 . S
C384 N392 1.356 . S
C385 C384 1.363 . S
C385 C391 1.363 . S
C386 C387 1.363 . S
C386 C391 1.379 . S
C386 N393 1.356 . S
C387 C386 1.363 . S
C387 C390 1.363 . S
N388 C390 1.356 . S
N388 H400 0.984 . S
N388 H401 0.985 . S
N389 C391 1.356 . S
N389 H394 0.984 . S
N389 H395 0.985 . S
C390 C384 1.379 . S
C390 C387 1.363 . S
C390 N388 1.356 . S
C391 C385 1.363 . S
C391 C386 1.379 . S
C391 N389 1.356 . S
N392 C384 1.356 . S
N392 H398 0.984 . S
N392 H399 0.984 . S
N393 C386 1.356 . S
N393 H396 0.984 . S
N393 H397 0.985 . S
H394 N389 0.984 . S
H395 N389 0.985 . S
H396 N393 0.984 . S
H397 N393 0.985 . S
H398 N392 0.984 . S
H399 N392 0.984 . S
H400 N388 0.984 . S
H401 N388 0.985 . S
C402 C403 1.363 . S
C402 C408 1.379 . S
C402 N410 1.356 . S
C403 C402 1.363 . S
C403 C409 1.363 . S
C404 C405 1.363 1_554 S
C404 C409 1.379 . S
C404 N411 1.356 1_554 S
C405 C404 1.363 1_556 S
C405 C408 1.363 1_556 S
N406 C408 1.356 1_556 S
N406 H418 0.984 . S
N406 H419 0.985 . S
N407 C409 1.356 . S
N407 H412 0.984 . S
N407 H413 0.985 . S
C408 C402 1.379 . S
C408 C405 1.363 1_554 S
C408 N406 1.356 1_554 S
C409 C403 1.363 . S
C409 C404 1.379 . S
C409 N407 1.356 . S
N410 C402 1.356 . S
N410 H416 0.984 . S
N410 H417 0.984 . S
N411 C404 1.356 1_556 S
N411 H414 0.984 . S
N411 H415 0.985 . S
H412 N407 0.984 . S
H413 N407 0.985 . S
H414 N411 0.984 . S
H415 N411 0.985 . S
H416 N410 0.984 . S
H417 N410 0.984 . S
H418 N406 0.984 . S
H419 N406 0.985 . S
C420 C421 1.376 . S
C420 C426 1.380 . S
C420 N428 1.345 1_545 S
C421 C420 1.376 . S
C421 C427 1.363 . S
C422 C423 1.363 . S
C422 C427 1.379 . S
C422 N429 1.356 . S
C423 C422 1.363 . S
C423 C426 1.363 . S
N424 C426 1.356 1_565 S
N424 H436 0.984 . S
N424 H437 0.985 . S
N425 C427 1.356 . S
N425 H430 0.984 . S
N425 H431 0.985 . S
C426 C420 1.380 . S
C426 C423 1.363 . S
C426 N424 1.356 1_545 S
C427 C421 1.363 . S
C427 C422 1.379 . S
C427 N425 1.356 . S
N428 C420 1.345 1_565 S
N428 H434 0.984 . S
N428 H435 0.984 . S
N429 C422 1.356 . S
N429 H432 0.984 . S
N429 H433 0.985 . S
H430 N425 0.984 . S
H431 N425 0.985 . S
H432 N429 0.984 . S
H433 N429 0.985 . S
H434 N428 0.984 . S
H435 N428 0.984 . S
H436 N424 0.984 . S
H437 N424 0.985 . S
C438 C439 1.363 . S
C438 C444 1.379 . S
C438 N446 1.356 . S
C439 C438 1.363 . S
C439 C445 1.363 . S
C440 C441 1.363 . S
C440 C445 1.379 . S
C440 N447 1.356 . S
C441 C440 1.363 . S
C441 C444 1.363 . S
N442 C444 1.356 . S
N442 H454 0.984 . S
N442 H455 0.985 . S
N443 C445 1.356 . S
N443 H448 0.984 . S
N443 H449 0.985 . S
C444 C438 1.379 . S
C444 C441 1.363 . S
C444 N442 1.356 . S
C445 C439 1.363 . S
C445 C440 1.379 . S
C445 N443 1.356 . S
N446 C438 1.356 . S
N446 H452 0.984 . S
N446 H453 0.984 . S
N447 C440 1.356 . S
N447 H450 0.984 . S
N447 H451 0.985 . S
H448 N443 0.984 . S
H449 N443 0.985 . S
H450 N447 0.984 . S
H451 N447 0.985 . S
H452 N446 0.984 . S
H453 N446 0.984 . S
H454 N442 0.984 . S
H455 N442 0.985 . S
C456 C457 1.363 . S
C456 C462 1.379 . S
C456 N464 1.356 . S
C457 C456 1.363 . S
C457 C463 1.363 1_545 S
C458 C459 1.363 1_565 S
C458 C463 1.379 . S
C458 N465 1.356 . S
C459 C458 1.363 1_545 S
C459 C462 1.363 . S
N460 C462 1.356 . S
N460 H472 0.984 . S
N460 H473 0.985 . S
N461 C463 1.356 . S
N461 H466 0.984 . S
N461 H467 0.985 . S
C462 C456 1.379 . S
C462 C459 1.363 . S
C462 N460 1.356 . S
C463 C457 1.363 1_565 S
C463 C458 1.379 . S
C463 N461 1.356 . S
N464 C456 1.356 . S
N464 H470 0.984 . S
N464 H471 0.984 . S
N465 C458 1.356 . S
N465 H468 0.984 . S
N465 H469 0.985 . S
H466 N461 0.984 . S
H467 N461 0.985 . S
H468 N465 0.984 . S
H469 N465 0.985 . S
H470 N464 0.984 . S
H471 N464 0.984 . S
H472 N460 0.984 . S
H473 N460 0.985 . S
C474 C475 1.363 . S
C474 C480 1.379 1_556 S
C474 N482 1.356 . S
C475 C474 1.363 . S
C475 C481 1.363 . S
C476 C477 1.363 1_556 S
C476 C481 1.379 . S
C476 N483 1.356 . S
C477 C476 1.363 1_554 S
C477 C480 1.363 . S
N478 C480 1.356 . S
N478 H490 0.984 . S
N478 H491 0.985 . S
N479 C481 1.356 . S
N479 H484 0.984 . S
N479 H485 0.985 . S
C480 C474 1.379 1_554 S
C480 C477 1.363 . S
C480 N478 1.356 . S
C481 C475 1.363 . S
C481 C476 1.379 . S
C481 N479 1.356 . S
N482 C474 1.356 . S
N482 H488 0.984 . S
N482 H489 0.984 . S
N483 C476 1.356 . S
N483 H486 0.984 1_556 S
N483 H487 0.985 . S
H484 N479 0.984 . S
H485 N479 0.985 . S
H486 N483 0.984 1_554 S
H487 N483 0.985 . S
H488 N482 0.984 . S
H489 N482 0.984 . S
H490 N478 0.984 . S
H491 N478 0.985 . S
C492 C493 1.363 . S
C492 C498 1.379 . S
C492 N500 1.356 . S
C493 C492 1.363 . S
C493 C499 1.363 1_455 S
C494 C495 1.363 1_655 S
C494 C499 1.379 . S
C494 N501 1.356 . S
C495 C494 1.363 1_455 S
C495 C498 1.363 . S
N496 C498 1.356 . S
N496 H508 0.984 . S
N496 H509 0.985 . S
N497 C499 1.356 . S
N497 H502 0.984 . S
N497 H503 0.985 . S
C498 C492 1.379 . S
C498 C495 1.363 . S
C498 N496 1.356 . S
C499 C493 1.363 1_655 S
C499 C494 1.379 . S
C499 N497 1.356 . S
N500 C492 1.356 . S
N500 H506 0.984 . S
N500 H507 0.984 . S
N501 C494 1.356 . S
N501 H504 0.984 . S
N501 H505 0.985 . S
H502 N497 0.984 . S
H503 N497 0.985 . S
H504 N501 0.984 . S
H505 N501 0.985 . S
H506 N500 0.984 . S
H507 N500 0.984 . S
H508 N496 0.984 . S
H509 N496 0.985 . S
C187 C7 1.143 . S
C189 C185 1.265 . S
C205 C51 1.969 . S
C207 C163 1.909 . S
C223 C87 1.420 . S
C225 C174 1.475 . S
C241 C16 0.696 . S
C243 C179 0.642 . S
C261 C157 1.876 . S
C259 C42 1.926 . S
C279 C168 1.270 . S
C277 C96 1.245 . S
C295 C47 1.381 . S
C297 C141 1.414 . S
C313 C91 3.091 . S
C315 C146 3.053 . S
C331 C2 1.953 . S
C333 C124 1.928 . S
C351 C135 1.285 . S
C349 C56 1.247 . S
C369 C152 3.044 . S
C367 C82 3.092 . S
C385 C11 1.983 . S
C387 C130 1.945 . S
C405 C147 1.757 . S
C403 C19 1.724 . S
C421 C50 1.391 . S
C423 C125 1.449 . S
C439 C99 1.504 . S
C441 C136 1.534 . S
C459 C169 1.498 . S
C457 C59 1.494 . S
C477 C180 1.199 . S
C475 C90 1.204 . S
C493 C10 1.368 . S
C495 C158 1.406 . S
